100-75-4
ChemmineR-0914142331XD

  8  8  0  0  0  0  0  0  0  0  1 V2000
    0.0000    0.0000    0.0000 O   0  0  0  0  0  0  0  0  0  0  0  0
    0.6654   -1.1540    0.0000 N   0  0  0  0  0  0  0  0  0  0  0  0
    1.9962   -1.1540    0.0000 N   0  0  0  0  0  0  0  0  0  0  0  0
    2.6569    0.0000    0.0000 C   0  0  0  0  0  0  0  0  0  0  0  0
    3.9877    0.0000    0.0000 C   0  0  0  0  0  0  0  0  0  0  0  0
    4.6531   -1.1540    0.0000 C   0  0  0  0  0  0  0  0  0  0  0  0
    3.9877   -2.3033    0.0000 C   0  0  0  0  0  0  0  0  0  0  0  0
    2.6569   -2.3033    0.0000 C   0  0  0  0  0  0  0  0  0  0  0  0
  1  2  2  0  0  0  0
  2  3  1  0  0  0  0
  3  4  1  0  0  0  0
  3  8  1  0  0  0  0
  4  5  1  0  0  0  0
  5  6  1  0  0  0  0
  6  7  1  0  0  0  0
  7  8  1  0  0  0  0
M  END
> <ID>
1024

> <Formula>
C5H10N2O

> <FW>
114.1457

> <DSSTox_CID>
1060

> <DSSTox_RID>
75924

> <DSSTox_GSID>
21060

> <DSSTox_FileID_Sort>
608

> <TS_ChemName>
N-Nitrosopiperidine

> <TS_ChemName_Synonyms>


> <TS_CASRN>
100-75-4

> <CASRN_ChemName_Relationship>
primary

> <TS_Description>
single chemical compound

> <ChemNote>


> <STRUCTURE_Shown>
tested chemical

> <STRUCTURE_Formula>
C5H10N2O

> <STRUCTURE_MW>
114.1457

> <STRUCTURE_ChemType>
defined organic

> <STRUCTURE_DefinedOrganicForm>
parent

> <STRUCTURE_IUPAC>
1-nitrosopiperidine

> <STRUCTURE_SMILES>
O=NN1CCCCC1

> <STRUCTURE_SMILES_Desalt>
O=NN1CCCCC1

> <Substance_modify_yyyymmdd>
20080429

$$$$
