100-55-0
ChemmineR-0914142331XD

  8  8  0  0  0  0  0  0  0  0  1 V2000
    4.6531   -1.1540    0.0000 C   0  0  0  0  0  0  0  0  0  0  0  0
    3.9877   -2.3033    0.0000 C   0  0  0  0  0  0  0  0  0  0  0  0
    2.6569   -2.3033    0.0000 C   0  0  0  0  0  0  0  0  0  0  0  0
    1.9962   -1.1540    0.0000 C   0  0  0  0  0  0  0  0  0  0  0  0
    0.6654   -1.1540    0.0000 C   0  0  0  0  0  0  0  0  0  0  0  0
    0.0000    0.0000    0.0000 O   0  0  0  0  0  0  0  0  0  0  0  0
    2.6569    0.0000    0.0000 C   0  0  0  0  0  0  0  0  0  0  0  0
    3.9877    0.0000    0.0000 N   0  0  0  0  0  0  0  0  0  0  0  0
  1  2  2  0  0  0  0
  1  8  1  0  0  0  0
  2  3  1  0  0  0  0
  3  4  2  0  0  0  0
  4  5  1  0  0  0  0
  4  7  1  0  0  0  0
  5  6  1  0  0  0  0
  7  8  2  0  0  0  0
M  END
> <ID>
3020

> <Formula>
C6H7NO

> <FW>
109.1259

> <DSSTox_CID>
3367

> <DSSTox_RID>
76995

> <DSSTox_GSID>
23367

> <DSSTox_FileID_Sort>
1679

> <TS_ChemName>
Nicotinyl alcohol

> <TS_ChemName_Synonyms>


> <TS_CASRN>
100-55-0

> <CASRN_ChemName_Relationship>
primary

> <TS_Description>
single chemical compound

> <ChemNote>


> <STRUCTURE_Shown>
tested chemical

> <STRUCTURE_Formula>
C6H7NO

> <STRUCTURE_MW>
109.1259

> <STRUCTURE_ChemType>
defined organic

> <STRUCTURE_DefinedOrganicForm>
parent

> <STRUCTURE_IUPAC>
pyridin-3-ylmethanol

> <STRUCTURE_SMILES>
OCc1cccnc1

> <STRUCTURE_SMILES_Desalt>
OCc1cccnc1

> <Substance_modify_yyyymmdd>
20080429

$$$$
