100-61-8
ChemmineR-0914142331XD

  8  8  0  0  0  0  0  0  0  0  1 V2000
    4.6531   -1.1540    0.0000 C   0  0  0  0  0  0  0  0  0  0  0  0
    3.9877   -2.3033    0.0000 C   0  0  0  0  0  0  0  0  0  0  0  0
    2.6569   -2.3033    0.0000 C   0  0  0  0  0  0  0  0  0  0  0  0
    1.9962   -1.1540    0.0000 C   0  0  0  0  0  0  0  0  0  0  0  0
    0.6654   -1.1540    0.0000 N   0  0  0  0  0  0  0  0  0  0  0  0
    0.0000    0.0000    0.0000 C   0  0  0  0  0  0  0  0  0  0  0  0
    3.9877    0.0000    0.0000 C   0  0  0  0  0  0  0  0  0  0  0  0
    2.6569    0.0000    0.0000 C   0  0  0  0  0  0  0  0  0  0  0  0
  1  2  2  0  0  0  0
  1  7  1  0  0  0  0
  2  3  1  0  0  0  0
  3  4  2  0  0  0  0
  4  5  1  0  0  0  0
  4  8  1  0  0  0  0
  5  6  1  0  0  0  0
  7  8  2  0  0  0  0
M  END
> <ID>
1730

> <Formula>
C7H9N

> <FW>
107.1531

> <DSSTox_CID>
1841

> <DSSTox_RID>
76360

> <DSSTox_GSID>
21841

> <DSSTox_FileID_Sort>
1044

> <TS_ChemName>
N-Methylaniline

> <TS_ChemName_Synonyms>


> <TS_CASRN>
100-61-8

> <CASRN_ChemName_Relationship>
primary

> <TS_Description>
single chemical compound

> <ChemNote>


> <STRUCTURE_Shown>
tested chemical

> <STRUCTURE_Formula>
C7H9N

> <STRUCTURE_MW>
107.1531

> <STRUCTURE_ChemType>
defined organic

> <STRUCTURE_DefinedOrganicForm>
parent

> <STRUCTURE_IUPAC>
N-methylaniline

> <STRUCTURE_SMILES>
CNc1ccccc1

> <STRUCTURE_SMILES_Desalt>
CNc1ccccc1

> <Substance_modify_yyyymmdd>
20080429

$$$$
