101-77-9
ChemmineR-0914142331XD

 15 16  0  0  0  0  0  0  0  0  1 V2000
    8.0570   -1.9981    0.0000 C   0  0  0  0  0  0  0  0  0  0  0  0
    9.2080   -2.6611    0.0000 N   0  0  0  0  0  0  0  0  0  0  0  0
    6.9060   -2.6611    0.0000 C   0  0  0  0  0  0  0  0  0  0  0  0
    5.7550   -1.9981    0.0000 C   0  0  0  0  0  0  0  0  0  0  0  0
    5.7550   -0.6630    0.0000 C   0  0  0  0  0  0  0  0  0  0  0  0
    6.9060    0.0000    0.0000 C   0  0  0  0  0  0  0  0  0  0  0  0
    8.0570   -0.6630    0.0000 C   0  0  0  0  0  0  0  0  0  0  0  0
    4.6040    0.0000    0.0000 C   0  0  0  0  0  0  0  0  0  0  0  0
    3.4530   -0.6630    0.0000 C   0  0  0  0  0  0  0  0  0  0  0  0
    3.4530   -1.9981    0.0000 C   0  0  0  0  0  0  0  0  0  0  0  0
    2.3020   -2.6611    0.0000 C   0  0  0  0  0  0  0  0  0  0  0  0
    1.1510   -1.9981    0.0000 C   0  0  0  0  0  0  0  0  0  0  0  0
    1.1510   -0.6630    0.0000 C   0  0  0  0  0  0  0  0  0  0  0  0
    2.3020    0.0000    0.0000 C   0  0  0  0  0  0  0  0  0  0  0  0
    0.0000   -2.6611    0.0000 N   0  0  0  0  0  0  0  0  0  0  0  0
  1  2  1  0  0  0  0
  1  3  1  0  0  0  0
  1  7  2  0  0  0  0
  3  4  2  0  0  0  0
  4  5  1  0  0  0  0
  5  6  2  0  0  0  0
  5  8  1  0  0  0  0
  6  7  1  0  0  0  0
  8  9  1  0  0  0  0
  9 10  2  0  0  0  0
  9 14  1  0  0  0  0
 10 11  1  0  0  0  0
 11 12  2  0  0  0  0
 12 13  1  0  0  0  0
 12 15  1  0  0  0  0
 13 14  2  0  0  0  0
M  END
> <ID>
2219

> <Formula>
C13H14N2

> <FW>
198.2637

> <DSSTox_CID>
2422

> <DSSTox_RID>
76586

> <DSSTox_GSID>
22422

> <DSSTox_FileID_Sort>
1270

> <TS_ChemName>
4,4'-Methylenedianiline

> <TS_ChemName_Synonyms>
4,4'-Methylenedianiline (Methylenedianiline) )4-[(4-aminophenyl)methyl]aniline)

> <TS_CASRN>
101-77-9

> <CASRN_ChemName_Relationship>
primary

> <TS_Description>
single chemical compound

> <ChemNote>


> <STRUCTURE_Shown>
tested chemical

> <STRUCTURE_Formula>
C13H14N2

> <STRUCTURE_MW>
198.2637

> <STRUCTURE_ChemType>
defined organic

> <STRUCTURE_DefinedOrganicForm>
parent

> <STRUCTURE_IUPAC>
4,4'-methanediyldianiline

> <STRUCTURE_SMILES>
Nc2ccc(Cc1ccc(N)cc1)cc2

> <STRUCTURE_SMILES_Desalt>
Nc2ccc(Cc1ccc(N)cc1)cc2

> <Substance_modify_yyyymmdd>
20080429

$$$$
