101-05-3
ChemmineR-0914142331XD

 16 17  0  0  0  0  0  0  0  0  1 V2000
    0.0000   -3.9909    0.0000 Cl   0  0  0  0  0  0  0  0  0  0  0  0
    1.1529   -3.3297    0.0000 C    0  0  0  0  0  0  0  0  0  0  0  0
    1.1529   -1.9995    0.0000 N    0  0  0  0  0  0  0  0  0  0  0  0
    2.3058   -1.3303    0.0000 C    0  0  0  0  0  0  0  0  0  0  0  0
    3.4587   -1.9995    0.0000 N    0  0  0  0  0  0  0  0  0  0  0  0
    3.4587   -3.3297    0.0000 C    0  0  0  0  0  0  0  0  0  0  0  0
    2.3058   -3.9909    0.0000 N    0  0  0  0  0  0  0  0  0  0  0  0
    4.6036   -3.9909    0.0000 N    0  0  0  0  0  0  0  0  0  0  0  0
    5.7565   -3.3297    0.0000 C    0  0  0  0  0  0  0  0  0  0  0  0
    5.7565   -1.9995    0.0000 C    0  0  0  0  0  0  0  0  0  0  0  0
    6.9094   -1.3303    0.0000 C    0  0  0  0  0  0  0  0  0  0  0  0
    8.0623   -1.9995    0.0000 C    0  0  0  0  0  0  0  0  0  0  0  0
    8.0623   -3.3297    0.0000 C    0  0  0  0  0  0  0  0  0  0  0  0
    6.9094   -3.9909    0.0000 C    0  0  0  0  0  0  0  0  0  0  0  0
    6.9094   -5.3211    0.0000 Cl   0  0  0  0  0  0  0  0  0  0  0  0
    2.3058    0.0000    0.0000 Cl   0  0  0  0  0  0  0  0  0  0  0  0
  1  2  1  0  0  0  0
  2  3  2  0  0  0  0
  2  7  1  0  0  0  0
  3  4  1  0  0  0  0
  4  5  2  0  0  0  0
  4 16  1  0  0  0  0
  5  6  1  0  0  0  0
  6  7  2  0  0  0  0
  6  8  1  0  0  0  0
  8  9  1  0  0  0  0
  9 10  2  0  0  0  0
  9 14  1  0  0  0  0
 10 11  1  0  0  0  0
 11 12  2  0  0  0  0
 12 13  1  0  0  0  0
 13 14  2  0  0  0  0
 14 15  1  0  0  0  0
M  END
> <ID>
87

> <Formula>
C9H5Cl3N4

> <FW>
275.5218

> <DSSTox_CID>
89

> <DSSTox_RID>
75358

> <DSSTox_GSID>
20089

> <DSSTox_FileID_Sort>
42

> <TS_ChemName>
Anilazine

> <TS_ChemName_Synonyms>
Dyrene; 1,3,5-Triazine-2-amine, 4,6-dichloro-N-(2-chlorophenyl)-

> <TS_CASRN>
101-05-3

> <CASRN_ChemName_Relationship>
primary

> <TS_Description>
single chemical compound

> <ChemNote>


> <STRUCTURE_Shown>
tested chemical

> <STRUCTURE_Formula>
C9H5Cl3N4

> <STRUCTURE_MW>
275.5218

> <STRUCTURE_ChemType>
defined organic

> <STRUCTURE_DefinedOrganicForm>
parent

> <STRUCTURE_IUPAC>
4,6-dichloro-N-(2-chlorophenyl)-1,3,5-triazin-2-amine

> <STRUCTURE_SMILES>
Clc2nc(Nc1ccccc1Cl)nc(Cl)n2

> <STRUCTURE_SMILES_Desalt>
Clc2nc(Nc1ccccc1Cl)nc(Cl)n2

> <Substance_modify_yyyymmdd>
20080429

$$$$
