102-77-2
ChemmineR-0914142331XD

 16 18  0  0  0  0  0  0  0  0  1 V2000
    3.9607   -1.9847    0.0000 N   0  0  0  0  0  0  0  0  0  0  0  0
    4.1000   -0.6616    0.0000 C   0  0  0  0  0  0  0  0  0  0  0  0
    2.8813   -0.1219    0.0000 S   0  0  0  0  0  0  0  0  0  0  0  0
    1.9934   -1.1055    0.0000 C   0  0  0  0  0  0  0  0  0  0  0  0
    2.6550   -2.2633    0.0000 C   0  0  0  0  0  0  0  0  0  0  0  0
    1.9934   -3.4123    0.0000 C   0  0  0  0  0  0  0  0  0  0  0  0
    0.6616   -3.4123    0.0000 C   0  0  0  0  0  0  0  0  0  0  0  0
    0.0000   -2.2633    0.0000 C   0  0  0  0  0  0  0  0  0  0  0  0
    0.6616   -1.1055    0.0000 C   0  0  0  0  0  0  0  0  0  0  0  0
    5.2490    0.0000    0.0000 S   0  0  0  0  0  0  0  0  0  0  0  0
    6.3981   -0.6616    0.0000 N   0  0  0  0  0  0  0  0  0  0  0  0
    7.5558    0.0000    0.0000 C   0  0  0  0  0  0  0  0  0  0  0  0
    8.7049   -0.6616    0.0000 C   0  0  0  0  0  0  0  0  0  0  0  0
    8.7049   -1.9934    0.0000 O   0  0  0  0  0  0  0  0  0  0  0  0
    7.5558   -2.6550    0.0000 C   0  0  0  0  0  0  0  0  0  0  0  0
    6.3981   -1.9934    0.0000 C   0  0  0  0  0  0  0  0  0  0  0  0
  1  2  2  0  0  0  0
  1  5  1  0  0  0  0
  2  3  1  0  0  0  0
  2 10  1  0  0  0  0
  3  4  1  0  0  0  0
  4  5  2  0  0  0  0
  4  9  1  0  0  0  0
  5  6  1  0  0  0  0
  6  7  2  0  0  0  0
  7  8  1  0  0  0  0
  8  9  2  0  0  0  0
 10 11  1  0  0  0  0
 11 12  1  0  0  0  0
 11 16  1  0  0  0  0
 12 13  1  0  0  0  0
 13 14  1  0  0  0  0
 14 15  1  0  0  0  0
 15 16  1  0  0  0  0
M  END
> <ID>
1055

> <Formula>
C11H12N2OS2

> <FW>
252.3558

> <DSSTox_CID>
1096

> <DSSTox_RID>
75938

> <DSSTox_GSID>
21096

> <DSSTox_FileID_Sort>
622

> <TS_ChemName>
N-Oxydiethylenebenzothiazole-2-sulfenamide

> <TS_ChemName_Synonyms>
N-Oxydiethylenebenzothiazole-2-sulfenamide (Morpholine, 4-(2-benzothiazolylthio)-)

> <TS_CASRN>
102-77-2

> <CASRN_ChemName_Relationship>
primary

> <TS_Description>
single chemical compound

> <ChemNote>


> <STRUCTURE_Shown>
tested chemical

> <STRUCTURE_Formula>
C11H12N2OS2

> <STRUCTURE_MW>
252.3558

> <STRUCTURE_ChemType>
defined organic

> <STRUCTURE_DefinedOrganicForm>
parent

> <STRUCTURE_IUPAC>
2-(morpholin-4-ylsulfanyl)-1,3-benzothiazole

> <STRUCTURE_SMILES>
c1cccc2sc(nc12)SN3CCOCC3

> <STRUCTURE_SMILES_Desalt>
c1cccc2sc(nc12)SN3CCOCC3

> <Substance_modify_yyyymmdd>
20080429

$$$$
