102676-31-3
ChemmineR-0914142331XD

 18 19  0  0  0  0  0  0  0  0  1 V2000
    2.0029   -2.0495    0.0000 N    0  0  0  0  0  0  0  0  0  0  0  0
    2.6550   -3.1953    0.0000 C    0  0  0  0  0  0  0  0  0  0  0  0
    0.6521   -2.0495    0.0000 C    0  0  0  0  0  0  0  0  0  0  0  0
    2.4035   -0.7825    0.0000 C    0  0  0  0  0  0  0  0  0  0  0  0
    3.9872   -3.1953    0.0000 C    0  0  0  0  0  0  0  0  0  0  0  0
    2.0029   -4.3505    0.0000 C    0  0  0  0  0  0  0  0  0  0  0  0
    0.0000   -3.1953    0.0000 C    0  0  0  0  0  0  0  0  0  0  0  0
    0.2515   -0.7825    0.0000 C    0  0  0  0  0  0  0  0  0  0  0  0
    1.3322    0.0000    0.0000 N    0  0  0  0  0  0  0  0  0  0  0  0
    4.6765   -2.0495    0.0000 C    0  0  0  0  0  0  0  0  0  0  0  0
    4.6765   -4.3505    0.0000 C    0  0  0  0  0  0  0  0  0  0  0  0
    0.6521   -4.3505    0.0000 C    0  0  0  0  0  0  0  0  0  0  0  0
    5.9901   -2.0495    0.0000 C    0  0  0  0  0  0  0  0  0  0  0  0
    5.9901   -4.3505    0.0000 C    0  0  0  0  0  0  0  0  0  0  0  0
    6.6608   -3.1953    0.0000 C    0  0  0  0  0  0  0  0  0  0  0  0
    7.9836   -3.1953    0.0000 C    0  0  0  0  0  0  0  0  0  0  0  0
    9.3158   -3.1953    0.0000 N    0  0  0  0  0  0  0  0  0  0  0  0
    4.6300   -0.5683    0.0000 Cl   0  0  0  0  0  0  0  0  0  0  0  0
  1  2  1  0  0  0  0
  1  3  1  0  0  0  0
  1  4  1  0  0  0  0
  2  5  1  0  0  0  0
  2  6  1  0  0  0  0
  3  7  1  0  0  0  0
  3  8  2  0  0  0  0
  4  9  2  0  0  0  0
  5 10  2  0  0  0  0
  5 11  1  0  0  0  0
  6 12  1  0  0  0  0
  7 12  1  0  0  0  0
  8  9  1  0  0  0  0
 10 13  1  0  0  0  0
 11 14  2  0  0  0  0
 13 15  2  0  0  0  0
 14 15  1  0  0  0  0
 15 16  1  0  0  0  0
 16 17  3  0  0  0  0
M  END
> <ID>
593

> <Formula>
C14H14ClN3

> <FW>
259.7341 (223.2731+36.4609)

> <DSSTox_CID>
618

> <DSSTox_RID>
75694

> <DSSTox_GSID>
20618

> <DSSTox_FileID_Sort>
378

> <TS_ChemName>
Fadrozole hydrochloride

> <TS_ChemName_Synonyms>


> <TS_CASRN>
102676-31-3

> <CASRN_ChemName_Relationship>
primary

> <TS_Description>
single chemical compound

> <ChemNote>
parent [102676-47-1]

> <STRUCTURE_Shown>
tested chemical

> <STRUCTURE_Formula>
C14H14ClN3

> <STRUCTURE_MW>
259.7341

> <STRUCTURE_ChemType>
defined organic

> <STRUCTURE_DefinedOrganicForm>
complex

> <STRUCTURE_IUPAC>
4-(5,6,7,8-tetrahydroimidazo[1,5-a]pyridin-5-yl)benzonitrile hydrochloride (1:1)

> <STRUCTURE_SMILES>
Cl.N#Cc1ccc(cc1)C3CCCc2cncn23

> <STRUCTURE_SMILES_Desalt>
N#Cc1ccc(cc1)C3CCCc2cncn23

> <Substance_modify_yyyymmdd>
20080429

$$$$
