102625-70-7
ChemmineR-0914142331XD

 26 28  0  0  0  0  0  0  0  0  1 V2000
    7.0084   -0.2616    0.0000 N   0  0  0  0  0  0  0  0  0  0  0  0
    7.7795   -1.3218    0.0000 C   0  0  0  0  0  0  0  0  0  0  0  0
    7.0084   -2.4096    0.0000 N   0  0  0  0  0  0  0  0  0  0  0  0
    5.7554   -0.6609    0.0000 C   0  0  0  0  0  0  0  0  0  0  0  0
    5.7554   -1.9965    0.0000 C   0  0  0  0  0  0  0  0  0  0  0  0
    4.6126   -2.6712    0.0000 C   0  0  0  0  0  0  0  0  0  0  0  0
    3.4560   -1.9965    0.0000 C   0  0  0  0  0  0  0  0  0  0  0  0
    3.4560   -0.6609    0.0000 C   0  0  0  0  0  0  0  0  0  0  0  0
    4.6126    0.0000    0.0000 C   0  0  0  0  0  0  0  0  0  0  0  0
    2.3132   -2.6712    0.0000 O   0  0  0  0  0  0  0  0  0  0  0  0
    1.1566   -1.9965    0.0000 C   0  0  0  0  0  0  0  0  0  0  0  0
    1.1566   -0.6609    0.0000 F   0  0  0  0  0  0  0  0  0  0  0  0
    0.0000   -2.6712    0.0000 F   0  0  0  0  0  0  0  0  0  0  0  0
    9.1013   -1.3218    0.0000 S   0  0  0  0  0  0  0  0  0  0  0  0
    9.7760   -2.4784    0.0000 C   0  0  0  0  0  0  0  0  0  0  0  0
    9.7760   -0.1790    0.0000 O   0  0  0  0  0  0  0  0  0  0  0  0
   11.1115   -2.4784    0.0000 C   0  0  0  0  0  0  0  0  0  0  0  0
   11.7724   -1.3218    0.0000 N   0  0  0  0  0  0  0  0  0  0  0  0
   13.1080   -1.3218    0.0000 C   0  0  0  0  0  0  0  0  0  0  0  0
   13.7689   -2.4784    0.0000 C   0  0  0  0  0  0  0  0  0  0  0  0
   13.1080   -3.6212    0.0000 C   0  0  0  0  0  0  0  0  0  0  0  0
   11.7724   -3.6212    0.0000 C   0  0  0  0  0  0  0  0  0  0  0  0
   11.1115   -4.7778    0.0000 O   0  0  0  0  0  0  0  0  0  0  0  0
    9.7760   -4.7778    0.0000 C   0  0  0  0  0  0  0  0  0  0  0  0
   13.7689   -4.7778    0.0000 O   0  0  0  0  0  0  0  0  0  0  0  0
   13.1080   -5.9344    0.0000 C   0  0  0  0  0  0  0  0  0  0  0  0
  1  4  1  0  0  0  0
  1  2  1  0  0  0  0
  2 14  1  0  0  0  0
  2  3  2  0  0  0  0
  3  5  1  0  0  0  0
  4  9  1  0  0  0  0
  4  5  2  0  0  0  0
  5  6  1  0  0  0  0
  6  7  2  0  0  0  0
  7  8  1  0  0  0  0
  7 10  1  0  0  0  0
  8  9  2  0  0  0  0
 10 11  1  0  0  0  0
 11 13  1  0  0  0  0
 11 12  1  0  0  0  0
 14 15  1  0  0  0  0
 14 16  2  0  0  0  0
 15 17  1  0  0  0  0
 17 18  2  0  0  0  0
 17 22  1  0  0  0  0
 18 19  1  0  0  0  0
 19 20  2  0  0  0  0
 20 21  1  0  0  0  0
 21 22  2  0  0  0  0
 21 25  1  0  0  0  0
 22 23  1  0  0  0  0
 23 24  1  0  0  0  0
 25 26  1  0  0  0  0
M  END
> <ID>
3063

> <Formula>
C16H15F2N3O4S

> <FW>
383.3698

> <DSSTox_CID>
3416

> <DSSTox_RID>
77019

> <DSSTox_GSID>
23416

> <DSSTox_FileID_Sort>
1703

> <TS_ChemName>
Pantoprazole

> <TS_ChemName_Synonyms>


> <TS_CASRN>
102625-70-7

> <CASRN_ChemName_Relationship>
primary

> <TS_Description>
single chemical compound

> <ChemNote>
tautomers

> <STRUCTURE_Shown>
tested chemical

> <STRUCTURE_Formula>
C16H15F2N3O4S

> <STRUCTURE_MW>
383.3698

> <STRUCTURE_ChemType>
defined organic

> <STRUCTURE_DefinedOrganicForm>
parent

> <STRUCTURE_IUPAC>
5-(difluoromethoxy)-2-{[(3,4-dimethoxypyridin-2-yl)methyl]sulfinyl}-1H-benzimidazole

> <STRUCTURE_SMILES>
COc3c(OC)ccnc3CS(=O)c1nc2cc(ccc2n1)OC(F)F

> <STRUCTURE_SMILES_Desalt>
COc3c(OC)ccnc3CS(=O)c1nc2cc(ccc2n1)OC(F)F

> <Substance_modify_yyyymmdd>
20080429

$$$$
