103-03-7
ChemmineR-0914142331XD

 11 11  0  0  0  0  0  0  0  0  1 V2000
    0.0000   -2.3079    0.0000 N   0  0  0  0  0  0  0  0  0  0  0  0
    0.6651   -1.1573    0.0000 C   0  0  0  0  0  0  0  0  0  0  0  0
    0.0000    0.0000    0.0000 O   0  0  0  0  0  0  0  0  0  0  0  0
    1.9953   -1.1573    0.0000 N   0  0  0  0  0  0  0  0  0  0  0  0
    2.6605   -2.3079    0.0000 N   0  0  0  0  0  0  0  0  0  0  0  0
    3.9907   -2.3079    0.0000 C   0  0  0  0  0  0  0  0  0  0  0  0
    4.6558   -1.1573    0.0000 C   0  0  0  0  0  0  0  0  0  0  0  0
    5.9860   -1.1573    0.0000 C   0  0  0  0  0  0  0  0  0  0  0  0
    6.6511   -2.3079    0.0000 C   0  0  0  0  0  0  0  0  0  0  0  0
    5.9860   -3.4586    0.0000 C   0  0  0  0  0  0  0  0  0  0  0  0
    4.6558   -3.4586    0.0000 C   0  0  0  0  0  0  0  0  0  0  0  0
  1  2  1  0  0  0  0
  2  3  2  0  0  0  0
  2  4  1  0  0  0  0
  4  5  1  0  0  0  0
  5  6  1  0  0  0  0
  6  7  2  0  0  0  0
  6 11  1  0  0  0  0
  7  8  1  0  0  0  0
  8  9  2  0  0  0  0
  9 10  1  0  0  0  0
 10 11  2  0  0  0  0
M  END
> <ID>
241

> <Formula>
C7H9N3O

> <FW>
151.1659

> <DSSTox_CID>
245

> <DSSTox_RID>
75459

> <DSSTox_GSID>
20245

> <DSSTox_FileID_Sort>
143

> <TS_ChemName>
Phenicarbazide

> <TS_ChemName_Synonyms>
Phenicarbazide (1-Carbamyl-2-phenylhydrazine)

> <TS_CASRN>
103-03-7

> <CASRN_ChemName_Relationship>
primary

> <TS_Description>
single chemical compound

> <ChemNote>


> <STRUCTURE_Shown>
tested chemical

> <STRUCTURE_Formula>
C7H9N3O

> <STRUCTURE_MW>
151.1659

> <STRUCTURE_ChemType>
defined organic

> <STRUCTURE_DefinedOrganicForm>
parent

> <STRUCTURE_IUPAC>
2-phenylhydrazinecarboxamide

> <STRUCTURE_SMILES>
NC(=O)NNc1ccccc1

> <STRUCTURE_SMILES_Desalt>
NC(=O)NNc1ccccc1

> <Substance_modify_yyyymmdd>
20080429

$$$$
