103-76-4
ChemmineR-0914142331XD

  9  9  0  0  0  0  0  0  0  0  1 V2000
    0.0000    0.0000    0.0000 O   0  0  0  0  0  0  0  0  0  0  0  0
    1.3283    0.0000    0.0000 C   0  0  0  0  0  0  0  0  0  0  0  0
    1.9925   -1.1548    0.0000 C   0  0  0  0  0  0  0  0  0  0  0  0
    3.3269   -1.1548    0.0000 N   0  0  0  0  0  0  0  0  0  0  0  0
    3.9910    0.0000    0.0000 C   0  0  0  0  0  0  0  0  0  0  0  0
    5.3194    0.0000    0.0000 C   0  0  0  0  0  0  0  0  0  0  0  0
    5.9836   -1.1548    0.0000 N   0  0  0  0  0  0  0  0  0  0  0  0
    5.3194   -2.3037    0.0000 C   0  0  0  0  0  0  0  0  0  0  0  0
    3.9910   -2.3037    0.0000 C   0  0  0  0  0  0  0  0  0  0  0  0
  1  2  1  0  0  0  0
  2  3  1  0  0  0  0
  3  4  1  0  0  0  0
  4  5  1  0  0  0  0
  4  9  1  0  0  0  0
  5  6  1  0  0  0  0
  6  7  1  0  0  0  0
  7  8  1  0  0  0  0
  8  9  1  0  0  0  0
M  END
> <ID>
1740

> <Formula>
C6H14N2O

> <FW>
130.1882

> <DSSTox_CID>
1853

> <DSSTox_RID>
76366

> <DSSTox_GSID>
21853

> <DSSTox_FileID_Sort>
1050

> <TS_ChemName>
1-Piperazineethanol

> <TS_ChemName_Synonyms>
1-Piperazineethanol (1-(2-Hydroxyethyl)piperazine)

> <TS_CASRN>
103-76-4

> <CASRN_ChemName_Relationship>
primary

> <TS_Description>
single chemical compound

> <ChemNote>


> <STRUCTURE_Shown>
tested chemical

> <STRUCTURE_Formula>
C6H14N2O

> <STRUCTURE_MW>
130.1882

> <STRUCTURE_ChemType>
defined organic

> <STRUCTURE_DefinedOrganicForm>
parent

> <STRUCTURE_IUPAC>
2-(piperazin-1-yl)ethanol

> <STRUCTURE_SMILES>
OCCN1CCNCC1

> <STRUCTURE_SMILES_Desalt>
OCCN1CCNCC1

> <Substance_modify_yyyymmdd>
20080429

$$$$
