103-05-9
ChemmineR-0914142331XD

 12 12  0  0  0  0  0  0  0  0  1 V2000
    1.9960   -3.6337    0.0000 C   0  0  0  0  0  0  0  0  0  0  0  0
    0.6653   -3.6337    0.0000 C   0  0  0  0  0  0  0  0  0  0  0  0
    0.0000   -2.4858    0.0000 C   0  0  0  0  0  0  0  0  0  0  0  0
    0.6653   -1.3307    0.0000 C   0  0  0  0  0  0  0  0  0  0  0  0
    1.9960   -1.3307    0.0000 C   0  0  0  0  0  0  0  0  0  0  0  0
    2.6613   -2.4858    0.0000 C   0  0  0  0  0  0  0  0  0  0  0  0
    3.9846   -2.4858    0.0000 C   0  0  0  0  0  0  0  0  0  0  0  0
    4.6500   -1.3307    0.0000 C   0  0  0  0  0  0  0  0  0  0  0  0
    5.9806   -1.3307    0.0000 C   0  0  0  0  0  0  0  0  0  0  0  0
    5.9806    0.0000    0.0000 C   0  0  0  0  0  0  0  0  0  0  0  0
    7.3113   -1.3307    0.0000 C   0  0  0  0  0  0  0  0  0  0  0  0
    5.9806   -2.6613    0.0000 O   0  0  0  0  0  0  0  0  0  0  0  0
  1  2  2  0  0  0  0
  1  6  1  0  0  0  0
  2  3  1  0  0  0  0
  3  4  2  0  0  0  0
  4  5  1  0  0  0  0
  5  6  2  0  0  0  0
  6  7  1  0  0  0  0
  7  8  1  0  0  0  0
  8  9  1  0  0  0  0
  9 10  1  0  0  0  0
  9 11  1  0  0  0  0
  9 12  1  0  0  0  0
M  END
> <ID>
1738

> <Formula>
C11H16O

> <FW>
164.2441

> <DSSTox_CID>
1851

> <DSSTox_RID>
76365

> <DSSTox_GSID>
21851

> <DSSTox_FileID_Sort>
1049

> <TS_ChemName>
2-Methyl-4-phenylbutan-2-ol

> <TS_ChemName_Synonyms>
Benzyl-tert-butanol

> <TS_CASRN>
103-05-9

> <CASRN_ChemName_Relationship>
primary

> <TS_Description>
single chemical compound

> <ChemNote>


> <STRUCTURE_Shown>
tested chemical

> <STRUCTURE_Formula>
C11H16O

> <STRUCTURE_MW>
164.2441

> <STRUCTURE_ChemType>
defined organic

> <STRUCTURE_DefinedOrganicForm>
parent

> <STRUCTURE_IUPAC>
2-methyl-4-phenylbutan-2-ol

> <STRUCTURE_SMILES>
CC(C)(O)CCc1ccccc1

> <STRUCTURE_SMILES_Desalt>
CC(C)(O)CCc1ccccc1

> <Substance_modify_yyyymmdd>
20080429

$$$$
