103-83-3
ChemmineR-0914142331XD

 10 10  0  0  0  0  0  0  0  0  1 V2000
    1.1520   -0.6682    0.0000 C   0  0  0  0  0  0  0  0  0  0  0  0
    1.1520   -1.9988    0.0000 N   0  0  0  0  0  0  0  0  0  0  0  0
    0.0000   -2.6612    0.0000 C   0  0  0  0  0  0  0  0  0  0  0  0
    2.3041   -2.6612    0.0000 C   0  0  0  0  0  0  0  0  0  0  0  0
    3.4561   -1.9988    0.0000 C   0  0  0  0  0  0  0  0  0  0  0  0
    3.4561   -0.6682    0.0000 C   0  0  0  0  0  0  0  0  0  0  0  0
    4.6082    0.0000    0.0000 C   0  0  0  0  0  0  0  0  0  0  0  0
    5.7602   -0.6682    0.0000 C   0  0  0  0  0  0  0  0  0  0  0  0
    5.7602   -1.9988    0.0000 C   0  0  0  0  0  0  0  0  0  0  0  0
    4.6082   -2.6612    0.0000 C   0  0  0  0  0  0  0  0  0  0  0  0
  1  2  1  0  0  0  0
  2  3  1  0  0  0  0
  2  4  1  0  0  0  0
  4  5  1  0  0  0  0
  5  6  2  0  0  0  0
  5 10  1  0  0  0  0
  6  7  1  0  0  0  0
  7  8  2  0  0  0  0
  8  9  1  0  0  0  0
  9 10  2  0  0  0  0
M  END
> <ID>
1741

> <Formula>
C9H13N

> <FW>
135.2062

> <DSSTox_CID>
1854

> <DSSTox_RID>
76367

> <DSSTox_GSID>
21854

> <DSSTox_FileID_Sort>
1051

> <TS_ChemName>
N,N-Dimethylbenzylamine

> <TS_ChemName_Synonyms>


> <TS_CASRN>
103-83-3

> <CASRN_ChemName_Relationship>
primary

> <TS_Description>
single chemical compound

> <ChemNote>


> <STRUCTURE_Shown>
tested chemical

> <STRUCTURE_Formula>
C9H13N

> <STRUCTURE_MW>
135.2062

> <STRUCTURE_ChemType>
defined organic

> <STRUCTURE_DefinedOrganicForm>
parent

> <STRUCTURE_IUPAC>
N,N-dimethyl-1-phenylmethanamine

> <STRUCTURE_SMILES>
CN(C)Cc1ccccc1

> <STRUCTURE_SMILES_Desalt>
CN(C)Cc1ccccc1

> <Substance_modify_yyyymmdd>
20080429

$$$$
