103-85-5
ChemmineR-0914142331XD

 10 10  0  0  0  0  0  0  0  0  1 V2000
    0.0000   -2.6612    0.0000 N   0  0  0  0  0  0  0  0  0  0  0  0
    1.1520   -1.9988    0.0000 C   0  0  0  0  0  0  0  0  0  0  0  0
    1.1520   -0.6682    0.0000 S   0  0  0  0  0  0  0  0  0  0  0  0
    2.3041   -2.6612    0.0000 N   0  0  0  0  0  0  0  0  0  0  0  0
    3.4561   -1.9988    0.0000 C   0  0  0  0  0  0  0  0  0  0  0  0
    3.4561   -0.6682    0.0000 C   0  0  0  0  0  0  0  0  0  0  0  0
    4.6082    0.0000    0.0000 C   0  0  0  0  0  0  0  0  0  0  0  0
    5.7602   -0.6682    0.0000 C   0  0  0  0  0  0  0  0  0  0  0  0
    5.7602   -1.9988    0.0000 C   0  0  0  0  0  0  0  0  0  0  0  0
    4.6082   -2.6612    0.0000 C   0  0  0  0  0  0  0  0  0  0  0  0
  1  2  1  0  0  0  0
  2  3  2  0  0  0  0
  2  4  1  0  0  0  0
  4  5  1  0  0  0  0
  5  6  2  0  0  0  0
  5 10  1  0  0  0  0
  6  7  1  0  0  0  0
  7  8  2  0  0  0  0
  8  9  1  0  0  0  0
  9 10  2  0  0  0  0
M  END
> <ID>
1090

> <Formula>
C7H8N2S

> <FW>
152.2168

> <DSSTox_CID>
1134

> <DSSTox_RID>
75965

> <DSSTox_GSID>
21134

> <DSSTox_FileID_Sort>
649

> <TS_ChemName>
1-Phenyl-2-thiourea

> <TS_ChemName_Synonyms>


> <TS_CASRN>
103-85-5

> <CASRN_ChemName_Relationship>
primary

> <TS_Description>
single chemical compound

> <ChemNote>
C.I Solvent yellow 14

> <STRUCTURE_Shown>
tested chemical

> <STRUCTURE_Formula>
C7H8N2S

> <STRUCTURE_MW>
152.2168

> <STRUCTURE_ChemType>
defined organic

> <STRUCTURE_DefinedOrganicForm>
parent

> <STRUCTURE_IUPAC>
1-phenylthiourea

> <STRUCTURE_SMILES>
S=C(N)Nc1ccccc1

> <STRUCTURE_SMILES_Desalt>
S=C(N)Nc1ccccc1

> <Substance_modify_yyyymmdd>
20080429

$$$$
