103-23-1
ChemmineR-0914142331XD

 26 25  0  0  0  0  0  0  0  0  1 V2000
   14.9694   -5.9739    0.0000 C   0  0  0  0  0  0  0  0  0  0  0  0
   16.1089   -5.3178    0.0000 C   0  0  0  0  0  0  0  0  0  0  0  0
   16.1089   -3.9884    0.0000 C   0  0  0  0  0  0  0  0  0  0  0  0
   14.9694   -3.3150    0.0000 C   0  0  0  0  0  0  0  0  0  0  0  0
   13.8126   -3.9884    0.0000 O   0  0  0  0  0  0  0  0  0  0  0  0
   12.6558   -3.3150    0.0000 C   0  0  0  0  0  0  0  0  0  0  0  0
   12.6558   -1.9856    0.0000 O   0  0  0  0  0  0  0  0  0  0  0  0
   11.5162   -3.9884    0.0000 C   0  0  0  0  0  0  0  0  0  0  0  0
   10.3594   -3.3150    0.0000 C   0  0  0  0  0  0  0  0  0  0  0  0
    9.2026   -3.9884    0.0000 C   0  0  0  0  0  0  0  0  0  0  0  0
    8.0631   -3.3150    0.0000 C   0  0  0  0  0  0  0  0  0  0  0  0
    6.9063   -3.9884    0.0000 C   0  0  0  0  0  0  0  0  0  0  0  0
    5.7495   -3.3150    0.0000 O   0  0  0  0  0  0  0  0  0  0  0  0
    6.9063   -5.3178    0.0000 O   0  0  0  0  0  0  0  0  0  0  0  0
    5.7495   -5.9739    0.0000 C   0  0  0  0  0  0  0  0  0  0  0  0
    4.6099   -5.3178    0.0000 C   0  0  0  0  0  0  0  0  0  0  0  0
    3.4531   -5.9739    0.0000 C   0  0  0  0  0  0  0  0  0  0  0  0
    2.2963   -5.3178    0.0000 C   0  0  0  0  0  0  0  0  0  0  0  0
    1.1568   -5.9739    0.0000 C   0  0  0  0  0  0  0  0  0  0  0  0
    0.0000   -5.3178    0.0000 C   0  0  0  0  0  0  0  0  0  0  0  0
    4.6099   -3.9884    0.0000 C   0  0  0  0  0  0  0  0  0  0  0  0
    3.4531   -3.3150    0.0000 C   0  0  0  0  0  0  0  0  0  0  0  0
   17.2657   -3.3150    0.0000 C   0  0  0  0  0  0  0  0  0  0  0  0
   17.2657   -1.9856    0.0000 C   0  0  0  0  0  0  0  0  0  0  0  0
   16.1089   -1.3295    0.0000 C   0  0  0  0  0  0  0  0  0  0  0  0
   16.1089    0.0000    0.0000 C   0  0  0  0  0  0  0  0  0  0  0  0
  1  2  1  0  0  0  0
  2  3  1  0  0  0  0
  3  4  1  0  0  0  0
  3 23  1  0  0  0  0
  4  5  1  0  0  0  0
  5  6  1  0  0  0  0
  6  7  2  0  0  0  0
  6  8  1  0  0  0  0
  8  9  1  0  0  0  0
  9 10  1  0  0  0  0
 10 11  1  0  0  0  0
 11 12  1  0  0  0  0
 12 13  2  0  0  0  0
 12 14  1  0  0  0  0
 14 15  1  0  0  0  0
 15 16  1  0  0  0  0
 16 17  1  0  0  0  0
 16 21  1  0  0  0  0
 17 18  1  0  0  0  0
 18 19  1  0  0  0  0
 19 20  1  0  0  0  0
 21 22  1  0  0  0  0
 23 24  1  0  0  0  0
 24 25  1  0  0  0  0
 25 26  1  0  0  0  0
M  END
> <ID>
581

> <Formula>
C22H42O4

> <FW>
370.5665

> <DSSTox_CID>
606

> <DSSTox_RID>
75687

> <DSSTox_GSID>
20606

> <DSSTox_FileID_Sort>
371

> <TS_ChemName>
Di(2-ethylhexyl) adipate

> <TS_ChemName_Synonyms>
Di(2-ethylhexyl) adipate (Hexanedioic acid, bis(2-ethylhexyl) ester) (DEHA)

> <TS_CASRN>
103-23-1

> <CASRN_ChemName_Relationship>
primary

> <TS_Description>
single chemical compound

> <ChemNote>


> <STRUCTURE_Shown>
tested chemical

> <STRUCTURE_Formula>
C22H42O4

> <STRUCTURE_MW>
370.5665

> <STRUCTURE_ChemType>
defined organic

> <STRUCTURE_DefinedOrganicForm>
parent

> <STRUCTURE_IUPAC>
bis(2-ethylhexyl) hexanedioate

> <STRUCTURE_SMILES>
O=C(CCCCC(=O)OCC(CC)CCCC)OCC(CCCC)CC

> <STRUCTURE_SMILES_Desalt>
O=C(CCCCC(=O)OCC(CC)CCCC)OCC(CCCC)CC

> <Substance_modify_yyyymmdd>
20080429

$$$$
