103-90-2
ChemmineR-0914142331XD

 11 11  0  0  0  0  0  0  0  0  1 V2000
    5.7499   -0.6765    0.0000 C   0  0  0  0  0  0  0  0  0  0  0  0
    4.5903    0.0000    0.0000 N   0  0  0  0  0  0  0  0  0  0  0  0
    5.7499   -2.0087    0.0000 O   0  0  0  0  0  0  0  0  0  0  0  0
    3.4513   -0.6765    0.0000 C   0  0  0  0  0  0  0  0  0  0  0  0
    1.1527   -2.0087    0.0000 C   0  0  0  0  0  0  0  0  0  0  0  0
    3.4513   -2.0087    0.0000 C   0  0  0  0  0  0  0  0  0  0  0  0
    2.3124   -0.0207    0.0000 C   0  0  0  0  0  0  0  0  0  0  0  0
    1.1527   -0.6903    0.0000 C   0  0  0  0  0  0  0  0  0  0  0  0
    2.3124   -2.6644    0.0000 C   0  0  0  0  0  0  0  0  0  0  0  0
    0.0000   -2.6989    0.0000 O   0  0  0  0  0  0  0  0  0  0  0  0
    6.9027    0.0000    0.0000 C   0  0  0  0  0  0  0  0  0  0  0  0
  1  2  1  0  0  0  0
  1  3  2  0  0  0  0
  1 11  1  0  0  0  0
  2  4  1  0  0  0  0
  4  6  2  0  0  0  0
  4  7  1  0  0  0  0
  5  8  1  0  0  0  0
  5 10  1  0  0  0  0
  5  9  2  0  0  0  0
  6  9  1  0  0  0  0
  7  8  2  0  0  0  0
M  END
> <ID>
6

> <Formula>
C8H9NO2

> <FW>
151.1626

> <DSSTox_CID>
6

> <DSSTox_RID>
75318

> <DSSTox_GSID>
20006

> <DSSTox_FileID_Sort>
2

> <TS_ChemName>
Acetaminophen

> <TS_ChemName_Synonyms>
4-hydroxyacetanilide; 4-Acetamidophenol; APAP; Paracetamol

> <TS_CASRN>
103-90-2

> <CASRN_ChemName_Relationship>
primary

> <TS_Description>
single chemical compound

> <ChemNote>


> <STRUCTURE_Shown>
tested chemical

> <STRUCTURE_Formula>
C8H9NO2

> <STRUCTURE_MW>
151.1626

> <STRUCTURE_ChemType>
defined organic

> <STRUCTURE_DefinedOrganicForm>
parent

> <STRUCTURE_IUPAC>
N-(4-hydroxyphenyl)acetamide

> <STRUCTURE_SMILES>
Oc1ccc(NC(C)=O)cc1

> <STRUCTURE_SMILES_Desalt>
Oc1ccc(NC(C)=O)cc1

> <Substance_modify_yyyymmdd>
20080429

$$$$
