10310-32-4
ChemmineR-0914142331XD

 35 38  0  0  1  0  0  0  0  0  1 V2000
    4.7353   -4.3941    0.0000 C   0  0  0  0  0  0  0  0  0  0  0  0
    5.8002   -3.6083    0.0000 O   0  0  0  0  0  0  0  0  0  0  0  0
    5.1281   -5.6761    0.0000 C   0  0  0  0  0  0  0  0  0  0  0  0
    6.8754   -4.3941    0.0000 C   0  0  0  0  0  0  0  0  0  0  0  0
    6.4619   -5.6761    0.0000 C   0  0  0  0  0  0  0  0  0  0  0  0
    8.0334   -3.7220    0.0000 O   0  0  0  0  0  0  0  0  0  0  0  0
    7.2476   -6.7410    0.0000 O   0  0  0  0  0  0  0  0  0  0  0  0
    4.3424   -6.7410    0.0000 O   0  0  0  0  0  0  0  0  0  0  0  0
    9.1707   -4.3941    0.0000 C   0  0  0  0  0  0  0  0  0  0  0  0
   10.3390   -3.7220    0.0000 C   0  0  0  0  0  0  0  0  0  0  0  0
    3.4636   -3.9909    0.0000 C   0  0  0  0  0  0  0  0  0  0  0  0
    3.4636   -2.6571    0.0000 C   0  0  0  0  0  0  0  0  0  0  0  0
    2.3056   -4.6629    0.0000 O   0  0  0  0  0  0  0  0  0  0  0  0
    4.6112   -1.9954    0.0000 O   0  0  0  0  0  0  0  0  0  0  0  0
    5.7692   -2.6571    0.0000 C   0  0  0  0  0  0  0  0  0  0  0  0
    1.1683   -3.9909    0.0000 C   0  0  0  0  0  0  0  0  0  0  0  0
    3.0190   -6.7410    0.0000 C   0  0  0  0  0  0  0  0  0  0  0  0
    2.3573   -7.8783    0.0000 C   0  0  0  0  0  0  0  0  0  0  0  0
    3.0190   -9.0466    0.0000 C   0  0  0  0  0  0  0  0  0  0  0  0
    1.0236   -7.8783    0.0000 C   0  0  0  0  0  0  0  0  0  0  0  0
    2.3573  -10.1839    0.0000 C   0  0  0  0  0  0  0  0  0  0  0  0
    0.3515   -9.0466    0.0000 C   0  0  0  0  0  0  0  0  0  0  0  0
    1.0236  -10.1839    0.0000 C   0  0  0  0  0  0  0  0  0  0  0  0
    1.1683   -2.6571    0.0000 C   0  0  0  0  0  0  0  0  0  0  0  0
    0.0000   -1.9954    0.0000 C   0  0  0  0  0  0  0  0  0  0  0  0
    2.3056   -1.9954    0.0000 C   0  0  0  0  0  0  0  0  0  0  0  0
    0.0000   -0.6720    0.0000 C   0  0  0  0  0  0  0  0  0  0  0  0
    2.3056   -0.6720    0.0000 C   0  0  0  0  0  0  0  0  0  0  0  0
    1.1683    0.0000    0.0000 C   0  0  0  0  0  0  0  0  0  0  0  0
    6.9168   -1.9954    0.0000 C   0  0  0  0  0  0  0  0  0  0  0  0
    6.9168   -0.6720    0.0000 C   0  0  0  0  0  0  0  0  0  0  0  0
    8.0748   -2.6571    0.0000 C   0  0  0  0  0  0  0  0  0  0  0  0
    8.0748    0.0000    0.0000 C   0  0  0  0  0  0  0  0  0  0  0  0
    9.2120   -1.9954    0.0000 C   0  0  0  0  0  0  0  0  0  0  0  0
    9.2120   -0.6720    0.0000 C   0  0  0  0  0  0  0  0  0  0  0  0
  1  2  1  0  0  0  0
  1  3  1  0  0  0  0
  1 11  1  1  0  0  0
  2  4  1  0  0  0  0
  3  5  1  0  0  0  0
  3  8  1  1  0  0  0
  4  5  1  0  0  0  0
  4  6  1  1  0  0  0
  5  7  1  6  0  0  0
  6  9  1  0  0  0  0
  8 17  1  0  0  0  0
  9 10  1  0  0  0  0
 11 12  1  0  0  0  0
 11 13  1  0  0  0  0
 12 14  1  0  0  0  0
 13 16  1  0  0  0  0
 14 15  1  0  0  0  0
 15 30  1  0  0  0  0
 16 24  1  0  0  0  0
 17 18  1  0  0  0  0
 18 19  1  0  0  0  0
 18 20  2  0  0  0  0
 19 21  2  0  0  0  0
 20 22  1  0  0  0  0
 21 23  1  0  0  0  0
 22 23  2  0  0  0  0
 24 25  1  0  0  0  0
 24 26  2  0  0  0  0
 25 27  2  0  0  0  0
 26 28  1  0  0  0  0
 27 29  1  0  0  0  0
 28 29  2  0  0  0  0
 30 31  1  0  0  0  0
 30 32  2  0  0  0  0
 31 33  2  0  0  0  0
 32 34  1  0  0  0  0
 33 35  1  0  0  0  0
 34 35  2  0  0  0  0
M  END
> <ID>
3302

> <Formula>
C29H34O6

> <FW>
478.5767

> <DSSTox_CID>
3697

> <DSSTox_RID>
77153

> <DSSTox_GSID>
23697

> <DSSTox_FileID_Sort>
1836

> <TS_ChemName>
Tribenoside

> <TS_ChemName_Synonyms>


> <TS_CASRN>
10310-32-4

> <CASRN_ChemName_Relationship>
primary

> <TS_Description>
single chemical compound

> <ChemNote>
stereochem

> <STRUCTURE_Shown>
tested chemical

> <STRUCTURE_Formula>
C29H34O6

> <STRUCTURE_MW>
478.5767

> <STRUCTURE_ChemType>
defined organic

> <STRUCTURE_DefinedOrganicForm>
parent

> <STRUCTURE_IUPAC>
ethyl 3,5,6-tris-O-(phenylmethyl)-beta-D-glucofuranoside

> <STRUCTURE_SMILES>
O[C@@H]2[C@@H](OCc1ccccc1)[C@H](O[C@H]2OCC)C(COCc3ccccc3)OCc4ccccc4

> <STRUCTURE_SMILES_Desalt>
O[C@@H]2[C@@H](OCc1ccccc1)[C@H](O[C@H]2OCC)C(COCc3ccccc3)OCc4ccccc4

> <Substance_modify_yyyymmdd>
20080429

$$$$
