103577-45-3
ChemmineR-0914142331XD

 25 27  0  0  0  0  0  0  0  0  1 V2000
   13.4773   -2.7898    0.0000 C   0  0  0  0  0  0  0  0  0  0  0  0
   13.4773   -4.1106    0.0000 C   0  0  0  0  0  0  0  0  0  0  0  0
   12.3318   -4.7845    0.0000 C   0  0  0  0  0  0  0  0  0  0  0  0
   11.1727   -4.1106    0.0000 C   0  0  0  0  0  0  0  0  0  0  0  0
   11.1727   -2.7898    0.0000 C   0  0  0  0  0  0  0  0  0  0  0  0
   12.3318   -2.1159    0.0000 C   0  0  0  0  0  0  0  0  0  0  0  0
    9.9058   -2.3720    0.0000 N   0  0  0  0  0  0  0  0  0  0  0  0
    9.1242   -3.4502    0.0000 C   0  0  0  0  0  0  0  0  0  0  0  0
    7.8034   -3.4502    0.0000 S   0  0  0  0  0  0  0  0  0  0  0  0
    7.1295   -2.3046    0.0000 O   0  0  0  0  0  0  0  0  0  0  0  0
    7.1295   -4.6093    0.0000 C   0  0  0  0  0  0  0  0  0  0  0  0
    5.8087   -4.6093    0.0000 C   0  0  0  0  0  0  0  0  0  0  0  0
    5.1349   -5.7548    0.0000 N   0  0  0  0  0  0  0  0  0  0  0  0
    3.8141   -5.7548    0.0000 C   0  0  0  0  0  0  0  0  0  0  0  0
    3.1402   -4.6093    0.0000 C   0  0  0  0  0  0  0  0  0  0  0  0
    3.8141   -3.4502    0.0000 C   0  0  0  0  0  0  0  0  0  0  0  0
    3.1402   -2.3046    0.0000 O   0  0  0  0  0  0  0  0  0  0  0  0
    1.8194   -2.3046    0.0000 C   0  0  0  0  0  0  0  0  0  0  0  0
    1.1456   -1.1456    0.0000 C   0  0  0  0  0  0  0  0  0  0  0  0
    0.0000   -1.8194    0.0000 F   0  0  0  0  0  0  0  0  0  0  0  0
    0.4852    0.0000    0.0000 F   0  0  0  0  0  0  0  0  0  0  0  0
    2.3046   -0.4852    0.0000 F   0  0  0  0  0  0  0  0  0  0  0  0
    5.1349   -3.4502    0.0000 C   0  0  0  0  0  0  0  0  0  0  0  0
    5.8087   -2.3046    0.0000 C   0  0  0  0  0  0  0  0  0  0  0  0
    9.9058   -4.5284    0.0000 N   0  0  0  0  0  0  0  0  0  0  0  0
  1  2  2  0  0  0  0
  1  6  1  0  0  0  0
  2  3  1  0  0  0  0
  3  4  2  0  0  0  0
  4  5  1  0  0  0  0
  4 25  1  0  0  0  0
  5  6  2  0  0  0  0
  5  7  1  0  0  0  0
  7  8  2  0  0  0  0
  8  9  1  0  0  0  0
  8 25  1  0  0  0  0
  9 10  2  0  0  0  0
  9 11  1  0  0  0  0
 11 12  1  0  0  0  0
 12 13  2  0  0  0  0
 12 23  1  0  0  0  0
 13 14  1  0  0  0  0
 14 15  2  0  0  0  0
 15 16  1  0  0  0  0
 16 17  1  0  0  0  0
 16 23  2  0  0  0  0
 17 18  1  0  0  0  0
 18 19  1  0  0  0  0
 19 20  1  0  0  0  0
 19 21  1  0  0  0  0
 19 22  1  0  0  0  0
 23 24  1  0  0  0  0
M  END
> <ID>
2876

> <Formula>
C16H14F3N3O2S

> <FW>
369.3615

> <DSSTox_CID>
3200

> <DSSTox_RID>
76922

> <DSSTox_GSID>
23200

> <DSSTox_FileID_Sort>
1606

> <TS_ChemName>
Lansoprazole

> <TS_ChemName_Synonyms>


> <TS_CASRN>
103577-45-3

> <CASRN_ChemName_Relationship>
primary

> <TS_Description>
single chemical compound

> <ChemNote>


> <STRUCTURE_Shown>
tested chemical

> <STRUCTURE_Formula>
C16H14F3N3O2S

> <STRUCTURE_MW>
369.3615

> <STRUCTURE_ChemType>
defined organic

> <STRUCTURE_DefinedOrganicForm>
parent

> <STRUCTURE_IUPAC>
2-({[3-methyl-4-(2,2,2-trifluoroethoxy)pyridin-2-yl]methyl}sulfinyl)-1H-benzimidazole

> <STRUCTURE_SMILES>
FC(F)(F)COc3ccnc(CS(=O)c1nc2ccccc2n1)c3C

> <STRUCTURE_SMILES_Desalt>
FC(F)(F)COc3ccnc(CS(=O)c1nc2ccccc2n1)c3C

> <Substance_modify_yyyymmdd>
20080429

$$$$
