104-06-3
ChemmineR-0914142331XD

 16 16  0  0  0  0  0  0  0  0  1 V2000
    6.9119    0.0000    0.0000 C   0  0  0  0  0  0  0  0  0  0  0  0
    8.0639   -0.6682    0.0000 C   0  0  0  0  0  0  0  0  0  0  0  0
    9.2274    0.0000    0.0000 N   0  0  0  0  0  0  0  0  0  0  0  0
   10.3679   -0.6682    0.0000 C   0  0  0  0  0  0  0  0  0  0  0  0
   11.5199    0.0000    0.0000 C   0  0  0  0  0  0  0  0  0  0  0  0
   10.3679   -1.9929    0.0000 O   0  0  0  0  0  0  0  0  0  0  0  0
    8.0639   -1.9929    0.0000 C   0  0  0  0  0  0  0  0  0  0  0  0
    6.9119   -2.6611    0.0000 C   0  0  0  0  0  0  0  0  0  0  0  0
    5.7600   -1.9929    0.0000 C   0  0  0  0  0  0  0  0  0  0  0  0
    4.6080   -2.6611    0.0000 C   0  0  0  0  0  0  0  0  0  0  0  0
    3.4675   -1.9929    0.0000 N   0  0  0  0  0  0  0  0  0  0  0  0
    2.3040   -2.6611    0.0000 N   0  0  0  0  0  0  0  0  0  0  0  0
    1.1520   -1.9929    0.0000 C   0  0  0  0  0  0  0  0  0  0  0  0
    0.0000   -2.6611    0.0000 N   0  0  0  0  0  0  0  0  0  0  0  0
    1.1520   -0.6682    0.0000 S   0  0  0  0  0  0  0  0  0  0  0  0
    5.7600   -0.6682    0.0000 C   0  0  0  0  0  0  0  0  0  0  0  0
  1  2  2  0  0  0  0
  1 16  1  0  0  0  0
  2  3  1  0  0  0  0
  2  7  1  0  0  0  0
  3  4  1  0  0  0  0
  4  5  1  0  0  0  0
  4  6  2  0  0  0  0
  7  8  2  0  0  0  0
  8  9  1  0  0  0  0
  9 10  1  0  0  0  0
  9 16  2  0  0  0  0
 10 11  2  0  0  0  0
 11 12  1  0  0  0  0
 12 13  1  0  0  0  0
 13 14  1  0  0  0  0
 13 15  2  0  0  0  0
M  END
> <ID>
2349

> <Formula>
C10H12N4OS

> <FW>
236.2935

> <DSSTox_CID>
2593

> <DSSTox_RID>
76650

> <DSSTox_GSID>
22593

> <DSSTox_FileID_Sort>
1334

> <TS_ChemName>
Amithiozone

> <TS_ChemName_Synonyms>


> <TS_CASRN>
104-06-3

> <CASRN_ChemName_Relationship>
primary

> <TS_Description>
single chemical compound

> <ChemNote>
stereochem

> <STRUCTURE_Shown>
tested chemical

> <STRUCTURE_Formula>
C10H12N4OS

> <STRUCTURE_MW>
236.2935

> <STRUCTURE_ChemType>
defined organic

> <STRUCTURE_DefinedOrganicForm>
parent

> <STRUCTURE_IUPAC>
N-{4-[(E)-(2-carbamothioylhydrazinylidene)methyl]phenyl}acetamide

> <STRUCTURE_SMILES>
O=C(C)Nc1ccc(cc1)\C=N\NC(N)=S

> <STRUCTURE_SMILES_Desalt>
O=C(C)Nc1ccc(cc1)\C=N\NC(N)=S

> <Substance_modify_yyyymmdd>
20080429

$$$$
