10405-02-4
ChemmineR-0914142331XD

 32 35  0  0  1  0  0  0  0  0  2 V2000
    2.6771   -2.7877    0.0000 C    0  0  0  0  0  0  0  0  0  0  0  0
    4.4028   -4.0820    0.0000 C    0  0  0  0  0  0  0  0  0  0  0  0
    3.5620   -3.3850    0.0000 C    0  0  0  0  0  0  0  0  0  0  0  0
    1.9801   -3.3850    0.0000 C    0  0  0  0  0  0  0  0  0  0  0  0
    1.7478   -2.0576    0.0000 N    0  3  0  0  0  0  0  0  0  0  0  0
    4.1815   -2.8098    0.0000 C    0  0  0  0  0  0  0  0  0  0  0  0
    1.1283   -4.5576    0.0000 C    0  0  0  0  0  0  0  0  0  0  0  0
    2.1350   -3.9382    0.0000 C    0  0  0  0  0  0  0  0  0  0  0  0
    0.6969   -3.5510    0.0000 H    0  0  0  0  0  0  0  0  0  0  0  0
    3.1859   -1.6925    0.0000 H    0  0  0  0  0  0  0  0  0  0  0  0
    5.0886   -5.2546    0.0000 O    0  0  0  0  0  0  0  0  0  0  0  0
    6.4272   -5.2546    0.0000 C    0  0  0  0  0  0  0  0  0  0  0  0
    7.0909   -6.4161    0.0000 C    0  0  0  0  0  0  0  0  0  0  0  0
    7.0909   -4.0820    0.0000 O    0  0  0  0  0  0  0  0  0  0  0  0
    6.4272   -7.5887    0.0000 C    0  0  0  0  0  0  0  0  0  0  0  0
    7.1130   -8.7502    0.0000 C    0  0  0  0  0  0  0  0  0  0  0  0
    5.0886   -7.5887    0.0000 C    0  0  0  0  0  0  0  0  0  0  0  0
    6.4272   -9.9007    0.0000 C    0  0  0  0  0  0  0  0  0  0  0  0
    4.4249   -8.7502    0.0000 C    0  0  0  0  0  0  0  0  0  0  0  0
    5.0886   -9.9007    0.0000 C    0  0  0  0  0  0  0  0  0  0  0  0
    8.3741   -6.4382    0.0000 C    0  0  0  0  0  0  0  0  0  0  0  0
    9.0489   -5.2656    0.0000 C    0  0  0  0  0  0  0  0  0  0  0  0
    9.0489   -7.5998    0.0000 C    0  0  0  0  0  0  0  0  0  0  0  0
   10.3985   -5.2656    0.0000 C    0  0  0  0  0  0  0  0  0  0  0  0
   10.3985   -7.5887    0.0000 C    0  0  0  0  0  0  0  0  0  0  0  0
   11.0622   -6.4382    0.0000 C    0  0  0  0  0  0  0  0  0  0  0  0
    5.7524   -6.4161    0.0000 O    0  0  0  0  0  0  0  0  0  0  0  0
    0.0000   -0.7854    0.0000 C    0  0  0  0  0  0  0  0  0  0  0  0
    1.0841    0.0000    0.0000 C    0  0  0  0  0  0  0  0  0  0  0  0
    0.4093   -2.0576    0.0000 C    0  0  0  0  0  0  0  0  0  0  0  0
    2.1682   -0.7854    0.0000 C    0  0  0  0  0  0  0  0  0  0  0  0
    2.6107   -5.4758    0.0000 Cl   0  5  0  0  0  0  0  0  0  0  0  0
  1  5  1  1  0  0  0
  1  6  1  0  0  0  0
  1  8  1  0  0  0  0
  1 10  1  6  0  0  0
  2  3  1  0  0  0  0
  2  6  1  0  0  0  0
  2 11  1  6  0  0  0
  3  4  1  0  0  0  0
  4  5  1  0  0  0  0
  4  7  1  0  0  0  0
  4  9  1  1  0  0  0
  5 30  1  0  0  0  0
  5 31  1  0  0  0  0
  7  8  1  0  0  0  0
 11 12  1  0  0  0  0
 12 13  1  0  0  0  0
 12 14  2  0  0  0  0
 13 15  1  0  0  0  0
 13 21  1  0  0  0  0
 13 27  1  0  0  0  0
 15 16  1  0  0  0  0
 15 17  2  0  0  0  0
 16 18  2  0  0  0  0
 17 19  1  0  0  0  0
 18 20  1  0  0  0  0
 19 20  2  0  0  0  0
 21 22  1  0  0  0  0
 21 23  2  0  0  0  0
 22 24  2  0  0  0  0
 23 25  1  0  0  0  0
 24 26  1  0  0  0  0
 25 26  2  0  0  0  0
 28 29  1  0  0  0  0
 28 30  1  0  0  0  0
 29 31  1  0  0  0  0
M  END
> <ID>
3327

> <Formula>
C25H30ClNO3

> <FW>
427.9636 (392.5101+35.4535)

> <DSSTox_CID>
3724

> <DSSTox_RID>
77166

> <DSSTox_GSID>
23724

> <DSSTox_FileID_Sort>
1849

> <TS_ChemName>
Trospium chloride

> <TS_ChemName_Synonyms>


> <TS_CASRN>
10405-02-4

> <CASRN_ChemName_Relationship>
primary

> <TS_Description>
single chemical compound

> <ChemNote>
ammonium; relative stereochem; parent [47608-32-2]

> <STRUCTURE_Shown>
tested chemical

> <STRUCTURE_Formula>
C25H30ClNO3

> <STRUCTURE_MW>
427.9636

> <STRUCTURE_ChemType>
defined organic

> <STRUCTURE_DefinedOrganicForm>
salt

> <STRUCTURE_IUPAC>
3-[(2-hydroxy-2,2-diphenylacetyl)oxy]-spiro[8-azoniabicyclo[3.2.1]octane-8,1'-pyrrolidinium] chloride (1:1)

> <STRUCTURE_SMILES>
[Cl-].OC(c1ccccc1)(c2ccccc2)C(=O)O[C@@H]3C[C@@H]5CC[C@H](C3)[N+]45CCCC4

> <STRUCTURE_SMILES_Desalt>
OC(c1ccccc1)(c2ccccc2)C(=O)O[C@@H]3C[C@@H]5CC[C@H](C3)[N+]45CCCC4

> <Substance_modify_yyyymmdd>
20110811

$$$$
