104227-87-4
ChemmineR-0914142331XD

 23 24  0  0  0  0  0  0  0  0  1 V2000
    8.3895   -3.9129    0.0000 C   0  0  0  0  0  0  0  0  0  0  0  0
    9.0637   -2.7633    0.0000 N   0  0  0  0  0  0  0  0  0  0  0  0
   10.3901   -2.7633    0.0000 C   0  0  0  0  0  0  0  0  0  0  0  0
   11.0533   -1.6138    0.0000 N   0  0  0  0  0  0  0  0  0  0  0  0
   11.0533   -3.9129    0.0000 N   0  0  0  0  0  0  0  0  0  0  0  0
   10.3901   -5.0624    0.0000 C   0  0  0  0  0  0  0  0  0  0  0  0
    9.0637   -5.0624    0.0000 C   0  0  0  0  0  0  0  0  0  0  0  0
    8.1684   -6.0572    0.0000 N   0  0  0  0  0  0  0  0  0  0  0  0
    6.9525   -5.5156    0.0000 C   0  0  0  0  0  0  0  0  0  0  0  0
    7.0962   -4.1892    0.0000 N   0  0  0  0  0  0  0  0  0  0  0  0
    6.1014   -3.3049    0.0000 C   0  0  0  0  0  0  0  0  0  0  0  0
    4.8414   -3.7139    0.0000 C   0  0  0  0  0  0  0  0  0  0  0  0
    3.8576   -2.8186    0.0000 C   0  0  0  0  0  0  0  0  0  0  0  0
    2.5644   -3.1613    0.0000 C   0  0  0  0  0  0  0  0  0  0  0  0
    2.2217   -4.4545    0.0000 O   0  0  0  0  0  0  0  0  0  0  0  0
    0.9395   -4.7971    0.0000 C   0  0  0  0  0  0  0  0  0  0  0  0
    0.0000   -3.8576    0.0000 O   0  0  0  0  0  0  0  0  0  0  0  0
    0.5969   -6.0793    0.0000 C   0  0  0  0  0  0  0  0  0  0  0  0
    4.2003   -1.5364    0.0000 C   0  0  0  0  0  0  0  0  0  0  0  0
    3.2607   -0.5969    0.0000 O   0  0  0  0  0  0  0  0  0  0  0  0
    1.9675   -0.9395    0.0000 C   0  0  0  0  0  0  0  0  0  0  0  0
    1.6248   -2.2217    0.0000 O   0  0  0  0  0  0  0  0  0  0  0  0
    1.0280    0.0000    0.0000 C   0  0  0  0  0  0  0  0  0  0  0  0
  1  2  1  0  0  0  0
  1  7  2  0  0  0  0
  1 10  1  0  0  0  0
  2  3  2  0  0  0  0
  3  4  1  0  0  0  0
  3  5  1  0  0  0  0
  5  6  2  0  0  0  0
  6  7  1  0  0  0  0
  7  8  1  0  0  0  0
  8  9  2  0  0  0  0
  9 10  1  0  0  0  0
 10 11  1  0  0  0  0
 11 12  1  0  0  0  0
 12 13  1  0  0  0  0
 13 14  1  0  0  0  0
 13 19  1  0  0  0  0
 14 15  1  0  0  0  0
 15 16  1  0  0  0  0
 16 17  2  0  0  0  0
 16 18  1  0  0  0  0
 19 20  1  0  0  0  0
 20 21  1  0  0  0  0
 21 22  2  0  0  0  0
 21 23  1  0  0  0  0
M  END
> <ID>
2731

> <Formula>
C14H19N5O4

> <FW>
321.3318

> <DSSTox_CID>
3038

> <DSSTox_RID>
76845

> <DSSTox_GSID>
23038

> <DSSTox_FileID_Sort>
1529

> <TS_ChemName>
Famciclovir

> <TS_ChemName_Synonyms>


> <TS_CASRN>
104227-87-4

> <CASRN_ChemName_Relationship>
primary

> <TS_Description>
single chemical compound

> <ChemNote>


> <STRUCTURE_Shown>
tested chemical

> <STRUCTURE_Formula>
C14H19N5O4

> <STRUCTURE_MW>
321.3318

> <STRUCTURE_ChemType>
defined organic

> <STRUCTURE_DefinedOrganicForm>
parent

> <STRUCTURE_IUPAC>
2-[(acetyloxy)methyl]-4-(2-amino-9H-purin-9-yl)butyl acetate

> <STRUCTURE_SMILES>
CC(=O)OCC(COC(C)=O)CCn2cnc1cnc(N)nc12

> <STRUCTURE_SMILES_Desalt>
CC(=O)OCC(COC(C)=O)CCn2cnc1cnc(N)nc12

> <Substance_modify_yyyymmdd>
20080429

$$$$
