10453-86-8
ChemmineR-0914142331XD

 25 27  0  0  0  0  0  0  0  0  1 V2000
   11.0042   -2.3050    0.0000 C   0  0  0  0  0  0  0  0  0  0  0  0
   11.6357   -1.1367    0.0000 C   0  0  0  0  0  0  0  0  0  0  0  0
   12.3146   -2.3050    0.0000 C   0  0  0  0  0  0  0  0  0  0  0  0
    9.8201   -2.9524    0.0000 C   0  0  0  0  0  0  0  0  0  0  0  0
    9.8201   -4.3101    0.0000 O   0  0  0  0  0  0  0  0  0  0  0  0
    8.6992   -2.2893    0.0000 O   0  0  0  0  0  0  0  0  0  0  0  0
   11.0042    0.0000    0.0000 C   0  0  0  0  0  0  0  0  0  0  0  0
   12.3304    0.0000    0.0000 C   0  0  0  0  0  0  0  0  0  0  0  0
   13.4987   -2.9839    0.0000 C   0  0  0  0  0  0  0  0  0  0  0  0
   14.6197   -2.3050    0.0000 C   0  0  0  0  0  0  0  0  0  0  0  0
   14.6197   -0.9789    0.0000 C   0  0  0  0  0  0  0  0  0  0  0  0
   15.7880   -2.9839    0.0000 C   0  0  0  0  0  0  0  0  0  0  0  0
    7.5309   -2.9681    0.0000 C   0  0  0  0  0  0  0  0  0  0  0  0
    5.6995   -0.3000    0.0000 O   0  0  0  0  0  0  0  0  0  0  0  0
    4.6417   -1.0578    0.0000 C   0  0  0  0  0  0  0  0  0  0  0  0
    6.7730   -1.0578    0.0000 C   0  0  0  0  0  0  0  0  0  0  0  0
    5.0364   -2.3208    0.0000 C   0  0  0  0  0  0  0  0  0  0  0  0
    6.3626   -2.3208    0.0000 C   0  0  0  0  0  0  0  0  0  0  0  0
    3.4734   -0.3947    0.0000 C   0  0  0  0  0  0  0  0  0  0  0  0
    2.2893   -1.0262    0.0000 C   0  0  0  0  0  0  0  0  0  0  0  0
    1.1525   -0.3947    0.0000 C   0  0  0  0  0  0  0  0  0  0  0  0
    2.2893   -2.3682    0.0000 C   0  0  0  0  0  0  0  0  0  0  0  0
    0.0000   -1.0262    0.0000 C   0  0  0  0  0  0  0  0  0  0  0  0
    1.1525   -3.0471    0.0000 C   0  0  0  0  0  0  0  0  0  0  0  0
    0.0000   -2.3682    0.0000 C   0  0  0  0  0  0  0  0  0  0  0  0
  1  2  1  0  0  0  0
  1  3  1  0  0  0  0
  1  4  1  0  0  0  0
  2  3  1  0  0  0  0
  2  7  1  0  0  0  0
  2  8  1  0  0  0  0
  3  9  1  0  0  0  0
  4  5  2  0  0  0  0
  4  6  1  0  0  0  0
  6 13  1  0  0  0  0
  9 10  2  0  0  0  0
 10 11  1  0  0  0  0
 10 12  1  0  0  0  0
 13 18  1  0  0  0  0
 14 15  1  0  0  0  0
 14 16  1  0  0  0  0
 15 17  2  0  0  0  0
 15 19  1  0  0  0  0
 16 18  2  0  0  0  0
 17 18  1  0  0  0  0
 19 20  1  0  0  0  0
 20 21  2  0  0  0  0
 20 22  1  0  0  0  0
 21 23  1  0  0  0  0
 22 24  2  0  0  0  0
 23 25  2  0  0  0  0
 24 25  1  0  0  0  0
M  END
> <ID>
2091

> <Formula>
C22H26O3

> <FW>
338.44

> <DSSTox_CID>
2253

> <DSSTox_RID>
76529

> <DSSTox_GSID>
22253

> <DSSTox_FileID_Sort>
1213

> <TS_ChemName>
Resmethrin

> <TS_ChemName_Synonyms>


> <TS_CASRN>
10453-86-8

> <CASRN_ChemName_Relationship>
primary

> <TS_Description>
single chemical compound

> <ChemNote>
mixture of (1R,S), (3R,S) isomers; structure shown without stereochem

> <STRUCTURE_Shown>
tested chemical

> <STRUCTURE_Formula>
C22H26O3

> <STRUCTURE_MW>
338.44

> <STRUCTURE_ChemType>
defined organic

> <STRUCTURE_DefinedOrganicForm>
parent

> <STRUCTURE_IUPAC>
(5-benzylfuran-3-yl)methyl 2,2-dimethyl-3-(2-methylprop-1-en-1-yl)cyclopropanecarboxylate

> <STRUCTURE_SMILES>
O=C(OCc2cc(Cc1ccccc1)oc2)C3C(/C=C(\C)C)C3(C)C

> <STRUCTURE_SMILES_Desalt>
O=C(OCc2cc(Cc1ccccc1)oc2)C3C(/C=C(\C)C)C3(C)C

> <Substance_modify_yyyymmdd>
20080429

$$$$
