105-67-9
ChemmineR-0914142331XD

  9  9  0  0  0  0  0  0  0  0  1 V2000
    4.6082    0.0000    0.0000 O   0  0  0  0  0  0  0  0  0  0  0  0
    3.4561   -0.6636    0.0000 C   0  0  0  0  0  0  0  0  0  0  0  0
    3.4561   -1.9953    0.0000 C   0  0  0  0  0  0  0  0  0  0  0  0
    4.6082   -2.6589    0.0000 C   0  0  0  0  0  0  0  0  0  0  0  0
    2.3041   -2.6589    0.0000 C   0  0  0  0  0  0  0  0  0  0  0  0
    1.1520   -1.9953    0.0000 C   0  0  0  0  0  0  0  0  0  0  0  0
    0.0000   -2.6589    0.0000 C   0  0  0  0  0  0  0  0  0  0  0  0
    1.1520   -0.6636    0.0000 C   0  0  0  0  0  0  0  0  0  0  0  0
    2.3041    0.0000    0.0000 C   0  0  0  0  0  0  0  0  0  0  0  0
  1  2  1  0  0  0  0
  2  3  2  0  0  0  0
  2  9  1  0  0  0  0
  3  4  1  0  0  0  0
  3  5  1  0  0  0  0
  5  6  2  0  0  0  0
  6  7  1  0  0  0  0
  6  8  1  0  0  0  0
  8  9  2  0  0  0  0
M  END
> <ID>
1749

> <Formula>
C8H10O

> <FW>
122.1644

> <DSSTox_CID>
1864

> <DSSTox_RID>
76371

> <DSSTox_GSID>
21864

> <DSSTox_FileID_Sort>
1055

> <TS_ChemName>
2,4-Dimethylphenol

> <TS_ChemName_Synonyms>
2,4-Xylenol

> <TS_CASRN>
105-67-9

> <CASRN_ChemName_Relationship>
primary

> <TS_Description>
single chemical compound

> <ChemNote>


> <STRUCTURE_Shown>
tested chemical

> <STRUCTURE_Formula>
C8H10O

> <STRUCTURE_MW>
122.1644

> <STRUCTURE_ChemType>
defined organic

> <STRUCTURE_DefinedOrganicForm>
parent

> <STRUCTURE_IUPAC>
2,4-dimethylphenol

> <STRUCTURE_SMILES>
Cc1ccc(O)c(C)c1

> <STRUCTURE_SMILES_Desalt>
Cc1ccc(O)c(C)c1

> <Substance_modify_yyyymmdd>
20080429

$$$$
