105-53-3
ChemmineR-0914142331XD

 11 10  0  0  0  0  0  0  0  0  1 V2000
    1.9932    0.0000    0.0000 C   0  0  0  0  0  0  0  0  0  0  0  0
    0.6625    0.0000    0.0000 C   0  0  0  0  0  0  0  0  0  0  0  0
    0.0000   -1.1521    0.0000 O   0  0  0  0  0  0  0  0  0  0  0  0
    0.6625   -2.3043    0.0000 C   0  0  0  0  0  0  0  0  0  0  0  0
    1.9932   -2.3043    0.0000 O   0  0  0  0  0  0  0  0  0  0  0  0
    0.0000   -3.4564    0.0000 C   0  0  0  0  0  0  0  0  0  0  0  0
    0.6625   -4.6086    0.0000 C   0  0  0  0  0  0  0  0  0  0  0  0
    0.0000   -5.7607    0.0000 O   0  0  0  0  0  0  0  0  0  0  0  0
    1.9932   -4.6086    0.0000 O   0  0  0  0  0  0  0  0  0  0  0  0
    2.6615   -5.7607    0.0000 C   0  0  0  0  0  0  0  0  0  0  0  0
    3.9922   -5.7607    0.0000 C   0  0  0  0  0  0  0  0  0  0  0  0
  1  2  1  0  0  0  0
  2  3  1  0  0  0  0
  3  4  1  0  0  0  0
  4  5  2  0  0  0  0
  4  6  1  0  0  0  0
  6  7  1  0  0  0  0
  7  8  2  0  0  0  0
  7  9  1  0  0  0  0
  9 10  1  0  0  0  0
 10 11  1  0  0  0  0
M  END
> <ID>
1748

> <Formula>
C7H12O4

> <FW>
160.1678

> <DSSTox_CID>
1863

> <DSSTox_RID>
76370

> <DSSTox_GSID>
21863

> <DSSTox_FileID_Sort>
1054

> <TS_ChemName>
Diethyl propanedioate

> <TS_ChemName_Synonyms>
Diethyl propanedioate (propanedioic acid, diethyl ester) (Diethyl malonate)

> <TS_CASRN>
105-53-3

> <CASRN_ChemName_Relationship>
primary

> <TS_Description>
single chemical compound

> <ChemNote>


> <STRUCTURE_Shown>
tested chemical

> <STRUCTURE_Formula>
C7H12O4

> <STRUCTURE_MW>
160.1678

> <STRUCTURE_ChemType>
defined organic

> <STRUCTURE_DefinedOrganicForm>
parent

> <STRUCTURE_IUPAC>
diethyl propanedioate

> <STRUCTURE_SMILES>
O=C(CC(=O)OCC)OCC

> <STRUCTURE_SMILES_Desalt>
O=C(CC(=O)OCC)OCC

> <Substance_modify_yyyymmdd>
20080429

$$$$
