106-48-9
ChemmineR-0914142331XD

  8  8  0  0  0  0  0  0  0  0  1 V2000
    0.0000   -1.1545    0.0000 O    0  0  0  0  0  0  0  0  0  0  0  0
    1.3300   -1.1545    0.0000 C    0  0  0  0  0  0  0  0  0  0  0  0
    1.9950    0.0000    0.0000 C    0  0  0  0  0  0  0  0  0  0  0  0
    3.3250    0.0000    0.0000 C    0  0  0  0  0  0  0  0  0  0  0  0
    3.9900   -1.1545    0.0000 C    0  0  0  0  0  0  0  0  0  0  0  0
    5.3201   -1.1545    0.0000 Cl   0  0  0  0  0  0  0  0  0  0  0  0
    3.3250   -2.3036    0.0000 C    0  0  0  0  0  0  0  0  0  0  0  0
    1.9950   -2.3036    0.0000 C    0  0  0  0  0  0  0  0  0  0  0  0
  1  2  1  0  0  0  0
  2  3  2  0  0  0  0
  2  8  1  0  0  0  0
  3  4  1  0  0  0  0
  4  5  2  0  0  0  0
  5  6  1  0  0  0  0
  5  7  1  0  0  0  0
  7  8  2  0  0  0  0
M  END
> <ID>
1755

> <Formula>
C6H5ClO

> <FW>
128.5563

> <DSSTox_CID>
1871

> <DSSTox_RID>
76376

> <DSSTox_GSID>
21871

> <DSSTox_FileID_Sort>
1060

> <TS_ChemName>
4-Chlorophenol

> <TS_ChemName_Synonyms>
p-Chlorophenol

> <TS_CASRN>
106-48-9

> <CASRN_ChemName_Relationship>
primary

> <TS_Description>
single chemical compound

> <ChemNote>


> <STRUCTURE_Shown>
tested chemical

> <STRUCTURE_Formula>
C6H5ClO

> <STRUCTURE_MW>
128.5563

> <STRUCTURE_ChemType>
defined organic

> <STRUCTURE_DefinedOrganicForm>
parent

> <STRUCTURE_IUPAC>
4-chlorophenol

> <STRUCTURE_SMILES>
Oc1ccc(Cl)cc1

> <STRUCTURE_SMILES_Desalt>
Oc1ccc(Cl)cc1

> <Substance_modify_yyyymmdd>
20080429

$$$$
