106-51-4
ChemmineR-0914142331XD

  8  8  0  0  0  0  0  0  0  0  1 V2000
    0.0000   -1.1545    0.0000 O   0  0  0  0  0  0  0  0  0  0  0  0
    1.3300   -1.1545    0.0000 C   0  0  0  0  0  0  0  0  0  0  0  0
    1.9950    0.0000    0.0000 C   0  0  0  0  0  0  0  0  0  0  0  0
    3.3250    0.0000    0.0000 C   0  0  0  0  0  0  0  0  0  0  0  0
    3.9900   -1.1545    0.0000 C   0  0  0  0  0  0  0  0  0  0  0  0
    5.3201   -1.1545    0.0000 O   0  0  0  0  0  0  0  0  0  0  0  0
    3.3250   -2.3036    0.0000 C   0  0  0  0  0  0  0  0  0  0  0  0
    1.9950   -2.3036    0.0000 C   0  0  0  0  0  0  0  0  0  0  0  0
  1  2  2  0  0  0  0
  2  3  1  0  0  0  0
  2  8  1  0  0  0  0
  3  4  2  0  0  0  0
  4  5  1  0  0  0  0
  5  6  2  0  0  0  0
  5  7  1  0  0  0  0
  7  8  2  0  0  0  0
M  END
> <ID>
142

> <Formula>
C6H4O2

> <FW>
108.0948

> <DSSTox_CID>
145

> <DSSTox_RID>
75398

> <DSSTox_GSID>
20145

> <DSSTox_FileID_Sort>
82

> <TS_ChemName>
1,4-Benzoquinone

> <TS_ChemName_Synonyms>
1,4-Benzoquinone (p-Quinone) (Quinone)

> <TS_CASRN>
106-51-4

> <CASRN_ChemName_Relationship>
primary

> <TS_Description>
single chemical compound

> <ChemNote>


> <STRUCTURE_Shown>
tested chemical

> <STRUCTURE_Formula>
C6H4O2

> <STRUCTURE_MW>
108.0948

> <STRUCTURE_ChemType>
defined organic

> <STRUCTURE_DefinedOrganicForm>
parent

> <STRUCTURE_IUPAC>
cyclohexa-2,5-diene-1,4-dione

> <STRUCTURE_SMILES>
O=C1C=CC(=O)C=C1

> <STRUCTURE_SMILES_Desalt>
O=C1C=CC(=O)C=C1

> <Substance_modify_yyyymmdd>
20080429

$$$$
