106-47-8
ChemmineR-0914142331XD

  8  8  0  0  0  0  0  0  0  0  1 V2000
    0.0000   -1.1545    0.0000 N    0  0  0  0  0  0  0  0  0  0  0  0
    1.3300   -1.1545    0.0000 C    0  0  0  0  0  0  0  0  0  0  0  0
    1.9950    0.0000    0.0000 C    0  0  0  0  0  0  0  0  0  0  0  0
    3.3250    0.0000    0.0000 C    0  0  0  0  0  0  0  0  0  0  0  0
    3.9900   -1.1545    0.0000 C    0  0  0  0  0  0  0  0  0  0  0  0
    3.3250   -2.3036    0.0000 C    0  0  0  0  0  0  0  0  0  0  0  0
    1.9950   -2.3036    0.0000 C    0  0  0  0  0  0  0  0  0  0  0  0
    5.3201   -1.1545    0.0000 Cl   0  0  0  0  0  0  0  0  0  0  0  0
  1  2  1  0  0  0  0
  2  3  2  0  0  0  0
  2  7  1  0  0  0  0
  3  4  1  0  0  0  0
  4  5  2  0  0  0  0
  5  6  1  0  0  0  0
  5  8  1  0  0  0  0
  6  7  2  0  0  0  0
M  END
> <ID>
286

> <Formula>
C6H6ClN

> <FW>
127.5715

> <DSSTox_CID>
295

> <DSSTox_RID>
75495

> <DSSTox_GSID>
20295

> <DSSTox_FileID_Sort>
179

> <TS_ChemName>
4-Chloroaniline

> <TS_ChemName_Synonyms>
4-Chloroaniline (p-Chloroaniline) (Benzenamine, 4-chloro-)

> <TS_CASRN>
106-47-8

> <CASRN_ChemName_Relationship>
primary

> <TS_Description>
single chemical compound

> <ChemNote>


> <STRUCTURE_Shown>
tested chemical

> <STRUCTURE_Formula>
C6H6ClN

> <STRUCTURE_MW>
127.5715

> <STRUCTURE_ChemType>
defined organic

> <STRUCTURE_DefinedOrganicForm>
parent

> <STRUCTURE_IUPAC>
4-chloroaniline

> <STRUCTURE_SMILES>
Nc1ccc(Cl)cc1

> <STRUCTURE_SMILES_Desalt>
Nc1ccc(Cl)cc1

> <Substance_modify_yyyymmdd>
20080429

$$$$
