106-63-8
ChemmineR-0914142331XD

  9  8  0  0  0  0  0  0  0  0  1 V2000
    6.9045   -1.9954    0.0000 C   0  0  0  0  0  0  0  0  0  0  0  0
    5.7514   -1.3257    0.0000 C   0  0  0  0  0  0  0  0  0  0  0  0
    4.6053   -1.9954    0.0000 C   0  0  0  0  0  0  0  0  0  0  0  0
    4.6053   -3.3210    0.0000 O   0  0  0  0  0  0  0  0  0  0  0  0
    3.4522   -1.3257    0.0000 O   0  0  0  0  0  0  0  0  0  0  0  0
    2.2992   -1.9954    0.0000 C   0  0  0  0  0  0  0  0  0  0  0  0
    1.1530   -1.3257    0.0000 C   0  0  0  0  0  0  0  0  0  0  0  0
    0.0000   -1.9954    0.0000 C   0  0  0  0  0  0  0  0  0  0  0  0
    1.1530    0.0000    0.0000 C   0  0  0  0  0  0  0  0  0  0  0  0
  1  2  2  0  0  0  0
  2  3  1  0  0  0  0
  3  4  2  0  0  0  0
  3  5  1  0  0  0  0
  5  6  1  0  0  0  0
  6  7  1  0  0  0  0
  7  8  1  0  0  0  0
  7  9  1  0  0  0  0
M  END
> <ID>
1757

> <Formula>
C7H12O2

> <FW>
128.169

> <DSSTox_CID>
1873

> <DSSTox_RID>
76378

> <DSSTox_GSID>
21873

> <DSSTox_FileID_Sort>
1062

> <TS_ChemName>
Isobutyl acrylate

> <TS_ChemName_Synonyms>
2-Propenoic acid, 2-methylpropyl ester

> <TS_CASRN>
106-63-8

> <CASRN_ChemName_Relationship>
primary

> <TS_Description>
single chemical compound

> <ChemNote>


> <STRUCTURE_Shown>
tested chemical

> <STRUCTURE_Formula>
C7H12O2

> <STRUCTURE_MW>
128.169

> <STRUCTURE_ChemType>
defined organic

> <STRUCTURE_DefinedOrganicForm>
parent

> <STRUCTURE_IUPAC>
2-methylpropyl prop-2-enoate

> <STRUCTURE_SMILES>
C=CC(=O)OCC(C)C

> <STRUCTURE_SMILES_Desalt>
C=CC(=O)OCC(C)C

> <Substance_modify_yyyymmdd>
20080429

$$$$
