106-46-7
ChemmineR-0914142331XD

  8  8  0  0  0  0  0  0  0  0  1 V2000
    0.0000   -1.1545    0.0000 Cl   0  0  0  0  0  0  0  0  0  0  0  0
    1.3300   -1.1545    0.0000 C    0  0  0  0  0  0  0  0  0  0  0  0
    1.9950    0.0000    0.0000 C    0  0  0  0  0  0  0  0  0  0  0  0
    3.3250    0.0000    0.0000 C    0  0  0  0  0  0  0  0  0  0  0  0
    3.9900   -1.1545    0.0000 C    0  0  0  0  0  0  0  0  0  0  0  0
    3.3250   -2.3036    0.0000 C    0  0  0  0  0  0  0  0  0  0  0  0
    1.9950   -2.3036    0.0000 C    0  0  0  0  0  0  0  0  0  0  0  0
    5.3201   -1.1545    0.0000 Cl   0  0  0  0  0  0  0  0  0  0  0  0
  1  2  1  0  0  0  0
  2  3  2  0  0  0  0
  2  7  1  0  0  0  0
  3  4  1  0  0  0  0
  4  5  2  0  0  0  0
  5  6  1  0  0  0  0
  5  8  1  0  0  0  0
  6  7  2  0  0  0  0
M  END
> <ID>
415

> <Formula>
C6H4Cl2

> <FW>
147.002

> <DSSTox_CID>
431

> <DSSTox_RID>
75582

> <DSSTox_GSID>
20431

> <DSSTox_FileID_Sort>
266

> <TS_ChemName>
1,4-Dichlorobenzene

> <TS_ChemName_Synonyms>
1,4-Dichlorobenzene (p-dichlorobenzene) (Benzene, 1,4-dichloro-)

> <TS_CASRN>
106-46-7

> <CASRN_ChemName_Relationship>
primary

> <TS_Description>
single chemical compound

> <ChemNote>


> <STRUCTURE_Shown>
tested chemical

> <STRUCTURE_Formula>
C6H4Cl2

> <STRUCTURE_MW>
147.002

> <STRUCTURE_ChemType>
defined organic

> <STRUCTURE_DefinedOrganicForm>
parent

> <STRUCTURE_IUPAC>
1,4-dichlorobenzene

> <STRUCTURE_SMILES>
Clc1ccc(Cl)cc1

> <STRUCTURE_SMILES_Desalt>
Clc1ccc(Cl)cc1

> <Substance_modify_yyyymmdd>
20080429

$$$$
