106-87-6
ChemmineR-0914142331XD

 10 12  0  0  0  0  0  0  0  0  1 V2000
    5.8059    0.0000    0.0000 O   0  0  0  0  0  0  0  0  0  0  0  0
    4.4764    0.0000    0.0000 C   0  0  0  0  0  0  0  0  0  0  0  0
    5.1383   -1.1554    0.0000 C   0  0  0  0  0  0  0  0  0  0  0  0
    4.4764   -2.3050    0.0000 C   0  0  0  0  0  0  0  0  0  0  0  0
    3.1468   -2.3050    0.0000 C   0  0  0  0  0  0  0  0  0  0  0  0
    2.4791   -1.1554    0.0000 C   0  0  0  0  0  0  0  0  0  0  0  0
    3.1468    0.0000    0.0000 C   0  0  0  0  0  0  0  0  0  0  0  0
    1.1496   -1.1554    0.0000 C   0  0  0  0  0  0  0  0  0  0  0  0
    0.0000   -1.8173    0.0000 C   0  0  0  0  0  0  0  0  0  0  0  0
    0.0000   -0.4877    0.0000 O   0  0  0  0  0  0  0  0  0  0  0  0
  1  2  1  0  0  0  0
  1  3  1  0  0  0  0
  2  3  1  0  0  0  0
  2  7  1  0  0  0  0
  3  4  1  0  0  0  0
  4  5  1  0  0  0  0
  5  6  1  0  0  0  0
  6  7  1  0  0  0  0
  6  8  1  0  0  0  0
  8  9  1  0  0  0  0
  8 10  1  0  0  0  0
  9 10  1  0  0  0  0
M  END
> <ID>
579

> <Formula>
C8H12O2

> <FW>
140.1797

> <DSSTox_CID>
604

> <DSSTox_RID>
75685

> <DSSTox_GSID>
20604

> <DSSTox_FileID_Sort>
369

> <TS_ChemName>
4-Vinyl-1-cyclohexene dioxide

> <TS_ChemName_Synonyms>
4-Vinyl-1-cyclohexene dioxide (4-Vinyl-1-cyclohexene diepoxide) (1-Ethyleneoxy-3,4-epoxycyclohexane) (1-Vinyl-3-cyclohexene dioxide) (4-Vinylcyclohexene Dioxide)

> <TS_CASRN>
106-87-6

> <CASRN_ChemName_Relationship>
primary

> <TS_Description>
single chemical compound

> <ChemNote>


> <STRUCTURE_Shown>
tested chemical

> <STRUCTURE_Formula>
C8H12O2

> <STRUCTURE_MW>
140.1797

> <STRUCTURE_ChemType>
defined organic

> <STRUCTURE_DefinedOrganicForm>
parent

> <STRUCTURE_IUPAC>
3-(oxiran-2-yl)-7-oxabicyclo[4.1.0]heptane

> <STRUCTURE_SMILES>
O1CC1C2CC3OC3CC2

> <STRUCTURE_SMILES_Desalt>
O1CC1C2CC3OC3CC2

> <Substance_modify_yyyymmdd>
20080429

$$$$
