107-92-6
ChemmineR-0914142331XD

  6  5  0  0  0  0  0  0  0  0  1 V2000
    4.6084   -1.9954    0.0000 O   0  0  0  0  0  0  0  0  0  0  0  0
    3.4563   -1.3318    0.0000 C   0  0  0  0  0  0  0  0  0  0  0  0
    2.3042   -1.9954    0.0000 C   0  0  0  0  0  0  0  0  0  0  0  0
    1.1521   -1.3318    0.0000 C   0  0  0  0  0  0  0  0  0  0  0  0
    0.0000   -1.9954    0.0000 C   0  0  0  0  0  0  0  0  0  0  0  0
    3.4563    0.0000    0.0000 O   0  0  0  0  0  0  0  0  0  0  0  0
  1  2  1  0  0  0  0
  2  3  1  0  0  0  0
  2  6  2  0  0  0  0
  3  4  1  0  0  0  0
  4  5  1  0  0  0  0
M  END
> <ID>
1455

> <Formula>
C4H8O2

> <FW>
88.1051

> <DSSTox_CID>
1515

> <DSSTox_RID>
76192

> <DSSTox_GSID>
21515

> <DSSTox_FileID_Sort>
876

> <TS_ChemName>
Butanoic acid

> <TS_ChemName_Synonyms>
Butyric acid

> <TS_CASRN>
107-92-6

> <CASRN_ChemName_Relationship>
primary

> <TS_Description>
single chemical compound

> <ChemNote>


> <STRUCTURE_Shown>
tested chemical

> <STRUCTURE_Formula>
C4H8O2

> <STRUCTURE_MW>
88.1051

> <STRUCTURE_ChemType>
defined organic

> <STRUCTURE_DefinedOrganicForm>
parent

> <STRUCTURE_IUPAC>
butanoic acid

> <STRUCTURE_SMILES>
CCCC(=O)O

> <STRUCTURE_SMILES_Desalt>
CCCC(=O)O

> <Substance_modify_yyyymmdd>
20080429

$$$$
