107-06-2
ChemmineR-0914142331XD

  4  3  0  0  0  0  0  0  0  0  1 V2000
    0.0000    0.0000    0.0000 Cl   0  0  0  0  0  0  0  0  0  0  0  0
    1.1513   -0.6638    0.0000 C    0  0  0  0  0  0  0  0  0  0  0  0
    2.3061    0.0000    0.0000 C    0  0  0  0  0  0  0  0  0  0  0  0
    3.4575   -0.6638    0.0000 Cl   0  0  0  0  0  0  0  0  0  0  0  0
  1  2  1  0  0  0  0
  2  3  1  0  0  0  0
  3  4  1  0  0  0  0
M  END
> <ID>
422

> <Formula>
C2H4Cl2

> <FW>
98.9592

> <DSSTox_CID>
438

> <DSSTox_RID>
75587

> <DSSTox_GSID>
20438

> <DSSTox_FileID_Sort>
271

> <TS_ChemName>
1,2-Dichloroethane

> <TS_ChemName_Synonyms>
1,2-Dichloroethane (Ethylene Dichloride) (Ethane, 1,2-dichloro-)

> <TS_CASRN>
107-06-2

> <CASRN_ChemName_Relationship>
primary

> <TS_Description>
single chemical compound

> <ChemNote>


> <STRUCTURE_Shown>
tested chemical

> <STRUCTURE_Formula>
C2H4Cl2

> <STRUCTURE_MW>
98.9592

> <STRUCTURE_ChemType>
defined organic

> <STRUCTURE_DefinedOrganicForm>
parent

> <STRUCTURE_IUPAC>
1,2-dichloroethane

> <STRUCTURE_SMILES>
ClCCCl

> <STRUCTURE_SMILES_Desalt>
ClCCCl

> <Substance_modify_yyyymmdd>
20080429

$$$$
