107-21-1
ChemmineR-0914142331XD

  4  3  0  0  0  0  0  0  0  0  1 V2000
    1.1513   -0.6638    0.0000 C   0  0  0  0  0  0  0  0  0  0  0  0
    2.3061    0.0000    0.0000 C   0  0  0  0  0  0  0  0  0  0  0  0
    3.4575   -0.6638    0.0000 O   0  0  0  0  0  0  0  0  0  0  0  0
    0.0000    0.0000    0.0000 O   0  0  0  0  0  0  0  0  0  0  0  0
  1  2  1  0  0  0  0
  1  4  1  0  0  0  0
  2  3  1  0  0  0  0
M  END
> <ID>
572

> <Formula>
C2H6O2

> <FW>
62.0678

> <DSSTox_CID>
597

> <DSSTox_RID>
75680

> <DSSTox_GSID>
20597

> <DSSTox_FileID_Sort>
364

> <TS_ChemName>
Ethylene glycol

> <TS_ChemName_Synonyms>
1,2-Ethanediol

> <TS_CASRN>
107-21-1

> <CASRN_ChemName_Relationship>
primary

> <TS_Description>
single chemical compound

> <ChemNote>


> <STRUCTURE_Shown>
tested chemical

> <STRUCTURE_Formula>
C2H6O2

> <STRUCTURE_MW>
62.0678

> <STRUCTURE_ChemType>
defined organic

> <STRUCTURE_DefinedOrganicForm>
parent

> <STRUCTURE_IUPAC>
ethane-1,2-diol

> <STRUCTURE_SMILES>
OCCO

> <STRUCTURE_SMILES_Desalt>
OCCO

> <Substance_modify_yyyymmdd>
20080429

$$$$
