1072-67-9
ChemmineR-0914142331XD

  7  7  0  0  0  0  0  0  0  0  1 V2000
    0.0000   -2.5243    0.0000 N   0  0  0  0  0  0  0  0  0  0  0  0
    1.0774   -1.7407    0.0000 C   0  0  0  0  0  0  0  0  0  0  0  0
    1.0774   -0.4140    0.0000 N   0  0  0  0  0  0  0  0  0  0  0  0
    2.3417    0.0000    0.0000 O   0  0  0  0  0  0  0  0  0  0  0  0
    3.1208   -1.0774    0.0000 C   0  0  0  0  0  0  0  0  0  0  0  0
    4.4520   -1.0774    0.0000 C   0  0  0  0  0  0  0  0  0  0  0  0
    2.3417   -2.1548    0.0000 C   0  0  0  0  0  0  0  0  0  0  0  0
  1  2  1  0  0  0  0
  2  3  2  0  0  0  0
  2  7  1  0  0  0  0
  3  4  1  0  0  0  0
  4  5  1  0  0  0  0
  5  6  1  0  0  0  0
  5  7  2  0  0  0  0
M  END
> <ID>
1568

> <Formula>
C4H6N2O

> <FW>
98.1032

> <DSSTox_CID>
1631

> <DSSTox_RID>
76245

> <DSSTox_GSID>
21631

> <DSSTox_FileID_Sort>
929

> <TS_ChemName>
5-Methyl-3-isoxazolamine

> <TS_ChemName_Synonyms>


> <TS_CASRN>
1072-67-9

> <CASRN_ChemName_Relationship>
primary

> <TS_Description>
single chemical compound

> <ChemNote>


> <STRUCTURE_Shown>
tested chemical

> <STRUCTURE_Formula>
C4H6N2O

> <STRUCTURE_MW>
98.1032

> <STRUCTURE_ChemType>
defined organic

> <STRUCTURE_DefinedOrganicForm>
parent

> <STRUCTURE_IUPAC>
5-methyl-1,2-oxazol-3-amine

> <STRUCTURE_SMILES>
Cc1cc(N)no1

> <STRUCTURE_SMILES_Desalt>
Cc1cc(N)no1

> <Substance_modify_yyyymmdd>
20080429

$$$$
