107753-78-6
ChemmineR-0914142331XD

 41 45  0  0  0  0  0  0  0  0  1 V2000
    2.2857   -5.4363    0.0000 C   0  0  0  0  0  0  0  0  0  0  0  0
    2.2857   -6.7542    0.0000 C   0  0  0  0  0  0  0  0  0  0  0  0
    1.1532   -4.7568    0.0000 C   0  0  0  0  0  0  0  0  0  0  0  0
    1.1532   -7.4131    0.0000 C   0  0  0  0  0  0  0  0  0  0  0  0
    0.0000   -5.4363    0.0000 C   0  0  0  0  0  0  0  0  0  0  0  0
    0.0000   -6.7542    0.0000 C   0  0  0  0  0  0  0  0  0  0  0  0
    3.4389   -4.7568    0.0000 C   0  0  0  0  0  0  0  0  0  0  0  0
    3.4389   -7.4131    0.0000 S   0  0  0  0  0  0  0  0  0  0  0  0
    4.5920   -6.7748    0.0000 N   0  0  0  0  0  0  0  0  0  0  0  0
    6.8983   -5.4363    0.0000 C   0  0  0  0  0  0  0  0  0  0  0  0
    5.7452   -7.4131    0.0000 C   0  0  0  0  0  0  0  0  0  0  0  0
    6.8983   -6.7748    0.0000 C   0  0  0  0  0  0  0  0  0  0  0  0
    9.2047   -5.4363    0.0000 C   0  0  0  0  0  0  0  0  0  0  0  0
    9.2047   -6.7748    0.0000 C   0  0  0  0  0  0  0  0  0  0  0  0
    8.0515   -4.7568    0.0000 C   0  0  0  0  0  0  0  0  0  0  0  0
    8.0515   -7.4131    0.0000 C   0  0  0  0  0  0  0  0  0  0  0  0
   10.3578   -3.4183    0.0000 C   0  0  0  0  0  0  0  0  0  0  0  0
   10.3578   -4.7568    0.0000 C   0  0  0  0  0  0  0  0  0  0  0  0
    8.0515   -3.4183    0.0000 O   0  0  0  0  0  0  0  0  0  0  0  0
    6.8983   -2.7593    0.0000 C   0  0  0  0  0  0  0  0  0  0  0  0
    2.7799   -8.5663    0.0000 O   0  0  0  0  0  0  0  0  0  0  0  0
    4.0978   -8.5663    0.0000 O   0  0  0  0  0  0  0  0  0  0  0  0
    5.7452   -8.7516    0.0000 O   0  0  0  0  0  0  0  0  0  0  0  0
   13.9202   -1.6885    0.0000 C   0  0  0  0  0  0  0  0  0  0  0  0
   13.9202   -3.0270    0.0000 C   0  0  0  0  0  0  0  0  0  0  0  0
   12.7877   -1.0296    0.0000 C   0  0  0  0  0  0  0  0  0  0  0  0
   12.7877   -3.6860    0.0000 C   0  0  0  0  0  0  0  0  0  0  0  0
   11.6139   -1.6885    0.0000 C   0  0  0  0  0  0  0  0  0  0  0  0
   11.6139   -3.0270    0.0000 C   0  0  0  0  0  0  0  0  0  0  0  0
   10.3578   -1.2561    0.0000 N   0  0  0  0  0  0  0  0  0  0  0  0
    9.5753   -2.3681    0.0000 C   0  0  0  0  0  0  0  0  0  0  0  0
    9.9460    0.0000    0.0000 C   0  0  0  0  0  0  0  0  0  0  0  0
   15.0734   -3.6860    0.0000 N   0  0  0  0  0  0  0  0  0  0  0  0
   16.2265   -3.0270    0.0000 C   0  0  0  0  0  0  0  0  0  0  0  0
   17.3797   -3.6860    0.0000 O   0  0  0  0  0  0  0  0  0  0  0  0
   18.5329   -3.0270    0.0000 C   0  0  0  0  0  0  0  0  0  0  0  0
   18.5329   -1.6885    0.0000 C   0  0  0  0  0  0  0  0  0  0  0  0
   16.2265   -1.6885    0.0000 O   0  0  0  0  0  0  0  0  0  0  0  0
   19.8096   -3.4183    0.0000 C   0  0  0  0  0  0  0  0  0  0  0  0
   20.5921   -2.3681    0.0000 C   0  0  0  0  0  0  0  0  0  0  0  0
   19.8096   -1.2561    0.0000 C   0  0  0  0  0  0  0  0  0  0  0  0
  1  3  2  0  0  0  0
  1  7  1  0  0  0  0
  1  2  1  0  0  0  0
  2  4  2  0  0  0  0
  2  8  1  0  0  0  0
  3  5  1  0  0  0  0
  4  6  1  0  0  0  0
  5  6  2  0  0  0  0
  8  9  1  0  0  0  0
  8 21  2  0  0  0  0
  8 22  2  0  0  0  0
  9 11  1  0  0  0  0
 10 15  1  0  0  0  0
 10 12  2  0  0  0  0
 11 12  1  0  0  0  0
 11 23  2  0  0  0  0
 12 16  1  0  0  0  0
 13 14  1  0  0  0  0
 13 15  2  0  0  0  0
 13 18  1  0  0  0  0
 14 16  2  0  0  0  0
 15 19  1  0  0  0  0
 17 18  1  0  0  0  0
 17 29  1  0  0  0  0
 17 31  2  0  0  0  0
 19 20  1  0  0  0  0
 24 25  1  0  0  0  0
 24 26  2  0  0  0  0
 25 27  2  0  0  0  0
 25 33  1  0  0  0  0
 26 28  1  0  0  0  0
 27 29  1  0  0  0  0
 28 29  2  0  0  0  0
 28 30  1  0  0  0  0
 30 31  1  0  0  0  0
 30 32  1  0  0  0  0
 33 34  1  0  0  0  0
 34 35  1  0  0  0  0
 34 38  2  0  0  0  0
 35 36  1  0  0  0  0
 36 39  1  0  0  0  0
 36 37  1  0  0  0  0
 37 41  1  0  0  0  0
 39 40  1  0  0  0  0
 40 41  1  0  0  0  0
M  END
> <ID>
3348

> <Formula>
C31H33N3O6S

> <FW>
575.6752

> <DSSTox_CID>
3746

> <DSSTox_RID>
77181

> <DSSTox_GSID>
23746

> <DSSTox_FileID_Sort>
1864

> <TS_ChemName>
Zafirlukast

> <TS_ChemName_Synonyms>


> <TS_CASRN>
107753-78-6

> <CASRN_ChemName_Relationship>
primary

> <TS_Description>
single chemical compound

> <ChemNote>


> <STRUCTURE_Shown>
tested chemical

> <STRUCTURE_Formula>
C31H33N3O6S

> <STRUCTURE_MW>
575.6752

> <STRUCTURE_ChemType>
defined organic

> <STRUCTURE_DefinedOrganicForm>
parent

> <STRUCTURE_IUPAC>
cyclopentyl [3-(2-methoxy-4-{[(2-methylphenyl)sulfonyl]carbamoyl}benzyl)-1-methyl-1H-indol-5-yl]carbamate

> <STRUCTURE_SMILES>
Cc1ccccc1S(=O)(=O)NC(=O)c5ccc(Cc3cn(C)c2ccc(cc23)NC(=O)OC4CCCC4)c(OC)c5

> <STRUCTURE_SMILES_Desalt>
Cc1ccccc1S(=O)(=O)NC(=O)c5ccc(Cc3cn(C)c2ccc(cc23)NC(=O)OC4CCCC4)c(OC)c5

> <Substance_modify_yyyymmdd>
20080429

$$$$
