108-45-2
ChemmineR-0914142331XD

  8  8  0  0  0  0  0  0  0  0  1 V2000
    4.6080   -2.6588    0.0000 N   0  0  0  0  0  0  0  0  0  0  0  0
    3.4560   -1.9953    0.0000 C   0  0  0  0  0  0  0  0  0  0  0  0
    2.3040   -2.6588    0.0000 C   0  0  0  0  0  0  0  0  0  0  0  0
    1.1520   -1.9953    0.0000 C   0  0  0  0  0  0  0  0  0  0  0  0
    1.1520   -0.6635    0.0000 C   0  0  0  0  0  0  0  0  0  0  0  0
    2.3040    0.0000    0.0000 C   0  0  0  0  0  0  0  0  0  0  0  0
    3.4560   -0.6635    0.0000 C   0  0  0  0  0  0  0  0  0  0  0  0
    0.0000   -2.6588    0.0000 N   0  0  0  0  0  0  0  0  0  0  0  0
  1  2  1  0  0  0  0
  2  3  2  0  0  0  0
  2  7  1  0  0  0  0
  3  4  1  0  0  0  0
  4  5  2  0  0  0  0
  4  8  1  0  0  0  0
  5  6  1  0  0  0  0
  6  7  2  0  0  0  0
M  END
> <ID>
1093

> <Formula>
C6H8N2

> <FW>
108.1411

> <DSSTox_CID>
1137

> <DSSTox_RID>
75968

> <DSSTox_GSID>
21137

> <DSSTox_FileID_Sort>
652

> <TS_ChemName>
1,3-Benzenediamine

> <TS_ChemName_Synonyms>
1,3-Benzenediamine (m-Phenylenediamine)

> <TS_CASRN>
108-45-2

> <CASRN_ChemName_Relationship>
primary

> <TS_Description>
single chemical compound

> <ChemNote>


> <STRUCTURE_Shown>
tested chemical

> <STRUCTURE_Formula>
C6H8N2

> <STRUCTURE_MW>
108.1411

> <STRUCTURE_ChemType>
defined organic

> <STRUCTURE_DefinedOrganicForm>
parent

> <STRUCTURE_IUPAC>
benzene-1,3-diamine

> <STRUCTURE_SMILES>
Nc1cccc(N)c1

> <STRUCTURE_SMILES_Desalt>
Nc1cccc(N)c1

> <Substance_modify_yyyymmdd>
20080429

$$$$
