108-93-0
ChemmineR-0914142331XD

  7  7  0  0  0  0  0  0  0  0  1 V2000
    1.9958    0.0000    0.0000 C   0  0  0  0  0  0  0  0  0  0  0  0
    3.3250    0.0000    0.0000 C   0  0  0  0  0  0  0  0  0  0  0  0
    3.9916   -1.1496    0.0000 C   0  0  0  0  0  0  0  0  0  0  0  0
    3.3250   -2.3032    0.0000 C   0  0  0  0  0  0  0  0  0  0  0  0
    1.9958   -2.3032    0.0000 C   0  0  0  0  0  0  0  0  0  0  0  0
    1.3292   -1.1496    0.0000 C   0  0  0  0  0  0  0  0  0  0  0  0
    0.0000   -1.1496    0.0000 O   0  0  0  0  0  0  0  0  0  0  0  0
  1  2  1  0  0  0  0
  1  6  1  0  0  0  0
  2  3  1  0  0  0  0
  3  4  1  0  0  0  0
  4  5  1  0  0  0  0
  5  6  1  0  0  0  0
  6  7  1  0  0  0  0
M  END
> <ID>
1771

> <Formula>
C6H12O

> <FW>
100.1589

> <DSSTox_CID>
1894

> <DSSTox_RID>
76390

> <DSSTox_GSID>
21894

> <DSSTox_FileID_Sort>
1074

> <TS_ChemName>
Cyclohexanol

> <TS_ChemName_Synonyms>


> <TS_CASRN>
108-93-0

> <CASRN_ChemName_Relationship>
primary

> <TS_Description>
single chemical compound

> <ChemNote>


> <STRUCTURE_Shown>
tested chemical

> <STRUCTURE_Formula>
C6H12O

> <STRUCTURE_MW>
100.1589

> <STRUCTURE_ChemType>
defined organic

> <STRUCTURE_DefinedOrganicForm>
parent

> <STRUCTURE_IUPAC>
cyclohexanol

> <STRUCTURE_SMILES>
OC1CCCCC1

> <STRUCTURE_SMILES_Desalt>
OC1CCCCC1

> <Substance_modify_yyyymmdd>
20080429

$$$$
