108-88-3
ChemmineR-0914142331XD

  7  7  0  0  0  0  0  0  0  0  1 V2000
    0.0000   -1.1496    0.0000 C   0  0  0  0  0  0  0  0  0  0  0  0
    1.3292   -1.1496    0.0000 C   0  0  0  0  0  0  0  0  0  0  0  0
    1.9958    0.0000    0.0000 C   0  0  0  0  0  0  0  0  0  0  0  0
    3.3250    0.0000    0.0000 C   0  0  0  0  0  0  0  0  0  0  0  0
    3.9916   -1.1496    0.0000 C   0  0  0  0  0  0  0  0  0  0  0  0
    3.3250   -2.3032    0.0000 C   0  0  0  0  0  0  0  0  0  0  0  0
    1.9958   -2.3032    0.0000 C   0  0  0  0  0  0  0  0  0  0  0  0
  1  2  1  0  0  0  0
  2  3  2  0  0  0  0
  2  7  1  0  0  0  0
  3  4  1  0  0  0  0
  4  5  2  0  0  0  0
  5  6  1  0  0  0  0
  6  7  2  0  0  0  0
M  END
> <ID>
1307

> <Formula>
C7H8

> <FW>
92.1384

> <DSSTox_CID>
1360

> <DSSTox_RID>
76107

> <DSSTox_GSID>
21360

> <DSSTox_FileID_Sort>
791

> <TS_ChemName>
Toluene

> <TS_ChemName_Synonyms>


> <TS_CASRN>
108-88-3

> <CASRN_ChemName_Relationship>
primary

> <TS_Description>
single chemical compound

> <ChemNote>


> <STRUCTURE_Shown>
tested chemical

> <STRUCTURE_Formula>
C7H8

> <STRUCTURE_MW>
92.1384

> <STRUCTURE_ChemType>
defined organic

> <STRUCTURE_DefinedOrganicForm>
parent

> <STRUCTURE_IUPAC>
methylbenzene

> <STRUCTURE_SMILES>
Cc1ccccc1

> <STRUCTURE_SMILES_Desalt>
Cc1ccccc1

> <Substance_modify_yyyymmdd>
20080429

$$$$
