109-06-8
ChemmineR-0914142331XD

  7  7  0  0  0  0  0  0  0  0  1 V2000
    1.9958   -2.3032    0.0000 N   0  0  0  0  0  0  0  0  0  0  0  0
    1.3292   -1.1496    0.0000 C   0  0  0  0  0  0  0  0  0  0  0  0
    0.0000   -1.1496    0.0000 C   0  0  0  0  0  0  0  0  0  0  0  0
    1.9958    0.0000    0.0000 C   0  0  0  0  0  0  0  0  0  0  0  0
    3.3250    0.0000    0.0000 C   0  0  0  0  0  0  0  0  0  0  0  0
    3.9916   -1.1496    0.0000 C   0  0  0  0  0  0  0  0  0  0  0  0
    3.3250   -2.3032    0.0000 C   0  0  0  0  0  0  0  0  0  0  0  0
  1  2  2  0  0  0  0
  1  7  1  0  0  0  0
  2  3  1  0  0  0  0
  2  4  1  0  0  0  0
  4  5  2  0  0  0  0
  5  6  1  0  0  0  0
  6  7  2  0  0  0  0
M  END
> <ID>
1774

> <Formula>
C6H7N

> <FW>
93.1265

> <DSSTox_CID>
1899

> <DSSTox_RID>
76392

> <DSSTox_GSID>
21899

> <DSSTox_FileID_Sort>
1076

> <TS_ChemName>
2-Methylpyridine

> <TS_ChemName_Synonyms>
2-Picoline

> <TS_CASRN>
109-06-8

> <CASRN_ChemName_Relationship>
primary

> <TS_Description>
single chemical compound

> <ChemNote>


> <STRUCTURE_Shown>
tested chemical

> <STRUCTURE_Formula>
C6H7N

> <STRUCTURE_MW>
93.1265

> <STRUCTURE_ChemType>
defined organic

> <STRUCTURE_DefinedOrganicForm>
parent

> <STRUCTURE_IUPAC>
2-methylpyridine

> <STRUCTURE_SMILES>
Cc1ccccn1

> <STRUCTURE_SMILES_Desalt>
Cc1ccccn1

> <Substance_modify_yyyymmdd>
20080429

$$$$
