109-64-8
ChemmineR-0914142331XD

  5  4  0  0  0  0  0  0  0  0  1 V2000
    0.0000   -0.6638    0.0000 Br   0  0  0  0  0  0  0  0  0  0  0  0
    1.1525    0.0000    0.0000 C    0  0  0  0  0  0  0  0  0  0  0  0
    2.3050   -0.6638    0.0000 C    0  0  0  0  0  0  0  0  0  0  0  0
    3.4575    0.0000    0.0000 C    0  0  0  0  0  0  0  0  0  0  0  0
    4.6099   -0.6638    0.0000 Br   0  0  0  0  0  0  0  0  0  0  0  0
  1  2  1  0  0  0  0
  2  3  1  0  0  0  0
  3  4  1  0  0  0  0
  4  5  1  0  0  0  0
M  END
> <ID>
1777

> <Formula>
C3H6Br2

> <FW>
201.8877

> <DSSTox_CID>
1902

> <DSSTox_RID>
76394

> <DSSTox_GSID>
21902

> <DSSTox_FileID_Sort>
1078

> <TS_ChemName>
1,3-Dibromopropane

> <TS_ChemName_Synonyms>


> <TS_CASRN>
109-64-8

> <CASRN_ChemName_Relationship>
primary

> <TS_Description>
single chemical compound

> <ChemNote>


> <STRUCTURE_Shown>
tested chemical

> <STRUCTURE_Formula>
C3H6Br2

> <STRUCTURE_MW>
201.8877

> <STRUCTURE_ChemType>
defined organic

> <STRUCTURE_DefinedOrganicForm>
parent

> <STRUCTURE_IUPAC>
1,3-dibromopropane

> <STRUCTURE_SMILES>
BrCCCBr

> <STRUCTURE_SMILES_Desalt>
BrCCCBr

> <Substance_modify_yyyymmdd>
20080429

$$$$
