109-52-4
ChemmineR-0914142331XD

  7  6  0  0  0  0  0  0  0  0  1 V2000
    5.7637   -1.9942    0.0000 O   0  0  0  0  0  0  0  0  0  0  0  0
    4.6110   -1.3314    0.0000 C   0  0  0  0  0  0  0  0  0  0  0  0
    3.4582   -1.9942    0.0000 C   0  0  0  0  0  0  0  0  0  0  0  0
    2.3055   -1.3314    0.0000 C   0  0  0  0  0  0  0  0  0  0  0  0
    1.1527   -1.9942    0.0000 C   0  0  0  0  0  0  0  0  0  0  0  0
    0.0000   -1.3314    0.0000 C   0  0  0  0  0  0  0  0  0  0  0  0
    4.6110    0.0000    0.0000 O   0  0  0  0  0  0  0  0  0  0  0  0
  1  2  1  0  0  0  0
  2  3  1  0  0  0  0
  2  7  2  0  0  0  0
  3  4  1  0  0  0  0
  4  5  1  0  0  0  0
  5  6  1  0  0  0  0
M  END
> <ID>
1592

> <Formula>
C5H10O2

> <FW>
102.1317

> <DSSTox_CID>
1655

> <DSSTox_RID>
76267

> <DSSTox_GSID>
21655

> <DSSTox_FileID_Sort>
951

> <TS_ChemName>
Pentanoic acid

> <TS_ChemName_Synonyms>
Valeric acid

> <TS_CASRN>
109-52-4

> <CASRN_ChemName_Relationship>
primary

> <TS_Description>
single chemical compound

> <ChemNote>


> <STRUCTURE_Shown>
tested chemical

> <STRUCTURE_Formula>
C5H10O2

> <STRUCTURE_MW>
102.1317

> <STRUCTURE_ChemType>
defined organic

> <STRUCTURE_DefinedOrganicForm>
parent

> <STRUCTURE_IUPAC>
pentanoic acid

> <STRUCTURE_SMILES>
CCCCC(=O)O

> <STRUCTURE_SMILES_Desalt>
CCCCC(=O)O

> <Substance_modify_yyyymmdd>
20080429

$$$$
