109-69-3
ChemmineR-0914142331XD

  5  4  0  0  0  0  0  0  0  0  1 V2000
    0.0000   -0.6638    0.0000 C    0  0  0  0  0  0  0  0  0  0  0  0
    1.1525    0.0000    0.0000 C    0  0  0  0  0  0  0  0  0  0  0  0
    2.3050   -0.6638    0.0000 C    0  0  0  0  0  0  0  0  0  0  0  0
    3.4575    0.0000    0.0000 C    0  0  0  0  0  0  0  0  0  0  0  0
    4.6099   -0.6638    0.0000 Cl   0  0  0  0  0  0  0  0  0  0  0  0
  1  2  1  0  0  0  0
  2  3  1  0  0  0  0
  3  4  1  0  0  0  0
  4  5  1  0  0  0  0
M  END
> <ID>
202

> <Formula>
C4H9Cl

> <FW>
92.5673

> <DSSTox_CID>
206

> <DSSTox_RID>
75432

> <DSSTox_GSID>
20206

> <DSSTox_FileID_Sort>
116

> <TS_ChemName>
1-Chlorobutane

> <TS_ChemName_Synonyms>
Butane, 1-chloro-

> <TS_CASRN>
109-69-3

> <CASRN_ChemName_Relationship>
primary

> <TS_Description>
single chemical compound

> <ChemNote>


> <STRUCTURE_Shown>
tested chemical

> <STRUCTURE_Formula>
C4H9Cl

> <STRUCTURE_MW>
92.5673

> <STRUCTURE_ChemType>
defined organic

> <STRUCTURE_DefinedOrganicForm>
parent

> <STRUCTURE_IUPAC>
1-chlorobutane

> <STRUCTURE_SMILES>
CCCCCl

> <STRUCTURE_SMILES_Desalt>
CCCCCl

> <Substance_modify_yyyymmdd>
20080429

$$$$
