110-65-6
ChemmineR-0914142331XD

  6  5  0  0  0  0  0  0  0  0  1 V2000
    0.6655   -1.1499    0.0000 C   0  0  0  0  0  0  0  0  0  0  0  0
    0.0000    0.0000    0.0000 O   0  0  0  0  0  0  0  0  0  0  0  0
    1.9964   -1.1499    0.0000 C   0  0  0  0  0  0  0  0  0  0  0  0
    3.3273   -1.1499    0.0000 C   0  0  0  0  0  0  0  0  0  0  0  0
    4.6583   -1.1499    0.0000 C   0  0  0  0  0  0  0  0  0  0  0  0
    5.3237    0.0000    0.0000 O   0  0  0  0  0  0  0  0  0  0  0  0
  1  2  1  0  0  0  0
  1  3  1  0  0  0  0
  3  4  3  0  0  0  0
  4  5  1  0  0  0  0
  5  6  1  0  0  0  0
M  END
> <ID>
1793

> <Formula>
C4H6O2

> <FW>
86.0892

> <DSSTox_CID>
1921

> <DSSTox_RID>
76402

> <DSSTox_GSID>
21921

> <DSSTox_FileID_Sort>
1086

> <TS_ChemName>
2-Butyne-1,4-diol

> <TS_ChemName_Synonyms>


> <TS_CASRN>
110-65-6

> <CASRN_ChemName_Relationship>
primary

> <TS_Description>
single chemical compound

> <ChemNote>


> <STRUCTURE_Shown>
tested chemical

> <STRUCTURE_Formula>
C4H6O2

> <STRUCTURE_MW>
86.0892

> <STRUCTURE_ChemType>
defined organic

> <STRUCTURE_DefinedOrganicForm>
parent

> <STRUCTURE_IUPAC>
but-2-yne-1,4-diol

> <STRUCTURE_SMILES>
OCC#CCO

> <STRUCTURE_SMILES_Desalt>
OCC#CCO

> <Substance_modify_yyyymmdd>
20080429

$$$$
