110-97-4
ChemmineR-0914142331XD

  9  8  0  0  0  0  0  0  0  0  1 V2000
    6.9090   -1.9967    0.0000 C   0  0  0  0  0  0  0  0  0  0  0  0
    5.7552   -1.3334    0.0000 C   0  0  0  0  0  0  0  0  0  0  0  0
    4.6083   -1.9967    0.0000 C   0  0  0  0  0  0  0  0  0  0  0  0
    3.4545   -1.3334    0.0000 N   0  0  0  0  0  0  0  0  0  0  0  0
    2.3007   -1.9967    0.0000 C   0  0  0  0  0  0  0  0  0  0  0  0
    1.1538   -1.3334    0.0000 C   0  0  0  0  0  0  0  0  0  0  0  0
    0.0000   -1.9967    0.0000 C   0  0  0  0  0  0  0  0  0  0  0  0
    1.1538    0.0000    0.0000 O   0  0  0  0  0  0  0  0  0  0  0  0
    5.7552    0.0000    0.0000 O   0  0  0  0  0  0  0  0  0  0  0  0
  1  2  1  0  0  0  0
  2  3  1  0  0  0  0
  2  9  1  0  0  0  0
  3  4  1  0  0  0  0
  4  5  1  0  0  0  0
  5  6  1  0  0  0  0
  6  7  1  0  0  0  0
  6  8  1  0  0  0  0
M  END
> <ID>
176

> <Formula>
C6H15NO2

> <FW>
133.1888

> <DSSTox_CID>
179

> <DSSTox_RID>
75418

> <DSSTox_GSID>
20179

> <DSSTox_FileID_Sort>
102

> <TS_ChemName>
Diisopropanolamine

> <TS_ChemName_Synonyms>
2-Propanol, 1,1'-iminobis-

> <TS_CASRN>
110-97-4

> <CASRN_ChemName_Relationship>
primary

> <TS_Description>
single chemical compound

> <ChemNote>


> <STRUCTURE_Shown>
tested chemical

> <STRUCTURE_Formula>
C6H15NO2

> <STRUCTURE_MW>
133.1888

> <STRUCTURE_ChemType>
defined organic

> <STRUCTURE_DefinedOrganicForm>
parent

> <STRUCTURE_IUPAC>
1,1'-iminodipropan-2-ol

> <STRUCTURE_SMILES>
CC(O)CNCC(C)O

> <STRUCTURE_SMILES_Desalt>
CC(O)CNCC(C)O

> <Substance_modify_yyyymmdd>
20080429

$$$$
