110-86-1
ChemmineR-0914142331XD

  6  6  0  0  0  0  0  0  0  0  1 V2000
    2.3036   -1.9950    0.0000 N   0  0  0  0  0  0  0  0  0  0  0  0
    1.1518   -2.6600    0.0000 C   0  0  0  0  0  0  0  0  0  0  0  0
    0.0000   -1.9950    0.0000 C   0  0  0  0  0  0  0  0  0  0  0  0
    0.0000   -0.6650    0.0000 C   0  0  0  0  0  0  0  0  0  0  0  0
    1.1518    0.0000    0.0000 C   0  0  0  0  0  0  0  0  0  0  0  0
    2.3036   -0.6650    0.0000 C   0  0  0  0  0  0  0  0  0  0  0  0
  1  2  2  0  0  0  0
  1  6  1  0  0  0  0
  2  3  1  0  0  0  0
  3  4  2  0  0  0  0
  4  5  1  0  0  0  0
  5  6  2  0  0  0  0
M  END
> <ID>
1796

> <Formula>
C5H5N

> <FW>
79.0999

> <DSSTox_CID>
1924

> <DSSTox_RID>
76405

> <DSSTox_GSID>
21924

> <DSSTox_FileID_Sort>
1089

> <TS_ChemName>
Pyridine

> <TS_ChemName_Synonyms>


> <TS_CASRN>
110-86-1

> <CASRN_ChemName_Relationship>
primary

> <TS_Description>
single chemical compound

> <ChemNote>


> <STRUCTURE_Shown>
tested chemical

> <STRUCTURE_Formula>
C5H5N

> <STRUCTURE_MW>
79.0999

> <STRUCTURE_ChemType>
defined organic

> <STRUCTURE_DefinedOrganicForm>
parent

> <STRUCTURE_IUPAC>
pyridine

> <STRUCTURE_SMILES>
c1ccccn1

> <STRUCTURE_SMILES_Desalt>
c1ccccn1

> <Substance_modify_yyyymmdd>
20080429

$$$$
