110-88-3
ChemmineR-0914142331XD

  6  6  0  0  0  0  0  0  0  0  1 V2000
    2.3036   -1.9950    0.0000 C   0  0  0  0  0  0  0  0  0  0  0  0
    1.1518   -2.6600    0.0000 O   0  0  0  0  0  0  0  0  0  0  0  0
    0.0000   -1.9950    0.0000 C   0  0  0  0  0  0  0  0  0  0  0  0
    0.0000   -0.6650    0.0000 O   0  0  0  0  0  0  0  0  0  0  0  0
    1.1518    0.0000    0.0000 C   0  0  0  0  0  0  0  0  0  0  0  0
    2.3036   -0.6650    0.0000 O   0  0  0  0  0  0  0  0  0  0  0  0
  1  2  1  0  0  0  0
  1  6  1  0  0  0  0
  2  3  1  0  0  0  0
  3  4  1  0  0  0  0
  4  5  1  0  0  0  0
  5  6  1  0  0  0  0
M  END
> <ID>
1797

> <Formula>
C3H6O3

> <FW>
90.0779

> <DSSTox_CID>
1925

> <DSSTox_RID>
76406

> <DSSTox_GSID>
21925

> <DSSTox_FileID_Sort>
1090

> <TS_ChemName>
1,3,5-Trioxane

> <TS_ChemName_Synonyms>
1,3,5-Trioxane (s-Trioxane)

> <TS_CASRN>
110-88-3

> <CASRN_ChemName_Relationship>
primary

> <TS_Description>
single chemical compound

> <ChemNote>


> <STRUCTURE_Shown>
tested chemical

> <STRUCTURE_Formula>
C3H6O3

> <STRUCTURE_MW>
90.0779

> <STRUCTURE_ChemType>
defined organic

> <STRUCTURE_DefinedOrganicForm>
parent

> <STRUCTURE_IUPAC>
1,3,5-trioxane

> <STRUCTURE_SMILES>
C1OCOCO1

> <STRUCTURE_SMILES_Desalt>
C1OCOCO1

> <Substance_modify_yyyymmdd>
20080429

$$$$
