110-82-7
ChemmineR-0914142331XD

  6  6  0  0  0  0  0  0  0  0  1 V2000
    2.3036   -1.9950    0.0000 C   0  0  0  0  0  0  0  0  0  0  0  0
    1.1518   -2.6600    0.0000 C   0  0  0  0  0  0  0  0  0  0  0  0
    0.0000   -1.9950    0.0000 C   0  0  0  0  0  0  0  0  0  0  0  0
    0.0000   -0.6650    0.0000 C   0  0  0  0  0  0  0  0  0  0  0  0
    1.1518    0.0000    0.0000 C   0  0  0  0  0  0  0  0  0  0  0  0
    2.3036   -0.6650    0.0000 C   0  0  0  0  0  0  0  0  0  0  0  0
  1  2  1  0  0  0  0
  1  6  1  0  0  0  0
  2  3  1  0  0  0  0
  3  4  1  0  0  0  0
  4  5  1  0  0  0  0
  5  6  1  0  0  0  0
M  END
> <ID>
1795

> <Formula>
C6H12

> <FW>
84.1595

> <DSSTox_CID>
1923

> <DSSTox_RID>
76404

> <DSSTox_GSID>
21923

> <DSSTox_FileID_Sort>
1088

> <TS_ChemName>
Cyclohexane

> <TS_ChemName_Synonyms>


> <TS_CASRN>
110-82-7

> <CASRN_ChemName_Relationship>
primary

> <TS_Description>
single chemical compound

> <ChemNote>


> <STRUCTURE_Shown>
tested chemical

> <STRUCTURE_Formula>
C6H12

> <STRUCTURE_MW>
84.1595

> <STRUCTURE_ChemType>
defined organic

> <STRUCTURE_DefinedOrganicForm>
parent

> <STRUCTURE_IUPAC>
cyclohexane

> <STRUCTURE_SMILES>
C1CCCCC1

> <STRUCTURE_SMILES_Desalt>
C1CCCCC1

> <Substance_modify_yyyymmdd>
20080429

$$$$
