110-93-0
ChemmineR-0914142331XD

  9  8  0  0  0  0  0  0  0  0  1 V2000
    0.0000   -1.1546    0.0000 C   0  0  0  0  0  0  0  0  0  0  0  0
    1.3281   -1.1546    0.0000 C   0  0  0  0  0  0  0  0  0  0  0  0
    1.9922   -2.3033    0.0000 C   0  0  0  0  0  0  0  0  0  0  0  0
    1.9922    0.0000    0.0000 C   0  0  0  0  0  0  0  0  0  0  0  0
    3.3263    0.0000    0.0000 C   0  0  0  0  0  0  0  0  0  0  0  0
    3.9904   -1.1546    0.0000 C   0  0  0  0  0  0  0  0  0  0  0  0
    5.3186   -1.1546    0.0000 C   0  0  0  0  0  0  0  0  0  0  0  0
    5.9826    0.0000    0.0000 C   0  0  0  0  0  0  0  0  0  0  0  0
    5.9826   -2.3033    0.0000 O   0  0  0  0  0  0  0  0  0  0  0  0
  1  2  1  0  0  0  0
  2  3  1  0  0  0  0
  2  4  2  0  0  0  0
  4  5  1  0  0  0  0
  5  6  1  0  0  0  0
  6  7  1  0  0  0  0
  7  8  1  0  0  0  0
  7  9  2  0  0  0  0
M  END
> <ID>
1566

> <Formula>
C8H14O

> <FW>
126.1962

> <DSSTox_CID>
1629

> <DSSTox_RID>
76244

> <DSSTox_GSID>
21629

> <DSSTox_FileID_Sort>
928

> <TS_ChemName>
6-Methyl-5-hepten-2-one

> <TS_ChemName_Synonyms>


> <TS_CASRN>
110-93-0

> <CASRN_ChemName_Relationship>
primary

> <TS_Description>
single chemical compound

> <ChemNote>


> <STRUCTURE_Shown>
tested chemical

> <STRUCTURE_Formula>
C8H14O

> <STRUCTURE_MW>
126.1962

> <STRUCTURE_ChemType>
defined organic

> <STRUCTURE_DefinedOrganicForm>
parent

> <STRUCTURE_IUPAC>
6-methylhept-5-en-2-one

> <STRUCTURE_SMILES>
C/C(C)=C\CCC(C)=O

> <STRUCTURE_SMILES_Desalt>
C/C(C)=C\CCC(C)=O

> <Substance_modify_yyyymmdd>
20080429

$$$$
