110871-86-8
ChemmineR-0914142331XD

 28 31  0  0  1  0  0  0  0  0  1 V2000
    6.9092   -3.9843    0.0000 C   0  0  0  0  0  0  0  0  0  0  0  0
    6.9092   -5.3201    0.0000 C   0  0  0  0  0  0  0  0  0  0  0  0
    8.0607   -5.9879    0.0000 C   0  0  0  0  0  0  0  0  0  0  0  0
    9.2122   -5.3201    0.0000 C   0  0  0  0  0  0  0  0  0  0  0  0
    9.2122   -3.9843    0.0000 C   0  0  0  0  0  0  0  0  0  0  0  0
    8.0607   -3.3279    0.0000 N   0  0  0  0  0  0  0  0  0  0  0  0
    8.0607   -1.9921    0.0000 C   0  0  0  0  0  0  0  0  0  0  0  0
    7.3928   -0.8406    0.0000 C   0  0  0  0  0  0  0  0  0  0  0  0
    8.7286   -0.8406    0.0000 C   0  0  0  0  0  0  0  0  0  0  0  0
   10.3637   -5.9879    0.0000 C   0  0  0  0  0  0  0  0  0  0  0  0
   11.5153   -5.3201    0.0000 O   0  0  0  0  0  0  0  0  0  0  0  0
   10.3637   -7.3122    0.0000 O   0  0  0  0  0  0  0  0  0  0  0  0
    8.0607   -7.3122    0.0000 O   0  0  0  0  0  0  0  0  0  0  0  0
    5.7576   -5.9879    0.0000 C   0  0  0  0  0  0  0  0  0  0  0  0
    4.6061   -5.3201    0.0000 C   0  0  0  0  0  0  0  0  0  0  0  0
    4.6061   -3.9843    0.0000 C   0  0  0  0  0  0  0  0  0  0  0  0
    5.7576   -3.3279    0.0000 C   0  0  0  0  0  0  0  0  0  0  0  0
    5.7576   -1.9921    0.0000 F   0  0  0  0  0  0  0  0  0  0  0  0
    3.4546   -3.3279    0.0000 N   0  0  0  0  0  0  0  0  0  0  0  0
    2.3031   -3.9843    0.0000 C   0  0  0  0  0  0  0  0  0  0  0  0
    1.1515   -3.3279    0.0000 C   0  0  0  0  0  0  0  0  0  0  0  0
    1.1515   -1.9921    0.0000 N   0  0  0  0  0  0  0  0  0  0  0  0
    2.3031   -1.3243    0.0000 C   0  0  0  0  0  0  0  0  0  0  0  0
    3.4546   -1.9921    0.0000 C   0  0  0  0  0  0  0  0  0  0  0  0
    2.3031    0.0000    0.0000 C   0  0  0  0  0  0  0  0  0  0  0  0
    0.0000   -3.9843    0.0000 C   0  0  0  0  0  0  0  0  0  0  0  0
    3.4546   -5.9879    0.0000 F   0  0  0  0  0  0  0  0  0  0  0  0
    5.7576   -7.3122    0.0000 N   0  0  0  0  0  0  0  0  0  0  0  0
  1  2  2  0  0  0  0
  1  6  1  0  0  0  0
  1 17  1  0  0  0  0
  2  3  1  0  0  0  0
  2 14  1  0  0  0  0
  3  4  1  0  0  0  0
  3 13  2  0  0  0  0
  4  5  2  0  0  0  0
  4 10  1  0  0  0  0
  5  6  1  0  0  0  0
  6  7  1  0  0  0  0
  7  8  1  0  0  0  0
  7  9  1  0  0  0  0
  8  9  1  0  0  0  0
 10 11  1  0  0  0  0
 10 12  2  0  0  0  0
 14 15  2  0  0  0  0
 14 28  1  0  0  0  0
 15 16  1  0  0  0  0
 15 27  1  0  0  0  0
 16 17  2  0  0  0  0
 16 19  1  0  0  0  0
 17 18  1  0  0  0  0
 19 20  1  0  0  0  0
 19 24  1  0  0  0  0
 20 21  1  0  0  0  0
 21 22  1  0  0  0  0
 21 26  1  6  0  0  0
 22 23  1  0  0  0  0
 23 24  1  0  0  0  0
 23 25  1  6  0  0  0
M  END
> <ID>
3210

> <Formula>
C19H22F2N4O3

> <FW>
392.3998

> <DSSTox_CID>
3590

> <DSSTox_RID>
77097

> <DSSTox_GSID>
23590

> <DSSTox_FileID_Sort>
1780

> <TS_ChemName>
Sparfloxacin

> <TS_ChemName_Synonyms>


> <TS_CASRN>
110871-86-8

> <CASRN_ChemName_Relationship>
primary

> <TS_Description>
single chemical compound

> <ChemNote>
stereochem; mixture of (3S,5S) and(3R,5R) [111542-93-9]; structure shown (3S,5S)

> <STRUCTURE_Shown>
tested chemical

> <STRUCTURE_Formula>
C19H22F2N4O3

> <STRUCTURE_MW>
392.3998

> <STRUCTURE_ChemType>
defined organic

> <STRUCTURE_DefinedOrganicForm>
parent

> <STRUCTURE_IUPAC>
5-amino-1-cyclopropyl-7-[(3R,5S)-3,5-dimethylpiperazin-1-yl]-6,8-difluoro-4-oxo-1,4-dihydroquinoline-3-carboxylic acid

> <STRUCTURE_SMILES>
C[C@@H]1CN(C[C@H](C)N1)c2c(F)c(N)c3c(c2F)N(C=C(C3=O)C(=O)O)C4CC4

> <STRUCTURE_SMILES_Desalt>
C[C@@H]1CN(C[C@H](C)N1)c2c(F)c(N)c3c(c2F)N(C=C(C3=O)C(=O)O)C4CC4

> <Substance_modify_yyyymmdd>
20080429

$$$$
