111-83-1
ChemmineR-0914142331XD

  9  8  0  0  0  0  0  0  0  0  1 V2000
    0.0000   -0.6638    0.0000 Br   0  0  0  0  0  0  0  0  0  0  0  0
    1.1525    0.0000    0.0000 C    0  0  0  0  0  0  0  0  0  0  0  0
    2.3050   -0.6638    0.0000 C    0  0  0  0  0  0  0  0  0  0  0  0
    3.4575    0.0000    0.0000 C    0  0  0  0  0  0  0  0  0  0  0  0
    4.6099   -0.6638    0.0000 C    0  0  0  0  0  0  0  0  0  0  0  0
    5.7624    0.0000    0.0000 C    0  0  0  0  0  0  0  0  0  0  0  0
    6.9149   -0.6638    0.0000 C    0  0  0  0  0  0  0  0  0  0  0  0
    8.0674    0.0000    0.0000 C    0  0  0  0  0  0  0  0  0  0  0  0
    9.2199   -0.6638    0.0000 C    0  0  0  0  0  0  0  0  0  0  0  0
  1  2  1  0  0  0  0
  2  3  1  0  0  0  0
  3  4  1  0  0  0  0
  4  5  1  0  0  0  0
  5  6  1  0  0  0  0
  6  7  1  0  0  0  0
  7  8  1  0  0  0  0
  8  9  1  0  0  0  0
M  END
> <ID>
1807

> <Formula>
C8H17Br

> <FW>
193.1246

> <DSSTox_CID>
1938

> <DSSTox_RID>
76414

> <DSSTox_GSID>
21938

> <DSSTox_FileID_Sort>
1098

> <TS_ChemName>
1-Bromooctane

> <TS_ChemName_Synonyms>


> <TS_CASRN>
111-83-1

> <CASRN_ChemName_Relationship>
primary

> <TS_Description>
single chemical compound

> <ChemNote>


> <STRUCTURE_Shown>
tested chemical

> <STRUCTURE_Formula>
C8H17Br

> <STRUCTURE_MW>
193.1246

> <STRUCTURE_ChemType>
defined organic

> <STRUCTURE_DefinedOrganicForm>
parent

> <STRUCTURE_IUPAC>
1-bromooctane

> <STRUCTURE_SMILES>
BrCCCCCCCC

> <STRUCTURE_SMILES_Desalt>
BrCCCCCCCC

> <Substance_modify_yyyymmdd>
20080429

$$$$
