111-46-6
ChemmineR-0914142331XD

  7  6  0  0  0  0  0  0  0  0  1 V2000
    0.0000   -0.6638    0.0000 O   0  0  0  0  0  0  0  0  0  0  0  0
    1.1548    0.0000    0.0000 C   0  0  0  0  0  0  0  0  0  0  0  0
    2.3027   -0.6638    0.0000 C   0  0  0  0  0  0  0  0  0  0  0  0
    3.4575    0.0000    0.0000 O   0  0  0  0  0  0  0  0  0  0  0  0
    4.6122   -0.6638    0.0000 C   0  0  0  0  0  0  0  0  0  0  0  0
    5.7601    0.0000    0.0000 C   0  0  0  0  0  0  0  0  0  0  0  0
    6.9149   -0.6638    0.0000 O   0  0  0  0  0  0  0  0  0  0  0  0
  1  2  1  0  0  0  0
  2  3  1  0  0  0  0
  3  4  1  0  0  0  0
  4  5  1  0  0  0  0
  5  6  1  0  0  0  0
  6  7  1  0  0  0  0
M  END
> <ID>
446

> <Formula>
C4H10O3

> <FW>
106.1204

> <DSSTox_CID>
462

> <DSSTox_RID>
75605

> <DSSTox_GSID>
20462

> <DSSTox_FileID_Sort>
289

> <TS_ChemName>
Diethylene glycol

> <TS_ChemName_Synonyms>
Diethylene glycol (Ethanol, 2,2'-oxybis-) (2-Hydroxyethyl ether)

> <TS_CASRN>
111-46-6

> <CASRN_ChemName_Relationship>
primary

> <TS_Description>
single chemical compound

> <ChemNote>


> <STRUCTURE_Shown>
tested chemical

> <STRUCTURE_Formula>
C4H10O3

> <STRUCTURE_MW>
106.1204

> <STRUCTURE_ChemType>
defined organic

> <STRUCTURE_DefinedOrganicForm>
parent

> <STRUCTURE_IUPAC>
2,2'-oxydiethanol

> <STRUCTURE_SMILES>
OCCOCCO

> <STRUCTURE_SMILES_Desalt>
OCCOCCO

> <Substance_modify_yyyymmdd>
20080429

$$$$
