1114-71-2
ChemmineR-0914142331XD

 13 12  0  0  0  0  0  0  0  0  1 V2000
    3.9887   -4.6108    0.0000 O   0  0  0  0  0  0  0  0  0  0  0  0
    2.6614   -4.6108    0.0000 C   0  0  0  0  0  0  0  0  0  0  0  0
    1.9978   -5.7583    0.0000 N   0  0  0  0  0  0  0  0  0  0  0  0
    2.6614   -6.9127    0.0000 C   0  0  0  0  0  0  0  0  0  0  0  0
    3.9887   -6.9127    0.0000 C   0  0  0  0  0  0  0  0  0  0  0  0
    4.6592   -5.7583    0.0000 C   0  0  0  0  0  0  0  0  0  0  0  0
    5.9864   -5.7583    0.0000 C   0  0  0  0  0  0  0  0  0  0  0  0
    0.6636   -5.7583    0.0000 C   0  0  0  0  0  0  0  0  0  0  0  0
    0.0000   -6.9127    0.0000 C   0  0  0  0  0  0  0  0  0  0  0  0
    1.9978   -3.4564    0.0000 S   0  0  0  0  0  0  0  0  0  0  0  0
    2.6614   -2.3019    0.0000 C   0  0  0  0  0  0  0  0  0  0  0  0
    1.9978   -1.1544    0.0000 C   0  0  0  0  0  0  0  0  0  0  0  0
    2.6614    0.0000    0.0000 C   0  0  0  0  0  0  0  0  0  0  0  0
  1  2  2  0  0  0  0
  2  3  1  0  0  0  0
  2 10  1  0  0  0  0
  3  4  1  0  0  0  0
  3  8  1  0  0  0  0
  4  5  1  0  0  0  0
  5  6  1  0  0  0  0
  6  7  1  0  0  0  0
  8  9  1  0  0  0  0
 10 11  1  0  0  0  0
 11 12  1  0  0  0  0
 12 13  1  0  0  0  0
M  END
> <ID>
1153

> <Formula>
C10H21NOS

> <FW>
203.3448

> <DSSTox_CID>
1199

> <DSSTox_RID>
76008

> <DSSTox_GSID>
21199

> <DSSTox_FileID_Sort>
692

> <TS_ChemName>
Pebulate

> <TS_ChemName_Synonyms>
Pebulate (Propyl N-ethyl-N-butylthiocarbamate)

> <TS_CASRN>
1114-71-2

> <CASRN_ChemName_Relationship>
primary

> <TS_Description>
single chemical compound

> <ChemNote>


> <STRUCTURE_Shown>
tested chemical

> <STRUCTURE_Formula>
C10H21NOS

> <STRUCTURE_MW>
203.3448

> <STRUCTURE_ChemType>
defined organic

> <STRUCTURE_DefinedOrganicForm>
parent

> <STRUCTURE_IUPAC>
S-propyl butyl(ethyl)carbamothioate

> <STRUCTURE_SMILES>
O=C(SCCC)N(CCCC)CC

> <STRUCTURE_SMILES_Desalt>
O=C(SCCC)N(CCCC)CC

> <Substance_modify_yyyymmdd>
20080429

$$$$
