1116-54-7
ChemmineR-0914142331XD

  9  8  0  0  0  0  0  0  0  0  1 V2000
    0.0000   -1.9861    0.0000 O   0  0  0  0  0  0  0  0  0  0  0  0
    1.1571   -2.6597    0.0000 N   0  0  0  0  0  0  0  0  0  0  0  0
    2.3085   -1.9861    0.0000 N   0  0  0  0  0  0  0  0  0  0  0  0
    3.4656   -2.6597    0.0000 C   0  0  0  0  0  0  0  0  0  0  0  0
    2.3085   -0.6563    0.0000 C   0  0  0  0  0  0  0  0  0  0  0  0
    3.4656    0.0000    0.0000 C   0  0  0  0  0  0  0  0  0  0  0  0
    4.5997   -0.6563    0.0000 O   0  0  0  0  0  0  0  0  0  0  0  0
    4.5997   -1.9861    0.0000 C   0  0  0  0  0  0  0  0  0  0  0  0
    5.7568   -2.6597    0.0000 O   0  0  0  0  0  0  0  0  0  0  0  0
  1  2  2  0  0  0  0
  2  3  1  0  0  0  0
  3  4  1  0  0  0  0
  3  5  1  0  0  0  0
  4  8  1  0  0  0  0
  5  6  1  0  0  0  0
  6  7  1  0  0  0  0
  8  9  1  0  0  0  0
M  END
> <ID>
991

> <Formula>
C4H10N2O3

> <FW>
134.1338

> <DSSTox_CID>
1027

> <DSSTox_RID>
75912

> <DSSTox_GSID>
21027

> <DSSTox_FileID_Sort>
596

> <TS_ChemName>
N-Nitrosodiethanolamine

> <TS_ChemName_Synonyms>


> <TS_CASRN>
1116-54-7

> <CASRN_ChemName_Relationship>
primary

> <TS_Description>
single chemical compound

> <ChemNote>


> <STRUCTURE_Shown>
tested chemical

> <STRUCTURE_Formula>
C4H10N2O3

> <STRUCTURE_MW>
134.1338

> <STRUCTURE_ChemType>
defined organic

> <STRUCTURE_DefinedOrganicForm>
parent

> <STRUCTURE_IUPAC>
2,2'-(nitrosoimino)diethanol

> <STRUCTURE_SMILES>
OCCN(N=O)CCO

> <STRUCTURE_SMILES_Desalt>
OCCN(N=O)CCO

> <Substance_modify_yyyymmdd>
20080429

$$$$
