112-37-8
ChemmineR-0914142331XD

 13 12  0  0  0  0  0  0  0  0  1 V2000
    9.2079    0.0000    0.0000 O   0  0  0  0  0  0  0  0  0  0  0  0
   10.3589   -0.6676    0.0000 C   0  0  0  0  0  0  0  0  0  0  0  0
   11.5099    0.0000    0.0000 O   0  0  0  0  0  0  0  0  0  0  0  0
   10.3589   -1.9912    0.0000 C   0  0  0  0  0  0  0  0  0  0  0  0
    9.2079   -2.6588    0.0000 C   0  0  0  0  0  0  0  0  0  0  0  0
    8.0569   -1.9912    0.0000 C   0  0  0  0  0  0  0  0  0  0  0  0
    6.9059   -2.6588    0.0000 C   0  0  0  0  0  0  0  0  0  0  0  0
    5.7550   -1.9912    0.0000 C   0  0  0  0  0  0  0  0  0  0  0  0
    4.6040   -2.6588    0.0000 C   0  0  0  0  0  0  0  0  0  0  0  0
    3.4530   -1.9912    0.0000 C   0  0  0  0  0  0  0  0  0  0  0  0
    2.3020   -2.6588    0.0000 C   0  0  0  0  0  0  0  0  0  0  0  0
    1.1510   -1.9912    0.0000 C   0  0  0  0  0  0  0  0  0  0  0  0
    0.0000   -2.6588    0.0000 C   0  0  0  0  0  0  0  0  0  0  0  0
  1  2  2  0  0  0  0
  2  3  1  0  0  0  0
  2  4  1  0  0  0  0
  4  5  1  0  0  0  0
  5  6  1  0  0  0  0
  6  7  1  0  0  0  0
  7  8  1  0  0  0  0
  8  9  1  0  0  0  0
  9 10  1  0  0  0  0
 10 11  1  0  0  0  0
 11 12  1  0  0  0  0
 12 13  1  0  0  0  0
M  END
> <ID>
1627

> <Formula>
C11H22O2

> <FW>
186.2912

> <DSSTox_CID>
1690

> <DSSTox_RID>
76286

> <DSSTox_GSID>
21690

> <DSSTox_FileID_Sort>
970

> <TS_ChemName>
Undecanoic acid

> <TS_ChemName_Synonyms>


> <TS_CASRN>
112-37-8

> <CASRN_ChemName_Relationship>
primary

> <TS_Description>
single chemical compound

> <ChemNote>


> <STRUCTURE_Shown>
tested chemical

> <STRUCTURE_Formula>
C11H22O2

> <STRUCTURE_MW>
186.2912

> <STRUCTURE_ChemType>
defined organic

> <STRUCTURE_DefinedOrganicForm>
parent

> <STRUCTURE_IUPAC>
undecanoic acid

> <STRUCTURE_SMILES>
O=C(O)CCCCCCCCCC

> <STRUCTURE_SMILES_Desalt>
O=C(O)CCCCCCCCCC

> <Substance_modify_yyyymmdd>
20080429

$$$$
