112-12-9
ChemmineR-0914142331XD

 12 11  0  0  0  0  0  0  0  0  1 V2000
    0.0000   -1.9913    0.0000 C   0  0  0  0  0  0  0  0  0  0  0  0
    1.1510   -1.3237    0.0000 C   0  0  0  0  0  0  0  0  0  0  0  0
    2.3021   -1.9913    0.0000 C   0  0  0  0  0  0  0  0  0  0  0  0
    3.4531   -1.3237    0.0000 C   0  0  0  0  0  0  0  0  0  0  0  0
    4.6041   -1.9913    0.0000 C   0  0  0  0  0  0  0  0  0  0  0  0
    5.7552   -1.3237    0.0000 C   0  0  0  0  0  0  0  0  0  0  0  0
    6.9062   -1.9913    0.0000 C   0  0  0  0  0  0  0  0  0  0  0  0
    8.0573   -1.3237    0.0000 C   0  0  0  0  0  0  0  0  0  0  0  0
    9.2083   -1.9913    0.0000 C   0  0  0  0  0  0  0  0  0  0  0  0
   10.3593   -1.3237    0.0000 C   0  0  0  0  0  0  0  0  0  0  0  0
   10.3593    0.0000    0.0000 O   0  0  0  0  0  0  0  0  0  0  0  0
   11.5104   -1.9913    0.0000 C   0  0  0  0  0  0  0  0  0  0  0  0
  1  2  1  0  0  0  0
  2  3  1  0  0  0  0
  3  4  1  0  0  0  0
  4  5  1  0  0  0  0
  5  6  1  0  0  0  0
  6  7  1  0  0  0  0
  7  8  1  0  0  0  0
  8  9  1  0  0  0  0
  9 10  1  0  0  0  0
 10 11  2  0  0  0  0
 10 12  1  0  0  0  0
M  END
> <ID>
1811

> <Formula>
C11H22O

> <FW>
170.2918

> <DSSTox_CID>
1943

> <DSSTox_RID>
76418

> <DSSTox_GSID>
21943

> <DSSTox_FileID_Sort>
1102

> <TS_ChemName>
2-Undecanone

> <TS_ChemName_Synonyms>
2-Undecanone (Methyl nonyl ketone)

> <TS_CASRN>
112-12-9

> <CASRN_ChemName_Relationship>
primary

> <TS_Description>
single chemical compound

> <ChemNote>


> <STRUCTURE_Shown>
tested chemical

> <STRUCTURE_Formula>
C11H22O

> <STRUCTURE_MW>
170.2918

> <STRUCTURE_ChemType>
defined organic

> <STRUCTURE_DefinedOrganicForm>
parent

> <STRUCTURE_IUPAC>
undecan-2-one

> <STRUCTURE_SMILES>
CC(=O)CCCCCCCCC

> <STRUCTURE_SMILES_Desalt>
CC(=O)CCCCCCCCC

> <Substance_modify_yyyymmdd>
20080429

$$$$
