112-30-1
ChemmineR-0914142331XD

 11 10  0  0  0  0  0  0  0  0  1 V2000
    0.0000   -0.6673    0.0000 C   0  0  0  0  0  0  0  0  0  0  0  0
    1.1505    0.0000    0.0000 C   0  0  0  0  0  0  0  0  0  0  0  0
    2.3010   -0.6673    0.0000 C   0  0  0  0  0  0  0  0  0  0  0  0
    3.4515    0.0000    0.0000 C   0  0  0  0  0  0  0  0  0  0  0  0
    4.6020   -0.6673    0.0000 C   0  0  0  0  0  0  0  0  0  0  0  0
    5.7525    0.0000    0.0000 C   0  0  0  0  0  0  0  0  0  0  0  0
    6.9029   -0.6673    0.0000 C   0  0  0  0  0  0  0  0  0  0  0  0
    8.0534    0.0000    0.0000 C   0  0  0  0  0  0  0  0  0  0  0  0
    9.2039   -0.6673    0.0000 C   0  0  0  0  0  0  0  0  0  0  0  0
   10.3544    0.0000    0.0000 C   0  0  0  0  0  0  0  0  0  0  0  0
   11.5049   -0.6673    0.0000 O   0  0  0  0  0  0  0  0  0  0  0  0
  1  2  1  0  0  0  0
  2  3  1  0  0  0  0
  3  4  1  0  0  0  0
  4  5  1  0  0  0  0
  5  6  1  0  0  0  0
  6  7  1  0  0  0  0
  7  8  1  0  0  0  0
  8  9  1  0  0  0  0
  9 10  1  0  0  0  0
 10 11  1  0  0  0  0
M  END
> <ID>
1813

> <Formula>
C10H22O

> <FW>
158.2811

> <DSSTox_CID>
1946

> <DSSTox_RID>
76419

> <DSSTox_GSID>
21946

> <DSSTox_FileID_Sort>
1103

> <TS_ChemName>
1-Decanol

> <TS_ChemName_Synonyms>
Decanol

> <TS_CASRN>
112-30-1

> <CASRN_ChemName_Relationship>
primary

> <TS_Description>
single chemical compound

> <ChemNote>


> <STRUCTURE_Shown>
tested chemical

> <STRUCTURE_Formula>
C10H22O

> <STRUCTURE_MW>
158.2811

> <STRUCTURE_ChemType>
defined organic

> <STRUCTURE_DefinedOrganicForm>
parent

> <STRUCTURE_IUPAC>
decan-1-ol

> <STRUCTURE_SMILES>
CCCCCCCCCCO

> <STRUCTURE_SMILES_Desalt>
CCCCCCCCCCO

> <Substance_modify_yyyymmdd>
20080429

$$$$
