114798-26-4
ChemmineR-0914142331XD

 30 33  0  0  0  0  0  0  0  0  1 V2000
    8.0623   -3.9920    0.0000 N    0  0  0  0  0  0  0  0  0  0  0  0
    6.9143   -4.6574    0.0000 C    0  0  0  0  0  0  0  0  0  0  0  0
    5.7663   -3.9920    0.0000 C    0  0  0  0  0  0  0  0  0  0  0  0
    4.6052   -4.6574    0.0000 C    0  0  0  0  0  0  0  0  0  0  0  0
    3.4572   -3.9920    0.0000 C    0  0  0  0  0  0  0  0  0  0  0  0
    3.4572   -2.6614    0.0000 C    0  0  0  0  0  0  0  0  0  0  0  0
    2.3091   -1.9960    0.0000 C    0  0  0  0  0  0  0  0  0  0  0  0
    1.1480   -2.6614    0.0000 C    0  0  0  0  0  0  0  0  0  0  0  0
    1.1480   -3.9920    0.0000 C    0  0  0  0  0  0  0  0  0  0  0  0
    2.2308   -4.7748    0.0000 N    0  0  0  0  0  0  0  0  0  0  0  0
    1.8134   -6.0402    0.0000 N    0  0  0  0  0  0  0  0  0  0  0  0
    0.4827   -6.0402    0.0000 N    0  0  0  0  0  0  0  0  0  0  0  0
    0.0783   -4.7748    0.0000 N    0  0  0  0  0  0  0  0  0  0  0  0
    0.0000   -1.9960    0.0000 C    0  0  0  0  0  0  0  0  0  0  0  0
    0.0000   -0.6653    0.0000 C    0  0  0  0  0  0  0  0  0  0  0  0
    1.1480    0.0000    0.0000 C    0  0  0  0  0  0  0  0  0  0  0  0
    2.3091   -0.6653    0.0000 C    0  0  0  0  0  0  0  0  0  0  0  0
    4.6052   -1.9960    0.0000 C    0  0  0  0  0  0  0  0  0  0  0  0
    5.7663   -2.6614    0.0000 C    0  0  0  0  0  0  0  0  0  0  0  0
    8.2058   -2.6744    0.0000 C    0  0  0  0  0  0  0  0  0  0  0  0
    7.2144   -1.7873    0.0000 C    0  0  0  0  0  0  0  0  0  0  0  0
    7.4883   -0.4827    0.0000 O    0  0  0  0  0  0  0  0  0  0  0  0
    9.4974   -2.4004    0.0000 C    0  0  0  0  0  0  0  0  0  0  0  0
   10.0453   -1.1872    0.0000 Cl   0  0  0  0  0  0  0  0  0  0  0  0
   10.1627   -3.5485    0.0000 N    0  0  0  0  0  0  0  0  0  0  0  0
    9.2756   -4.5400    0.0000 C    0  0  0  0  0  0  0  0  0  0  0  0
    9.5496   -5.8315    0.0000 C    0  0  0  0  0  0  0  0  0  0  0  0
   10.8150   -6.2490    0.0000 C    0  0  0  0  0  0  0  0  0  0  0  0
   11.7674   -5.3097    0.0000 C    0  0  0  0  0  0  0  0  0  0  0  0
   13.0459   -5.6489    0.0000 C    0  0  0  0  0  0  0  0  0  0  0  0
  1  2  1  0  0  0  0
  1 20  1  0  0  0  0
  1 26  1  0  0  0  0
  2  3  1  0  0  0  0
  3  4  1  0  0  0  0
  3 19  2  0  0  0  0
  4  5  2  0  0  0  0
  5  6  1  0  0  0  0
  6  7  1  0  0  0  0
  6 18  2  0  0  0  0
  7  8  1  0  0  0  0
  7 17  2  0  0  0  0
  8  9  1  0  0  0  0
  8 14  2  0  0  0  0
  9 10  1  0  0  0  0
  9 13  2  0  0  0  0
 10 11  1  0  0  0  0
 11 12  2  0  0  0  0
 12 13  1  0  0  0  0
 14 15  1  0  0  0  0
 15 16  2  0  0  0  0
 16 17  1  0  0  0  0
 18 19  1  0  0  0  0
 20 21  1  0  0  0  0
 20 23  2  0  0  0  0
 21 22  1  0  0  0  0
 23 24  1  0  0  0  0
 23 25  1  0  0  0  0
 25 26  2  0  0  0  0
 26 27  1  0  0  0  0
 27 28  1  0  0  0  0
 28 29  1  0  0  0  0
 29 30  1  0  0  0  0
M  END
> <ID>
2903

> <Formula>
C22H23ClN6O

> <FW>
422.9106

> <DSSTox_CID>
3227

> <DSSTox_RID>
76933

> <DSSTox_GSID>
23227

> <DSSTox_FileID_Sort>
1617

> <TS_ChemName>
Losartan

> <TS_ChemName_Synonyms>


> <TS_CASRN>
114798-26-4

> <CASRN_ChemName_Relationship>
primary

> <TS_Description>
single chemical compound

> <ChemNote>


> <STRUCTURE_Shown>
tested chemical

> <STRUCTURE_Formula>
C22H23ClN6O

> <STRUCTURE_MW>
422.9106

> <STRUCTURE_ChemType>
defined organic

> <STRUCTURE_DefinedOrganicForm>
parent

> <STRUCTURE_IUPAC>
(2-butyl-4-chloro-1-{[2'-(1H-tetrazol-5-yl)biphenyl-4-yl]methyl}-1H-imidazol-5-yl)methanol

> <STRUCTURE_SMILES>
OCc4c(Cl)nc(CCCC)n4Cc1ccc(cc1)c2ccccc2c3nnnn3

> <STRUCTURE_SMILES_Desalt>
OCc4c(Cl)nc(CCCC)n4Cc1ccc(cc1)c2ccccc2c3nnnn3

> <Substance_modify_yyyymmdd>
20080429

$$$$
