115-09-3
ChemmineR-0914142331XD

  3  2  0  0  0  0  0  0  0  0  1 V2000
    2.3030   -0.6656    0.0000 C    0  0  0  0  0  0  0  0  0  0  0  0
    1.1515    0.0000    0.0000 Hg   0  0  0  0  0  0  0  0  0  0  0  0
    0.0000   -0.6656    0.0000 Cl   0  0  0  0  0  0  0  0  0  0  0  0
  1  2  1  0  0  0  0
  2  3  1  0  0  0  0
M  END
> <ID>
779

> <Formula>
CH3ClHg

> <FW>
251.0775

> <DSSTox_CID>
813

> <DSSTox_RID>
75803

> <DSSTox_GSID>
20813

> <DSSTox_FileID_Sort>
487

> <TS_ChemName>
Methylmercuric(II) chloride

> <TS_ChemName_Synonyms>
Methyl mercuric(II) chloride (Methyl mercuric chloride) (MeHg)

> <TS_CASRN>
115-09-3

> <CASRN_ChemName_Relationship>
primary

> <TS_Description>
single chemical compound

> <ChemNote>


> <STRUCTURE_Shown>
tested chemical

> <STRUCTURE_Formula>
CH3ClHg

> <STRUCTURE_MW>
251.0775

> <STRUCTURE_ChemType>
organometallic

> <STRUCTURE_DefinedOrganicForm>


> <STRUCTURE_IUPAC>
chloro(methyl)mercury

> <STRUCTURE_SMILES>
C[Hg]Cl

> <STRUCTURE_SMILES_Desalt>
C[Hg]Cl

> <Substance_modify_yyyymmdd>
20080429

$$$$
