115-28-6
ChemmineR-0914142331XD

 19 20  0  0  0  0  0  0  0  0  1 V2000
    4.6573   -2.7436    0.0000 C    0  0  0  0  0  0  0  0  0  0  0  0
    4.6573   -3.9541    0.0000 C    0  0  0  0  0  0  0  0  0  0  0  0
    3.3719   -2.0001    0.0000 C    0  0  0  0  0  0  0  0  0  0  0  0
    3.3719   -3.4007    0.0000 C    0  0  0  0  0  0  0  0  0  0  0  0
    2.1038   -2.7436    0.0000 C    0  0  0  0  0  0  0  0  0  0  0  0
    2.1038   -3.9541    0.0000 C    0  0  0  0  0  0  0  0  0  0  0  0
    2.9339   -0.7608    0.0000 C    0  0  0  0  0  0  0  0  0  0  0  0
    1.0490   -4.5535    0.0000 C    0  0  0  0  0  0  0  0  0  0  0  0
    1.0490   -2.1327    0.0000 C    0  0  0  0  0  0  0  0  0  0  0  0
    1.0490   -5.7640    0.0000 O    0  0  0  0  0  0  0  0  0  0  0  0
    0.0000   -3.9541    0.0000 O    0  0  0  0  0  0  0  0  0  0  0  0
    1.0490   -0.9165    0.0000 O    0  0  0  0  0  0  0  0  0  0  0  0
    0.0000   -2.7436    0.0000 O    0  0  0  0  0  0  0  0  0  0  0  0
    5.7063   -4.5651    0.0000 Cl   0  0  0  0  0  0  0  0  0  0  0  0
    5.7063   -2.1327    0.0000 Cl   0  0  0  0  0  0  0  0  0  0  0  0
    3.8388    0.0000    0.0000 Cl   0  0  0  0  0  0  0  0  0  0  0  0
    1.8214   -0.3343    0.0000 Cl   0  0  0  0  0  0  0  0  0  0  0  0
    3.0376   -4.6573    0.0000 Cl   0  0  0  0  0  0  0  0  0  0  0  0
    4.0578   -1.1816    0.0000 Cl   0  0  0  0  0  0  0  0  0  0  0  0
  1  2  2  0  0  0  0
  1  3  1  0  0  0  0
  1 15  1  0  0  0  0
  2  4  1  0  0  0  0
  2 14  1  0  0  0  0
  3  5  1  0  0  0  0
  3  7  1  0  0  0  0
  3 19  1  0  0  0  0
  4  6  1  0  0  0  0
  4  7  1  0  0  0  0
  4 18  1  0  0  0  0
  5  6  1  0  0  0  0
  5  9  1  0  0  0  0
  6  8  1  0  0  0  0
  7 16  1  0  0  0  0
  7 17  1  0  0  0  0
  8 10  2  0  0  0  0
  8 11  1  0  0  0  0
  9 12  2  0  0  0  0
  9 13  1  0  0  0  0
M  END
> <ID>
260

> <Formula>
C9H4Cl6O4

> <FW>
388.8437

> <DSSTox_CID>
268

> <DSSTox_RID>
75476

> <DSSTox_GSID>
20268

> <DSSTox_FileID_Sort>
160

> <TS_ChemName>
Chlorendic acid

> <TS_ChemName_Synonyms>
Chlorendic acid (Bicyclo[2.2.1]hept-5-ene-2,3-dicarboxylic acid, 1,4,5,6,7,7-hexachloro-)

> <TS_CASRN>
115-28-6

> <CASRN_ChemName_Relationship>
primary

> <TS_Description>
single chemical compound

> <ChemNote>


> <STRUCTURE_Shown>
tested chemical

> <STRUCTURE_Formula>
C9H4Cl6O4

> <STRUCTURE_MW>
388.8437

> <STRUCTURE_ChemType>
defined organic

> <STRUCTURE_DefinedOrganicForm>
parent

> <STRUCTURE_IUPAC>
1,4,5,6,7,7-hexachlorobicyclo[2.2.1]hept-5-ene-2,3-dicarboxylic acid

> <STRUCTURE_SMILES>
ClC2(Cl)C1(Cl)C(Cl)=C(Cl)C2(Cl)C(C1C(=O)O)C(=O)O

> <STRUCTURE_SMILES_Desalt>
ClC2(Cl)C1(Cl)C(Cl)=C(Cl)C2(Cl)C(C1C(=O)O)C(=O)O

> <Substance_modify_yyyymmdd>
20080815

$$$$
