115-79-7
ChemmineR-0914142331XD

 38 37  0  0  0  0  0  0  0  0  2 V2000
   10.0141   -2.5600    0.0000 C    0  0  0  0  0  0  0  0  0  0  0  0
    8.7717   -2.5600    0.0000 C    0  0  0  0  0  0  0  0  0  0  0  0
    2.3717   -1.9953    0.0000 C    0  0  0  0  0  0  0  0  0  0  0  0
   16.4517   -3.1623    0.0000 C    0  0  0  0  0  0  0  0  0  0  0  0
    4.8564   -2.6353    0.0000 N    0  3  0  0  0  0  0  0  0  0  0  0
   13.9670   -2.5600    0.0000 N    0  3  0  0  0  0  0  0  0  0  0  0
   15.2658   -2.5600    0.0000 C    0  0  0  0  0  0  0  0  0  0  0  0
    3.5388   -2.6353    0.0000 C    0  0  0  0  0  0  0  0  0  0  0  0
   17.6752   -2.5035    0.0000 C    0  0  0  0  0  0  0  0  0  0  0  0
    1.1482   -2.6353    0.0000 C    0  0  0  0  0  0  0  0  0  0  0  0
   10.7858   -1.3365    0.0000 O    0  0  0  0  0  0  0  0  0  0  0  0
    8.0188   -3.8023    0.0000 O    0  0  0  0  0  0  0  0  0  0  0  0
   10.5976   -3.6141    0.0000 N    0  0  0  0  0  0  0  0  0  0  0  0
    8.1694   -1.5247    0.0000 N    0  0  0  0  0  0  0  0  0  0  0  0
    1.1482   -3.9717    0.0000 Cl   0  0  0  0  0  0  0  0  0  0  0  0
   17.6752   -1.1671    0.0000 Cl   0  0  0  0  0  0  0  0  0  0  0  0
    6.8894   -1.5247    0.0000 C    0  0  0  0  0  0  0  0  0  0  0  0
   11.8964   -3.6141    0.0000 C    0  0  0  0  0  0  0  0  0  0  0  0
   12.5740   -2.5600    0.0000 C    0  0  0  0  0  0  0  0  0  0  0  0
    6.2305   -2.6353    0.0000 C    0  0  0  0  0  0  0  0  0  0  0  0
   16.4517   -4.4800    0.0000 C    0  0  0  0  0  0  0  0  0  0  0  0
    2.3717   -0.6588    0.0000 C    0  0  0  0  0  0  0  0  0  0  0  0
    4.8564   -1.2235    0.0000 C    0  0  0  0  0  0  0  0  0  0  0  0
   13.9670   -3.9153    0.0000 C    0  0  0  0  0  0  0  0  0  0  0  0
   13.9670   -1.2612    0.0000 C    0  0  0  0  0  0  0  0  0  0  0  0
    4.8564   -3.9153    0.0000 C    0  0  0  0  0  0  0  0  0  0  0  0
    0.0000   -2.0329    0.0000 C    0  0  0  0  0  0  0  0  0  0  0  0
   18.8234   -3.1435    0.0000 C    0  0  0  0  0  0  0  0  0  0  0  0
    3.7082   -0.5647    0.0000 C    0  0  0  0  0  0  0  0  0  0  0  0
   12.7811   -0.5647    0.0000 C    0  0  0  0  0  0  0  0  0  0  0  0
    6.0423   -4.5553    0.0000 C    0  0  0  0  0  0  0  0  0  0  0  0
   15.1152   -4.5553    0.0000 C    0  0  0  0  0  0  0  0  0  0  0  0
   17.6752   -5.1200    0.0000 C    0  0  0  0  0  0  0  0  0  0  0  0
    1.1482    0.0000    0.0000 C    0  0  0  0  0  0  0  0  0  0  0  0
    0.0000   -0.7153    0.0000 C    0  0  0  0  0  0  0  0  0  0  0  0
   18.8234   -4.4611    0.0000 C    0  0  0  0  0  0  0  0  0  0  0  0
    3.2753   -4.4235    0.0000 Cl   0  5  0  0  0  0  0  0  0  0  0  0
   15.3411   -0.7529    0.0000 Cl   0  5  0  0  0  0  0  0  0  0  0  0
  1  2  1  0  0  0  0
  1 11  2  0  0  0  0
  1 13  1  0  0  0  0
  2 12  2  0  0  0  0
  2 14  1  0  0  0  0
  3  8  1  0  0  0  0
  3 10  2  0  0  0  0
  3 22  1  0  0  0  0
  4  7  1  0  0  0  0
  4  9  2  0  0  0  0
  4 21  1  0  0  0  0
  5 20  1  0  0  0  0
  5  8  1  0  0  0  0
  5 23  1  0  0  0  0
  5 26  1  0  0  0  0
  6 19  1  0  0  0  0
  6  7  1  0  0  0  0
  6 24  1  0  0  0  0
  6 25  1  0  0  0  0
  9 16  1  0  0  0  0
  9 28  1  0  0  0  0
 10 15  1  0  0  0  0
 10 27  1  0  0  0  0
 13 18  1  0  0  0  0
 14 17  1  0  0  0  0
 17 20  1  0  0  0  0
 18 19  1  0  0  0  0
 21 33  2  0  0  0  0
 22 34  2  0  0  0  0
 23 29  1  0  0  0  0
 24 32  1  0  0  0  0
 25 30  1  0  0  0  0
 26 31  1  0  0  0  0
 27 35  2  0  0  0  0
 28 36  2  0  0  0  0
 33 36  1  0  0  0  0
 34 35  1  0  0  0  0
M  END
> <ID>
2339

> <Formula>
C28H42Cl4N4O2

> <FW>
608.4707 (537.5636+35.4535+35.4535)

> <DSSTox_CID>
2582

> <DSSTox_RID>
76642

> <DSSTox_GSID>
22582

> <DSSTox_FileID_Sort>
1326

> <TS_ChemName>
Ambenonium chloride

> <TS_ChemName_Synonyms>


> <TS_CASRN>
115-79-7

> <CASRN_ChemName_Relationship>
primary

> <TS_Description>
single chemical compound

> <ChemNote>
ammonium

> <STRUCTURE_Shown>
tested chemical

> <STRUCTURE_Formula>
C28H42Cl4N4O2

> <STRUCTURE_MW>
608.4707

> <STRUCTURE_ChemType>
defined organic

> <STRUCTURE_DefinedOrganicForm>
salt

> <STRUCTURE_IUPAC>
2,2'-[(1,2-dioxoethane-1,2-diyl)diimino]bis[N-(2-chlorobenzyl)-N,N-diethylethanaminium] dichloride

> <STRUCTURE_SMILES>
[Cl-].[Cl-].Clc2ccccc2C[N+](CC)(CC)CCNC(=O)C(=O)NCC[N+](Cc1ccccc1Cl)(CC)CC

> <STRUCTURE_SMILES_Desalt>
Clc2ccccc2C[N+](CC)(CC)CCNC(=O)C(=O)NCC[N+](Cc1ccccc1Cl)(CC)CC

> <Substance_modify_yyyymmdd>
20080429

$$$$
