1156-19-0
ChemmineR-0914142331XD

 21 22  0  0  0  0  0  0  0  0  1 V2000
    3.9433   -3.8107    0.0000 O   0  0  0  0  0  0  0  0  0  0  0  0
    4.6066   -2.6651    0.0000 S   0  0  0  0  0  0  0  0  0  0  0  0
    5.2698   -1.5074    0.0000 O   0  0  0  0  0  0  0  0  0  0  0  0
    3.4489   -1.9898    0.0000 C   0  0  0  0  0  0  0  0  0  0  0  0
    2.3033   -2.6651    0.0000 C   0  0  0  0  0  0  0  0  0  0  0  0
    1.1456   -1.9898    0.0000 C   0  0  0  0  0  0  0  0  0  0  0  0
    1.1456   -0.6633    0.0000 C   0  0  0  0  0  0  0  0  0  0  0  0
    2.3033    0.0000    0.0000 C   0  0  0  0  0  0  0  0  0  0  0  0
    3.4489   -0.6633    0.0000 C   0  0  0  0  0  0  0  0  0  0  0  0
    0.0000    0.0000    0.0000 C   0  0  0  0  0  0  0  0  0  0  0  0
    5.7522   -3.3283    0.0000 N   0  0  0  0  0  0  0  0  0  0  0  0
    6.9099   -2.6651    0.0000 C   0  0  0  0  0  0  0  0  0  0  0  0
    6.9099   -1.3265    0.0000 O   0  0  0  0  0  0  0  0  0  0  0  0
    8.0555   -3.3283    0.0000 N   0  0  0  0  0  0  0  0  0  0  0  0
    9.2011   -2.6651    0.0000 N   0  0  0  0  0  0  0  0  0  0  0  0
   10.2985   -3.4127    0.0000 C   0  0  0  0  0  0  0  0  0  0  0  0
   11.5768   -3.0148    0.0000 C   0  0  0  0  0  0  0  0  0  0  0  0
   12.0591   -1.7848    0.0000 C   0  0  0  0  0  0  0  0  0  0  0  0
   11.3959   -0.6271    0.0000 C   0  0  0  0  0  0  0  0  0  0  0  0
   10.0694   -0.4100    0.0000 C   0  0  0  0  0  0  0  0  0  0  0  0
    9.1288   -1.3506    0.0000 C   0  0  0  0  0  0  0  0  0  0  0  0
  1  2  2  0  0  0  0
  2  3  2  0  0  0  0
  2  4  1  0  0  0  0
  2 11  1  0  0  0  0
  4  5  2  0  0  0  0
  4  9  1  0  0  0  0
  5  6  1  0  0  0  0
  6  7  2  0  0  0  0
  7  8  1  0  0  0  0
  7 10  1  0  0  0  0
  8  9  2  0  0  0  0
 11 12  1  0  0  0  0
 12 13  2  0  0  0  0
 12 14  1  0  0  0  0
 14 15  1  0  0  0  0
 15 16  1  0  0  0  0
 15 21  1  0  0  0  0
 16 17  1  0  0  0  0
 17 18  1  0  0  0  0
 18 19  1  0  0  0  0
 19 20  1  0  0  0  0
 20 21  1  0  0  0  0
M  END
> <ID>
1305

> <Formula>
C14H21N3O3S

> <FW>
311.3998

> <DSSTox_CID>
1358

> <DSSTox_RID>
76105

> <DSSTox_GSID>
21358

> <DSSTox_FileID_Sort>
789

> <TS_ChemName>
Tolazamide

> <TS_ChemName_Synonyms>


> <TS_CASRN>
1156-19-0

> <CASRN_ChemName_Relationship>
primary

> <TS_Description>
single chemical compound

> <ChemNote>


> <STRUCTURE_Shown>
tested chemical

> <STRUCTURE_Formula>
C14H21N3O3S

> <STRUCTURE_MW>
311.3998

> <STRUCTURE_ChemType>
defined organic

> <STRUCTURE_DefinedOrganicForm>
parent

> <STRUCTURE_IUPAC>
N-(azepan-1-ylcarbamoyl)-4-methylbenzenesulfonamide

> <STRUCTURE_SMILES>
Cc1ccc(cc1)S(=O)(=O)NC(=O)NN2CCCCCC2

> <STRUCTURE_SMILES_Desalt>
Cc1ccc(cc1)S(=O)(=O)NC(=O)NN2CCCCCC2

> <Substance_modify_yyyymmdd>
20080429

$$$$
