117-84-0
ChemmineR-0914142331XD

 28 28  0  0  0  0  0  0  0  0  1 V2000
    2.2899   -2.0002    0.0000 C   0  0  0  0  0  0  0  0  0  0  0  0
    2.2899   -3.3245    0.0000 C   0  0  0  0  0  0  0  0  0  0  0  0
    3.4349   -1.3243    0.0000 C   0  0  0  0  0  0  0  0  0  0  0  0
    3.4349   -3.9867    0.0000 C   0  0  0  0  0  0  0  0  0  0  0  0
    3.4349    0.0000    0.0000 O   0  0  0  0  0  0  0  0  0  0  0  0
    4.5936   -3.3245    0.0000 O   0  0  0  0  0  0  0  0  0  0  0  0
    4.5936   -2.0002    0.0000 O   0  0  0  0  0  0  0  0  0  0  0  0
    3.4349   -5.3110    0.0000 O   0  0  0  0  0  0  0  0  0  0  0  0
    1.1312   -1.3243    0.0000 C   0  0  0  0  0  0  0  0  0  0  0  0
    1.1312   -3.9867    0.0000 C   0  0  0  0  0  0  0  0  0  0  0  0
    0.0000   -2.0002    0.0000 C   0  0  0  0  0  0  0  0  0  0  0  0
    0.0000   -3.3245    0.0000 C   0  0  0  0  0  0  0  0  0  0  0  0
    4.5936   -5.9869    0.0000 C   0  0  0  0  0  0  0  0  0  0  0  0
    4.5936   -7.3112    0.0000 C   0  0  0  0  0  0  0  0  0  0  0  0
    5.7386   -7.9734    0.0000 C   0  0  0  0  0  0  0  0  0  0  0  0
    5.7386   -9.2976    0.0000 C   0  0  0  0  0  0  0  0  0  0  0  0
    6.8974   -9.9736    0.0000 C   0  0  0  0  0  0  0  0  0  0  0  0
    6.8974  -11.2979    0.0000 C   0  0  0  0  0  0  0  0  0  0  0  0
    8.0561  -11.9600    0.0000 C   0  0  0  0  0  0  0  0  0  0  0  0
    8.0561  -13.2843    0.0000 C   0  0  0  0  0  0  0  0  0  0  0  0
    5.7386   -1.3243    0.0000 C   0  0  0  0  0  0  0  0  0  0  0  0
    6.8974   -2.0002    0.0000 C   0  0  0  0  0  0  0  0  0  0  0  0
    8.0561   -1.3243    0.0000 C   0  0  0  0  0  0  0  0  0  0  0  0
    9.2011   -2.0002    0.0000 C   0  0  0  0  0  0  0  0  0  0  0  0
   10.3598   -1.3243    0.0000 C   0  0  0  0  0  0  0  0  0  0  0  0
   11.4910   -2.0002    0.0000 C   0  0  0  0  0  0  0  0  0  0  0  0
   12.6360   -1.3243    0.0000 C   0  0  0  0  0  0  0  0  0  0  0  0
   13.7947   -2.0002    0.0000 C   0  0  0  0  0  0  0  0  0  0  0  0
  1  2  2  0  0  0  0
  1  3  1  0  0  0  0
  1  9  1  0  0  0  0
  2  4  1  0  0  0  0
  2 10  1  0  0  0  0
  3  5  2  0  0  0  0
  3  7  1  0  0  0  0
  4  6  2  0  0  0  0
  4  8  1  0  0  0  0
  7 21  1  0  0  0  0
  8 13  1  0  0  0  0
  9 11  2  0  0  0  0
 10 12  2  0  0  0  0
 11 12  1  0  0  0  0
 13 14  1  0  0  0  0
 14 15  1  0  0  0  0
 15 16  1  0  0  0  0
 16 17  1  0  0  0  0
 17 18  1  0  0  0  0
 18 19  1  0  0  0  0
 19 20  1  0  0  0  0
 21 22  1  0  0  0  0
 22 23  1  0  0  0  0
 23 24  1  0  0  0  0
 24 25  1  0  0  0  0
 25 26  1  0  0  0  0
 26 27  1  0  0  0  0
 27 28  1  0  0  0  0
M  END
> <ID>
1820

> <Formula>
C24H38O4

> <FW>
390.5561

> <DSSTox_CID>
1956

> <DSSTox_RID>
76425

> <DSSTox_GSID>
21956

> <DSSTox_FileID_Sort>
1109

> <TS_ChemName>
Dioctyl phthalate

> <TS_ChemName_Synonyms>
bis(n-octyl) phthalate

> <TS_CASRN>
117-84-0

> <CASRN_ChemName_Relationship>
primary

> <TS_Description>
single chemical compound

> <ChemNote>


> <STRUCTURE_Shown>
tested chemical

> <STRUCTURE_Formula>
C24H38O4

> <STRUCTURE_MW>
390.5561

> <STRUCTURE_ChemType>
defined organic

> <STRUCTURE_DefinedOrganicForm>
parent

> <STRUCTURE_IUPAC>
dioctyl benzene-1,2-dicarboxylate

> <STRUCTURE_SMILES>
O=C(OCCCCCCCC)c1ccccc1C(=O)OCCCCCCCC

> <STRUCTURE_SMILES_Desalt>
O=C(OCCCCCCCC)c1ccccc1C(=O)OCCCCCCCC

> <Substance_modify_yyyymmdd>
20080429

$$$$
