117-37-3
ChemmineR-0914142331XD

 19 21  0  0  0  0  0  0  0  0  1 V2000
   10.3344   -1.6742    0.0000 C   0  0  0  0  0  0  0  0  0  0  0  0
   10.3344   -3.0073    0.0000 C   0  0  0  0  0  0  0  0  0  0  0  0
    9.1873   -3.6687    0.0000 C   0  0  0  0  0  0  0  0  0  0  0  0
    8.0298   -3.0073    0.0000 C   0  0  0  0  0  0  0  0  0  0  0  0
    8.0298   -1.6742    0.0000 C   0  0  0  0  0  0  0  0  0  0  0  0
    9.1873   -1.0128    0.0000 C   0  0  0  0  0  0  0  0  0  0  0  0
    6.7690   -1.2608    0.0000 C   0  0  0  0  0  0  0  0  0  0  0  0
    6.3557    0.0000    0.0000 O   0  0  0  0  0  0  0  0  0  0  0  0
    5.9836   -2.3459    0.0000 C   0  0  0  0  0  0  0  0  0  0  0  0
    4.6505   -2.3459    0.0000 C   0  0  0  0  0  0  0  0  0  0  0  0
    3.9891   -3.4930    0.0000 C   0  0  0  0  0  0  0  0  0  0  0  0
    2.6559   -3.4930    0.0000 C   0  0  0  0  0  0  0  0  0  0  0  0
    1.9945   -2.3459    0.0000 C   0  0  0  0  0  0  0  0  0  0  0  0
    0.6614   -2.3459    0.0000 O   0  0  0  0  0  0  0  0  0  0  0  0
    0.0000   -3.4930    0.0000 C   0  0  0  0  0  0  0  0  0  0  0  0
    2.6559   -1.1885    0.0000 C   0  0  0  0  0  0  0  0  0  0  0  0
    3.9891   -1.1885    0.0000 C   0  0  0  0  0  0  0  0  0  0  0  0
    6.7690   -3.4207    0.0000 C   0  0  0  0  0  0  0  0  0  0  0  0
    6.3557   -4.6815    0.0000 O   0  0  0  0  0  0  0  0  0  0  0  0
  1  2  2  0  0  0  0
  1  6  1  0  0  0  0
  2  3  1  0  0  0  0
  3  4  2  0  0  0  0
  4  5  1  0  0  0  0
  4 18  1  0  0  0  0
  5  6  2  0  0  0  0
  5  7  1  0  0  0  0
  7  8  2  0  0  0  0
  7  9  1  0  0  0  0
  9 10  1  0  0  0  0
  9 18  1  0  0  0  0
 10 11  2  0  0  0  0
 10 17  1  0  0  0  0
 11 12  1  0  0  0  0
 12 13  2  0  0  0  0
 13 14  1  0  0  0  0
 13 16  1  0  0  0  0
 14 15  1  0  0  0  0
 16 17  2  0  0  0  0
 18 19  2  0  0  0  0
M  END
> <ID>
2366

> <Formula>
C16H12O3

> <FW>
252.2647

> <DSSTox_CID>
2611

> <DSSTox_RID>
76658

> <DSSTox_GSID>
22611

> <DSSTox_FileID_Sort>
1342

> <TS_ChemName>
Anisindione

> <TS_ChemName_Synonyms>


> <TS_CASRN>
117-37-3

> <CASRN_ChemName_Relationship>
primary

> <TS_Description>
single chemical compound

> <ChemNote>


> <STRUCTURE_Shown>
tested chemical

> <STRUCTURE_Formula>
C16H12O3

> <STRUCTURE_MW>
252.2647

> <STRUCTURE_ChemType>
defined organic

> <STRUCTURE_DefinedOrganicForm>
parent

> <STRUCTURE_IUPAC>
2-(4-methoxyphenyl)-1H-indene-1,3(2H)-dione

> <STRUCTURE_SMILES>
COc1ccc(cc1)C3C(=O)c2ccccc2C3=O

> <STRUCTURE_SMILES_Desalt>
COc1ccc(cc1)C3C(=O)c2ccccc2C3=O

> <Substance_modify_yyyymmdd>
20080429

$$$$
