117279-73-9
ChemmineR-0914142331XD

 34 38  0  0  0  0  0  0  0  0  1 V2000
   11.7600   -2.0386    0.0000 N    0  0  0  0  0  0  0  0  0  0  0  0
   13.0836   -2.0386    0.0000 C    0  0  0  0  0  0  0  0  0  0  0  0
   13.9204   -3.0731    0.0000 C    0  0  0  0  0  0  0  0  0  0  0  0
   13.6161   -4.3815    0.0000 N    0  0  0  0  0  0  0  0  0  0  0  0
   12.4142   -4.9596    0.0000 C    0  0  0  0  0  0  0  0  0  0  0  0
   11.2276   -4.3815    0.0000 C    0  0  0  0  0  0  0  0  0  0  0  0
   10.9233   -3.0731    0.0000 C    0  0  0  0  0  0  0  0  0  0  0  0
   12.4142    0.0000    0.0000 N    0  0  0  0  0  0  0  0  0  0  0  0
   13.4944   -0.7759    0.0000 N    0  0  0  0  0  0  0  0  0  0  0  0
   11.3493   -0.7759    0.0000 C    0  0  0  0  0  0  0  0  0  0  0  0
    9.5997   -2.9666    0.0000 S    0  0  0  0  0  0  0  0  0  0  0  0
    9.0825   -4.1837    0.0000 C    0  0  0  0  0  0  0  0  0  0  0  0
   10.0866   -5.0661    0.0000 C    0  0  0  0  0  0  0  0  0  0  0  0
   12.4142   -6.2832    0.0000 C    0  0  0  0  0  0  0  0  0  0  0  0
   13.5705   -6.9526    0.0000 C    0  0  0  0  0  0  0  0  0  0  0  0
   11.2732   -6.9526    0.0000 C    0  0  0  0  0  0  0  0  0  0  0  0
   13.5705   -8.2762    0.0000 C    0  0  0  0  0  0  0  0  0  0  0  0
   11.2732   -8.2762    0.0000 C    0  0  0  0  0  0  0  0  0  0  0  0
   12.4142   -8.9455    0.0000 C    0  0  0  0  0  0  0  0  0  0  0  0
   14.7267   -6.2832    0.0000 Cl   0  0  0  0  0  0  0  0  0  0  0  0
    7.7893   -4.4728    0.0000 C    0  0  0  0  0  0  0  0  0  0  0  0
    7.3938   -5.7507    0.0000 C    0  0  0  0  0  0  0  0  0  0  0  0
    6.0854   -6.0550    0.0000 C    0  0  0  0  0  0  0  0  0  0  0  0
    5.7051   -7.3177    0.0000 C    0  0  0  0  0  0  0  0  0  0  0  0
    5.1878   -5.0661    0.0000 C    0  0  0  0  0  0  0  0  0  0  0  0
    4.3967   -7.6220    0.0000 C    0  0  0  0  0  0  0  0  0  0  0  0
    3.8947   -5.3704    0.0000 C    0  0  0  0  0  0  0  0  0  0  0  0
    3.4991   -6.6331    0.0000 C    0  0  0  0  0  0  0  0  0  0  0  0
    2.2060   -6.9374    0.0000 C    0  0  0  0  0  0  0  0  0  0  0  0
    1.2931   -5.9637    0.0000 C    0  0  0  0  0  0  0  0  0  0  0  0
    1.6887   -4.6858    0.0000 C    0  0  0  0  0  0  0  0  0  0  0  0
    0.0000   -6.2528    0.0000 C    0  0  0  0  0  0  0  0  0  0  0  0
   15.2135   -2.7841    0.0000 C    0  0  0  0  0  0  0  0  0  0  0  0
   10.0866   -0.3651    0.0000 C    0  0  0  0  0  0  0  0  0  0  0  0
  1  2  1  0  0  0  0
  1  7  1  0  0  0  0
  1 10  1  0  0  0  0
  2  3  1  0  0  0  0
  2  9  2  0  0  0  0
  3  4  1  0  0  0  0
  3 33  1  0  0  0  0
  4  5  2  0  0  0  0
  5  6  1  0  0  0  0
  5 14  1  0  0  0  0
  6  7  2  0  0  0  0
  6 13  1  0  0  0  0
  7 11  1  0  0  0  0
  8  9  1  0  0  0  0
  8 10  2  0  0  0  0
 10 34  1  0  0  0  0
 11 12  1  0  0  0  0
 12 13  2  0  0  0  0
 12 21  1  0  0  0  0
 14 15  2  0  0  0  0
 14 16  1  0  0  0  0
 15 17  1  0  0  0  0
 15 20  1  0  0  0  0
 16 18  2  0  0  0  0
 17 19  2  0  0  0  0
 18 19  1  0  0  0  0
 21 22  1  0  0  0  0
 22 23  1  0  0  0  0
 23 24  2  0  0  0  0
 23 25  1  0  0  0  0
 24 26  1  0  0  0  0
 25 27  2  0  0  0  0
 26 28  2  0  0  0  0
 27 28  1  0  0  0  0
 28 29  1  0  0  0  0
 29 30  1  0  0  0  0
 30 31  1  0  0  0  0
 30 32  1  0  0  0  0
M  END
> <ID>
303

> <Formula>
C28H29ClN4S

> <FW>
489.0747

> <DSSTox_CID>
312

> <DSSTox_RID>
75507

> <DSSTox_GSID>
20312

> <DSSTox_FileID_Sort>
191

> <TS_ChemName>
Israpafant

> <TS_ChemName_Synonyms>
(+-)-4-(2-chlorophenyl)-2-[2-(4-isobutylphenyl)ethyl]-6,9-dimethyl-6H-thieno[3,2-f][1,2,4]triazolo[4,3-a][1,4]diazepine

> <TS_CASRN>
117279-73-9

> <CASRN_ChemName_Relationship>
primary

> <TS_Description>
single chemical compound

> <ChemNote>
Y 24180

> <STRUCTURE_Shown>
tested chemical

> <STRUCTURE_Formula>
C28H29ClN4S

> <STRUCTURE_MW>
489.0747

> <STRUCTURE_ChemType>
defined organic

> <STRUCTURE_DefinedOrganicForm>
parent

> <STRUCTURE_IUPAC>
4-(2-chlorophenyl)-6,9-dimethyl-2-{2-[4-(2-methylpropyl)phenyl]ethyl}-6H-thieno[3,2-f][1,2,4]triazolo[4,3-a][1,4]diazepine

> <STRUCTURE_SMILES>
CC(C)Cc1ccc(cc1)CCc2cc5c(s2)n3c(C)nnc3C(C)N=C5c4ccccc4Cl

> <STRUCTURE_SMILES_Desalt>
CC(C)Cc1ccc(cc1)CCc2cc5c(s2)n3c(C)nnc3C(C)N=C5c4ccccc4Cl

> <Substance_modify_yyyymmdd>
20080429

$$$$
