118-92-3
ChemmineR-0914142331XD

 10 10  0  0  0  0  0  0  0  0  1 V2000
    2.6582    0.0000    0.0000 N   0  0  0  0  0  0  0  0  0  0  0  0
    1.9971   -1.1499    0.0000 C   0  0  0  0  0  0  0  0  0  0  0  0
    2.6582   -2.3044    0.0000 C   0  0  0  0  0  0  0  0  0  0  0  0
    1.9971   -3.4542    0.0000 C   0  0  0  0  0  0  0  0  0  0  0  0
    0.6657   -3.4542    0.0000 C   0  0  0  0  0  0  0  0  0  0  0  0
    0.0000   -2.3044    0.0000 C   0  0  0  0  0  0  0  0  0  0  0  0
    0.6657   -1.1499    0.0000 C   0  0  0  0  0  0  0  0  0  0  0  0
    3.9896   -2.3044    0.0000 C   0  0  0  0  0  0  0  0  0  0  0  0
    4.6553   -1.1499    0.0000 O   0  0  0  0  0  0  0  0  0  0  0  0
    4.6553   -3.4542    0.0000 O   0  0  0  0  0  0  0  0  0  0  0  0
  1  2  1  0  0  0  0
  2  3  2  0  0  0  0
  2  7  1  0  0  0  0
  3  4  1  0  0  0  0
  3  8  1  0  0  0  0
  4  5  2  0  0  0  0
  5  6  1  0  0  0  0
  6  7  2  0  0  0  0
  8  9  2  0  0  0  0
  8 10  1  0  0  0  0
M  END
> <ID>
92

> <Formula>
C7H7NO2

> <FW>
137.136

> <DSSTox_CID>
94

> <DSSTox_RID>
75363

> <DSSTox_GSID>
20094

> <DSSTox_FileID_Sort>
47

> <TS_ChemName>
Anthranilic acid

> <TS_ChemName_Synonyms>
o-Anthranilic acid

> <TS_CASRN>
118-92-3

> <CASRN_ChemName_Relationship>
primary

> <TS_Description>
single chemical compound

> <ChemNote>


> <STRUCTURE_Shown>
tested chemical

> <STRUCTURE_Formula>
C7H7NO2

> <STRUCTURE_MW>
137.136

> <STRUCTURE_ChemType>
defined organic

> <STRUCTURE_DefinedOrganicForm>
parent

> <STRUCTURE_IUPAC>
2-aminobenzoic acid

> <STRUCTURE_SMILES>
OC(=O)c1ccccc1N

> <STRUCTURE_SMILES_Desalt>
OC(=O)c1ccccc1N

> <Substance_modify_yyyymmdd>
20080429

$$$$
