119-47-1
ChemmineR-0914142331XD

 25 26  0  0  0  0  0  0  0  0  1 V2000
    6.9120   -6.6529    0.0000 O   0  0  0  0  0  0  0  0  0  0  0  0
    6.9120   -5.3265    0.0000 C   0  0  0  0  0  0  0  0  0  0  0  0
    5.7617   -4.6633    0.0000 C   0  0  0  0  0  0  0  0  0  0  0  0
    5.7617   -3.3265    0.0000 C   0  0  0  0  0  0  0  0  0  0  0  0
    6.9120   -2.6632    0.0000 C   0  0  0  0  0  0  0  0  0  0  0  0
    8.0623   -3.3265    0.0000 C   0  0  0  0  0  0  0  0  0  0  0  0
    8.0623   -4.6633    0.0000 C   0  0  0  0  0  0  0  0  0  0  0  0
    9.2125   -5.3265    0.0000 C   0  0  0  0  0  0  0  0  0  0  0  0
   10.3628   -5.9897    0.0000 C   0  0  0  0  0  0  0  0  0  0  0  0
    8.5493   -6.4768    0.0000 C   0  0  0  0  0  0  0  0  0  0  0  0
    9.8758   -4.1762    0.0000 C   0  0  0  0  0  0  0  0  0  0  0  0
    6.9120   -1.3368    0.0000 C   0  0  0  0  0  0  0  0  0  0  0  0
    4.6011   -5.3265    0.0000 C   0  0  0  0  0  0  0  0  0  0  0  0
    3.4508   -4.6633    0.0000 C   0  0  0  0  0  0  0  0  0  0  0  0
    2.3005   -5.3265    0.0000 C   0  0  0  0  0  0  0  0  0  0  0  0
    1.1503   -4.6633    0.0000 C   0  0  0  0  0  0  0  0  0  0  0  0
    1.1503   -3.3265    0.0000 C   0  0  0  0  0  0  0  0  0  0  0  0
    2.3005   -2.6632    0.0000 C   0  0  0  0  0  0  0  0  0  0  0  0
    3.4508   -3.3265    0.0000 C   0  0  0  0  0  0  0  0  0  0  0  0
    4.6011   -2.6632    0.0000 O   0  0  0  0  0  0  0  0  0  0  0  0
    2.3005   -1.3368    0.0000 C   0  0  0  0  0  0  0  0  0  0  0  0
    0.9741   -1.3368    0.0000 C   0  0  0  0  0  0  0  0  0  0  0  0
    2.3005    0.0000    0.0000 C   0  0  0  0  0  0  0  0  0  0  0  0
    3.6374   -1.3368    0.0000 C   0  0  0  0  0  0  0  0  0  0  0  0
    0.0000   -5.3265    0.0000 C   0  0  0  0  0  0  0  0  0  0  0  0
  1  2  1  0  0  0  0
  2  3  2  0  0  0  0
  2  7  1  0  0  0  0
  3  4  1  0  0  0  0
  3 13  1  0  0  0  0
  4  5  2  0  0  0  0
  5  6  1  0  0  0  0
  5 12  1  0  0  0  0
  6  7  2  0  0  0  0
  7  8  1  0  0  0  0
  8  9  1  0  0  0  0
  8 10  1  0  0  0  0
  8 11  1  0  0  0  0
 13 14  1  0  0  0  0
 14 15  2  0  0  0  0
 14 19  1  0  0  0  0
 15 16  1  0  0  0  0
 16 17  2  0  0  0  0
 16 25  1  0  0  0  0
 17 18  1  0  0  0  0
 18 19  2  0  0  0  0
 18 21  1  0  0  0  0
 19 20  1  0  0  0  0
 21 22  1  0  0  0  0
 21 23  1  0  0  0  0
 21 24  1  0  0  0  0
M  END
> <ID>
836

> <Formula>
C23H32O2

> <FW>
340.499

> <DSSTox_CID>
870

> <DSSTox_RID>
75838

> <DSSTox_GSID>
20870

> <DSSTox_FileID_Sort>
522

> <TS_ChemName>
2,2'-Methylenebis(4-methyl-6-tert-butylphenol)

> <TS_ChemName_Synonyms>
2,2'-Methanediylbis(6-tert-butyl-4-methylphenol)

> <TS_CASRN>
119-47-1

> <CASRN_ChemName_Relationship>
primary

> <TS_Description>
single chemical compound

> <ChemNote>


> <STRUCTURE_Shown>
tested chemical

> <STRUCTURE_Formula>
C23H32O2

> <STRUCTURE_MW>
340.499

> <STRUCTURE_ChemType>
defined organic

> <STRUCTURE_DefinedOrganicForm>
parent

> <STRUCTURE_IUPAC>
2,2'-methanediylbis(6-tert-butyl-4-methylphenol)

> <STRUCTURE_SMILES>
CC(C)(C)c2cc(C)cc(Cc1cc(C)cc(c1O)C(C)(C)C)c2O

> <STRUCTURE_SMILES_Desalt>
CC(C)(C)c2cc(C)cc(Cc1cc(C)cc(c1O)C(C)(C)C)c2O

> <Substance_modify_yyyymmdd>
20080429

$$$$
