119-53-9
ChemmineR-0914142331XD

 16 17  0  0  0  0  0  0  0  0  1 V2000
    5.7559   -5.3191    0.0000 C   0  0  0  0  0  0  0  0  0  0  0  0
    4.6071   -5.9833    0.0000 C   0  0  0  0  0  0  0  0  0  0  0  0
    3.4523   -5.3191    0.0000 C   0  0  0  0  0  0  0  0  0  0  0  0
    3.4523   -3.9908    0.0000 C   0  0  0  0  0  0  0  0  0  0  0  0
    4.6071   -3.3267    0.0000 C   0  0  0  0  0  0  0  0  0  0  0  0
    5.7559   -3.9908    0.0000 C   0  0  0  0  0  0  0  0  0  0  0  0
    4.6071   -1.9924    0.0000 C   0  0  0  0  0  0  0  0  0  0  0  0
    3.4523   -1.3283    0.0000 C   0  0  0  0  0  0  0  0  0  0  0  0
    2.3036   -1.9924    0.0000 C   0  0  0  0  0  0  0  0  0  0  0  0
    2.3036   -3.3267    0.0000 C   0  0  0  0  0  0  0  0  0  0  0  0
    1.1488   -3.9908    0.0000 C   0  0  0  0  0  0  0  0  0  0  0  0
    0.0000   -3.3267    0.0000 C   0  0  0  0  0  0  0  0  0  0  0  0
    0.0000   -1.9924    0.0000 C   0  0  0  0  0  0  0  0  0  0  0  0
    1.1488   -1.3283    0.0000 C   0  0  0  0  0  0  0  0  0  0  0  0
    3.4523    0.0000    0.0000 O   0  0  0  0  0  0  0  0  0  0  0  0
    5.7559   -1.3283    0.0000 O   0  0  0  0  0  0  0  0  0  0  0  0
  1  2  2  0  0  0  0
  1  6  1  0  0  0  0
  2  3  1  0  0  0  0
  3  4  2  0  0  0  0
  4  5  1  0  0  0  0
  5  6  2  0  0  0  0
  5  7  1  0  0  0  0
  7  8  1  0  0  0  0
  7 16  1  0  0  0  0
  8  9  1  0  0  0  0
  8 15  2  0  0  0  0
  9 10  2  0  0  0  0
  9 14  1  0  0  0  0
 10 11  1  0  0  0  0
 11 12  2  0  0  0  0
 12 13  1  0  0  0  0
 13 14  2  0  0  0  0
M  END
> <ID>
141

> <Formula>
C14H12O2

> <FW>
212.2439

> <DSSTox_CID>
144

> <DSSTox_RID>
75397

> <DSSTox_GSID>
20144

> <DSSTox_FileID_Sort>
81

> <TS_ChemName>
Benzoin

> <TS_ChemName_Synonyms>
Benzoin (2-Hydroxy-1,2-diphenylethan-1-one)

> <TS_CASRN>
119-53-9

> <CASRN_ChemName_Relationship>
primary

> <TS_Description>
single chemical compound

> <ChemNote>


> <STRUCTURE_Shown>
tested chemical

> <STRUCTURE_Formula>
C14H12O2

> <STRUCTURE_MW>
212.2439

> <STRUCTURE_ChemType>
defined organic

> <STRUCTURE_DefinedOrganicForm>
parent

> <STRUCTURE_IUPAC>
2-hydroxy-1,2-diphenylethanone

> <STRUCTURE_SMILES>
OC(C(=O)c1ccccc1)c2ccccc2

> <STRUCTURE_SMILES_Desalt>
OC(C(=O)c1ccccc1)c2ccccc2

> <Substance_modify_yyyymmdd>
20080429

$$$$
