119-34-6
ChemmineR-0914142331XD

 11 11  0  0  0  0  0  0  0  0  2 V2000
    1.9968   -4.6079    0.0000 O   0  0  0  0  0  0  0  0  0  0  0  0
    2.6577   -3.4583    0.0000 C   0  0  0  0  0  0  0  0  0  0  0  0
    1.9968   -2.3039    0.0000 C   0  0  0  0  0  0  0  0  0  0  0  0
    2.6577   -1.1543    0.0000 C   0  0  0  0  0  0  0  0  0  0  0  0
    3.9889   -1.1543    0.0000 C   0  0  0  0  0  0  0  0  0  0  0  0
    4.6544   -2.3039    0.0000 C   0  0  0  0  0  0  0  0  0  0  0  0
    3.9889   -3.4583    0.0000 C   0  0  0  0  0  0  0  0  0  0  0  0
    4.6544    0.0000    0.0000 N   0  0  0  0  0  0  0  0  0  0  0  0
    0.6656   -2.3039    0.0000 N   0  3  0  0  0  0  0  0  0  0  0  0
    0.0000   -3.4583    0.0000 O   0  0  0  0  0  0  0  0  0  0  0  0
    0.0000   -1.1543    0.0000 O   0  5  0  0  0  0  0  0  0  0  0  0
  1  2  1  0  0  0  0
  2  3  2  0  0  0  0
  2  7  1  0  0  0  0
  3  4  1  0  0  0  0
  3  9  1  0  0  0  0
  4  5  2  0  0  0  0
  5  6  1  0  0  0  0
  5  8  1  0  0  0  0
  6  7  2  0  0  0  0
  9 10  2  0  0  0  0
  9 11  1  0  0  0  0
M  END
> <ID>
63

> <Formula>
C6H6N2O3

> <FW>
154.1234

> <DSSTox_CID>
64

> <DSSTox_RID>
75343

> <DSSTox_GSID>
20064

> <DSSTox_FileID_Sort>
27

> <TS_ChemName>
4-Amino-2-nitrophenol

> <TS_ChemName_Synonyms>


> <TS_CASRN>
119-34-6

> <CASRN_ChemName_Relationship>
primary

> <TS_Description>
single chemical compound

> <ChemNote>


> <STRUCTURE_Shown>
tested chemical

> <STRUCTURE_Formula>
C6H6N2O3

> <STRUCTURE_MW>
154.1234

> <STRUCTURE_ChemType>
defined organic

> <STRUCTURE_DefinedOrganicForm>
parent

> <STRUCTURE_IUPAC>
4-amino-2-nitrophenol

> <STRUCTURE_SMILES>
O=[N+]([O-])c1cc(N)ccc1O

> <STRUCTURE_SMILES_Desalt>
O=[N+]([O-])c1cc(N)ccc1O

> <Substance_modify_yyyymmdd>
20080429

$$$$
