119302-91-9
ChemmineR-0914142331XD

 43 47  0  0  1  0  0  0  0  0  2 V2000
    5.6584   -5.8771    0.0000 C    0  0  0  0  0  0  0  0  0  0  0  0
    5.6584   -7.1896    0.0000 C    0  0  0  0  0  0  0  0  0  0  0  0
    4.5208   -5.2209    0.0000 C    0  0  0  0  0  0  0  0  0  0  0  0
    4.5208   -7.8313    0.0000 C    0  0  0  0  0  0  0  0  0  0  0  0
    3.4125   -5.8771    0.0000 C    0  0  0  0  0  0  0  0  0  0  0  0
    3.4125   -7.1896    0.0000 C    0  0  0  0  0  0  0  0  0  0  0  0
    6.7959   -5.2209    0.0000 C    0  0  0  0  0  0  0  0  0  0  0  0
    7.9334   -5.8771    0.0000 C    0  0  0  0  0  0  0  0  0  0  0  0
    6.7959   -7.8313    0.0000 C    0  0  0  0  0  0  0  0  0  0  0  0
    7.9334   -7.1896    0.0000 C    0  0  0  0  0  0  0  0  0  0  0  0
    6.7959   -3.9083    0.0000 C    0  0  0  0  0  0  0  0  0  0  0  0
    7.9334   -3.2521    0.0000 C    0  0  0  0  0  0  0  0  0  0  0  0
    9.0709   -5.2209    0.0000 C    0  0  0  0  0  0  0  0  0  0  0  0
    9.0709   -3.9083    0.0000 C    0  0  0  0  0  0  0  0  0  0  0  0
   11.3313   -5.2209    0.0000 C    0  0  0  0  0  0  0  0  0  0  0  0
   10.2084   -3.2521    0.0000 C    0  0  0  0  0  0  0  0  0  0  0  0
   11.3313   -3.9083    0.0000 C    0  0  0  0  0  0  0  0  0  0  0  0
    2.2604   -5.2209    0.0000 N    0  0  0  0  0  0  0  0  0  0  0  0
    1.1375   -5.8625    0.0000 C    0  0  0  0  0  0  0  0  0  0  0  0
    2.2604   -3.9083    0.0000 C    0  0  0  0  0  0  0  0  0  0  0  0
    0.0000   -5.2209    0.0000 C    0  0  0  0  0  0  0  0  0  0  0  0
    1.1375   -3.2375    0.0000 C    0  0  0  0  0  0  0  0  0  0  0  0
    0.0000   -3.9083    0.0000 O    0  0  0  0  0  0  0  0  0  0  0  0
    2.2604   -7.8313    0.0000 O    0  0  0  0  0  0  0  0  0  0  0  0
   10.2084   -1.9396    0.0000 O    0  0  0  0  0  0  0  0  0  0  0  0
   12.4688   -3.2375    0.0000 N    0  3  0  0  0  0  0  0  0  0  0  0
   12.8771   -1.9979    0.0000 C    0  0  0  0  0  0  0  0  0  0  0  0
   14.1896   -1.9979    0.0000 C    0  0  0  0  0  0  0  0  0  0  0  0
   14.5834   -3.2375    0.0000 C    0  0  0  0  0  0  0  0  0  0  0  0
   13.5334   -4.0250    0.0000 C    0  0  0  0  0  0  0  0  0  0  0  0
   12.4688   -4.5500    0.0000 C    0  0  0  0  0  0  0  0  0  0  0  0
   13.6063   -5.2063    0.0000 C    0  0  0  0  0  0  0  0  0  0  0  0
   13.6063   -6.5042    0.0000 C    0  0  0  0  0  0  0  0  0  0  0  0
    5.6584   -8.5021    0.0000 H    0  0  0  0  0  0  0  0  0  0  0  0
    6.7959   -6.5334    0.0000 H    0  0  0  0  0  0  0  0  0  0  0  0
    9.0709   -6.5334    0.0000 H    0  0  0  0  0  0  0  0  0  0  0  0
    7.9334   -4.5792    0.0000 H    0  0  0  0  0  0  0  0  0  0  0  0
    9.0709   -2.5813    0.0000 C    0  0  0  0  0  0  0  0  0  0  0  0
    5.6584   -4.5792    0.0000 C    0  0  0  0  0  0  0  0  0  0  0  0
    9.0563   -1.3125    0.0000 C    0  0  0  0  0  0  0  0  0  0  0  0
    9.0563    0.0000    0.0000 O    0  0  0  0  0  0  0  0  0  0  0  0
    7.9334   -1.9688    0.0000 C    0  0  0  0  0  0  0  0  0  0  0  0
   11.6521   -1.0500    0.0000 Br   0  5  0  0  0  0  0  0  0  0  0  0
  1  3  1  0  0  0  0
  1  7  1  0  0  0  0
  1  2  1  0  0  0  0
  1 39  1  1  0  0  0
  2  4  1  0  0  0  0
  2  9  1  0  0  0  0
  2 34  1  6  0  0  0
  3  5  1  0  0  0  0
  4  6  1  0  0  0  0
  5  6  1  0  0  0  0
  5 18  1  1  0  0  0
  6 24  1  6  0  0  0
  7 11  1  0  0  0  0
  7  8  1  0  0  0  0
  7 35  1  6  0  0  0
  8 10  1  0  0  0  0
  8 13  1  0  0  0  0
  8 37  1  1  0  0  0
  9 10  1  0  0  0  0
 11 12  1  0  0  0  0
 12 14  1  0  0  0  0
 13 15  1  0  0  0  0
 13 14  1  0  0  0  0
 13 36  1  6  0  0  0
 14 16  1  0  0  0  0
 14 38  1  1  0  0  0
 15 17  1  0  0  0  0
 16 17  1  0  0  0  0
 16 25  1  1  0  0  0
 17 26  1  1  0  0  0
 18 19  1  0  0  0  0
 18 20  1  0  0  0  0
 19 21  1  0  0  0  0
 20 22  1  0  0  0  0
 21 23  1  0  0  0  0
 22 23  1  0  0  0  0
 25 40  1  0  0  0  0
 26 27  1  0  0  0  0
 26 30  1  0  0  0  0
 26 31  1  0  0  0  0
 27 28  1  0  0  0  0
 28 29  1  0  0  0  0
 29 30  1  0  0  0  0
 31 32  1  0  0  0  0
 32 33  2  0  0  0  0
 40 41  2  0  0  0  0
 40 42  1  0  0  0  0
M  END
> <ID>
3189

> <Formula>
C32H53BrN2O4

> <FW>
609.6782 (529.7737+79.9045)

> <DSSTox_CID>
3566

> <DSSTox_RID>
77083

> <DSSTox_GSID>
23566

> <DSSTox_FileID_Sort>
1766

> <TS_ChemName>
Rocuronium bromide

> <TS_ChemName_Synonyms>


> <TS_CASRN>
119302-91-9

> <CASRN_ChemName_Relationship>
primary

> <TS_Description>
single chemical compound

> <ChemNote>
ammonium; stereochem; parent [143558-00-3]

> <STRUCTURE_Shown>
tested chemical

> <STRUCTURE_Formula>
C32H53BrN2O4

> <STRUCTURE_MW>
609.6782

> <STRUCTURE_ChemType>
defined organic

> <STRUCTURE_DefinedOrganicForm>
salt

> <STRUCTURE_IUPAC>
(2beta,3alpha,5alpha,16beta,17beta)-17-(acetyloxy)-3-hydroxy-2-(morpholin-4-yl)-16-[1-(prop-2-en-1-yl)pyrrolidinium-1-yl]androstane bromide

> <STRUCTURE_SMILES>
[Br-].C=CC[N+]1(CCCC1)[C@H]6C[C@@H]5[C@](C)(CC[C@H]2[C@H]5CC[C@H]3C[C@H](O)[C@H](C[C@]23C)N4CCOCC4)[C@H]6OC(C)=O

> <STRUCTURE_SMILES_Desalt>
C=CC[N+]1(CCCC1)[C@H]6C[C@@H]5[C@](C)(CC[C@H]2[C@H]5CC[C@H]3C[C@H](O)[C@H](C[C@]23C)N4CCOCC4)[C@H]6OC(C)=O

> <Substance_modify_yyyymmdd>
20080429

$$$$
