120-72-9
ChemmineR-0914142331XD

  9 10  0  0  0  0  0  0  0  0  1 V2000
    3.5678   -0.2561    0.0000 N   0  0  0  0  0  0  0  0  0  0  0  0
    4.3404   -1.3195    0.0000 C   0  0  0  0  0  0  0  0  0  0  0  0
    2.3004   -0.6597    0.0000 C   0  0  0  0  0  0  0  0  0  0  0  0
    2.3004   -2.0096    0.0000 C   0  0  0  0  0  0  0  0  0  0  0  0
    3.5678   -2.4132    0.0000 C   0  0  0  0  0  0  0  0  0  0  0  0
    1.1589    0.0000    0.0000 C   0  0  0  0  0  0  0  0  0  0  0  0
    1.1589   -2.6693    0.0000 C   0  0  0  0  0  0  0  0  0  0  0  0
    0.0000   -1.9922    0.0000 C   0  0  0  0  0  0  0  0  0  0  0  0
    0.0000   -0.6771    0.0000 C   0  0  0  0  0  0  0  0  0  0  0  0
  1  2  1  0  0  0  0
  1  3  1  0  0  0  0
  2  5  2  0  0  0  0
  3  4  2  0  0  0  0
  3  6  1  0  0  0  0
  4  7  1  0  0  0  0
  4  5  1  0  0  0  0
  6  9  2  0  0  0  0
  7  8  2  0  0  0  0
  8  9  1  0  0  0  0
M  END
> <ID>
707

> <Formula>
C8H7N

> <FW>
117.1479

> <DSSTox_CID>
737

> <DSSTox_RID>
75761

> <DSSTox_GSID>
20737

> <DSSTox_FileID_Sort>
445

> <TS_ChemName>
Indole

> <TS_ChemName_Synonyms>


> <TS_CASRN>
120-72-9

> <CASRN_ChemName_Relationship>
primary

> <TS_Description>
single chemical compound

> <ChemNote>


> <STRUCTURE_Shown>
tested chemical

> <STRUCTURE_Formula>
C8H7N

> <STRUCTURE_MW>
117.1479

> <STRUCTURE_ChemType>
defined organic

> <STRUCTURE_DefinedOrganicForm>
parent

> <STRUCTURE_IUPAC>
1H-indole

> <STRUCTURE_SMILES>
c1cccc2nccc12

> <STRUCTURE_SMILES_Desalt>
c1cccc2nccc12

> <Substance_modify_yyyymmdd>
20080429

$$$$
