120-78-5
ChemmineR-0914142331XD

 20 23  0  0  0  0  0  0  0  0  1 V2000
    8.4554   -1.4072    0.0000 N   0  0  0  0  0  0  0  0  0  0  0  0
    7.6736   -2.4777    0.0000 C   0  0  0  0  0  0  0  0  0  0  0  0
    6.3506   -2.4777    0.0000 S   0  0  0  0  0  0  0  0  0  0  0  0
    5.6770   -1.3351    0.0000 S   0  0  0  0  0  0  0  0  0  0  0  0
    4.3540   -1.3351    0.0000 C   0  0  0  0  0  0  0  0  0  0  0  0
    3.5722   -0.2526    0.0000 N   0  0  0  0  0  0  0  0  0  0  0  0
    2.3093   -0.6615    0.0000 C   0  0  0  0  0  0  0  0  0  0  0  0
    2.3093   -1.9966    0.0000 C   0  0  0  0  0  0  0  0  0  0  0  0
    1.1547   -2.6581    0.0000 C   0  0  0  0  0  0  0  0  0  0  0  0
    0.0000   -1.9966    0.0000 C   0  0  0  0  0  0  0  0  0  0  0  0
    0.0000   -0.6615    0.0000 C   0  0  0  0  0  0  0  0  0  0  0  0
    1.1547    0.0000    0.0000 C   0  0  0  0  0  0  0  0  0  0  0  0
    3.5722   -2.4055    0.0000 S   0  0  0  0  0  0  0  0  0  0  0  0
    8.4554   -3.5602    0.0000 S   0  0  0  0  0  0  0  0  0  0  0  0
    9.7183   -3.1512    0.0000 C   0  0  0  0  0  0  0  0  0  0  0  0
    9.7183   -1.8162    0.0000 C   0  0  0  0  0  0  0  0  0  0  0  0
   10.8730   -1.1547    0.0000 C   0  0  0  0  0  0  0  0  0  0  0  0
   12.0276   -1.8162    0.0000 C   0  0  0  0  0  0  0  0  0  0  0  0
   12.0276   -3.1512    0.0000 C   0  0  0  0  0  0  0  0  0  0  0  0
   10.8730   -3.8128    0.0000 C   0  0  0  0  0  0  0  0  0  0  0  0
  1  2  2  0  0  0  0
  1 16  1  0  0  0  0
  2  3  1  0  0  0  0
  2 14  1  0  0  0  0
  3  4  1  0  0  0  0
  4  5  1  0  0  0  0
  5  6  2  0  0  0  0
  5 13  1  0  0  0  0
  6  7  1  0  0  0  0
  7  8  2  0  0  0  0
  7 12  1  0  0  0  0
  8  9  1  0  0  0  0
  8 13  1  0  0  0  0
  9 10  2  0  0  0  0
 10 11  1  0  0  0  0
 11 12  2  0  0  0  0
 14 15  1  0  0  0  0
 15 16  2  0  0  0  0
 15 20  1  0  0  0  0
 16 17  1  0  0  0  0
 17 18  2  0  0  0  0
 18 19  1  0  0  0  0
 19 20  2  0  0  0  0
M  END
> <ID>
143

> <Formula>
C14H8N2S4

> <FW>
332.4867

> <DSSTox_CID>
146

> <DSSTox_RID>
75399

> <DSSTox_GSID>
20146

> <DSSTox_FileID_Sort>
83

> <TS_ChemName>
2,2'-Dithiobisbenzothiazole

> <TS_ChemName_Synonyms>
2,2'-Dithiobisbenzothiazole (2,2'-Dithiobis(benzothiazole)) (Benzothiazyl disulfide) (Benzothiazole, 2,2'-dithiobis-) (2,2'-Dithiobis-benzothiazole)

> <TS_CASRN>
120-78-5

> <CASRN_ChemName_Relationship>
primary

> <TS_Description>
single chemical compound

> <ChemNote>


> <STRUCTURE_Shown>
tested chemical

> <STRUCTURE_Formula>
C14H8N2S4

> <STRUCTURE_MW>
332.4867

> <STRUCTURE_ChemType>
defined organic

> <STRUCTURE_DefinedOrganicForm>
parent

> <STRUCTURE_IUPAC>
2,2'-disulfanediylbis(1,3-benzothiazole)

> <STRUCTURE_SMILES>
c1cccc2sc(nc12)SSc3nc4ccccc4s3

> <STRUCTURE_SMILES_Desalt>
c1cccc2sc(nc12)SSc3nc4ccccc4s3

> <Substance_modify_yyyymmdd>
20080429

$$$$
