120-71-8
ChemmineR-0914142331XD

 10 10  0  0  0  0  0  0  0  0  1 V2000
    1.9929    0.0000    0.0000 N   0  0  0  0  0  0  0  0  0  0  0  0
    2.6571   -1.1490    0.0000 C   0  0  0  0  0  0  0  0  0  0  0  0
    3.9917   -1.1490    0.0000 C   0  0  0  0  0  0  0  0  0  0  0  0
    4.6560   -2.3040    0.0000 C   0  0  0  0  0  0  0  0  0  0  0  0
    3.9917   -3.4531    0.0000 C   0  0  0  0  0  0  0  0  0  0  0  0
    2.6571   -3.4531    0.0000 C   0  0  0  0  0  0  0  0  0  0  0  0
    1.9929   -2.3040    0.0000 C   0  0  0  0  0  0  0  0  0  0  0  0
    0.6643   -2.3040    0.0000 O   0  0  0  0  0  0  0  0  0  0  0  0
    0.0000   -3.4531    0.0000 C   0  0  0  0  0  0  0  0  0  0  0  0
    5.9845   -2.3040    0.0000 C   0  0  0  0  0  0  0  0  0  0  0  0
  1  2  1  0  0  0  0
  2  3  2  0  0  0  0
  2  7  1  0  0  0  0
  3  4  1  0  0  0  0
  4  5  2  0  0  0  0
  4 10  1  0  0  0  0
  5  6  1  0  0  0  0
  6  7  2  0  0  0  0
  7  8  1  0  0  0  0
  8  9  1  0  0  0  0
M  END
> <ID>
340

> <Formula>
C8H11NO

> <FW>
137.179

> <DSSTox_CID>
350

> <DSSTox_RID>
75531

> <DSSTox_GSID>
20350

> <DSSTox_FileID_Sort>
215

> <TS_ChemName>
2-Methoxy-5-methylaniline

> <TS_ChemName_Synonyms>
2-Methoxy-5-methylaniline (p-Cresidine) (Benzenamine, 2-methoxy-5-methyl-) (2-Methoxy-5-methyl-phenylamine)

> <TS_CASRN>
120-71-8

> <CASRN_ChemName_Relationship>
primary

> <TS_Description>
single chemical compound

> <ChemNote>


> <STRUCTURE_Shown>
tested chemical

> <STRUCTURE_Formula>
C8H11NO

> <STRUCTURE_MW>
137.179

> <STRUCTURE_ChemType>
defined organic

> <STRUCTURE_DefinedOrganicForm>
parent

> <STRUCTURE_IUPAC>
2-methoxy-5-methylaniline

> <STRUCTURE_SMILES>
Nc1cc(C)ccc1OC

> <STRUCTURE_SMILES_Desalt>
Nc1cc(C)ccc1OC

> <Substance_modify_yyyymmdd>
20080429

$$$$
