120-80-9
ChemmineR-0914142331XD

  8  8  0  0  0  0  0  0  0  0  1 V2000
    0.0000   -2.3027    0.0000 O   0  0  0  0  0  0  0  0  0  0  0  0
    1.3289   -2.3027    0.0000 C   0  0  0  0  0  0  0  0  0  0  0  0
    1.9954   -1.1533    0.0000 C   0  0  0  0  0  0  0  0  0  0  0  0
    3.3243   -1.1533    0.0000 C   0  0  0  0  0  0  0  0  0  0  0  0
    3.9907   -2.3027    0.0000 C   0  0  0  0  0  0  0  0  0  0  0  0
    3.3243   -3.4560    0.0000 C   0  0  0  0  0  0  0  0  0  0  0  0
    1.9954   -3.4560    0.0000 C   0  0  0  0  0  0  0  0  0  0  0  0
    1.3289    0.0000    0.0000 O   0  0  0  0  0  0  0  0  0  0  0  0
  1  2  1  0  0  0  0
  2  3  2  0  0  0  0
  2  7  1  0  0  0  0
  3  4  1  0  0  0  0
  3  8  1  0  0  0  0
  4  5  2  0  0  0  0
  5  6  1  0  0  0  0
  6  7  2  0  0  0  0
M  END
> <ID>
251

> <Formula>
C6H6O2

> <FW>
110.1106

> <DSSTox_CID>
257

> <DSSTox_RID>
75468

> <DSSTox_GSID>
20257

> <DSSTox_FileID_Sort>
152

> <TS_ChemName>
Catechol

> <TS_ChemName_Synonyms>
Catechol (1,2-Benzenediol) (Pyrocatechol)

> <TS_CASRN>
120-80-9

> <CASRN_ChemName_Relationship>
primary

> <TS_Description>
single chemical compound

> <ChemNote>


> <STRUCTURE_Shown>
tested chemical

> <STRUCTURE_Formula>
C6H6O2

> <STRUCTURE_MW>
110.1106

> <STRUCTURE_ChemType>
defined organic

> <STRUCTURE_DefinedOrganicForm>
parent

> <STRUCTURE_IUPAC>
benzene-1,2-diol

> <STRUCTURE_SMILES>
Oc1ccccc1O

> <STRUCTURE_SMILES_Desalt>
Oc1ccccc1O

> <Substance_modify_yyyymmdd>
20080429

$$$$
