120-97-8
ChemmineR-0914142331XD

 16 16  0  0  0  0  0  0  0  0  1 V2000
    4.6526   -2.3037    0.0000 C    0  0  0  0  0  0  0  0  0  0  0  0
    5.3191   -1.1518    0.0000 S    0  0  0  0  0  0  0  0  0  0  0  0
    5.9857    0.0000    0.0000 N    0  0  0  0  0  0  0  0  0  0  0  0
    6.4710   -1.8183    0.0000 O    0  0  0  0  0  0  0  0  0  0  0  0
    4.1673   -0.4853    0.0000 O    0  0  0  0  0  0  0  0  0  0  0  0
    5.3191   -3.4555    0.0000 C    0  0  0  0  0  0  0  0  0  0  0  0
    4.6526   -4.6073    0.0000 C    0  0  0  0  0  0  0  0  0  0  0  0
    5.3191   -5.7592    0.0000 Cl   0  0  0  0  0  0  0  0  0  0  0  0
    3.3261   -4.6073    0.0000 C    0  0  0  0  0  0  0  0  0  0  0  0
    2.6596   -5.7592    0.0000 Cl   0  0  0  0  0  0  0  0  0  0  0  0
    2.6596   -3.4555    0.0000 C    0  0  0  0  0  0  0  0  0  0  0  0
    1.3330   -3.4555    0.0000 S    0  0  0  0  0  0  0  0  0  0  0  0
    0.0000   -3.4555    0.0000 N    0  0  0  0  0  0  0  0  0  0  0  0
    1.3330   -4.7885    0.0000 O    0  0  0  0  0  0  0  0  0  0  0  0
    1.3330   -2.1290    0.0000 O    0  0  0  0  0  0  0  0  0  0  0  0
    3.3261   -2.3037    0.0000 C    0  0  0  0  0  0  0  0  0  0  0  0
  1  2  1  0  0  0  0
  1  6  2  0  0  0  0
  1 16  1  0  0  0  0
  2  3  1  0  0  0  0
  2  4  2  0  0  0  0
  2  5  2  0  0  0  0
  6  7  1  0  0  0  0
  7  8  1  0  0  0  0
  7  9  2  0  0  0  0
  9 10  1  0  0  0  0
  9 11  1  0  0  0  0
 11 12  1  0  0  0  0
 11 16  2  0  0  0  0
 12 13  1  0  0  0  0
 12 14  2  0  0  0  0
 12 15  2  0  0  0  0
M  END
> <ID>
2632

> <Formula>
C6H6Cl2N2O4S2

> <FW>
305.1588

> <DSSTox_CID>
2922

> <DSSTox_RID>
76789

> <DSSTox_GSID>
22922

> <DSSTox_FileID_Sort>
1473

> <TS_ChemName>
Dichlorphenamide

> <TS_ChemName_Synonyms>


> <TS_CASRN>
120-97-8

> <CASRN_ChemName_Relationship>
primary

> <TS_Description>
single chemical compound

> <ChemNote>


> <STRUCTURE_Shown>
tested chemical

> <STRUCTURE_Formula>
C6H6Cl2N2O4S2

> <STRUCTURE_MW>
305.1588

> <STRUCTURE_ChemType>
defined organic

> <STRUCTURE_DefinedOrganicForm>
parent

> <STRUCTURE_IUPAC>
4,5-dichlorobenzene-1,3-disulfonamide

> <STRUCTURE_SMILES>
Clc1c(cc(cc1Cl)S(N)(=O)=O)S(N)(=O)=O

> <STRUCTURE_SMILES_Desalt>
Clc1c(cc(cc1Cl)S(N)(=O)=O)S(N)(=O)=O

> <Substance_modify_yyyymmdd>
20080429

$$$$
