121-19-7
ChemmineR-0914142331XD

 14 14  0  0  0  0  0  0  0  0  2 V2000
    6.4268   -1.5065    0.0000 O    0  0  0  0  0  0  0  0  0  0  0  0
    5.7565   -2.6606    0.0000 As   0  0  0  0  0  0  0  0  0  0  0  0
    6.9105   -3.3240    0.0000 O    0  0  0  0  0  0  0  0  0  0  0  0
    4.6093   -1.9902    0.0000 C    0  0  0  0  0  0  0  0  0  0  0  0
    3.4553   -2.6606    0.0000 C    0  0  0  0  0  0  0  0  0  0  0  0
    2.3012   -1.9902    0.0000 C    0  0  0  0  0  0  0  0  0  0  0  0
    2.3012   -0.6634    0.0000 C    0  0  0  0  0  0  0  0  0  0  0  0
    3.4553    0.0000    0.0000 C    0  0  0  0  0  0  0  0  0  0  0  0
    4.6093   -0.6634    0.0000 C    0  0  0  0  0  0  0  0  0  0  0  0
    1.1541    0.0000    0.0000 O    0  0  0  0  0  0  0  0  0  0  0  0
    1.1541   -2.6606    0.0000 N    0  3  0  0  0  0  0  0  0  0  0  0
    1.1541   -3.9874    0.0000 O    0  0  0  0  0  0  0  0  0  0  0  0
    0.0000   -1.9902    0.0000 O    0  5  0  0  0  0  0  0  0  0  0  0
    5.0931   -3.8077    0.0000 O    0  0  0  0  0  0  0  0  0  0  0  0
  1  2  1  0  0  0  0
  2  3  2  0  0  0  0
  2  4  1  0  0  0  0
  2 14  1  0  0  0  0
  4  5  2  0  0  0  0
  4  9  1  0  0  0  0
  5  6  1  0  0  0  0
  6  7  2  0  0  0  0
  6 11  1  0  0  0  0
  7  8  1  0  0  0  0
  7 10  1  0  0  0  0
  8  9  2  0  0  0  0
 11 12  2  0  0  0  0
 11 13  1  0  0  0  0
M  END
> <ID>
920

> <Formula>
C6H6AsNO6

> <FW>
263.0365

> <DSSTox_CID>
956

> <DSSTox_RID>
75884

> <DSSTox_GSID>
20956

> <DSSTox_FileID_Sort>
568

> <TS_ChemName>
4-Hydroxy-3-nitrophenylarsonic acid

> <TS_ChemName_Synonyms>
4-Hydroxy-3-nitrophenylarsonic acid (Roxarsone)

> <TS_CASRN>
121-19-7

> <CASRN_ChemName_Relationship>
primary

> <TS_Description>
single chemical compound

> <ChemNote>


> <STRUCTURE_Shown>
tested chemical

> <STRUCTURE_Formula>
C6H6AsNO6

> <STRUCTURE_MW>
263.0365

> <STRUCTURE_ChemType>
organometallic

> <STRUCTURE_DefinedOrganicForm>


> <STRUCTURE_IUPAC>
(4-hydroxy-3-nitrophenyl)arsonic acid

> <STRUCTURE_SMILES>
O=[N+]([O-])c1cc(ccc1O)[As](O)(O)=O

> <STRUCTURE_SMILES_Desalt>
O=[N+]([O-])c1cc(ccc1O)[As](O)(O)=O

> <Substance_modify_yyyymmdd>
20080429

$$$$
