121-66-4
ChemmineR-0914142331XD

  9  9  0  0  0  0  0  0  0  0  2 V2000
    5.1188   -0.2969    0.0000 O   0  0  0  0  0  0  0  0  0  0  0  0
    4.4533   -1.4486    0.0000 N   0  3  0  0  0  0  0  0  0  0  0  0
    3.1225   -1.4486    0.0000 C   0  0  0  0  0  0  0  0  0  0  0  0
    2.3393   -2.5236    0.0000 C   0  0  0  0  0  0  0  0  0  0  0  0
    1.0749   -2.1141    0.0000 N   0  0  0  0  0  0  0  0  0  0  0  0
    1.0749   -0.7832    0.0000 C   0  0  0  0  0  0  0  0  0  0  0  0
    2.3393   -0.3737    0.0000 S   0  0  0  0  0  0  0  0  0  0  0  0
    0.0000    0.0000    0.0000 N   0  0  0  0  0  0  0  0  0  0  0  0
    5.1188   -2.6003    0.0000 O   0  5  0  0  0  0  0  0  0  0  0  0
  1  2  2  0  0  0  0
  2  3  1  0  0  0  0
  2  9  1  0  0  0  0
  3  4  2  0  0  0  0
  3  7  1  0  0  0  0
  4  5  1  0  0  0  0
  5  6  2  0  0  0  0
  6  7  1  0  0  0  0
  6  8  1  0  0  0  0
M  END
> <ID>
65

> <Formula>
C3H3N3O2S

> <FW>
145.1398

> <DSSTox_CID>
66

> <DSSTox_RID>
75344

> <DSSTox_GSID>
20066

> <DSSTox_FileID_Sort>
28

> <TS_ChemName>
2-Amino-5-nitrothiazole

> <TS_ChemName_Synonyms>


> <TS_CASRN>
121-66-4

> <CASRN_ChemName_Relationship>
primary

> <TS_Description>
single chemical compound

> <ChemNote>


> <STRUCTURE_Shown>
tested chemical

> <STRUCTURE_Formula>
C3H3N3O2S

> <STRUCTURE_MW>
145.1398

> <STRUCTURE_ChemType>
defined organic

> <STRUCTURE_DefinedOrganicForm>
parent

> <STRUCTURE_IUPAC>
5-nitro-1,3-thiazol-2-amine

> <STRUCTURE_SMILES>
[O-][N+](=O)c1cnc(N)s1

> <STRUCTURE_SMILES_Desalt>
[O-][N+](=O)c1cnc(N)s1

> <Substance_modify_yyyymmdd>
20080429

$$$$
