121-33-5
ChemmineR-0914142331XD

 11 11  0  0  0  0  0  0  0  0  1 V2000
    4.6094   -1.9972    0.0000 C   0  0  0  0  0  0  0  0  0  0  0  0
    5.7565   -2.6606    0.0000 C   0  0  0  0  0  0  0  0  0  0  0  0
    6.9106   -1.9972    0.0000 O   0  0  0  0  0  0  0  0  0  0  0  0
    3.4553   -2.6606    0.0000 C   0  0  0  0  0  0  0  0  0  0  0  0
    2.3012   -1.9972    0.0000 C   0  0  0  0  0  0  0  0  0  0  0  0
    1.1541   -2.6606    0.0000 O   0  0  0  0  0  0  0  0  0  0  0  0
    0.0000   -1.9972    0.0000 C   0  0  0  0  0  0  0  0  0  0  0  0
    2.3012   -0.6634    0.0000 C   0  0  0  0  0  0  0  0  0  0  0  0
    1.1541    0.0000    0.0000 O   0  0  0  0  0  0  0  0  0  0  0  0
    3.4553    0.0000    0.0000 C   0  0  0  0  0  0  0  0  0  0  0  0
    4.6094   -0.6634    0.0000 C   0  0  0  0  0  0  0  0  0  0  0  0
  1  2  1  0  0  0  0
  1  4  2  0  0  0  0
  1 11  1  0  0  0  0
  2  3  2  0  0  0  0
  4  5  1  0  0  0  0
  5  6  1  0  0  0  0
  5  8  2  0  0  0  0
  6  7  1  0  0  0  0
  8  9  1  0  0  0  0
  8 10  1  0  0  0  0
 10 11  2  0  0  0  0
M  END
> <ID>
1829

> <Formula>
C8H8O3

> <FW>
152.1473

> <DSSTox_CID>
1969

> <DSSTox_RID>
76433

> <DSSTox_GSID>
21969

> <DSSTox_FileID_Sort>
1117

> <TS_ChemName>
4-Hydroxy-3-methoxybenzaldehyde

> <TS_ChemName_Synonyms>
4-Hydroxy-3-methoxybenzaldehyde (Vanillin)

> <TS_CASRN>
121-33-5

> <CASRN_ChemName_Relationship>
primary

> <TS_Description>
single chemical compound

> <ChemNote>


> <STRUCTURE_Shown>
tested chemical

> <STRUCTURE_Formula>
C8H8O3

> <STRUCTURE_MW>
152.1473

> <STRUCTURE_ChemType>
defined organic

> <STRUCTURE_DefinedOrganicForm>
parent

> <STRUCTURE_IUPAC>
4-hydroxy-3-methoxybenzaldehyde

> <STRUCTURE_SMILES>
Oc1ccc(cc1OC)C=O

> <STRUCTURE_SMILES_Desalt>
Oc1ccc(cc1OC)C=O

> <Substance_modify_yyyymmdd>
20080429

$$$$
