121-73-3
ChemmineR-0914142331XD

 10 10  0  0  0  0  0  0  0  0  2 V2000
    0.0000    0.0000    0.0000 Cl   0  0  0  0  0  0  0  0  0  0  0  0
    0.6656   -1.1497    0.0000 C    0  0  0  0  0  0  0  0  0  0  0  0
    1.9968   -1.1497    0.0000 C    0  0  0  0  0  0  0  0  0  0  0  0
    2.6577   -2.3040    0.0000 C    0  0  0  0  0  0  0  0  0  0  0  0
    3.9889   -2.3040    0.0000 N    0  3  0  0  0  0  0  0  0  0  0  0
    4.6545   -3.4536    0.0000 O    0  0  0  0  0  0  0  0  0  0  0  0
    4.6545   -1.1497    0.0000 O    0  5  0  0  0  0  0  0  0  0  0  0
    1.9968   -3.4536    0.0000 C    0  0  0  0  0  0  0  0  0  0  0  0
    0.6656   -3.4536    0.0000 C    0  0  0  0  0  0  0  0  0  0  0  0
    0.0000   -2.3040    0.0000 C    0  0  0  0  0  0  0  0  0  0  0  0
  1  2  1  0  0  0  0
  2  3  2  0  0  0  0
  2 10  1  0  0  0  0
  3  4  1  0  0  0  0
  4  5  1  0  0  0  0
  4  8  2  0  0  0  0
  5  6  2  0  0  0  0
  5  7  1  0  0  0  0
  8  9  1  0  0  0  0
  9 10  2  0  0  0  0
M  END
> <ID>
1830

> <Formula>
C6H4ClNO2

> <FW>
157.5545

> <DSSTox_CID>
1971

> <DSSTox_RID>
76434

> <DSSTox_GSID>
21971

> <DSSTox_FileID_Sort>
1118

> <TS_ChemName>
1-Chloro-3-nitrobenzene

> <TS_ChemName_Synonyms>
1-Chloro-3-nitrobenzene (m-Chloronitrobenzene) (3-Chloronitrobenzene)

> <TS_CASRN>
121-73-3

> <CASRN_ChemName_Relationship>
primary

> <TS_Description>
single chemical compound

> <ChemNote>


> <STRUCTURE_Shown>
tested chemical

> <STRUCTURE_Formula>
C6H4ClNO2

> <STRUCTURE_MW>
157.5545

> <STRUCTURE_ChemType>
defined organic

> <STRUCTURE_DefinedOrganicForm>
parent

> <STRUCTURE_IUPAC>
1-chloro-3-nitrobenzene

> <STRUCTURE_SMILES>
O=[N+]([O-])c1cc(Cl)ccc1

> <STRUCTURE_SMILES_Desalt>
O=[N+]([O-])c1cc(Cl)ccc1

> <Substance_modify_yyyymmdd>
20080429

$$$$
