1213-06-5
ChemmineR-0914142331XD

 17 17  0  0  0  0  0  0  0  0  1 V2000
    4.6520   -2.2981    0.0000 C   0  0  0  0  0  0  0  0  0  0  0  0
    5.9825   -2.2981    0.0000 S   0  0  0  0  0  0  0  0  0  0  0  0
    5.9825   -3.6286    0.0000 O   0  0  0  0  0  0  0  0  0  0  0  0
    5.9825   -0.9676    0.0000 O   0  0  0  0  0  0  0  0  0  0  0  0
    7.3130   -2.2981    0.0000 N   0  0  0  0  0  0  0  0  0  0  0  0
    7.9736   -1.1444    0.0000 C   0  0  0  0  0  0  0  0  0  0  0  0
    7.3130    0.0000    0.0000 C   0  0  0  0  0  0  0  0  0  0  0  0
    7.9736   -3.4518    0.0000 C   0  0  0  0  0  0  0  0  0  0  0  0
    9.3040   -3.4518    0.0000 C   0  0  0  0  0  0  0  0  0  0  0  0
    3.9914   -3.4518    0.0000 C   0  0  0  0  0  0  0  0  0  0  0  0
    2.6610   -3.4518    0.0000 C   0  0  0  0  0  0  0  0  0  0  0  0
    1.9911   -2.2981    0.0000 C   0  0  0  0  0  0  0  0  0  0  0  0
    0.6606   -2.2981    0.0000 C   0  0  0  0  0  0  0  0  0  0  0  0
    0.0000   -3.4518    0.0000 O   0  0  0  0  0  0  0  0  0  0  0  0
    0.0000   -1.1444    0.0000 O   0  0  0  0  0  0  0  0  0  0  0  0
    2.6610   -1.1444    0.0000 C   0  0  0  0  0  0  0  0  0  0  0  0
    3.9914   -1.1444    0.0000 C   0  0  0  0  0  0  0  0  0  0  0  0
  1  2  1  0  0  0  0
  1 10  2  0  0  0  0
  1 17  1  0  0  0  0
  2  3  2  0  0  0  0
  2  4  2  0  0  0  0
  2  5  1  0  0  0  0
  5  6  1  0  0  0  0
  5  8  1  0  0  0  0
  6  7  1  0  0  0  0
  8  9  1  0  0  0  0
 10 11  1  0  0  0  0
 11 12  2  0  0  0  0
 12 13  1  0  0  0  0
 12 16  1  0  0  0  0
 13 14  2  0  0  0  0
 13 15  1  0  0  0  0
 16 17  2  0  0  0  0
M  END
> <ID>
2710

> <Formula>
C11H15NO4S

> <FW>
257.3061

> <DSSTox_CID>
3011

> <DSSTox_RID>
76830

> <DSSTox_GSID>
23011

> <DSSTox_FileID_Sort>
1514

> <TS_ChemName>
Ethebenecid

> <TS_ChemName_Synonyms>


> <TS_CASRN>
1213-06-5

> <CASRN_ChemName_Relationship>
primary

> <TS_Description>
single chemical compound

> <ChemNote>


> <STRUCTURE_Shown>
tested chemical

> <STRUCTURE_Formula>
C11H15NO4S

> <STRUCTURE_MW>
257.3061

> <STRUCTURE_ChemType>
defined organic

> <STRUCTURE_DefinedOrganicForm>
parent

> <STRUCTURE_IUPAC>
4-(diethylsulfamoyl)benzoic acid

> <STRUCTURE_SMILES>
O=S(=O)(N(CC)CC)c1ccc(cc1)C(=O)O

> <STRUCTURE_SMILES_Desalt>
O=S(=O)(N(CC)CC)c1ccc(cc1)C(=O)O

> <Substance_modify_yyyymmdd>
20080429

$$$$
