122-34-9
ChemmineR-0914142331XD

 13 13  0  0  0  0  0  0  0  0  1 V2000
    1.9952    0.0000    0.0000 Cl   0  0  0  0  0  0  0  0  0  0  0  0
    2.6577   -1.1572    0.0000 C    0  0  0  0  0  0  0  0  0  0  0  0
    3.9905   -1.1572    0.0000 N    0  0  0  0  0  0  0  0  0  0  0  0
    4.6529   -2.3065    0.0000 C    0  0  0  0  0  0  0  0  0  0  0  0
    3.9905   -3.4558    0.0000 N    0  0  0  0  0  0  0  0  0  0  0  0
    2.6577   -3.4558    0.0000 C    0  0  0  0  0  0  0  0  0  0  0  0
    1.9952   -2.3065    0.0000 N    0  0  0  0  0  0  0  0  0  0  0  0
    1.9952   -4.6130    0.0000 N    0  0  0  0  0  0  0  0  0  0  0  0
    0.6624   -4.6130    0.0000 C    0  0  0  0  0  0  0  0  0  0  0  0
    0.0000   -5.7623    0.0000 C    0  0  0  0  0  0  0  0  0  0  0  0
    5.9857   -2.3065    0.0000 N    0  0  0  0  0  0  0  0  0  0  0  0
    6.6482   -3.4558    0.0000 C    0  0  0  0  0  0  0  0  0  0  0  0
    7.9810   -3.4558    0.0000 C    0  0  0  0  0  0  0  0  0  0  0  0
  1  2  1  0  0  0  0
  2  3  2  0  0  0  0
  2  7  1  0  0  0  0
  3  4  1  0  0  0  0
  4  5  2  0  0  0  0
  4 11  1  0  0  0  0
  5  6  1  0  0  0  0
  6  7  2  0  0  0  0
  6  8  1  0  0  0  0
  8  9  1  0  0  0  0
  9 10  1  0  0  0  0
 11 12  1  0  0  0  0
 12 13  1  0  0  0  0
M  END
> <ID>
1219

> <Formula>
C7H12ClN5

> <FW>
201.6567

> <DSSTox_CID>
1268

> <DSSTox_RID>
76048

> <DSSTox_GSID>
21268

> <DSSTox_FileID_Sort>
732

> <TS_ChemName>
Simazine

> <TS_ChemName_Synonyms>
Simazine (1,3,5-Triazine-2,4-diamine, 6-chloro-N,N'-diethyl-) (Princep)

> <TS_CASRN>
122-34-9

> <CASRN_ChemName_Relationship>
primary

> <TS_Description>
single chemical compound

> <ChemNote>


> <STRUCTURE_Shown>
tested chemical

> <STRUCTURE_Formula>
C7H12ClN5

> <STRUCTURE_MW>
201.6567

> <STRUCTURE_ChemType>
defined organic

> <STRUCTURE_DefinedOrganicForm>
parent

> <STRUCTURE_IUPAC>
6-chloro-N,N'-diethyl-1,3,5-triazine-2,4-diamine

> <STRUCTURE_SMILES>
Clc1nc(NCC)nc(NCC)n1

> <STRUCTURE_SMILES_Desalt>
Clc1nc(NCC)nc(NCC)n1

> <Substance_modify_yyyymmdd>
20080429

$$$$
