123-31-9
ChemmineR-0914142331XD

  8  8  0  0  0  0  0  0  0  0  1 V2000
    0.0000   -1.1545    0.0000 O   0  0  0  0  0  0  0  0  0  0  0  0
    1.3300   -1.1545    0.0000 C   0  0  0  0  0  0  0  0  0  0  0  0
    1.9950    0.0000    0.0000 C   0  0  0  0  0  0  0  0  0  0  0  0
    3.3250    0.0000    0.0000 C   0  0  0  0  0  0  0  0  0  0  0  0
    3.9900   -1.1545    0.0000 C   0  0  0  0  0  0  0  0  0  0  0  0
    3.3250   -2.3036    0.0000 C   0  0  0  0  0  0  0  0  0  0  0  0
    1.9950   -2.3036    0.0000 C   0  0  0  0  0  0  0  0  0  0  0  0
    5.3201   -1.1545    0.0000 O   0  0  0  0  0  0  0  0  0  0  0  0
  1  2  1  0  0  0  0
  2  3  2  0  0  0  0
  2  7  1  0  0  0  0
  3  4  1  0  0  0  0
  4  5  2  0  0  0  0
  5  6  1  0  0  0  0
  5  8  1  0  0  0  0
  6  7  2  0  0  0  0
M  END
> <ID>
686

> <Formula>
C6H6O2

> <FW>
110.1106

> <DSSTox_CID>
716

> <DSSTox_RID>
75754

> <DSSTox_GSID>
20716

> <DSSTox_FileID_Sort>
438

> <TS_ChemName>
Hydroquinone

> <TS_ChemName_Synonyms>
Hydroquinone (1,4-Benzenediol)

> <TS_CASRN>
123-31-9

> <CASRN_ChemName_Relationship>
primary

> <TS_Description>
single chemical compound

> <ChemNote>


> <STRUCTURE_Shown>
tested chemical

> <STRUCTURE_Formula>
C6H6O2

> <STRUCTURE_MW>
110.1106

> <STRUCTURE_ChemType>
defined organic

> <STRUCTURE_DefinedOrganicForm>
parent

> <STRUCTURE_IUPAC>
benzene-1,4-diol

> <STRUCTURE_SMILES>
Oc1ccc(O)cc1

> <STRUCTURE_SMILES_Desalt>
Oc1ccc(O)cc1

> <Substance_modify_yyyymmdd>
20080429

$$$$
