123524-52-7
ChemmineR-0914142331XD

 43 47  0  0  0  0  0  0  0  0  2 V2000
    4.6201   -6.8208    0.0000 C   0  0  0  0  0  0  0  0  0  0  0  0
    4.6201   -8.1464    0.0000 N   0  0  0  0  0  0  0  0  0  0  0  0
    5.9457   -8.1464    0.0000 C   0  0  0  0  0  0  0  0  0  0  0  0
    5.9457   -6.8208    0.0000 C   0  0  0  0  0  0  0  0  0  0  0  0
    5.9972   -2.6511    0.0000 C   0  0  0  0  0  0  0  0  0  0  0  0
    5.9972   -3.9767    0.0000 C   0  0  0  0  0  0  0  0  0  0  0  0
    7.1297   -4.6330    0.0000 C   0  0  0  0  0  0  0  0  0  0  0  0
    8.2880   -3.9767    0.0000 C   0  0  0  0  0  0  0  0  0  0  0  0
    8.2880   -2.6511    0.0000 C   0  0  0  0  0  0  0  0  0  0  0  0
    7.1297   -1.9819    0.0000 C   0  0  0  0  0  0  0  0  0  0  0  0
    4.8389   -4.6330    0.0000 N   0  3  0  0  0  0  0  0  0  0  0  0
    4.8389   -5.9586    0.0000 O   0  5  0  0  0  0  0  0  0  0  0  0
    3.7064   -3.9767    0.0000 O   0  0  0  0  0  0  0  0  0  0  0  0
    9.4205   -4.6330    0.0000 C   0  0  0  0  0  0  0  0  0  0  0  0
    9.4205   -5.9586    0.0000 C   0  0  0  0  0  0  0  0  0  0  0  0
   10.5787   -6.6149    0.0000 C   0  0  0  0  0  0  0  0  0  0  0  0
   11.7112   -5.9586    0.0000 N   0  0  0  0  0  0  0  0  0  0  0  0
   11.7112   -4.6330    0.0000 C   0  0  0  0  0  0  0  0  0  0  0  0
   10.5787   -3.9767    0.0000 C   0  0  0  0  0  0  0  0  0  0  0  0
   12.8695   -3.9767    0.0000 C   0  0  0  0  0  0  0  0  0  0  0  0
   10.5787   -2.6511    0.0000 C   0  0  0  0  0  0  0  0  0  0  0  0
   11.7112   -1.9819    0.0000 O   0  0  0  0  0  0  0  0  0  0  0  0
    9.4205   -1.9819    0.0000 O   0  0  0  0  0  0  0  0  0  0  0  0
    9.4205   -0.6692    0.0000 C   0  0  0  0  0  0  0  0  0  0  0  0
   10.5787    0.0000    0.0000 C   0  0  0  0  0  0  0  0  0  0  0  0
    8.2880    0.0000    0.0000 C   0  0  0  0  0  0  0  0  0  0  0  0
   10.5787   -7.9405    0.0000 N   0  0  0  0  0  0  0  0  0  0  0  0
    8.2493   -6.6149    0.0000 C   0  0  0  0  0  0  0  0  0  0  0  0
    7.0782   -5.9586    0.0000 O   0  0  0  0  0  0  0  0  0  0  0  0
    8.2493   -7.9405    0.0000 O   0  0  0  0  0  0  0  0  0  0  0  0
    3.4619   -8.8027    0.0000 C   0  0  0  0  0  0  0  0  0  0  0  0
    2.3036   -8.1464    0.0000 C   0  0  0  0  0  0  0  0  0  0  0  0
    3.4619  -10.1540    0.0000 C   0  0  0  0  0  0  0  0  0  0  0  0
    1.1583   -8.8027    0.0000 C   0  0  0  0  0  0  0  0  0  0  0  0
    0.0000   -8.1464    0.0000 C   0  0  0  0  0  0  0  0  0  0  0  0
    0.0000   -6.8080    0.0000 C   0  0  0  0  0  0  0  0  0  0  0  0
    1.1583   -6.1516    0.0000 C   0  0  0  0  0  0  0  0  0  0  0  0
    2.3036   -6.8080    0.0000 C   0  0  0  0  0  0  0  0  0  0  0  0
    4.6201  -10.7975    0.0000 C   0  0  0  0  0  0  0  0  0  0  0  0
    4.6201  -12.1488    0.0000 C   0  0  0  0  0  0  0  0  0  0  0  0
    3.4619  -12.8180    0.0000 C   0  0  0  0  0  0  0  0  0  0  0  0
    2.3036  -12.1488    0.0000 C   0  0  0  0  0  0  0  0  0  0  0  0
    2.3036  -10.7975    0.0000 C   0  0  0  0  0  0  0  0  0  0  0  0
  1  2  1  0  0  0  0
  1  4  1  0  0  0  0
  2  3  1  0  0  0  0
  2 31  1  0  0  0  0
  3  4  1  0  0  0  0
  4 29  1  0  0  0  0
  5  6  2  0  0  0  0
  5 10  1  0  0  0  0
  6 11  1  0  0  0  0
  6  7  1  0  0  0  0
  7  8  2  0  0  0  0
  8 14  1  0  0  0  0
  8  9  1  0  0  0  0
  9 10  2  0  0  0  0
 11 12  1  0  0  0  0
 11 13  2  0  0  0  0
 14 15  1  0  0  0  0
 14 19  1  0  0  0  0
 15 28  1  0  0  0  0
 15 16  2  0  0  0  0
 16 27  1  0  0  0  0
 16 17  1  0  0  0  0
 17 18  1  0  0  0  0
 18 19  2  0  0  0  0
 18 20  1  0  0  0  0
 19 21  1  0  0  0  0
 21 22  2  0  0  0  0
 21 23  1  0  0  0  0
 23 24  1  0  0  0  0
 24 25  1  0  0  0  0
 24 26  1  0  0  0  0
 28 29  1  0  0  0  0
 28 30  2  0  0  0  0
 31 32  1  0  0  0  0
 31 33  1  0  0  0  0
 32 34  2  0  0  0  0
 32 38  1  0  0  0  0
 33 39  2  0  0  0  0
 33 43  1  0  0  0  0
 34 35  1  0  0  0  0
 35 36  2  0  0  0  0
 36 37  1  0  0  0  0
 37 38  2  0  0  0  0
 39 40  1  0  0  0  0
 40 41  2  0  0  0  0
 41 42  1  0  0  0  0
 42 43  2  0  0  0  0
M  END
> <ID>
117

> <Formula>
C33H34N4O6

> <FW>
582.6463

> <DSSTox_CID>
120

> <DSSTox_RID>
75382

> <DSSTox_GSID>
20120

> <DSSTox_FileID_Sort>
66

> <TS_ChemName>
Azelnidipine

> <TS_ChemName_Synonyms>


> <TS_CASRN>
123524-52-7

> <CASRN_ChemName_Relationship>
primary

> <TS_Description>
single chemical compound

> <ChemNote>


> <STRUCTURE_Shown>
tested chemical

> <STRUCTURE_Formula>
C33H34N4O6

> <STRUCTURE_MW>
582.6463

> <STRUCTURE_ChemType>
defined organic

> <STRUCTURE_DefinedOrganicForm>
parent

> <STRUCTURE_IUPAC>
3-[1-(diphenylmethyl)azetidin-3-yl] 5-propan-2-yl 2-amino-6-methyl-4-(3-nitrophenyl)-1,4-dihydropyridine-3,5-dicarboxylate

> <STRUCTURE_SMILES>
[O-][N+](=O)c1cccc(c1)C2C(C(=O)OC(C)C)=C(C)NC(N)=C2C(=O)OC3CN(C3)C(c4ccccc4)c5ccccc5

> <STRUCTURE_SMILES_Desalt>
[O-][N+](=O)c1cccc(c1)C2C(C(=O)OC(C)C)=C(C)NC(N)=C2C(=O)OC3CN(C3)C(c4ccccc4)c5ccccc5

> <Substance_modify_yyyymmdd>
20080429

$$$$
