124-48-1
ChemmineR-0914142331XD

  4  3  0  0  0  0  0  0  0  0  1 V2000
    1.9950    0.0000    0.0000 Cl   0  0  0  0  0  0  0  0  0  0  0  0
    1.3292   -1.1518    0.0000 C    0  0  0  0  0  0  0  0  0  0  0  0
    1.9950   -2.3037    0.0000 Br   0  0  0  0  0  0  0  0  0  0  0  0
    0.0000   -1.1518    0.0000 Br   0  0  0  0  0  0  0  0  0  0  0  0
  1  2  1  0  0  0  0
  2  3  1  0  0  0  0
  2  4  1  0  0  0  0
M  END
> <ID>
291

> <Formula>
CHBr2Cl

> <FW>
208.2796

> <DSSTox_CID>
300

> <DSSTox_RID>
75499

> <DSSTox_GSID>
20300

> <DSSTox_FileID_Sort>
183

> <TS_ChemName>
Chlorodibromomethane

> <TS_ChemName_Synonyms>
Dibromochloromethane

> <TS_CASRN>
124-48-1

> <CASRN_ChemName_Relationship>
primary

> <TS_Description>
single chemical compound

> <ChemNote>


> <STRUCTURE_Shown>
tested chemical

> <STRUCTURE_Formula>
CHBr2Cl

> <STRUCTURE_MW>
208.2796

> <STRUCTURE_ChemType>
defined organic

> <STRUCTURE_DefinedOrganicForm>
parent

> <STRUCTURE_IUPAC>
dibromo(chloro)methane

> <STRUCTURE_SMILES>
BrC(Br)Cl

> <STRUCTURE_SMILES_Desalt>
BrC(Br)Cl

> <Substance_modify_yyyymmdd>
20080429

$$$$
