124-04-9
ChemmineR-0914142331XD

 10  9  0  0  0  0  0  0  0  0  1 V2000
    0.0000   -1.3318    0.0000 O   0  0  0  0  0  0  0  0  0  0  0  0
    1.1542   -1.9936    0.0000 C   0  0  0  0  0  0  0  0  0  0  0  0
    2.3084   -1.3318    0.0000 C   0  0  0  0  0  0  0  0  0  0  0  0
    3.4626   -1.9936    0.0000 C   0  0  0  0  0  0  0  0  0  0  0  0
    4.6087   -1.3318    0.0000 C   0  0  0  0  0  0  0  0  0  0  0  0
    5.7629   -1.9936    0.0000 C   0  0  0  0  0  0  0  0  0  0  0  0
    6.9171   -1.3318    0.0000 C   0  0  0  0  0  0  0  0  0  0  0  0
    8.0713   -1.9936    0.0000 O   0  0  0  0  0  0  0  0  0  0  0  0
    6.9171    0.0000    0.0000 O   0  0  0  0  0  0  0  0  0  0  0  0
    1.1542   -3.3254    0.0000 O   0  0  0  0  0  0  0  0  0  0  0  0
  1  2  1  0  0  0  0
  2  3  1  0  0  0  0
  2 10  2  0  0  0  0
  3  4  1  0  0  0  0
  4  5  1  0  0  0  0
  5  6  1  0  0  0  0
  6  7  1  0  0  0  0
  7  8  1  0  0  0  0
  7  9  2  0  0  0  0
M  END
> <ID>
1542

> <Formula>
C6H10O4

> <FW>
146.1412

> <DSSTox_CID>
1605

> <DSSTox_RID>
76232

> <DSSTox_GSID>
21605

> <DSSTox_FileID_Sort>
916

> <TS_ChemName>
Hexanedioic acid

> <TS_ChemName_Synonyms>
Hexanedioic acid (Adipic acid)

> <TS_CASRN>
124-04-9

> <CASRN_ChemName_Relationship>
primary

> <TS_Description>
single chemical compound

> <ChemNote>


> <STRUCTURE_Shown>
tested chemical

> <STRUCTURE_Formula>
C6H10O4

> <STRUCTURE_MW>
146.1412

> <STRUCTURE_ChemType>
defined organic

> <STRUCTURE_DefinedOrganicForm>
parent

> <STRUCTURE_IUPAC>
hexanedioic acid

> <STRUCTURE_SMILES>
OC(=O)CCCCC(=O)O

> <STRUCTURE_SMILES_Desalt>
OC(=O)CCCCC(=O)O

> <Substance_modify_yyyymmdd>
20080429

$$$$
