126-00-1
ChemmineR-0914142331XD

 21 22  0  0  0  0  0  0  0  0  1 V2000
    2.3016   -5.3207    0.0000 C   0  0  0  0  0  0  0  0  0  0  0  0
    2.3016   -6.6532    0.0000 C   0  0  0  0  0  0  0  0  0  0  0  0
    1.1555   -7.3241    0.0000 C   0  0  0  0  0  0  0  0  0  0  0  0
    1.1555   -8.6567    0.0000 C   0  0  0  0  0  0  0  0  0  0  0  0
    2.3016   -9.3183    0.0000 O   0  0  0  0  0  0  0  0  0  0  0  0
    0.0000   -9.3183    0.0000 O   0  0  0  0  0  0  0  0  0  0  0  0
    2.3016   -3.9975    0.0000 C   0  0  0  0  0  0  0  0  0  0  0  0
    1.1555   -3.3266    0.0000 C   0  0  0  0  0  0  0  0  0  0  0  0
    1.1555   -1.9941    0.0000 C   0  0  0  0  0  0  0  0  0  0  0  0
    2.3016   -1.3325    0.0000 C   0  0  0  0  0  0  0  0  0  0  0  0
    3.4571   -1.9941    0.0000 C   0  0  0  0  0  0  0  0  0  0  0  0
    3.4571   -3.3266    0.0000 C   0  0  0  0  0  0  0  0  0  0  0  0
    2.3016    0.0000    0.0000 O   0  0  0  0  0  0  0  0  0  0  0  0
    3.6341   -5.3207    0.0000 C   0  0  0  0  0  0  0  0  0  0  0  0
    4.3050   -4.1746    0.0000 C   0  0  0  0  0  0  0  0  0  0  0  0
    5.6375   -4.1746    0.0000 C   0  0  0  0  0  0  0  0  0  0  0  0
    6.2991   -5.3207    0.0000 C   0  0  0  0  0  0  0  0  0  0  0  0
    5.6375   -6.4762    0.0000 C   0  0  0  0  0  0  0  0  0  0  0  0
    4.3050   -6.4762    0.0000 C   0  0  0  0  0  0  0  0  0  0  0  0
    7.6316   -5.3207    0.0000 O   0  0  0  0  0  0  0  0  0  0  0  0
    0.9784   -5.3207    0.0000 C   0  0  0  0  0  0  0  0  0  0  0  0
  1  2  1  0  0  0  0
  1  7  1  0  0  0  0
  1 14  1  0  0  0  0
  1 21  1  0  0  0  0
  2  3  1  0  0  0  0
  3  4  1  0  0  0  0
  4  5  2  0  0  0  0
  4  6  1  0  0  0  0
  7  8  1  0  0  0  0
  7 12  2  0  0  0  0
  8  9  2  0  0  0  0
  9 10  1  0  0  0  0
 10 11  2  0  0  0  0
 10 13  1  0  0  0  0
 11 12  1  0  0  0  0
 14 15  2  0  0  0  0
 14 19  1  0  0  0  0
 15 16  1  0  0  0  0
 16 17  2  0  0  0  0
 17 18  1  0  0  0  0
 17 20  1  0  0  0  0
 18 19  2  0  0  0  0
M  END
> <ID>
2225

> <Formula>
C17H18O4

> <FW>
286.3224

> <DSSTox_CID>
2436

> <DSSTox_RID>
76589

> <DSSTox_GSID>
22436

> <DSSTox_FileID_Sort>
1273

> <TS_ChemName>
Diphenolic acid

> <TS_ChemName_Synonyms>
4,4-Bis(4-hydroxyphenyl)valeric acid

> <TS_CASRN>
126-00-1

> <CASRN_ChemName_Relationship>
primary

> <TS_Description>
single chemical compound

> <ChemNote>


> <STRUCTURE_Shown>
tested chemical

> <STRUCTURE_Formula>
C17H18O4

> <STRUCTURE_MW>
286.3224

> <STRUCTURE_ChemType>
defined organic

> <STRUCTURE_DefinedOrganicForm>
parent

> <STRUCTURE_IUPAC>
4,4-bis(4-hydroxyphenyl)pentanoic acid

> <STRUCTURE_SMILES>
Oc1ccc(cc1)C(C)(CCC(=O)O)c2ccc(O)cc2

> <STRUCTURE_SMILES_Desalt>
Oc1ccc(cc1)C(C)(CCC(=O)O)c2ccc(O)cc2

> <Substance_modify_yyyymmdd>
20080429

$$$$
