126-07-8
ChemmineR-0914142331XD

 24 26  0  0  1  0  0  0  0  0  1 V2000
    6.2320   -1.0924    0.0000 O    0  0  0  0  0  0  0  0  0  0  0  0
    5.8471   -2.3097    0.0000 C    0  0  0  0  0  0  0  0  0  0  0  0
    4.6298   -2.7050    0.0000 C    0  0  0  0  0  0  0  0  0  0  0  0
    4.6298   -3.9743    0.0000 C    0  0  0  0  0  0  0  0  0  0  0  0
    5.8471   -4.3593    0.0000 O    0  0  0  0  0  0  0  0  0  0  0  0
    6.5857   -3.3293    0.0000 C    0  0  0  0  0  0  0  0  0  0  0  0
    7.2308   -2.2369    0.0000 C    0  0  0  0  0  0  0  0  0  0  0  0
    8.5001   -2.2369    0.0000 C    0  0  0  0  0  0  0  0  0  0  0  0
    9.1347   -3.3293    0.0000 C    0  0  0  0  0  0  0  0  0  0  0  0
   10.4040   -3.3293    0.0000 O    0  0  0  0  0  0  0  0  0  0  0  0
    8.5001   -4.4321    0.0000 C    0  0  0  0  0  0  0  0  0  0  0  0
    7.2308   -4.4321    0.0000 C    0  0  0  0  0  0  0  0  0  0  0  0
    6.5857   -5.5453    0.0000 C    0  0  0  0  0  0  0  0  0  0  0  0
    7.0019   -0.9780    0.0000 O    0  0  0  0  0  0  0  0  0  0  0  0
    7.9799   -0.1665    0.0000 C    0  0  0  0  0  0  0  0  0  0  0  0
    3.5374   -4.6090    0.0000 C    0  0  0  0  0  0  0  0  0  0  0  0
    3.5374   -5.8783    0.0000 Cl   0  0  0  0  0  0  0  0  0  0  0  0
    2.4241   -3.9743    0.0000 C    0  0  0  0  0  0  0  0  0  0  0  0
    1.3213   -4.6090    0.0000 O    0  0  0  0  0  0  0  0  0  0  0  0
    0.0000   -3.1316    0.0000 C    0  0  0  0  0  0  0  0  0  0  0  0
    2.4241   -2.7050    0.0000 C    0  0  0  0  0  0  0  0  0  0  0  0
    3.5374   -2.0600    0.0000 C    0  0  0  0  0  0  0  0  0  0  0  0
    3.5374   -0.7907    0.0000 O    0  0  0  0  0  0  0  0  0  0  0  0
    1.6334    0.0000    0.0000 C    0  0  0  0  0  0  0  0  0  0  0  0
  1  2  2  0  0  0  0
  2  3  1  0  0  0  0
  6  2  1  1  0  0  0
  3  4  2  0  0  0  0
  3 22  1  0  0  0  0
  4  5  1  0  0  0  0
  4 16  1  0  0  0  0
  6  5  1  6  0  0  0
  6  7  1  0  0  0  0
  6 12  1  0  0  0  0
  7  8  2  0  0  0  0
  7 14  1  0  0  0  0
  8  9  1  0  0  0  0
  9 10  2  0  0  0  0
  9 11  1  0  0  0  0
 11 12  1  0  0  0  0
 12 13  1  1  0  0  0
 14 15  1  0  0  0  0
 16 17  1  0  0  0  0
 16 18  2  0  0  0  0
 18 19  1  0  0  0  0
 18 21  1  0  0  0  0
 19 20  1  0  0  0  0
 21 22  2  0  0  0  0
 22 23  1  0  0  0  0
 23 24  1  0  0  0  0
M  END
> <ID>
647

> <Formula>
C17H17ClO6

> <FW>
352.7663

> <DSSTox_CID>
674

> <DSSTox_RID>
75725

> <DSSTox_GSID>
20674

> <DSSTox_FileID_Sort>
409

> <TS_ChemName>
Griseofulvin

> <TS_ChemName_Synonyms>


> <TS_CASRN>
126-07-8

> <CASRN_ChemName_Relationship>
primary

> <TS_Description>
single chemical compound

> <ChemNote>
stereochem

> <STRUCTURE_Shown>
tested chemical

> <STRUCTURE_Formula>
C17H17ClO6

> <STRUCTURE_MW>
352.7663

> <STRUCTURE_ChemType>
defined organic

> <STRUCTURE_DefinedOrganicForm>
parent

> <STRUCTURE_IUPAC>
(2S,6'R)-7-chloro-2',4,6-trimethoxy-6'-methyl-3H,4'H-spiro[1-benzofuran-2,1'-cyclohex[2]ene]-3,4'-dione

> <STRUCTURE_SMILES>
O=C2c3c(O[C@]12C(=CC(=O)C[C@H]1C)OC)c(Cl)c(OC)cc3OC

> <STRUCTURE_SMILES_Desalt>
O=C2c3c(O[C@]12C(=CC(=O)C[C@H]1C)OC)c(Cl)c(OC)cc3OC

> <Substance_modify_yyyymmdd>
20080429

$$$$
