126-72-7
ChemmineR-0914142331XD

 20 19  0  0  0  0  0  0  0  0  1 V2000
    5.3236   -3.9907    0.0000 O    0  0  0  0  0  0  0  0  0  0  0  0
    3.9907   -3.9907    0.0000 P    0  0  0  0  0  0  0  0  0  0  0  0
    3.9907   -5.3236    0.0000 O    0  0  0  0  0  0  0  0  0  0  0  0
    5.1400   -5.9861    0.0000 C    0  0  0  0  0  0  0  0  0  0  0  0
    5.1400   -7.3190    0.0000 C    0  0  0  0  0  0  0  0  0  0  0  0
    6.2974   -7.9814    0.0000 C    0  0  0  0  0  0  0  0  0  0  0  0
    7.4467   -7.3190    0.0000 Br   0  0  0  0  0  0  0  0  0  0  0  0
    3.9907   -7.9814    0.0000 Br   0  0  0  0  0  0  0  0  0  0  0  0
    2.6578   -3.9907    0.0000 O    0  0  0  0  0  0  0  0  0  0  0  0
    1.9954   -5.1400    0.0000 C    0  0  0  0  0  0  0  0  0  0  0  0
    0.6625   -5.1400    0.0000 C    0  0  0  0  0  0  0  0  0  0  0  0
    0.0000   -6.2974    0.0000 C    0  0  0  0  0  0  0  0  0  0  0  0
    0.6625   -7.4467    0.0000 Br   0  0  0  0  0  0  0  0  0  0  0  0
    0.0000   -3.9907    0.0000 Br   0  0  0  0  0  0  0  0  0  0  0  0
    3.9907   -2.6578    0.0000 O    0  0  0  0  0  0  0  0  0  0  0  0
    5.1400   -1.9954    0.0000 C    0  0  0  0  0  0  0  0  0  0  0  0
    5.1400   -0.6625    0.0000 C    0  0  0  0  0  0  0  0  0  0  0  0
    3.9907    0.0000    0.0000 C    0  0  0  0  0  0  0  0  0  0  0  0
    2.8414   -0.6625    0.0000 Br   0  0  0  0  0  0  0  0  0  0  0  0
    6.2974    0.0000    0.0000 Br   0  0  0  0  0  0  0  0  0  0  0  0
  1  2  2  0  0  0  0
  2  3  1  0  0  0  0
  2  9  1  0  0  0  0
  2 15  1  0  0  0  0
  3  4  1  0  0  0  0
  4  5  1  0  0  0  0
  5  6  1  0  0  0  0
  5  8  1  0  0  0  0
  6  7  1  0  0  0  0
  9 10  1  0  0  0  0
 10 11  1  0  0  0  0
 11 12  1  0  0  0  0
 11 14  1  0  0  0  0
 12 13  1  0  0  0  0
 15 16  1  0  0  0  0
 16 17  1  0  0  0  0
 17 18  1  0  0  0  0
 17 20  1  0  0  0  0
 18 19  1  0  0  0  0
M  END
> <ID>
1358

> <Formula>
C9H15Br6O4P

> <FW>
697.6108

> <DSSTox_CID>
1413

> <DSSTox_RID>
76148

> <DSSTox_GSID>
21413

> <DSSTox_FileID_Sort>
832

> <TS_ChemName>
Tris(2,3-dibromopropyl) phosphate

> <TS_ChemName_Synonyms>


> <TS_CASRN>
126-72-7

> <CASRN_ChemName_Relationship>
primary

> <TS_Description>
single chemical compound

> <ChemNote>


> <STRUCTURE_Shown>
tested chemical

> <STRUCTURE_Formula>
C9H15Br6O4P

> <STRUCTURE_MW>
697.6108

> <STRUCTURE_ChemType>
defined organic

> <STRUCTURE_DefinedOrganicForm>
parent

> <STRUCTURE_IUPAC>
tris(2,3-dibromopropyl) phosphate

> <STRUCTURE_SMILES>
BrCC(Br)COP(=O)(OCC(Br)CBr)OCC(Br)CBr

> <STRUCTURE_SMILES_Desalt>
BrCC(Br)COP(=O)(OCC(Br)CBr)OCC(Br)CBr

> <Substance_modify_yyyymmdd>
20080429

$$$$
