127-00-4_1
ChemmineR-0914142331XD

  5  4  0  0  0  0  0  0  0  0  1 V2000
    0.0000   -1.3320    0.0000 C    0  0  0  0  0  0  0  0  0  0  0  0
    1.1655   -1.9980    0.0000 C    0  0  0  0  0  0  0  0  0  0  0  0
    2.2977   -1.3320    0.0000 C    0  0  0  0  0  0  0  0  0  0  0  0
    1.1655   -3.3300    0.0000 O    0  0  0  0  0  0  0  0  0  0  0  0
    0.0000    0.0000    0.0000 Cl   0  0  0  0  0  0  0  0  0  0  0  0
  1  2  1  0  0  0  0
  1  5  1  0  0  0  0
  2  3  1  0  0  0  0
  2  4  1  0  0  0  0
M  END
> <ID>
276

> <Formula>
C3H7ClO

> <FW>
94.5401

> <DSSTox_CID>
285

> <DSSTox_RID>
76444

> <DSSTox_GSID>
21988

> <DSSTox_FileID_Sort>
1128

> <TS_ChemName>
1-Chloro-2-propanol, technical grade (~75% 1-chloro-2-propanol; ~25% 2-chloro-1-propanol)

> <TS_ChemName_Synonyms>


> <TS_CASRN>
127-00-4_1

> <CASRN_ChemName_Relationship>
CAS for various forms

> <TS_Description>
mixture or formulation

> <ChemNote>
defined mixture of 1-chloro-propan-2-ol [127-00-4] (75%) and 2-chloro-propan-1-ol [78-89-7] (25%); structure shown 1-chloro

> <STRUCTURE_Shown>
representative component

> <STRUCTURE_Formula>
C3H7ClO

> <STRUCTURE_MW>
94.5401

> <STRUCTURE_ChemType>
defined organic

> <STRUCTURE_DefinedOrganicForm>
parent

> <STRUCTURE_IUPAC>
1-chloropropan-2-ol

> <STRUCTURE_SMILES>
CC(O)CCl

> <STRUCTURE_SMILES_Desalt>
CC(O)CCl

> <Substance_modify_yyyymmdd>
20130909

$$$$
