127-79-7
ChemmineR-0914142331XD

 18 19  0  0  0  0  0  0  0  0  1 V2000
    3.3210   -2.3054    0.0000 N   0  0  0  0  0  0  0  0  0  0  0  0
    2.6601   -3.4581    0.0000 S   0  0  0  0  0  0  0  0  0  0  0  0
    3.8128   -4.1191    0.0000 O   0  0  0  0  0  0  0  0  0  0  0  0
    1.5074   -2.7890    0.0000 O   0  0  0  0  0  0  0  0  0  0  0  0
    1.9910   -4.6027    0.0000 C   0  0  0  0  0  0  0  0  0  0  0  0
    0.6610   -4.6027    0.0000 C   0  0  0  0  0  0  0  0  0  0  0  0
    0.0000   -5.7554    0.0000 C   0  0  0  0  0  0  0  0  0  0  0  0
    0.6610   -6.9081    0.0000 C   0  0  0  0  0  0  0  0  0  0  0  0
    0.0000   -8.0608    0.0000 N   0  0  0  0  0  0  0  0  0  0  0  0
    1.9910   -6.9081    0.0000 C   0  0  0  0  0  0  0  0  0  0  0  0
    2.6601   -5.7554    0.0000 C   0  0  0  0  0  0  0  0  0  0  0  0
    4.6511   -2.3054    0.0000 C   0  0  0  0  0  0  0  0  0  0  0  0
    5.3201   -1.1527    0.0000 N   0  0  0  0  0  0  0  0  0  0  0  0
    6.6502   -1.1527    0.0000 C   0  0  0  0  0  0  0  0  0  0  0  0
    7.3111    0.0000    0.0000 C   0  0  0  0  0  0  0  0  0  0  0  0
    7.3111   -2.3054    0.0000 C   0  0  0  0  0  0  0  0  0  0  0  0
    6.6502   -3.4581    0.0000 C   0  0  0  0  0  0  0  0  0  0  0  0
    5.3201   -3.4581    0.0000 N   0  0  0  0  0  0  0  0  0  0  0  0
  1  2  1  0  0  0  0
  1 12  1  0  0  0  0
  2  3  2  0  0  0  0
  2  4  2  0  0  0  0
  2  5  1  0  0  0  0
  5  6  2  0  0  0  0
  5 11  1  0  0  0  0
  6  7  1  0  0  0  0
  7  8  2  0  0  0  0
  8  9  1  0  0  0  0
  8 10  1  0  0  0  0
 10 11  2  0  0  0  0
 12 13  2  0  0  0  0
 12 18  1  0  0  0  0
 13 14  1  0  0  0  0
 14 15  1  0  0  0  0
 14 16  2  0  0  0  0
 16 17  1  0  0  0  0
 17 18  2  0  0  0  0
M  END
> <ID>
3231

> <Formula>
C11H12N4O2S

> <FW>
264.3036

> <DSSTox_CID>
3612

> <DSSTox_RID>
77109

> <DSSTox_GSID>
23612

> <DSSTox_FileID_Sort>
1792

> <TS_ChemName>
Sulfamerazine

> <TS_ChemName_Synonyms>


> <TS_CASRN>
127-79-7

> <CASRN_ChemName_Relationship>
primary

> <TS_Description>
single chemical compound

> <ChemNote>


> <STRUCTURE_Shown>
tested chemical

> <STRUCTURE_Formula>
C11H12N4O2S

> <STRUCTURE_MW>
264.3036

> <STRUCTURE_ChemType>
defined organic

> <STRUCTURE_DefinedOrganicForm>
parent

> <STRUCTURE_IUPAC>
4-amino-N-(4-methylpyrimidin-2-yl)benzenesulfonamide

> <STRUCTURE_SMILES>
O=S(=O)(Nc1nc(C)ccn1)c2ccc(N)cc2

> <STRUCTURE_SMILES_Desalt>
O=S(=O)(Nc1nc(C)ccn1)c2ccc(N)cc2

> <Substance_modify_yyyymmdd>
20080429

$$$$
