127-69-5
ChemmineR-0914142331XD

 18 19  0  0  0  0  0  0  0  0  1 V2000
    3.9690   -4.1553    0.0000 O   0  0  0  0  0  0  0  0  0  0  0  0
    5.1192   -3.4911    0.0000 S   0  0  0  0  0  0  0  0  0  0  0  0
    6.2694   -2.8269    0.0000 O   0  0  0  0  0  0  0  0  0  0  0  0
    5.7834   -4.6413    0.0000 C   0  0  0  0  0  0  0  0  0  0  0  0
    5.1192   -5.7996    0.0000 C   0  0  0  0  0  0  0  0  0  0  0  0
    5.7834   -6.9498    0.0000 C   0  0  0  0  0  0  0  0  0  0  0  0
    7.1118   -6.9498    0.0000 C   0  0  0  0  0  0  0  0  0  0  0  0
    7.7760   -5.7996    0.0000 C   0  0  0  0  0  0  0  0  0  0  0  0
    7.1118   -4.6413    0.0000 C   0  0  0  0  0  0  0  0  0  0  0  0
    7.7760   -8.1001    0.0000 N   0  0  0  0  0  0  0  0  0  0  0  0
    4.4550   -2.3409    0.0000 N   0  0  0  0  0  0  0  0  0  0  0  0
    3.1266   -2.3409    0.0000 C   0  0  0  0  0  0  0  0  0  0  0  0
    2.3409   -1.2636    0.0000 C   0  0  0  0  0  0  0  0  0  0  0  0
    1.0773   -1.6767    0.0000 C   0  0  0  0  0  0  0  0  0  0  0  0
    1.0773   -3.0051    0.0000 N   0  0  0  0  0  0  0  0  0  0  0  0
    2.3409   -3.4182    0.0000 O   0  0  0  0  0  0  0  0  0  0  0  0
    0.0000   -0.8910    0.0000 C   0  0  0  0  0  0  0  0  0  0  0  0
    2.7540    0.0000    0.0000 C   0  0  0  0  0  0  0  0  0  0  0  0
  1  2  2  0  0  0  0
  2  3  2  0  0  0  0
  2  4  1  0  0  0  0
  2 11  1  0  0  0  0
  4  5  2  0  0  0  0
  4  9  1  0  0  0  0
  5  6  1  0  0  0  0
  6  7  2  0  0  0  0
  7  8  1  0  0  0  0
  7 10  1  0  0  0  0
  8  9  2  0  0  0  0
 11 12  1  0  0  0  0
 12 13  2  0  0  0  0
 12 16  1  0  0  0  0
 13 14  1  0  0  0  0
 13 18  1  0  0  0  0
 14 15  2  0  0  0  0
 14 17  1  0  0  0  0
 15 16  1  0  0  0  0
M  END
> <ID>
1242

> <Formula>
C11H13N3O3S

> <FW>
267.3042

> <DSSTox_CID>
1292

> <DSSTox_RID>
76064

> <DSSTox_GSID>
21292

> <DSSTox_FileID_Sort>
748

> <TS_ChemName>
Sulfisoxazole

> <TS_ChemName_Synonyms>


> <TS_CASRN>
127-69-5

> <CASRN_ChemName_Relationship>
primary

> <TS_Description>
single chemical compound

> <ChemNote>


> <STRUCTURE_Shown>
tested chemical

> <STRUCTURE_Formula>
C11H13N3O3S

> <STRUCTURE_MW>
267.3042

> <STRUCTURE_ChemType>
defined organic

> <STRUCTURE_DefinedOrganicForm>
parent

> <STRUCTURE_IUPAC>
4-amino-N-(3,4-dimethyl-1,2-oxazol-5-yl)benzenesulfonamide

> <STRUCTURE_SMILES>
Cc2c(NS(=O)(=O)c1ccc(N)cc1)onc2C

> <STRUCTURE_SMILES_Desalt>
Cc2c(NS(=O)(=O)c1ccc(N)cc1)onc2C

> <Substance_modify_yyyymmdd>
20080429

$$$$
