127-48-0
ChemmineR-0914142331XD

 10 10  0  0  0  0  0  0  0  0  1 V2000
    3.4260    0.0000    0.0000 C   0  0  0  0  0  0  0  0  0  0  0  0
    3.2875   -1.3252    0.0000 C   0  0  0  0  0  0  0  0  0  0  0  0
    3.4260   -2.6457    0.0000 C   0  0  0  0  0  0  0  0  0  0  0  0
    4.5803   -3.3106    0.0000 O   0  0  0  0  0  0  0  0  0  0  0  0
    2.2117   -3.1859    0.0000 N   0  0  0  0  0  0  0  0  0  0  0  0
    1.9346   -4.4880    0.0000 C   0  0  0  0  0  0  0  0  0  0  0  0
    1.3205   -2.1978    0.0000 C   0  0  0  0  0  0  0  0  0  0  0  0
    0.0000   -2.3363    0.0000 O   0  0  0  0  0  0  0  0  0  0  0  0
    1.9854   -1.0481    0.0000 O   0  0  0  0  0  0  0  0  0  0  0  0
    4.6173   -1.3252    0.0000 C   0  0  0  0  0  0  0  0  0  0  0  0
  1  2  1  0  0  0  0
  2  3  1  0  0  0  0
  2  9  1  0  0  0  0
  2 10  1  0  0  0  0
  3  4  2  0  0  0  0
  3  5  1  0  0  0  0
  5  6  1  0  0  0  0
  5  7  1  0  0  0  0
  7  8  2  0  0  0  0
  7  9  1  0  0  0  0
M  END
> <ID>
1341

> <Formula>
C6H9NO3

> <FW>
143.1406

> <DSSTox_CID>
1396

> <DSSTox_RID>
76137

> <DSSTox_GSID>
21396

> <DSSTox_FileID_Sort>
821

> <TS_ChemName>
Trimethadione

> <TS_ChemName_Synonyms>


> <TS_CASRN>
127-48-0

> <CASRN_ChemName_Relationship>
primary

> <TS_Description>
single chemical compound

> <ChemNote>


> <STRUCTURE_Shown>
tested chemical

> <STRUCTURE_Formula>
C6H9NO3

> <STRUCTURE_MW>
143.1406

> <STRUCTURE_ChemType>
defined organic

> <STRUCTURE_DefinedOrganicForm>
parent

> <STRUCTURE_IUPAC>
3,5,5-trimethyl-1,3-oxazolidine-2,4-dione

> <STRUCTURE_SMILES>
CN1C(=O)OC(C)(C)C1=O

> <STRUCTURE_SMILES_Desalt>
CN1C(=O)OC(C)(C)C1=O

> <Substance_modify_yyyymmdd>
20080429

$$$$
