127-47-9
ChemmineR-0914142331XD

 24 24  0  0  0  0  0  0  0  0  1 V2000
    1.8254   -0.1777    0.0000 C   0  0  0  0  0  0  0  0  0  0  0  0
    1.1631   -1.3408    0.0000 C   0  0  0  0  0  0  0  0  0  0  0  0
    2.3100   -1.9869    0.0000 C   0  0  0  0  0  0  0  0  0  0  0  0
    2.3100   -3.3277    0.0000 C   0  0  0  0  0  0  0  0  0  0  0  0
    1.1631   -3.9900    0.0000 C   0  0  0  0  0  0  0  0  0  0  0  0
    0.0000   -3.3277    0.0000 C   0  0  0  0  0  0  0  0  0  0  0  0
    0.0000   -1.9869    0.0000 C   0  0  0  0  0  0  0  0  0  0  0  0
    3.4731   -3.9900    0.0000 C   0  0  0  0  0  0  0  0  0  0  0  0
    3.4731   -1.3408    0.0000 C   0  0  0  0  0  0  0  0  0  0  0  0
    4.6200   -1.9869    0.0000 C   0  0  0  0  0  0  0  0  0  0  0  0
    5.7831   -1.3408    0.0000 C   0  0  0  0  0  0  0  0  0  0  0  0
    6.9300   -1.9869    0.0000 C   0  0  0  0  0  0  0  0  0  0  0  0
    8.0769   -1.3408    0.0000 C   0  0  0  0  0  0  0  0  0  0  0  0
    9.2239   -1.9869    0.0000 C   0  0  0  0  0  0  0  0  0  0  0  0
   10.3708   -1.3246    0.0000 C   0  0  0  0  0  0  0  0  0  0  0  0
   11.5339   -1.9869    0.0000 C   0  0  0  0  0  0  0  0  0  0  0  0
   12.6808   -1.3246    0.0000 C   0  0  0  0  0  0  0  0  0  0  0  0
   13.8439   -1.9869    0.0000 O   0  0  0  0  0  0  0  0  0  0  0  0
   14.9908   -1.3246    0.0000 C   0  0  0  0  0  0  0  0  0  0  0  0
   14.9908    0.0000    0.0000 O   0  0  0  0  0  0  0  0  0  0  0  0
   16.1539   -1.9869    0.0000 C   0  0  0  0  0  0  0  0  0  0  0  0
   10.3708    0.0000    0.0000 C   0  0  0  0  0  0  0  0  0  0  0  0
    5.7831    0.0000    0.0000 C   0  0  0  0  0  0  0  0  0  0  0  0
    0.4846   -0.1777    0.0000 C   0  0  0  0  0  0  0  0  0  0  0  0
  1  2  1  0  0  0  0
  2  3  1  0  0  0  0
  2  7  1  0  0  0  0
  2 24  1  0  0  0  0
  3  4  2  0  0  0  0
  3  9  1  0  0  0  0
  4  5  1  0  0  0  0
  4  8  1  0  0  0  0
  5  6  1  0  0  0  0
  6  7  1  0  0  0  0
  9 10  2  0  0  0  0
 10 11  1  0  0  0  0
 11 12  2  0  0  0  0
 11 23  1  0  0  0  0
 12 13  1  0  0  0  0
 13 14  2  0  0  0  0
 14 15  1  0  0  0  0
 15 16  2  0  0  0  0
 15 22  1  0  0  0  0
 16 17  1  0  0  0  0
 17 18  1  0  0  0  0
 18 19  1  0  0  0  0
 19 20  2  0  0  0  0
 19 21  1  0  0  0  0
M  END
> <ID>
1193

> <Formula>
C22H32O2

> <FW>
328.4883

> <DSSTox_CID>
1240

> <DSSTox_RID>
76032

> <DSSTox_GSID>
21240

> <DSSTox_FileID_Sort>
716

> <TS_ChemName>
Retinol acetate

> <TS_ChemName_Synonyms>
Retinol acetate (all-trans-Retinyl acetate)

> <TS_CASRN>
127-47-9

> <CASRN_ChemName_Relationship>
primary

> <TS_Description>
single chemical compound

> <ChemNote>
stereochem

> <STRUCTURE_Shown>
tested chemical

> <STRUCTURE_Formula>
C22H32O2

> <STRUCTURE_MW>
328.4883

> <STRUCTURE_ChemType>
defined organic

> <STRUCTURE_DefinedOrganicForm>
parent

> <STRUCTURE_IUPAC>
O~15~-acetylretinol

> <STRUCTURE_SMILES>
CC=1CCCC(C)(C)C=1/C=CC(\C)=C\C=C\C(\C)=C\COC(C)=O

> <STRUCTURE_SMILES_Desalt>
CC=1CCCC(C)(C)C=1/C=CC(\C)=C\C=C\C(\C)=C\COC(C)=O

> <Substance_modify_yyyymmdd>
20080429

$$$$
