1271-19-8
ChemmineR-0914142331XD

 13 12  0  0  0  0  0  0  0  0  2 V2000
    3.2557   -2.2660    0.0000 Ti   0  2  0  0  0  0  0  0  0  0  0  0
    2.1032   -1.6018    0.0000 C    0  0  0  0  0  0  0  0  0  0  0  0
    0.8921   -2.1423    0.0000 C    0  0  0  0  0  0  0  0  0  0  0  0
    0.0000   -1.1525    0.0000 C    0  0  0  0  0  0  0  0  0  0  0  0
    0.6642    0.0000    0.0000 C    0  0  0  0  0  0  0  0  0  0  0  0
    1.9665   -0.2800    0.0000 C    0  0  0  0  0  0  0  0  0  0  0  0
    4.4082   -1.6018    0.0000 C    0  0  0  0  0  0  0  0  0  0  0  0
    4.5450   -0.2800    0.0000 C    0  0  0  0  0  0  0  0  0  0  0  0
    5.8473    0.0000    0.0000 C    0  0  0  0  0  0  0  0  0  0  0  0
    6.5114   -1.1525    0.0000 C    0  0  0  0  0  0  0  0  0  0  0  0
    5.6194   -2.1423    0.0000 C    0  0  0  0  0  0  0  0  0  0  0  0
    3.1906   -3.5943    0.0000 Cl   0  5  0  0  0  0  0  0  0  0  0  0
    1.8623   -3.5943    0.0000 Cl   0  5  0  0  0  0  0  0  0  0  0  0
  1  2  1  0  0  0  0
  1  7  1  0  0  0  0
  2  3  2  0  0  0  0
  2  6  1  0  0  0  0
  3  4  1  0  0  0  0
  4  5  2  0  0  0  0
  5  6  1  0  0  0  0
  7  8  2  0  0  0  0
  7 11  1  0  0  0  0
  8  9  1  0  0  0  0
  9 10  2  0  0  0  0
 10 11  1  0  0  0  0
M  END
> <ID>
1301

> <Formula>
C10H10Cl2Ti

> <FW>
248.9594 (178.0523+35.4535+35.4535)

> <DSSTox_CID>
1354

> <DSSTox_RID>
76103

> <DSSTox_GSID>
21354

> <DSSTox_FileID_Sort>
787

> <TS_ChemName>
Titanocene dichloride

> <TS_ChemName_Synonyms>


> <TS_CASRN>
1271-19-8

> <CASRN_ChemName_Relationship>
primary

> <TS_Description>
single chemical compound

> <ChemNote>


> <STRUCTURE_Shown>
tested chemical

> <STRUCTURE_Formula>
C10H10Cl2Ti

> <STRUCTURE_MW>
248.9594

> <STRUCTURE_ChemType>
organometallic

> <STRUCTURE_DefinedOrganicForm>


> <STRUCTURE_IUPAC>
di(cyclopenta-1,3-dien-1-yl)titanium(2+) dichloride

> <STRUCTURE_SMILES>
[Cl-].[Cl-].C=2CC([Ti+2]C1=CC=CC1)=CC=2

> <STRUCTURE_SMILES_Desalt>
C=2CC([Ti+2]C1=CC=CC1)=CC=2

> <Substance_modify_yyyymmdd>
20080429

$$$$
