128794-94-5
ChemmineR-0914142331XD

 31 33  0  0  0  0  0  0  0  0  1 V2000
    4.2771   -1.1665    0.0000 C   0  0  0  0  0  0  0  0  0  0  0  0
    4.9533    0.0000    0.0000 C   0  0  0  0  0  0  0  0  0  0  0  0
    4.9533   -2.3160    0.0000 C   0  0  0  0  0  0  0  0  0  0  0  0
    6.2719   -2.3160    0.0000 O   0  0  0  0  0  0  0  0  0  0  0  0
    6.9312   -1.1665    0.0000 C   0  0  0  0  0  0  0  0  0  0  0  0
    4.2771   -3.4656    0.0000 C   0  0  0  0  0  0  0  0  0  0  0  0
    4.9533   -4.6152    0.0000 C   0  0  0  0  0  0  0  0  0  0  0  0
    6.2719   -4.6152    0.0000 C   0  0  0  0  0  0  0  0  0  0  0  0
    6.9312   -5.7816    0.0000 C   0  0  0  0  0  0  0  0  0  0  0  0
    6.2719   -6.9143    0.0000 C   0  0  0  0  0  0  0  0  0  0  0  0
    8.2667   -5.7816    0.0000 C   0  0  0  0  0  0  0  0  0  0  0  0
    8.9261   -6.9143    0.0000 C   0  0  0  0  0  0  0  0  0  0  0  0
   10.2616   -6.9143    0.0000 C   0  0  0  0  0  0  0  0  0  0  0  0
   10.9209   -8.0639    0.0000 O   0  0  0  0  0  0  0  0  0  0  0  0
   10.9209   -5.7816    0.0000 O   0  0  0  0  0  0  0  0  0  0  0  0
   12.2564   -5.7816    0.0000 C   0  0  0  0  0  0  0  0  0  0  0  0
   12.9157   -4.6152    0.0000 C   0  0  0  0  0  0  0  0  0  0  0  0
   14.2513   -4.6152    0.0000 N   0  0  0  0  0  0  0  0  0  0  0  0
   14.9106   -3.4656    0.0000 C   0  0  0  0  0  0  0  0  0  0  0  0
   16.2461   -3.4656    0.0000 C   0  0  0  0  0  0  0  0  0  0  0  0
   16.9054   -4.6152    0.0000 O   0  0  0  0  0  0  0  0  0  0  0  0
   16.2461   -5.7816    0.0000 C   0  0  0  0  0  0  0  0  0  0  0  0
   14.9106   -5.7816    0.0000 C   0  0  0  0  0  0  0  0  0  0  0  0
    2.9584   -3.4656    0.0000 C   0  0  0  0  0  0  0  0  0  0  0  0
    2.2822   -4.6152    0.0000 O   0  0  0  0  0  0  0  0  0  0  0  0
    2.2822   -2.3160    0.0000 C   0  0  0  0  0  0  0  0  0  0  0  0
    2.9584   -1.1665    0.0000 C   0  0  0  0  0  0  0  0  0  0  0  0
    2.0625   -0.1691    0.0000 C   0  0  0  0  0  0  0  0  0  0  0  0
    0.8453   -0.7100    0.0000 O   0  0  0  0  0  0  0  0  0  0  0  0
    0.9805   -2.0286    0.0000 C   0  0  0  0  0  0  0  0  0  0  0  0
    0.0000   -2.9246    0.0000 O   0  0  0  0  0  0  0  0  0  0  0  0
  1  2  1  0  0  0  0
  1  3  2  0  0  0  0
  1 27  1  0  0  0  0
  3  4  1  0  0  0  0
  3  6  1  0  0  0  0
  4  5  1  0  0  0  0
  6  7  1  0  0  0  0
  6 24  2  0  0  0  0
  7  8  1  0  0  0  0
  8  9  2  0  0  0  0
  9 10  1  0  0  0  0
  9 11  1  0  0  0  0
 11 12  1  0  0  0  0
 12 13  1  0  0  0  0
 13 14  2  0  0  0  0
 13 15  1  0  0  0  0
 15 16  1  0  0  0  0
 16 17  1  0  0  0  0
 17 18  1  0  0  0  0
 18 19  1  0  0  0  0
 18 23  1  0  0  0  0
 19 20  1  0  0  0  0
 20 21  1  0  0  0  0
 21 22  1  0  0  0  0
 22 23  1  0  0  0  0
 24 25  1  0  0  0  0
 24 26  1  0  0  0  0
 26 27  2  0  0  0  0
 26 30  1  0  0  0  0
 27 28  1  0  0  0  0
 28 29  1  0  0  0  0
 29 30  1  0  0  0  0
 30 31  2  0  0  0  0
M  END
> <ID>
2997

> <Formula>
C23H31NO7

> <FW>
433.4947

> <DSSTox_CID>
3340

> <DSSTox_RID>
76982

> <DSSTox_GSID>
23340

> <DSSTox_FileID_Sort>
1666

> <TS_ChemName>
Mycophenolate mofetil

> <TS_ChemName_Synonyms>
Mycophenolate mofetil (MMF)

> <TS_CASRN>
128794-94-5

> <CASRN_ChemName_Relationship>
primary

> <TS_Description>
single chemical compound

> <ChemNote>
stereochem

> <STRUCTURE_Shown>
tested chemical

> <STRUCTURE_Formula>
C23H31NO7

> <STRUCTURE_MW>
433.4947

> <STRUCTURE_ChemType>
defined organic

> <STRUCTURE_DefinedOrganicForm>
parent

> <STRUCTURE_IUPAC>
2-(morpholin-4-yl)ethyl (4E)-6-(4-hydroxy-6-methoxy-7-methyl-3-oxo-1,3-dihydro-2-benzofuran-5-yl)-4-methylhex-4-enoate

> <STRUCTURE_SMILES>
Oc3c1C(=O)OCc1c(C)c(OC)c3C\C=C(/C)CCC(=O)OCCN2CCOCC2

> <STRUCTURE_SMILES_Desalt>
Oc3c1C(=O)OCc1c(C)c(OC)c3C\C=C(/C)CCC(=O)OCCN2CCOCC2

> <Substance_modify_yyyymmdd>
20080429

$$$$
