129-03-3
ChemmineR-0914142331XD

 22 25  0  0  0  0  0  0  0  0  1 V2000
    8.2231   -4.3829    0.0000 C   0  0  0  0  0  0  0  0  0  0  0  0
    8.2231   -3.0508    0.0000 C   0  0  0  0  0  0  0  0  0  0  0  0
    7.1870   -2.2202    0.0000 C   0  0  0  0  0  0  0  0  0  0  0  0
    5.9042   -2.4998    0.0000 C   0  0  0  0  0  0  0  0  0  0  0  0
    5.3121   -3.7168    0.0000 C   0  0  0  0  0  0  0  0  0  0  0  0
    3.9882   -3.7168    0.0000 C   0  0  0  0  0  0  0  0  0  0  0  0
    3.3221   -4.8681    0.0000 C   0  0  0  0  0  0  0  0  0  0  0  0
    1.9900   -4.8681    0.0000 C   0  0  0  0  0  0  0  0  0  0  0  0
    1.3321   -3.7168    0.0000 N   0  0  0  0  0  0  0  0  0  0  0  0
    0.0000   -3.7168    0.0000 C   0  0  0  0  0  0  0  0  0  0  0  0
    1.9900   -2.5656    0.0000 C   0  0  0  0  0  0  0  0  0  0  0  0
    3.3221   -2.5656    0.0000 C   0  0  0  0  0  0  0  0  0  0  0  0
    5.9042   -4.9256    0.0000 C   0  0  0  0  0  0  0  0  0  0  0  0
    7.1870   -5.2052    0.0000 C   0  0  0  0  0  0  0  0  0  0  0  0
    7.5899   -6.4962    0.0000 C   0  0  0  0  0  0  0  0  0  0  0  0
    6.6525   -7.4337    0.0000 C   0  0  0  0  0  0  0  0  0  0  0  0
    5.3779   -7.1541    0.0000 C   0  0  0  0  0  0  0  0  0  0  0  0
    4.9667   -5.8713    0.0000 C   0  0  0  0  0  0  0  0  0  0  0  0
    4.9667   -1.5624    0.0000 C   0  0  0  0  0  0  0  0  0  0  0  0
    5.3779   -0.2796    0.0000 C   0  0  0  0  0  0  0  0  0  0  0  0
    6.6525    0.0000    0.0000 C   0  0  0  0  0  0  0  0  0  0  0  0
    7.5899   -0.9374    0.0000 C   0  0  0  0  0  0  0  0  0  0  0  0
  1  2  2  0  0  0  0
  1 14  1  0  0  0  0
  2  3  1  0  0  0  0
  3  4  2  0  0  0  0
  3 22  1  0  0  0  0
  4  5  1  0  0  0  0
  4 19  1  0  0  0  0
  5  6  2  0  0  0  0
  5 13  1  0  0  0  0
  6  7  1  0  0  0  0
  6 12  1  0  0  0  0
  7  8  1  0  0  0  0
  8  9  1  0  0  0  0
  9 10  1  0  0  0  0
  9 11  1  0  0  0  0
 11 12  1  0  0  0  0
 13 14  2  0  0  0  0
 13 18  1  0  0  0  0
 14 15  1  0  0  0  0
 15 16  2  0  0  0  0
 16 17  1  0  0  0  0
 17 18  2  0  0  0  0
 19 20  2  0  0  0  0
 20 21  1  0  0  0  0
 21 22  2  0  0  0  0
M  END
> <ID>
2595

> <Formula>
C21H21N

> <FW>
287.3981

> <DSSTox_CID>
2872

> <DSSTox_RID>
76768

> <DSSTox_GSID>
22872

> <DSSTox_FileID_Sort>
1452

> <TS_ChemName>
Cyproheptadine

> <TS_ChemName_Synonyms>


> <TS_CASRN>
129-03-3

> <CASRN_ChemName_Relationship>
primary

> <TS_Description>
single chemical compound

> <ChemNote>


> <STRUCTURE_Shown>
tested chemical

> <STRUCTURE_Formula>
C21H21N

> <STRUCTURE_MW>
287.3981

> <STRUCTURE_ChemType>
defined organic

> <STRUCTURE_DefinedOrganicForm>
parent

> <STRUCTURE_IUPAC>
4-(5H-dibenzo[a,d][7]annulen-5-ylidene)-1-methylpiperidine

> <STRUCTURE_SMILES>
CN1CC\C(CC1)=C2\c4ccccc4C=Cc3ccccc23

> <STRUCTURE_SMILES_Desalt>
CN1CC\C(CC1)=C2\c4ccccc4C=Cc3ccccc23

> <Substance_modify_yyyymmdd>
20080429

$$$$
