129453-61-8
ChemmineR-0914142331XD

 44 47  0  0  1  0  0  0  0  0  1 V2000
    3.4655   -3.7321    0.0000 C   0  0  0  0  0  0  0  0  0  0  0  0
    3.4655   -5.0650    0.0000 C   0  0  0  0  0  0  0  0  0  0  0  0
    2.3023   -3.0536    0.0000 C   0  0  0  0  0  0  0  0  0  0  0  0
    2.3023   -5.7194    0.0000 C   0  0  0  0  0  0  0  0  0  0  0  0
    1.1633   -3.7321    0.0000 C   0  0  0  0  0  0  0  0  0  0  0  0
    1.1633   -5.0650    0.0000 C   0  0  0  0  0  0  0  0  0  0  0  0
    4.6288   -3.0536    0.0000 C   0  0  0  0  0  0  0  0  0  0  0  0
    5.7678   -3.7321    0.0000 C   0  0  0  0  0  0  0  0  0  0  0  0
    4.6288   -5.7194    0.0000 C   0  0  0  0  0  0  0  0  0  0  0  0
    5.7678   -5.0650    0.0000 C   0  0  0  0  0  0  0  0  0  0  0  0
    4.6288   -1.7207    0.0000 C   0  0  0  0  0  0  0  0  0  0  0  0
    5.7678   -1.0663    0.0000 C   0  0  0  0  0  0  0  0  0  0  0  0
    6.9311   -3.0536    0.0000 C   0  0  0  0  0  0  0  0  0  0  0  0
    6.9311   -1.7207    0.0000 C   0  0  0  0  0  0  0  0  0  0  0  0
    8.1913   -3.4655    0.0000 C   0  0  0  0  0  0  0  0  0  0  0  0
    8.9668   -2.3992    0.0000 C   0  0  0  0  0  0  0  0  0  0  0  0
    8.1913   -1.3087    0.0000 C   0  0  0  0  0  0  0  0  0  0  0  0
    0.0000   -5.7194    0.0000 O   0  0  0  0  0  0  0  0  0  0  0  0
    4.6288   -4.3865    0.0000 H   0  0  0  0  0  0  0  0  0  0  0  0
    5.7678   -2.3992    0.0000 H   0  0  0  0  0  0  0  0  0  0  0  0
    6.9311   -4.3865    0.0000 H   0  0  0  0  0  0  0  0  0  0  0  0
    6.9311   -0.3878    0.0000 C   0  0  0  0  0  0  0  0  0  0  0  0
    8.5306    0.0000    0.0000 O   0  0  0  0  0  0  0  0  0  0  0  0
    6.9311   -5.7194    0.0000 C   0  0  0  0  0  0  0  0  0  0  0  0
    8.0701   -5.0650    0.0000 C   0  0  0  0  0  0  0  0  0  0  0  0
    9.2334   -5.7194    0.0000 C   0  0  0  0  0  0  0  0  0  0  0  0
   10.3724   -5.0650    0.0000 C   0  0  0  0  0  0  0  0  0  0  0  0
   11.5356   -5.7194    0.0000 C   0  0  0  0  0  0  0  0  0  0  0  0
   12.6989   -5.0650    0.0000 C   0  0  0  0  0  0  0  0  0  0  0  0
   13.8622   -5.7194    0.0000 C   0  0  0  0  0  0  0  0  0  0  0  0
   15.0012   -5.0650    0.0000 C   0  0  0  0  0  0  0  0  0  0  0  0
   16.1644   -5.7194    0.0000 C   0  0  0  0  0  0  0  0  0  0  0  0
   17.3035   -5.0650    0.0000 S   0  0  0  0  0  0  0  0  0  0  0  0
   18.4667   -5.7194    0.0000 C   0  0  0  0  0  0  0  0  0  0  0  0
   19.6058   -5.0650    0.0000 C   0  0  0  0  0  0  0  0  0  0  0  0
   20.7690   -5.7194    0.0000 C   0  0  0  0  0  0  0  0  0  0  0  0
   21.9323   -5.0650    0.0000 C   0  0  0  0  0  0  0  0  0  0  0  0
   23.0955   -4.3865    0.0000 C   0  0  0  0  0  0  0  0  0  0  0  0
   17.3035   -3.7321    0.0000 O   0  0  0  0  0  0  0  0  0  0  0  0
   24.2346   -3.7321    0.0000 F   0  0  0  0  0  0  0  0  0  0  0  0
   23.7256   -5.5497    0.0000 F   0  0  0  0  0  0  0  0  0  0  0  0
   22.4170   -3.2474    0.0000 F   0  0  0  0  0  0  0  0  0  0  0  0
   21.2779   -3.9018    0.0000 F   0  0  0  0  0  0  0  0  0  0  0  0
   22.6108   -6.2040    0.0000 F   0  0  0  0  0  0  0  0  0  0  0  0
  1  3  1  0  0  0  0
  1  7  1  0  0  0  0
  1  2  2  0  0  0  0
  2  4  1  0  0  0  0
  2  9  1  0  0  0  0
  3  5  2  0  0  0  0
  4  6  2  0  0  0  0
  5  6  1  0  0  0  0
  6 18  1  0  0  0  0
  7 11  1  0  0  0  0
  7  8  1  0  0  0  0
  7 19  1  6  0  0  0
  8 10  1  0  0  0  0
  8 13  1  0  0  0  0
  8 20  1  1  0  0  0
  9 10  1  0  0  0  0
 10 24  1  6  0  0  0
 11 12  1  0  0  0  0
 12 14  1  0  0  0  0
 13 15  1  0  0  0  0
 13 14  1  0  0  0  0
 13 21  1  6  0  0  0
 14 17  1  0  0  0  0
 14 22  1  1  0  0  0
 15 16  1  0  0  0  0
 16 17  1  0  0  0  0
 17 23  1  1  0  0  0
 24 25  1  0  0  0  0
 25 26  1  0  0  0  0
 26 27  1  0  0  0  0
 27 28  1  0  0  0  0
 28 29  1  0  0  0  0
 29 30  1  0  0  0  0
 30 31  1  0  0  0  0
 31 32  1  0  0  0  0
 32 33  1  0  0  0  0
 33 34  1  0  0  0  0
 33 39  2  0  0  0  0
 34 35  1  0  0  0  0
 35 36  1  0  0  0  0
 36 37  1  0  0  0  0
 37 38  1  0  0  0  0
 37 43  1  0  0  0  0
 37 44  1  0  0  0  0
 38 40  1  0  0  0  0
 38 41  1  0  0  0  0
 38 42  1  0  0  0  0
M  END
> <ID>
2177

> <Formula>
C32H47F5O3S

> <FW>
606.7708

> <DSSTox_CID>
2369

> <DSSTox_RID>
76561

> <DSSTox_GSID>
22369

> <DSSTox_FileID_Sort>
1245

> <TS_ChemName>
Fulvestrant

> <TS_ChemName_Synonyms>
Fulvestrant (ICI 182780) (Faslodex) 7alpha-[9[(4,4,5,5,5-Pentafluropentyl)sulfinyl]nonyl]-estra-1,3,5(10)-triene-3, 17 beta diol)

> <TS_CASRN>
129453-61-8

> <CASRN_ChemName_Relationship>
primary

> <TS_Description>
single chemical compound

> <ChemNote>
stereochem

> <STRUCTURE_Shown>
tested chemical

> <STRUCTURE_Formula>
C32H47F5O3S

> <STRUCTURE_MW>
606.7708

> <STRUCTURE_ChemType>
defined organic

> <STRUCTURE_DefinedOrganicForm>
parent

> <STRUCTURE_IUPAC>
(7alpha,17beta)-7-{9-[(4,4,5,5,5-pentafluoropentyl)sulfinyl]nonyl}estra-1,3,5(10)-triene-3,17-diol

> <STRUCTURE_SMILES>
FC(F)(F)C(F)(F)CCCS(=O)CCCCCCCCC[C@@H]2Cc1cc(O)ccc1[C@H]3CC[C@]4(C)[C@@H](O)CC[C@H]4[C@H]23

> <STRUCTURE_SMILES_Desalt>
FC(F)(F)C(F)(F)CCCS(=O)CCCCCCCCC[C@@H]2Cc1cc(O)ccc1[C@H]3CC[C@]4(C)[C@@H](O)CC[C@H]4[C@H]23

> <Substance_modify_yyyymmdd>
20080429

$$$$
