130-26-7
ChemmineR-0914142331XD

 13 14  0  0  0  0  0  0  0  0  1 V2000
    2.3033   -1.3282    0.0000 C    0  0  0  0  0  0  0  0  0  0  0  0
    2.3033    0.0000    0.0000 I    0  0  0  0  0  0  0  0  0  0  0  0
    1.1487   -1.9922    0.0000 C    0  0  0  0  0  0  0  0  0  0  0  0
    1.1487   -3.3264    0.0000 C    0  0  0  0  0  0  0  0  0  0  0  0
    0.0000   -3.9904    0.0000 Cl   0  0  0  0  0  0  0  0  0  0  0  0
    2.3033   -3.9904    0.0000 C    0  0  0  0  0  0  0  0  0  0  0  0
    3.4520   -3.3264    0.0000 C    0  0  0  0  0  0  0  0  0  0  0  0
    3.4520   -1.9922    0.0000 C    0  0  0  0  0  0  0  0  0  0  0  0
    4.6067   -1.3282    0.0000 O    0  0  0  0  0  0  0  0  0  0  0  0
    4.6067   -3.9904    0.0000 N    0  0  0  0  0  0  0  0  0  0  0  0
    4.6067   -5.3186    0.0000 C    0  0  0  0  0  0  0  0  0  0  0  0
    3.4520   -5.9827    0.0000 C    0  0  0  0  0  0  0  0  0  0  0  0
    2.3033   -5.3186    0.0000 C    0  0  0  0  0  0  0  0  0  0  0  0
  1  2  1  0  0  0  0
  1  3  2  0  0  0  0
  1  8  1  0  0  0  0
  3  4  1  0  0  0  0
  4  5  1  0  0  0  0
  4  6  2  0  0  0  0
  6  7  1  0  0  0  0
  6 13  1  0  0  0  0
  7  8  2  0  0  0  0
  7 10  1  0  0  0  0
  8  9  1  0  0  0  0
 10 11  2  0  0  0  0
 11 12  1  0  0  0  0
 12 13  2  0  0  0  0
M  END
> <ID>
2564

> <Formula>
C9H5ClINO

> <FW>
305.4996

> <DSSTox_CID>
2837

> <DSSTox_RID>
76751

> <DSSTox_GSID>
22837

> <DSSTox_FileID_Sort>
1435

> <TS_ChemName>
Clioquinol

> <TS_ChemName_Synonyms>
Clioquinol (Iodochlorohydroxyquinoline)

> <TS_CASRN>
130-26-7

> <CASRN_ChemName_Relationship>
primary

> <TS_Description>
single chemical compound

> <ChemNote>


> <STRUCTURE_Shown>
tested chemical

> <STRUCTURE_Formula>
C9H5ClINO

> <STRUCTURE_MW>
305.4996

> <STRUCTURE_ChemType>
defined organic

> <STRUCTURE_DefinedOrganicForm>
parent

> <STRUCTURE_IUPAC>
5-chloro-7-iodoquinolin-8-ol

> <STRUCTURE_SMILES>
Oc1c(I)cc(Cl)c2cccnc12

> <STRUCTURE_SMILES_Desalt>
Oc1c(I)cc(Cl)c2cccnc12

> <Substance_modify_yyyymmdd>
20080429

$$$$
