131-56-6
ChemmineR-0914142331XD

 16 17  0  0  0  0  0  0  0  0  1 V2000
    3.4581   -1.9991    0.0000 C   0  0  0  0  0  0  0  0  0  0  0  0
    4.6028   -2.6601    0.0000 C   0  0  0  0  0  0  0  0  0  0  0  0
    4.6028   -3.9901    0.0000 O   0  0  0  0  0  0  0  0  0  0  0  0
    5.7555   -1.9991    0.0000 C   0  0  0  0  0  0  0  0  0  0  0  0
    5.7555   -0.6691    0.0000 C   0  0  0  0  0  0  0  0  0  0  0  0
    6.9082    0.0000    0.0000 C   0  0  0  0  0  0  0  0  0  0  0  0
    8.0609   -0.6691    0.0000 C   0  0  0  0  0  0  0  0  0  0  0  0
    8.0609   -1.9991    0.0000 C   0  0  0  0  0  0  0  0  0  0  0  0
    6.9082   -2.6601    0.0000 C   0  0  0  0  0  0  0  0  0  0  0  0
    2.3054   -2.6601    0.0000 C   0  0  0  0  0  0  0  0  0  0  0  0
    1.1527   -1.9991    0.0000 C   0  0  0  0  0  0  0  0  0  0  0  0
    1.1527   -0.6691    0.0000 C   0  0  0  0  0  0  0  0  0  0  0  0
    2.3054    0.0000    0.0000 C   0  0  0  0  0  0  0  0  0  0  0  0
    3.4581   -0.6691    0.0000 C   0  0  0  0  0  0  0  0  0  0  0  0
    0.0000    0.0000    0.0000 O   0  0  0  0  0  0  0  0  0  0  0  0
    2.3054   -3.9901    0.0000 O   0  0  0  0  0  0  0  0  0  0  0  0
  1  2  1  0  0  0  0
  1 10  1  0  0  0  0
  1 14  2  0  0  0  0
  2  3  2  0  0  0  0
  2  4  1  0  0  0  0
  4  5  1  0  0  0  0
  4  9  2  0  0  0  0
  5  6  2  0  0  0  0
  6  7  1  0  0  0  0
  7  8  2  0  0  0  0
  8  9  1  0  0  0  0
 10 11  2  0  0  0  0
 10 16  1  0  0  0  0
 11 12  1  0  0  0  0
 12 13  2  0  0  0  0
 12 15  1  0  0  0  0
 13 14  1  0  0  0  0
M  END
> <ID>
2207

> <Formula>
C13H10O3

> <FW>
214.2167

> <DSSTox_CID>
2406

> <DSSTox_RID>
76577

> <DSSTox_GSID>
22406

> <DSSTox_FileID_Sort>
1261

> <TS_ChemName>
2,4-Dihydroxybenzophenone

> <TS_ChemName_Synonyms>
2,4-Dihydroxybenzophenone (Methanone, (2,4-dihydroxyphenyl)phenyl-) (4-benzoylbenzene-1,3-diol)

> <TS_CASRN>
131-56-6

> <CASRN_ChemName_Relationship>
primary

> <TS_Description>
single chemical compound

> <ChemNote>


> <STRUCTURE_Shown>
tested chemical

> <STRUCTURE_Formula>
C13H10O3

> <STRUCTURE_MW>
214.2167

> <STRUCTURE_ChemType>
defined organic

> <STRUCTURE_DefinedOrganicForm>
parent

> <STRUCTURE_IUPAC>
(2,4-dihydroxyphenyl)(phenyl)methanone

> <STRUCTURE_SMILES>
O=C(c1ccc(O)cc1O)c2ccccc2

> <STRUCTURE_SMILES_Desalt>
O=C(c1ccc(O)cc1O)c2ccccc2

> <Substance_modify_yyyymmdd>
20080429

$$$$
