1327-53-3
ChemmineR-0914142331XD

 10 12  0  0  0  0  0  0  0  0  1 V2000
    1.7872   -1.2465    0.0000 As   0  0  0  0  0  0  0  0  0  0  0  0
    1.7549   -2.3765    0.0000 O    0  0  0  0  0  0  0  0  0  0  0  0
    2.8039   -2.4283    0.0000 As   0  0  0  0  0  0  0  0  0  0  0  0
    1.4020   -3.2378    0.0000 O    0  0  0  0  0  0  0  0  0  0  0  0
    0.0000   -2.4283    0.0000 As   0  0  0  0  0  0  0  0  0  0  0  0
    0.7414   -1.8034    0.0000 O    0  0  0  0  0  0  0  0  0  0  0  0
    0.0000   -0.8094    0.0000 O    0  0  0  0  0  0  0  0  0  0  0  0
    1.4020    0.0000    0.0000 As   0  0  0  0  0  0  0  0  0  0  0  0
    0.9260   -0.8256    0.0000 O    0  0  0  0  0  0  0  0  0  0  0  0
    2.8039   -0.8094    0.0000 O    0  0  0  0  0  0  0  0  0  0  0  0
  1  2  1  0  0  0  0
  1  6  1  0  0  0  0
  1  9  1  0  0  0  0
  2  3  1  0  0  0  0
  3  4  1  0  0  0  0
  3 10  1  0  0  0  0
  4  5  1  0  0  0  0
  5  6  1  0  0  0  0
  5  7  1  0  0  0  0
  7  8  1  0  0  0  0
  8  9  1  0  0  0  0
  8 10  1  0  0  0  0
M  END
> <ID>
101

> <Formula>
As4O6

> <FW>
395.6828

> <DSSTox_CID>
103

> <DSSTox_RID>
75368

> <DSSTox_GSID>
20103

> <DSSTox_FileID_Sort>
52

> <TS_ChemName>
Arsenic trioxide

> <TS_ChemName_Synonyms>
Arsenic trioxide (Arsenic oxide) (As2O3) (Arsenious oxide) (Arsenic (III) oxide)

> <TS_CASRN>
1327-53-3

> <CASRN_ChemName_Relationship>
primary

> <TS_Description>
single chemical compound

> <ChemNote>


> <STRUCTURE_Shown>
tested chemical

> <STRUCTURE_Formula>
As4O6

> <STRUCTURE_MW>
395.6828

> <STRUCTURE_ChemType>
inorganic

> <STRUCTURE_DefinedOrganicForm>


> <STRUCTURE_IUPAC>
tricyclo[3.3.1.1~3,7~]tetraarsoxane

> <STRUCTURE_SMILES>
O1[As]2O[As]3O[As]1O[As](O2)O3

> <STRUCTURE_SMILES_Desalt>
O1[As]2O[As]3O[As]1O[As](O2)O3

> <Substance_modify_yyyymmdd>
20080429

$$$$
