132907-72-3
ChemmineR-0914142331XD

 22 24  0  0  1  0  0  0  0  0  1 V2000
    7.9228   -1.7689    0.0000 C    0  0  0  0  0  0  0  0  0  0  0  0
    6.6306   -2.0337    0.0000 C    0  0  0  0  0  0  0  0  0  0  0  0
    8.6007   -2.9022    0.0000 C    0  0  0  0  0  0  0  0  0  0  0  0
    8.6007   -0.5932    0.0000 C    0  0  0  0  0  0  0  0  0  0  0  0
    5.5078   -1.3346    0.0000 C    0  0  0  0  0  0  0  0  0  0  0  0
    6.5035   -3.3577    0.0000 C    0  0  0  0  0  0  0  0  0  0  0  0
    7.7216   -3.8979    0.0000 N    0  0  0  0  0  0  0  0  0  0  0  0
    9.9353   -2.9022    0.0000 C    0  0  0  0  0  0  0  0  0  0  0  0
    9.9353   -0.5932    0.0000 C    0  0  0  0  0  0  0  0  0  0  0  0
    4.3533   -1.9913    0.0000 C    0  0  0  0  0  0  0  0  0  0  0  0
    5.5078    0.0000    0.0000 O    0  0  0  0  0  0  0  0  0  0  0  0
    7.9970   -5.2007    0.0000 C    0  0  0  0  0  0  0  0  0  0  0  0
   10.5920   -1.7689    0.0000 C    0  0  0  0  0  0  0  0  0  0  0  0
    3.1988   -1.3346    0.0000 C    0  0  0  0  0  0  0  0  0  0  0  0
    4.3533   -3.3259    0.0000 C    0  0  0  0  0  0  0  0  0  0  0  0
    2.0337   -1.9913    0.0000 C    0  0  0  0  0  0  0  0  0  0  0  0
    3.1988   -3.9932    0.0000 C    0  0  0  0  0  0  0  0  0  0  0  0
    2.0337   -3.3259    0.0000 C    0  0  0  0  0  0  0  0  0  0  0  0
    0.7838   -1.5888    0.0000 N    0  0  0  0  0  0  0  0  0  0  0  0
    0.7838   -3.7284    0.0000 N    0  0  0  0  0  0  0  0  0  0  0  0
    0.0000   -2.6692    0.0000 C    0  0  0  0  0  0  0  0  0  0  0  0
    5.5714   -4.6075    0.0000 Cl   0  0  0  0  0  0  0  0  0  0  0  0
  1  2  1  0  0  0  0
  1  3  2  0  0  0  0
  1  4  1  0  0  0  0
  2  5  1  0  0  0  0
  2  6  2  0  0  0  0
  3  7  1  0  0  0  0
  3  8  1  0  0  0  0
  4  9  2  0  0  0  0
  5 11  2  0  0  0  0
 10  5  1  6  0  0  0
  6  7  1  0  0  0  0
  7 12  1  0  0  0  0
  8 13  2  0  0  0  0
  9 13  1  0  0  0  0
 10 14  1  0  0  0  0
 10 15  1  0  0  0  0
 14 16  1  0  0  0  0
 15 17  1  0  0  0  0
 16 18  2  0  0  0  0
 16 19  1  0  0  0  0
 17 18  1  0  0  0  0
 18 20  1  0  0  0  0
 19 21  2  0  0  0  0
 20 21  1  0  0  0  0
M  END
> <ID>
1176

> <Formula>
C17H18ClN3O

> <FW>
315.7973 (279.3364+36.4609)

> <DSSTox_CID>
1223

> <DSSTox_RID>
76021

> <DSSTox_GSID>
21223

> <DSSTox_FileID_Sort>
705

> <TS_ChemName>
Ramosetron hydrochloride

> <TS_ChemName_Synonyms>


> <TS_CASRN>
132907-72-3

> <CASRN_ChemName_Relationship>
primary

> <TS_Description>
single chemical compound

> <ChemNote>
stereochem; parent [132036-88-5]

> <STRUCTURE_Shown>
tested chemical

> <STRUCTURE_Formula>
C17H18ClN3O

> <STRUCTURE_MW>
315.7973

> <STRUCTURE_ChemType>
defined organic

> <STRUCTURE_DefinedOrganicForm>
complex

> <STRUCTURE_IUPAC>
(1-methyl-1H-indol-3-yl)[(5R)-4,5,6,7-tetrahydro-1H-benzimidazol-5-yl]methanone hydrochloride (1:1)

> <STRUCTURE_SMILES>
Cl.O=C(c2cn(C)c1ccccc12)[C@H]3Cc4ncnc4CC3

> <STRUCTURE_SMILES_Desalt>
O=C(c2cn(C)c1ccccc12)[C@H]3Cc4ncnc4CC3

> <Substance_modify_yyyymmdd>
20080429

$$$$
