133-06-2
ChemmineR-0914142331XD

 16 17  0  0  0  0  0  0  0  0  1 V2000
    4.9479   -4.0566    0.0000 O    0  0  0  0  0  0  0  0  0  0  0  0
    3.9584   -3.1652    0.0000 C    0  0  0  0  0  0  0  0  0  0  0  0
    4.1019   -1.8432    0.0000 N    0  0  0  0  0  0  0  0  0  0  0  0
    2.8857   -1.2993    0.0000 C    0  0  0  0  0  0  0  0  0  0  0  0
    2.6062    0.0000    0.0000 O    0  0  0  0  0  0  0  0  0  0  0  0
    1.9943   -2.2889    0.0000 C    0  0  0  0  0  0  0  0  0  0  0  0
    2.6590   -3.4447    0.0000 C    0  0  0  0  0  0  0  0  0  0  0  0
    1.9943   -4.5929    0.0000 C    0  0  0  0  0  0  0  0  0  0  0  0
    0.6648   -4.5929    0.0000 C    0  0  0  0  0  0  0  0  0  0  0  0
    0.0000   -3.4447    0.0000 C    0  0  0  0  0  0  0  0  0  0  0  0
    0.6648   -2.2889    0.0000 C    0  0  0  0  0  0  0  0  0  0  0  0
    5.2501   -1.1784    0.0000 S    0  0  0  0  0  0  0  0  0  0  0  0
    6.4059   -1.8432    0.0000 C    0  0  0  0  0  0  0  0  0  0  0  0
    7.0707   -0.6874    0.0000 Cl   0  0  0  0  0  0  0  0  0  0  0  0
    7.5541   -2.5080    0.0000 Cl   0  0  0  0  0  0  0  0  0  0  0  0
    5.7411   -2.9914    0.0000 Cl   0  0  0  0  0  0  0  0  0  0  0  0
  1  2  2  0  0  0  0
  2  3  1  0  0  0  0
  2  7  1  0  0  0  0
  3  4  1  0  0  0  0
  3 12  1  0  0  0  0
  4  5  2  0  0  0  0
  4  6  1  0  0  0  0
  6  7  1  0  0  0  0
  6 11  1  0  0  0  0
  7  8  1  0  0  0  0
  8  9  1  0  0  0  0
  9 10  2  0  0  0  0
 10 11  1  0  0  0  0
 12 13  1  0  0  0  0
 13 14  1  0  0  0  0
 13 15  1  0  0  0  0
 13 16  1  0  0  0  0
M  END
> <ID>
239

> <Formula>
C9H8Cl3NO2S

> <FW>
300.5893

> <DSSTox_CID>
243

> <DSSTox_RID>
75457

> <DSSTox_GSID>
20243

> <DSSTox_FileID_Sort>
141

> <TS_ChemName>
Captan

> <TS_ChemName_Synonyms>
Merpan

> <TS_CASRN>
133-06-2

> <CASRN_ChemName_Relationship>
primary

> <TS_Description>
single chemical compound

> <ChemNote>


> <STRUCTURE_Shown>
tested chemical

> <STRUCTURE_Formula>
C9H8Cl3NO2S

> <STRUCTURE_MW>
300.5893

> <STRUCTURE_ChemType>
defined organic

> <STRUCTURE_DefinedOrganicForm>
parent

> <STRUCTURE_IUPAC>
2-[(trichloromethyl)sulfanyl]-3a,4,7,7a-tetrahydro-1H-isoindole-1,3(2H)-dione

> <STRUCTURE_SMILES>
ClC(Cl)(Cl)SN2C(=O)C1CC=CCC1C2=O

> <STRUCTURE_SMILES_Desalt>
ClC(Cl)(Cl)SN2C(=O)C1CC=CCC1C2=O

> <Substance_modify_yyyymmdd>
20120530

$$$$
