134308-13-7
ChemmineR-0914142331XD

 20 21  0  0  0  0  0  0  0  0  2 V2000
    2.3010   -1.9901    0.0000 C   0  0  0  0  0  0  0  0  0  0  0  0
    1.1505   -1.3267    0.0000 O   0  0  0  0  0  0  0  0  0  0  0  0
    3.4515   -1.3267    0.0000 C   0  0  0  0  0  0  0  0  0  0  0  0
    3.4515    0.0000    0.0000 O   0  0  0  0  0  0  0  0  0  0  0  0
    4.6020   -1.9901    0.0000 C   0  0  0  0  0  0  0  0  0  0  0  0
    4.6020   -3.3271    0.0000 C   0  0  0  0  0  0  0  0  0  0  0  0
    5.7629   -3.9905    0.0000 C   0  0  0  0  0  0  0  0  0  0  0  0
    5.7629   -5.3172    0.0000 O   0  0  0  0  0  0  0  0  0  0  0  0
    6.9134   -3.3271    0.0000 C   0  0  0  0  0  0  0  0  0  0  0  0
    6.9134   -1.9901    0.0000 C   0  0  0  0  0  0  0  0  0  0  0  0
    8.0639   -1.3267    0.0000 C   0  0  0  0  0  0  0  0  0  0  0  0
    9.2144   -1.9901    0.0000 C   0  0  0  0  0  0  0  0  0  0  0  0
   10.3649   -1.3267    0.0000 C   0  0  0  0  0  0  0  0  0  0  0  0
    9.2144   -3.3271    0.0000 C   0  0  0  0  0  0  0  0  0  0  0  0
    8.0639   -3.9905    0.0000 C   0  0  0  0  0  0  0  0  0  0  0  0
    3.4515   -3.9905    0.0000 C   0  0  0  0  0  0  0  0  0  0  0  0
    2.3010   -3.3271    0.0000 C   0  0  0  0  0  0  0  0  0  0  0  0
    1.1505   -3.9905    0.0000 N   0  3  0  0  0  0  0  0  0  0  0  0
    0.0000   -3.3271    0.0000 O   0  5  0  0  0  0  0  0  0  0  0  0
    1.1505   -5.3172    0.0000 O   0  0  0  0  0  0  0  0  0  0  0  0
  1  2  1  0  0  0  0
  1  3  2  0  0  0  0
  1 17  1  0  0  0  0
  3  4  1  0  0  0  0
  3  5  1  0  0  0  0
  5  6  2  0  0  0  0
  6  7  1  0  0  0  0
  6 16  1  0  0  0  0
  7  8  2  0  0  0  0
  7  9  1  0  0  0  0
  9 10  2  0  0  0  0
  9 15  1  0  0  0  0
 10 11  1  0  0  0  0
 11 12  2  0  0  0  0
 12 13  1  0  0  0  0
 12 14  1  0  0  0  0
 14 15  2  0  0  0  0
 16 17  2  0  0  0  0
 17 18  1  0  0  0  0
 18 19  1  0  0  0  0
 18 20  2  0  0  0  0
M  END
> <ID>
3291

> <Formula>
C14H11NO5

> <FW>
273.2408

> <DSSTox_CID>
3685

> <DSSTox_RID>
77146

> <DSSTox_GSID>
23685

> <DSSTox_FileID_Sort>
1829

> <TS_ChemName>
Tolcapone

> <TS_ChemName_Synonyms>


> <TS_CASRN>
134308-13-7

> <CASRN_ChemName_Relationship>
primary

> <TS_Description>
single chemical compound

> <ChemNote>


> <STRUCTURE_Shown>
tested chemical

> <STRUCTURE_Formula>
C14H11NO5

> <STRUCTURE_MW>
273.2408

> <STRUCTURE_ChemType>
defined organic

> <STRUCTURE_DefinedOrganicForm>
parent

> <STRUCTURE_IUPAC>
(3,4-dihydroxy-5-nitrophenyl)(4-methylphenyl)methanone

> <STRUCTURE_SMILES>
Oc1cc(cc([N+]([O-])=O)c1O)C(=O)c2ccc(C)cc2

> <STRUCTURE_SMILES_Desalt>
Oc1cc(cc([N+]([O-])=O)c1O)C(=O)c2ccc(C)cc2

> <Substance_modify_yyyymmdd>
20080429

$$$$
