134678-17-4
ChemmineR-0914142331XD

 15 16  0  0  1  0  0  0  0  0  1 V2000
    2.1096   -6.3514    0.0000 C   0  0  0  0  0  0  0  0  0  0  0  0
    3.1228   -5.6482    0.0000 O   0  0  0  0  0  0  0  0  0  0  0  0
    2.4649   -7.5309    0.0000 S   0  0  0  0  0  0  0  0  0  0  0  0
    4.1057   -6.3967    0.0000 C   0  0  0  0  0  0  0  0  0  0  0  0
    3.7050   -7.5612    0.0000 C   0  0  0  0  0  0  0  0  0  0  0  0
    4.1057   -3.7201    0.0000 N   0  0  0  0  0  0  0  0  0  0  0  0
    0.9376   -5.9355    0.0000 C   0  0  0  0  0  0  0  0  0  0  0  0
    0.0000   -6.7521    0.0000 O   0  0  0  0  0  0  0  0  0  0  0  0
    3.0320   -3.1076    0.0000 C   0  0  0  0  0  0  0  0  0  0  0  0
    3.0320   -1.8525    0.0000 N   0  0  0  0  0  0  0  0  0  0  0  0
    5.1870   -3.1076    0.0000 C   0  0  0  0  0  0  0  0  0  0  0  0
    5.1870   -1.8525    0.0000 C   0  0  0  0  0  0  0  0  0  0  0  0
    4.1057   -1.2249    0.0000 C   0  0  0  0  0  0  0  0  0  0  0  0
    1.9583   -3.7201    0.0000 O   0  0  0  0  0  0  0  0  0  0  0  0
    4.1057    0.0000    0.0000 N   0  0  0  0  0  0  0  0  0  0  0  0
  1  2  1  0  0  0  0
  1  3  1  0  0  0  0
  1  7  1  1  0  0  0
  2  4  1  0  0  0  0
  3  5  1  0  0  0  0
  4  5  1  0  0  0  0
  4  6  1  1  0  0  0
  6  9  1  0  0  0  0
  6 11  1  0  0  0  0
  7  8  1  0  0  0  0
  9 10  1  0  0  0  0
  9 14  2  0  0  0  0
 10 13  2  0  0  0  0
 11 12  2  0  0  0  0
 12 13  1  0  0  0  0
 13 15  1  0  0  0  0
M  END
> <ID>
2870

> <Formula>
C8H11N3O3S

> <FW>
229.2562

> <DSSTox_CID>
3194

> <DSSTox_RID>
76917

> <DSSTox_GSID>
23194

> <DSSTox_FileID_Sort>
1601

> <TS_ChemName>
Lamivudine

> <TS_ChemName_Synonyms>
Lamivudine (3TC)

> <TS_CASRN>
134678-17-4

> <CASRN_ChemName_Relationship>
primary

> <TS_Description>
single chemical compound

> <ChemNote>
stereochem

> <STRUCTURE_Shown>
tested chemical

> <STRUCTURE_Formula>
C8H11N3O3S

> <STRUCTURE_MW>
229.2562

> <STRUCTURE_ChemType>
defined organic

> <STRUCTURE_DefinedOrganicForm>
parent

> <STRUCTURE_IUPAC>
4-amino-1-[(2S,5R)-2-(hydroxymethyl)-1,3-oxathiolan-5-yl]pyrimidin-2(1H)-one

> <STRUCTURE_SMILES>
NC1=NC(=O)N(C=C1)[C@@H]2O[C@H](CO)SC2

> <STRUCTURE_SMILES_Desalt>
NC1=NC(=O)N(C=C1)[C@@H]2O[C@H](CO)SC2

> <Substance_modify_yyyymmdd>
20080429

$$$$
