135-09-1
ChemmineR-0914142331XD

 20 21  0  0  0  0  0  0  0  0  1 V2000
    3.4065   -4.5109    0.0000 C   0  0  0  0  0  0  0  0  0  0  0  0
    5.0087   -5.0942    0.0000 S   0  0  0  0  0  0  0  0  0  0  0  0
    5.3820   -3.8343    0.0000 O   0  0  0  0  0  0  0  0  0  0  0  0
    4.5576   -6.3231    0.0000 O   0  0  0  0  0  0  0  0  0  0  0  0
    6.2842   -5.3975    0.0000 N   0  0  0  0  0  0  0  0  0  0  0  0
    2.2710   -5.1642    0.0000 C   0  0  0  0  0  0  0  0  0  0  0  0
    2.2710   -6.4786    0.0000 C   0  0  0  0  0  0  0  0  0  0  0  0
    0.9644   -6.4008    0.0000 F   0  0  0  0  0  0  0  0  0  0  0  0
    3.5621   -6.7042    0.0000 F   0  0  0  0  0  0  0  0  0  0  0  0
    2.1155   -7.7774    0.0000 F   0  0  0  0  0  0  0  0  0  0  0  0
    1.1355   -4.5109    0.0000 C   0  0  0  0  0  0  0  0  0  0  0  0
    1.1355   -3.1965    0.0000 C   0  0  0  0  0  0  0  0  0  0  0  0
    2.2710   -2.5432    0.0000 C   0  0  0  0  0  0  0  0  0  0  0  0
    3.4065   -3.1965    0.0000 C   0  0  0  0  0  0  0  0  0  0  0  0
    2.2710   -1.2288    0.0000 S   0  0  0  0  0  0  0  0  0  0  0  0
    3.5621   -1.4622    0.0000 O   0  0  0  0  0  0  0  0  0  0  0  0
    2.7221    0.0000    0.0000 O   0  0  0  0  0  0  0  0  0  0  0  0
    1.1355   -0.5755    0.0000 N   0  0  0  0  0  0  0  0  0  0  0  0
    0.0000   -1.2288    0.0000 C   0  0  0  0  0  0  0  0  0  0  0  0
    0.0000   -2.5432    0.0000 N   0  0  0  0  0  0  0  0  0  0  0  0
  1  2  1  0  0  0  0
  1  6  2  0  0  0  0
  1 14  1  0  0  0  0
  2  3  2  0  0  0  0
  2  4  2  0  0  0  0
  2  5  1  0  0  0  0
  6  7  1  0  0  0  0
  6 11  1  0  0  0  0
  7  8  1  0  0  0  0
  7  9  1  0  0  0  0
  7 10  1  0  0  0  0
 11 12  2  0  0  0  0
 12 13  1  0  0  0  0
 12 20  1  0  0  0  0
 13 14  2  0  0  0  0
 13 15  1  0  0  0  0
 15 16  2  0  0  0  0
 15 17  2  0  0  0  0
 15 18  1  0  0  0  0
 18 19  1  0  0  0  0
 19 20  1  0  0  0  0
M  END
> <ID>
2812

> <Formula>
C8H8F3N3O4S2

> <FW>
331.292

> <DSSTox_CID>
3132

> <DSSTox_RID>
76886

> <DSSTox_GSID>
23132

> <DSSTox_FileID_Sort>
1570

> <TS_ChemName>
Hydroflumethiazide

> <TS_ChemName_Synonyms>


> <TS_CASRN>
135-09-1

> <CASRN_ChemName_Relationship>
primary

> <TS_Description>
single chemical compound

> <ChemNote>


> <STRUCTURE_Shown>
tested chemical

> <STRUCTURE_Formula>
C8H8F3N3O4S2

> <STRUCTURE_MW>
331.292

> <STRUCTURE_ChemType>
defined organic

> <STRUCTURE_DefinedOrganicForm>
parent

> <STRUCTURE_IUPAC>
6-(trifluoromethyl)-3,4-dihydro-2H-1,2,4-benzothiadiazine-7-sulfonamide 1,1-dioxide

> <STRUCTURE_SMILES>
FC(F)(F)c1cc2NCNS(=O)(=O)c2cc1S(N)(=O)=O

> <STRUCTURE_SMILES_Desalt>
FC(F)(F)c1cc2NCNS(=O)(=O)c2cc1S(N)(=O)=O

> <Substance_modify_yyyymmdd>
20080429

$$$$
