135062-02-1
ChemmineR-0914142331XD

 33 35  0  0  1  0  0  0  0  0  1 V2000
    1.1531   -7.9833    0.0000 C   0  0  0  0  0  0  0  0  0  0  0  0
    0.0000   -7.3243    0.0000 C   0  0  0  0  0  0  0  0  0  0  0  0
    0.0000   -6.0064    0.0000 C   0  0  0  0  0  0  0  0  0  0  0  0
    1.1531   -5.3348    0.0000 C   0  0  0  0  0  0  0  0  0  0  0  0
    2.3063   -6.0064    0.0000 C   0  0  0  0  0  0  0  0  0  0  0  0
    2.3063   -7.3243    0.0000 C   0  0  0  0  0  0  0  0  0  0  0  0
    3.4594   -7.9833    0.0000 N   0  0  0  0  0  0  0  0  0  0  0  0
    4.6125   -7.3243    0.0000 C   0  0  0  0  0  0  0  0  0  0  0  0
    5.7657   -7.9833    0.0000 C   0  0  0  0  0  0  0  0  0  0  0  0
    5.7657   -9.3138    0.0000 C   0  0  0  0  0  0  0  0  0  0  0  0
    4.6125   -9.9854    0.0000 C   0  0  0  0  0  0  0  0  0  0  0  0
    3.4594   -9.3138    0.0000 C   0  0  0  0  0  0  0  0  0  0  0  0
    3.4594   -5.3348    0.0000 C   0  0  0  0  0  0  0  0  0  0  0  0
    4.6125   -6.0064    0.0000 N   0  0  0  0  0  0  0  0  0  0  0  0
    5.7657   -5.3348    0.0000 C   0  0  0  0  0  0  0  0  0  0  0  0
    6.9061   -6.0064    0.0000 O   0  0  0  0  0  0  0  0  0  0  0  0
    5.7657   -3.9916    0.0000 C   0  0  0  0  0  0  0  0  0  0  0  0
    6.9061   -3.3327    0.0000 C   0  0  0  0  0  0  0  0  0  0  0  0
    3.4594   -3.9916    0.0000 C   0  0  0  0  0  0  0  0  0  0  0  0
    2.3063   -3.3327    0.0000 C   0  0  0  0  0  0  0  0  0  0  0  0
    2.3063   -2.0021    0.0000 C   0  0  0  0  0  0  0  0  0  0  0  0
    1.1531   -3.9916    0.0000 C   0  0  0  0  0  0  0  0  0  0  0  0
    8.0593   -3.9916    0.0000 C   0  0  0  0  0  0  0  0  0  0  0  0
    9.2124   -3.3327    0.0000 C   0  0  0  0  0  0  0  0  0  0  0  0
    9.2124   -2.0021    0.0000 C   0  0  0  0  0  0  0  0  0  0  0  0
    8.0593   -1.3432    0.0000 C   0  0  0  0  0  0  0  0  0  0  0  0
    6.9061   -2.0021    0.0000 C   0  0  0  0  0  0  0  0  0  0  0  0
   10.3656   -1.3432    0.0000 C   0  0  0  0  0  0  0  0  0  0  0  0
   10.3656   -3.9916    0.0000 O   0  0  0  0  0  0  0  0  0  0  0  0
   11.5187   -3.3327    0.0000 C   0  0  0  0  0  0  0  0  0  0  0  0
   12.6718   -3.9916    0.0000 C   0  0  0  0  0  0  0  0  0  0  0  0
   10.3656    0.0000    0.0000 O   0  0  0  0  0  0  0  0  0  0  0  0
   11.5187   -2.0021    0.0000 O   0  0  0  0  0  0  0  0  0  0  0  0
  1  6  1  0  0  0  0
  1  2  2  0  0  0  0
  2  3  1  0  0  0  0
  3  4  2  0  0  0  0
  4  5  1  0  0  0  0
  5  6  2  0  0  0  0
  5 13  1  0  0  0  0
  6  7  1  0  0  0  0
  7 12  1  0  0  0  0
  7  8  1  0  0  0  0
  8  9  1  0  0  0  0
  9 10  1  0  0  0  0
 10 11  1  0  0  0  0
 11 12  1  0  0  0  0
 13 19  1  6  0  0  0
 13 14  1  0  0  0  0
 14 15  1  0  0  0  0
 15 16  2  0  0  0  0
 15 17  1  0  0  0  0
 17 18  1  0  0  0  0
 18 23  2  0  0  0  0
 18 27  1  0  0  0  0
 19 20  1  0  0  0  0
 20 21  1  0  0  0  0
 20 22  1  0  0  0  0
 23 24  1  0  0  0  0
 24 25  2  0  0  0  0
 24 29  1  0  0  0  0
 25 26  1  0  0  0  0
 25 28  1  0  0  0  0
 26 27  2  0  0  0  0
 28 32  1  0  0  0  0
 28 33  2  0  0  0  0
 29 30  1  0  0  0  0
 30 31  1  0  0  0  0
M  END
> <ID>
3179

> <Formula>
C27H36N2O4

> <FW>
452.5857

> <DSSTox_CID>
3552

> <DSSTox_RID>
77078

> <DSSTox_GSID>
23552

> <DSSTox_FileID_Sort>
1761

> <TS_ChemName>
Repaglinide

> <TS_ChemName_Synonyms>


> <TS_CASRN>
135062-02-1

> <CASRN_ChemName_Relationship>
primary

> <TS_Description>
single chemical compound

> <ChemNote>
stereochem

> <STRUCTURE_Shown>
tested chemical

> <STRUCTURE_Formula>
C27H36N2O4

> <STRUCTURE_MW>
452.5857

> <STRUCTURE_ChemType>
defined organic

> <STRUCTURE_DefinedOrganicForm>
parent

> <STRUCTURE_IUPAC>
2-ethoxy-4-[2-({(1S)-3-methyl-1-[2-(piperidin-1-yl)phenyl]butyl}amino)-2-oxoethyl]benzoic acid

> <STRUCTURE_SMILES>
O=C(O)c1ccc(cc1OCC)CC(=O)N[C@@H](CC(C)C)c2ccccc2N3CCCCC3

> <STRUCTURE_SMILES_Desalt>
O=C(O)c1ccc(cc1OCC)CC(=O)N[C@@H](CC(C)C)c2ccccc2N3CCCCC3

> <Substance_modify_yyyymmdd>
20080429

$$$$
