137-19-9
ChemmineR-0914142331XD

 10 10  0  0  0  0  0  0  0  0  1 V2000
    4.6084   -2.6590    0.0000 Cl   0  0  0  0  0  0  0  0  0  0  0  0
    3.4563   -1.9954    0.0000 C    0  0  0  0  0  0  0  0  0  0  0  0
    2.3042   -2.6590    0.0000 C    0  0  0  0  0  0  0  0  0  0  0  0
    1.1521   -1.9954    0.0000 C    0  0  0  0  0  0  0  0  0  0  0  0
    0.0000   -2.6590    0.0000 Cl   0  0  0  0  0  0  0  0  0  0  0  0
    3.4563   -0.6636    0.0000 C    0  0  0  0  0  0  0  0  0  0  0  0
    2.3042    0.0000    0.0000 C    0  0  0  0  0  0  0  0  0  0  0  0
    1.1521   -0.6636    0.0000 C    0  0  0  0  0  0  0  0  0  0  0  0
    0.0000    0.0000    0.0000 O    0  0  0  0  0  0  0  0  0  0  0  0
    4.6084    0.0000    0.0000 O    0  0  0  0  0  0  0  0  0  0  0  0
  1  2  1  0  0  0  0
  2  3  1  0  0  0  0
  2  6  2  0  0  0  0
  3  4  2  0  0  0  0
  4  5  1  0  0  0  0
  4  8  1  0  0  0  0
  6  7  1  0  0  0  0
  6 10  1  0  0  0  0
  7  8  2  0  0  0  0
  8  9  1  0  0  0  0
M  END
> <ID>
1502

> <Formula>
C6H4Cl2O2

> <FW>
179.0008

> <DSSTox_CID>
1563

> <DSSTox_RID>
76213

> <DSSTox_GSID>
21563

> <DSSTox_FileID_Sort>
897

> <TS_ChemName>
4,6-Dichloro-1,3-benzenediol

> <TS_ChemName_Synonyms>


> <TS_CASRN>
137-19-9

> <CASRN_ChemName_Relationship>
primary

> <TS_Description>
single chemical compound

> <ChemNote>


> <STRUCTURE_Shown>
tested chemical

> <STRUCTURE_Formula>
C6H4Cl2O2

> <STRUCTURE_MW>
179.0008

> <STRUCTURE_ChemType>
defined organic

> <STRUCTURE_DefinedOrganicForm>
parent

> <STRUCTURE_IUPAC>
4,6-dichlorobenzene-1,3-diol

> <STRUCTURE_SMILES>
Oc1cc(O)c(Cl)cc1Cl

> <STRUCTURE_SMILES_Desalt>
Oc1cc(O)c(Cl)cc1Cl

> <Substance_modify_yyyymmdd>
20080429

$$$$
