137-17-7
ChemmineR-0914142331XD

 10 10  0  0  0  0  0  0  0  0  1 V2000
    4.6084   -2.6590    0.0000 C   0  0  0  0  0  0  0  0  0  0  0  0
    3.4563   -1.9954    0.0000 C   0  0  0  0  0  0  0  0  0  0  0  0
    2.3042   -2.6590    0.0000 C   0  0  0  0  0  0  0  0  0  0  0  0
    1.1521   -1.9954    0.0000 C   0  0  0  0  0  0  0  0  0  0  0  0
    1.1521   -0.6636    0.0000 C   0  0  0  0  0  0  0  0  0  0  0  0
    2.3042    0.0000    0.0000 C   0  0  0  0  0  0  0  0  0  0  0  0
    3.4563   -0.6636    0.0000 C   0  0  0  0  0  0  0  0  0  0  0  0
    4.6084    0.0000    0.0000 C   0  0  0  0  0  0  0  0  0  0  0  0
    0.0000    0.0000    0.0000 N   0  0  0  0  0  0  0  0  0  0  0  0
    0.0000   -2.6590    0.0000 C   0  0  0  0  0  0  0  0  0  0  0  0
  1  2  1  0  0  0  0
  2  3  2  0  0  0  0
  2  7  1  0  0  0  0
  3  4  1  0  0  0  0
  4  5  2  0  0  0  0
  4 10  1  0  0  0  0
  5  6  1  0  0  0  0
  5  9  1  0  0  0  0
  6  7  2  0  0  0  0
  7  8  1  0  0  0  0
M  END
> <ID>
1343

> <Formula>
C9H13N

> <FW>
135.2062

> <DSSTox_CID>
1398

> <DSSTox_RID>
76139

> <DSSTox_GSID>
21398

> <DSSTox_FileID_Sort>
823

> <TS_ChemName>
2,4,5-Trimethylaniline

> <TS_ChemName_Synonyms>


> <TS_CASRN>
137-17-7

> <CASRN_ChemName_Relationship>
primary

> <TS_Description>
single chemical compound

> <ChemNote>


> <STRUCTURE_Shown>
tested chemical

> <STRUCTURE_Formula>
C9H13N

> <STRUCTURE_MW>
135.2062

> <STRUCTURE_ChemType>
defined organic

> <STRUCTURE_DefinedOrganicForm>
parent

> <STRUCTURE_IUPAC>
2,4,5-trimethylaniline

> <STRUCTURE_SMILES>
Cc1cc(C)c(N)cc1C

> <STRUCTURE_SMILES_Desalt>
Cc1cc(C)c(N)cc1C

> <Substance_modify_yyyymmdd>
20080429

$$$$
