137-29-1
ChemmineR-0914142331XD

 13 10  0  0  0  0  0  0  0  0  2 V2000
    0.0148   -2.6691    0.0000 S    0  0  0  0  0  0  0  0  0  0  0  0
    1.1608   -2.0036    0.0000 C    0  0  0  0  0  0  0  0  0  0  0  0
    1.1608   -0.6654    0.0000 N    0  0  0  0  0  0  0  0  0  0  0  0
    0.0000   -0.0148    0.0000 C    0  0  0  0  0  0  0  0  0  0  0  0
    2.3068    0.0000    0.0000 C    0  0  0  0  0  0  0  0  0  0  0  0
    2.3216   -2.6543    0.0000 S    0  5  0  0  0  0  0  0  0  0  0  0
    2.4325   -4.7393    0.0000 S    0  5  0  0  0  0  0  0  0  0  0  0
    1.2643   -5.3899    0.0000 C    0  0  0  0  0  0  0  0  0  0  0  0
    0.1257   -4.7245    0.0000 S    0  0  0  0  0  0  0  0  0  0  0  0
    1.2643   -6.7281    0.0000 N    0  0  0  0  0  0  0  0  0  0  0  0
    2.4103   -7.3935    0.0000 C    0  0  0  0  0  0  0  0  0  0  0  0
    0.1035   -7.3787    0.0000 C    0  0  0  0  0  0  0  0  0  0  0  0
    3.4824   -3.5785    0.0000 Cu   0  2  0  0  0  0  0  0  0  0  0  0
  1  2  2  0  0  0  0
  2  3  1  0  0  0  0
  2  6  1  0  0  0  0
  3  4  1  0  0  0  0
  3  5  1  0  0  0  0
  7  8  1  0  0  0  0
  8  9  2  0  0  0  0
  8 10  1  0  0  0  0
 10 11  1  0  0  0  0
 10 12  1  0  0  0  0
M  END
> <ID>
335

> <Formula>
C6H12CuN2S4

> <FW>
303.9789 (120.2170+120.2170+63.5449)

> <DSSTox_CID>
345

> <DSSTox_RID>
75527

> <DSSTox_GSID>
20345

> <DSSTox_FileID_Sort>
211

> <TS_ChemName>
Copper dimethyldithiocarbamate

> <TS_ChemName_Synonyms>


> <TS_CASRN>
137-29-1

> <CASRN_ChemName_Relationship>
primary

> <TS_Description>
single chemical compound

> <ChemNote>


> <STRUCTURE_Shown>
tested chemical

> <STRUCTURE_Formula>
C6H12CuN2S4

> <STRUCTURE_MW>
303.9789

> <STRUCTURE_ChemType>
organometallic

> <STRUCTURE_DefinedOrganicForm>


> <STRUCTURE_IUPAC>
copper(2+) bis(dimethylcarbamodithioate)

> <STRUCTURE_SMILES>
[Cu+2].S=C([S-])N(C)C.CN(C)C([S-])=S

> <STRUCTURE_SMILES_Desalt>
CN(C)C(=S)S

> <Substance_modify_yyyymmdd>
20080429

$$$$
