137862-53-4
ChemmineR-0914142331XD

 32 34  0  0  1  0  0  0  0  0  1 V2000
    2.3051   -4.6677    0.0000 C   0  0  0  0  0  0  0  0  0  0  0  0
    3.4576   -3.9877    0.0000 C   0  0  0  0  0  0  0  0  0  0  0  0
    3.4576   -2.6623    0.0000 C   0  0  0  0  0  0  0  0  0  0  0  0
    4.6101   -2.0054    0.0000 C   0  0  0  0  0  0  0  0  0  0  0  0
    5.7742   -2.6623    0.0000 C   0  0  0  0  0  0  0  0  0  0  0  0
    6.9267   -2.0054    0.0000 C   0  0  0  0  0  0  0  0  0  0  0  0
    8.0677   -2.6623    0.0000 N   0  0  0  0  0  0  0  0  0  0  0  0
    9.2202   -2.0054    0.0000 C   0  0  0  0  0  0  0  0  0  0  0  0
    9.2202   -0.6685    0.0000 C   0  0  0  0  0  0  0  0  0  0  0  0
    8.0677    0.0000    0.0000 O   0  0  0  0  0  0  0  0  0  0  0  0
   10.3727    0.0000    0.0000 O   0  0  0  0  0  0  0  0  0  0  0  0
   10.3727   -2.6623    0.0000 C   0  0  0  0  0  0  0  0  0  0  0  0
   11.5253   -2.0054    0.0000 C   0  0  0  0  0  0  0  0  0  0  0  0
   10.3727   -3.9877    0.0000 C   0  0  0  0  0  0  0  0  0  0  0  0
    8.0677   -3.9877    0.0000 C   0  0  0  0  0  0  0  0  0  0  0  0
    6.9267   -4.6677    0.0000 O   0  0  0  0  0  0  0  0  0  0  0  0
    9.2202   -4.6677    0.0000 C   0  0  0  0  0  0  0  0  0  0  0  0
    9.2202   -5.9931    0.0000 C   0  0  0  0  0  0  0  0  0  0  0  0
   10.3727   -6.6501    0.0000 C   0  0  0  0  0  0  0  0  0  0  0  0
   10.3727   -7.9870    0.0000 C   0  0  0  0  0  0  0  0  0  0  0  0
    5.7742   -3.9877    0.0000 C   0  0  0  0  0  0  0  0  0  0  0  0
    4.6101   -4.6677    0.0000 C   0  0  0  0  0  0  0  0  0  0  0  0
    2.3051   -5.9931    0.0000 C   0  0  0  0  0  0  0  0  0  0  0  0
    1.1525   -6.6501    0.0000 C   0  0  0  0  0  0  0  0  0  0  0  0
    0.0000   -5.9931    0.0000 C   0  0  0  0  0  0  0  0  0  0  0  0
    0.0000   -4.6677    0.0000 C   0  0  0  0  0  0  0  0  0  0  0  0
    1.1525   -3.9877    0.0000 C   0  0  0  0  0  0  0  0  0  0  0  0
    1.1525   -2.6623    0.0000 C   0  0  0  0  0  0  0  0  0  0  0  0
    0.0807   -1.8901    0.0000 N   0  0  0  0  0  0  0  0  0  0  0  0
    0.4841   -0.6224    0.0000 N   0  0  0  0  0  0  0  0  0  0  0  0
    1.8095   -0.6224    0.0000 N   0  0  0  0  0  0  0  0  0  0  0  0
    2.2359   -1.8901    0.0000 N   0  0  0  0  0  0  0  0  0  0  0  0
  1  2  1  0  0  0  0
  1 23  2  0  0  0  0
  1 27  1  0  0  0  0
  2  3  2  0  0  0  0
  2 22  1  0  0  0  0
  3  4  1  0  0  0  0
  4  5  2  0  0  0  0
  5  6  1  0  0  0  0
  5 21  1  0  0  0  0
  6  7  1  0  0  0  0
  7  8  1  0  0  0  0
  7 15  1  0  0  0  0
  8  9  1  1  0  0  0
  8 12  1  0  0  0  0
  9 10  2  0  0  0  0
  9 11  1  0  0  0  0
 12 13  1  0  0  0  0
 12 14  1  0  0  0  0
 15 16  2  0  0  0  0
 15 17  1  0  0  0  0
 17 18  1  0  0  0  0
 18 19  1  0  0  0  0
 19 20  1  0  0  0  0
 21 22  2  0  0  0  0
 23 24  1  0  0  0  0
 24 25  2  0  0  0  0
 25 26  1  0  0  0  0
 26 27  2  0  0  0  0
 27 28  1  0  0  0  0
 28 29  1  0  0  0  0
 28 32  2  0  0  0  0
 29 30  1  0  0  0  0
 30 31  2  0  0  0  0
 31 32  1  0  0  0  0
M  END
> <ID>
3337

> <Formula>
C24H29N5O3

> <FW>
435.5188

> <DSSTox_CID>
3735

> <DSSTox_RID>
77173

> <DSSTox_GSID>
23735

> <DSSTox_FileID_Sort>
1856

> <TS_ChemName>
Valsartan

> <TS_ChemName_Synonyms>


> <TS_CASRN>
137862-53-4

> <CASRN_ChemName_Relationship>
primary

> <TS_Description>
single chemical compound

> <ChemNote>
stereochem

> <STRUCTURE_Shown>
tested chemical

> <STRUCTURE_Formula>
C24H29N5O3

> <STRUCTURE_MW>
435.5188

> <STRUCTURE_ChemType>
defined organic

> <STRUCTURE_DefinedOrganicForm>
parent

> <STRUCTURE_IUPAC>
N-pentanoyl-N-{[2'-(1H-tetrazol-5-yl)biphenyl-4-yl]methyl}-D-valine

> <STRUCTURE_SMILES>
O=C(O)[C@@H](C(C)C)N(Cc1ccc(cc1)c2ccccc2c3nnnn3)C(=O)CCCC

> <STRUCTURE_SMILES_Desalt>
O=C(O)[C@@H](C(C)C)N(Cc1ccc(cc1)c2ccccc2c3nnnn3)C(=O)CCCC

> <Substance_modify_yyyymmdd>
20080429

$$$$
