138402-11-6
ChemmineR-0914142331XD

 32 36  0  0  0  0  0  0  0  0  1 V2000
    6.6497   -5.5600    0.0000 C   0  0  0  0  0  0  0  0  0  0  0  0
    7.9747   -5.5600    0.0000 C   0  0  0  0  0  0  0  0  0  0  0  0
    8.6434   -4.4084    0.0000 N   0  0  0  0  0  0  0  0  0  0  0  0
    8.0986   -3.1948    0.0000 C   0  0  0  0  0  0  0  0  0  0  0  0
    6.7983   -2.9224    0.0000 C   0  0  0  0  0  0  0  0  0  0  0  0
    6.4640   -1.6346    0.0000 C   0  0  0  0  0  0  0  0  0  0  0  0
    5.1761   -1.2878    0.0000 C   0  0  0  0  0  0  0  0  0  0  0  0
    4.8294    0.0000    0.0000 C   0  0  0  0  0  0  0  0  0  0  0  0
    9.0892   -2.3033    0.0000 N   0  0  0  0  0  0  0  0  0  0  0  0
   10.2408   -2.9719    0.0000 C   0  0  0  0  0  0  0  0  0  0  0  0
    9.9684   -4.2722    0.0000 C   0  0  0  0  0  0  0  0  0  0  0  0
   10.8600   -5.2628    0.0000 O   0  0  0  0  0  0  0  0  0  0  0  0
   10.5256   -1.6717    0.0000 C   0  0  0  0  0  0  0  0  0  0  0  0
   11.8383   -1.5231    0.0000 C   0  0  0  0  0  0  0  0  0  0  0  0
   12.3831   -2.7491    0.0000 C   0  0  0  0  0  0  0  0  0  0  0  0
   11.3925   -3.6283    0.0000 C   0  0  0  0  0  0  0  0  0  0  0  0
    5.9810   -6.7116    0.0000 C   0  0  0  0  0  0  0  0  0  0  0  0
    4.6561   -6.7116    0.0000 C   0  0  0  0  0  0  0  0  0  0  0  0
    3.9874   -5.5600    0.0000 C   0  0  0  0  0  0  0  0  0  0  0  0
    2.6624   -5.5600    0.0000 C   0  0  0  0  0  0  0  0  0  0  0  0
    1.9937   -6.7116    0.0000 C   0  0  0  0  0  0  0  0  0  0  0  0
    0.6687   -6.7116    0.0000 C   0  0  0  0  0  0  0  0  0  0  0  0
    0.0000   -5.5600    0.0000 C   0  0  0  0  0  0  0  0  0  0  0  0
    0.6687   -4.4084    0.0000 C   0  0  0  0  0  0  0  0  0  0  0  0
    1.9937   -4.4084    0.0000 C   0  0  0  0  0  0  0  0  0  0  0  0
    2.6624   -3.2568    0.0000 C   0  0  0  0  0  0  0  0  0  0  0  0
    2.1175   -2.0432    0.0000 N   0  0  0  0  0  0  0  0  0  0  0  0
    3.1082   -1.1516    0.0000 N   0  0  0  0  0  0  0  0  0  0  0  0
    4.2598   -1.8203    0.0000 N   0  0  0  0  0  0  0  0  0  0  0  0
    3.9874   -3.1205    0.0000 N   0  0  0  0  0  0  0  0  0  0  0  0
    4.6561   -4.4084    0.0000 C   0  0  0  0  0  0  0  0  0  0  0  0
    5.9810   -4.4084    0.0000 C   0  0  0  0  0  0  0  0  0  0  0  0
  1  2  1  0  0  0  0
  1 17  2  0  0  0  0
  1 32  1  0  0  0  0
  2  3  1  0  0  0  0
  3  4  1  0  0  0  0
  3 11  1  0  0  0  0
  4  5  1  0  0  0  0
  4  9  2  0  0  0  0
  5  6  1  0  0  0  0
  6  7  1  0  0  0  0
  7  8  1  0  0  0  0
  9 10  1  0  0  0  0
 10 11  1  0  0  0  0
 10 13  1  0  0  0  0
 10 16  1  0  0  0  0
 11 12  2  0  0  0  0
 13 14  1  0  0  0  0
 14 15  1  0  0  0  0
 15 16  1  0  0  0  0
 17 18  1  0  0  0  0
 18 19  2  0  0  0  0
 19 20  1  0  0  0  0
 19 31  1  0  0  0  0
 20 21  2  0  0  0  0
 20 25  1  0  0  0  0
 21 22  1  0  0  0  0
 22 23  2  0  0  0  0
 23 24  1  0  0  0  0
 24 25  2  0  0  0  0
 25 26  1  0  0  0  0
 26 27  1  0  0  0  0
 26 30  2  0  0  0  0
 27 28  1  0  0  0  0
 28 29  2  0  0  0  0
 29 30  1  0  0  0  0
 31 32  2  0  0  0  0
M  END
> <ID>
2846

> <Formula>
C25H28N6O

> <FW>
428.5294

> <DSSTox_CID>
3169

> <DSSTox_RID>
76900

> <DSSTox_GSID>
23169

> <DSSTox_FileID_Sort>
1584

> <TS_ChemName>
Irbesartan

> <TS_ChemName_Synonyms>


> <TS_CASRN>
138402-11-6

> <CASRN_ChemName_Relationship>
primary

> <TS_Description>
single chemical compound

> <ChemNote>


> <STRUCTURE_Shown>
tested chemical

> <STRUCTURE_Formula>
C25H28N6O

> <STRUCTURE_MW>
428.5294

> <STRUCTURE_ChemType>
defined organic

> <STRUCTURE_DefinedOrganicForm>
parent

> <STRUCTURE_IUPAC>
2-butyl-3-{[2'-(1H-tetrazol-5-yl)biphenyl-4-yl]methyl}-1,3-diazaspiro[4.4]non-1-en-4-one

> <STRUCTURE_SMILES>
CCCCC5=NC1(CCCC1)C(=O)N5Cc2ccc(cc2)c3ccccc3c4nnnn4

> <STRUCTURE_SMILES_Desalt>
CCCCC5=NC1(CCCC1)C(=O)N5Cc2ccc(cc2)c3ccccc3c4nnnn4

> <Substance_modify_yyyymmdd>
20080429

$$$$
