139-40-2
ChemmineR-0914142331XD

 15 15  0  0  0  0  0  0  0  0  1 V2000
    1.9946    0.0000    0.0000 Cl   0  0  0  0  0  0  0  0  0  0  0  0
    2.6568   -1.1568    0.0000 C    0  0  0  0  0  0  0  0  0  0  0  0
    3.9891   -1.1568    0.0000 N    0  0  0  0  0  0  0  0  0  0  0  0
    4.6513   -2.3057    0.0000 C    0  0  0  0  0  0  0  0  0  0  0  0
    3.9891   -3.4546    0.0000 N    0  0  0  0  0  0  0  0  0  0  0  0
    2.6568   -3.4546    0.0000 C    0  0  0  0  0  0  0  0  0  0  0  0
    1.9946   -2.3057    0.0000 N    0  0  0  0  0  0  0  0  0  0  0  0
    1.9946   -4.6114    0.0000 N    0  0  0  0  0  0  0  0  0  0  0  0
    0.6622   -4.6114    0.0000 C    0  0  0  0  0  0  0  0  0  0  0  0
    0.0000   -5.7603    0.0000 C    0  0  0  0  0  0  0  0  0  0  0  0
    0.0000   -3.4546    0.0000 C    0  0  0  0  0  0  0  0  0  0  0  0
    5.9837   -2.3057    0.0000 N    0  0  0  0  0  0  0  0  0  0  0  0
    6.6459   -3.4546    0.0000 C    0  0  0  0  0  0  0  0  0  0  0  0
    7.9783   -3.4546    0.0000 C    0  0  0  0  0  0  0  0  0  0  0  0
    5.9837   -4.6114    0.0000 C    0  0  0  0  0  0  0  0  0  0  0  0
  1  2  1  0  0  0  0
  2  3  2  0  0  0  0
  2  7  1  0  0  0  0
  3  4  1  0  0  0  0
  4  5  2  0  0  0  0
  4 12  1  0  0  0  0
  5  6  1  0  0  0  0
  6  7  2  0  0  0  0
  6  8  1  0  0  0  0
  8  9  1  0  0  0  0
  9 10  1  0  0  0  0
  9 11  1  0  0  0  0
 12 13  1  0  0  0  0
 13 14  1  0  0  0  0
 13 15  1  0  0  0  0
M  END
> <ID>
1150

> <Formula>
C9H16ClN5

> <FW>
229.7098

> <DSSTox_CID>
1196

> <DSSTox_RID>
76005

> <DSSTox_GSID>
21196

> <DSSTox_FileID_Sort>
689

> <TS_ChemName>
Propazine

> <TS_ChemName_Synonyms>
Propazine (1,3,5-Triazine-2,4-diamine, 6-chloro-N,N'-bis(1-methylethyl)-)

> <TS_CASRN>
139-40-2

> <CASRN_ChemName_Relationship>
primary

> <TS_Description>
single chemical compound

> <ChemNote>


> <STRUCTURE_Shown>
tested chemical

> <STRUCTURE_Formula>
C9H16ClN5

> <STRUCTURE_MW>
229.7098

> <STRUCTURE_ChemType>
defined organic

> <STRUCTURE_DefinedOrganicForm>
parent

> <STRUCTURE_IUPAC>
6-chloro-N,N'-di(propan-2-yl)-1,3,5-triazine-2,4-diamine

> <STRUCTURE_SMILES>
Clc1nc(NC(C)C)nc(NC(C)C)n1

> <STRUCTURE_SMILES_Desalt>
Clc1nc(NC(C)C)nc(NC(C)C)n1

> <Substance_modify_yyyymmdd>
20080429

$$$$
