139110-80-8
ChemmineR-0914142331XD

 23 23  0  0  1  0  0  0  0  0  1 V2000
    2.0116   -2.3175    0.0000 O   0  0  0  0  0  0  0  0  0  0  0  0
    3.3465   -2.3175    0.0000 C   0  0  0  0  0  0  0  0  0  0  0  0
    4.0140   -3.4763    0.0000 C   0  0  0  0  0  0  0  0  0  0  0  0
    5.3489   -3.4763    0.0000 O   0  0  0  0  0  0  0  0  0  0  0  0
    6.0256   -4.6351    0.0000 C   0  0  0  0  0  0  0  0  0  0  0  0
    5.3489   -5.7938    0.0000 C   0  0  0  0  0  0  0  0  0  0  0  0
    4.0140   -5.7938    0.0000 C   0  0  0  0  0  0  0  0  0  0  0  0
    3.3465   -6.9526    0.0000 N   0  0  0  0  0  0  0  0  0  0  0  0
    4.0140   -8.1114    0.0000 C   0  0  0  0  0  0  0  0  0  0  0  0
    3.3465   -9.2701    0.0000 N   0  0  0  0  0  0  0  0  0  0  0  0
    5.3489   -8.1114    0.0000 N   0  0  0  0  0  0  0  0  0  0  0  0
    3.3465   -4.6351    0.0000 C   0  0  0  0  0  0  0  0  0  0  0  0
    2.0116   -4.6351    0.0000 N   0  0  0  0  0  0  0  0  0  0  0  0
    1.3349   -5.7938    0.0000 C   0  0  0  0  0  0  0  0  0  0  0  0
    0.0000   -5.7938    0.0000 C   0  0  0  0  0  0  0  0  0  0  0  0
    1.1124   -6.9526    0.0000 O   0  0  0  0  0  0  0  0  0  0  0  0
    7.3605   -4.6351    0.0000 C   0  0  0  0  0  0  0  0  0  0  0  0
    8.0187   -3.4763    0.0000 O   0  0  0  0  0  0  0  0  0  0  0  0
    8.0187   -5.7938    0.0000 O   0  0  0  0  0  0  0  0  0  0  0  0
    4.0140   -1.1588    0.0000 C   0  0  0  0  0  0  0  0  0  0  0  0
    3.3465    0.0000    0.0000 O   0  0  0  0  0  0  0  0  0  0  0  0
    5.3489   -1.1588    0.0000 C   0  0  0  0  0  0  0  0  0  0  0  0
    6.0256   -2.3175    0.0000 O   0  0  0  0  0  0  0  0  0  0  0  0
  2  1  1  6  0  0  0
  2  3  1  0  0  0  0
  2 20  1  0  0  0  0
  3  4  1  6  0  0  0
  3 12  1  0  0  0  0
  4  5  1  0  0  0  0
  5  6  2  0  0  0  0
  5 17  1  0  0  0  0
  6  7  1  0  0  0  0
  7  8  1  6  0  0  0
  7 12  1  0  0  0  0
  8  9  1  0  0  0  0
  9 10  1  0  0  0  0
  9 11  2  0  0  0  0
 12 13  1  1  0  0  0
 13 14  1  0  0  0  0
 14 15  1  0  0  0  0
 14 16  2  0  0  0  0
 17 18  1  0  0  0  0
 17 19  2  0  0  0  0
 20 21  1  6  0  0  0
 20 22  1  0  0  0  0
 22 23  1  0  0  0  0
M  END
> <ID>
3351

> <Formula>
C12H20N4O7

> <FW>
332.3098

> <DSSTox_CID>
3749

> <DSSTox_RID>
77184

> <DSSTox_GSID>
23749

> <DSSTox_FileID_Sort>
1867

> <TS_ChemName>
Zanamivir

> <TS_ChemName_Synonyms>


> <TS_CASRN>
139110-80-8

> <CASRN_ChemName_Relationship>
primary

> <TS_Description>
single chemical compound

> <ChemNote>
stereochem; tautomers

> <STRUCTURE_Shown>
tested chemical

> <STRUCTURE_Formula>
C12H20N4O7

> <STRUCTURE_MW>
332.3098

> <STRUCTURE_ChemType>
defined organic

> <STRUCTURE_DefinedOrganicForm>
parent

> <STRUCTURE_IUPAC>
(6R)-5-(acetylamino)-2,6-anhydro-4-carbamimidamido-3,4,5-trideoxy-6-[(1R,2R)-1,2,3-trihydroxypropyl]-L-threo-hex-2-enonic acid

> <STRUCTURE_SMILES>
O[C@@H]([C@@H]1OC(=C[C@H](NC(=N)N)[C@H]1NC(C)=O)C(=O)O)[C@H](O)CO

> <STRUCTURE_SMILES_Desalt>
O[C@@H]([C@@H]1OC(=C[C@H](NC(=N)N)[C@H]1NC(C)=O)C(=O)O)[C@H](O)CO

> <Substance_modify_yyyymmdd>
20080429

$$$$
