139481-59-7
ChemmineR-0914142331XD

 33 37  0  0  0  0  0  0  0  0  1 V2000
    0.0000   -7.3188    0.0000 C   0  0  0  0  0  0  0  0  0  0  0  0
    0.0000   -6.0067    0.0000 C   0  0  0  0  0  0  0  0  0  0  0  0
    1.1676   -5.3326    0.0000 C   0  0  0  0  0  0  0  0  0  0  0  0
    1.1676   -8.0049    0.0000 C   0  0  0  0  0  0  0  0  0  0  0  0
    2.2991   -7.3188    0.0000 C   0  0  0  0  0  0  0  0  0  0  0  0
    2.2991   -6.0067    0.0000 C   0  0  0  0  0  0  0  0  0  0  0  0
    3.5872   -5.6094    0.0000 N   0  0  0  0  0  0  0  0  0  0  0  0
    4.3575   -6.6567    0.0000 C   0  0  0  0  0  0  0  0  0  0  0  0
    3.5872   -7.7521    0.0000 N   0  0  0  0  0  0  0  0  0  0  0  0
    5.6817   -6.6567    0.0000 O   0  0  0  0  0  0  0  0  0  0  0  0
    6.3558   -7.8243    0.0000 C   0  0  0  0  0  0  0  0  0  0  0  0
    7.6799   -7.8243    0.0000 C   0  0  0  0  0  0  0  0  0  0  0  0
    4.0686   -4.3696    0.0000 C   0  0  0  0  0  0  0  0  0  0  0  0
    5.3807   -4.3696    0.0000 C   0  0  0  0  0  0  0  0  0  0  0  0
    6.0187   -3.2020    0.0000 C   0  0  0  0  0  0  0  0  0  0  0  0
    7.3669   -3.2020    0.0000 C   0  0  0  0  0  0  0  0  0  0  0  0
    8.0530   -4.3575    0.0000 C   0  0  0  0  0  0  0  0  0  0  0  0
    7.3669   -5.5131    0.0000 C   0  0  0  0  0  0  0  0  0  0  0  0
    6.0187   -5.5131    0.0000 C   0  0  0  0  0  0  0  0  0  0  0  0
    9.3772   -4.3575    0.0000 C   0  0  0  0  0  0  0  0  0  0  0  0
   10.0392   -3.2020    0.0000 C   0  0  0  0  0  0  0  0  0  0  0  0
   11.3513   -3.2020    0.0000 C   0  0  0  0  0  0  0  0  0  0  0  0
   12.0374   -4.3575    0.0000 C   0  0  0  0  0  0  0  0  0  0  0  0
   11.3513   -5.5131    0.0000 C   0  0  0  0  0  0  0  0  0  0  0  0
   10.0392   -5.5131    0.0000 C   0  0  0  0  0  0  0  0  0  0  0  0
    9.3772   -2.0704    0.0000 C   0  0  0  0  0  0  0  0  0  0  0  0
    8.0530   -2.0704    0.0000 N   0  0  0  0  0  0  0  0  0  0  0  0
    7.6317   -0.8065    0.0000 N   0  0  0  0  0  0  0  0  0  0  0  0
    8.7031    0.0000    0.0000 N   0  0  0  0  0  0  0  0  0  0  0  0
    9.7624   -0.8065    0.0000 N   0  0  0  0  0  0  0  0  0  0  0  0
    1.1676   -3.9844    0.0000 C   0  0  0  0  0  0  0  0  0  0  0  0
    2.2991   -3.3464    0.0000 O   0  0  0  0  0  0  0  0  0  0  0  0
    0.0120   -3.3344    0.0000 O   0  0  0  0  0  0  0  0  0  0  0  0
  1  2  2  0  0  0  0
  1  4  1  0  0  0  0
  2  3  1  0  0  0  0
  3  6  2  0  0  0  0
  3 31  1  0  0  0  0
  4  5  2  0  0  0  0
  5  6  1  0  0  0  0
  5  9  1  0  0  0  0
  6  7  1  0  0  0  0
  7 13  1  0  0  0  0
  7  8  1  0  0  0  0
  8 10  1  0  0  0  0
  8  9  2  0  0  0  0
 10 11  1  0  0  0  0
 11 12  1  0  0  0  0
 13 14  1  0  0  0  0
 14 15  2  0  0  0  0
 14 19  1  0  0  0  0
 15 16  1  0  0  0  0
 16 17  2  0  0  0  0
 17 18  1  0  0  0  0
 17 20  1  0  0  0  0
 18 19  2  0  0  0  0
 20 25  1  0  0  0  0
 20 21  2  0  0  0  0
 21 22  1  0  0  0  0
 21 26  1  0  0  0  0
 22 23  2  0  0  0  0
 23 24  1  0  0  0  0
 24 25  2  0  0  0  0
 26 27  2  0  0  0  0
 26 30  1  0  0  0  0
 27 28  1  0  0  0  0
 28 29  2  0  0  0  0
 29 30  1  0  0  0  0
 31 32  2  0  0  0  0
 31 33  1  0  0  0  0
M  END
> <ID>
2465

> <Formula>
C24H20N6O3

> <FW>
440.454

> <DSSTox_CID>
2725

> <DSSTox_RID>
75453

> <DSSTox_GSID>
22725

> <DSSTox_FileID_Sort>
137

> <TS_ChemName>
Candesartan

> <TS_ChemName_Synonyms>


> <TS_CASRN>
139481-59-7

> <CASRN_ChemName_Relationship>
primary

> <TS_Description>
single chemical compound

> <ChemNote>


> <STRUCTURE_Shown>
tested chemical

> <STRUCTURE_Formula>
C24H20N6O3

> <STRUCTURE_MW>
440.454

> <STRUCTURE_ChemType>
defined organic

> <STRUCTURE_DefinedOrganicForm>
parent

> <STRUCTURE_IUPAC>
2-ethoxy-1-{[2'-(1H-tetrazol-5-yl)biphenyl-4-yl]methyl}-1H-benzimidazole-7-carboxylic acid

> <STRUCTURE_SMILES>
O=C(O)c4cccc5nc(OCC)n(Cc1ccc(cc1)c2ccccc2c3nnnn3)c45

> <STRUCTURE_SMILES_Desalt>
O=C(O)c4cccc5nc(OCC)n(Cc1ccc(cc1)c2ccccc2c3nnnn3)c45

> <Substance_modify_yyyymmdd>
20080429

$$$$
