13952-84-6
ChemmineR-0914142331XD

  5  4  0  0  0  0  0  0  0  0  1 V2000
    0.0000   -1.3308    0.0000 C   0  0  0  0  0  0  0  0  0  0  0  0
    1.1511   -1.9945    0.0000 C   0  0  0  0  0  0  0  0  0  0  0  0
    2.3056   -1.3308    0.0000 C   0  0  0  0  0  0  0  0  0  0  0  0
    2.3056    0.0000    0.0000 N   0  0  0  0  0  0  0  0  0  0  0  0
    3.4567   -1.9945    0.0000 C   0  0  0  0  0  0  0  0  0  0  0  0
  1  2  1  0  0  0  0
  2  3  1  0  0  0  0
  3  4  1  0  0  0  0
  3  5  1  0  0  0  0
M  END
> <ID>
2119

> <Formula>
C4H11N

> <FW>
73.1368

> <DSSTox_CID>
2284

> <DSSTox_RID>
76535

> <DSSTox_GSID>
22284

> <DSSTox_FileID_Sort>
1219

> <TS_ChemName>
2-Butanamine

> <TS_ChemName_Synonyms>
sec-Butylamine

> <TS_CASRN>
13952-84-6

> <CASRN_ChemName_Relationship>
primary

> <TS_Description>
single chemical compound

> <ChemNote>
mixture of  2R [513-49-5] and 2S [13240-12-9]; structure shown without stereochem; retired CASRN [33966-50-6]

> <STRUCTURE_Shown>
tested chemical

> <STRUCTURE_Formula>
C4H11N

> <STRUCTURE_MW>
73.1368

> <STRUCTURE_ChemType>
defined organic

> <STRUCTURE_DefinedOrganicForm>
parent

> <STRUCTURE_IUPAC>
butan-2-amine

> <STRUCTURE_SMILES>
CC(N)CC

> <STRUCTURE_SMILES_Desalt>
CC(N)CC

> <Substance_modify_yyyymmdd>
20080429

$$$$
