140-67-0
ChemmineR-0914142331XD

 11 11  0  0  0  0  0  0  0  0  1 V2000
    0.0000    0.0000    0.0000 C   0  0  0  0  0  0  0  0  0  0  0  0
    1.3316    0.0000    0.0000 C   0  0  0  0  0  0  0  0  0  0  0  0
    1.9934   -1.1561    0.0000 C   0  0  0  0  0  0  0  0  0  0  0  0
    3.3249   -1.1561    0.0000 C   0  0  0  0  0  0  0  0  0  0  0  0
    3.9867    0.0000    0.0000 C   0  0  0  0  0  0  0  0  0  0  0  0
    5.3183    0.0000    0.0000 C   0  0  0  0  0  0  0  0  0  0  0  0
    5.9801   -1.1561    0.0000 C   0  0  0  0  0  0  0  0  0  0  0  0
    5.3183   -2.3043    0.0000 C   0  0  0  0  0  0  0  0  0  0  0  0
    3.9867   -2.3043    0.0000 C   0  0  0  0  0  0  0  0  0  0  0  0
    7.3116   -1.1561    0.0000 O   0  0  0  0  0  0  0  0  0  0  0  0
    7.9734   -2.3043    0.0000 C   0  0  0  0  0  0  0  0  0  0  0  0
  1  2  2  0  0  0  0
  2  3  1  0  0  0  0
  3  4  1  0  0  0  0
  4  5  2  0  0  0  0
  4  9  1  0  0  0  0
  5  6  1  0  0  0  0
  6  7  2  0  0  0  0
  7  8  1  0  0  0  0
  7 10  1  0  0  0  0
  8  9  2  0  0  0  0
 10 11  1  0  0  0  0
M  END
> <ID>
550

> <Formula>
C10H12O

> <FW>
148.2017

> <DSSTox_CID>
575

> <DSSTox_RID>
75667

> <DSSTox_GSID>
20575

> <DSSTox_FileID_Sort>
351

> <TS_ChemName>
Estragole

> <TS_ChemName_Synonyms>
Estragole (Benzene, 1-methoxy-4-(2-propenyl)-)

> <TS_CASRN>
140-67-0

> <CASRN_ChemName_Relationship>
primary

> <TS_Description>
single chemical compound

> <ChemNote>


> <STRUCTURE_Shown>
tested chemical

> <STRUCTURE_Formula>
C10H12O

> <STRUCTURE_MW>
148.2017

> <STRUCTURE_ChemType>
defined organic

> <STRUCTURE_DefinedOrganicForm>
parent

> <STRUCTURE_IUPAC>
1-methoxy-4-(prop-2-en-1-yl)benzene

> <STRUCTURE_SMILES>
COc1ccc(CC=C)cc1

> <STRUCTURE_SMILES_Desalt>
COc1ccc(CC=C)cc1

> <Substance_modify_yyyymmdd>
20080429

$$$$
