14028-44-5
ChemmineR-0914142331XD

 22 25  0  0  0  0  0  0  0  0  1 V2000
    6.6022   -5.7168    0.0000 C    0  0  0  0  0  0  0  0  0  0  0  0
    5.6662   -6.6528    0.0000 C    0  0  0  0  0  0  0  0  0  0  0  0
    6.0625   -7.9344    0.0000 Cl   0  0  0  0  0  0  0  0  0  0  0  0
    4.3846   -6.3661    0.0000 C    0  0  0  0  0  0  0  0  0  0  0  0
    3.9883   -5.0760    0.0000 C    0  0  0  0  0  0  0  0  0  0  0  0
    4.9327   -4.1401    0.0000 C    0  0  0  0  0  0  0  0  0  0  0  0
    6.2059   -4.4352    0.0000 C    0  0  0  0  0  0  0  0  0  0  0  0
    4.7303   -2.8078    0.0000 O    0  0  0  0  0  0  0  0  0  0  0  0
    3.5836   -2.1501    0.0000 C    0  0  0  0  0  0  0  0  0  0  0  0
    2.3441   -2.6223    0.0000 C    0  0  0  0  0  0  0  0  0  0  0  0
    1.9478   -3.8871    0.0000 N    0  0  0  0  0  0  0  0  0  0  0  0
    2.6813   -4.9833    0.0000 C    0  0  0  0  0  0  0  0  0  0  0  0
    2.0152   -6.1300    0.0000 N    0  0  0  0  0  0  0  0  0  0  0  0
    2.6813   -7.2767    0.0000 C    0  0  0  0  0  0  0  0  0  0  0  0
    2.0068   -8.4319    0.0000 C    0  0  0  0  0  0  0  0  0  0  0  0
    0.6746   -8.4319    0.0000 N    0  0  0  0  0  0  0  0  0  0  0  0
    0.0000   -7.2683    0.0000 C    0  0  0  0  0  0  0  0  0  0  0  0
    0.6746   -6.1047    0.0000 C    0  0  0  0  0  0  0  0  0  0  0  0
    1.3154   -1.7876    0.0000 C    0  0  0  0  0  0  0  0  0  0  0  0
    1.5262   -0.4722    0.0000 C    0  0  0  0  0  0  0  0  0  0  0  0
    2.7657    0.0000    0.0000 C    0  0  0  0  0  0  0  0  0  0  0  0
    3.7944   -0.8348    0.0000 C    0  0  0  0  0  0  0  0  0  0  0  0
  1  2  2  0  0  0  0
  1  7  1  0  0  0  0
  2  3  1  0  0  0  0
  2  4  1  0  0  0  0
  4  5  2  0  0  0  0
  5  6  1  0  0  0  0
  5 12  1  0  0  0  0
  6  7  2  0  0  0  0
  6  8  1  0  0  0  0
  8  9  1  0  0  0  0
  9 10  2  0  0  0  0
  9 22  1  0  0  0  0
 10 11  1  0  0  0  0
 10 19  1  0  0  0  0
 11 12  2  0  0  0  0
 12 13  1  0  0  0  0
 13 14  1  0  0  0  0
 13 18  1  0  0  0  0
 14 15  1  0  0  0  0
 15 16  1  0  0  0  0
 16 17  1  0  0  0  0
 17 18  1  0  0  0  0
 19 20  2  0  0  0  0
 20 21  1  0  0  0  0
 21 22  2  0  0  0  0
M  END
> <ID>
2354

> <Formula>
C17H16ClN3O

> <FW>
313.7814

> <DSSTox_CID>
2598

> <DSSTox_RID>
76652

> <DSSTox_GSID>
22598

> <DSSTox_FileID_Sort>
1336

> <TS_ChemName>
Amoxapine

> <TS_ChemName_Synonyms>


> <TS_CASRN>
14028-44-5

> <CASRN_ChemName_Relationship>
primary

> <TS_Description>
single chemical compound

> <ChemNote>


> <STRUCTURE_Shown>
tested chemical

> <STRUCTURE_Formula>
C17H16ClN3O

> <STRUCTURE_MW>
313.7814

> <STRUCTURE_ChemType>
defined organic

> <STRUCTURE_DefinedOrganicForm>
parent

> <STRUCTURE_IUPAC>
2-chloro-11-(piperazin-1-yl)dibenzo[b,f][1,4]oxazepine

> <STRUCTURE_SMILES>
Clc1ccc2Oc4ccccc4N=C(c2c1)N3CCNCC3

> <STRUCTURE_SMILES_Desalt>
Clc1ccc2Oc4ccccc4N=C(c2c1)N3CCNCC3

> <Substance_modify_yyyymmdd>
20080429

$$$$
