141-78-6
ChemmineR-0914142331XD

  6  5  0  0  0  0  0  0  0  0  1 V2000
    4.6084   -1.9954    0.0000 C   0  0  0  0  0  0  0  0  0  0  0  0
    3.4563   -1.3318    0.0000 C   0  0  0  0  0  0  0  0  0  0  0  0
    3.4563    0.0000    0.0000 O   0  0  0  0  0  0  0  0  0  0  0  0
    2.3042   -1.9954    0.0000 O   0  0  0  0  0  0  0  0  0  0  0  0
    1.1521   -1.3318    0.0000 C   0  0  0  0  0  0  0  0  0  0  0  0
    0.0000   -1.9954    0.0000 C   0  0  0  0  0  0  0  0  0  0  0  0
  1  2  1  0  0  0  0
  2  3  2  0  0  0  0
  2  4  1  0  0  0  0
  4  5  1  0  0  0  0
  5  6  1  0  0  0  0
M  END
> <ID>
1853

> <Formula>
C4H8O2

> <FW>
88.1051

> <DSSTox_CID>
2001

> <DSSTox_RID>
76453

> <DSSTox_GSID>
22001

> <DSSTox_FileID_Sort>
1137

> <TS_ChemName>
Ethyl acetate

> <TS_ChemName_Synonyms>


> <TS_CASRN>
141-78-6

> <CASRN_ChemName_Relationship>
primary

> <TS_Description>
single chemical compound

> <ChemNote>


> <STRUCTURE_Shown>
tested chemical

> <STRUCTURE_Formula>
C4H8O2

> <STRUCTURE_MW>
88.1051

> <STRUCTURE_ChemType>
defined organic

> <STRUCTURE_DefinedOrganicForm>
parent

> <STRUCTURE_IUPAC>
ethyl acetate

> <STRUCTURE_SMILES>
CC(=O)OCC

> <STRUCTURE_SMILES_Desalt>
CC(=O)OCC

> <Substance_modify_yyyymmdd>
20080429

$$$$
