141-43-5
ChemmineR-0914142331XD

  4  3  0  0  0  0  0  0  0  0  1 V2000
    0.0000    0.0000    0.0000 O   0  0  0  0  0  0  0  0  0  0  0  0
    1.1513   -0.6638    0.0000 C   0  0  0  0  0  0  0  0  0  0  0  0
    2.3061    0.0000    0.0000 C   0  0  0  0  0  0  0  0  0  0  0  0
    3.4575   -0.6638    0.0000 N   0  0  0  0  0  0  0  0  0  0  0  0
  1  2  1  0  0  0  0
  2  3  1  0  0  0  0
  3  4  1  0  0  0  0
M  END
> <ID>
1852

> <Formula>
C2H7NO

> <FW>
61.0831

> <DSSTox_CID>
2000

> <DSSTox_RID>
76452

> <DSSTox_GSID>
22000

> <DSSTox_FileID_Sort>
1136

> <TS_ChemName>
Ethanolamine

> <TS_ChemName_Synonyms>
2-Aminoethanol; Monoethanolamine

> <TS_CASRN>
141-43-5

> <CASRN_ChemName_Relationship>
primary

> <TS_Description>
single chemical compound

> <ChemNote>


> <STRUCTURE_Shown>
tested chemical

> <STRUCTURE_Formula>
C2H7NO

> <STRUCTURE_MW>
61.0831

> <STRUCTURE_ChemType>
defined organic

> <STRUCTURE_DefinedOrganicForm>
parent

> <STRUCTURE_IUPAC>
2-aminoethanol

> <STRUCTURE_SMILES>
NCCO

> <STRUCTURE_SMILES_Desalt>
NCCO

> <Substance_modify_yyyymmdd>
20080429

$$$$
