142-04-1
ChemmineR-0914142331XD

  8  7  0  0  0  0  0  0  0  0  1 V2000
    0.0000   -1.1527    0.0000 N    0  0  0  0  0  0  0  0  0  0  0  0
    1.3282   -1.1527    0.0000 C    0  0  0  0  0  0  0  0  0  0  0  0
    1.9943    0.0000    0.0000 C    0  0  0  0  0  0  0  0  0  0  0  0
    3.3225    0.0000    0.0000 C    0  0  0  0  0  0  0  0  0  0  0  0
    3.9886   -1.1527    0.0000 C    0  0  0  0  0  0  0  0  0  0  0  0
    3.3225   -2.3054    0.0000 C    0  0  0  0  0  0  0  0  0  0  0  0
    1.9943   -2.3054    0.0000 C    0  0  0  0  0  0  0  0  0  0  0  0
    2.4849   -3.4103    0.0000 Cl   0  0  0  0  0  0  0  0  0  0  0  0
  1  2  1  0  0  0  0
  2  3  2  0  0  0  0
  2  7  1  0  0  0  0
  3  4  1  0  0  0  0
  4  5  2  0  0  0  0
  5  6  1  0  0  0  0
  6  7  2  0  0  0  0
M  END
> <ID>
89

> <Formula>
C6H8ClN

> <FW>
129.5874 (93.1265+36.4609)

> <DSSTox_CID>
91

> <DSSTox_RID>
75360

> <DSSTox_GSID>
20091

> <DSSTox_FileID_Sort>
44

> <TS_ChemName>
Aniline hydrochloride

> <TS_ChemName_Synonyms>


> <TS_CASRN>
142-04-1

> <CASRN_ChemName_Relationship>
primary

> <TS_Description>
single chemical compound

> <ChemNote>
parent [62-53-3]

> <STRUCTURE_Shown>
tested chemical

> <STRUCTURE_Formula>
C6H8ClN

> <STRUCTURE_MW>
129.5874

> <STRUCTURE_ChemType>
defined organic

> <STRUCTURE_DefinedOrganicForm>
complex

> <STRUCTURE_IUPAC>
aniline hydrochloride (1:1)

> <STRUCTURE_SMILES>
Cl.Nc1ccccc1

> <STRUCTURE_SMILES_Desalt>
Nc1ccccc1

> <Substance_modify_yyyymmdd>
20080429

$$$$
