142-59-6
ChemmineR-0914142331XD

 12  9  0  0  0  0  0  0  0  0  2 V2000
    3.9953   -4.6571    0.0000 Na   0  3  0  0  0  0  0  0  0  0  0  0
    2.6635   -4.6571    0.0000 Na   0  3  0  0  0  0  0  0  0  0  0  0
    6.9171    0.0000    0.0000 S    0  0  0  0  0  0  0  0  0  0  0  0
    6.9171   -1.3318    0.0000 C    0  0  0  0  0  0  0  0  0  0  0  0
    5.7629   -1.9936    0.0000 N    0  0  0  0  0  0  0  0  0  0  0  0
    4.6087   -1.3318    0.0000 C    0  0  0  0  0  0  0  0  0  0  0  0
    3.4626   -1.9936    0.0000 C    0  0  0  0  0  0  0  0  0  0  0  0
    2.3084   -1.3318    0.0000 N    0  0  0  0  0  0  0  0  0  0  0  0
    1.1542   -1.9936    0.0000 C    0  0  0  0  0  0  0  0  0  0  0  0
    1.1542   -3.3254    0.0000 S    0  0  0  0  0  0  0  0  0  0  0  0
    0.0000   -1.3318    0.0000 S    0  5  0  0  0  0  0  0  0  0  0  0
    8.0713   -1.9936    0.0000 S    0  5  0  0  0  0  0  0  0  0  0  0
  3  4  2  0  0  0  0
  4  5  1  0  0  0  0
  4 12  1  0  0  0  0
  5  6  1  0  0  0  0
  6  7  1  0  0  0  0
  7  8  1  0  0  0  0
  8  9  1  0  0  0  0
  9 10  2  0  0  0  0
  9 11  1  0  0  0  0
M  END
> <ID>
578

> <Formula>
C4H6N2Na2S4

> <FW>
256.3434 (22.9892+22.9892+210.3649)

> <DSSTox_CID>
603

> <DSSTox_RID>
75684

> <DSSTox_GSID>
20603

> <DSSTox_FileID_Sort>
368

> <TS_ChemName>
Nabam-sodium

> <TS_ChemName_Synonyms>
Nabam (Ethylenebisdithiocarbamate, disodium) (Carbamodithioic acid, 1,2-ethanediylbis-, disodium)

> <TS_CASRN>
142-59-6

> <CASRN_ChemName_Relationship>
primary

> <TS_Description>
single chemical compound

> <ChemNote>
parent [111-54-6]

> <STRUCTURE_Shown>
tested chemical

> <STRUCTURE_Formula>
C4H6N2Na2S4

> <STRUCTURE_MW>
256.3434

> <STRUCTURE_ChemType>
defined organic

> <STRUCTURE_DefinedOrganicForm>
salt

> <STRUCTURE_IUPAC>
disodium ethane-1,2-diyldicarbamodithioate

> <STRUCTURE_SMILES>
[Na+].[Na+].[S-]C(=S)NCCNC(=S)[S-]

> <STRUCTURE_SMILES_Desalt>
SC(=S)NCCNC(=S)S

> <Substance_modify_yyyymmdd>
20080429

$$$$
