143-50-0
ChemmineR-0914142331XD

 21 25  0  0  0  0  0  0  0  0  1 V2000
    3.0763   -2.1906    0.0000 C    0  0  0  0  0  0  0  0  0  0  0  0
    4.7125   -3.8741    0.0000 C    0  0  0  0  0  0  0  0  0  0  0  0
    2.0351   -1.4536    0.0000 C    0  0  0  0  0  0  0  0  0  0  0  0
    3.6781   -3.1304    0.0000 C    0  0  0  0  0  0  0  0  0  0  0  0
    4.7125   -2.1906    0.0000 C    0  0  0  0  0  0  0  0  0  0  0  0
    3.6781   -1.4536    0.0000 C    0  0  0  0  0  0  0  0  0  0  0  0
    3.0763   -3.8741    0.0000 C    0  0  0  0  0  0  0  0  0  0  0  0
    2.0351   -3.1304    0.0000 C    0  0  0  0  0  0  0  0  0  0  0  0
    5.8416   -1.1359    0.0000 C    0  0  0  0  0  0  0  0  0  0  0  0
    1.0818   -4.0837    0.0000 C    0  0  0  0  0  0  0  0  0  0  0  0
    0.0000   -4.7531    0.0000 O    0  0  0  0  0  0  0  0  0  0  0  0
    1.4942   -0.8181    0.0000 Cl   0  0  0  0  0  0  0  0  0  0  0  0
    5.0844   -4.6652    0.0000 Cl   0  0  0  0  0  0  0  0  0  0  0  0
    4.3068   -2.7856    0.0000 Cl   0  0  0  0  0  0  0  0  0  0  0  0
    2.4002   -2.4813    0.0000 Cl   0  0  0  0  0  0  0  0  0  0  0  0
    5.5577   -2.5016    0.0000 Cl   0  0  0  0  0  0  0  0  0  0  0  0
    4.1446   -0.7032    0.0000 Cl   0  0  0  0  0  0  0  0  0  0  0  0
    3.4008   -4.7531    0.0000 Cl   0  0  0  0  0  0  0  0  0  0  0  0
    1.2440   -2.8600    0.0000 Cl   0  0  0  0  0  0  0  0  0  0  0  0
    6.2270    0.0000    0.0000 Cl   0  0  0  0  0  0  0  0  0  0  0  0
    6.7611   -1.8187    0.0000 Cl   0  0  0  0  0  0  0  0  0  0  0  0
  1  3  1  0  0  0  0
  1  5  1  0  0  0  0
  1  7  1  0  0  0  0
  1 15  1  0  0  0  0
  2  7  1  0  0  0  0
  2  4  1  0  0  0  0
  2 13  1  0  0  0  0
  2  5  1  0  0  0  0
  3  6  1  0  0  0  0
  3  8  1  0  0  0  0
  3 12  1  0  0  0  0
  4 14  1  0  0  0  0
  4  8  1  0  0  0  0
  4  6  1  0  0  0  0
  5  9  1  0  0  0  0
  5 16  1  0  0  0  0
  6 17  1  0  0  0  0
  6  9  1  0  0  0  0
  7 10  1  0  0  0  0
  7 18  1  0  0  0  0
  8 19  1  0  0  0  0
  8 10  1  0  0  0  0
  9 20  1  0  0  0  0
  9 21  1  0  0  0  0
 10 11  2  0  0  0  0
M  END
> <ID>
740

> <Formula>
C10Cl10O

> <FW>
490.6364

> <DSSTox_CID>
770

> <DSSTox_RID>
75782

> <DSSTox_GSID>
20770

> <DSSTox_FileID_Sort>
466

> <TS_ChemName>
Kepone

> <TS_ChemName_Synonyms>
Kepone (Chlordecone)

> <TS_CASRN>
143-50-0

> <CASRN_ChemName_Relationship>
primary

> <TS_Description>
single chemical compound

> <ChemNote>
stereochem

> <STRUCTURE_Shown>
tested chemical

> <STRUCTURE_Formula>
C10Cl10O

> <STRUCTURE_MW>
490.6364

> <STRUCTURE_ChemType>
defined organic

> <STRUCTURE_DefinedOrganicForm>
parent

> <STRUCTURE_IUPAC>
1,1a,3,3a,4,5,5,5a,5b,6-decachlorooctahydro-2H-1,3,4-(methanetriyl)cyclobuta[cd]pentalen-2-one

> <STRUCTURE_SMILES>
O=C2C1(Cl)C3(Cl)C5(Cl)C1(Cl)C4(Cl)C2(Cl)C3(Cl)C4(Cl)C5(Cl)Cl

> <STRUCTURE_SMILES_Desalt>
O=C2C1(Cl)C3(Cl)C5(Cl)C1(Cl)C4(Cl)C2(Cl)C3(Cl)C4(Cl)C5(Cl)Cl

> <Substance_modify_yyyymmdd>
20080429

$$$$
