143-07-7
ChemmineR-0914142331XD

 14 13  0  0  0  0  0  0  0  0  1 V2000
    0.0000   -1.9918    0.0000 C   0  0  0  0  0  0  0  0  0  0  0  0
    1.1480   -1.3278    0.0000 C   0  0  0  0  0  0  0  0  0  0  0  0
    2.3099   -1.9918    0.0000 C   0  0  0  0  0  0  0  0  0  0  0  0
    3.4579   -1.3278    0.0000 C   0  0  0  0  0  0  0  0  0  0  0  0
    4.6059   -1.9918    0.0000 C   0  0  0  0  0  0  0  0  0  0  0  0
    5.7678   -1.3278    0.0000 C   0  0  0  0  0  0  0  0  0  0  0  0
    6.9158   -1.9918    0.0000 C   0  0  0  0  0  0  0  0  0  0  0  0
    8.0639   -1.3278    0.0000 C   0  0  0  0  0  0  0  0  0  0  0  0
    9.2257   -1.9918    0.0000 C   0  0  0  0  0  0  0  0  0  0  0  0
   10.3738   -1.3278    0.0000 C   0  0  0  0  0  0  0  0  0  0  0  0
   11.5218   -1.9918    0.0000 C   0  0  0  0  0  0  0  0  0  0  0  0
   12.6836   -1.3278    0.0000 C   0  0  0  0  0  0  0  0  0  0  0  0
   13.8317   -1.9918    0.0000 O   0  0  0  0  0  0  0  0  0  0  0  0
   12.6836    0.0000    0.0000 O   0  0  0  0  0  0  0  0  0  0  0  0
  1  2  1  0  0  0  0
  2  3  1  0  0  0  0
  3  4  1  0  0  0  0
  4  5  1  0  0  0  0
  5  6  1  0  0  0  0
  6  7  1  0  0  0  0
  7  8  1  0  0  0  0
  8  9  1  0  0  0  0
  9 10  1  0  0  0  0
 10 11  1  0  0  0  0
 11 12  1  0  0  0  0
 12 13  1  0  0  0  0
 12 14  2  0  0  0  0
M  END
> <ID>
1527

> <Formula>
C12H24O2

> <FW>
200.3178

> <DSSTox_CID>
1590

> <DSSTox_RID>
76223

> <DSSTox_GSID>
21590

> <DSSTox_FileID_Sort>
907

> <TS_ChemName>
Dodecanoic acid

> <TS_ChemName_Synonyms>
Dodecanoic acid (Lauric acid)

> <TS_CASRN>
143-07-7

> <CASRN_ChemName_Relationship>
primary

> <TS_Description>
single chemical compound

> <ChemNote>


> <STRUCTURE_Shown>
tested chemical

> <STRUCTURE_Formula>
C12H24O2

> <STRUCTURE_MW>
200.3178

> <STRUCTURE_ChemType>
defined organic

> <STRUCTURE_DefinedOrganicForm>
parent

> <STRUCTURE_IUPAC>
dodecanoic acid

> <STRUCTURE_SMILES>
O=C(O)CCCCCCCCCCC

> <STRUCTURE_SMILES_Desalt>
O=C(O)CCCCCCCCCCC

> <Substance_modify_yyyymmdd>
20080429

$$$$
