14324-55-1
ChemmineR-0914142331XD

 17 14  0  0  0  0  0  0  0  0  2 V2000
    2.3027   -3.9934    0.0000 S    0  0  0  0  0  0  0  0  0  0  0  0
    2.3027   -2.6657    0.0000 C    0  0  0  0  0  0  0  0  0  0  0  0
    1.1513   -2.0019    0.0000 N    0  0  0  0  0  0  0  0  0  0  0  0
    1.1513   -0.6638    0.0000 C    0  0  0  0  0  0  0  0  0  0  0  0
    0.0000    0.0000    0.0000 C    0  0  0  0  0  0  0  0  0  0  0  0
    0.0000   -2.6657    0.0000 C    0  0  0  0  0  0  0  0  0  0  0  0
    0.0000   -3.9934    0.0000 C    0  0  0  0  0  0  0  0  0  0  0  0
    3.4540   -2.0019    0.0000 S    0  5  0  0  0  0  0  0  0  0  0  0
    5.7670   -2.0019    0.0000 S    0  5  0  0  0  0  0  0  0  0  0  0
    6.9184   -2.6657    0.0000 C    0  0  0  0  0  0  0  0  0  0  0  0
    6.9184   -3.9934    0.0000 S    0  0  0  0  0  0  0  0  0  0  0  0
    8.0697   -2.0019    0.0000 N    0  0  0  0  0  0  0  0  0  0  0  0
    8.0697   -0.6638    0.0000 C    0  0  0  0  0  0  0  0  0  0  0  0
    6.9184    0.0000    0.0000 C    0  0  0  0  0  0  0  0  0  0  0  0
    9.2210   -2.6657    0.0000 C    0  0  0  0  0  0  0  0  0  0  0  0
   10.3723   -2.0019    0.0000 C    0  0  0  0  0  0  0  0  0  0  0  0
    4.4705   -1.7322    0.0000 Zn   0  2  0  0  0  0  0  0  0  0  0  0
  1  2  2  0  0  0  0
  2  3  1  0  0  0  0
  2  8  1  0  0  0  0
  3  4  1  0  0  0  0
  3  6  1  0  0  0  0
  4  5  1  0  0  0  0
  6  7  1  0  0  0  0
  9 10  1  0  0  0  0
 10 11  2  0  0  0  0
 10 12  1  0  0  0  0
 12 13  1  0  0  0  0
 12 15  1  0  0  0  0
 13 14  1  0  0  0  0
 15 16  1  0  0  0  0
M  END
> <ID>
1404

> <Formula>
C10H20N2S4Zn

> <FW>
361.9482 (148.2701+148.2701+65.4079)

> <DSSTox_CID>
1463

> <DSSTox_RID>
76170

> <DSSTox_GSID>
21463

> <DSSTox_FileID_Sort>
854

> <TS_ChemName>
Zinc diethyldithiocarbamate

> <TS_ChemName_Synonyms>


> <TS_CASRN>
14324-55-1

> <CASRN_ChemName_Relationship>
primary

> <TS_Description>
single chemical compound

> <ChemNote>


> <STRUCTURE_Shown>
tested chemical

> <STRUCTURE_Formula>
C10H20N2S4Zn

> <STRUCTURE_MW>
361.9482

> <STRUCTURE_ChemType>
organometallic

> <STRUCTURE_DefinedOrganicForm>


> <STRUCTURE_IUPAC>
zinc bis(diethylcarbamodithioate)

> <STRUCTURE_SMILES>
[Zn+2].S=C([S-])N(CC)CC.CCN(CC)C([S-])=S

> <STRUCTURE_SMILES_Desalt>
CCN(CC)C(=S)S

> <Substance_modify_yyyymmdd>
20080429

$$$$
