144-82-1
ChemmineR-0914142331XD

 17 18  0  0  0  0  0  0  0  0  1 V2000
    5.7629   -3.4812    0.0000 N   0  0  0  0  0  0  0  0  0  0  0  0
    4.6085   -2.8138    0.0000 S   0  0  0  0  0  0  0  0  0  0  0  0
    3.9411   -3.9682    0.0000 O   0  0  0  0  0  0  0  0  0  0  0  0
    5.2759   -1.6594    0.0000 O   0  0  0  0  0  0  0  0  0  0  0  0
    3.4541   -2.1464    0.0000 C   0  0  0  0  0  0  0  0  0  0  0  0
    2.3088   -2.8138    0.0000 C   0  0  0  0  0  0  0  0  0  0  0  0
    1.1544   -2.1464    0.0000 C   0  0  0  0  0  0  0  0  0  0  0  0
    1.1544   -0.8207    0.0000 C   0  0  0  0  0  0  0  0  0  0  0  0
    0.0000   -0.1533    0.0000 N   0  0  0  0  0  0  0  0  0  0  0  0
    2.3088   -0.1533    0.0000 C   0  0  0  0  0  0  0  0  0  0  0  0
    3.4541   -0.8207    0.0000 C   0  0  0  0  0  0  0  0  0  0  0  0
    6.9173   -2.8138    0.0000 C   0  0  0  0  0  0  0  0  0  0  0  0
    8.1258   -3.3549    0.0000 N   0  0  0  0  0  0  0  0  0  0  0  0
    9.0186   -2.3719    0.0000 N   0  0  0  0  0  0  0  0  0  0  0  0
    8.3513   -1.2175    0.0000 C   0  0  0  0  0  0  0  0  0  0  0  0
    8.8924    0.0000    0.0000 C   0  0  0  0  0  0  0  0  0  0  0  0
    7.0526   -1.4971    0.0000 S   0  0  0  0  0  0  0  0  0  0  0  0
  1  2  1  0  0  0  0
  1 12  1  0  0  0  0
  2  3  2  0  0  0  0
  2  4  2  0  0  0  0
  2  5  1  0  0  0  0
  5  6  2  0  0  0  0
  5 11  1  0  0  0  0
  6  7  1  0  0  0  0
  7  8  2  0  0  0  0
  8  9  1  0  0  0  0
  8 10  1  0  0  0  0
 10 11  2  0  0  0  0
 12 13  2  0  0  0  0
 12 17  1  0  0  0  0
 13 14  1  0  0  0  0
 14 15  2  0  0  0  0
 15 16  1  0  0  0  0
 15 17  1  0  0  0  0
M  END
> <ID>
3233

> <Formula>
C9H10N4O2S2

> <FW>
270.3313

> <DSSTox_CID>
3615

> <DSSTox_RID>
77111

> <DSSTox_GSID>
23615

> <DSSTox_FileID_Sort>
1794

> <TS_ChemName>
Sulfamethizole

> <TS_ChemName_Synonyms>


> <TS_CASRN>
144-82-1

> <CASRN_ChemName_Relationship>
primary

> <TS_Description>
single chemical compound

> <ChemNote>


> <STRUCTURE_Shown>
tested chemical

> <STRUCTURE_Formula>
C9H10N4O2S2

> <STRUCTURE_MW>
270.3313

> <STRUCTURE_ChemType>
defined organic

> <STRUCTURE_DefinedOrganicForm>
parent

> <STRUCTURE_IUPAC>
4-amino-N-(5-methyl-1,3,4-thiadiazol-2-yl)benzenesulfonamide

> <STRUCTURE_SMILES>
Cc2nnc(NS(=O)(=O)c1ccc(N)cc1)s2

> <STRUCTURE_SMILES_Desalt>
Cc2nnc(NS(=O)(=O)c1ccc(N)cc1)s2

> <Substance_modify_yyyymmdd>
20080429

$$$$
