144034-80-0
ChemmineR-0914142331XD

 20 22  0  0  0  0  0  0  0  0  1 V2000
    6.7502   -0.6773    0.0000 C   0  0  0  0  0  0  0  0  0  0  0  0
    6.7502   -2.0090    0.0000 C   0  0  0  0  0  0  0  0  0  0  0  0
    5.6137    0.0000    0.0000 C   0  0  0  0  0  0  0  0  0  0  0  0
    5.6137   -2.6633    0.0000 C   0  0  0  0  0  0  0  0  0  0  0  0
    4.4771   -0.6773    0.0000 C   0  0  0  0  0  0  0  0  0  0  0  0
    4.4771   -2.0090    0.0000 C   0  0  0  0  0  0  0  0  0  0  0  0
    8.0244   -0.2640    0.0000 N   0  0  0  0  0  0  0  0  0  0  0  0
    8.8165   -1.3317    0.0000 C   0  0  0  0  0  0  0  0  0  0  0  0
    8.0244   -2.3993    0.0000 C   0  0  0  0  0  0  0  0  0  0  0  0
    3.3062   -2.6633    0.0000 C   0  0  0  0  0  0  0  0  0  0  0  0
    2.1697   -1.9860    0.0000 N   0  0  0  0  0  0  0  0  0  0  0  0
    0.4133   -0.7347    0.0000 N   0  0  0  0  0  0  0  0  0  0  0  0
    1.7449   -0.7347    0.0000 C   0  0  0  0  0  0  0  0  0  0  0  0
    0.0000   -2.0090    0.0000 C   0  0  0  0  0  0  0  0  0  0  0  0
    1.0791   -2.7781    0.0000 N   0  0  0  0  0  0  0  0  0  0  0  0
    8.0244   -3.7195    0.0000 C   0  0  0  0  0  0  0  0  0  0  0  0
    9.1724   -4.4083    0.0000 C   0  0  0  0  0  0  0  0  0  0  0  0
   10.3319   -3.7195    0.0000 N   0  0  0  0  0  0  0  0  0  0  0  0
   11.4799   -4.4083    0.0000 C   0  0  0  0  0  0  0  0  0  0  0  0
   10.3319   -2.3993    0.0000 C   0  0  0  0  0  0  0  0  0  0  0  0
  1  3  2  0  0  0  0
  1  7  1  0  0  0  0
  1  2  1  0  0  0  0
  2  4  2  0  0  0  0
  2  9  1  0  0  0  0
  3  5  1  0  0  0  0
  4  6  1  0  0  0  0
  5  6  2  0  0  0  0
  6 10  1  0  0  0  0
  7  8  1  0  0  0  0
  8  9  2  0  0  0  0
  9 16  1  0  0  0  0
 10 11  1  0  0  0  0
 11 13  1  0  0  0  0
 11 15  1  0  0  0  0
 12 13  2  0  0  0  0
 12 14  1  0  0  0  0
 14 15  2  0  0  0  0
 16 17  1  0  0  0  0
 17 18  1  0  0  0  0
 18 19  1  0  0  0  0
 18 20  1  0  0  0  0
M  END
> <ID>
3188

> <Formula>
C15H19N5

> <FW>
269.3449

> <DSSTox_CID>
3565

> <DSSTox_RID>
77082

> <DSSTox_GSID>
23565

> <DSSTox_FileID_Sort>
1765

> <TS_ChemName>
Rizatriptan

> <TS_ChemName_Synonyms>


> <TS_CASRN>
144034-80-0

> <CASRN_ChemName_Relationship>
primary

> <TS_Description>
single chemical compound

> <ChemNote>


> <STRUCTURE_Shown>
tested chemical

> <STRUCTURE_Formula>
C15H19N5

> <STRUCTURE_MW>
269.3449

> <STRUCTURE_ChemType>
defined organic

> <STRUCTURE_DefinedOrganicForm>
parent

> <STRUCTURE_IUPAC>
N,N-dimethyl-2-[5-(1H-1,2,4-triazol-1-ylmethyl)-1H-indol-3-yl]ethanamine

> <STRUCTURE_SMILES>
CN(C)CCc2cnc1ccc(cc12)Cn3cncn3

> <STRUCTURE_SMILES_Desalt>
CN(C)CCc2cnc1ccc(cc12)Cn3cncn3

> <Substance_modify_yyyymmdd>
20080429

$$$$
