144701-48-4
ChemmineR-0914142331XD

 39 44  0  0  0  0  0  0  0  0  1 V2000
   17.0321   -5.5865    0.0000 C   0  0  0  0  0  0  0  0  0  0  0  0
   16.3678   -6.7447    0.0000 C   0  0  0  0  0  0  0  0  0  0  0  0
   15.0393   -6.7447    0.0000 C   0  0  0  0  0  0  0  0  0  0  0  0
   14.3751   -5.5865    0.0000 C   0  0  0  0  0  0  0  0  0  0  0  0
   15.0393   -4.4454    0.0000 C   0  0  0  0  0  0  0  0  0  0  0  0
   16.3678   -4.4454    0.0000 C   0  0  0  0  0  0  0  0  0  0  0  0
   14.1536   -3.4575    0.0000 N   0  0  0  0  0  0  0  0  0  0  0  0
   12.9273   -3.9855    0.0000 C   0  0  0  0  0  0  0  0  0  0  0  0
   11.7862   -3.3213    0.0000 C   0  0  0  0  0  0  0  0  0  0  0  0
   10.6280   -3.9855    0.0000 C   0  0  0  0  0  0  0  0  0  0  0  0
    9.4869   -3.3213    0.0000 C   0  0  0  0  0  0  0  0  0  0  0  0
    9.4869   -1.9928    0.0000 C   0  0  0  0  0  0  0  0  0  0  0  0
   10.6280   -1.3285    0.0000 C   0  0  0  0  0  0  0  0  0  0  0  0
   10.6280    0.0000    0.0000 C   0  0  0  0  0  0  0  0  0  0  0  0
   11.7862   -1.9928    0.0000 C   0  0  0  0  0  0  0  0  0  0  0  0
    8.2095   -1.5840    0.0000 N   0  0  0  0  0  0  0  0  0  0  0  0
    7.4260   -2.6570    0.0000 C   0  0  0  0  0  0  0  0  0  0  0  0
    6.0975   -2.6570    0.0000 C   0  0  0  0  0  0  0  0  0  0  0  0
    5.4332   -1.5159    0.0000 C   0  0  0  0  0  0  0  0  0  0  0  0
    4.1047   -1.5159    0.0000 C   0  0  0  0  0  0  0  0  0  0  0  0
    8.2095   -3.7300    0.0000 N   0  0  0  0  0  0  0  0  0  0  0  0
    7.8007   -5.0074    0.0000 C   0  0  0  0  0  0  0  0  0  0  0  0
    6.5062   -5.2799    0.0000 C   0  0  0  0  0  0  0  0  0  0  0  0
    6.0975   -6.5403    0.0000 C   0  0  0  0  0  0  0  0  0  0  0  0
    4.7860   -6.8128    0.0000 C   0  0  0  0  0  0  0  0  0  0  0  0
    3.9003   -5.8250    0.0000 C   0  0  0  0  0  0  0  0  0  0  0  0
    2.6059   -6.1145    0.0000 C   0  0  0  0  0  0  0  0  0  0  0  0
    2.1971   -7.3749    0.0000 C   0  0  0  0  0  0  0  0  0  0  0  0
    0.8857   -7.6474    0.0000 C   0  0  0  0  0  0  0  0  0  0  0  0
    0.0000   -6.6595    0.0000 C   0  0  0  0  0  0  0  0  0  0  0  0
    0.4088   -5.3992    0.0000 C   0  0  0  0  0  0  0  0  0  0  0  0
    1.7032   -5.1267    0.0000 C   0  0  0  0  0  0  0  0  0  0  0  0
    2.1290   -3.8492    0.0000 C   0  0  0  0  0  0  0  0  0  0  0  0
    1.1752   -2.9125    0.0000 O   0  0  0  0  0  0  0  0  0  0  0  0
    3.4234   -3.5767    0.0000 O   0  0  0  0  0  0  0  0  0  0  0  0
    4.3091   -4.5646    0.0000 C   0  0  0  0  0  0  0  0  0  0  0  0
    5.6206   -4.2921    0.0000 C   0  0  0  0  0  0  0  0  0  0  0  0
   13.0806   -5.3140    0.0000 N   0  0  0  0  0  0  0  0  0  0  0  0
   12.0757   -6.1997    0.0000 C   0  0  0  0  0  0  0  0  0  0  0  0
  1  2  2  0  0  0  0
  1  6  1  0  0  0  0
  2  3  1  0  0  0  0
  3  4  2  0  0  0  0
  4  5  1  0  0  0  0
  4 38  1  0  0  0  0
  5  6  2  0  0  0  0
  5  7  1  0  0  0  0
  7  8  2  0  0  0  0
  8  9  1  0  0  0  0
  8 38  1  0  0  0  0
  9 10  2  0  0  0  0
  9 15  1  0  0  0  0
 10 11  1  0  0  0  0
 11 12  2  0  0  0  0
 11 21  1  0  0  0  0
 12 13  1  0  0  0  0
 12 16  1  0  0  0  0
 13 14  1  0  0  0  0
 13 15  2  0  0  0  0
 16 17  2  0  0  0  0
 17 18  1  0  0  0  0
 17 21  1  0  0  0  0
 18 19  1  0  0  0  0
 19 20  1  0  0  0  0
 21 22  1  0  0  0  0
 22 23  1  0  0  0  0
 23 24  2  0  0  0  0
 23 37  1  0  0  0  0
 24 25  1  0  0  0  0
 25 26  2  0  0  0  0
 26 27  1  0  0  0  0
 26 36  1  0  0  0  0
 27 28  2  0  0  0  0
 27 32  1  0  0  0  0
 28 29  1  0  0  0  0
 29 30  2  0  0  0  0
 30 31  1  0  0  0  0
 31 32  2  0  0  0  0
 32 33  1  0  0  0  0
 33 34  1  0  0  0  0
 33 35  2  0  0  0  0
 36 37  2  0  0  0  0
 38 39  1  0  0  0  0
M  END
> <ID>
3251

> <Formula>
C33H30N4O2

> <FW>
514.6169

> <DSSTox_CID>
3636

> <DSSTox_RID>
77121

> <DSSTox_GSID>
23636

> <DSSTox_FileID_Sort>
1804

> <TS_ChemName>
Telmisartan

> <TS_ChemName_Synonyms>


> <TS_CASRN>
144701-48-4

> <CASRN_ChemName_Relationship>
primary

> <TS_Description>
single chemical compound

> <ChemNote>


> <STRUCTURE_Shown>
tested chemical

> <STRUCTURE_Formula>
C33H30N4O2

> <STRUCTURE_MW>
514.6169

> <STRUCTURE_ChemType>
defined organic

> <STRUCTURE_DefinedOrganicForm>
parent

> <STRUCTURE_IUPAC>
4'-[(1,7'-dimethyl-2'-propyl-1H,3'H-2,5'-bibenzimidazol-3'-yl)methyl]biphenyl-2-carboxylic acid

> <STRUCTURE_SMILES>
O=C(O)c1ccccc1c2ccc(cc2)Cn3c4cc(cc(C)c4nc3CCC)c6nc5ccccc5n6C

> <STRUCTURE_SMILES_Desalt>
O=C(O)c1ccccc1c2ccc(cc2)Cn3c4cc(cc(C)c4nc3CCC)c6nc5ccccc5n6C

> <Substance_modify_yyyymmdd>
20080429

$$$$
