146-22-5
ChemmineR-0914142331XD

 21 23  0  0  0  0  0  0  0  0  2 V2000
    6.7373   -5.5190    0.0000 C   0  0  0  0  0  0  0  0  0  0  0  0
    5.5926   -6.1813    0.0000 C   0  0  0  0  0  0  0  0  0  0  0  0
    5.5926   -7.5141    0.0000 N   0  3  0  0  0  0  0  0  0  0  0  0
    6.7373   -8.1763    0.0000 O   0  5  0  0  0  0  0  0  0  0  0  0
    4.4398   -8.1763    0.0000 O   0  0  0  0  0  0  0  0  0  0  0  0
    4.4398   -5.5190    0.0000 C   0  0  0  0  0  0  0  0  0  0  0  0
    4.4398   -4.1863    0.0000 C   0  0  0  0  0  0  0  0  0  0  0  0
    5.5926   -3.5240    0.0000 C   0  0  0  0  0  0  0  0  0  0  0  0
    6.7373   -4.1863    0.0000 C   0  0  0  0  0  0  0  0  0  0  0  0
    5.8052   -2.1913    0.0000 N   0  0  0  0  0  0  0  0  0  0  0  0
    4.8649   -1.2510    0.0000 C   0  0  0  0  0  0  0  0  0  0  0  0
    5.3719    0.0000    0.0000 O   0  0  0  0  0  0  0  0  0  0  0  0
    3.5567   -1.3327    0.0000 C   0  0  0  0  0  0  0  0  0  0  0  0
    2.8127   -2.4365    0.0000 N   0  0  0  0  0  0  0  0  0  0  0  0
    3.1806   -3.6875    0.0000 C   0  0  0  0  0  0  0  0  0  0  0  0
    2.2403   -4.6278    0.0000 C   0  0  0  0  0  0  0  0  0  0  0  0
    2.5020   -5.8870    0.0000 C   0  0  0  0  0  0  0  0  0  0  0  0
    1.5617   -6.8272    0.0000 C   0  0  0  0  0  0  0  0  0  0  0  0
    0.2780   -6.4184    0.0000 C   0  0  0  0  0  0  0  0  0  0  0  0
    0.0000   -5.1347    0.0000 C   0  0  0  0  0  0  0  0  0  0  0  0
    0.9403   -4.1945    0.0000 C   0  0  0  0  0  0  0  0  0  0  0  0
  1  2  2  0  0  0  0
  1  9  1  0  0  0  0
  2  3  1  0  0  0  0
  2  6  1  0  0  0  0
  3  4  1  0  0  0  0
  3  5  2  0  0  0  0
  6  7  2  0  0  0  0
  7  8  1  0  0  0  0
  7 15  1  0  0  0  0
  8  9  2  0  0  0  0
  8 10  1  0  0  0  0
 10 11  1  0  0  0  0
 11 12  2  0  0  0  0
 11 13  1  0  0  0  0
 13 14  1  0  0  0  0
 14 15  2  0  0  0  0
 15 16  1  0  0  0  0
 16 17  2  0  0  0  0
 16 21  1  0  0  0  0
 17 18  1  0  0  0  0
 18 19  2  0  0  0  0
 19 20  1  0  0  0  0
 20 21  2  0  0  0  0
M  END
> <ID>
3025

> <Formula>
C15H11N3O3

> <FW>
281.2661

> <DSSTox_CID>
3372

> <DSSTox_RID>
77000

> <DSSTox_GSID>
23372

> <DSSTox_FileID_Sort>
1684

> <TS_ChemName>
Nitrazepam

> <TS_ChemName_Synonyms>


> <TS_CASRN>
146-22-5

> <CASRN_ChemName_Relationship>
primary

> <TS_Description>
single chemical compound

> <ChemNote>


> <STRUCTURE_Shown>
tested chemical

> <STRUCTURE_Formula>
C15H11N3O3

> <STRUCTURE_MW>
281.2661

> <STRUCTURE_ChemType>
defined organic

> <STRUCTURE_DefinedOrganicForm>
parent

> <STRUCTURE_IUPAC>
7-nitro-5-phenyl-1,3-dihydro-2H-1,4-benzodiazepin-2-one

> <STRUCTURE_SMILES>
[O-][N+](=O)c1ccc2NC(=O)CN=C(c2c1)c3ccccc3

> <STRUCTURE_SMILES_Desalt>
[O-][N+](=O)c1ccc2NC(=O)CN=C(c2c1)c3ccccc3

> <Substance_modify_yyyymmdd>
20080429

$$$$
