147-94-4
ChemmineR-0914142331XD

 17 18  0  0  1  0  0  0  0  0  1 V2000
    4.5269   -3.4779    0.0000 N   0  0  0  0  0  0  0  0  0  0  0  0
    3.4779   -2.8727    0.0000 C   0  0  0  0  0  0  0  0  0  0  0  0
    3.4779   -1.6462    0.0000 N   0  0  0  0  0  0  0  0  0  0  0  0
    5.5517   -2.8727    0.0000 C   0  0  0  0  0  0  0  0  0  0  0  0
    5.5356   -1.6462    0.0000 C   0  0  0  0  0  0  0  0  0  0  0  0
    4.5269   -1.0490    0.0000 C   0  0  0  0  0  0  0  0  0  0  0  0
    2.5338   -3.5102    0.0000 O   0  0  0  0  0  0  0  0  0  0  0  0
    4.5269    0.0000    0.0000 N   0  0  0  0  0  0  0  0  0  0  0  0
    4.5269   -5.6486    0.0000 C   0  0  0  0  0  0  0  0  0  0  0  0
    2.2998   -5.6486    0.0000 C   0  0  0  0  0  0  0  0  0  0  0  0
    3.4295   -4.8336    0.0000 O   0  0  0  0  0  0  0  0  0  0  0  0
    2.7275   -6.9558    0.0000 C   0  0  0  0  0  0  0  0  0  0  0  0
    4.0992   -6.9558    0.0000 C   0  0  0  0  0  0  0  0  0  0  0  0
    4.9143   -8.0694    0.0000 O   0  0  0  0  0  0  0  0  0  0  0  0
    1.9124   -8.0694    0.0000 O   0  0  0  0  0  0  0  0  0  0  0  0
    1.0167   -5.2290    0.0000 C   0  0  0  0  0  0  0  0  0  0  0  0
    0.0000   -6.1247    0.0000 O   0  0  0  0  0  0  0  0  0  0  0  0
  1  2  1  0  0  0  0
  1  4  1  0  0  0  0
  9  1  1  1  0  0  0
  2  3  1  0  0  0  0
  2  7  2  0  0  0  0
  3  6  2  0  0  0  0
  4  5  2  0  0  0  0
  5  6  1  0  0  0  0
  6  8  1  0  0  0  0
  9 11  1  0  0  0  0
  9 13  1  0  0  0  0
 10 11  1  0  0  0  0
 10 12  1  0  0  0  0
 10 16  1  1  0  0  0
 12 13  1  0  0  0  0
 12 15  1  6  0  0  0
 13 14  1  1  0  0  0
 16 17  1  0  0  0  0
M  END
> <ID>
2599

> <Formula>
C9H13N3O5

> <FW>
243.2166

> <DSSTox_CID>
2877

> <DSSTox_RID>
76771

> <DSSTox_GSID>
22877

> <DSSTox_FileID_Sort>
1455

> <TS_ChemName>
Cytarabine

> <TS_ChemName_Synonyms>
Cytarabine (Arabinofuranosylcytosine)

> <TS_CASRN>
147-94-4

> <CASRN_ChemName_Relationship>
primary

> <TS_Description>
single chemical compound

> <ChemNote>
stereochem

> <STRUCTURE_Shown>
tested chemical

> <STRUCTURE_Formula>
C9H13N3O5

> <STRUCTURE_MW>
243.2166

> <STRUCTURE_ChemType>
defined organic

> <STRUCTURE_DefinedOrganicForm>
parent

> <STRUCTURE_IUPAC>
4-amino-1-(beta-D-arabinofuranosyl)pyrimidin-2(1H)-one

> <STRUCTURE_SMILES>
NC1=NC(=O)N(C=C1)[C@@H]2O[C@H](CO)[C@@H](O)[C@@H]2O

> <STRUCTURE_SMILES_Desalt>
NC1=NC(=O)N(C=C1)[C@@H]2O[C@H](CO)[C@@H](O)[C@@H]2O

> <Substance_modify_yyyymmdd>
20080429

$$$$
