1476-53-5
ChemmineR-0914142331XD

 45 47  0  0  1  0  0  0  0  0  2 V2000
   11.5726   -3.3124    0.0000 C    0  0  0  0  0  0  0  0  0  0  0  0
    9.2953   -1.9874    0.0000 C    0  0  0  0  0  0  0  0  0  0  0  0
   10.4340   -3.9541    0.0000 C    0  0  0  0  0  0  0  0  0  0  0  0
   11.5726   -1.9874    0.0000 C    0  0  0  0  0  0  0  0  0  0  0  0
    9.2953   -3.3124    0.0000 C    0  0  0  0  0  0  0  0  0  0  0  0
   10.4340   -1.3249    0.0000 O    0  0  0  0  0  0  0  0  0  0  0  0
   12.7112   -3.9541    0.0000 N    0  0  0  0  0  0  0  0  0  0  0  0
    8.1567   -1.3249    0.0000 C    0  0  0  0  0  0  0  0  0  0  0  0
   13.8706   -3.3124    0.0000 C    0  0  0  0  0  0  0  0  0  0  0  0
    7.0181   -1.9874    0.0000 C    0  0  0  0  0  0  0  0  0  0  0  0
    5.8795   -1.3249    0.0000 O    0  0  0  0  0  0  0  0  0  0  0  0
   14.9885   -3.9541    0.0000 C    0  0  0  0  0  0  0  0  0  0  0  0
    8.1567   -3.9541    0.0000 C    0  0  0  0  0  0  0  0  0  0  0  0
   17.2657   -3.9541    0.0000 C    0  0  0  0  0  0  0  0  0  0  0  0
   16.1478   -3.3124    0.0000 C    0  0  0  0  0  0  0  0  0  0  0  0
   18.4251   -1.9874    0.0000 C    0  0  0  0  0  0  0  0  0  0  0  0
   12.7112   -1.3249    0.0000 O    0  0  0  0  0  0  0  0  0  0  0  0
    7.0181   -3.3124    0.0000 C    0  0  0  0  0  0  0  0  0  0  0  0
   17.2657   -5.2791    0.0000 C    0  0  0  0  0  0  0  0  0  0  0  0
   13.8706   -1.9874    0.0000 O    0  0  0  0  0  0  0  0  0  0  0  0
   18.4251   -3.3124    0.0000 C    0  0  0  0  0  0  0  0  0  0  0  0
   19.5637   -1.3249    0.0000 C    0  0  0  0  0  0  0  0  0  0  0  0
   14.9885   -5.2791    0.0000 C    0  0  0  0  0  0  0  0  0  0  0  0
   10.4340   -5.2791    0.0000 O    0  5  0  0  0  0  0  0  0  0  0  0
   16.1478   -5.9209    0.0000 C    0  0  0  0  0  0  0  0  0  0  0  0
   18.4251   -5.9209    0.0000 O    0  0  0  0  0  0  0  0  0  0  0  0
    8.1567    0.0000    0.0000 C    0  0  0  0  0  0  0  0  0  0  0  0
   19.5637    0.0000    0.0000 C    0  0  0  0  0  0  0  0  0  0  0  0
   20.7023   -1.9874    0.0000 C    0  0  0  0  0  0  0  0  0  0  0  0
    4.7408   -1.9874    0.0000 C    0  0  0  0  0  0  0  0  0  0  0  0
    3.5815   -1.3249    0.0000 O    0  0  0  0  0  0  0  0  0  0  0  0
    4.7408   -3.3124    0.0000 C    0  0  0  0  0  0  0  0  0  0  0  0
    2.4429   -1.9874    0.0000 C    0  0  0  0  0  0  0  0  0  0  0  0
    3.5815   -3.9541    0.0000 C    0  0  0  0  0  0  0  0  0  0  0  0
    2.4429   -3.3124    0.0000 C    0  0  0  0  0  0  0  0  0  0  0  0
    5.9416   -4.0163    0.0000 O    0  0  0  0  0  0  0  0  0  0  0  0
    3.5815   -5.3619    0.0000 O    0  0  0  0  0  0  0  0  0  0  0  0
    1.2214   -4.0163    0.0000 O    0  0  0  0  0  0  0  0  0  0  0  0
    1.4285   -0.9730    0.0000 C    0  0  0  0  0  0  0  0  0  0  0  0
    1.0144   -1.9874    0.0000 C    0  0  0  0  0  0  0  0  0  0  0  0
    2.4429   -6.0451    0.0000 C    0  0  0  0  0  0  0  0  0  0  0  0
    2.4429   -7.3493    0.0000 O    0  0  0  0  0  0  0  0  0  0  0  0
    1.3042   -5.3619    0.0000 N    0  0  0  0  0  0  0  0  0  0  0  0
    0.0000   -3.3124    0.0000 C    0  0  0  0  0  0  0  0  0  0  0  0
   12.0695   -5.5896    0.0000 Na   0  3  0  0  0  0  0  0  0  0  0  0
  1  3  2  0  0  0  0
  1  4  1  0  0  0  0
  1  7  1  0  0  0  0
  2  6  1  0  0  0  0
  2  8  2  0  0  0  0
  2  5  1  0  0  0  0
  3  5  1  0  0  0  0
  3 24  1  0  0  0  0
  4  6  1  0  0  0  0
  4 17  2  0  0  0  0
  5 13  2  0  0  0  0
  7  9  1  0  0  0  0
  8 10  1  0  0  0  0
  8 27  1  0  0  0  0
  9 12  1  0  0  0  0
  9 20  2  0  0  0  0
 10 11  1  0  0  0  0
 10 18  2  0  0  0  0
 30 11  1  1  0  0  0
 12 15  1  0  0  0  0
 12 23  2  0  0  0  0
 13 18  1  0  0  0  0
 14 15  2  0  0  0  0
 14 21  1  0  0  0  0
 14 19  1  0  0  0  0
 16 21  1  0  0  0  0
 16 22  2  0  0  0  0
 19 25  2  0  0  0  0
 19 26  1  0  0  0  0
 22 28  1  0  0  0  0
 22 29  1  0  0  0  0
 23 25  1  0  0  0  0
 30 31  1  0  0  0  0
 30 32  1  0  0  0  0
 31 33  1  0  0  0  0
 32 34  1  0  0  0  0
 32 36  1  6  0  0  0
 33 35  1  0  0  0  0
 33 39  1  0  0  0  0
 33 40  1  0  0  0  0
 34 35  1  0  0  0  0
 34 37  1  6  0  0  0
 35 38  1  1  0  0  0
 37 41  1  0  0  0  0
 38 44  1  0  0  0  0
 41 42  2  0  0  0  0
 41 43  1  0  0  0  0
M  END
> <ID>
3036

> <Formula>
C31H35N2NaO11

> <FW>
634.6062 (611.6169+22.9892)

> <DSSTox_CID>
3386

> <DSSTox_RID>
77008

> <DSSTox_GSID>
23386

> <DSSTox_FileID_Sort>
1692

> <TS_ChemName>
Novobiocin sodium

> <TS_ChemName_Synonyms>
Novobiocin

> <TS_CASRN>
1476-53-5

> <CASRN_ChemName_Relationship>
primary

> <TS_Description>
single chemical compound

> <ChemNote>
stereochem; parent [303-81-1]

> <STRUCTURE_Shown>
tested chemical

> <STRUCTURE_Formula>
C31H35N2NaO11

> <STRUCTURE_MW>
634.6062

> <STRUCTURE_ChemType>
defined organic

> <STRUCTURE_DefinedOrganicForm>
salt

> <STRUCTURE_IUPAC>
sodium 7-{[(2R,3R,4S,5R)-4-(carbamoyloxy)-3-hydroxy-5-methoxy-6,6-dimethyltetrahydro-2H-pyran-2-yl]oxy}-3-{[4-hydroxy-3-(3-methylbut-2-en-1-yl)benzoyl]amino}-8-methyl-2-oxo-2H-chromen-4-olate

> <STRUCTURE_SMILES>
[Na+].C/C(C)=C\Cc1cc(ccc1O)C(=O)NC3=C([O-])c4ccc(O[C@@H]2OC(C)(C)[C@H](OC)[C@@H](OC(N)=O)[C@H]2O)c(C)c4OC3=O

> <STRUCTURE_SMILES_Desalt>
C/C(C)=C\Cc1cc(ccc1O)C(=O)NC3=C(O)c4ccc(O[C@@H]2OC(C)(C)[C@H](OC)[C@@H](OC(N)=O)[C@H]2O)c(C)c4OC3=O

> <Substance_modify_yyyymmdd>
20080429

$$$$
