148-24-3
ChemmineR-0914142331XD

 11 12  0  0  0  0  0  0  0  0  1 V2000
    3.4555    0.0000    0.0000 O   0  0  0  0  0  0  0  0  0  0  0  0
    3.4555   -1.3315    0.0000 C   0  0  0  0  0  0  0  0  0  0  0  0
    4.6073   -1.9950    0.0000 C   0  0  0  0  0  0  0  0  0  0  0  0
    4.6073   -3.3265    0.0000 C   0  0  0  0  0  0  0  0  0  0  0  0
    3.4555   -3.9899    0.0000 C   0  0  0  0  0  0  0  0  0  0  0  0
    2.3037   -3.3265    0.0000 C   0  0  0  0  0  0  0  0  0  0  0  0
    1.1518   -3.9899    0.0000 C   0  0  0  0  0  0  0  0  0  0  0  0
    0.0000   -3.3265    0.0000 C   0  0  0  0  0  0  0  0  0  0  0  0
    0.0000   -1.9950    0.0000 C   0  0  0  0  0  0  0  0  0  0  0  0
    1.1518   -1.3315    0.0000 N   0  0  0  0  0  0  0  0  0  0  0  0
    2.3037   -1.9950    0.0000 C   0  0  0  0  0  0  0  0  0  0  0  0
  1  2  1  0  0  0  0
  2  3  2  0  0  0  0
  2 11  1  0  0  0  0
  3  4  1  0  0  0  0
  4  5  2  0  0  0  0
  5  6  1  0  0  0  0
  6  7  2  0  0  0  0
  6 11  1  0  0  0  0
  7  8  1  0  0  0  0
  8  9  2  0  0  0  0
  9 10  1  0  0  0  0
 10 11  2  0  0  0  0
M  END
> <ID>
700

> <Formula>
C9H7NO

> <FW>
145.158

> <DSSTox_CID>
730

> <DSSTox_RID>
75758

> <DSSTox_GSID>
20730

> <DSSTox_FileID_Sort>
442

> <TS_ChemName>
8-Hydroxyquinoline

> <TS_ChemName_Synonyms>
8-Hydroxyquinoline (Oxyquinoline) (8-Quinolinol)

> <TS_CASRN>
148-24-3

> <CASRN_ChemName_Relationship>
primary

> <TS_Description>
single chemical compound

> <ChemNote>


> <STRUCTURE_Shown>
tested chemical

> <STRUCTURE_Formula>
C9H7NO

> <STRUCTURE_MW>
145.158

> <STRUCTURE_ChemType>
defined organic

> <STRUCTURE_DefinedOrganicForm>
parent

> <STRUCTURE_IUPAC>
quinolin-8-ol

> <STRUCTURE_SMILES>
Oc1cccc2cccnc12

> <STRUCTURE_SMILES_Desalt>
Oc1cccc2cccnc12

> <Substance_modify_yyyymmdd>
20080429

$$$$
