148-18-5
ChemmineR-0914142331XD

  9  7  0  0  0  0  0  0  0  0  2 V2000
    2.2629   -3.9912    0.0000 Na   0  3  0  0  0  0  0  0  0  0  0  0
    0.0000   -1.9956    0.0000 C    0  0  0  0  0  0  0  0  0  0  0  0
    1.1522   -2.6593    0.0000 C    0  0  0  0  0  0  0  0  0  0  0  0
    2.3044   -1.9956    0.0000 N    0  0  0  0  0  0  0  0  0  0  0  0
    3.4566   -2.6593    0.0000 C    0  0  0  0  0  0  0  0  0  0  0  0
    4.6088   -1.9956    0.0000 C    0  0  0  0  0  0  0  0  0  0  0  0
    2.3044   -0.6637    0.0000 C    0  0  0  0  0  0  0  0  0  0  0  0
    1.1522    0.0000    0.0000 S    0  5  0  0  0  0  0  0  0  0  0  0
    3.4566    0.0000    0.0000 S    0  0  0  0  0  0  0  0  0  0  0  0
  2  3  1  0  0  0  0
  3  4  1  0  0  0  0
  4  5  1  0  0  0  0
  4  7  1  0  0  0  0
  5  6  1  0  0  0  0
  7  8  1  0  0  0  0
  7  9  2  0  0  0  0
M  END
> <ID>
2662

> <Formula>
C5H10NNaS2

> <FW>
171.2594 (22.9892+148.2701)

> <DSSTox_CID>
2956

> <DSSTox_RID>
76806

> <DSSTox_GSID>
22956

> <DSSTox_FileID_Sort>
1490

> <TS_ChemName>
Sodium diethyldithiocarbamate

> <TS_ChemName_Synonyms>
Sodium diethyldithiocarbamate (Ditiocarb sodium)

> <TS_CASRN>
148-18-5

> <CASRN_ChemName_Relationship>
primary

> <TS_Description>
single chemical compound

> <ChemNote>


> <STRUCTURE_Shown>
tested chemical

> <STRUCTURE_Formula>
C5H10NNaS2

> <STRUCTURE_MW>
171.2594

> <STRUCTURE_ChemType>
defined organic

> <STRUCTURE_DefinedOrganicForm>
salt

> <STRUCTURE_IUPAC>
sodium diethylcarbamodithioate

> <STRUCTURE_SMILES>
[Na+].CCN(CC)C([S-])=S

> <STRUCTURE_SMILES_Desalt>
CCN(CC)C(=S)S

> <Substance_modify_yyyymmdd>
20080429

$$$$
