152-02-3
ChemmineR-0914142331XD

 22 25  0  0  1  0  0  0  0  0  1 V2000
    2.6672   -2.2983    0.0000 C   0  0  0  0  0  0  0  0  0  0  0  0
    3.9937   -2.2983    0.0000 C   0  0  0  0  0  0  0  0  0  0  0  0
    2.6814   -4.6038    0.0000 C   0  0  0  0  0  0  0  0  0  0  0  0
    2.0075   -3.4475    0.0000 C   0  0  0  0  0  0  0  0  0  0  0  0
    2.0713   -5.2635    0.0000 N   0  0  0  0  0  0  0  0  0  0  0  0
    4.6889   -3.4475    0.0000 C   0  0  0  0  0  0  0  0  0  0  0  0
    4.0150   -4.6038    0.0000 C   0  0  0  0  0  0  0  0  0  0  0  0
    1.3336   -2.3267    0.0000 C   0  0  0  0  0  0  0  0  0  0  0  0
    1.3336   -4.8804    0.0000 C   0  0  0  0  0  0  0  0  0  0  0  0
    4.6889   -1.1563    0.0000 C   0  0  0  0  0  0  0  0  0  0  0  0
    6.0012   -3.4475    0.0000 C   0  0  0  0  0  0  0  0  0  0  0  0
    3.3056   -7.0936    0.0000 C   0  0  0  0  0  0  0  0  0  0  0  0
    4.2846   -6.5616    0.0000 C   0  0  0  0  0  0  0  0  0  0  0  0
    6.0012   -1.1563    0.0000 C   0  0  0  0  0  0  0  0  0  0  0  0
    2.0713   -6.4978    0.0000 C   0  0  0  0  0  0  0  0  0  0  0  0
    1.9933   -1.1705    0.0000 C   0  0  0  0  0  0  0  0  0  0  0  0
    6.6609   -2.3267    0.0000 C   0  0  0  0  0  0  0  0  0  0  0  0
    0.6739   -3.4475    0.0000 C   0  0  0  0  0  0  0  0  0  0  0  0
    6.6751    0.0000    0.0000 O   0  0  0  0  0  0  0  0  0  0  0  0
    0.6384   -1.1705    0.0000 C   0  0  0  0  0  0  0  0  0  0  0  0
    0.0000   -2.3267    0.0000 C   0  0  0  0  0  0  0  0  0  0  0  0
    3.3411   -3.4475    0.0000 H   0  0  0  0  0  0  0  0  0  0  0  0
  1  2  1  0  0  0  0
  1  4  1  0  0  0  0
  1  8  1  1  0  0  0
  1 16  1  0  0  0  0
  2  6  2  0  0  0  0
  2 10  1  0  0  0  0
  3  4  1  0  0  0  0
  3  7  1  0  0  0  0
  3  5  1  1  0  0  0
  4 18  1  0  0  0  0
  4 22  1  1  0  0  0
  5  9  1  0  0  0  0
  5 15  1  0  0  0  0
  6 11  1  0  0  0  0
  6  7  1  0  0  0  0
  8  9  1  0  0  0  0
 10 14  2  0  0  0  0
 11 17  2  0  0  0  0
 12 15  1  0  0  0  0
 12 13  2  0  0  0  0
 14 17  1  0  0  0  0
 14 19  1  0  0  0  0
 16 20  1  0  0  0  0
 18 21  1  0  0  0  0
 20 21  1  0  0  0  0
M  END
> <ID>
2881

> <Formula>
C19H25NO

> <FW>
283.4079

> <DSSTox_CID>
3205

> <DSSTox_RID>
76925

> <DSSTox_GSID>
23205

> <DSSTox_FileID_Sort>
1609

> <TS_ChemName>
Levallorphan

> <TS_ChemName_Synonyms>


> <TS_CASRN>
152-02-3

> <CASRN_ChemName_Relationship>
primary

> <TS_Description>
single chemical compound

> <ChemNote>
stereochem

> <STRUCTURE_Shown>
tested chemical

> <STRUCTURE_Formula>
C19H25NO

> <STRUCTURE_MW>
283.4079

> <STRUCTURE_ChemType>
defined organic

> <STRUCTURE_DefinedOrganicForm>
parent

> <STRUCTURE_IUPAC>
17-(prop-2-en-1-yl)morphinan-3-ol

> <STRUCTURE_SMILES>
Oc3ccc4C[C@H]1N(CC[C@@]2(CCCC[C@@H]12)c4c3)CC=C

> <STRUCTURE_SMILES_Desalt>
Oc3ccc4C[C@H]1N(CC[C@@]2(CCCC[C@@H]12)c4c3)CC=C

> <Substance_modify_yyyymmdd>
20080429

$$$$
