152-72-7
ChemmineR-0914142331XD

 26 28  0  0  0  0  0  0  0  0  2 V2000
   10.3644   -7.3173    0.0000 C   0  0  0  0  0  0  0  0  0  0  0  0
    9.2139   -7.9806    0.0000 C   0  0  0  0  0  0  0  0  0  0  0  0
    8.0635   -7.3173    0.0000 C   0  0  0  0  0  0  0  0  0  0  0  0
    8.0635   -5.9906    0.0000 C   0  0  0  0  0  0  0  0  0  0  0  0
    9.2139   -5.3169    0.0000 C   0  0  0  0  0  0  0  0  0  0  0  0
   10.3644   -5.9906    0.0000 C   0  0  0  0  0  0  0  0  0  0  0  0
    9.2139   -3.9903    0.0000 O   0  0  0  0  0  0  0  0  0  0  0  0
    8.0635   -3.3270    0.0000 C   0  0  0  0  0  0  0  0  0  0  0  0
    8.0635   -2.0003    0.0000 O   0  0  0  0  0  0  0  0  0  0  0  0
    6.9130   -3.9903    0.0000 C   0  0  0  0  0  0  0  0  0  0  0  0
    5.7626   -3.3270    0.0000 C   0  0  0  0  0  0  0  0  0  0  0  0
    5.7626   -2.0003    0.0000 C   0  0  0  0  0  0  0  0  0  0  0  0
    4.6018   -1.3266    0.0000 C   0  0  0  0  0  0  0  0  0  0  0  0
    3.4513   -2.0003    0.0000 C   0  0  0  0  0  0  0  0  0  0  0  0
    4.6018    0.0000    0.0000 O   0  0  0  0  0  0  0  0  0  0  0  0
    4.6018   -3.9903    0.0000 C   0  0  0  0  0  0  0  0  0  0  0  0
    4.6018   -5.3169    0.0000 C   0  0  0  0  0  0  0  0  0  0  0  0
    3.4513   -5.9906    0.0000 C   0  0  0  0  0  0  0  0  0  0  0  0
    2.3009   -5.3169    0.0000 C   0  0  0  0  0  0  0  0  0  0  0  0
    1.1504   -5.9906    0.0000 N   0  3  0  0  0  0  0  0  0  0  0  0
    0.0000   -5.3169    0.0000 O   0  5  0  0  0  0  0  0  0  0  0  0
    1.1504   -7.3173    0.0000 O   0  0  0  0  0  0  0  0  0  0  0  0
    2.3009   -3.9903    0.0000 C   0  0  0  0  0  0  0  0  0  0  0  0
    3.4513   -3.3270    0.0000 C   0  0  0  0  0  0  0  0  0  0  0  0
    6.9130   -5.3169    0.0000 C   0  0  0  0  0  0  0  0  0  0  0  0
    5.7626   -5.9906    0.0000 O   0  0  0  0  0  0  0  0  0  0  0  0
  1  2  2  0  0  0  0
  1  6  1  0  0  0  0
  2  3  1  0  0  0  0
  3  4  2  0  0  0  0
  4  5  1  0  0  0  0
  4 25  1  0  0  0  0
  5  6  2  0  0  0  0
  5  7  1  0  0  0  0
  7  8  1  0  0  0  0
  8  9  2  0  0  0  0
  8 10  1  0  0  0  0
 10 11  1  0  0  0  0
 10 25  2  0  0  0  0
 11 12  1  0  0  0  0
 11 16  1  0  0  0  0
 12 13  1  0  0  0  0
 13 14  1  0  0  0  0
 13 15  2  0  0  0  0
 16 17  2  0  0  0  0
 16 24  1  0  0  0  0
 17 18  1  0  0  0  0
 18 19  2  0  0  0  0
 19 20  1  0  0  0  0
 19 23  1  0  0  0  0
 20 21  1  0  0  0  0
 20 22  2  0  0  0  0
 23 24  2  0  0  0  0
 25 26  1  0  0  0  0
M  END
> <ID>
2306

> <Formula>
C19H15NO6

> <FW>
353.3255

> <DSSTox_CID>
2541

> <DSSTox_RID>
76619

> <DSSTox_GSID>
22541

> <DSSTox_FileID_Sort>
1303

> <TS_ChemName>
Acenocoumarol

> <TS_ChemName_Synonyms>


> <TS_CASRN>
152-72-7

> <CASRN_ChemName_Relationship>
primary

> <TS_Description>
single chemical compound

> <ChemNote>


> <STRUCTURE_Shown>
tested chemical

> <STRUCTURE_Formula>
C19H15NO6

> <STRUCTURE_MW>
353.3255

> <STRUCTURE_ChemType>
defined organic

> <STRUCTURE_DefinedOrganicForm>
parent

> <STRUCTURE_IUPAC>
4-hydroxy-3-[1-(4-nitrophenyl)-3-oxobutyl]-2H-chromen-2-one

> <STRUCTURE_SMILES>
[O-][N+](=O)c1ccc(cc1)C(CC(C)=O)C2=C(O)c3ccccc3OC2=O

> <STRUCTURE_SMILES_Desalt>
[O-][N+](=O)c1ccc(cc1)C(CC(C)=O)C2=C(O)c3ccccc3OC2=O

> <Substance_modify_yyyymmdd>
20080429

$$$$
