152-62-5
ChemmineR-0914142331XD

 26 29  0  0  1  0  0  0  0  0  1 V2000
    6.9190   -2.6551    0.0000 C   0  0  0  0  0  0  0  0  0  0  0  0
    3.4743   -4.6587    0.0000 C   0  0  0  0  0  0  0  0  0  0  0  0
    3.4743   -5.9912    0.0000 C   0  0  0  0  0  0  0  0  0  0  0  0
    6.9190   -3.9875    0.0000 C   0  0  0  0  0  0  0  0  0  0  0  0
    5.7642   -4.6587    0.0000 C   0  0  0  0  0  0  0  0  0  0  0  0
    4.6291   -3.9875    0.0000 C   0  0  0  0  0  0  0  0  0  0  0  0
    5.7642   -5.9912    0.0000 C   0  0  0  0  0  0  0  0  0  0  0  0
    8.1922   -2.2603    0.0000 C   0  0  0  0  0  0  0  0  0  0  0  0
    4.6291   -6.6426    0.0000 C   0  0  0  0  0  0  0  0  0  0  0  0
    2.3195   -6.6426    0.0000 C   0  0  0  0  0  0  0  0  0  0  0  0
    5.7642   -2.0036    0.0000 C   0  0  0  0  0  0  0  0  0  0  0  0
    4.6291   -2.6551    0.0000 C   0  0  0  0  0  0  0  0  0  0  0  0
    8.1922   -4.4218    0.0000 C   0  0  0  0  0  0  0  0  0  0  0  0
    2.3195   -3.9875    0.0000 C   0  0  0  0  0  0  0  0  0  0  0  0
    8.9522   -3.3164    0.0000 C   0  0  0  0  0  0  0  0  0  0  0  0
    8.5870   -0.9870    0.0000 C   0  0  0  0  0  0  0  0  0  0  0  0
    1.1745   -5.9912    0.0000 C   0  0  0  0  0  0  0  0  0  0  0  0
    9.8701   -0.6810    0.0000 O   0  0  0  0  0  0  0  0  0  0  0  0
    0.0000   -6.6623    0.0000 O   0  0  0  0  0  0  0  0  0  0  0  0
    1.1745   -4.6587    0.0000 C   0  0  0  0  0  0  0  0  0  0  0  0
    6.9190   -1.3226    0.0000 C   0  0  0  0  0  0  0  0  0  0  0  0
    3.4743   -3.3164    0.0000 C   0  0  0  0  0  0  0  0  0  0  0  0
    7.6888    0.0000    0.0000 C   0  0  0  0  0  0  0  0  0  0  0  0
    4.6291   -5.3299    0.0000 H   0  0  0  0  0  0  0  0  0  0  0  0
    5.7642   -3.3262    0.0000 H   0  0  0  0  0  0  0  0  0  0  0  0
    6.9190   -5.3200    0.0000 H   0  0  0  0  0  0  0  0  0  0  0  0
  1  4  1  0  0  0  0
  1  8  1  0  0  0  0
  1 11  1  0  0  0  0
  1 21  1  1  0  0  0
  2  6  1  0  0  0  0
  2  3  1  0  0  0  0
  2 14  1  0  0  0  0
  2 22  1  6  0  0  0
  3 10  2  0  0  0  0
  3  9  1  0  0  0  0
  4  5  1  0  0  0  0
  4 13  1  0  0  0  0
  4 26  1  6  0  0  0
  5  7  1  0  0  0  0
  5  6  1  0  0  0  0
  5 25  1  1  0  0  0
  6 12  1  0  0  0  0
  6 24  1  1  0  0  0
  7  9  2  0  0  0  0
  8 15  1  0  0  0  0
  8 16  1  1  0  0  0
 10 17  1  0  0  0  0
 11 12  1  0  0  0  0
 13 15  1  0  0  0  0
 14 20  1  0  0  0  0
 16 18  2  0  0  0  0
 16 23  1  0  0  0  0
 17 20  1  0  0  0  0
 17 19  2  0  0  0  0
M  END
> <ID>
2677

> <Formula>
C21H28O2

> <FW>
312.4458

> <DSSTox_CID>
2974

> <DSSTox_RID>
76812

> <DSSTox_GSID>
22974

> <DSSTox_FileID_Sort>
1496

> <TS_ChemName>
Dydrogesterone

> <TS_ChemName_Synonyms>


> <TS_CASRN>
152-62-5

> <CASRN_ChemName_Relationship>
primary

> <TS_Description>
single chemical compound

> <ChemNote>
stereochem

> <STRUCTURE_Shown>
tested chemical

> <STRUCTURE_Formula>
C21H28O2

> <STRUCTURE_MW>
312.4458

> <STRUCTURE_ChemType>
defined organic

> <STRUCTURE_DefinedOrganicForm>
parent

> <STRUCTURE_IUPAC>
(9beta,10alpha)-pregna-4,6-diene-3,20-dione

> <STRUCTURE_SMILES>
CC(=O)[C@H]2CC[C@H]3[C@@H]4C=CC1=CC(=O)CC[C@@]1(C)[C@@H]4CC[C@]23C

> <STRUCTURE_SMILES_Desalt>
CC(=O)[C@H]2CC[C@H]3[C@@H]4C=CC1=CC(=O)CC[C@@]1(C)[C@@H]4CC[C@]23C

> <Substance_modify_yyyymmdd>
20080429

$$$$
