154-93-8
ChemmineR-0914142331XD

 12 11  0  0  0  0  0  0  0  0  1 V2000
    1.9982   -5.7596    0.0000 N    0  0  0  0  0  0  0  0  0  0  0  0
    2.6620   -4.6118    0.0000 C    0  0  0  0  0  0  0  0  0  0  0  0
    3.9895   -4.6118    0.0000 O    0  0  0  0  0  0  0  0  0  0  0  0
    1.9982   -3.4571    0.0000 N    0  0  0  0  0  0  0  0  0  0  0  0
    2.6620   -2.3025    0.0000 C    0  0  0  0  0  0  0  0  0  0  0  0
    1.9982   -1.1547    0.0000 C    0  0  0  0  0  0  0  0  0  0  0  0
    2.6620    0.0000    0.0000 Cl   0  0  0  0  0  0  0  0  0  0  0  0
    0.6638   -5.7596    0.0000 N    0  0  0  0  0  0  0  0  0  0  0  0
    0.0000   -4.6118    0.0000 O    0  0  0  0  0  0  0  0  0  0  0  0
    2.6620   -6.9143    0.0000 C    0  0  0  0  0  0  0  0  0  0  0  0
    3.9895   -6.9143    0.0000 C    0  0  0  0  0  0  0  0  0  0  0  0
    4.6602   -5.7596    0.0000 Cl   0  0  0  0  0  0  0  0  0  0  0  0
  1  2  1  0  0  0  0
  1  8  1  0  0  0  0
  1 10  1  0  0  0  0
  2  3  2  0  0  0  0
  2  4  1  0  0  0  0
  4  5  1  0  0  0  0
  5  6  1  0  0  0  0
  6  7  1  0  0  0  0
  8  9  2  0  0  0  0
 10 11  1  0  0  0  0
 11 12  1  0  0  0  0
M  END
> <ID>
2482

> <Formula>
C5H9Cl2N3O2

> <FW>
214.0499

> <DSSTox_CID>
2743

> <DSSTox_RID>
76712

> <DSSTox_GSID>
22743

> <DSSTox_FileID_Sort>
1396

> <TS_ChemName>
Carmustine

> <TS_ChemName_Synonyms>
Carmustine (1,3-Bis(chloroethyl)-1-nitrosourea)

> <TS_CASRN>
154-93-8

> <CASRN_ChemName_Relationship>
primary

> <TS_Description>
single chemical compound

> <ChemNote>


> <STRUCTURE_Shown>
tested chemical

> <STRUCTURE_Formula>
C5H9Cl2N3O2

> <STRUCTURE_MW>
214.0499

> <STRUCTURE_ChemType>
defined organic

> <STRUCTURE_DefinedOrganicForm>
parent

> <STRUCTURE_IUPAC>
1,3-bis(2-chloroethyl)-1-nitrosourea

> <STRUCTURE_SMILES>
O=C(NCCCl)N(CCCl)N=O

> <STRUCTURE_SMILES_Desalt>
O=C(NCCCl)N(CCCl)N=O

> <Substance_modify_yyyymmdd>
20080429

$$$$
