15574-96-6
ChemmineR-0914142331XD

 21 24  0  0  0  0  0  0  0  0  1 V2000
    1.5714    0.0000    0.0000 C   0  0  0  0  0  0  0  0  0  0  0  0
    2.8467   -0.2797    0.0000 C   0  0  0  0  0  0  0  0  0  0  0  0
    3.2581   -1.5632    0.0000 C   0  0  0  0  0  0  0  0  0  0  0  0
    2.3201   -2.5094    0.0000 C   0  0  0  0  0  0  0  0  0  0  0  0
    1.0367   -2.2296    0.0000 C   0  0  0  0  0  0  0  0  0  0  0  0
    0.6335   -0.9379    0.0000 C   0  0  0  0  0  0  0  0  0  0  0  0
    0.0000   -3.0524    0.0000 C   0  0  0  0  0  0  0  0  0  0  0  0
    0.0000   -4.3852    0.0000 C   0  0  0  0  0  0  0  0  0  0  0  0
    1.0367   -5.2162    0.0000 C   0  0  0  0  0  0  0  0  0  0  0  0
    2.3448   -4.9118    0.0000 C   0  0  0  0  0  0  0  0  0  0  0  0
    2.9125   -3.7188    0.0000 C   0  0  0  0  0  0  0  0  0  0  0  0
    4.2371   -3.7188    0.0000 C   0  0  0  0  0  0  0  0  0  0  0  0
    4.9036   -2.5670    0.0000 C   0  0  0  0  0  0  0  0  0  0  0  0
    6.2364   -2.5670    0.0000 C   0  0  0  0  0  0  0  0  0  0  0  0
    6.8946   -3.7188    0.0000 N   0  0  0  0  0  0  0  0  0  0  0  0
    8.2275   -3.7188    0.0000 C   0  0  0  0  0  0  0  0  0  0  0  0
    6.2364   -4.8707    0.0000 C   0  0  0  0  0  0  0  0  0  0  0  0
    4.9036   -4.8707    0.0000 C   0  0  0  0  0  0  0  0  0  0  0  0
    3.0113   -6.0636    0.0000 C   0  0  0  0  0  0  0  0  0  0  0  0
    2.1391   -7.0592    0.0000 C   0  0  0  0  0  0  0  0  0  0  0  0
    0.9215   -6.5408    0.0000 S   0  0  0  0  0  0  0  0  0  0  0  0
  1  2  2  0  0  0  0
  1  6  1  0  0  0  0
  2  3  1  0  0  0  0
  3  4  2  0  0  0  0
  4  5  1  0  0  0  0
  4 11  1  0  0  0  0
  5  6  2  0  0  0  0
  5  7  1  0  0  0  0
  7  8  1  0  0  0  0
  8  9  1  0  0  0  0
  9 10  2  0  0  0  0
  9 21  1  0  0  0  0
 10 11  1  0  0  0  0
 10 19  1  0  0  0  0
 11 12  2  0  0  0  0
 12 13  1  0  0  0  0
 12 18  1  0  0  0  0
 13 14  1  0  0  0  0
 14 15  1  0  0  0  0
 15 16  1  0  0  0  0
 15 17  1  0  0  0  0
 17 18  1  0  0  0  0
 19 20  2  0  0  0  0
 20 21  1  0  0  0  0
M  END
> <ID>
3128

> <Formula>
C19H21NS

> <FW>
295.4417

> <DSSTox_CID>
3490

> <DSSTox_RID>
77051

> <DSSTox_GSID>
23490

> <DSSTox_FileID_Sort>
1734

> <TS_ChemName>
Pizotyline

> <TS_ChemName_Synonyms>


> <TS_CASRN>
15574-96-6

> <CASRN_ChemName_Relationship>
primary

> <TS_Description>
single chemical compound

> <ChemNote>


> <STRUCTURE_Shown>
tested chemical

> <STRUCTURE_Formula>
C19H21NS

> <STRUCTURE_MW>
295.4417

> <STRUCTURE_ChemType>
defined organic

> <STRUCTURE_DefinedOrganicForm>
parent

> <STRUCTURE_IUPAC>
4-(9,10-dihydro-4H-benzo[4,5]cyclohepta[1,2-b]thiophen-4-ylidene)-1-methylpiperidine

> <STRUCTURE_SMILES>
CN1CC/C(CC1)=C3\c4ccccc4CCc2sccc23

> <STRUCTURE_SMILES_Desalt>
CN1CC/C(CC1)=C3\c4ccccc4CCc2sccc23

> <Substance_modify_yyyymmdd>
20080429

$$$$
