15687-27-1
ChemmineR-0914142331XD

 15 15  0  0  0  0  0  0  0  0  1 V2000
    2.3021    0.0000    0.0000 C   0  0  0  0  0  0  0  0  0  0  0  0
    2.3021   -1.3260    0.0000 C   0  0  0  0  0  0  0  0  0  0  0  0
    3.4531   -1.9890    0.0000 C   0  0  0  0  0  0  0  0  0  0  0  0
    4.6041   -1.3260    0.0000 C   0  0  0  0  0  0  0  0  0  0  0  0
    5.7552   -1.9890    0.0000 C   0  0  0  0  0  0  0  0  0  0  0  0
    5.7552   -3.3242    0.0000 C   0  0  0  0  0  0  0  0  0  0  0  0
    4.6041   -3.9872    0.0000 C   0  0  0  0  0  0  0  0  0  0  0  0
    3.4531   -3.3242    0.0000 C   0  0  0  0  0  0  0  0  0  0  0  0
    6.9062   -3.9872    0.0000 C   0  0  0  0  0  0  0  0  0  0  0  0
    8.0572   -3.3242    0.0000 C   0  0  0  0  0  0  0  0  0  0  0  0
    9.2083   -3.9872    0.0000 C   0  0  0  0  0  0  0  0  0  0  0  0
    8.0572   -1.9890    0.0000 C   0  0  0  0  0  0  0  0  0  0  0  0
    1.1510   -1.9890    0.0000 C   0  0  0  0  0  0  0  0  0  0  0  0
    1.1510   -3.3242    0.0000 O   0  0  0  0  0  0  0  0  0  0  0  0
    0.0000   -1.3260    0.0000 O   0  0  0  0  0  0  0  0  0  0  0  0
  1  2  1  0  0  0  0
  2  3  1  0  0  0  0
  2 13  1  0  0  0  0
  3  4  2  0  0  0  0
  3  8  1  0  0  0  0
  4  5  1  0  0  0  0
  5  6  2  0  0  0  0
  6  7  1  0  0  0  0
  6  9  1  0  0  0  0
  7  8  2  0  0  0  0
  9 10  1  0  0  0  0
 10 11  1  0  0  0  0
 10 12  1  0  0  0  0
 13 14  2  0  0  0  0
 13 15  1  0  0  0  0
M  END
> <ID>
702

> <Formula>
C13H18O2

> <FW>
206.2808

> <DSSTox_CID>
732

> <DSSTox_RID>
75759

> <DSSTox_GSID>
20732

> <DSSTox_FileID_Sort>
443

> <TS_ChemName>
Ibuprofen

> <TS_ChemName_Synonyms>


> <TS_CASRN>
15687-27-1

> <CASRN_ChemName_Relationship>
primary

> <TS_Description>
single chemical compound

> <ChemNote>


> <STRUCTURE_Shown>
tested chemical

> <STRUCTURE_Formula>
C13H18O2

> <STRUCTURE_MW>
206.2808

> <STRUCTURE_ChemType>
defined organic

> <STRUCTURE_DefinedOrganicForm>
parent

> <STRUCTURE_IUPAC>
2-[4-(2-methylpropyl)phenyl]propanoic acid

> <STRUCTURE_SMILES>
CC(C(=O)O)c1ccc(CC(C)C)cc1

> <STRUCTURE_SMILES_Desalt>
CC(C(=O)O)c1ccc(CC(C)C)cc1

> <Substance_modify_yyyymmdd>
20080429

$$$$
