1570-64-5
ChemmineR-0914142331XD

  9  9  0  0  0  0  0  0  0  0  1 V2000
    1.1520   -1.9953    0.0000 C    0  0  0  0  0  0  0  0  0  0  0  0
    1.1520   -0.6636    0.0000 C    0  0  0  0  0  0  0  0  0  0  0  0
    2.3041    0.0000    0.0000 C    0  0  0  0  0  0  0  0  0  0  0  0
    3.4561   -0.6636    0.0000 C    0  0  0  0  0  0  0  0  0  0  0  0
    3.4561   -1.9953    0.0000 C    0  0  0  0  0  0  0  0  0  0  0  0
    2.3041   -2.6589    0.0000 C    0  0  0  0  0  0  0  0  0  0  0  0
    4.6082   -2.6589    0.0000 Cl   0  0  0  0  0  0  0  0  0  0  0  0
    0.0000    0.0000    0.0000 O    0  0  0  0  0  0  0  0  0  0  0  0
    0.0000   -2.6589    0.0000 C    0  0  0  0  0  0  0  0  0  0  0  0
  1  2  2  0  0  0  0
  1  6  1  0  0  0  0
  1  9  1  0  0  0  0
  2  3  1  0  0  0  0
  2  8  1  0  0  0  0
  3  4  2  0  0  0  0
  4  5  1  0  0  0  0
  5  6  2  0  0  0  0
  5  7  1  0  0  0  0
M  END
> <ID>
2278

> <Formula>
C7H7ClO

> <FW>
142.5829

> <DSSTox_CID>
2510

> <DSSTox_RID>
76605

> <DSSTox_GSID>
22510

> <DSSTox_FileID_Sort>
1289

> <TS_ChemName>
4-Chloro-2-methylphenol

> <TS_ChemName_Synonyms>
4-Chloro-2-methylphenol (4-Chloro-o-cresol)

> <TS_CASRN>
1570-64-5

> <CASRN_ChemName_Relationship>
primary

> <TS_Description>
single chemical compound

> <ChemNote>


> <STRUCTURE_Shown>
tested chemical

> <STRUCTURE_Formula>
C7H7ClO

> <STRUCTURE_MW>
142.5829

> <STRUCTURE_ChemType>
defined organic

> <STRUCTURE_DefinedOrganicForm>
parent

> <STRUCTURE_IUPAC>
4-chloro-2-methylphenol

> <STRUCTURE_SMILES>
Cc1cc(Cl)ccc1O

> <STRUCTURE_SMILES_Desalt>
Cc1cc(Cl)ccc1O

> <Substance_modify_yyyymmdd>
20080429

$$$$
