1582-09-8
ChemmineR-0914142331XD

 23 23  0  0  0  0  0  0  0  0  2 V2000
    5.7594    0.0000    0.0000 O   0  0  0  0  0  0  0  0  0  0  0  0
    5.7594   -1.3362    0.0000 N   0  3  0  0  0  0  0  0  0  0  0  0
    4.6075   -1.9997    0.0000 C   0  0  0  0  0  0  0  0  0  0  0  0
    4.6075   -3.3266    0.0000 C   0  0  0  0  0  0  0  0  0  0  0  0
    3.4557   -3.9901    0.0000 C   0  0  0  0  0  0  0  0  0  0  0  0
    2.3038   -3.3266    0.0000 C   0  0  0  0  0  0  0  0  0  0  0  0
    2.3038   -1.9997    0.0000 C   0  0  0  0  0  0  0  0  0  0  0  0
    3.4557   -1.3362    0.0000 C   0  0  0  0  0  0  0  0  0  0  0  0
    1.1519   -1.3362    0.0000 C   0  0  0  0  0  0  0  0  0  0  0  0
    1.8154   -0.1843    0.0000 F   0  0  0  0  0  0  0  0  0  0  0  0
    0.4884   -2.4881    0.0000 F   0  0  0  0  0  0  0  0  0  0  0  0
    0.0000   -0.6727    0.0000 F   0  0  0  0  0  0  0  0  0  0  0  0
    3.4557   -5.3263    0.0000 N   0  3  0  0  0  0  0  0  0  0  0  0
    4.6075   -5.9898    0.0000 O   0  0  0  0  0  0  0  0  0  0  0  0
    2.3038   -5.9898    0.0000 O   0  5  0  0  0  0  0  0  0  0  0  0
    5.7594   -3.9901    0.0000 N   0  0  0  0  0  0  0  0  0  0  0  0
    6.9113   -3.3266    0.0000 C   0  0  0  0  0  0  0  0  0  0  0  0
    8.0632   -3.9901    0.0000 C   0  0  0  0  0  0  0  0  0  0  0  0
    9.2151   -3.3266    0.0000 C   0  0  0  0  0  0  0  0  0  0  0  0
    5.7594   -5.3263    0.0000 C   0  0  0  0  0  0  0  0  0  0  0  0
    6.9113   -5.9898    0.0000 C   0  0  0  0  0  0  0  0  0  0  0  0
    8.0632   -5.3263    0.0000 C   0  0  0  0  0  0  0  0  0  0  0  0
    6.9113   -1.9997    0.0000 O   0  5  0  0  0  0  0  0  0  0  0  0
  1  2  2  0  0  0  0
  2  3  1  0  0  0  0
  2 23  1  0  0  0  0
  3  4  2  0  0  0  0
  3  8  1  0  0  0  0
  4  5  1  0  0  0  0
  4 16  1  0  0  0  0
  5  6  2  0  0  0  0
  5 13  1  0  0  0  0
  6  7  1  0  0  0  0
  7  8  2  0  0  0  0
  7  9  1  0  0  0  0
  9 10  1  0  0  0  0
  9 11  1  0  0  0  0
  9 12  1  0  0  0  0
 13 14  2  0  0  0  0
 13 15  1  0  0  0  0
 16 17  1  0  0  0  0
 16 20  1  0  0  0  0
 17 18  1  0  0  0  0
 18 19  1  0  0  0  0
 20 21  1  0  0  0  0
 21 22  1  0  0  0  0
M  END
> <ID>
1340

> <Formula>
C13H16F3N3O4

> <FW>
335.279

> <DSSTox_CID>
1395

> <DSSTox_RID>
76136

> <DSSTox_GSID>
21395

> <DSSTox_FileID_Sort>
820

> <TS_ChemName>
Trifluralin

> <TS_ChemName_Synonyms>


> <TS_CASRN>
1582-09-8

> <CASRN_ChemName_Relationship>
primary

> <TS_Description>
single chemical compound

> <ChemNote>


> <STRUCTURE_Shown>
tested chemical

> <STRUCTURE_Formula>
C13H16F3N3O4

> <STRUCTURE_MW>
335.279

> <STRUCTURE_ChemType>
defined organic

> <STRUCTURE_DefinedOrganicForm>
parent

> <STRUCTURE_IUPAC>
2,6-dinitro-N,N-dipropyl-4-(trifluoromethyl)aniline

> <STRUCTURE_SMILES>
[O-][N+](=O)c1cc(cc([N+]([O-])=O)c1N(CCC)CCC)C(F)(F)F

> <STRUCTURE_SMILES_Desalt>
[O-][N+](=O)c1cc(cc([N+]([O-])=O)c1N(CCC)CCC)C(F)(F)F

> <Substance_modify_yyyymmdd>
20080429

$$$$
