162011-90-7
ChemmineR-0914142331XD

 22 24  0  0  0  0  0  0  0  0  1 V2000
    1.0752   -4.2029    0.0000 C   0  0  0  0  0  0  0  0  0  0  0  0
    0.0000   -3.4210    0.0000 O   0  0  0  0  0  0  0  0  0  0  0  0
    2.3458   -3.7924    0.0000 C   0  0  0  0  0  0  0  0  0  0  0  0
    2.7563   -2.5218    0.0000 C   0  0  0  0  0  0  0  0  0  0  0  0
    1.8669   -1.5346    0.0000 C   0  0  0  0  0  0  0  0  0  0  0  0
    2.2774   -0.2737    0.0000 C   0  0  0  0  0  0  0  0  0  0  0  0
    3.5774    0.0000    0.0000 C   0  0  0  0  0  0  0  0  0  0  0  0
    4.4668   -0.9872    0.0000 C   0  0  0  0  0  0  0  0  0  0  0  0
    4.0563   -2.2481    0.0000 C   0  0  0  0  0  0  0  0  0  0  0  0
    3.1278   -4.8676    0.0000 C   0  0  0  0  0  0  0  0  0  0  0  0
    4.4571   -4.8676    0.0000 C   0  0  0  0  0  0  0  0  0  0  0  0
    5.1217   -3.7142    0.0000 C   0  0  0  0  0  0  0  0  0  0  0  0
    6.4510   -3.7142    0.0000 C   0  0  0  0  0  0  0  0  0  0  0  0
    7.1157   -4.8676    0.0000 C   0  0  0  0  0  0  0  0  0  0  0  0
    8.4450   -4.8676    0.0000 S   0  0  0  0  0  0  0  0  0  0  0  0
    8.4450   -6.1969    0.0000 O   0  0  0  0  0  0  0  0  0  0  0  0
    8.4450   -3.5383    0.0000 O   0  0  0  0  0  0  0  0  0  0  0  0
    9.7743   -4.8676    0.0000 C   0  0  0  0  0  0  0  0  0  0  0  0
    6.4510   -6.0210    0.0000 C   0  0  0  0  0  0  0  0  0  0  0  0
    5.1217   -6.0210    0.0000 C   0  0  0  0  0  0  0  0  0  0  0  0
    2.3458   -5.9428    0.0000 C   0  0  0  0  0  0  0  0  0  0  0  0
    1.0752   -5.5322    0.0000 O   0  0  0  0  0  0  0  0  0  0  0  0
  1  2  2  0  0  0  0
  1  3  1  0  0  0  0
  1 22  1  0  0  0  0
  3  4  1  0  0  0  0
  3 10  2  0  0  0  0
  4  5  2  0  0  0  0
  4  9  1  0  0  0  0
  5  6  1  0  0  0  0
  6  7  2  0  0  0  0
  7  8  1  0  0  0  0
  8  9  2  0  0  0  0
 10 11  1  0  0  0  0
 10 21  1  0  0  0  0
 11 12  1  0  0  0  0
 11 20  2  0  0  0  0
 12 13  2  0  0  0  0
 13 14  1  0  0  0  0
 14 15  1  0  0  0  0
 14 19  2  0  0  0  0
 15 16  2  0  0  0  0
 15 17  2  0  0  0  0
 15 18  1  0  0  0  0
 19 20  1  0  0  0  0
 21 22  1  0  0  0  0
M  END
> <ID>
3190

> <Formula>
C17H14O4S

> <FW>
314.3557

> <DSSTox_CID>
3567

> <DSSTox_RID>
77084

> <DSSTox_GSID>
23567

> <DSSTox_FileID_Sort>
1767

> <TS_ChemName>
Rofecoxib

> <TS_ChemName_Synonyms>


> <TS_CASRN>
162011-90-7

> <CASRN_ChemName_Relationship>
primary

> <TS_Description>
single chemical compound

> <ChemNote>


> <STRUCTURE_Shown>
tested chemical

> <STRUCTURE_Formula>
C17H14O4S

> <STRUCTURE_MW>
314.3557

> <STRUCTURE_ChemType>
defined organic

> <STRUCTURE_DefinedOrganicForm>
parent

> <STRUCTURE_IUPAC>
4-[4-(methylsulfonyl)phenyl]-3-phenylfuran-2(5H)-one

> <STRUCTURE_SMILES>
CS(=O)(=O)c1ccc(cc1)C=2COC(=O)C=2c3ccccc3

> <STRUCTURE_SMILES_Desalt>
CS(=O)(=O)c1ccc(cc1)C=2COC(=O)C=2c3ccccc3

> <Substance_modify_yyyymmdd>
20080429

$$$$
