16320-04-0
ChemmineR-0914142331XD

 25 28  0  0  1  0  0  0  0  0  1 V2000
    4.6490   -3.2912    0.0000 C   0  0  0  0  0  0  0  0  0  0  0  0
    3.4976   -3.9430    0.0000 C   0  0  0  0  0  0  0  0  0  0  0  0
    6.9410   -1.9552    0.0000 C   0  0  0  0  0  0  0  0  0  0  0  0
    3.4976   -5.2573    0.0000 C   0  0  0  0  0  0  0  0  0  0  0  0
    5.7787   -3.9430    0.0000 C   0  0  0  0  0  0  0  0  0  0  0  0
    6.9410   -3.2912    0.0000 C   0  0  0  0  0  0  0  0  0  0  0  0
    4.6490   -1.9552    0.0000 C   0  0  0  0  0  0  0  0  0  0  0  0
    5.7787   -1.2817    0.0000 C   0  0  0  0  0  0  0  0  0  0  0  0
    8.2010   -1.5424    0.0000 C   0  0  0  0  0  0  0  0  0  0  0  0
    2.3028   -5.9525    0.0000 C   0  0  0  0  0  0  0  0  0  0  0  0
    9.5370   -1.5533    0.0000 C   0  0  0  0  0  0  0  0  0  0  0  0
    2.3028   -3.2912    0.0000 C   0  0  0  0  0  0  0  0  0  0  0  0
    5.7787   -5.2573    0.0000 C   0  0  0  0  0  0  0  0  0  0  0  0
    8.2010   -3.6714    0.0000 C   0  0  0  0  0  0  0  0  0  0  0  0
   10.8622   -1.5533    0.0000 C   0  0  0  0  0  0  0  0  0  0  0  0
    4.6490   -5.9525    0.0000 C   0  0  0  0  0  0  0  0  0  0  0  0
    1.1731   -5.2573    0.0000 C   0  0  0  0  0  0  0  0  0  0  0  0
    8.9505   -2.5961    0.0000 C   0  0  0  0  0  0  0  0  0  0  0  0
    0.0000   -5.9634    0.0000 O   0  0  0  0  0  0  0  0  0  0  0  0
    1.1731   -3.9430    0.0000 C   0  0  0  0  0  0  0  0  0  0  0  0
    8.2010   -0.2064    0.0000 O   0  0  0  0  0  0  0  0  0  0  0  0
    6.9410   -0.6083    0.0000 C   0  0  0  0  0  0  0  0  0  0  0  0
    5.7461    0.0000    0.0000 C   0  0  0  0  0  0  0  0  0  0  0  0
    5.7787   -2.5961    0.0000 H   0  0  0  0  0  0  0  0  0  0  0  0
    6.9410   -4.6056    0.0000 H   0  0  0  0  0  0  0  0  0  0  0  0
  1  2  2  0  0  0  0
  1  5  1  0  0  0  0
  1  7  1  0  0  0  0
  2  4  1  0  0  0  0
  2 12  1  0  0  0  0
  3  8  1  0  0  0  0
  3  9  1  0  0  0  0
  3 22  1  1  0  0  0
  3  6  1  0  0  0  0
  4 10  2  0  0  0  0
  4 16  1  0  0  0  0
  5  6  1  0  0  0  0
  5 13  1  0  0  0  0
  5 24  1  1  0  0  0
  6 14  1  0  0  0  0
  6 25  1  6  0  0  0
  7  8  2  0  0  0  0
  9 11  1  6  0  0  0
  9 21  1  0  0  0  0
  9 18  1  0  0  0  0
 10 17  1  0  0  0  0
 11 15  3  0  0  0  0
 12 20  1  0  0  0  0
 13 16  1  0  0  0  0
 14 18  1  0  0  0  0
 17 20  1  0  0  0  0
 17 19  2  0  0  0  0
 22 23  1  0  0  0  0
M  END
> <ID>
2780

> <Formula>
C21H24O2

> <FW>
308.4141

> <DSSTox_CID>
3094

> <DSSTox_RID>
76871

> <DSSTox_GSID>
23094

> <DSSTox_FileID_Sort>
1555

> <TS_ChemName>
Gestrinone

> <TS_ChemName_Synonyms>


> <TS_CASRN>
16320-04-0

> <CASRN_ChemName_Relationship>
primary

> <TS_Description>
single chemical compound

> <ChemNote>
stereochem

> <STRUCTURE_Shown>
tested chemical

> <STRUCTURE_Formula>
C21H24O2

> <STRUCTURE_MW>
308.4141

> <STRUCTURE_ChemType>
defined organic

> <STRUCTURE_DefinedOrganicForm>
parent

> <STRUCTURE_IUPAC>
(8S,13S,14S,17R)-13-ethyl-17-ethynyl-17-hydroxy-1,2,6,7,8,13,14,15,16,17-decahydro-3H-cyclopenta[a]phenanthren-3-one

> <STRUCTURE_SMILES>
O=C3C=C4CC[C@@H]2C(C=C[C@@]1(CC)[C@H]2CC[C@@]1(O)C#C)=C4CC3

> <STRUCTURE_SMILES_Desalt>
O=C3C=C4CC[C@@H]2C(C=C[C@@]1(CC)[C@H]2CC[C@@]1(O)C#C)=C4CC3

> <Substance_modify_yyyymmdd>
20080429

$$$$
