1647-16-1
ChemmineR-0914142331XD

 10  9  0  0  0  0  0  0  0  0  1 V2000
    0.0000   -0.6638    0.0000 C   0  0  0  0  0  0  0  0  0  0  0  0
    1.1513    0.0000    0.0000 C   0  0  0  0  0  0  0  0  0  0  0  0
    2.3027   -0.6638    0.0000 C   0  0  0  0  0  0  0  0  0  0  0  0
    3.4540    0.0000    0.0000 C   0  0  0  0  0  0  0  0  0  0  0  0
    4.6053   -0.6638    0.0000 C   0  0  0  0  0  0  0  0  0  0  0  0
    5.7670    0.0000    0.0000 C   0  0  0  0  0  0  0  0  0  0  0  0
    6.9184   -0.6638    0.0000 C   0  0  0  0  0  0  0  0  0  0  0  0
    8.0697    0.0000    0.0000 C   0  0  0  0  0  0  0  0  0  0  0  0
    9.2210   -0.6638    0.0000 C   0  0  0  0  0  0  0  0  0  0  0  0
   10.3724    0.0000    0.0000 C   0  0  0  0  0  0  0  0  0  0  0  0
  1  2  2  0  0  0  0
  2  3  1  0  0  0  0
  3  4  1  0  0  0  0
  4  5  1  0  0  0  0
  5  6  1  0  0  0  0
  6  7  1  0  0  0  0
  7  8  1  0  0  0  0
  8  9  1  0  0  0  0
  9 10  2  0  0  0  0
M  END
> <ID>
1998

> <Formula>
C10H18

> <FW>
138.2499

> <DSSTox_CID>
2159

> <DSSTox_RID>
76506

> <DSSTox_GSID>
22159

> <DSSTox_FileID_Sort>
1190

> <TS_ChemName>
1,9-Decadiene

> <TS_ChemName_Synonyms>


> <TS_CASRN>
1647-16-1

> <CASRN_ChemName_Relationship>
primary

> <TS_Description>
single chemical compound

> <ChemNote>


> <STRUCTURE_Shown>
tested chemical

> <STRUCTURE_Formula>
C10H18

> <STRUCTURE_MW>
138.2499

> <STRUCTURE_ChemType>
defined organic

> <STRUCTURE_DefinedOrganicForm>
parent

> <STRUCTURE_IUPAC>
deca-1,9-diene

> <STRUCTURE_SMILES>
C=CCCCCCCC=C

> <STRUCTURE_SMILES_Desalt>
C=CCCCCCCC=C

> <Substance_modify_yyyymmdd>
20080429

$$$$
