16846-24-5
ChemmineR-0914142331XD

 58 60  0  0  1  0  0  0  0  0  1 V2000
    3.4539   -6.0068    0.0000 O   0  0  0  0  0  0  0  0  0  0  0  0
    3.4539   -7.3154    0.0000 C   0  0  0  0  0  0  0  0  0  0  0  0
    2.3169   -5.3203    0.0000 C   0  0  0  0  0  0  0  0  0  0  0  0
    2.3169   -7.9805    0.0000 O   0  0  0  0  0  0  0  0  0  0  0  0
    1.1585   -6.0068    0.0000 C   0  0  0  0  0  0  0  0  0  0  0  0
    1.1585   -7.3154    0.0000 C   0  0  0  0  0  0  0  0  0  0  0  0
    4.6124   -5.3203    0.0000 O   0  0  0  0  0  0  0  0  0  0  0  0
    5.7494   -6.0068    0.0000 C   0  0  0  0  0  0  0  0  0  0  0  0
    4.6124   -7.9805    0.0000 C   0  0  0  0  0  0  0  0  0  0  0  0
    5.7494   -7.3369    0.0000 C   0  0  0  0  0  0  0  0  0  0  0  0
    4.6124   -3.9902    0.0000 C   0  0  0  0  0  0  0  0  0  0  0  0
    2.3169   -3.9902    0.0000 C   0  0  0  0  0  0  0  0  0  0  0  0
    3.4539   -3.3252    0.0000 C   0  0  0  0  0  0  0  0  0  0  0  0
    6.9293   -5.3203    0.0000 C   0  0  0  0  0  0  0  0  0  0  0  0
    5.7494   -3.3252    0.0000 C   0  0  0  0  0  0  0  0  0  0  0  0
    6.9293   -3.9902    0.0000 C   0  0  0  0  0  0  0  0  0  0  0  0
    5.7494   -1.9951    0.0000 C   0  0  0  0  0  0  0  0  0  0  0  0
    3.4539   -2.0166    0.0000 C   0  0  0  0  0  0  0  0  0  0  0  0
    4.6124   -1.3301    0.0000 C   0  0  0  0  0  0  0  0  0  0  0  0
    0.0000   -7.9805    0.0000 C   0  0  0  0  0  0  0  0  0  0  0  0
    4.6124    0.0000    0.0000 O   0  0  0  0  0  0  0  0  0  0  0  0
    6.9293   -1.3301    0.0000 C   0  0  0  0  0  0  0  0  0  0  0  0
    8.0663   -3.3252    0.0000 C   0  0  0  0  0  0  0  0  0  0  0  0
    8.0663   -5.9854    0.0000 O   0  0  0  0  0  0  0  0  0  0  0  0
    6.9293   -7.9805    0.0000 O   0  0  0  0  0  0  0  0  0  0  0  0
    8.0663   -1.9951    0.0000 C   0  0  0  0  0  0  0  0  0  0  0  0
    9.2247   -1.3301    0.0000 O   0  0  0  0  0  0  0  0  0  0  0  0
    6.9293   -9.3320    0.0000 C   0  0  0  0  0  0  0  0  0  0  0  0
    8.0663   -9.9971    0.0000 O   0  0  0  0  0  0  0  0  0  0  0  0
    5.7494   -9.9971    0.0000 C   0  0  0  0  0  0  0  0  0  0  0  0
   12.0565   -5.9854    0.0000 C   0  0  0  0  0  0  0  0  0  0  0  0
   11.3915   -7.1224    0.0000 C   0  0  0  0  0  0  0  0  0  0  0  0
   11.3915   -4.8269    0.0000 C   0  0  0  0  0  0  0  0  0  0  0  0
   10.0614   -7.1224    0.0000 O   0  0  0  0  0  0  0  0  0  0  0  0
   10.0614   -4.8269    0.0000 C   0  0  0  0  0  0  0  0  0  0  0  0
    9.3964   -5.9854    0.0000 C   0  0  0  0  0  0  0  0  0  0  0  0
   12.0565   -8.2808    0.0000 C   0  0  0  0  0  0  0  0  0  0  0  0
   13.3866   -5.9854    0.0000 O   0  0  0  0  0  0  0  0  0  0  0  0
   12.0565   -3.6684    0.0000 N   0  0  0  0  0  0  0  0  0  0  0  0
   13.3866   -3.6684    0.0000 C   0  0  0  0  0  0  0  0  0  0  0  0
   11.3915   -2.5100    0.0000 C   0  0  0  0  0  0  0  0  0  0  0  0
    9.3964   -3.6684    0.0000 O   0  0  0  0  0  0  0  0  0  0  0  0
   16.8620   -6.6504    0.0000 C   0  0  0  0  0  0  0  0  0  0  0  0
   16.8620   -7.9805    0.0000 C   0  0  0  0  0  0  0  0  0  0  0  0
   15.7035   -5.9854    0.0000 C   0  0  0  0  0  0  0  0  0  0  0  0
   15.7035   -8.6455    0.0000 C   0  0  0  0  0  0  0  0  0  0  0  0
   14.5451   -6.6504    0.0000 C   0  0  0  0  0  0  0  0  0  0  0  0
   14.5451   -7.9805    0.0000 O   0  0  0  0  0  0  0  0  0  0  0  0
   17.9990   -8.6455    0.0000 O   0  0  0  0  0  0  0  0  0  0  0  0
   15.7035   -9.9756    0.0000 C   0  0  0  0  0  0  0  0  0  0  0  0
   17.5056   -5.5134    0.0000 O   0  0  0  0  0  0  0  0  0  0  0  0
   18.1063   -6.2428    0.0000 C   0  0  0  0  0  0  0  0  0  0  0  0
   19.1360   -7.9805    0.0000 C   0  0  0  0  0  0  0  0  0  0  0  0
   20.2944   -8.6455    0.0000 O   0  0  0  0  0  0  0  0  0  0  0  0
   19.1360   -6.6504    0.0000 C   0  0  0  0  0  0  0  0  0  0  0  0
   20.3159   -6.0068    0.0000 C   0  0  0  0  0  0  0  0  0  0  0  0
   20.3159   -4.6767    0.0000 C   0  0  0  0  0  0  0  0  0  0  0  0
   21.4529   -6.6504    0.0000 C   0  0  0  0  0  0  0  0  0  0  0  0
  1  2  2  0  0  0  0
  2  4  1  0  0  0  0
  2  9  1  0  0  0  0
  3  5  1  0  0  0  0
  3 12  2  0  0  0  0
  4  6  1  0  0  0  0
  5  6  1  0  0  0  0
  6 20  1  6  0  0  0
  7  8  1  0  0  0  0
  7 11  1  0  0  0  0
  8 10  1  0  0  0  0
  8 14  1  0  0  0  0
  9 10  1  0  0  0  0
 10 25  1  6  0  0  0
 12 13  1  0  0  0  0
 13 18  2  0  0  0  0
 14 16  1  0  0  0  0
 14 24  1  6  0  0  0
 15 16  1  0  0  0  0
 15 17  1  0  0  0  0
 16 23  1  6  0  0  0
 17 19  1  0  0  0  0
 17 22  1  6  0  0  0
 18 19  1  0  0  0  0
 19 21  1  6  0  0  0
 23 26  1  0  0  0  0
 36 24  1  1  0  0  0
 25 28  1  0  0  0  0
 26 27  2  0  0  0  0
 28 29  2  0  0  0  0
 28 30  1  0  0  0  0
 31 32  1  0  0  0  0
 31 33  1  0  0  0  0
 31 38  1  6  0  0  0
 32 34  1  0  0  0  0
 32 37  1  1  0  0  0
 33 35  1  0  0  0  0
 33 39  1  1  0  0  0
 34 36  1  0  0  0  0
 35 36  1  0  0  0  0
 35 42  1  6  0  0  0
 47 38  1  1  0  0  0
 39 40  1  0  0  0  0
 39 41  1  0  0  0  0
 43 44  1  0  0  0  0
 43 45  1  0  0  0  0
 43 51  1  1  0  0  0
 43 52  1  0  0  0  0
 44 46  1  0  0  0  0
 44 49  1  6  0  0  0
 45 47  1  0  0  0  0
 46 48  1  0  0  0  0
 46 50  1  6  0  0  0
 47 48  1  0  0  0  0
 49 53  1  0  0  0  0
 53 54  2  0  0  0  0
 53 55  1  0  0  0  0
 55 56  1  0  0  0  0
 56 57  1  0  0  0  0
 56 58  1  0  0  0  0
M  END
> <ID>
2859

> <Formula>
C42H69NO15

> <FW>
827.995

> <DSSTox_CID>
3183

> <DSSTox_RID>
76910

> <DSSTox_GSID>
23183

> <DSSTox_FileID_Sort>
1594

> <TS_ChemName>
Josamycin

> <TS_ChemName_Synonyms>


> <TS_CASRN>
16846-24-5

> <CASRN_ChemName_Relationship>
primary

> <TS_Description>
single chemical compound

> <ChemNote>
stereochem

> <STRUCTURE_Shown>
tested chemical

> <STRUCTURE_Formula>
C42H69NO15

> <STRUCTURE_MW>
827.995

> <STRUCTURE_ChemType>
defined organic

> <STRUCTURE_DefinedOrganicForm>
parent

> <STRUCTURE_IUPAC>
(2S,3R,4R,6S)-6-{[(2R,3S,4R,5R,6S)-6-{[(4R,6S,7R,9R,10R,11E,13E,16R)-4-(acetyloxy)-10-hydroxy-5-methoxy-9,16-dimethyl-2-oxo-7-(2-oxoethyl)oxacyclohexadeca-11,13-dien-6-yl]oxy}-4-(dimethylamino)-5-hydroxy-2-methyltetrahydro-2H-pyran-3-yl]oxy}-4-hydroxy-2,4

> <STRUCTURE_SMILES>
CC(C)CC(=O)O[C@@H]1[C@H](C)O[C@H](C[C@@]1(C)O)O[C@@H]3[C@@H](C)O[C@@H](O[C@@H]2C(OC)[C@H](OC(C)=O)CC(=O)O[C@H](C)CC=CC=C[C@H](O)[C@H](C)C[C@@H]2CC=O)[C@H](O)[C@H]3N(C)C

> <STRUCTURE_SMILES_Desalt>
CC(C)CC(=O)O[C@@H]1[C@H](C)O[C@H](C[C@@]1(C)O)O[C@@H]3[C@@H](C)O[C@@H](O[C@@H]2C(OC)[C@H](OC(C)=O)CC(=O)O[C@H](C)CC=CC=C[C@H](O)[C@H](C)C[C@@H]2CC=O)[C@H](O)[C@H]3N(C)C

> <Substance_modify_yyyymmdd>
20080429

$$$$
