1746-01-6
ChemmineR-0914142331XD

 18 20  0  0  0  0  0  0  0  0  1 V2000
    9.2104   -2.6618    0.0000 Cl   0  0  0  0  0  0  0  0  0  0  0  0
    8.0591   -1.9986    0.0000 C    0  0  0  0  0  0  0  0  0  0  0  0
    6.9078   -2.6618    0.0000 C    0  0  0  0  0  0  0  0  0  0  0  0
    5.7565   -1.9986    0.0000 C    0  0  0  0  0  0  0  0  0  0  0  0
    5.7565   -0.6631    0.0000 C    0  0  0  0  0  0  0  0  0  0  0  0
    6.9078    0.0000    0.0000 C    0  0  0  0  0  0  0  0  0  0  0  0
    8.0591   -0.6631    0.0000 C    0  0  0  0  0  0  0  0  0  0  0  0
    9.2104    0.0000    0.0000 Cl   0  0  0  0  0  0  0  0  0  0  0  0
    4.6052    0.0000    0.0000 O    0  0  0  0  0  0  0  0  0  0  0  0
    3.4539   -0.6631    0.0000 C    0  0  0  0  0  0  0  0  0  0  0  0
    3.4539   -1.9986    0.0000 C    0  0  0  0  0  0  0  0  0  0  0  0
    2.3026   -2.6618    0.0000 C    0  0  0  0  0  0  0  0  0  0  0  0
    1.1513   -1.9986    0.0000 C    0  0  0  0  0  0  0  0  0  0  0  0
    1.1513   -0.6631    0.0000 C    0  0  0  0  0  0  0  0  0  0  0  0
    2.3026    0.0000    0.0000 C    0  0  0  0  0  0  0  0  0  0  0  0
    0.0000    0.0000    0.0000 Cl   0  0  0  0  0  0  0  0  0  0  0  0
    0.0000   -2.6618    0.0000 Cl   0  0  0  0  0  0  0  0  0  0  0  0
    4.6052   -2.6618    0.0000 O    0  0  0  0  0  0  0  0  0  0  0  0
  1  2  1  0  0  0  0
  2  3  2  0  0  0  0
  2  7  1  0  0  0  0
  3  4  1  0  0  0  0
  4  5  2  0  0  0  0
  4 18  1  0  0  0  0
  5  6  1  0  0  0  0
  5  9  1  0  0  0  0
  6  7  2  0  0  0  0
  7  8  1  0  0  0  0
  9 10  1  0  0  0  0
 10 11  2  0  0  0  0
 10 15  1  0  0  0  0
 11 12  1  0  0  0  0
 11 18  1  0  0  0  0
 12 13  2  0  0  0  0
 13 14  1  0  0  0  0
 13 17  1  0  0  0  0
 14 15  2  0  0  0  0
 14 16  1  0  0  0  0
M  END
> <ID>
1262

> <Formula>
C12H4Cl4O2

> <FW>
321.971

> <DSSTox_CID>
1315

> <DSSTox_RID>
76075

> <DSSTox_GSID>
21315

> <DSSTox_FileID_Sort>
759

> <TS_ChemName>
2,3,7,8-Tetrachlorodibenzo-p-dioxin

> <TS_ChemName_Synonyms>
TCDD; dioxin

> <TS_CASRN>
1746-01-6

> <CASRN_ChemName_Relationship>
primary

> <TS_Description>
single chemical compound

> <ChemNote>


> <STRUCTURE_Shown>
tested chemical

> <STRUCTURE_Formula>
C12H4Cl4O2

> <STRUCTURE_MW>
321.971

> <STRUCTURE_ChemType>
defined organic

> <STRUCTURE_DefinedOrganicForm>
parent

> <STRUCTURE_IUPAC>
2,3,7,8-tetrachlorooxanthrene

> <STRUCTURE_SMILES>
Clc1cc2Oc3cc(Cl)c(Cl)cc3Oc2cc1Cl

> <STRUCTURE_SMILES_Desalt>
Clc1cc2Oc3cc(Cl)c(Cl)cc3Oc2cc1Cl

> <Substance_modify_yyyymmdd>
20080429

$$$$
