17575-22-3
ChemmineR-0914142331XD

 72 80  0  0  1  0  0  0  0  0  1 V2000
   28.2568   -6.3806    0.0000 C   0  0  0  0  0  0  0  0  0  0  0  0
   28.2568   -5.0604    0.0000 C   0  0  0  0  0  0  0  0  0  0  0  0
   25.9937   -6.3806    0.0000 C   0  0  0  0  0  0  0  0  0  0  0  0
   24.8308   -7.0406    0.0000 C   0  0  0  0  0  0  0  0  0  0  0  0
   27.0938   -7.0406    0.0000 C   0  0  0  0  0  0  0  0  0  0  0  0
   29.4826   -4.6518    0.0000 C   0  0  0  0  0  0  0  0  0  0  0  0
   27.0938   -4.4318    0.0000 C   0  0  0  0  0  0  0  0  0  0  0  0
   30.0484   -3.4889    0.0000 C   0  0  0  0  0  0  0  0  0  0  0  0
   25.9937   -5.0604    0.0000 C   0  0  0  0  0  0  0  0  0  0  0  0
   29.3569   -2.3574    0.0000 C   0  0  0  0  0  0  0  0  0  0  0  0
   24.8308   -8.3607    0.0000 C   0  0  0  0  0  0  0  0  0  0  0  0
   29.4826   -6.8206    0.0000 C   0  0  0  0  0  0  0  0  0  0  0  0
   30.2369   -1.3515    0.0000 C   0  0  0  0  0  0  0  0  0  0  0  0
   31.4313   -1.8230    0.0000 O   0  0  0  0  0  0  0  0  0  0  0  0
   30.2369   -5.7205    0.0000 C   0  0  0  0  0  0  0  0  0  0  0  0
   23.6678   -6.3806    0.0000 C   0  0  0  0  0  0  0  0  0  0  0  0
   27.0938   -8.3607    0.0000 C   0  0  0  0  0  0  0  0  0  0  0  0
   31.4313   -3.1431    0.0000 C   0  0  0  0  0  0  0  0  0  0  0  0
   21.2790   -9.1151    0.0000 O   0  0  0  0  0  0  0  0  0  0  0  0
   23.6678   -9.0522    0.0000 C   0  0  0  0  0  0  0  0  0  0  0  0
   25.9937   -9.0522    0.0000 C   0  0  0  0  0  0  0  0  0  0  0  0
   28.2568   -7.7321    0.0000 O   0  0  0  0  0  0  0  0  0  0  0  0
   30.0169    0.0000    0.0000 O   0  0  0  0  0  0  0  0  0  0  0  0
   22.5048   -8.3607    0.0000 C   0  0  0  0  0  0  0  0  0  0  0  0
   28.2568   -3.7403    0.0000 C   0  0  0  0  0  0  0  0  0  0  0  0
   27.0938   -2.9860    0.0000 O   0  0  0  0  0  0  0  0  0  0  0  0
   22.5048   -7.0406    0.0000 C   0  0  0  0  0  0  0  0  0  0  0  0
   24.8308   -5.7205    0.0000 C   0  0  0  0  0  0  0  0  0  0  0  0
   27.0938   -5.7519    0.0000 H   0  0  0  0  0  0  0  0  0  0  0  0
   25.9937   -7.7007    0.0000 H   0  0  0  0  0  0  0  0  0  0  0  0
    3.8661   -9.1151    0.0000 C   0  0  0  0  0  0  0  0  0  0  0  0
    3.2060  -10.2152    0.0000 C   0  0  0  0  0  0  0  0  0  0  0  0
    1.9487  -10.2152    0.0000 C   0  0  0  0  0  0  0  0  0  0  0  0
    3.2060   -7.9836    0.0000 O   0  0  0  0  0  0  0  0  0  0  0  0
    5.1547   -9.1151    0.0000 O   0  0  0  0  0  0  0  0  0  0  0  0
    1.2887   -9.1151    0.0000 C   0  0  0  0  0  0  0  0  0  0  0  0
    1.9487   -7.9836    0.0000 C   0  0  0  0  0  0  0  0  0  0  0  0
    3.8661  -11.3467    0.0000 O   0  0  0  0  0  0  0  0  0  0  0  0
    1.2887  -11.3467    0.0000 O   0  0  0  0  0  0  0  0  0  0  0  0
    0.0000   -9.1151    0.0000 O   0  0  0  0  0  0  0  0  0  0  0  0
    1.2887   -6.8835    0.0000 C   0  0  0  0  0  0  0  0  0  0  0  0
    0.0000   -6.8835    0.0000 O   0  0  0  0  0  0  0  0  0  0  0  0
    6.4749   -9.1151    0.0000 C   0  0  0  0  0  0  0  0  0  0  0  0
    7.1663  -10.2466    0.0000 C   0  0  0  0  0  0  0  0  0  0  0  0
    9.1151   -9.1151    0.0000 C   0  0  0  0  0  0  0  0  0  0  0  0
    8.4865   -7.9836    0.0000 O   0  0  0  0  0  0  0  0  0  0  0  0
    8.4865  -10.2466    0.0000 C   0  0  0  0  0  0  0  0  0  0  0  0
    7.1663   -7.9836    0.0000 C   0  0  0  0  0  0  0  0  0  0  0  0
   10.4666   -9.1151    0.0000 O   0  0  0  0  0  0  0  0  0  0  0  0
    6.4749  -11.4096    0.0000 O   0  0  0  0  0  0  0  0  0  0  0  0
    7.1663  -12.5725    0.0000 C   0  0  0  0  0  0  0  0  0  0  0  0
    8.4865  -12.5725    0.0000 O   0  0  0  0  0  0  0  0  0  0  0  0
    6.4749   -6.8206    0.0000 C   0  0  0  0  0  0  0  0  0  0  0  0
    6.4749  -13.7041    0.0000 C   0  0  0  0  0  0  0  0  0  0  0  0
   17.1301   -9.1151    0.0000 C   0  0  0  0  0  0  0  0  0  0  0  0
   19.8960   -9.1151    0.0000 C   0  0  0  0  0  0  0  0  0  0  0  0
   19.2045   -7.9207    0.0000 O   0  0  0  0  0  0  0  0  0  0  0  0
   19.2045  -10.3095    0.0000 C   0  0  0  0  0  0  0  0  0  0  0  0
   17.8216  -10.3095    0.0000 C   0  0  0  0  0  0  0  0  0  0  0  0
   17.8216   -7.9207    0.0000 C   0  0  0  0  0  0  0  0  0  0  0  0
   15.7157   -9.1151    0.0000 O   0  0  0  0  0  0  0  0  0  0  0  0
   17.1301  -11.5353    0.0000 O   0  0  0  0  0  0  0  0  0  0  0  0
   17.1301   -6.6949    0.0000 C   0  0  0  0  0  0  0  0  0  0  0  0
   11.7868   -9.1151    0.0000 C   0  0  0  0  0  0  0  0  0  0  0  0
   14.4270   -9.1151    0.0000 C   0  0  0  0  0  0  0  0  0  0  0  0
   13.7355   -7.9836    0.0000 O   0  0  0  0  0  0  0  0  0  0  0  0
   13.7355  -10.2466    0.0000 C   0  0  0  0  0  0  0  0  0  0  0  0
   12.4154  -10.2466    0.0000 C   0  0  0  0  0  0  0  0  0  0  0  0
   12.4154   -7.9836    0.0000 C   0  0  0  0  0  0  0  0  0  0  0  0
   11.7868  -11.4096    0.0000 O   0  0  0  0  0  0  0  0  0  0  0  0
   11.7868   -6.8206    0.0000 C   0  0  0  0  0  0  0  0  0  0  0  0
   24.8308   -9.7437    0.0000 H   0  0  0  0  0  0  0  0  0  0  0  0
  1  2  1  0  0  0  0
  1  5  1  0  0  0  0
  1 12  1  0  0  0  0
  1 22  1  1  0  0  0
  2  6  1  0  0  0  0
  2  7  1  0  0  0  0
  2 25  1  1  0  0  0
  3  5  1  0  0  0  0
  3  4  1  0  0  0  0
  3  9  1  0  0  0  0
  3 30  1  6  0  0  0
  4 16  1  0  0  0  0
  4 28  1  1  0  0  0
  4 11  1  0  0  0  0
  5 17  1  0  0  0  0
  5 29  1  1  0  0  0
  6  8  1  1  0  0  0
  6 15  1  0  0  0  0
  7 26  1  1  0  0  0
  7  9  1  0  0  0  0
  8 10  2  0  0  0  0
  8 18  1  0  0  0  0
 10 13  1  0  0  0  0
 11 21  1  0  0  0  0
 11 20  1  0  0  0  0
 11 72  1  1  0  0  0
 12 15  1  0  0  0  0
 13 23  2  0  0  0  0
 13 14  1  0  0  0  0
 14 18  1  0  0  0  0
 16 27  1  0  0  0  0
 17 21  1  0  0  0  0
 24 19  1  1  0  0  0
 56 19  1  1  0  0  0
 20 24  1  0  0  0  0
 24 27  1  0  0  0  0
 31 35  1  1  0  0  0
 31 32  1  0  0  0  0
 31 34  1  0  0  0  0
 32 33  1  0  0  0  0
 32 38  1  6  0  0  0
 33 39  1  1  0  0  0
 33 36  1  0  0  0  0
 34 37  1  0  0  0  0
 43 35  1  6  0  0  0
 36 37  1  0  0  0  0
 36 40  1  6  0  0  0
 37 41  1  1  0  0  0
 41 42  1  0  0  0  0
 43 44  1  0  0  0  0
 43 48  1  0  0  0  0
 44 47  1  0  0  0  0
 44 50  1  6  0  0  0
 45 49  1  1  0  0  0
 45 46  1  0  0  0  0
 45 47  1  0  0  0  0
 46 48  1  0  0  0  0
 48 53  1  1  0  0  0
 64 49  1  6  0  0  0
 50 51  1  0  0  0  0
 51 52  2  0  0  0  0
 51 54  1  0  0  0  0
 55 59  1  0  0  0  0
 55 61  1  6  0  0  0
 55 60  1  0  0  0  0
 56 57  1  0  0  0  0
 56 58  1  0  0  0  0
 57 60  1  0  0  0  0
 58 59  1  0  0  0  0
 59 62  1  6  0  0  0
 60 63  1  1  0  0  0
 65 61  1  1  0  0  0
 64 68  1  0  0  0  0
 64 69  1  0  0  0  0
 65 66  1  0  0  0  0
 65 67  1  0  0  0  0
 66 69  1  0  0  0  0
 67 68  1  0  0  0  0
 68 70  1  6  0  0  0
 69 71  1  1  0  0  0
M  END
> <ID>
2874

> <Formula>
C49H76O20

> <FW>
985.1157

> <DSSTox_CID>
3198

> <DSSTox_RID>
76921

> <DSSTox_GSID>
23198

> <DSSTox_FileID_Sort>
1605

> <TS_ChemName>
Lanatoside C

> <TS_ChemName_Synonyms>


> <TS_CASRN>
17575-22-3

> <CASRN_ChemName_Relationship>
primary

> <TS_Description>
single chemical compound

> <ChemNote>
stereochem

> <STRUCTURE_Shown>
tested chemical

> <STRUCTURE_Formula>
C49H76O20

> <STRUCTURE_MW>
985.1157

> <STRUCTURE_ChemType>
defined organic

> <STRUCTURE_DefinedOrganicForm>
parent

> <STRUCTURE_IUPAC>
(3beta,5beta,12beta)-3-{[beta-D-glucopyranosyl-(1->4)-3-O-acetyl-2,6-dideoxy-beta-D-ribo-hexopyranosyl-(1->4)-2,6-dideoxy-beta-D-ribo-hexopyranosyl-(1->4)-2,6-dideoxy-beta-D-ribo-hexopyranosyl]oxy}-12,14-dihydroxycard-20(22)-enolide

> <STRUCTURE_SMILES>
O=C1C=C(CO1)[C@H]2CC[C@@]9(O)[C@]2(C)[C@H](O)C[C@H]4[C@H]9CC[C@@H]3C[C@H](CC[C@@]34C)O[C@@H]8O[C@H](C)[C@@H](O[C@@H]7O[C@H](C)[C@@H](O[C@@H]6O[C@H](C)[C@@H](O[C@@H]5O[C@H](CO)[C@@H](O)[C@H](O)[C@H]5O)[C@@H](OC(C)=O)C6)[C@@H](O)C7)[C@@H](O)C8

> <STRUCTURE_SMILES_Desalt>
O=C1C=C(CO1)[C@H]2CC[C@@]9(O)[C@]2(C)[C@H](O)C[C@H]4[C@H]9CC[C@@H]3C[C@H](CC[C@@]34C)O[C@@H]8O[C@H](C)[C@@H](O[C@@H]7O[C@H](C)[C@@H](O[C@@H]6O[C@H](C)[C@@H](O[C@@H]5O[C@H](CO)[C@@H](O)[C@H](O)[C@H]5O)[C@@H](OC(C)=O)C6)[C@@H](O)C7)[C@@H](O)C8

> <Substance_modify_yyyymmdd>
20080429

$$$$
