17575-20-1
ChemmineR-0914142331XD

 71 79  0  0  1  0  0  0  0  0  1 V2000
   28.2400   -6.3595    0.0000 C   0  0  0  0  0  0  0  0  0  0  0  0
   28.2400   -5.0057    0.0000 C   0  0  0  0  0  0  0  0  0  0  0  0
   24.8398   -7.0521    0.0000 C   0  0  0  0  0  0  0  0  0  0  0  0
   27.1066   -7.0521    0.0000 C   0  0  0  0  0  0  0  0  0  0  0  0
   26.0047   -6.3595    0.0000 C   0  0  0  0  0  0  0  0  0  0  0  0
   30.0660   -3.4946    0.0000 C   0  0  0  0  0  0  0  0  0  0  0  0
   29.4993   -4.6594    0.0000 C   0  0  0  0  0  0  0  0  0  0  0  0
   29.3734   -2.3297    0.0000 C   0  0  0  0  0  0  0  0  0  0  0  0
   24.8398   -8.3429    0.0000 C   0  0  0  0  0  0  0  0  0  0  0  0
   30.2549   -1.3852    0.0000 C   0  0  0  0  0  0  0  0  0  0  0  0
   29.4993   -6.8003    0.0000 C   0  0  0  0  0  0  0  0  0  0  0  0
   27.1066   -4.4076    0.0000 C   0  0  0  0  0  0  0  0  0  0  0  0
   26.0047   -5.0057    0.0000 C   0  0  0  0  0  0  0  0  0  0  0  0
   31.4827   -1.8260    0.0000 O   0  0  0  0  0  0  0  0  0  0  0  0
   30.2549   -5.6984    0.0000 C   0  0  0  0  0  0  0  0  0  0  0  0
   23.6750   -6.3595    0.0000 C   0  0  0  0  0  0  0  0  0  0  0  0
   27.1066   -8.3429    0.0000 C   0  0  0  0  0  0  0  0  0  0  0  0
   31.4197   -3.1483    0.0000 C   0  0  0  0  0  0  0  0  0  0  0  0
   21.2823   -9.1615    0.0000 O   0  0  0  0  0  0  0  0  0  0  0  0
   23.6750   -9.0041    0.0000 C   0  0  0  0  0  0  0  0  0  0  0  0
   26.0047   -9.0041    0.0000 C   0  0  0  0  0  0  0  0  0  0  0  0
   30.0030    0.0000    0.0000 O   0  0  0  0  0  0  0  0  0  0  0  0
   22.5101   -8.3429    0.0000 C   0  0  0  0  0  0  0  0  0  0  0  0
   28.2400   -7.7447    0.0000 O   0  0  0  0  0  0  0  0  0  0  0  0
   22.5101   -7.0521    0.0000 C   0  0  0  0  0  0  0  0  0  0  0  0
   28.2400   -3.7464    0.0000 C   0  0  0  0  0  0  0  0  0  0  0  0
   24.8398   -5.6984    0.0000 C   0  0  0  0  0  0  0  0  0  0  0  0
   24.8398   -9.6967    0.0000 H   0  0  0  0  0  0  0  0  0  0  0  0
   27.1066   -5.6984    0.0000 H   0  0  0  0  0  0  0  0  0  0  0  0
   26.0047   -7.7133    0.0000 H   0  0  0  0  0  0  0  0  0  0  0  0
    3.8724   -9.1615    0.0000 C   0  0  0  0  0  0  0  0  0  0  0  0
    3.2427  -10.2948    0.0000 C   0  0  0  0  0  0  0  0  0  0  0  0
    1.9204  -10.2948    0.0000 C   0  0  0  0  0  0  0  0  0  0  0  0
    3.2427   -8.0596    0.0000 O   0  0  0  0  0  0  0  0  0  0  0  0
    5.1632   -9.1615    0.0000 O   0  0  0  0  0  0  0  0  0  0  0  0
    1.2908   -9.1615    0.0000 C   0  0  0  0  0  0  0  0  0  0  0  0
    1.9204   -8.0596    0.0000 C   0  0  0  0  0  0  0  0  0  0  0  0
    3.8724  -11.3967    0.0000 O   0  0  0  0  0  0  0  0  0  0  0  0
    1.2908  -11.3967    0.0000 O   0  0  0  0  0  0  0  0  0  0  0  0
    0.0000   -9.1615    0.0000 O   0  0  0  0  0  0  0  0  0  0  0  0
    1.2908   -6.9262    0.0000 C   0  0  0  0  0  0  0  0  0  0  0  0
    0.0000   -6.9262    0.0000 O   0  0  0  0  0  0  0  0  0  0  0  0
    6.4854   -9.1615    0.0000 C   0  0  0  0  0  0  0  0  0  0  0  0
    7.1466  -10.3263    0.0000 C   0  0  0  0  0  0  0  0  0  0  0  0
    9.1300   -9.1615    0.0000 C   0  0  0  0  0  0  0  0  0  0  0  0
    8.4688   -8.0281    0.0000 O   0  0  0  0  0  0  0  0  0  0  0  0
    8.4688  -10.3263    0.0000 C   0  0  0  0  0  0  0  0  0  0  0  0
    7.1466   -8.0281    0.0000 C   0  0  0  0  0  0  0  0  0  0  0  0
   10.4523   -9.1615    0.0000 O   0  0  0  0  0  0  0  0  0  0  0  0
    6.4854  -11.4597    0.0000 O   0  0  0  0  0  0  0  0  0  0  0  0
    7.1466  -12.6246    0.0000 C   0  0  0  0  0  0  0  0  0  0  0  0
    8.4688  -12.6246    0.0000 O   0  0  0  0  0  0  0  0  0  0  0  0
    6.4854   -6.8632    0.0000 C   0  0  0  0  0  0  0  0  0  0  0  0
    6.4854  -13.7579    0.0000 C   0  0  0  0  0  0  0  0  0  0  0  0
   17.0951   -9.1615    0.0000 C   0  0  0  0  0  0  0  0  0  0  0  0
   19.8971   -9.1615    0.0000 C   0  0  0  0  0  0  0  0  0  0  0  0
   19.2044   -7.9651    0.0000 O   0  0  0  0  0  0  0  0  0  0  0  0
   19.2044  -10.3578    0.0000 C   0  0  0  0  0  0  0  0  0  0  0  0
   17.7877  -10.3578    0.0000 C   0  0  0  0  0  0  0  0  0  0  0  0
   17.7877   -7.9651    0.0000 C   0  0  0  0  0  0  0  0  0  0  0  0
   15.7099   -9.1615    0.0000 O   0  0  0  0  0  0  0  0  0  0  0  0
   17.0951  -11.5856    0.0000 O   0  0  0  0  0  0  0  0  0  0  0  0
   17.0951   -6.7688    0.0000 C   0  0  0  0  0  0  0  0  0  0  0  0
   11.7745   -9.1615    0.0000 C   0  0  0  0  0  0  0  0  0  0  0  0
   14.3876   -9.1615    0.0000 C   0  0  0  0  0  0  0  0  0  0  0  0
   13.7579   -8.0281    0.0000 O   0  0  0  0  0  0  0  0  0  0  0  0
   13.7579  -10.2948    0.0000 C   0  0  0  0  0  0  0  0  0  0  0  0
   12.4357  -10.2948    0.0000 C   0  0  0  0  0  0  0  0  0  0  0  0
   12.4357   -8.0281    0.0000 C   0  0  0  0  0  0  0  0  0  0  0  0
   11.7745  -11.4597    0.0000 O   0  0  0  0  0  0  0  0  0  0  0  0
   11.7745   -6.8947    0.0000 C   0  0  0  0  0  0  0  0  0  0  0  0
  1  2  1  0  0  0  0
  1  4  1  0  0  0  0
  1 11  1  0  0  0  0
  1 24  1  1  0  0  0
  2  7  1  0  0  0  0
  2 12  1  0  0  0  0
  2 26  1  1  0  0  0
  3  5  1  0  0  0  0
  3 16  1  0  0  0  0
  3 27  1  1  0  0  0
  3  9  1  0  0  0  0
  4  5  1  0  0  0  0
  4 17  1  0  0  0  0
  4 29  1  1  0  0  0
  5 13  1  0  0  0  0
  5 30  1  6  0  0  0
  7  6  1  1  0  0  0
  6  8  2  0  0  0  0
  6 18  1  0  0  0  0
  7 15  1  0  0  0  0
  8 10  1  0  0  0  0
  9 21  1  0  0  0  0
  9 20  1  0  0  0  0
  9 28  1  1  0  0  0
 10 22  2  0  0  0  0
 10 14  1  0  0  0  0
 11 15  1  0  0  0  0
 12 13  1  0  0  0  0
 14 18  1  0  0  0  0
 16 25  1  0  0  0  0
 17 21  1  0  0  0  0
 19 23  1  0  0  0  0
 56 19  1  1  0  0  0
 20 23  1  0  0  0  0
 23 25  1  0  0  0  0
 31 35  1  1  0  0  0
 31 32  1  0  0  0  0
 31 34  1  0  0  0  0
 32 33  1  0  0  0  0
 32 38  1  6  0  0  0
 33 39  1  1  0  0  0
 33 36  1  0  0  0  0
 34 37  1  0  0  0  0
 43 35  1  6  0  0  0
 36 37  1  0  0  0  0
 36 40  1  6  0  0  0
 37 41  1  1  0  0  0
 41 42  1  0  0  0  0
 43 44  1  0  0  0  0
 43 48  1  0  0  0  0
 44 47  1  0  0  0  0
 44 50  1  6  0  0  0
 45 49  1  1  0  0  0
 45 46  1  0  0  0  0
 45 47  1  0  0  0  0
 46 48  1  0  0  0  0
 48 53  1  1  0  0  0
 64 49  1  6  0  0  0
 50 51  1  0  0  0  0
 51 52  2  0  0  0  0
 51 54  1  0  0  0  0
 55 59  1  0  0  0  0
 55 61  1  6  0  0  0
 55 60  1  0  0  0  0
 56 57  1  0  0  0  0
 56 58  1  0  0  0  0
 57 60  1  0  0  0  0
 58 59  1  0  0  0  0
 59 62  1  6  0  0  0
 60 63  1  1  0  0  0
 65 61  1  1  0  0  0
 64 68  1  0  0  0  0
 64 69  1  0  0  0  0
 65 66  1  0  0  0  0
 65 67  1  0  0  0  0
 66 69  1  0  0  0  0
 67 68  1  0  0  0  0
 68 70  1  6  0  0  0
 69 71  1  1  0  0  0
M  END
> <ID>
2872

> <Formula>
C49H76O19

> <FW>
969.1163

> <DSSTox_CID>
3196

> <DSSTox_RID>
76919

> <DSSTox_GSID>
23196

> <DSSTox_FileID_Sort>
1603

> <TS_ChemName>
Lanatoside A

> <TS_ChemName_Synonyms>


> <TS_CASRN>
17575-20-1

> <CASRN_ChemName_Relationship>
primary

> <TS_Description>
single chemical compound

> <ChemNote>
stereochem

> <STRUCTURE_Shown>
tested chemical

> <STRUCTURE_Formula>
C49H76O19

> <STRUCTURE_MW>
969.1163

> <STRUCTURE_ChemType>
defined organic

> <STRUCTURE_DefinedOrganicForm>
parent

> <STRUCTURE_IUPAC>
(5beta)-3-{[beta-D-glucopyranosyl-(1->4)-3-O-acetyl-2,6-dideoxy-beta-D-ribo-hexopyranosyl-(1->4)-2,6-dideoxy-beta-D-ribo-hexopyranosyl-(1->4)-2,6-dideoxy-beta-D-ribo-hexopyranosyl]oxy}-14-hydroxycard-20(22)-enolide

> <STRUCTURE_SMILES>
O=C1C=C(CO1)[C@H]9CC[C@@]8(O)[C@]9(C)CC[C@H]3[C@H]8CC[C@@H]2CC(CC[C@@]23C)O[C@@H]7O[C@H](C)[C@@H](O[C@@H]6O[C@H](C)[C@@H](O[C@@H]5O[C@H](C)[C@@H](O[C@@H]4O[C@H](CO)[C@@H](O)[C@H](O)[C@H]4O)[C@@H](OC(C)=O)C5)[C@@H](O)C6)[C@@H](O)C7

> <STRUCTURE_SMILES_Desalt>
O=C1C=C(CO1)[C@H]9CC[C@@]8(O)[C@]9(C)CC[C@H]3[C@H]8CC[C@@H]2CC(CC[C@@]23C)O[C@@H]7O[C@H](C)[C@@H](O[C@@H]6O[C@H](C)[C@@H](O[C@@H]5O[C@H](C)[C@@H](O[C@@H]4O[C@H](CO)[C@@H](O)[C@H](O)[C@H]4O)[C@@H](OC(C)=O)C5)[C@@H](O)C6)[C@@H](O)C7

> <Substance_modify_yyyymmdd>
20080429

$$$$
