17598-65-1
ChemmineR-0914142331XD

 69 77  0  0  1  0  0  0  0  0  1 V2000
   25.6652   -6.2421    0.0000 C   0  0  0  0  0  0  0  0  0  0  0  0
   25.6652   -4.8767    0.0000 C   0  0  0  0  0  0  0  0  0  0  0  0
   23.3244   -6.2421    0.0000 C   0  0  0  0  0  0  0  0  0  0  0  0
   22.1819   -6.8552    0.0000 C   0  0  0  0  0  0  0  0  0  0  0  0
   24.4670   -6.8552    0.0000 C   0  0  0  0  0  0  0  0  0  0  0  0
   26.7520   -4.3472    0.0000 C   0  0  0  0  0  0  0  0  0  0  0  0
   24.4670   -4.3472    0.0000 C   0  0  0  0  0  0  0  0  0  0  0  0
   26.7520   -3.0096    0.0000 C   0  0  0  0  0  0  0  0  0  0  0  0
   23.3244   -4.8767    0.0000 C   0  0  0  0  0  0  0  0  0  0  0  0
   25.6931   -2.2572    0.0000 C   0  0  0  0  0  0  0  0  0  0  0  0
   22.1819   -8.1649    0.0000 C   0  0  0  0  0  0  0  0  0  0  0  0
   27.8667   -6.2421    0.0000 C   0  0  0  0  0  0  0  0  0  0  0  0
   25.9996   -0.9753    0.0000 C   0  0  0  0  0  0  0  0  0  0  0  0
   27.4208   -0.9753    0.0000 O   0  0  0  0  0  0  0  0  0  0  0  0
   27.8667   -4.8767    0.0000 C   0  0  0  0  0  0  0  0  0  0  0  0
   21.0951   -6.2421    0.0000 C   0  0  0  0  0  0  0  0  0  0  0  0
   24.4670   -8.1649    0.0000 C   0  0  0  0  0  0  0  0  0  0  0  0
   27.8667   -2.1179    0.0000 C   0  0  0  0  0  0  0  0  0  0  0  0
   18.9215   -8.2207    0.0000 O   0  0  0  0  0  0  0  0  0  0  0  0
   21.0951   -8.7501    0.0000 C   0  0  0  0  0  0  0  0  0  0  0  0
   23.3244   -8.7501    0.0000 C   0  0  0  0  0  0  0  0  0  0  0  0
   25.6652   -7.7469    0.0000 O   0  0  0  0  0  0  0  0  0  0  0  0
   25.1915    0.0000    0.0000 O   0  0  0  0  0  0  0  0  0  0  0  0
   19.9526   -8.1649    0.0000 C   0  0  0  0  0  0  0  0  0  0  0  0
   25.6652   -3.4833    0.0000 C   0  0  0  0  0  0  0  0  0  0  0  0
   24.4670   -3.0096    0.0000 O   0  0  0  0  0  0  0  0  0  0  0  0
   19.9526   -6.8552    0.0000 C   0  0  0  0  0  0  0  0  0  0  0  0
   22.2098   -5.8520    0.0000 C   0  0  0  0  0  0  0  0  0  0  0  0
   22.1819   -9.4747    0.0000 H   0  0  0  0  0  0  0  0  0  0  0  0
   23.3244   -7.5519    0.0000 H   0  0  0  0  0  0  0  0  0  0  0  0
   24.4670   -5.5455    0.0000 H   0  0  0  0  0  0  0  0  0  0  0  0
   18.1412   -9.5861    0.0000 C   0  0  0  0  0  0  0  0  0  0  0  0
   17.5003  -10.7287    0.0000 C   0  0  0  0  0  0  0  0  0  0  0  0
   17.4446   -8.4436    0.0000 O   0  0  0  0  0  0  0  0  0  0  0  0
   16.1627  -10.7566    0.0000 C   0  0  0  0  0  0  0  0  0  0  0  0
   16.1348   -8.4715    0.0000 C   0  0  0  0  0  0  0  0  0  0  0  0
   15.4939   -9.6140    0.0000 C   0  0  0  0  0  0  0  0  0  0  0  0
   15.5218  -11.8712    0.0000 O   0  0  0  0  0  0  0  0  0  0  0  0
   14.1842   -9.6419    0.0000 O   0  0  0  0  0  0  0  0  0  0  0  0
   15.4660   -7.3568    0.0000 C   0  0  0  0  0  0  0  0  0  0  0  0
   13.4039  -11.0352    0.0000 C   0  0  0  0  0  0  0  0  0  0  0  0
   12.7630  -12.1778    0.0000 C   0  0  0  0  0  0  0  0  0  0  0  0
   12.7072   -9.9205    0.0000 O   0  0  0  0  0  0  0  0  0  0  0  0
   11.4532  -12.1778    0.0000 C   0  0  0  0  0  0  0  0  0  0  0  0
   11.4254   -9.9205    0.0000 C   0  0  0  0  0  0  0  0  0  0  0  0
   10.7844  -11.0910    0.0000 C   0  0  0  0  0  0  0  0  0  0  0  0
   10.8123  -13.3203    0.0000 O   0  0  0  0  0  0  0  0  0  0  0  0
    9.4747  -11.0910    0.0000 O   0  0  0  0  0  0  0  0  0  0  0  0
   10.7566   -8.8059    0.0000 C   0  0  0  0  0  0  0  0  0  0  0  0
    8.6665  -12.4564    0.0000 C   0  0  0  0  0  0  0  0  0  0  0  0
    8.0535  -13.5990    0.0000 C   0  0  0  0  0  0  0  0  0  0  0  0
    7.9977  -11.3418    0.0000 O   0  0  0  0  0  0  0  0  0  0  0  0
    6.7437  -13.6268    0.0000 C   0  0  0  0  0  0  0  0  0  0  0  0
    6.6880  -11.3418    0.0000 C   0  0  0  0  0  0  0  0  0  0  0  0
    6.0749  -12.4843    0.0000 C   0  0  0  0  0  0  0  0  0  0  0  0
    6.1028  -14.7694    0.0000 O   0  0  0  0  0  0  0  0  0  0  0  0
    4.7652  -12.5122    0.0000 O   0  0  0  0  0  0  0  0  0  0  0  0
    6.0192  -10.2271    0.0000 C   0  0  0  0  0  0  0  0  0  0  0  0
    3.9849  -13.9055    0.0000 C   0  0  0  0  0  0  0  0  0  0  0  0
    3.3440  -15.0480    0.0000 C   0  0  0  0  0  0  0  0  0  0  0  0
    3.3161  -12.7908    0.0000 O   0  0  0  0  0  0  0  0  0  0  0  0
    2.0343  -15.0759    0.0000 C   0  0  0  0  0  0  0  0  0  0  0  0
    1.9507  -12.7908    0.0000 C   0  0  0  0  0  0  0  0  0  0  0  0
    1.3376  -13.9334    0.0000 C   0  0  0  0  0  0  0  0  0  0  0  0
    1.3933  -16.2184    0.0000 O   0  0  0  0  0  0  0  0  0  0  0  0
    0.0279  -13.9612    0.0000 O   0  0  0  0  0  0  0  0  0  0  0  0
    1.3097  -11.6762    0.0000 C   0  0  0  0  0  0  0  0  0  0  0  0
    3.9849  -16.1627    0.0000 O   0  0  0  0  0  0  0  0  0  0  0  0
    0.0000  -11.7040    0.0000 O   0  0  0  0  0  0  0  0  0  0  0  0
  1  2  1  0  0  0  0
  1  5  1  0  0  0  0
  1 12  1  0  0  0  0
  1 22  1  1  0  0  0
  2  6  1  0  0  0  0
  2  7  1  0  0  0  0
  2 25  1  1  0  0  0
  3  5  1  0  0  0  0
  3  4  1  0  0  0  0
  3  9  1  0  0  0  0
  3 30  1  6  0  0  0
  4 16  1  0  0  0  0
  4 28  1  1  0  0  0
  4 11  1  0  0  0  0
  5 17  1  0  0  0  0
  5 31  1  1  0  0  0
  6  8  1  1  0  0  0
  6 15  1  0  0  0  0
  7 26  1  1  0  0  0
  7  9  1  0  0  0  0
  8 10  2  0  0  0  0
  8 18  1  0  0  0  0
 10 13  1  0  0  0  0
 11 21  1  0  0  0  0
 11 20  1  0  0  0  0
 11 29  1  1  0  0  0
 12 15  1  0  0  0  0
 13 23  2  0  0  0  0
 13 14  1  0  0  0  0
 14 18  1  0  0  0  0
 16 27  1  0  0  0  0
 17 21  1  0  0  0  0
 24 19  1  1  0  0  0
 32 19  1  1  0  0  0
 20 24  1  0  0  0  0
 24 27  1  0  0  0  0
 32 33  1  0  0  0  0
 32 34  1  0  0  0  0
 33 35  1  0  0  0  0
 34 36  1  0  0  0  0
 35 37  1  0  0  0  0
 35 38  1  6  0  0  0
 36 37  1  0  0  0  0
 36 40  1  1  0  0  0
 37 39  1  6  0  0  0
 41 39  1  1  0  0  0
 41 42  1  0  0  0  0
 41 43  1  0  0  0  0
 42 44  1  0  0  0  0
 43 45  1  0  0  0  0
 44 46  1  0  0  0  0
 44 47  1  6  0  0  0
 45 46  1  0  0  0  0
 45 49  1  1  0  0  0
 46 48  1  6  0  0  0
 50 48  1  1  0  0  0
 50 51  1  0  0  0  0
 50 52  1  0  0  0  0
 51 53  1  0  0  0  0
 52 54  1  0  0  0  0
 53 55  1  0  0  0  0
 53 56  1  6  0  0  0
 54 55  1  0  0  0  0
 54 58  1  1  0  0  0
 55 57  1  6  0  0  0
 59 57  1  1  0  0  0
 59 60  1  0  0  0  0
 59 61  1  0  0  0  0
 60 62  1  0  0  0  0
 60 68  1  6  0  0  0
 61 63  1  0  0  0  0
 62 64  1  0  0  0  0
 62 65  1  1  0  0  0
 63 64  1  0  0  0  0
 63 67  1  1  0  0  0
 64 66  1  6  0  0  0
 67 69  1  0  0  0  0
M  END
> <ID>
2612

> <Formula>
C47H74O19

> <FW>
943.0791

> <DSSTox_CID>
2897

> <DSSTox_RID>
76778

> <DSSTox_GSID>
22897

> <DSSTox_FileID_Sort>
1462

> <TS_ChemName>
Deslanoside

> <TS_ChemName_Synonyms>


> <TS_CASRN>
17598-65-1

> <CASRN_ChemName_Relationship>
primary

> <TS_Description>
single chemical compound

> <ChemNote>
stereochem; tautomers

> <STRUCTURE_Shown>
tested chemical

> <STRUCTURE_Formula>
C47H74O19

> <STRUCTURE_MW>
943.0791

> <STRUCTURE_ChemType>
defined organic

> <STRUCTURE_DefinedOrganicForm>
parent

> <STRUCTURE_IUPAC>
(3beta,5beta,12beta)-3-{[beta-D-glucopyranosyl-(1->4)-2,6-dideoxy-beta-D-ribo-hexopyranosyl-(1->4)-2,6-dideoxy-beta-D-ribo-hexopyranosyl-(1->4)-2,6-dideoxy-beta-D-ribo-hexopyranosyl]oxy}-12,14-dihydroxycard-20(22)-enolide

> <STRUCTURE_SMILES>
O=C1C=C(CO1)[C@H]2CC[C@@]9(O)[C@]2(C)[C@H](O)C[C@H]4[C@H]9CC[C@@H]3C[C@H](CC[C@@]34C)O[C@@H]8O[C@H](C)[C@@H](O[C@@H]7O[C@H](C)[C@@H](O[C@@H]6O[C@H](C)[C@@H](O[C@@H]5O[C@H](CO)[C@@H](O)[C@H](O)[C@H]5O)[C@@H](O)C6)[C@@H](O)C7)[C@@H](O)C8

> <STRUCTURE_SMILES_Desalt>
O=C1C=C(CO1)[C@H]2CC[C@@]9(O)[C@]2(C)[C@H](O)C[C@H]4[C@H]9CC[C@@H]3C[C@H](CC[C@@]34C)O[C@@H]8O[C@H](C)[C@@H](O[C@@H]7O[C@H](C)[C@@H](O[C@@H]6O[C@H](C)[C@@H](O[C@@H]5O[C@H](CO)[C@@H](O)[C@H](O)[C@H]5O)[C@@H](O)C6)[C@@H](O)C7)[C@@H](O)C8

> <Substance_modify_yyyymmdd>
20080429

$$$$
