17924-92-4
ChemmineR-0914142331XD

 23 24  0  0  1  0  0  0  0  0  1 V2000
    4.6638   -1.3375    0.0000 C   0  0  0  0  0  0  0  0  0  0  0  0
    3.4891   -2.0121    0.0000 C   0  0  0  0  0  0  0  0  0  0  0  0
    3.4891   -3.3263    0.0000 C   0  0  0  0  0  0  0  0  0  0  0  0
    2.3261   -1.3375    0.0000 C   0  0  0  0  0  0  0  0  0  0  0  0
    5.8036   -2.0121    0.0000 O   0  0  0  0  0  0  0  0  0  0  0  0
    1.1863   -2.0121    0.0000 C   0  0  0  0  0  0  0  0  0  0  0  0
    4.6638    0.0000    0.0000 O   0  0  0  0  0  0  0  0  0  0  0  0
    2.3261   -4.0009    0.0000 C   0  0  0  0  0  0  0  0  0  0  0  0
    4.6638   -4.0009    0.0000 C   0  0  0  0  0  0  0  0  0  0  0  0
    1.1863   -3.3030    0.0000 C   0  0  0  0  0  0  0  0  0  0  0  0
   11.6304   -3.9311    0.0000 O   0  0  0  0  0  0  0  0  0  0  0  0
   10.4092   -3.2914    0.0000 C   0  0  0  0  0  0  0  0  0  0  0  0
    5.8036   -3.3030    0.0000 C   0  0  0  0  0  0  0  0  0  0  0  0
    2.3261    0.0000    0.0000 O   0  0  0  0  0  0  0  0  0  0  0  0
    6.9317   -1.3375    0.0000 C   0  0  0  0  0  0  0  0  0  0  0  0
    0.0000   -3.9776    0.0000 O   0  0  0  0  0  0  0  0  0  0  0  0
    9.2810   -1.3491    0.0000 C   0  0  0  0  0  0  0  0  0  0  0  0
   10.4092   -2.0237    0.0000 C   0  0  0  0  0  0  0  0  0  0  0  0
    6.9550   -3.9776    0.0000 C   0  0  0  0  0  0  0  0  0  0  0  0
    9.2810   -3.9776    0.0000 C   0  0  0  0  0  0  0  0  0  0  0  0
    8.1180   -2.0237    0.0000 C   0  0  0  0  0  0  0  0  0  0  0  0
    6.9317   -0.1163    0.0000 C   0  0  0  0  0  0  0  0  0  0  0  0
    8.1180   -3.3030    0.0000 C   0  0  0  0  0  0  0  0  0  0  0  0
  1  2  1  0  0  0  0
  1  5  1  0  0  0  0
  1  7  2  0  0  0  0
  2  3  2  0  0  0  0
  2  4  1  0  0  0  0
  3  8  1  0  0  0  0
  3  9  1  0  0  0  0
  4  6  2  0  0  0  0
  4 14  1  0  0  0  0
  5 15  1  0  0  0  0
  6 10  1  0  0  0  0
  8 10  2  0  0  0  0
  9 13  2  0  0  0  0
 10 16  1  0  0  0  0
 11 12  2  0  0  0  0
 12 18  1  0  0  0  0
 12 20  1  0  0  0  0
 13 19  1  0  0  0  0
 15 21  1  0  0  0  0
 15 22  1  1  0  0  0
 17 21  1  0  0  0  0
 17 18  1  0  0  0  0
 19 23  1  0  0  0  0
 20 23  1  0  0  0  0
M  END
> <ID>
1401

> <Formula>
C18H22O5

> <FW>
318.3643

> <DSSTox_CID>
1460

> <DSSTox_RID>
76167

> <DSSTox_GSID>
21460

> <DSSTox_FileID_Sort>
851

> <TS_ChemName>
Zearalenone

> <TS_ChemName_Synonyms>
Zearalenone  (mycotoxin)

> <TS_CASRN>
17924-92-4

> <CASRN_ChemName_Relationship>
primary

> <TS_Description>
single chemical compound

> <ChemNote>
stereochem

> <STRUCTURE_Shown>
tested chemical

> <STRUCTURE_Formula>
C18H22O5

> <STRUCTURE_MW>
318.3643

> <STRUCTURE_ChemType>
defined organic

> <STRUCTURE_DefinedOrganicForm>
parent

> <STRUCTURE_IUPAC>
(3S,11E)-14,16-dihydroxy-3-methyl-3,4,5,6,9,10-hexahydro-1H-2-benzoxacyclotetradecine-1,7(8H)-dione

> <STRUCTURE_SMILES>
Oc1cc(O)cc2C=CCCCC(=O)CCC[C@H](C)OC(=O)c12

> <STRUCTURE_SMILES_Desalt>
Oc1cc(O)cc2C=CCCCC(=O)CCC[C@H](C)OC(=O)c12

> <Substance_modify_yyyymmdd>
20080429

$$$$
