18378-89-7
ChemmineR-0914142331XD

 77 84  0  0  1  0  0  0  0  0  1 V2000
   12.6927   -3.9855    0.0000 C   0  0  0  0  0  0  0  0  0  0  0  0
   13.8351   -4.6455    0.0000 C   0  0  0  0  0  0  0  0  0  0  0  0
   14.9774   -2.6401    0.0000 C   0  0  0  0  0  0  0  0  0  0  0  0
   14.9774   -3.9855    0.0000 C   0  0  0  0  0  0  0  0  0  0  0  0
   10.3827   -3.9855    0.0000 C   0  0  0  0  0  0  0  0  0  0  0  0
   11.5250   -4.6455    0.0000 C   0  0  0  0  0  0  0  0  0  0  0  0
    9.2149   -4.6455    0.0000 C   0  0  0  0  0  0  0  0  0  0  0  0
   17.2875   -2.6401    0.0000 C   0  0  0  0  0  0  0  0  0  0  0  0
   12.6927   -2.6401    0.0000 C   0  0  0  0  0  0  0  0  0  0  0  0
    8.0726   -3.9855    0.0000 C   0  0  0  0  0  0  0  0  0  0  0  0
    8.0726   -2.6401    0.0000 C   0  0  0  0  0  0  0  0  0  0  0  0
   16.1198   -2.0055    0.0000 C   0  0  0  0  0  0  0  0  0  0  0  0
   10.3827   -2.6401    0.0000 C   0  0  0  0  0  0  0  0  0  0  0  0
   13.8351   -2.0055    0.0000 C   0  0  0  0  0  0  0  0  0  0  0  0
   18.4298   -2.0055    0.0000 C   0  0  0  0  0  0  0  0  0  0  0  0
   16.1198   -4.6455    0.0000 O   0  0  0  0  0  0  0  0  0  0  0  0
   11.5250   -2.0055    0.0000 C   0  0  0  0  0  0  0  0  0  0  0  0
    9.2149   -2.0055    0.0000 C   0  0  0  0  0  0  0  0  0  0  0  0
    6.9048   -2.0055    0.0000 O   0  0  0  0  0  0  0  0  0  0  0  0
   13.8351   -5.9910    0.0000 O   0  0  0  0  0  0  0  0  0  0  0  0
   17.2875   -3.9855    0.0000 O   0  0  0  0  0  0  0  0  0  0  0  0
   11.5250   -5.9910    0.0000 O   0  0  0  0  0  0  0  0  0  0  0  0
    9.2149   -5.9910    0.0000 O   0  0  0  0  0  0  0  0  0  0  0  0
   19.5722   -2.6401    0.0000 C   0  0  0  0  0  0  0  0  0  0  0  0
   18.4298   -0.6600    0.0000 O   0  0  0  0  0  0  0  0  0  0  0  0
   16.1198   -0.6600    0.0000 O   0  0  0  0  0  0  0  0  0  0  0  0
    6.9048   -4.6455    0.0000 C   0  0  0  0  0  0  0  0  0  0  0  0
   19.5722   -3.9855    0.0000 O   0  0  0  0  0  0  0  0  0  0  0  0
   20.7399   -2.0055    0.0000 C   0  0  0  0  0  0  0  0  0  0  0  0
   17.2875    0.0000    0.0000 C   0  0  0  0  0  0  0  0  0  0  0  0
   14.9774   -1.3200    0.0000 H   0  0  0  0  0  0  0  0  0  0  0  0
    5.7625   -2.6401    0.0000 C   0  0  0  0  0  0  0  0  0  0  0  0
    5.7625   -3.9855    0.0000 C   0  0  0  0  0  0  0  0  0  0  0  0
    4.6202   -2.0055    0.0000 O   0  0  0  0  0  0  0  0  0  0  0  0
    4.6202   -4.6455    0.0000 C   0  0  0  0  0  0  0  0  0  0  0  0
    3.4778   -2.6401    0.0000 C   0  0  0  0  0  0  0  0  0  0  0  0
    3.4778   -3.9855    0.0000 C   0  0  0  0  0  0  0  0  0  0  0  0
    4.6202   -5.9910    0.0000 O   0  0  0  0  0  0  0  0  0  0  0  0
    2.3101   -4.6455    0.0000 O   0  0  0  0  0  0  0  0  0  0  0  0
    2.3101   -2.0055    0.0000 C   0  0  0  0  0  0  0  0  0  0  0  0
    3.4778   -6.6510    0.0000 C   0  0  0  0  0  0  0  0  0  0  0  0
    3.4778   -7.9710    0.0000 C   0  0  0  0  0  0  0  0  0  0  0  0
    2.3101   -5.9910    0.0000 O   0  0  0  0  0  0  0  0  0  0  0  0
    2.3101   -8.6564    0.0000 C   0  0  0  0  0  0  0  0  0  0  0  0
    1.1677   -6.6510    0.0000 C   0  0  0  0  0  0  0  0  0  0  0  0
    1.1677   -7.9710    0.0000 C   0  0  0  0  0  0  0  0  0  0  0  0
    2.3101   -9.9765    0.0000 O   0  0  0  0  0  0  0  0  0  0  0  0
    0.0000   -8.6564    0.0000 O   0  0  0  0  0  0  0  0  0  0  0  0
    0.0000   -5.9910    0.0000 C   0  0  0  0  0  0  0  0  0  0  0  0
   16.1198   -5.9910    0.0000 C   0  0  0  0  0  0  0  0  0  0  0  0
   17.2875   -6.6510    0.0000 C   0  0  0  0  0  0  0  0  0  0  0  0
   14.9774   -6.6510    0.0000 O   0  0  0  0  0  0  0  0  0  0  0  0
   17.2875   -7.9710    0.0000 C   0  0  0  0  0  0  0  0  0  0  0  0
   14.9774   -7.9710    0.0000 C   0  0  0  0  0  0  0  0  0  0  0  0
   16.1198   -8.6564    0.0000 C   0  0  0  0  0  0  0  0  0  0  0  0
   18.4298   -8.6564    0.0000 O   0  0  0  0  0  0  0  0  0  0  0  0
   16.1198   -9.9765    0.0000 O   0  0  0  0  0  0  0  0  0  0  0  0
   13.8351   -8.6564    0.0000 C   0  0  0  0  0  0  0  0  0  0  0  0
   19.6230   -8.0218    0.0000 C   0  0  0  0  0  0  0  0  0  0  0  0
   19.6230   -6.7018    0.0000 C   0  0  0  0  0  0  0  0  0  0  0  0
   20.7653   -8.6818    0.0000 O   0  0  0  0  0  0  0  0  0  0  0  0
   20.7653   -6.0164    0.0000 C   0  0  0  0  0  0  0  0  0  0  0  0
   21.9330   -8.0218    0.0000 C   0  0  0  0  0  0  0  0  0  0  0  0
   21.9330   -6.7018    0.0000 C   0  0  0  0  0  0  0  0  0  0  0  0
   20.7653   -4.6963    0.0000 O   0  0  0  0  0  0  0  0  0  0  0  0
   23.0754   -6.0164    0.0000 O   0  0  0  0  0  0  0  0  0  0  0  0
   23.0754   -8.6818    0.0000 C   0  0  0  0  0  0  0  0  0  0  0  0
   21.9330   -4.0363    0.0000 C   0  0  0  0  0  0  0  0  0  0  0  0
   21.9330   -2.7162    0.0000 C   0  0  0  0  0  0  0  0  0  0  0  0
   23.0754   -4.6963    0.0000 O   0  0  0  0  0  0  0  0  0  0  0  0
   23.0754   -2.0308    0.0000 C   0  0  0  0  0  0  0  0  0  0  0  0
   24.2431   -4.0363    0.0000 C   0  0  0  0  0  0  0  0  0  0  0  0
   24.2431   -2.7162    0.0000 C   0  0  0  0  0  0  0  0  0  0  0  0
   22.4154   -0.8885    0.0000 O   0  0  0  0  0  0  0  0  0  0  0  0
   23.7608   -0.8885    0.0000 C   0  0  0  0  0  0  0  0  0  0  0  0
   25.3855   -2.0308    0.0000 O   0  0  0  0  0  0  0  0  0  0  0  0
   25.3855   -4.6963    0.0000 C   0  0  0  0  0  0  0  0  0  0  0  0
  1  2  1  0  0  0  0
  1  6  2  0  0  0  0
  1  9  1  0  0  0  0
  2  4  1  0  0  0  0
  2 20  2  0  0  0  0
  3 14  1  0  0  0  0
  3 12  1  0  0  0  0
  3  4  1  0  0  0  0
 31  3  1  6  0  0  0
  4 16  1  6  0  0  0
  5  6  1  0  0  0  0
  5  7  1  0  0  0  0
  5 13  2  0  0  0  0
  6 22  1  0  0  0  0
  7 10  2  0  0  0  0
  7 23  1  0  0  0  0
  8 12  1  0  0  0  0
  8 15  1  0  0  0  0
  8 21  2  0  0  0  0
  9 14  1  0  0  0  0
  9 17  2  0  0  0  0
 10 27  1  0  0  0  0
 10 11  1  0  0  0  0
 11 18  2  0  0  0  0
 11 19  1  0  0  0  0
 12 26  1  6  0  0  0
 13 17  1  0  0  0  0
 13 18  1  0  0  0  0
 15 24  1  0  0  0  0
 15 25  1  1  0  0  0
 50 16  1  1  0  0  0
 32 19  1  1  0  0  0
 24 28  1  1  0  0  0
 24 29  1  0  0  0  0
 26 30  1  0  0  0  0
 32 33  1  0  0  0  0
 32 34  1  0  0  0  0
 33 35  1  0  0  0  0
 34 36  1  0  0  0  0
 35 37  1  0  0  0  0
 35 38  1  1  0  0  0
 36 37  1  0  0  0  0
 36 40  1  1  0  0  0
 37 39  1  1  0  0  0
 41 38  1  1  0  0  0
 41 42  1  0  0  0  0
 41 43  1  0  0  0  0
 42 44  1  0  0  0  0
 43 45  1  0  0  0  0
 44 46  1  0  0  0  0
 44 47  1  1  0  0  0
 45 46  1  0  0  0  0
 45 49  1  1  0  0  0
 46 48  1  6  0  0  0
 50 51  1  0  0  0  0
 50 52  1  0  0  0  0
 51 53  1  0  0  0  0
 52 54  1  0  0  0  0
 53 55  1  0  0  0  0
 53 56  1  1  0  0  0
 54 55  1  0  0  0  0
 54 58  1  1  0  0  0
 55 57  1  6  0  0  0
 59 56  1  1  0  0  0
 59 60  1  0  0  0  0
 59 61  1  0  0  0  0
 60 62  1  0  0  0  0
 61 63  1  0  0  0  0
 62 64  1  0  0  0  0
 62 65  1  1  0  0  0
 63 64  1  0  0  0  0
 63 67  1  1  0  0  0
 64 66  1  6  0  0  0
 68 65  1  1  0  0  0
 68 69  1  0  0  0  0
 68 70  1  0  0  0  0
 69 71  1  0  0  0  0
 70 72  1  0  0  0  0
 71 73  1  0  0  0  0
 71 74  1  6  0  0  0
 71 75  1  0  0  0  0
 72 73  1  0  0  0  0
 72 77  1  1  0  0  0
 73 76  1  6  0  0  0
M  END
> <ID>
3130

> <Formula>
C52H76O24

> <FW>
1085.1454

> <DSSTox_CID>
3492

> <DSSTox_RID>
77052

> <DSSTox_GSID>
23492

> <DSSTox_FileID_Sort>
1735

> <TS_ChemName>
Plicamycin

> <TS_ChemName_Synonyms>


> <TS_CASRN>
18378-89-7

> <CASRN_ChemName_Relationship>
primary

> <TS_Description>
single chemical compound

> <ChemNote>
stereochem

> <STRUCTURE_Shown>
tested chemical

> <STRUCTURE_Formula>
C52H76O24

> <STRUCTURE_MW>
1085.1454

> <STRUCTURE_ChemType>
defined organic

> <STRUCTURE_DefinedOrganicForm>
parent

> <STRUCTURE_IUPAC>
(1S)-5-deoxy-1-C-[(2S,3S)-7-{[2,6-dideoxy-3-O-(2,6-dideoxy-beta-D-arabino-hexopyranosyl)-beta-D-lyxo-hexopyranosyl]oxy}-3-{[2,6-dideoxy-3-C-methyl-beta-D-ribo-hexopyranosyl-(1->3)-2,6-dideoxy-beta-D-arabino-hexopyranosyl-(1->3)-2,6-dideoxy-beta-D-arabino-

> <STRUCTURE_SMILES>
C[C@@H](O)[C@H](O)C(=O)[C@@H](OC)C6Cc7cc8cc(O[C@H]2C[C@@H](O[C@H]1C[C@@H](O)[C@H](O)[C@@H](C)O1)[C@@H](O)[C@@H](C)O2)c(C)c(O)c8c(O)c7C(=O)[C@H]6O[C@H]5C[C@@H](O[C@H]4C[C@@H](O[C@H]3C[C@](C)(O)[C@H](O)[C@@H](C)O3)[C@H](O)[C@@H](C)O4)[C@H](O)[C@@H](C)O5

> <STRUCTURE_SMILES_Desalt>
C[C@@H](O)[C@H](O)C(=O)[C@@H](OC)C6Cc7cc8cc(O[C@H]2C[C@@H](O[C@H]1C[C@@H](O)[C@H](O)[C@@H](C)O1)[C@@H](O)[C@@H](C)O2)c(C)c(O)c8c(O)c7C(=O)[C@H]6O[C@H]5C[C@@H](O[C@H]4C[C@@H](O[C@H]3C[C@](C)(O)[C@H](O)[C@@H](C)O3)[C@H](O)[C@@H](C)O4)[C@H](O)[C@@H](C)O5

> <Substance_modify_yyyymmdd>
20080429

$$$$
