18883-66-4
ChemmineR-0914142331XD

 18 18  0  0  1  0  0  0  0  0  1 V2000
    5.3141   -2.3031    0.0000 C   0  0  0  0  0  0  0  0  0  0  0  0
    3.9880   -2.3031    0.0000 N   0  0  0  0  0  0  0  0  0  0  0  0
    3.3200   -1.1565    0.0000 C   0  0  0  0  0  0  0  0  0  0  0  0
    1.9940   -1.1565    0.0000 N   0  0  0  0  0  0  0  0  0  0  0  0
    1.3260   -2.3031    0.0000 N   0  0  0  0  0  0  0  0  0  0  0  0
    0.0000   -2.3031    0.0000 O   0  0  0  0  0  0  0  0  0  0  0  0
    1.3260    0.0000    0.0000 C   0  0  0  0  0  0  0  0  0  0  0  0
    3.9880    0.0000    0.0000 O   0  0  0  0  0  0  0  0  0  0  0  0
    5.9821   -1.1565    0.0000 C   0  0  0  0  0  0  0  0  0  0  0  0
    7.3081   -1.1565    0.0000 C   0  0  0  0  0  0  0  0  0  0  0  0
    7.9761    0.0000    0.0000 O   0  0  0  0  0  0  0  0  0  0  0  0
    7.9761   -2.3031    0.0000 C   0  0  0  0  0  0  0  0  0  0  0  0
    7.3081   -3.4596    0.0000 O   0  0  0  0  0  0  0  0  0  0  0  0
    5.9821   -3.4596    0.0000 C   0  0  0  0  0  0  0  0  0  0  0  0
    5.3141   -4.6062    0.0000 O   0  0  0  0  0  0  0  0  0  0  0  0
    9.3021   -2.3031    0.0000 C   0  0  0  0  0  0  0  0  0  0  0  0
    9.9701   -3.4596    0.0000 O   0  0  0  0  0  0  0  0  0  0  0  0
    5.3141    0.0000    0.0000 O   0  0  0  0  0  0  0  0  0  0  0  0
  1  2  1  6  0  0  0
  1  9  1  0  0  0  0
  1 14  1  0  0  0  0
  2  3  1  0  0  0  0
  3  4  1  0  0  0  0
  3  8  2  0  0  0  0
  4  5  1  0  0  0  0
  4  7  1  0  0  0  0
  5  6  2  0  0  0  0
  9 10  1  0  0  0  0
  9 18  1  1  0  0  0
 10 11  1  6  0  0  0
 10 12  1  0  0  0  0
 12 13  1  0  0  0  0
 12 16  1  1  0  0  0
 13 14  1  0  0  0  0
 14 15  1  6  0  0  0
 16 17  1  0  0  0  0
M  END
> <ID>
1232

> <Formula>
C8H15N3O7

> <FW>
265.2206

> <DSSTox_CID>
1282

> <DSSTox_RID>
76055

> <DSSTox_GSID>
21282

> <DSSTox_FileID_Sort>
739

> <TS_ChemName>
Streptozocin

> <TS_ChemName_Synonyms>
Streptozocin (Streptozotocin)

> <TS_CASRN>
18883-66-4

> <CASRN_ChemName_Relationship>
primary

> <TS_Description>
single chemical compound

> <ChemNote>
stereochem

> <STRUCTURE_Shown>
tested chemical

> <STRUCTURE_Formula>
C8H15N3O7

> <STRUCTURE_MW>
265.2206

> <STRUCTURE_ChemType>
defined organic

> <STRUCTURE_DefinedOrganicForm>
parent

> <STRUCTURE_IUPAC>
2-deoxy-2-{[methyl(nitroso)carbamoyl]amino}-alpha-D-glucopyranose

> <STRUCTURE_SMILES>
O[C@H]1O[C@H](CO)[C@@H](O)[C@H](O)[C@H]1NC(=O)N(C)N=O

> <STRUCTURE_SMILES_Desalt>
O[C@H]1O[C@H](CO)[C@@H](O)[C@H](O)[C@H]1NC(=O)N(C)N=O

> <Substance_modify_yyyymmdd>
20080429

$$$$
