1897-45-6
ChemmineR-0914142331XD

 14 14  0  0  0  0  0  0  0  0  1 V2000
    3.9898   -1.1504    0.0000 Cl   0  0  0  0  0  0  0  0  0  0  0  0
    3.3248   -2.3008    0.0000 C    0  0  0  0  0  0  0  0  0  0  0  0
    3.9898   -3.4578    0.0000 C    0  0  0  0  0  0  0  0  0  0  0  0
    3.3248   -4.6082    0.0000 C    0  0  0  0  0  0  0  0  0  0  0  0
    1.9949   -4.6082    0.0000 C    0  0  0  0  0  0  0  0  0  0  0  0
    1.3299   -3.4578    0.0000 C    0  0  0  0  0  0  0  0  0  0  0  0
    1.9949   -2.3008    0.0000 C    0  0  0  0  0  0  0  0  0  0  0  0
    1.3299   -1.1504    0.0000 C    0  0  0  0  0  0  0  0  0  0  0  0
    0.6650    0.0000    0.0000 N    0  0  0  0  0  0  0  0  0  0  0  0
    0.0000   -3.4578    0.0000 Cl   0  0  0  0  0  0  0  0  0  0  0  0
    1.3299   -5.7586    0.0000 Cl   0  0  0  0  0  0  0  0  0  0  0  0
    3.9898   -5.7586    0.0000 Cl   0  0  0  0  0  0  0  0  0  0  0  0
    5.3197   -3.4578    0.0000 C    0  0  0  0  0  0  0  0  0  0  0  0
    6.6497   -3.4578    0.0000 N    0  0  0  0  0  0  0  0  0  0  0  0
  1  2  1  0  0  0  0
  2  3  2  0  0  0  0
  2  7  1  0  0  0  0
  3  4  1  0  0  0  0
  3 13  1  0  0  0  0
  4  5  2  0  0  0  0
  4 12  1  0  0  0  0
  5  6  1  0  0  0  0
  5 11  1  0  0  0  0
  6  7  2  0  0  0  0
  6 10  1  0  0  0  0
  7  8  1  0  0  0  0
  8  9  3  0  0  0  0
 13 14  3  0  0  0  0
M  END
> <ID>
310

> <Formula>
C8Cl4N2

> <FW>
265.911

> <DSSTox_CID>
319

> <DSSTox_RID>
75510

> <DSSTox_GSID>
20319

> <DSSTox_FileID_Sort>
194

> <TS_ChemName>
Chlorothalonil

> <TS_ChemName_Synonyms>
Chlorothalonil (TPN)

> <TS_CASRN>
1897-45-6

> <CASRN_ChemName_Relationship>
primary

> <TS_Description>
single chemical compound

> <ChemNote>


> <STRUCTURE_Shown>
tested chemical

> <STRUCTURE_Formula>
C8Cl4N2

> <STRUCTURE_MW>
265.911

> <STRUCTURE_ChemType>
defined organic

> <STRUCTURE_DefinedOrganicForm>
parent

> <STRUCTURE_IUPAC>
2,4,5,6-tetrachlorobenzene-1,3-dicarbonitrile

> <STRUCTURE_SMILES>
Clc1c(C#N)c(Cl)c(C#N)c(Cl)c1Cl

> <STRUCTURE_SMILES_Desalt>
Clc1c(C#N)c(Cl)c(C#N)c(Cl)c1Cl

> <Substance_modify_yyyymmdd>
20080429

$$$$
