1912-24-9
ChemmineR-0914142331XD

 14 14  0  0  0  0  0  0  0  0  1 V2000
    5.9846    0.0000    0.0000 Cl   0  0  0  0  0  0  0  0  0  0  0  0
    5.3223   -1.1570    0.0000 C    0  0  0  0  0  0  0  0  0  0  0  0
    5.9846   -2.3061    0.0000 N    0  0  0  0  0  0  0  0  0  0  0  0
    5.3223   -3.4551    0.0000 C    0  0  0  0  0  0  0  0  0  0  0  0
    3.9898   -3.4551    0.0000 N    0  0  0  0  0  0  0  0  0  0  0  0
    3.3275   -2.3061    0.0000 C    0  0  0  0  0  0  0  0  0  0  0  0
    3.9898   -1.1570    0.0000 N    0  0  0  0  0  0  0  0  0  0  0  0
    1.9949   -2.3061    0.0000 N    0  0  0  0  0  0  0  0  0  0  0  0
    1.3326   -3.4551    0.0000 C    0  0  0  0  0  0  0  0  0  0  0  0
    1.9949   -4.6122    0.0000 C    0  0  0  0  0  0  0  0  0  0  0  0
    0.0000   -3.4551    0.0000 C    0  0  0  0  0  0  0  0  0  0  0  0
    5.9846   -4.6122    0.0000 N    0  0  0  0  0  0  0  0  0  0  0  0
    7.3172   -4.6122    0.0000 C    0  0  0  0  0  0  0  0  0  0  0  0
    7.9795   -5.7612    0.0000 C    0  0  0  0  0  0  0  0  0  0  0  0
  1  2  1  0  0  0  0
  2  3  2  0  0  0  0
  2  7  1  0  0  0  0
  3  4  1  0  0  0  0
  4  5  2  0  0  0  0
  4 12  1  0  0  0  0
  5  6  1  0  0  0  0
  6  7  2  0  0  0  0
  6  8  1  0  0  0  0
  8  9  1  0  0  0  0
  9 10  1  0  0  0  0
  9 11  1  0  0  0  0
 12 13  1  0  0  0  0
 13 14  1  0  0  0  0
M  END
> <ID>
109

> <Formula>
C8H14ClN5

> <FW>
215.6833

> <DSSTox_CID>
112

> <DSSTox_RID>
75374

> <DSSTox_GSID>
20112

> <DSSTox_FileID_Sort>
58

> <TS_ChemName>
Atrazine

> <TS_ChemName_Synonyms>
1,3,5-Triazine-2,4-diamine, 6-chloro-N-ethyl-N'-(1-methylethyl)-

> <TS_CASRN>
1912-24-9

> <CASRN_ChemName_Relationship>
primary

> <TS_Description>
single chemical compound

> <ChemNote>


> <STRUCTURE_Shown>
tested chemical

> <STRUCTURE_Formula>
C8H14ClN5

> <STRUCTURE_MW>
215.6833

> <STRUCTURE_ChemType>
defined organic

> <STRUCTURE_DefinedOrganicForm>
parent

> <STRUCTURE_IUPAC>
6-chloro-N-ethyl-N'-(propan-2-yl)-1,3,5-triazine-2,4-diamine

> <STRUCTURE_SMILES>
Clc1nc(NCC)nc(NC(C)C)n1

> <STRUCTURE_SMILES_Desalt>
Clc1nc(NCC)nc(NC(C)C)n1

> <Substance_modify_yyyymmdd>
20080429

$$$$
