1917-15-3
ChemmineR-0914142331XD

  9  9  0  0  0  0  0  0  0  0  1 V2000
    5.1188   -0.2969    0.0000 O   0  0  0  0  0  0  0  0  0  0  0  0
    4.4533   -1.4486    0.0000 C   0  0  0  0  0  0  0  0  0  0  0  0
    3.1225   -1.4486    0.0000 C   0  0  0  0  0  0  0  0  0  0  0  0
    2.3393   -2.5236    0.0000 C   0  0  0  0  0  0  0  0  0  0  0  0
    1.0749   -2.1141    0.0000 C   0  0  0  0  0  0  0  0  0  0  0  0
    1.0749   -0.7832    0.0000 C   0  0  0  0  0  0  0  0  0  0  0  0
    0.0000    0.0000    0.0000 C   0  0  0  0  0  0  0  0  0  0  0  0
    2.3393   -0.3737    0.0000 O   0  0  0  0  0  0  0  0  0  0  0  0
    5.1188   -2.6003    0.0000 O   0  0  0  0  0  0  0  0  0  0  0  0
  1  2  2  0  0  0  0
  2  3  1  0  0  0  0
  2  9  1  0  0  0  0
  3  4  2  0  0  0  0
  3  8  1  0  0  0  0
  4  5  1  0  0  0  0
  5  6  2  0  0  0  0
  6  7  1  0  0  0  0
  6  8  1  0  0  0  0
M  END
> <ID>
1564

> <Formula>
C6H6O3

> <FW>
126.11

> <DSSTox_CID>
1627

> <DSSTox_RID>
76243

> <DSSTox_GSID>
21627

> <DSSTox_FileID_Sort>
927

> <TS_ChemName>
5-Methyl-2-furancarboxylic acid

> <TS_ChemName_Synonyms>


> <TS_CASRN>
1917-15-3

> <CASRN_ChemName_Relationship>
primary

> <TS_Description>
single chemical compound

> <ChemNote>


> <STRUCTURE_Shown>
tested chemical

> <STRUCTURE_Formula>
C6H6O3

> <STRUCTURE_MW>
126.11

> <STRUCTURE_ChemType>
defined organic

> <STRUCTURE_DefinedOrganicForm>
parent

> <STRUCTURE_IUPAC>
5-methylfuran-2-carboxylic acid

> <STRUCTURE_SMILES>
O=C(O)c1ccc(C)o1

> <STRUCTURE_SMILES_Desalt>
O=C(O)c1ccc(C)o1

> <Substance_modify_yyyymmdd>
20080429

$$$$
