1934-21-0
ChemmineR-0914142331XD

 34 33  0  0  0  0  0  0  0  0  2 V2000
    0.0000   -9.4058    0.0000 Na   0  3  0  0  0  0  0  0  0  0  0  0
    3.4644   -2.0284    0.0000 Na   0  3  0  0  0  0  0  0  0  0  0  0
   17.9500   -2.7105    0.0000 Na   0  3  0  0  0  0  0  0  0  0  0  0
    8.9391   -1.5796    0.0000 N    0  0  0  0  0  0  0  0  0  0  0  0
    9.7289   -2.6746    0.0000 N    0  0  0  0  0  0  0  0  0  0  0  0
    7.6647   -3.3387    0.0000 C    0  0  0  0  0  0  0  0  0  0  0  0
    8.9391   -3.7516    0.0000 C    0  0  0  0  0  0  0  0  0  0  0  0
    7.6647   -1.9925    0.0000 C    0  0  0  0  0  0  0  0  0  0  0  0
    6.5877   -1.2206    0.0000 C    0  0  0  0  0  0  0  0  0  0  0  0
    6.7672    0.0000    0.0000 O    0  0  0  0  0  0  0  0  0  0  0  0
    5.3671   -1.7591    0.0000 O    0  5  0  0  0  0  0  0  0  0  0  0
    9.3520   -5.0260    0.0000 O    0  0  0  0  0  0  0  0  0  0  0  0
   11.0572   -2.6746    0.0000 C    0  0  0  0  0  0  0  0  0  0  0  0
   11.7214   -1.5078    0.0000 C    0  0  0  0  0  0  0  0  0  0  0  0
   11.7214   -3.8234    0.0000 C    0  0  0  0  0  0  0  0  0  0  0  0
   13.0676   -1.5078    0.0000 C    0  0  0  0  0  0  0  0  0  0  0  0
   13.0676   -3.8234    0.0000 C    0  0  0  0  0  0  0  0  0  0  0  0
   13.7318   -2.6746    0.0000 C    0  0  0  0  0  0  0  0  0  0  0  0
   15.0780   -2.6746    0.0000 S    0  0  0  0  0  0  0  0  0  0  0  0
   15.0780   -1.3283    0.0000 O    0  0  0  0  0  0  0  0  0  0  0  0
   15.0780   -4.0029    0.0000 O    0  0  0  0  0  0  0  0  0  0  0  0
   16.4063   -2.6746    0.0000 O    0  5  0  0  0  0  0  0  0  0  0  0
    6.5877   -4.1285    0.0000 N    0  0  0  0  0  0  0  0  0  0  0  0
    6.5877   -5.4568    0.0000 N    0  0  0  0  0  0  0  0  0  0  0  0
    5.6363   -6.2287    0.0000 C    0  0  0  0  0  0  0  0  0  0  0  0
    5.8697   -7.5570    0.0000 C    0  0  0  0  0  0  0  0  0  0  0  0
    4.3978   -5.7799    0.0000 C    0  0  0  0  0  0  0  0  0  0  0  0
    4.8465   -8.4186    0.0000 C    0  0  0  0  0  0  0  0  0  0  0  0
    3.3746   -6.6415    0.0000 C    0  0  0  0  0  0  0  0  0  0  0  0
    3.5900   -7.9519    0.0000 C    0  0  0  0  0  0  0  0  0  0  0  0
    2.5669   -8.8135    0.0000 S    0  0  0  0  0  0  0  0  0  0  0  0
    3.4285   -9.8366    0.0000 O    0  0  0  0  0  0  0  0  0  0  0  0
    1.7232   -7.7903    0.0000 O    0  0  0  0  0  0  0  0  0  0  0  0
    1.5437   -9.6751    0.0000 O    0  5  0  0  0  0  0  0  0  0  0  0
  4  5  1  0  0  0  0
  4  8  1  0  0  0  0
  5  7  1  0  0  0  0
  5 13  1  0  0  0  0
  6  7  1  0  0  0  0
  6  8  2  0  0  0  0
  6 23  1  0  0  0  0
  7 12  2  0  0  0  0
  8  9  1  0  0  0  0
  9 10  2  0  0  0  0
  9 11  1  0  0  0  0
 13 14  2  0  0  0  0
 13 15  1  0  0  0  0
 14 16  1  0  0  0  0
 15 17  2  0  0  0  0
 16 18  2  0  0  0  0
 17 18  1  0  0  0  0
 18 19  1  0  0  0  0
 19 20  2  0  0  0  0
 19 21  2  0  0  0  0
 19 22  1  0  0  0  0
 23 24  2  0  0  0  0
 24 25  1  0  0  0  0
 25 26  2  0  0  0  0
 25 27  1  0  0  0  0
 26 28  1  0  0  0  0
 27 29  2  0  0  0  0
 28 30  2  0  0  0  0
 29 30  1  0  0  0  0
 30 31  1  0  0  0  0
 31 32  2  0  0  0  0
 31 33  2  0  0  0  0
 31 34  1  0  0  0  0
M  END
> <ID>
1396

> <Formula>
C16H9N4Na3O9S2

> <FW>
534.3634 (22.9892+22.9892+22.9892+465.3957)

> <DSSTox_CID>
1455

> <DSSTox_RID>
76164

> <DSSTox_GSID>
21455

> <DSSTox_FileID_Sort>
848

> <TS_ChemName>
FD&C Yellow 5

> <TS_ChemName_Synonyms>
Tartrazine; 1H-Pyrazole-3-carboxylic acid, 4,5-dihydro-5-oxo-1-(4-sulfophenyl)-4-[(4-sulfophenyl)azo]-, trisodium salt; C.I. 19140

> <TS_CASRN>
1934-21-0

> <CASRN_ChemName_Relationship>
primary

> <TS_Description>
single chemical compound

> <ChemNote>
tautomers; parent [34175-08-1]

> <STRUCTURE_Shown>
tested chemical

> <STRUCTURE_Formula>
C16H9N4Na3O9S2

> <STRUCTURE_MW>
534.3634

> <STRUCTURE_ChemType>
defined organic

> <STRUCTURE_DefinedOrganicForm>
salt

> <STRUCTURE_IUPAC>
trisodium 5-oxo-1-(4-sulfonatophenyl)-4-[(E)-(4-sulfonatophenyl)diazenyl]-2,5-dihydro-1H-pyrazole-3-carboxylate

> <STRUCTURE_SMILES>
[Na+].[Na+].[Na+].[O-]S(=O)(=O)c1ccc(cc1)/N=N/C3=C(NN(c2ccc(cc2)S([O-])(=O)=O)C3=O)C([O-])=O

> <STRUCTURE_SMILES_Desalt>
O=S(=O)(O)c1ccc(cc1)/N=N/C3=C(NN(c2ccc(cc2)S(=O)(=O)O)C3=O)C(=O)O

> <Substance_modify_yyyymmdd>
20080429

$$$$
