1937-37-7
ChemmineR-0914142331XD

 54 57  0  0  0  0  0  0  0  0  2 V2000
   11.2003    0.0000    0.0000 Na   0  3  0  0  0  0  0  0  0  0  0  0
    0.7519   -3.7334    0.0000 Na   0  3  0  0  0  0  0  0  0  0  0  0
    6.6372   -5.0038    0.0000 C    0  0  0  0  0  0  0  0  0  0  0  0
    5.9891   -3.8631    0.0000 C    0  0  0  0  0  0  0  0  0  0  0  0
    6.6372   -2.6964    0.0000 C    0  0  0  0  0  0  0  0  0  0  0  0
    7.9854   -2.6964    0.0000 C    0  0  0  0  0  0  0  0  0  0  0  0
    8.6336   -3.8631    0.0000 C    0  0  0  0  0  0  0  0  0  0  0  0
    7.9854   -5.0038    0.0000 C    0  0  0  0  0  0  0  0  0  0  0  0
    8.6336   -6.1446    0.0000 N    0  0  0  0  0  0  0  0  0  0  0  0
    9.9818   -3.8631    0.0000 N    0  0  0  0  0  0  0  0  0  0  0  0
   10.6299   -2.6964    0.0000 N    0  0  0  0  0  0  0  0  0  0  0  0
   11.9781   -2.6964    0.0000 C    0  0  0  0  0  0  0  0  0  0  0  0
   12.6263   -3.8631    0.0000 C    0  0  0  0  0  0  0  0  0  0  0  0
   13.9485   -3.8631    0.0000 C    0  0  0  0  0  0  0  0  0  0  0  0
   14.6226   -2.6964    0.0000 C    0  0  0  0  0  0  0  0  0  0  0  0
   13.9485   -1.5556    0.0000 C    0  0  0  0  0  0  0  0  0  0  0  0
   12.6263   -1.5556    0.0000 C    0  0  0  0  0  0  0  0  0  0  0  0
   15.9449   -2.6964    0.0000 C    0  0  0  0  0  0  0  0  0  0  0  0
   16.6190   -3.8631    0.0000 C    0  0  0  0  0  0  0  0  0  0  0  0
   17.9413   -3.8631    0.0000 C    0  0  0  0  0  0  0  0  0  0  0  0
   18.6154   -2.6964    0.0000 C    0  0  0  0  0  0  0  0  0  0  0  0
   17.9413   -1.5556    0.0000 C    0  0  0  0  0  0  0  0  0  0  0  0
   16.6190   -1.5556    0.0000 C    0  0  0  0  0  0  0  0  0  0  0  0
   19.9376   -2.6964    0.0000 N    0  0  0  0  0  0  0  0  0  0  0  0
   20.6117   -1.5556    0.0000 N    0  0  0  0  0  0  0  0  0  0  0  0
   21.9340   -1.5556    0.0000 C    0  0  0  0  0  0  0  0  0  0  0  0
   22.6081   -2.6964    0.0000 C    0  0  0  0  0  0  0  0  0  0  0  0
   23.9303   -2.6964    0.0000 C    0  0  0  0  0  0  0  0  0  0  0  0
   24.6044   -1.5556    0.0000 C    0  0  0  0  0  0  0  0  0  0  0  0
   23.9303   -0.3889    0.0000 C    0  0  0  0  0  0  0  0  0  0  0  0
   22.6081   -0.3889    0.0000 C    0  0  0  0  0  0  0  0  0  0  0  0
   25.9267   -1.5556    0.0000 N    0  0  0  0  0  0  0  0  0  0  0  0
   21.9340   -3.8631    0.0000 N    0  0  0  0  0  0  0  0  0  0  0  0
    8.6336   -1.5556    0.0000 S    0  0  0  0  0  0  0  0  0  0  0  0
    9.8003   -2.2038    0.0000 O    0  0  0  0  0  0  0  0  0  0  0  0
    7.4928   -0.8815    0.0000 O    0  0  0  0  0  0  0  0  0  0  0  0
    9.3077   -0.3889    0.0000 O    0  5  0  0  0  0  0  0  0  0  0  0
    4.6409   -3.8631    0.0000 C    0  0  0  0  0  0  0  0  0  0  0  0
    3.9927   -5.0038    0.0000 C    0  0  0  0  0  0  0  0  0  0  0  0
    4.6409   -6.1446    0.0000 C    0  0  0  0  0  0  0  0  0  0  0  0
    5.9891   -6.1446    0.0000 C    0  0  0  0  0  0  0  0  0  0  0  0
    6.6372   -7.3113    0.0000 O    0  0  0  0  0  0  0  0  0  0  0  0
    3.9927   -7.3113    0.0000 N    0  0  0  0  0  0  0  0  0  0  0  0
    2.6704   -7.3113    0.0000 N    0  0  0  0  0  0  0  0  0  0  0  0
    1.9964   -8.4521    0.0000 C    0  0  0  0  0  0  0  0  0  0  0  0
    0.6741   -8.4521    0.0000 C    0  0  0  0  0  0  0  0  0  0  0  0
    0.0000   -9.6188    0.0000 C    0  0  0  0  0  0  0  0  0  0  0  0
    0.6741  -10.7596    0.0000 C    0  0  0  0  0  0  0  0  0  0  0  0
    1.9964  -10.7596    0.0000 C    0  0  0  0  0  0  0  0  0  0  0  0
    2.6704   -9.6188    0.0000 C    0  0  0  0  0  0  0  0  0  0  0  0
    2.6704   -5.0038    0.0000 S    0  0  0  0  0  0  0  0  0  0  0  0
    2.6704   -3.6816    0.0000 O    0  0  0  0  0  0  0  0  0  0  0  0
    2.6704   -6.3261    0.0000 O    0  0  0  0  0  0  0  0  0  0  0  0
    1.3223   -5.0038    0.0000 O    0  5  0  0  0  0  0  0  0  0  0  0
  3  4  1  0  0  0  0
  3  8  2  0  0  0  0
  3 41  1  0  0  0  0
  4  5  2  0  0  0  0
  4 38  1  0  0  0  0
  5  6  1  0  0  0  0
  6  7  2  0  0  0  0
  6 34  1  0  0  0  0
  7  8  1  0  0  0  0
  7 10  1  0  0  0  0
  8  9  1  0  0  0  0
 10 11  2  0  0  0  0
 11 12  1  0  0  0  0
 12 13  2  0  0  0  0
 12 17  1  0  0  0  0
 13 14  1  0  0  0  0
 14 15  2  0  0  0  0
 15 16  1  0  0  0  0
 15 18  1  0  0  0  0
 16 17  2  0  0  0  0
 18 19  2  0  0  0  0
 18 23  1  0  0  0  0
 19 20  1  0  0  0  0
 20 21  2  0  0  0  0
 21 22  1  0  0  0  0
 21 24  1  0  0  0  0
 22 23  2  0  0  0  0
 24 25  2  0  0  0  0
 25 26  1  0  0  0  0
 26 27  2  0  0  0  0
 26 31  1  0  0  0  0
 27 28  1  0  0  0  0
 27 33  1  0  0  0  0
 28 29  2  0  0  0  0
 29 30  1  0  0  0  0
 29 32  1  0  0  0  0
 30 31  2  0  0  0  0
 34 35  2  0  0  0  0
 34 36  2  0  0  0  0
 34 37  1  0  0  0  0
 38 39  2  0  0  0  0
 39 40  1  0  0  0  0
 39 51  1  0  0  0  0
 40 41  2  0  0  0  0
 40 43  1  0  0  0  0
 41 42  1  0  0  0  0
 43 44  2  0  0  0  0
 44 45  1  0  0  0  0
 45 46  2  0  0  0  0
 45 50  1  0  0  0  0
 46 47  1  0  0  0  0
 47 48  2  0  0  0  0
 48 49  1  0  0  0  0
 49 50  2  0  0  0  0
 51 52  2  0  0  0  0
 51 53  2  0  0  0  0
 51 54  1  0  0  0  0
M  END
> <ID>
181

> <Formula>
C34H25N9Na2O7S2

> <FW>
781.7279 (22.9892+22.9892+735.7495)

> <DSSTox_CID>
184

> <DSSTox_RID>
75421

> <DSSTox_GSID>
20184

> <DSSTox_FileID_Sort>
105

> <TS_ChemName>
C.I. Direct black 38

> <TS_ChemName_Synonyms>


> <TS_CASRN>
1937-37-7

> <CASRN_ChemName_Relationship>
primary

> <TS_Description>
single chemical compound

> <ChemNote>
C.I. 30235

> <STRUCTURE_Shown>
tested chemical

> <STRUCTURE_Formula>
C34H25N9Na2O7S2

> <STRUCTURE_MW>
781.7279

> <STRUCTURE_ChemType>
defined organic

> <STRUCTURE_DefinedOrganicForm>
salt

> <STRUCTURE_IUPAC>
disodium 4-amino-3-[(E)-{4'-[(E)-(2,4-diaminophenyl)diazenyl]biphenyl-4-yl}diazenyl]-5-hydroxy-6-[(E)-phenyldiazenyl]naphthalene-2,7-disulfonate

> <STRUCTURE_SMILES>
[Na+].[Na+].Nc6ccc(/N=N/c1ccc(cc1)c2ccc(cc2)/N=N/c5c(cc4cc(c(/N=N/c3ccccc3)c(O)c4c5N)S([O-])(=O)=O)S([O-])(=O)=O)c(N)c6

> <STRUCTURE_SMILES_Desalt>
Nc6ccc(/N=N/c1ccc(cc1)c2ccc(cc2)/N=N/c5c(cc4cc(c(/N=N/c3ccccc3)c(O)c4c5N)S(=O)(=O)O)S(=O)(=O)O)c(N)c6

> <Substance_modify_yyyymmdd>
20080429

$$$$
