1948-33-0
ChemmineR-0914142331XD

 12 12  0  0  0  0  0  0  0  0  1 V2000
    3.4654   -5.3232    0.0000 O   0  0  0  0  0  0  0  0  0  0  0  0
    4.6152   -2.0015    0.0000 C   0  0  0  0  0  0  0  0  0  0  0  0
    4.6152   -3.3163    0.0000 C   0  0  0  0  0  0  0  0  0  0  0  0
    3.4654   -1.3308    0.0000 C   0  0  0  0  0  0  0  0  0  0  0  0
    3.4654   -3.9924    0.0000 C   0  0  0  0  0  0  0  0  0  0  0  0
    2.3103   -2.0015    0.0000 C   0  0  0  0  0  0  0  0  0  0  0  0
    2.3103   -3.3163    0.0000 C   0  0  0  0  0  0  0  0  0  0  0  0
    1.1551   -1.3308    0.0000 C   0  0  0  0  0  0  0  0  0  0  0  0
    0.4951   -2.4859    0.0000 C   0  0  0  0  0  0  0  0  0  0  0  0
    0.0000   -0.6760    0.0000 C   0  0  0  0  0  0  0  0  0  0  0  0
    1.8258   -0.1757    0.0000 C   0  0  0  0  0  0  0  0  0  0  0  0
    3.4654    0.0000    0.0000 O   0  0  0  0  0  0  0  0  0  0  0  0
  1  5  1  0  0  0  0
  2  3  1  0  0  0  0
  2  4  2  0  0  0  0
  3  5  2  0  0  0  0
  4  6  1  0  0  0  0
  4 12  1  0  0  0  0
  5  7  1  0  0  0  0
  6  7  2  0  0  0  0
  6  8  1  0  0  0  0
  8  9  1  0  0  0  0
  8 10  1  0  0  0  0
  8 11  1  0  0  0  0
M  END
> <ID>
216

> <Formula>
C10H14O2

> <FW>
166.217

> <DSSTox_CID>
220

> <DSSTox_RID>
75441

> <DSSTox_GSID>
20220

> <DSSTox_FileID_Sort>
125

> <TS_ChemName>
tert-Butylhydroquinone

> <TS_ChemName_Synonyms>
tert-Butylhydroquinone (t-Butylhydroquinone) (1,4-Benzenediol, 2-(1,1-dimethylethyl)-) (tBHQ)

> <TS_CASRN>
1948-33-0

> <CASRN_ChemName_Relationship>
primary

> <TS_Description>
single chemical compound

> <ChemNote>


> <STRUCTURE_Shown>
tested chemical

> <STRUCTURE_Formula>
C10H14O2

> <STRUCTURE_MW>
166.217

> <STRUCTURE_ChemType>
defined organic

> <STRUCTURE_DefinedOrganicForm>
parent

> <STRUCTURE_IUPAC>
2-tert-butylbenzene-1,4-diol

> <STRUCTURE_SMILES>
CC(C)(C)c1cc(O)ccc1O

> <STRUCTURE_SMILES_Desalt>
CC(C)(C)c1cc(O)ccc1O

> <Substance_modify_yyyymmdd>
20080429

$$$$
