1951-25-3
ChemmineR-0914142331XD

 31 33  0  0  0  0  0  0  0  0  1 V2000
    5.5826    0.0000    0.0000 C   0  0  0  0  0  0  0  0  0  0  0  0
    6.7443   -0.6777    0.0000 C   0  0  0  0  0  0  0  0  0  0  0  0
    6.7443   -2.0007    0.0000 C   0  0  0  0  0  0  0  0  0  0  0  0
    5.5826   -2.6622    0.0000 C   0  0  0  0  0  0  0  0  0  0  0  0
    4.4370   -2.0007    0.0000 C   0  0  0  0  0  0  0  0  0  0  0  0
    4.4370   -0.6777    0.0000 C   0  0  0  0  0  0  0  0  0  0  0  0
    3.4528   -2.8881    0.0000 O   0  0  0  0  0  0  0  0  0  0  0  0
    3.9853   -4.1144    0.0000 C   0  0  0  0  0  0  0  0  0  0  0  0
    3.3238   -5.2599    0.0000 C   0  0  0  0  0  0  0  0  0  0  0  0
    2.0007   -5.2599    0.0000 C   0  0  0  0  0  0  0  0  0  0  0  0
    1.3230   -6.4055    0.0000 C   0  0  0  0  0  0  0  0  0  0  0  0
    0.0000   -6.4055    0.0000 C   0  0  0  0  0  0  0  0  0  0  0  0
    5.3083   -3.9691    0.0000 C   0  0  0  0  0  0  0  0  0  0  0  0
    6.1957   -4.9534    0.0000 C   0  0  0  0  0  0  0  0  0  0  0  0
    5.8569   -6.2441    0.0000 O   0  0  0  0  0  0  0  0  0  0  0  0
    7.4865   -4.6145    0.0000 C   0  0  0  0  0  0  0  0  0  0  0  0
    7.8253   -3.3238    0.0000 C   0  0  0  0  0  0  0  0  0  0  0  0
    9.1161   -2.9849    0.0000 C   0  0  0  0  0  0  0  0  0  0  0  0
    9.4549   -1.6941    0.0000 I   0  0  0  0  0  0  0  0  0  0  0  0
   10.0519   -3.9207    0.0000 C   0  0  0  0  0  0  0  0  0  0  0  0
   11.3427   -3.5819    0.0000 O   0  0  0  0  0  0  0  0  0  0  0  0
   12.2785   -4.5177    0.0000 C   0  0  0  0  0  0  0  0  0  0  0  0
   13.5693   -4.1789    0.0000 C   0  0  0  0  0  0  0  0  0  0  0  0
   14.5051   -5.1147    0.0000 N   0  0  0  0  0  0  0  0  0  0  0  0
   14.1663   -6.4055    0.0000 C   0  0  0  0  0  0  0  0  0  0  0  0
   15.1021   -7.3413    0.0000 C   0  0  0  0  0  0  0  0  0  0  0  0
   15.7959   -4.7759    0.0000 C   0  0  0  0  0  0  0  0  0  0  0  0
   16.1347   -3.4851    0.0000 C   0  0  0  0  0  0  0  0  0  0  0  0
    9.7131   -5.2115    0.0000 C   0  0  0  0  0  0  0  0  0  0  0  0
   10.6489   -6.1473    0.0000 I   0  0  0  0  0  0  0  0  0  0  0  0
    8.4223   -5.5503    0.0000 C   0  0  0  0  0  0  0  0  0  0  0  0
  1  2  2  0  0  0  0
  1  6  1  0  0  0  0
  2  3  1  0  0  0  0
  3  4  2  0  0  0  0
  4  5  1  0  0  0  0
  4 13  1  0  0  0  0
  5  6  2  0  0  0  0
  5  7  1  0  0  0  0
  7  8  1  0  0  0  0
  8  9  1  0  0  0  0
  8 13  2  0  0  0  0
  9 10  1  0  0  0  0
 10 11  1  0  0  0  0
 11 12  1  0  0  0  0
 13 14  1  0  0  0  0
 14 15  2  0  0  0  0
 14 16  1  0  0  0  0
 16 17  2  0  0  0  0
 16 31  1  0  0  0  0
 17 18  1  0  0  0  0
 18 19  1  0  0  0  0
 18 20  2  0  0  0  0
 20 21  1  0  0  0  0
 20 29  1  0  0  0  0
 21 22  1  0  0  0  0
 22 23  1  0  0  0  0
 23 24  1  0  0  0  0
 24 25  1  0  0  0  0
 24 27  1  0  0  0  0
 25 26  1  0  0  0  0
 27 28  1  0  0  0  0
 29 30  1  0  0  0  0
 29 31  2  0  0  0  0
M  END
> <ID>
2348

> <Formula>
C25H29I2NO3

> <FW>
645.3116

> <DSSTox_CID>
2592

> <DSSTox_RID>
76649

> <DSSTox_GSID>
22592

> <DSSTox_FileID_Sort>
1333

> <TS_ChemName>
Amiodarone

> <TS_ChemName_Synonyms>


> <TS_CASRN>
1951-25-3

> <CASRN_ChemName_Relationship>
primary

> <TS_Description>
single chemical compound

> <ChemNote>


> <STRUCTURE_Shown>
tested chemical

> <STRUCTURE_Formula>
C25H29I2NO3

> <STRUCTURE_MW>
645.3116

> <STRUCTURE_ChemType>
defined organic

> <STRUCTURE_DefinedOrganicForm>
parent

> <STRUCTURE_IUPAC>
(2-butyl-1-benzofuran-3-yl){4-[2-(diethylamino)ethoxy]-3,5-diiodophenyl}methanone

> <STRUCTURE_SMILES>
CCN(CC)CCOc1c(I)cc(cc1I)C(=O)c2c3ccccc3oc2CCCC

> <STRUCTURE_SMILES_Desalt>
CCN(CC)CCOc1c(I)cc(cc1I)C(=O)c2c3ccccc3oc2CCCC

> <Substance_modify_yyyymmdd>
20080429

$$$$
