1972-08-3
ChemmineR-0914142331XD

 25 27  0  0  1  0  0  0  0  0  1 V2000
    4.6072   -2.0131    0.0000 C   0  0  0  0  0  0  0  0  0  0  0  0
    3.4658   -2.6668    0.0000 C   0  0  0  0  0  0  0  0  0  0  0  0
    5.7694   -2.6668    0.0000 C   0  0  0  0  0  0  0  0  0  0  0  0
    5.7694   -3.9950    0.0000 O   0  0  0  0  0  0  0  0  0  0  0  0
    4.6072   -4.6695    0.0000 C   0  0  0  0  0  0  0  0  0  0  0  0
    3.4658   -3.9950    0.0000 C   0  0  0  0  0  0  0  0  0  0  0  0
    4.6072   -0.6745    0.0000 C   0  0  0  0  0  0  0  0  0  0  0  0
    2.3036   -2.0131    0.0000 C   0  0  0  0  0  0  0  0  0  0  0  0
    2.3036   -4.6695    0.0000 C   0  0  0  0  0  0  0  0  0  0  0  0
    1.1622   -2.6668    0.0000 C   0  0  0  0  0  0  0  0  0  0  0  0
    6.9108   -2.0131    0.0000 C   0  0  0  0  0  0  0  0  0  0  0  0
    5.7694    0.0000    0.0000 C   0  0  0  0  0  0  0  0  0  0  0  0
    6.9108   -0.6745    0.0000 C   0  0  0  0  0  0  0  0  0  0  0  0
    1.1622   -3.9950    0.0000 C   0  0  0  0  0  0  0  0  0  0  0  0
    3.4658    0.0000    0.0000 O   0  0  0  0  0  0  0  0  0  0  0  0
    5.2817   -5.8109    0.0000 C   0  0  0  0  0  0  0  0  0  0  0  0
    3.9535   -5.8109    0.0000 C   0  0  0  0  0  0  0  0  0  0  0  0
    0.0000   -2.0131    0.0000 C   0  0  0  0  0  0  0  0  0  0  0  0
    8.0730    0.0000    0.0000 C   0  0  0  0  0  0  0  0  0  0  0  0
    9.2144   -0.6745    0.0000 C   0  0  0  0  0  0  0  0  0  0  0  0
   10.3766   -2.6668    0.0000 C   0  0  0  0  0  0  0  0  0  0  0  0
    9.2144   -2.0131    0.0000 C   0  0  0  0  0  0  0  0  0  0  0  0
   10.3766   -3.9950    0.0000 C   0  0  0  0  0  0  0  0  0  0  0  0
    3.4658   -1.3386    0.0000 H   0  0  0  0  0  0  0  0  0  0  0  0
    3.4658   -5.3232    0.0000 H   0  0  0  0  0  0  0  0  0  0  0  0
  1  2  1  0  0  0  0
  1  3  1  0  0  0  0
  1  7  2  0  0  0  0
  2  6  1  0  0  0  0
  2  8  1  0  0  0  0
  2 24  1  6  0  0  0
  3  4  1  0  0  0  0
  3 11  2  0  0  0  0
  4  5  1  0  0  0  0
  5 16  1  0  0  0  0
  5 17  1  0  0  0  0
  5  6  1  0  0  0  0
  6  9  1  0  0  0  0
  6 25  1  1  0  0  0
  7 12  1  0  0  0  0
  7 15  1  0  0  0  0
  8 10  2  0  0  0  0
  9 14  1  0  0  0  0
 10 14  1  0  0  0  0
 10 18  1  0  0  0  0
 11 13  1  0  0  0  0
 12 13  2  0  0  0  0
 13 19  1  0  0  0  0
 19 20  1  0  0  0  0
 20 22  1  0  0  0  0
 21 22  1  0  0  0  0
 21 23  1  0  0  0  0
M  END
> <ID>
1274

> <Formula>
C21H30O2

> <FW>
314.4617

> <DSSTox_CID>
1327

> <DSSTox_RID>
76083

> <DSSTox_GSID>
21327

> <DSSTox_FileID_Sort>
767

> <TS_ChemName>
1-trans-delta-9-Tetrahydrocannabinol

> <TS_ChemName_Synonyms>
THC

> <TS_CASRN>
1972-08-3

> <CASRN_ChemName_Relationship>
primary

> <TS_Description>
single chemical compound

> <ChemNote>
stereochem

> <STRUCTURE_Shown>
tested chemical

> <STRUCTURE_Formula>
C21H30O2

> <STRUCTURE_MW>
314.4617

> <STRUCTURE_ChemType>
defined organic

> <STRUCTURE_DefinedOrganicForm>
parent

> <STRUCTURE_IUPAC>
(6aR,10aR)-6,6,9-trimethyl-3-pentyl-6a,7,8,10a-tetrahydro-6H-benzo[c]chromen-1-ol

> <STRUCTURE_SMILES>
CCCCCc2cc1OC(C)(C)[C@@H]3CCC(C)=C[C@H]3c1c(O)c2

> <STRUCTURE_SMILES_Desalt>
CCCCCc2cc1OC(C)(C)[C@@H]3CCC(C)=C[C@H]3c1c(O)c2

> <Substance_modify_yyyymmdd>
20080429

$$$$
