2011-67-8
ChemmineR-0914142331XD

 22 24  0  0  0  0  0  0  0  0  2 V2000
    6.7428   -5.5235    0.0000 C   0  0  0  0  0  0  0  0  0  0  0  0
    5.5972   -6.1864    0.0000 C   0  0  0  0  0  0  0  0  0  0  0  0
    5.5972   -7.5202    0.0000 N   0  3  0  0  0  0  0  0  0  0  0  0
    4.4434   -8.1830    0.0000 O   0  5  0  0  0  0  0  0  0  0  0  0
    6.7428   -8.1830    0.0000 O   0  0  0  0  0  0  0  0  0  0  0  0
    4.4434   -5.5235    0.0000 C   0  0  0  0  0  0  0  0  0  0  0  0
    4.4434   -4.1897    0.0000 C   0  0  0  0  0  0  0  0  0  0  0  0
    5.5972   -3.5269    0.0000 C   0  0  0  0  0  0  0  0  0  0  0  0
    6.7428   -4.1897    0.0000 C   0  0  0  0  0  0  0  0  0  0  0  0
    5.8099   -2.1930    0.0000 N   0  0  0  0  0  0  0  0  0  0  0  0
    7.0619   -1.8248    0.0000 C   0  0  0  0  0  0  0  0  0  0  0  0
    4.8689   -1.2520    0.0000 C   0  0  0  0  0  0  0  0  0  0  0  0
    5.3762    0.0000    0.0000 O   0  0  0  0  0  0  0  0  0  0  0  0
    3.5596   -1.3338    0.0000 C   0  0  0  0  0  0  0  0  0  0  0  0
    2.8150   -2.4385    0.0000 N   0  0  0  0  0  0  0  0  0  0  0  0
    3.1832   -3.6905    0.0000 C   0  0  0  0  0  0  0  0  0  0  0  0
    2.2421   -4.6316    0.0000 C   0  0  0  0  0  0  0  0  0  0  0  0
    2.5040   -5.8918    0.0000 C   0  0  0  0  0  0  0  0  0  0  0  0
    1.5630   -6.8328    0.0000 C   0  0  0  0  0  0  0  0  0  0  0  0
    0.2782   -6.4237    0.0000 C   0  0  0  0  0  0  0  0  0  0  0  0
    0.0000   -5.1389    0.0000 C   0  0  0  0  0  0  0  0  0  0  0  0
    0.9410   -4.1979    0.0000 C   0  0  0  0  0  0  0  0  0  0  0  0
  1  2  2  0  0  0  0
  1  9  1  0  0  0  0
  2  3  1  0  0  0  0
  2  6  1  0  0  0  0
  3  4  1  0  0  0  0
  3  5  2  0  0  0  0
  6  7  2  0  0  0  0
  7  8  1  0  0  0  0
  7 16  1  0  0  0  0
  8  9  2  0  0  0  0
  8 10  1  0  0  0  0
 10 11  1  0  0  0  0
 10 12  1  0  0  0  0
 12 13  2  0  0  0  0
 12 14  1  0  0  0  0
 14 15  1  0  0  0  0
 15 16  2  0  0  0  0
 16 17  1  0  0  0  0
 17 18  2  0  0  0  0
 17 22  1  0  0  0  0
 18 19  1  0  0  0  0
 19 20  2  0  0  0  0
 20 21  1  0  0  0  0
 21 22  2  0  0  0  0
M  END
> <ID>
3022

> <Formula>
C16H13N3O3

> <FW>
295.2927

> <DSSTox_CID>
3369

> <DSSTox_RID>
76997

> <DSSTox_GSID>
23369

> <DSSTox_FileID_Sort>
1681

> <TS_ChemName>
Nimetazepam

> <TS_ChemName_Synonyms>


> <TS_CASRN>
2011-67-8

> <CASRN_ChemName_Relationship>
primary

> <TS_Description>
single chemical compound

> <ChemNote>


> <STRUCTURE_Shown>
tested chemical

> <STRUCTURE_Formula>
C16H13N3O3

> <STRUCTURE_MW>
295.2927

> <STRUCTURE_ChemType>
defined organic

> <STRUCTURE_DefinedOrganicForm>
parent

> <STRUCTURE_IUPAC>
1-methyl-7-nitro-5-phenyl-1,3-dihydro-2H-1,4-benzodiazepin-2-one

> <STRUCTURE_SMILES>
[O-][N+](=O)c1ccc2c(c1)C(=NCC(=O)N2C)c3ccccc3

> <STRUCTURE_SMILES_Desalt>
[O-][N+](=O)c1ccc2c(c1)C(=NCC(=O)N2C)c3ccccc3

> <Substance_modify_yyyymmdd>
20080429

$$$$
