2030-63-9
ChemmineR-0914142331XD

 33 37  0  0  0  0  0  0  0  0  1 V2000
    7.3292  -10.3675    0.0000 C    0  0  0  0  0  0  0  0  0  0  0  0
    5.9966  -10.3675    0.0000 C    0  0  0  0  0  0  0  0  0  0  0  0
    5.3436   -9.2081    0.0000 C    0  0  0  0  0  0  0  0  0  0  0  0
    5.9966   -8.0621    0.0000 C    0  0  0  0  0  0  0  0  0  0  0  0
    7.3292   -8.0621    0.0000 C    0  0  0  0  0  0  0  0  0  0  0  0
    7.9955   -9.2081    0.0000 C    0  0  0  0  0  0  0  0  0  0  0  0
    7.9955   -6.9028    0.0000 N    0  0  0  0  0  0  0  0  0  0  0  0
    9.3281   -6.9028    0.0000 C    0  0  0  0  0  0  0  0  0  0  0  0
    9.9944   -5.7701    0.0000 C    0  0  0  0  0  0  0  0  0  0  0  0
   11.3269   -5.7701    0.0000 C    0  0  0  0  0  0  0  0  0  0  0  0
   11.9932   -6.9028    0.0000 C    0  0  0  0  0  0  0  0  0  0  0  0
   13.3258   -6.9028    0.0000 Cl   0  0  0  0  0  0  0  0  0  0  0  0
   11.3269   -8.0621    0.0000 C    0  0  0  0  0  0  0  0  0  0  0  0
    9.9944   -8.0621    0.0000 C    0  0  0  0  0  0  0  0  0  0  0  0
    7.3292   -5.7701    0.0000 C    0  0  0  0  0  0  0  0  0  0  0  0
    5.9966   -5.7701    0.0000 C    0  0  0  0  0  0  0  0  0  0  0  0
    5.3436   -6.9028    0.0000 N    0  0  0  0  0  0  0  0  0  0  0  0
    5.3436   -4.5974    0.0000 C    0  0  0  0  0  0  0  0  0  0  0  0
    5.9966   -3.4381    0.0000 C    0  0  0  0  0  0  0  0  0  0  0  0
    5.3436   -2.3054    0.0000 N    0  0  0  0  0  0  0  0  0  0  0  0
    3.9977   -2.3054    0.0000 C    0  0  0  0  0  0  0  0  0  0  0  0
    3.3315   -3.4381    0.0000 C    0  0  0  0  0  0  0  0  0  0  0  0
    1.9989   -3.4381    0.0000 C    0  0  0  0  0  0  0  0  0  0  0  0
    1.3326   -2.3054    0.0000 C    0  0  0  0  0  0  0  0  0  0  0  0
    0.0000   -2.3054    0.0000 Cl   0  0  0  0  0  0  0  0  0  0  0  0
    1.9989   -1.1327    0.0000 C    0  0  0  0  0  0  0  0  0  0  0  0
    3.3315   -1.1327    0.0000 C    0  0  0  0  0  0  0  0  0  0  0  0
    7.3292   -3.4381    0.0000 C    0  0  0  0  0  0  0  0  0  0  0  0
    7.9955   -2.3054    0.0000 N    0  0  0  0  0  0  0  0  0  0  0  0
    7.3292   -1.1327    0.0000 C    0  0  0  0  0  0  0  0  0  0  0  0
    7.9955    0.0000    0.0000 C    0  0  0  0  0  0  0  0  0  0  0  0
    5.9966   -1.1327    0.0000 C    0  0  0  0  0  0  0  0  0  0  0  0
    7.9955   -4.5974    0.0000 C    0  0  0  0  0  0  0  0  0  0  0  0
  1  2  2  0  0  0  0
  1  6  1  0  0  0  0
  2  3  1  0  0  0  0
  3  4  2  0  0  0  0
  4  5  1  0  0  0  0
  4 17  1  0  0  0  0
  5  6  2  0  0  0  0
  5  7  1  0  0  0  0
  7  8  1  0  0  0  0
  7 15  1  0  0  0  0
  8  9  2  0  0  0  0
  8 14  1  0  0  0  0
  9 10  1  0  0  0  0
 10 11  2  0  0  0  0
 11 12  1  0  0  0  0
 11 13  1  0  0  0  0
 13 14  2  0  0  0  0
 15 16  1  0  0  0  0
 15 33  2  0  0  0  0
 16 17  2  0  0  0  0
 16 18  1  0  0  0  0
 18 19  2  0  0  0  0
 19 20  1  0  0  0  0
 19 28  1  0  0  0  0
 20 21  1  0  0  0  0
 21 22  2  0  0  0  0
 21 27  1  0  0  0  0
 22 23  1  0  0  0  0
 23 24  2  0  0  0  0
 24 25  1  0  0  0  0
 24 26  1  0  0  0  0
 26 27  2  0  0  0  0
 28 29  2  0  0  0  0
 28 33  1  0  0  0  0
 29 30  1  0  0  0  0
 30 31  1  0  0  0  0
 30 32  1  0  0  0  0
M  END
> <ID>
2566

> <Formula>
C27H22Cl2N4

> <FW>
473.3964

> <DSSTox_CID>
2839

> <DSSTox_RID>
76752

> <DSSTox_GSID>
22839

> <DSSTox_FileID_Sort>
1436

> <TS_ChemName>
Clofazimine

> <TS_ChemName_Synonyms>


> <TS_CASRN>
2030-63-9

> <CASRN_ChemName_Relationship>
primary

> <TS_Description>
single chemical compound

> <ChemNote>
stereochem

> <STRUCTURE_Shown>
tested chemical

> <STRUCTURE_Formula>
C27H22Cl2N4

> <STRUCTURE_MW>
473.3964

> <STRUCTURE_ChemType>
defined organic

> <STRUCTURE_DefinedOrganicForm>
parent

> <STRUCTURE_IUPAC>
(3Z)-N,5-bis(4-chlorophenyl)-3-(propan-2-ylimino)-3,5-dihydrophenazin-2-amine

> <STRUCTURE_SMILES>
Clc1ccc(cc1)NC3=CC4=Nc2ccccc2N(C4=C\C3=N\C(C)C)c5ccc(Cl)cc5

> <STRUCTURE_SMILES_Desalt>
Clc1ccc(cc1)NC3=CC4=Nc2ccccc2N(C4=C\C3=N\C(C)C)c5ccc(Cl)cc5

> <Substance_modify_yyyymmdd>
20080429

$$$$
