2032-59-9
ChemmineR-0914142331XD

 15 15  0  0  0  0  0  0  0  0  1 V2000
    9.2114   -3.3253    0.0000 C   0  0  0  0  0  0  0  0  0  0  0  0
    8.0600   -3.9886    0.0000 N   0  0  0  0  0  0  0  0  0  0  0  0
    6.9086   -3.3253    0.0000 C   0  0  0  0  0  0  0  0  0  0  0  0
    6.9086   -1.9897    0.0000 O   0  0  0  0  0  0  0  0  0  0  0  0
    5.7571   -3.9886    0.0000 O   0  0  0  0  0  0  0  0  0  0  0  0
    4.6057   -3.3253    0.0000 C   0  0  0  0  0  0  0  0  0  0  0  0
    3.4543   -3.9886    0.0000 C   0  0  0  0  0  0  0  0  0  0  0  0
    2.3029   -3.3253    0.0000 C   0  0  0  0  0  0  0  0  0  0  0  0
    1.1514   -3.9886    0.0000 C   0  0  0  0  0  0  0  0  0  0  0  0
    2.3029   -1.9897    0.0000 C   0  0  0  0  0  0  0  0  0  0  0  0
    1.1514   -1.3264    0.0000 N   0  0  0  0  0  0  0  0  0  0  0  0
    0.0000   -1.9897    0.0000 C   0  0  0  0  0  0  0  0  0  0  0  0
    1.1514    0.0000    0.0000 C   0  0  0  0  0  0  0  0  0  0  0  0
    3.4543   -1.3264    0.0000 C   0  0  0  0  0  0  0  0  0  0  0  0
    4.6057   -1.9897    0.0000 C   0  0  0  0  0  0  0  0  0  0  0  0
  1  2  1  0  0  0  0
  2  3  1  0  0  0  0
  3  4  2  0  0  0  0
  3  5  1  0  0  0  0
  5  6  1  0  0  0  0
  6  7  2  0  0  0  0
  6 15  1  0  0  0  0
  7  8  1  0  0  0  0
  8  9  1  0  0  0  0
  8 10  2  0  0  0  0
 10 11  1  0  0  0  0
 10 14  1  0  0  0  0
 11 12  1  0  0  0  0
 11 13  1  0  0  0  0
 14 15  2  0  0  0  0
M  END
> <ID>
2011

> <Formula>
C11H16N2O2

> <FW>
208.2569

> <DSSTox_CID>
2172

> <DSSTox_RID>
76513

> <DSSTox_GSID>
22172

> <DSSTox_FileID_Sort>
1197

> <TS_ChemName>
Aminocarb

> <TS_ChemName_Synonyms>


> <TS_CASRN>
2032-59-9

> <CASRN_ChemName_Relationship>
primary

> <TS_Description>
single chemical compound

> <ChemNote>


> <STRUCTURE_Shown>
tested chemical

> <STRUCTURE_Formula>
C11H16N2O2

> <STRUCTURE_MW>
208.2569

> <STRUCTURE_ChemType>
defined organic

> <STRUCTURE_DefinedOrganicForm>
parent

> <STRUCTURE_IUPAC>
4-(dimethylamino)-3-methylphenyl methylcarbamate

> <STRUCTURE_SMILES>
O=C(Oc1cc(C)c(cc1)N(C)C)NC

> <STRUCTURE_SMILES_Desalt>
O=C(Oc1cc(C)c(cc1)N(C)C)NC

> <Substance_modify_yyyymmdd>
20080429

$$$$
