2058-46-0
ChemmineR-0914142331XD

 36 38  0  0  1  0  0  0  0  0  1 V2000
    6.8958   -3.9878    0.0000 C    0  0  0  0  0  0  0  0  0  0  0  0
    4.6068   -3.9878    0.0000 C    0  0  0  0  0  0  0  0  0  0  0  0
    6.8958   -2.6489    0.0000 C    0  0  0  0  0  0  0  0  0  0  0  0
    9.2136   -3.9878    0.0000 C    0  0  0  0  0  0  0  0  0  0  0  0
    5.7441   -4.6356    0.0000 C    0  0  0  0  0  0  0  0  0  0  0  0
    4.6068   -2.6489    0.0000 C    0  0  0  0  0  0  0  0  0  0  0  0
    8.0763   -4.6356    0.0000 C    0  0  0  0  0  0  0  0  0  0  0  0
    9.2136   -2.6489    0.0000 C    0  0  0  0  0  0  0  0  0  0  0  0
    3.4695   -4.6356    0.0000 C    0  0  0  0  0  0  0  0  0  0  0  0
    3.4695   -2.0011    0.0000 C    0  0  0  0  0  0  0  0  0  0  0  0
    8.0763   -2.0011    0.0000 C    0  0  0  0  0  0  0  0  0  0  0  0
    5.7441   -2.0011    0.0000 C    0  0  0  0  0  0  0  0  0  0  0  0
    2.2890   -3.9878    0.0000 C    0  0  0  0  0  0  0  0  0  0  0  0
    2.2890   -2.6489    0.0000 C    0  0  0  0  0  0  0  0  0  0  0  0
   10.3509   -4.6356    0.0000 C    0  0  0  0  0  0  0  0  0  0  0  0
    8.0763   -0.6478    0.0000 N    0  0  0  0  0  0  0  0  0  0  0  0
    8.0763   -5.9744    0.0000 O    0  0  0  0  0  0  0  0  0  0  0  0
    3.4695   -5.9744    0.0000 O    0  0  0  0  0  0  0  0  0  0  0  0
    1.1373   -4.6356    0.0000 C    0  0  0  0  0  0  0  0  0  0  0  0
    6.8958   -5.3266    0.0000 O    0  0  0  0  0  0  0  0  0  0  0  0
   10.3509   -5.9888    0.0000 O    0  0  0  0  0  0  0  0  0  0  0  0
    5.7441   -5.9744    0.0000 O    0  0  0  0  0  0  0  0  0  0  0  0
   10.3941   -2.0011    0.0000 O    0  0  0  0  0  0  0  0  0  0  0  0
    5.7441   -0.6766    0.0000 O    0  0  0  0  0  0  0  0  0  0  0  0
   11.5314   -3.9878    0.0000 N    0  0  0  0  0  0  0  0  0  0  0  0
    1.1373   -2.0011    0.0000 C    0  0  0  0  0  0  0  0  0  0  0  0
    1.1373   -5.9744    0.0000 O    0  0  0  0  0  0  0  0  0  0  0  0
    0.0000   -2.6489    0.0000 C    0  0  0  0  0  0  0  0  0  0  0  0
    0.0000   -3.9878    0.0000 C    0  0  0  0  0  0  0  0  0  0  0  0
    9.2136    0.0000    0.0000 C    0  0  0  0  0  0  0  0  0  0  0  0
    6.8958    0.0000    0.0000 C    0  0  0  0  0  0  0  0  0  0  0  0
    6.8958   -1.3101    0.0000 H    0  0  0  0  0  0  0  0  0  0  0  0
    4.6068   -1.3245    0.0000 H    0  0  0  0  0  0  0  0  0  0  0  0
    2.7929   -0.8350    0.0000 O    0  0  0  0  0  0  0  0  0  0  0  0
    4.1173   -0.8638    0.0000 C    0  0  0  0  0  0  0  0  0  0  0  0
   14.3962   -2.7497    0.0000 Cl   0  0  0  0  0  0  0  0  0  0  0  0
  1  3  1  0  0  0  0
  1  5  1  0  0  0  0
  1  7  1  0  0  0  0
  1 20  1  6  0  0  0
  2  5  2  0  0  0  0
  2  6  1  0  0  0  0
  2  9  1  0  0  0  0
  3 11  1  0  0  0  0
  3 12  1  0  0  0  0
  3 32  1  6  0  0  0
  4  7  1  0  0  0  0
  4  8  2  0  0  0  0
  4 15  1  0  0  0  0
  5 22  1  0  0  0  0
  6 10  1  0  0  0  0
  6 12  1  0  0  0  0
  6 33  1  6  0  0  0
  7 17  2  0  0  0  0
  8 23  1  0  0  0  0
  8 11  1  0  0  0  0
  9 13  1  0  0  0  0
  9 18  2  0  0  0  0
 10 14  1  0  0  0  0
 10 34  1  1  0  0  0
 10 35  1  6  0  0  0
 11 16  1  6  0  0  0
 12 24  1  6  0  0  0
 13 14  2  0  0  0  0
 13 19  1  0  0  0  0
 14 26  1  0  0  0  0
 15 21  2  0  0  0  0
 15 25  1  0  0  0  0
 16 30  1  0  0  0  0
 16 31  1  0  0  0  0
 19 27  1  0  0  0  0
 19 29  2  0  0  0  0
 26 28  2  0  0  0  0
 28 29  1  0  0  0  0
M  END
> <ID>
1056

> <Formula>
C22H25ClN2O9

> <FW>
496.8949 (460.4340+36.4609)

> <DSSTox_CID>
1097

> <DSSTox_RID>
75939

> <DSSTox_GSID>
21097

> <DSSTox_FileID_Sort>
623

> <TS_ChemName>
Oxytetracycline hydrochloride

> <TS_ChemName_Synonyms>
Oxytetracycline hydrochloride (2-Naphthacenecarboxamide, 4-(dimethylamino)-1,4,4a,5,5a,6,11,12a-octahydro-3,5,6,10,12,12a-hexahydroxy-6-methyl-1,11-dioxo-, (4S-(4.alpha.,4a.alpha.,5.alpha.,5a.alpha.,6.beta.,12a.alpha.))- )

> <TS_CASRN>
2058-46-0

> <CASRN_ChemName_Relationship>
primary

> <TS_Description>
single chemical compound

> <ChemNote>
stereochem; parent [79-57-2]

> <STRUCTURE_Shown>
tested chemical

> <STRUCTURE_Formula>
C22H25ClN2O9

> <STRUCTURE_MW>
496.8949

> <STRUCTURE_ChemType>
defined organic

> <STRUCTURE_DefinedOrganicForm>
complex

> <STRUCTURE_IUPAC>
(4S,4aR,5S,5aR,6S,12aS)-4-(dimethylamino)-3,5,6,10,12,12a-hexahydroxy-6-methyl-1,11-dioxo-1,4,4a,5,5a,6,11,12a-octahydrotetracene-2-carboxamide hydrochloride (1:1)

> <STRUCTURE_SMILES>
Cl.NC(=O)C=3C(=O)[C@@]4(O)C(O)=C2C(=O)c1c(O)cccc1[C@@](C)(O)[C@H]2[C@H](O)[C@H]4[C@@H](C=3O)N(C)C

> <STRUCTURE_SMILES_Desalt>
NC(=O)C=3C(=O)[C@@]4(O)C(O)=C2C(=O)c1c(O)cccc1[C@@](C)(O)[C@H]2[C@H](O)[C@H]4[C@@H](C=3O)N(C)C

> <Substance_modify_yyyymmdd>
20080429

$$$$
