20624-25-3
ChemmineR-0914142331XD

 12  7  0  0  0  0  0  0  0  0  2 V2000
    4.6518   -3.2421    0.0000 N    0  0  0  0  0  0  0  0  0  0  0  0
    5.3163   -2.1044    0.0000 C    0  0  0  0  0  0  0  0  0  0  0  0
    4.6518   -0.9465    0.0000 S    0  5  0  0  0  0  0  0  0  0  0  0
    6.6454   -2.1044    0.0000 S    0  0  0  0  0  0  0  0  0  0  0  0
    5.3163   -4.4000    0.0000 C    0  0  0  0  0  0  0  0  0  0  0  0
    6.6454   -4.4000    0.0000 C    0  0  0  0  0  0  0  0  0  0  0  0
    3.3227   -3.2421    0.0000 C    0  0  0  0  0  0  0  0  0  0  0  0
    2.6582   -4.4000    0.0000 C    0  0  0  0  0  0  0  0  0  0  0  0
    4.4303   -5.9305    0.0000 O    0  0  0  0  0  0  0  0  0  0  0  0
   10.0688   -2.7387    0.0000 O    0  0  0  0  0  0  0  0  0  0  0  0
    0.0000   -1.7721    0.0000 O    0  0  0  0  0  0  0  0  0  0  0  0
    6.9172    0.0000    0.0000 Na   0  3  0  0  0  0  0  0  0  0  0  0
  1  2  1  0  0  0  0
  1  5  1  0  0  0  0
  1  7  1  0  0  0  0
  2  3  1  0  0  0  0
  2  4  2  0  0  0  0
  5  6  1  0  0  0  0
  7  8  1  0  0  0  0
M  END
> <ID>
1226

> <Formula>
C5H16NNaO3S2

> <FW>
225.3052 (148.2701+18.0153+18.0153+18.0153+22.9892)

> <DSSTox_CID>
1275

> <DSSTox_RID>
76051

> <DSSTox_GSID>
21275

> <DSSTox_FileID_Sort>
735

> <TS_ChemName>
Sodium diethyldithiocarbamate trihydrate

> <TS_ChemName_Synonyms>


> <TS_CASRN>
20624-25-3

> <CASRN_ChemName_Relationship>
primary

> <TS_Description>
single chemical compound

> <ChemNote>
parent [147-84-2]

> <STRUCTURE_Shown>
tested chemical

> <STRUCTURE_Formula>
C5H16NNaO3S2

> <STRUCTURE_MW>
225.3052

> <STRUCTURE_ChemType>
defined organic

> <STRUCTURE_DefinedOrganicForm>
salt complex

> <STRUCTURE_IUPAC>
sodium diethylcarbamodithioate hydrate (1:1:3)

> <STRUCTURE_SMILES>
O.[Na+].O.O.CCN(CC)C([S-])=S

> <STRUCTURE_SMILES_Desalt>
CCN(CC)C(=S)S

> <Substance_modify_yyyymmdd>
20080429

$$$$
