2062-78-4
ChemmineR-0914142331XD

 34 38  0  0  0  0  0  0  0  0  1 V2000
    0.0000   -3.8906    0.0000 C   0  0  0  0  0  0  0  0  0  0  0  0
    0.6703   -2.7395    0.0000 C   0  0  0  0  0  0  0  0  0  0  0  0
    1.9963   -2.7395    0.0000 C   0  0  0  0  0  0  0  0  0  0  0  0
    2.6666   -3.8906    0.0000 C   0  0  0  0  0  0  0  0  0  0  0  0
    1.9963   -5.0563    0.0000 C   0  0  0  0  0  0  0  0  0  0  0  0
    0.6703   -5.0563    0.0000 C   0  0  0  0  0  0  0  0  0  0  0  0
    3.9635   -3.6138    0.0000 N   0  0  0  0  0  0  0  0  0  0  0  0
    4.9543   -4.5172    0.0000 C   0  0  0  0  0  0  0  0  0  0  0  0
    6.2221   -4.0946    0.0000 C   0  0  0  0  0  0  0  0  0  0  0  0
    7.1984   -4.9835    0.0000 C   0  0  0  0  0  0  0  0  0  0  0  0
    6.9215   -6.2949    0.0000 N   0  0  0  0  0  0  0  0  0  0  0  0
    7.9124   -7.1838    0.0000 C   0  0  0  0  0  0  0  0  0  0  0  0
    9.1801   -6.7758    0.0000 C   0  0  0  0  0  0  0  0  0  0  0  0
    9.5298   -5.4789    0.0000 C   0  0  0  0  0  0  0  0  0  0  0  0
   10.8121   -5.1438    0.0000 C   0  0  0  0  0  0  0  0  0  0  0  0
   11.7447   -6.0763    0.0000 C   0  0  0  0  0  0  0  0  0  0  0  0
   13.0416   -5.7412    0.0000 C   0  0  0  0  0  0  0  0  0  0  0  0
   13.9741   -6.6738    0.0000 C   0  0  0  0  0  0  0  0  0  0  0  0
   13.6244   -7.9561    0.0000 C   0  0  0  0  0  0  0  0  0  0  0  0
   14.5716   -8.9032    0.0000 F   0  0  0  0  0  0  0  0  0  0  0  0
   12.3421   -8.3058    0.0000 C   0  0  0  0  0  0  0  0  0  0  0  0
   11.4095   -7.3732    0.0000 C   0  0  0  0  0  0  0  0  0  0  0  0
   11.1473   -3.8615    0.0000 C   0  0  0  0  0  0  0  0  0  0  0  0
   10.2147   -2.9143    0.0000 C   0  0  0  0  0  0  0  0  0  0  0  0
   10.5644   -1.6320    0.0000 C   0  0  0  0  0  0  0  0  0  0  0  0
   11.8467   -1.2823    0.0000 C   0  0  0  0  0  0  0  0  0  0  0  0
   12.1818    0.0000    0.0000 F   0  0  0  0  0  0  0  0  0  0  0  0
   12.7793   -2.2295    0.0000 C   0  0  0  0  0  0  0  0  0  0  0  0
   12.4441   -3.5118    0.0000 C   0  0  0  0  0  0  0  0  0  0  0  0
    5.6683   -6.7029    0.0000 C   0  0  0  0  0  0  0  0  0  0  0  0
    4.6775   -5.8141    0.0000 C   0  0  0  0  0  0  0  0  0  0  0  0
    4.0946   -2.3023    0.0000 C   0  0  0  0  0  0  0  0  0  0  0  0
    5.2458   -1.6320    0.0000 O   0  0  0  0  0  0  0  0  0  0  0  0
    2.8852   -1.7632    0.0000 N   0  0  0  0  0  0  0  0  0  0  0  0
  1  2  2  0  0  0  0
  1  6  1  0  0  0  0
  2  3  1  0  0  0  0
  3  4  2  0  0  0  0
  3 34  1  0  0  0  0
  4  5  1  0  0  0  0
  4  7  1  0  0  0  0
  5  6  2  0  0  0  0
  7  8  1  0  0  0  0
  7 32  1  0  0  0  0
  8  9  1  0  0  0  0
  8 31  1  0  0  0  0
  9 10  1  0  0  0  0
 10 11  1  0  0  0  0
 11 12  1  0  0  0  0
 11 30  1  0  0  0  0
 12 13  1  0  0  0  0
 13 14  1  0  0  0  0
 14 15  1  0  0  0  0
 15 16  1  0  0  0  0
 15 23  1  0  0  0  0
 16 17  2  0  0  0  0
 16 22  1  0  0  0  0
 17 18  1  0  0  0  0
 18 19  2  0  0  0  0
 19 20  1  0  0  0  0
 19 21  1  0  0  0  0
 21 22  2  0  0  0  0
 23 24  2  0  0  0  0
 23 29  1  0  0  0  0
 24 25  1  0  0  0  0
 25 26  2  0  0  0  0
 26 27  1  0  0  0  0
 26 28  1  0  0  0  0
 28 29  2  0  0  0  0
 30 31  1  0  0  0  0
 32 33  2  0  0  0  0
 32 34  1  0  0  0  0
M  END
> <ID>
3113

> <Formula>
C28H29F2N3O

> <FW>
461.5462

> <DSSTox_CID>
3474

> <DSSTox_RID>
77042

> <DSSTox_GSID>
23474

> <DSSTox_FileID_Sort>
1725

> <TS_ChemName>
Pimozide

> <TS_ChemName_Synonyms>


> <TS_CASRN>
2062-78-4

> <CASRN_ChemName_Relationship>
primary

> <TS_Description>
single chemical compound

> <ChemNote>


> <STRUCTURE_Shown>
tested chemical

> <STRUCTURE_Formula>
C28H29F2N3O

> <STRUCTURE_MW>
461.5462

> <STRUCTURE_ChemType>
defined organic

> <STRUCTURE_DefinedOrganicForm>
parent

> <STRUCTURE_IUPAC>
1-{1-[4,4-bis(4-fluorophenyl)butyl]piperidin-4-yl}-1,3-dihydro-2H-benzimidazol-2-one

> <STRUCTURE_SMILES>
Fc1ccc(cc1)C(CCCN2CCC(CC2)N3c4ccccc4NC3=O)c5ccc(F)cc5

> <STRUCTURE_SMILES_Desalt>
Fc1ccc(cc1)C(CCCN2CCC(CC2)N3c4ccccc4NC3=O)c5ccc(F)cc5

> <Substance_modify_yyyymmdd>
20080429

$$$$
