2098-66-0
ChemmineR-0914142331XD

 29 33  0  0  1  0  0  0  0  0  1 V2000
    3.4572   -4.7289    0.0000 C    0  0  0  0  0  0  0  0  0  0  0  0
    3.4572   -6.0601    0.0000 C    0  0  0  0  0  0  0  0  0  0  0  0
    2.3346   -4.0732    0.0000 C    0  0  0  0  0  0  0  0  0  0  0  0
    1.1524   -4.7587    0.0000 C    0  0  0  0  0  0  0  0  0  0  0  0
    6.8946   -2.7420    0.0000 C    0  0  0  0  0  0  0  0  0  0  0  0
    4.6196   -4.0732    0.0000 C    0  0  0  0  0  0  0  0  0  0  0  0
    5.7521   -4.7587    0.0000 C    0  0  0  0  0  0  0  0  0  0  0  0
    1.1524   -3.4175    0.0000 C    0  0  0  0  0  0  0  0  0  0  0  0
    4.6196   -6.7357    0.0000 C    0  0  0  0  0  0  0  0  0  0  0  0
    2.3346   -6.7357    0.0000 C    0  0  0  0  0  0  0  0  0  0  0  0
    8.1365   -2.3247    0.0000 C    0  0  0  0  0  0  0  0  0  0  0  0
    5.7521   -6.0899    0.0000 C    0  0  0  0  0  0  0  0  0  0  0  0
    6.8946   -4.0732    0.0000 C    0  0  0  0  0  0  0  0  0  0  0  0
    1.1524   -6.0601    0.0000 C    0  0  0  0  0  0  0  0  0  0  0  0
    5.7323   -2.1161    0.0000 C    0  0  0  0  0  0  0  0  0  0  0  0
    4.6196   -2.7420    0.0000 C    0  0  0  0  0  0  0  0  0  0  0  0
    8.9213   -3.4175    0.0000 C    0  0  0  0  0  0  0  0  0  0  0  0
    8.1365   -4.4905    0.0000 C    0  0  0  0  0  0  0  0  0  0  0  0
    8.5736   -1.1723    0.0000 C    0  0  0  0  0  0  0  0  0  0  0  0
    0.0000   -6.8748    0.0000 O    0  0  0  0  0  0  0  0  0  0  0  0
    7.8881    0.0000    0.0000 O    0  0  0  0  0  0  0  0  0  0  0  0
    4.6196   -8.0768    0.0000 Cl   0  0  0  0  0  0  0  0  0  0  0  0
    9.5372   -2.3247    0.0000 O    0  0  0  0  0  0  0  0  0  0  0  0
    3.4771   -3.3480    0.0000 C    0  0  0  0  0  0  0  0  0  0  0  0
    6.8946   -1.5399    0.0000 C    0  0  0  0  0  0  0  0  0  0  0  0
    9.9346   -1.1822    0.0000 C    0  0  0  0  0  0  0  0  0  0  0  0
    4.6196   -5.4144    0.0000 H    0  0  0  0  0  0  0  0  0  0  0  0
    5.7521   -3.4274    0.0000 H    0  0  0  0  0  0  0  0  0  0  0  0
    6.8946   -5.4144    0.0000 H    0  0  0  0  0  0  0  0  0  0  0  0
  1  2  1  0  0  0  0
  1  3  1  0  0  0  0
  1  6  1  0  0  0  0
  1 24  1  1  0  0  0
  2  9  1  0  0  0  0
  2 10  2  0  0  0  0
  3  4  1  0  0  0  0
  3  8  1  6  0  0  0
  4 14  1  0  0  0  0
  4  8  1  6  0  0  0
  5 15  1  0  0  0  0
  5 11  1  0  0  0  0
  5 25  1  1  0  0  0
  5 13  1  0  0  0  0
  6  7  1  0  0  0  0
  6 16  1  0  0  0  0
  6 27  1  6  0  0  0
  7 12  1  0  0  0  0
  7 13  1  0  0  0  0
  7 28  1  1  0  0  0
  9 22  1  0  0  0  0
  9 12  2  0  0  0  0
 10 14  1  0  0  0  0
 11 19  1  1  0  0  0
 11 23  1  6  0  0  0
 11 17  1  0  0  0  0
 13 18  1  0  0  0  0
 13 29  1  6  0  0  0
 14 20  2  0  0  0  0
 15 16  1  0  0  0  0
 17 18  1  0  0  0  0
 19 21  2  0  0  0  0
 19 26  1  0  0  0  0
M  END
> <ID>
2596

> <Formula>
C22H27ClO3

> <FW>
374.901

> <DSSTox_CID>
2873

> <DSSTox_RID>
76769

> <DSSTox_GSID>
22873

> <DSSTox_FileID_Sort>
1453

> <TS_ChemName>
Cyproterone

> <TS_ChemName_Synonyms>


> <TS_CASRN>
2098-66-0

> <CASRN_ChemName_Relationship>
primary

> <TS_Description>
single chemical compound

> <ChemNote>
stereochem

> <STRUCTURE_Shown>
tested chemical

> <STRUCTURE_Formula>
C22H27ClO3

> <STRUCTURE_MW>
374.901

> <STRUCTURE_ChemType>
defined organic

> <STRUCTURE_DefinedOrganicForm>
parent

> <STRUCTURE_IUPAC>
(1R,3aS,3bR,7aR,8aS,8bS,8cS,10aS)-1-acetyl-5-chloro-1-hydroxy-8b,10a-dimethyl-2,3,3a,3b,7a,8,8a,8b,8c,9,10,10a-dodecahydrocyclopenta[a]cyclopropa[g]phenanthren-7(1H)-one

> <STRUCTURE_SMILES>
CC(=O)[C@@]4(O)CC[C@H]3[C@@H]5C=C(Cl)C2=CC(=O)[C@@H]1C[C@@H]1[C@]2(C)[C@H]5CC[C@@]34C

> <STRUCTURE_SMILES_Desalt>
CC(=O)[C@@]4(O)CC[C@H]3[C@@H]5C=C(Cl)C2=CC(=O)[C@@H]1C[C@@H]1[C@]2(C)[C@H]5CC[C@@]34C

> <Substance_modify_yyyymmdd>
20080429

$$$$
