2104-64-5
ChemmineR-0914142331XD

 21 22  0  0  0  0  0  0  0  0  2 V2000
    6.6495    0.0000    0.0000 C   0  0  0  0  0  0  0  0  0  0  0  0
    5.4975   -0.6569    0.0000 C   0  0  0  0  0  0  0  0  0  0  0  0
    5.4975   -1.9908    0.0000 O   0  0  0  0  0  0  0  0  0  0  0  0
    6.6495   -2.6578    0.0000 P   0  0  0  0  0  0  0  0  0  0  0  0
    7.3165   -1.5057    0.0000 S   0  0  0  0  0  0  0  0  0  0  0  0
    5.9826   -3.8098    0.0000 O   0  0  0  0  0  0  0  0  0  0  0  0
    4.6587   -3.8098    0.0000 C   0  0  0  0  0  0  0  0  0  0  0  0
    3.9917   -4.9619    0.0000 C   0  0  0  0  0  0  0  0  0  0  0  0
    2.6578   -4.9619    0.0000 C   0  0  0  0  0  0  0  0  0  0  0  0
    1.9908   -3.8098    0.0000 C   0  0  0  0  0  0  0  0  0  0  0  0
    2.6578   -2.6578    0.0000 C   0  0  0  0  0  0  0  0  0  0  0  0
    3.9917   -2.6578    0.0000 C   0  0  0  0  0  0  0  0  0  0  0  0
    0.6670   -3.8098    0.0000 N   0  3  0  0  0  0  0  0  0  0  0  0
    0.0000   -4.9619    0.0000 O   0  0  0  0  0  0  0  0  0  0  0  0
    0.0000   -2.6578    0.0000 O   0  5  0  0  0  0  0  0  0  0  0  0
    7.8016   -3.3248    0.0000 C   0  0  0  0  0  0  0  0  0  0  0  0
    8.9536   -2.6578    0.0000 C   0  0  0  0  0  0  0  0  0  0  0  0
   10.1057   -3.3248    0.0000 C   0  0  0  0  0  0  0  0  0  0  0  0
   10.1057   -4.6486    0.0000 C   0  0  0  0  0  0  0  0  0  0  0  0
    8.9536   -5.3156    0.0000 C   0  0  0  0  0  0  0  0  0  0  0  0
    7.8016   -4.6486    0.0000 C   0  0  0  0  0  0  0  0  0  0  0  0
  1  2  1  0  0  0  0
  2  3  1  0  0  0  0
  3  4  1  0  0  0  0
  4  5  2  0  0  0  0
  4  6  1  0  0  0  0
  4 16  1  0  0  0  0
  6  7  1  0  0  0  0
  7  8  2  0  0  0  0
  7 12  1  0  0  0  0
  8  9  1  0  0  0  0
  9 10  2  0  0  0  0
 10 11  1  0  0  0  0
 10 13  1  0  0  0  0
 11 12  2  0  0  0  0
 13 14  2  0  0  0  0
 13 15  1  0  0  0  0
 16 17  2  0  0  0  0
 16 21  1  0  0  0  0
 17 18  1  0  0  0  0
 18 19  2  0  0  0  0
 19 20  1  0  0  0  0
 20 21  2  0  0  0  0
M  END
> <ID>
2013

> <Formula>
C14H14NO4PS

> <FW>
323.304

> <DSSTox_CID>
2174

> <DSSTox_RID>
76514

> <DSSTox_GSID>
22174

> <DSSTox_FileID_Sort>
1198

> <TS_ChemName>
O-Ethyl O-(4-nitrophenyl) phenylphosphonothioate

> <TS_ChemName_Synonyms>
O-ethyl O-(p-nitrophenyl phenyl)phosphonothioate (EPN)

> <TS_CASRN>
2104-64-5

> <CASRN_ChemName_Relationship>
primary

> <TS_Description>
single chemical compound

> <ChemNote>


> <STRUCTURE_Shown>
tested chemical

> <STRUCTURE_Formula>
C14H14NO4PS

> <STRUCTURE_MW>
323.304

> <STRUCTURE_ChemType>
defined organic

> <STRUCTURE_DefinedOrganicForm>
parent

> <STRUCTURE_IUPAC>
O-ethyl O-(4-nitrophenyl) phenylphosphonothioate

> <STRUCTURE_SMILES>
S=P(OCC)(Oc1ccc(cc1)[N+]([O-])=O)c2ccccc2

> <STRUCTURE_SMILES_Desalt>
S=P(OCC)(Oc1ccc(cc1)[N+]([O-])=O)c2ccccc2

> <Substance_modify_yyyymmdd>
20080429

$$$$
