21436-96-4
ChemmineR-0914142331XD

 10  9  0  0  0  0  0  0  0  0  1 V2000
    1.1520   -1.9953    0.0000 C    0  0  0  0  0  0  0  0  0  0  0  0
    1.1520   -0.6636    0.0000 C    0  0  0  0  0  0  0  0  0  0  0  0
    2.3041    0.0000    0.0000 C    0  0  0  0  0  0  0  0  0  0  0  0
    3.4561   -0.6636    0.0000 C    0  0  0  0  0  0  0  0  0  0  0  0
    3.4561   -1.9953    0.0000 C    0  0  0  0  0  0  0  0  0  0  0  0
    2.3041   -2.6589    0.0000 C    0  0  0  0  0  0  0  0  0  0  0  0
    4.6082   -2.6589    0.0000 C    0  0  0  0  0  0  0  0  0  0  0  0
    0.0000    0.0000    0.0000 N    0  0  0  0  0  0  0  0  0  0  0  0
    0.0000   -2.6589    0.0000 C    0  0  0  0  0  0  0  0  0  0  0  0
    2.3364   -3.6082    0.0000 Cl   0  0  0  0  0  0  0  0  0  0  0  0
  1  2  1  0  0  0  0
  1  6  2  0  0  0  0
  1  9  1  0  0  0  0
  2  3  2  0  0  0  0
  2  8  1  0  0  0  0
  3  4  1  0  0  0  0
  4  5  2  0  0  0  0
  5  6  1  0  0  0  0
  5  7  1  0  0  0  0
M  END
> <ID>
1389

> <Formula>
C8H12ClN

> <FW>
157.6406 (121.1796+36.4609)

> <DSSTox_CID>
1448

> <DSSTox_RID>
76163

> <DSSTox_GSID>
21448

> <DSSTox_FileID_Sort>
847

> <TS_ChemName>
2,4-Dimethylaniline hydrochloride

> <TS_ChemName_Synonyms>
2,4-Xylidine hydrochloride

> <TS_CASRN>
21436-96-4

> <CASRN_ChemName_Relationship>
primary

> <TS_Description>
single chemical compound

> <ChemNote>
parent [95-68-1]

> <STRUCTURE_Shown>
tested chemical

> <STRUCTURE_Formula>
C8H12ClN

> <STRUCTURE_MW>
157.6406

> <STRUCTURE_ChemType>
defined organic

> <STRUCTURE_DefinedOrganicForm>
complex

> <STRUCTURE_IUPAC>
2,4-dimethylaniline hydrochloride (1:1)

> <STRUCTURE_SMILES>
Cl.Cc1ccc(N)c(C)c1

> <STRUCTURE_SMILES_Desalt>
Cc1ccc(N)c(C)c1

> <Substance_modify_yyyymmdd>
20080429

$$$$
