2152-44-5
ChemmineR-0914142331XD

 36 39  0  0  1  0  0  0  0  0  1 V2000
    6.9508   -5.0764    0.0000 C   0  0  0  0  0  0  0  0  0  0  0  0
    4.6469   -6.3780    0.0000 C   0  0  0  0  0  0  0  0  0  0  0  0
    3.4884   -7.0419    0.0000 C   0  0  0  0  0  0  0  0  0  0  0  0
    6.9508   -6.3780    0.0000 C   0  0  0  0  0  0  0  0  0  0  0  0
    5.7923   -7.0419    0.0000 C   0  0  0  0  0  0  0  0  0  0  0  0
    8.2003   -4.6599    0.0000 C   0  0  0  0  0  0  0  0  0  0  0  0
    3.4884   -8.3956    0.0000 C   0  0  0  0  0  0  0  0  0  0  0  0
    4.6469   -5.0764    0.0000 C   0  0  0  0  0  0  0  0  0  0  0  0
    5.7923   -4.3995    0.0000 C   0  0  0  0  0  0  0  0  0  0  0  0
    9.0074   -5.7272    0.0000 C   0  0  0  0  0  0  0  0  0  0  0  0
    2.3690   -6.3780    0.0000 C   0  0  0  0  0  0  0  0  0  0  0  0
    8.2134   -6.7946    0.0000 C   0  0  0  0  0  0  0  0  0  0  0  0
    2.3690   -9.0724    0.0000 C   0  0  0  0  0  0  0  0  0  0  0  0
    8.2003   -3.2932    0.0000 C   0  0  0  0  0  0  0  0  0  0  0  0
    5.7923   -8.3956    0.0000 C   0  0  0  0  0  0  0  0  0  0  0  0
    1.1975   -7.0419    0.0000 C   0  0  0  0  0  0  0  0  0  0  0  0
    1.1975   -8.3956    0.0000 C   0  0  0  0  0  0  0  0  0  0  0  0
    4.6469   -9.0724    0.0000 C   0  0  0  0  0  0  0  0  0  0  0  0
    4.6208   -7.5365    0.0000 F   0  0  0  0  0  0  0  0  0  0  0  0
    7.0549   -2.6423    0.0000 O   0  0  0  0  0  0  0  0  0  0  0  0
    0.0000   -9.0855    0.0000 O   0  0  0  0  0  0  0  0  0  0  0  0
    9.5671   -4.6599    0.0000 O   0  0  0  0  0  0  0  0  0  0  0  0
    6.9508   -3.7097    0.0000 C   0  0  0  0  0  0  0  0  0  0  0  0
    3.4754   -4.3865    0.0000 O   0  0  0  0  0  0  0  0  0  0  0  0
    3.4884   -5.7272    0.0000 C   0  0  0  0  0  0  0  0  0  0  0  0
   10.3350   -5.7142    0.0000 C   0  0  0  0  0  0  0  0  0  0  0  0
    9.3328   -2.6423    0.0000 C   0  0  0  0  0  0  0  0  0  0  0  0
    9.3198   -1.3016    0.0000 O   0  0  0  0  0  0  0  0  0  0  0  0
    5.7923   -5.7142    0.0000 H   0  0  0  0  0  0  0  0  0  0  0  0
    6.9508   -7.7057    0.0000 H   0  0  0  0  0  0  0  0  0  0  0  0
   10.7125   -3.9960    0.0000 C   0  0  0  0  0  0  0  0  0  0  0  0
   11.8710   -4.6599    0.0000 O   0  0  0  0  0  0  0  0  0  0  0  0
   10.7125   -2.6553    0.0000 C   0  0  0  0  0  0  0  0  0  0  0  0
   11.8710   -2.0045    0.0000 C   0  0  0  0  0  0  0  0  0  0  0  0
   11.8710   -0.6899    0.0000 C   0  0  0  0  0  0  0  0  0  0  0  0
   13.0164    0.0000    0.0000 C   0  0  0  0  0  0  0  0  0  0  0  0
  1  4  1  0  0  0  0
  1  6  1  0  0  0  0
  1  9  1  0  0  0  0
  1 23  1  1  0  0  0
  2  8  1  0  0  0  0
  2  3  1  0  0  0  0
  2 19  1  6  0  0  0
  2  5  1  0  0  0  0
  3  7  1  0  0  0  0
  3 11  1  0  0  0  0
  3 25  1  1  0  0  0
  4  5  1  0  0  0  0
  4 12  1  0  0  0  0
  4 30  1  6  0  0  0
  5 15  1  0  0  0  0
  5 29  1  1  0  0  0
  6 10  1  0  0  0  0
  6 14  1  1  0  0  0
  6 22  1  6  0  0  0
  7 13  2  0  0  0  0
  7 18  1  0  0  0  0
  8  9  1  0  0  0  0
  8 24  1  1  0  0  0
 10 26  1  1  0  0  0
 10 12  1  0  0  0  0
 11 16  2  0  0  0  0
 13 17  1  0  0  0  0
 14 20  2  0  0  0  0
 14 27  1  0  0  0  0
 15 18  1  0  0  0  0
 16 17  1  0  0  0  0
 17 21  2  0  0  0  0
 22 31  1  0  0  0  0
 27 28  1  0  0  0  0
 31 32  2  0  0  0  0
 31 33  1  0  0  0  0
 33 34  1  0  0  0  0
 34 35  1  0  0  0  0
 35 36  1  0  0  0  0
M  END
> <ID>
2419

> <Formula>
C27H37FO6

> <FW>
476.5775

> <DSSTox_CID>
2673

> <DSSTox_RID>
76684

> <DSSTox_GSID>
22673

> <DSSTox_FileID_Sort>
1368

> <TS_ChemName>
Betamethasone valerate

> <TS_ChemName_Synonyms>


> <TS_CASRN>
2152-44-5

> <CASRN_ChemName_Relationship>
primary

> <TS_Description>
single chemical compound

> <ChemNote>
stereochem; tautomers

> <STRUCTURE_Shown>
tested chemical

> <STRUCTURE_Formula>
C27H37FO6

> <STRUCTURE_MW>
476.5775

> <STRUCTURE_ChemType>
defined organic

> <STRUCTURE_DefinedOrganicForm>
parent

> <STRUCTURE_IUPAC>
(11beta,16beta)-9-fluoro-11,21-dihydroxy-16-methyl-3,20-dioxopregna-1,4-dien-17-yl pentanoate

> <STRUCTURE_SMILES>
OCC(=O)[C@@]4(OC(=O)CCCC)[C@@H](C)C[C@@H]3[C@]4(C)C[C@H](O)[C@@]2(F)[C@H]3CCC1=CC(=O)C=C[C@@]12C

> <STRUCTURE_SMILES_Desalt>
OCC(=O)[C@@]4(OC(=O)CCCC)[C@@H](C)C[C@@H]3[C@]4(C)C[C@H](O)[C@@]2(F)[C@H]3CCC1=CC(=O)C=C[C@@]12C

> <Substance_modify_yyyymmdd>
20080429

$$$$
