2164-17-2
ChemmineR-0914142331XD

 16 16  0  0  0  0  0  0  0  0  1 V2000
    2.3025   -0.6631    0.0000 O   0  0  0  0  0  0  0  0  0  0  0  0
    2.3025   -1.9893    0.0000 C   0  0  0  0  0  0  0  0  0  0  0  0
    3.4537   -2.6617    0.0000 N   0  0  0  0  0  0  0  0  0  0  0  0
    4.6050   -1.9893    0.0000 C   0  0  0  0  0  0  0  0  0  0  0  0
    4.6050   -0.6631    0.0000 C   0  0  0  0  0  0  0  0  0  0  0  0
    5.7562    0.0000    0.0000 C   0  0  0  0  0  0  0  0  0  0  0  0
    6.9074   -0.6631    0.0000 C   0  0  0  0  0  0  0  0  0  0  0  0
    6.9074   -1.9893    0.0000 C   0  0  0  0  0  0  0  0  0  0  0  0
    5.7562   -2.6617    0.0000 C   0  0  0  0  0  0  0  0  0  0  0  0
    8.0587   -2.6617    0.0000 C   0  0  0  0  0  0  0  0  0  0  0  0
    7.3956   -3.8129    0.0000 F   0  0  0  0  0  0  0  0  0  0  0  0
    8.7218   -1.5104    0.0000 F   0  0  0  0  0  0  0  0  0  0  0  0
    9.2099   -3.3248    0.0000 F   0  0  0  0  0  0  0  0  0  0  0  0
    1.1512   -2.6617    0.0000 N   0  0  0  0  0  0  0  0  0  0  0  0
    1.1512   -3.9879    0.0000 C   0  0  0  0  0  0  0  0  0  0  0  0
    0.0000   -1.9893    0.0000 C   0  0  0  0  0  0  0  0  0  0  0  0
  1  2  2  0  0  0  0
  2  3  1  0  0  0  0
  2 14  1  0  0  0  0
  3  4  1  0  0  0  0
  4  5  2  0  0  0  0
  4  9  1  0  0  0  0
  5  6  1  0  0  0  0
  6  7  2  0  0  0  0
  7  8  1  0  0  0  0
  8  9  2  0  0  0  0
  8 10  1  0  0  0  0
 10 11  1  0  0  0  0
 10 12  1  0  0  0  0
 10 13  1  0  0  0  0
 14 15  1  0  0  0  0
 14 16  1  0  0  0  0
M  END
> <ID>
603

> <Formula>
C10H11F3N2O

> <FW>
232.2023

> <DSSTox_CID>
628

> <DSSTox_RID>
75702

> <DSSTox_GSID>
20628

> <DSSTox_FileID_Sort>
386

> <TS_ChemName>
Fluometuron

> <TS_ChemName_Synonyms>


> <TS_CASRN>
2164-17-2

> <CASRN_ChemName_Relationship>
primary

> <TS_Description>
single chemical compound

> <ChemNote>


> <STRUCTURE_Shown>
tested chemical

> <STRUCTURE_Formula>
C10H11F3N2O

> <STRUCTURE_MW>
232.2023

> <STRUCTURE_ChemType>
defined organic

> <STRUCTURE_DefinedOrganicForm>
parent

> <STRUCTURE_IUPAC>
1,1-dimethyl-3-[3-(trifluoromethyl)phenyl]urea

> <STRUCTURE_SMILES>
O=C(Nc1cc(ccc1)C(F)(F)F)N(C)C

> <STRUCTURE_SMILES_Desalt>
O=C(Nc1cc(ccc1)C(F)(F)F)N(C)C

> <Substance_modify_yyyymmdd>
20080429

$$$$
