2216-51-5
ChemmineR-0914142331XD

 11 11  0  0  1  0  0  0  0  0  1 V2000
    0.0000   -1.9854    0.0000 C   0  0  0  0  0  0  0  0  0  0  0  0
    1.1542   -1.3276    0.0000 C   0  0  0  0  0  0  0  0  0  0  0  0
    2.3024   -1.9854    0.0000 C   0  0  0  0  0  0  0  0  0  0  0  0
    2.3024   -3.3250    0.0000 C   0  0  0  0  0  0  0  0  0  0  0  0
    1.1542   -3.9828    0.0000 C   0  0  0  0  0  0  0  0  0  0  0  0
    0.0000   -3.3250    0.0000 C   0  0  0  0  0  0  0  0  0  0  0  0
    1.1542   -5.3223    0.0000 C   0  0  0  0  0  0  0  0  0  0  0  0
    2.3024   -5.9802    0.0000 C   0  0  0  0  0  0  0  0  0  0  0  0
    0.0000   -5.9802    0.0000 C   0  0  0  0  0  0  0  0  0  0  0  0
    3.4565   -3.9828    0.0000 O   0  0  0  0  0  0  0  0  0  0  0  0
    1.1542    0.0000    0.0000 C   0  0  0  0  0  0  0  0  0  0  0  0
  1  2  1  0  0  0  0
  1  6  1  0  0  0  0
  2  3  1  0  0  0  0
  2 11  1  1  0  0  0
  3  4  1  0  0  0  0
  4  5  1  0  0  0  0
  4 10  1  1  0  0  0
  5  6  1  0  0  0  0
  5  7  1  6  0  0  0
  7  8  1  0  0  0  0
  7  9  1  0  0  0  0
M  END
> <ID>
2019

> <Formula>
C10H20O

> <FW>
156.2652

> <DSSTox_CID>
2180

> <DSSTox_RID>
76516

> <DSSTox_GSID>
22180

> <DSSTox_FileID_Sort>
1200

> <TS_ChemName>
(1R,2S,5R)-(-)-Menthol

> <TS_ChemName_Synonyms>
Cyclohexanol, 5-methyl-2-(1-methylethyl)-, (1R,2S,5R)-

> <TS_CASRN>
2216-51-5

> <CASRN_ChemName_Relationship>
primary

> <TS_Description>
single chemical compound

> <ChemNote>
stereochem

> <STRUCTURE_Shown>
tested chemical

> <STRUCTURE_Formula>
C10H20O

> <STRUCTURE_MW>
156.2652

> <STRUCTURE_ChemType>
defined organic

> <STRUCTURE_DefinedOrganicForm>
parent

> <STRUCTURE_IUPAC>
(1R,2S,5R)-5-methyl-2-(propan-2-yl)cyclohexanol

> <STRUCTURE_SMILES>
CC(C)[C@@H]1CC[C@@H](C)C[C@H]1O

> <STRUCTURE_SMILES_Desalt>
CC(C)[C@@H]1CC[C@@H](C)C[C@H]1O

> <Substance_modify_yyyymmdd>
20080429

$$$$
