22260-51-1
ChemmineR-0914142331XD

 50 55  0  0  1  0  0  0  0  0  1 V2000
    3.4523   -6.7539    0.0000 C    0  0  0  0  0  0  0  0  0  0  0  0
    3.4523   -9.4027    0.0000 C    0  0  0  0  0  0  0  0  0  0  0  0
    3.1133  -10.6706    0.0000 C    0  0  0  0  0  0  0  0  0  0  0  0
    5.7370   -2.7869    0.0000 N    0  0  0  0  0  0  0  0  0  0  0  0
    2.2848   -8.7248    0.0000 C    0  0  0  0  0  0  0  0  0  0  0  0
    2.2848   -7.4192    0.0000 C    0  0  0  0  0  0  0  0  0  0  0  0
    4.5947   -7.4192    0.0000 C    0  0  0  0  0  0  0  0  0  0  0  0
    3.4523   -5.4232    0.0000 C    0  0  0  0  0  0  0  0  0  0  0  0
    1.4939  -10.6706    0.0000 N    0  0  0  0  0  0  0  0  0  0  0  0
    4.5947   -4.7704    0.0000 C    0  0  0  0  0  0  0  0  0  0  0  0
    5.7370   -6.7539    0.0000 N    0  0  0  0  0  0  0  0  0  0  0  0
    4.5947   -3.4397    0.0000 C    0  0  0  0  0  0  0  0  0  0  0  0
    1.1675   -9.4027    0.0000 C    0  0  0  0  0  0  0  0  0  0  0  0
    4.5947   -8.7248    0.0000 C    0  0  0  0  0  0  0  0  0  0  0  0
    5.7370   -5.4232    0.0000 C    0  0  0  0  0  0  0  0  0  0  0  0
    3.4523   -2.7869    0.0000 O    0  0  0  0  0  0  0  0  0  0  0  0
    3.9921  -11.6498    0.0000 Br   0  0  0  0  0  0  0  0  0  0  0  0
    1.1675   -6.7539    0.0000 C    0  0  0  0  0  0  0  0  0  0  0  0
    6.8794   -7.4192    0.0000 C    0  0  0  0  0  0  0  0  0  0  0  0
    0.0000   -8.7248    0.0000 C    0  0  0  0  0  0  0  0  0  0  0  0
    0.0000   -7.4192    0.0000 C    0  0  0  0  0  0  0  0  0  0  0  0
    5.7370   -8.0846    0.0000 H    0  0  0  0  0  0  0  0  0  0  0  0
    9.1014   -3.4397    0.0000 N    0  0  0  0  0  0  0  0  0  0  0  0
    9.1014   -2.1090    0.0000 C    0  0  0  0  0  0  0  0  0  0  0  0
    7.0677   -2.7744    0.0000 C    0  0  0  0  0  0  0  0  0  0  0  0
    7.8335   -3.8540    0.0000 C    0  0  0  0  0  0  0  0  0  0  0  0
    7.8335   -1.6947    0.0000 O    0  0  0  0  0  0  0  0  0  0  0  0
   10.2689   -4.1051    0.0000 C    0  0  0  0  0  0  0  0  0  0  0  0
   11.3862   -3.4397    0.0000 C    0  0  0  0  0  0  0  0  0  0  0  0
   11.3862   -2.1090    0.0000 N    0  0  0  0  0  0  0  0  0  0  0  0
   10.2689   -1.4562    0.0000 C    0  0  0  0  0  0  0  0  0  0  0  0
    7.4443   -5.1094    0.0000 O    0  0  0  0  0  0  0  0  0  0  0  0
   12.5537   -4.1051    0.0000 O    0  0  0  0  0  0  0  0  0  0  0  0
    9.1642   -0.7407    0.0000 O    0  0  0  0  0  0  0  0  0  0  0  0
   10.2689   -5.4106    0.0000 C    0  0  0  0  0  0  0  0  0  0  0  0
    6.3898   -1.6445    0.0000 C    0  0  0  0  0  0  0  0  0  0  0  0
   12.3905   -1.2303    0.0000 C    0  0  0  0  0  0  0  0  0  0  0  0
   10.5074   -0.1506    0.0000 C    0  0  0  0  0  0  0  0  0  0  0  0
   11.8381    0.0000    0.0000 C    0  0  0  0  0  0  0  0  0  0  0  0
   11.3862   -6.0885    0.0000 C    0  0  0  0  0  0  0  0  0  0  0  0
    7.0301   -0.4645    0.0000 C    0  0  0  0  0  0  0  0  0  0  0  0
    5.0340   -1.6571    0.0000 C    0  0  0  0  0  0  0  0  0  0  0  0
   11.3862   -7.4192    0.0000 C    0  0  0  0  0  0  0  0  0  0  0  0
   12.5537   -5.4106    0.0000 C    0  0  0  0  0  0  0  0  0  0  0  0
   10.2438   -2.6739    0.0000 H    0  0  0  0  0  0  0  0  0  0  0  0
    8.2101   -9.9676    0.0000 C    0  0  0  0  0  0  0  0  0  0  0  0
    9.5408   -9.9676    0.0000 S    0  0  0  0  0  0  0  0  0  0  0  0
    9.5408   -8.6369    0.0000 O    0  0  0  0  0  0  0  0  0  0  0  0
    9.5408  -11.2983    0.0000 O    0  0  0  0  0  0  0  0  0  0  0  0
   10.8715   -9.9676    0.0000 O    0  0  0  0  0  0  0  0  0  0  0  0
  1  8  2  0  0  0  0
  1  6  1  0  0  0  0
  1  7  1  0  0  0  0
  2 14  1  0  0  0  0
  2  3  2  0  0  0  0
  2  5  1  0  0  0  0
  3 17  1  0  0  0  0
  3  9  1  0  0  0  0
  4 12  1  0  0  0  0
 25  4  1  6  0  0  0
  5  6  2  0  0  0  0
  5 13  1  0  0  0  0
  6 18  1  0  0  0  0
  7 11  1  0  0  0  0
  7 14  1  0  0  0  0
  7 22  1  1  0  0  0
  8 10  1  0  0  0  0
  9 13  1  0  0  0  0
 10 12  1  1  0  0  0
 10 15  1  0  0  0  0
 11 15  1  0  0  0  0
 11 19  1  0  0  0  0
 12 16  2  0  0  0  0
 13 20  2  0  0  0  0
 18 21  2  0  0  0  0
 20 21  1  0  0  0  0
 23 24  1  0  0  0  0
 23 26  1  0  0  0  0
 23 28  1  0  0  0  0
 24 27  1  0  0  0  0
 24 31  1  0  0  0  0
 24 34  1  6  0  0  0
 25 26  1  0  0  0  0
 25 36  1  1  0  0  0
 25 27  1  0  0  0  0
 26 32  2  0  0  0  0
 28 29  1  0  0  0  0
 28 35  1  6  0  0  0
 29 30  1  0  0  0  0
 29 33  2  0  0  0  0
 30 37  1  0  0  0  0
 30 31  1  0  0  0  0
 31 38  1  0  0  0  0
 31 45  1  1  0  0  0
 35 40  1  0  0  0  0
 36 41  1  0  0  0  0
 36 42  1  0  0  0  0
 37 39  1  0  0  0  0
 38 39  1  0  0  0  0
 40 43  1  0  0  0  0
 40 44  1  0  0  0  0
 46 47  1  0  0  0  0
 47 48  2  0  0  0  0
 47 49  2  0  0  0  0
 47 50  1  0  0  0  0
M  END
> <ID>
193

> <Formula>
C33H44BrN5O8S

> <FW>
750.7002 (654.5945+96.1057)

> <DSSTox_CID>
197

> <DSSTox_RID>
75426

> <DSSTox_GSID>
20197

> <DSSTox_FileID_Sort>
110

> <TS_ChemName>
Bromocriptine mesylate

> <TS_ChemName_Synonyms>


> <TS_CASRN>
22260-51-1

> <CASRN_ChemName_Relationship>
primary

> <TS_Description>
single chemical compound

> <ChemNote>
stereochem; parent [25614-03-3]

> <STRUCTURE_Shown>
tested chemical

> <STRUCTURE_Formula>
C33H44BrN5O8S

> <STRUCTURE_MW>
750.7002

> <STRUCTURE_ChemType>
defined organic

> <STRUCTURE_DefinedOrganicForm>
complex

> <STRUCTURE_IUPAC>
(5'alpha)-2-bromo-12'-hydroxy-5'-(2-methylpropyl)-3',6',18-trioxo-2'-(propan-2-yl)ergotaman methanesulfonate (1:1)

> <STRUCTURE_SMILES>
CS(=O)(=O)O.Brc3nc2cccc1C4=C[C@H](CN(C)[C@@H]4Cc3c12)C(=O)N[C@@]7(O[C@]6(O)N([C@@H](CC(C)C)C(=O)N5CCC[C@H]56)C7=O)C(C)C

> <STRUCTURE_SMILES_Desalt>
Brc3nc2cccc1C4=C[C@H](CN(C)[C@@H]4Cc3c12)C(=O)N[C@@]7(O[C@]6(O)N([C@@H](CC(C)C)C(=O)N5CCC[C@H]56)C7=O)C(C)C

> <Substance_modify_yyyymmdd>
20080429

$$$$
