2259-96-3
ChemmineR-0914142331XD

 24 27  0  0  0  0  0  0  0  0  1 V2000
    2.6695   -2.3029    0.0000 C    0  0  0  0  0  0  0  0  0  0  0  0
    1.3290   -2.3029    0.0000 S    0  0  0  0  0  0  0  0  0  0  0  0
    0.0000   -2.3029    0.0000 N    0  0  0  0  0  0  0  0  0  0  0  0
    1.3290   -3.6319    0.0000 O    0  0  0  0  0  0  0  0  0  0  0  0
    1.3290   -0.9624    0.0000 O    0  0  0  0  0  0  0  0  0  0  0  0
    3.3340   -1.1457    0.0000 C    0  0  0  0  0  0  0  0  0  0  0  0
    2.6695    0.0000    0.0000 Cl   0  0  0  0  0  0  0  0  0  0  0  0
    4.6745   -1.1457    0.0000 C    0  0  0  0  0  0  0  0  0  0  0  0
    5.3504   -2.3143    0.0000 C    0  0  0  0  0  0  0  0  0  0  0  0
    4.6745   -3.4829    0.0000 C    0  0  0  0  0  0  0  0  0  0  0  0
    3.3225   -3.4829    0.0000 C    0  0  0  0  0  0  0  0  0  0  0  0
    5.3275   -4.6286    0.0000 S    0  0  0  0  0  0  0  0  0  0  0  0
    5.5452   -5.9462    0.0000 O    0  0  0  0  0  0  0  0  0  0  0  0
    4.0672   -5.0755    0.0000 O    0  0  0  0  0  0  0  0  0  0  0  0
    6.6565   -4.6286    0.0000 N    0  0  0  0  0  0  0  0  0  0  0  0
    7.3096   -3.4829    0.0000 C    0  0  0  0  0  0  0  0  0  0  0  0
    8.6615   -3.4829    0.0000 C    0  0  0  0  0  0  0  0  0  0  0  0
    9.4062   -2.4403    0.0000 C    0  0  0  0  0  0  0  0  0  0  0  0
   10.6894   -2.0508    0.0000 C    0  0  0  0  0  0  0  0  0  0  0  0
   11.4570   -3.1507    0.0000 C    0  0  0  0  0  0  0  0  0  0  0  0
   10.6550   -4.2047    0.0000 C    0  0  0  0  0  0  0  0  0  0  0  0
    9.4062   -4.5599    0.0000 C    0  0  0  0  0  0  0  0  0  0  0  0
    9.4062   -3.7808    0.0000 C    0  0  0  0  0  0  0  0  0  0  0  0
    6.6565   -2.3372    0.0000 N    0  0  0  0  0  0  0  0  0  0  0  0
  1  2  1  0  0  0  0
  1  6  2  0  0  0  0
  1 11  1  0  0  0  0
  2  3  1  0  0  0  0
  2  4  2  0  0  0  0
  2  5  2  0  0  0  0
  6  7  1  0  0  0  0
  6  8  1  0  0  0  0
  8  9  2  0  0  0  0
  9 10  1  0  0  0  0
  9 24  1  0  0  0  0
 10 11  2  0  0  0  0
 10 12  1  0  0  0  0
 12 13  2  0  0  0  0
 12 14  2  0  0  0  0
 12 15  1  0  0  0  0
 15 16  1  0  0  0  0
 16 17  1  0  0  0  0
 16 24  1  0  0  0  0
 17 18  1  0  0  0  0
 17 22  1  0  0  0  0
 18 19  1  0  0  0  0
 18 23  1  0  0  0  0
 19 20  2  0  0  0  0
 20 21  1  0  0  0  0
 21 22  1  0  0  0  0
 21 23  1  0  0  0  0
M  END
> <ID>
2594

> <Formula>
C14H16ClN3O4S2

> <FW>
389.8775

> <DSSTox_CID>
2871

> <DSSTox_RID>
76767

> <DSSTox_GSID>
22871

> <DSSTox_FileID_Sort>
1451

> <TS_ChemName>
Cyclothiazide

> <TS_ChemName_Synonyms>


> <TS_CASRN>
2259-96-3

> <CASRN_ChemName_Relationship>
primary

> <TS_Description>
single chemical compound

> <ChemNote>


> <STRUCTURE_Shown>
tested chemical

> <STRUCTURE_Formula>
C14H16ClN3O4S2

> <STRUCTURE_MW>
389.8775

> <STRUCTURE_ChemType>
defined organic

> <STRUCTURE_DefinedOrganicForm>
parent

> <STRUCTURE_IUPAC>
3-(bicyclo[2.2.1]hept-5-en-2-yl)-6-chloro-3,4-dihydro-2H-1,2,4-benzothiadiazine-7-sulfonamide 1,1-dioxide

> <STRUCTURE_SMILES>
NS(=O)(=O)c4cc1c(NC(NS1(=O)=O)C3CC2C=CC3C2)cc4Cl

> <STRUCTURE_SMILES_Desalt>
NS(=O)(=O)c4cc1c(NC(NS1(=O)=O)C3CC2C=CC3C2)cc4Cl

> <Substance_modify_yyyymmdd>
20080429

$$$$
