2353-45-9
ChemmineR-0914142331XD

 54 56  0  0  0  0  0  0  0  0  2 V2000
    9.6299   -5.6560    0.0000 C    0  0  0  0  0  0  0  0  0  0  0  0
    9.6299   -3.9529    0.0000 C    0  0  0  0  0  0  0  0  0  0  0  0
    8.4945   -3.2800    0.0000 C    0  0  0  0  0  0  0  0  0  0  0  0
    8.4945   -1.9764    0.0000 C    0  0  0  0  0  0  0  0  0  0  0  0
    9.6299   -1.3036    0.0000 C    0  0  0  0  0  0  0  0  0  0  0  0
   10.7653   -1.9764    0.0000 C    0  0  0  0  0  0  0  0  0  0  0  0
   10.7653   -3.2800    0.0000 C    0  0  0  0  0  0  0  0  0  0  0  0
    9.6299    0.0000    0.0000 O    0  0  0  0  0  0  0  0  0  0  0  0
    7.3591   -3.9529    0.0000 S    0  0  0  0  0  0  0  0  0  0  0  0
    8.0109   -5.0883    0.0000 O    0  0  0  0  0  0  0  0  0  0  0  0
    6.6862   -2.7964    0.0000 O    0  0  0  0  0  0  0  0  0  0  0  0
    6.2237   -4.6047    0.0000 O    0  5  0  0  0  0  0  0  0  0  0  0
   10.7653   -6.3078    0.0000 C    0  0  0  0  0  0  0  0  0  0  0  0
   11.9217   -5.6560    0.0000 C    0  0  0  0  0  0  0  0  0  0  0  0
   13.0571   -6.3078    0.0000 C    0  0  0  0  0  0  0  0  0  0  0  0
   13.0571   -7.6324    0.0000 C    0  0  0  0  0  0  0  0  0  0  0  0
   11.9217   -8.2842    0.0000 C    0  0  0  0  0  0  0  0  0  0  0  0
   10.7653   -7.6324    0.0000 C    0  0  0  0  0  0  0  0  0  0  0  0
   14.1925   -8.2842    0.0000 N    0  0  0  0  0  0  0  0  0  0  0  0
   15.3279   -7.6324    0.0000 C    0  0  0  0  0  0  0  0  0  0  0  0
   16.4633   -8.2842    0.0000 C    0  0  0  0  0  0  0  0  0  0  0  0
   17.5987   -7.6324    0.0000 C    0  0  0  0  0  0  0  0  0  0  0  0
   18.7551   -8.2842    0.0000 C    0  0  0  0  0  0  0  0  0  0  0  0
   18.7551   -9.6088    0.0000 C    0  0  0  0  0  0  0  0  0  0  0  0
   17.5987  -10.2607    0.0000 C    0  0  0  0  0  0  0  0  0  0  0  0
   16.4633   -9.6088    0.0000 C    0  0  0  0  0  0  0  0  0  0  0  0
   19.8905   -7.6324    0.0000 S    0  0  0  0  0  0  0  0  0  0  0  0
   19.2387   -6.4970    0.0000 O    0  0  0  0  0  0  0  0  0  0  0  0
   20.5423   -8.7678    0.0000 O    0  0  0  0  0  0  0  0  0  0  0  0
   21.0259   -6.9596    0.0000 O    0  5  0  0  0  0  0  0  0  0  0  0
   14.1925   -9.6088    0.0000 C    0  0  0  0  0  0  0  0  0  0  0  0
   13.0571  -10.2607    0.0000 C    0  0  0  0  0  0  0  0  0  0  0  0
    8.1581   -6.5180    0.0000 C    0  0  0  0  0  0  0  0  0  0  0  0
    8.1581   -7.8216    0.0000 C    0  0  0  0  0  0  0  0  0  0  0  0
    7.0227   -8.4734    0.0000 C    0  0  0  0  0  0  0  0  0  0  0  0
    5.8662   -7.8216    0.0000 C    0  0  0  0  0  0  0  0  0  0  0  0
    5.8662   -6.5180    0.0000 C    0  0  0  0  0  0  0  0  0  0  0  0
    7.0227   -5.8452    0.0000 C    0  0  0  0  0  0  0  0  0  0  0  0
    4.7308   -8.4734    0.0000 N    0  3  0  0  0  0  0  0  0  0  0  0
    3.5954   -7.8216    0.0000 C    0  0  0  0  0  0  0  0  0  0  0  0
    2.4600   -8.4734    0.0000 C    0  0  0  0  0  0  0  0  0  0  0  0
    2.4600   -9.7981    0.0000 C    0  0  0  0  0  0  0  0  0  0  0  0
    1.3246  -10.4499    0.0000 C    0  0  0  0  0  0  0  0  0  0  0  0
    0.1682   -9.7981    0.0000 C    0  0  0  0  0  0  0  0  0  0  0  0
    0.1682   -8.4734    0.0000 C    0  0  0  0  0  0  0  0  0  0  0  0
    1.3246   -7.8216    0.0000 C    0  0  0  0  0  0  0  0  0  0  0  0
    1.3246  -11.7745    0.0000 S    0  0  0  0  0  0  0  0  0  0  0  0
    2.6282  -11.7745    0.0000 O    0  0  0  0  0  0  0  0  0  0  0  0
    0.0000  -11.7745    0.0000 O    0  0  0  0  0  0  0  0  0  0  0  0
    1.3246  -13.0781    0.0000 O    0  5  0  0  0  0  0  0  0  0  0  0
    4.7308   -9.7981    0.0000 C    0  0  0  0  0  0  0  0  0  0  0  0
    3.5954  -10.4499    0.0000 C    0  0  0  0  0  0  0  0  0  0  0  0
   10.5340  -14.4028    0.0000 Na   0  3  0  0  0  0  0  0  0  0  0  0
    9.2094  -14.4028    0.0000 Na   0  3  0  0  0  0  0  0  0  0  0  0
  1  2  1  0  0  0  0
  1 13  1  0  0  0  0
  1 33  2  0  0  0  0
  2  3  2  0  0  0  0
  2  7  1  0  0  0  0
  3  4  1  0  0  0  0
  3  9  1  0  0  0  0
  4  5  2  0  0  0  0
  5  6  1  0  0  0  0
  5  8  1  0  0  0  0
  6  7  2  0  0  0  0
  9 10  2  0  0  0  0
  9 11  2  0  0  0  0
  9 12  1  0  0  0  0
 13 14  2  0  0  0  0
 13 18  1  0  0  0  0
 14 15  1  0  0  0  0
 15 16  2  0  0  0  0
 16 17  1  0  0  0  0
 16 19  1  0  0  0  0
 17 18  2  0  0  0  0
 19 20  1  0  0  0  0
 19 31  1  0  0  0  0
 20 21  1  0  0  0  0
 21 22  2  0  0  0  0
 21 26  1  0  0  0  0
 22 23  1  0  0  0  0
 23 24  2  0  0  0  0
 23 27  1  0  0  0  0
 24 25  1  0  0  0  0
 25 26  2  0  0  0  0
 27 28  2  0  0  0  0
 27 29  2  0  0  0  0
 27 30  1  0  0  0  0
 31 32  1  0  0  0  0
 33 34  1  0  0  0  0
 33 38  1  0  0  0  0
 34 35  2  0  0  0  0
 35 36  1  0  0  0  0
 36 37  1  0  0  0  0
 36 39  2  0  0  0  0
 37 38  2  0  0  0  0
 39 40  1  0  0  0  0
 39 51  1  0  0  0  0
 40 41  1  0  0  0  0
 41 42  2  0  0  0  0
 41 46  1  0  0  0  0
 42 43  1  0  0  0  0
 43 44  2  0  0  0  0
 43 47  1  0  0  0  0
 44 45  1  0  0  0  0
 45 46  2  0  0  0  0
 47 48  2  0  0  0  0
 47 49  2  0  0  0  0
 47 50  1  0  0  0  0
 51 52  1  0  0  0  0
M  END
> <ID>
646

> <Formula>
C37H34N2Na2O10S3

> <FW>
808.8478 (762.8694+22.9892+22.9892)

> <DSSTox_CID>
673

> <DSSTox_RID>
75724

> <DSSTox_GSID>
20673

> <DSSTox_FileID_Sort>
408

> <TS_ChemName>
FD&C Green No. 3

> <TS_ChemName_Synonyms>
FD & C green No. 3 (C.I. Food Green 3, disodium salt)

> <TS_CASRN>
2353-45-9

> <CASRN_ChemName_Relationship>
primary

> <TS_Description>
single chemical compound

> <ChemNote>
ammonium; C.I. 42053

> <STRUCTURE_Shown>
tested chemical

> <STRUCTURE_Formula>
C37H34N2Na2O10S3

> <STRUCTURE_MW>
808.8478

> <STRUCTURE_ChemType>
defined organic

> <STRUCTURE_DefinedOrganicForm>
salt

> <STRUCTURE_IUPAC>
disodium 2-[(Z)-{4-[ethyl(3-sulfonatobenzyl)amino]phenyl}{(4Z)-4-[ethyl(3-sulfonatobenzyl)iminio]cyclohexa-2,5-dien-1-ylidene}methyl]-5-hydroxybenzenesulfonate

> <STRUCTURE_SMILES>
[Na+].[Na+].CC/[N+](Cc1cccc(c1)S([O-])(=O)=O)=C2\C=C/C(C=C2)=C(\c3ccc(cc3)N(Cc4cccc(c4)S([O-])(=O)=O)CC)c5ccc(O)cc5S([O-])(=O)=O

> <STRUCTURE_SMILES_Desalt>
CC/[N+](Cc1cccc(c1)S(=O)(=O)O)=C2\C=C/C(C=C2)=C(\c3ccc(cc3)N(Cc4cccc(c4)S(=O)(=O)O)CC)c5ccc(O)cc5S(=O)(=O)O

> <Substance_modify_yyyymmdd>
20080429

$$$$
