2375-03-3
ChemmineR-0914142331XD

 38 40  0  0  1  0  0  0  0  0  2 V2000
    3.4689   -5.6555    0.0000 C    0  0  0  0  0  0  0  0  0  0  0  0
    6.8885   -3.6991    0.0000 C    0  0  0  0  0  0  0  0  0  0  0  0
    3.4689   -6.9871    0.0000 C    0  0  0  0  0  0  0  0  0  0  0  0
    8.1544   -3.2881    0.0000 C    0  0  0  0  0  0  0  0  0  0  0  0
    4.6033   -5.0143    0.0000 C    0  0  0  0  0  0  0  0  0  0  0  0
    5.7377   -5.6883    0.0000 C    0  0  0  0  0  0  0  0  0  0  0  0
    6.8885   -5.0307    0.0000 C    0  0  0  0  0  0  0  0  0  0  0  0
    2.3181   -5.0143    0.0000 C    0  0  0  0  0  0  0  0  0  0  0  0
    5.7377   -3.0579    0.0000 C    0  0  0  0  0  0  0  0  0  0  0  0
    4.6033   -3.6991    0.0000 C    0  0  0  0  0  0  0  0  0  0  0  0
    5.7377   -6.9707    0.0000 C    0  0  0  0  0  0  0  0  0  0  0  0
    2.3181   -7.6447    0.0000 C    0  0  0  0  0  0  0  0  0  0  0  0
    4.6033   -7.6447    0.0000 C    0  0  0  0  0  0  0  0  0  0  0  0
    8.1544   -1.9400    0.0000 C    0  0  0  0  0  0  0  0  0  0  0  0
    8.8778   -4.3731    0.0000 C    0  0  0  0  0  0  0  0  0  0  0  0
    8.1379   -5.4253    0.0000 C    0  0  0  0  0  0  0  0  0  0  0  0
    1.1508   -5.6883    0.0000 C    0  0  0  0  0  0  0  0  0  0  0  0
    1.1508   -6.9707    0.0000 C    0  0  0  0  0  0  0  0  0  0  0  0
   15.1908   -2.2359    0.0000 C    0  0  0  0  0  0  0  0  0  0  0  0
   11.6562   -1.3974    0.0000 C    0  0  0  0  0  0  0  0  0  0  0  0
    9.3052   -1.3317    0.0000 C    0  0  0  0  0  0  0  0  0  0  0  0
   15.1908   -3.6169    0.0000 O    0  5  0  0  0  0  0  0  0  0  0  0
    7.0200   -1.2659    0.0000 O    0  0  0  0  0  0  0  0  0  0  0  0
   10.4231   -2.0386    0.0000 O    0  0  0  0  0  0  0  0  0  0  0  0
   16.4403   -1.5947    0.0000 O    0  0  0  0  0  0  0  0  0  0  0  0
   11.6726    0.0000    0.0000 O    0  0  0  0  0  0  0  0  0  0  0  0
    0.0000   -7.6119    0.0000 O    0  0  0  0  0  0  0  0  0  0  0  0
    9.4696   -3.3045    0.0000 O    0  0  0  0  0  0  0  0  0  0  0  0
    3.4689   -4.3567    0.0000 C    0  0  0  0  0  0  0  0  0  0  0  0
    6.8885   -2.3838    0.0000 C    0  0  0  0  0  0  0  0  0  0  0  0
    3.4360   -3.0415    0.0000 O    0  0  0  0  0  0  0  0  0  0  0  0
   14.0564   -1.4961    0.0000 C    0  0  0  0  0  0  0  0  0  0  0  0
   12.8234   -2.1372    0.0000 C    0  0  0  0  0  0  0  0  0  0  0  0
    4.6033   -8.9600    0.0000 C    0  0  0  0  0  0  0  0  0  0  0  0
    5.7377   -4.3567    0.0000 H    0  0  0  0  0  0  0  0  0  0  0  0
    4.6033   -6.3460    0.0000 H    0  0  0  0  0  0  0  0  0  0  0  0
    6.8885   -6.3624    0.0000 H    0  0  0  0  0  0  0  0  0  0  0  0
   13.5797   -4.0608    0.0000 Na   0  3  0  0  0  0  0  0  0  0  0  0
  1  3  1  0  0  0  0
  1  5  1  0  0  0  0
  1  8  1  0  0  0  0
  1 29  1  1  0  0  0
  2  9  1  0  0  0  0
  2  4  1  0  0  0  0
  2 30  1  1  0  0  0
  2  7  1  0  0  0  0
  3 12  2  0  0  0  0
  3 13  1  0  0  0  0
  4 14  1  0  0  0  0
  4 28  1  6  0  0  0
  4 15  1  0  0  0  0
  5  6  1  0  0  0  0
  5 10  1  0  0  0  0
  5 36  1  6  0  0  0
  6  7  1  0  0  0  0
  6 11  1  0  0  0  0
  6 35  1  1  0  0  0
  7 16  1  0  0  0  0
  7 37  1  6  0  0  0
  8 17  2  0  0  0  0
  9 10  1  0  0  0  0
 10 31  1  1  0  0  0
 11 13  1  0  0  0  0
 12 18  1  0  0  0  0
 13 34  1  6  0  0  0
 14 21  1  0  0  0  0
 14 23  2  0  0  0  0
 15 16  1  0  0  0  0
 17 18  1  0  0  0  0
 18 27  2  0  0  0  0
 19 32  1  0  0  0  0
 19 22  1  0  0  0  0
 19 25  2  0  0  0  0
 20 24  1  0  0  0  0
 20 26  2  0  0  0  0
 20 33  1  0  0  0  0
 21 24  1  0  0  0  0
 32 33  1  0  0  0  0
M  END
> <ID>
2965

> <Formula>
C26H33NaO8

> <FW>
496.5252 (473.5360+22.9892)

> <DSSTox_CID>
3303

> <DSSTox_RID>
76967

> <DSSTox_GSID>
23303

> <DSSTox_FileID_Sort>
1651

> <TS_ChemName>
Methylprednisolone succinate

> <TS_ChemName_Synonyms>


> <TS_CASRN>
2375-03-3

> <CASRN_ChemName_Relationship>
primary

> <TS_Description>
single chemical compound

> <ChemNote>
stereochem; tautomers

> <STRUCTURE_Shown>
tested chemical

> <STRUCTURE_Formula>
C26H33NaO8

> <STRUCTURE_MW>
496.5252

> <STRUCTURE_ChemType>
defined organic

> <STRUCTURE_DefinedOrganicForm>
salt

> <STRUCTURE_IUPAC>
sodium 4-{[(6alpha,11beta)-11,17-dihydroxy-6-methyl-3,20-dioxopregna-1,4-dien-21-yl]oxy}-4-oxobutanoate

> <STRUCTURE_SMILES>
[Na+].[O-]C(=O)CCC(=O)OCC(=O)[C@@]4(O)CC[C@@H]3[C@]4(C)C[C@H](O)[C@H]2[C@H]3C[C@H](C)C1=CC(=O)C=C[C@@]12C

> <STRUCTURE_SMILES_Desalt>
O=C(O)CCC(=O)OCC(=O)[C@@]4(O)CC[C@@H]3[C@]4(C)C[C@H](O)[C@H]2[C@H]3C[C@H](C)C1=CC(=O)C=C[C@@]12C

> <Substance_modify_yyyymmdd>
20080429

$$$$
