2385-85-5
ChemmineR-0914142331XD

 22 26  0  0  0  0  0  0  0  0  1 V2000
    2.0888   -1.6738    0.0000 C    0  0  0  0  0  0  0  0  0  0  0  0
    3.6129   -3.1434    0.0000 C    0  0  0  0  0  0  0  0  0  0  0  0
    3.2727   -2.7488    0.0000 C    0  0  0  0  0  0  0  0  0  0  0  0
    4.8171   -4.2116    0.0000 C    0  0  0  0  0  0  0  0  0  0  0  0
    2.0888   -3.1434    0.0000 C    0  0  0  0  0  0  0  0  0  0  0  0
    3.2727   -4.2116    0.0000 C    0  0  0  0  0  0  0  0  0  0  0  0
    3.6129   -1.6738    0.0000 C    0  0  0  0  0  0  0  0  0  0  0  0
    4.8171   -2.7488    0.0000 C    0  0  0  0  0  0  0  0  0  0  0  0
    0.8777   -4.9668    0.0000 C    0  0  0  0  0  0  0  0  0  0  0  0
    6.0895   -0.8641    0.0000 C    0  0  0  0  0  0  0  0  0  0  0  0
    2.5855   -2.7488    0.0000 Cl   0  0  0  0  0  0  0  0  0  0  0  0
    5.5656   -4.2116    0.0000 Cl   0  0  0  0  0  0  0  0  0  0  0  0
    1.3336   -1.6738    0.0000 Cl   0  0  0  0  0  0  0  0  0  0  0  0
    4.3953   -3.1434    0.0000 Cl   0  0  0  0  0  0  0  0  0  0  0  0
    5.5928   -2.7488    0.0000 Cl   0  0  0  0  0  0  0  0  0  0  0  0
    1.3131   -3.1434    0.0000 Cl   0  0  0  0  0  0  0  0  0  0  0  0
    3.6129   -1.0070    0.0000 Cl   0  0  0  0  0  0  0  0  0  0  0  0
    3.2727   -4.8852    0.0000 Cl   0  0  0  0  0  0  0  0  0  0  0  0
    0.0000   -4.3341    0.0000 Cl   0  0  0  0  0  0  0  0  0  0  0  0
    0.6668   -5.9398    0.0000 Cl   0  0  0  0  0  0  0  0  0  0  0  0
    6.3616    0.0000    0.0000 Cl   0  0  0  0  0  0  0  0  0  0  0  0
    6.8039   -1.4764    0.0000 Cl   0  0  0  0  0  0  0  0  0  0  0  0
  1  3  1  0  0  0  0
  1  5  1  0  0  0  0
  1  7  1  0  0  0  0
  1 13  1  0  0  0  0
  2  7  1  0  0  0  0
  2  4  1  0  0  0  0
  2 14  1  0  0  0  0
  2  5  1  0  0  0  0
  3  6  1  0  0  0  0
  3  8  1  0  0  0  0
  3 11  1  0  0  0  0
  4 12  1  0  0  0  0
  4  8  1  0  0  0  0
  4  6  1  0  0  0  0
  5  9  1  0  0  0  0
  5 16  1  0  0  0  0
  6 18  1  0  0  0  0
  6  9  1  0  0  0  0
  7 10  1  0  0  0  0
  7 17  1  0  0  0  0
  8 15  1  0  0  0  0
  8 10  1  0  0  0  0
  9 19  1  0  0  0  0
  9 20  1  0  0  0  0
 10 21  1  0  0  0  0
 10 22  1  0  0  0  0
M  END
> <ID>
861

> <Formula>
C10Cl12

> <FW>
545.543

> <DSSTox_CID>
895

> <DSSTox_RID>
75851

> <DSSTox_GSID>
20895

> <DSSTox_FileID_Sort>
535

> <TS_ChemName>
Mirex

> <TS_ChemName_Synonyms>
Mirex (Dodecachlorooctahydro-1,3,4-metheno-1H-cyclobuta(cd)pentalene)

> <TS_CASRN>
2385-85-5

> <CASRN_ChemName_Relationship>
primary

> <TS_Description>
single chemical compound

> <ChemNote>
stereochem

> <STRUCTURE_Shown>
tested chemical

> <STRUCTURE_Formula>
C10Cl12

> <STRUCTURE_MW>
545.543

> <STRUCTURE_ChemType>
defined organic

> <STRUCTURE_DefinedOrganicForm>
parent

> <STRUCTURE_IUPAC>
1,1a,2,2,3,3a,4,5,5,5a,5b,6-dodecachlorooctahydro-1H-1,3,4-(methanetriyl)cyclobuta[cd]pentalene

> <STRUCTURE_SMILES>
ClC53C1(Cl)C4(Cl)C2(Cl)C1(Cl)C(Cl)(Cl)C5(Cl)C2(Cl)C3(Cl)C4(Cl)Cl

> <STRUCTURE_SMILES_Desalt>
ClC53C1(Cl)C4(Cl)C2(Cl)C1(Cl)C(Cl)(Cl)C5(Cl)C2(Cl)C3(Cl)C4(Cl)Cl

> <Substance_modify_yyyymmdd>
20080429

$$$$
