23930-19-0
ChemmineR-0914142331XD

 28 31  0  0  1  0  0  0  0  0  1 V2000
    6.9071   -2.6642    0.0000 C   0  0  0  0  0  0  0  0  0  0  0  0
    4.6179   -4.0061    0.0000 C   0  0  0  0  0  0  0  0  0  0  0  0
    5.7526   -4.6870    0.0000 C   0  0  0  0  0  0  0  0  0  0  0  0
    3.4437   -4.6870    0.0000 C   0  0  0  0  0  0  0  0  0  0  0  0
    6.9071   -4.0061    0.0000 C   0  0  0  0  0  0  0  0  0  0  0  0
    4.6179   -2.6642    0.0000 C   0  0  0  0  0  0  0  0  0  0  0  0
    5.7329   -2.0228    0.0000 C   0  0  0  0  0  0  0  0  0  0  0  0
    8.1701   -2.2596    0.0000 C   0  0  0  0  0  0  0  0  0  0  0  0
    3.4437   -5.9993    0.0000 C   0  0  0  0  0  0  0  0  0  0  0  0
    8.1701   -4.4304    0.0000 C   0  0  0  0  0  0  0  0  0  0  0  0
    5.7526   -5.9993    0.0000 C   0  0  0  0  0  0  0  0  0  0  0  0
    2.3188   -4.0061    0.0000 C   0  0  0  0  0  0  0  0  0  0  0  0
    8.9398   -3.3351    0.0000 C   0  0  0  0  0  0  0  0  0  0  0  0
    8.5845   -0.9966    0.0000 C   0  0  0  0  0  0  0  0  0  0  0  0
    3.4437   -1.9932    0.0000 O   0  0  0  0  0  0  0  0  0  0  0  0
    4.6179   -6.6703    0.0000 C   0  0  0  0  0  0  0  0  0  0  0  0
    2.3188   -6.6703    0.0000 C   0  0  0  0  0  0  0  0  0  0  0  0
    7.6866    0.0000    0.0000 O   0  0  0  0  0  0  0  0  0  0  0  0
    6.9071   -1.3518    0.0000 C   0  0  0  0  0  0  0  0  0  0  0  0
    1.1545   -4.6870    0.0000 C   0  0  0  0  0  0  0  0  0  0  0  0
    1.1545   -5.9993    0.0000 C   0  0  0  0  0  0  0  0  0  0  0  0
    3.4437   -3.3351    0.0000 C   0  0  0  0  0  0  0  0  0  0  0  0
    0.0000   -6.6802    0.0000 O   0  0  0  0  0  0  0  0  0  0  0  0
    9.8673   -0.7302    0.0000 C   0  0  0  0  0  0  0  0  0  0  0  0
    3.4437   -7.3413    0.0000 H   0  0  0  0  0  0  0  0  0  0  0  0
    6.9071   -5.3185    0.0000 H   0  0  0  0  0  0  0  0  0  0  0  0
    5.7526   -3.3351    0.0000 H   0  0  0  0  0  0  0  0  0  0  0  0
    4.6179   -5.3185    0.0000 H   0  0  0  0  0  0  0  0  0  0  0  0
  1  5  1  0  0  0  0
  1  7  1  0  0  0  0
  1  8  1  0  0  0  0
  1 19  1  1  0  0  0
  2  6  1  0  0  0  0
  2  4  1  0  0  0  0
  2  3  1  0  0  0  0
  2 28  1  6  0  0  0
  3  5  1  0  0  0  0
  3 11  1  0  0  0  0
  3 27  1  1  0  0  0
  4  9  1  0  0  0  0
  4 12  1  0  0  0  0
  4 22  1  1  0  0  0
  5 10  1  0  0  0  0
  5 26  1  6  0  0  0
  6  7  1  0  0  0  0
  6 15  2  0  0  0  0
  8 13  1  0  0  0  0
  8 14  1  1  0  0  0
  9 17  1  0  0  0  0
  9 25  1  6  0  0  0
  9 16  1  0  0  0  0
 10 13  1  0  0  0  0
 11 16  1  0  0  0  0
 12 20  1  0  0  0  0
 14 18  2  0  0  0  0
 14 24  1  0  0  0  0
 17 21  1  0  0  0  0
 20 21  1  0  0  0  0
 21 23  1  6  0  0  0
M  END
> <ID>
2335

> <Formula>
C21H32O3

> <FW>
332.477

> <DSSTox_CID>
2576

> <DSSTox_RID>
76638

> <DSSTox_GSID>
22576

> <DSSTox_FileID_Sort>
1322

> <TS_ChemName>
Alphaxalone

> <TS_ChemName_Synonyms>


> <TS_CASRN>
23930-19-0

> <CASRN_ChemName_Relationship>
primary

> <TS_Description>
single chemical compound

> <ChemNote>
stereochem

> <STRUCTURE_Shown>
tested chemical

> <STRUCTURE_Formula>
C21H32O3

> <STRUCTURE_MW>
332.477

> <STRUCTURE_ChemType>
defined organic

> <STRUCTURE_DefinedOrganicForm>
parent

> <STRUCTURE_IUPAC>
(3alpha,5alpha)-3-hydroxypregnane-11,20-dione

> <STRUCTURE_SMILES>
CC(=O)[C@H]1CC[C@H]2[C@@H]3CC[C@H]4C[C@H](O)CC[C@]4(C)[C@H]3C(=O)C[C@]12C

> <STRUCTURE_SMILES_Desalt>
CC(=O)[C@H]1CC[C@H]2[C@@H]3CC[C@H]4C[C@H](O)CC[C@]4(C)[C@H]3C(=O)C[C@]12C

> <Substance_modify_yyyymmdd>
20080429

$$$$
