24219-97-4
ChemmineR-0914142331XD

 20 23  0  0  0  0  0  0  0  0  1 V2000
    4.0749   -0.0967    0.0000 C   0  0  0  0  0  0  0  0  0  0  0  0
    5.4059    0.0000    0.0000 C   0  0  0  0  0  0  0  0  0  0  0  0
    6.1570   -1.1005    0.0000 C   0  0  0  0  0  0  0  0  0  0  0  0
    5.5621   -2.3126    0.0000 C   0  0  0  0  0  0  0  0  0  0  0  0
    4.2459   -2.3944    0.0000 C   0  0  0  0  0  0  0  0  0  0  0  0
    3.5023   -1.2939    0.0000 C   0  0  0  0  0  0  0  0  0  0  0  0
    3.5023   -3.4949    0.0000 C   0  0  0  0  0  0  0  0  0  0  0  0
    3.9113   -4.7813    0.0000 N   0  0  0  0  0  0  0  0  0  0  0  0
    5.1308   -5.2572    0.0000 C   0  0  0  0  0  0  0  0  0  0  0  0
    6.2834   -4.5880    0.0000 C   0  0  0  0  0  0  0  0  0  0  0  0
    6.4990   -3.2569    0.0000 C   0  0  0  0  0  0  0  0  0  0  0  0
    7.4359   -5.2572    0.0000 C   0  0  0  0  0  0  0  0  0  0  0  0
    7.4359   -6.5882    0.0000 C   0  0  0  0  0  0  0  0  0  0  0  0
    6.2834   -7.2500    0.0000 C   0  0  0  0  0  0  0  0  0  0  0  0
    5.1308   -6.5882    0.0000 C   0  0  0  0  0  0  0  0  0  0  0  0
    2.9669   -5.7257    0.0000 C   0  0  0  0  0  0  0  0  0  0  0  0
    1.6880   -5.4505    0.0000 C   0  0  0  0  0  0  0  0  0  0  0  0
    1.2790   -4.1567    0.0000 N   0  0  0  0  0  0  0  0  0  0  0  0
    0.0000   -3.8816    0.0000 C   0  0  0  0  0  0  0  0  0  0  0  0
    2.2233   -3.2198    0.0000 C   0  0  0  0  0  0  0  0  0  0  0  0
  1  2  2  0  0  0  0
  1  6  1  0  0  0  0
  2  3  1  0  0  0  0
  3  4  2  0  0  0  0
  4  5  1  0  0  0  0
  4 11  1  0  0  0  0
  5  6  2  0  0  0  0
  5  7  1  0  0  0  0
  7  8  1  0  0  0  0
  7 20  1  0  0  0  0
  8  9  1  0  0  0  0
  8 16  1  0  0  0  0
  9 10  2  0  0  0  0
  9 15  1  0  0  0  0
 10 11  1  0  0  0  0
 10 12  1  0  0  0  0
 12 13  2  0  0  0  0
 13 14  1  0  0  0  0
 14 15  2  0  0  0  0
 16 17  1  0  0  0  0
 17 18  1  0  0  0  0
 18 19  1  0  0  0  0
 18 20  1  0  0  0  0
M  END
> <ID>
2977

> <Formula>
C18H20N2

> <FW>
264.3648

> <DSSTox_CID>
3317

> <DSSTox_RID>
76974

> <DSSTox_GSID>
23317

> <DSSTox_FileID_Sort>
1658

> <TS_ChemName>
Mianserin

> <TS_ChemName_Synonyms>


> <TS_CASRN>
24219-97-4

> <CASRN_ChemName_Relationship>
primary

> <TS_Description>
single chemical compound

> <ChemNote>


> <STRUCTURE_Shown>
tested chemical

> <STRUCTURE_Formula>
C18H20N2

> <STRUCTURE_MW>
264.3648

> <STRUCTURE_ChemType>
defined organic

> <STRUCTURE_DefinedOrganicForm>
parent

> <STRUCTURE_IUPAC>
2-methyl-1,2,3,4,10,14b-hexahydrodibenzo[c,f]pyrazino[1,2-a]azepine

> <STRUCTURE_SMILES>
CN1CC2N(CC1)c4ccccc4Cc3ccccc23

> <STRUCTURE_SMILES_Desalt>
CN1CC2N(CC1)c4ccccc4Cc3ccccc23

> <Substance_modify_yyyymmdd>
20080429

$$$$
