2437-25-4
ChemmineR-0914142331XD

 13 12  0  0  0  0  0  0  0  0  1 V2000
    0.0000   -1.3277    0.0000 C   0  0  0  0  0  0  0  0  0  0  0  0
    1.1479   -0.6638    0.0000 C   0  0  0  0  0  0  0  0  0  0  0  0
    2.3096   -1.3277    0.0000 C   0  0  0  0  0  0  0  0  0  0  0  0
    3.4575   -0.6638    0.0000 C   0  0  0  0  0  0  0  0  0  0  0  0
    4.6053   -1.3277    0.0000 C   0  0  0  0  0  0  0  0  0  0  0  0
    5.7670   -0.6638    0.0000 C   0  0  0  0  0  0  0  0  0  0  0  0
    6.9149   -1.3277    0.0000 C   0  0  0  0  0  0  0  0  0  0  0  0
    8.0628   -0.6638    0.0000 C   0  0  0  0  0  0  0  0  0  0  0  0
    9.2245   -1.3277    0.0000 C   0  0  0  0  0  0  0  0  0  0  0  0
   10.3724   -0.6638    0.0000 C   0  0  0  0  0  0  0  0  0  0  0  0
   11.5202   -1.3277    0.0000 C   0  0  0  0  0  0  0  0  0  0  0  0
   12.6819   -0.6638    0.0000 C   0  0  0  0  0  0  0  0  0  0  0  0
   13.8298    0.0000    0.0000 N   0  0  0  0  0  0  0  0  0  0  0  0
  1  2  1  0  0  0  0
  2  3  1  0  0  0  0
  3  4  1  0  0  0  0
  4  5  1  0  0  0  0
  5  6  1  0  0  0  0
  6  7  1  0  0  0  0
  7  8  1  0  0  0  0
  8  9  1  0  0  0  0
  9 10  1  0  0  0  0
 10 11  1  0  0  0  0
 11 12  1  0  0  0  0
 12 13  3  0  0  0  0
M  END
> <ID>
2027

> <Formula>
C12H23N

> <FW>
181.3177

> <DSSTox_CID>
2188

> <DSSTox_RID>
76519

> <DSSTox_GSID>
22188

> <DSSTox_FileID_Sort>
1203

> <TS_ChemName>
Dodecanenitrile

> <TS_ChemName_Synonyms>
Dodecanenitrile (n-Undecyl cyanide)

> <TS_CASRN>
2437-25-4

> <CASRN_ChemName_Relationship>
primary

> <TS_Description>
single chemical compound

> <ChemNote>


> <STRUCTURE_Shown>
tested chemical

> <STRUCTURE_Formula>
C12H23N

> <STRUCTURE_MW>
181.3177

> <STRUCTURE_ChemType>
defined organic

> <STRUCTURE_DefinedOrganicForm>
parent

> <STRUCTURE_IUPAC>
dodecanenitrile

> <STRUCTURE_SMILES>
CCCCCCCCCCCC#N

> <STRUCTURE_SMILES_Desalt>
CCCCCCCCCCCC#N

> <Substance_modify_yyyymmdd>
20080429

$$$$
