24448-94-0
ChemmineR-0914142331XD

 11 11  0  0  0  0  0  0  0  0  1 V2000
    1.3337   -2.0077    0.0000 C   0  0  0  0  0  0  0  0  0  0  0  0
    0.0000   -2.0077    0.0000 C   0  0  0  0  0  0  0  0  0  0  0  0
    0.6597   -3.1454    0.0000 C   0  0  0  0  0  0  0  0  0  0  0  0
    1.3337   -0.6740    0.0000 C   0  0  0  0  0  0  0  0  0  0  0  0
    0.1769    0.0000    0.0000 O   0  0  0  0  0  0  0  0  0  0  0  0
    2.4714    0.0000    0.0000 N   0  0  0  0  0  0  0  0  0  0  0  0
    3.6235   -0.6740    0.0000 C   0  0  0  0  0  0  0  0  0  0  0  0
    4.7803    0.0000    0.0000 O   0  0  0  0  0  0  0  0  0  0  0  0
    3.6235   -2.0077    0.0000 N   0  0  0  0  0  0  0  0  0  0  0  0
    2.4714   -2.6626    0.0000 C   0  0  0  0  0  0  0  0  0  0  0  0
    2.4714   -3.9963    0.0000 O   0  0  0  0  0  0  0  0  0  0  0  0
  1  2  1  0  0  0  0
  1  3  1  0  0  0  0
  1  4  1  0  0  0  0
  1 10  1  0  0  0  0
  4  5  2  0  0  0  0
  4  6  1  0  0  0  0
  6  7  1  0  0  0  0
  7  8  2  0  0  0  0
  7  9  1  0  0  0  0
  9 10  1  0  0  0  0
 10 11  2  0  0  0  0
M  END
> <ID>
492

> <Formula>
C6H8N2O3

> <FW>
156.1393

> <DSSTox_CID>
509

> <DSSTox_RID>
75631

> <DSSTox_GSID>
20509

> <DSSTox_FileID_Sort>
315

> <TS_ChemName>
5,5-Dimethylbarbituric acid

> <TS_ChemName_Synonyms>


> <TS_CASRN>
24448-94-0

> <CASRN_ChemName_Relationship>
primary

> <TS_Description>
single chemical compound

> <ChemNote>


> <STRUCTURE_Shown>
tested chemical

> <STRUCTURE_Formula>
C6H8N2O3

> <STRUCTURE_MW>
156.1393

> <STRUCTURE_ChemType>
defined organic

> <STRUCTURE_DefinedOrganicForm>
parent

> <STRUCTURE_IUPAC>
5,5-dimethylpyrimidine-2,4,6(1H,3H,5H)-trione

> <STRUCTURE_SMILES>
CC1(C)C(=O)NC(=O)NC1=O

> <STRUCTURE_SMILES_Desalt>
CC1(C)C(=O)NC(=O)NC1=O

> <Substance_modify_yyyymmdd>
20080429

$$$$
