2447-57-6
ChemmineR-0914142331XD

 21 22  0  0  0  0  0  0  0  0  1 V2000
    2.3037    0.0000    0.0000 C   0  0  0  0  0  0  0  0  0  0  0  0
    1.1519   -0.6681    0.0000 C   0  0  0  0  0  0  0  0  0  0  0  0
    0.0000    0.0000    0.0000 N   0  0  0  0  0  0  0  0  0  0  0  0
    1.1519   -1.9927    0.0000 C   0  0  0  0  0  0  0  0  0  0  0  0
    2.3037   -2.6608    0.0000 C   0  0  0  0  0  0  0  0  0  0  0  0
    3.4556   -1.9927    0.0000 C   0  0  0  0  0  0  0  0  0  0  0  0
    4.6074   -2.6608    0.0000 S   0  0  0  0  0  0  0  0  0  0  0  0
    3.9393   -3.8126    0.0000 O   0  0  0  0  0  0  0  0  0  0  0  0
    5.2755   -1.5089    0.0000 O   0  0  0  0  0  0  0  0  0  0  0  0
    5.7593   -3.3289    0.0000 N   0  0  0  0  0  0  0  0  0  0  0  0
    6.9111   -2.6608    0.0000 C   0  0  0  0  0  0  0  0  0  0  0  0
    8.0630   -3.3289    0.0000 C   0  0  0  0  0  0  0  0  0  0  0  0
    8.0630   -4.6535    0.0000 O   0  0  0  0  0  0  0  0  0  0  0  0
    9.2149   -5.3216    0.0000 C   0  0  0  0  0  0  0  0  0  0  0  0
    9.2149   -2.6608    0.0000 C   0  0  0  0  0  0  0  0  0  0  0  0
   10.3667   -3.3289    0.0000 O   0  0  0  0  0  0  0  0  0  0  0  0
   11.5186   -2.6608    0.0000 C   0  0  0  0  0  0  0  0  0  0  0  0
    9.2149   -1.3362    0.0000 N   0  0  0  0  0  0  0  0  0  0  0  0
    8.0630   -0.6681    0.0000 C   0  0  0  0  0  0  0  0  0  0  0  0
    6.9111   -1.3362    0.0000 N   0  0  0  0  0  0  0  0  0  0  0  0
    3.4556   -0.6681    0.0000 C   0  0  0  0  0  0  0  0  0  0  0  0
  1  2  2  0  0  0  0
  1 21  1  0  0  0  0
  2  3  1  0  0  0  0
  2  4  1  0  0  0  0
  4  5  2  0  0  0  0
  5  6  1  0  0  0  0
  6  7  1  0  0  0  0
  6 21  2  0  0  0  0
  7  8  2  0  0  0  0
  7  9  2  0  0  0  0
  7 10  1  0  0  0  0
 10 11  1  0  0  0  0
 11 12  2  0  0  0  0
 11 20  1  0  0  0  0
 12 13  1  0  0  0  0
 12 15  1  0  0  0  0
 13 14  1  0  0  0  0
 15 16  1  0  0  0  0
 15 18  2  0  0  0  0
 16 17  1  0  0  0  0
 18 19  1  0  0  0  0
 19 20  2  0  0  0  0
M  END
> <ID>
3227

> <Formula>
C12H14N4O4S

> <FW>
310.329

> <DSSTox_CID>
3608

> <DSSTox_RID>
77106

> <DSSTox_GSID>
23608

> <DSSTox_FileID_Sort>
1789

> <TS_ChemName>
Sulfadoxine

> <TS_ChemName_Synonyms>


> <TS_CASRN>
2447-57-6

> <CASRN_ChemName_Relationship>
primary

> <TS_Description>
single chemical compound

> <ChemNote>


> <STRUCTURE_Shown>
tested chemical

> <STRUCTURE_Formula>
C12H14N4O4S

> <STRUCTURE_MW>
310.329

> <STRUCTURE_ChemType>
defined organic

> <STRUCTURE_DefinedOrganicForm>
parent

> <STRUCTURE_IUPAC>
4-amino-N-(5,6-dimethoxypyrimidin-4-yl)benzenesulfonamide

> <STRUCTURE_SMILES>
O=S(=O)(Nc1ncnc(OC)c1OC)c2ccc(N)cc2

> <STRUCTURE_SMILES_Desalt>
O=S(=O)(Nc1ncnc(OC)c1OC)c2ccc(N)cc2

> <Substance_modify_yyyymmdd>
20080429

$$$$
