24589-77-3
ChemmineR-0914142331XD

 12 11  0  0  0  0  0  0  0  0  1 V2000
    1.9961   -1.1511    0.0000 C    0  0  0  0  0  0  0  0  0  0  0  0
    2.6615    0.0000    0.0000 C    0  0  0  0  0  0  0  0  0  0  0  0
    3.9923    0.0000    0.0000 C    0  0  0  0  0  0  0  0  0  0  0  0
    4.6576   -1.1511    0.0000 C    0  0  0  0  0  0  0  0  0  0  0  0
    5.9884   -1.1511    0.0000 N    0  0  0  0  0  0  0  0  0  0  0  0
    6.6538    0.0000    0.0000 N    0  0  0  0  0  0  0  0  0  0  0  0
    3.9923   -2.3022    0.0000 C    0  0  0  0  0  0  0  0  0  0  0  0
    2.6615   -2.3022    0.0000 C    0  0  0  0  0  0  0  0  0  0  0  0
    0.6654   -1.1511    0.0000 C    0  0  0  0  0  0  0  0  0  0  0  0
    0.0000   -2.3022    0.0000 O    0  0  0  0  0  0  0  0  0  0  0  0
    0.0000    0.0000    0.0000 O    0  0  0  0  0  0  0  0  0  0  0  0
    3.2537   -3.1339    0.0000 Cl   0  0  0  0  0  0  0  0  0  0  0  0
  1  2  2  0  0  0  0
  1  8  1  0  0  0  0
  1  9  1  0  0  0  0
  2  3  1  0  0  0  0
  3  4  2  0  0  0  0
  4  5  1  0  0  0  0
  4  7  1  0  0  0  0
  5  6  1  0  0  0  0
  7  8  2  0  0  0  0
  9 10  1  0  0  0  0
  9 11  2  0  0  0  0
M  END
> <ID>
679

> <Formula>
C7H9ClN2O2

> <FW>
188.6116 (152.1506+36.4609)

> <DSSTox_CID>
709

> <DSSTox_RID>
75750

> <DSSTox_GSID>
20709

> <DSSTox_FileID_Sort>
434

> <TS_ChemName>
4-Hydrazinobenzoic acid hydrochloride

> <TS_ChemName_Synonyms>


> <TS_CASRN>
24589-77-3

> <CASRN_ChemName_Relationship>
primary

> <TS_Description>
single chemical compound

> <ChemNote>
parent  [619-67-0]

> <STRUCTURE_Shown>
tested chemical

> <STRUCTURE_Formula>
C7H9ClN2O2

> <STRUCTURE_MW>
188.6116

> <STRUCTURE_ChemType>
defined organic

> <STRUCTURE_DefinedOrganicForm>
complex

> <STRUCTURE_IUPAC>
4-hydrazinylbenzoic acid hydrochloride (1:1)

> <STRUCTURE_SMILES>
Cl.NNc1ccc(cc1)C(=O)O

> <STRUCTURE_SMILES_Desalt>
NNc1ccc(cc1)C(=O)O

> <Substance_modify_yyyymmdd>
20080429

$$$$
