24815-24-5
ChemmineR-0914142331XD

 49 54  0  0  1  0  0  0  0  0  1 V2000
    5.4180   -2.0677    0.0000 C   0  0  0  0  0  0  0  0  0  0  0  0
    4.4034   -2.5846    0.0000 N   0  0  0  0  0  0  0  0  0  0  0  0
    5.4180   -0.7275    0.0000 C   0  0  0  0  0  0  0  0  0  0  0  0
    7.7155   -6.0307    0.0000 C   0  0  0  0  0  0  0  0  0  0  0  0
    7.7155   -4.7097    0.0000 C   0  0  0  0  0  0  0  0  0  0  0  0
    6.5668   -2.7569    0.0000 C   0  0  0  0  0  0  0  0  0  0  0  0
    7.7155   -2.0677    0.0000 N   0  0  0  0  0  0  0  0  0  0  0  0
    3.3695   -1.9336    0.0000 C   0  0  0  0  0  0  0  0  0  0  0  0
    3.3695   -0.7275    0.0000 C   0  0  0  0  0  0  0  0  0  0  0  0
    8.8450   -4.0396    0.0000 C   0  0  0  0  0  0  0  0  0  0  0  0
    9.9937   -6.0307    0.0000 C   0  0  0  0  0  0  0  0  0  0  0  0
    6.5668   -4.0396    0.0000 C   0  0  0  0  0  0  0  0  0  0  0  0
    8.8450   -6.7008    0.0000 C   0  0  0  0  0  0  0  0  0  0  0  0
   17.9963   -8.0409    0.0000 C   0  0  0  0  0  0  0  0  0  0  0  0
    6.5668   -6.7199    0.0000 C   0  0  0  0  0  0  0  0  0  0  0  0
    8.8450   -2.7569    0.0000 C   0  0  0  0  0  0  0  0  0  0  0  0
   16.8668   -8.6919    0.0000 C   0  0  0  0  0  0  0  0  0  0  0  0
   17.9963   -6.7199    0.0000 C   0  0  0  0  0  0  0  0  0  0  0  0
    9.9937   -4.7097    0.0000 C   0  0  0  0  0  0  0  0  0  0  0  0
    6.5668   -0.0766    0.0000 C   0  0  0  0  0  0  0  0  0  0  0  0
   11.1424   -6.7199    0.0000 O   0  0  0  0  0  0  0  0  0  0  0  0
    2.2400   -2.6420    0.0000 C   0  0  0  0  0  0  0  0  0  0  0  0
   12.2720   -6.0690    0.0000 C   0  0  0  0  0  0  0  0  0  0  0  0
    2.2400    0.0000    0.0000 C   0  0  0  0  0  0  0  0  0  0  0  0
    7.7155   -0.7275    0.0000 C   0  0  0  0  0  0  0  0  0  0  0  0
   13.4207   -6.7199    0.0000 C   0  0  0  0  0  0  0  0  0  0  0  0
   14.5694   -6.0690    0.0000 C   0  0  0  0  0  0  0  0  0  0  0  0
   15.7181   -6.7199    0.0000 C   0  0  0  0  0  0  0  0  0  0  0  0
   16.8668   -6.0690    0.0000 C   0  0  0  0  0  0  0  0  0  0  0  0
   15.7181   -8.0409    0.0000 C   0  0  0  0  0  0  0  0  0  0  0  0
    5.4180   -6.0498    0.0000 O   0  0  0  0  0  0  0  0  0  0  0  0
   12.2720   -4.7288    0.0000 O   0  0  0  0  0  0  0  0  0  0  0  0
    1.1296   -2.0102    0.0000 C   0  0  0  0  0  0  0  0  0  0  0  0
   19.1450   -8.6919    0.0000 O   0  0  0  0  0  0  0  0  0  0  0  0
    1.1296   -0.6701    0.0000 C   0  0  0  0  0  0  0  0  0  0  0  0
    8.8450   -8.0409    0.0000 O   0  0  0  0  0  0  0  0  0  0  0  0
    6.5668   -8.0409    0.0000 O   0  0  0  0  0  0  0  0  0  0  0  0
   19.1450   -6.0690    0.0000 O   0  0  0  0  0  0  0  0  0  0  0  0
   16.8668  -10.0320    0.0000 O   0  0  0  0  0  0  0  0  0  0  0  0
    0.0000   -2.7952    0.0000 O   0  0  0  0  0  0  0  0  0  0  0  0
   19.1450  -10.0320    0.0000 C   0  0  0  0  0  0  0  0  0  0  0  0
    9.9937   -8.6727    0.0000 C   0  0  0  0  0  0  0  0  0  0  0  0
   19.1450   -4.7480    0.0000 C   0  0  0  0  0  0  0  0  0  0  0  0
   15.7181  -10.6829    0.0000 C   0  0  0  0  0  0  0  0  0  0  0  0
    5.4180   -8.6727    0.0000 C   0  0  0  0  0  0  0  0  0  0  0  0
    0.0000   -4.1545    0.0000 C   0  0  0  0  0  0  0  0  0  0  0  0
    8.8450   -5.3606    0.0000 H   0  0  0  0  0  0  0  0  0  0  0  0
    7.7155   -3.3887    0.0000 H   0  0  0  0  0  0  0  0  0  0  0  0
    6.5668   -1.4167    0.0000 H   0  0  0  0  0  0  0  0  0  0  0  0
  1  2  1  0  0  0  0
  1  3  2  0  0  0  0
  1  6  1  0  0  0  0
  2  8  1  0  0  0  0
  3  9  1  0  0  0  0
  3 20  1  0  0  0  0
  4  5  1  0  0  0  0
  4 13  1  0  0  0  0
  4 15  1  1  0  0  0
  5 12  1  0  0  0  0
  5 10  1  0  0  0  0
  5 48  1  6  0  0  0
  6  7  1  0  0  0  0
  6 12  1  0  0  0  0
  6 49  1  1  0  0  0
  7 16  1  0  0  0  0
  7 25  1  0  0  0  0
  8 22  1  0  0  0  0
  8  9  2  0  0  0  0
  9 24  1  0  0  0  0
 10 19  1  0  0  0  0
 10 16  1  0  0  0  0
 10 47  1  6  0  0  0
 11 19  1  0  0  0  0
 11 21  1  1  0  0  0
 11 13  1  0  0  0  0
 13 36  1  6  0  0  0
 14 17  1  0  0  0  0
 14 34  1  0  0  0  0
 14 18  2  0  0  0  0
 15 31  2  0  0  0  0
 15 37  1  0  0  0  0
 17 30  2  0  0  0  0
 17 39  1  0  0  0  0
 18 29  1  0  0  0  0
 18 38  1  0  0  0  0
 20 25  1  0  0  0  0
 21 23  1  0  0  0  0
 22 33  2  0  0  0  0
 23 26  1  0  0  0  0
 23 32  2  0  0  0  0
 24 35  2  0  0  0  0
 26 27  2  3  0  0  0
 27 28  1  0  0  0  0
 28 29  2  0  0  0  0
 28 30  1  0  0  0  0
 33 40  1  0  0  0  0
 33 35  1  0  0  0  0
 34 41  1  0  0  0  0
 36 42  1  0  0  0  0
 37 45  1  0  0  0  0
 38 43  1  0  0  0  0
 39 44  1  0  0  0  0
 40 46  1  0  0  0  0
M  END
> <ID>
3181

> <Formula>
C35H42N2O9

> <FW>
634.716

> <DSSTox_CID>
3554

> <DSSTox_RID>
77079

> <DSSTox_GSID>
23554

> <DSSTox_FileID_Sort>
1762

> <TS_ChemName>
Rescinnamine

> <TS_ChemName_Synonyms>


> <TS_CASRN>
24815-24-5

> <CASRN_ChemName_Relationship>
primary

> <TS_Description>
single chemical compound

> <ChemNote>
stereochem

> <STRUCTURE_Shown>
tested chemical

> <STRUCTURE_Formula>
C35H42N2O9

> <STRUCTURE_MW>
634.716

> <STRUCTURE_ChemType>
defined organic

> <STRUCTURE_DefinedOrganicForm>
parent

> <STRUCTURE_IUPAC>
methyl (3beta,16beta,17alpha,18beta,20alpha)-11,17-dimethoxy-18-{[3-(3,4,5-trimethoxyphenyl)acryloyl]oxy}yohimban-16-carboxylate

> <STRUCTURE_SMILES>
COc1cc(cc(OC)c1OC)C=CC(=O)O[C@@H]3C[C@@H]4CN5CCc2c6ccc(OC)cc6nc2[C@H]5C[C@@H]4[C@@H]([C@H]3OC)C(=O)OC

> <STRUCTURE_SMILES_Desalt>
COc1cc(cc(OC)c1OC)C=CC(=O)O[C@@H]3C[C@@H]4CN5CCc2c6ccc(OC)cc6nc2[C@H]5C[C@@H]4[C@@H]([C@H]3OC)C(=O)OC

> <Substance_modify_yyyymmdd>
20080429

$$$$
