2489-77-2
ChemmineR-0914142331XD

  7  6  0  0  0  0  0  0  0  0  1 V2000
    0.0000   -2.3052    0.0000 S   0  0  0  0  0  0  0  0  0  0  0  0
    1.3306   -2.3052    0.0000 C   0  0  0  0  0  0  0  0  0  0  0  0
    1.9941   -1.1508    0.0000 N   0  0  0  0  0  0  0  0  0  0  0  0
    3.3247   -1.1508    0.0000 C   0  0  0  0  0  0  0  0  0  0  0  0
    1.3306    0.0000    0.0000 C   0  0  0  0  0  0  0  0  0  0  0  0
    1.9941   -3.4560    0.0000 N   0  0  0  0  0  0  0  0  0  0  0  0
    3.3247   -3.4560    0.0000 C   0  0  0  0  0  0  0  0  0  0  0  0
  1  2  2  0  0  0  0
  2  3  1  0  0  0  0
  2  6  1  0  0  0  0
  3  4  1  0  0  0  0
  3  5  1  0  0  0  0
  6  7  1  0  0  0  0
M  END
> <ID>
1349

> <Formula>
C4H10N2S

> <FW>
118.2006

> <DSSTox_CID>
1404

> <DSSTox_RID>
76142

> <DSSTox_GSID>
21404

> <DSSTox_FileID_Sort>
826

> <TS_ChemName>
1,1,3-Trimethyl-2-thiourea

> <TS_ChemName_Synonyms>
Trimethylthiourea

> <TS_CASRN>
2489-77-2

> <CASRN_ChemName_Relationship>
primary

> <TS_Description>
single chemical compound

> <ChemNote>


> <STRUCTURE_Shown>
tested chemical

> <STRUCTURE_Formula>
C4H10N2S

> <STRUCTURE_MW>
118.2006

> <STRUCTURE_ChemType>
defined organic

> <STRUCTURE_DefinedOrganicForm>
parent

> <STRUCTURE_IUPAC>
1,1,3-trimethylthiourea

> <STRUCTURE_SMILES>
CN(C)C(=S)NC

> <STRUCTURE_SMILES_Desalt>
CN(C)C(=S)NC

> <Substance_modify_yyyymmdd>
20080429

$$$$
