2499-95-8
ChemmineR-0914142331XD

 11 10  0  0  0  0  0  0  0  0  1 V2000
    0.0000   -1.3279    0.0000 C   0  0  0  0  0  0  0  0  0  0  0  0
    1.1515   -1.9918    0.0000 C   0  0  0  0  0  0  0  0  0  0  0  0
    2.3031   -1.3279    0.0000 C   0  0  0  0  0  0  0  0  0  0  0  0
    2.3031    0.0000    0.0000 O   0  0  0  0  0  0  0  0  0  0  0  0
    3.4546   -1.9918    0.0000 O   0  0  0  0  0  0  0  0  0  0  0  0
    4.6061   -1.3279    0.0000 C   0  0  0  0  0  0  0  0  0  0  0  0
    5.7681   -1.9918    0.0000 C   0  0  0  0  0  0  0  0  0  0  0  0
    6.9196   -1.3279    0.0000 C   0  0  0  0  0  0  0  0  0  0  0  0
    8.0711   -1.9918    0.0000 C   0  0  0  0  0  0  0  0  0  0  0  0
    9.2227   -1.3279    0.0000 C   0  0  0  0  0  0  0  0  0  0  0  0
   10.3742   -1.9918    0.0000 C   0  0  0  0  0  0  0  0  0  0  0  0
  1  2  2  0  0  0  0
  2  3  1  0  0  0  0
  3  4  2  0  0  0  0
  3  5  1  0  0  0  0
  5  6  1  0  0  0  0
  6  7  1  0  0  0  0
  7  8  1  0  0  0  0
  8  9  1  0  0  0  0
  9 10  1  0  0  0  0
 10 11  1  0  0  0  0
M  END
> <ID>
2033

> <Formula>
C9H16O2

> <FW>
156.2221

> <DSSTox_CID>
2194

> <DSSTox_RID>
76522

> <DSSTox_GSID>
22194

> <DSSTox_FileID_Sort>
1206

> <TS_ChemName>
Hexyl acrylate

> <TS_ChemName_Synonyms>


> <TS_CASRN>
2499-95-8

> <CASRN_ChemName_Relationship>
primary

> <TS_Description>
single chemical compound

> <ChemNote>


> <STRUCTURE_Shown>
tested chemical

> <STRUCTURE_Formula>
C9H16O2

> <STRUCTURE_MW>
156.2221

> <STRUCTURE_ChemType>
defined organic

> <STRUCTURE_DefinedOrganicForm>
parent

> <STRUCTURE_IUPAC>
hexyl prop-2-enoate

> <STRUCTURE_SMILES>
O=C(C=C)OCCCCCC

> <STRUCTURE_SMILES_Desalt>
O=C(C=C)OCCCCCC

> <Substance_modify_yyyymmdd>
20080429

$$$$
