25614-03-3
ChemmineR-0914142331XD

 45 51  0  0  1  0  0  0  0  0  1 V2000
    3.4535   -6.7563    0.0000 C    0  0  0  0  0  0  0  0  0  0  0  0
    3.4535   -9.4060    0.0000 C    0  0  0  0  0  0  0  0  0  0  0  0
    3.1019  -10.6744    0.0000 C    0  0  0  0  0  0  0  0  0  0  0  0
    5.7391   -2.8005    0.0000 N    0  0  0  0  0  0  0  0  0  0  0  0
    2.2981   -8.7404    0.0000 C    0  0  0  0  0  0  0  0  0  0  0  0
    2.2981   -7.4218    0.0000 C    0  0  0  0  0  0  0  0  0  0  0  0
    4.5837   -7.4218    0.0000 C    0  0  0  0  0  0  0  0  0  0  0  0
    3.4535   -5.4377    0.0000 C    0  0  0  0  0  0  0  0  0  0  0  0
    1.4819  -10.6744    0.0000 N    0  0  0  0  0  0  0  0  0  0  0  0
    4.5837   -4.7721    0.0000 C    0  0  0  0  0  0  0  0  0  0  0  0
    5.7391   -6.7563    0.0000 N    0  0  0  0  0  0  0  0  0  0  0  0
    4.5837   -3.4409    0.0000 C    0  0  0  0  0  0  0  0  0  0  0  0
    1.1553   -9.4060    0.0000 C    0  0  0  0  0  0  0  0  0  0  0  0
    4.5837   -8.7404    0.0000 C    0  0  0  0  0  0  0  0  0  0  0  0
    5.7391   -5.4377    0.0000 C    0  0  0  0  0  0  0  0  0  0  0  0
    3.4535   -2.8005    0.0000 O    0  0  0  0  0  0  0  0  0  0  0  0
    3.9809  -11.6665    0.0000 Br   0  0  0  0  0  0  0  0  0  0  0  0
    1.1553   -6.7563    0.0000 C    0  0  0  0  0  0  0  0  0  0  0  0
    6.8693   -7.4218    0.0000 C    0  0  0  0  0  0  0  0  0  0  0  0
    0.0000   -8.7404    0.0000 C    0  0  0  0  0  0  0  0  0  0  0  0
    0.0000   -7.4218    0.0000 C    0  0  0  0  0  0  0  0  0  0  0  0
    5.7391   -8.0874    0.0000 H    0  0  0  0  0  0  0  0  0  0  0  0
    9.1046   -3.4409    0.0000 N    0  0  0  0  0  0  0  0  0  0  0  0
    9.1046   -2.0972    0.0000 C    0  0  0  0  0  0  0  0  0  0  0  0
    7.0702   -2.7753    0.0000 C    0  0  0  0  0  0  0  0  0  0  0  0
    7.8363   -3.8553    0.0000 C    0  0  0  0  0  0  0  0  0  0  0  0
    7.8363   -1.6953    0.0000 O    0  0  0  0  0  0  0  0  0  0  0  0
   10.2600   -4.0939    0.0000 C    0  0  0  0  0  0  0  0  0  0  0  0
   11.4028   -3.4409    0.0000 C    0  0  0  0  0  0  0  0  0  0  0  0
   11.4028   -2.0972    0.0000 N    0  0  0  0  0  0  0  0  0  0  0  0
   10.2600   -1.4567    0.0000 C    0  0  0  0  0  0  0  0  0  0  0  0
    7.4344   -5.1112    0.0000 O    0  0  0  0  0  0  0  0  0  0  0  0
   12.5581   -4.0939    0.0000 O    0  0  0  0  0  0  0  0  0  0  0  0
    9.1674   -0.7409    0.0000 O    0  0  0  0  0  0  0  0  0  0  0  0
   10.2600   -5.4251    0.0000 C    0  0  0  0  0  0  0  0  0  0  0  0
    6.3921   -1.6326    0.0000 C    0  0  0  0  0  0  0  0  0  0  0  0
   12.3949   -1.2307    0.0000 C    0  0  0  0  0  0  0  0  0  0  0  0
   10.5237   -0.1507    0.0000 C    0  0  0  0  0  0  0  0  0  0  0  0
   11.8423    0.0000    0.0000 C    0  0  0  0  0  0  0  0  0  0  0  0
   11.4028   -6.1032    0.0000 C    0  0  0  0  0  0  0  0  0  0  0  0
    7.0325   -0.4647    0.0000 C    0  0  0  0  0  0  0  0  0  0  0  0
    5.0484   -1.6577    0.0000 C    0  0  0  0  0  0  0  0  0  0  0  0
   11.4028   -7.4218    0.0000 C    0  0  0  0  0  0  0  0  0  0  0  0
   12.5581   -5.4251    0.0000 C    0  0  0  0  0  0  0  0  0  0  0  0
   10.2474   -2.6874    0.0000 H    0  0  0  0  0  0  0  0  0  0  0  0
  1  8  2  0  0  0  0
  1  6  1  0  0  0  0
  1  7  1  0  0  0  0
  2 14  1  0  0  0  0
  2  3  2  0  0  0  0
  2  5  1  0  0  0  0
  3 17  1  0  0  0  0
  3  9  1  0  0  0  0
  4 12  1  0  0  0  0
 25  4  1  6  0  0  0
  5  6  2  0  0  0  0
  5 13  1  0  0  0  0
  6 18  1  0  0  0  0
  7 11  1  0  0  0  0
  7 14  1  0  0  0  0
  7 22  1  1  0  0  0
  8 10  1  0  0  0  0
  9 13  1  0  0  0  0
 10 12  1  1  0  0  0
 10 15  1  0  0  0  0
 11 15  1  0  0  0  0
 11 19  1  0  0  0  0
 12 16  2  0  0  0  0
 13 20  2  0  0  0  0
 18 21  2  0  0  0  0
 20 21  1  0  0  0  0
 23 24  1  0  0  0  0
 23 26  1  0  0  0  0
 23 28  1  0  0  0  0
 24 27  1  0  0  0  0
 24 31  1  0  0  0  0
 24 34  1  6  0  0  0
 25 26  1  0  0  0  0
 25 36  1  1  0  0  0
 25 27  1  0  0  0  0
 26 32  2  0  0  0  0
 28 29  1  0  0  0  0
 28 35  1  6  0  0  0
 29 30  1  0  0  0  0
 29 33  2  0  0  0  0
 30 37  1  0  0  0  0
 30 31  1  0  0  0  0
 31 38  1  0  0  0  0
 31 45  1  1  0  0  0
 35 40  1  0  0  0  0
 36 41  1  0  0  0  0
 36 42  1  0  0  0  0
 37 39  1  0  0  0  0
 38 39  1  0  0  0  0
 40 43  1  0  0  0  0
 40 44  1  0  0  0  0
M  END
> <ID>
2433

> <Formula>
C32H40BrN5O5

> <FW>
654.5945

> <DSSTox_CID>
2687

> <DSSTox_RID>
76692

> <DSSTox_GSID>
22687

> <DSSTox_FileID_Sort>
1376

> <TS_ChemName>
Bromocriptine

> <TS_ChemName_Synonyms>


> <TS_CASRN>
25614-03-3

> <CASRN_ChemName_Relationship>
primary

> <TS_Description>
single chemical compound

> <ChemNote>
stereochem

> <STRUCTURE_Shown>
tested chemical

> <STRUCTURE_Formula>
C32H40BrN5O5

> <STRUCTURE_MW>
654.5945

> <STRUCTURE_ChemType>
defined organic

> <STRUCTURE_DefinedOrganicForm>
parent

> <STRUCTURE_IUPAC>
(5'alpha)-2-bromo-12'-hydroxy-5'-(2-methylpropyl)-3',6',18-trioxo-2'-(propan-2-yl)ergotaman

> <STRUCTURE_SMILES>
Brc3nc2cccc1C4=C[C@H](CN(C)[C@@H]4Cc3c12)C(=O)N[C@@]7(O[C@]6(O)N([C@@H](CC(C)C)C(=O)N5CCC[C@H]56)C7=O)C(C)C

> <STRUCTURE_SMILES_Desalt>
Brc3nc2cccc1C4=C[C@H](CN(C)[C@@H]4Cc3c12)C(=O)N[C@@]7(O[C@]6(O)N([C@@H](CC(C)C)C(=O)N5CCC[C@H]56)C7=O)C(C)C

> <Substance_modify_yyyymmdd>
20080429

$$$$
