25953-19-9
ChemmineR-0914142331XD

 31 34  0  0  1  0  0  0  0  0  1 V2000
    6.9403   -2.0054    0.0000 C   0  0  0  0  0  0  0  0  0  0  0  0
    8.2655   -3.3132    0.0000 N   0  0  0  0  0  0  0  0  0  0  0  0
    8.2655   -2.0054    0.0000 C   0  0  0  0  0  0  0  0  0  0  0  0
    6.9403   -3.3132    0.0000 C   0  0  0  0  0  0  0  0  0  0  0  0
    9.4164   -3.9933    0.0000 C   0  0  0  0  0  0  0  0  0  0  0  0
   10.5673   -3.3132    0.0000 C   0  0  0  0  0  0  0  0  0  0  0  0
    9.4164   -1.3253    0.0000 S   0  0  0  0  0  0  0  0  0  0  0  0
   10.5673   -1.9879    0.0000 C   0  0  0  0  0  0  0  0  0  0  0  0
    6.9403   -0.6626    0.0000 H   0  0  0  0  0  0  0  0  0  0  0  0
    8.2655   -0.6626    0.0000 H   0  0  0  0  0  0  0  0  0  0  0  0
    5.9986   -4.2548    0.0000 O   0  0  0  0  0  0  0  0  0  0  0  0
   11.7357   -3.9933    0.0000 C   0  0  0  0  0  0  0  0  0  0  0  0
    9.4164   -5.3011    0.0000 C   0  0  0  0  0  0  0  0  0  0  0  0
   10.5673   -5.9812    0.0000 O   0  0  0  0  0  0  0  0  0  0  0  0
    8.2830   -5.9812    0.0000 O   0  0  0  0  0  0  0  0  0  0  0  0
    5.6150   -2.0054    0.0000 N   0  0  0  0  0  0  0  0  0  0  0  0
    4.4641    0.0000    0.0000 O   0  0  0  0  0  0  0  0  0  0  0  0
    4.4641   -1.3253    0.0000 C   0  0  0  0  0  0  0  0  0  0  0  0
    3.2958   -2.0054    0.0000 C   0  0  0  0  0  0  0  0  0  0  0  0
   12.8691   -3.3132    0.0000 S   0  0  0  0  0  0  0  0  0  0  0  0
   14.0026   -4.0107    0.0000 C   0  0  0  0  0  0  0  0  0  0  0  0
   15.0837   -3.2434    0.0000 S   0  0  0  0  0  0  0  0  0  0  0  0
   16.1649   -4.0107    0.0000 C   0  0  0  0  0  0  0  0  0  0  0  0
   14.4211   -5.2837    0.0000 N   0  0  0  0  0  0  0  0  0  0  0  0
   15.7464   -5.2837    0.0000 N   0  0  0  0  0  0  0  0  0  0  0  0
   17.4379   -3.5922    0.0000 C   0  0  0  0  0  0  0  0  0  0  0  0
    2.1623   -1.3253    0.0000 N   0  0  0  0  0  0  0  0  0  0  0  0
    1.0637   -2.1100    0.0000 C   0  0  0  0  0  0  0  0  0  0  0  0
    1.7438   -0.0698    0.0000 N   0  0  0  0  0  0  0  0  0  0  0  0
    0.0000   -1.3253    0.0000 N   0  0  0  0  0  0  0  0  0  0  0  0
    0.4185   -0.0698    0.0000 N   0  0  0  0  0  0  0  0  0  0  0  0
  1  3  1  0  0  0  0
  1  4  1  0  0  0  0
  1  9  1  6  0  0  0
  1 16  1  1  0  0  0
  2  4  1  0  0  0  0
  2  5  1  0  0  0  0
  2  3  1  0  0  0  0
  3  7  1  0  0  0  0
  3 10  1  6  0  0  0
  4 11  2  0  0  0  0
  5  6  2  0  0  0  0
  5 13  1  0  0  0  0
  6  8  1  0  0  0  0
  6 12  1  0  0  0  0
  7  8  1  0  0  0  0
 12 20  1  0  0  0  0
 13 14  2  0  0  0  0
 13 15  1  0  0  0  0
 16 18  1  0  0  0  0
 17 18  2  0  0  0  0
 18 19  1  0  0  0  0
 19 27  1  0  0  0  0
 20 21  1  0  0  0  0
 21 22  1  0  0  0  0
 21 24  2  0  0  0  0
 22 23  1  0  0  0  0
 23 25  2  0  0  0  0
 23 26  1  0  0  0  0
 24 25  1  0  0  0  0
 27 28  1  0  0  0  0
 27 29  1  0  0  0  0
 28 30  2  0  0  0  0
 29 31  2  0  0  0  0
 30 31  1  0  0  0  0
M  END
> <ID>
2492

> <Formula>
C14H14N8O4S3

> <FW>
454.5072

> <DSSTox_CID>
2753

> <DSSTox_RID>
76717

> <DSSTox_GSID>
22753

> <DSSTox_FileID_Sort>
1401

> <TS_ChemName>
Cefazolin

> <TS_ChemName_Synonyms>


> <TS_CASRN>
25953-19-9

> <CASRN_ChemName_Relationship>
primary

> <TS_Description>
single chemical compound

> <ChemNote>
stereochem

> <STRUCTURE_Shown>
tested chemical

> <STRUCTURE_Formula>
C14H14N8O4S3

> <STRUCTURE_MW>
454.5072

> <STRUCTURE_ChemType>
defined organic

> <STRUCTURE_DefinedOrganicForm>
parent

> <STRUCTURE_IUPAC>
(6R,7R)-3-{[(5-methyl-1,3,4-thiadiazol-2-yl)sulfanyl]methyl}-8-oxo-7-[(1H-tetrazol-1-ylacetyl)amino]-5-thia-1-azabicyclo[4.2.0]oct-2-ene-2-carboxylic acid

> <STRUCTURE_SMILES>
O=C(O)C=3N4C(=O)[C@@H](NC(=O)Cn1cnnn1)[C@H]4SCC=3CSc2nnc(C)s2

> <STRUCTURE_SMILES_Desalt>
O=C(O)C=3N4C(=O)[C@@H](NC(=O)Cn1cnnn1)[C@H]4SCC=3CSc2nnc(C)s2

> <Substance_modify_yyyymmdd>
20080429

$$$$
