26049-71-8
ChemmineR-0914142331XD

 14 15  0  0  0  0  0  0  0  0  1 V2000
    4.3386   -1.1499    0.0000 C   0  0  0  0  0  0  0  0  0  0  0  0
    3.5559   -2.2321    0.0000 N   0  0  0  0  0  0  0  0  0  0  0  0
    2.2901   -1.8166    0.0000 C   0  0  0  0  0  0  0  0  0  0  0  0
    2.2901   -0.4831    0.0000 S   0  0  0  0  0  0  0  0  0  0  0  0
    3.5559   -0.0773    0.0000 C   0  0  0  0  0  0  0  0  0  0  0  0
    1.2175   -2.5993    0.0000 N   0  0  0  0  0  0  0  0  0  0  0  0
    0.0000   -2.0582    0.0000 N   0  0  0  0  0  0  0  0  0  0  0  0
    5.6721   -1.1499    0.0000 C   0  0  0  0  0  0  0  0  0  0  0  0
    6.3388    0.0000    0.0000 C   0  0  0  0  0  0  0  0  0  0  0  0
    7.6627    0.0000    0.0000 C   0  0  0  0  0  0  0  0  0  0  0  0
    8.3294   -1.1499    0.0000 C   0  0  0  0  0  0  0  0  0  0  0  0
    7.6627   -2.2998    0.0000 C   0  0  0  0  0  0  0  0  0  0  0  0
    6.3388   -2.2998    0.0000 C   0  0  0  0  0  0  0  0  0  0  0  0
    9.6629   -1.1499    0.0000 N   0  0  0  0  0  0  0  0  0  0  0  0
  1  2  1  0  0  0  0
  1  5  2  0  0  0  0
  1  8  1  0  0  0  0
  2  3  2  0  0  0  0
  3  4  1  0  0  0  0
  3  6  1  0  0  0  0
  4  5  1  0  0  0  0
  6  7  1  0  0  0  0
  8  9  2  0  0  0  0
  8 13  1  0  0  0  0
  9 10  1  0  0  0  0
 10 11  2  0  0  0  0
 11 12  1  0  0  0  0
 11 14  1  0  0  0  0
 12 13  2  0  0  0  0
M  END
> <ID>
674

> <Formula>
C9H10N4S

> <FW>
206.2675

> <DSSTox_CID>
704

> <DSSTox_RID>
75746

> <DSSTox_GSID>
20704

> <DSSTox_FileID_Sort>
430

> <TS_ChemName>
2-Hydrazino-4-(4-aminophenyl) thiazole

> <TS_ChemName_Synonyms>
2-Hydrazino-4-(p-aminophenyl) thiazole

> <TS_CASRN>
26049-71-8

> <CASRN_ChemName_Relationship>
primary

> <TS_Description>
single chemical compound

> <ChemNote>


> <STRUCTURE_Shown>
tested chemical

> <STRUCTURE_Formula>
C9H10N4S

> <STRUCTURE_MW>
206.2675

> <STRUCTURE_ChemType>
defined organic

> <STRUCTURE_DefinedOrganicForm>
parent

> <STRUCTURE_IUPAC>
4-(2-hydrazinyl-1,3-thiazol-4-yl)aniline

> <STRUCTURE_SMILES>
NNc1nc(cs1)c2ccc(N)cc2

> <STRUCTURE_SMILES_Desalt>
NNc1nc(cs1)c2ccc(N)cc2

> <Substance_modify_yyyymmdd>
20080429

$$$$
