2611-61-2
ChemmineR-0914142331XD

 26 25  0  0  1  0  0  0  0  0  1 V2000
    5.7578    0.0000    0.0000 O    0  0  0  0  0  0  0  0  0  0  0  0
    5.7578   -1.3358    0.0000 C    0  0  0  0  0  0  0  0  0  0  0  0
    6.9094   -1.9922    0.0000 C    0  0  0  0  0  0  0  0  0  0  0  0
    8.0610   -1.3358    0.0000 C    0  0  0  0  0  0  0  0  0  0  0  0
    9.2126   -1.9922    0.0000 O    0  0  0  0  0  0  0  0  0  0  0  0
   10.3641   -1.3358    0.0000 C    0  0  0  0  0  0  0  0  0  0  0  0
   10.3641    0.0000    0.0000 O    0  0  0  0  0  0  0  0  0  0  0  0
   11.5157   -1.9922    0.0000 C    0  0  0  0  0  0  0  0  0  0  0  0
   11.5157   -3.3280    0.0000 N    0  0  0  0  0  0  0  0  0  0  0  0
    6.9094   -3.3280    0.0000 N    0  0  0  0  0  0  0  0  0  0  0  0
    8.0610   -3.9959    0.0000 C    0  0  0  0  0  0  0  0  0  0  0  0
    9.2126   -3.3280    0.0000 O    0  0  0  0  0  0  0  0  0  0  0  0
    8.0610   -5.3203    0.0000 C    0  0  0  0  0  0  0  0  0  0  0  0
    6.9094   -5.9882    0.0000 Cl   0  0  0  0  0  0  0  0  0  0  0  0
    9.2126   -5.9882    0.0000 Cl   0  0  0  0  0  0  0  0  0  0  0  0
    4.6063   -1.9922    0.0000 C    0  0  0  0  0  0  0  0  0  0  0  0
    4.6063   -3.3280    0.0000 C    0  0  0  0  0  0  0  0  0  0  0  0
    3.4547   -3.9959    0.0000 C    0  0  0  0  0  0  0  0  0  0  0  0
    2.3031   -3.3280    0.0000 C    0  0  0  0  0  0  0  0  0  0  0  0
    2.3031   -1.9922    0.0000 C    0  0  0  0  0  0  0  0  0  0  0  0
    3.4547   -1.3358    0.0000 C    0  0  0  0  0  0  0  0  0  0  0  0
    1.1516   -3.9959    0.0000 S    0  0  0  0  0  0  0  0  0  0  0  0
    1.8195   -5.1475    0.0000 C    0  0  0  0  0  0  0  0  0  0  0  0
    0.4837   -2.8444    0.0000 O    0  0  0  0  0  0  0  0  0  0  0  0
    0.0000   -4.6523    0.0000 O    0  0  0  0  0  0  0  0  0  0  0  0
    6.1609   -8.8095    0.0000 Cl   0  0  0  0  0  0  0  0  0  0  0  0
  2  1  1  1  0  0  0
  2  3  1  0  0  0  0
  2 16  1  0  0  0  0
  3  4  1  0  0  0  0
  3 10  1  1  0  0  0
  4  5  1  0  0  0  0
  5  6  1  0  0  0  0
  6  7  2  0  0  0  0
  6  8  1  0  0  0  0
  8  9  1  0  0  0  0
 10 11  1  0  0  0  0
 11 12  2  0  0  0  0
 11 13  1  0  0  0  0
 13 14  1  0  0  0  0
 13 15  1  0  0  0  0
 16 17  2  0  0  0  0
 16 21  1  0  0  0  0
 17 18  1  0  0  0  0
 18 19  2  0  0  0  0
 19 20  1  0  0  0  0
 19 22  1  0  0  0  0
 20 21  2  0  0  0  0
 22 23  1  0  0  0  0
 22 24  2  0  0  0  0
 22 25  2  0  0  0  0
M  END
> <ID>
3260

> <Formula>
C14H19Cl3N2O6S

> <FW>
449.7345 (413.2735+36.4609)

> <DSSTox_CID>
3650

> <DSSTox_RID>
77128

> <DSSTox_GSID>
23650

> <DSSTox_FileID_Sort>
1811

> <TS_ChemName>
Thiamphenicol glycinate hydrochloride

> <TS_ChemName_Synonyms>
Thiamphenicol glycinate

> <TS_CASRN>
2611-61-2

> <CASRN_ChemName_Relationship>
primary

> <TS_Description>
single chemical compound

> <ChemNote>
stereochem; parent [15318-45-3]

> <STRUCTURE_Shown>
tested chemical

> <STRUCTURE_Formula>
C14H19Cl3N2O6S

> <STRUCTURE_MW>
449.7345

> <STRUCTURE_ChemType>
defined organic

> <STRUCTURE_DefinedOrganicForm>
complex

> <STRUCTURE_IUPAC>
(2R,3R)-2-[(dichloroacetyl)amino]-3-hydroxy-3-[4-(methylsulfonyl)phenyl]propyl glycinate hydrochloride (1:1)

> <STRUCTURE_SMILES>
Cl.O=S(C)(=O)c1ccc(cc1)[C@@H](O)[C@@H](COC(=O)CN)NC(=O)C(Cl)Cl

> <STRUCTURE_SMILES_Desalt>
O=S(C)(=O)c1ccc(cc1)[C@@H](O)[C@@H](COC(=O)CN)NC(=O)C(Cl)Cl

> <Substance_modify_yyyymmdd>
20080429

$$$$
