26839-75-8
ChemmineR-0914142331XD

 21 22  0  0  1  0  0  0  0  0  1 V2000
    2.7832   -2.0471    0.0000 C   0  0  0  0  0  0  0  0  0  0  0  0
    4.1402   -2.0471    0.0000 C   0  0  0  0  0  0  0  0  0  0  0  0
    2.3921   -0.7705    0.0000 N   0  0  0  0  0  0  0  0  0  0  0  0
    4.5428   -0.7935    0.0000 N   0  0  0  0  0  0  0  0  0  0  0  0
    3.4617    0.0000    0.0000 S   0  0  0  0  0  0  0  0  0  0  0  0
    1.9896   -3.1052    0.0000 N   0  0  0  0  0  0  0  0  0  0  0  0
    4.8878   -3.1857    0.0000 O   0  0  0  0  0  0  0  0  0  0  0  0
    8.8555   -5.4858    0.0000 N   0  0  0  0  0  0  0  0  0  0  0  0
   10.1781   -5.4858    0.0000 C   0  0  0  0  0  0  0  0  0  0  0  0
    0.6670   -5.4168    0.0000 O   0  0  0  0  0  0  0  0  0  0  0  0
    6.8544   -4.3357    0.0000 C   0  0  0  0  0  0  0  0  0  0  0  0
    6.2103   -3.1857    0.0000 C   0  0  0  0  0  0  0  0  0  0  0  0
    8.1885   -4.3357    0.0000 C   0  0  0  0  0  0  0  0  0  0  0  0
    0.6670   -3.1052    0.0000 C   0  0  0  0  0  0  0  0  0  0  0  0
    2.6681   -4.2667    0.0000 C   0  0  0  0  0  0  0  0  0  0  0  0
    6.2103   -5.4858    0.0000 O   0  0  0  0  0  0  0  0  0  0  0  0
    1.9896   -5.4168    0.0000 C   0  0  0  0  0  0  0  0  0  0  0  0
    0.0000   -4.2552    0.0000 C   0  0  0  0  0  0  0  0  0  0  0  0
   10.1781   -6.8084    0.0000 C   0  0  0  0  0  0  0  0  0  0  0  0
   10.1781   -4.1632    0.0000 C   0  0  0  0  0  0  0  0  0  0  0  0
   11.5006   -5.4858    0.0000 C   0  0  0  0  0  0  0  0  0  0  0  0
  1  2  1  0  0  0  0
  1  3  2  0  0  0  0
  1  6  1  0  0  0  0
  2  4  2  0  0  0  0
  2  7  1  0  0  0  0
  3  5  1  0  0  0  0
  4  5  1  0  0  0  0
  6 14  1  0  0  0  0
  6 15  1  0  0  0  0
  7 12  1  0  0  0  0
  8 13  1  0  0  0  0
  8  9  1  0  0  0  0
  9 19  1  0  0  0  0
  9 20  1  0  0  0  0
  9 21  1  0  0  0  0
 10 17  1  0  0  0  0
 10 18  1  0  0  0  0
 11 12  1  0  0  0  0
 11 13  1  0  0  0  0
 11 16  1  6  0  0  0
 14 18  1  0  0  0  0
 15 17  1  0  0  0  0
M  END
> <ID>
3282

> <Formula>
C13H24N4O3S

> <FW>
316.4197

> <DSSTox_CID>
3674

> <DSSTox_RID>
77140

> <DSSTox_GSID>
23674

> <DSSTox_FileID_Sort>
1823

> <TS_ChemName>
Timolol

> <TS_ChemName_Synonyms>


> <TS_CASRN>
26839-75-8

> <CASRN_ChemName_Relationship>
primary

> <TS_Description>
single chemical compound

> <ChemNote>
stereochem

> <STRUCTURE_Shown>
tested chemical

> <STRUCTURE_Formula>
C13H24N4O3S

> <STRUCTURE_MW>
316.4197

> <STRUCTURE_ChemType>
defined organic

> <STRUCTURE_DefinedOrganicForm>
parent

> <STRUCTURE_IUPAC>
(2S)-1-(tert-butylamino)-3-{[4-(morpholin-4-yl)-1,2,5-thiadiazol-3-yl]oxy}propan-2-ol

> <STRUCTURE_SMILES>
O[C@H](COc1nsnc1N2CCOCC2)CNC(C)(C)C

> <STRUCTURE_SMILES_Desalt>
O[C@H](COc1nsnc1N2CCOCC2)CNC(C)(C)C

> <Substance_modify_yyyymmdd>
20080429

$$$$
