27007-85-8
ChemmineR-0914142331XD

 30 33  0  0  0  0  0  0  0  0  1 V2000
    3.5213   -6.1165    0.0000 N    0  0  0  0  0  0  0  0  0  0  0  0
    4.6760   -6.7910    0.0000 C    0  0  0  0  0  0  0  0  0  0  0  0
    3.5213   -8.8032    0.0000 S    0  0  0  0  0  0  0  0  0  0  0  0
    9.3405   -2.7324    0.0000 C    0  0  0  0  0  0  0  0  0  0  0  0
    9.3519   -1.5548    0.0000 N    0  0  0  0  0  0  0  0  0  0  0  0
    2.3323   -6.7910    0.0000 C    0  0  0  0  0  0  0  0  0  0  0  0
    4.6760   -8.1172    0.0000 C    0  0  0  0  0  0  0  0  0  0  0  0
    2.3323   -8.1172    0.0000 C    0  0  0  0  0  0  0  0  0  0  0  0
   10.5409   -3.2012    0.0000 S    0  0  0  0  0  0  0  0  0  0  0  0
   10.5638   -1.2004    0.0000 C    0  0  0  0  0  0  0  0  0  0  0  0
    5.8650   -6.1165    0.0000 C    0  0  0  0  0  0  0  0  0  0  0  0
    7.0082   -4.1158    0.0000 N    0  0  0  0  0  0  0  0  0  0  0  0
    9.3519   -4.1158    0.0000 C    0  0  0  0  0  0  0  0  0  0  0  0
    8.1858   -2.0922    0.0000 C    0  0  0  0  0  0  0  0  0  0  0  0
    5.8650   -8.8032    0.0000 C    0  0  0  0  0  0  0  0  0  0  0  0
   10.9868    0.0000    0.0000 O    0  0  0  0  0  0  0  0  0  0  0  0
   11.2726   -2.1951    0.0000 C    0  0  0  0  0  0  0  0  0  0  0  0
    7.0082   -2.7553    0.0000 C    0  0  0  0  0  0  0  0  0  0  0  0
    8.1858   -4.7789    0.0000 C    0  0  0  0  0  0  0  0  0  0  0  0
    3.5213   -4.7674    0.0000 C    0  0  0  0  0  0  0  0  0  0  0  0
    7.0311   -6.7910    0.0000 C    0  0  0  0  0  0  0  0  0  0  0  0
    4.6760   -4.0815    0.0000 C    0  0  0  0  0  0  0  0  0  0  0  0
    7.0311   -8.1172    0.0000 C    0  0  0  0  0  0  0  0  0  0  0  0
    8.2087   -6.1165    0.0000 Cl   0  0  0  0  0  0  0  0  0  0  0  0
    5.8650   -4.7789    0.0000 C    0  0  0  0  0  0  0  0  0  0  0  0
    1.1890   -6.1165    0.0000 C    0  0  0  0  0  0  0  0  0  0  0  0
    1.1890   -8.8032    0.0000 C    0  0  0  0  0  0  0  0  0  0  0  0
    0.0000   -6.7910    0.0000 C    0  0  0  0  0  0  0  0  0  0  0  0
    0.0000   -8.1172    0.0000 C    0  0  0  0  0  0  0  0  0  0  0  0
   11.4327   -5.4191    0.0000 Cl   0  0  0  0  0  0  0  0  0  0  0  0
  1  2  1  0  0  0  0
  1  6  1  0  0  0  0
  1 20  1  0  0  0  0
  2  7  2  0  0  0  0
  2 11  1  0  0  0  0
  3  8  1  0  0  0  0
  3  7  1  0  0  0  0
  4 13  1  0  0  0  0
  4  5  1  0  0  0  0
  4  9  1  0  0  0  0
  4 14  1  0  0  0  0
  5 10  1  0  0  0  0
  6  8  2  0  0  0  0
  6 26  1  0  0  0  0
  7 15  1  0  0  0  0
  8 27  1  0  0  0  0
  9 17  1  0  0  0  0
 10 16  2  0  0  0  0
 10 17  1  0  0  0  0
 11 21  2  0  0  0  0
 12 25  1  0  0  0  0
 12 18  1  0  0  0  0
 12 19  1  0  0  0  0
 13 19  1  0  0  0  0
 14 18  1  0  0  0  0
 15 23  2  0  0  0  0
 20 22  1  0  0  0  0
 21 23  1  0  0  0  0
 21 24  1  0  0  0  0
 22 25  1  0  0  0  0
 26 28  2  0  0  0  0
 27 29  2  0  0  0  0
 28 29  1  0  0  0  0
M  END
> <ID>
3213

> <Formula>
C22H25Cl2N3OS2

> <FW>
482.4894 (446.0285+36.4609)

> <DSSTox_CID>
3593

> <DSSTox_RID>
77099

> <DSSTox_GSID>
23593

> <DSSTox_FileID_Sort>
1782

> <TS_ChemName>
Spiclomazine hydrochloride

> <TS_ChemName_Synonyms>
Spiclomazine hydrochloride (Spiclomazine)

> <TS_CASRN>
27007-85-8

> <CASRN_ChemName_Relationship>
primary

> <TS_Description>
single chemical compound

> <ChemNote>
parent [24527-27-3]

> <STRUCTURE_Shown>
tested chemical

> <STRUCTURE_Formula>
C22H25Cl2N3OS2

> <STRUCTURE_MW>
482.4894

> <STRUCTURE_ChemType>
defined organic

> <STRUCTURE_DefinedOrganicForm>
complex

> <STRUCTURE_IUPAC>
8-[3-(2-chloro-10H-phenothiazin-10-yl)propyl]-1-thia-4,8-diazaspiro[4.5]decan-3-one hydrochloride (1:1)

> <STRUCTURE_SMILES>
Cl.Clc4ccc5Sc1ccccc1N(CCCN2CCC3(CC2)NC(=O)CS3)c5c4

> <STRUCTURE_SMILES_Desalt>
Clc4ccc5Sc1ccccc1N(CCCN2CCC3(CC2)NC(=O)CS3)c5c4

> <Substance_modify_yyyymmdd>
20080429

$$$$
