27203-92-5
ChemmineR-0914142331XD

 19 20  0  0  1  0  0  0  0  0  1 V2000
    5.6378   -3.9941    0.0000 C   0  0  0  0  0  0  0  0  0  0  0  0
    5.6378   -2.6601    0.0000 C   0  0  0  0  0  0  0  0  0  0  0  0
    4.4864   -1.9931    0.0000 C   0  0  0  0  0  0  0  0  0  0  0  0
    4.4864   -0.6670    0.0000 N   0  0  0  0  0  0  0  0  0  0  0  0
    5.6378    0.0000    0.0000 C   0  0  0  0  0  0  0  0  0  0  0  0
    3.3350    0.0000    0.0000 C   0  0  0  0  0  0  0  0  0  0  0  0
    6.7892   -1.9931    0.0000 C   0  0  0  0  0  0  0  0  0  0  0  0
    7.9406   -2.6601    0.0000 C   0  0  0  0  0  0  0  0  0  0  0  0
    7.9406   -3.9941    0.0000 C   0  0  0  0  0  0  0  0  0  0  0  0
    6.7892   -4.6532    0.0000 C   0  0  0  0  0  0  0  0  0  0  0  0
    4.3276   -3.7638    0.0000 C   0  0  0  0  0  0  0  0  0  0  0  0
    3.4700   -4.7802    0.0000 C   0  0  0  0  0  0  0  0  0  0  0  0
    2.1678   -4.5500    0.0000 C   0  0  0  0  0  0  0  0  0  0  0  0
    1.3102   -5.5663    0.0000 O   0  0  0  0  0  0  0  0  0  0  0  0
    0.0000   -5.3361    0.0000 C   0  0  0  0  0  0  0  0  0  0  0  0
    1.7072   -3.2953    0.0000 C   0  0  0  0  0  0  0  0  0  0  0  0
    2.5648   -2.2789    0.0000 C   0  0  0  0  0  0  0  0  0  0  0  0
    3.8750   -2.5092    0.0000 C   0  0  0  0  0  0  0  0  0  0  0  0
    5.1852   -5.2408    0.0000 O   0  0  0  0  0  0  0  0  0  0  0  0
  1  2  1  0  0  0  0
  1 10  1  0  0  0  0
  1 11  1  6  0  0  0
  1 19  1  1  0  0  0
  2  3  1  1  0  0  0
  2  7  1  0  0  0  0
  3  4  1  0  0  0  0
  4  5  1  0  0  0  0
  4  6  1  0  0  0  0
  7  8  1  0  0  0  0
  8  9  1  0  0  0  0
  9 10  1  0  0  0  0
 11 12  2  0  0  0  0
 11 18  1  0  0  0  0
 12 13  1  0  0  0  0
 13 14  1  0  0  0  0
 13 16  2  0  0  0  0
 14 15  1  0  0  0  0
 16 17  1  0  0  0  0
 17 18  2  0  0  0  0
M  END
> <ID>
3297

> <Formula>
C16H25NO2

> <FW>
263.3752

> <DSSTox_CID>
3691

> <DSSTox_RID>
77150

> <DSSTox_GSID>
23691

> <DSSTox_FileID_Sort>
1833

> <TS_ChemName>
Tramadol

> <TS_ChemName_Synonyms>


> <TS_CASRN>
27203-92-5

> <CASRN_ChemName_Relationship>
primary

> <TS_Description>
single chemical compound

> <ChemNote>
stereochem

> <STRUCTURE_Shown>
tested chemical

> <STRUCTURE_Formula>
C16H25NO2

> <STRUCTURE_MW>
263.3752

> <STRUCTURE_ChemType>
defined organic

> <STRUCTURE_DefinedOrganicForm>
parent

> <STRUCTURE_IUPAC>
(1R,2R)-2-[(dimethylamino)methyl]-1-(3-methoxyphenyl)cyclohexanol

> <STRUCTURE_SMILES>
O[C@@]1(CCCC[C@@H]1CN(C)C)c2cc(OC)ccc2

> <STRUCTURE_SMILES_Desalt>
O[C@@]1(CCCC[C@@H]1CN(C)C)c2cc(OC)ccc2

> <Substance_modify_yyyymmdd>
20080429

$$$$
