27470-51-5
ChemmineR-0914142331XD

 32 34  0  0  0  0  0  0  0  0  1 V2000
    3.3092   -3.3835    0.0000 N   0  0  0  0  0  0  0  0  0  0  0  0
    4.6350   -3.3835    0.0000 N   0  0  0  0  0  0  0  0  0  0  0  0
    3.9774   -5.4305    0.0000 C   0  0  0  0  0  0  0  0  0  0  0  0
    5.0274   -4.6456    0.0000 C   0  0  0  0  0  0  0  0  0  0  0  0
    2.8956   -4.6456    0.0000 C   0  0  0  0  0  0  0  0  0  0  0  0
    4.6350   -6.5654    0.0000 C   0  0  0  0  0  0  0  0  0  0  0  0
    5.4199   -2.3016    0.0000 C   0  0  0  0  0  0  0  0  0  0  0  0
    2.4713   -2.3016    0.0000 C   0  0  0  0  0  0  0  0  0  0  0  0
    6.3108   -5.0593    0.0000 O   0  0  0  0  0  0  0  0  0  0  0  0
    1.6440   -5.0593    0.0000 O   0  0  0  0  0  0  0  0  0  0  0  0
    6.6290   -7.7427    0.0000 C   0  0  0  0  0  0  0  0  0  0  0  0
    9.9382   -6.5654    0.0000 C   0  0  0  0  0  0  0  0  0  0  0  0
    5.9608   -6.5654    0.0000 O   0  0  0  0  0  0  0  0  0  0  0  0
    5.9608   -8.8776    0.0000 O   0  0  0  0  0  0  0  0  0  0  0  0
   10.6064   -5.4305    0.0000 O   0  0  0  0  0  0  0  0  0  0  0  0
    3.3092   -6.5654    0.0000 C   0  0  0  0  0  0  0  0  0  0  0  0
    7.9548   -7.7427    0.0000 C   0  0  0  0  0  0  0  0  0  0  0  0
    8.6124   -6.5654    0.0000 C   0  0  0  0  0  0  0  0  0  0  0  0
   10.6064   -7.7427    0.0000 O   0  0  0  0  0  0  0  0  0  0  0  0
    1.1455   -2.3016    0.0000 C   0  0  0  0  0  0  0  0  0  0  0  0
    4.7411   -1.1667    0.0000 C   0  0  0  0  0  0  0  0  0  0  0  0
    6.7457   -2.3016    0.0000 C   0  0  0  0  0  0  0  0  0  0  0  0
    3.1607   -1.1667    0.0000 C   0  0  0  0  0  0  0  0  0  0  0  0
    1.9834   -6.5654    0.0000 C   0  0  0  0  0  0  0  0  0  0  0  0
    1.3258   -7.7427    0.0000 C   0  0  0  0  0  0  0  0  0  0  0  0
    0.0000   -7.7427    0.0000 C   0  0  0  0  0  0  0  0  0  0  0  0
    0.5091   -1.1667    0.0000 C   0  0  0  0  0  0  0  0  0  0  0  0
    5.4199    0.0000    0.0000 C   0  0  0  0  0  0  0  0  0  0  0  0
    7.3927   -1.1667    0.0000 C   0  0  0  0  0  0  0  0  0  0  0  0
    2.4713    0.0000    0.0000 C   0  0  0  0  0  0  0  0  0  0  0  0
    1.1455    0.0000    0.0000 C   0  0  0  0  0  0  0  0  0  0  0  0
    6.7457    0.0000    0.0000 C   0  0  0  0  0  0  0  0  0  0  0  0
  1  2  1  0  0  0  0
  1  5  1  0  0  0  0
  1  8  1  0  0  0  0
  2  4  1  0  0  0  0
  2  7  1  0  0  0  0
  3  5  1  0  0  0  0
  3  6  1  0  0  0  0
  3 16  1  0  0  0  0
  3  4  1  0  0  0  0
  4  9  2  0  0  0  0
  5 10  2  0  0  0  0
  6 13  1  0  0  0  0
  7 21  1  0  0  0  0
  7 22  2  0  0  0  0
  8 20  1  0  0  0  0
  8 23  2  0  0  0  0
 11 13  1  0  0  0  0
 11 14  2  0  0  0  0
 11 17  1  0  0  0  0
 12 18  1  0  0  0  0
 12 15  2  0  0  0  0
 12 19  1  0  0  0  0
 16 24  1  0  0  0  0
 17 18  1  0  0  0  0
 20 27  2  0  0  0  0
 21 28  2  0  0  0  0
 22 29  1  0  0  0  0
 23 30  1  0  0  0  0
 24 25  1  0  0  0  0
 25 26  1  0  0  0  0
 27 31  1  0  0  0  0
 28 32  1  0  0  0  0
 29 32  2  0  0  0  0
 30 31  2  0  0  0  0
M  END
> <ID>
1246

> <Formula>
C24H26N2O6

> <FW>
438.473

> <DSSTox_CID>
1296

> <DSSTox_RID>
76066

> <DSSTox_GSID>
21296

> <DSSTox_FileID_Sort>
750

> <TS_ChemName>
Suxibuzone

> <TS_ChemName_Synonyms>


> <TS_CASRN>
27470-51-5

> <CASRN_ChemName_Relationship>
primary

> <TS_Description>
single chemical compound

> <ChemNote>


> <STRUCTURE_Shown>
tested chemical

> <STRUCTURE_Formula>
C24H26N2O6

> <STRUCTURE_MW>
438.473

> <STRUCTURE_ChemType>
defined organic

> <STRUCTURE_DefinedOrganicForm>
parent

> <STRUCTURE_IUPAC>
4-[(4-butyl-3,5-dioxo-1,2-diphenylpyrazolidin-4-yl)methoxy]-4-oxobutanoic acid

> <STRUCTURE_SMILES>
O=C(O)CCC(=O)OCC2(CCCC)C(=O)N(c1ccccc1)N(C2=O)c3ccccc3

> <STRUCTURE_SMILES_Desalt>
O=C(O)CCC(=O)OCC2(CCCC)C(=O)N(c1ccccc1)N(C2=O)c3ccccc3

> <Substance_modify_yyyymmdd>
20080429

$$$$
