2751-09-9
ChemmineR-0914142331XD

 57 60  0  0  1  0  0  0  0  0  1 V2000
    4.6757   -2.0261    0.0000 C   0  0  0  0  0  0  0  0  0  0  0  0
    4.6757   -3.3977    0.0000 C   0  0  0  0  0  0  0  0  0  0  0  0
    3.5068   -1.3404    0.0000 C   0  0  0  0  0  0  0  0  0  0  0  0
    2.3534   -2.0261    0.0000 C   0  0  0  0  0  0  0  0  0  0  0  0
    2.3534   -3.3977    0.0000 C   0  0  0  0  0  0  0  0  0  0  0  0
    3.5068   -5.4083    0.0000 C   0  0  0  0  0  0  0  0  0  0  0  0
    2.3534   -6.0784    0.0000 O   0  0  0  0  0  0  0  0  0  0  0  0
    1.1689   -4.0523    0.0000 C   0  0  0  0  0  0  0  0  0  0  0  0
    1.1689   -5.4083    0.0000 C   0  0  0  0  0  0  0  0  0  0  0  0
    5.8602   -4.0523    0.0000 C   0  0  0  0  0  0  0  0  0  0  0  0
    5.8602   -5.4083    0.0000 C   0  0  0  0  0  0  0  0  0  0  0  0
    4.6757   -6.0940    0.0000 C   0  0  0  0  0  0  0  0  0  0  0  0
    2.3534   -7.4344    0.0000 C   0  0  0  0  0  0  0  0  0  0  0  0
    4.6757   -7.4344    0.0000 C   0  0  0  0  0  0  0  0  0  0  0  0
    3.5068   -8.1202    0.0000 C   0  0  0  0  0  0  0  0  0  0  0  0
    5.3615   -0.8572    0.0000 O   0  0  0  0  0  0  0  0  0  0  0  0
    6.0161   -2.0261    0.0000 C   0  0  0  0  0  0  0  0  0  0  0  0
    3.5068    0.0000    0.0000 O   0  0  0  0  0  0  0  0  0  0  0  0
    1.1689   -8.1202    0.0000 O   0  0  0  0  0  0  0  0  0  0  0  0
    5.8602   -8.1202    0.0000 O   0  0  0  0  0  0  0  0  0  0  0  0
    7.0448   -6.0629    0.0000 O   0  0  0  0  0  0  0  0  0  0  0  0
    1.1689   -1.3404    0.0000 C   0  0  0  0  0  0  0  0  0  0  0  0
    0.0000   -3.3665    0.0000 C   0  0  0  0  0  0  0  0  0  0  0  0
    0.0000   -6.0784    0.0000 C   0  0  0  0  0  0  0  0  0  0  0  0
    3.5068   -9.4605    0.0000 C   0  0  0  0  0  0  0  0  0  0  0  0
    7.0136   -3.3977    0.0000 C   0  0  0  0  0  0  0  0  0  0  0  0
    8.2137   -6.7486    0.0000 C   0  0  0  0  0  0  0  0  0  0  0  0
    9.3982   -6.0629    0.0000 C   0  0  0  0  0  0  0  0  0  0  0  0
    8.2137   -8.0890    0.0000 O   0  0  0  0  0  0  0  0  0  0  0  0
   10.5515   -6.7486    0.0000 C   0  0  0  0  0  0  0  0  0  0  0  0
    9.3982   -8.7592    0.0000 C   0  0  0  0  0  0  0  0  0  0  0  0
   10.5515   -8.0890    0.0000 C   0  0  0  0  0  0  0  0  0  0  0  0
    9.3982  -10.1151    0.0000 C   0  0  0  0  0  0  0  0  0  0  0  0
   11.7361   -6.0629    0.0000 N   0  0  0  0  0  0  0  0  0  0  0  0
   12.9050   -6.7486    0.0000 C   0  0  0  0  0  0  0  0  0  0  0  0
   11.7361   -4.7069    0.0000 C   0  0  0  0  0  0  0  0  0  0  0  0
    9.3982   -4.7069    0.0000 O   0  0  0  0  0  0  0  0  0  0  0  0
    5.8602   -9.4605    0.0000 C   0  0  0  0  0  0  0  0  0  0  0  0
    7.0136  -10.1463    0.0000 C   0  0  0  0  0  0  0  0  0  0  0  0
    4.6757  -10.1463    0.0000 O   0  0  0  0  0  0  0  0  0  0  0  0
    7.0136  -11.5023    0.0000 C   0  0  0  0  0  0  0  0  0  0  0  0
    4.6757  -11.5023    0.0000 C   0  0  0  0  0  0  0  0  0  0  0  0
    5.8602  -12.1725    0.0000 C   0  0  0  0  0  0  0  0  0  0  0  0
    5.8602  -13.5284    0.0000 O   0  0  0  0  0  0  0  0  0  0  0  0
    3.5068  -12.1725    0.0000 C   0  0  0  0  0  0  0  0  0  0  0  0
    8.1981  -12.1725    0.0000 O   0  0  0  0  0  0  0  0  0  0  0  0
    8.1981  -13.5284    0.0000 C   0  0  0  0  0  0  0  0  0  0  0  0
    3.3198   -4.0523    0.0000 O   0  0  0  0  0  0  0  0  0  0  0  0
    4.0990   -3.5847    0.0000 C   0  0  0  0  0  0  0  0  0  0  0  0
    4.0990   -2.6807    0.0000 O   0  0  0  0  0  0  0  0  0  0  0  0
    4.8783   -4.0523    0.0000 C   0  0  0  0  0  0  0  0  0  0  0  0
    4.6445  -14.2142    0.0000 C   0  0  0  0  0  0  0  0  0  0  0  0
    3.4600  -13.5284    0.0000 O   0  0  0  0  0  0  0  0  0  0  0  0
    4.6445  -15.5857    0.0000 C   0  0  0  0  0  0  0  0  0  0  0  0
    8.1981   -4.0211    0.0000 C   0  0  0  0  0  0  0  0  0  0  0  0
    7.0136   -4.7069    0.0000 O   0  0  0  0  0  0  0  0  0  0  0  0
    8.1981   -2.6496    0.0000 C   0  0  0  0  0  0  0  0  0  0  0  0
  1  2  1  0  0  0  0
  1  3  1  0  0  0  0
  1 16  1  6  0  0  0
  1 17  1  1  0  0  0
  2 10  1  0  0  0  0
  3  4  1  0  0  0  0
  3 18  2  0  0  0  0
  4  5  1  0  0  0  0
  4 22  1  1  0  0  0
  5  8  1  0  0  0  0
  5 48  1  1  0  0  0
 12  6  1  6  0  0  0
  7  9  1  0  0  0  0
  7 13  1  0  0  0  0
  8  9  1  0  0  0  0
  8 23  1  6  0  0  0
  9 24  1  6  0  0  0
 10 11  1  0  0  0  0
 10 26  1  6  0  0  0
 11 12  1  0  0  0  0
 11 21  1  6  0  0  0
 12 14  1  0  0  0  0
 13 15  1  0  0  0  0
 13 19  2  0  0  0  0
 14 15  1  0  0  0  0
 14 20  1  6  0  0  0
 15 25  1  1  0  0  0
 16 17  1  0  0  0  0
 38 20  1  1  0  0  0
 27 21  1  1  0  0  0
 27 28  1  0  0  0  0
 27 29  1  0  0  0  0
 28 30  1  0  0  0  0
 28 37  1  6  0  0  0
 29 31  1  0  0  0  0
 30 32  1  0  0  0  0
 30 34  1  1  0  0  0
 31 32  1  0  0  0  0
 31 33  1  1  0  0  0
 34 35  1  0  0  0  0
 34 36  1  0  0  0  0
 37 55  1  0  0  0  0
 38 39  1  0  0  0  0
 38 40  1  0  0  0  0
 39 41  1  0  0  0  0
 40 42  1  0  0  0  0
 41 43  1  0  0  0  0
 41 46  1  6  0  0  0
 42 43  1  0  0  0  0
 42 45  1  6  0  0  0
 43 44  1  1  0  0  0
 44 52  1  0  0  0  0
 46 47  1  0  0  0  0
 48 49  1  0  0  0  0
 49 50  2  0  0  0  0
 49 51  1  0  0  0  0
 52 53  2  0  0  0  0
 52 54  1  0  0  0  0
 55 56  2  0  0  0  0
 55 57  1  0  0  0  0
M  END
> <ID>
3324

> <Formula>
C41H67NO15

> <FW>
813.9684

> <DSSTox_CID>
3721

> <DSSTox_RID>
77163

> <DSSTox_GSID>
23721

> <DSSTox_FileID_Sort>
1846

> <TS_ChemName>
Troleandomycin

> <TS_ChemName_Synonyms>


> <TS_CASRN>
2751-09-9

> <CASRN_ChemName_Relationship>
primary

> <TS_Description>
single chemical compound

> <ChemNote>
stereochem

> <STRUCTURE_Shown>
tested chemical

> <STRUCTURE_Formula>
C41H67NO15

> <STRUCTURE_MW>
813.9684

> <STRUCTURE_ChemType>
defined organic

> <STRUCTURE_DefinedOrganicForm>
parent

> <STRUCTURE_IUPAC>
(3S,5R,6S,7S,8R,11R,12S,13R,14S,15S)-12-[(4-O-acetyl-2,6-dideoxy-3-O-methyl-alpha-L-arabino-hexopyranosyl)oxy]-14-{[2-O-acetyl-3,4,6-trideoxy-3-(dimethylamino)-beta-D-xylo-hexopyranosyl]oxy}-5,7,8,11,13,15-hexamethyl-4,10-dioxo-1,9-dioxaspiro[2.13]hexadec

> <STRUCTURE_SMILES>
CC(=O)O[C@@H]4[C@H](C[C@@H](C)O[C@H]4O[C@@H]3[C@@H](C)[C@H](O[C@H]1C[C@H](OC)[C@@H](OC(C)=O)[C@H](C)O1)[C@@H](C)C(=O)O[C@H](C)[C@H](C)[C@H](OC(C)=O)[C@@H](C)C(=O)[C@@]2(CO2)C[C@@H]3C)N(C)C

> <STRUCTURE_SMILES_Desalt>
CC(=O)O[C@@H]4[C@H](C[C@@H](C)O[C@H]4O[C@@H]3[C@@H](C)[C@H](O[C@H]1C[C@H](OC)[C@@H](OC(C)=O)[C@H](C)O1)[C@@H](C)C(=O)O[C@H](C)[C@H](C)[C@H](OC(C)=O)[C@@H](C)C(=O)[C@@]2(CO2)C[C@@H]3C)N(C)C

> <Substance_modify_yyyymmdd>
20080429

$$$$
