2783-94-0
ChemmineR-0914142331XD

 29 29  0  0  0  0  0  0  0  0  2 V2000
   13.2588   -1.1491    0.0000 S    0  0  0  0  0  0  0  0  0  0  0  0
   12.6047   -2.2982    0.0000 C    0  0  0  0  0  0  0  0  0  0  0  0
   13.2588   -3.4473    0.0000 C    0  0  0  0  0  0  0  0  0  0  0  0
   12.6047   -4.5787    0.0000 C    0  0  0  0  0  0  0  0  0  0  0  0
   11.2611   -4.5787    0.0000 C    0  0  0  0  0  0  0  0  0  0  0  0
   10.6070   -5.7278    0.0000 C    0  0  0  0  0  0  0  0  0  0  0  0
    9.2635   -5.7278    0.0000 N    0  0  0  0  0  0  0  0  0  0  0  0
    8.6094   -6.8946    0.0000 N    0  0  0  0  0  0  0  0  0  0  0  0
    7.2835   -6.8946    0.0000 C    0  0  0  0  0  0  0  0  0  0  0  0
    6.6294   -5.7278    0.0000 C    0  0  0  0  0  0  0  0  0  0  0  0
    5.3035   -5.7278    0.0000 C    0  0  0  0  0  0  0  0  0  0  0  0
    4.6317   -6.8946    0.0000 C    0  0  0  0  0  0  0  0  0  0  0  0
    3.3059   -6.8946    0.0000 S    0  0  0  0  0  0  0  0  0  0  0  0
    1.9800   -6.8946    0.0000 O    0  5  0  0  0  0  0  0  0  0  0  0
    3.3059   -8.2205    0.0000 O    0  0  0  0  0  0  0  0  0  0  0  0
    3.3059   -5.5510    0.0000 O    0  0  0  0  0  0  0  0  0  0  0  0
    5.3035   -8.0437    0.0000 C    0  0  0  0  0  0  0  0  0  0  0  0
    6.6294   -8.0437    0.0000 C    0  0  0  0  0  0  0  0  0  0  0  0
   11.2611   -6.8946    0.0000 C    0  0  0  0  0  0  0  0  0  0  0  0
   10.6070   -8.0437    0.0000 O    0  0  0  0  0  0  0  0  0  0  0  0
   12.6047   -6.8946    0.0000 C    0  0  0  0  0  0  0  0  0  0  0  0
   13.2588   -5.7278    0.0000 C    0  0  0  0  0  0  0  0  0  0  0  0
   10.6070   -3.4473    0.0000 C    0  0  0  0  0  0  0  0  0  0  0  0
   11.2611   -2.2982    0.0000 C    0  0  0  0  0  0  0  0  0  0  0  0
   13.9306    0.0000    0.0000 O    0  5  0  0  0  0  0  0  0  0  0  0
   14.4256   -1.8032    0.0000 O    0  0  0  0  0  0  0  0  0  0  0  0
   12.1097   -0.4773    0.0000 O    0  0  0  0  0  0  0  0  0  0  0  0
    0.0000   -5.3742    0.0000 Na   0  3  0  0  0  0  0  0  0  0  0  0
   17.6784    0.0000    0.0000 Na   0  3  0  0  0  0  0  0  0  0  0  0
  1  2  1  0  0  0  0
  1 25  1  0  0  0  0
  1 26  2  0  0  0  0
  1 27  2  0  0  0  0
  2  3  2  0  0  0  0
  2 24  1  0  0  0  0
  3  4  1  0  0  0  0
  4  5  2  0  0  0  0
  4 22  1  0  0  0  0
  5  6  1  0  0  0  0
  5 23  1  0  0  0  0
  6  7  1  0  0  0  0
  6 19  2  0  0  0  0
  7  8  2  0  0  0  0
  8  9  1  0  0  0  0
  9 10  2  0  0  0  0
  9 18  1  0  0  0  0
 10 11  1  0  0  0  0
 11 12  2  0  0  0  0
 12 13  1  0  0  0  0
 12 17  1  0  0  0  0
 13 14  1  0  0  0  0
 13 15  2  0  0  0  0
 13 16  2  0  0  0  0
 17 18  2  0  0  0  0
 19 20  1  0  0  0  0
 19 21  1  0  0  0  0
 21 22  2  0  0  0  0
 23 24  2  0  0  0  0
M  END
> <ID>
1397

> <Formula>
C16H10N2Na2O7S2

> <FW>
452.3693 (406.3909+22.9892+22.9892)

> <DSSTox_CID>
1456

> <DSSTox_RID>
76165

> <DSSTox_GSID>
21456

> <DSSTox_FileID_Sort>
849

> <TS_ChemName>
FD&C Yellow 6

> <TS_ChemName_Synonyms>
2-Naphthalenesulfonic acid, 6-hydroxy-5-[(4-sulfophenyl)azo]-, disodium salt; C.I. Food Yellow 3; C.I. 15985

> <TS_CASRN>
2783-94-0

> <CASRN_ChemName_Relationship>
primary

> <TS_Description>
single chemical compound

> <ChemNote>


> <STRUCTURE_Shown>
tested chemical

> <STRUCTURE_Formula>
C16H10N2Na2O7S2

> <STRUCTURE_MW>
452.3693

> <STRUCTURE_ChemType>
defined organic

> <STRUCTURE_DefinedOrganicForm>
salt

> <STRUCTURE_IUPAC>
disodium 6-hydroxy-5-[(E)-(4-sulfonatophenyl)diazenyl]naphthalene-2-sulfonate

> <STRUCTURE_SMILES>
[Na+].[Na+].O=S([O-])(=O)c3ccc(/N=N/c1c2ccc(cc2ccc1O)S([O-])(=O)=O)cc3

> <STRUCTURE_SMILES_Desalt>
OS(=O)(=O)c3ccc(/N=N/c1c2ccc(cc2ccc1O)S(=O)(=O)O)cc3

> <Substance_modify_yyyymmdd>
20080429

$$$$
