2809-21-4
ChemmineR-0914142331XD

 11 10  0  0  0  0  0  0  0  0  1 V2000
    1.7083   -2.6539    0.0000 C   0  0  0  0  0  0  0  0  0  0  0  0
    2.0007   -3.8735    0.0000 O   0  0  0  0  0  0  0  0  0  0  0  0
    0.5070   -3.0147    0.0000 C   0  0  0  0  0  0  0  0  0  0  0  0
    1.1511   -1.1191    0.0000 P   0  0  0  0  0  0  0  0  0  0  0  0
    2.2382   -0.4933    0.0000 O   0  0  0  0  0  0  0  0  0  0  0  0
    0.0000   -1.6170    0.0000 O   0  0  0  0  0  0  0  0  0  0  0  0
    0.5892    0.0000    0.0000 O   0  0  0  0  0  0  0  0  0  0  0  0
    3.3162   -2.3707    0.0000 P   0  0  0  0  0  0  0  0  0  0  0  0
    3.3162   -1.1145    0.0000 O   0  0  0  0  0  0  0  0  0  0  0  0
    4.5678   -2.2976    0.0000 O   0  0  0  0  0  0  0  0  0  0  0  0
    3.4624   -3.6177    0.0000 O   0  0  0  0  0  0  0  0  0  0  0  0
  1  2  1  0  0  0  0
  1  3  1  0  0  0  0
  1  4  1  0  0  0  0
  1  8  1  0  0  0  0
  4  5  1  0  0  0  0
  4  6  2  0  0  0  0
  4  7  1  0  0  0  0
  8  9  1  0  0  0  0
  8 10  2  0  0  0  0
  8 11  1  0  0  0  0
M  END
> <ID>
2721

> <Formula>
C2H8O7P2

> <FW>
206.0282

> <DSSTox_CID>
3028

> <DSSTox_RID>
76837

> <DSSTox_GSID>
23028

> <DSSTox_FileID_Sort>
1521

> <TS_ChemName>
Etidronic acid

> <TS_ChemName_Synonyms>
Etidronic acid (Phosphonic acid, (1-hydroxyethylidene)bis-) (1,1,1-Ethanetriol diphosphonate)

> <TS_CASRN>
2809-21-4

> <CASRN_ChemName_Relationship>
primary

> <TS_Description>
single chemical compound

> <ChemNote>


> <STRUCTURE_Shown>
tested chemical

> <STRUCTURE_Formula>
C2H8O7P2

> <STRUCTURE_MW>
206.0282

> <STRUCTURE_ChemType>
defined organic

> <STRUCTURE_DefinedOrganicForm>
parent

> <STRUCTURE_IUPAC>
(1-hydroxyethane-1,1-diyl)bis(phosphonic acid)

> <STRUCTURE_SMILES>
CC(O)(P(O)(=O)O)P(=O)(O)O

> <STRUCTURE_SMILES_Desalt>
CC(O)(P(O)(=O)O)P(=O)(O)O

> <Substance_modify_yyyymmdd>
20080429

$$$$
