28395-03-1
ChemmineR-0914142331XD

 25 26  0  0  0  0  0  0  0  0  1 V2000
    4.6509   -1.1584    0.0000 S   0  0  0  0  0  0  0  0  0  0  0  0
    5.8093   -1.8240    0.0000 O   0  0  0  0  0  0  0  0  0  0  0  0
    3.5011   -0.4928    0.0000 O   0  0  0  0  0  0  0  0  0  0  0  0
    5.3165    0.0000    0.0000 N   0  0  0  0  0  0  0  0  0  0  0  0
    3.9939   -2.3082    0.0000 C   0  0  0  0  0  0  0  0  0  0  0  0
    4.6509   -3.4579    0.0000 C   0  0  0  0  0  0  0  0  0  0  0  0
    5.9822   -3.4579    0.0000 O   0  0  0  0  0  0  0  0  0  0  0  0
    6.6478   -4.6077    0.0000 C   0  0  0  0  0  0  0  0  0  0  0  0
    5.9822   -5.7661    0.0000 C   0  0  0  0  0  0  0  0  0  0  0  0
    6.6478   -6.9158    0.0000 C   0  0  0  0  0  0  0  0  0  0  0  0
    7.9791   -6.9158    0.0000 C   0  0  0  0  0  0  0  0  0  0  0  0
    8.6448   -5.7661    0.0000 C   0  0  0  0  0  0  0  0  0  0  0  0
    7.9791   -4.6077    0.0000 C   0  0  0  0  0  0  0  0  0  0  0  0
    3.9939   -4.6077    0.0000 C   0  0  0  0  0  0  0  0  0  0  0  0
    4.6509   -5.7661    0.0000 N   0  0  0  0  0  0  0  0  0  0  0  0
    3.9939   -6.9158    0.0000 C   0  0  0  0  0  0  0  0  0  0  0  0
    2.6626   -6.9158    0.0000 C   0  0  0  0  0  0  0  0  0  0  0  0
    1.9969   -8.0656    0.0000 C   0  0  0  0  0  0  0  0  0  0  0  0
    0.6656   -8.0656    0.0000 C   0  0  0  0  0  0  0  0  0  0  0  0
    2.6626   -4.6077    0.0000 C   0  0  0  0  0  0  0  0  0  0  0  0
    1.9969   -3.4579    0.0000 C   0  0  0  0  0  0  0  0  0  0  0  0
    0.6656   -3.4579    0.0000 C   0  0  0  0  0  0  0  0  0  0  0  0
    0.0000   -2.3082    0.0000 O   0  0  0  0  0  0  0  0  0  0  0  0
    0.0000   -4.6077    0.0000 O   0  0  0  0  0  0  0  0  0  0  0  0
    2.6626   -2.3082    0.0000 C   0  0  0  0  0  0  0  0  0  0  0  0
  1  2  2  0  0  0  0
  1  3  2  0  0  0  0
  1  4  1  0  0  0  0
  1  5  1  0  0  0  0
  5  6  2  0  0  0  0
  5 25  1  0  0  0  0
  6  7  1  0  0  0  0
  6 14  1  0  0  0  0
  7  8  1  0  0  0  0
  8  9  2  0  0  0  0
  8 13  1  0  0  0  0
  9 10  1  0  0  0  0
 10 11  2  0  0  0  0
 11 12  1  0  0  0  0
 12 13  2  0  0  0  0
 14 15  1  0  0  0  0
 14 20  2  0  0  0  0
 15 16  1  0  0  0  0
 16 17  1  0  0  0  0
 17 18  1  0  0  0  0
 18 19  1  0  0  0  0
 20 21  1  0  0  0  0
 21 22  1  0  0  0  0
 21 25  2  0  0  0  0
 22 23  2  0  0  0  0
 22 24  1  0  0  0  0
M  END
> <ID>
2442

> <Formula>
C17H20N2O5S

> <FW>
364.4161

> <DSSTox_CID>
2699

> <DSSTox_RID>
76695

> <DSSTox_GSID>
22699

> <DSSTox_FileID_Sort>
1379

> <TS_ChemName>
Bumetanide

> <TS_ChemName_Synonyms>


> <TS_CASRN>
28395-03-1

> <CASRN_ChemName_Relationship>
primary

> <TS_Description>
single chemical compound

> <ChemNote>


> <STRUCTURE_Shown>
tested chemical

> <STRUCTURE_Formula>
C17H20N2O5S

> <STRUCTURE_MW>
364.4161

> <STRUCTURE_ChemType>
defined organic

> <STRUCTURE_DefinedOrganicForm>
parent

> <STRUCTURE_IUPAC>
3-(butylamino)-4-phenoxy-5-sulfamoylbenzoic acid

> <STRUCTURE_SMILES>
O=S(N)(=O)c2cc(cc(NCCCC)c2Oc1ccccc1)C(=O)O

> <STRUCTURE_SMILES_Desalt>
O=S(N)(=O)c2cc(cc(NCCCC)c2Oc1ccccc1)C(=O)O

> <Substance_modify_yyyymmdd>
20080429

$$$$
