28553-12-0
ChemmineR-0914142331XD

 30 30  0  0  0  0  0  0  0  0  1 V2000
    2.2907   -2.0009    0.0000 C   0  0  0  0  0  0  0  0  0  0  0  0
    2.2907   -3.3256    0.0000 C   0  0  0  0  0  0  0  0  0  0  0  0
    3.4360   -1.3247    0.0000 C   0  0  0  0  0  0  0  0  0  0  0  0
    3.4360   -3.9880    0.0000 C   0  0  0  0  0  0  0  0  0  0  0  0
    3.4360    0.0000    0.0000 O   0  0  0  0  0  0  0  0  0  0  0  0
    4.5951   -3.3256    0.0000 O   0  0  0  0  0  0  0  0  0  0  0  0
    4.5951   -2.0009    0.0000 O   0  0  0  0  0  0  0  0  0  0  0  0
    3.4360   -5.3127    0.0000 O   0  0  0  0  0  0  0  0  0  0  0  0
    1.1315   -1.3247    0.0000 C   0  0  0  0  0  0  0  0  0  0  0  0
    1.1315   -3.9880    0.0000 C   0  0  0  0  0  0  0  0  0  0  0  0
    0.0000   -2.0009    0.0000 C   0  0  0  0  0  0  0  0  0  0  0  0
    0.0000   -3.3256    0.0000 C   0  0  0  0  0  0  0  0  0  0  0  0
    4.5951   -5.9889    0.0000 C   0  0  0  0  0  0  0  0  0  0  0  0
    4.5951   -7.3136    0.0000 C   0  0  0  0  0  0  0  0  0  0  0  0
    5.7405   -7.9760    0.0000 C   0  0  0  0  0  0  0  0  0  0  0  0
    5.7405   -9.3007    0.0000 C   0  0  0  0  0  0  0  0  0  0  0  0
    6.8996   -9.9769    0.0000 C   0  0  0  0  0  0  0  0  0  0  0  0
    6.8996  -11.3016    0.0000 C   0  0  0  0  0  0  0  0  0  0  0  0
    8.0588  -11.9639    0.0000 C   0  0  0  0  0  0  0  0  0  0  0  0
    5.7405   -1.3247    0.0000 C   0  0  0  0  0  0  0  0  0  0  0  0
    6.8996   -2.0009    0.0000 C   0  0  0  0  0  0  0  0  0  0  0  0
    8.0588   -1.3247    0.0000 C   0  0  0  0  0  0  0  0  0  0  0  0
    9.2041   -2.0009    0.0000 C   0  0  0  0  0  0  0  0  0  0  0  0
   10.3632   -1.3247    0.0000 C   0  0  0  0  0  0  0  0  0  0  0  0
   11.4948   -2.0009    0.0000 C   0  0  0  0  0  0  0  0  0  0  0  0
   12.6401   -1.3247    0.0000 C   0  0  0  0  0  0  0  0  0  0  0  0
    8.0588  -13.2887    0.0000 C   0  0  0  0  0  0  0  0  0  0  0  0
   13.7992   -2.0009    0.0000 C   0  0  0  0  0  0  0  0  0  0  0  0
    9.2041  -11.3016    0.0000 C   0  0  0  0  0  0  0  0  0  0  0  0
   12.6401    0.0000    0.0000 C   0  0  0  0  0  0  0  0  0  0  0  0
  1  2  2  0  0  0  0
  1  3  1  0  0  0  0
  1  9  1  0  0  0  0
  2  4  1  0  0  0  0
  2 10  1  0  0  0  0
  3  5  2  0  0  0  0
  3  7  1  0  0  0  0
  4  6  2  0  0  0  0
  4  8  1  0  0  0  0
  7 20  1  0  0  0  0
  8 13  1  0  0  0  0
  9 11  2  0  0  0  0
 10 12  2  0  0  0  0
 11 12  1  0  0  0  0
 13 14  1  0  0  0  0
 14 15  1  0  0  0  0
 15 16  1  0  0  0  0
 16 17  1  0  0  0  0
 17 18  1  0  0  0  0
 18 19  1  0  0  0  0
 19 27  1  0  0  0  0
 19 29  1  0  0  0  0
 20 21  1  0  0  0  0
 21 22  1  0  0  0  0
 22 23  1  0  0  0  0
 23 24  1  0  0  0  0
 24 25  1  0  0  0  0
 25 26  1  0  0  0  0
 26 28  1  0  0  0  0
 26 30  1  0  0  0  0
M  END
> <ID>
2288

> <Formula>
C26H42O4

> <FW>
418.6093

> <DSSTox_CID>
2521

> <DSSTox_RID>
76608

> <DSSTox_GSID>
22521

> <DSSTox_FileID_Sort>
1292

> <TS_ChemName>
Diisononyl phthalate

> <TS_ChemName_Synonyms>


> <TS_CASRN>
28553-12-0

> <CASRN_ChemName_Relationship>
primary

> <TS_Description>
mixture or formulation

> <ChemNote>
mixture of C9 isomers primarly methyloctyl and dimethylhepyl phthalates; structure shown bis(7-methyloctyl) phthalate

> <STRUCTURE_Shown>
representative isomer in mixture

> <STRUCTURE_Formula>
C26H42O4

> <STRUCTURE_MW>
418.6093

> <STRUCTURE_ChemType>
defined organic

> <STRUCTURE_DefinedOrganicForm>
parent

> <STRUCTURE_IUPAC>
bis(7-methyloctyl) benzene-1,2-dicarboxylate

> <STRUCTURE_SMILES>
CC(C)CCCCCCOC(=O)c1ccccc1C(=O)OCCCCCCC(C)C

> <STRUCTURE_SMILES_Desalt>
CC(C)CCCCCCOC(=O)c1ccccc1C(=O)OCCCCCCC(C)C

> <Substance_modify_yyyymmdd>
20080429

$$$$
