28657-80-9
ChemmineR-0914142331XD

 19 21  0  0  0  0  0  0  0  0  1 V2000
    3.4513   -2.1005    0.0000 C   0  0  0  0  0  0  0  0  0  0  0  0
    4.6092   -1.4399    0.0000 C   0  0  0  0  0  0  0  0  0  0  0  0
    5.7596   -2.1005    0.0000 C   0  0  0  0  0  0  0  0  0  0  0  0
    5.7596   -3.4365    0.0000 C   0  0  0  0  0  0  0  0  0  0  0  0
    4.6092   -4.0971    0.0000 C   0  0  0  0  0  0  0  0  0  0  0  0
    3.4513   -3.4365    0.0000 C   0  0  0  0  0  0  0  0  0  0  0  0
    2.3009   -4.0971    0.0000 C   0  0  0  0  0  0  0  0  0  0  0  0
    1.1504   -3.4365    0.0000 O   0  0  0  0  0  0  0  0  0  0  0  0
    2.3009   -5.4256    0.0000 C   0  0  0  0  0  0  0  0  0  0  0  0
    1.1504   -6.0936    0.0000 C   0  0  0  0  0  0  0  0  0  0  0  0
    1.1504   -7.4222    0.0000 O   0  0  0  0  0  0  0  0  0  0  0  0
    0.0000   -5.4256    0.0000 O   0  0  0  0  0  0  0  0  0  0  0  0
    3.4513   -6.0936    0.0000 N   0  0  0  0  0  0  0  0  0  0  0  0
    4.6092   -5.4256    0.0000 N   0  0  0  0  0  0  0  0  0  0  0  0
    5.7596   -6.0936    0.0000 C   0  0  0  0  0  0  0  0  0  0  0  0
    5.7596   -7.4222    0.0000 C   0  0  0  0  0  0  0  0  0  0  0  0
    6.7468   -1.2172    0.0000 O   0  0  0  0  0  0  0  0  0  0  0  0
    6.2050    0.0000    0.0000 C   0  0  0  0  0  0  0  0  0  0  0  0
    4.8838   -0.1410    0.0000 O   0  0  0  0  0  0  0  0  0  0  0  0
  1  2  1  0  0  0  0
  1  6  2  0  0  0  0
  2  3  2  0  0  0  0
  2 19  1  0  0  0  0
  3  4  1  0  0  0  0
  3 17  1  0  0  0  0
  4  5  2  0  0  0  0
  5  6  1  0  0  0  0
  5 14  1  0  0  0  0
  6  7  1  0  0  0  0
  7  8  2  0  0  0  0
  7  9  1  0  0  0  0
  9 10  1  0  0  0  0
  9 13  2  0  0  0  0
 10 11  2  0  0  0  0
 10 12  1  0  0  0  0
 13 14  1  0  0  0  0
 14 15  1  0  0  0  0
 15 16  1  0  0  0  0
 17 18  1  0  0  0  0
 18 19  1  0  0  0  0
M  END
> <ID>
2551

> <Formula>
C12H10N2O5

> <FW>
262.2182

> <DSSTox_CID>
2822

> <DSSTox_RID>
76745

> <DSSTox_GSID>
22822

> <DSSTox_FileID_Sort>
1429

> <TS_ChemName>
Cinoxacin

> <TS_ChemName_Synonyms>


> <TS_CASRN>
28657-80-9

> <CASRN_ChemName_Relationship>
primary

> <TS_Description>
single chemical compound

> <ChemNote>


> <STRUCTURE_Shown>
tested chemical

> <STRUCTURE_Formula>
C12H10N2O5

> <STRUCTURE_MW>
262.2182

> <STRUCTURE_ChemType>
defined organic

> <STRUCTURE_DefinedOrganicForm>
parent

> <STRUCTURE_IUPAC>
1-ethyl-4-oxo-1,4-dihydro[1,3]dioxolo[4,5-g]cinnoline-3-carboxylic acid

> <STRUCTURE_SMILES>
O=C(O)C2=NN(CC)c1cc3OCOc3cc1C2=O

> <STRUCTURE_SMILES_Desalt>
O=C(O)C2=NN(CC)c1cc3OCOc3cc1C2=O

> <Substance_modify_yyyymmdd>
20080429

$$$$
