28981-97-7
ChemmineR-0914142331XD

 22 25  0  0  0  0  0  0  0  0  1 V2000
    6.7474   -5.4420    0.0000 C    0  0  0  0  0  0  0  0  0  0  0  0
    5.5970   -6.1110    0.0000 C    0  0  0  0  0  0  0  0  0  0  0  0
    5.5970   -7.4409    0.0000 Cl   0  0  0  0  0  0  0  0  0  0  0  0
    4.4466   -5.4420    0.0000 C    0  0  0  0  0  0  0  0  0  0  0  0
    4.4466   -4.1121    0.0000 C    0  0  0  0  0  0  0  0  0  0  0  0
    5.5970   -3.4512    0.0000 C    0  0  0  0  0  0  0  0  0  0  0  0
    6.7474   -4.1121    0.0000 C    0  0  0  0  0  0  0  0  0  0  0  0
    5.8091   -2.1131    0.0000 N    0  0  0  0  0  0  0  0  0  0  0  0
    4.8708   -1.1749    0.0000 C    0  0  0  0  0  0  0  0  0  0  0  0
    3.5654   -1.2565    0.0000 C    0  0  0  0  0  0  0  0  0  0  0  0
    2.8148   -2.3579    0.0000 N    0  0  0  0  0  0  0  0  0  0  0  0
    3.1901   -3.6144    0.0000 C    0  0  0  0  0  0  0  0  0  0  0  0
    2.2437   -4.5526    0.0000 C    0  0  0  0  0  0  0  0  0  0  0  0
    2.5048   -5.8091    0.0000 C    0  0  0  0  0  0  0  0  0  0  0  0
    1.5665   -6.7555    0.0000 C    0  0  0  0  0  0  0  0  0  0  0  0
    0.2774   -6.3394    0.0000 C    0  0  0  0  0  0  0  0  0  0  0  0
    0.0000   -5.0667    0.0000 C    0  0  0  0  0  0  0  0  0  0  0  0
    0.9383   -4.1202    0.0000 C    0  0  0  0  0  0  0  0  0  0  0  0
    5.5480    0.0000    0.0000 N    0  0  0  0  0  0  0  0  0  0  0  0
    6.8453   -0.2529    0.0000 N    0  0  0  0  0  0  0  0  0  0  0  0
    7.0085   -1.5665    0.0000 C    0  0  0  0  0  0  0  0  0  0  0  0
    8.1589   -2.2274    0.0000 C    0  0  0  0  0  0  0  0  0  0  0  0
  1  2  2  0  0  0  0
  1  7  1  0  0  0  0
  2  3  1  0  0  0  0
  2  4  1  0  0  0  0
  4  5  2  0  0  0  0
  5  6  1  0  0  0  0
  5 12  1  0  0  0  0
  6  7  2  0  0  0  0
  6  8  1  0  0  0  0
  8  9  1  0  0  0  0
  8 21  1  0  0  0  0
  9 10  1  0  0  0  0
  9 19  2  0  0  0  0
 10 11  1  0  0  0  0
 11 12  2  0  0  0  0
 12 13  1  0  0  0  0
 13 14  2  0  0  0  0
 13 18  1  0  0  0  0
 14 15  1  0  0  0  0
 15 16  2  0  0  0  0
 16 17  1  0  0  0  0
 17 18  2  0  0  0  0
 19 20  1  0  0  0  0
 20 21  2  0  0  0  0
 21 22  1  0  0  0  0
M  END
> <ID>
2336

> <Formula>
C17H13ClN4

> <FW>
308.7649

> <DSSTox_CID>
2577

> <DSSTox_RID>
76639

> <DSSTox_GSID>
22577

> <DSSTox_FileID_Sort>
1323

> <TS_ChemName>
Alprazolam

> <TS_ChemName_Synonyms>


> <TS_CASRN>
28981-97-7

> <CASRN_ChemName_Relationship>
primary

> <TS_Description>
single chemical compound

> <ChemNote>


> <STRUCTURE_Shown>
tested chemical

> <STRUCTURE_Formula>
C17H13ClN4

> <STRUCTURE_MW>
308.7649

> <STRUCTURE_ChemType>
defined organic

> <STRUCTURE_DefinedOrganicForm>
parent

> <STRUCTURE_IUPAC>
8-chloro-1-methyl-6-phenyl-4H-[1,2,4]triazolo[4,3-a][1,4]benzodiazepine

> <STRUCTURE_SMILES>
Clc1cc2C(=NCc3nnc(C)n3c2cc1)c4ccccc4

> <STRUCTURE_SMILES_Desalt>
Clc1cc2C(=NCc3nnc(C)n3c2cc1)c4ccccc4

> <Substance_modify_yyyymmdd>
20080429

$$$$
