29122-68-7
ChemmineR-0914142331XD

 19 19  0  0  0  0  0  0  0  0  1 V2000
    3.9930   -3.4473    0.0000 C   0  0  0  0  0  0  0  0  0  0  0  0
    3.3275   -2.3026    0.0000 C   0  0  0  0  0  0  0  0  0  0  0  0
    1.9965   -2.3026    0.0000 C   0  0  0  0  0  0  0  0  0  0  0  0
    1.3310   -1.1446    0.0000 C   0  0  0  0  0  0  0  0  0  0  0  0
    1.9965    0.0000    0.0000 N   0  0  0  0  0  0  0  0  0  0  0  0
    0.0000   -1.1446    0.0000 O   0  0  0  0  0  0  0  0  0  0  0  0
    3.9930   -1.1446    0.0000 C   0  0  0  0  0  0  0  0  0  0  0  0
    5.3239   -1.1446    0.0000 C   0  0  0  0  0  0  0  0  0  0  0  0
    5.9894   -2.3026    0.0000 C   0  0  0  0  0  0  0  0  0  0  0  0
    7.3204   -2.3026    0.0000 O   0  0  0  0  0  0  0  0  0  0  0  0
    7.9859   -3.4473    0.0000 C   0  0  0  0  0  0  0  0  0  0  0  0
    9.3169   -3.4473    0.0000 C   0  0  0  0  0  0  0  0  0  0  0  0
    9.9824   -4.6052    0.0000 O   0  0  0  0  0  0  0  0  0  0  0  0
    9.9824   -2.3026    0.0000 C   0  0  0  0  0  0  0  0  0  0  0  0
   11.3134   -2.3026    0.0000 N   0  0  0  0  0  0  0  0  0  0  0  0
   11.9789   -1.1446    0.0000 C   0  0  0  0  0  0  0  0  0  0  0  0
   11.3134    0.0000    0.0000 C   0  0  0  0  0  0  0  0  0  0  0  0
   13.3099   -1.1446    0.0000 C   0  0  0  0  0  0  0  0  0  0  0  0
    5.3239   -3.4473    0.0000 C   0  0  0  0  0  0  0  0  0  0  0  0
  1  2  2  0  0  0  0
  1 19  1  0  0  0  0
  2  3  1  0  0  0  0
  2  7  1  0  0  0  0
  3  4  1  0  0  0  0
  4  5  1  0  0  0  0
  4  6  2  0  0  0  0
  7  8  2  0  0  0  0
  8  9  1  0  0  0  0
  9 10  1  0  0  0  0
  9 19  2  0  0  0  0
 10 11  1  0  0  0  0
 11 12  1  0  0  0  0
 12 13  1  0  0  0  0
 12 14  1  0  0  0  0
 14 15  1  0  0  0  0
 15 16  1  0  0  0  0
 16 17  1  0  0  0  0
 16 18  1  0  0  0  0
M  END
> <ID>
2380

> <Formula>
C14H22N2O3

> <FW>
266.3361

> <DSSTox_CID>
2628

> <DSSTox_RID>
76663

> <DSSTox_GSID>
22628

> <DSSTox_FileID_Sort>
1347

> <TS_ChemName>
Atenolol

> <TS_ChemName_Synonyms>


> <TS_CASRN>
29122-68-7

> <CASRN_ChemName_Relationship>
primary

> <TS_Description>
single chemical compound

> <ChemNote>


> <STRUCTURE_Shown>
tested chemical

> <STRUCTURE_Formula>
C14H22N2O3

> <STRUCTURE_MW>
266.3361

> <STRUCTURE_ChemType>
defined organic

> <STRUCTURE_DefinedOrganicForm>
parent

> <STRUCTURE_IUPAC>
2-{4-[2-hydroxy-3-(propan-2-ylamino)propoxy]phenyl}acetamide

> <STRUCTURE_SMILES>
CC(C)NCC(O)COc1ccc(cc1)CC(N)=O

> <STRUCTURE_SMILES_Desalt>
CC(C)NCC(O)COc1ccc(cc1)CC(N)=O

> <Substance_modify_yyyymmdd>
20080429

$$$$
