2921-88-2
ChemmineR-0914142331XD

 18 18  0  0  0  0  0  0  0  0  1 V2000
    6.4226   -4.6073    0.0000 S    0  0  0  0  0  0  0  0  0  0  0  0
    5.7591   -3.4555    0.0000 P    0  0  0  0  0  0  0  0  0  0  0  0
    4.6073   -4.1189    0.0000 O    0  0  0  0  0  0  0  0  0  0  0  0
    3.4555   -3.4555    0.0000 C    0  0  0  0  0  0  0  0  0  0  0  0
    2.3036   -4.1189    0.0000 N    0  0  0  0  0  0  0  0  0  0  0  0
    1.1518   -3.4555    0.0000 C    0  0  0  0  0  0  0  0  0  0  0  0
    1.1518   -2.1286    0.0000 C    0  0  0  0  0  0  0  0  0  0  0  0
    2.3036   -1.4559    0.0000 C    0  0  0  0  0  0  0  0  0  0  0  0
    3.4555   -2.1286    0.0000 C    0  0  0  0  0  0  0  0  0  0  0  0
    4.6073   -1.4559    0.0000 Cl   0  0  0  0  0  0  0  0  0  0  0  0
    0.0000   -1.4559    0.0000 Cl   0  0  0  0  0  0  0  0  0  0  0  0
    0.0000   -4.1189    0.0000 Cl   0  0  0  0  0  0  0  0  0  0  0  0
    5.0957   -2.3036    0.0000 O    0  0  0  0  0  0  0  0  0  0  0  0
    5.7591   -1.1518    0.0000 C    0  0  0  0  0  0  0  0  0  0  0  0
    5.0957    0.0000    0.0000 C    0  0  0  0  0  0  0  0  0  0  0  0
    6.9109   -2.7920    0.0000 O    0  0  0  0  0  0  0  0  0  0  0  0
    8.0627   -3.4555    0.0000 C    0  0  0  0  0  0  0  0  0  0  0  0
    9.2146   -2.7920    0.0000 C    0  0  0  0  0  0  0  0  0  0  0  0
  1  2  2  0  0  0  0
  2  3  1  0  0  0  0
  2 13  1  0  0  0  0
  2 16  1  0  0  0  0
  3  4  1  0  0  0  0
  4  5  2  0  0  0  0
  4  9  1  0  0  0  0
  5  6  1  0  0  0  0
  6  7  2  0  0  0  0
  6 12  1  0  0  0  0
  7  8  1  0  0  0  0
  7 11  1  0  0  0  0
  8  9  2  0  0  0  0
  9 10  1  0  0  0  0
 13 14  1  0  0  0  0
 14 15  1  0  0  0  0
 16 17  1  0  0  0  0
 17 18  1  0  0  0  0
M  END
> <ID>
442

> <Formula>
C9H11Cl3NO3PS

> <FW>
350.5863

> <DSSTox_CID>
458

> <DSSTox_RID>
75603

> <DSSTox_GSID>
20458

> <DSSTox_FileID_Sort>
287

> <TS_ChemName>
Chlorpyrifos

> <TS_ChemName_Synonyms>
Chlorpyrifos (Dursban) (CPF) (O,O-Diethyl-o-(3,5,6-trichloro-2-pyridyl)phosphorothiolate) (Chlorpyriphos)

> <TS_CASRN>
2921-88-2

> <CASRN_ChemName_Relationship>
primary

> <TS_Description>
single chemical compound

> <ChemNote>


> <STRUCTURE_Shown>
tested chemical

> <STRUCTURE_Formula>
C9H11Cl3NO3PS

> <STRUCTURE_MW>
350.5863

> <STRUCTURE_ChemType>
defined organic

> <STRUCTURE_DefinedOrganicForm>
parent

> <STRUCTURE_IUPAC>
O,O-diethyl O-(3,5,6-trichloropyridin-2-yl) phosphorothioate

> <STRUCTURE_SMILES>
Clc1cc(Cl)c(Cl)nc1OP(=S)(OCC)OCC

> <STRUCTURE_SMILES_Desalt>
Clc1cc(Cl)c(Cl)nc1OP(=S)(OCC)OCC

> <Substance_modify_yyyymmdd>
20080429

$$$$
