29216-28-2
ChemmineR-0914142331XD

 23 27  0  0  0  0  0  0  0  0  1 V2000
    1.6173   -1.2065    0.0000 C   0  0  0  0  0  0  0  0  0  0  0  0
    2.3104    0.0000    0.0000 C   0  0  0  0  0  0  0  0  0  0  0  0
    3.6966    0.0000    0.0000 C   0  0  0  0  0  0  0  0  0  0  0  0
    4.3983   -1.2065    0.0000 C   0  0  0  0  0  0  0  0  0  0  0  0
    3.6966   -2.4045    0.0000 C   0  0  0  0  0  0  0  0  0  0  0  0
    2.3104   -2.4045    0.0000 C   0  0  0  0  0  0  0  0  0  0  0  0
    4.3983   -3.6025    0.0000 N   0  0  0  0  0  0  0  0  0  0  0  0
    3.6966   -4.8090    0.0000 C   0  0  0  0  0  0  0  0  0  0  0  0
    5.7845   -3.6025    0.0000 C   0  0  0  0  0  0  0  0  0  0  0  0
    6.4691   -2.4045    0.0000 C   0  0  0  0  0  0  0  0  0  0  0  0
    5.7845   -1.2065    0.0000 S   0  0  0  0  0  0  0  0  0  0  0  0
    7.8638   -2.4045    0.0000 C   0  0  0  0  0  0  0  0  0  0  0  0
    8.5570   -3.6025    0.0000 C   0  0  0  0  0  0  0  0  0  0  0  0
    7.8638   -4.8090    0.0000 C   0  0  0  0  0  0  0  0  0  0  0  0
    6.4691   -4.8090    0.0000 C   0  0  0  0  0  0  0  0  0  0  0  0
    1.1980   -4.1330    0.0000 C   0  0  0  0  0  0  0  0  0  0  0  0
    2.3959   -4.8261    0.0000 C   0  0  0  0  0  0  0  0  0  0  0  0
    1.1980   -2.7468    0.0000 C   0  0  0  0  0  0  0  0  0  0  0  0
    0.0000   -4.8261    0.0000 C   0  0  0  0  0  0  0  0  0  0  0  0
    1.6344   -4.9203    0.0000 N   0  0  0  0  0  0  0  0  0  0  0  0
    2.8324   -5.6134    0.0000 C   0  0  0  0  0  0  0  0  0  0  0  0
    1.6344   -3.5340    0.0000 C   0  0  0  0  0  0  0  0  0  0  0  0
    0.4364   -5.6134    0.0000 C   0  0  0  0  0  0  0  0  0  0  0  0
  1  2  2  0  0  0  0
  1  6  1  0  0  0  0
  2  3  1  0  0  0  0
  3  4  2  0  0  0  0
  4  5  1  0  0  0  0
  4 11  1  0  0  0  0
  5  6  2  0  0  0  0
  5  7  1  0  0  0  0
  7  8  1  0  0  0  0
  7  9  1  0  0  0  0
  8 17  1  0  0  0  0
  9 10  2  0  0  0  0
  9 15  1  0  0  0  0
 10 11  1  0  0  0  0
 10 12  1  0  0  0  0
 12 13  2  0  0  0  0
 13 14  1  0  0  0  0
 14 15  2  0  0  0  0
 16 17  1  0  0  0  0
 16 18  1  0  0  0  0
 16 19  1  0  0  0  0
 17 21  1  0  0  0  0
 18 22  1  0  0  0  0
 19 23  1  0  0  0  0
 20 21  1  0  0  0  0
 20 22  1  0  0  0  0
 20 23  1  0  0  0  0
M  END
> <ID>
2930

> <Formula>
C20H22N2S

> <FW>
322.4671

> <DSSTox_CID>
3262

> <DSSTox_RID>
76947

> <DSSTox_GSID>
23262

> <DSSTox_FileID_Sort>
1631

> <TS_ChemName>
Mequitazine

> <TS_ChemName_Synonyms>


> <TS_CASRN>
29216-28-2

> <CASRN_ChemName_Relationship>
primary

> <TS_Description>
single chemical compound

> <ChemNote>


> <STRUCTURE_Shown>
tested chemical

> <STRUCTURE_Formula>
C20H22N2S

> <STRUCTURE_MW>
322.4671

> <STRUCTURE_ChemType>
defined organic

> <STRUCTURE_DefinedOrganicForm>
parent

> <STRUCTURE_IUPAC>
10-(1-azabicyclo[2.2.2]oct-3-ylmethyl)-10H-phenothiazine

> <STRUCTURE_SMILES>
c3ccc4Sc5ccccc5N(CC2CN1CCC2CC1)c4c3

> <STRUCTURE_SMILES_Desalt>
c3ccc4Sc5ccccc5N(CC2CN1CCC2CC1)c4c3

> <Substance_modify_yyyymmdd>
20080429

$$$$
