294-62-2
ChemmineR-0914142331XD

 12 12  0  0  0  0  0  0  0  0  1 V2000
    3.4528   -0.6654    0.0000 C   0  0  0  0  0  0  0  0  0  0  0  0
    3.4528   -1.9963    0.0000 C   0  0  0  0  0  0  0  0  0  0  0  0
    2.3034    0.0000    0.0000 C   0  0  0  0  0  0  0  0  0  0  0  0
    1.1494   -0.6654    0.0000 C   0  0  0  0  0  0  0  0  0  0  0  0
    1.1494   -1.9963    0.0000 C   0  0  0  0  0  0  0  0  0  0  0  0
    0.0000   -3.9880    0.0000 C   0  0  0  0  0  0  0  0  0  0  0  0
    0.0000   -2.6571    0.0000 C   0  0  0  0  0  0  0  0  0  0  0  0
    1.1494   -4.6534    0.0000 C   0  0  0  0  0  0  0  0  0  0  0  0
    2.3034   -3.9880    0.0000 C   0  0  0  0  0  0  0  0  0  0  0  0
    3.4528   -4.6534    0.0000 C   0  0  0  0  0  0  0  0  0  0  0  0
    4.6069   -3.9880    0.0000 C   0  0  0  0  0  0  0  0  0  0  0  0
    4.6069   -2.6571    0.0000 C   0  0  0  0  0  0  0  0  0  0  0  0
  1  2  1  0  0  0  0
  1  3  1  0  0  0  0
  2 12  1  0  0  0  0
  3  4  1  0  0  0  0
  4  5  1  0  0  0  0
  5  7  1  0  0  0  0
  6  7  1  0  0  0  0
  6  8  1  0  0  0  0
  8  9  1  0  0  0  0
  9 10  1  0  0  0  0
 10 11  1  0  0  0  0
 11 12  1  0  0  0  0
M  END
> <ID>
1491

> <Formula>
C12H24

> <FW>
168.319

> <DSSTox_CID>
1552

> <DSSTox_RID>
76206

> <DSSTox_GSID>
21552

> <DSSTox_FileID_Sort>
890

> <TS_ChemName>
Cyclododecane

> <TS_ChemName_Synonyms>


> <TS_CASRN>
294-62-2

> <CASRN_ChemName_Relationship>
primary

> <TS_Description>
single chemical compound

> <ChemNote>


> <STRUCTURE_Shown>
tested chemical

> <STRUCTURE_Formula>
C12H24

> <STRUCTURE_MW>
168.319

> <STRUCTURE_ChemType>
defined organic

> <STRUCTURE_DefinedOrganicForm>
parent

> <STRUCTURE_IUPAC>
cyclododecane

> <STRUCTURE_SMILES>
C1CCCCCCCCCCC1

> <STRUCTURE_SMILES_Desalt>
C1CCCCCCCCCCC1

> <Substance_modify_yyyymmdd>
20080429

$$$$
