29767-20-2
ChemmineR-0914142331XD

 46 53  0  0  1  0  0  0  0  0  1 V2000
    9.0201   -5.4326    0.0000 C   0  0  0  0  0  0  0  0  0  0  0  0
    9.0201   -4.1172    0.0000 C   0  0  0  0  0  0  0  0  0  0  0  0
   10.1647   -3.4509    0.0000 C   0  0  0  0  0  0  0  0  0  0  0  0
   10.1647   -2.1184    0.0000 C   0  0  0  0  0  0  0  0  0  0  0  0
   11.3264   -1.4521    0.0000 C   0  0  0  0  0  0  0  0  0  0  0  0
   12.4710   -2.1184    0.0000 C   0  0  0  0  0  0  0  0  0  0  0  0
   12.4710   -3.4509    0.0000 C   0  0  0  0  0  0  0  0  0  0  0  0
   11.3264   -4.1172    0.0000 C   0  0  0  0  0  0  0  0  0  0  0  0
   11.3264   -5.4326    0.0000 C   0  0  0  0  0  0  0  0  0  0  0  0
   10.1647   -6.0988    0.0000 C   0  0  0  0  0  0  0  0  0  0  0  0
    9.8914   -7.4143    0.0000 C   0  0  0  0  0  0  0  0  0  0  0  0
   10.7798   -8.3881    0.0000 O   0  0  0  0  0  0  0  0  0  0  0  0
    8.5760   -7.5510    0.0000 O   0  0  0  0  0  0  0  0  0  0  0  0
    8.0293   -6.3380    0.0000 C   0  0  0  0  0  0  0  0  0  0  0  0
   12.4710   -6.0988    0.0000 C   0  0  0  0  0  0  0  0  0  0  0  0
   13.6327   -5.4326    0.0000 C   0  0  0  0  0  0  0  0  0  0  0  0
   14.7773   -6.0988    0.0000 C   0  0  0  0  0  0  0  0  0  0  0  0
   14.7773   -7.4314    0.0000 C   0  0  0  0  0  0  0  0  0  0  0  0
   13.6327   -8.0976    0.0000 C   0  0  0  0  0  0  0  0  0  0  0  0
   12.4710   -7.4314    0.0000 C   0  0  0  0  0  0  0  0  0  0  0  0
   13.6327   -9.4302    0.0000 O   0  0  0  0  0  0  0  0  0  0  0  0
   14.7773  -10.0964    0.0000 C   0  0  0  0  0  0  0  0  0  0  0  0
   15.9390   -8.0976    0.0000 O   0  0  0  0  0  0  0  0  0  0  0  0
   15.9390   -5.4326    0.0000 O   0  0  0  0  0  0  0  0  0  0  0  0
   17.0836   -6.0988    0.0000 C   0  0  0  0  0  0  0  0  0  0  0  0
   13.4619   -1.2300    0.0000 O   0  0  0  0  0  0  0  0  0  0  0  0
   12.9152    0.0000    0.0000 C   0  0  0  0  0  0  0  0  0  0  0  0
   11.5998   -0.1538    0.0000 O   0  0  0  0  0  0  0  0  0  0  0  0
    7.8585   -3.4509    0.0000 O   0  0  0  0  0  0  0  0  0  0  0  0
    6.7139   -4.1172    0.0000 C   0  0  0  0  0  0  0  0  0  0  0  0
    5.5693   -3.4509    0.0000 C   0  0  0  0  0  0  0  0  0  0  0  0
    4.4076   -4.1172    0.0000 C   0  0  0  0  0  0  0  0  0  0  0  0
    4.4076   -5.4326    0.0000 C   0  0  0  0  0  0  0  0  0  0  0  0
    5.5693   -6.0988    0.0000 C   0  0  0  0  0  0  0  0  0  0  0  0
    6.7139   -5.4326    0.0000 O   0  0  0  0  0  0  0  0  0  0  0  0
    5.5693   -7.4314    0.0000 C   0  0  0  0  0  0  0  0  0  0  0  0
    4.4076   -8.0976    0.0000 O   0  0  0  0  0  0  0  0  0  0  0  0
    3.2630   -7.4314    0.0000 C   0  0  0  0  0  0  0  0  0  0  0  0
    3.2630   -6.0988    0.0000 O   0  0  0  0  0  0  0  0  0  0  0  0
    2.1013   -8.0976    0.0000 C   0  0  0  0  0  0  0  0  0  0  0  0
    1.9646   -9.4302    0.0000 S   0  0  0  0  0  0  0  0  0  0  0  0
    0.6663   -9.7035    0.0000 C   0  0  0  0  0  0  0  0  0  0  0  0
    0.0000   -8.5418    0.0000 C   0  0  0  0  0  0  0  0  0  0  0  0
    0.8883   -7.5680    0.0000 C   0  0  0  0  0  0  0  0  0  0  0  0
    3.2630   -3.4509    0.0000 O   0  0  0  0  0  0  0  0  0  0  0  0
    5.5693   -2.1184    0.0000 O   0  0  0  0  0  0  0  0  0  0  0  0
  1  2  1  0  0  0  0
  1 10  1  0  0  0  0
  1 14  1  0  0  0  0
  2  3  1  0  0  0  0
  2 29  1  0  0  0  0
  3  4  2  0  0  0  0
  3  8  1  0  0  0  0
  4  5  1  0  0  0  0
  5  6  2  0  0  0  0
  5 28  1  0  0  0  0
  6  7  1  0  0  0  0
  6 26  1  0  0  0  0
  7  8  2  0  0  0  0
  8  9  1  0  0  0  0
  9 10  1  0  0  0  0
  9 15  1  1  0  0  0
 10 11  1  1  0  0  0
 11 12  2  0  0  0  0
 11 13  1  0  0  0  0
 13 14  1  0  0  0  0
 15 16  2  0  0  0  0
 15 20  1  0  0  0  0
 16 17  1  0  0  0  0
 17 18  2  0  0  0  0
 17 24  1  0  0  0  0
 18 19  1  0  0  0  0
 18 23  1  0  0  0  0
 19 20  2  0  0  0  0
 19 21  1  0  0  0  0
 21 22  1  0  0  0  0
 24 25  1  0  0  0  0
 26 27  1  0  0  0  0
 27 28  1  0  0  0  0
 30 29  1  6  0  0  0
 30 31  1  0  0  0  0
 30 35  1  0  0  0  0
 31 32  1  0  0  0  0
 31 46  1  1  0  0  0
 32 33  1  0  0  0  0
 32 45  1  6  0  0  0
 33 34  1  0  0  0  0
 33 39  1  1  0  0  0
 34 35  1  6  0  0  0
 34 36  1  0  0  0  0
 36 37  1  0  0  0  0
 37 38  1  0  0  0  0
 38 39  1  0  0  0  0
 38 40  1  0  0  0  0
 40 41  1  0  0  0  0
 40 44  2  0  0  0  0
 41 42  1  0  0  0  0
 42 43  2  0  0  0  0
 43 44  1  0  0  0  0
M  END
> <ID>
3252

> <Formula>
C32H32O13S

> <FW>
656.6537

> <DSSTox_CID>
3638

> <DSSTox_RID>
77122

> <DSSTox_GSID>
23638

> <DSSTox_FileID_Sort>
1805

> <TS_ChemName>
Teniposide

> <TS_ChemName_Synonyms>


> <TS_CASRN>
29767-20-2

> <CASRN_ChemName_Relationship>
primary

> <TS_Description>
single chemical compound

> <ChemNote>
stereochem

> <STRUCTURE_Shown>
tested chemical

> <STRUCTURE_Formula>
C32H32O13S

> <STRUCTURE_MW>
656.6537

> <STRUCTURE_ChemType>
defined organic

> <STRUCTURE_DefinedOrganicForm>
parent

> <STRUCTURE_IUPAC>
(8aR,9R)-9-(4-hydroxy-3,5-dimethoxyphenyl)-8-oxo-5,5a,6,8,8a,9-hexahydrofuro[3',4':6,7]naphtho[2,3-d][1,3]dioxol-5-yl 4,6-O-(thiophen-2-ylmethylidene)-beta-D-glucopyranoside

> <STRUCTURE_SMILES>
COc1cc(cc(OC)c1O)[C@@H]6c2cc8OCOc8cc2C(O[C@@H]4O[C@@H]3COC(O[C@H]3[C@H](O)[C@H]4O)c5cccs5)C7COC(=O)[C@H]67

> <STRUCTURE_SMILES_Desalt>
COc1cc(cc(OC)c1O)[C@@H]6c2cc8OCOc8cc2C(O[C@@H]4O[C@@H]3COC(O[C@H]3[C@H](O)[C@H]4O)c5cccs5)C7COC(=O)[C@H]67

> <Substance_modify_yyyymmdd>
20080429

$$$$
