298-81-7
ChemmineR-0914142331XD

 16 18  0  0  0  0  0  0  0  0  1 V2000
    2.0454    0.0000    0.0000 C   0  0  0  0  0  0  0  0  0  0  0  0
    3.2008   -0.6636    0.0000 O   0  0  0  0  0  0  0  0  0  0  0  0
    3.2008   -1.9907    0.0000 C   0  0  0  0  0  0  0  0  0  0  0  0
    4.3484   -2.6543    0.0000 C   0  0  0  0  0  0  0  0  0  0  0  0
    4.3484   -3.9893    0.0000 C   0  0  0  0  0  0  0  0  0  0  0  0
    3.2008   -4.6528    0.0000 C   0  0  0  0  0  0  0  0  0  0  0  0
    2.0454   -3.9893    0.0000 C   0  0  0  0  0  0  0  0  0  0  0  0
    2.0454   -2.6543    0.0000 C   0  0  0  0  0  0  0  0  0  0  0  0
    0.7807   -2.2483    0.0000 O   0  0  0  0  0  0  0  0  0  0  0  0
    0.0000   -3.3257    0.0000 C   0  0  0  0  0  0  0  0  0  0  0  0
    0.7807   -4.3952    0.0000 C   0  0  0  0  0  0  0  0  0  0  0  0
    5.5038   -4.6528    0.0000 C   0  0  0  0  0  0  0  0  0  0  0  0
    6.6514   -3.9893    0.0000 C   0  0  0  0  0  0  0  0  0  0  0  0
    6.6514   -2.6543    0.0000 C   0  0  0  0  0  0  0  0  0  0  0  0
    7.8068   -1.9907    0.0000 O   0  0  0  0  0  0  0  0  0  0  0  0
    5.5038   -1.9907    0.0000 O   0  0  0  0  0  0  0  0  0  0  0  0
  1  2  1  0  0  0  0
  2  3  1  0  0  0  0
  3  4  2  0  0  0  0
  3  8  1  0  0  0  0
  4  5  1  0  0  0  0
  4 16  1  0  0  0  0
  5  6  2  0  0  0  0
  5 12  1  0  0  0  0
  6  7  1  0  0  0  0
  7  8  2  0  0  0  0
  7 11  1  0  0  0  0
  8  9  1  0  0  0  0
  9 10  1  0  0  0  0
 10 11  2  0  0  0  0
 12 13  2  0  0  0  0
 13 14  1  0  0  0  0
 14 15  2  0  0  0  0
 14 16  1  0  0  0  0
M  END
> <ID>
796

> <Formula>
C12H8O4

> <FW>
216.1895

> <DSSTox_CID>
830

> <DSSTox_RID>
75816

> <DSSTox_GSID>
20830

> <DSSTox_FileID_Sort>
500

> <TS_ChemName>
8-Methoxypsoralen

> <TS_ChemName_Synonyms>
8-Methoxypsoralen (Methoxsalen, 8-)

> <TS_CASRN>
298-81-7

> <CASRN_ChemName_Relationship>
primary

> <TS_Description>
single chemical compound

> <ChemNote>


> <STRUCTURE_Shown>
tested chemical

> <STRUCTURE_Formula>
C12H8O4

> <STRUCTURE_MW>
216.1895

> <STRUCTURE_ChemType>
defined organic

> <STRUCTURE_DefinedOrganicForm>
parent

> <STRUCTURE_IUPAC>
9-methoxy-7H-furo[3,2-g]chromen-7-one

> <STRUCTURE_SMILES>
COc1c3occc3cc2C=CC(=O)Oc12

> <STRUCTURE_SMILES_Desalt>
COc1c3occc3cc2C=CC(=O)Oc12

> <Substance_modify_yyyymmdd>
20080429

$$$$
