29975-16-4
ChemmineR-0914142331XD

 21 24  0  0  0  0  0  0  0  0  1 V2000
    6.7457   -5.4442    0.0000 C    0  0  0  0  0  0  0  0  0  0  0  0
    5.5929   -6.1061    0.0000 C    0  0  0  0  0  0  0  0  0  0  0  0
    5.5929   -7.4374    0.0000 Cl   0  0  0  0  0  0  0  0  0  0  0  0
    4.4401   -5.4442    0.0000 C    0  0  0  0  0  0  0  0  0  0  0  0
    4.4401   -4.1129    0.0000 C    0  0  0  0  0  0  0  0  0  0  0  0
    5.5929   -3.4435    0.0000 C    0  0  0  0  0  0  0  0  0  0  0  0
    6.7457   -4.1129    0.0000 C    0  0  0  0  0  0  0  0  0  0  0  0
    5.8086   -2.1122    0.0000 N    0  0  0  0  0  0  0  0  0  0  0  0
    4.8715   -1.1751    0.0000 C    0  0  0  0  0  0  0  0  0  0  0  0
    3.5625   -1.2569    0.0000 C    0  0  0  0  0  0  0  0  0  0  0  0
    2.8113   -2.3576    0.0000 N    0  0  0  0  0  0  0  0  0  0  0  0
    3.1906   -3.6071    0.0000 C    0  0  0  0  0  0  0  0  0  0  0  0
    2.2461   -4.5517    0.0000 C    0  0  0  0  0  0  0  0  0  0  0  0
    2.5064   -5.8086    0.0000 C    0  0  0  0  0  0  0  0  0  0  0  0
    1.5693   -6.7531    0.0000 C    0  0  0  0  0  0  0  0  0  0  0  0
    0.2752   -6.3366    0.0000 C    0  0  0  0  0  0  0  0  0  0  0  0
    0.0000   -5.0574    0.0000 C    0  0  0  0  0  0  0  0  0  0  0  0
    0.9371   -4.1203    0.0000 C    0  0  0  0  0  0  0  0  0  0  0  0
    5.5483    0.0000    0.0000 N    0  0  0  0  0  0  0  0  0  0  0  0
    6.8424   -0.2529    0.0000 N    0  0  0  0  0  0  0  0  0  0  0  0
    6.9986   -1.5693    0.0000 C    0  0  0  0  0  0  0  0  0  0  0  0
  1  2  2  0  0  0  0
  1  7  1  0  0  0  0
  2  3  1  0  0  0  0
  2  4  1  0  0  0  0
  4  5  2  0  0  0  0
  5  6  1  0  0  0  0
  5 12  1  0  0  0  0
  6  7  2  0  0  0  0
  6  8  1  0  0  0  0
  8  9  1  0  0  0  0
  8 21  1  0  0  0  0
  9 10  1  0  0  0  0
  9 19  2  0  0  0  0
 10 11  1  0  0  0  0
 11 12  2  0  0  0  0
 12 13  1  0  0  0  0
 13 14  2  0  0  0  0
 13 18  1  0  0  0  0
 14 15  1  0  0  0  0
 15 16  2  0  0  0  0
 16 17  1  0  0  0  0
 17 18  2  0  0  0  0
 19 20  1  0  0  0  0
 20 21  2  0  0  0  0
M  END
> <ID>
547

> <Formula>
C16H11ClN4

> <FW>
294.7383

> <DSSTox_CID>
572

> <DSSTox_RID>
75665

> <DSSTox_GSID>
20572

> <DSSTox_FileID_Sort>
349

> <TS_ChemName>
Estazolam

> <TS_ChemName_Synonyms>


> <TS_CASRN>
29975-16-4

> <CASRN_ChemName_Relationship>
primary

> <TS_Description>
single chemical compound

> <ChemNote>
tautomers

> <STRUCTURE_Shown>
tested chemical

> <STRUCTURE_Formula>
C16H11ClN4

> <STRUCTURE_MW>
294.7383

> <STRUCTURE_ChemType>
defined organic

> <STRUCTURE_DefinedOrganicForm>
parent

> <STRUCTURE_IUPAC>
8-chloro-6-phenyl-4H-[1,2,4]triazolo[4,3-a][1,4]benzodiazepine

> <STRUCTURE_SMILES>
Clc2cc3C(=NCc1nncn1c3cc2)c4ccccc4

> <STRUCTURE_SMILES_Desalt>
Clc2cc3C(=NCc1nncn1c3cc2)c4ccccc4

> <Substance_modify_yyyymmdd>
20080429

$$$$
