30030-25-2
ChemmineR-0914142331XD

 10 10  0  0  0  0  0  0  0  0  1 V2000
    1.9964   -2.3004    0.0000 C    0  0  0  0  0  0  0  0  0  0  0  0
    2.6596   -3.4540    0.0000 C    0  0  0  0  0  0  0  0  0  0  0  0
    1.9964   -4.6077    0.0000 C    0  0  0  0  0  0  0  0  0  0  0  0
    0.6632   -4.6077    0.0000 C    0  0  0  0  0  0  0  0  0  0  0  0
    0.0000   -3.4540    0.0000 C    0  0  0  0  0  0  0  0  0  0  0  0
    0.6632   -2.3004    0.0000 C    0  0  0  0  0  0  0  0  0  0  0  0
    2.6596   -1.1537    0.0000 C    0  0  0  0  0  0  0  0  0  0  0  0
    1.9964    0.0000    0.0000 C    0  0  0  0  0  0  0  0  0  0  0  0
    2.6596   -5.7544    0.0000 C    0  0  0  0  0  0  0  0  0  0  0  0
    1.9964   -6.9081    0.0000 Cl   0  0  0  0  0  0  0  0  0  0  0  0
  1  6  2  0  0  0  0
  1  2  1  0  0  0  0
  1  7  1  0  0  0  0
  2  3  2  0  0  0  0
  3  4  1  0  0  0  0
  3  9  1  0  0  0  0
  4  5  2  0  0  0  0
  5  6  1  0  0  0  0
  7  8  2  0  0  0  0
  9 10  1  0  0  0  0
M  END
> <ID>
2141

> <Formula>
C9H9Cl

> <FW>
152.6208

> <DSSTox_CID>
2307

> <DSSTox_RID>
76541

> <DSSTox_GSID>
22307

> <DSSTox_FileID_Sort>
1225

> <TS_ChemName>
Chloromethyl styrene

> <TS_ChemName_Synonyms>


> <TS_CASRN>
30030-25-2

> <CASRN_ChemName_Relationship>
primary

> <TS_Description>
mixture or formulation

> <ChemNote>
mixture of isomers; structure shown 1-(chloromethyl)-3-ethenylbenzene

> <STRUCTURE_Shown>
representative isomer in mixture

> <STRUCTURE_Formula>
C9H9Cl

> <STRUCTURE_MW>
152.6208

> <STRUCTURE_ChemType>
defined organic

> <STRUCTURE_DefinedOrganicForm>
parent

> <STRUCTURE_IUPAC>
1-(chloromethyl)-3-ethenylbenzene

> <STRUCTURE_SMILES>
ClCc1cccc(C=C)c1

> <STRUCTURE_SMILES_Desalt>
ClCc1cccc(C=C)c1

> <Substance_modify_yyyymmdd>
20080429

$$$$
