302-22-7
ChemmineR-0914142331XD

 31 34  0  0  1  0  0  0  0  0  1 V2000
    6.9337   -5.7839    0.0000 H    0  0  0  0  0  0  0  0  0  0  0  0
    4.4831   -5.5400    0.0000 H    0  0  0  0  0  0  0  0  0  0  0  0
    8.6642    0.0000    0.0000 C    0  0  0  0  0  0  0  0  0  0  0  0
    7.7235   -0.8943    0.0000 C    0  0  0  0  0  0  0  0  0  0  0  0
    6.4343   -0.5575    0.0000 O    0  0  0  0  0  0  0  0  0  0  0  0
    8.1416   -2.5784    0.0000 C    0  0  0  0  0  0  0  0  0  0  0  0
    8.9081   -3.6469    0.0000 C    0  0  0  0  0  0  0  0  0  0  0  0
    8.1183   -4.7270    0.0000 C    0  0  0  0  0  0  0  0  0  0  0  0
    6.8756   -4.3089    0.0000 C    0  0  0  0  0  0  0  0  0  0  0  0
    5.7142   -4.9593    0.0000 C    0  0  0  0  0  0  0  0  0  0  0  0
    5.7142   -6.2949    0.0000 C    0  0  0  0  0  0  0  0  0  0  0  0
    4.5644   -6.9569    0.0000 C    0  0  0  0  0  0  0  0  0  0  0  0
    4.5644   -8.2809    0.0000 Cl   0  0  0  0  0  0  0  0  0  0  0  0
    3.4262   -6.2949    0.0000 C    0  0  0  0  0  0  0  0  0  0  0  0
    2.2880   -6.9569    0.0000 C    0  0  0  0  0  0  0  0  0  0  0  0
    1.1382   -6.2949    0.0000 C    0  0  0  0  0  0  0  0  0  0  0  0
    0.0000   -6.9569    0.0000 O    0  0  0  0  0  0  0  0  0  0  0  0
    1.1498   -4.9593    0.0000 C    0  0  0  0  0  0  0  0  0  0  0  0
    2.2880   -4.3089    0.0000 C    0  0  0  0  0  0  0  0  0  0  0  0
    3.4262   -4.9825    0.0000 C    0  0  0  0  0  0  0  0  0  0  0  0
    3.4494   -3.6469    0.0000 C    0  0  0  0  0  0  0  0  0  0  0  0
    4.5760   -4.3089    0.0000 C    0  0  0  0  0  0  0  0  0  0  0  0
    4.5760   -2.9965    0.0000 C    0  0  0  0  0  0  0  0  0  0  0  0
    5.7374   -2.3228    0.0000 C    0  0  0  0  0  0  0  0  0  0  0  0
    6.8756   -2.9965    0.0000 C    0  0  0  0  0  0  0  0  0  0  0  0
    6.7711   -1.6608    0.0000 C    0  0  0  0  0  0  0  0  0  0  0  0
    9.3262   -2.0209    0.0000 O    0  0  0  0  0  0  0  0  0  0  0  0
   10.4180   -2.7874    0.0000 C    0  0  0  0  0  0  0  0  0  0  0  0
   11.6142   -2.2299    0.0000 C    0  0  0  0  0  0  0  0  0  0  0  0
   10.3018   -4.0998    0.0000 O    0  0  0  0  0  0  0  0  0  0  0  0
    5.6910   -3.8792    0.0000 H    0  0  0  0  0  0  0  0  0  0  0  0
  9  1  1  6  0  0  0
 22  2  1  6  0  0  0
  3  4  1  0  0  0  0
  4  5  2  0  0  0  0
  6  4  1  1  0  0  0
  6  7  1  0  0  0  0
  6 25  1  0  0  0  0
  6 27  1  6  0  0  0
  7  8  1  0  0  0  0
  8  9  1  0  0  0  0
  9 10  1  0  0  0  0
  9 25  1  0  0  0  0
 10 11  1  0  0  0  0
 10 22  1  0  0  0  0
 10 31  1  1  0  0  0
 11 12  2  0  0  0  0
 12 13  1  0  0  0  0
 12 14  1  0  0  0  0
 14 15  2  0  0  0  0
 14 20  1  0  0  0  0
 15 16  1  0  0  0  0
 16 17  2  0  0  0  0
 16 18  1  0  0  0  0
 18 19  1  0  0  0  0
 19 20  1  0  0  0  0
 20 21  1  1  0  0  0
 20 22  1  0  0  0  0
 22 23  1  0  0  0  0
 23 24  1  0  0  0  0
 24 25  1  0  0  0  0
 25 26  1  1  0  0  0
 27 28  1  0  0  0  0
 28 29  1  0  0  0  0
 28 30  2  0  0  0  0
M  END
> <ID>
265

> <Formula>
C23H29ClO4

> <FW>
404.927

> <DSSTox_CID>
274

> <DSSTox_RID>
75478

> <DSSTox_GSID>
20274

> <DSSTox_FileID_Sort>
162

> <TS_ChemName>
Chlormadinone acetate

> <TS_ChemName_Synonyms>


> <TS_CASRN>
302-22-7

> <CASRN_ChemName_Relationship>
primary

> <TS_Description>
single chemical compound

> <ChemNote>
stereochem

> <STRUCTURE_Shown>
tested chemical

> <STRUCTURE_Formula>
C23H29ClO4

> <STRUCTURE_MW>
404.927

> <STRUCTURE_ChemType>
defined organic

> <STRUCTURE_DefinedOrganicForm>
parent

> <STRUCTURE_IUPAC>
6-chloro-3,20-dioxopregna-4,6-dien-17-yl acetate

> <STRUCTURE_SMILES>
CC(=O)[C@@]3(OC(C)=O)CC[C@H]2[C@@H]4C=C(Cl)C1=CC(=O)CC[C@]1(C)[C@H]4CC[C@@]23C

> <STRUCTURE_SMILES_Desalt>
CC(=O)[C@@]3(OC(C)=O)CC[C@H]2[C@@H]4C=C(Cl)C1=CC(=O)CC[C@]1(C)[C@H]4CC[C@@]23C

> <Substance_modify_yyyymmdd>
20080429

$$$$
