302-15-8
ChemmineR-0914142331XD

  8  6  0  0  0  0  0  0  0  0  1 V2000
    1.1451   -0.8717    0.0000 N   0  0  0  0  0  0  0  0  0  0  0  0
    2.3049   -1.5366    0.0000 C   0  0  0  0  0  0  0  0  0  0  0  0
    0.0000   -1.5366    0.0000 N   0  0  0  0  0  0  0  0  0  0  0  0
    6.0578   -1.3298    0.0000 S   0  0  0  0  0  0  0  0  0  0  0  0
    6.0578   -2.6595    0.0000 O   0  0  0  0  0  0  0  0  0  0  0  0
    6.0578    0.0000    0.0000 O   0  0  0  0  0  0  0  0  0  0  0  0
    4.7280   -1.3298    0.0000 O   0  0  0  0  0  0  0  0  0  0  0  0
    7.3875   -1.3298    0.0000 O   0  0  0  0  0  0  0  0  0  0  0  0
  1  2  1  0  0  0  0
  1  3  1  0  0  0  0
  4  5  2  0  0  0  0
  4  6  2  0  0  0  0
  4  7  1  0  0  0  0
  4  8  1  0  0  0  0
M  END
> <ID>
841

> <Formula>
CH8N2O4S

> <FW>
144.1502 (46.0717+98.0785)

> <DSSTox_CID>
875

> <DSSTox_RID>
75839

> <DSSTox_GSID>
20875

> <DSSTox_FileID_Sort>
523

> <TS_ChemName>
Methylhydrazine sulfate

> <TS_ChemName_Synonyms>


> <TS_CASRN>
302-15-8

> <CASRN_ChemName_Relationship>
primary

> <TS_Description>
single chemical compound

> <ChemNote>
parent [60-34-4]

> <STRUCTURE_Shown>
tested chemical

> <STRUCTURE_Formula>
CH8N2O4S

> <STRUCTURE_MW>
144.1502

> <STRUCTURE_ChemType>
defined organic

> <STRUCTURE_DefinedOrganicForm>
complex

> <STRUCTURE_IUPAC>
methylhydrazine sulfate (1:1)

> <STRUCTURE_SMILES>
CNN.O=S(=O)(O)O

> <STRUCTURE_SMILES_Desalt>
O=S(=O)(O)O

> <Substance_modify_yyyymmdd>
20081229

$$$$
