303-49-1
ChemmineR-0914142331XD

 22 24  0  0  0  0  0  0  0  0  1 V2000
    3.0019   -4.4549    0.0000 N    0  0  0  0  0  0  0  0  0  0  0  0
    4.2548   -4.0808    0.0000 C    0  0  0  0  0  0  0  0  0  0  0  0
    5.1945   -5.0205    0.0000 C    0  0  0  0  0  0  0  0  0  0  0  0
    6.4736   -4.6812    0.0000 C    0  0  0  0  0  0  0  0  0  0  0  0
    7.4133   -5.6209    0.0000 N    0  0  0  0  0  0  0  0  0  0  0  0
    8.7010   -5.2728    0.0000 C    0  0  0  0  0  0  0  0  0  0  0  0
    7.0739   -6.8999    0.0000 C    0  0  0  0  0  0  0  0  0  0  0  0
    2.0534   -3.5152    0.0000 C    0  0  0  0  0  0  0  0  0  0  0  0
    2.6538   -2.2971    0.0000 C    0  0  0  0  0  0  0  0  0  0  0  0
    1.9055   -1.2007    0.0000 C    0  0  0  0  0  0  0  0  0  0  0  0
    2.4798    0.0000    0.0000 Cl   0  0  0  0  0  0  0  0  0  0  0  0
    0.5743   -1.3052    0.0000 C    0  0  0  0  0  0  0  0  0  0  0  0
    0.0000   -2.4972    0.0000 C    0  0  0  0  0  0  0  0  0  0  0  0
    0.7483   -3.6022    0.0000 C    0  0  0  0  0  0  0  0  0  0  0  0
    0.0000   -4.6986    0.0000 C    0  0  0  0  0  0  0  0  0  0  0  0
    0.3915   -5.9689    0.0000 C    0  0  0  0  0  0  0  0  0  0  0  0
    1.6271   -6.4562    0.0000 C    0  0  0  0  0  0  0  0  0  0  0  0
    2.7843   -5.7862    0.0000 C    0  0  0  0  0  0  0  0  0  0  0  0
    3.9329   -6.4562    0.0000 C    0  0  0  0  0  0  0  0  0  0  0  0
    3.9329   -7.7874    0.0000 C    0  0  0  0  0  0  0  0  0  0  0  0
    2.7843   -8.4487    0.0000 C    0  0  0  0  0  0  0  0  0  0  0  0
    1.6271   -7.7874    0.0000 C    0  0  0  0  0  0  0  0  0  0  0  0
  1  2  1  0  0  0  0
  1  8  1  0  0  0  0
  1 18  1  0  0  0  0
  2  3  1  0  0  0  0
  3  4  1  0  0  0  0
  4  5  1  0  0  0  0
  5  6  1  0  0  0  0
  5  7  1  0  0  0  0
  8  9  2  0  0  0  0
  8 14  1  0  0  0  0
  9 10  1  0  0  0  0
 10 11  1  0  0  0  0
 10 12  2  0  0  0  0
 12 13  1  0  0  0  0
 13 14  2  0  0  0  0
 14 15  1  0  0  0  0
 15 16  1  0  0  0  0
 16 17  1  0  0  0  0
 17 18  2  0  0  0  0
 17 22  1  0  0  0  0
 18 19  1  0  0  0  0
 19 20  2  0  0  0  0
 20 21  1  0  0  0  0
 21 22  2  0  0  0  0
M  END
> <ID>
2570

> <Formula>
C19H23ClN2

> <FW>
314.8523

> <DSSTox_CID>
2844

> <DSSTox_RID>
76755

> <DSSTox_GSID>
22844

> <DSSTox_FileID_Sort>
1439

> <TS_ChemName>
Clomipramine

> <TS_ChemName_Synonyms>


> <TS_CASRN>
303-49-1

> <CASRN_ChemName_Relationship>
primary

> <TS_Description>
single chemical compound

> <ChemNote>


> <STRUCTURE_Shown>
tested chemical

> <STRUCTURE_Formula>
C19H23ClN2

> <STRUCTURE_MW>
314.8523

> <STRUCTURE_ChemType>
defined organic

> <STRUCTURE_DefinedOrganicForm>
parent

> <STRUCTURE_IUPAC>
3-(3-chloro-10,11-dihydro-5H-dibenzo[b,f]azepin-5-yl)-N,N-dimethylpropan-1-amine

> <STRUCTURE_SMILES>
CN(C)CCCN2c3ccccc3CCc1ccc(Cl)cc12

> <STRUCTURE_SMILES_Desalt>
CN(C)CCCN2c3ccccc3CCc1ccc(Cl)cc12

> <Substance_modify_yyyymmdd>
20080429

$$$$
