304-28-9
ChemmineR-0914142331XD

 21 23  0  0  0  0  0  0  0  0  1 V2000
   11.8795   -2.1034    0.0000 C   0  0  0  0  0  0  0  0  0  0  0  0
   12.0117   -3.4263    0.0000 C   0  0  0  0  0  0  0  0  0  0  0  0
   13.2288   -3.9686    0.0000 O   0  0  0  0  0  0  0  0  0  0  0  0
   10.9402   -4.2068    0.0000 N   0  0  0  0  0  0  0  0  0  0  0  0
    9.7232   -3.6644    0.0000 C   0  0  0  0  0  0  0  0  0  0  0  0
    8.6384   -4.4449    0.0000 C   0  0  0  0  0  0  0  0  0  0  0  0
    7.4346   -3.9025    0.0000 C   0  0  0  0  0  0  0  0  0  0  0  0
    7.2891   -2.5796    0.0000 C   0  0  0  0  0  0  0  0  0  0  0  0
    5.9926   -2.3018    0.0000 C   0  0  0  0  0  0  0  0  0  0  0  0
    5.3180   -3.4527    0.0000 C   0  0  0  0  0  0  0  0  0  0  0  0
    6.2175   -4.4449    0.0000 C   0  0  0  0  0  0  0  0  0  0  0  0
    3.9951   -3.4527    0.0000 C   0  0  0  0  0  0  0  0  0  0  0  0
    3.3204   -2.3018    0.0000 C   0  0  0  0  0  0  0  0  0  0  0  0
    3.9951   -1.1509    0.0000 C   0  0  0  0  0  0  0  0  0  0  0  0
    5.3180   -1.1509    0.0000 C   0  0  0  0  0  0  0  0  0  0  0  0
    1.9975   -2.3018    0.0000 N   0  0  0  0  0  0  0  0  0  0  0  0
    1.3361   -1.1509    0.0000 C   0  0  0  0  0  0  0  0  0  0  0  0
    0.0000   -1.1509    0.0000 O   0  0  0  0  0  0  0  0  0  0  0  0
    1.9975    0.0000    0.0000 C   0  0  0  0  0  0  0  0  0  0  0  0
    8.3606   -1.7991    0.0000 C   0  0  0  0  0  0  0  0  0  0  0  0
    9.5776   -2.3415    0.0000 C   0  0  0  0  0  0  0  0  0  0  0  0
  1  2  1  0  0  0  0
  2  3  2  0  0  0  0
  2  4  1  0  0  0  0
  4  5  1  0  0  0  0
  5  6  2  0  0  0  0
  5 21  1  0  0  0  0
  6  7  1  0  0  0  0
  7  8  2  0  0  0  0
  7 11  1  0  0  0  0
  8  9  1  0  0  0  0
  8 20  1  0  0  0  0
  9 10  1  0  0  0  0
  9 15  2  0  0  0  0
 10 11  1  0  0  0  0
 10 12  2  0  0  0  0
 12 13  1  0  0  0  0
 13 14  2  0  0  0  0
 13 16  1  0  0  0  0
 14 15  1  0  0  0  0
 16 17  1  0  0  0  0
 17 18  2  0  0  0  0
 17 19  1  0  0  0  0
 20 21  2  0  0  0  0
M  END
> <ID>
1420

> <Formula>
C17H16N2O2

> <FW>
280.3211

> <DSSTox_CID>
1479

> <DSSTox_RID>
76175

> <DSSTox_GSID>
21479

> <DSSTox_FileID_Sort>
859

> <TS_ChemName>
2,7-Acetylaminofluorene

> <TS_ChemName_Synonyms>


> <TS_CASRN>
304-28-9

> <CASRN_ChemName_Relationship>
primary

> <TS_Description>
single chemical compound

> <ChemNote>


> <STRUCTURE_Shown>
tested chemical

> <STRUCTURE_Formula>
C17H16N2O2

> <STRUCTURE_MW>
280.3211

> <STRUCTURE_ChemType>
defined organic

> <STRUCTURE_DefinedOrganicForm>
parent

> <STRUCTURE_IUPAC>
N,N'-9H-fluorene-2,7-diyldiacetamide

> <STRUCTURE_SMILES>
CC(=O)Nc1ccc2c3ccc(cc3Cc2c1)NC(C)=O

> <STRUCTURE_SMILES_Desalt>
CC(=O)Nc1ccc2c3ccc(cc3Cc2c1)NC(C)=O

> <Substance_modify_yyyymmdd>
20080429

$$$$
