306-37-6
ChemmineR-0914142331XD

  6  3  0  0  0  0  0  0  0  0  1 V2000
    1.1498   -0.6664    0.0000 N    0  0  0  0  0  0  0  0  0  0  0  0
    2.3031    0.0000    0.0000 N    0  0  0  0  0  0  0  0  0  0  0  0
    3.4530   -0.6664    0.0000 C    0  0  0  0  0  0  0  0  0  0  0  0
    0.0000    0.0000    0.0000 C    0  0  0  0  0  0  0  0  0  0  0  0
    0.7597   -2.1547    0.0000 Cl   0  0  0  0  0  0  0  0  0  0  0  0
    3.2113   -2.2030    0.0000 Cl   0  0  0  0  0  0  0  0  0  0  0  0
  1  2  1  0  0  0  0
  1  4  1  0  0  0  0
  2  3  1  0  0  0  0
M  END
> <ID>
499

> <Formula>
C2H10Cl2N2

> <FW>
133.0202 (60.0983+36.4609+36.4609)

> <DSSTox_CID>
517

> <DSSTox_RID>
75638

> <DSSTox_GSID>
20517

> <DSSTox_FileID_Sort>
322

> <TS_ChemName>
1,2-Dimethylhydrazine dihydrochloride

> <TS_ChemName_Synonyms>


> <TS_CASRN>
306-37-6

> <CASRN_ChemName_Relationship>
primary

> <TS_Description>
single chemical compound

> <ChemNote>
parent [540-73-8]

> <STRUCTURE_Shown>
tested chemical

> <STRUCTURE_Formula>
C2H10Cl2N2

> <STRUCTURE_MW>
133.0202

> <STRUCTURE_ChemType>
defined organic

> <STRUCTURE_DefinedOrganicForm>
complex

> <STRUCTURE_IUPAC>
1,2-dimethylhydrazine dihydrochloride

> <STRUCTURE_SMILES>
Cl.Cl.CNNC

> <STRUCTURE_SMILES_Desalt>
CNNC

> <Substance_modify_yyyymmdd>
20080429

$$$$
