30748-29-9
ChemmineR-0914142331XD

 24 26  0  0  0  0  0  0  0  0  1 V2000
    5.7700   -3.5931    0.0000 C   0  0  0  0  0  0  0  0  0  0  0  0
    6.6577   -2.5997    0.0000 O   0  0  0  0  0  0  0  0  0  0  0  0
    6.0448   -4.8929    0.0000 C   0  0  0  0  0  0  0  0  0  0  0  0
    7.2601   -5.4319    0.0000 C   0  0  0  0  0  0  0  0  0  0  0  0
    8.2957   -4.5970    0.0000 C   0  0  0  0  0  0  0  0  0  0  0  0
    9.5322   -5.0726    0.0000 C   0  0  0  0  0  0  0  0  0  0  0  0
   10.5678   -4.2377    0.0000 C   0  0  0  0  0  0  0  0  0  0  0  0
    9.7435   -6.3830    0.0000 C   0  0  0  0  0  0  0  0  0  0  0  0
    4.8929   -5.5587    0.0000 C   0  0  0  0  0  0  0  0  0  0  0  0
    4.7555   -6.8797    0.0000 O   0  0  0  0  0  0  0  0  0  0  0  0
    3.8995   -4.6710    0.0000 N   0  0  0  0  0  0  0  0  0  0  0  0
    2.5997   -4.9457    0.0000 C   0  0  0  0  0  0  0  0  0  0  0  0
    2.1875   -6.2033    0.0000 C   0  0  0  0  0  0  0  0  0  0  0  0
    0.8877   -6.4886    0.0000 C   0  0  0  0  0  0  0  0  0  0  0  0
    0.0000   -5.4953    0.0000 C   0  0  0  0  0  0  0  0  0  0  0  0
    0.4121   -4.2271    0.0000 C   0  0  0  0  0  0  0  0  0  0  0  0
    1.7120   -3.9524    0.0000 C   0  0  0  0  0  0  0  0  0  0  0  0
    4.4491   -3.4557    0.0000 N   0  0  0  0  0  0  0  0  0  0  0  0
    3.7833   -2.3038    0.0000 C   0  0  0  0  0  0  0  0  0  0  0  0
    2.4517   -2.3038    0.0000 C   0  0  0  0  0  0  0  0  0  0  0  0
    1.7860   -1.1519    0.0000 C   0  0  0  0  0  0  0  0  0  0  0  0
    2.4517    0.0000    0.0000 C   0  0  0  0  0  0  0  0  0  0  0  0
    3.7833    0.0000    0.0000 C   0  0  0  0  0  0  0  0  0  0  0  0
    4.4491   -1.1519    0.0000 C   0  0  0  0  0  0  0  0  0  0  0  0
  1  2  2  0  0  0  0
  1  3  1  0  0  0  0
  1 18  1  0  0  0  0
  3  4  1  0  0  0  0
  3  9  1  0  0  0  0
  4  5  1  0  0  0  0
  5  6  2  0  0  0  0
  6  7  1  0  0  0  0
  6  8  1  0  0  0  0
  9 10  2  0  0  0  0
  9 11  1  0  0  0  0
 11 12  1  0  0  0  0
 11 18  1  0  0  0  0
 12 13  2  0  0  0  0
 12 17  1  0  0  0  0
 13 14  1  0  0  0  0
 14 15  2  0  0  0  0
 15 16  1  0  0  0  0
 16 17  2  0  0  0  0
 18 19  1  0  0  0  0
 19 20  2  0  0  0  0
 19 24  1  0  0  0  0
 20 21  1  0  0  0  0
 21 22  2  0  0  0  0
 22 23  1  0  0  0  0
 23 24  2  0  0  0  0
M  END
> <ID>
2744

> <Formula>
C20H20N2O2

> <FW>
320.385

> <DSSTox_CID>
3051

> <DSSTox_RID>
76853

> <DSSTox_GSID>
23051

> <DSSTox_FileID_Sort>
1537

> <TS_ChemName>
Feprazone

> <TS_ChemName_Synonyms>


> <TS_CASRN>
30748-29-9

> <CASRN_ChemName_Relationship>
primary

> <TS_Description>
single chemical compound

> <ChemNote>


> <STRUCTURE_Shown>
tested chemical

> <STRUCTURE_Formula>
C20H20N2O2

> <STRUCTURE_MW>
320.385

> <STRUCTURE_ChemType>
defined organic

> <STRUCTURE_DefinedOrganicForm>
parent

> <STRUCTURE_IUPAC>
4-(3-methylbut-2-en-1-yl)-1,2-diphenylpyrazolidine-3,5-dione

> <STRUCTURE_SMILES>
C/C(C)=C\CC2C(=O)N(c1ccccc1)N(C2=O)c3ccccc3

> <STRUCTURE_SMILES_Desalt>
C/C(C)=C\CC2C(=O)N(c1ccccc1)N(C2=O)c3ccccc3

> <Substance_modify_yyyymmdd>
20080429

$$$$
