30751-05-4
ChemmineR-0914142331XD

 21 22  0  0  0  0  0  0  0  0  1 V2000
    4.6015   -3.9900    0.0000 C   0  0  0  0  0  0  0  0  0  0  0  0
    5.7622   -4.6637    0.0000 C   0  0  0  0  0  0  0  0  0  0  0  0
    5.7622   -5.9902    0.0000 O   0  0  0  0  0  0  0  0  0  0  0  0
    6.9126   -3.9900    0.0000 N   0  0  0  0  0  0  0  0  0  0  0  0
    8.0630   -4.6637    0.0000 C   0  0  0  0  0  0  0  0  0  0  0  0
    9.2133   -3.9900    0.0000 C   0  0  0  0  0  0  0  0  0  0  0  0
   10.3637   -4.6637    0.0000 N   0  0  0  0  0  0  0  0  0  0  0  0
   10.3637   -5.9902    0.0000 C   0  0  0  0  0  0  0  0  0  0  0  0
    9.2133   -6.6535    0.0000 C   0  0  0  0  0  0  0  0  0  0  0  0
    8.0630   -5.9902    0.0000 C   0  0  0  0  0  0  0  0  0  0  0  0
    3.4511   -4.6637    0.0000 C   0  0  0  0  0  0  0  0  0  0  0  0
    2.3007   -3.9900    0.0000 C   0  0  0  0  0  0  0  0  0  0  0  0
    1.1504   -4.6637    0.0000 O   0  0  0  0  0  0  0  0  0  0  0  0
    1.1504   -5.9902    0.0000 C   0  0  0  0  0  0  0  0  0  0  0  0
    2.3007   -2.6635    0.0000 C   0  0  0  0  0  0  0  0  0  0  0  0
    1.1504   -2.0002    0.0000 O   0  0  0  0  0  0  0  0  0  0  0  0
    0.0000   -2.6635    0.0000 C   0  0  0  0  0  0  0  0  0  0  0  0
    3.4511   -2.0002    0.0000 C   0  0  0  0  0  0  0  0  0  0  0  0
    3.4511   -0.6736    0.0000 O   0  0  0  0  0  0  0  0  0  0  0  0
    4.6015    0.0000    0.0000 C   0  0  0  0  0  0  0  0  0  0  0  0
    4.6015   -2.6635    0.0000 C   0  0  0  0  0  0  0  0  0  0  0  0
  1  2  1  0  0  0  0
  1 11  2  0  0  0  0
  1 21  1  0  0  0  0
  2  3  2  0  0  0  0
  2  4  1  0  0  0  0
  4  5  1  0  0  0  0
  5  6  1  0  0  0  0
  5 10  1  0  0  0  0
  6  7  1  0  0  0  0
  7  8  1  0  0  0  0
  8  9  1  0  0  0  0
  9 10  1  0  0  0  0
 11 12  1  0  0  0  0
 12 13  1  0  0  0  0
 12 15  2  0  0  0  0
 13 14  1  0  0  0  0
 15 16  1  0  0  0  0
 15 18  1  0  0  0  0
 16 17  1  0  0  0  0
 18 19  1  0  0  0  0
 18 21  2  0  0  0  0
 19 20  1  0  0  0  0
M  END
> <ID>
3328

> <Formula>
C15H22N2O4

> <FW>
294.3462

> <DSSTox_CID>
3725

> <DSSTox_RID>
77167

> <DSSTox_GSID>
23725

> <DSSTox_FileID_Sort>
1850

> <TS_ChemName>
Troxipide

> <TS_ChemName_Synonyms>


> <TS_CASRN>
30751-05-4

> <CASRN_ChemName_Relationship>
primary

> <TS_Description>
single chemical compound

> <ChemNote>


> <STRUCTURE_Shown>
tested chemical

> <STRUCTURE_Formula>
C15H22N2O4

> <STRUCTURE_MW>
294.3462

> <STRUCTURE_ChemType>
defined organic

> <STRUCTURE_DefinedOrganicForm>
parent

> <STRUCTURE_IUPAC>
3,4,5-trimethoxy-N-(piperidin-3-yl)benzamide

> <STRUCTURE_SMILES>
O=C(NC1CCCNC1)c2cc(OC)c(OC)c(OC)c2

> <STRUCTURE_SMILES_Desalt>
O=C(NC1CCCNC1)c2cc(OC)c(OC)c(OC)c2

> <Substance_modify_yyyymmdd>
20080429

$$$$
