3105-97-3
ChemmineR-0914142331XD

 25 27  0  0  0  0  0  0  0  0  1 V2000
    0.6701   -6.9044    0.0000 C   0  0  0  0  0  0  0  0  0  0  0  0
    0.0000   -5.7557    0.0000 C   0  0  0  0  0  0  0  0  0  0  0  0
    0.6701   -4.6070    0.0000 C   0  0  0  0  0  0  0  0  0  0  0  0
    1.9983   -4.6070    0.0000 C   0  0  0  0  0  0  0  0  0  0  0  0
    2.6565   -5.7557    0.0000 C   0  0  0  0  0  0  0  0  0  0  0  0
    1.9983   -6.9044    0.0000 C   0  0  0  0  0  0  0  0  0  0  0  0
    3.9847   -5.7557    0.0000 C   0  0  0  0  0  0  0  0  0  0  0  0
    4.6548   -6.9044    0.0000 O   0  0  0  0  0  0  0  0  0  0  0  0
    4.6548   -4.6070    0.0000 C   0  0  0  0  0  0  0  0  0  0  0  0
    3.9847   -3.4462    0.0000 C   0  0  0  0  0  0  0  0  0  0  0  0
    2.6565   -3.4462    0.0000 S   0  0  0  0  0  0  0  0  0  0  0  0
    4.6548   -2.2975    0.0000 C   0  0  0  0  0  0  0  0  0  0  0  0
    3.9847   -1.1487    0.0000 C   0  0  0  0  0  0  0  0  0  0  0  0
    4.6548    0.0000    0.0000 O   0  0  0  0  0  0  0  0  0  0  0  0
    5.9831   -2.2975    0.0000 C   0  0  0  0  0  0  0  0  0  0  0  0
    6.6532   -3.4462    0.0000 C   0  0  0  0  0  0  0  0  0  0  0  0
    5.9831   -4.6070    0.0000 C   0  0  0  0  0  0  0  0  0  0  0  0
    6.6532   -5.7557    0.0000 N   0  0  0  0  0  0  0  0  0  0  0  0
    7.9814   -5.7557    0.0000 C   0  0  0  0  0  0  0  0  0  0  0  0
    8.6395   -4.6070    0.0000 C   0  0  0  0  0  0  0  0  0  0  0  0
    9.9678   -4.6070    0.0000 N   0  0  0  0  0  0  0  0  0  0  0  0
   10.6379   -3.4462    0.0000 C   0  0  0  0  0  0  0  0  0  0  0  0
    9.9678   -2.2975    0.0000 C   0  0  0  0  0  0  0  0  0  0  0  0
   10.6379   -5.7557    0.0000 C   0  0  0  0  0  0  0  0  0  0  0  0
   11.9661   -5.7557    0.0000 C   0  0  0  0  0  0  0  0  0  0  0  0
  1  2  2  0  0  0  0
  1  6  1  0  0  0  0
  2  3  1  0  0  0  0
  3  4  2  0  0  0  0
  4  5  1  0  0  0  0
  4 11  1  0  0  0  0
  5  6  2  0  0  0  0
  5  7  1  0  0  0  0
  7  8  2  0  0  0  0
  7  9  1  0  0  0  0
  9 10  2  0  0  0  0
  9 17  1  0  0  0  0
 10 11  1  0  0  0  0
 10 12  1  0  0  0  0
 12 13  1  0  0  0  0
 12 15  2  0  0  0  0
 13 14  1  0  0  0  0
 15 16  1  0  0  0  0
 16 17  2  0  0  0  0
 17 18  1  0  0  0  0
 18 19  1  0  0  0  0
 19 20  1  0  0  0  0
 20 21  1  0  0  0  0
 21 22  1  0  0  0  0
 21 24  1  0  0  0  0
 22 23  1  0  0  0  0
 24 25  1  0  0  0  0
M  END
> <ID>
2809

> <Formula>
C20H24N2O2S

> <FW>
356.4818

> <DSSTox_CID>
3128

> <DSSTox_RID>
76885

> <DSSTox_GSID>
23128

> <DSSTox_FileID_Sort>
1569

> <TS_ChemName>
Hycanthone

> <TS_ChemName_Synonyms>


> <TS_CASRN>
3105-97-3

> <CASRN_ChemName_Relationship>
primary

> <TS_Description>
single chemical compound

> <ChemNote>


> <STRUCTURE_Shown>
tested chemical

> <STRUCTURE_Formula>
C20H24N2O2S

> <STRUCTURE_MW>
356.4818

> <STRUCTURE_ChemType>
defined organic

> <STRUCTURE_DefinedOrganicForm>
parent

> <STRUCTURE_IUPAC>
1-{[2-(diethylamino)ethyl]amino}-4-(hydroxymethyl)-9H-thioxanthen-9-one

> <STRUCTURE_SMILES>
CCN(CC)CCNc1ccc(CO)c2Sc3ccccc3C(=O)c12

> <STRUCTURE_SMILES_Desalt>
CCN(CC)CCNc1ccc(CO)c2Sc3ccccc3C(=O)c12

> <Substance_modify_yyyymmdd>
20080429

$$$$
