3131-60-0
ChemmineR-0914142331XD

 17 18  0  0  1  0  0  0  0  0  1 V2000
    3.6714   -5.3263    0.0000 C   0  0  0  0  0  0  0  0  0  0  0  0
    3.6560   -4.0101    0.0000 N   0  0  0  0  0  0  0  0  0  0  0  0
    2.6323   -4.5566    0.0000 O   0  0  0  0  0  0  0  0  0  0  0  0
    3.2558   -6.6040    0.0000 C   0  0  0  0  0  0  0  0  0  0  0  0
    4.7875   -3.3328    0.0000 C   0  0  0  0  0  0  0  0  0  0  0  0
    2.5092   -3.3482    0.0000 N   0  0  0  0  0  0  0  0  0  0  0  0
    1.5240   -5.3109    0.0000 C   0  0  0  0  0  0  0  0  0  0  0  0
    1.9088   -6.5732    0.0000 C   0  0  0  0  0  0  0  0  0  0  0  0
    4.0332   -7.6969    0.0000 O   0  0  0  0  0  0  0  0  0  0  0  0
    4.7798   -2.0089    0.0000 N   0  0  0  0  0  0  0  0  0  0  0  0
    5.9497   -3.9947    0.0000 O   0  0  0  0  0  0  0  0  0  0  0  0
    2.4938   -2.0166    0.0000 C   0  0  0  0  0  0  0  0  0  0  0  0
    0.2617   -4.8876    0.0000 C   0  0  0  0  0  0  0  0  0  0  0  0
    1.1084   -7.6431    0.0000 O   0  0  0  0  0  0  0  0  0  0  0  0
    3.6176   -1.3393    0.0000 C   0  0  0  0  0  0  0  0  0  0  0  0
    0.0000   -3.5714    0.0000 O   0  0  0  0  0  0  0  0  0  0  0  0
    3.6176    0.0000    0.0000 N   0  0  0  0  0  0  0  0  0  0  0  0
  1  2  1  1  0  0  0
  1  3  1  0  0  0  0
  1  4  1  0  0  0  0
  2  5  1  0  0  0  0
  2  6  1  0  0  0  0
  3  7  1  0  0  0  0
  4  8  1  0  0  0  0
  4  9  1  6  0  0  0
  5 10  1  0  0  0  0
  5 11  2  0  0  0  0
  6 12  2  0  0  0  0
  7 13  1  1  0  0  0
  7  8  1  0  0  0  0
  8 14  1  6  0  0  0
 10 15  2  0  0  0  0
 12 15  1  0  0  0  0
 13 16  1  0  0  0  0
 15 17  1  0  0  0  0
M  END
> <ID>
114

> <Formula>
C8H12N4O5

> <FW>
244.2047

> <DSSTox_CID>
117

> <DSSTox_RID>
75379

> <DSSTox_GSID>
20117

> <DSSTox_FileID_Sort>
63

> <TS_ChemName>
6-Azacytidine

> <TS_ChemName_Synonyms>


> <TS_CASRN>
3131-60-0

> <CASRN_ChemName_Relationship>
primary

> <TS_Description>
single chemical compound

> <ChemNote>
stereochem

> <STRUCTURE_Shown>
tested chemical

> <STRUCTURE_Formula>
C8H12N4O5

> <STRUCTURE_MW>
244.2047

> <STRUCTURE_ChemType>
defined organic

> <STRUCTURE_DefinedOrganicForm>
parent

> <STRUCTURE_IUPAC>
5-amino-2-(beta-D-ribofuranosyl)-1,2,4-triazin-3(2H)-one

> <STRUCTURE_SMILES>
O=C2N=C(N)C=NN2[C@@H]1O[C@H](CO)[C@@H](O)[C@H]1O

> <STRUCTURE_SMILES_Desalt>
O=C2N=C(N)C=NN2[C@@H]1O[C@H](CO)[C@@H](O)[C@H]1O

> <Substance_modify_yyyymmdd>
20080429

$$$$
