31698-14-3
ChemmineR-0914142331XD

 16 18  0  0  1  0  0  0  0  0  1 V2000
    6.1161   -2.2634    0.0000 C   0  0  0  0  0  0  0  0  0  0  0  0
    5.6923   -0.9921    0.0000 N   0  0  0  0  0  0  0  0  0  0  0  0
    4.3631   -0.9921    0.0000 C   0  0  0  0  0  0  0  0  0  0  0  0
    3.9490   -2.2634    0.0000 C   0  0  0  0  0  0  0  0  0  0  0  0
    7.4068   -2.5524    0.0000 N   0  0  0  0  0  0  0  0  0  0  0  0
    5.0277   -3.0147    0.0000 O   0  0  0  0  0  0  0  0  0  0  0  0
    3.2940   -0.2312    0.0000 O   0  0  0  0  0  0  0  0  0  0  0  0
    6.6073    0.0000    0.0000 C   0  0  0  0  0  0  0  0  0  0  0  0
    2.6198   -2.2634    0.0000 C   0  0  0  0  0  0  0  0  0  0  0  0
    8.2832   -1.5603    0.0000 C   0  0  0  0  0  0  0  0  0  0  0  0
    2.2442   -1.0306    0.0000 C   0  0  0  0  0  0  0  0  0  0  0  0
    7.8883   -0.3275    0.0000 C   0  0  0  0  0  0  0  0  0  0  0  0
    9.6317   -1.8300    0.0000 N   0  0  0  0  0  0  0  0  0  0  0  0
    1.8108   -3.3326    0.0000 O   0  0  0  0  0  0  0  0  0  0  0  0
    0.9246   -0.6935    0.0000 C   0  0  0  0  0  0  0  0  0  0  0  0
    0.0000   -1.6855    0.0000 O   0  0  0  0  0  0  0  0  0  0  0  0
  1  2  1  0  0  0  0
  1  5  2  0  0  0  0
  1  6  1  0  0  0  0
  3  2  1  1  0  0  0
  2  8  1  0  0  0  0
  3  7  1  0  0  0  0
  3  4  1  0  0  0  0
  4  6  1  1  0  0  0
  4  9  1  0  0  0  0
  5 10  1  0  0  0  0
  7 11  1  0  0  0  0
  8 12  2  0  0  0  0
  9 11  1  0  0  0  0
  9 14  1  6  0  0  0
 10 12  1  0  0  0  0
 10 13  2  0  0  0  0
 11 15  1  1  0  0  0
 15 16  1  0  0  0  0
M  END
> <ID>
347

> <Formula>
C9H11N3O4

> <FW>
225.2013

> <DSSTox_CID>
357

> <DSSTox_RID>
75535

> <DSSTox_GSID>
20357

> <DSSTox_FileID_Sort>
219

> <TS_ChemName>
Cyclocytidine

> <TS_ChemName_Synonyms>
Cyclocytidine (Ancitabine)

> <TS_CASRN>
31698-14-3

> <CASRN_ChemName_Relationship>
primary

> <TS_Description>
single chemical compound

> <ChemNote>
stereochem

> <STRUCTURE_Shown>
tested chemical

> <STRUCTURE_Formula>
C9H11N3O4

> <STRUCTURE_MW>
225.2013

> <STRUCTURE_ChemType>
defined organic

> <STRUCTURE_DefinedOrganicForm>
parent

> <STRUCTURE_IUPAC>
(2R,3R,3aS,9aR)-2-(hydroxymethyl)-6-imino-2,3,3a,9a-tetrahydro-6H-furo[2',3':4,5][1,3]oxazolo[3,2-a]pyrimidin-3-ol

> <STRUCTURE_SMILES>
N=C2N=C3O[C@H]1[C@H](O)[C@@H](CO)O[C@H]1N3C=C2

> <STRUCTURE_SMILES_Desalt>
N=C2N=C3O[C@H]1[C@H](O)[C@@H](CO)O[C@H]1N3C=C2

> <Substance_modify_yyyymmdd>
20080429

$$$$
