320-67-2
ChemmineR-0914142331XD

 17 18  0  0  1  0  0  0  0  0  1 V2000
    3.6962   -5.3133    0.0000 C   0  0  0  0  0  0  0  0  0  0  0  0
    3.7116   -4.0042    0.0000 N   0  0  0  0  0  0  0  0  0  0  0  0
    2.6413   -4.5741    0.0000 O   0  0  0  0  0  0  0  0  0  0  0  0
    3.3035   -6.6147    0.0000 C   0  0  0  0  0  0  0  0  0  0  0  0
    4.8513   -3.3497    0.0000 C   0  0  0  0  0  0  0  0  0  0  0  0
    2.5643   -3.3266    0.0000 C   0  0  0  0  0  0  0  0  0  0  0  0
    1.5555   -5.3672    0.0000 C   0  0  0  0  0  0  0  0  0  0  0  0
    1.9636   -6.6147    0.0000 C   0  0  0  0  0  0  0  0  0  0  0  0
    4.1120   -7.6774    0.0000 O   0  0  0  0  0  0  0  0  0  0  0  0
    4.8590   -2.0175    0.0000 N   0  0  0  0  0  0  0  0  0  0  0  0
    6.0064   -4.0196    0.0000 O   0  0  0  0  0  0  0  0  0  0  0  0
    2.5643   -2.0021    0.0000 N   0  0  0  0  0  0  0  0  0  0  0  0
    0.2772   -4.9514    0.0000 C   0  0  0  0  0  0  0  0  0  0  0  0
    1.1782   -7.7005    0.0000 O   0  0  0  0  0  0  0  0  0  0  0  0
    3.7039   -1.3322    0.0000 C   0  0  0  0  0  0  0  0  0  0  0  0
    0.0000   -3.6500    0.0000 O   0  0  0  0  0  0  0  0  0  0  0  0
    3.7193    0.0000    0.0000 N   0  0  0  0  0  0  0  0  0  0  0  0
  1  2  1  1  0  0  0
  1  3  1  0  0  0  0
  1  4  1  0  0  0  0
  2  5  1  0  0  0  0
  2  6  1  0  0  0  0
  3  7  1  0  0  0  0
  4  8  1  0  0  0  0
  4  9  1  6  0  0  0
  5 10  1  0  0  0  0
  5 11  2  0  0  0  0
  6 12  2  0  0  0  0
  7 13  1  1  0  0  0
  7  8  1  0  0  0  0
  8 14  1  6  0  0  0
 10 15  2  0  0  0  0
 12 15  1  0  0  0  0
 13 16  1  0  0  0  0
 15 17  1  0  0  0  0
M  END
> <ID>
113

> <Formula>
C8H12N4O5

> <FW>
244.2047

> <DSSTox_CID>
116

> <DSSTox_RID>
75378

> <DSSTox_GSID>
20116

> <DSSTox_FileID_Sort>
62

> <TS_ChemName>
5-Azacytidine

> <TS_ChemName_Synonyms>
5AzaC

> <TS_CASRN>
320-67-2

> <CASRN_ChemName_Relationship>
primary

> <TS_Description>
single chemical compound

> <ChemNote>
stereochem

> <STRUCTURE_Shown>
tested chemical

> <STRUCTURE_Formula>
C8H12N4O5

> <STRUCTURE_MW>
244.2047

> <STRUCTURE_ChemType>
defined organic

> <STRUCTURE_DefinedOrganicForm>
parent

> <STRUCTURE_IUPAC>
4-amino-1-(beta-D-ribofuranosyl)-1,3,5-triazin-2(1H)-one

> <STRUCTURE_SMILES>
NC1=NC(=O)N(C=N1)[C@@H]2O[C@H](CO)[C@@H](O)[C@H]2O

> <STRUCTURE_SMILES_Desalt>
NC1=NC(=O)N(C=N1)[C@@H]2O[C@H](CO)[C@@H](O)[C@H]2O

> <Substance_modify_yyyymmdd>
20080429

$$$$
