328-42-7
ChemmineR-0914142331XD

  9  8  0  0  0  0  0  0  0  0  1 V2000
    0.0000   -1.9937    0.0000 O   0  0  0  0  0  0  0  0  0  0  0  0
    1.1524   -1.3311    0.0000 C   0  0  0  0  0  0  0  0  0  0  0  0
    2.3049   -1.9937    0.0000 C   0  0  0  0  0  0  0  0  0  0  0  0
    3.4573   -1.3311    0.0000 C   0  0  0  0  0  0  0  0  0  0  0  0
    4.6097   -1.9937    0.0000 C   0  0  0  0  0  0  0  0  0  0  0  0
    5.7622   -1.3311    0.0000 O   0  0  0  0  0  0  0  0  0  0  0  0
    4.6097   -3.3248    0.0000 O   0  0  0  0  0  0  0  0  0  0  0  0
    2.3049   -3.3248    0.0000 O   0  0  0  0  0  0  0  0  0  0  0  0
    1.1524    0.0000    0.0000 O   0  0  0  0  0  0  0  0  0  0  0  0
  1  2  1  0  0  0  0
  2  3  1  0  0  0  0
  2  9  2  0  0  0  0
  3  4  1  0  0  0  0
  3  8  2  0  0  0  0
  4  5  1  0  0  0  0
  5  6  1  0  0  0  0
  5  7  2  0  0  0  0
M  END
> <ID>
1583

> <Formula>
C4H4O5

> <FW>
132.0716

> <DSSTox_CID>
1646

> <DSSTox_RID>
76260

> <DSSTox_GSID>
21646

> <DSSTox_FileID_Sort>
944

> <TS_ChemName>
2-Oxobutanedioic acid

> <TS_ChemName_Synonyms>


> <TS_CASRN>
328-42-7

> <CASRN_ChemName_Relationship>
primary

> <TS_Description>
single chemical compound

> <ChemNote>


> <STRUCTURE_Shown>
tested chemical

> <STRUCTURE_Formula>
C4H4O5

> <STRUCTURE_MW>
132.0716

> <STRUCTURE_ChemType>
defined organic

> <STRUCTURE_DefinedOrganicForm>
parent

> <STRUCTURE_IUPAC>
2-oxobutanedioic acid

> <STRUCTURE_SMILES>
O=C(O)C(=O)CC(=O)O

> <STRUCTURE_SMILES_Desalt>
O=C(O)C(=O)CC(=O)O

> <Substance_modify_yyyymmdd>
20080429

$$$$
