3296-90-0
ChemmineR-0914142331XD

  9  8  0  0  0  0  0  0  0  0  1 V2000
    3.1476   -3.9893    0.0000 O    0  0  0  0  0  0  0  0  0  0  0  0
    1.9947   -3.3231    0.0000 C    0  0  0  0  0  0  0  0  0  0  0  0
    1.9947   -1.9947    0.0000 C    0  0  0  0  0  0  0  0  0  0  0  0
    0.6662   -1.9947    0.0000 C    0  0  0  0  0  0  0  0  0  0  0  0
    0.0000   -3.1476    0.0000 O    0  0  0  0  0  0  0  0  0  0  0  0
    1.9947   -0.6662    0.0000 C    0  0  0  0  0  0  0  0  0  0  0  0
    0.8417    0.0000    0.0000 Br   0  0  0  0  0  0  0  0  0  0  0  0
    3.3231   -1.9947    0.0000 C    0  0  0  0  0  0  0  0  0  0  0  0
    3.9893   -3.1476    0.0000 Br   0  0  0  0  0  0  0  0  0  0  0  0
  1  2  1  0  0  0  0
  2  3  1  0  0  0  0
  3  4  1  0  0  0  0
  3  6  1  0  0  0  0
  3  8  1  0  0  0  0
  4  5  1  0  0  0  0
  6  7  1  0  0  0  0
  8  9  1  0  0  0  0
M  END
> <ID>
161

> <Formula>
C5H10Br2O2

> <FW>
261.9397

> <DSSTox_CID>
164

> <DSSTox_RID>
75412

> <DSSTox_GSID>
20164

> <DSSTox_FileID_Sort>
96

> <TS_ChemName>
2,2-Bis(bromomethyl)-1,3-propanediol

> <TS_ChemName_Synonyms>
2,2-Bis(bromomethyl)-1,3-propanediol (1,3-Propanediol, 2,2-bis(bromomethyl)-)

> <TS_CASRN>
3296-90-0

> <CASRN_ChemName_Relationship>
primary

> <TS_Description>
single chemical compound

> <ChemNote>


> <STRUCTURE_Shown>
tested chemical

> <STRUCTURE_Formula>
C5H10Br2O2

> <STRUCTURE_MW>
261.9397

> <STRUCTURE_ChemType>
defined organic

> <STRUCTURE_DefinedOrganicForm>
parent

> <STRUCTURE_IUPAC>
2,2-bis(bromomethyl)propane-1,3-diol

> <STRUCTURE_SMILES>
OCC(CBr)(CBr)CO

> <STRUCTURE_SMILES_Desalt>
OCC(CBr)(CBr)CO

> <Substance_modify_yyyymmdd>
20080429

$$$$
