33069-62-4
ChemmineR-0914142331XD

 63 69  0  0  1  0  0  0  0  0  1 V2000
   14.3966   -4.9103    0.0000 C   0  0  0  0  0  0  0  0  0  0  0  0
   15.5934   -6.9167    0.0000 C   0  0  0  0  0  0  0  0  0  0  0  0
   11.3343   -6.5647    0.0000 C   0  0  0  0  0  0  0  0  0  0  0  0
   14.3966   -6.2479    0.0000 C   0  0  0  0  0  0  0  0  0  0  0  0
   11.3343   -4.2415    0.0000 C   0  0  0  0  0  0  0  0  0  0  0  0
   12.0207   -5.4031    0.0000 C   0  0  0  0  0  0  0  0  0  0  0  0
   13.6574   -3.6256    0.0000 C   0  0  0  0  0  0  0  0  0  0  0  0
   13.0062   -7.6383    0.0000 C   0  0  0  0  0  0  0  0  0  0  0  0
   12.3198   -3.6256    0.0000 C   0  0  0  0  0  0  0  0  0  0  0  0
    9.9791   -4.2415    0.0000 C   0  0  0  0  0  0  0  0  0  0  0  0
    9.9967   -6.5647    0.0000 C   0  0  0  0  0  0  0  0  0  0  0  0
    9.2927   -5.4031    0.0000 C   0  0  0  0  0  0  0  0  0  0  0  0
    6.7935   -4.7343    0.0000 C   0  0  0  0  0  0  0  0  0  0  0  0
   15.5934   -4.2239    0.0000 C   0  0  0  0  0  0  0  0  0  0  0  0
    5.6319   -5.4031    0.0000 C   0  0  0  0  0  0  0  0  0  0  0  0
   16.7550   -6.2479    0.0000 C   0  0  0  0  0  0  0  0  0  0  0  0
    3.2912   -5.4559    0.0000 N   0  0  0  0  0  0  0  0  0  0  0  0
   13.0062   -8.9759    0.0000 O   0  0  0  0  0  0  0  0  0  0  0  0
    4.4351   -4.7343    0.0000 C   0  0  0  0  0  0  0  0  0  0  0  0
    3.2912   -6.7759    0.0000 C   0  0  0  0  0  0  0  0  0  0  0  0
   11.9855   -9.8207    0.0000 C   0  0  0  0  0  0  0  0  0  0  0  0
    7.9375   -5.4031    0.0000 O   0  0  0  0  0  0  0  0  0  0  0  0
   16.3326   -7.9903    0.0000 C   0  0  0  0  0  0  0  0  0  0  0  0
   16.7550   -4.9103    0.0000 C   0  0  0  0  0  0  0  0  0  0  0  0
   15.2942   -7.8671    0.0000 O   0  0  0  0  0  0  0  0  0  0  0  0
   17.5998   -7.1455    0.0000 O   0  0  0  0  0  0  0  0  0  0  0  0
   11.5983   -2.4640    0.0000 O   0  0  0  0  0  0  0  0  0  0  0  0
   14.5726   -8.6063    0.0000 C   0  0  0  0  0  0  0  0  0  0  0  0
   12.3022   -1.1968    0.0000 C   0  0  0  0  0  0  0  0  0  0  0  0
   14.3438   -2.6224    0.0000 O   0  0  0  0  0  0  0  0  0  0  0  0
    6.7935   -3.3968    0.0000 O   0  0  0  0  0  0  0  0  0  0  0  0
    4.3647   -7.4975    0.0000 O   0  0  0  0  0  0  0  0  0  0  0  0
   10.7887   -9.1871    0.0000 O   0  0  0  0  0  0  0  0  0  0  0  0
   10.7535   -7.5503    0.0000 O   0  0  0  0  0  0  0  0  0  0  0  0
    2.2880   -7.4447    0.0000 C   0  0  0  0  0  0  0  0  0  0  0  0
   11.9855  -11.0351    0.0000 C   0  0  0  0  0  0  0  0  0  0  0  0
    4.4351   -3.3968    0.0000 C   0  0  0  0  0  0  0  0  0  0  0  0
   13.7278   -8.1663    0.0000 O   0  0  0  0  0  0  0  0  0  0  0  0
   13.6574   -1.1968    0.0000 O   0  0  0  0  0  0  0  0  0  0  0  0
   14.9246   -3.3440    0.0000 C   0  0  0  0  0  0  0  0  0  0  0  0
    5.6319   -6.7759    0.0000 O   0  0  0  0  0  0  0  0  0  0  0  0
   16.2798   -2.9568    0.0000 O   0  0  0  0  0  0  0  0  0  0  0  0
   12.5838   -4.5055    0.0000 C   0  0  0  0  0  0  0  0  0  0  0  0
   12.5134   -6.1599    0.0000 C   0  0  0  0  0  0  0  0  0  0  0  0
    9.2927   -3.0800    0.0000 C   0  0  0  0  0  0  0  0  0  0  0  0
   14.5726   -9.5567    0.0000 C   0  0  0  0  0  0  0  0  0  0  0  0
   11.6687    0.0000    0.0000 C   0  0  0  0  0  0  0  0  0  0  0  0
    1.1616   -6.7759    0.0000 C   0  0  0  0  0  0  0  0  0  0  0  0
   10.8415  -11.7039    0.0000 C   0  0  0  0  0  0  0  0  0  0  0  0
    2.2880   -8.7471    0.0000 C   0  0  0  0  0  0  0  0  0  0  0  0
   13.1118  -11.7039    0.0000 C   0  0  0  0  0  0  0  0  0  0  0  0
    5.6319   -2.7280    0.0000 C   0  0  0  0  0  0  0  0  0  0  0  0
    3.2912   -2.7280    0.0000 C   0  0  0  0  0  0  0  0  0  0  0  0
    5.6319   -1.3904    0.0000 C   0  0  0  0  0  0  0  0  0  0  0  0
    0.0000   -7.4447    0.0000 C   0  0  0  0  0  0  0  0  0  0  0  0
    1.1616   -9.4335    0.0000 C   0  0  0  0  0  0  0  0  0  0  0  0
   10.8415  -13.0238    0.0000 C   0  0  0  0  0  0  0  0  0  0  0  0
    3.2912   -1.3904    0.0000 C   0  0  0  0  0  0  0  0  0  0  0  0
   13.1118  -13.0238    0.0000 C   0  0  0  0  0  0  0  0  0  0  0  0
   11.9855  -13.6926    0.0000 C   0  0  0  0  0  0  0  0  0  0  0  0
    0.0000   -8.7471    0.0000 C   0  0  0  0  0  0  0  0  0  0  0  0
    4.4351   -0.7216    0.0000 C   0  0  0  0  0  0  0  0  0  0  0  0
   15.4878   -5.0863    0.0000 H   0  0  0  0  0  0  0  0  0  0  0  0
  1  4  1  0  0  0  0
  1  7  1  0  0  0  0
  1 14  1  0  0  0  0
  1 40  1  1  0  0  0
  2  4  1  0  0  0  0
  2 23  1  1  0  0  0
  2 25  1  0  0  0  0
  2 16  1  0  0  0  0
  3  8  1  0  0  0  0
  3 11  1  0  0  0  0
  3 34  1  1  0  0  0
  3  6  1  0  0  0  0
  4  8  1  0  0  0  0
  4 63  1  6  0  0  0
  5  9  1  0  0  0  0
  5  6  1  0  0  0  0
  5 10  2  0  0  0  0
  6 43  1  0  0  0  0
  6 44  1  0  0  0  0
  7  9  1  0  0  0  0
  7 30  2  0  0  0  0
  8 18  1  6  0  0  0
  9 27  1  1  0  0  0
 10 12  1  0  0  0  0
 10 45  1  0  0  0  0
 11 12  1  0  0  0  0
 12 22  1  6  0  0  0
 13 22  1  0  0  0  0
 13 15  1  0  0  0  0
 13 31  2  0  0  0  0
 14 24  1  0  0  0  0
 14 42  1  1  0  0  0
 15 19  1  0  0  0  0
 15 41  1  6  0  0  0
 16 24  1  0  0  0  0
 16 26  1  1  0  0  0
 17 19  1  0  0  0  0
 17 20  1  0  0  0  0
 18 21  1  0  0  0  0
 19 37  1  1  0  0  0
 20 32  2  0  0  0  0
 20 35  1  0  0  0  0
 21 33  2  0  0  0  0
 21 36  1  0  0  0  0
 23 26  1  0  0  0  0
 25 28  1  0  0  0  0
 27 29  1  0  0  0  0
 28 38  2  0  0  0  0
 28 46  1  0  0  0  0
 29 39  2  0  0  0  0
 29 47  1  0  0  0  0
 35 48  1  0  0  0  0
 35 50  2  0  0  0  0
 36 49  2  0  0  0  0
 36 51  1  0  0  0  0
 37 52  1  0  0  0  0
 37 53  2  0  0  0  0
 48 55  2  0  0  0  0
 49 57  1  0  0  0  0
 50 56  1  0  0  0  0
 51 59  2  0  0  0  0
 52 54  2  0  0  0  0
 53 58  1  0  0  0  0
 54 62  1  0  0  0  0
 55 61  1  0  0  0  0
 56 61  2  0  0  0  0
 57 60  2  0  0  0  0
 58 62  2  0  0  0  0
 59 60  1  0  0  0  0
M  END
> <ID>
3060

> <Formula>
C47H51NO14

> <FW>
853.9061

> <DSSTox_CID>
3413

> <DSSTox_RID>
77016

> <DSSTox_GSID>
23413

> <DSSTox_FileID_Sort>
1700

> <TS_ChemName>
Paclitaxel

> <TS_ChemName_Synonyms>
Paclitaxel (Taxol)

> <TS_CASRN>
33069-62-4

> <CASRN_ChemName_Relationship>
primary

> <TS_Description>
single chemical compound

> <ChemNote>
stereochem; tautomers

> <STRUCTURE_Shown>
tested chemical

> <STRUCTURE_Formula>
C47H51NO14

> <STRUCTURE_MW>
853.9061

> <STRUCTURE_ChemType>
defined organic

> <STRUCTURE_DefinedOrganicForm>
parent

> <STRUCTURE_IUPAC>
(2alpha,5beta,7beta,10beta,13alpha)-4,10-bis(acetyloxy)-13-{[(2R,3S)-3-(benzoylamino)-2-hydroxy-3-phenylpropanoyl]oxy}-1,7-dihydroxy-9-oxo-5,20-epoxytax-11-en-2-yl benzoate

> <STRUCTURE_SMILES>
O=C(N[C@@H](c1ccccc1)[C@@H](O)C(=O)O[C@H]5C[C@@]6(O)[C@@H](OC(=O)c2ccccc2)[C@H]4[C@@](C)([C@@H](O)C[C@H]3OC[C@]34OC(C)=O)C(=O)[C@H](OC(C)=O)C(=C5C)C6(C)C)c7ccccc7

> <STRUCTURE_SMILES_Desalt>
O=C(N[C@@H](c1ccccc1)[C@@H](O)C(=O)O[C@H]5C[C@@]6(O)[C@@H](OC(=O)c2ccccc2)[C@H]4[C@@](C)([C@@H](O)C[C@H]3OC[C@]34OC(C)=O)C(=O)[C@H](OC(C)=O)C(=C5C)C6(C)C)c7ccccc7

> <Substance_modify_yyyymmdd>
20080429

$$$$
