33342-05-1
ChemmineR-0914142331XD

 37 40  0  0  0  0  0  0  0  0  1 V2000
   15.3013   -1.3140    0.0000 C   0  0  0  0  0  0  0  0  0  0  0  0
   16.6326   -1.3140    0.0000 O   0  0  0  0  0  0  0  0  0  0  0  0
   17.2896   -0.1556    0.0000 C   0  0  0  0  0  0  0  0  0  0  0  0
   14.6270   -0.1556    0.0000 C   0  0  0  0  0  0  0  0  0  0  0  0
   13.2957   -0.1556    0.0000 C   0  0  0  0  0  0  0  0  0  0  0  0
   12.6387   -1.3140    0.0000 C   0  0  0  0  0  0  0  0  0  0  0  0
   13.2957   -2.4551    0.0000 C   0  0  0  0  0  0  0  0  0  0  0  0
   14.6270   -2.4551    0.0000 C   0  0  0  0  0  0  0  0  0  0  0  0
   12.6387   -3.6135    0.0000 C   0  0  0  0  0  0  0  0  0  0  0  0
   13.2957   -4.7719    0.0000 O   0  0  0  0  0  0  0  0  0  0  0  0
   11.3074   -3.6135    0.0000 N   0  0  0  0  0  0  0  0  0  0  0  0
   10.6331   -4.7719    0.0000 C   0  0  0  0  0  0  0  0  0  0  0  0
    9.3018   -4.7719    0.0000 C   0  0  0  0  0  0  0  0  0  0  0  0
    8.6448   -5.9130    0.0000 C   0  0  0  0  0  0  0  0  0  0  0  0
    7.3135   -5.9130    0.0000 C   0  0  0  0  0  0  0  0  0  0  0  0
    6.6565   -7.0714    0.0000 C   0  0  0  0  0  0  0  0  0  0  0  0
    7.3135   -8.2298    0.0000 C   0  0  0  0  0  0  0  0  0  0  0  0
    6.6565   -9.3710    0.0000 S   0  0  0  0  0  0  0  0  0  0  0  0
    5.4981   -8.7140    0.0000 O   0  0  0  0  0  0  0  0  0  0  0  0
    7.7976  -10.0453    0.0000 O   0  0  0  0  0  0  0  0  0  0  0  0
    5.9822  -10.5294    0.0000 N   0  0  0  0  0  0  0  0  0  0  0  0
    4.6509  -10.5294    0.0000 C   0  0  0  0  0  0  0  0  0  0  0  0
    3.9939   -9.3710    0.0000 O   0  0  0  0  0  0  0  0  0  0  0  0
    3.9939  -11.6705    0.0000 N   0  0  0  0  0  0  0  0  0  0  0  0
    2.6626  -11.6705    0.0000 C   0  0  0  0  0  0  0  0  0  0  0  0
    1.9883  -12.8289    0.0000 C   0  0  0  0  0  0  0  0  0  0  0  0
    0.6570  -12.8289    0.0000 C   0  0  0  0  0  0  0  0  0  0  0  0
    0.0000  -11.6705    0.0000 C   0  0  0  0  0  0  0  0  0  0  0  0
    0.6570  -10.5294    0.0000 C   0  0  0  0  0  0  0  0  0  0  0  0
    1.9883  -10.5294    0.0000 C   0  0  0  0  0  0  0  0  0  0  0  0
    8.6448   -8.2298    0.0000 C   0  0  0  0  0  0  0  0  0  0  0  0
    9.3018   -7.0714    0.0000 C   0  0  0  0  0  0  0  0  0  0  0  0
   10.6331   -2.4551    0.0000 C   0  0  0  0  0  0  0  0  0  0  0  0
    9.3018   -2.4551    0.0000 O   0  0  0  0  0  0  0  0  0  0  0  0
   11.3074   -1.3140    0.0000 C   0  0  0  0  0  0  0  0  0  0  0  0
   11.5322    0.0000    0.0000 C   0  0  0  0  0  0  0  0  0  0  0  0
   10.0625   -0.8645    0.0000 C   0  0  0  0  0  0  0  0  0  0  0  0
  1  2  1  0  0  0  0
  1  4  2  0  0  0  0
  1  8  1  0  0  0  0
  2  3  1  0  0  0  0
  4  5  1  0  0  0  0
  5  6  2  0  0  0  0
  6  7  1  0  0  0  0
  6 35  1  0  0  0  0
  7  8  2  0  0  0  0
  7  9  1  0  0  0  0
  9 10  2  0  0  0  0
  9 11  1  0  0  0  0
 11 12  1  0  0  0  0
 11 33  1  0  0  0  0
 12 13  1  0  0  0  0
 13 14  1  0  0  0  0
 14 15  2  0  0  0  0
 14 32  1  0  0  0  0
 15 16  1  0  0  0  0
 16 17  2  0  0  0  0
 17 18  1  0  0  0  0
 17 31  1  0  0  0  0
 18 19  2  0  0  0  0
 18 20  2  0  0  0  0
 18 21  1  0  0  0  0
 21 22  1  0  0  0  0
 22 23  2  0  0  0  0
 22 24  1  0  0  0  0
 24 25  1  0  0  0  0
 25 26  1  0  0  0  0
 25 30  1  0  0  0  0
 26 27  1  0  0  0  0
 27 28  1  0  0  0  0
 28 29  1  0  0  0  0
 29 30  1  0  0  0  0
 31 32  2  0  0  0  0
 33 34  2  0  0  0  0
 33 35  1  0  0  0  0
 35 36  1  0  0  0  0
 35 37  1  0  0  0  0
M  END
> <ID>
2782

> <Formula>
C27H33N3O6S

> <FW>
527.6324

> <DSSTox_CID>
3096

> <DSSTox_RID>
76873

> <DSSTox_GSID>
23096

> <DSSTox_FileID_Sort>
1557

> <TS_ChemName>
Gliquidone

> <TS_ChemName_Synonyms>


> <TS_CASRN>
33342-05-1

> <CASRN_ChemName_Relationship>
primary

> <TS_Description>
single chemical compound

> <ChemNote>


> <STRUCTURE_Shown>
tested chemical

> <STRUCTURE_Formula>
C27H33N3O6S

> <STRUCTURE_MW>
527.6324

> <STRUCTURE_ChemType>
defined organic

> <STRUCTURE_DefinedOrganicForm>
parent

> <STRUCTURE_IUPAC>
N-(cyclohexylcarbamoyl)-4-[2-(7-methoxy-4,4-dimethyl-1,3-dioxo-3,4-dihydroisoquinolin-2(1H)-yl)ethyl]benzenesulfonamide

> <STRUCTURE_SMILES>
O=C(NC1CCCCC1)NS(=O)(=O)c2ccc(cc2)CCN4C(=O)c3cc(ccc3C(C)(C)C4=O)OC

> <STRUCTURE_SMILES_Desalt>
O=C(NC1CCCCC1)NS(=O)(=O)c2ccc(cc2)CCN4C(=O)c3cc(ccc3C(C)(C)C4=O)OC

> <Substance_modify_yyyymmdd>
20080429

$$$$
