334-48-5
ChemmineR-0914142331XD

 12 11  0  0  0  0  0  0  0  0  1 V2000
    0.0000   -1.9913    0.0000 C   0  0  0  0  0  0  0  0  0  0  0  0
    1.1510   -1.3237    0.0000 C   0  0  0  0  0  0  0  0  0  0  0  0
    2.3021   -1.9913    0.0000 C   0  0  0  0  0  0  0  0  0  0  0  0
    3.4531   -1.3237    0.0000 C   0  0  0  0  0  0  0  0  0  0  0  0
    4.6041   -1.9913    0.0000 C   0  0  0  0  0  0  0  0  0  0  0  0
    5.7552   -1.3237    0.0000 C   0  0  0  0  0  0  0  0  0  0  0  0
    6.9062   -1.9913    0.0000 C   0  0  0  0  0  0  0  0  0  0  0  0
    8.0573   -1.3237    0.0000 C   0  0  0  0  0  0  0  0  0  0  0  0
    9.2083   -1.9913    0.0000 C   0  0  0  0  0  0  0  0  0  0  0  0
   10.3593   -1.3237    0.0000 C   0  0  0  0  0  0  0  0  0  0  0  0
   11.5104   -1.9913    0.0000 O   0  0  0  0  0  0  0  0  0  0  0  0
   10.3593    0.0000    0.0000 O   0  0  0  0  0  0  0  0  0  0  0  0
  1  2  1  0  0  0  0
  2  3  1  0  0  0  0
  3  4  1  0  0  0  0
  4  5  1  0  0  0  0
  5  6  1  0  0  0  0
  6  7  1  0  0  0  0
  7  8  1  0  0  0  0
  8  9  1  0  0  0  0
  9 10  1  0  0  0  0
 10 11  1  0  0  0  0
 10 12  2  0  0  0  0
M  END
> <ID>
1493

> <Formula>
C10H20O2

> <FW>
172.2646

> <DSSTox_CID>
1554

> <DSSTox_RID>
76208

> <DSSTox_GSID>
21554

> <DSSTox_FileID_Sort>
892

> <TS_ChemName>
Decanoic acid

> <TS_ChemName_Synonyms>
Decanoic acid (Capric acid)

> <TS_CASRN>
334-48-5

> <CASRN_ChemName_Relationship>
primary

> <TS_Description>
single chemical compound

> <ChemNote>


> <STRUCTURE_Shown>
tested chemical

> <STRUCTURE_Formula>
C10H20O2

> <STRUCTURE_MW>
172.2646

> <STRUCTURE_ChemType>
defined organic

> <STRUCTURE_DefinedOrganicForm>
parent

> <STRUCTURE_IUPAC>
decanoic acid

> <STRUCTURE_SMILES>
O=C(O)CCCCCCCCC

> <STRUCTURE_SMILES_Desalt>
O=C(O)CCCCCCCCC

> <Substance_modify_yyyymmdd>
20080429

$$$$
