33755-46-3
ChemmineR-0914142331XD

 36 39  0  0  1  0  0  0  0  0  1 V2000
    6.9484   -5.0746    0.0000 C   0  0  0  0  0  0  0  0  0  0  0  0
    4.6453   -6.3758    0.0000 C   0  0  0  0  0  0  0  0  0  0  0  0
    3.4872   -7.0394    0.0000 C   0  0  0  0  0  0  0  0  0  0  0  0
    6.9484   -6.3758    0.0000 C   0  0  0  0  0  0  0  0  0  0  0  0
    5.7903   -7.0394    0.0000 C   0  0  0  0  0  0  0  0  0  0  0  0
    8.1975   -4.6583    0.0000 C   0  0  0  0  0  0  0  0  0  0  0  0
    3.4872   -8.3927    0.0000 C   0  0  0  0  0  0  0  0  0  0  0  0
    4.6453   -5.0746    0.0000 C   0  0  0  0  0  0  0  0  0  0  0  0
    5.7903   -4.3980    0.0000 C   0  0  0  0  0  0  0  0  0  0  0  0
    9.0042   -5.7252    0.0000 C   0  0  0  0  0  0  0  0  0  0  0  0
    2.3682   -6.3758    0.0000 C   0  0  0  0  0  0  0  0  0  0  0  0
    8.2235   -6.7922    0.0000 C   0  0  0  0  0  0  0  0  0  0  0  0
    2.3682   -9.0693    0.0000 C   0  0  0  0  0  0  0  0  0  0  0  0
    8.1975   -3.2920    0.0000 C   0  0  0  0  0  0  0  0  0  0  0  0
    5.7903   -8.3927    0.0000 C   0  0  0  0  0  0  0  0  0  0  0  0
    1.1841   -7.0394    0.0000 C   0  0  0  0  0  0  0  0  0  0  0  0
    1.1841   -8.3927    0.0000 C   0  0  0  0  0  0  0  0  0  0  0  0
    4.6453   -9.0693    0.0000 C   0  0  0  0  0  0  0  0  0  0  0  0
    4.6192   -7.5339    0.0000 F   0  0  0  0  0  0  0  0  0  0  0  0
    7.0655   -2.6284    0.0000 O   0  0  0  0  0  0  0  0  0  0  0  0
    0.0000   -9.0823    0.0000 O   0  0  0  0  0  0  0  0  0  0  0  0
    9.5638   -4.6583    0.0000 O   0  0  0  0  0  0  0  0  0  0  0  0
    6.9484   -3.7084    0.0000 C   0  0  0  0  0  0  0  0  0  0  0  0
    3.4742   -4.3850    0.0000 O   0  0  0  0  0  0  0  0  0  0  0  0
    3.4872   -5.7252    0.0000 C   0  0  0  0  0  0  0  0  0  0  0  0
   10.3315   -5.6992    0.0000 C   0  0  0  0  0  0  0  0  0  0  0  0
    9.3295   -2.6284    0.0000 C   0  0  0  0  0  0  0  0  0  0  0  0
    9.3165   -1.3012    0.0000 O   0  0  0  0  0  0  0  0  0  0  0  0
    5.7903   -5.6992    0.0000 H   0  0  0  0  0  0  0  0  0  0  0  0
    6.9484   -7.7031    0.0000 H   0  0  0  0  0  0  0  0  0  0  0  0
   10.7088   -3.9947    0.0000 C   0  0  0  0  0  0  0  0  0  0  0  0
   11.8669   -4.6583    0.0000 O   0  0  0  0  0  0  0  0  0  0  0  0
   10.7088   -2.6544    0.0000 C   0  0  0  0  0  0  0  0  0  0  0  0
   11.8669   -2.0038    0.0000 C   0  0  0  0  0  0  0  0  0  0  0  0
   11.8669   -0.6896    0.0000 C   0  0  0  0  0  0  0  0  0  0  0  0
   13.0119    0.0000    0.0000 C   0  0  0  0  0  0  0  0  0  0  0  0
  1  4  1  0  0  0  0
  1  6  1  0  0  0  0
  1  9  1  0  0  0  0
  1 23  1  1  0  0  0
  2  8  1  0  0  0  0
  2  3  1  0  0  0  0
  2 19  1  6  0  0  0
  2  5  1  0  0  0  0
  3  7  1  0  0  0  0
  3 11  1  0  0  0  0
  3 25  1  1  0  0  0
  4  5  1  0  0  0  0
  4 12  1  0  0  0  0
  4 30  1  6  0  0  0
  5 15  1  0  0  0  0
  5 29  1  1  0  0  0
  6 10  1  0  0  0  0
  6 14  1  1  0  0  0
  6 22  1  6  0  0  0
  7 13  2  0  0  0  0
  7 18  1  0  0  0  0
  8  9  1  0  0  0  0
  8 24  1  1  0  0  0
 10 26  1  6  0  0  0
 10 12  1  0  0  0  0
 11 16  2  0  0  0  0
 13 17  1  0  0  0  0
 14 20  2  0  0  0  0
 14 27  1  0  0  0  0
 15 18  1  0  0  0  0
 16 17  1  0  0  0  0
 17 21  2  0  0  0  0
 22 31  1  0  0  0  0
 27 28  1  0  0  0  0
 31 32  2  0  0  0  0
 31 33  1  0  0  0  0
 33 34  1  0  0  0  0
 34 35  1  0  0  0  0
 35 36  1  0  0  0  0
M  END
> <ID>
2618

> <Formula>
C27H37FO6

> <FW>
476.5775

> <DSSTox_CID>
2904

> <DSSTox_RID>
76782

> <DSSTox_GSID>
22904

> <DSSTox_FileID_Sort>
1466

> <TS_ChemName>
Dexamethasone valerate

> <TS_ChemName_Synonyms>


> <TS_CASRN>
33755-46-3

> <CASRN_ChemName_Relationship>
primary

> <TS_Description>
single chemical compound

> <ChemNote>
stereochem; tautomers

> <STRUCTURE_Shown>
tested chemical

> <STRUCTURE_Formula>
C27H37FO6

> <STRUCTURE_MW>
476.5775

> <STRUCTURE_ChemType>
defined organic

> <STRUCTURE_DefinedOrganicForm>
parent

> <STRUCTURE_IUPAC>
(11beta,16alpha)-9-fluoro-11,21-dihydroxy-16-methyl-3,20-dioxopregna-1,4-dien-17-yl pentanoate

> <STRUCTURE_SMILES>
OCC(=O)[C@@]4(OC(=O)CCCC)[C@H](C)C[C@@H]3[C@]4(C)C[C@H](O)[C@@]2(F)[C@H]3CCC1=CC(=O)C=C[C@@]12C

> <STRUCTURE_SMILES_Desalt>
OCC(=O)[C@@]4(OC(=O)CCCC)[C@H](C)C[C@@H]3[C@]4(C)C[C@H](O)[C@@]2(F)[C@H]3CCC1=CC(=O)C=C[C@@]12C

> <Substance_modify_yyyymmdd>
20110521

$$$$
