34176-52-8
ChemmineR-0914142331XD

 13 14  0  0  0  0  0  0  0  0  1 V2000
    0.0000   -0.5408    0.0000 N   0  0  0  0  0  0  0  0  0  0  0  0
    1.2147    0.0000    0.0000 N   0  0  0  0  0  0  0  0  0  0  0  0
    2.2880   -0.7821    0.0000 C   0  0  0  0  0  0  0  0  0  0  0  0
    3.5527   -0.3661    0.0000 N   0  0  0  0  0  0  0  0  0  0  0  0
    4.3347   -1.4477    0.0000 C   0  0  0  0  0  0  0  0  0  0  0  0
    3.5527   -2.5210    0.0000 C   0  0  0  0  0  0  0  0  0  0  0  0
    2.2880   -2.1133    0.0000 S   0  0  0  0  0  0  0  0  0  0  0  0
    5.6659   -1.4477    0.0000 C   0  0  0  0  0  0  0  0  0  0  0  0
    6.3232   -0.2912    0.0000 C   0  0  0  0  0  0  0  0  0  0  0  0
    7.6544   -0.2912    0.0000 C   0  0  0  0  0  0  0  0  0  0  0  0
    8.3200   -1.4477    0.0000 C   0  0  0  0  0  0  0  0  0  0  0  0
    7.6544   -2.5959    0.0000 C   0  0  0  0  0  0  0  0  0  0  0  0
    6.3232   -2.5959    0.0000 C   0  0  0  0  0  0  0  0  0  0  0  0
  1  2  1  0  0  0  0
  2  3  1  0  0  0  0
  3  4  2  0  0  0  0
  3  7  1  0  0  0  0
  4  5  1  0  0  0  0
  5  6  2  0  0  0  0
  5  8  1  0  0  0  0
  6  7  1  0  0  0  0
  8  9  2  0  0  0  0
  8 13  1  0  0  0  0
  9 10  1  0  0  0  0
 10 11  2  0  0  0  0
 11 12  1  0  0  0  0
 12 13  2  0  0  0  0
M  END
> <ID>
677

> <Formula>
C9H9N3S

> <FW>
191.2529

> <DSSTox_CID>
707

> <DSSTox_RID>
75748

> <DSSTox_GSID>
20707

> <DSSTox_FileID_Sort>
432

> <TS_ChemName>
2-Hydrazino-4-phenylthiazole

> <TS_ChemName_Synonyms>


> <TS_CASRN>
34176-52-8

> <CASRN_ChemName_Relationship>
primary

> <TS_Description>
single chemical compound

> <ChemNote>


> <STRUCTURE_Shown>
tested chemical

> <STRUCTURE_Formula>
C9H9N3S

> <STRUCTURE_MW>
191.2529

> <STRUCTURE_ChemType>
defined organic

> <STRUCTURE_DefinedOrganicForm>
parent

> <STRUCTURE_IUPAC>
2-hydrazinyl-4-phenyl-1,3-thiazole

> <STRUCTURE_SMILES>
NNc1nc(cs1)c2ccccc2

> <STRUCTURE_SMILES_Desalt>
NNc1nc(cs1)c2ccccc2

> <Substance_modify_yyyymmdd>
20080429

$$$$
