34368-04-2
ChemmineR-0914142331XD

 22 23  0  0  0  0  0  0  0  0  1 V2000
    1.1533   -1.9898    0.0000 C   0  0  0  0  0  0  0  0  0  0  0  0
    0.0000   -1.3308    0.0000 O   0  0  0  0  0  0  0  0  0  0  0  0
    2.3067   -1.3308    0.0000 C   0  0  0  0  0  0  0  0  0  0  0  0
    2.3067    0.0000    0.0000 O   0  0  0  0  0  0  0  0  0  0  0  0
    3.4600   -1.9898    0.0000 C   0  0  0  0  0  0  0  0  0  0  0  0
    3.4600   -3.3206    0.0000 C   0  0  0  0  0  0  0  0  0  0  0  0
    2.3067   -3.9923    0.0000 C   0  0  0  0  0  0  0  0  0  0  0  0
    2.3067   -5.3231    0.0000 C   0  0  0  0  0  0  0  0  0  0  0  0
    3.4600   -5.9822    0.0000 C   0  0  0  0  0  0  0  0  0  0  0  0
    4.6134   -5.3231    0.0000 N   0  0  0  0  0  0  0  0  0  0  0  0
    5.7667   -5.9822    0.0000 C   0  0  0  0  0  0  0  0  0  0  0  0
    5.7667   -7.3130    0.0000 C   0  0  0  0  0  0  0  0  0  0  0  0
    6.9074   -5.3231    0.0000 C   0  0  0  0  0  0  0  0  0  0  0  0
    8.0607   -5.9822    0.0000 C   0  0  0  0  0  0  0  0  0  0  0  0
    9.2141   -5.3231    0.0000 C   0  0  0  0  0  0  0  0  0  0  0  0
    9.2141   -3.9923    0.0000 C   0  0  0  0  0  0  0  0  0  0  0  0
   10.3674   -3.3206    0.0000 C   0  0  0  0  0  0  0  0  0  0  0  0
   11.5208   -3.9923    0.0000 C   0  0  0  0  0  0  0  0  0  0  0  0
   12.6741   -3.3206    0.0000 O   0  0  0  0  0  0  0  0  0  0  0  0
   11.5208   -5.3231    0.0000 C   0  0  0  0  0  0  0  0  0  0  0  0
   10.3674   -5.9822    0.0000 C   0  0  0  0  0  0  0  0  0  0  0  0
    1.1533   -3.3206    0.0000 C   0  0  0  0  0  0  0  0  0  0  0  0
  1  2  1  0  0  0  0
  1  3  2  0  0  0  0
  1 22  1  0  0  0  0
  3  4  1  0  0  0  0
  3  5  1  0  0  0  0
  5  6  2  0  0  0  0
  6  7  1  0  0  0  0
  7  8  1  0  0  0  0
  7 22  2  0  0  0  0
  8  9  1  0  0  0  0
  9 10  1  0  0  0  0
 10 11  1  0  0  0  0
 11 12  1  0  0  0  0
 11 13  1  0  0  0  0
 13 14  1  0  0  0  0
 14 15  1  0  0  0  0
 15 16  2  0  0  0  0
 15 21  1  0  0  0  0
 16 17  1  0  0  0  0
 17 18  2  0  0  0  0
 18 19  1  0  0  0  0
 18 20  1  0  0  0  0
 20 21  2  0  0  0  0
M  END
> <ID>
2663

> <Formula>
C18H23NO3

> <FW>
301.3801

> <DSSTox_CID>
2958

> <DSSTox_RID>
76807

> <DSSTox_GSID>
22958

> <DSSTox_FileID_Sort>
1491

> <TS_ChemName>
Dobutamine

> <TS_ChemName_Synonyms>


> <TS_CASRN>
34368-04-2

> <CASRN_ChemName_Relationship>
primary

> <TS_Description>
single chemical compound

> <ChemNote>


> <STRUCTURE_Shown>
tested chemical

> <STRUCTURE_Formula>
C18H23NO3

> <STRUCTURE_MW>
301.3801

> <STRUCTURE_ChemType>
defined organic

> <STRUCTURE_DefinedOrganicForm>
parent

> <STRUCTURE_IUPAC>
4-(2-{[4-(4-hydroxyphenyl)butan-2-yl]amino}ethyl)benzene-1,2-diol

> <STRUCTURE_SMILES>
Oc2ccc(CCNC(C)CCc1ccc(O)cc1)cc2O

> <STRUCTURE_SMILES_Desalt>
Oc2ccc(CCNC(C)CCc1ccc(O)cc1)cc2O

> <Substance_modify_yyyymmdd>
20080429

$$$$
