34580-13-7
ChemmineR-0914142331XD

 22 25  0  0  0  0  0  0  0  0  1 V2000
    2.7726    0.0000    0.0000 C   0  0  0  0  0  0  0  0  0  0  0  0
    4.0457   -0.2829    0.0000 C   0  0  0  0  0  0  0  0  0  0  0  0
    4.4607   -1.5655    0.0000 C   0  0  0  0  0  0  0  0  0  0  0  0
    3.5176   -2.5085    0.0000 C   0  0  0  0  0  0  0  0  0  0  0  0
    2.2351   -2.2256    0.0000 C   0  0  0  0  0  0  0  0  0  0  0  0
    1.8295   -0.9431    0.0000 C   0  0  0  0  0  0  0  0  0  0  0  0
    1.1977   -3.0555    0.0000 C   0  0  0  0  0  0  0  0  0  0  0  0
    1.1977   -4.3852    0.0000 C   0  0  0  0  0  0  0  0  0  0  0  0
    0.0000   -4.9605    0.0000 O   0  0  0  0  0  0  0  0  0  0  0  0
    2.2351   -5.2151    0.0000 C   0  0  0  0  0  0  0  0  0  0  0  0
    3.5459   -4.9134    0.0000 C   0  0  0  0  0  0  0  0  0  0  0  0
    4.1118   -3.7251    0.0000 C   0  0  0  0  0  0  0  0  0  0  0  0
    5.4415   -3.7251    0.0000 C   0  0  0  0  0  0  0  0  0  0  0  0
    6.1016   -2.5746    0.0000 C   0  0  0  0  0  0  0  0  0  0  0  0
    7.4313   -2.5746    0.0000 C   0  0  0  0  0  0  0  0  0  0  0  0
    8.1009   -3.7251    0.0000 N   0  0  0  0  0  0  0  0  0  0  0  0
    9.4306   -3.7251    0.0000 C   0  0  0  0  0  0  0  0  0  0  0  0
    7.4313   -4.8756    0.0000 C   0  0  0  0  0  0  0  0  0  0  0  0
    6.1016   -4.8756    0.0000 C   0  0  0  0  0  0  0  0  0  0  0  0
    4.2061   -6.0639    0.0000 C   0  0  0  0  0  0  0  0  0  0  0  0
    3.3384   -7.0635    0.0000 C   0  0  0  0  0  0  0  0  0  0  0  0
    2.1219   -6.5449    0.0000 S   0  0  0  0  0  0  0  0  0  0  0  0
  1  2  2  0  0  0  0
  1  6  1  0  0  0  0
  2  3  1  0  0  0  0
  3  4  2  0  0  0  0
  4  5  1  0  0  0  0
  4 12  1  0  0  0  0
  5  6  2  0  0  0  0
  5  7  1  0  0  0  0
  7  8  1  0  0  0  0
  8  9  2  0  0  0  0
  8 10  1  0  0  0  0
 10 11  2  0  0  0  0
 10 22  1  0  0  0  0
 11 12  1  0  0  0  0
 11 20  1  0  0  0  0
 12 13  2  0  0  0  0
 13 14  1  0  0  0  0
 13 19  1  0  0  0  0
 14 15  1  0  0  0  0
 15 16  1  0  0  0  0
 16 17  1  0  0  0  0
 16 18  1  0  0  0  0
 18 19  1  0  0  0  0
 20 21  2  0  0  0  0
 21 22  1  0  0  0  0
M  END
> <ID>
2866

> <Formula>
C19H19NOS

> <FW>
309.4253

> <DSSTox_CID>
3190

> <DSSTox_RID>
76914

> <DSSTox_GSID>
23190

> <DSSTox_FileID_Sort>
1598

> <TS_ChemName>
Ketotifen

> <TS_ChemName_Synonyms>


> <TS_CASRN>
34580-13-7

> <CASRN_ChemName_Relationship>
primary

> <TS_Description>
single chemical compound

> <ChemNote>


> <STRUCTURE_Shown>
tested chemical

> <STRUCTURE_Formula>
C19H19NOS

> <STRUCTURE_MW>
309.4253

> <STRUCTURE_ChemType>
defined organic

> <STRUCTURE_DefinedOrganicForm>
parent

> <STRUCTURE_IUPAC>
4-(1-methylpiperidin-4-ylidene)-4,9-dihydro-10H-benzo[4,5]cyclohepta[1,2-b]thiophen-10-one

> <STRUCTURE_SMILES>
CN1CC/C(CC1)=C3\c4ccccc4CC(=O)c2sccc23

> <STRUCTURE_SMILES_Desalt>
CN1CC/C(CC1)=C3\c4ccccc4CC(=O)c2sccc23

> <Substance_modify_yyyymmdd>
20080429

$$$$
