3485-62-9
ChemmineR-0914142331XD

 27 29  0  0  0  0  0  0  0  0  2 V2000
   10.4898   -4.9506    0.0000 Br   0  5  0  0  0  0  0  0  0  0  0  0
    0.0000   -4.1203    0.0000 C    0  0  0  0  0  0  0  0  0  0  0  0
    0.6832   -2.9325    0.0000 C    0  0  0  0  0  0  0  0  0  0  0  0
    2.0496   -2.9325    0.0000 C    0  0  0  0  0  0  0  0  0  0  0  0
    2.7433   -4.1203    0.0000 C    0  0  0  0  0  0  0  0  0  0  0  0
    4.1203   -4.1203    0.0000 C    0  0  0  0  0  0  0  0  0  0  0  0
    4.1203   -5.4972    0.0000 O    0  0  0  0  0  0  0  0  0  0  0  0
    5.5077   -4.1203    0.0000 C    0  0  0  0  0  0  0  0  0  0  0  0
    6.1909   -5.2975    0.0000 O    0  0  0  0  0  0  0  0  0  0  0  0
    6.1909   -2.9325    0.0000 O    0  0  0  0  0  0  0  0  0  0  0  0
    4.1203   -2.7538    0.0000 C    0  0  0  0  0  0  0  0  0  0  0  0
    2.9325   -2.0706    0.0000 C    0  0  0  0  0  0  0  0  0  0  0  0
    2.9325   -0.6832    0.0000 C    0  0  0  0  0  0  0  0  0  0  0  0
    4.1203    0.0000    0.0000 C    0  0  0  0  0  0  0  0  0  0  0  0
    5.3290   -0.6832    0.0000 C    0  0  0  0  0  0  0  0  0  0  0  0
    5.3290   -2.0706    0.0000 C    0  0  0  0  0  0  0  0  0  0  0  0
    2.0496   -5.2975    0.0000 C    0  0  0  0  0  0  0  0  0  0  0  0
    0.6832   -5.2975    0.0000 C    0  0  0  0  0  0  0  0  0  0  0  0
    8.8922   -2.2703    0.0000 C    0  0  0  0  0  0  0  0  0  0  0  0
   10.0799   -2.9430    0.0000 C    0  0  0  0  0  0  0  0  0  0  0  0
    8.8922   -0.8934    0.0000 C    0  0  0  0  0  0  0  0  0  0  0  0
    7.6939   -2.9430    0.0000 C    0  0  0  0  0  0  0  0  0  0  0  0
    9.3231   -3.0481    0.0000 N    0  3  0  0  0  0  0  0  0  0  0  0
   10.5109   -3.7419    0.0000 C    0  0  0  0  0  0  0  0  0  0  0  0
    9.3231   -1.6712    0.0000 C    0  0  0  0  0  0  0  0  0  0  0  0
    8.1249   -3.7419    0.0000 C    0  0  0  0  0  0  0  0  0  0  0  0
    8.8081   -4.3200    0.0000 C    0  0  0  0  0  0  0  0  0  0  0  0
  2  3  2  0  0  0  0
  2 18  1  0  0  0  0
  3  4  1  0  0  0  0
  4  5  2  0  0  0  0
  5  6  1  0  0  0  0
  5 17  1  0  0  0  0
  6  7  1  0  0  0  0
  6  8  1  0  0  0  0
  6 11  1  0  0  0  0
  8  9  2  0  0  0  0
  8 10  1  0  0  0  0
 10 22  1  0  0  0  0
 11 12  2  0  0  0  0
 11 16  1  0  0  0  0
 12 13  1  0  0  0  0
 13 14  2  0  0  0  0
 14 15  1  0  0  0  0
 15 16  2  0  0  0  0
 17 18  2  0  0  0  0
 19 20  1  0  0  0  0
 19 21  1  0  0  0  0
 19 22  1  0  0  0  0
 20 24  1  0  0  0  0
 21 25  1  0  0  0  0
 22 26  1  0  0  0  0
 23 24  1  0  0  0  0
 23 25  1  0  0  0  0
 23 26  1  0  0  0  0
 23 27  1  0  0  0  0
M  END
> <ID>
2562

> <Formula>
C22H26BrNO3

> <FW>
432.3507 (79.9045+352.4462)

> <DSSTox_CID>
2835

> <DSSTox_RID>
76750

> <DSSTox_GSID>
22835

> <DSSTox_FileID_Sort>
1434

> <TS_ChemName>
Clidinium bromide

> <TS_ChemName_Synonyms>


> <TS_CASRN>
3485-62-9

> <CASRN_ChemName_Relationship>
primary

> <TS_Description>
single chemical compound

> <ChemNote>
ammonium; parent [7020-55-5]

> <STRUCTURE_Shown>
tested chemical

> <STRUCTURE_Formula>
C22H26BrNO3

> <STRUCTURE_MW>
432.3507

> <STRUCTURE_ChemType>
defined organic

> <STRUCTURE_DefinedOrganicForm>
salt

> <STRUCTURE_IUPAC>
3-{[hydroxy(diphenyl)acetyl]oxy}-1-methyl-1-azoniabicyclo[2.2.2]octane bromide

> <STRUCTURE_SMILES>
[Br-].OC(c1ccccc1)(c2ccccc2)C(=O)OC4C[N+]3(C)CCC4CC3

> <STRUCTURE_SMILES_Desalt>
OC(c1ccccc1)(c2ccccc2)C(=O)OC4C[N+]3(C)CCC4CC3

> <Substance_modify_yyyymmdd>
20080429

$$$$
