3485-14-1
ChemmineR-0914142331XD

 25 27  0  0  1  0  0  0  0  0  1 V2000
    6.8963   -4.2577    0.0000 N   0  0  0  0  0  0  0  0  0  0  0  0
    6.8963   -2.8784    0.0000 C   0  0  0  0  0  0  0  0  0  0  0  0
    5.5270   -4.2577    0.0000 C   0  0  0  0  0  0  0  0  0  0  0  0
    5.5270   -2.8784    0.0000 C   0  0  0  0  0  0  0  0  0  0  0  0
    8.1656   -4.6775    0.0000 C   0  0  0  0  0  0  0  0  0  0  0  0
    8.1656   -2.4887    0.0000 S   0  0  0  0  0  0  0  0  0  0  0  0
    8.9652   -3.5681    0.0000 C   0  0  0  0  0  0  0  0  0  0  0  0
    4.6075   -2.2188    0.0000 N   0  0  0  0  0  0  0  0  0  0  0  0
    3.3782   -2.2188    0.0000 C   0  0  0  0  0  0  0  0  0  0  0  0
    8.6453   -5.9868    0.0000 C   0  0  0  0  0  0  0  0  0  0  0  0
    2.6486   -1.1594    0.0000 C   0  0  0  0  0  0  0  0  0  0  0  0
    4.5675   -5.2172    0.0000 O   0  0  0  0  0  0  0  0  0  0  0  0
    2.7285   -3.3882    0.0000 O   0  0  0  0  0  0  0  0  0  0  0  0
    9.9946   -6.2466    0.0000 O   0  0  0  0  0  0  0  0  0  0  0  0
    3.4681   -0.0800    0.0000 N   0  0  0  0  0  0  0  0  0  0  0  0
    7.7458   -7.0362    0.0000 O   0  0  0  0  0  0  0  0  0  0  0  0
    9.4449   -2.2788    0.0000 C   0  0  0  0  0  0  0  0  0  0  0  0
    9.9946   -4.4376    0.0000 C   0  0  0  0  0  0  0  0  0  0  0  0
    1.9589   -2.2988    0.0000 C   0  0  0  0  0  0  0  0  0  0  0  0
    1.9889   -0.0100    0.0000 C   0  0  0  0  0  0  0  0  0  0  0  0
    0.6796   -2.2988    0.0000 C   0  0  0  0  0  0  0  0  0  0  0  0
    0.6796    0.0000    0.0000 C   0  0  0  0  0  0  0  0  0  0  0  0
    0.0000   -1.1594    0.0000 C   0  0  0  0  0  0  0  0  0  0  0  0
    6.9263   -1.5592    0.0000 H   0  0  0  0  0  0  0  0  0  0  0  0
    5.5770   -1.6491    0.0000 H   0  0  0  0  0  0  0  0  0  0  0  0
  1  2  1  0  0  0  0
  1  3  1  0  0  0  0
  1  5  1  0  0  0  0
  2  6  1  0  0  0  0
  2 24  1  6  0  0  0
  2  4  1  0  0  0  0
  3  4  1  0  0  0  0
  3 12  2  0  0  0  0
  4  8  1  1  0  0  0
  4 25  1  6  0  0  0
  5  7  1  0  0  0  0
  5 10  1  6  0  0  0
  6  7  1  0  0  0  0
  7 17  1  0  0  0  0
  7 18  1  0  0  0  0
  8  9  1  0  0  0  0
  9 11  1  0  0  0  0
  9 13  2  0  0  0  0
 10 14  2  0  0  0  0
 10 16  1  0  0  0  0
 11 15  1  0  0  0  0
 11 19  1  0  0  0  0
 11 20  1  0  0  0  0
 19 21  1  0  0  0  0
 20 22  1  0  0  0  0
 21 23  1  0  0  0  0
 22 23  1  0  0  0  0
M  END
> <ID>
2585

> <Formula>
C15H23N3O4S

> <FW>
341.4258

> <DSSTox_CID>
2861

> <DSSTox_RID>
76762

> <DSSTox_GSID>
22861

> <DSSTox_FileID_Sort>
1446

> <TS_ChemName>
Cyclacillin

> <TS_ChemName_Synonyms>


> <TS_CASRN>
3485-14-1

> <CASRN_ChemName_Relationship>
primary

> <TS_Description>
single chemical compound

> <ChemNote>
stereochem

> <STRUCTURE_Shown>
tested chemical

> <STRUCTURE_Formula>
C15H23N3O4S

> <STRUCTURE_MW>
341.4258

> <STRUCTURE_ChemType>
defined organic

> <STRUCTURE_DefinedOrganicForm>
parent

> <STRUCTURE_IUPAC>
(2S,5R,6R)-6-{[(1-aminocyclohexyl)carbonyl]amino}-3,3-dimethyl-7-oxo-4-thia-1-azabicyclo[3.2.0]heptane-2-carboxylic acid

> <STRUCTURE_SMILES>
OC(=O)[C@@H]2N3C(=O)[C@@H](NC(=O)C1(N)CCCCC1)[C@H]3SC2(C)C

> <STRUCTURE_SMILES_Desalt>
OC(=O)[C@@H]2N3C(=O)[C@@H](NC(=O)C1(N)CCCCC1)[C@H]3SC2(C)C

> <Substance_modify_yyyymmdd>
20080429

$$$$
