3520-42-1
ChemmineR-0914142331XD

 41 43  0  0  0  0  0  0  0  0  2 V2000
   10.3564   -5.9791    0.0000 O    0  5  0  0  0  0  0  0  0  0  0  0
    8.5336   -6.4762    0.0000 O    0  0  0  0  0  0  0  0  0  0  0  0
    9.2102   -5.3301    0.0000 S    0  0  0  0  0  0  0  0  0  0  0  0
   12.6624  -11.2953    0.0000 C    0  0  0  0  0  0  0  0  0  0  0  0
   11.5025  -10.6325    0.0000 C    0  0  0  0  0  0  0  0  0  0  0  0
   13.8085   -9.3069    0.0000 C    0  0  0  0  0  0  0  0  0  0  0  0
    1.1461  -11.2953    0.0000 C    0  0  0  0  0  0  0  0  0  0  0  0
    2.3060  -10.6325    0.0000 C    0  0  0  0  0  0  0  0  0  0  0  0
    2.3060   -9.3069    0.0000 N    0  0  0  0  0  0  0  0  0  0  0  0
   11.5025   -9.3069    0.0000 N    0  0  0  0  0  0  0  0  0  0  0  0
   10.3564   -7.3185    0.0000 C    0  0  0  0  0  0  0  0  0  0  0  0
   10.3564   -8.6303    0.0000 C    0  0  0  0  0  0  0  0  0  0  0  0
    9.2102   -6.6419    0.0000 C    0  0  0  0  0  0  0  0  0  0  0  0
    9.2102   -9.3069    0.0000 C    0  0  0  0  0  0  0  0  0  0  0  0
    8.0503   -7.3185    0.0000 C    0  0  0  0  0  0  0  0  0  0  0  0
    8.0503   -8.6303    0.0000 C    0  0  0  0  0  0  0  0  0  0  0  0
    5.7581   -8.6303    0.0000 C    0  0  0  0  0  0  0  0  0  0  0  0
    6.9042   -9.3069    0.0000 O    0  3  0  0  0  0  0  0  0  0  0  0
    5.7581   -7.3185    0.0000 C    0  0  0  0  0  0  0  0  0  0  0  0
    6.9042   -6.6419    0.0000 C    0  0  0  0  0  0  0  0  0  0  0  0
    3.4521   -8.6303    0.0000 C    0  0  0  0  0  0  0  0  0  0  0  0
    4.5982   -9.3069    0.0000 C    0  0  0  0  0  0  0  0  0  0  0  0
    3.4521   -7.3185    0.0000 C    0  0  0  0  0  0  0  0  0  0  0  0
    4.5982   -6.6419    0.0000 C    0  0  0  0  0  0  0  0  0  0  0  0
    8.0503   -3.3140    0.0000 C    0  0  0  0  0  0  0  0  0  0  0  0
    8.0503   -4.6535    0.0000 C    0  0  0  0  0  0  0  0  0  0  0  0
    6.9042   -2.6650    0.0000 C    0  0  0  0  0  0  0  0  0  0  0  0
    6.9042   -5.3301    0.0000 C    0  0  0  0  0  0  0  0  0  0  0  0
    5.7581   -3.3140    0.0000 C    0  0  0  0  0  0  0  0  0  0  0  0
    5.7581   -4.6535    0.0000 C    0  0  0  0  0  0  0  0  0  0  0  0
   11.5025   -6.6419    0.0000 C    0  0  0  0  0  0  0  0  0  0  0  0
    2.3060   -6.6419    0.0000 C    0  0  0  0  0  0  0  0  0  0  0  0
    0.0000   -9.3069    0.0000 C    0  0  0  0  0  0  0  0  0  0  0  0
    1.1461   -8.6303    0.0000 C    0  0  0  0  0  0  0  0  0  0  0  0
   12.6624   -8.6303    0.0000 C    0  0  0  0  0  0  0  0  0  0  0  0
    6.9042   -1.3256    0.0000 S    0  0  0  0  0  0  0  0  0  0  0  0
    9.8731   -4.1702    0.0000 O    0  0  0  0  0  0  0  0  0  0  0  0
    6.9042    0.0000    0.0000 O    0  5  0  0  0  0  0  0  0  0  0  0
    5.5786   -1.3256    0.0000 O    0  0  0  0  0  0  0  0  0  0  0  0
    8.2298   -1.3256    0.0000 O    0  0  0  0  0  0  0  0  0  0  0  0
    8.8374   -0.0414    0.0000 Na   0  3  0  0  0  0  0  0  0  0  0  0
  1  3  1  0  0  0  0
  2  3  2  0  0  0  0
  3 26  1  0  0  0  0
  3 37  2  0  0  0  0
  4  5  1  0  0  0  0
  5 10  1  0  0  0  0
  6 35  1  0  0  0  0
  7  8  1  0  0  0  0
  8  9  1  0  0  0  0
  9 21  1  0  0  0  0
  9 34  1  0  0  0  0
 10 12  1  0  0  0  0
 10 35  1  0  0  0  0
 11 12  1  0  0  0  0
 11 13  2  0  0  0  0
 11 31  1  0  0  0  0
 12 14  2  0  0  0  0
 13 15  1  0  0  0  0
 14 16  1  0  0  0  0
 15 16  2  0  0  0  0
 15 20  1  0  0  0  0
 16 18  1  0  0  0  0
 17 18  2  0  0  0  0
 17 22  1  0  0  0  0
 17 19  1  0  0  0  0
 19 20  2  0  0  0  0
 19 24  1  0  0  0  0
 20 28  1  0  0  0  0
 21 22  2  0  0  0  0
 21 23  1  0  0  0  0
 23 24  2  0  0  0  0
 23 32  1  0  0  0  0
 25 26  1  0  0  0  0
 25 27  2  0  0  0  0
 26 28  2  0  0  0  0
 27 29  1  0  0  0  0
 27 36  1  0  0  0  0
 28 30  1  0  0  0  0
 29 30  2  0  0  0  0
 33 34  1  0  0  0  0
 36 38  1  0  0  0  0
 36 39  2  0  0  0  0
 36 40  2  0  0  0  0
M  END
> <ID>
1188

> <Formula>
C29H33N2NaO7S2

> <FW>
608.7013 (585.7121+22.9892)

> <DSSTox_CID>
1235

> <DSSTox_RID>
76027

> <DSSTox_GSID>
21235

> <DSSTox_FileID_Sort>
711

> <TS_ChemName>
C.I. Acid Red 52

> <TS_ChemName_Synonyms>
C.I. Acid Red 52 (Food Red 106)

> <TS_CASRN>
3520-42-1

> <CASRN_ChemName_Relationship>
primary

> <TS_Description>
single chemical compound

> <ChemNote>
parent [2609-88-3]; zwitterion

> <STRUCTURE_Shown>
tested chemical

> <STRUCTURE_Formula>
C29H33N2NaO7S2

> <STRUCTURE_MW>
608.7013

> <STRUCTURE_ChemType>
defined organic

> <STRUCTURE_DefinedOrganicForm>
salt

> <STRUCTURE_IUPAC>
sodium 4-[3,6-bis(diethylamino)-2,7-dimethylxanthenium-9-yl]benzene-1,3-disulfonate

> <STRUCTURE_SMILES>
[Na+].O=S([O-])(=O)c4cc(ccc4c1c3cc(C)c(cc3[o+]c2cc(N(CC)CC)c(C)cc12)N(CC)CC)S([O-])(=O)=O

> <STRUCTURE_SMILES_Desalt>
OS(=O)(=O)c4cc(ccc4c1c3cc(C)c(cc3[o+]c2cc(N(CC)CC)c(C)cc12)N(CC)CC)S(=O)(=O)O

> <Substance_modify_yyyymmdd>
20090420

$$$$
