3546-41-6
ChemmineR-0914142331XD

 87 96  0  0  0  0  0  0  0  0  2 V2000
   23.1014   -9.5314    0.0000 O   0  5  0  0  0  0  0  0  0  0  0  0
   21.8090   -9.7737    0.0000 C   0  0  0  0  0  0  0  0  0  0  0  0
   21.3513  -11.0122    0.0000 O   0  0  0  0  0  0  0  0  0  0  0  0
   20.9475   -8.7505    0.0000 C   0  0  0  0  0  0  0  0  0  0  0  0
   19.6551   -8.9929    0.0000 C   0  0  0  0  0  0  0  0  0  0  0  0
   18.7935   -7.9697    0.0000 C   0  0  0  0  0  0  0  0  0  0  0  0
   17.5011   -8.2120    0.0000 C   0  0  0  0  0  0  0  0  0  0  0  0
   16.6664   -7.1889    0.0000 C   0  0  0  0  0  0  0  0  0  0  0  0
   17.0972   -5.9504    0.0000 C   0  0  0  0  0  0  0  0  0  0  0  0
   18.4165   -5.7350    0.0000 C   0  0  0  0  0  0  0  0  0  0  0  0
   19.2512   -6.7312    0.0000 C   0  0  0  0  0  0  0  0  0  0  0  0
   20.5705   -6.5158    0.0000 C   0  0  0  0  0  0  0  0  0  0  0  0
   20.8667   -4.8195    0.0000 C   0  0  0  0  0  0  0  0  0  0  0  0
   22.3475   -3.9579    0.0000 C   0  0  0  0  0  0  0  0  0  0  0  0
   22.3475   -2.6386    0.0000 C   0  0  0  0  0  0  0  0  0  0  0  0
   21.1898   -1.9655    0.0000 C   0  0  0  0  0  0  0  0  0  0  0  0
   21.1898   -0.6462    0.0000 C   0  0  0  0  0  0  0  0  0  0  0  0
   22.3475    0.0000    0.0000 C   0  0  0  0  0  0  0  0  0  0  0  0
   23.4784   -0.6462    0.0000 C   0  0  0  0  0  0  0  0  0  0  0  0
   23.4784   -1.9655    0.0000 C   0  0  0  0  0  0  0  0  0  0  0  0
   24.6362   -2.6386    0.0000 C   0  0  0  0  0  0  0  0  0  0  0  0
   24.6362   -3.9579    0.0000 C   0  0  0  0  0  0  0  0  0  0  0  0
   25.7670   -4.6041    0.0000 C   0  0  0  0  0  0  0  0  0  0  0  0
   26.9248   -3.9579    0.0000 O   0  5  0  0  0  0  0  0  0  0  0  0
   25.7670   -5.9234    0.0000 O   0  0  0  0  0  0  0  0  0  0  0  0
   23.4784   -4.6041    0.0000 C   0  0  0  0  0  0  0  0  0  0  0  0
   23.7207   -5.9234    0.0000 O   0  0  0  0  0  0  0  0  0  0  0  0
   21.4052   -7.5120    0.0000 C   0  0  0  0  0  0  0  0  0  0  0  0
   22.7245   -7.5120    0.0000 O   0  0  0  0  0  0  0  0  0  0  0  0
    0.0000   -7.2158    0.0000 C   0  0  0  0  0  0  0  0  0  0  0  0
    0.6731   -6.0850    0.0000 N   0  0  0  0  0  0  0  0  0  0  0  0
    0.0000   -4.9272    0.0000 C   0  0  0  0  0  0  0  0  0  0  0  0
    1.9924   -6.0850    0.0000 C   0  0  0  0  0  0  0  0  0  0  0  0
    2.6386   -4.9272    0.0000 C   0  0  0  0  0  0  0  0  0  0  0  0
    3.9579   -4.9272    0.0000 C   0  0  0  0  0  0  0  0  0  0  0  0
    4.6311   -6.0850    0.0000 C   0  0  0  0  0  0  0  0  0  0  0  0
    5.9504   -6.0850    0.0000 N   0  3  0  0  0  0  0  0  0  0  0  0
    6.5966   -4.9272    0.0000 C   0  0  0  0  0  0  0  0  0  0  0  0
    6.5966   -7.2158    0.0000 C   0  0  0  0  0  0  0  0  0  0  0  0
    5.9504   -8.3736    0.0000 C   0  0  0  0  0  0  0  0  0  0  0  0
    4.6311   -8.3736    0.0000 C   0  0  0  0  0  0  0  0  0  0  0  0
    3.9579   -7.2158    0.0000 C   0  0  0  0  0  0  0  0  0  0  0  0
    2.6386   -7.2158    0.0000 C   0  0  0  0  0  0  0  0  0  0  0  0
    7.9428   -7.2158    0.0000 C   0  0  0  0  0  0  0  0  0  0  0  0
    8.5890   -6.0850    0.0000 C   0  0  0  0  0  0  0  0  0  0  0  0
    9.9083   -6.0850    0.0000 C   0  0  0  0  0  0  0  0  0  0  0  0
   10.6891   -7.1620    0.0000 C   0  0  0  0  0  0  0  0  0  0  0  0
   11.9546   -6.7312    0.0000 C   0  0  0  0  0  0  0  0  0  0  0  0
   13.0047   -7.5120    0.0000 C   0  0  0  0  0  0  0  0  0  0  0  0
   11.9546   -5.4119    0.0000 N   0  0  0  0  0  0  0  0  0  0  0  0
   13.0047   -4.6311    0.0000 C   0  0  0  0  0  0  0  0  0  0  0  0
   14.2163   -5.1696    0.0000 C   0  0  0  0  0  0  0  0  0  0  0  0
   15.2933   -4.4157    0.0000 C   0  0  0  0  0  0  0  0  0  0  0  0
   15.1586   -3.0963    0.0000 C   0  0  0  0  0  0  0  0  0  0  0  0
   13.9470   -2.5579    0.0000 C   0  0  0  0  0  0  0  0  0  0  0  0
   12.8700   -3.3387    0.0000 C   0  0  0  0  0  0  0  0  0  0  0  0
   10.6891   -5.0080    0.0000 C   0  0  0  0  0  0  0  0  0  0  0  0
   10.2853   -3.7425    0.0000 C   0  0  0  0  0  0  0  0  0  0  0  0
    0.0000  -14.3509    0.0000 C   0  0  0  0  0  0  0  0  0  0  0  0
    0.6731  -13.2201    0.0000 N   0  0  0  0  0  0  0  0  0  0  0  0
    0.0000  -12.0623    0.0000 C   0  0  0  0  0  0  0  0  0  0  0  0
    1.9924  -13.2201    0.0000 C   0  0  0  0  0  0  0  0  0  0  0  0
    2.6386  -12.0623    0.0000 C   0  0  0  0  0  0  0  0  0  0  0  0
    3.9579  -12.0623    0.0000 C   0  0  0  0  0  0  0  0  0  0  0  0
    4.6311  -13.2201    0.0000 C   0  0  0  0  0  0  0  0  0  0  0  0
    5.9504  -13.2201    0.0000 N   0  3  0  0  0  0  0  0  0  0  0  0
    6.5966  -12.0623    0.0000 C   0  0  0  0  0  0  0  0  0  0  0  0
    6.5966  -14.3509    0.0000 C   0  0  0  0  0  0  0  0  0  0  0  0
    5.9504  -15.5087    0.0000 C   0  0  0  0  0  0  0  0  0  0  0  0
    4.6311  -15.5087    0.0000 C   0  0  0  0  0  0  0  0  0  0  0  0
    3.9579  -14.3509    0.0000 C   0  0  0  0  0  0  0  0  0  0  0  0
    2.6386  -14.3509    0.0000 C   0  0  0  0  0  0  0  0  0  0  0  0
    7.9428  -14.3509    0.0000 C   0  0  0  0  0  0  0  0  0  0  0  0
    8.5890  -13.2201    0.0000 C   0  0  0  0  0  0  0  0  0  0  0  0
    9.9083  -13.2201    0.0000 C   0  0  0  0  0  0  0  0  0  0  0  0
   10.6891  -14.2970    0.0000 C   0  0  0  0  0  0  0  0  0  0  0  0
   11.9546  -13.8932    0.0000 C   0  0  0  0  0  0  0  0  0  0  0  0
   13.0047  -14.6471    0.0000 C   0  0  0  0  0  0  0  0  0  0  0  0
   11.9546  -12.5469    0.0000 N   0  0  0  0  0  0  0  0  0  0  0  0
   13.0047  -11.7930    0.0000 C   0  0  0  0  0  0  0  0  0  0  0  0
   14.2163  -12.3315    0.0000 C   0  0  0  0  0  0  0  0  0  0  0  0
   15.2933  -11.5507    0.0000 C   0  0  0  0  0  0  0  0  0  0  0  0
   15.1586  -10.2314    0.0000 C   0  0  0  0  0  0  0  0  0  0  0  0
   13.9470   -9.6929    0.0000 C   0  0  0  0  0  0  0  0  0  0  0  0
   12.8700  -10.4737    0.0000 C   0  0  0  0  0  0  0  0  0  0  0  0
   10.6891  -12.1431    0.0000 C   0  0  0  0  0  0  0  0  0  0  0  0
   10.2853  -10.9045    0.0000 C   0  0  0  0  0  0  0  0  0  0  0  0
  1  2  1  0  0  0  0
  2  3  2  0  0  0  0
  2  4  1  0  0  0  0
  4  5  2  0  0  0  0
  4 28  1  0  0  0  0
  5  6  1  0  0  0  0
  6  7  2  0  0  0  0
  6 11  1  0  0  0  0
  7  8  1  0  0  0  0
  8  9  2  0  0  0  0
  9 10  1  0  0  0  0
 10 11  2  0  0  0  0
 11 12  1  0  0  0  0
 12 13  1  0  0  0  0
 12 28  2  0  0  0  0
 13 14  1  0  0  0  0
 14 15  2  0  0  0  0
 14 26  1  0  0  0  0
 15 16  1  0  0  0  0
 15 20  1  0  0  0  0
 16 17  2  0  0  0  0
 17 18  1  0  0  0  0
 18 19  2  0  0  0  0
 19 20  1  0  0  0  0
 20 21  2  0  0  0  0
 21 22  1  0  0  0  0
 22 23  1  0  0  0  0
 22 26  2  0  0  0  0
 23 24  1  0  0  0  0
 23 25  2  0  0  0  0
 26 27  1  0  0  0  0
 28 29  1  0  0  0  0
 30 31  1  0  0  0  0
 31 32  1  0  0  0  0
 31 33  1  0  0  0  0
 33 34  2  0  0  0  0
 33 43  1  0  0  0  0
 34 35  1  0  0  0  0
 35 36  2  0  0  0  0
 36 37  1  0  0  0  0
 36 42  1  0  0  0  0
 37 38  1  0  0  0  0
 37 39  2  0  0  0  0
 39 40  1  0  0  0  0
 39 44  1  0  0  0  0
 40 41  2  0  0  0  0
 41 42  1  0  0  0  0
 42 43  2  0  0  0  0
 44 45  2  0  0  0  0
 45 46  1  0  0  0  0
 46 47  1  0  0  0  0
 46 57  2  0  0  0  0
 47 48  2  0  0  0  0
 48 49  1  0  0  0  0
 48 50  1  0  0  0  0
 50 51  1  0  0  0  0
 50 57  1  0  0  0  0
 51 52  2  0  0  0  0
 51 56  1  0  0  0  0
 52 53  1  0  0  0  0
 53 54  2  0  0  0  0
 54 55  1  0  0  0  0
 55 56  2  0  0  0  0
 57 58  1  0  0  0  0
 59 60  1  0  0  0  0
 60 61  1  0  0  0  0
 60 62  1  0  0  0  0
 62 63  2  0  0  0  0
 62 72  1  0  0  0  0
 63 64  1  0  0  0  0
 64 65  2  0  0  0  0
 65 66  1  0  0  0  0
 65 71  1  0  0  0  0
 66 67  1  0  0  0  0
 66 68  2  0  0  0  0
 68 69  1  0  0  0  0
 68 73  1  0  0  0  0
 69 70  2  0  0  0  0
 70 71  1  0  0  0  0
 71 72  2  0  0  0  0
 73 74  2  0  0  0  0
 74 75  1  0  0  0  0
 75 76  1  0  0  0  0
 75 86  2  0  0  0  0
 76 77  2  0  0  0  0
 77 78  1  0  0  0  0
 77 79  1  0  0  0  0
 79 80  1  0  0  0  0
 79 86  1  0  0  0  0
 80 81  2  0  0  0  0
 80 85  1  0  0  0  0
 81 82  1  0  0  0  0
 82 83  2  0  0  0  0
 83 84  1  0  0  0  0
 84 85  2  0  0  0  0
 86 87  1  0  0  0  0
M  END
> <ID>
3172

> <Formula>
C75H70N6O6

> <FW>
1151.3949 (386.3548+382.5201+382.5201)

> <DSSTox_CID>
3545

> <DSSTox_RID>
77072

> <DSSTox_GSID>
23545

> <DSSTox_FileID_Sort>
1755

> <TS_ChemName>
Pyrvinium pamoate

> <TS_ChemName_Synonyms>


> <TS_CASRN>
3546-41-6

> <CASRN_ChemName_Relationship>
primary

> <TS_Description>
single chemical compound

> <ChemNote>
ammonium; stereochem; parent [7187-62-4]

> <STRUCTURE_Shown>
tested chemical

> <STRUCTURE_Formula>
C75H70N6O6

> <STRUCTURE_MW>
1151.3949

> <STRUCTURE_ChemType>
defined organic

> <STRUCTURE_DefinedOrganicForm>
complex

> <STRUCTURE_IUPAC>
bis{6-(dimethylamino)-2-[(E)-2-(2,5-dimethyl-1-phenyl-1H-pyrrol-3-yl)ethenyl]-1-methylquinolinium} 4,4'-methanediylbis(3-hydroxynaphthalene-2-carboxylate)

> <STRUCTURE_SMILES>
[O-]C(=O)c4cc1ccccc1c(Cc2c3ccccc3cc(C([O-])=O)c2O)c4O.CN(C)c1ccc2[n+](C)c(ccc2c1)/C=C/c4cc(C)n(c3ccccc3)c4C.CN(C)c1ccc2[n+](C)c(ccc2c1)/C=C/c4cc(C)n(c3ccccc3)c4C

> <STRUCTURE_SMILES_Desalt>
CN(C)c1ccc2[n+](C)c(ccc2c1)/C=C/c4cc(C)n(c3ccccc3)c4C

> <Substance_modify_yyyymmdd>
20080429

$$$$
