35607-66-0
ChemmineR-0914142331XD

 29 31  0  0  1  0  0  0  0  0  1 V2000
    5.7311   -4.4172    0.0000 C   0  0  0  0  0  0  0  0  0  0  0  0
    7.0591   -5.7591    0.0000 N   0  0  0  0  0  0  0  0  0  0  0  0
    5.7311   -5.7591    0.0000 C   0  0  0  0  0  0  0  0  0  0  0  0
    7.0591   -4.4172    0.0000 C   0  0  0  0  0  0  0  0  0  0  0  0
    8.2193   -6.4301    0.0000 C   0  0  0  0  0  0  0  0  0  0  0  0
    8.2193   -3.7742    0.0000 S   0  0  0  0  0  0  0  0  0  0  0  0
    4.4032   -4.4172    0.0000 N   0  0  0  0  0  0  0  0  0  0  0  0
    9.3655   -5.7591    0.0000 C   0  0  0  0  0  0  0  0  0  0  0  0
    3.7462   -3.2849    0.0000 C   0  0  0  0  0  0  0  0  0  0  0  0
    8.2193   -7.7580    0.0000 C   0  0  0  0  0  0  0  0  0  0  0  0
   12.8322   -6.4301    0.0000 C   0  0  0  0  0  0  0  0  0  0  0  0
    2.4183   -3.2849    0.0000 C   0  0  0  0  0  0  0  0  0  0  0  0
    1.7473   -2.0688    0.0000 C   0  0  0  0  0  0  0  0  0  0  0  0
    9.3655   -4.4172    0.0000 C   0  0  0  0  0  0  0  0  0  0  0  0
    4.7946   -6.6957    0.0000 O   0  0  0  0  0  0  0  0  0  0  0  0
    0.4054   -2.0688    0.0000 S   0  0  0  0  0  0  0  0  0  0  0  0
    5.7172   -3.0892    0.0000 O   0  0  0  0  0  0  0  0  0  0  0  0
   10.5257   -6.4301    0.0000 C   0  0  0  0  0  0  0  0  0  0  0  0
   11.6720   -5.7591    0.0000 O   0  0  0  0  0  0  0  0  0  0  0  0
    0.0000   -0.7828    0.0000 C   0  0  0  0  0  0  0  0  0  0  0  0
   12.8322   -7.7580    0.0000 O   0  0  0  0  0  0  0  0  0  0  0  0
    9.3655   -8.4150    0.0000 O   0  0  0  0  0  0  0  0  0  0  0  0
    4.4032   -2.1247    0.0000 O   0  0  0  0  0  0  0  0  0  0  0  0
    2.1527   -0.7828    0.0000 C   0  0  0  0  0  0  0  0  0  0  0  0
    1.0903    0.0000    0.0000 C   0  0  0  0  0  0  0  0  0  0  0  0
   13.9784   -5.7591    0.0000 N   0  0  0  0  0  0  0  0  0  0  0  0
    7.0591   -8.4150    0.0000 O   0  0  0  0  0  0  0  0  0  0  0  0
    6.8634   -2.4043    0.0000 C   0  0  0  0  0  0  0  0  0  0  0  0
    7.0870   -3.2011    0.0000 H   0  0  0  0  0  0  0  0  0  0  0  0
  1  3  1  0  0  0  0
  1  4  1  0  0  0  0
  1  7  1  1  0  0  0
  1 17  1  6  0  0  0
  2  4  1  0  0  0  0
  2  5  1  0  0  0  0
  2  3  1  0  0  0  0
  3 15  2  0  0  0  0
  4  6  1  0  0  0  0
  4 29  1  6  0  0  0
  5 10  1  0  0  0  0
  5  8  2  0  0  0  0
  6 14  1  0  0  0  0
  7  9  1  0  0  0  0
  8 14  1  0  0  0  0
  8 18  1  0  0  0  0
  9 12  1  0  0  0  0
  9 23  2  0  0  0  0
 10 22  2  0  0  0  0
 10 27  1  0  0  0  0
 11 19  1  0  0  0  0
 11 21  2  0  0  0  0
 11 26  1  0  0  0  0
 12 13  1  0  0  0  0
 13 16  1  0  0  0  0
 13 24  2  0  0  0  0
 16 20  1  0  0  0  0
 17 28  1  0  0  0  0
 18 19  1  0  0  0  0
 20 25  2  0  0  0  0
 24 25  1  0  0  0  0
M  END
> <ID>
2503

> <Formula>
C16H17N3O7S2

> <FW>
427.4521

> <DSSTox_CID>
2764

> <DSSTox_RID>
76721

> <DSSTox_GSID>
22764

> <DSSTox_FileID_Sort>
1405

> <TS_ChemName>
Cefoxitin

> <TS_ChemName_Synonyms>


> <TS_CASRN>
35607-66-0

> <CASRN_ChemName_Relationship>
primary

> <TS_Description>
single chemical compound

> <ChemNote>
stereochem

> <STRUCTURE_Shown>
tested chemical

> <STRUCTURE_Formula>
C16H17N3O7S2

> <STRUCTURE_MW>
427.4521

> <STRUCTURE_ChemType>
defined organic

> <STRUCTURE_DefinedOrganicForm>
parent

> <STRUCTURE_IUPAC>
(6R,7S)-3-[(carbamoyloxy)methyl]-7-methoxy-8-oxo-7-[(thiophen-2-ylacetyl)amino]-5-thia-1-azabicyclo[4.2.0]oct-2-ene-2-carboxylic acid

> <STRUCTURE_SMILES>
O=C(O)C=2N3C(=O)[C@](NC(=O)Cc1cccs1)(OC)[C@H]3SCC=2COC(N)=O

> <STRUCTURE_SMILES_Desalt>
O=C(O)C=2N3C(=O)[C@](NC(=O)Cc1cccs1)(OC)[C@H]3SCC=2COC(N)=O

> <Substance_modify_yyyymmdd>
20080429

$$$$
