3562-84-3
ChemmineR-0914142331XD

 22 24  0  0  0  0  0  0  0  0  1 V2000
    7.9175   -6.2563    0.0000 C    0  0  0  0  0  0  0  0  0  0  0  0
    6.6365   -6.5952    0.0000 C    0  0  0  0  0  0  0  0  0  0  0  0
    5.6943   -5.6530    0.0000 C    0  0  0  0  0  0  0  0  0  0  0  0
    6.0414   -4.3720    0.0000 C    0  0  0  0  0  0  0  0  0  0  0  0
    7.3225   -4.0249    0.0000 C    0  0  0  0  0  0  0  0  0  0  0  0
    8.2646   -4.9670    0.0000 C    0  0  0  0  0  0  0  0  0  0  0  0
    7.3968   -2.7025    0.0000 O    0  0  0  0  0  0  0  0  0  0  0  0
    6.1489   -2.2232    0.0000 C    0  0  0  0  0  0  0  0  0  0  0  0
    5.8100   -0.9422    0.0000 C    0  0  0  0  0  0  0  0  0  0  0  0
    6.7522    0.0000    0.0000 C    0  0  0  0  0  0  0  0  0  0  0  0
    5.3142   -3.2563    0.0000 C    0  0  0  0  0  0  0  0  0  0  0  0
    3.9918   -3.1901    0.0000 C    0  0  0  0  0  0  0  0  0  0  0  0
    3.3224   -2.0331    0.0000 O    0  0  0  0  0  0  0  0  0  0  0  0
    3.3224   -4.3389    0.0000 C    0  0  0  0  0  0  0  0  0  0  0  0
    3.9918   -5.4877    0.0000 C    0  0  0  0  0  0  0  0  0  0  0  0
    3.3224   -6.6448    0.0000 C    0  0  0  0  0  0  0  0  0  0  0  0
    3.9918   -7.7935    0.0000 Br   0  0  0  0  0  0  0  0  0  0  0  0
    1.9918   -6.6448    0.0000 C    0  0  0  0  0  0  0  0  0  0  0  0
    1.3306   -7.7935    0.0000 O    0  0  0  0  0  0  0  0  0  0  0  0
    1.3306   -5.4877    0.0000 C    0  0  0  0  0  0  0  0  0  0  0  0
    0.0000   -5.4877    0.0000 Br   0  0  0  0  0  0  0  0  0  0  0  0
    1.9918   -4.3389    0.0000 C    0  0  0  0  0  0  0  0  0  0  0  0
  1  2  2  0  0  0  0
  1  6  1  0  0  0  0
  2  3  1  0  0  0  0
  3  4  2  0  0  0  0
  4  5  1  0  0  0  0
  4 11  1  0  0  0  0
  5  6  2  0  0  0  0
  5  7  1  0  0  0  0
  7  8  1  0  0  0  0
  8  9  1  0  0  0  0
  8 11  2  0  0  0  0
  9 10  1  0  0  0  0
 11 12  1  0  0  0  0
 12 13  2  0  0  0  0
 12 14  1  0  0  0  0
 14 15  2  0  0  0  0
 14 22  1  0  0  0  0
 15 16  1  0  0  0  0
 16 17  1  0  0  0  0
 16 18  2  0  0  0  0
 18 19  1  0  0  0  0
 18 20  1  0  0  0  0
 20 21  1  0  0  0  0
 20 22  2  0  0  0  0
M  END
> <ID>
2401

> <Formula>
C17H12Br2O3

> <FW>
424.0834

> <DSSTox_CID>
2652

> <DSSTox_RID>
76675

> <DSSTox_GSID>
22652

> <DSSTox_FileID_Sort>
1359

> <TS_ChemName>
Benzbromarone

> <TS_ChemName_Synonyms>


> <TS_CASRN>
3562-84-3

> <CASRN_ChemName_Relationship>
primary

> <TS_Description>
single chemical compound

> <ChemNote>


> <STRUCTURE_Shown>
tested chemical

> <STRUCTURE_Formula>
C17H12Br2O3

> <STRUCTURE_MW>
424.0834

> <STRUCTURE_ChemType>
defined organic

> <STRUCTURE_DefinedOrganicForm>
parent

> <STRUCTURE_IUPAC>
(3,5-dibromo-4-hydroxyphenyl)(2-ethyl-1-benzofuran-3-yl)methanone

> <STRUCTURE_SMILES>
Brc1cc(cc(Br)c1O)C(=O)c2c3ccccc3oc2CC

> <STRUCTURE_SMILES_Desalt>
Brc1cc(cc(Br)c1O)C(=O)c2c3ccccc3oc2CC

> <Substance_modify_yyyymmdd>
20080429

$$$$
