360-70-3
ChemmineR-0914142331XD

 35 38  0  0  1  0  0  0  0  0  1 V2000
   10.0849   -3.7091    0.0000 C   0  0  0  0  0  0  0  0  0  0  0  0
   10.0849   -5.0425    0.0000 C   0  0  0  0  0  0  0  0  0  0  0  0
    6.6182   -7.0425    0.0000 C   0  0  0  0  0  0  0  0  0  0  0  0
    8.9091   -5.7091    0.0000 C   0  0  0  0  0  0  0  0  0  0  0  0
    7.7576   -5.0425    0.0000 C   0  0  0  0  0  0  0  0  0  0  0  0
    6.6182   -5.7091    0.0000 C   0  0  0  0  0  0  0  0  0  0  0  0
   11.4061   -3.2970    0.0000 C   0  0  0  0  0  0  0  0  0  0  0  0
    5.4909   -7.7091    0.0000 C   0  0  0  0  0  0  0  0  0  0  0  0
    8.9091   -3.0182    0.0000 C   0  0  0  0  0  0  0  0  0  0  0  0
    7.7576   -3.7091    0.0000 C   0  0  0  0  0  0  0  0  0  0  0  0
    8.9091   -7.0425    0.0000 C   0  0  0  0  0  0  0  0  0  0  0  0
   11.4061   -5.4425    0.0000 C   0  0  0  0  0  0  0  0  0  0  0  0
   11.4061   -1.9636    0.0000 O   0  0  0  0  0  0  0  0  0  0  0  0
    5.4909   -5.0425    0.0000 C   0  0  0  0  0  0  0  0  0  0  0  0
   10.2546   -1.3091    0.0000 C   0  0  0  0  0  0  0  0  0  0  0  0
    7.7576   -7.7091    0.0000 C   0  0  0  0  0  0  0  0  0  0  0  0
    4.3152   -7.0425    0.0000 C   0  0  0  0  0  0  0  0  0  0  0  0
   12.1213   -4.3637    0.0000 C   0  0  0  0  0  0  0  0  0  0  0  0
   10.2546    0.0000    0.0000 O   0  0  0  0  0  0  0  0  0  0  0  0
    3.1394   -7.7091    0.0000 O   0  0  0  0  0  0  0  0  0  0  0  0
    4.3152   -5.7091    0.0000 C   0  0  0  0  0  0  0  0  0  0  0  0
   10.0849   -2.3394    0.0000 C   0  0  0  0  0  0  0  0  0  0  0  0
    9.1152   -1.9636    0.0000 C   0  0  0  0  0  0  0  0  0  0  0  0
    7.9637   -1.3091    0.0000 C   0  0  0  0  0  0  0  0  0  0  0  0
    1.1394   -1.3091    0.0000 C   0  0  0  0  0  0  0  0  0  0  0  0
    2.2667   -1.9636    0.0000 C   0  0  0  0  0  0  0  0  0  0  0  0
    5.6728   -1.3091    0.0000 C   0  0  0  0  0  0  0  0  0  0  0  0
    4.5697   -1.9636    0.0000 C   0  0  0  0  0  0  0  0  0  0  0  0
    3.4182   -1.3091    0.0000 C   0  0  0  0  0  0  0  0  0  0  0  0
    6.8243   -1.9636    0.0000 C   0  0  0  0  0  0  0  0  0  0  0  0
    0.0000   -1.9636    0.0000 C   0  0  0  0  0  0  0  0  0  0  0  0
    8.9091   -4.3637    0.0000 H   0  0  0  0  0  0  0  0  0  0  0  0
   10.0849   -6.3637    0.0000 H   0  0  0  0  0  0  0  0  0  0  0  0
    6.6182   -4.3637    0.0000 H   0  0  0  0  0  0  0  0  0  0  0  0
    7.7576   -6.3637    0.0000 H   0  0  0  0  0  0  0  0  0  0  0  0
  1  2  1  0  0  0  0
  1  7  1  0  0  0  0
  1  9  1  0  0  0  0
  1 22  1  1  0  0  0
  2  4  1  0  0  0  0
  2 12  1  0  0  0  0
  2 33  1  6  0  0  0
  3  6  1  0  0  0  0
  3  8  2  0  0  0  0
  3 16  1  0  0  0  0
  4 11  1  0  0  0  0
  4 32  1  1  0  0  0
  4  5  1  0  0  0  0
  5 10  1  0  0  0  0
  5  6  1  0  0  0  0
  5 35  1  6  0  0  0
  6 14  1  0  0  0  0
  6 34  1  1  0  0  0
  7 13  1  1  0  0  0
  7 18  1  0  0  0  0
  8 17  1  0  0  0  0
  9 10  1  0  0  0  0
 11 16  1  0  0  0  0
 12 18  1  0  0  0  0
 13 15  1  0  0  0  0
 14 21  1  0  0  0  0
 15 19  2  0  0  0  0
 15 23  1  0  0  0  0
 17 21  1  0  0  0  0
 17 20  2  0  0  0  0
 23 24  1  0  0  0  0
 24 30  1  0  0  0  0
 25 26  1  0  0  0  0
 25 31  1  0  0  0  0
 26 29  1  0  0  0  0
 27 30  1  0  0  0  0
 27 28  1  0  0  0  0
 28 29  1  0  0  0  0
M  END
> <ID>
3008

> <Formula>
C28H44O3

> <FW>
428.6472

> <DSSTox_CID>
3352

> <DSSTox_RID>
76988

> <DSSTox_GSID>
23352

> <DSSTox_FileID_Sort>
1672

> <TS_ChemName>
Nandrolone decanoate

> <TS_ChemName_Synonyms>


> <TS_CASRN>
360-70-3

> <CASRN_ChemName_Relationship>
primary

> <TS_Description>
single chemical compound

> <ChemNote>
stereochem

> <STRUCTURE_Shown>
tested chemical

> <STRUCTURE_Formula>
C28H44O3

> <STRUCTURE_MW>
428.6472

> <STRUCTURE_ChemType>
defined organic

> <STRUCTURE_DefinedOrganicForm>
parent

> <STRUCTURE_IUPAC>
(17beta)-3-oxoestr-4-en-17-yl decanoate

> <STRUCTURE_SMILES>
CCCCCCCCCC(=O)O[C@H]2CC[C@H]3[C@@H]4CCC1=CC(=O)CC[C@@H]1[C@H]4CC[C@]23C

> <STRUCTURE_SMILES_Desalt>
CCCCCCCCCC(=O)O[C@H]2CC[C@H]3[C@@H]4CCC1=CC(=O)CC[C@@H]1[C@H]4CC[C@]23C

> <Substance_modify_yyyymmdd>
20080429

$$$$
