36322-90-4
ChemmineR-0914142331XD

 23 25  0  0  0  0  0  0  0  0  1 V2000
    4.6610   -4.7674    0.0000 O   0  0  0  0  0  0  0  0  0  0  0  0
    3.9906   -3.6181    0.0000 C   0  0  0  0  0  0  0  0  0  0  0  0
    4.6610   -2.4582    0.0000 C   0  0  0  0  0  0  0  0  0  0  0  0
    5.9912   -2.4582    0.0000 C   0  0  0  0  0  0  0  0  0  0  0  0
    6.6510   -3.6181    0.0000 O   0  0  0  0  0  0  0  0  0  0  0  0
    6.6510   -1.3089    0.0000 N   0  0  0  0  0  0  0  0  0  0  0  0
    7.9812   -1.3089    0.0000 C   0  0  0  0  0  0  0  0  0  0  0  0
    8.6516   -0.1596    0.0000 N   0  0  0  0  0  0  0  0  0  0  0  0
    9.9711   -0.1596    0.0000 C   0  0  0  0  0  0  0  0  0  0  0  0
   10.6415   -1.3089    0.0000 C   0  0  0  0  0  0  0  0  0  0  0  0
    9.9711   -2.4582    0.0000 C   0  0  0  0  0  0  0  0  0  0  0  0
    8.6516   -2.4582    0.0000 C   0  0  0  0  0  0  0  0  0  0  0  0
    3.9906   -1.3089    0.0000 N   0  0  0  0  0  0  0  0  0  0  0  0
    2.6604   -1.3089    0.0000 S   0  0  0  0  0  0  0  0  0  0  0  0
    1.4153   -0.8513    0.0000 O   0  0  0  0  0  0  0  0  0  0  0  0
    2.8945    0.0000    0.0000 O   0  0  0  0  0  0  0  0  0  0  0  0
    1.9900   -2.4582    0.0000 C   0  0  0  0  0  0  0  0  0  0  0  0
    2.6604   -3.6181    0.0000 C   0  0  0  0  0  0  0  0  0  0  0  0
    1.9900   -4.7674    0.0000 C   0  0  0  0  0  0  0  0  0  0  0  0
    0.6598   -4.7674    0.0000 C   0  0  0  0  0  0  0  0  0  0  0  0
    0.0000   -3.6181    0.0000 C   0  0  0  0  0  0  0  0  0  0  0  0
    0.6598   -2.4582    0.0000 C   0  0  0  0  0  0  0  0  0  0  0  0
    4.6610   -0.1596    0.0000 C   0  0  0  0  0  0  0  0  0  0  0  0
  1  2  1  0  0  0  0
  2  3  2  0  0  0  0
  2 18  1  0  0  0  0
  3  4  1  0  0  0  0
  3 13  1  0  0  0  0
  4  5  2  0  0  0  0
  4  6  1  0  0  0  0
  6  7  1  0  0  0  0
  7  8  2  0  0  0  0
  7 12  1  0  0  0  0
  8  9  1  0  0  0  0
  9 10  2  0  0  0  0
 10 11  1  0  0  0  0
 11 12  2  0  0  0  0
 13 14  1  0  0  0  0
 13 23  1  0  0  0  0
 14 15  2  0  0  0  0
 14 16  2  0  0  0  0
 14 17  1  0  0  0  0
 17 18  2  0  0  0  0
 17 22  1  0  0  0  0
 18 19  1  0  0  0  0
 19 20  2  0  0  0  0
 20 21  1  0  0  0  0
 21 22  2  0  0  0  0
M  END
> <ID>
1125

> <Formula>
C15H13N3O4S

> <FW>
331.3464

> <DSSTox_CID>
1170

> <DSSTox_RID>
75990

> <DSSTox_GSID>
21170

> <DSSTox_FileID_Sort>
674

> <TS_ChemName>
Piroxicam

> <TS_ChemName_Synonyms>


> <TS_CASRN>
36322-90-4

> <CASRN_ChemName_Relationship>
primary

> <TS_Description>
single chemical compound

> <ChemNote>
tautimers

> <STRUCTURE_Shown>
tested chemical

> <STRUCTURE_Formula>
C15H13N3O4S

> <STRUCTURE_MW>
331.3464

> <STRUCTURE_ChemType>
defined organic

> <STRUCTURE_DefinedOrganicForm>
parent

> <STRUCTURE_IUPAC>
4-hydroxy-2-methyl-N-(pyridin-2-yl)-2H-1,2-benzothiazine-3-carboxamide 1,1-dioxide

> <STRUCTURE_SMILES>
OC=2c1ccccc1S(=O)(=O)N(C)C=2C(=O)Nc3ccccn3

> <STRUCTURE_SMILES_Desalt>
OC=2c1ccccc1S(=O)(=O)N(C)C=2C(=O)Nc3ccccn3

> <Substance_modify_yyyymmdd>
20080429

$$$$
