364-98-7
ChemmineR-0914142331XD

 14 15  0  0  0  0  0  0  0  0  1 V2000
    1.1547   -1.9913    0.0000 C    0  0  0  0  0  0  0  0  0  0  0  0
    0.0000   -2.6620    0.0000 Cl   0  0  0  0  0  0  0  0  0  0  0  0
    1.1547   -0.6638    0.0000 C    0  0  0  0  0  0  0  0  0  0  0  0
    2.3025    0.0000    0.0000 C    0  0  0  0  0  0  0  0  0  0  0  0
    3.4572   -0.6638    0.0000 C    0  0  0  0  0  0  0  0  0  0  0  0
    3.4572   -1.9913    0.0000 C    0  0  0  0  0  0  0  0  0  0  0  0
    2.3025   -2.6620    0.0000 C    0  0  0  0  0  0  0  0  0  0  0  0
    4.6119   -2.6620    0.0000 S    0  0  0  0  0  0  0  0  0  0  0  0
    3.7545   -3.6784    0.0000 O    0  0  0  0  0  0  0  0  0  0  0  0
    5.4624   -3.6784    0.0000 O    0  0  0  0  0  0  0  0  0  0  0  0
    5.7597   -1.9913    0.0000 N    0  0  0  0  0  0  0  0  0  0  0  0
    5.7597   -0.6638    0.0000 C    0  0  0  0  0  0  0  0  0  0  0  0
    6.9144    0.0000    0.0000 C    0  0  0  0  0  0  0  0  0  0  0  0
    4.6119    0.0000    0.0000 N    0  0  0  0  0  0  0  0  0  0  0  0
  1  2  1  0  0  0  0
  1  3  2  0  0  0  0
  1  7  1  0  0  0  0
  3  4  1  0  0  0  0
  4  5  2  0  0  0  0
  5  6  1  0  0  0  0
  5 14  1  0  0  0  0
  6  7  2  0  0  0  0
  6  8  1  0  0  0  0
  8  9  2  0  0  0  0
  8 10  2  0  0  0  0
  8 11  1  0  0  0  0
 11 12  1  0  0  0  0
 12 13  1  0  0  0  0
 12 14  2  0  0  0  0
M  END
> <ID>
2627

> <Formula>
C8H7ClN2O2S

> <FW>
230.6714

> <DSSTox_CID>
2914

> <DSSTox_RID>
76786

> <DSSTox_GSID>
22914

> <DSSTox_FileID_Sort>
1470

> <TS_ChemName>
Diazoxide

> <TS_ChemName_Synonyms>


> <TS_CASRN>
364-98-7

> <CASRN_ChemName_Relationship>
primary

> <TS_Description>
single chemical compound

> <ChemNote>


> <STRUCTURE_Shown>
tested chemical

> <STRUCTURE_Formula>
C8H7ClN2O2S

> <STRUCTURE_MW>
230.6714

> <STRUCTURE_ChemType>
defined organic

> <STRUCTURE_DefinedOrganicForm>
parent

> <STRUCTURE_IUPAC>
7-chloro-3-methyl-2H-1,2,4-benzothiadiazine 1,1-dioxide

> <STRUCTURE_SMILES>
Clc1ccc2N=C(C)NS(=O)(=O)c2c1

> <STRUCTURE_SMILES_Desalt>
Clc1ccc2N=C(C)NS(=O)(=O)c2c1

> <Substance_modify_yyyymmdd>
20080429

$$$$
