36505-84-7
ChemmineR-0914142331XD

 28 31  0  0  0  0  0  0  0  0  1 V2000
   11.9625   -1.1596    0.0000 C   0  0  0  0  0  0  0  0  0  0  0  0
   12.6377   -2.3044    0.0000 C   0  0  0  0  0  0  0  0  0  0  0  0
   11.9625   -3.4640    0.0000 C   0  0  0  0  0  0  0  0  0  0  0  0
   10.6415   -3.4640    0.0000 C   0  0  0  0  0  0  0  0  0  0  0  0
    9.9663   -4.6089    0.0000 O   0  0  0  0  0  0  0  0  0  0  0  0
    9.9663   -2.3044    0.0000 N   0  0  0  0  0  0  0  0  0  0  0  0
    8.6453   -2.3044    0.0000 C   0  0  0  0  0  0  0  0  0  0  0  0
    7.9848   -3.4640    0.0000 C   0  0  0  0  0  0  0  0  0  0  0  0
    8.6453   -4.6089    0.0000 C   0  0  0  0  0  0  0  0  0  0  0  0
    7.9848   -5.7684    0.0000 C   0  0  0  0  0  0  0  0  0  0  0  0
    6.6491   -5.7684    0.0000 N   0  0  0  0  0  0  0  0  0  0  0  0
    5.9886   -6.9133    0.0000 C   0  0  0  0  0  0  0  0  0  0  0  0
    4.6529   -6.9133    0.0000 C   0  0  0  0  0  0  0  0  0  0  0  0
    3.9924   -5.7684    0.0000 N   0  0  0  0  0  0  0  0  0  0  0  0
    2.6567   -5.7684    0.0000 C   0  0  0  0  0  0  0  0  0  0  0  0
    1.9962   -6.9133    0.0000 N   0  0  0  0  0  0  0  0  0  0  0  0
    0.6605   -6.9133    0.0000 C   0  0  0  0  0  0  0  0  0  0  0  0
    0.0000   -5.7684    0.0000 C   0  0  0  0  0  0  0  0  0  0  0  0
    0.6605   -4.6089    0.0000 C   0  0  0  0  0  0  0  0  0  0  0  0
    1.9962   -4.6089    0.0000 N   0  0  0  0  0  0  0  0  0  0  0  0
    4.6529   -4.6089    0.0000 C   0  0  0  0  0  0  0  0  0  0  0  0
    5.9886   -4.6089    0.0000 C   0  0  0  0  0  0  0  0  0  0  0  0
   10.6415   -1.1596    0.0000 C   0  0  0  0  0  0  0  0  0  0  0  0
    9.9663    0.0000    0.0000 O   0  0  0  0  0  0  0  0  0  0  0  0
   13.4156   -1.2329    0.0000 C   0  0  0  0  0  0  0  0  0  0  0  0
   14.6780   -1.6439    0.0000 C   0  0  0  0  0  0  0  0  0  0  0  0
   14.6780   -2.9649    0.0000 C   0  0  0  0  0  0  0  0  0  0  0  0
   13.4156   -3.3759    0.0000 C   0  0  0  0  0  0  0  0  0  0  0  0
  1  2  1  0  0  0  0
  1 23  1  0  0  0  0
  2  3  1  0  0  0  0
  2 25  1  0  0  0  0
  2 28  1  0  0  0  0
  3  4  1  0  0  0  0
  4  5  2  0  0  0  0
  4  6  1  0  0  0  0
  6  7  1  0  0  0  0
  6 23  1  0  0  0  0
  7  8  1  0  0  0  0
  8  9  1  0  0  0  0
  9 10  1  0  0  0  0
 10 11  1  0  0  0  0
 11 12  1  0  0  0  0
 11 22  1  0  0  0  0
 12 13  1  0  0  0  0
 13 14  1  0  0  0  0
 14 15  1  0  0  0  0
 14 21  1  0  0  0  0
 15 16  2  0  0  0  0
 15 20  1  0  0  0  0
 16 17  1  0  0  0  0
 17 18  2  0  0  0  0
 18 19  1  0  0  0  0
 19 20  2  0  0  0  0
 21 22  1  0  0  0  0
 23 24  2  0  0  0  0
 25 26  1  0  0  0  0
 26 27  1  0  0  0  0
 27 28  1  0  0  0  0
M  END
> <ID>
2450

> <Formula>
C21H31N5O2

> <FW>
385.5031

> <DSSTox_CID>
2707

> <DSSTox_RID>
76696

> <DSSTox_GSID>
22707

> <DSSTox_FileID_Sort>
1380

> <TS_ChemName>
Buspirone

> <TS_ChemName_Synonyms>


> <TS_CASRN>
36505-84-7

> <CASRN_ChemName_Relationship>
primary

> <TS_Description>
single chemical compound

> <ChemNote>


> <STRUCTURE_Shown>
tested chemical

> <STRUCTURE_Formula>
C21H31N5O2

> <STRUCTURE_MW>
385.5031

> <STRUCTURE_ChemType>
defined organic

> <STRUCTURE_DefinedOrganicForm>
parent

> <STRUCTURE_IUPAC>
8-{4-[4-(pyrimidin-2-yl)piperazin-1-yl]butyl}-8-azaspiro[4.5]decane-7,9-dione

> <STRUCTURE_SMILES>
O=C4CC1(CCCC1)CC(=O)N4CCCCN2CCN(CC2)c3ncccn3

> <STRUCTURE_SMILES_Desalt>
O=C4CC1(CCCC1)CC(=O)N4CCCCN2CCN(CC2)c3ncccn3

> <Substance_modify_yyyymmdd>
20080429

$$$$
