366-70-1
ChemmineR-0914142331XD

 17 16  0  0  0  0  0  0  0  0  1 V2000
    0.0000   -2.6533    0.0000 C    0  0  0  0  0  0  0  0  0  0  0  0
    1.1505   -1.9900    0.0000 N    0  0  0  0  0  0  0  0  0  0  0  0
    1.1505   -0.6633    0.0000 N    0  0  0  0  0  0  0  0  0  0  0  0
    2.3009    0.0000    0.0000 C    0  0  0  0  0  0  0  0  0  0  0  0
    3.4514   -0.6633    0.0000 C    0  0  0  0  0  0  0  0  0  0  0  0
    4.6019    0.0000    0.0000 C    0  0  0  0  0  0  0  0  0  0  0  0
    5.7627   -0.6633    0.0000 C    0  0  0  0  0  0  0  0  0  0  0  0
    5.7627   -1.9900    0.0000 C    0  0  0  0  0  0  0  0  0  0  0  0
    4.6019   -2.6533    0.0000 C    0  0  0  0  0  0  0  0  0  0  0  0
    3.4514   -1.9900    0.0000 C    0  0  0  0  0  0  0  0  0  0  0  0
    6.9132   -2.6533    0.0000 C    0  0  0  0  0  0  0  0  0  0  0  0
    6.9132   -3.9904    0.0000 O    0  0  0  0  0  0  0  0  0  0  0  0
    8.0636   -1.9900    0.0000 N    0  0  0  0  0  0  0  0  0  0  0  0
    9.2141   -2.6533    0.0000 C    0  0  0  0  0  0  0  0  0  0  0  0
   10.3646   -1.9900    0.0000 C    0  0  0  0  0  0  0  0  0  0  0  0
    9.2141   -3.9904    0.0000 C    0  0  0  0  0  0  0  0  0  0  0  0
    3.5654   -3.7209    0.0000 Cl   0  0  0  0  0  0  0  0  0  0  0  0
  1  2  1  0  0  0  0
  2  3  1  0  0  0  0
  3  4  1  0  0  0  0
  4  5  1  0  0  0  0
  5  6  2  0  0  0  0
  5 10  1  0  0  0  0
  6  7  1  0  0  0  0
  7  8  2  0  0  0  0
  8  9  1  0  0  0  0
  8 11  1  0  0  0  0
  9 10  2  0  0  0  0
 11 12  2  0  0  0  0
 11 13  1  0  0  0  0
 13 14  1  0  0  0  0
 14 15  1  0  0  0  0
 14 16  1  0  0  0  0
M  END
> <ID>
1144

> <Formula>
C12H20ClN3O

> <FW>
257.7597 (221.2988+36.4609)

> <DSSTox_CID>
1190

> <DSSTox_RID>
76000

> <DSSTox_GSID>
21190

> <DSSTox_FileID_Sort>
684

> <TS_ChemName>
Procarbazine hydrochloride

> <TS_ChemName_Synonyms>


> <TS_CASRN>
366-70-1

> <CASRN_ChemName_Relationship>
primary

> <TS_Description>
single chemical compound

> <ChemNote>
parent [671-16-9]

> <STRUCTURE_Shown>
tested chemical

> <STRUCTURE_Formula>
C12H20ClN3O

> <STRUCTURE_MW>
257.7597

> <STRUCTURE_ChemType>
defined organic

> <STRUCTURE_DefinedOrganicForm>
complex

> <STRUCTURE_IUPAC>
4-[(2-methylhydrazinyl)methyl]-N-(propan-2-yl)benzamide hydrochloride (1:1)

> <STRUCTURE_SMILES>
Cl.CC(C)NC(=O)c1ccc(CNNC)cc1

> <STRUCTURE_SMILES_Desalt>
CC(C)NC(=O)c1ccc(CNNC)cc1

> <Substance_modify_yyyymmdd>
20080429

$$$$
