371-40-4
ChemmineR-0914142331XD

  8  8  0  0  0  0  0  0  0  0  1 V2000
    0.0000   -1.1545    0.0000 N   0  0  0  0  0  0  0  0  0  0  0  0
    1.3300   -1.1545    0.0000 C   0  0  0  0  0  0  0  0  0  0  0  0
    1.9950    0.0000    0.0000 C   0  0  0  0  0  0  0  0  0  0  0  0
    3.3250    0.0000    0.0000 C   0  0  0  0  0  0  0  0  0  0  0  0
    3.9900   -1.1545    0.0000 C   0  0  0  0  0  0  0  0  0  0  0  0
    5.3201   -1.1545    0.0000 F   0  0  0  0  0  0  0  0  0  0  0  0
    3.3250   -2.3036    0.0000 C   0  0  0  0  0  0  0  0  0  0  0  0
    1.9950   -2.3036    0.0000 C   0  0  0  0  0  0  0  0  0  0  0  0
  1  2  1  0  0  0  0
  2  3  2  0  0  0  0
  2  8  1  0  0  0  0
  3  4  1  0  0  0  0
  4  5  2  0  0  0  0
  5  6  1  0  0  0  0
  5  7  1  0  0  0  0
  7  8  2  0  0  0  0
M  END
> <ID>
1874

> <Formula>
C6H6FN

> <FW>
111.1169

> <DSSTox_CID>
2027

> <DSSTox_RID>
76464

> <DSSTox_GSID>
22027

> <DSSTox_FileID_Sort>
1148

> <TS_ChemName>
4-Fluoroaniline

> <TS_ChemName_Synonyms>


> <TS_CASRN>
371-40-4

> <CASRN_ChemName_Relationship>
primary

> <TS_Description>
single chemical compound

> <ChemNote>


> <STRUCTURE_Shown>
tested chemical

> <STRUCTURE_Formula>
C6H6FN

> <STRUCTURE_MW>
111.1169

> <STRUCTURE_ChemType>
defined organic

> <STRUCTURE_DefinedOrganicForm>
parent

> <STRUCTURE_IUPAC>
4-fluoroaniline

> <STRUCTURE_SMILES>
Fc1ccc(N)cc1

> <STRUCTURE_SMILES_Desalt>
Fc1ccc(N)cc1

> <Substance_modify_yyyymmdd>
20080429

$$$$
