37148-27-9
ChemmineR-0914142331XD

 17 17  0  0  0  0  0  0  0  0  1 V2000
    1.1513   -3.3158    0.0000 C    0  0  0  0  0  0  0  0  0  0  0  0
    0.0000   -3.9882    0.0000 Cl   0  0  0  0  0  0  0  0  0  0  0  0
    1.1513   -1.9895    0.0000 C    0  0  0  0  0  0  0  0  0  0  0  0
    0.0000   -1.3263    0.0000 N    0  0  0  0  0  0  0  0  0  0  0  0
    2.3026   -1.3263    0.0000 C    0  0  0  0  0  0  0  0  0  0  0  0
    2.3026    0.0000    0.0000 Cl   0  0  0  0  0  0  0  0  0  0  0  0
    3.4539   -1.9895    0.0000 C    0  0  0  0  0  0  0  0  0  0  0  0
    3.4539   -3.3158    0.0000 C    0  0  0  0  0  0  0  0  0  0  0  0
    4.6053   -3.9882    0.0000 C    0  0  0  0  0  0  0  0  0  0  0  0
    4.6053   -5.3145    0.0000 O    0  0  0  0  0  0  0  0  0  0  0  0
    5.7566   -3.3158    0.0000 C    0  0  0  0  0  0  0  0  0  0  0  0
    6.9079   -3.9882    0.0000 N    0  0  0  0  0  0  0  0  0  0  0  0
    8.0592   -3.3158    0.0000 C    0  0  0  0  0  0  0  0  0  0  0  0
    8.7224   -4.4671    0.0000 C    0  0  0  0  0  0  0  0  0  0  0  0
    7.3960   -2.1645    0.0000 C    0  0  0  0  0  0  0  0  0  0  0  0
    9.2105   -2.6526    0.0000 C    0  0  0  0  0  0  0  0  0  0  0  0
    2.3026   -3.9882    0.0000 C    0  0  0  0  0  0  0  0  0  0  0  0
  1  2  1  0  0  0  0
  1  3  2  0  0  0  0
  1 17  1  0  0  0  0
  3  4  1  0  0  0  0
  3  5  1  0  0  0  0
  5  6  1  0  0  0  0
  5  7  2  0  0  0  0
  7  8  1  0  0  0  0
  8  9  1  0  0  0  0
  8 17  2  0  0  0  0
  9 10  1  0  0  0  0
  9 11  1  0  0  0  0
 11 12  1  0  0  0  0
 12 13  1  0  0  0  0
 13 14  1  0  0  0  0
 13 15  1  0  0  0  0
 13 16  1  0  0  0  0
M  END
> <ID>
2560

> <Formula>
C12H18Cl2N2O

> <FW>
277.1901

> <DSSTox_CID>
2833

> <DSSTox_RID>
76749

> <DSSTox_GSID>
22833

> <DSSTox_FileID_Sort>
1433

> <TS_ChemName>
Clenbuterol

> <TS_ChemName_Synonyms>


> <TS_CASRN>
37148-27-9

> <CASRN_ChemName_Relationship>
primary

> <TS_Description>
single chemical compound

> <ChemNote>


> <STRUCTURE_Shown>
tested chemical

> <STRUCTURE_Formula>
C12H18Cl2N2O

> <STRUCTURE_MW>
277.1901

> <STRUCTURE_ChemType>
defined organic

> <STRUCTURE_DefinedOrganicForm>
parent

> <STRUCTURE_IUPAC>
1-(4-amino-3,5-dichlorophenyl)-2-(tert-butylamino)ethanol

> <STRUCTURE_SMILES>
Clc1cc(cc(Cl)c1N)C(O)CNC(C)(C)C

> <STRUCTURE_SMILES_Desalt>
Clc1cc(cc(Cl)c1N)C(O)CNC(C)(C)C

> <Substance_modify_yyyymmdd>
20080429

$$$$
