3741-38-6
ChemmineR-0914142331XD

  6  6  0  0  0  0  0  0  0  0  1 V2000
    0.0000   -1.0738    0.0000 O   0  0  0  0  0  0  0  0  0  0  0  0
    1.3304   -1.0738    0.0000 S   0  0  0  0  0  0  0  0  0  0  0  0
    2.1104    0.0000    0.0000 O   0  0  0  0  0  0  0  0  0  0  0  0
    3.3767   -0.4086    0.0000 C   0  0  0  0  0  0  0  0  0  0  0  0
    3.3767   -1.7390    0.0000 C   0  0  0  0  0  0  0  0  0  0  0  0
    2.1104   -2.1509    0.0000 O   0  0  0  0  0  0  0  0  0  0  0  0
  1  2  2  0  0  0  0
  2  3  1  0  0  0  0
  2  6  1  0  0  0  0
  3  4  1  0  0  0  0
  4  5  1  0  0  0  0
  5  6  1  0  0  0  0
M  END
> <ID>
641

> <Formula>
C2H4O3S

> <FW>
108.1164

> <DSSTox_CID>
668

> <DSSTox_RID>
75721

> <DSSTox_GSID>
20668

> <DSSTox_FileID_Sort>
405

> <TS_ChemName>
Glycol sulfite

> <TS_ChemName_Synonyms>


> <TS_CASRN>
3741-38-6

> <CASRN_ChemName_Relationship>
primary

> <TS_Description>
single chemical compound

> <ChemNote>


> <STRUCTURE_Shown>
tested chemical

> <STRUCTURE_Formula>
C2H4O3S

> <STRUCTURE_MW>
108.1164

> <STRUCTURE_ChemType>
defined organic

> <STRUCTURE_DefinedOrganicForm>
parent

> <STRUCTURE_IUPAC>
1,3,2-dioxathiolane 2-oxide

> <STRUCTURE_SMILES>
O=S1OCCO1

> <STRUCTURE_SMILES_Desalt>
O=S1OCCO1

> <Substance_modify_yyyymmdd>
20080429

$$$$
