37517-28-5
ChemmineR-0914142331XD

 40 42  0  0  1  0  0  0  0  0  1 V2000
    3.9907    0.0000    0.0000 N   0  0  0  0  0  0  0  0  0  0  0  0
    3.3256   -1.1573    0.0000 C   0  0  0  0  0  0  0  0  0  0  0  0
    3.9907   -2.3146    0.0000 C   0  0  0  0  0  0  0  0  0  0  0  0
    5.3209   -2.3146    0.0000 C   0  0  0  0  0  0  0  0  0  0  0  0
    5.9861   -1.1573    0.0000 O   0  0  0  0  0  0  0  0  0  0  0  0
    5.9861   -3.4586    0.0000 C   0  0  0  0  0  0  0  0  0  0  0  0
    7.3163   -3.4586    0.0000 O   0  0  0  0  0  0  0  0  0  0  0  0
    5.3209   -4.6159    0.0000 N   0  0  0  0  0  0  0  0  0  0  0  0
    5.9861   -5.7599    0.0000 C   0  0  0  0  0  0  0  0  0  0  0  0
    7.3163   -5.7599    0.0000 C   0  0  0  0  0  0  0  0  0  0  0  0
    7.9814   -6.9172    0.0000 C   0  0  0  0  0  0  0  0  0  0  0  0
    9.3117   -6.9172    0.0000 N   0  0  0  0  0  0  0  0  0  0  0  0
    7.3163   -8.0745    0.0000 C   0  0  0  0  0  0  0  0  0  0  0  0
    7.9814   -9.2185    0.0000 O   0  0  0  0  0  0  0  0  0  0  0  0
    9.3117   -9.2185    0.0000 C   0  0  0  0  0  0  0  0  0  0  0  0
    9.9768   -8.0745    0.0000 O   0  0  0  0  0  0  0  0  0  0  0  0
   11.3070   -8.0745    0.0000 C   0  0  0  0  0  0  0  0  0  0  0  0
   11.9721   -6.9172    0.0000 C   0  0  0  0  0  0  0  0  0  0  0  0
   13.3024   -6.9172    0.0000 N   0  0  0  0  0  0  0  0  0  0  0  0
   11.9721   -9.2185    0.0000 C   0  0  0  0  0  0  0  0  0  0  0  0
   13.3024   -9.2185    0.0000 O   0  0  0  0  0  0  0  0  0  0  0  0
   11.3070  -10.3758    0.0000 C   0  0  0  0  0  0  0  0  0  0  0  0
   11.9721  -11.5198    0.0000 O   0  0  0  0  0  0  0  0  0  0  0  0
    9.9768  -10.3758    0.0000 C   0  0  0  0  0  0  0  0  0  0  0  0
    9.3117  -11.5198    0.0000 O   0  0  0  0  0  0  0  0  0  0  0  0
    5.9861   -8.0745    0.0000 C   0  0  0  0  0  0  0  0  0  0  0  0
    5.3209   -9.2185    0.0000 O   0  0  0  0  0  0  0  0  0  0  0  0
    5.3209   -6.9172    0.0000 C   0  0  0  0  0  0  0  0  0  0  0  0
    3.9907   -6.9172    0.0000 O   0  0  0  0  0  0  0  0  0  0  0  0
    3.3256   -8.0745    0.0000 C   0  0  0  0  0  0  0  0  0  0  0  0
    3.9907   -9.2185    0.0000 O   0  0  0  0  0  0  0  0  0  0  0  0
    3.3256  -10.3758    0.0000 C   0  0  0  0  0  0  0  0  0  0  0  0
    3.9907  -11.5198    0.0000 C   0  0  0  0  0  0  0  0  0  0  0  0
    3.3256  -12.6771    0.0000 O   0  0  0  0  0  0  0  0  0  0  0  0
    1.9954  -10.3758    0.0000 C   0  0  0  0  0  0  0  0  0  0  0  0
    1.3302  -11.5198    0.0000 O   0  0  0  0  0  0  0  0  0  0  0  0
    1.3302   -9.2185    0.0000 C   0  0  0  0  0  0  0  0  0  0  0  0
    0.0000   -9.2185    0.0000 N   0  0  0  0  0  0  0  0  0  0  0  0
    1.9954   -8.0745    0.0000 C   0  0  0  0  0  0  0  0  0  0  0  0
    1.3302   -6.9172    0.0000 O   0  0  0  0  0  0  0  0  0  0  0  0
  1  2  1  0  0  0  0
  2  3  1  0  0  0  0
  3  4  1  0  0  0  0
  4  5  1  6  0  0  0
  4  6  1  0  0  0  0
  6  7  2  0  0  0  0
  6  8  1  0  0  0  0
  9  8  1  6  0  0  0
  9 10  1  0  0  0  0
  9 28  1  0  0  0  0
 10 11  1  0  0  0  0
 11 12  1  6  0  0  0
 11 13  1  0  0  0  0
 13 14  1  1  0  0  0
 13 26  1  0  0  0  0
 15 14  1  1  0  0  0
 15 16  1  0  0  0  0
 15 24  1  0  0  0  0
 16 17  1  0  0  0  0
 17 18  1  6  0  0  0
 17 20  1  0  0  0  0
 18 19  1  0  0  0  0
 20 21  1  1  0  0  0
 20 22  1  0  0  0  0
 22 23  1  6  0  0  0
 22 24  1  0  0  0  0
 24 25  1  1  0  0  0
 26 27  1  6  0  0  0
 26 28  1  0  0  0  0
 28 29  1  1  0  0  0
 30 29  1  1  0  0  0
 30 31  1  0  0  0  0
 30 39  1  0  0  0  0
 31 32  1  0  0  0  0
 32 33  1  6  0  0  0
 32 35  1  0  0  0  0
 33 34  1  0  0  0  0
 35 36  1  1  0  0  0
 35 37  1  0  0  0  0
 37 38  1  6  0  0  0
 37 39  1  0  0  0  0
 39 40  1  1  0  0  0
M  END
> <ID>
2343

> <Formula>
C22H43N5O13

> <FW>
585.6025

> <DSSTox_CID>
2586

> <DSSTox_RID>
76645

> <DSSTox_GSID>
22586

> <DSSTox_FileID_Sort>
1329

> <TS_ChemName>
Amikacin

> <TS_ChemName_Synonyms>


> <TS_CASRN>
37517-28-5

> <CASRN_ChemName_Relationship>
primary

> <TS_Description>
single chemical compound

> <ChemNote>
stereochem

> <STRUCTURE_Shown>
tested chemical

> <STRUCTURE_Formula>
C22H43N5O13

> <STRUCTURE_MW>
585.6025

> <STRUCTURE_ChemType>
defined organic

> <STRUCTURE_DefinedOrganicForm>
parent

> <STRUCTURE_IUPAC>
(2S)-4-amino-N-{(1R,2S,3S,4R,5S)-5-amino-2-[(3-amino-3-deoxy-alpha-D-glucopyranosyl)oxy]-4-[(6-amino-6-deoxy-alpha-D-glucopyranosyl)oxy]-3-hydroxycyclohexyl}-2-hydroxybutanamide

> <STRUCTURE_SMILES>
NCC[C@H](O)C(=O)N[C@@H]3C[C@H](N)[C@@H](O[C@H]1O[C@H](CN)[C@@H](O)[C@H](O)[C@H]1O)[C@H](O)[C@H]3O[C@H]2O[C@H](CO)[C@@H](O)[C@H](N)[C@H]2O

> <STRUCTURE_SMILES_Desalt>
NCC[C@H](O)C(=O)N[C@@H]3C[C@H](N)[C@@H](O[C@H]1O[C@H](CN)[C@@H](O)[C@H](O)[C@H]1O)[C@H](O)[C@H]3O[C@H]2O[C@H](CO)[C@@H](O)[C@H](N)[C@H]2O

> <Substance_modify_yyyymmdd>
20080429

$$$$
