3771-19-5
ChemmineR-0914142331XD

 23 25  0  0  0  0  0  0  0  0  1 V2000
    1.6416   -5.7565    0.0000 C   0  0  0  0  0  0  0  0  0  0  0  0
    2.2982   -4.6074    0.0000 C   0  0  0  0  0  0  0  0  0  0  0  0
    1.1491   -3.9398    0.0000 C   0  0  0  0  0  0  0  0  0  0  0  0
    0.0000   -4.6074    0.0000 O   0  0  0  0  0  0  0  0  0  0  0  0
    1.1491   -2.6156    0.0000 O   0  0  0  0  0  0  0  0  0  0  0  0
    2.9658   -3.4583    0.0000 O   0  0  0  0  0  0  0  0  0  0  0  0
    4.3010   -3.4583    0.0000 C   0  0  0  0  0  0  0  0  0  0  0  0
    4.9576   -2.2982    0.0000 C   0  0  0  0  0  0  0  0  0  0  0  0
    6.2928   -2.2982    0.0000 C   0  0  0  0  0  0  0  0  0  0  0  0
    6.9604   -3.4583    0.0000 C   0  0  0  0  0  0  0  0  0  0  0  0
    6.2928   -4.6074    0.0000 C   0  0  0  0  0  0  0  0  0  0  0  0
    4.9576   -4.6074    0.0000 C   0  0  0  0  0  0  0  0  0  0  0  0
    8.2846   -3.4583    0.0000 C   0  0  0  0  0  0  0  0  0  0  0  0
    8.9522   -4.6074    0.0000 C   0  0  0  0  0  0  0  0  0  0  0  0
   10.2764   -4.6074    0.0000 C   0  0  0  0  0  0  0  0  0  0  0  0
   10.9440   -3.4583    0.0000 C   0  0  0  0  0  0  0  0  0  0  0  0
   10.2764   -2.2982    0.0000 C   0  0  0  0  0  0  0  0  0  0  0  0
    8.9522   -2.2982    0.0000 C   0  0  0  0  0  0  0  0  0  0  0  0
    8.2846   -1.1491    0.0000 C   0  0  0  0  0  0  0  0  0  0  0  0
    8.9522    0.0000    0.0000 C   0  0  0  0  0  0  0  0  0  0  0  0
   10.2764    0.0000    0.0000 C   0  0  0  0  0  0  0  0  0  0  0  0
   10.9440   -1.1491    0.0000 C   0  0  0  0  0  0  0  0  0  0  0  0
    3.4583   -5.2750    0.0000 C   0  0  0  0  0  0  0  0  0  0  0  0
  1  2  1  0  0  0  0
  2  3  1  0  0  0  0
  2  6  1  0  0  0  0
  2 23  1  0  0  0  0
  3  4  1  0  0  0  0
  3  5  2  0  0  0  0
  6  7  1  0  0  0  0
  7  8  2  0  0  0  0
  7 12  1  0  0  0  0
  8  9  1  0  0  0  0
  9 10  2  0  0  0  0
 10 11  1  0  0  0  0
 10 13  1  0  0  0  0
 11 12  2  0  0  0  0
 13 14  1  0  0  0  0
 13 18  1  0  0  0  0
 14 15  1  0  0  0  0
 15 16  1  0  0  0  0
 16 17  1  0  0  0  0
 17 18  2  0  0  0  0
 17 22  1  0  0  0  0
 18 19  1  0  0  0  0
 19 20  2  0  0  0  0
 20 21  1  0  0  0  0
 21 22  2  0  0  0  0
M  END
> <ID>
877

> <Formula>
C20H22O3

> <FW>
310.3869

> <DSSTox_CID>
911

> <DSSTox_RID>
75858

> <DSSTox_GSID>
20911

> <DSSTox_FileID_Sort>
542

> <TS_ChemName>
Nafenopin

> <TS_ChemName_Synonyms>


> <TS_CASRN>
3771-19-5

> <CASRN_ChemName_Relationship>
primary

> <TS_Description>
single chemical compound

> <ChemNote>


> <STRUCTURE_Shown>
tested chemical

> <STRUCTURE_Formula>
C20H22O3

> <STRUCTURE_MW>
310.3869

> <STRUCTURE_ChemType>
defined organic

> <STRUCTURE_DefinedOrganicForm>
parent

> <STRUCTURE_IUPAC>
2-methyl-2-[4-(1,2,3,4-tetrahydronaphthalen-1-yl)phenoxy]propanoic acid

> <STRUCTURE_SMILES>
O=C(O)C(C)(C)Oc1ccc(cc1)C3CCCc2ccccc23

> <STRUCTURE_SMILES_Desalt>
O=C(O)C(C)(C)Oc1ccc(cc1)C3CCCc2ccccc23

> <Substance_modify_yyyymmdd>
20080429

$$$$
