3772-76-7
ChemmineR-0914142331XD

 20 21  0  0  0  0  0  0  0  0  1 V2000
    0.0000   -5.7646    0.0000 C   0  0  0  0  0  0  0  0  0  0  0  0
    0.6655   -6.9140    0.0000 C   0  0  0  0  0  0  0  0  0  0  0  0
    0.0000   -8.0635    0.0000 N   0  0  0  0  0  0  0  0  0  0  0  0
    1.9964   -6.9140    0.0000 C   0  0  0  0  0  0  0  0  0  0  0  0
    2.6619   -5.7646    0.0000 C   0  0  0  0  0  0  0  0  0  0  0  0
    1.9964   -4.6065    0.0000 C   0  0  0  0  0  0  0  0  0  0  0  0
    2.6619   -3.4570    0.0000 S   0  0  0  0  0  0  0  0  0  0  0  0
    3.8114   -4.1225    0.0000 O   0  0  0  0  0  0  0  0  0  0  0  0
    1.5038   -2.7915    0.0000 O   0  0  0  0  0  0  0  0  0  0  0  0
    3.3274   -2.3076    0.0000 N   0  0  0  0  0  0  0  0  0  0  0  0
    4.6497   -2.3076    0.0000 C   0  0  0  0  0  0  0  0  0  0  0  0
    5.3152   -1.1581    0.0000 C   0  0  0  0  0  0  0  0  0  0  0  0
    6.6461   -1.1581    0.0000 C   0  0  0  0  0  0  0  0  0  0  0  0
    7.3116    0.0000    0.0000 O   0  0  0  0  0  0  0  0  0  0  0  0
    8.6425    0.0000    0.0000 C   0  0  0  0  0  0  0  0  0  0  0  0
    7.3116   -2.3076    0.0000 N   0  0  0  0  0  0  0  0  0  0  0  0
    6.6461   -3.4570    0.0000 C   0  0  0  0  0  0  0  0  0  0  0  0
    7.3116   -4.6065    0.0000 C   0  0  0  0  0  0  0  0  0  0  0  0
    5.3152   -3.4570    0.0000 N   0  0  0  0  0  0  0  0  0  0  0  0
    0.6655   -4.6065    0.0000 C   0  0  0  0  0  0  0  0  0  0  0  0
  1  2  2  0  0  0  0
  1 20  1  0  0  0  0
  2  3  1  0  0  0  0
  2  4  1  0  0  0  0
  4  5  2  0  0  0  0
  5  6  1  0  0  0  0
  6  7  1  0  0  0  0
  6 20  2  0  0  0  0
  7  8  2  0  0  0  0
  7  9  2  0  0  0  0
  7 10  1  0  0  0  0
 10 11  1  0  0  0  0
 11 12  2  0  0  0  0
 11 19  1  0  0  0  0
 12 13  1  0  0  0  0
 13 14  1  0  0  0  0
 13 16  2  0  0  0  0
 14 15  1  0  0  0  0
 16 17  1  0  0  0  0
 17 18  1  0  0  0  0
 17 19  2  0  0  0  0
M  END
> <ID>
3234

> <Formula>
C12H14N4O3S

> <FW>
294.3296

> <DSSTox_CID>
3616

> <DSSTox_RID>
77112

> <DSSTox_GSID>
23616

> <DSSTox_FileID_Sort>
1795

> <TS_ChemName>
Sulfamethomidine

> <TS_ChemName_Synonyms>


> <TS_CASRN>
3772-76-7

> <CASRN_ChemName_Relationship>
primary

> <TS_Description>
single chemical compound

> <ChemNote>


> <STRUCTURE_Shown>
tested chemical

> <STRUCTURE_Formula>
C12H14N4O3S

> <STRUCTURE_MW>
294.3296

> <STRUCTURE_ChemType>
defined organic

> <STRUCTURE_DefinedOrganicForm>
parent

> <STRUCTURE_IUPAC>
4-amino-N-(6-methoxy-2-methylpyrimidin-4-yl)benzenesulfonamide

> <STRUCTURE_SMILES>
Cc2nc(NS(=O)(=O)c1ccc(N)cc1)cc(OC)n2

> <STRUCTURE_SMILES_Desalt>
Cc2nc(NS(=O)(=O)c1ccc(N)cc1)cc(OC)n2

> <Substance_modify_yyyymmdd>
20080429

$$$$
