3844-45-9
ChemmineR-0914142331XD

 53 55  0  0  0  0  0  0  0  0  2 V2000
   11.6057  -12.6970    0.0000 O    0  0  0  0  0  0  0  0  0  0  0  0
   11.6057  -14.0135    0.0000 S    0  0  0  0  0  0  0  0  0  0  0  0
   11.6057  -15.3300    0.0000 O    0  0  0  0  0  0  0  0  0  0  0  0
   12.9222  -14.0135    0.0000 C    0  0  0  0  0  0  0  0  0  0  0  0
   13.5804  -12.8702    0.0000 C    0  0  0  0  0  0  0  0  0  0  0  0
   14.8796  -12.8702    0.0000 C    0  0  0  0  0  0  0  0  0  0  0  0
   15.5378  -14.0135    0.0000 C    0  0  0  0  0  0  0  0  0  0  0  0
   14.8796  -15.1567    0.0000 C    0  0  0  0  0  0  0  0  0  0  0  0
   13.5804  -15.1567    0.0000 C    0  0  0  0  0  0  0  0  0  0  0  0
   12.7143  -11.3979    0.0000 C    0  0  0  0  0  0  0  0  0  0  0  0
   10.9995  -11.3979    0.0000 C    0  0  0  0  0  0  0  0  0  0  0  0
   10.3412  -12.5411    0.0000 C    0  0  0  0  0  0  0  0  0  0  0  0
    9.0248  -12.5411    0.0000 C    0  0  0  0  0  0  0  0  0  0  0  0
    8.3838  -11.3979    0.0000 C    0  0  0  0  0  0  0  0  0  0  0  0
    7.0674  -11.3979    0.0000 N    0  3  0  0  0  0  0  0  0  0  0  0
    6.4091  -12.5411    0.0000 C    0  0  0  0  0  0  0  0  0  0  0  0
    5.0927  -12.5411    0.0000 C    0  0  0  0  0  0  0  0  0  0  0  0
    4.4344  -13.6670    0.0000 C    0  0  0  0  0  0  0  0  0  0  0  0
    3.1180  -13.6670    0.0000 C    0  0  0  0  0  0  0  0  0  0  0  0
    2.4597  -12.5411    0.0000 C    0  0  0  0  0  0  0  0  0  0  0  0
    3.1180  -11.3979    0.0000 C    0  0  0  0  0  0  0  0  0  0  0  0
    4.4344  -11.3979    0.0000 C    0  0  0  0  0  0  0  0  0  0  0  0
    2.4597  -14.8103    0.0000 S    0  0  0  0  0  0  0  0  0  0  0  0
    3.6030  -15.4685    0.0000 O    0  0  0  0  0  0  0  0  0  0  0  0
    1.3165  -14.1521    0.0000 O    0  0  0  0  0  0  0  0  0  0  0  0
    1.8015  -15.9535    0.0000 O    0  5  0  0  0  0  0  0  0  0  0  0
    6.4091  -10.2546    0.0000 C    0  0  0  0  0  0  0  0  0  0  0  0
    5.0927  -10.2546    0.0000 C    0  0  0  0  0  0  0  0  0  0  0  0
    9.0248  -10.2546    0.0000 C    0  0  0  0  0  0  0  0  0  0  0  0
   10.3412  -10.2546    0.0000 C    0  0  0  0  0  0  0  0  0  0  0  0
   13.3726  -10.2546    0.0000 C    0  0  0  0  0  0  0  0  0  0  0  0
   12.7143   -9.1114    0.0000 C    0  0  0  0  0  0  0  0  0  0  0  0
   13.3726   -7.9854    0.0000 C    0  0  0  0  0  0  0  0  0  0  0  0
   14.6890   -7.9854    0.0000 C    0  0  0  0  0  0  0  0  0  0  0  0
   15.3473   -9.1114    0.0000 C    0  0  0  0  0  0  0  0  0  0  0  0
   14.6890  -10.2546    0.0000 C    0  0  0  0  0  0  0  0  0  0  0  0
   15.3473   -6.8422    0.0000 N    0  0  0  0  0  0  0  0  0  0  0  0
   14.6890   -5.6989    0.0000 C    0  0  0  0  0  0  0  0  0  0  0  0
   15.3473   -4.5557    0.0000 C    0  0  0  0  0  0  0  0  0  0  0  0
   14.6890   -3.4124    0.0000 C    0  0  0  0  0  0  0  0  0  0  0  0
   15.3473   -2.2865    0.0000 C    0  0  0  0  0  0  0  0  0  0  0  0
   16.6637   -2.2865    0.0000 C    0  0  0  0  0  0  0  0  0  0  0  0
   17.3220   -3.4124    0.0000 C    0  0  0  0  0  0  0  0  0  0  0  0
   16.6637   -4.5557    0.0000 C    0  0  0  0  0  0  0  0  0  0  0  0
   14.6890   -1.1433    0.0000 S    0  0  0  0  0  0  0  0  0  0  0  0
   13.5458   -1.8015    0.0000 O    0  0  0  0  0  0  0  0  0  0  0  0
   15.8323   -0.4850    0.0000 O    0  0  0  0  0  0  0  0  0  0  0  0
   14.0308    0.0000    0.0000 O    0  5  0  0  0  0  0  0  0  0  0  0
   16.6637   -6.8422    0.0000 C    0  0  0  0  0  0  0  0  0  0  0  0
   17.3220   -5.6989    0.0000 C    0  0  0  0  0  0  0  0  0  0  0  0
   10.2893  -14.0135    0.0000 O    0  5  0  0  0  0  0  0  0  0  0  0
    0.0000  -11.8656    0.0000 Na   0  3  0  0  0  0  0  0  0  0  0  0
   10.8955   -2.0960    0.0000 Na   0  3  0  0  0  0  0  0  0  0  0  0
  1  2  2  0  0  0  0
  2  3  2  0  0  0  0
  2  4  1  0  0  0  0
  2 51  1  0  0  0  0
  4  5  2  0  0  0  0
  4  9  1  0  0  0  0
  5  6  1  0  0  0  0
  5 10  1  0  0  0  0
  6  7  2  0  0  0  0
  7  8  1  0  0  0  0
  8  9  2  0  0  0  0
 10 11  2  0  0  0  0
 10 31  1  0  0  0  0
 11 12  1  0  0  0  0
 11 30  1  0  0  0  0
 12 13  2  0  0  0  0
 13 14  1  0  0  0  0
 14 15  2  0  0  0  0
 14 29  1  0  0  0  0
 15 16  1  0  0  0  0
 15 27  1  0  0  0  0
 16 17  1  0  0  0  0
 17 18  2  0  0  0  0
 17 22  1  0  0  0  0
 18 19  1  0  0  0  0
 19 20  2  0  0  0  0
 19 23  1  0  0  0  0
 20 21  1  0  0  0  0
 21 22  2  0  0  0  0
 23 24  2  0  0  0  0
 23 25  2  0  0  0  0
 23 26  1  0  0  0  0
 27 28  1  0  0  0  0
 29 30  2  0  0  0  0
 31 32  2  0  0  0  0
 31 36  1  0  0  0  0
 32 33  1  0  0  0  0
 33 34  2  0  0  0  0
 34 35  1  0  0  0  0
 34 37  1  0  0  0  0
 35 36  2  0  0  0  0
 37 38  1  0  0  0  0
 37 49  1  0  0  0  0
 38 39  1  0  0  0  0
 39 40  2  0  0  0  0
 39 44  1  0  0  0  0
 40 41  1  0  0  0  0
 41 42  2  0  0  0  0
 41 45  1  0  0  0  0
 42 43  1  0  0  0  0
 43 44  2  0  0  0  0
 45 46  2  0  0  0  0
 45 47  2  0  0  0  0
 45 48  1  0  0  0  0
 49 50  1  0  0  0  0
M  END
> <ID>
186

> <Formula>
C37H34N2Na2O9S3

> <FW>
792.8484 (746.8700+22.9892+22.9892)

> <DSSTox_CID>
189

> <DSSTox_RID>
75422

> <DSSTox_GSID>
20189

> <DSSTox_FileID_Sort>
106

> <TS_ChemName>
FD&C Blue No. 1

> <TS_ChemName_Synonyms>
FD & C Blue No. 1 (Benzenemethanaminium, N-ethyl-N-[4-[[4-[ethyl[(3-sulfophenyl)methyl]amino]phenyl](2-sulfophenyl)methylene]-2,5-cyclohexadien-1-ylidene]-3-sulfo-, inner salt, disodium salt)

> <TS_CASRN>
3844-45-9

> <CASRN_ChemName_Relationship>
primary

> <TS_Description>
single chemical compound

> <ChemNote>
ammonium; parent [25305-78-6]

> <STRUCTURE_Shown>
tested chemical

> <STRUCTURE_Formula>
C37H34N2Na2O9S3

> <STRUCTURE_MW>
792.8484

> <STRUCTURE_ChemType>
defined organic

> <STRUCTURE_DefinedOrganicForm>
salt

> <STRUCTURE_IUPAC>
disodium 2-[(Z)-{4-[ethyl(3-sulfonatobenzyl)amino]phenyl}{(4Z)-4-[ethyl(3-sulfonatobenzyl)iminio]cyclohexa-2,5-dien-1-ylidene}methyl]benzenesulfonate

> <STRUCTURE_SMILES>
[Na+].[Na+].CC/[N+](Cc1cccc(c1)S([O-])(=O)=O)=C2\C=C/C(C=C2)=C(\c3ccc(cc3)N(Cc4cccc(c4)S([O-])(=O)=O)CC)c5ccccc5S([O-])(=O)=O

> <STRUCTURE_SMILES_Desalt>
CC/[N+](Cc1cccc(c1)S(=O)(=O)O)=C2\C=C/C(C=C2)=C(\c3ccc(cc3)N(Cc4cccc(c4)S(=O)(=O)O)CC)c5ccccc5S(=O)(=O)O

> <Substance_modify_yyyymmdd>
20080429

$$$$
