3883-43-0
ChemmineR-0914142331XD

  8  8  0  0  1  0  0  0  0  0  1 V2000
    2.3060   -0.6742    0.0000 C    0  0  0  0  0  0  0  0  0  0  0  0
    2.3060   -2.0017    0.0000 C    0  0  0  0  0  0  0  0  0  0  0  0
    1.1513    0.0000    0.0000 O    0  0  0  0  0  0  0  0  0  0  0  0
    1.1513   -2.6586    0.0000 O    0  0  0  0  0  0  0  0  0  0  0  0
    0.0000   -0.6742    0.0000 C    0  0  0  0  0  0  0  0  0  0  0  0
    0.0000   -2.0017    0.0000 C    0  0  0  0  0  0  0  0  0  0  0  0
    3.4573   -2.6586    0.0000 Cl   0  0  0  0  0  0  0  0  0  0  0  0
    3.4573    0.0000    0.0000 Cl   0  0  0  0  0  0  0  0  0  0  0  0
  1  2  1  0  0  0  0
  1  3  1  0  0  0  0
  1  8  1  6  0  0  0
  2  4  1  0  0  0  0
  2  7  1  1  0  0  0
  3  5  1  0  0  0  0
  4  6  1  0  0  0  0
  5  6  1  0  0  0  0
M  END
> <ID>
405

> <Formula>
C4H6Cl2O2

> <FW>
156.9952

> <DSSTox_CID>
421

> <DSSTox_RID>
75574

> <DSSTox_GSID>
20421

> <DSSTox_FileID_Sort>
258

> <TS_ChemName>
2,3-Dichloro-p-dioxane

> <TS_ChemName_Synonyms>


> <TS_CASRN>
3883-43-0

> <CASRN_ChemName_Relationship>
primary

> <TS_Description>
single chemical compound

> <ChemNote>
stereochem

> <STRUCTURE_Shown>
tested chemical

> <STRUCTURE_Formula>
C4H6Cl2O2

> <STRUCTURE_MW>
156.9952

> <STRUCTURE_ChemType>
defined organic

> <STRUCTURE_DefinedOrganicForm>
parent

> <STRUCTURE_IUPAC>
(2R,3R)-2,3-dichloro-1,4-dioxane

> <STRUCTURE_SMILES>
Cl[C@H]1OCCO[C@@H]1Cl

> <STRUCTURE_SMILES_Desalt>
Cl[C@H]1OCCO[C@@H]1Cl

> <Substance_modify_yyyymmdd>
20080429

$$$$
