3964-81-6
ChemmineR-0914142331XD

 22 25  0  0  0  0  0  0  0  0  1 V2000
    5.3779   -0.2796    0.0000 C   0  0  0  0  0  0  0  0  0  0  0  0
    6.6525    0.0000    0.0000 C   0  0  0  0  0  0  0  0  0  0  0  0
    7.5899   -0.9374    0.0000 C   0  0  0  0  0  0  0  0  0  0  0  0
    7.1870   -2.2202    0.0000 C   0  0  0  0  0  0  0  0  0  0  0  0
    5.9042   -2.4998    0.0000 C   0  0  0  0  0  0  0  0  0  0  0  0
    4.9667   -1.5624    0.0000 C   0  0  0  0  0  0  0  0  0  0  0  0
    5.3121   -3.7168    0.0000 C   0  0  0  0  0  0  0  0  0  0  0  0
    3.9882   -3.7168    0.0000 C   0  0  0  0  0  0  0  0  0  0  0  0
    3.3221   -4.8681    0.0000 C   0  0  0  0  0  0  0  0  0  0  0  0
    1.9900   -4.8681    0.0000 C   0  0  0  0  0  0  0  0  0  0  0  0
    1.3321   -3.7168    0.0000 N   0  0  0  0  0  0  0  0  0  0  0  0
    0.0000   -3.7168    0.0000 C   0  0  0  0  0  0  0  0  0  0  0  0
    1.9900   -2.5656    0.0000 C   0  0  0  0  0  0  0  0  0  0  0  0
    3.3221   -2.5656    0.0000 C   0  0  0  0  0  0  0  0  0  0  0  0
    5.9042   -4.9256    0.0000 C   0  0  0  0  0  0  0  0  0  0  0  0
    7.1870   -5.2052    0.0000 C   0  0  0  0  0  0  0  0  0  0  0  0
    8.2231   -4.3829    0.0000 C   0  0  0  0  0  0  0  0  0  0  0  0
    8.2231   -3.0508    0.0000 C   0  0  0  0  0  0  0  0  0  0  0  0
    7.5899   -6.4962    0.0000 C   0  0  0  0  0  0  0  0  0  0  0  0
    6.6525   -7.4337    0.0000 C   0  0  0  0  0  0  0  0  0  0  0  0
    5.3779   -7.1541    0.0000 C   0  0  0  0  0  0  0  0  0  0  0  0
    4.9667   -5.8713    0.0000 N   0  0  0  0  0  0  0  0  0  0  0  0
  1  2  2  0  0  0  0
  1  6  1  0  0  0  0
  2  3  1  0  0  0  0
  3  4  2  0  0  0  0
  4  5  1  0  0  0  0
  4 18  1  0  0  0  0
  5  6  2  0  0  0  0
  5  7  1  0  0  0  0
  7  8  2  0  0  0  0
  7 15  1  0  0  0  0
  8  9  1  0  0  0  0
  8 14  1  0  0  0  0
  9 10  1  0  0  0  0
 10 11  1  0  0  0  0
 11 12  1  0  0  0  0
 11 13  1  0  0  0  0
 13 14  1  0  0  0  0
 15 16  2  0  0  0  0
 15 22  1  0  0  0  0
 16 17  1  0  0  0  0
 16 19  1  0  0  0  0
 17 18  1  0  0  0  0
 19 20  2  0  0  0  0
 20 21  1  0  0  0  0
 21 22  2  0  0  0  0
M  END
> <ID>
2386

> <Formula>
C20H22N2

> <FW>
290.4021

> <DSSTox_CID>
2636

> <DSSTox_RID>
76668

> <DSSTox_GSID>
22636

> <DSSTox_FileID_Sort>
1352

> <TS_ChemName>
Azatadine

> <TS_ChemName_Synonyms>


> <TS_CASRN>
3964-81-6

> <CASRN_ChemName_Relationship>
primary

> <TS_Description>
single chemical compound

> <ChemNote>


> <STRUCTURE_Shown>
tested chemical

> <STRUCTURE_Formula>
C20H22N2

> <STRUCTURE_MW>
290.4021

> <STRUCTURE_ChemType>
defined organic

> <STRUCTURE_DefinedOrganicForm>
parent

> <STRUCTURE_IUPAC>
11-(1-methylpiperidin-4-ylidene)-6,11-dihydro-5H-benzo[5,6]cyclohepta[1,2-b]pyridine

> <STRUCTURE_SMILES>
CN1CC\C(CC1)=C2\c4ncccc4CCc3ccccc23

> <STRUCTURE_SMILES_Desalt>
CN1CC\C(CC1)=C2\c4ncccc4CCc3ccccc23

> <Substance_modify_yyyymmdd>
20080429

$$$$
