40054-69-1
ChemmineR-0914142331XD

 23 26  0  0  0  0  0  0  0  0  1 V2000
    5.4976   -4.9694    0.0000 C    0  0  0  0  0  0  0  0  0  0  0  0
    5.4976   -6.2945    0.0000 C    0  0  0  0  0  0  0  0  0  0  0  0
    6.6527   -6.9661    0.0000 C    0  0  0  0  0  0  0  0  0  0  0  0
    6.6527   -8.2912    0.0000 C    0  0  0  0  0  0  0  0  0  0  0  0
    5.5066   -8.9538    0.0000 C    0  0  0  0  0  0  0  0  0  0  0  0
    4.3605   -8.2912    0.0000 C    0  0  0  0  0  0  0  0  0  0  0  0
    4.3605   -6.9661    0.0000 C    0  0  0  0  0  0  0  0  0  0  0  0
    3.1965   -6.2945    0.0000 Cl   0  0  0  0  0  0  0  0  0  0  0  0
    6.6974   -4.3874    0.0000 N    0  0  0  0  0  0  0  0  0  0  0  0
    6.9929   -3.0891    0.0000 C    0  0  0  0  0  0  0  0  0  0  0  0
    6.1602   -2.0504    0.0000 C    0  0  0  0  0  0  0  0  0  0  0  0
    4.8261   -2.0504    0.0000 N    0  0  0  0  0  0  0  0  0  0  0  0
    4.0023   -3.0891    0.0000 C    0  0  0  0  0  0  0  0  0  0  0  0
    4.3068   -4.3963    0.0000 C    0  0  0  0  0  0  0  0  0  0  0  0
    3.1517   -5.0678    0.0000 C    0  0  0  0  0  0  0  0  0  0  0  0
    2.1489   -4.1993    0.0000 C    0  0  0  0  0  0  0  0  0  0  0  0
    0.8596   -4.5038    0.0000 C    0  0  0  0  0  0  0  0  0  0  0  0
    0.0000   -3.4830    0.0000 C    0  0  0  0  0  0  0  0  0  0  0  0
    2.6772   -2.9816    0.0000 S    0  0  0  0  0  0  0  0  0  0  0  0
    4.4142   -0.7879    0.0000 C    0  0  0  0  0  0  0  0  0  0  0  0
    3.1428   -0.3761    0.0000 C    0  0  0  0  0  0  0  0  0  0  0  0
    5.4887    0.0000    0.0000 N    0  0  0  0  0  0  0  0  0  0  0  0
    6.5631   -0.7790    0.0000 N    0  0  0  0  0  0  0  0  0  0  0  0
  1  2  1  0  0  0  0
  1  9  2  0  0  0  0
  1 14  1  0  0  0  0
  2  3  2  0  0  0  0
  2  7  1  0  0  0  0
  3  4  1  0  0  0  0
  4  5  2  0  0  0  0
  5  6  1  0  0  0  0
  6  7  2  0  0  0  0
  7  8  1  0  0  0  0
  9 10  1  0  0  0  0
 10 11  1  0  0  0  0
 11 12  1  0  0  0  0
 11 23  2  0  0  0  0
 12 13  1  0  0  0  0
 12 20  1  0  0  0  0
 13 14  2  0  0  0  0
 13 19  1  0  0  0  0
 14 15  1  0  0  0  0
 15 16  2  0  0  0  0
 16 17  1  0  0  0  0
 16 19  1  0  0  0  0
 17 18  1  0  0  0  0
 20 21  1  0  0  0  0
 20 22  2  0  0  0  0
 22 23  1  0  0  0  0
M  END
> <ID>
2723

> <Formula>
C17H15ClN4S

> <FW>
342.8458

> <DSSTox_CID>
3030

> <DSSTox_RID>
76838

> <DSSTox_GSID>
23030

> <DSSTox_FileID_Sort>
1522

> <TS_ChemName>
Etizolam

> <TS_ChemName_Synonyms>


> <TS_CASRN>
40054-69-1

> <CASRN_ChemName_Relationship>
primary

> <TS_Description>
single chemical compound

> <ChemNote>


> <STRUCTURE_Shown>
tested chemical

> <STRUCTURE_Formula>
C17H15ClN4S

> <STRUCTURE_MW>
342.8458

> <STRUCTURE_ChemType>
defined organic

> <STRUCTURE_DefinedOrganicForm>
parent

> <STRUCTURE_IUPAC>
4-(2-chlorophenyl)-2-ethyl-9-methyl-6H-thieno[3,2-f][1,2,4]triazolo[4,3-a][1,4]diazepine

> <STRUCTURE_SMILES>
Clc1ccccc1C4=NCc2nnc(C)n2c3sc(cc34)CC

> <STRUCTURE_SMILES_Desalt>
Clc1ccccc1C4=NCc2nnc(C)n2c3sc(cc34)CC

> <Substance_modify_yyyymmdd>
20080429

$$$$
