4205-90-7
ChemmineR-0914142331XD

 14 15  0  0  0  0  0  0  0  0  1 V2000
    6.7127   -1.9937    0.0000 C    0  0  0  0  0  0  0  0  0  0  0  0
    6.7127   -3.3228    0.0000 C    0  0  0  0  0  0  0  0  0  0  0  0
    5.5581   -3.9873    0.0000 C    0  0  0  0  0  0  0  0  0  0  0  0
    4.4102   -3.3228    0.0000 C    0  0  0  0  0  0  0  0  0  0  0  0
    3.2556   -3.9873    0.0000 Cl   0  0  0  0  0  0  0  0  0  0  0  0
    4.4102   -1.9937    0.0000 C    0  0  0  0  0  0  0  0  0  0  0  0
    3.2556   -1.3291    0.0000 N    0  0  0  0  0  0  0  0  0  0  0  0
    2.1078   -1.9937    0.0000 C    0  0  0  0  0  0  0  0  0  0  0  0
    1.9668   -3.3161    0.0000 N    0  0  0  0  0  0  0  0  0  0  0  0
    0.6646   -3.5913    0.0000 C    0  0  0  0  0  0  0  0  0  0  0  0
    0.0000   -2.4367    0.0000 C    0  0  0  0  0  0  0  0  0  0  0  0
    0.8928   -1.4499    0.0000 N    0  0  0  0  0  0  0  0  0  0  0  0
    5.5581   -1.3291    0.0000 C    0  0  0  0  0  0  0  0  0  0  0  0
    5.5581    0.0000    0.0000 Cl   0  0  0  0  0  0  0  0  0  0  0  0
  1  2  2  0  0  0  0
  1 13  1  0  0  0  0
  2  3  1  0  0  0  0
  3  4  2  0  0  0  0
  4  5  1  0  0  0  0
  4  6  1  0  0  0  0
  6  7  1  0  0  0  0
  6 13  2  0  0  0  0
  7  8  2  0  0  0  0
  8  9  1  0  0  0  0
  8 12  1  0  0  0  0
  9 10  1  0  0  0  0
 10 11  1  0  0  0  0
 11 12  1  0  0  0  0
 13 14  1  0  0  0  0
M  END
> <ID>
2572

> <Formula>
C9H9Cl2N3

> <FW>
230.0939

> <DSSTox_CID>
2846

> <DSSTox_RID>
76756

> <DSSTox_GSID>
22846

> <DSSTox_FileID_Sort>
1440

> <TS_ChemName>
Clonidine

> <TS_ChemName_Synonyms>


> <TS_CASRN>
4205-90-7

> <CASRN_ChemName_Relationship>
primary

> <TS_Description>
single chemical compound

> <ChemNote>


> <STRUCTURE_Shown>
tested chemical

> <STRUCTURE_Formula>
C9H9Cl2N3

> <STRUCTURE_MW>
230.0939

> <STRUCTURE_ChemType>
defined organic

> <STRUCTURE_DefinedOrganicForm>
parent

> <STRUCTURE_IUPAC>
N-(2,6-dichlorophenyl)imidazolidin-2-imine

> <STRUCTURE_SMILES>
Clc2cccc(Cl)c2\N=C1/NCCN1

> <STRUCTURE_SMILES_Desalt>
Clc2cccc(Cl)c2\N=C1/NCCN1

> <Substance_modify_yyyymmdd>
20080429

$$$$
