42200-33-9
ChemmineR-0914142331XD

 22 23  0  0  1  0  0  0  0  0  1 V2000
    8.0679   -2.0083    0.0000 C   0  0  0  0  0  0  0  0  0  0  0  0
    9.2221   -2.6777    0.0000 C   0  0  0  0  0  0  0  0  0  0  0  0
    8.0679   -0.6810    0.0000 C   0  0  0  0  0  0  0  0  0  0  0  0
    9.2221    0.0000    0.0000 C   0  0  0  0  0  0  0  0  0  0  0  0
   10.3763   -1.9852    0.0000 C   0  0  0  0  0  0  0  0  0  0  0  0
   10.3763   -0.6925    0.0000 C   0  0  0  0  0  0  0  0  0  0  0  0
    6.9137   -2.6777    0.0000 C   0  0  0  0  0  0  0  0  0  0  0  0
    6.9137   -4.0051    0.0000 O   0  0  0  0  0  0  0  0  0  0  0  0
    2.3084   -3.9935    0.0000 N   0  0  0  0  0  0  0  0  0  0  0  0
    1.1542   -4.6514    0.0000 C   0  0  0  0  0  0  0  0  0  0  0  0
    4.6053   -3.9935    0.0000 C   0  0  0  0  0  0  0  0  0  0  0  0
    5.7595   -4.6630    0.0000 C   0  0  0  0  0  0  0  0  0  0  0  0
    3.4511   -4.6514    0.0000 C   0  0  0  0  0  0  0  0  0  0  0  0
   11.5420   -2.6316    0.0000 O   0  0  0  0  0  0  0  0  0  0  0  0
   11.5420   -0.0346    0.0000 O   0  0  0  0  0  0  0  0  0  0  0  0
    4.6053   -2.6777    0.0000 O   0  0  0  0  0  0  0  0  0  0  0  0
    6.9137    0.0000    0.0000 C   0  0  0  0  0  0  0  0  0  0  0  0
    5.7595   -0.6925    0.0000 C   0  0  0  0  0  0  0  0  0  0  0  0
    5.7595   -1.9852    0.0000 C   0  0  0  0  0  0  0  0  0  0  0  0
    0.4963   -3.4972    0.0000 C   0  0  0  0  0  0  0  0  0  0  0  0
    1.8121   -5.8056    0.0000 C   0  0  0  0  0  0  0  0  0  0  0  0
    0.0000   -5.3209    0.0000 C   0  0  0  0  0  0  0  0  0  0  0  0
  1  2  1  0  0  0  0
  1  3  2  0  0  0  0
  1  7  1  0  0  0  0
  2  5  1  0  0  0  0
  3  4  1  0  0  0  0
  3 17  1  0  0  0  0
  4  6  1  0  0  0  0
  5 14  1  1  0  0  0
  5  6  1  0  0  0  0
  6 15  1  1  0  0  0
  7  8  1  0  0  0  0
  7 19  2  0  0  0  0
  8 12  1  0  0  0  0
  9 13  1  0  0  0  0
  9 10  1  0  0  0  0
 10 20  1  0  0  0  0
 10 21  1  0  0  0  0
 10 22  1  0  0  0  0
 11 12  1  0  0  0  0
 11 13  1  0  0  0  0
 11 16  1  0  0  0  0
 17 18  2  0  0  0  0
 18 19  1  0  0  0  0
M  END
> <ID>
2999

> <Formula>
C17H27NO4

> <FW>
309.4006

> <DSSTox_CID>
3342

> <DSSTox_RID>
76983

> <DSSTox_GSID>
23342

> <DSSTox_FileID_Sort>
1667

> <TS_ChemName>
Nadolol

> <TS_ChemName_Synonyms>


> <TS_CASRN>
42200-33-9

> <CASRN_ChemName_Relationship>
primary

> <TS_Description>
single chemical compound

> <ChemNote>
stereochem

> <STRUCTURE_Shown>
tested chemical

> <STRUCTURE_Formula>
C17H27NO4

> <STRUCTURE_MW>
309.4006

> <STRUCTURE_ChemType>
defined organic

> <STRUCTURE_DefinedOrganicForm>
parent

> <STRUCTURE_IUPAC>
(2R,3S)-5-[3-(tert-butylamino)-2-hydroxypropoxy]-1,2,3,4-tetrahydronaphthalene-2,3-diol

> <STRUCTURE_SMILES>
CC(C)(C)NCC(O)COc2cccc1C[C@@H](O)[C@@H](O)Cc12

> <STRUCTURE_SMILES_Desalt>
CC(C)(C)NCC(O)COc2cccc1C[C@@H](O)[C@@H](O)Cc12

> <Substance_modify_yyyymmdd>
20080429

$$$$
