42540-40-9
ChemmineR-0914142331XD

 36 38  0  0  1  0  0  0  0  0  2 V2000
    7.0827   -2.6540    0.0000 C    0  0  0  0  0  0  0  0  0  0  0  0
    8.4178   -3.9565    0.0000 N    0  0  0  0  0  0  0  0  0  0  0  0
    8.4178   -2.6540    0.0000 C    0  0  0  0  0  0  0  0  0  0  0  0
    7.0827   -3.9565    0.0000 C    0  0  0  0  0  0  0  0  0  0  0  0
    9.5576   -4.6404    0.0000 C    0  0  0  0  0  0  0  0  0  0  0  0
   10.7136   -3.9565    0.0000 C    0  0  0  0  0  0  0  0  0  0  0  0
    9.5576   -1.9538    0.0000 S    0  0  0  0  0  0  0  0  0  0  0  0
   10.7136   -2.6214    0.0000 C    0  0  0  0  0  0  0  0  0  0  0  0
    7.0827   -1.2863    0.0000 H    0  0  0  0  0  0  0  0  0  0  0  0
    8.4178   -1.2863    0.0000 H    0  0  0  0  0  0  0  0  0  0  0  0
    6.1220   -4.8846    0.0000 O    0  0  0  0  0  0  0  0  0  0  0  0
   11.8533   -4.6404    0.0000 C    0  0  0  0  0  0  0  0  0  0  0  0
    9.5576   -5.9592    0.0000 C    0  0  0  0  0  0  0  0  0  0  0  0
   10.7136   -6.6105    0.0000 O    0  0  0  0  0  0  0  0  0  0  0  0
    8.4341   -6.6105    0.0000 O    0  5  0  0  0  0  0  0  0  0  0  0
    5.7476   -2.6540    0.0000 N    0  0  0  0  0  0  0  0  0  0  0  0
    2.3120   -0.6350    0.0000 C    0  0  0  0  0  0  0  0  0  0  0  0
    2.3120   -1.9538    0.0000 C    0  0  0  0  0  0  0  0  0  0  0  0
    1.1397    0.0000    0.0000 C    0  0  0  0  0  0  0  0  0  0  0  0
    1.1397   -2.6540    0.0000 C    0  0  0  0  0  0  0  0  0  0  0  0
    0.0000   -0.6350    0.0000 C    0  0  0  0  0  0  0  0  0  0  0  0
    0.0000   -1.9538    0.0000 C    0  0  0  0  0  0  0  0  0  0  0  0
    4.6078   -0.6350    0.0000 O    0  0  0  0  0  0  0  0  0  0  0  0
    4.6078   -1.9538    0.0000 C    0  0  0  0  0  0  0  0  0  0  0  0
    3.4518   -2.6540    0.0000 C    0  0  0  0  0  0  0  0  0  0  0  0
    3.4518   -3.9891    0.0000 O    0  0  0  0  0  0  0  0  0  0  0  0
   13.0256   -3.9565    0.0000 S    0  0  0  0  0  0  0  0  0  0  0  0
   14.1491   -4.6404    0.0000 C    0  0  0  0  0  0  0  0  0  0  0  0
   15.2074   -3.8751    0.0000 N    0  0  0  0  0  0  0  0  0  0  0  0
   16.2820   -4.6404    0.0000 N    0  0  0  0  0  0  0  0  0  0  0  0
   14.5399   -5.9104    0.0000 N    0  0  0  0  0  0  0  0  0  0  0  0
   15.8750   -5.9104    0.0000 N    0  0  0  0  0  0  0  0  0  0  0  0
   15.2074   -2.5563    0.0000 C    0  0  0  0  0  0  0  0  0  0  0  0
    2.3120   -4.6404    0.0000 C    0  0  0  0  0  0  0  0  0  0  0  0
    2.3120   -5.9592    0.0000 O    0  0  0  0  0  0  0  0  0  0  0  0
    9.5413   -7.9782    0.0000 Na   0  3  0  0  0  0  0  0  0  0  0  0
  1  3  1  0  0  0  0
  1  4  1  0  0  0  0
  1  9  1  6  0  0  0
  1 16  1  1  0  0  0
  2  4  1  0  0  0  0
  2  5  1  0  0  0  0
  2  3  1  0  0  0  0
  3  7  1  0  0  0  0
  3 10  1  6  0  0  0
  4 11  2  0  0  0  0
  5  6  2  0  0  0  0
  5 13  1  0  0  0  0
  6  8  1  0  0  0  0
  6 12  1  0  0  0  0
  7  8  1  0  0  0  0
 12 27  1  0  0  0  0
 13 14  2  0  0  0  0
 13 15  1  0  0  0  0
 16 24  1  0  0  0  0
 17 19  2  0  0  0  0
 17 18  1  0  0  0  0
 18 20  2  0  0  0  0
 18 25  1  0  0  0  0
 19 21  1  0  0  0  0
 20 22  1  0  0  0  0
 21 22  2  0  0  0  0
 23 24  2  0  0  0  0
 24 25  1  0  0  0  0
 25 26  1  6  0  0  0
 26 34  1  0  0  0  0
 27 28  1  0  0  0  0
 28 29  1  0  0  0  0
 28 31  2  0  0  0  0
 29 30  1  0  0  0  0
 29 33  1  0  0  0  0
 30 32  2  0  0  0  0
 31 32  1  0  0  0  0
 34 35  2  0  0  0  0
M  END
> <ID>
2490

> <Formula>
C19H17N6NaO6S2

> <FW>
512.4946 (489.5054+22.9892)

> <DSSTox_CID>
2751

> <DSSTox_RID>
76715

> <DSSTox_GSID>
22751

> <DSSTox_FileID_Sort>
1399

> <TS_ChemName>
Cefamandole nafate

> <TS_ChemName_Synonyms>


> <TS_CASRN>
42540-40-9

> <CASRN_ChemName_Relationship>
primary

> <TS_Description>
single chemical compound

> <ChemNote>
stereochem

> <STRUCTURE_Shown>
tested chemical

> <STRUCTURE_Formula>
C19H17N6NaO6S2

> <STRUCTURE_MW>
512.4946

> <STRUCTURE_ChemType>
defined organic

> <STRUCTURE_DefinedOrganicForm>
salt

> <STRUCTURE_IUPAC>
sodium (6R,7R)-7-{[(2R)-2-(formyloxy)-2-phenylacetyl]amino}-3-{[(1-methyl-1H-tetrazol-5-yl)sulfanyl]methyl}-8-oxo-5-thia-1-azabicyclo[4.2.0]oct-2-ene-2-carboxylate

> <STRUCTURE_SMILES>
[Na+].O=CO[C@H](c1ccccc1)C(=O)N[C@@H]4C(=O)N3C(=C(CSc2nnnn2C)CS[C@@H]34)C([O-])=O

> <STRUCTURE_SMILES_Desalt>
O=CO[C@H](c1ccccc1)C(=O)N[C@@H]4C(=O)N3C(=C(CSc2nnnn2C)CS[C@@H]34)C(=O)O

> <Substance_modify_yyyymmdd>
20080429

$$$$
