427-51-0
ChemmineR-0914142331XD

 32 36  0  0  1  0  0  0  0  0  1 V2000
    3.4617   -4.7310    0.0000 C    0  0  0  0  0  0  0  0  0  0  0  0
    3.4617   -6.0696    0.0000 C    0  0  0  0  0  0  0  0  0  0  0  0
    2.3424   -4.0733    0.0000 C    0  0  0  0  0  0  0  0  0  0  0  0
    1.1539   -4.7656    0.0000 C    0  0  0  0  0  0  0  0  0  0  0  0
    6.9004   -2.7463    0.0000 C    0  0  0  0  0  0  0  0  0  0  0  0
    4.6272   -4.0733    0.0000 C    0  0  0  0  0  0  0  0  0  0  0  0
    5.7580   -4.7656    0.0000 C    0  0  0  0  0  0  0  0  0  0  0  0
    1.1539   -3.4387    0.0000 C    0  0  0  0  0  0  0  0  0  0  0  0
    4.6272   -6.7388    0.0000 C    0  0  0  0  0  0  0  0  0  0  0  0
    2.3424   -6.7388    0.0000 C    0  0  0  0  0  0  0  0  0  0  0  0
    8.1351   -2.3309    0.0000 C    0  0  0  0  0  0  0  0  0  0  0  0
    5.7580   -6.1042    0.0000 C    0  0  0  0  0  0  0  0  0  0  0  0
    6.9004   -4.0733    0.0000 C    0  0  0  0  0  0  0  0  0  0  0  0
    1.1539   -6.0696    0.0000 C    0  0  0  0  0  0  0  0  0  0  0  0
    5.7349   -2.1232    0.0000 C    0  0  0  0  0  0  0  0  0  0  0  0
    4.6272   -2.7463    0.0000 C    0  0  0  0  0  0  0  0  0  0  0  0
    8.9197   -3.4387    0.0000 C    0  0  0  0  0  0  0  0  0  0  0  0
    8.1351   -4.4887    0.0000 C    0  0  0  0  0  0  0  0  0  0  0  0
    8.5851   -1.1885    0.0000 C    0  0  0  0  0  0  0  0  0  0  0  0
    0.0000   -6.8888    0.0000 O    0  0  0  0  0  0  0  0  0  0  0  0
    7.8927    0.0000    0.0000 O    0  0  0  0  0  0  0  0  0  0  0  0
    4.6272   -8.0889    0.0000 Cl   0  0  0  0  0  0  0  0  0  0  0  0
    9.5544   -2.3309    0.0000 O    0  0  0  0  0  0  0  0  0  0  0  0
    3.4848   -3.3579    0.0000 C    0  0  0  0  0  0  0  0  0  0  0  0
    6.9004   -1.5462    0.0000 C    0  0  0  0  0  0  0  0  0  0  0  0
    9.9352   -1.1885    0.0000 C    0  0  0  0  0  0  0  0  0  0  0  0
    4.6272   -5.4234    0.0000 H    0  0  0  0  0  0  0  0  0  0  0  0
    5.7580   -3.4387    0.0000 H    0  0  0  0  0  0  0  0  0  0  0  0
    6.9004   -5.4234    0.0000 H    0  0  0  0  0  0  0  0  0  0  0  0
   10.2121   -3.4848    0.0000 C    0  0  0  0  0  0  0  0  0  0  0  0
   11.5391   -3.4848    0.0000 C    0  0  0  0  0  0  0  0  0  0  0  0
    9.5544   -4.6387    0.0000 O    0  0  0  0  0  0  0  0  0  0  0  0
  1  2  1  0  0  0  0
  1  3  1  0  0  0  0
  1  6  1  0  0  0  0
  1 24  1  1  0  0  0
  2  9  1  0  0  0  0
  2 10  2  0  0  0  0
  3  4  1  0  0  0  0
  3  8  1  6  0  0  0
  4 14  1  0  0  0  0
  4  8  1  6  0  0  0
  5 15  1  0  0  0  0
  5 11  1  0  0  0  0
  5 25  1  1  0  0  0
  5 13  1  0  0  0  0
  6  7  1  0  0  0  0
  6 16  1  0  0  0  0
  6 27  1  6  0  0  0
  7 12  1  0  0  0  0
  7 13  1  0  0  0  0
  7 28  1  1  0  0  0
  9 22  1  0  0  0  0
  9 12  2  0  0  0  0
 10 14  1  0  0  0  0
 11 19  1  1  0  0  0
 11 23  1  6  0  0  0
 11 17  1  0  0  0  0
 13 18  1  0  0  0  0
 13 29  1  6  0  0  0
 14 20  2  0  0  0  0
 15 16  1  0  0  0  0
 17 18  1  0  0  0  0
 19 21  2  0  0  0  0
 19 26  1  0  0  0  0
 23 30  1  0  0  0  0
 30 31  1  0  0  0  0
 30 32  2  0  0  0  0
M  END
> <ID>
356

> <Formula>
C24H29ClO4

> <FW>
416.9377

> <DSSTox_CID>
366

> <DSSTox_RID>
75542

> <DSSTox_GSID>
20366

> <DSSTox_FileID_Sort>
226

> <TS_ChemName>
Cyproterone acetate

> <TS_ChemName_Synonyms>


> <TS_CASRN>
427-51-0

> <CASRN_ChemName_Relationship>
primary

> <TS_Description>
single chemical compound

> <ChemNote>
stereochem

> <STRUCTURE_Shown>
tested chemical

> <STRUCTURE_Formula>
C24H29ClO4

> <STRUCTURE_MW>
416.9377

> <STRUCTURE_ChemType>
defined organic

> <STRUCTURE_DefinedOrganicForm>
parent

> <STRUCTURE_IUPAC>
(1R,3aS,3bR,7aR,8aS,8bS,8cS,10aS)-1-acetyl-5-chloro-8b,10a-dimethyl-7-oxo-1,2,3,3a,3b,7,7a,8,8a,8b,8c,9,10,10a-tetradecahydrocyclopenta[a]cyclopropa[g]phenanthren-1-yl acetate

> <STRUCTURE_SMILES>
CC(=O)[C@@]4(OC(C)=O)CC[C@H]3[C@@H]5C=C(Cl)C2=CC(=O)[C@@H]1C[C@@H]1[C@]2(C)[C@H]5CC[C@@]34C

> <STRUCTURE_SMILES_Desalt>
CC(=O)[C@@]4(OC(C)=O)CC[C@H]3[C@@H]5C=C(Cl)C2=CC(=O)[C@@H]1C[C@@H]1[C@]2(C)[C@H]5CC[C@@]34C

> <Substance_modify_yyyymmdd>
20080429

$$$$
