42971-09-5
ChemmineR-0914142331XD

 27 31  0  0  1  0  0  0  0  0  1 V2000
    4.5315   -2.6088    0.0000 N   0  0  0  0  0  0  0  0  0  0  0  0
    5.6599   -1.9498    0.0000 C   0  0  0  0  0  0  0  0  0  0  0  0
    4.5315   -3.9177    0.0000 C   0  0  0  0  0  0  0  0  0  0  0  0
    5.6599   -0.6409    0.0000 C   0  0  0  0  0  0  0  0  0  0  0  0
    3.4031   -1.9498    0.0000 C   0  0  0  0  0  0  0  0  0  0  0  0
    5.6599   -4.5586    0.0000 C   0  0  0  0  0  0  0  0  0  0  0  0
    6.7702   -3.9177    0.0000 C   0  0  0  0  0  0  0  0  0  0  0  0
    6.7702   -2.6088    0.0000 C   0  0  0  0  0  0  0  0  0  0  0  0
    3.4031   -0.6409    0.0000 C   0  0  0  0  0  0  0  0  0  0  0  0
    7.8985   -1.9498    0.0000 N   0  0  0  0  0  0  0  0  0  0  0  0
    3.3670   -4.5947    0.0000 C   0  0  0  0  0  0  0  0  0  0  0  0
    6.7702    0.0000    0.0000 C   0  0  0  0  0  0  0  0  0  0  0  0
    7.8985   -0.6409    0.0000 C   0  0  0  0  0  0  0  0  0  0  0  0
    3.3670   -5.8675    0.0000 O   0  0  0  0  0  0  0  0  0  0  0  0
    7.8985   -4.5586    0.0000 C   0  0  0  0  0  0  0  0  0  0  0  0
    6.7702   -5.2266    0.0000 C   0  0  0  0  0  0  0  0  0  0  0  0
    2.2206   -3.9357    0.0000 O   0  0  0  0  0  0  0  0  0  0  0  0
    2.2748   -2.6088    0.0000 C   0  0  0  0  0  0  0  0  0  0  0  0
    9.0269   -2.6088    0.0000 C   0  0  0  0  0  0  0  0  0  0  0  0
    2.2748    0.0000    0.0000 C   0  0  0  0  0  0  0  0  0  0  0  0
    9.0269   -3.9177    0.0000 C   0  0  0  0  0  0  0  0  0  0  0  0
    1.1284   -4.5766    0.0000 C   0  0  0  0  0  0  0  0  0  0  0  0
    5.6599   -5.8675    0.0000 C   0  0  0  0  0  0  0  0  0  0  0  0
    1.1645   -1.9498    0.0000 C   0  0  0  0  0  0  0  0  0  0  0  0
    1.1645   -0.6409    0.0000 C   0  0  0  0  0  0  0  0  0  0  0  0
    0.0000   -3.9177    0.0000 C   0  0  0  0  0  0  0  0  0  0  0  0
    6.7521   -1.3540    0.0000 H   0  0  0  0  0  0  0  0  0  0  0  0
  1  2  1  0  0  0  0
  1  3  1  0  0  0  0
  1  5  1  0  0  0  0
  2  4  2  0  0  0  0
  2  8  1  0  0  0  0
  3  6  2  0  0  0  0
  3 11  1  0  0  0  0
  4 12  1  0  0  0  0
  4  9  1  0  0  0  0
  5  9  2  0  0  0  0
  5 18  1  0  0  0  0
  6  7  1  0  0  0  0
  7 15  1  0  0  0  0
  7 16  1  6  0  0  0
  7  8  1  0  0  0  0
  8 10  1  0  0  0  0
  8 27  1  6  0  0  0
  9 20  1  0  0  0  0
 10 13  1  0  0  0  0
 10 19  1  0  0  0  0
 11 14  2  0  0  0  0
 11 17  1  0  0  0  0
 12 13  1  0  0  0  0
 15 21  1  0  0  0  0
 16 23  1  0  0  0  0
 17 22  1  0  0  0  0
 18 24  2  0  0  0  0
 19 21  1  0  0  0  0
 20 25  2  0  0  0  0
 22 26  1  0  0  0  0
 24 25  1  0  0  0  0
M  END
> <ID>
3342

> <Formula>
C22H26N2O2

> <FW>
350.454

> <DSSTox_CID>
3740

> <DSSTox_RID>
77176

> <DSSTox_GSID>
23740

> <DSSTox_FileID_Sort>
1859

> <TS_ChemName>
Vinpocetine

> <TS_ChemName_Synonyms>


> <TS_CASRN>
42971-09-5

> <CASRN_ChemName_Relationship>
primary

> <TS_Description>
single chemical compound

> <ChemNote>
stereochem

> <STRUCTURE_Shown>
tested chemical

> <STRUCTURE_Formula>
C22H26N2O2

> <STRUCTURE_MW>
350.454

> <STRUCTURE_ChemType>
defined organic

> <STRUCTURE_DefinedOrganicForm>
parent

> <STRUCTURE_IUPAC>
ethyl (3alpha,16alpha)-eburnamenine-14-carboxylate

> <STRUCTURE_SMILES>
O=C(OCC)C1=C[C@@]5(CCCN4CCc3c(n1c2ccccc23)[C@@H]45)CC

> <STRUCTURE_SMILES_Desalt>
O=C(OCC)C1=C[C@@]5(CCCN4CCc3c(n1c2ccccc23)[C@@H]45)CC

> <Substance_modify_yyyymmdd>
20080429

$$$$
