434-13-9
ChemmineR-0914142331XD

 32 35  0  0  1  0  0  0  0  0  1 V2000
    6.8295   -3.7020    0.0000 C   0  0  0  0  0  0  0  0  0  0  0  0
    3.3573   -5.6679    0.0000 C   0  0  0  0  0  0  0  0  0  0  0  0
    6.8295   -5.0296    0.0000 C   0  0  0  0  0  0  0  0  0  0  0  0
    4.5190   -5.0296    0.0000 C   0  0  0  0  0  0  0  0  0  0  0  0
    5.6934   -5.6679    0.0000 C   0  0  0  0  0  0  0  0  0  0  0  0
    8.1316   -3.2680    0.0000 C   0  0  0  0  0  0  0  0  0  0  0  0
    3.3573   -7.0210    0.0000 C   0  0  0  0  0  0  0  0  0  0  0  0
    5.6934   -3.0382    0.0000 C   0  0  0  0  0  0  0  0  0  0  0  0
    4.5190   -3.7020    0.0000 C   0  0  0  0  0  0  0  0  0  0  0  0
    8.1316   -5.4508    0.0000 C   0  0  0  0  0  0  0  0  0  0  0  0
    2.1701   -5.0296    0.0000 C   0  0  0  0  0  0  0  0  0  0  0  0
    8.8847   -4.3402    0.0000 C   0  0  0  0  0  0  0  0  0  0  0  0
    5.6934   -7.0210    0.0000 C   0  0  0  0  0  0  0  0  0  0  0  0
   11.6165   -1.3787    0.0000 C   0  0  0  0  0  0  0  0  0  0  0  0
    4.5062   -7.6720    0.0000 C   0  0  0  0  0  0  0  0  0  0  0  0
    2.1701   -7.6848    0.0000 C   0  0  0  0  0  0  0  0  0  0  0  0
   11.6165    0.0000    0.0000 O   0  0  0  0  0  0  0  0  0  0  0  0
    8.1316   -1.9276    0.0000 C   0  0  0  0  0  0  0  0  0  0  0  0
    9.3188   -1.2765    0.0000 C   0  0  0  0  0  0  0  0  0  0  0  0
   10.4038   -1.9914    0.0000 C   0  0  0  0  0  0  0  0  0  0  0  0
    6.8295   -2.4254    0.0000 C   0  0  0  0  0  0  0  0  0  0  0  0
    1.0212   -5.6679    0.0000 C   0  0  0  0  0  0  0  0  0  0  0  0
    1.0212   -7.0210    0.0000 C   0  0  0  0  0  0  0  0  0  0  0  0
    3.3573   -4.4168    0.0000 C   0  0  0  0  0  0  0  0  0  0  0  0
   12.7654   -2.0552    0.0000 O   0  0  0  0  0  0  0  0  0  0  0  0
    0.0000   -7.6593    0.0000 O   0  0  0  0  0  0  0  0  0  0  0  0
    6.9444   -1.2765    0.0000 C   0  0  0  0  0  0  0  0  0  0  0  0
    3.3573   -8.3486    0.0000 H   0  0  0  0  0  0  0  0  0  0  0  0
    4.5190   -6.3572    0.0000 H   0  0  0  0  0  0  0  0  0  0  0  0
    5.6934   -4.3402    0.0000 H   0  0  0  0  0  0  0  0  0  0  0  0
    6.8295   -6.3572    0.0000 H   0  0  0  0  0  0  0  0  0  0  0  0
    8.1316   -4.5956    0.0000 H   0  0  0  0  0  0  0  0  0  0  0  0
  1  3  1  0  0  0  0
  1  6  1  0  0  0  0
  1  8  1  0  0  0  0
  1 21  1  1  0  0  0
  2  4  1  0  0  0  0
  2  7  1  0  0  0  0
  2 11  1  0  0  0  0
  2 24  1  1  0  0  0
  3  5  1  0  0  0  0
  3 10  1  0  0  0  0
  3 31  1  6  0  0  0
  4  9  1  0  0  0  0
  4  5  1  0  0  0  0
  4 29  1  6  0  0  0
  5 13  1  0  0  0  0
  5 30  1  1  0  0  0
  6 12  1  0  0  0  0
  6 18  1  0  0  0  0
  6 32  1  6  0  0  0
  7 16  1  0  0  0  0
  7 15  1  0  0  0  0
  7 28  1  1  0  0  0
  8  9  1  0  0  0  0
 10 12  1  0  0  0  0
 11 22  1  0  0  0  0
 13 15  1  0  0  0  0
 14 20  1  0  0  0  0
 14 17  2  0  0  0  0
 14 25  1  0  0  0  0
 16 23  1  0  0  0  0
 18 19  1  0  0  0  0
 18 27  1  6  0  0  0
 19 20  1  0  0  0  0
 22 23  1  0  0  0  0
 23 26  1  6  0  0  0
M  END
> <ID>
749

> <Formula>
C24H40O3

> <FW>
376.5726

> <DSSTox_CID>
779

> <DSSTox_RID>
75786

> <DSSTox_GSID>
20779

> <DSSTox_FileID_Sort>
470

> <TS_ChemName>
Lithocholic acid

> <TS_ChemName_Synonyms>


> <TS_CASRN>
434-13-9

> <CASRN_ChemName_Relationship>
primary

> <TS_Description>
single chemical compound

> <ChemNote>
stereochem

> <STRUCTURE_Shown>
tested chemical

> <STRUCTURE_Formula>
C24H40O3

> <STRUCTURE_MW>
376.5726

> <STRUCTURE_ChemType>
defined organic

> <STRUCTURE_DefinedOrganicForm>
parent

> <STRUCTURE_IUPAC>
(3alpha,5beta)-3-hydroxycholan-24-oic acid

> <STRUCTURE_SMILES>
O=C(O)CC[C@@H](C)[C@H]4CC[C@@H]3[C@]4(C)CC[C@H]1[C@H]3CC[C@@H]2C[C@H](O)CC[C@]12C

> <STRUCTURE_SMILES_Desalt>
O=C(O)CC[C@@H](C)[C@H]4CC[C@@H]3[C@]4(C)CC[C@H]1[C@H]3CC[C@@H]2C[C@H](O)CC[C@]12C

> <Substance_modify_yyyymmdd>
20080429

$$$$
