447-41-6
ChemmineR-0914142331XD

 22 23  0  0  0  0  0  0  0  0  1 V2000
   10.6369   -3.4570    0.0000 C   0  0  0  0  0  0  0  0  0  0  0  0
    9.9668   -4.6058    0.0000 C   0  0  0  0  0  0  0  0  0  0  0  0
   10.6369   -5.7652    0.0000 O   0  0  0  0  0  0  0  0  0  0  0  0
    8.6478   -4.6058    0.0000 C   0  0  0  0  0  0  0  0  0  0  0  0
    7.9777   -3.4570    0.0000 C   0  0  0  0  0  0  0  0  0  0  0  0
    8.6478   -2.3082    0.0000 C   0  0  0  0  0  0  0  0  0  0  0  0
    7.9777   -1.1594    0.0000 C   0  0  0  0  0  0  0  0  0  0  0  0
    8.6478    0.0000    0.0000 O   0  0  0  0  0  0  0  0  0  0  0  0
    6.6481   -1.1594    0.0000 C   0  0  0  0  0  0  0  0  0  0  0  0
    5.9886    0.0000    0.0000 C   0  0  0  0  0  0  0  0  0  0  0  0
    5.9886   -2.3082    0.0000 N   0  0  0  0  0  0  0  0  0  0  0  0
    4.6590   -2.3082    0.0000 C   0  0  0  0  0  0  0  0  0  0  0  0
    3.9888   -1.1594    0.0000 C   0  0  0  0  0  0  0  0  0  0  0  0
    3.9888   -3.4570    0.0000 C   0  0  0  0  0  0  0  0  0  0  0  0
    2.6592   -3.4570    0.0000 C   0  0  0  0  0  0  0  0  0  0  0  0
    1.9891   -4.6058    0.0000 C   0  0  0  0  0  0  0  0  0  0  0  0
    2.6592   -5.7652    0.0000 C   0  0  0  0  0  0  0  0  0  0  0  0
    1.9891   -6.9140    0.0000 C   0  0  0  0  0  0  0  0  0  0  0  0
    0.6595   -6.9140    0.0000 C   0  0  0  0  0  0  0  0  0  0  0  0
    0.0000   -5.7652    0.0000 C   0  0  0  0  0  0  0  0  0  0  0  0
    0.6595   -4.6058    0.0000 C   0  0  0  0  0  0  0  0  0  0  0  0
    9.9668   -2.3082    0.0000 C   0  0  0  0  0  0  0  0  0  0  0  0
  1  2  2  0  0  0  0
  1 22  1  0  0  0  0
  2  3  1  0  0  0  0
  2  4  1  0  0  0  0
  4  5  2  0  0  0  0
  5  6  1  0  0  0  0
  6  7  1  0  0  0  0
  6 22  2  0  0  0  0
  7  8  1  0  0  0  0
  7  9  1  0  0  0  0
  9 10  1  0  0  0  0
  9 11  1  0  0  0  0
 11 12  1  0  0  0  0
 12 13  1  0  0  0  0
 12 14  1  0  0  0  0
 14 15  1  0  0  0  0
 15 16  1  0  0  0  0
 16 17  2  0  0  0  0
 16 21  1  0  0  0  0
 17 18  1  0  0  0  0
 18 19  2  0  0  0  0
 19 20  1  0  0  0  0
 20 21  2  0  0  0  0
M  END
> <ID>
3037

> <Formula>
C19H25NO2

> <FW>
299.4073

> <DSSTox_CID>
3387

> <DSSTox_RID>
77009

> <DSSTox_GSID>
23387

> <DSSTox_FileID_Sort>
1693

> <TS_ChemName>
Nylidrin

> <TS_ChemName_Synonyms>


> <TS_CASRN>
447-41-6

> <CASRN_ChemName_Relationship>
primary

> <TS_Description>
single chemical compound

> <ChemNote>


> <STRUCTURE_Shown>
tested chemical

> <STRUCTURE_Formula>
C19H25NO2

> <STRUCTURE_MW>
299.4073

> <STRUCTURE_ChemType>
defined organic

> <STRUCTURE_DefinedOrganicForm>
parent

> <STRUCTURE_IUPAC>
4-{1-hydroxy-2-[(4-phenylbutan-2-yl)amino]propyl}phenol

> <STRUCTURE_SMILES>
OC(c1ccc(O)cc1)C(C)NC(C)CCc2ccccc2

> <STRUCTURE_SMILES_Desalt>
OC(c1ccc(O)cc1)C(C)NC(C)CCc2ccccc2

> <Substance_modify_yyyymmdd>
20080429

$$$$
