456-59-7
ChemmineR-0914142331XD

 20 21  0  0  0  0  0  0  0  0  1 V2000
    8.6496   -2.2986    0.0000 C   0  0  0  0  0  0  0  0  0  0  0  0
    7.9849   -3.4524    0.0000 C   0  0  0  0  0  0  0  0  0  0  0  0
    7.7542   -4.7633    0.0000 C   0  0  0  0  0  0  0  0  0  0  0  0
    9.2311   -3.9048    0.0000 C   0  0  0  0  0  0  0  0  0  0  0  0
    6.6464   -3.4524    0.0000 C   0  0  0  0  0  0  0  0  0  0  0  0
    5.9818   -2.2986    0.0000 C   0  0  0  0  0  0  0  0  0  0  0  0
    4.6525   -2.2986    0.0000 O   0  0  0  0  0  0  0  0  0  0  0  0
    3.9878   -1.1539    0.0000 C   0  0  0  0  0  0  0  0  0  0  0  0
    4.6525    0.0000    0.0000 O   0  0  0  0  0  0  0  0  0  0  0  0
    2.6586   -1.1539    0.0000 C   0  0  0  0  0  0  0  0  0  0  0  0
    1.9939    0.0000    0.0000 O   0  0  0  0  0  0  0  0  0  0  0  0
    1.9939   -2.2986    0.0000 C   0  0  0  0  0  0  0  0  0  0  0  0
    2.6586   -3.4524    0.0000 C   0  0  0  0  0  0  0  0  0  0  0  0
    1.9939   -4.6063    0.0000 C   0  0  0  0  0  0  0  0  0  0  0  0
    0.6646   -4.6063    0.0000 C   0  0  0  0  0  0  0  0  0  0  0  0
    0.0000   -3.4524    0.0000 C   0  0  0  0  0  0  0  0  0  0  0  0
    0.6646   -2.2986    0.0000 C   0  0  0  0  0  0  0  0  0  0  0  0
    6.6464   -1.1539    0.0000 C   0  0  0  0  0  0  0  0  0  0  0  0
    7.9849   -1.1539    0.0000 C   0  0  0  0  0  0  0  0  0  0  0  0
    8.6496    0.0000    0.0000 C   0  0  0  0  0  0  0  0  0  0  0  0
  1  2  1  0  0  0  0
  1 19  1  0  0  0  0
  2  3  1  0  0  0  0
  2  4  1  0  0  0  0
  2  5  1  0  0  0  0
  5  6  1  0  0  0  0
  6  7  1  0  0  0  0
  6 18  1  0  0  0  0
  7  8  1  0  0  0  0
  8  9  2  0  0  0  0
  8 10  1  0  0  0  0
 10 11  1  0  0  0  0
 10 12  1  0  0  0  0
 12 13  2  0  0  0  0
 12 17  1  0  0  0  0
 13 14  1  0  0  0  0
 14 15  2  0  0  0  0
 15 16  1  0  0  0  0
 16 17  2  0  0  0  0
 18 19  1  0  0  0  0
 19 20  1  0  0  0  0
M  END
> <ID>
2586

> <Formula>
C17H24O3

> <FW>
276.3707

> <DSSTox_CID>
2862

> <DSSTox_RID>
76763

> <DSSTox_GSID>
22862

> <DSSTox_FileID_Sort>
1447

> <TS_ChemName>
Cyclandelate

> <TS_ChemName_Synonyms>


> <TS_CASRN>
456-59-7

> <CASRN_ChemName_Relationship>
primary

> <TS_Description>
single chemical compound

> <ChemNote>


> <STRUCTURE_Shown>
tested chemical

> <STRUCTURE_Formula>
C17H24O3

> <STRUCTURE_MW>
276.3707

> <STRUCTURE_ChemType>
defined organic

> <STRUCTURE_DefinedOrganicForm>
parent

> <STRUCTURE_IUPAC>
3,3,5-trimethylcyclohexyl hydroxy(phenyl)acetate

> <STRUCTURE_SMILES>
O=C(OC1CC(C)CC(C)(C)C1)C(O)c2ccccc2

> <STRUCTURE_SMILES_Desalt>
O=C(OC1CC(C)CC(C)(C)C1)C(O)c2ccccc2

> <Substance_modify_yyyymmdd>
20080429

$$$$
