4630-95-9
ChemmineR-0914142331XD

 24 25  0  0  0  0  0  0  0  0  2 V2000
    4.4960   -3.4774    0.0000 C    0  0  0  0  0  0  0  0  0  0  0  0
    3.8374   -2.3183    0.0000 C    0  0  0  0  0  0  0  0  0  0  0  0
    2.4851   -2.3183    0.0000 C    0  0  0  0  0  0  0  0  0  0  0  0
    1.8265   -1.1591    0.0000 C    0  0  0  0  0  0  0  0  0  0  0  0
    2.4851    0.0000    0.0000 C    0  0  0  0  0  0  0  0  0  0  0  0
    3.8374    0.0000    0.0000 C    0  0  0  0  0  0  0  0  0  0  0  0
    4.4960   -1.1591    0.0000 C    0  0  0  0  0  0  0  0  0  0  0  0
    5.8396   -3.4774    0.0000 C    0  0  0  0  0  0  0  0  0  0  0  0
    6.4982   -2.3183    0.0000 C    0  0  0  0  0  0  0  0  0  0  0  0
    7.8417   -2.3183    0.0000 C    0  0  0  0  0  0  0  0  0  0  0  0
    8.5179   -3.4774    0.0000 C    0  0  0  0  0  0  0  0  0  0  0  0
    7.8417   -4.6365    0.0000 C    0  0  0  0  0  0  0  0  0  0  0  0
    6.4982   -4.6365    0.0000 C    0  0  0  0  0  0  0  0  0  0  0  0
    3.8374   -4.6365    0.0000 C    0  0  0  0  0  0  0  0  0  0  0  0
    4.3731   -5.8659    0.0000 C    0  0  0  0  0  0  0  0  0  0  0  0
    3.3896   -6.7528    0.0000 C    0  0  0  0  0  0  0  0  0  0  0  0
    2.2305   -6.0942    0.0000 N    0  3  0  0  0  0  0  0  0  0  0  0
    0.9572   -5.6727    0.0000 C    0  0  0  0  0  0  0  0  0  0  0  0
    0.0000   -6.6123    0.0000 C    0  0  0  0  0  0  0  0  0  0  0  0
    1.6860   -7.3061    0.0000 C    0  0  0  0  0  0  0  0  0  0  0  0
    2.1426   -8.3335    0.0000 C    0  0  0  0  0  0  0  0  0  0  0  0
    2.4939   -4.7770    0.0000 C    0  0  0  0  0  0  0  0  0  0  0  0
    1.6070   -3.7760    0.0000 C    0  0  0  0  0  0  0  0  0  0  0  0
    4.2853   -8.7813    0.0000 Br   0  5  0  0  0  0  0  0  0  0  0  0
  1  2  1  0  0  0  0
  1  8  1  0  0  0  0
  1 14  2  0  0  0  0
  2  3  2  0  0  0  0
  2  7  1  0  0  0  0
  3  4  1  0  0  0  0
  4  5  2  0  0  0  0
  5  6  1  0  0  0  0
  6  7  2  0  0  0  0
  8  9  2  0  0  0  0
  8 13  1  0  0  0  0
  9 10  1  0  0  0  0
 10 11  2  0  0  0  0
 11 12  1  0  0  0  0
 12 13  2  0  0  0  0
 14 15  1  0  0  0  0
 14 22  1  0  0  0  0
 15 16  1  0  0  0  0
 16 17  1  0  0  0  0
 17 18  1  0  0  0  0
 17 20  1  0  0  0  0
 17 22  1  0  0  0  0
 18 19  1  0  0  0  0
 20 21  1  0  0  0  0
 22 23  1  0  0  0  0
M  END
> <ID>
3142

> <Formula>
C22H28BrN

> <FW>
386.3684 (306.4639+79.9045)

> <DSSTox_CID>
3508

> <DSSTox_RID>
77057

> <DSSTox_GSID>
23508

> <DSSTox_FileID_Sort>
1740

> <TS_ChemName>
Prifinium bromide

> <TS_ChemName_Synonyms>


> <TS_CASRN>
4630-95-9

> <CASRN_ChemName_Relationship>
primary

> <TS_Description>
single chemical compound

> <ChemNote>
ammonium

> <STRUCTURE_Shown>
tested chemical

> <STRUCTURE_Formula>
C22H28BrN

> <STRUCTURE_MW>
386.3684

> <STRUCTURE_ChemType>
defined organic

> <STRUCTURE_DefinedOrganicForm>
salt

> <STRUCTURE_IUPAC>
3-(diphenylmethylidene)-1,1-diethyl-2-methylpyrrolidinium bromide

> <STRUCTURE_SMILES>
[Br-].CC[N+]3(CC)CC/C(=C(\c1ccccc1)c2ccccc2)C3C

> <STRUCTURE_SMILES_Desalt>
CC[N+]3(CC)CC/C(=C(\c1ccccc1)c2ccccc2)C3C

> <Substance_modify_yyyymmdd>
20080429

$$$$
