4655-34-9
ChemmineR-0914142331XD

  9  8  0  0  0  0  0  0  0  0  1 V2000
    0.0000   -1.9937    0.0000 C   0  0  0  0  0  0  0  0  0  0  0  0
    1.1524   -1.3311    0.0000 C   0  0  0  0  0  0  0  0  0  0  0  0
    1.1524    0.0000    0.0000 C   0  0  0  0  0  0  0  0  0  0  0  0
    2.3049   -1.9937    0.0000 C   0  0  0  0  0  0  0  0  0  0  0  0
    2.3049   -3.3248    0.0000 O   0  0  0  0  0  0  0  0  0  0  0  0
    3.4573   -1.3311    0.0000 O   0  0  0  0  0  0  0  0  0  0  0  0
    4.6097   -1.9937    0.0000 C   0  0  0  0  0  0  0  0  0  0  0  0
    5.7622   -1.3311    0.0000 C   0  0  0  0  0  0  0  0  0  0  0  0
    4.6097   -3.3248    0.0000 C   0  0  0  0  0  0  0  0  0  0  0  0
  1  2  2  0  0  0  0
  2  3  1  0  0  0  0
  2  4  1  0  0  0  0
  4  5  2  0  0  0  0
  4  6  1  0  0  0  0
  6  7  1  0  0  0  0
  7  8  1  0  0  0  0
  7  9  1  0  0  0  0
M  END
> <ID>
2056

> <Formula>
C7H12O2

> <FW>
128.169

> <DSSTox_CID>
2218

> <DSSTox_RID>
76524

> <DSSTox_GSID>
22218

> <DSSTox_FileID_Sort>
1208

> <TS_ChemName>
Isopropyl methacrylate

> <TS_ChemName_Synonyms>


> <TS_CASRN>
4655-34-9

> <CASRN_ChemName_Relationship>
primary

> <TS_Description>
single chemical compound

> <ChemNote>


> <STRUCTURE_Shown>
tested chemical

> <STRUCTURE_Formula>
C7H12O2

> <STRUCTURE_MW>
128.169

> <STRUCTURE_ChemType>
defined organic

> <STRUCTURE_DefinedOrganicForm>
parent

> <STRUCTURE_IUPAC>
propan-2-yl 2-methylprop-2-enoate

> <STRUCTURE_SMILES>
C=C(C)C(=O)OC(C)C

> <STRUCTURE_SMILES_Desalt>
C=C(C)C(=O)OC(C)C

> <Substance_modify_yyyymmdd>
20080429

$$$$
