466-06-8
ChemmineR-0914142331XD

 40 45  0  0  1  0  0  0  0  0  1 V2000
   11.5295   -6.7847    0.0000 C   0  0  0  0  0  0  0  0  0  0  0  0
   11.5295   -5.4839    0.0000 C   0  0  0  0  0  0  0  0  0  0  0  0
    8.0706   -7.4055    0.0000 C   0  0  0  0  0  0  0  0  0  0  0  0
   10.3765   -7.4350    0.0000 C   0  0  0  0  0  0  0  0  0  0  0  0
    8.0706   -8.7654    0.0000 C   0  0  0  0  0  0  0  0  0  0  0  0
    9.1940   -6.7847    0.0000 C   0  0  0  0  0  0  0  0  0  0  0  0
   12.7563   -5.0700    0.0000 C   0  0  0  0  0  0  0  0  0  0  0  0
   13.1702   -3.8284    0.0000 C   0  0  0  0  0  0  0  0  0  0  0  0
    6.9620   -9.3714    0.0000 C   0  0  0  0  0  0  0  0  0  0  0  0
   12.7563   -7.1985    0.0000 C   0  0  0  0  0  0  0  0  0  0  0  0
   10.3765   -4.8040    0.0000 C   0  0  0  0  0  0  0  0  0  0  0  0
   12.2242   -2.8972    0.0000 C   0  0  0  0  0  0  0  0  0  0  0  0
   13.8650   -1.2712    0.0000 C   0  0  0  0  0  0  0  0  0  0  0  0
   14.4119   -3.4884    0.0000 C   0  0  0  0  0  0  0  0  0  0  0  0
   12.5642   -1.6407    0.0000 O   0  0  0  0  0  0  0  0  0  0  0  0
    9.1940   -5.4839    0.0000 C   0  0  0  0  0  0  0  0  0  0  0  0
    4.6414   -9.3862    0.0000 O   0  0  0  0  0  0  0  0  0  0  0  0
    6.9620   -6.7847    0.0000 C   0  0  0  0  0  0  0  0  0  0  0  0
   13.5545   -6.1343    0.0000 C   0  0  0  0  0  0  0  0  0  0  0  0
   10.3765   -8.7506    0.0000 C   0  0  0  0  0  0  0  0  0  0  0  0
   14.7814   -2.2172    0.0000 C   0  0  0  0  0  0  0  0  0  0  0  0
    9.1940   -9.3714    0.0000 C   0  0  0  0  0  0  0  0  0  0  0  0
    5.8091   -8.7506    0.0000 C   0  0  0  0  0  0  0  0  0  0  0  0
   14.2493    0.0000    0.0000 O   0  0  0  0  0  0  0  0  0  0  0  0
   11.5295   -8.0854    0.0000 O   0  0  0  0  0  0  0  0  0  0  0  0
    5.8091   -7.4350    0.0000 C   0  0  0  0  0  0  0  0  0  0  0  0
   11.5295   -4.1684    0.0000 C   0  0  0  0  0  0  0  0  0  0  0  0
    8.0706   -6.1047    0.0000 C   0  0  0  0  0  0  0  0  0  0  0  0
   10.3765   -5.9865    0.0000 H   0  0  0  0  0  0  0  0  0  0  0  0
    9.1940   -8.2185    0.0000 H   0  0  0  0  0  0  0  0  0  0  0  0
    3.4884   -8.7506    0.0000 C   0  0  0  0  0  0  0  0  0  0  0  0
    2.3798   -9.3862    0.0000 C   0  0  0  0  0  0  0  0  0  0  0  0
    3.4884   -7.4350    0.0000 O   0  0  0  0  0  0  0  0  0  0  0  0
    1.2269   -8.7506    0.0000 C   0  0  0  0  0  0  0  0  0  0  0  0
    2.3798   -6.7551    0.0000 C   0  0  0  0  0  0  0  0  0  0  0  0
    1.2269   -7.4055    0.0000 C   0  0  0  0  0  0  0  0  0  0  0  0
    2.3502  -10.8200    0.0000 O   0  0  0  0  0  0  0  0  0  0  0  0
    0.0000   -9.4305    0.0000 O   0  0  0  0  0  0  0  0  0  0  0  0
    0.0148   -6.6812    0.0000 O   0  0  0  0  0  0  0  0  0  0  0  0
    2.3946   -5.3065    0.0000 C   0  0  0  0  0  0  0  0  0  0  0  0
  1  2  1  0  0  0  0
  1  4  1  0  0  0  0
  1 10  1  0  0  0  0
  1 25  1  1  0  0  0
  2  7  1  0  0  0  0
  2 11  1  0  0  0  0
  2 27  1  1  0  0  0
  3  6  1  0  0  0  0
  3 18  1  0  0  0  0
  3 28  1  1  0  0  0
  3  5  1  0  0  0  0
  4  6  1  0  0  0  0
  4 20  1  0  0  0  0
  4 29  1  1  0  0  0
  5 22  1  0  0  0  0
  5  9  2  0  0  0  0
  6 16  1  0  0  0  0
  6 30  1  6  0  0  0
  7  8  1  1  0  0  0
  7 19  1  0  0  0  0
  8 12  2  0  0  0  0
  8 14  1  0  0  0  0
  9 23  1  0  0  0  0
 10 19  1  0  0  0  0
 11 16  1  0  0  0  0
 12 15  1  0  0  0  0
 13 21  1  0  0  0  0
 13 24  2  0  0  0  0
 13 15  1  0  0  0  0
 14 21  2  0  0  0  0
 23 17  1  1  0  0  0
 31 17  1  1  0  0  0
 18 26  1  0  0  0  0
 20 22  1  0  0  0  0
 23 26  1  0  0  0  0
 31 32  1  0  0  0  0
 31 33  1  0  0  0  0
 32 34  1  0  0  0  0
 32 37  1  6  0  0  0
 33 35  1  0  0  0  0
 34 36  1  0  0  0  0
 34 38  1  6  0  0  0
 35 36  1  0  0  0  0
 35 40  1  6  0  0  0
 36 39  1  1  0  0  0
M  END
> <ID>
3161

> <Formula>
C30H42O8

> <FW>
530.6497

> <DSSTox_CID>
3532

> <DSSTox_RID>
77066

> <DSSTox_GSID>
23532

> <DSSTox_FileID_Sort>
1749

> <TS_ChemName>
Proscillaridin

> <TS_ChemName_Synonyms>


> <TS_CASRN>
466-06-8

> <CASRN_ChemName_Relationship>
primary

> <TS_Description>
single chemical compound

> <ChemNote>
stereochem

> <STRUCTURE_Shown>
tested chemical

> <STRUCTURE_Formula>
C30H42O8

> <STRUCTURE_MW>
530.6497

> <STRUCTURE_ChemType>
defined organic

> <STRUCTURE_DefinedOrganicForm>
parent

> <STRUCTURE_IUPAC>
(3beta)-3-[(6-deoxy-alpha-L-mannopyranosyl)oxy]-14-hydroxybufa-4,20,22-trienolide

> <STRUCTURE_SMILES>
O=C1C=CC(=CO1)[C@H]6CC[C@@]5(O)[C@]6(C)CC[C@H]3[C@H]5CCC2=C[C@H](CC[C@@]23C)O[C@@H]4O[C@@H](C)[C@H](O)[C@@H](O)[C@H]4O

> <STRUCTURE_SMILES_Desalt>
O=C1C=CC(=CO1)[C@H]6CC[C@@]5(O)[C@]6(C)CC[C@H]3[C@H]5CCC2=C[C@H](CC[C@@]23C)O[C@@H]4O[C@@H](C)[C@H](O)[C@@H](O)[C@H]4O

> <Substance_modify_yyyymmdd>
20080429

$$$$
