4696-76-8
ChemmineR-0914142331XD

 33 35  0  0  1  0  0  0  0  0  1 V2000
   11.9755   -2.3020    0.0000 N   0  0  0  0  0  0  0  0  0  0  0  0
   11.3102   -3.4596    0.0000 C   0  0  0  0  0  0  0  0  0  0  0  0
   11.9755   -4.6039    0.0000 C   0  0  0  0  0  0  0  0  0  0  0  0
   13.3061   -4.6039    0.0000 O   0  0  0  0  0  0  0  0  0  0  0  0
   11.3102   -5.7615    0.0000 C   0  0  0  0  0  0  0  0  0  0  0  0
   11.9755   -6.9059    0.0000 O   0  0  0  0  0  0  0  0  0  0  0  0
    9.9796   -5.7615    0.0000 C   0  0  0  0  0  0  0  0  0  0  0  0
    9.3143   -6.9059    0.0000 C   0  0  0  0  0  0  0  0  0  0  0  0
    9.9796   -8.0635    0.0000 N   0  0  0  0  0  0  0  0  0  0  0  0
    9.3143   -4.6039    0.0000 O   0  0  0  0  0  0  0  0  0  0  0  0
    9.9796   -3.4596    0.0000 C   0  0  0  0  0  0  0  0  0  0  0  0
    9.3143   -2.3020    0.0000 O   0  0  0  0  0  0  0  0  0  0  0  0
    7.9837   -2.3020    0.0000 C   0  0  0  0  0  0  0  0  0  0  0  0
    7.3183   -3.4596    0.0000 C   0  0  0  0  0  0  0  0  0  0  0  0
    7.9837   -4.6039    0.0000 O   0  0  0  0  0  0  0  0  0  0  0  0
    5.9877   -3.4596    0.0000 C   0  0  0  0  0  0  0  0  0  0  0  0
    5.3224   -4.6039    0.0000 O   0  0  0  0  0  0  0  0  0  0  0  0
    3.9918   -4.6039    0.0000 C   0  0  0  0  0  0  0  0  0  0  0  0
    3.3265   -3.4596    0.0000 O   0  0  0  0  0  0  0  0  0  0  0  0
    1.9959   -3.4596    0.0000 C   0  0  0  0  0  0  0  0  0  0  0  0
    1.3306   -2.3020    0.0000 C   0  0  0  0  0  0  0  0  0  0  0  0
    0.0000   -2.3020    0.0000 O   0  0  0  0  0  0  0  0  0  0  0  0
    1.3306   -4.6039    0.0000 C   0  0  0  0  0  0  0  0  0  0  0  0
    0.0000   -4.6039    0.0000 O   0  0  0  0  0  0  0  0  0  0  0  0
    1.9959   -5.7615    0.0000 C   0  0  0  0  0  0  0  0  0  0  0  0
    1.3306   -6.9059    0.0000 N   0  0  0  0  0  0  0  0  0  0  0  0
    3.3265   -5.7615    0.0000 C   0  0  0  0  0  0  0  0  0  0  0  0
    3.9918   -6.9059    0.0000 O   0  0  0  0  0  0  0  0  0  0  0  0
    5.3224   -2.3020    0.0000 C   0  0  0  0  0  0  0  0  0  0  0  0
    3.9918   -2.3020    0.0000 N   0  0  0  0  0  0  0  0  0  0  0  0
    5.9877   -1.1443    0.0000 C   0  0  0  0  0  0  0  0  0  0  0  0
    7.3183   -1.1443    0.0000 C   0  0  0  0  0  0  0  0  0  0  0  0
    7.9837    0.0000    0.0000 N   0  0  0  0  0  0  0  0  0  0  0  0
  2  1  1  6  0  0  0
  2  3  1  0  0  0  0
  2 11  1  0  0  0  0
  3  4  1  1  0  0  0
  3  5  1  0  0  0  0
  5  6  1  6  0  0  0
  5  7  1  0  0  0  0
  7  8  1  1  0  0  0
  7 10  1  0  0  0  0
  8  9  1  0  0  0  0
 10 11  1  0  0  0  0
 11 12  1  6  0  0  0
 13 12  1  1  0  0  0
 13 14  1  0  0  0  0
 13 32  1  0  0  0  0
 14 15  1  6  0  0  0
 14 16  1  0  0  0  0
 16 17  1  1  0  0  0
 16 29  1  0  0  0  0
 18 17  1  6  0  0  0
 18 19  1  0  0  0  0
 18 27  1  0  0  0  0
 19 20  1  0  0  0  0
 20 21  1  1  0  0  0
 20 23  1  0  0  0  0
 21 22  1  0  0  0  0
 23 24  1  6  0  0  0
 23 25  1  0  0  0  0
 25 26  1  1  0  0  0
 25 27  1  0  0  0  0
 27 28  1  6  0  0  0
 29 30  1  6  0  0  0
 29 31  1  0  0  0  0
 31 32  1  0  0  0  0
 32 33  1  6  0  0  0
M  END
> <ID>
2861

> <Formula>
C18H37N5O10

> <FW>
483.5139

> <DSSTox_CID>
3185

> <DSSTox_RID>
76911

> <DSSTox_GSID>
23185

> <DSSTox_FileID_Sort>
1595

> <TS_ChemName>
Kanamycin B

> <TS_ChemName_Synonyms>


> <TS_CASRN>
4696-76-8

> <CASRN_ChemName_Relationship>
primary

> <TS_Description>
single chemical compound

> <ChemNote>
stereochem

> <STRUCTURE_Shown>
tested chemical

> <STRUCTURE_Formula>
C18H37N5O10

> <STRUCTURE_MW>
483.5139

> <STRUCTURE_ChemType>
defined organic

> <STRUCTURE_DefinedOrganicForm>
parent

> <STRUCTURE_IUPAC>
(1R,2S,3S,4R,6S)-4,6-diamino-3-[(3-amino-3-deoxy-alpha-D-glucopyranosyl)oxy]-2-hydroxycyclohexyl 2,6-diamino-2,6-dideoxy-alpha-D-glucopyranoside

> <STRUCTURE_SMILES>
N[C@@H]3[C@@H](O)[C@H](O)[C@@H](CN)O[C@@H]3O[C@H]2[C@H](O)[C@@H](O[C@H]1O[C@H](CO)[C@@H](O)[C@H](N)[C@H]1O)[C@H](N)C[C@@H]2N

> <STRUCTURE_SMILES_Desalt>
N[C@@H]3[C@@H](O)[C@H](O)[C@@H](CN)O[C@@H]3O[C@H]2[C@H](O)[C@@H](O[C@H]1O[C@H](CO)[C@@H](O)[C@H](N)[C@H]1O)[C@H](N)C[C@@H]2N

> <Substance_modify_yyyymmdd>
20080429

$$$$
