471-53-4
ChemmineR-0914142331XD

 37 41  0  0  1  0  0  0  0  0  1 V2000
    6.9160   -4.8390    0.0000 C   0  0  0  0  0  0  0  0  0  0  0  0
    5.7596   -6.8599    0.0000 C   0  0  0  0  0  0  0  0  0  0  0  0
    6.9160   -6.1863    0.0000 C   0  0  0  0  0  0  0  0  0  0  0  0
    3.4693   -6.8599    0.0000 C   0  0  0  0  0  0  0  0  0  0  0  0
    4.6144   -6.1863    0.0000 C   0  0  0  0  0  0  0  0  0  0  0  0
    5.7596   -4.1878    0.0000 C   0  0  0  0  0  0  0  0  0  0  0  0
    4.6144   -4.8390    0.0000 C   0  0  0  0  0  0  0  0  0  0  0  0
    3.4693   -8.1960    0.0000 C   0  0  0  0  0  0  0  0  0  0  0  0
    8.0388   -4.1878    0.0000 C   0  0  0  0  0  0  0  0  0  0  0  0
    2.3128   -8.8584    0.0000 C   0  0  0  0  0  0  0  0  0  0  0  0
    9.1952   -2.1893    0.0000 C   0  0  0  0  0  0  0  0  0  0  0  0
    8.0388   -2.8517    0.0000 C   0  0  0  0  0  0  0  0  0  0  0  0
    9.1952   -4.8390    0.0000 C   0  0  0  0  0  0  0  0  0  0  0  0
    5.7596   -8.1960    0.0000 C   0  0  0  0  0  0  0  0  0  0  0  0
    9.9699   -1.0329    0.0000 C   0  0  0  0  0  0  0  0  0  0  0  0
    2.3128   -6.1863    0.0000 C   0  0  0  0  0  0  0  0  0  0  0  0
    8.0388   -6.8599    0.0000 C   0  0  0  0  0  0  0  0  0  0  0  0
    4.6144   -8.8584    0.0000 C   0  0  0  0  0  0  0  0  0  0  0  0
    1.1676   -8.1960    0.0000 C   0  0  0  0  0  0  0  0  0  0  0  0
    3.4468   -4.2439    0.0000 O   0  0  0  0  0  0  0  0  0  0  0  0
    9.1952   -6.1863    0.0000 C   0  0  0  0  0  0  0  0  0  0  0  0
   10.3404   -2.8517    0.0000 C   0  0  0  0  0  0  0  0  0  0  0  0
   10.3404   -4.1878    0.0000 C   0  0  0  0  0  0  0  0  0  0  0  0
    9.3636    0.0000    0.0000 O   0  0  0  0  0  0  0  0  0  0  0  0
    1.1676   -6.8599    0.0000 C   0  0  0  0  0  0  0  0  0  0  0  0
    5.7821   -5.6698    0.0000 C   0  0  0  0  0  0  0  0  0  0  0  0
    3.5029   -5.4677    0.0000 C   0  0  0  0  0  0  0  0  0  0  0  0
    6.9497   -7.4774    0.0000 C   0  0  0  0  0  0  0  0  0  0  0  0
   11.2274   -1.0329    0.0000 O   0  0  0  0  0  0  0  0  0  0  0  0
    1.6729  -10.3628    0.0000 C   0  0  0  0  0  0  0  0  0  0  0  0
    2.8068  -10.3067    0.0000 C   0  0  0  0  0  0  0  0  0  0  0  0
    0.0000   -8.8921    0.0000 O   0  0  0  0  0  0  0  0  0  0  0  0
    8.4205   -1.0778    0.0000 C   0  0  0  0  0  0  0  0  0  0  0  0
    9.1952   -3.6152    0.0000 C   0  0  0  0  0  0  0  0  0  0  0  0
    4.5920   -7.3876    0.0000 H   0  0  0  0  0  0  0  0  0  0  0  0
    3.5029   -9.4759    0.0000 H   0  0  0  0  0  0  0  0  0  0  0  0
    8.0612   -5.5239    0.0000 H   0  0  0  0  0  0  0  0  0  0  0  0
  1  3  1  0  0  0  0
  1  6  2  0  0  0  0
  1  9  1  0  0  0  0
  2  3  1  0  0  0  0
  2 14  1  0  0  0  0
  2 26  1  1  0  0  0
  2  5  1  0  0  0  0
  3 17  1  0  0  0  0
  3 28  1  6  0  0  0
  4  5  1  0  0  0  0
  4  8  1  0  0  0  0
  4 16  1  0  0  0  0
  4 27  1  1  0  0  0
  5  7  1  0  0  0  0
  5 35  1  6  0  0  0
  6  7  1  0  0  0  0
  7 20  2  0  0  0  0
  8 10  1  0  0  0  0
  8 36  1  6  0  0  0
  8 18  1  0  0  0  0
  9 12  1  0  0  0  0
  9 13  1  0  0  0  0
  9 37  1  1  0  0  0
 10 30  1  0  0  0  0
 10 31  1  0  0  0  0
 10 19  1  0  0  0  0
 11 12  1  0  0  0  0
 11 15  1  0  0  0  0
 11 33  1  6  0  0  0
 11 22  1  0  0  0  0
 13 21  1  0  0  0  0
 13 23  1  0  0  0  0
 13 34  1  1  0  0  0
 14 18  1  0  0  0  0
 15 24  2  0  0  0  0
 15 29  1  0  0  0  0
 16 25  1  0  0  0  0
 17 21  1  0  0  0  0
 19 25  1  0  0  0  0
 19 32  1  1  0  0  0
 22 23  1  0  0  0  0
M  END
> <ID>
642

> <Formula>
C30H46O4

> <FW>
470.6838

> <DSSTox_CID>
669

> <DSSTox_RID>
75722

> <DSSTox_GSID>
20669

> <DSSTox_FileID_Sort>
406

> <TS_ChemName>
Glycyrrhetinic acid

> <TS_ChemName_Synonyms>


> <TS_CASRN>
471-53-4

> <CASRN_ChemName_Relationship>
primary

> <TS_Description>
single chemical compound

> <ChemNote>
stereochem

> <STRUCTURE_Shown>
tested chemical

> <STRUCTURE_Formula>
C30H46O4

> <STRUCTURE_MW>
470.6838

> <STRUCTURE_ChemType>
defined organic

> <STRUCTURE_DefinedOrganicForm>
parent

> <STRUCTURE_IUPAC>
(3beta)-3-hydroxy-11-oxoolean-12-en-30-oic acid

> <STRUCTURE_SMILES>
O=C(O)[C@@]4(C)CC[C@]5(C)CC[C@]3(C)C(=CC(=O)[C@H]2[C@@]3(C)CC[C@@H]1[C@]2(C)CC[C@H](O)C1(C)C)[C@@H]5C4

> <STRUCTURE_SMILES_Desalt>
O=C(O)[C@@]4(C)CC[C@]5(C)CC[C@]3(C)C(=CC(=O)[C@H]2[C@@]3(C)CC[C@@H]1[C@]2(C)CC[C@H](O)C1(C)C)[C@@H]5C4

> <Substance_modify_yyyymmdd>
20080429

$$$$
