474-25-9
ChemmineR-0914142331XD

 32 35  0  0  1  0  0  0  0  0  1 V2000
    6.9657   -3.7936    0.0000 C   0  0  0  0  0  0  0  0  0  0  0  0
    3.4828   -5.7616    0.0000 C   0  0  0  0  0  0  0  0  0  0  0  0
    6.9657   -5.0883    0.0000 C   0  0  0  0  0  0  0  0  0  0  0  0
    4.6611   -5.0883    0.0000 C   0  0  0  0  0  0  0  0  0  0  0  0
    5.8004   -5.7616    0.0000 C   0  0  0  0  0  0  0  0  0  0  0  0
    3.4828   -7.1211    0.0000 C   0  0  0  0  0  0  0  0  0  0  0  0
    5.8004   -7.1211    0.0000 C   0  0  0  0  0  0  0  0  0  0  0  0
    8.2345   -3.3404    0.0000 C   0  0  0  0  0  0  0  0  0  0  0  0
    5.8004   -3.1203    0.0000 C   0  0  0  0  0  0  0  0  0  0  0  0
    4.6611   -7.7814    0.0000 C   0  0  0  0  0  0  0  0  0  0  0  0
    4.6611   -3.7936    0.0000 C   0  0  0  0  0  0  0  0  0  0  0  0
    8.2345   -5.5026    0.0000 C   0  0  0  0  0  0  0  0  0  0  0  0
    2.3564   -5.0883    0.0000 C   0  0  0  0  0  0  0  0  0  0  0  0
    9.0243   -4.4668    0.0000 C   0  0  0  0  0  0  0  0  0  0  0  0
   11.7303   -1.3077    0.0000 C   0  0  0  0  0  0  0  0  0  0  0  0
    2.3564   -7.7814    0.0000 C   0  0  0  0  0  0  0  0  0  0  0  0
   12.9474   -1.8256    0.0000 O   0  0  0  0  0  0  0  0  0  0  0  0
    8.2345   -2.0327    0.0000 C   0  0  0  0  0  0  0  0  0  0  0  0
    9.3739   -1.3206    0.0000 C   0  0  0  0  0  0  0  0  0  0  0  0
    6.7715   -7.8332    0.0000 O   0  0  0  0  0  0  0  0  0  0  0  0
   10.5392   -1.9809    0.0000 C   0  0  0  0  0  0  0  0  0  0  0  0
    6.9657   -2.4471    0.0000 C   0  0  0  0  0  0  0  0  0  0  0  0
    1.1912   -5.7616    0.0000 C   0  0  0  0  0  0  0  0  0  0  0  0
    1.1912   -7.1211    0.0000 C   0  0  0  0  0  0  0  0  0  0  0  0
    3.4828   -4.4668    0.0000 C   0  0  0  0  0  0  0  0  0  0  0  0
   11.7303    0.0000    0.0000 O   0  0  0  0  0  0  0  0  0  0  0  0
    0.0000   -7.7943    0.0000 O   0  0  0  0  0  0  0  0  0  0  0  0
    7.0563   -1.3854    0.0000 C   0  0  0  0  0  0  0  0  0  0  0  0
    3.4828   -8.4546    0.0000 H   0  0  0  0  0  0  0  0  0  0  0  0
    5.8004   -4.4280    0.0000 H   0  0  0  0  0  0  0  0  0  0  0  0
    6.9657   -6.4089    0.0000 H   0  0  0  0  0  0  0  0  0  0  0  0
    4.6611   -6.4089    0.0000 H   0  0  0  0  0  0  0  0  0  0  0  0
  1  3  1  0  0  0  0
  1  8  1  0  0  0  0
  1  9  1  0  0  0  0
  1 22  1  1  0  0  0
  2  4  1  0  0  0  0
  2  6  1  0  0  0  0
  2 13  1  0  0  0  0
  2 25  1  1  0  0  0
  3  5  1  0  0  0  0
  3 12  1  0  0  0  0
  3 31  1  6  0  0  0
  4 11  1  0  0  0  0
  4  5  1  0  0  0  0
  4 32  1  6  0  0  0
  5  7  1  0  0  0  0
  5 30  1  1  0  0  0
  6 16  1  0  0  0  0
  6 29  1  1  0  0  0
  6 10  1  0  0  0  0
  7 10  1  0  0  0  0
  7 20  1  6  0  0  0
  8 14  1  0  0  0  0
  8 18  1  1  0  0  0
  9 11  1  0  0  0  0
 12 14  1  0  0  0  0
 13 23  1  0  0  0  0
 15 21  1  0  0  0  0
 15 17  2  0  0  0  0
 15 26  1  0  0  0  0
 16 24  1  0  0  0  0
 18 19  1  0  0  0  0
 18 28  1  6  0  0  0
 19 21  1  0  0  0  0
 23 24  1  0  0  0  0
 24 27  1  6  0  0  0
M  END
> <ID>
253

> <Formula>
C24H40O4

> <FW>
392.572

> <DSSTox_CID>
260

> <DSSTox_RID>
75469

> <DSSTox_GSID>
20260

> <DSSTox_FileID_Sort>
153

> <TS_ChemName>
Chenodeoxycholic acid

> <TS_ChemName_Synonyms>


> <TS_CASRN>
474-25-9

> <CASRN_ChemName_Relationship>
primary

> <TS_Description>
single chemical compound

> <ChemNote>
stereochem

> <STRUCTURE_Shown>
tested chemical

> <STRUCTURE_Formula>
C24H40O4

> <STRUCTURE_MW>
392.572

> <STRUCTURE_ChemType>
defined organic

> <STRUCTURE_DefinedOrganicForm>
parent

> <STRUCTURE_IUPAC>
(3alpha,5beta,7alpha,8xi)-3,7-dihydroxycholan-24-oic acid

> <STRUCTURE_SMILES>
O=C(O)CC[C@@H](C)[C@H]4CC[C@@H]1[C@]4(C)CC[C@@H]2[C@@]3(C)CC[C@@H](O)C[C@H]3C[C@@H](O)[C@@H]12

> <STRUCTURE_SMILES_Desalt>
O=C(O)CC[C@@H](C)[C@H]4CC[C@@H]1[C@]4(C)CC[C@@H]2[C@@]3(C)CC[C@@H](O)C[C@H]3C[C@@H](O)[C@@H]12

> <Substance_modify_yyyymmdd>
20080429

$$$$
