474-40-8
ChemmineR-0914142331XD

 35 38  0  0  1  0  0  0  0  0  1 V2000
    5.8153   -6.5870    0.0000 C   0  0  0  0  0  0  0  0  0  0  0  0
    3.5002   -6.5870    0.0000 C   0  0  0  0  0  0  0  0  0  0  0  0
    6.9728   -4.5751    0.0000 C   0  0  0  0  0  0  0  0  0  0  0  0
    4.6577   -5.9117    0.0000 C   0  0  0  0  0  0  0  0  0  0  0  0
    6.9728   -5.9117    0.0000 C   0  0  0  0  0  0  0  0  0  0  0  0
    3.5002   -7.9237    0.0000 C   0  0  0  0  0  0  0  0  0  0  0  0
    5.8153   -7.9237    0.0000 C   0  0  0  0  0  0  0  0  0  0  0  0
    8.2268   -4.1892    0.0000 C   0  0  0  0  0  0  0  0  0  0  0  0
    5.8153   -3.9136    0.0000 C   0  0  0  0  0  0  0  0  0  0  0  0
    2.3564   -8.5713    0.0000 C   0  0  0  0  0  0  0  0  0  0  0  0
    4.6577   -8.5713    0.0000 C   0  0  0  0  0  0  0  0  0  0  0  0
    2.3564   -5.9117    0.0000 C   0  0  0  0  0  0  0  0  0  0  0  0
    4.6577   -4.5751    0.0000 C   0  0  0  0  0  0  0  0  0  0  0  0
    8.2268   -6.2976    0.0000 C   0  0  0  0  0  0  0  0  0  0  0  0
    9.0123   -5.2365    0.0000 C   0  0  0  0  0  0  0  0  0  0  0  0
   11.6030   -2.0946    0.0000 C   0  0  0  0  0  0  0  0  0  0  0  0
    1.1713   -7.9237    0.0000 C   0  0  0  0  0  0  0  0  0  0  0  0
   10.5281   -2.8525    0.0000 C   0  0  0  0  0  0  0  0  0  0  0  0
    1.1713   -6.5870    0.0000 C   0  0  0  0  0  0  0  0  0  0  0  0
   12.7192   -2.7561    0.0000 C   0  0  0  0  0  0  0  0  0  0  0  0
    8.2268   -2.8525    0.0000 C   0  0  0  0  0  0  0  0  0  0  0  0
    9.3430   -2.1773    0.0000 C   0  0  0  0  0  0  0  0  0  0  0  0
   11.6030   -0.7304    0.0000 C   0  0  0  0  0  0  0  0  0  0  0  0
    3.5002   -5.2365    0.0000 C   0  0  0  0  0  0  0  0  0  0  0  0
    6.9728   -3.2384    0.0000 C   0  0  0  0  0  0  0  0  0  0  0  0
    0.0000   -8.5851    0.0000 O   0  0  0  0  0  0  0  0  0  0  0  0
    2.3564   -9.8253    0.0000 C   0  0  0  0  0  0  0  0  0  0  0  0
   13.7803   -2.1084    0.0000 C   0  0  0  0  0  0  0  0  0  0  0  0
    7.0417   -2.2324    0.0000 C   0  0  0  0  0  0  0  0  0  0  0  0
   10.3352    0.0000    0.0000 C   0  0  0  0  0  0  0  0  0  0  0  0
   12.7881   -0.0965    0.0000 C   0  0  0  0  0  0  0  0  0  0  0  0
    3.5002   -9.1639    0.0000 H   0  0  0  0  0  0  0  0  0  0  0  0
    4.6577   -7.2484    0.0000 H   0  0  0  0  0  0  0  0  0  0  0  0
    6.9728   -7.2484    0.0000 H   0  0  0  0  0  0  0  0  0  0  0  0
    8.2268   -5.5259    0.0000 H   0  0  0  0  0  0  0  0  0  0  0  0
  1  4  1  0  0  0  0
  1  5  1  0  0  0  0
  1  7  2  0  0  0  0
  2  4  1  0  0  0  0
  2 12  1  0  0  0  0
  2 24  1  1  0  0  0
  2  6  1  0  0  0  0
  3  5  1  0  0  0  0
  3  8  1  0  0  0  0
  3  9  1  0  0  0  0
  3 25  1  1  0  0  0
  4 13  1  0  0  0  0
  4 33  1  6  0  0  0
  5 14  1  0  0  0  0
  5 34  1  6  0  0  0
  6 11  1  0  0  0  0
  6 10  1  0  0  0  0
  6 32  1  6  0  0  0
  7 11  1  0  0  0  0
  8 21  1  0  0  0  0
  8 15  1  0  0  0  0
  8 35  1  6  0  0  0
  9 13  1  0  0  0  0
 10 17  1  0  0  0  0
 10 27  1  6  0  0  0
 12 19  1  0  0  0  0
 14 15  1  0  0  0  0
 16 18  1  0  0  0  0
 16 20  2  0  0  0  0
 16 23  1  0  0  0  0
 17 26  1  1  0  0  0
 17 19  1  0  0  0  0
 18 22  1  0  0  0  0
 20 28  1  0  0  0  0
 21 22  1  0  0  0  0
 21 29  1  6  0  0  0
 23 30  1  0  0  0  0
 23 31  1  0  0  0  0
M  END
> <ID>
3205

> <Formula>
C30H50O

> <FW>
426.7174

> <DSSTox_CID>
3584

> <DSSTox_RID>
77092

> <DSSTox_GSID>
23584

> <DSSTox_FileID_Sort>
1775

> <TS_ChemName>
Sitosterol alpha1

> <TS_ChemName_Synonyms>


> <TS_CASRN>
474-40-8

> <CASRN_ChemName_Relationship>
primary

> <TS_Description>
single chemical compound

> <ChemNote>
stereochem

> <STRUCTURE_Shown>
tested chemical

> <STRUCTURE_Formula>
C30H50O

> <STRUCTURE_MW>
426.7174

> <STRUCTURE_ChemType>
defined organic

> <STRUCTURE_DefinedOrganicForm>
parent

> <STRUCTURE_IUPAC>
(3beta,4alpha,5alpha,24Z)-4-methylstigmasta-7,24(28)-dien-3-ol

> <STRUCTURE_SMILES>
CC(C)C(=C\C)/CC[C@@H](C)[C@H]1CC[C@H]2C3=CC[C@H]4[C@H](C)[C@@H](O)CC[C@]4(C)[C@H]3CC[C@]12C

> <STRUCTURE_SMILES_Desalt>
CC(C)C(=C\C)/CC[C@@H](C)[C@H]1CC[C@H]2C3=CC[C@H]4[C@H](C)[C@@H](O)CC[C@]4(C)[C@H]3CC[C@]12C

> <Substance_modify_yyyymmdd>
20080429

$$$$
