477-30-5
ChemmineR-0914142331XD

 27 29  0  0  1  0  0  0  0  0  1 V2000
    5.7649   -8.4928    0.0000 C   0  0  0  0  0  0  0  0  0  0  0  0
    5.7649   -7.1565    0.0000 O   0  0  0  0  0  0  0  0  0  0  0  0
    4.6053   -6.4938    0.0000 C   0  0  0  0  0  0  0  0  0  0  0  0
    3.4568   -7.1565    0.0000 C   0  0  0  0  0  0  0  0  0  0  0  0
    2.3082   -6.4938    0.0000 C   0  0  0  0  0  0  0  0  0  0  0  0
    2.3082   -5.1575    0.0000 C   0  0  0  0  0  0  0  0  0  0  0  0
    3.4568   -4.4949    0.0000 C   0  0  0  0  0  0  0  0  0  0  0  0
    4.6053   -5.1575    0.0000 C   0  0  0  0  0  0  0  0  0  0  0  0
    5.8533   -4.6716    0.0000 C   0  0  0  0  0  0  0  0  0  0  0  0
    6.6043   -5.7760    0.0000 C   0  0  0  0  0  0  0  0  0  0  0  0
    7.9075   -5.8533    0.0000 C   0  0  0  0  0  0  0  0  0  0  0  0
    8.8462   -4.9146    0.0000 C   0  0  0  0  0  0  0  0  0  0  0  0
   10.1052   -5.2901    0.0000 O   0  0  0  0  0  0  0  0  0  0  0  0
   11.0440   -4.3513    0.0000 C   0  0  0  0  0  0  0  0  0  0  0  0
    8.6364   -3.5893    0.0000 C   0  0  0  0  0  0  0  0  0  0  0  0
    9.7297   -2.8383    0.0000 O   0  0  0  0  0  0  0  0  0  0  0  0
    7.4768   -2.9156    0.0000 C   0  0  0  0  0  0  0  0  0  0  0  0
    6.2398   -3.4015    0.0000 C   0  0  0  0  0  0  0  0  0  0  0  0
    5.4888   -2.3082    0.0000 C   0  0  0  0  0  0  0  0  0  0  0  0
    6.1625   -1.1486    0.0000 N   0  0  0  0  0  0  0  0  0  0  0  0
    5.4888    0.0000    0.0000 C   0  0  0  0  0  0  0  0  0  0  0  0
    4.1857   -2.2198    0.0000 C   0  0  0  0  0  0  0  0  0  0  0  0
    3.2469   -3.1696    0.0000 C   0  0  0  0  0  0  0  0  0  0  0  0
    1.1486   -7.1565    0.0000 O   0  0  0  0  0  0  0  0  0  0  0  0
    0.0000   -6.4938    0.0000 C   0  0  0  0  0  0  0  0  0  0  0  0
    3.4568   -8.4928    0.0000 O   0  0  0  0  0  0  0  0  0  0  0  0
    2.3082   -9.1554    0.0000 C   0  0  0  0  0  0  0  0  0  0  0  0
  1  2  1  0  0  0  0
  2  3  1  0  0  0  0
  3  4  2  0  0  0  0
  3  8  1  0  0  0  0
  4  5  1  0  0  0  0
  4 26  1  0  0  0  0
  5  6  2  0  0  0  0
  5 24  1  0  0  0  0
  6  7  1  0  0  0  0
  7  8  2  0  0  0  0
  7 23  1  0  0  0  0
  8  9  1  0  0  0  0
  9 10  2  0  0  0  0
  9 18  1  0  0  0  0
 10 11  1  0  0  0  0
 11 12  2  0  0  0  0
 12 13  1  0  0  0  0
 12 15  1  0  0  0  0
 13 14  1  0  0  0  0
 15 16  2  0  0  0  0
 15 17  1  0  0  0  0
 17 18  2  0  0  0  0
 18 19  1  0  0  0  0
 19 20  1  6  0  0  0
 19 22  1  0  0  0  0
 20 21  1  0  0  0  0
 22 23  1  0  0  0  0
 24 25  1  0  0  0  0
 26 27  1  0  0  0  0
M  END
> <ID>
332

> <Formula>
C21H25NO5

> <FW>
371.4269

> <DSSTox_CID>
342

> <DSSTox_RID>
75525

> <DSSTox_GSID>
20342

> <DSSTox_FileID_Sort>
209

> <TS_ChemName>
Colcemid

> <TS_ChemName_Synonyms>


> <TS_CASRN>
477-30-5

> <CASRN_ChemName_Relationship>
primary

> <TS_Description>
single chemical compound

> <ChemNote>
stereochem

> <STRUCTURE_Shown>
tested chemical

> <STRUCTURE_Formula>
C21H25NO5

> <STRUCTURE_MW>
371.4269

> <STRUCTURE_ChemType>
defined organic

> <STRUCTURE_DefinedOrganicForm>
parent

> <STRUCTURE_IUPAC>
(7S)-1,2,3,10-tetramethoxy-7-(methylamino)-6,7-dihydrobenzo[a]heptalen-9(5H)-one

> <STRUCTURE_SMILES>
COc2c3C1=CC=C(OC)C(=O)C=C1[C@H](CCc3cc(OC)c2OC)NC

> <STRUCTURE_SMILES_Desalt>
COc2c3C1=CC=C(OC)C(=O)C=C1[C@H](CCc3cc(OC)c2OC)NC

> <Substance_modify_yyyymmdd>
20080429

$$$$
