479-92-5
ChemmineR-0914142331XD

 17 18  0  0  0  0  0  0  0  0  1 V2000
    0.0000   -3.4833    0.0000 C   0  0  0  0  0  0  0  0  0  0  0  0
    1.1508   -2.8113    0.0000 C   0  0  0  0  0  0  0  0  0  0  0  0
    2.3016   -3.4833    0.0000 C   0  0  0  0  0  0  0  0  0  0  0  0
    3.4601   -2.8113    0.0000 N   0  0  0  0  0  0  0  0  0  0  0  0
    3.5991   -1.4906    0.0000 N   0  0  0  0  0  0  0  0  0  0  0  0
    2.6105   -0.6024    0.0000 C   0  0  0  0  0  0  0  0  0  0  0  0
    4.8967   -1.2126    0.0000 C   0  0  0  0  0  0  0  0  0  0  0  0
    5.4373    0.0000    0.0000 C   0  0  0  0  0  0  0  0  0  0  0  0
    5.5609   -2.3634    0.0000 C   0  0  0  0  0  0  0  0  0  0  0  0
    6.8893   -2.5101    0.0000 C   0  0  0  0  0  0  0  0  0  0  0  0
    7.3604   -3.7459    0.0000 C   0  0  0  0  0  0  0  0  0  0  0  0
    7.7235   -1.4752    0.0000 C   0  0  0  0  0  0  0  0  0  0  0  0
    4.6727   -3.3597    0.0000 C   0  0  0  0  0  0  0  0  0  0  0  0
    4.9507   -4.6572    0.0000 O   0  0  0  0  0  0  0  0  0  0  0  0
    2.3016   -4.8117    0.0000 C   0  0  0  0  0  0  0  0  0  0  0  0
    1.1508   -5.4759    0.0000 C   0  0  0  0  0  0  0  0  0  0  0  0
    0.0000   -4.8117    0.0000 C   0  0  0  0  0  0  0  0  0  0  0  0
  1  2  2  0  0  0  0
  1 17  1  0  0  0  0
  2  3  1  0  0  0  0
  3  4  1  0  0  0  0
  3 15  2  0  0  0  0
  4  5  1  0  0  0  0
  4 13  1  0  0  0  0
  5  6  1  0  0  0  0
  5  7  1  0  0  0  0
  7  8  1  0  0  0  0
  7  9  2  0  0  0  0
  9 10  1  0  0  0  0
  9 13  1  0  0  0  0
 10 11  1  0  0  0  0
 10 12  1  0  0  0  0
 13 14  2  0  0  0  0
 15 16  1  0  0  0  0
 16 17  2  0  0  0  0
M  END
> <ID>
3160

> <Formula>
C14H18N2O

> <FW>
230.3055

> <DSSTox_CID>
3529

> <DSSTox_RID>
77065

> <DSSTox_GSID>
23529

> <DSSTox_FileID_Sort>
1748

> <TS_ChemName>
Propyphenazone

> <TS_ChemName_Synonyms>


> <TS_CASRN>
479-92-5

> <CASRN_ChemName_Relationship>
primary

> <TS_Description>
single chemical compound

> <ChemNote>


> <STRUCTURE_Shown>
tested chemical

> <STRUCTURE_Formula>
C14H18N2O

> <STRUCTURE_MW>
230.3055

> <STRUCTURE_ChemType>
defined organic

> <STRUCTURE_DefinedOrganicForm>
parent

> <STRUCTURE_IUPAC>
1,5-dimethyl-2-phenyl-4-(propan-2-yl)-1,2-dihydro-3H-pyrazol-3-one

> <STRUCTURE_SMILES>
CC(C)C=2C(=O)N(c1ccccc1)N(C)C=2C

> <STRUCTURE_SMILES_Desalt>
CC(C)C=2C(=O)N(c1ccccc1)N(C)C=2C

> <Substance_modify_yyyymmdd>
20080429

$$$$
