480-40-0
ChemmineR-0914142331XD

 19 21  0  0  0  0  0  0  0  0  1 V2000
    3.4549   -1.9992    0.0000 C   0  0  0  0  0  0  0  0  0  0  0  0
    4.6066   -1.3359    0.0000 C   0  0  0  0  0  0  0  0  0  0  0  0
    5.7582   -1.9992    0.0000 C   0  0  0  0  0  0  0  0  0  0  0  0
    5.7582   -3.3259    0.0000 C   0  0  0  0  0  0  0  0  0  0  0  0
    4.6066   -3.9893    0.0000 O   0  0  0  0  0  0  0  0  0  0  0  0
    3.4549   -3.3259    0.0000 C   0  0  0  0  0  0  0  0  0  0  0  0
    2.3033   -3.9893    0.0000 C   0  0  0  0  0  0  0  0  0  0  0  0
    1.1516   -3.3259    0.0000 C   0  0  0  0  0  0  0  0  0  0  0  0
    1.1516   -1.9992    0.0000 C   0  0  0  0  0  0  0  0  0  0  0  0
    2.3033   -1.3359    0.0000 C   0  0  0  0  0  0  0  0  0  0  0  0
    2.3033    0.0000    0.0000 O   0  0  0  0  0  0  0  0  0  0  0  0
    0.0000   -3.9893    0.0000 O   0  0  0  0  0  0  0  0  0  0  0  0
    6.9098   -3.9893    0.0000 C   0  0  0  0  0  0  0  0  0  0  0  0
    8.0615   -3.3259    0.0000 C   0  0  0  0  0  0  0  0  0  0  0  0
    9.2131   -3.9893    0.0000 C   0  0  0  0  0  0  0  0  0  0  0  0
    9.2131   -5.3252    0.0000 C   0  0  0  0  0  0  0  0  0  0  0  0
    8.0615   -5.9885    0.0000 C   0  0  0  0  0  0  0  0  0  0  0  0
    6.9098   -5.3252    0.0000 C   0  0  0  0  0  0  0  0  0  0  0  0
    4.6066    0.0000    0.0000 O   0  0  0  0  0  0  0  0  0  0  0  0
  1  2  1  0  0  0  0
  1  6  2  0  0  0  0
  1 10  1  0  0  0  0
  2  3  1  0  0  0  0
  2 19  2  0  0  0  0
  3  4  2  0  0  0  0
  4  5  1  0  0  0  0
  4 13  1  0  0  0  0
  5  6  1  0  0  0  0
  6  7  1  0  0  0  0
  7  8  2  0  0  0  0
  8  9  1  0  0  0  0
  8 12  1  0  0  0  0
  9 10  2  0  0  0  0
 10 11  1  0  0  0  0
 13 14  1  0  0  0  0
 13 18  2  0  0  0  0
 14 15  2  0  0  0  0
 15 16  1  0  0  0  0
 16 17  2  0  0  0  0
 17 18  1  0  0  0  0
M  END
> <ID>
2198

> <Formula>
C15H10O4

> <FW>
254.2375

> <DSSTox_CID>
2396

> <DSSTox_RID>
76571

> <DSSTox_GSID>
22396

> <DSSTox_FileID_Sort>
1255

> <TS_ChemName>
Chrysin

> <TS_ChemName_Synonyms>


> <TS_CASRN>
480-40-0

> <CASRN_ChemName_Relationship>
primary

> <TS_Description>
single chemical compound

> <ChemNote>


> <STRUCTURE_Shown>
tested chemical

> <STRUCTURE_Formula>
C15H10O4

> <STRUCTURE_MW>
254.2375

> <STRUCTURE_ChemType>
defined organic

> <STRUCTURE_DefinedOrganicForm>
parent

> <STRUCTURE_IUPAC>
5,7-dihydroxy-2-phenyl-4H-chromen-4-one

> <STRUCTURE_SMILES>
Oc2cc(O)cc1OC(=CC(=O)c12)c3ccccc3

> <STRUCTURE_SMILES_Desalt>
Oc2cc(O)cc1OC(=CC(=O)c12)c3ccccc3

> <Substance_modify_yyyymmdd>
20080429

$$$$
