481-85-6
ChemmineR-0914142331XD

 13 14  0  0  0  0  0  0  0  0  1 V2000
    2.2884   -1.9829    0.0000 C   0  0  0  0  0  0  0  0  0  0  0  0
    2.2884   -3.3317    0.0000 C   0  0  0  0  0  0  0  0  0  0  0  0
    1.1528   -1.3257    0.0000 C   0  0  0  0  0  0  0  0  0  0  0  0
    1.1528   -3.9830    0.0000 C   0  0  0  0  0  0  0  0  0  0  0  0
    0.0000   -1.9829    0.0000 C   0  0  0  0  0  0  0  0  0  0  0  0
    0.0000   -3.3317    0.0000 C   0  0  0  0  0  0  0  0  0  0  0  0
    3.4585   -1.3257    0.0000 C   0  0  0  0  0  0  0  0  0  0  0  0
    4.5940   -2.0002    0.0000 C   0  0  0  0  0  0  0  0  0  0  0  0
    3.4585   -3.9830    0.0000 C   0  0  0  0  0  0  0  0  0  0  0  0
    4.5940   -3.3317    0.0000 C   0  0  0  0  0  0  0  0  0  0  0  0
    3.4585    0.0000    0.0000 O   0  0  0  0  0  0  0  0  0  0  0  0
    3.4585   -5.3145    0.0000 O   0  0  0  0  0  0  0  0  0  0  0  0
    5.7641   -1.3257    0.0000 C   0  0  0  0  0  0  0  0  0  0  0  0
  1  3  2  0  0  0  0
  1  7  1  0  0  0  0
  1  2  1  0  0  0  0
  2  4  2  0  0  0  0
  2  9  1  0  0  0  0
  3  5  1  0  0  0  0
  4  6  1  0  0  0  0
  5  6  2  0  0  0  0
  7  8  2  0  0  0  0
  7 11  1  0  0  0  0
  8 10  1  0  0  0  0
  8 13  1  0  0  0  0
  9 10  2  0  0  0  0
  9 12  1  0  0  0  0
M  END
> <ID>
2918

> <Formula>
C11H10O2

> <FW>
174.1959

> <DSSTox_CID>
3247

> <DSSTox_RID>
76940

> <DSSTox_GSID>
23247

> <DSSTox_FileID_Sort>
1624

> <TS_ChemName>
Menadiol

> <TS_ChemName_Synonyms>


> <TS_CASRN>
481-85-6

> <CASRN_ChemName_Relationship>
primary

> <TS_Description>
single chemical compound

> <ChemNote>


> <STRUCTURE_Shown>
tested chemical

> <STRUCTURE_Formula>
C11H10O2

> <STRUCTURE_MW>
174.1959

> <STRUCTURE_ChemType>
defined organic

> <STRUCTURE_DefinedOrganicForm>
parent

> <STRUCTURE_IUPAC>
2-methylnaphthalene-1,4-diol

> <STRUCTURE_SMILES>
Oc1cc(C)c(O)c2ccccc12

> <STRUCTURE_SMILES_Desalt>
Oc1cc(C)c(O)c2ccccc12

> <Substance_modify_yyyymmdd>
20080429

$$$$
