481-30-1
ChemmineR-0914142331XD

 24 27  0  0  1  0  0  0  0  0  1 V2000
    6.8865   -1.6770    0.0000 C   0  0  0  0  0  0  0  0  0  0  0  0
    6.8865   -2.9972    0.0000 C   0  0  0  0  0  0  0  0  0  0  0  0
    5.7358   -3.6573    0.0000 C   0  0  0  0  0  0  0  0  0  0  0  0
    5.7358   -4.9865    0.0000 C   0  0  0  0  0  0  0  0  0  0  0  0
    4.5850   -5.6466    0.0000 C   0  0  0  0  0  0  0  0  0  0  0  0
    3.4432   -4.9865    0.0000 C   0  0  0  0  0  0  0  0  0  0  0  0
    3.4432   -3.6573    0.0000 C   0  0  0  0  0  0  0  0  0  0  0  0
    4.5850   -2.9972    0.0000 C   0  0  0  0  0  0  0  0  0  0  0  0
    4.5850   -1.6770    0.0000 C   0  0  0  0  0  0  0  0  0  0  0  0
    5.7358   -1.0080    0.0000 C   0  0  0  0  0  0  0  0  0  0  0  0
    2.2925   -2.9972    0.0000 C   0  0  0  0  0  0  0  0  0  0  0  0
    1.1507   -3.6573    0.0000 C   0  0  0  0  0  0  0  0  0  0  0  0
    1.1507   -4.9865    0.0000 C   0  0  0  0  0  0  0  0  0  0  0  0
    0.0000   -5.6466    0.0000 O   0  0  0  0  0  0  0  0  0  0  0  0
    2.2925   -5.6466    0.0000 C   0  0  0  0  0  0  0  0  0  0  0  0
    8.1443   -3.4076    0.0000 C   0  0  0  0  0  0  0  0  0  0  0  0
    8.9203   -2.3371    0.0000 C   0  0  0  0  0  0  0  0  0  0  0  0
    8.1443   -1.2667    0.0000 C   0  0  0  0  0  0  0  0  0  0  0  0
    8.5546    0.0000    0.0000 O   0  0  0  0  0  0  0  0  0  0  0  0
    6.8865   -0.2855    0.0000 C   0  0  0  0  0  0  0  0  0  0  0  0
    5.7358   -2.4709    0.0000 H   0  0  0  0  0  0  0  0  0  0  0  0
    4.5850   -4.3620    0.0000 H   0  0  0  0  0  0  0  0  0  0  0  0
    6.9489   -4.3620    0.0000 H   0  0  0  0  0  0  0  0  0  0  0  0
    3.4432   -2.2033    0.0000 C   0  0  0  0  0  0  0  0  0  0  0  0
  1  2  1  0  0  0  0
  1 10  1  0  0  0  0
  1 18  1  0  0  0  0
  1 20  1  1  0  0  0
  2  3  1  0  0  0  0
  2 16  1  0  0  0  0
  2 23  1  6  0  0  0
  3  4  1  0  0  0  0
  3  8  1  0  0  0  0
  3 21  1  1  0  0  0
  4  5  1  0  0  0  0
  5  6  1  0  0  0  0
  6  7  1  0  0  0  0
  6 15  2  0  0  0  0
  7  8  1  0  0  0  0
  7 11  1  0  0  0  0
  7 24  1  1  0  0  0
  8  9  1  0  0  0  0
  8 22  1  6  0  0  0
  9 10  1  0  0  0  0
 11 12  1  0  0  0  0
 12 13  1  0  0  0  0
 13 14  2  0  0  0  0
 13 15  1  0  0  0  0
 16 17  1  0  0  0  0
 17 18  1  0  0  0  0
 18 19  1  6  0  0  0
M  END
> <ID>
2159

> <Formula>
C19H28O2

> <FW>
288.4244

> <DSSTox_CID>
2329

> <DSSTox_RID>
76550

> <DSSTox_GSID>
22329

> <DSSTox_FileID_Sort>
1234

> <TS_ChemName>
Epitestosterone

> <TS_ChemName_Synonyms>
Epitestosterone (alpha epitestosterone)

> <TS_CASRN>
481-30-1

> <CASRN_ChemName_Relationship>
primary

> <TS_Description>
single chemical compound

> <ChemNote>
stereochem; same 2D structure beta form [58-22-0]

> <STRUCTURE_Shown>
tested chemical

> <STRUCTURE_Formula>
C19H28O2

> <STRUCTURE_MW>
288.4244

> <STRUCTURE_ChemType>
defined organic

> <STRUCTURE_DefinedOrganicForm>
parent

> <STRUCTURE_IUPAC>
(17alpha)-17-hydroxyandrost-4-en-3-one

> <STRUCTURE_SMILES>
O=C4CC[C@@]3(C)C(CC[C@@H]1[C@@H]3CC[C@]2(C)[C@H](O)CC[C@@H]12)=C4

> <STRUCTURE_SMILES_Desalt>
O=C4CC[C@@]3(C)C(CC[C@@H]1[C@@H]3CC[C@]2(C)[C@H](O)CC[C@@H]12)=C4

> <Substance_modify_yyyymmdd>
20080429

$$$$
