485-72-3
ChemmineR-0914142331XD

 20 22  0  0  0  0  0  0  0  0  1 V2000
    5.9863   -2.3107    0.0000 C   0  0  0  0  0  0  0  0  0  0  0  0
    6.6568   -1.1613    0.0000 C   0  0  0  0  0  0  0  0  0  0  0  0
    7.9857   -1.1613    0.0000 C   0  0  0  0  0  0  0  0  0  0  0  0
    8.6442    0.0000    0.0000 C   0  0  0  0  0  0  0  0  0  0  0  0
    9.9732    0.0000    0.0000 C   0  0  0  0  0  0  0  0  0  0  0  0
   10.6437   -1.1613    0.0000 C   0  0  0  0  0  0  0  0  0  0  0  0
    9.9732   -2.3107    0.0000 C   0  0  0  0  0  0  0  0  0  0  0  0
    8.6442   -2.3107    0.0000 C   0  0  0  0  0  0  0  0  0  0  0  0
    7.9857   -3.4601    0.0000 O   0  0  0  0  0  0  0  0  0  0  0  0
    6.6568   -3.4601    0.0000 C   0  0  0  0  0  0  0  0  0  0  0  0
   11.9726   -1.1613    0.0000 O   0  0  0  0  0  0  0  0  0  0  0  0
    5.9863    0.0000    0.0000 O   0  0  0  0  0  0  0  0  0  0  0  0
    4.6573   -2.3107    0.0000 C   0  0  0  0  0  0  0  0  0  0  0  0
    3.9869   -3.4601    0.0000 C   0  0  0  0  0  0  0  0  0  0  0  0
    2.6579   -3.4601    0.0000 C   0  0  0  0  0  0  0  0  0  0  0  0
    1.9994   -2.3107    0.0000 C   0  0  0  0  0  0  0  0  0  0  0  0
    2.6579   -1.1613    0.0000 C   0  0  0  0  0  0  0  0  0  0  0  0
    3.9869   -1.1613    0.0000 C   0  0  0  0  0  0  0  0  0  0  0  0
    0.6705   -2.3107    0.0000 O   0  0  0  0  0  0  0  0  0  0  0  0
    0.0000   -3.4601    0.0000 C   0  0  0  0  0  0  0  0  0  0  0  0
  1  2  1  0  0  0  0
  1 10  2  0  0  0  0
  1 13  1  0  0  0  0
  2  3  1  0  0  0  0
  2 12  2  0  0  0  0
  3  4  1  0  0  0  0
  3  8  2  0  0  0  0
  4  5  2  0  0  0  0
  5  6  1  0  0  0  0
  6  7  2  0  0  0  0
  6 11  1  0  0  0  0
  7  8  1  0  0  0  0
  8  9  1  0  0  0  0
  9 10  1  0  0  0  0
 13 14  2  0  0  0  0
 13 18  1  0  0  0  0
 14 15  1  0  0  0  0
 15 16  2  0  0  0  0
 16 17  1  0  0  0  0
 16 19  1  0  0  0  0
 17 18  2  0  0  0  0
 19 20  1  0  0  0  0
M  END
> <ID>
2145

> <Formula>
C16H12O4

> <FW>
268.2641

> <DSSTox_CID>
2311

> <DSSTox_RID>
76544

> <DSSTox_GSID>
22311

> <DSSTox_FileID_Sort>
1228

> <TS_ChemName>
Formononetin

> <TS_ChemName_Synonyms>


> <TS_CASRN>
485-72-3

> <CASRN_ChemName_Relationship>
primary

> <TS_Description>
single chemical compound

> <ChemNote>


> <STRUCTURE_Shown>
tested chemical

> <STRUCTURE_Formula>
C16H12O4

> <STRUCTURE_MW>
268.2641

> <STRUCTURE_ChemType>
defined organic

> <STRUCTURE_DefinedOrganicForm>
parent

> <STRUCTURE_IUPAC>
7-hydroxy-3-(4-methoxyphenyl)-4H-chromen-4-one

> <STRUCTURE_SMILES>
COc1ccc(cc1)C3=COc2cc(O)ccc2C3=O

> <STRUCTURE_SMILES_Desalt>
COc1ccc(cc1)C3=COc2cc(O)ccc2C3=O

> <Substance_modify_yyyymmdd>
20080429

$$$$
