491-80-5
ChemmineR-0914142331XD

 21 23  0  0  0  0  0  0  0  0  1 V2000
    5.3168   -2.3111    0.0000 C   0  0  0  0  0  0  0  0  0  0  0  0
    3.9876   -2.3111    0.0000 C   0  0  0  0  0  0  0  0  0  0  0  0
    3.3290   -3.4607    0.0000 C   0  0  0  0  0  0  0  0  0  0  0  0
    1.9998   -3.4607    0.0000 C   0  0  0  0  0  0  0  0  0  0  0  0
    1.3292   -2.3111    0.0000 C   0  0  0  0  0  0  0  0  0  0  0  0
    1.9998   -1.1496    0.0000 C   0  0  0  0  0  0  0  0  0  0  0  0
    3.3290   -1.1496    0.0000 C   0  0  0  0  0  0  0  0  0  0  0  0
    3.9876    0.0000    0.0000 O   0  0  0  0  0  0  0  0  0  0  0  0
    0.0000   -2.3111    0.0000 O   0  0  0  0  0  0  0  0  0  0  0  0
    3.9876   -4.6103    0.0000 O   0  0  0  0  0  0  0  0  0  0  0  0
    5.3168   -4.6103    0.0000 C   0  0  0  0  0  0  0  0  0  0  0  0
    5.9874   -3.4607    0.0000 C   0  0  0  0  0  0  0  0  0  0  0  0
    7.3166   -3.4607    0.0000 C   0  0  0  0  0  0  0  0  0  0  0  0
    7.9871   -2.3111    0.0000 C   0  0  0  0  0  0  0  0  0  0  0  0
    9.3163   -2.3111    0.0000 C   0  0  0  0  0  0  0  0  0  0  0  0
    9.9749   -3.4607    0.0000 C   0  0  0  0  0  0  0  0  0  0  0  0
    9.3163   -4.6103    0.0000 C   0  0  0  0  0  0  0  0  0  0  0  0
    7.9871   -4.6103    0.0000 C   0  0  0  0  0  0  0  0  0  0  0  0
   11.3041   -3.4607    0.0000 O   0  0  0  0  0  0  0  0  0  0  0  0
   11.9747   -4.6103    0.0000 C   0  0  0  0  0  0  0  0  0  0  0  0
    5.9874   -1.1496    0.0000 O   0  0  0  0  0  0  0  0  0  0  0  0
  1  2  1  0  0  0  0
  1 12  1  0  0  0  0
  1 21  2  0  0  0  0
  2  3  2  0  0  0  0
  2  7  1  0  0  0  0
  3  4  1  0  0  0  0
  3 10  1  0  0  0  0
  4  5  2  0  0  0  0
  5  6  1  0  0  0  0
  5  9  1  0  0  0  0
  6  7  2  0  0  0  0
  7  8  1  0  0  0  0
 10 11  1  0  0  0  0
 11 12  2  0  0  0  0
 12 13  1  0  0  0  0
 13 14  1  0  0  0  0
 13 18  2  0  0  0  0
 14 15  2  0  0  0  0
 15 16  1  0  0  0  0
 16 17  2  0  0  0  0
 16 19  1  0  0  0  0
 17 18  1  0  0  0  0
 19 20  1  0  0  0  0
M  END
> <ID>
2196

> <Formula>
C16H12O5

> <FW>
284.2635

> <DSSTox_CID>
2394

> <DSSTox_RID>
76570

> <DSSTox_GSID>
22394

> <DSSTox_FileID_Sort>
1254

> <TS_ChemName>
Biochanin A

> <TS_ChemName_Synonyms>


> <TS_CASRN>
491-80-5

> <CASRN_ChemName_Relationship>
primary

> <TS_Description>
single chemical compound

> <ChemNote>


> <STRUCTURE_Shown>
tested chemical

> <STRUCTURE_Formula>
C16H12O5

> <STRUCTURE_MW>
284.2635

> <STRUCTURE_ChemType>
defined organic

> <STRUCTURE_DefinedOrganicForm>
parent

> <STRUCTURE_IUPAC>
5,7-dihydroxy-3-(4-methoxyphenyl)-4H-chromen-4-one

> <STRUCTURE_SMILES>
COc1ccc(cc1)C3=COc2cc(O)cc(O)c2C3=O

> <STRUCTURE_SMILES_Desalt>
COc1ccc(cc1)C3=COc2cc(O)cc(O)c2C3=O

> <Substance_modify_yyyymmdd>
20080429

$$$$
