4998-76-9
ChemmineR-0914142331XD

  8  7  0  0  0  0  0  0  0  0  1 V2000
    2.5807   -3.1989    0.0000 Cl   0  0  0  0  0  0  0  0  0  0  0  0
    1.3282   -1.1527    0.0000 C    0  0  0  0  0  0  0  0  0  0  0  0
    1.9943    0.0000    0.0000 C    0  0  0  0  0  0  0  0  0  0  0  0
    3.3225    0.0000    0.0000 C    0  0  0  0  0  0  0  0  0  0  0  0
    3.9886   -1.1527    0.0000 C    0  0  0  0  0  0  0  0  0  0  0  0
    3.3225   -2.3054    0.0000 C    0  0  0  0  0  0  0  0  0  0  0  0
    1.9943   -2.3054    0.0000 C    0  0  0  0  0  0  0  0  0  0  0  0
    0.0000   -1.1527    0.0000 N    0  0  0  0  0  0  0  0  0  0  0  0
  2  3  1  0  0  0  0
  2  7  1  0  0  0  0
  2  8  1  0  0  0  0
  3  4  1  0  0  0  0
  4  5  1  0  0  0  0
  5  6  1  0  0  0  0
  6  7  1  0  0  0  0
M  END
> <ID>
351

> <Formula>
C6H14ClN

> <FW>
135.6351 (36.4609+99.1741)

> <DSSTox_CID>
361

> <DSSTox_RID>
75539

> <DSSTox_GSID>
20361

> <DSSTox_FileID_Sort>
223

> <TS_ChemName>
Cyclohexylamine hydrochloride

> <TS_ChemName_Synonyms>


> <TS_CASRN>
4998-76-9

> <CASRN_ChemName_Relationship>
primary

> <TS_Description>
single chemical compound

> <ChemNote>
parent [108-91-8]

> <STRUCTURE_Shown>
tested chemical

> <STRUCTURE_Formula>
C6H14ClN

> <STRUCTURE_MW>
135.6351

> <STRUCTURE_ChemType>
defined organic

> <STRUCTURE_DefinedOrganicForm>
complex

> <STRUCTURE_IUPAC>
cyclohexanamine hydrochloride (1:1)

> <STRUCTURE_SMILES>
Cl.NC1CCCCC1

> <STRUCTURE_SMILES_Desalt>
NC1CCCCC1

> <Substance_modify_yyyymmdd>
20080429

$$$$
