50-04-4
ChemmineR-0914142331XD

 32 35  0  0  1  0  0  0  0  0  1 V2000
    7.0853   -2.6650    0.0000 C   0  0  0  0  0  0  0  0  0  0  0  0
    3.5362   -4.6765    0.0000 C   0  0  0  0  0  0  0  0  0  0  0  0
    8.3665   -2.2678    0.0000 C   0  0  0  0  0  0  0  0  0  0  0  0
    4.7150   -3.9975    0.0000 C   0  0  0  0  0  0  0  0  0  0  0  0
    5.8937   -4.6894    0.0000 C   0  0  0  0  0  0  0  0  0  0  0  0
    7.0853   -4.0103    0.0000 C   0  0  0  0  0  0  0  0  0  0  0  0
    4.7150   -2.6650    0.0000 C   0  0  0  0  0  0  0  0  0  0  0  0
    3.5362   -6.0347    0.0000 C   0  0  0  0  0  0  0  0  0  0  0  0
    5.8937   -1.9987    0.0000 C   0  0  0  0  0  0  0  0  0  0  0  0
    8.7125   -0.9481    0.0000 C   0  0  0  0  0  0  0  0  0  0  0  0
    2.3575   -6.7137    0.0000 C   0  0  0  0  0  0  0  0  0  0  0  0
    9.1481   -3.3056    0.0000 C   0  0  0  0  0  0  0  0  0  0  0  0
    8.3665   -4.4203    0.0000 C   0  0  0  0  0  0  0  0  0  0  0  0
    5.8937   -6.0219    0.0000 C   0  0  0  0  0  0  0  0  0  0  0  0
    2.3575   -3.9975    0.0000 C   0  0  0  0  0  0  0  0  0  0  0  0
    4.7150   -6.7137    0.0000 C   0  0  0  0  0  0  0  0  0  0  0  0
    1.1916   -6.0219    0.0000 C   0  0  0  0  0  0  0  0  0  0  0  0
   12.0309   -1.3069    0.0000 C   0  0  0  0  0  0  0  0  0  0  0  0
    3.5106   -1.9603    0.0000 O   0  0  0  0  0  0  0  0  0  0  0  0
   10.0065   -0.6278    0.0000 C   0  0  0  0  0  0  0  0  0  0  0  0
    7.7772    0.0000    0.0000 O   0  0  0  0  0  0  0  0  0  0  0  0
   10.9546   -1.5759    0.0000 O   0  0  0  0  0  0  0  0  0  0  0  0
   12.3128   -0.2306    0.0000 O   0  0  0  0  0  0  0  0  0  0  0  0
    0.0000   -6.6753    0.0000 O   0  0  0  0  0  0  0  0  0  0  0  0
    9.6990   -2.3831    0.0000 O   0  0  0  0  0  0  0  0  0  0  0  0
    7.0853   -1.3069    0.0000 C   0  0  0  0  0  0  0  0  0  0  0  0
    1.1916   -4.6894    0.0000 C   0  0  0  0  0  0  0  0  0  0  0  0
    3.5362   -3.3056    0.0000 C   0  0  0  0  0  0  0  0  0  0  0  0
   12.8125   -2.1012    0.0000 C   0  0  0  0  0  0  0  0  0  0  0  0
    5.8937   -3.3569    0.0000 H   0  0  0  0  0  0  0  0  0  0  0  0
    4.7150   -5.3300    0.0000 H   0  0  0  0  0  0  0  0  0  0  0  0
    7.0853   -5.3428    0.0000 H   0  0  0  0  0  0  0  0  0  0  0  0
  1  3  1  0  0  0  0
  1  6  1  0  0  0  0
  1  9  1  0  0  0  0
  1 26  1  1  0  0  0
  2  4  1  0  0  0  0
  2  8  1  0  0  0  0
  2 15  1  0  0  0  0
  2 28  1  1  0  0  0
  3 10  1  0  0  0  0
  3 12  1  0  0  0  0
  3 25  1  6  0  0  0
  4  7  1  0  0  0  0
  4  5  1  0  0  0  0
  4 31  1  6  0  0  0
  5  6  1  0  0  0  0
  5 14  1  0  0  0  0
  5 30  1  1  0  0  0
  6 13  1  0  0  0  0
  6 32  1  6  0  0  0
  7  9  1  0  0  0  0
  7 19  2  0  0  0  0
  8 11  2  0  0  0  0
  8 16  1  0  0  0  0
 10 20  1  0  0  0  0
 10 21  2  0  0  0  0
 11 17  1  0  0  0  0
 12 13  1  0  0  0  0
 14 16  1  0  0  0  0
 15 27  1  0  0  0  0
 17 27  1  0  0  0  0
 17 24  2  0  0  0  0
 18 22  1  0  0  0  0
 18 23  2  0  0  0  0
 18 29  1  0  0  0  0
 20 22  1  0  0  0  0
M  END
> <ID>
2583

> <Formula>
C23H30O6

> <FW>
402.4807

> <DSSTox_CID>
2858

> <DSSTox_RID>
76761

> <DSSTox_GSID>
22858

> <DSSTox_FileID_Sort>
1445

> <TS_ChemName>
Cortisone acetate

> <TS_ChemName_Synonyms>


> <TS_CASRN>
50-04-4

> <CASRN_ChemName_Relationship>
primary

> <TS_Description>
single chemical compound

> <ChemNote>
stereochem; tautomers

> <STRUCTURE_Shown>
tested chemical

> <STRUCTURE_Formula>
C23H30O6

> <STRUCTURE_MW>
402.4807

> <STRUCTURE_ChemType>
defined organic

> <STRUCTURE_DefinedOrganicForm>
parent

> <STRUCTURE_IUPAC>
17-hydroxy-3,11,20-trioxopregn-4-en-21-yl acetate

> <STRUCTURE_SMILES>
CC(=O)OCC(=O)[C@@]3(O)CC[C@H]2[C@@H]4CCC1=CC(=O)CC[C@]1(C)[C@H]4C(=O)C[C@@]23C

> <STRUCTURE_SMILES_Desalt>
CC(=O)OCC(=O)[C@@]3(O)CC[C@H]2[C@@H]4CCC1=CC(=O)CC[C@]1(C)[C@H]4C(=O)C[C@@]23C

> <Substance_modify_yyyymmdd>
20080429

$$$$
