50-14-6
ChemmineR-0914142331XD

 31 33  0  0  1  0  0  0  0  0  1 V2000
    4.5220   -3.9128    0.0000 C   0  0  0  0  0  0  0  0  0  0  0  0
    4.5220   -5.2249    0.0000 C   0  0  0  0  0  0  0  0  0  0  0  0
    2.2844   -9.1025    0.0000 C   0  0  0  0  0  0  0  0  0  0  0  0
    5.6349   -3.2568    0.0000 C   0  0  0  0  0  0  0  0  0  0  0  0
    2.2844   -7.8022    0.0000 C   0  0  0  0  0  0  0  0  0  0  0  0
    3.3856   -9.7469    0.0000 C   0  0  0  0  0  0  0  0  0  0  0  0
    3.3856   -5.8692    0.0000 C   0  0  0  0  0  0  0  0  0  0  0  0
    3.3856   -7.1579    0.0000 C   0  0  0  0  0  0  0  0  0  0  0  0
    6.7361   -1.3004    0.0000 C   0  0  0  0  0  0  0  0  0  0  0  0
    7.8725   -1.9447    0.0000 C   0  0  0  0  0  0  0  0  0  0  0  0
    6.7713   -5.2249    0.0000 C   0  0  0  0  0  0  0  0  0  0  0  0
    6.7713   -3.9128    0.0000 C   0  0  0  0  0  0  0  0  0  0  0  0
    1.1598   -9.7469    0.0000 C   0  0  0  0  0  0  0  0  0  0  0  0
    5.6349   -1.9447    0.0000 C   0  0  0  0  0  0  0  0  0  0  0  0
    3.3856  -11.0355    0.0000 C   0  0  0  0  0  0  0  0  0  0  0  0
    4.5220   -9.1025    0.0000 C   0  0  0  0  0  0  0  0  0  0  0  0
    8.9737   -1.3004    0.0000 C   0  0  0  0  0  0  0  0  0  0  0  0
    3.3856   -3.2568    0.0000 C   0  0  0  0  0  0  0  0  0  0  0  0
    4.5220   -2.6124    0.0000 C   0  0  0  0  0  0  0  0  0  0  0  0
    1.1598  -11.0355    0.0000 C   0  0  0  0  0  0  0  0  0  0  0  0
    2.2844  -11.6798    0.0000 C   0  0  0  0  0  0  0  0  0  0  0  0
   10.1100   -1.9447    0.0000 C   0  0  0  0  0  0  0  0  0  0  0  0
    2.2844   -5.2249    0.0000 C   0  0  0  0  0  0  0  0  0  0  0  0
    0.0000  -11.7150    0.0000 O   0  0  0  0  0  0  0  0  0  0  0  0
    2.2844   -3.9128    0.0000 C   0  0  0  0  0  0  0  0  0  0  0  0
    4.4986   -1.3004    0.0000 C   0  0  0  0  0  0  0  0  0  0  0  0
    8.9854    0.0000    0.0000 C   0  0  0  0  0  0  0  0  0  0  0  0
   10.1100   -3.2568    0.0000 C   0  0  0  0  0  0  0  0  0  0  0  0
   11.2230   -1.3004    0.0000 C   0  0  0  0  0  0  0  0  0  0  0  0
    4.5220   -6.5721    0.0000 H   0  0  0  0  0  0  0  0  0  0  0  0
    5.6349   -4.6157    0.0000 H   0  0  0  0  0  0  0  0  0  0  0  0
  1  2  1  0  0  0  0
  1  4  1  0  0  0  0
  1 18  1  0  0  0  0
  1 19  1  1  0  0  0
  2  7  1  0  0  0  0
  2 11  1  0  0  0  0
  2 30  1  6  0  0  0
  3  5  2  0  0  0  0
  3  6  1  0  0  0  0
  3 13  1  0  0  0  0
  4 12  1  0  0  0  0
  4 14  1  0  0  0  0
  4 31  1  6  0  0  0
  5  8  1  0  0  0  0
  6 15  1  0  0  0  0
  6 16  2  0  0  0  0
  7  8  2  0  0  0  0
  7 23  1  0  0  0  0
  9 14  1  0  0  0  0
  9 10  2  0  0  0  0
 10 17  1  0  0  0  0
 11 12  1  0  0  0  0
 13 20  1  0  0  0  0
 14 26  1  6  0  0  0
 15 21  1  0  0  0  0
 17 22  1  0  0  0  0
 17 27  1  6  0  0  0
 18 25  1  0  0  0  0
 20 21  1  0  0  0  0
 20 24  1  6  0  0  0
 22 28  1  0  0  0  0
 22 29  1  0  0  0  0
 23 25  1  0  0  0  0
M  END
> <ID>
229

> <Formula>
C28H44O

> <FW>
396.6484

> <DSSTox_CID>
233

> <DSSTox_RID>
75449

> <DSSTox_GSID>
20233

> <DSSTox_FileID_Sort>
133

> <TS_ChemName>
Ergocalciferol

> <TS_ChemName_Synonyms>
Ergocalciferol (Calciferol)

> <TS_CASRN>
50-14-6

> <CASRN_ChemName_Relationship>
primary

> <TS_Description>
single chemical compound

> <ChemNote>
stereochem

> <STRUCTURE_Shown>
tested chemical

> <STRUCTURE_Formula>
C28H44O

> <STRUCTURE_MW>
396.6484

> <STRUCTURE_ChemType>
defined organic

> <STRUCTURE_DefinedOrganicForm>
parent

> <STRUCTURE_IUPAC>
(3S,5Z,7E,22E)-9,10-secoergosta-5,7,10,22-tetraen-3-ol

> <STRUCTURE_SMILES>
C=C3CC[C@H](O)C\C3=C\C=C1/CCC[C@]2(C)[C@H](CC[C@@H]12)[C@H](C)/C=C/[C@H](C)C(C)C

> <STRUCTURE_SMILES_Desalt>
C=C3CC[C@H](O)C\C3=C\C=C1/CCC[C@]2(C)[C@H](CC[C@@H]12)[C@H](C)/C=C/[C@H](C)C(C)C

> <Substance_modify_yyyymmdd>
20080429

$$$$
