50-22-6
ChemmineR-0914142331XD

 28 31  0  0  1  0  0  0  0  0  1 V2000
    6.8935   -2.6917    0.0000 C   0  0  0  0  0  0  0  0  0  0  0  0
    6.8935   -4.0157    0.0000 C   0  0  0  0  0  0  0  0  0  0  0  0
    5.7445   -4.6832    0.0000 C   0  0  0  0  0  0  0  0  0  0  0  0
    5.7445   -6.0072    0.0000 C   0  0  0  0  0  0  0  0  0  0  0  0
    4.5956   -6.6746    0.0000 C   0  0  0  0  0  0  0  0  0  0  0  0
    3.4467   -6.0072    0.0000 C   0  0  0  0  0  0  0  0  0  0  0  0
    3.4467   -4.6832    0.0000 C   0  0  0  0  0  0  0  0  0  0  0  0
    4.5956   -4.0157    0.0000 C   0  0  0  0  0  0  0  0  0  0  0  0
    4.5956   -2.6917    0.0000 C   0  0  0  0  0  0  0  0  0  0  0  0
    5.7445   -2.0352    0.0000 C   0  0  0  0  0  0  0  0  0  0  0  0
    2.2978   -4.0157    0.0000 C   0  0  0  0  0  0  0  0  0  0  0  0
    1.1489   -4.6832    0.0000 C   0  0  0  0  0  0  0  0  0  0  0  0
    1.1489   -6.0072    0.0000 C   0  0  0  0  0  0  0  0  0  0  0  0
    0.0000   -6.6746    0.0000 O   0  0  0  0  0  0  0  0  0  0  0  0
    2.2978   -6.6746    0.0000 C   0  0  0  0  0  0  0  0  0  0  0  0
    8.1627   -4.4315    0.0000 C   0  0  0  0  0  0  0  0  0  0  0  0
    8.9396   -3.3592    0.0000 C   0  0  0  0  0  0  0  0  0  0  0  0
    8.1627   -2.2869    0.0000 C   0  0  0  0  0  0  0  0  0  0  0  0
    8.5676   -1.0176    0.0000 C   0  0  0  0  0  0  0  0  0  0  0  0
    6.9044   -1.3021    0.0000 C   0  0  0  0  0  0  0  0  0  0  0  0
    5.7445   -3.4905    0.0000 H   0  0  0  0  0  0  0  0  0  0  0  0
    4.5956   -5.3944    0.0000 H   0  0  0  0  0  0  0  0  0  0  0  0
    6.9591   -5.3944    0.0000 H   0  0  0  0  0  0  0  0  0  0  0  0
    3.3920   -3.0528    0.0000 C   0  0  0  0  0  0  0  0  0  0  0  0
    8.1299    0.0000    0.0000 O   0  0  0  0  0  0  0  0  0  0  0  0
    9.7165   -0.5580    0.0000 C   0  0  0  0  0  0  0  0  0  0  0  0
   10.9420   -1.4115    0.0000 O   0  0  0  0  0  0  0  0  0  0  0  0
    3.6875   -1.8820    0.0000 O   0  0  0  0  0  0  0  0  0  0  0  0
  1  2  1  0  0  0  0
  1 10  1  0  0  0  0
  1 18  1  0  0  0  0
  1 20  1  1  0  0  0
  2  3  1  0  0  0  0
  2 16  1  0  0  0  0
  2 23  1  6  0  0  0
  3  4  1  0  0  0  0
  3  8  1  0  0  0  0
  3 21  1  1  0  0  0
  4  5  1  0  0  0  0
  5  6  1  0  0  0  0
  6  7  1  0  0  0  0
  6 15  2  0  0  0  0
  7  8  1  0  0  0  0
  7 11  1  0  0  0  0
  7 24  1  1  0  0  0
  8  9  1  0  0  0  0
  8 22  1  6  0  0  0
  9 10  1  0  0  0  0
  9 28  1  1  0  0  0
 11 12  1  0  0  0  0
 12 13  1  0  0  0  0
 13 14  2  0  0  0  0
 13 15  1  0  0  0  0
 16 17  1  0  0  0  0
 17 18  1  0  0  0  0
 18 19  1  1  0  0  0
 19 25  2  0  0  0  0
 19 26  1  0  0  0  0
 26 27  1  0  0  0  0
M  END
> <ID>
2251

> <Formula>
C21H30O4

> <FW>
346.4605

> <DSSTox_CID>
2474

> <DSSTox_RID>
76598

> <DSSTox_GSID>
22474

> <DSSTox_FileID_Sort>
1282

> <TS_ChemName>
Corticosterone

> <TS_ChemName_Synonyms>
Corticosterone (CORT)

> <TS_CASRN>
50-22-6

> <CASRN_ChemName_Relationship>
primary

> <TS_Description>
single chemical compound

> <ChemNote>
stereochem

> <STRUCTURE_Shown>
tested chemical

> <STRUCTURE_Formula>
C21H30O4

> <STRUCTURE_MW>
346.4605

> <STRUCTURE_ChemType>
defined organic

> <STRUCTURE_DefinedOrganicForm>
parent

> <STRUCTURE_IUPAC>
(11beta)-11,21-dihydroxypregn-4-ene-3,20-dione

> <STRUCTURE_SMILES>
OCC(=O)[C@H]4CC[C@@H]2[C@]4(C)C[C@H](O)[C@@H]1[C@@]3(C)CCC(=O)C=C3CC[C@H]12

> <STRUCTURE_SMILES_Desalt>
OCC(=O)[C@H]4CC[C@@H]2[C@]4(C)C[C@H](O)[C@@H]1[C@@]3(C)CCC(=O)C=C3CC[C@H]12

> <Substance_modify_yyyymmdd>
20080429

$$$$
