50-23-7
ChemmineR-0914142331XD

 29 32  0  0  1  0  0  0  0  0  1 V2000
    6.9475   -3.7219    0.0000 C   0  0  0  0  0  0  0  0  0  0  0  0
    3.4833   -5.7259    0.0000 C   0  0  0  0  0  0  0  0  0  0  0  0
    8.2167   -3.3306    0.0000 C   0  0  0  0  0  0  0  0  0  0  0  0
    5.7927   -5.7259    0.0000 C   0  0  0  0  0  0  0  0  0  0  0  0
    6.9475   -5.0675    0.0000 C   0  0  0  0  0  0  0  0  0  0  0  0
    4.6285   -5.0484    0.0000 C   0  0  0  0  0  0  0  0  0  0  0  0
    3.4833   -7.0525    0.0000 C   0  0  0  0  0  0  0  0  0  0  0  0
    5.7832   -3.0634    0.0000 C   0  0  0  0  0  0  0  0  0  0  0  0
    4.6285   -3.7219    0.0000 C   0  0  0  0  0  0  0  0  0  0  0  0
    2.3381   -7.7109    0.0000 C   0  0  0  0  0  0  0  0  0  0  0  0
    8.2167   -1.9945    0.0000 C   0  0  0  0  0  0  0  0  0  0  0  0
    8.9706   -4.3803    0.0000 C   0  0  0  0  0  0  0  0  0  0  0  0
    8.2167   -5.4587    0.0000 C   0  0  0  0  0  0  0  0  0  0  0  0
    5.7927   -7.0429    0.0000 C   0  0  0  0  0  0  0  0  0  0  0  0
    2.3381   -5.0484    0.0000 C   0  0  0  0  0  0  0  0  0  0  0  0
    4.6285   -7.7109    0.0000 C   0  0  0  0  0  0  0  0  0  0  0  0
    1.1929   -7.0429    0.0000 C   0  0  0  0  0  0  0  0  0  0  0  0
    9.3619   -1.3170    0.0000 O   0  0  0  0  0  0  0  0  0  0  0  0
    0.0000   -7.6823    0.0000 O   0  0  0  0  0  0  0  0  0  0  0  0
    9.5432   -3.3783    0.0000 O   0  0  0  0  0  0  0  0  0  0  0  0
    6.9570   -2.3858    0.0000 C   0  0  0  0  0  0  0  0  0  0  0  0
    1.1929   -5.7259    0.0000 C   0  0  0  0  0  0  0  0  0  0  0  0
    3.4642   -3.0538    0.0000 O   0  0  0  0  0  0  0  0  0  0  0  0
    3.4833   -4.3803    0.0000 C   0  0  0  0  0  0  0  0  0  0  0  0
    7.0715   -1.3361    0.0000 C   0  0  0  0  0  0  0  0  0  0  0  0
    7.0715    0.0000    0.0000 O   0  0  0  0  0  0  0  0  0  0  0  0
    5.7927   -4.3994    0.0000 H   0  0  0  0  0  0  0  0  0  0  0  0
    6.9475   -6.3940    0.0000 H   0  0  0  0  0  0  0  0  0  0  0  0
    4.6285   -6.3844    0.0000 H   0  0  0  0  0  0  0  0  0  0  0  0
  1  3  1  0  0  0  0
  1  5  1  0  0  0  0
  1  8  1  0  0  0  0
  1 21  1  1  0  0  0
  2  6  1  0  0  0  0
  2  7  1  0  0  0  0
  2 15  1  0  0  0  0
  2 24  1  1  0  0  0
  3 11  1  0  0  0  0
  3 12  1  0  0  0  0
  3 20  1  6  0  0  0
  4  5  1  0  0  0  0
  4 14  1  0  0  0  0
  4  6  1  0  0  0  0
  4 27  1  1  0  0  0
  5 13  1  0  0  0  0
  5 28  1  6  0  0  0
  6  9  1  0  0  0  0
  6 29  1  6  0  0  0
  7 10  2  0  0  0  0
  7 16  1  0  0  0  0
  8  9  1  0  0  0  0
  9 23  1  1  0  0  0
 10 17  1  0  0  0  0
 11 18  2  0  0  0  0
 11 25  1  0  0  0  0
 12 13  1  0  0  0  0
 14 16  1  0  0  0  0
 15 22  1  0  0  0  0
 17 22  1  0  0  0  0
 17 19  2  0  0  0  0
 25 26  1  0  0  0  0
M  END
> <ID>
684

> <Formula>
C21H30O5

> <FW>
362.4599

> <DSSTox_CID>
714

> <DSSTox_RID>
75753

> <DSSTox_GSID>
20714

> <DSSTox_FileID_Sort>
437

> <TS_ChemName>
Hydrocortisone

> <TS_ChemName_Synonyms>
Hydrocortisone (Cortisol) (CORT)

> <TS_CASRN>
50-23-7

> <CASRN_ChemName_Relationship>
primary

> <TS_Description>
single chemical compound

> <ChemNote>
stereochem

> <STRUCTURE_Shown>
tested chemical

> <STRUCTURE_Formula>
C21H30O5

> <STRUCTURE_MW>
362.4599

> <STRUCTURE_ChemType>
defined organic

> <STRUCTURE_DefinedOrganicForm>
parent

> <STRUCTURE_IUPAC>
(11beta)-11,17,21-trihydroxypregn-4-ene-3,20-dione

> <STRUCTURE_SMILES>
OCC(=O)[C@@]4(O)CC[C@@H]2[C@]4(C)C[C@H](O)[C@@H]1[C@@]3(C)CCC(=O)C=C3CC[C@H]12

> <STRUCTURE_SMILES_Desalt>
OCC(=O)[C@@]4(O)CC[C@@H]2[C@]4(C)C[C@H](O)[C@@H]1[C@@]3(C)CCC(=O)C=C3CC[C@H]12

> <Substance_modify_yyyymmdd>
20080429

$$$$
