50-28-2
ChemmineR-0914142331XD

 23 26  0  0  1  0  0  0  0  0  1 V2000
    6.9343   -1.7134    0.0000 C   0  0  0  0  0  0  0  0  0  0  0  0
    6.9343   -3.0321    0.0000 C   0  0  0  0  0  0  0  0  0  0  0  0
    5.7681   -3.6780    0.0000 C   0  0  0  0  0  0  0  0  0  0  0  0
    4.6289   -3.0321    0.0000 C   0  0  0  0  0  0  0  0  0  0  0  0
    3.4806   -3.6780    0.0000 C   0  0  0  0  0  0  0  0  0  0  0  0
    3.4806   -5.0146    0.0000 C   0  0  0  0  0  0  0  0  0  0  0  0
    5.7681   -1.0227    0.0000 C   0  0  0  0  0  0  0  0  0  0  0  0
    4.6289   -1.7134    0.0000 C   0  0  0  0  0  0  0  0  0  0  0  0
    5.7681   -5.0146    0.0000 C   0  0  0  0  0  0  0  0  0  0  0  0
    8.1992   -3.4178    0.0000 C   0  0  0  0  0  0  0  0  0  0  0  0
    2.3593   -3.0321    0.0000 C   0  0  0  0  0  0  0  0  0  0  0  0
    8.1992   -1.2828    0.0000 C   0  0  0  0  0  0  0  0  0  0  0  0
    4.6289   -5.6874    0.0000 C   0  0  0  0  0  0  0  0  0  0  0  0
    2.3593   -5.6874    0.0000 C   0  0  0  0  0  0  0  0  0  0  0  0
    8.9706   -2.3683    0.0000 C   0  0  0  0  0  0  0  0  0  0  0  0
    1.1931   -5.0146    0.0000 C   0  0  0  0  0  0  0  0  0  0  0  0
    1.1931   -3.6780    0.0000 C   0  0  0  0  0  0  0  0  0  0  0  0
    6.9343   -0.3588    0.0000 C   0  0  0  0  0  0  0  0  0  0  0  0
    8.5401    0.0000    0.0000 O   0  0  0  0  0  0  0  0  0  0  0  0
    0.0000   -5.7143    0.0000 O   0  0  0  0  0  0  0  0  0  0  0  0
    5.7681   -2.3413    0.0000 H   0  0  0  0  0  0  0  0  0  0  0  0
    4.6289   -4.3597    0.0000 H   0  0  0  0  0  0  0  0  0  0  0  0
    6.9343   -4.3597    0.0000 H   0  0  0  0  0  0  0  0  0  0  0  0
  1  2  1  0  0  0  0
  1  7  1  0  0  0  0
  1 12  1  0  0  0  0
  1 18  1  1  0  0  0
  2  3  1  0  0  0  0
  2 10  1  0  0  0  0
  2 23  1  6  0  0  0
  3  9  1  0  0  0  0
  3  4  1  0  0  0  0
  3 21  1  1  0  0  0
  4  8  1  0  0  0  0
  4  5  1  0  0  0  0
  4 22  1  6  0  0  0
  5  6  1  0  0  0  0
  5 11  2  0  0  0  0
  6 14  2  0  0  0  0
  6 13  1  0  0  0  0
  7  8  1  0  0  0  0
  9 13  1  0  0  0  0
 10 15  1  0  0  0  0
 11 17  1  0  0  0  0
 12 15  1  0  0  0  0
 12 19  1  1  0  0  0
 14 16  1  0  0  0  0
 16 17  2  0  0  0  0
 16 20  1  0  0  0  0
M  END
> <ID>
548

> <Formula>
C18H24O2

> <FW>
272.382

> <DSSTox_CID>
573

> <DSSTox_RID>
75666

> <DSSTox_GSID>
20573

> <DSSTox_FileID_Sort>
350

> <TS_ChemName>
17beta-Estradiol

> <TS_ChemName_Synonyms>
Oestradiol; E2; Oestrogen; (Estradiol; Estrogen)

> <TS_CASRN>
50-28-2

> <CASRN_ChemName_Relationship>
primary

> <TS_Description>
single chemical compound

> <ChemNote>
stereochem

> <STRUCTURE_Shown>
tested chemical

> <STRUCTURE_Formula>
C18H24O2

> <STRUCTURE_MW>
272.382

> <STRUCTURE_ChemType>
defined organic

> <STRUCTURE_DefinedOrganicForm>
parent

> <STRUCTURE_IUPAC>
(17beta)-estra-1(10),2,4-triene-3,17-diol

> <STRUCTURE_SMILES>
Oc3cc4CC[C@@H]1[C@H](CC[C@]2(C)[C@@H](O)CC[C@@H]12)c4cc3

> <STRUCTURE_SMILES_Desalt>
Oc3cc4CC[C@@H]1[C@H](CC[C@]2(C)[C@@H](O)CC[C@@H]12)c4cc3

> <Substance_modify_yyyymmdd>
20080429

$$$$
