50-27-1
ChemmineR-0914142331XD

 24 27  0  0  1  0  0  0  0  0  1 V2000
    6.9336   -1.6818    0.0000 C   0  0  0  0  0  0  0  0  0  0  0  0
    6.9336   -3.0128    0.0000 C   0  0  0  0  0  0  0  0  0  0  0  0
    5.7780   -3.6835    0.0000 C   0  0  0  0  0  0  0  0  0  0  0  0
    5.7780   -5.0144    0.0000 C   0  0  0  0  0  0  0  0  0  0  0  0
    4.6224   -5.6851    0.0000 C   0  0  0  0  0  0  0  0  0  0  0  0
    3.4668   -5.0144    0.0000 C   0  0  0  0  0  0  0  0  0  0  0  0
    3.4668   -3.6835    0.0000 C   0  0  0  0  0  0  0  0  0  0  0  0
    4.6224   -3.0128    0.0000 C   0  0  0  0  0  0  0  0  0  0  0  0
    4.6224   -1.6818    0.0000 C   0  0  0  0  0  0  0  0  0  0  0  0
    5.7780   -1.0215    0.0000 C   0  0  0  0  0  0  0  0  0  0  0  0
    2.3112   -3.0128    0.0000 C   0  0  0  0  0  0  0  0  0  0  0  0
    1.1556   -3.6835    0.0000 C   0  0  0  0  0  0  0  0  0  0  0  0
    1.1556   -5.0144    0.0000 C   0  0  0  0  0  0  0  0  0  0  0  0
    0.0000   -5.6851    0.0000 O   0  0  0  0  0  0  0  0  0  0  0  0
    2.3112   -5.6851    0.0000 C   0  0  0  0  0  0  0  0  0  0  0  0
    8.2026   -3.4255    0.0000 C   0  0  0  0  0  0  0  0  0  0  0  0
    8.9868   -2.3525    0.0000 C   0  0  0  0  0  0  0  0  0  0  0  0
    8.2026   -1.2691    0.0000 C   0  0  0  0  0  0  0  0  0  0  0  0
    8.6154    0.0000    0.0000 O   0  0  0  0  0  0  0  0  0  0  0  0
    6.9336   -0.2889    0.0000 C   0  0  0  0  0  0  0  0  0  0  0  0
    5.7780   -2.4866    0.0000 H   0  0  0  0  0  0  0  0  0  0  0  0
   10.3178   -2.3525    0.0000 O   0  0  0  0  0  0  0  0  0  0  0  0
    4.6224   -4.3335    0.0000 H   0  0  0  0  0  0  0  0  0  0  0  0
    6.9336   -4.3335    0.0000 H   0  0  0  0  0  0  0  0  0  0  0  0
  1  2  1  0  0  0  0
  1 10  1  0  0  0  0
  1 18  1  0  0  0  0
  1 20  1  1  0  0  0
  2  3  1  0  0  0  0
  2 16  1  0  0  0  0
  2 24  1  6  0  0  0
  3  4  1  0  0  0  0
  3  8  1  0  0  0  0
  3 21  1  1  0  0  0
  4  5  1  0  0  0  0
  5  6  1  0  0  0  0
  6  7  2  0  0  0  0
  6 15  1  0  0  0  0
  7  8  1  0  0  0  0
  7 11  1  0  0  0  0
  8  9  1  0  0  0  0
  8 23  1  6  0  0  0
  9 10  1  0  0  0  0
 11 12  2  0  0  0  0
 12 13  1  0  0  0  0
 13 14  1  0  0  0  0
 13 15  2  0  0  0  0
 16 17  1  0  0  0  0
 17 18  1  0  0  0  0
 17 22  1  6  0  0  0
 18 19  1  1  0  0  0
M  END
> <ID>
2175

> <Formula>
C18H24O3

> <FW>
288.3814

> <DSSTox_CID>
2366

> <DSSTox_RID>
76559

> <DSSTox_GSID>
22366

> <DSSTox_FileID_Sort>
1243

> <TS_ChemName>
Estriol

> <TS_ChemName_Synonyms>
Estriol (E3)

> <TS_CASRN>
50-27-1

> <CASRN_ChemName_Relationship>
primary

> <TS_Description>
single chemical compound

> <ChemNote>
stereochem

> <STRUCTURE_Shown>
tested chemical

> <STRUCTURE_Formula>
C18H24O3

> <STRUCTURE_MW>
288.3814

> <STRUCTURE_ChemType>
defined organic

> <STRUCTURE_DefinedOrganicForm>
parent

> <STRUCTURE_IUPAC>
(16alpha,17beta)-estra-1,3,5(10)-triene-3,16,17-triol

> <STRUCTURE_SMILES>
Oc3cc4CC[C@@H]1[C@H](CC[C@]2(C)[C@@H](O)[C@H](O)C[C@@H]12)c4cc3

> <STRUCTURE_SMILES_Desalt>
Oc3cc4CC[C@@H]1[C@H](CC[C@]2(C)[C@@H](O)[C@H](O)C[C@@H]12)c4cc3

> <Substance_modify_yyyymmdd>
20080429

$$$$
