50-37-3
ChemmineR-0914142331XD

 26 29  0  0  1  0  0  0  0  0  1 V2000
    3.2891   -3.8904    0.0000 C   0  0  0  0  0  0  0  0  0  0  0  0
    4.3368   -2.0135    0.0000 C   0  0  0  0  0  0  0  0  0  0  0  0
    3.2891   -2.6422    0.0000 C   0  0  0  0  0  0  0  0  0  0  0  0
    3.2891   -6.4415    0.0000 C   0  0  0  0  0  0  0  0  0  0  0  0
    4.3368   -4.5373    0.0000 C   0  0  0  0  0  0  0  0  0  0  0  0
    2.1593   -4.5373    0.0000 C   0  0  0  0  0  0  0  0  0  0  0  0
    5.4392   -3.8904    0.0000 N   0  0  0  0  0  0  0  0  0  0  0  0
    2.1593   -5.8037    0.0000 C   0  0  0  0  0  0  0  0  0  0  0  0
    5.4119   -1.3393    0.0000 C   0  0  0  0  0  0  0  0  0  0  0  0
    4.3368   -5.8037    0.0000 C   0  0  0  0  0  0  0  0  0  0  0  0
    3.2891   -7.7170    0.0000 C   0  0  0  0  0  0  0  0  0  0  0  0
    1.0842   -7.7170    0.0000 N   0  0  0  0  0  0  0  0  0  0  0  0
    5.4392   -2.6422    0.0000 C   0  0  0  0  0  0  0  0  0  0  0  0
    1.0842   -6.4415    0.0000 C   0  0  0  0  0  0  0  0  0  0  0  0
    6.6510   -1.8769    0.0000 N   0  0  0  0  0  0  0  0  0  0  0  0
    5.4119    0.0000    0.0000 O   0  0  0  0  0  0  0  0  0  0  0  0
    1.0842   -3.8904    0.0000 C   0  0  0  0  0  0  0  0  0  0  0  0
    6.5599   -4.5555    0.0000 C   0  0  0  0  0  0  0  0  0  0  0  0
    0.0000   -4.5373    0.0000 C   0  0  0  0  0  0  0  0  0  0  0  0
    0.0000   -5.8037    0.0000 C   0  0  0  0  0  0  0  0  0  0  0  0
    7.8628   -1.2118    0.0000 C   0  0  0  0  0  0  0  0  0  0  0  0
    6.6510   -3.1706    0.0000 C   0  0  0  0  0  0  0  0  0  0  0  0
    7.9083   -3.9542    0.0000 C   0  0  0  0  0  0  0  0  0  0  0  0
    9.1110   -1.8769    0.0000 C   0  0  0  0  0  0  0  0  0  0  0  0
    3.1433   -1.2391    0.0000 H   0  0  0  0  0  0  0  0  0  0  0  0
    5.5212   -5.3026    0.0000 H   0  0  0  0  0  0  0  0  0  0  0  0
  1  3  2  0  0  0  0
  1  5  1  0  0  0  0
  1  6  1  0  0  0  0
  2  3  1  0  0  0  0
  2  9  1  1  0  0  0
  2 25  1  6  0  0  0
  2 13  1  0  0  0  0
  4  8  1  0  0  0  0
  4 11  2  0  0  0  0
  4 10  1  0  0  0  0
  5  7  1  0  0  0  0
  5 10  1  0  0  0  0
  5 26  1  1  0  0  0
  6  8  2  0  0  0  0
  6 17  1  0  0  0  0
  7 13  1  0  0  0  0
  7 18  1  0  0  0  0
  8 14  1  0  0  0  0
  9 15  1  0  0  0  0
  9 16  2  0  0  0  0
 11 12  1  0  0  0  0
 12 14  1  0  0  0  0
 14 20  2  0  0  0  0
 15 21  1  0  0  0  0
 15 22  1  0  0  0  0
 17 19  2  0  0  0  0
 19 20  1  0  0  0  0
 21 24  1  0  0  0  0
 22 23  1  0  0  0  0
M  END
> <ID>
2906

> <Formula>
C20H25N3O

> <FW>
323.432

> <DSSTox_CID>
3231

> <DSSTox_RID>
76934

> <DSSTox_GSID>
23231

> <DSSTox_FileID_Sort>
1618

> <TS_ChemName>
Lysergide

> <TS_ChemName_Synonyms>


> <TS_CASRN>
50-37-3

> <CASRN_ChemName_Relationship>
primary

> <TS_Description>
single chemical compound

> <ChemNote>
stereochem

> <STRUCTURE_Shown>
tested chemical

> <STRUCTURE_Formula>
C20H25N3O

> <STRUCTURE_MW>
323.432

> <STRUCTURE_ChemType>
defined organic

> <STRUCTURE_DefinedOrganicForm>
parent

> <STRUCTURE_IUPAC>
(8beta)-N,N-diethyl-6-methyl-9,10-didehydroergoline-8-carboxamide

> <STRUCTURE_SMILES>
CCN(CC)C(=O)[C@@H]2C=C1c3cccc4ncc(C[C@H]1N(C)C2)c34

> <STRUCTURE_SMILES_Desalt>
CCN(CC)C(=O)[C@@H]2C=C1c3cccc4ncc(C[C@H]1N(C)C2)c34

> <Substance_modify_yyyymmdd>
20080429

$$$$
