50-32-8
ChemmineR-0914142331XD

 20 24  0  0  0  0  0  0  0  0  1 V2000
    4.6494    0.0000    0.0000 C   0  0  0  0  0  0  0  0  0  0  0  0
    5.9803    0.0000    0.0000 C   0  0  0  0  0  0  0  0  0  0  0  0
    6.6457   -1.1494    0.0000 C   0  0  0  0  0  0  0  0  0  0  0  0
    7.9766   -1.1494    0.0000 C   0  0  0  0  0  0  0  0  0  0  0  0
    8.6421   -2.3074    0.0000 C   0  0  0  0  0  0  0  0  0  0  0  0
    7.9766   -3.4568    0.0000 C   0  0  0  0  0  0  0  0  0  0  0  0
    6.6457   -3.4568    0.0000 C   0  0  0  0  0  0  0  0  0  0  0  0
    5.9803   -4.6062    0.0000 C   0  0  0  0  0  0  0  0  0  0  0  0
    4.6494   -4.6062    0.0000 C   0  0  0  0  0  0  0  0  0  0  0  0
    3.9926   -3.4568    0.0000 C   0  0  0  0  0  0  0  0  0  0  0  0
    4.6494   -2.3074    0.0000 C   0  0  0  0  0  0  0  0  0  0  0  0
    5.9803   -2.3074    0.0000 C   0  0  0  0  0  0  0  0  0  0  0  0
    3.9926   -1.1494    0.0000 C   0  0  0  0  0  0  0  0  0  0  0  0
    2.6618   -1.1494    0.0000 C   0  0  0  0  0  0  0  0  0  0  0  0
    1.9963   -2.3074    0.0000 C   0  0  0  0  0  0  0  0  0  0  0  0
    2.6618   -3.4568    0.0000 C   0  0  0  0  0  0  0  0  0  0  0  0
    0.6654   -2.3074    0.0000 C   0  0  0  0  0  0  0  0  0  0  0  0
    0.0000   -1.1494    0.0000 C   0  0  0  0  0  0  0  0  0  0  0  0
    0.6654    0.0000    0.0000 C   0  0  0  0  0  0  0  0  0  0  0  0
    1.9963    0.0000    0.0000 C   0  0  0  0  0  0  0  0  0  0  0  0
  1  2  2  0  0  0  0
  1 13  1  0  0  0  0
  2  3  1  0  0  0  0
  3  4  2  0  0  0  0
  3 12  1  0  0  0  0
  4  5  1  0  0  0  0
  5  6  2  0  0  0  0
  6  7  1  0  0  0  0
  7  8  2  0  0  0  0
  7 12  1  0  0  0  0
  8  9  1  0  0  0  0
  9 10  2  0  0  0  0
 10 11  1  0  0  0  0
 10 16  1  0  0  0  0
 11 12  2  0  0  0  0
 11 13  1  0  0  0  0
 13 14  2  0  0  0  0
 14 15  1  0  0  0  0
 14 20  1  0  0  0  0
 15 16  2  0  0  0  0
 15 17  1  0  0  0  0
 17 18  2  0  0  0  0
 18 19  1  0  0  0  0
 19 20  2  0  0  0  0
M  END
> <ID>
136

> <Formula>
C20H12

> <FW>
252.3093

> <DSSTox_CID>
139

> <DSSTox_RID>
75392

> <DSSTox_GSID>
20139

> <DSSTox_FileID_Sort>
76

> <TS_ChemName>
Benzo(a)pyrene

> <TS_ChemName_Synonyms>
BaP

> <TS_CASRN>
50-32-8

> <CASRN_ChemName_Relationship>
primary

> <TS_Description>
single chemical compound

> <ChemNote>


> <STRUCTURE_Shown>
tested chemical

> <STRUCTURE_Formula>
C20H12

> <STRUCTURE_MW>
252.3093

> <STRUCTURE_ChemType>
defined organic

> <STRUCTURE_DefinedOrganicForm>
parent

> <STRUCTURE_IUPAC>
benzo[pqr]tetraphene

> <STRUCTURE_SMILES>
c1cc2c3ccc4cccc5ccc(cc2cc1)c3c45

> <STRUCTURE_SMILES_Desalt>
c1cc2c3ccc4cccc5ccc(cc2cc1)c3c45

> <Substance_modify_yyyymmdd>
20080429

$$$$
