50-44-2
ChemmineR-0914142331XD

 10 11  0  0  0  0  0  0  0  0  1 V2000
    3.4557   -4.0992    0.0000 S   0  0  0  0  0  0  0  0  0  0  0  0
    2.3038   -3.4352    0.0000 C   0  0  0  0  0  0  0  0  0  0  0  0
    1.1519   -4.0992    0.0000 N   0  0  0  0  0  0  0  0  0  0  0  0
    0.0000   -3.4352    0.0000 C   0  0  0  0  0  0  0  0  0  0  0  0
    0.0000   -2.1029    0.0000 N   0  0  0  0  0  0  0  0  0  0  0  0
    1.1519   -1.4388    0.0000 C   0  0  0  0  0  0  0  0  0  0  0  0
    2.3038   -2.1029    0.0000 C   0  0  0  0  0  0  0  0  0  0  0  0
    3.2917   -1.2134    0.0000 N   0  0  0  0  0  0  0  0  0  0  0  0
    2.7506    0.0000    0.0000 C   0  0  0  0  0  0  0  0  0  0  0  0
    1.4265   -0.1394    0.0000 N   0  0  0  0  0  0  0  0  0  0  0  0
  1  2  2  0  0  0  0
  2  3  1  0  0  0  0
  2  7  1  0  0  0  0
  3  4  1  0  0  0  0
  4  5  2  0  0  0  0
  5  6  1  0  0  0  0
  6  7  2  0  0  0  0
  6 10  1  0  0  0  0
  7  8  1  0  0  0  0
  8  9  2  0  0  0  0
  9 10  1  0  0  0  0
M  END
> <ID>
776

> <Formula>
C5H4N4S

> <FW>
152.1771

> <DSSTox_CID>
810

> <DSSTox_RID>
75801

> <DSSTox_GSID>
20810

> <DSSTox_FileID_Sort>
485

> <TS_ChemName>
6-Mercaptopurine

> <TS_ChemName_Synonyms>
6-Mercaptopurine (6MP)

> <TS_CASRN>
50-44-2

> <CASRN_ChemName_Relationship>
primary

> <TS_Description>
single chemical compound

> <ChemNote>
tautomers

> <STRUCTURE_Shown>
tested chemical

> <STRUCTURE_Formula>
C5H4N4S

> <STRUCTURE_MW>
152.1771

> <STRUCTURE_ChemType>
defined organic

> <STRUCTURE_DefinedOrganicForm>
parent

> <STRUCTURE_IUPAC>
1,9-dihydro-6H-purine-6-thione

> <STRUCTURE_SMILES>
S=C2NC=Nc1ncnc12

> <STRUCTURE_SMILES_Desalt>
S=C2NC=Nc1ncnc12

> <Substance_modify_yyyymmdd>
20080429

$$$$
