50-52-2
ChemmineR-0914142331XD

 25 28  0  0  0  0  0  0  0  0  1 V2000
    4.6083   -0.6636    0.0000 C   0  0  0  0  0  0  0  0  0  0  0  0
    5.7603    0.0000    0.0000 C   0  0  0  0  0  0  0  0  0  0  0  0
    6.9124   -0.6636    0.0000 C   0  0  0  0  0  0  0  0  0  0  0  0
    6.9124   -1.9908    0.0000 C   0  0  0  0  0  0  0  0  0  0  0  0
    5.7603   -2.6544    0.0000 C   0  0  0  0  0  0  0  0  0  0  0  0
    4.6083   -1.9908    0.0000 C   0  0  0  0  0  0  0  0  0  0  0  0
    5.7603   -3.9908    0.0000 N   0  0  0  0  0  0  0  0  0  0  0  0
    4.6083   -4.6544    0.0000 C   0  0  0  0  0  0  0  0  0  0  0  0
    3.4562   -3.9908    0.0000 C   0  0  0  0  0  0  0  0  0  0  0  0
    2.3041   -4.6544    0.0000 C   0  0  0  0  0  0  0  0  0  0  0  0
    2.3041   -5.9815    0.0000 C   0  0  0  0  0  0  0  0  0  0  0  0
    1.1521   -6.6451    0.0000 C   0  0  0  0  0  0  0  0  0  0  0  0
    0.0000   -5.9815    0.0000 C   0  0  0  0  0  0  0  0  0  0  0  0
    0.0000   -4.6544    0.0000 C   0  0  0  0  0  0  0  0  0  0  0  0
    1.1521   -3.9908    0.0000 N   0  0  0  0  0  0  0  0  0  0  0  0
    1.1521   -2.6544    0.0000 C   0  0  0  0  0  0  0  0  0  0  0  0
    6.9124   -4.6544    0.0000 C   0  0  0  0  0  0  0  0  0  0  0  0
    8.0645   -3.9908    0.0000 C   0  0  0  0  0  0  0  0  0  0  0  0
    8.0645   -2.6544    0.0000 S   0  0  0  0  0  0  0  0  0  0  0  0
    9.2165   -4.6544    0.0000 C   0  0  0  0  0  0  0  0  0  0  0  0
    9.2165   -5.9815    0.0000 C   0  0  0  0  0  0  0  0  0  0  0  0
    8.0645   -6.6451    0.0000 C   0  0  0  0  0  0  0  0  0  0  0  0
    8.0645   -7.9815    0.0000 S   0  0  0  0  0  0  0  0  0  0  0  0
    9.2165   -8.6451    0.0000 C   0  0  0  0  0  0  0  0  0  0  0  0
    6.9124   -5.9815    0.0000 C   0  0  0  0  0  0  0  0  0  0  0  0
  1  2  2  0  0  0  0
  1  6  1  0  0  0  0
  2  3  1  0  0  0  0
  3  4  2  0  0  0  0
  4  5  1  0  0  0  0
  4 19  1  0  0  0  0
  5  6  2  0  0  0  0
  5  7  1  0  0  0  0
  7  8  1  0  0  0  0
  7 17  1  0  0  0  0
  8  9  1  0  0  0  0
  9 10  1  0  0  0  0
 10 11  1  0  0  0  0
 10 15  1  0  0  0  0
 11 12  1  0  0  0  0
 12 13  1  0  0  0  0
 13 14  1  0  0  0  0
 14 15  1  0  0  0  0
 15 16  1  0  0  0  0
 17 18  2  0  0  0  0
 17 25  1  0  0  0  0
 18 19  1  0  0  0  0
 18 20  1  0  0  0  0
 20 21  2  0  0  0  0
 21 22  1  0  0  0  0
 22 23  1  0  0  0  0
 22 25  2  0  0  0  0
 23 24  1  0  0  0  0
M  END
> <ID>
3266

> <Formula>
C21H26N2S2

> <FW>
370.5745

> <DSSTox_CID>
3656

> <DSSTox_RID>
77130

> <DSSTox_GSID>
23656

> <DSSTox_FileID_Sort>
1813

> <TS_ChemName>
Thioridazine

> <TS_ChemName_Synonyms>
Thioridazine (TRZ)

> <TS_CASRN>
50-52-2

> <CASRN_ChemName_Relationship>
primary

> <TS_Description>
single chemical compound

> <ChemNote>


> <STRUCTURE_Shown>
tested chemical

> <STRUCTURE_Formula>
C21H26N2S2

> <STRUCTURE_MW>
370.5745

> <STRUCTURE_ChemType>
defined organic

> <STRUCTURE_DefinedOrganicForm>
parent

> <STRUCTURE_IUPAC>
10-[2-(1-methylpiperidin-2-yl)ethyl]-2-(methylsulfanyl)-10H-phenothiazine

> <STRUCTURE_SMILES>
CN4CCCCC4CCN1c3ccccc3Sc2ccc(SC)cc12

> <STRUCTURE_SMILES_Desalt>
CN4CCCCC4CCN1c3ccccc3Sc2ccc(SC)cc12

> <Substance_modify_yyyymmdd>
20080429

$$$$
