50-60-2
ChemmineR-0914142331XD

 21 23  0  0  0  0  0  0  0  0  1 V2000
    7.3689   -2.3034    0.0000 C   0  0  0  0  0  0  0  0  0  0  0  0
    8.0337   -3.4551    0.0000 C   0  0  0  0  0  0  0  0  0  0  0  0
    9.3633   -3.4551    0.0000 C   0  0  0  0  0  0  0  0  0  0  0  0
    7.3689   -4.6067    0.0000 C   0  0  0  0  0  0  0  0  0  0  0  0
    6.0393   -4.6067    0.0000 C   0  0  0  0  0  0  0  0  0  0  0  0
    5.3745   -3.4551    0.0000 C   0  0  0  0  0  0  0  0  0  0  0  0
    4.0449   -3.4551    0.0000 N   0  0  0  0  0  0  0  0  0  0  0  0
    3.3801   -4.6067    0.0000 C   0  0  0  0  0  0  0  0  0  0  0  0
    2.0506   -4.6067    0.0000 C   0  0  0  0  0  0  0  0  0  0  0  0
    1.2640   -5.6835    0.0000 N   0  0  0  0  0  0  0  0  0  0  0  0
    0.0000   -5.2715    0.0000 C   0  0  0  0  0  0  0  0  0  0  0  0
    0.0000   -3.9419    0.0000 C   0  0  0  0  0  0  0  0  0  0  0  0
    1.2640   -3.5300    0.0000 N   0  0  0  0  0  0  0  0  0  0  0  0
    3.3801   -2.3034    0.0000 C   0  0  0  0  0  0  0  0  0  0  0  0
    2.0506   -2.3034    0.0000 C   0  0  0  0  0  0  0  0  0  0  0  0
    1.3858   -1.1517    0.0000 C   0  0  0  0  0  0  0  0  0  0  0  0
    0.0562   -1.1517    0.0000 O   0  0  0  0  0  0  0  0  0  0  0  0
    2.0506    0.0000    0.0000 C   0  0  0  0  0  0  0  0  0  0  0  0
    3.3801    0.0000    0.0000 C   0  0  0  0  0  0  0  0  0  0  0  0
    4.0449   -1.1517    0.0000 C   0  0  0  0  0  0  0  0  0  0  0  0
    6.0393   -2.3034    0.0000 C   0  0  0  0  0  0  0  0  0  0  0  0
  1  2  2  0  0  0  0
  1 21  1  0  0  0  0
  2  3  1  0  0  0  0
  2  4  1  0  0  0  0
  4  5  2  0  0  0  0
  5  6  1  0  0  0  0
  6  7  1  0  0  0  0
  6 21  2  0  0  0  0
  7  8  1  0  0  0  0
  7 14  1  0  0  0  0
  8  9  1  0  0  0  0
  9 10  2  0  0  0  0
  9 13  1  0  0  0  0
 10 11  1  0  0  0  0
 11 12  1  0  0  0  0
 12 13  1  0  0  0  0
 14 15  2  0  0  0  0
 14 20  1  0  0  0  0
 15 16  1  0  0  0  0
 16 17  1  0  0  0  0
 16 18  2  0  0  0  0
 18 19  1  0  0  0  0
 19 20  2  0  0  0  0
M  END
> <ID>
3104

> <Formula>
C17H19N3O

> <FW>
281.3523

> <DSSTox_CID>
3462

> <DSSTox_RID>
77036

> <DSSTox_GSID>
23462

> <DSSTox_FileID_Sort>
1720

> <TS_ChemName>
Phentolamine

> <TS_ChemName_Synonyms>


> <TS_CASRN>
50-60-2

> <CASRN_ChemName_Relationship>
primary

> <TS_Description>
single chemical compound

> <ChemNote>


> <STRUCTURE_Shown>
tested chemical

> <STRUCTURE_Formula>
C17H19N3O

> <STRUCTURE_MW>
281.3523

> <STRUCTURE_ChemType>
defined organic

> <STRUCTURE_DefinedOrganicForm>
parent

> <STRUCTURE_IUPAC>
3-[(4,5-dihydro-1H-imidazol-2-ylmethyl)(4-methylphenyl)amino]phenol

> <STRUCTURE_SMILES>
Cc1ccc(cc1)N(CC2=NCCN2)c3cc(O)ccc3

> <STRUCTURE_SMILES_Desalt>
Cc1ccc(cc1)N(CC2=NCCN2)c3cc(O)ccc3

> <Substance_modify_yyyymmdd>
20080429

$$$$
