50-78-2
ChemmineR-0914142331XD

 13 13  0  0  0  0  0  0  0  0  1 V2000
    0.0000   -5.7579    0.0000 O   0  0  0  0  0  0  0  0  0  0  0  0
    0.6622   -4.6063    0.0000 C   0  0  0  0  0  0  0  0  0  0  0  0
    0.0000   -3.4547    0.0000 O   0  0  0  0  0  0  0  0  0  0  0  0
    1.9922   -4.6063    0.0000 C   0  0  0  0  0  0  0  0  0  0  0  0
    2.6601   -3.4547    0.0000 C   0  0  0  0  0  0  0  0  0  0  0  0
    3.9902   -3.4547    0.0000 C   0  0  0  0  0  0  0  0  0  0  0  0
    4.6524   -4.6063    0.0000 C   0  0  0  0  0  0  0  0  0  0  0  0
    3.9902   -5.7579    0.0000 C   0  0  0  0  0  0  0  0  0  0  0  0
    2.6601   -5.7579    0.0000 C   0  0  0  0  0  0  0  0  0  0  0  0
    1.9922   -2.3031    0.0000 O   0  0  0  0  0  0  0  0  0  0  0  0
    2.6601   -1.1516    0.0000 C   0  0  0  0  0  0  0  0  0  0  0  0
    1.9922    0.0000    0.0000 O   0  0  0  0  0  0  0  0  0  0  0  0
    3.9902   -1.1516    0.0000 C   0  0  0  0  0  0  0  0  0  0  0  0
  1  2  1  0  0  0  0
  2  3  2  0  0  0  0
  2  4  1  0  0  0  0
  4  5  2  0  0  0  0
  4  9  1  0  0  0  0
  5  6  1  0  0  0  0
  5 10  1  0  0  0  0
  6  7  2  0  0  0  0
  7  8  1  0  0  0  0
  8  9  2  0  0  0  0
 10 11  1  0  0  0  0
 11 12  2  0  0  0  0
 11 13  1  0  0  0  0
M  END
> <ID>
106

> <Formula>
C9H8O4

> <FW>
180.1574

> <DSSTox_CID>
108

> <DSSTox_RID>
75372

> <DSSTox_GSID>
20108

> <DSSTox_FileID_Sort>
56

> <TS_ChemName>
Aspirin

> <TS_ChemName_Synonyms>
Acetylsalicylic acid

> <TS_CASRN>
50-78-2

> <CASRN_ChemName_Relationship>
primary

> <TS_Description>
single chemical compound

> <ChemNote>


> <STRUCTURE_Shown>
tested chemical

> <STRUCTURE_Formula>
C9H8O4

> <STRUCTURE_MW>
180.1574

> <STRUCTURE_ChemType>
defined organic

> <STRUCTURE_DefinedOrganicForm>
parent

> <STRUCTURE_IUPAC>
2-(acetyloxy)benzoic acid

> <STRUCTURE_SMILES>
O=C(C)Oc1ccccc1C(=O)O

> <STRUCTURE_SMILES_Desalt>
O=C(C)Oc1ccccc1C(=O)O

> <Substance_modify_yyyymmdd>
20080429

$$$$
