50-76-0
ChemmineR-0914142331XD

 92 98  0  0  1  0  0  0  0  0  1 V2000
   11.5534  -11.4484    0.0000 C   0  0  0  0  0  0  0  0  0  0  0  0
   11.5534  -12.6457    0.0000 C   0  0  0  0  0  0  0  0  0  0  0  0
   12.5827  -10.8602    0.0000 C   0  0  0  0  0  0  0  0  0  0  0  0
   10.5031  -10.8602    0.0000 N   0  0  0  0  0  0  0  0  0  0  0  0
   10.5031  -13.2549    0.0000 O   0  0  0  0  0  0  0  0  0  0  0  0
   12.5827  -13.2549    0.0000 C   0  0  0  0  0  0  0  0  0  0  0  0
   12.5827   -9.6629    0.0000 C   0  0  0  0  0  0  0  0  0  0  0  0
   13.6330  -11.4484    0.0000 C   0  0  0  0  0  0  0  0  0  0  0  0
    9.4738  -11.4484    0.0000 C   0  0  0  0  0  0  0  0  0  0  0  0
    9.4738  -12.6457    0.0000 C   0  0  0  0  0  0  0  0  0  0  0  0
   13.6330  -12.6457    0.0000 C   0  0  0  0  0  0  0  0  0  0  0  0
   12.5827  -14.4523    0.0000 C   0  0  0  0  0  0  0  0  0  0  0  0
   13.6330   -9.0537    0.0000 N   0  0  0  0  0  0  0  0  0  0  0  0
   11.5534   -9.0537    0.0000 O   0  0  0  0  0  0  0  0  0  0  0  0
   14.6623  -10.8602    0.0000 N   0  0  0  0  0  0  0  0  0  0  0  0
    8.4235  -10.8602    0.0000 C   0  0  0  0  0  0  0  0  0  0  0  0
    8.4235  -13.2549    0.0000 C   0  0  0  0  0  0  0  0  0  0  0  0
   14.6623  -13.2549    0.0000 O   0  0  0  0  0  0  0  0  0  0  0  0
    8.4235   -9.6629    0.0000 C   0  0  0  0  0  0  0  0  0  0  0  0
    7.3942  -11.4484    0.0000 C   0  0  0  0  0  0  0  0  0  0  0  0
    7.3942  -12.6457    0.0000 C   0  0  0  0  0  0  0  0  0  0  0  0
    8.4235  -14.4523    0.0000 C   0  0  0  0  0  0  0  0  0  0  0  0
    7.3942   -9.0537    0.0000 N   0  0  0  0  0  0  0  0  0  0  0  0
    9.4738   -9.0537    0.0000 O   0  0  0  0  0  0  0  0  0  0  0  0
   13.6330   -7.7933    0.0000 C   0  0  0  0  0  0  0  0  0  0  0  0
   12.5407   -7.1631    0.0000 C   0  0  0  0  0  0  0  0  0  0  0  0
   14.7043   -7.1631    0.0000 C   0  0  0  0  0  0  0  0  0  0  0  0
   12.5407   -2.2897    0.0000 N   0  0  0  0  0  0  0  0  0  0  0  0
   11.4694   -7.7933    0.0000 O   0  0  0  0  0  0  0  0  0  0  0  0
   14.7043   -5.9238    0.0000 C   0  0  0  0  0  0  0  0  0  0  0  0
   15.8177   -7.7723    0.0000 O   0  0  0  0  0  0  0  0  0  0  0  0
   16.8470   -7.1841    0.0000 C   0  0  0  0  0  0  0  0  0  0  0  0
   16.8470   -5.9868    0.0000 O   0  0  0  0  0  0  0  0  0  0  0  0
   13.5280   -1.8065    0.0000 C   0  0  0  0  0  0  0  0  0  0  0  0
   13.5280   -0.6092    0.0000 C   0  0  0  0  0  0  0  0  0  0  0  0
   15.6706   -2.3947    0.0000 C   0  0  0  0  0  0  0  0  0  0  0  0
   17.9603   -1.4704    0.0000 N   0  0  0  0  0  0  0  0  0  0  0  0
   15.6706   -3.5921    0.0000 O   0  0  0  0  0  0  0  0  0  0  0  0
   18.3384   -0.3151    0.0000 C   0  0  0  0  0  0  0  0  0  0  0  0
   18.9266   -2.1846    0.0000 C   0  0  0  0  0  0  0  0  0  0  0  0
   19.5358   -0.3151    0.0000 C   0  0  0  0  0  0  0  0  0  0  0  0
   19.9139   -1.4704    0.0000 C   0  0  0  0  0  0  0  0  0  0  0  0
   12.4777    0.0000    0.0000 C   0  0  0  0  0  0  0  0  0  0  0  0
   14.5573    0.0000    0.0000 C   0  0  0  0  0  0  0  0  0  0  0  0
   19.9559   -2.7728    0.0000 H   0  0  0  0  0  0  0  0  0  0  0  0
   18.9266   -3.5711    0.0000 C   0  0  0  0  0  0  0  0  0  0  0  0
   17.9183   -4.1802    0.0000 O   0  0  0  0  0  0  0  0  0  0  0  0
   19.9769   -4.1802    0.0000 N   0  0  0  0  0  0  0  0  0  0  0  0
   19.9769   -5.3776    0.0000 C   0  0  0  0  0  0  0  0  0  0  0  0
   21.0062   -3.5711    0.0000 C   0  0  0  0  0  0  0  0  0  0  0  0
   18.9266   -5.9868    0.0000 C   0  0  0  0  0  0  0  0  0  0  0  0
   17.9183   -5.3776    0.0000 O   0  0  0  0  0  0  0  0  0  0  0  0
   18.9266   -7.1841    0.0000 N   0  0  0  0  0  0  0  0  0  0  0  0
   19.9769   -7.7723    0.0000 C   0  0  0  0  0  0  0  0  0  0  0  0
   17.9183   -7.7723    0.0000 C   0  0  0  0  0  0  0  0  0  0  0  0
   17.9183   -8.9697    0.0000 C   0  0  0  0  0  0  0  0  0  0  0  0
   18.9266   -9.5788    0.0000 C   0  0  0  0  0  0  0  0  0  0  0  0
   16.8470   -9.5788    0.0000 C   0  0  0  0  0  0  0  0  0  0  0  0
    7.3942   -7.7933    0.0000 C   0  0  0  0  0  0  0  0  0  0  0  0
    8.4865   -7.1631    0.0000 C   0  0  0  0  0  0  0  0  0  0  0  0
    6.3229   -7.1631    0.0000 C   0  0  0  0  0  0  0  0  0  0  0  0
    8.4865   -2.2897    0.0000 N   0  0  0  0  0  0  0  0  0  0  0  0
    9.5578   -7.7933    0.0000 O   0  0  0  0  0  0  0  0  0  0  0  0
    6.3229   -5.9238    0.0000 C   0  0  0  0  0  0  0  0  0  0  0  0
    5.1885   -7.7723    0.0000 O   0  0  0  0  0  0  0  0  0  0  0  0
    4.1592   -7.1841    0.0000 C   0  0  0  0  0  0  0  0  0  0  0  0
    4.1592   -5.9868    0.0000 O   0  0  0  0  0  0  0  0  0  0  0  0
    7.4992   -1.8065    0.0000 C   0  0  0  0  0  0  0  0  0  0  0  0
    7.4992   -0.6092    0.0000 C   0  0  0  0  0  0  0  0  0  0  0  0
    5.3566   -2.3947    0.0000 C   0  0  0  0  0  0  0  0  0  0  0  0
    3.0459   -1.4704    0.0000 N   0  0  0  0  0  0  0  0  0  0  0  0
    5.3566   -3.5921    0.0000 O   0  0  0  0  0  0  0  0  0  0  0  0
    2.6678   -0.3151    0.0000 C   0  0  0  0  0  0  0  0  0  0  0  0
    2.0796   -2.1846    0.0000 C   0  0  0  0  0  0  0  0  0  0  0  0
    1.4704   -0.3151    0.0000 C   0  0  0  0  0  0  0  0  0  0  0  0
    1.1133   -1.4704    0.0000 C   0  0  0  0  0  0  0  0  0  0  0  0
    8.5285    0.0000    0.0000 C   0  0  0  0  0  0  0  0  0  0  0  0
    6.4489    0.0000    0.0000 C   0  0  0  0  0  0  0  0  0  0  0  0
    1.0713   -2.7728    0.0000 H   0  0  0  0  0  0  0  0  0  0  0  0
    2.0796   -3.5711    0.0000 C   0  0  0  0  0  0  0  0  0  0  0  0
    3.1089   -4.1802    0.0000 O   0  0  0  0  0  0  0  0  0  0  0  0
    1.0293   -4.1802    0.0000 N   0  0  0  0  0  0  0  0  0  0  0  0
    1.0293   -5.3776    0.0000 C   0  0  0  0  0  0  0  0  0  0  0  0
    0.0000   -3.5711    0.0000 C   0  0  0  0  0  0  0  0  0  0  0  0
    2.0796   -5.9868    0.0000 C   0  0  0  0  0  0  0  0  0  0  0  0
    3.1089   -5.3776    0.0000 O   0  0  0  0  0  0  0  0  0  0  0  0
    2.0796   -7.1841    0.0000 N   0  0  0  0  0  0  0  0  0  0  0  0
    1.0293   -7.7723    0.0000 C   0  0  0  0  0  0  0  0  0  0  0  0
    3.1089   -7.7723    0.0000 C   0  0  0  0  0  0  0  0  0  0  0  0
    3.1089   -8.9697    0.0000 C   0  0  0  0  0  0  0  0  0  0  0  0
    2.0796   -9.5788    0.0000 C   0  0  0  0  0  0  0  0  0  0  0  0
    4.1592   -9.5788    0.0000 C   0  0  0  0  0  0  0  0  0  0  0  0
  1  2  1  0  0  0  0
  1  3  1  0  0  0  0
  1  4  2  0  0  0  0
  2  5  1  0  0  0  0
  2  6  2  0  0  0  0
  3  7  1  0  0  0  0
  3  8  2  0  0  0  0
  4  9  1  0  0  0  0
  5 10  1  0  0  0  0
  6 11  1  0  0  0  0
  6 12  1  0  0  0  0
  7 13  1  0  0  0  0
  7 14  2  0  0  0  0
  8 15  1  0  0  0  0
  8 11  1  0  0  0  0
  9 16  2  0  0  0  0
  9 10  1  0  0  0  0
 10 17  2  0  0  0  0
 11 18  2  0  0  0  0
 25 13  1  6  0  0  0
 16 19  1  0  0  0  0
 16 20  1  0  0  0  0
 17 21  1  0  0  0  0
 17 22  1  0  0  0  0
 19 23  1  0  0  0  0
 19 24  2  0  0  0  0
 20 21  2  0  0  0  0
 59 23  1  1  0  0  0
 25 26  1  0  0  0  0
 25 27  1  0  0  0  0
 26 28  1  0  0  0  0
 26 29  2  0  0  0  0
 27 30  1  1  0  0  0
 27 31  1  0  0  0  0
 28 34  1  0  0  0  0
 31 32  1  0  0  0  0
 32 33  2  0  0  0  0
 32 55  1  0  0  0  0
 34 35  1  6  0  0  0
 34 36  1  0  0  0  0
 35 43  1  0  0  0  0
 35 44  1  0  0  0  0
 36 37  1  0  0  0  0
 36 38  2  0  0  0  0
 37 39  1  0  0  0  0
 37 40  1  0  0  0  0
 39 41  1  0  0  0  0
 40 42  1  0  0  0  0
 40 45  1  6  0  0  0
 40 46  1  0  0  0  0
 41 42  1  0  0  0  0
 46 47  2  0  0  0  0
 46 48  1  0  0  0  0
 48 49  1  0  0  0  0
 48 50  1  0  0  0  0
 49 51  1  0  0  0  0
 51 52  2  0  0  0  0
 51 53  1  0  0  0  0
 53 54  1  0  0  0  0
 53 55  1  0  0  0  0
 55 56  1  1  0  0  0
 56 57  1  0  0  0  0
 56 58  1  0  0  0  0
 59 60  1  0  0  0  0
 59 61  1  0  0  0  0
 60 62  1  0  0  0  0
 60 63  2  0  0  0  0
 61 64  1  6  0  0  0
 61 65  1  0  0  0  0
 62 68  1  0  0  0  0
 65 66  1  0  0  0  0
 66 67  2  0  0  0  0
 66 89  1  0  0  0  0
 68 69  1  1  0  0  0
 68 70  1  0  0  0  0
 69 77  1  0  0  0  0
 69 78  1  0  0  0  0
 70 71  1  0  0  0  0
 70 72  2  0  0  0  0
 71 73  1  0  0  0  0
 71 74  1  0  0  0  0
 73 75  1  0  0  0  0
 74 76  1  0  0  0  0
 74 79  1  1  0  0  0
 74 80  1  0  0  0  0
 75 76  1  0  0  0  0
 80 81  2  0  0  0  0
 80 82  1  0  0  0  0
 82 83  1  0  0  0  0
 82 84  1  0  0  0  0
 83 85  1  0  0  0  0
 85 86  2  0  0  0  0
 85 87  1  0  0  0  0
 87 88  1  0  0  0  0
 87 89  1  0  0  0  0
 89 90  1  6  0  0  0
 90 91  1  0  0  0  0
 90 92  1  0  0  0  0
M  END
> <ID>
31

> <Formula>
C62H86N12O16

> <FW>
1255.417

> <DSSTox_CID>
31

> <DSSTox_RID>
75330

> <DSSTox_GSID>
20031

> <DSSTox_FileID_Sort>
14

> <TS_ChemName>
Actinomycin D

> <TS_ChemName_Synonyms>
Dactinomycin

> <TS_CASRN>
50-76-0

> <CASRN_ChemName_Relationship>
primary

> <TS_Description>
single chemical compound

> <ChemNote>
stereochem

> <STRUCTURE_Shown>
tested chemical

> <STRUCTURE_Formula>
C62H86N12O16

> <STRUCTURE_MW>
1255.417

> <STRUCTURE_ChemType>
defined organic

> <STRUCTURE_DefinedOrganicForm>
parent

> <STRUCTURE_IUPAC>
2-amino-4,6-dimethyl-3-oxo-N,N'-bis[(6S,9R,10S,13R,18aS)-2,5,9-trimethyl-1,4,7,11,14-pentaoxo-6,13-di(propan-2-yl)hexadecahydro-1H-pyrrolo[2,1-i][1,4,7,10,13]oxatetraazacyclohexadecin-10-yl]-3H-phenoxazine-1,9-dicarboxamide

> <STRUCTURE_SMILES>
CC(C)[C@H]6NC(=O)[C@@H](NC(=O)c1ccc(C)c2OC3=C(C)C(=O)C(N)=C(C3=Nc12)C(=O)N[C@@H]5C(=O)N[C@@H](C(=O)N4CCC[C@H]4C(=O)N(C)CC(=O)N(C)[C@@H](C(C)C)C(=O)O[C@@H]5C)C(C)C)[C@@H](C)OC(=O)[C@H](C(C)C)N(C)C(=O)CN(C)C(=O)[C@@H]7CCCN7C6=O

> <STRUCTURE_SMILES_Desalt>
CC(C)[C@H]6NC(=O)[C@@H](NC(=O)c1ccc(C)c2OC3=C(C)C(=O)C(N)=C(C3=Nc12)C(=O)N[C@@H]5C(=O)N[C@@H](C(=O)N4CCC[C@H]4C(=O)N(C)CC(=O)N(C)[C@@H](C(C)C)C(=O)O[C@@H]5C)C(C)C)[C@@H](C)OC(=O)[C@H](C(C)C)N(C)C(=O)CN(C)C(=O)[C@@H]7CCCN7C6=O

> <Substance_modify_yyyymmdd>
20080429

$$$$
