50370-12-2
ChemmineR-0914142331XD

 27 29  0  0  1  0  0  0  0  0  1 V2000
    8.2265   -2.6596    0.0000 C   0  0  0  0  0  0  0  0  0  0  0  0
    9.5563   -3.9894    0.0000 N   0  0  0  0  0  0  0  0  0  0  0  0
    9.5563   -2.6596    0.0000 C   0  0  0  0  0  0  0  0  0  0  0  0
    8.2265   -3.9894    0.0000 C   0  0  0  0  0  0  0  0  0  0  0  0
   10.7296   -4.6673    0.0000 C   0  0  0  0  0  0  0  0  0  0  0  0
   11.8639   -3.9894    0.0000 C   0  0  0  0  0  0  0  0  0  0  0  0
   10.7296   -2.0077    0.0000 S   0  0  0  0  0  0  0  0  0  0  0  0
   11.8639   -2.6596    0.0000 C   0  0  0  0  0  0  0  0  0  0  0  0
    8.2265   -1.3298    0.0000 H   0  0  0  0  0  0  0  0  0  0  0  0
    9.5563   -1.3298    0.0000 H   0  0  0  0  0  0  0  0  0  0  0  0
    7.3009   -4.9150    0.0000 O   0  0  0  0  0  0  0  0  0  0  0  0
   13.0372   -4.6673    0.0000 C   0  0  0  0  0  0  0  0  0  0  0  0
   10.7296   -5.9971    0.0000 C   0  0  0  0  0  0  0  0  0  0  0  0
   11.8639   -6.6490    0.0000 O   0  0  0  0  0  0  0  0  0  0  0  0
    9.5563   -6.6490    0.0000 O   0  0  0  0  0  0  0  0  0  0  0  0
    6.8967   -2.6596    0.0000 N   0  0  0  0  0  0  0  0  0  0  0  0
    3.4809   -0.6779    0.0000 C   0  0  0  0  0  0  0  0  0  0  0  0
    3.4809   -2.0077    0.0000 C   0  0  0  0  0  0  0  0  0  0  0  0
    2.2946    0.0000    0.0000 C   0  0  0  0  0  0  0  0  0  0  0  0
    2.2946   -2.6596    0.0000 C   0  0  0  0  0  0  0  0  0  0  0  0
    1.1473   -0.6779    0.0000 C   0  0  0  0  0  0  0  0  0  0  0  0
    1.1473   -2.0077    0.0000 C   0  0  0  0  0  0  0  0  0  0  0  0
    5.7755   -0.6779    0.0000 O   0  0  0  0  0  0  0  0  0  0  0  0
    5.7755   -2.0077    0.0000 C   0  0  0  0  0  0  0  0  0  0  0  0
    4.6021   -2.6596    0.0000 C   0  0  0  0  0  0  0  0  0  0  0  0
    4.6021   -3.9894    0.0000 N   0  0  0  0  0  0  0  0  0  0  0  0
    0.0000    0.0000    0.0000 O   0  0  0  0  0  0  0  0  0  0  0  0
  1  3  1  0  0  0  0
  1  4  1  0  0  0  0
  1  9  1  6  0  0  0
  1 16  1  1  0  0  0
  2  4  1  0  0  0  0
  2  5  1  0  0  0  0
  2  3  1  0  0  0  0
  3  7  1  0  0  0  0
  3 10  1  6  0  0  0
  4 11  2  0  0  0  0
  5  6  2  0  0  0  0
  5 13  1  0  0  0  0
  6  8  1  0  0  0  0
  6 12  1  0  0  0  0
  7  8  1  0  0  0  0
 13 14  2  0  0  0  0
 13 15  1  0  0  0  0
 16 24  1  0  0  0  0
 17 19  2  0  0  0  0
 17 18  1  0  0  0  0
 18 20  2  0  0  0  0
 18 25  1  0  0  0  0
 19 21  1  0  0  0  0
 20 22  1  0  0  0  0
 21 22  2  0  0  0  0
 21 27  1  0  0  0  0
 23 24  2  0  0  0  0
 24 25  1  0  0  0  0
 25 26  1  6  0  0  0
M  END
> <ID>
2488

> <Formula>
C16H17N3O5S

> <FW>
363.3883

> <DSSTox_CID>
2749

> <DSSTox_RID>
76714

> <DSSTox_GSID>
22749

> <DSSTox_FileID_Sort>
1398

> <TS_ChemName>
Cefadroxil

> <TS_ChemName_Synonyms>


> <TS_CASRN>
50370-12-2

> <CASRN_ChemName_Relationship>
primary

> <TS_Description>
single chemical compound

> <ChemNote>
stereochem

> <STRUCTURE_Shown>
tested chemical

> <STRUCTURE_Formula>
C16H17N3O5S

> <STRUCTURE_MW>
363.3883

> <STRUCTURE_ChemType>
defined organic

> <STRUCTURE_DefinedOrganicForm>
parent

> <STRUCTURE_IUPAC>
(6R,7R)-7-{[(2R)-2-amino-2-(4-hydroxyphenyl)acetyl]amino}-3-methyl-8-oxo-5-thia-1-azabicyclo[4.2.0]oct-2-ene-2-carboxylic acid

> <STRUCTURE_SMILES>
CC=3CS[C@H]2N(C(=O)[C@H]2NC(=O)[C@H](N)c1ccc(O)cc1)C=3C(=O)O

> <STRUCTURE_SMILES_Desalt>
CC=3CS[C@H]2N(C(=O)[C@H]2NC(=O)[C@H](N)c1ccc(O)cc1)C=3C(=O)O

> <Substance_modify_yyyymmdd>
20080429

$$$$
