505-52-2
ChemmineR-0914142331XD

 17 16  0  0  0  0  0  0  0  0  1 V2000
   12.6895    0.0000    0.0000 O   0  0  0  0  0  0  0  0  0  0  0  0
   13.8445   -0.6600    0.0000 C   0  0  0  0  0  0  0  0  0  0  0  0
   14.9994    0.0000    0.0000 O   0  0  0  0  0  0  0  0  0  0  0  0
   13.8445   -1.9949    0.0000 C   0  0  0  0  0  0  0  0  0  0  0  0
   12.6895   -2.6549    0.0000 C   0  0  0  0  0  0  0  0  0  0  0  0
   11.5346   -1.9949    0.0000 C   0  0  0  0  0  0  0  0  0  0  0  0
   10.3796   -2.6549    0.0000 C   0  0  0  0  0  0  0  0  0  0  0  0
    9.2246   -1.9949    0.0000 C   0  0  0  0  0  0  0  0  0  0  0  0
    8.0697   -2.6549    0.0000 C   0  0  0  0  0  0  0  0  0  0  0  0
    6.9297   -1.9949    0.0000 C   0  0  0  0  0  0  0  0  0  0  0  0
    5.7748   -2.6549    0.0000 C   0  0  0  0  0  0  0  0  0  0  0  0
    4.6198   -1.9949    0.0000 C   0  0  0  0  0  0  0  0  0  0  0  0
    3.4649   -2.6549    0.0000 C   0  0  0  0  0  0  0  0  0  0  0  0
    2.3099   -1.9949    0.0000 C   0  0  0  0  0  0  0  0  0  0  0  0
    1.1550   -2.6549    0.0000 C   0  0  0  0  0  0  0  0  0  0  0  0
    0.0000   -1.9949    0.0000 O   0  0  0  0  0  0  0  0  0  0  0  0
    1.1550   -3.9898    0.0000 O   0  0  0  0  0  0  0  0  0  0  0  0
  1  2  2  0  0  0  0
  2  3  1  0  0  0  0
  2  4  1  0  0  0  0
  4  5  1  0  0  0  0
  5  6  1  0  0  0  0
  6  7  1  0  0  0  0
  7  8  1  0  0  0  0
  8  9  1  0  0  0  0
  9 10  1  0  0  0  0
 10 11  1  0  0  0  0
 11 12  1  0  0  0  0
 12 13  1  0  0  0  0
 13 14  1  0  0  0  0
 14 15  1  0  0  0  0
 15 16  1  0  0  0  0
 15 17  2  0  0  0  0
M  END
> <ID>
1620

> <Formula>
C13H24O4

> <FW>
244.3273

> <DSSTox_CID>
1683

> <DSSTox_RID>
76281

> <DSSTox_GSID>
21683

> <DSSTox_FileID_Sort>
965

> <TS_ChemName>
Tridecanedioic acid

> <TS_ChemName_Synonyms>


> <TS_CASRN>
505-52-2

> <CASRN_ChemName_Relationship>
primary

> <TS_Description>
single chemical compound

> <ChemNote>


> <STRUCTURE_Shown>
tested chemical

> <STRUCTURE_Formula>
C13H24O4

> <STRUCTURE_MW>
244.3273

> <STRUCTURE_ChemType>
defined organic

> <STRUCTURE_DefinedOrganicForm>
parent

> <STRUCTURE_IUPAC>
tridecanedioic acid

> <STRUCTURE_SMILES>
O=C(O)CCCCCCCCCCCC(=O)O

> <STRUCTURE_SMILES_Desalt>
O=C(O)CCCCCCCCCCCC(=O)O

> <Substance_modify_yyyymmdd>
20080429

$$$$
