50594-66-6
ChemmineR-0914142331XD

 24 25  0  0  0  0  0  0  0  0  2 V2000
   11.5157   -1.9922    0.0000 O    0  0  0  0  0  0  0  0  0  0  0  0
   10.3641   -1.3358    0.0000 C    0  0  0  0  0  0  0  0  0  0  0  0
   10.3641    0.0000    0.0000 O    0  0  0  0  0  0  0  0  0  0  0  0
    9.2126   -1.9922    0.0000 C    0  0  0  0  0  0  0  0  0  0  0  0
    9.2126   -3.3280    0.0000 C    0  0  0  0  0  0  0  0  0  0  0  0
    8.0610   -3.9959    0.0000 C    0  0  0  0  0  0  0  0  0  0  0  0
    6.9094   -3.3280    0.0000 C    0  0  0  0  0  0  0  0  0  0  0  0
    6.9094   -1.9922    0.0000 C    0  0  0  0  0  0  0  0  0  0  0  0
    8.0610   -1.3358    0.0000 C    0  0  0  0  0  0  0  0  0  0  0  0
    5.7578   -1.3358    0.0000 O    0  0  0  0  0  0  0  0  0  0  0  0
    4.6063   -1.9922    0.0000 C    0  0  0  0  0  0  0  0  0  0  0  0
    4.6063   -3.3280    0.0000 C    0  0  0  0  0  0  0  0  0  0  0  0
    3.4547   -3.9959    0.0000 C    0  0  0  0  0  0  0  0  0  0  0  0
    2.3031   -3.3280    0.0000 C    0  0  0  0  0  0  0  0  0  0  0  0
    2.3031   -1.9922    0.0000 C    0  0  0  0  0  0  0  0  0  0  0  0
    3.4547   -1.3358    0.0000 C    0  0  0  0  0  0  0  0  0  0  0  0
    3.4547    0.0000    0.0000 Cl   0  0  0  0  0  0  0  0  0  0  0  0
    1.1516   -3.9959    0.0000 C    0  0  0  0  0  0  0  0  0  0  0  0
    0.4837   -2.8444    0.0000 F    0  0  0  0  0  0  0  0  0  0  0  0
    1.8195   -5.1475    0.0000 F    0  0  0  0  0  0  0  0  0  0  0  0
    0.0000   -4.6523    0.0000 F    0  0  0  0  0  0  0  0  0  0  0  0
   10.3641   -3.9959    0.0000 N    0  3  0  0  0  0  0  0  0  0  0  0
   10.3641   -5.3203    0.0000 O    0  0  0  0  0  0  0  0  0  0  0  0
   11.5157   -3.3280    0.0000 O    0  5  0  0  0  0  0  0  0  0  0  0
  1  2  1  0  0  0  0
  2  3  2  0  0  0  0
  2  4  1  0  0  0  0
  4  5  2  0  0  0  0
  4  9  1  0  0  0  0
  5  6  1  0  0  0  0
  5 22  1  0  0  0  0
  6  7  2  0  0  0  0
  7  8  1  0  0  0  0
  8  9  2  0  0  0  0
  8 10  1  0  0  0  0
 10 11  1  0  0  0  0
 11 12  2  0  0  0  0
 11 16  1  0  0  0  0
 12 13  1  0  0  0  0
 13 14  2  0  0  0  0
 14 15  1  0  0  0  0
 14 18  1  0  0  0  0
 15 16  2  0  0  0  0
 16 17  1  0  0  0  0
 18 19  1  0  0  0  0
 18 20  1  0  0  0  0
 18 21  1  0  0  0  0
 22 23  2  0  0  0  0
 22 24  1  0  0  0  0
M  END
> <ID>
22

> <Formula>
C14H7ClF3NO5

> <FW>
361.6573

> <DSSTox_CID>
22

> <DSSTox_RID>
75325

> <DSSTox_GSID>
20022

> <DSSTox_FileID_Sort>
9

> <TS_ChemName>
Acifluorfen

> <TS_ChemName_Synonyms>
Benzoic acid, 5-[2-chloro-4-(trifluoromethyl)phenoxy]-2-nitro-)

> <TS_CASRN>
50594-66-6

> <CASRN_ChemName_Relationship>
primary

> <TS_Description>
single chemical compound

> <ChemNote>


> <STRUCTURE_Shown>
tested chemical

> <STRUCTURE_Formula>
C14H7ClF3NO5

> <STRUCTURE_MW>
361.6573

> <STRUCTURE_ChemType>
defined organic

> <STRUCTURE_DefinedOrganicForm>
parent

> <STRUCTURE_IUPAC>
5-[2-chloro-4-(trifluoromethyl)phenoxy]-2-nitrobenzoic acid

> <STRUCTURE_SMILES>
Clc2cc(ccc2Oc1cc(C(=O)O)c(cc1)[N+]([O-])=O)C(F)(F)F

> <STRUCTURE_SMILES_Desalt>
Clc2cc(ccc2Oc1cc(C(=O)O)c(cc1)[N+]([O-])=O)C(F)(F)F

> <Substance_modify_yyyymmdd>
20080429

$$$$
