50679-08-8
ChemmineR-0914142331XD

 35 38  0  0  0  0  0  0  0  0  1 V2000
    0.7951   -1.1528    0.0000 C   0  0  0  0  0  0  0  0  0  0  0  0
    1.4576    0.0000    0.0000 C   0  0  0  0  0  0  0  0  0  0  0  0
    2.7960    0.0000    0.0000 C   0  0  0  0  0  0  0  0  0  0  0  0
    3.4585   -1.1528    0.0000 C   0  0  0  0  0  0  0  0  0  0  0  0
    2.7960   -2.2924    0.0000 C   0  0  0  0  0  0  0  0  0  0  0  0
    3.4585   -3.4453    0.0000 C   0  0  0  0  0  0  0  0  0  0  0  0
    4.6113   -2.7827    0.0000 O   0  0  0  0  0  0  0  0  0  0  0  0
    2.3057   -4.1210    0.0000 C   0  0  0  0  0  0  0  0  0  0  0  0
    2.3057   -5.4461    0.0000 C   0  0  0  0  0  0  0  0  0  0  0  0
    1.1528   -6.1087    0.0000 C   0  0  0  0  0  0  0  0  0  0  0  0
    0.0000   -5.4461    0.0000 C   0  0  0  0  0  0  0  0  0  0  0  0
    0.0000   -4.1210    0.0000 C   0  0  0  0  0  0  0  0  0  0  0  0
    1.1528   -3.4453    0.0000 C   0  0  0  0  0  0  0  0  0  0  0  0
    4.1210   -4.5981    0.0000 C   0  0  0  0  0  0  0  0  0  0  0  0
    5.4461   -4.5981    0.0000 C   0  0  0  0  0  0  0  0  0  0  0  0
    6.1087   -5.7509    0.0000 C   0  0  0  0  0  0  0  0  0  0  0  0
    5.4461   -6.9038    0.0000 N   0  0  0  0  0  0  0  0  0  0  0  0
    6.1087   -8.0566    0.0000 C   0  0  0  0  0  0  0  0  0  0  0  0
    7.4470   -8.0566    0.0000 C   0  0  0  0  0  0  0  0  0  0  0  0
    8.1096   -6.9038    0.0000 C   0  0  0  0  0  0  0  0  0  0  0  0
    9.4347   -6.9038    0.0000 C   0  0  0  0  0  0  0  0  0  0  0  0
   10.1105   -8.0566    0.0000 O   0  0  0  0  0  0  0  0  0  0  0  0
   10.1105   -5.7509    0.0000 C   0  0  0  0  0  0  0  0  0  0  0  0
    9.4347   -4.5981    0.0000 C   0  0  0  0  0  0  0  0  0  0  0  0
   10.1105   -3.4453    0.0000 C   0  0  0  0  0  0  0  0  0  0  0  0
   11.4356   -3.4453    0.0000 C   0  0  0  0  0  0  0  0  0  0  0  0
   12.0981   -2.2924    0.0000 C   0  0  0  0  0  0  0  0  0  0  0  0
   12.7607   -1.1528    0.0000 C   0  0  0  0  0  0  0  0  0  0  0  0
   13.2510   -2.9682    0.0000 C   0  0  0  0  0  0  0  0  0  0  0  0
   10.9453   -1.6299    0.0000 C   0  0  0  0  0  0  0  0  0  0  0  0
   12.0981   -4.5981    0.0000 C   0  0  0  0  0  0  0  0  0  0  0  0
   11.4356   -5.7509    0.0000 C   0  0  0  0  0  0  0  0  0  0  0  0
    4.1210   -6.9038    0.0000 C   0  0  0  0  0  0  0  0  0  0  0  0
    3.4585   -5.7509    0.0000 C   0  0  0  0  0  0  0  0  0  0  0  0
    1.4576   -2.2924    0.0000 C   0  0  0  0  0  0  0  0  0  0  0  0
  1  2  2  0  0  0  0
  1 35  1  0  0  0  0
  2  3  1  0  0  0  0
  3  4  2  0  0  0  0
  4  5  1  0  0  0  0
  5  6  1  0  0  0  0
  5 35  2  0  0  0  0
  6  7  1  0  0  0  0
  6  8  1  0  0  0  0
  6 14  1  0  0  0  0
  8  9  2  0  0  0  0
  8 13  1  0  0  0  0
  9 10  1  0  0  0  0
 10 11  2  0  0  0  0
 11 12  1  0  0  0  0
 12 13  2  0  0  0  0
 14 15  1  0  0  0  0
 14 34  1  0  0  0  0
 15 16  1  0  0  0  0
 16 17  1  0  0  0  0
 17 18  1  0  0  0  0
 17 33  1  0  0  0  0
 18 19  1  0  0  0  0
 19 20  1  0  0  0  0
 20 21  1  0  0  0  0
 21 22  1  0  0  0  0
 21 23  1  0  0  0  0
 23 24  2  0  0  0  0
 23 32  1  0  0  0  0
 24 25  1  0  0  0  0
 25 26  2  0  0  0  0
 26 27  1  0  0  0  0
 26 31  1  0  0  0  0
 27 28  1  0  0  0  0
 27 29  1  0  0  0  0
 27 30  1  0  0  0  0
 31 32  2  0  0  0  0
 33 34  1  0  0  0  0
M  END
> <ID>
3255

> <Formula>
C32H41NO2

> <FW>
471.6734

> <DSSTox_CID>
3642

> <DSSTox_RID>
77124

> <DSSTox_GSID>
23642

> <DSSTox_FileID_Sort>
1807

> <TS_ChemName>
Terfenadine

> <TS_ChemName_Synonyms>


> <TS_CASRN>
50679-08-8

> <CASRN_ChemName_Relationship>
primary

> <TS_Description>
single chemical compound

> <ChemNote>


> <STRUCTURE_Shown>
tested chemical

> <STRUCTURE_Formula>
C32H41NO2

> <STRUCTURE_MW>
471.6734

> <STRUCTURE_ChemType>
defined organic

> <STRUCTURE_DefinedOrganicForm>
parent

> <STRUCTURE_IUPAC>
1-(4-tert-butylphenyl)-4-{4-[hydroxy(diphenyl)methyl]piperidin-1-yl}butan-1-ol

> <STRUCTURE_SMILES>
CC(C)(C)c1ccc(cc1)C(O)CCCN2CCC(CC2)C(O)(c3ccccc3)c4ccccc4

> <STRUCTURE_SMILES_Desalt>
CC(C)(C)c1ccc(cc1)C(O)CCCN2CCC(CC2)C(O)(c3ccccc3)c4ccccc4

> <Substance_modify_yyyymmdd>
20080429

$$$$
