50892-23-4
ChemmineR-0914142331XD

 21 22  0  0  0  0  0  0  0  0  1 V2000
    5.7698    0.0000    0.0000 Cl   0  0  0  0  0  0  0  0  0  0  0  0
    5.7698   -1.3315    0.0000 C    0  0  0  0  0  0  0  0  0  0  0  0
    6.9111   -2.0036    0.0000 C    0  0  0  0  0  0  0  0  0  0  0  0
    6.9111   -3.3351    0.0000 C    0  0  0  0  0  0  0  0  0  0  0  0
    5.7698   -3.9945    0.0000 N    0  0  0  0  0  0  0  0  0  0  0  0
    4.6158   -3.3351    0.0000 C    0  0  0  0  0  0  0  0  0  0  0  0
    4.6158   -2.0036    0.0000 N    0  0  0  0  0  0  0  0  0  0  0  0
    3.4619   -3.9945    0.0000 S    0  0  0  0  0  0  0  0  0  0  0  0
    2.3079   -3.3351    0.0000 C    0  0  0  0  0  0  0  0  0  0  0  0
    1.1540   -3.9945    0.0000 C    0  0  0  0  0  0  0  0  0  0  0  0
    1.1540   -5.3260    0.0000 O    0  0  0  0  0  0  0  0  0  0  0  0
    0.0000   -3.3351    0.0000 O    0  0  0  0  0  0  0  0  0  0  0  0
    8.0650   -3.9945    0.0000 N    0  0  0  0  0  0  0  0  0  0  0  0
    9.2190   -3.3351    0.0000 C    0  0  0  0  0  0  0  0  0  0  0  0
    9.2190   -2.0036    0.0000 C    0  0  0  0  0  0  0  0  0  0  0  0
   10.3730   -1.3315    0.0000 C    0  0  0  0  0  0  0  0  0  0  0  0
   11.5269   -2.0036    0.0000 C    0  0  0  0  0  0  0  0  0  0  0  0
   11.5269   -3.3351    0.0000 C    0  0  0  0  0  0  0  0  0  0  0  0
   10.3730   -3.9945    0.0000 C    0  0  0  0  0  0  0  0  0  0  0  0
   10.3730   -5.3260    0.0000 C    0  0  0  0  0  0  0  0  0  0  0  0
   12.6809   -3.9945    0.0000 C    0  0  0  0  0  0  0  0  0  0  0  0
  1  2  1  0  0  0  0
  2  3  2  0  0  0  0
  2  7  1  0  0  0  0
  3  4  1  0  0  0  0
  4  5  2  0  0  0  0
  4 13  1  0  0  0  0
  5  6  1  0  0  0  0
  6  7  2  0  0  0  0
  6  8  1  0  0  0  0
  8  9  1  0  0  0  0
  9 10  1  0  0  0  0
 10 11  2  0  0  0  0
 10 12  1  0  0  0  0
 13 14  1  0  0  0  0
 14 15  2  0  0  0  0
 14 19  1  0  0  0  0
 15 16  1  0  0  0  0
 16 17  2  0  0  0  0
 17 18  1  0  0  0  0
 18 19  2  0  0  0  0
 18 21  1  0  0  0  0
 19 20  1  0  0  0  0
M  END
> <ID>
281

> <Formula>
C14H14ClN3O2S

> <FW>
323.7979

> <DSSTox_CID>
290

> <DSSTox_RID>
75491

> <DSSTox_GSID>
20290

> <DSSTox_FileID_Sort>
175

> <TS_ChemName>
Pirinixic acid

> <TS_ChemName_Synonyms>
Pirinixic acid (4-Chloro-6-(2,3-xylidino)-2-pyrimidinylthio) acetic acid (WY-14643) (Wyeth-14,643)

> <TS_CASRN>
50892-23-4

> <CASRN_ChemName_Relationship>
primary

> <TS_Description>
single chemical compound

> <ChemNote>


> <STRUCTURE_Shown>
tested chemical

> <STRUCTURE_Formula>
C14H14ClN3O2S

> <STRUCTURE_MW>
323.7979

> <STRUCTURE_ChemType>
defined organic

> <STRUCTURE_DefinedOrganicForm>
parent

> <STRUCTURE_IUPAC>
({4-chloro-6-[(2,3-dimethylphenyl)amino]pyrimidin-2-yl}sulfanyl)acetic acid

> <STRUCTURE_SMILES>
Cc2cccc(Nc1cc(Cl)nc(SCC(=O)O)n1)c2C

> <STRUCTURE_SMILES_Desalt>
Cc2cccc(Nc1cc(Cl)nc(SCC(=O)O)n1)c2C

> <Substance_modify_yyyymmdd>
20080429

$$$$
