50935-04-1
ChemmineR-0914142331XD

 37 41  0  0  1  0  0  0  0  0  1 V2000
    4.4812   -1.9445    0.0000 C   0  0  0  0  0  0  0  0  0  0  0  0
    4.4812   -3.2520    0.0000 C   0  0  0  0  0  0  0  0  0  0  0  0
    3.3525   -3.8889    0.0000 C   0  0  0  0  0  0  0  0  0  0  0  0
    3.3525   -1.2963    0.0000 C   0  0  0  0  0  0  0  0  0  0  0  0
    6.6939   -3.2520    0.0000 C   0  0  0  0  0  0  0  0  0  0  0  0
    6.6939   -1.9445    0.0000 C   0  0  0  0  0  0  0  0  0  0  0  0
    2.2350   -3.2520    0.0000 C   0  0  0  0  0  0  0  0  0  0  0  0
    5.5876   -1.2963    0.0000 C   0  0  0  0  0  0  0  0  0  0  0  0
    5.5876   -3.8889    0.0000 C   0  0  0  0  0  0  0  0  0  0  0  0
    2.2350   -1.9445    0.0000 C   0  0  0  0  0  0  0  0  0  0  0  0
    8.9401   -1.9445    0.0000 C   0  0  0  0  0  0  0  0  0  0  0  0
    7.8003   -3.8889    0.0000 C   0  0  0  0  0  0  0  0  0  0  0  0
    7.8003   -1.2963    0.0000 C   0  0  0  0  0  0  0  0  0  0  0  0
    8.9401   -3.2520    0.0000 C   0  0  0  0  0  0  0  0  0  0  0  0
    7.8003   -5.9340    0.0000 O   0  0  0  0  0  0  0  0  0  0  0  0
   10.0688   -1.2963    0.0000 C   0  0  0  0  0  0  0  0  0  0  0  0
    3.3525    0.0000    0.0000 O   0  0  0  0  0  0  0  0  0  0  0  0
    3.3525   -5.1741    0.0000 O   0  0  0  0  0  0  0  0  0  0  0  0
    1.1287   -3.8889    0.0000 C   0  0  0  0  0  0  0  0  0  0  0  0
   11.1751   -1.9445    0.0000 O   0  0  0  0  0  0  0  0  0  0  0  0
    5.5876    0.0000    0.0000 O   0  0  0  0  0  0  0  0  0  0  0  0
    5.5876   -5.1741    0.0000 O   0  0  0  0  0  0  0  0  0  0  0  0
   10.2253   -2.7938    0.0000 O   0  0  0  0  0  0  0  0  0  0  0  0
    1.1287   -1.2963    0.0000 C   0  0  0  0  0  0  0  0  0  0  0  0
    1.1287   -5.1741    0.0000 O   0  0  0  0  0  0  0  0  0  0  0  0
    0.0000   -1.9445    0.0000 C   0  0  0  0  0  0  0  0  0  0  0  0
    0.0000   -3.2520    0.0000 C   0  0  0  0  0  0  0  0  0  0  0  0
   10.0688    0.0000    0.0000 C   0  0  0  0  0  0  0  0  0  0  0  0
    6.6939   -7.2303    0.0000 C   0  0  0  0  0  0  0  0  0  0  0  0
    6.6939   -8.5266    0.0000 C   0  0  0  0  0  0  0  0  0  0  0  0
    5.5764   -6.5710    0.0000 O   0  0  0  0  0  0  0  0  0  0  0  0
    5.5764   -9.1971    0.0000 C   0  0  0  0  0  0  0  0  0  0  0  0
    4.4365   -7.2303    0.0000 C   0  0  0  0  0  0  0  0  0  0  0  0
    4.4365   -8.5266    0.0000 C   0  0  0  0  0  0  0  0  0  0  0  0
    5.5764  -10.4935    0.0000 N   0  0  0  0  0  0  0  0  0  0  0  0
    3.3078   -9.1971    0.0000 O   0  0  0  0  0  0  0  0  0  0  0  0
    3.3078   -6.5710    0.0000 C   0  0  0  0  0  0  0  0  0  0  0  0
  1  2  2  0  0  0  0
  1  4  1  0  0  0  0
  1  8  1  0  0  0  0
  2  3  1  0  0  0  0
  2  9  1  0  0  0  0
  3 18  2  0  0  0  0
  3  7  1  0  0  0  0
  4 10  1  0  0  0  0
  4 17  2  0  0  0  0
  5  6  1  0  0  0  0
  5 12  1  0  0  0  0
  5  9  2  0  0  0  0
  6  8  2  0  0  0  0
  6 13  1  0  0  0  0
  7 10  2  0  0  0  0
  7 19  1  0  0  0  0
  8 21  1  0  0  0  0
  9 22  1  0  0  0  0
 10 24  1  0  0  0  0
 11 13  1  0  0  0  0
 11 14  1  0  0  0  0
 11 16  1  1  0  0  0
 11 23  1  6  0  0  0
 12 15  1  6  0  0  0
 12 14  1  0  0  0  0
 29 15  1  1  0  0  0
 16 20  2  0  0  0  0
 16 28  1  0  0  0  0
 19 25  1  0  0  0  0
 19 27  2  0  0  0  0
 24 26  2  0  0  0  0
 26 27  1  0  0  0  0
 29 30  1  0  0  0  0
 29 31  1  0  0  0  0
 30 32  1  0  0  0  0
 31 33  1  0  0  0  0
 32 34  1  0  0  0  0
 32 35  1  6  0  0  0
 33 34  1  0  0  0  0
 33 37  1  6  0  0  0
 34 36  1  6  0  0  0
M  END
> <ID>
2481

> <Formula>
C26H27NO10

> <FW>
513.4933

> <DSSTox_CID>
2742

> <DSSTox_RID>
76711

> <DSSTox_GSID>
22742

> <DSSTox_FileID_Sort>
1395

> <TS_ChemName>
Carminomycin

> <TS_ChemName_Synonyms>


> <TS_CASRN>
50935-04-1

> <CASRN_ChemName_Relationship>
primary

> <TS_Description>
single chemical compound

> <ChemNote>
stereochem

> <STRUCTURE_Shown>
tested chemical

> <STRUCTURE_Formula>
C26H27NO10

> <STRUCTURE_MW>
513.4933

> <STRUCTURE_ChemType>
defined organic

> <STRUCTURE_DefinedOrganicForm>
parent

> <STRUCTURE_IUPAC>
(1S,3S)-3-acetyl-3,5,10,12-tetrahydroxy-6,11-dioxo-1,2,3,4,6,11-hexahydrotetracen-1-yl 3-amino-2,3,6-trideoxy-alpha-L-lyxo-hexopyranoside

> <STRUCTURE_SMILES>
CC(=O)[C@@]4(O)C[C@H](O[C@H]1C[C@H](N)[C@H](O)[C@H](C)O1)c5c(O)c3C(=O)c2c(O)cccc2C(=O)c3c(O)c5C4

> <STRUCTURE_SMILES_Desalt>
CC(=O)[C@@]4(O)C[C@H](O[C@H]1C[C@H](N)[C@H](O)[C@H](C)O1)c5c(O)c3C(=O)c2c(O)cccc2C(=O)c3c(O)c5C4

> <Substance_modify_yyyymmdd>
20080429

$$$$
