512-56-1
ChemmineR-0914142331XD

  8  7  0  0  0  0  0  0  0  0  1 V2000
    3.3237   -1.9950    0.0000 O   0  0  0  0  0  0  0  0  0  0  0  0
    1.9950   -1.9950    0.0000 P   0  0  0  0  0  0  0  0  0  0  0  0
    1.9950   -3.3237    0.0000 O   0  0  0  0  0  0  0  0  0  0  0  0
    3.1481   -3.9900    0.0000 C   0  0  0  0  0  0  0  0  0  0  0  0
    0.6663   -1.9950    0.0000 O   0  0  0  0  0  0  0  0  0  0  0  0
    0.0000   -3.1481    0.0000 C   0  0  0  0  0  0  0  0  0  0  0  0
    1.9950   -0.6663    0.0000 O   0  0  0  0  0  0  0  0  0  0  0  0
    3.1481    0.0000    0.0000 C   0  0  0  0  0  0  0  0  0  0  0  0
  1  2  2  0  0  0  0
  2  3  1  0  0  0  0
  2  5  1  0  0  0  0
  2  7  1  0  0  0  0
  3  4  1  0  0  0  0
  5  6  1  0  0  0  0
  7  8  1  0  0  0  0
M  END
> <ID>
1348

> <Formula>
C3H9O4P

> <FW>
140.0749

> <DSSTox_CID>
1403

> <DSSTox_RID>
76141

> <DSSTox_GSID>
21403

> <DSSTox_FileID_Sort>
825

> <TS_ChemName>
Trimethyl phosphate

> <TS_ChemName_Synonyms>


> <TS_CASRN>
512-56-1

> <CASRN_ChemName_Relationship>
primary

> <TS_Description>
single chemical compound

> <ChemNote>


> <STRUCTURE_Shown>
tested chemical

> <STRUCTURE_Formula>
C3H9O4P

> <STRUCTURE_MW>
140.0749

> <STRUCTURE_ChemType>
defined organic

> <STRUCTURE_DefinedOrganicForm>
parent

> <STRUCTURE_IUPAC>
trimethyl phosphate

> <STRUCTURE_SMILES>
O=P(OC)(OC)OC

> <STRUCTURE_SMILES_Desalt>
O=P(OC)(OC)OC

> <Substance_modify_yyyymmdd>
20080429

$$$$
