513-88-2
ChemmineR-0914142331XD

  6  5  0  0  0  0  0  0  0  0  1 V2000
    1.3307    0.0000    0.0000 C    0  0  0  0  0  0  0  0  0  0  0  0
    1.9943   -1.1509    0.0000 C    0  0  0  0  0  0  0  0  0  0  0  0
    1.3307   -2.3053    0.0000 C    0  0  0  0  0  0  0  0  0  0  0  0
    1.9943   -3.4563    0.0000 Cl   0  0  0  0  0  0  0  0  0  0  0  0
    0.0000   -2.3053    0.0000 Cl   0  0  0  0  0  0  0  0  0  0  0  0
    3.3250   -1.1509    0.0000 O    0  0  0  0  0  0  0  0  0  0  0  0
  1  2  1  0  0  0  0
  2  3  1  0  0  0  0
  2  6  2  0  0  0  0
  3  4  1  0  0  0  0
  3  5  1  0  0  0  0
M  END
> <ID>
1514

> <Formula>
C3H4Cl2O

> <FW>
126.9693

> <DSSTox_CID>
1576

> <DSSTox_RID>
76216

> <DSSTox_GSID>
21576

> <DSSTox_FileID_Sort>
900

> <TS_ChemName>
1,1-Dichloropropanone

> <TS_ChemName_Synonyms>


> <TS_CASRN>
513-88-2

> <CASRN_ChemName_Relationship>
primary

> <TS_Description>
single chemical compound

> <ChemNote>


> <STRUCTURE_Shown>
tested chemical

> <STRUCTURE_Formula>
C3H4Cl2O

> <STRUCTURE_MW>
126.9693

> <STRUCTURE_ChemType>
defined organic

> <STRUCTURE_DefinedOrganicForm>
parent

> <STRUCTURE_IUPAC>
1,1-dichloropropan-2-one

> <STRUCTURE_SMILES>
ClC(Cl)C(C)=O

> <STRUCTURE_SMILES_Desalt>
ClC(Cl)C(C)=O

> <Substance_modify_yyyymmdd>
20080429

$$$$
