51333-22-3
ChemmineR-0914142331XD

 35 39  0  0  1  0  0  0  0  0  1 V2000
    8.4349   -3.4385    0.0000 C   0  0  0  0  0  0  0  0  0  0  0  0
    7.1156   -3.8596    0.0000 C   0  0  0  0  0  0  0  0  0  0  0  0
    9.2349   -4.4911    0.0000 C   0  0  0  0  0  0  0  0  0  0  0  0
    9.2349   -2.3859    0.0000 O   0  0  0  0  0  0  0  0  0  0  0  0
    8.0560   -2.1894    0.0000 C   0  0  0  0  0  0  0  0  0  0  0  0
    7.1156   -5.1367    0.0000 C   0  0  0  0  0  0  0  0  0  0  0  0
    5.9508   -3.2140    0.0000 C   0  0  0  0  0  0  0  0  0  0  0  0
    7.1718   -2.8491    0.0000 C   0  0  0  0  0  0  0  0  0  0  0  0
    8.4349   -5.5437    0.0000 C   0  0  0  0  0  0  0  0  0  0  0  0
   10.5401   -4.0841    0.0000 O   0  0  0  0  0  0  0  0  0  0  0  0
   10.5401   -2.7929    0.0000 C   0  0  0  0  0  0  0  0  0  0  0  0
    9.0103   -1.2351    0.0000 C   0  0  0  0  0  0  0  0  0  0  0  0
    6.7507   -1.8666    0.0000 O   0  0  0  0  0  0  0  0  0  0  0  0
    5.9508   -5.8104    0.0000 C   0  0  0  0  0  0  0  0  0  0  0  0
    4.7438   -3.8596    0.0000 C   0  0  0  0  0  0  0  0  0  0  0  0
   11.6489   -2.0210    0.0000 C   0  0  0  0  0  0  0  0  0  0  0  0
    8.6314    0.0000    0.0000 O   0  0  0  0  0  0  0  0  0  0  0  0
    4.7438   -5.1367    0.0000 C   0  0  0  0  0  0  0  0  0  0  0  0
    5.9508   -7.1016    0.0000 C   0  0  0  0  0  0  0  0  0  0  0  0
    3.5648   -3.2140    0.0000 O   0  0  0  0  0  0  0  0  0  0  0  0
   12.9120   -2.5543    0.0000 C   0  0  0  0  0  0  0  0  0  0  0  0
    3.5648   -5.8104    0.0000 C   0  0  0  0  0  0  0  0  0  0  0  0
    4.7438   -7.7612    0.0000 C   0  0  0  0  0  0  0  0  0  0  0  0
   14.0348   -1.7824    0.0000 C   0  0  0  0  0  0  0  0  0  0  0  0
    3.5648   -7.1016    0.0000 C   0  0  0  0  0  0  0  0  0  0  0  0
    2.3719   -5.1367    0.0000 C   0  0  0  0  0  0  0  0  0  0  0  0
    3.5648   -4.4911    0.0000 C   0  0  0  0  0  0  0  0  0  0  0  0
    2.3719   -7.7612    0.0000 C   0  0  0  0  0  0  0  0  0  0  0  0
    1.1789   -5.8104    0.0000 C   0  0  0  0  0  0  0  0  0  0  0  0
    1.1789   -7.1016    0.0000 C   0  0  0  0  0  0  0  0  0  0  0  0
    0.0000   -7.7612    0.0000 O   0  0  0  0  0  0  0  0  0  0  0  0
    4.7297   -6.4560    0.0000 H   0  0  0  0  0  0  0  0  0  0  0  0
    7.1156   -6.4139    0.0000 H   0  0  0  0  0  0  0  0  0  0  0  0
    5.9508   -4.4911    0.0000 H   0  0  0  0  0  0  0  0  0  0  0  0
   11.7892   -3.3964    0.0000 H   0  0  0  0  0  0  0  0  0  0  0  0
  1  2  1  0  0  0  0
  1  3  1  0  0  0  0
  1  4  1  6  0  0  0
  1  5  1  1  0  0  0
  2  6  1  0  0  0  0
  2  7  1  0  0  0  0
  2  8  1  1  0  0  0
  3  9  1  0  0  0  0
  3 10  1  6  0  0  0
  4 11  1  0  0  0  0
  5 12  1  0  0  0  0
  5 13  2  0  0  0  0
  6 33  1  6  0  0  0
  6 14  1  0  0  0  0
  6  9  1  0  0  0  0
  7 15  1  0  0  0  0
 10 11  1  0  0  0  0
 11 35  1  1  0  0  0
 11 16  1  6  0  0  0
 12 17  1  0  0  0  0
 14 34  1  1  0  0  0
 14 18  1  0  0  0  0
 14 19  1  0  0  0  0
 15 20  1  1  0  0  0
 15 18  1  0  0  0  0
 16 21  1  0  0  0  0
 18 32  1  6  0  0  0
 18 22  1  0  0  0  0
 19 23  1  0  0  0  0
 21 24  1  0  0  0  0
 22 25  1  0  0  0  0
 22 26  1  0  0  0  0
 22 27  1  1  0  0  0
 23 25  1  0  0  0  0
 25 28  2  0  0  0  0
 26 29  2  0  0  0  0
 28 30  1  0  0  0  0
 29 30  1  0  0  0  0
 30 31  2  0  0  0  0
M  END
> <ID>
198

> <Formula>
C25H34O6

> <FW>
430.5339

> <DSSTox_CID>
202

> <DSSTox_RID>
75430

> <DSSTox_GSID>
20202

> <DSSTox_FileID_Sort>
114

> <TS_ChemName>
Budesonide

> <TS_ChemName_Synonyms>


> <TS_CASRN>
51333-22-3

> <CASRN_ChemName_Relationship>
primary

> <TS_Description>
single chemical compound

> <ChemNote>
stereochem; tautomers

> <STRUCTURE_Shown>
tested chemical

> <STRUCTURE_Formula>
C25H34O6

> <STRUCTURE_MW>
430.5339

> <STRUCTURE_ChemType>
defined organic

> <STRUCTURE_DefinedOrganicForm>
parent

> <STRUCTURE_IUPAC>
(4aR,4bS,5S,6aS,6bS,8R,9aR,10aS,10bS)-5-hydroxy-6b-(hydroxyacetyl)-4a,6a-dimethyl-8-propyl-4a,4b,5,6,6a,6b,9a,10,10a,10b,11,12-dodecahydro-2H-naphtho[2',1':4,5]indeno[1,2-d][1,3]dioxol-2-one

> <STRUCTURE_SMILES>
OCC(=O)[C@@]53O[C@@H](O[C@@H]5C[C@H]2[C@@H]4CCC1=CC(=O)C=C[C@]1(C)[C@H]4[C@@H](O)C[C@@]23C)CCC

> <STRUCTURE_SMILES_Desalt>
OCC(=O)[C@@]53O[C@@H](O[C@@H]5C[C@H]2[C@@H]4CCC1=CC(=O)C=C[C@]1(C)[C@H]4[C@@H](O)C[C@@]23C)CCC

> <Substance_modify_yyyymmdd>
20080429

$$$$
