514-73-8
ChemmineR-0914142331XD

 28 30  0  0  0  0  0  0  0  0  2 V2000
   11.2604   -1.9991    0.0000 N   0  3  0  0  0  0  0  0  0  0  0  0
    4.3105   -0.6559    0.0000 C   0  0  0  0  0  0  0  0  0  0  0  0
   11.2604   -0.7497    0.0000 C   0  0  0  0  0  0  0  0  0  0  0  0
    4.3105   -1.8898    0.0000 N   0  0  0  0  0  0  0  0  0  0  0  0
    3.2329   -0.0469    0.0000 S   0  0  0  0  0  0  0  0  0  0  0  0
   12.3537   -0.1562    0.0000 S   0  0  0  0  0  0  0  0  0  0  0  0
   13.4469   -1.9991    0.0000 C   0  0  0  0  0  0  0  0  0  0  0  0
    2.1553   -1.8898    0.0000 C   0  0  0  0  0  0  0  0  0  0  0  0
   13.4469   -0.7809    0.0000 C   0  0  0  0  0  0  0  0  0  0  0  0
    2.1553   -0.6559    0.0000 C   0  0  0  0  0  0  0  0  0  0  0  0
    5.4662    0.0000    0.0000 C   0  0  0  0  0  0  0  0  0  0  0  0
   10.0891   -0.0312    0.0000 C   0  0  0  0  0  0  0  0  0  0  0  0
    6.6063   -0.6716    0.0000 C   0  0  0  0  0  0  0  0  0  0  0  0
    8.9021   -0.7028    0.0000 C   0  0  0  0  0  0  0  0  0  0  0  0
    7.7464    0.0000    0.0000 C   0  0  0  0  0  0  0  0  0  0  0  0
   10.1359   -2.6550    0.0000 C   0  0  0  0  0  0  0  0  0  0  0  0
    5.4506   -2.5301    0.0000 C   0  0  0  0  0  0  0  0  0  0  0  0
   14.5089   -2.5769    0.0000 C   0  0  0  0  0  0  0  0  0  0  0  0
    1.0932   -2.4676    0.0000 C   0  0  0  0  0  0  0  0  0  0  0  0
    1.0932   -0.0469    0.0000 C   0  0  0  0  0  0  0  0  0  0  0  0
   14.5089   -0.1249    0.0000 C   0  0  0  0  0  0  0  0  0  0  0  0
   10.1359   -3.9044    0.0000 C   0  0  0  0  0  0  0  0  0  0  0  0
    5.4506   -3.8732    0.0000 C   0  0  0  0  0  0  0  0  0  0  0  0
   15.6178   -1.9678    0.0000 C   0  0  0  0  0  0  0  0  0  0  0  0
    0.0000   -1.8898    0.0000 C   0  0  0  0  0  0  0  0  0  0  0  0
   15.6178   -0.7340    0.0000 C   0  0  0  0  0  0  0  0  0  0  0  0
    0.0000   -0.6559    0.0000 C   0  0  0  0  0  0  0  0  0  0  0  0
   12.4474   -3.0455    0.0000 I   0  5  0  0  0  0  0  0  0  0  0  0
  1  3  2  0  0  0  0
  1  7  1  0  0  0  0
  1 16  1  0  0  0  0
  2 11  2  3  0  0  0
  2  4  1  0  0  0  0
  2  5  1  0  0  0  0
  3  6  1  0  0  0  0
  3 12  1  0  0  0  0
  4  8  1  0  0  0  0
  4 17  1  0  0  0  0
  5 10  1  0  0  0  0
  6  9  1  0  0  0  0
  7  9  2  0  0  0  0
  7 18  1  0  0  0  0
  8 19  1  0  0  0  0
  8 10  2  0  0  0  0
  9 21  1  0  0  0  0
 10 20  1  0  0  0  0
 11 13  1  0  0  0  0
 12 14  2  3  0  0  0
 13 15  2  3  0  0  0
 14 15  1  0  0  0  0
 16 22  1  0  0  0  0
 17 23  1  0  0  0  0
 18 24  2  0  0  0  0
 19 25  2  0  0  0  0
 20 27  2  0  0  0  0
 21 26  2  0  0  0  0
 24 26  1  0  0  0  0
 25 27  1  0  0  0  0
M  END
> <ID>
2661

> <Formula>
C23H23IN2S2

> <FW>
518.4766 (391.5716+126.9050)

> <DSSTox_CID>
2955

> <DSSTox_RID>
76805

> <DSSTox_GSID>
22955

> <DSSTox_FileID_Sort>
1489

> <TS_ChemName>
Dithiazanine iodide

> <TS_ChemName_Synonyms>


> <TS_CASRN>
514-73-8

> <CASRN_ChemName_Relationship>
primary

> <TS_Description>
mixture of Z,E isomers

> <ChemNote>
ammonium; mixture of  Z,E- isomers

> <STRUCTURE_Shown>
representative isomer in mixture

> <STRUCTURE_Formula>
C23H23IN2S2

> <STRUCTURE_MW>
518.4766

> <STRUCTURE_ChemType>
defined organic

> <STRUCTURE_DefinedOrganicForm>
salt

> <STRUCTURE_IUPAC>
3-ethyl-2-[5-(3-ethyl-1,3-benzothiazol-2(3H)-ylidene)penta-1,3-dien-1-yl]-1,3-benzothiazol-3-ium iodide

> <STRUCTURE_SMILES>
[I-].CCN3c4ccccc4SC3=CC=CC=Cc2sc1ccccc1[n+]2CC

> <STRUCTURE_SMILES_Desalt>
CCN3c4ccccc4SC3=CC=CC=Cc2sc1ccccc1[n+]2CC

> <Substance_modify_yyyymmdd>
20110729

$$$$
