51460-26-5
ChemmineR-0914142331XD

 21 21  0  0  0  0  0  0  0  0  2 V2000
    7.4277    0.0000    0.0000 C    0  0  0  0  0  0  0  0  0  0  0  0
    7.0193   -1.2582    0.0000 N    0  0  0  0  0  0  0  0  0  0  0  0
    7.8029   -2.3398    0.0000 C    0  0  0  0  0  0  0  0  0  0  0  0
    7.0193   -3.4214    0.0000 C    0  0  0  0  0  0  0  0  0  0  0  0
    5.7501   -3.0130    0.0000 C    0  0  0  0  0  0  0  0  0  0  0  0
    4.6023   -3.6642    0.0000 C    0  0  0  0  0  0  0  0  0  0  0  0
    3.4545   -3.0130    0.0000 C    0  0  0  0  0  0  0  0  0  0  0  0
    2.3067   -3.6642    0.0000 N    0  0  0  0  0  0  0  0  0  0  0  0
    1.1478   -4.3374    0.0000 N    0  0  0  0  0  0  0  0  0  0  0  0
    1.1478   -5.6618    0.0000 C    0  0  0  0  0  0  0  0  0  0  0  0
    0.0000   -6.3240    0.0000 N    0  0  0  0  0  0  0  0  0  0  0  0
    2.3067   -6.3240    0.0000 O    0  0  0  0  0  0  0  0  0  0  0  0
    3.4545   -1.6776    0.0000 C    0  0  0  0  0  0  0  0  0  0  0  0
    2.3067   -1.0043    0.0000 O    0  0  0  0  0  0  0  0  0  0  0  0
    4.6023   -1.0043    0.0000 C    0  0  0  0  0  0  0  0  0  0  0  0
    5.7501   -1.6776    0.0000 C    0  0  0  0  0  0  0  0  0  0  0  0
    9.1273   -2.3398    0.0000 S    0  0  0  0  0  0  0  0  0  0  0  0
    9.1273   -3.6642    0.0000 O    0  0  0  0  0  0  0  0  0  0  0  0
    9.1273   -1.0043    0.0000 O    0  5  0  0  0  0  0  0  0  0  0  0
   10.4627   -2.3398    0.0000 O    0  0  0  0  0  0  0  0  0  0  0  0
   11.0366   -0.7505    0.0000 Na   0  3  0  0  0  0  0  0  0  0  0  0
  1  2  1  0  0  0  0
  2  3  1  0  0  0  0
  2 16  1  0  0  0  0
  3  4  1  0  0  0  0
  3 17  1  0  0  0  0
  4  5  1  0  0  0  0
  5  6  2  0  0  0  0
  5 16  1  0  0  0  0
  6  7  1  0  0  0  0
  7  8  2  0  0  0  0
  7 13  1  0  0  0  0
  8  9  1  0  0  0  0
  9 10  1  0  0  0  0
 10 11  1  0  0  0  0
 10 12  2  0  0  0  0
 13 14  2  0  0  0  0
 13 15  1  0  0  0  0
 15 16  2  0  0  0  0
 17 18  2  0  0  0  0
 17 19  1  0  0  0  0
 17 20  2  0  0  0  0
M  END
> <ID>
2472

> <Formula>
C10H11N4NaO5S

> <FW>
322.2729 (299.2837+22.9892)

> <DSSTox_CID>
2732

> <DSSTox_RID>
76705

> <DSSTox_GSID>
22732

> <DSSTox_FileID_Sort>
1389

> <TS_ChemName>
Carbazochrome sodium sulfonate

> <TS_ChemName_Synonyms>
Carbazochrome

> <TS_CASRN>
51460-26-5

> <CASRN_ChemName_Relationship>
primary

> <TS_Description>
single chemical compound

> <ChemNote>
stereochem

> <STRUCTURE_Shown>
tested chemical

> <STRUCTURE_Formula>
C10H11N4NaO5S

> <STRUCTURE_MW>
322.2729

> <STRUCTURE_ChemType>
defined organic

> <STRUCTURE_DefinedOrganicForm>
salt

> <STRUCTURE_IUPAC>
sodium 5-(2-carbamoylhydrazinylidene)-1-methyl-6-oxo-2,3,5,6-tetrahydro-1H-indole-2-sulfonate

> <STRUCTURE_SMILES>
[Na+].NC(=O)N\N=C1/C=C2CC(N(C)C2=CC1=O)S([O-])(=O)=O

> <STRUCTURE_SMILES_Desalt>
NC(=O)N\N=C1/C=C2CC(N(C)C2=CC1=O)S(=O)(=O)O

> <Substance_modify_yyyymmdd>
20080429

$$$$
