51940-44-4
ChemmineR-0914142331XD

 22 24  0  0  0  0  0  0  0  0  1 V2000
    2.6585   -2.2969    0.0000 C   0  0  0  0  0  0  0  0  0  0  0  0
    1.9886   -3.4454    0.0000 C   0  0  0  0  0  0  0  0  0  0  0  0
    0.6593   -3.4454    0.0000 C   0  0  0  0  0  0  0  0  0  0  0  0
    0.0000   -4.6045    0.0000 O   0  0  0  0  0  0  0  0  0  0  0  0
    0.0000   -2.2969    0.0000 O   0  0  0  0  0  0  0  0  0  0  0  0
    2.6585   -4.6045    0.0000 C   0  0  0  0  0  0  0  0  0  0  0  0
    1.9886   -5.7530    0.0000 O   0  0  0  0  0  0  0  0  0  0  0  0
    3.9877   -4.6045    0.0000 C   0  0  0  0  0  0  0  0  0  0  0  0
    4.6577   -3.4454    0.0000 C   0  0  0  0  0  0  0  0  0  0  0  0
    3.9877   -2.2969    0.0000 N   0  0  0  0  0  0  0  0  0  0  0  0
    4.6577   -1.1485    0.0000 C   0  0  0  0  0  0  0  0  0  0  0  0
    3.9877    0.0000    0.0000 C   0  0  0  0  0  0  0  0  0  0  0  0
    5.9869   -3.4454    0.0000 N   0  0  0  0  0  0  0  0  0  0  0  0
    6.6462   -4.6045    0.0000 C   0  0  0  0  0  0  0  0  0  0  0  0
    7.9755   -4.6045    0.0000 N   0  0  0  0  0  0  0  0  0  0  0  0
    8.6454   -3.4454    0.0000 C   0  0  0  0  0  0  0  0  0  0  0  0
    9.9640   -3.4454    0.0000 C   0  0  0  0  0  0  0  0  0  0  0  0
   10.6340   -4.6045    0.0000 N   0  0  0  0  0  0  0  0  0  0  0  0
    9.9640   -5.7530    0.0000 C   0  0  0  0  0  0  0  0  0  0  0  0
    8.6454   -5.7530    0.0000 C   0  0  0  0  0  0  0  0  0  0  0  0
    5.9869   -5.7530    0.0000 N   0  0  0  0  0  0  0  0  0  0  0  0
    4.6577   -5.7530    0.0000 C   0  0  0  0  0  0  0  0  0  0  0  0
  1  2  2  0  0  0  0
  1 10  1  0  0  0  0
  2  3  1  0  0  0  0
  2  6  1  0  0  0  0
  3  4  1  0  0  0  0
  3  5  2  0  0  0  0
  6  7  2  0  0  0  0
  6  8  1  0  0  0  0
  8  9  2  0  0  0  0
  8 22  1  0  0  0  0
  9 10  1  0  0  0  0
  9 13  1  0  0  0  0
 10 11  1  0  0  0  0
 11 12  1  0  0  0  0
 13 14  2  0  0  0  0
 14 15  1  0  0  0  0
 14 21  1  0  0  0  0
 15 16  1  0  0  0  0
 15 20  1  0  0  0  0
 16 17  1  0  0  0  0
 17 18  1  0  0  0  0
 18 19  1  0  0  0  0
 19 20  1  0  0  0  0
 21 22  2  0  0  0  0
M  END
> <ID>
3118

> <Formula>
C14H17N5O3

> <FW>
303.3165

> <DSSTox_CID>
3479

> <DSSTox_RID>
77045

> <DSSTox_GSID>
23479

> <DSSTox_FileID_Sort>
1728

> <TS_ChemName>
Pipemidic acid

> <TS_ChemName_Synonyms>


> <TS_CASRN>
51940-44-4

> <CASRN_ChemName_Relationship>
primary

> <TS_Description>
single chemical compound

> <ChemNote>


> <STRUCTURE_Shown>
tested chemical

> <STRUCTURE_Formula>
C14H17N5O3

> <STRUCTURE_MW>
303.3165

> <STRUCTURE_ChemType>
defined organic

> <STRUCTURE_DefinedOrganicForm>
parent

> <STRUCTURE_IUPAC>
8-ethyl-5-oxo-2-(piperazin-1-yl)-5,8-dihydropyrido[2,3-d]pyrimidine-6-carboxylic acid

> <STRUCTURE_SMILES>
O=C(O)C2=CN(CC)c1nc(ncc1C2=O)N3CCNCC3

> <STRUCTURE_SMILES_Desalt>
O=C(O)C2=CN(CC)c1nc(ncc1C2=O)N3CCNCC3

> <Substance_modify_yyyymmdd>
20080429

$$$$
