52-21-1
ChemmineR-0914142331XD

 32 35  0  0  1  0  0  0  0  0  1 V2000
    6.9694   -3.7419    0.0000 C   0  0  0  0  0  0  0  0  0  0  0  0
    3.5104   -5.6835    0.0000 C   0  0  0  0  0  0  0  0  0  0  0  0
    8.2296   -3.3304    0.0000 C   0  0  0  0  0  0  0  0  0  0  0  0
    5.7993   -5.7093    0.0000 C   0  0  0  0  0  0  0  0  0  0  0  0
    6.9694   -5.0535    0.0000 C   0  0  0  0  0  0  0  0  0  0  0  0
    4.6420   -5.0535    0.0000 C   0  0  0  0  0  0  0  0  0  0  0  0
    3.5104   -7.0594    0.0000 C   0  0  0  0  0  0  0  0  0  0  0  0
    5.7993   -3.0732    0.0000 C   0  0  0  0  0  0  0  0  0  0  0  0
    4.6420   -3.7419    0.0000 C   0  0  0  0  0  0  0  0  0  0  0  0
    2.3531   -5.0535    0.0000 C   0  0  0  0  0  0  0  0  0  0  0  0
    8.2296   -2.0060    0.0000 C   0  0  0  0  0  0  0  0  0  0  0  0
    2.3531   -7.7024    0.0000 C   0  0  0  0  0  0  0  0  0  0  0  0
    8.9882   -4.3591    0.0000 C   0  0  0  0  0  0  0  0  0  0  0  0
    8.2296   -5.4778    0.0000 C   0  0  0  0  0  0  0  0  0  0  0  0
    5.7993   -7.0466    0.0000 C   0  0  0  0  0  0  0  0  0  0  0  0
    1.1830   -5.7093    0.0000 C   0  0  0  0  0  0  0  0  0  0  0  0
    1.1830   -7.0466    0.0000 C   0  0  0  0  0  0  0  0  0  0  0  0
    4.6420   -7.7024    0.0000 C   0  0  0  0  0  0  0  0  0  0  0  0
   11.6886   -1.2987    0.0000 C   0  0  0  0  0  0  0  0  0  0  0  0
    9.3611   -1.3244    0.0000 C   0  0  0  0  0  0  0  0  0  0  0  0
    7.0980   -1.3502    0.0000 O   0  0  0  0  0  0  0  0  0  0  0  0
   10.5313   -2.0060    0.0000 O   0  0  0  0  0  0  0  0  0  0  0  0
   11.6886    0.0000    0.0000 O   0  0  0  0  0  0  0  0  0  0  0  0
    0.0000   -7.6766    0.0000 O   0  0  0  0  0  0  0  0  0  0  0  0
    9.4897   -2.9318    0.0000 O   0  0  0  0  0  0  0  0  0  0  0  0
    6.9694   -2.3789    0.0000 C   0  0  0  0  0  0  0  0  0  0  0  0
    3.4976   -3.0604    0.0000 O   0  0  0  0  0  0  0  0  0  0  0  0
    3.5104   -4.3848    0.0000 C   0  0  0  0  0  0  0  0  0  0  0  0
   12.8587   -1.9802    0.0000 C   0  0  0  0  0  0  0  0  0  0  0  0
    5.7993   -4.3977    0.0000 H   0  0  0  0  0  0  0  0  0  0  0  0
    4.6420   -6.4036    0.0000 H   0  0  0  0  0  0  0  0  0  0  0  0
    6.9694   -6.4036    0.0000 H   0  0  0  0  0  0  0  0  0  0  0  0
  1  3  1  0  0  0  0
  1  5  1  0  0  0  0
  1  8  1  0  0  0  0
  1 26  1  1  0  0  0
  2  6  1  0  0  0  0
  2  7  1  0  0  0  0
  2 10  1  0  0  0  0
  2 28  1  1  0  0  0
  3 11  1  1  0  0  0
  3 13  1  0  0  0  0
  3 25  1  6  0  0  0
  4  5  1  0  0  0  0
  4 15  1  0  0  0  0
  4  6  1  0  0  0  0
  4 30  1  1  0  0  0
  5 14  1  0  0  0  0
  5 32  1  6  0  0  0
  6  9  1  0  0  0  0
  6 31  1  6  0  0  0
  7 12  2  0  0  0  0
  7 18  1  0  0  0  0
  8  9  1  0  0  0  0
  9 27  1  1  0  0  0
 10 16  2  0  0  0  0
 11 20  1  0  0  0  0
 11 21  2  0  0  0  0
 12 17  1  0  0  0  0
 13 14  1  0  0  0  0
 15 18  1  0  0  0  0
 16 17  1  0  0  0  0
 17 24  2  0  0  0  0
 19 22  1  0  0  0  0
 19 23  2  0  0  0  0
 19 29  1  0  0  0  0
 20 22  1  0  0  0  0
M  END
> <ID>
3136

> <Formula>
C23H30O6

> <FW>
402.4807

> <DSSTox_CID>
3502

> <DSSTox_RID>
77056

> <DSSTox_GSID>
23502

> <DSSTox_FileID_Sort>
1739

> <TS_ChemName>
Prednisolone acetate

> <TS_ChemName_Synonyms>


> <TS_CASRN>
52-21-1

> <CASRN_ChemName_Relationship>
primary

> <TS_Description>
single chemical compound

> <ChemNote>
stereochem; tautomers

> <STRUCTURE_Shown>
tested chemical

> <STRUCTURE_Formula>
C23H30O6

> <STRUCTURE_MW>
402.4807

> <STRUCTURE_ChemType>
defined organic

> <STRUCTURE_DefinedOrganicForm>
parent

> <STRUCTURE_IUPAC>
(11beta)-11,17-dihydroxy-3,20-dioxopregna-1,4-dien-21-yl acetate

> <STRUCTURE_SMILES>
CC(=O)OCC(=O)[C@@]4(O)CC[C@@H]3[C@]4(C)C[C@H](O)[C@H]2[C@H]3CCC1=CC(=O)C=C[C@@]12C

> <STRUCTURE_SMILES_Desalt>
CC(=O)OCC(=O)[C@@]4(O)CC[C@@H]3[C@]4(C)C[C@H](O)[C@H]2[C@H]3CCC1=CC(=O)C=C[C@@]12C

> <Substance_modify_yyyymmdd>
20080429

$$$$
