52-76-6
ChemmineR-0914142331XD

 25 28  0  0  1  0  0  0  0  0  1 V2000
    5.7947   -3.1043    0.0000 C   0  0  0  0  0  0  0  0  0  0  0  0
    5.7947   -4.4619    0.0000 C   0  0  0  0  0  0  0  0  0  0  0  0
    4.6275   -5.1242    0.0000 C   0  0  0  0  0  0  0  0  0  0  0  0
    3.4603   -4.4619    0.0000 C   0  0  0  0  0  0  0  0  0  0  0  0
    7.0530   -2.7152    0.0000 C   0  0  0  0  0  0  0  0  0  0  0  0
    2.3179   -5.1407    0.0000 C   0  0  0  0  0  0  0  0  0  0  0  0
    2.3179   -6.4735    0.0000 C   0  0  0  0  0  0  0  0  0  0  0  0
    7.0530   -1.3576    0.0000 C   0  0  0  0  0  0  0  0  0  0  0  0
    4.6275   -2.4503    0.0000 C   0  0  0  0  0  0  0  0  0  0  0  0
    3.4603   -3.1291    0.0000 C   0  0  0  0  0  0  0  0  0  0  0  0
    7.0530   -4.8593    0.0000 C   0  0  0  0  0  0  0  0  0  0  0  0
    4.6275   -6.4735    0.0000 C   0  0  0  0  0  0  0  0  0  0  0  0
    7.0530    0.0000    0.0000 C   0  0  0  0  0  0  0  0  0  0  0  0
    7.8477   -3.7665    0.0000 C   0  0  0  0  0  0  0  0  0  0  0  0
    3.4768   -7.1357    0.0000 C   0  0  0  0  0  0  0  0  0  0  0  0
    1.1507   -7.1523    0.0000 C   0  0  0  0  0  0  0  0  0  0  0  0
    8.2781   -2.3179    0.0000 O   0  0  0  0  0  0  0  0  0  0  0  0
    5.7947   -1.7550    0.0000 C   0  0  0  0  0  0  0  0  0  0  0  0
    1.1507   -4.4785    0.0000 C   0  0  0  0  0  0  0  0  0  0  0  0
    0.0000   -6.4735    0.0000 C   0  0  0  0  0  0  0  0  0  0  0  0
    0.0000   -5.1407    0.0000 C   0  0  0  0  0  0  0  0  0  0  0  0
    5.7947   -5.7781    0.0000 H   0  0  0  0  0  0  0  0  0  0  0  0
    2.3179   -3.8411    0.0000 H   0  0  0  0  0  0  0  0  0  0  0  0
    4.6275   -3.8245    0.0000 H   0  0  0  0  0  0  0  0  0  0  0  0
    3.4603   -5.7036    0.0000 H   0  0  0  0  0  0  0  0  0  0  0  0
  1  2  1  0  0  0  0
  1  5  1  0  0  0  0
  1  9  1  0  0  0  0
  1 18  1  1  0  0  0
  2  3  1  0  0  0  0
  2 11  1  0  0  0  0
  2 22  1  6  0  0  0
  3 12  1  0  0  0  0
  3 24  1  1  0  0  0
  3  4  1  0  0  0  0
  4 10  1  0  0  0  0
  4  6  1  0  0  0  0
  4 25  1  6  0  0  0
  5  8  1  0  0  0  0
  5 14  1  0  0  0  0
  5 17  1  6  0  0  0
  6  7  1  0  0  0  0
  6 19  1  0  0  0  0
  6 23  1  1  0  0  0
  7 16  2  0  0  0  0
  7 15  1  0  0  0  0
  8 13  3  0  0  0  0
  9 10  1  0  0  0  0
 11 14  1  0  0  0  0
 12 15  1  0  0  0  0
 16 20  1  0  0  0  0
 19 21  1  0  0  0  0
 20 21  1  0  0  0  0
M  END
> <ID>
1419

> <Formula>
C20H28O

> <FW>
284.4357

> <DSSTox_CID>
1478

> <DSSTox_RID>
76174

> <DSSTox_GSID>
21478

> <DSSTox_FileID_Sort>
858

> <TS_ChemName>
Lynestrenol

> <TS_ChemName_Synonyms>


> <TS_CASRN>
52-76-6

> <CASRN_ChemName_Relationship>
primary

> <TS_Description>
single chemical compound

> <ChemNote>
stereochem

> <STRUCTURE_Shown>
tested chemical

> <STRUCTURE_Formula>
C20H28O

> <STRUCTURE_MW>
284.4357

> <STRUCTURE_ChemType>
defined organic

> <STRUCTURE_DefinedOrganicForm>
parent

> <STRUCTURE_IUPAC>
(17alpha)-17-ethynylestr-4-en-17-ol

> <STRUCTURE_SMILES>
C[C@]32CC[C@@H]1[C@H]4CCCC=C4CC[C@H]1[C@@H]3CC[C@]2(O)C#C

> <STRUCTURE_SMILES_Desalt>
C[C@]32CC[C@@H]1[C@H]4CCCC=C4CC[C@H]1[C@@H]3CC[C@]2(O)C#C

> <Substance_modify_yyyymmdd>
20080429

$$$$
