520-36-5
ChemmineR-0914142331XD

 20 22  0  0  0  0  0  0  0  0  1 V2000
    3.4507   -1.9896    0.0000 C   0  0  0  0  0  0  0  0  0  0  0  0
    4.6009   -1.3264    0.0000 C   0  0  0  0  0  0  0  0  0  0  0  0
    5.7615   -1.9896    0.0000 C   0  0  0  0  0  0  0  0  0  0  0  0
    5.7615   -3.3160    0.0000 C   0  0  0  0  0  0  0  0  0  0  0  0
    4.6009   -3.9895    0.0000 O   0  0  0  0  0  0  0  0  0  0  0  0
    3.4507   -3.3160    0.0000 C   0  0  0  0  0  0  0  0  0  0  0  0
    2.3004   -3.9895    0.0000 C   0  0  0  0  0  0  0  0  0  0  0  0
    1.1502   -3.3160    0.0000 C   0  0  0  0  0  0  0  0  0  0  0  0
    1.1502   -1.9896    0.0000 C   0  0  0  0  0  0  0  0  0  0  0  0
    2.3004   -1.3264    0.0000 C   0  0  0  0  0  0  0  0  0  0  0  0
    2.3004    0.0000    0.0000 O   0  0  0  0  0  0  0  0  0  0  0  0
    0.0000   -3.9895    0.0000 O   0  0  0  0  0  0  0  0  0  0  0  0
    6.9117   -3.9895    0.0000 C   0  0  0  0  0  0  0  0  0  0  0  0
    8.0619   -3.3160    0.0000 C   0  0  0  0  0  0  0  0  0  0  0  0
    9.2121   -3.9895    0.0000 C   0  0  0  0  0  0  0  0  0  0  0  0
    9.2121   -5.3159    0.0000 C   0  0  0  0  0  0  0  0  0  0  0  0
    8.0619   -5.9791    0.0000 C   0  0  0  0  0  0  0  0  0  0  0  0
    6.9117   -5.3159    0.0000 C   0  0  0  0  0  0  0  0  0  0  0  0
   10.3624   -5.9791    0.0000 O   0  0  0  0  0  0  0  0  0  0  0  0
    4.6009    0.0000    0.0000 O   0  0  0  0  0  0  0  0  0  0  0  0
  1  2  1  0  0  0  0
  1  6  2  0  0  0  0
  1 10  1  0  0  0  0
  2  3  1  0  0  0  0
  2 20  2  0  0  0  0
  3  4  2  0  0  0  0
  4  5  1  0  0  0  0
  4 13  1  0  0  0  0
  5  6  1  0  0  0  0
  6  7  1  0  0  0  0
  7  8  2  0  0  0  0
  8  9  1  0  0  0  0
  8 12  1  0  0  0  0
  9 10  2  0  0  0  0
 10 11  1  0  0  0  0
 13 14  1  0  0  0  0
 13 18  2  0  0  0  0
 14 15  2  0  0  0  0
 15 16  1  0  0  0  0
 16 17  2  0  0  0  0
 16 19  1  0  0  0  0
 17 18  1  0  0  0  0
M  END
> <ID>
2193

> <Formula>
C15H10O5

> <FW>
270.2369

> <DSSTox_CID>
2391

> <DSSTox_RID>
76568

> <DSSTox_GSID>
22391

> <DSSTox_FileID_Sort>
1252

> <TS_ChemName>
Apigenin

> <TS_ChemName_Synonyms>


> <TS_CASRN>
520-36-5

> <CASRN_ChemName_Relationship>
primary

> <TS_Description>
single chemical compound

> <ChemNote>


> <STRUCTURE_Shown>
tested chemical

> <STRUCTURE_Formula>
C15H10O5

> <STRUCTURE_MW>
270.2369

> <STRUCTURE_ChemType>
defined organic

> <STRUCTURE_DefinedOrganicForm>
parent

> <STRUCTURE_IUPAC>
5,7-dihydroxy-2-(4-hydroxyphenyl)-4H-chromen-4-one

> <STRUCTURE_SMILES>
Oc1ccc(cc1)C3=CC(=O)c2c(cc(O)cc2O)O3

> <STRUCTURE_SMILES_Desalt>
Oc1ccc(cc1)C3=CC(=O)c2c(cc(O)cc2O)O3

> <Substance_modify_yyyymmdd>
20080429

$$$$
