522-97-4
ChemmineR-0914142331XD

 25 29  0  0  0  0  0  0  0  0  1 V2000
    9.4258   -4.6041    0.0000 C   0  0  0  0  0  0  0  0  0  0  0  0
   10.0904   -3.4561    0.0000 C   0  0  0  0  0  0  0  0  0  0  0  0
   11.4197   -3.4561    0.0000 O   0  0  0  0  0  0  0  0  0  0  0  0
   12.0843   -4.6041    0.0000 C   0  0  0  0  0  0  0  0  0  0  0  0
    9.4258   -2.2960    0.0000 C   0  0  0  0  0  0  0  0  0  0  0  0
   10.0904   -1.1480    0.0000 O   0  0  0  0  0  0  0  0  0  0  0  0
   11.4197   -1.1480    0.0000 C   0  0  0  0  0  0  0  0  0  0  0  0
    8.0965   -2.2960    0.0000 C   0  0  0  0  0  0  0  0  0  0  0  0
    7.4319   -3.4561    0.0000 C   0  0  0  0  0  0  0  0  0  0  0  0
    8.0965   -4.6041    0.0000 C   0  0  0  0  0  0  0  0  0  0  0  0
    6.1026   -3.4561    0.0000 C   0  0  0  0  0  0  0  0  0  0  0  0
    5.4259   -2.2960    0.0000 C   0  0  0  0  0  0  0  0  0  0  0  0
    6.1026   -1.1480    0.0000 N   0  0  0  0  0  0  0  0  0  0  0  0
    7.4319   -1.1480    0.0000 C   0  0  0  0  0  0  0  0  0  0  0  0
    5.4259    0.0000    0.0000 C   0  0  0  0  0  0  0  0  0  0  0  0
    4.0966    0.0000    0.0000 C   0  0  0  0  0  0  0  0  0  0  0  0
    3.4320   -1.1480    0.0000 C   0  0  0  0  0  0  0  0  0  0  0  0
    4.0966   -2.2960    0.0000 C   0  0  0  0  0  0  0  0  0  0  0  0
    3.4320   -3.4561    0.0000 C   0  0  0  0  0  0  0  0  0  0  0  0
    2.1027   -3.4561    0.0000 C   0  0  0  0  0  0  0  0  0  0  0  0
    1.4380   -2.2960    0.0000 C   0  0  0  0  0  0  0  0  0  0  0  0
    2.1027   -1.1480    0.0000 C   0  0  0  0  0  0  0  0  0  0  0  0
    0.1450   -2.5740    0.0000 O   0  0  0  0  0  0  0  0  0  0  0  0
    0.0000   -3.9032    0.0000 C   0  0  0  0  0  0  0  0  0  0  0  0
    1.2205   -4.4350    0.0000 O   0  0  0  0  0  0  0  0  0  0  0  0
  1  2  2  0  0  0  0
  1 10  1  0  0  0  0
  2  3  1  0  0  0  0
  2  5  1  0  0  0  0
  3  4  1  0  0  0  0
  5  6  1  0  0  0  0
  5  8  2  0  0  0  0
  6  7  1  0  0  0  0
  8  9  1  0  0  0  0
  8 14  1  0  0  0  0
  9 10  2  0  0  0  0
  9 11  1  0  0  0  0
 11 12  1  0  0  0  0
 12 13  1  0  0  0  0
 12 18  1  0  0  0  0
 13 14  1  0  0  0  0
 13 15  1  0  0  0  0
 15 16  1  0  0  0  0
 16 17  1  0  0  0  0
 17 18  2  0  0  0  0
 17 22  1  0  0  0  0
 18 19  1  0  0  0  0
 19 20  2  0  0  0  0
 20 21  1  0  0  0  0
 20 25  1  0  0  0  0
 21 22  2  0  0  0  0
 21 23  1  0  0  0  0
 23 24  1  0  0  0  0
 24 25  1  0  0  0  0
M  END
> <ID>
2464

> <Formula>
C20H21NO4

> <FW>
339.385

> <DSSTox_CID>
2724

> <DSSTox_RID>
76701

> <DSSTox_GSID>
22724

> <DSSTox_FileID_Sort>
1385

> <TS_ChemName>
Canadine

> <TS_ChemName_Synonyms>


> <TS_CASRN>
522-97-4

> <CASRN_ChemName_Relationship>
primary

> <TS_Description>
single chemical compound

> <ChemNote>


> <STRUCTURE_Shown>
tested chemical

> <STRUCTURE_Formula>
C20H21NO4

> <STRUCTURE_MW>
339.385

> <STRUCTURE_ChemType>
defined organic

> <STRUCTURE_DefinedOrganicForm>
parent

> <STRUCTURE_IUPAC>
9,10-dimethoxy-5,8,13,13a-tetrahydro-6H-[1,3]dioxolo[4,5-g]isoquinolino[3,2-a]isoquinoline

> <STRUCTURE_SMILES>
COc1c(OC)ccc2CC3N(Cc12)CCc4cc5OCOc5cc34

> <STRUCTURE_SMILES_Desalt>
COc1c(OC)ccc2CC3N(Cc12)CCc4cc5OCOc5cc34

> <Substance_modify_yyyymmdd>
20080429

$$$$
