52225-20-4
ChemmineR-0914142331XD

 34 35  0  0  1  0  0  0  0  0  1 V2000
    5.7758   -2.0412    0.0000 C   0  0  0  0  0  0  0  0  0  0  0  0
    3.4098   -3.3634    0.0000 C   0  0  0  0  0  0  0  0  0  0  0  0
    5.7758   -3.3402    0.0000 C   0  0  0  0  0  0  0  0  0  0  0  0
    4.5696   -3.9897    0.0000 C   0  0  0  0  0  0  0  0  0  0  0  0
    4.5696   -1.3686    0.0000 C   0  0  0  0  0  0  0  0  0  0  0  0
    3.4098   -1.9949    0.0000 C   0  0  0  0  0  0  0  0  0  0  0  0
    6.9124   -1.3686    0.0000 O   0  0  0  0  0  0  0  0  0  0  0  0
    2.3428   -4.1057    0.0000 O   0  0  0  0  0  0  0  0  0  0  0  0
    6.9124   -3.9897    0.0000 C   0  0  0  0  0  0  0  0  0  0  0  0
    1.0902   -3.4794    0.0000 C   0  0  0  0  0  0  0  0  0  0  0  0
    8.1418   -1.9949    0.0000 C   0  0  0  0  0  0  0  0  0  0  0  0
    1.0902   -2.2036    0.0000 O   0  0  0  0  0  0  0  0  0  0  0  0
    8.1418   -3.3634    0.0000 C   0  0  0  0  0  0  0  0  0  0  0  0
    0.0000   -4.1057    0.0000 C   0  0  0  0  0  0  0  0  0  0  0  0
    4.5696    0.0000    0.0000 C   0  0  0  0  0  0  0  0  0  0  0  0
    4.5696   -5.3583    0.0000 C   0  0  0  0  0  0  0  0  0  0  0  0
    2.3428   -1.2990    0.0000 C   0  0  0  0  0  0  0  0  0  0  0  0
    9.3016   -1.2990    0.0000 C   0  0  0  0  0  0  0  0  0  0  0  0
   10.3918   -1.9717    0.0000 C   0  0  0  0  0  0  0  0  0  0  0  0
   15.0078   -1.9485    0.0000 C   0  0  0  0  0  0  0  0  0  0  0  0
   19.7397   -1.8557    0.0000 C   0  0  0  0  0  0  0  0  0  0  0  0
    8.1418   -0.6263    0.0000 C   0  0  0  0  0  0  0  0  0  0  0  0
   20.8531   -1.2062    0.0000 C   0  0  0  0  0  0  0  0  0  0  0  0
   11.5516   -1.2990    0.0000 C   0  0  0  0  0  0  0  0  0  0  0  0
   18.5567   -1.2294    0.0000 C   0  0  0  0  0  0  0  0  0  0  0  0
   13.8712   -1.2990    0.0000 C   0  0  0  0  0  0  0  0  0  0  0  0
   16.1908   -1.2526    0.0000 C   0  0  0  0  0  0  0  0  0  0  0  0
   12.7346   -1.9485    0.0000 C   0  0  0  0  0  0  0  0  0  0  0  0
   17.4201   -1.9485    0.0000 C   0  0  0  0  0  0  0  0  0  0  0  0
   22.0361   -1.8557    0.0000 C   0  0  0  0  0  0  0  0  0  0  0  0
   22.0361   -3.1315    0.0000 C   0  0  0  0  0  0  0  0  0  0  0  0
   23.1959   -1.1830    0.0000 C   0  0  0  0  0  0  0  0  0  0  0  0
   12.7346   -3.1778    0.0000 C   0  0  0  0  0  0  0  0  0  0  0  0
   17.4201   -3.1778    0.0000 C   0  0  0  0  0  0  0  0  0  0  0  0
  1  3  2  0  0  0  0
  1  5  1  0  0  0  0
  1  7  1  0  0  0  0
  2  6  1  0  0  0  0
  2  8  1  0  0  0  0
  2  4  2  0  0  0  0
  3  4  1  0  0  0  0
  3  9  1  0  0  0  0
  4 16  1  0  0  0  0
  5  6  2  0  0  0  0
  5 15  1  0  0  0  0
  6 17  1  0  0  0  0
  7 11  1  0  0  0  0
  8 10  1  0  0  0  0
  9 13  1  0  0  0  0
 10 12  2  0  0  0  0
 10 14  1  0  0  0  0
 11 13  1  0  0  0  0
 11 18  1  6  0  0  0
 11 22  1  1  0  0  0
 18 19  1  0  0  0  0
 19 24  1  0  0  0  0
 20 26  1  0  0  0  0
 20 27  1  0  0  0  0
 21 25  1  0  0  0  0
 21 23  1  0  0  0  0
 23 30  1  0  0  0  0
 24 28  1  0  0  0  0
 25 29  1  0  0  0  0
 26 28  1  0  0  0  0
 27 29  1  0  0  0  0
 28 33  1  1  0  0  0
 29 34  1  1  0  0  0
 30 31  1  0  0  0  0
 30 32  1  0  0  0  0
M  END
> <ID>
1303

> <Formula>
C31H52O3

> <FW>
472.7428

> <DSSTox_CID>
1356

> <DSSTox_RID>
76104

> <DSSTox_GSID>
21356

> <DSSTox_FileID_Sort>
788

> <TS_ChemName>
dl-alpha-Tocopheryl acetate

> <TS_ChemName_Synonyms>


> <TS_CASRN>
52225-20-4

> <CASRN_ChemName_Relationship>
primary

> <TS_Description>
mixture or formulation

> <ChemNote>
relative stereochem; structure shown all R

> <STRUCTURE_Shown>
representative isomer in mixture

> <STRUCTURE_Formula>
C31H52O3

> <STRUCTURE_MW>
472.7428

> <STRUCTURE_ChemType>
defined organic

> <STRUCTURE_DefinedOrganicForm>
parent

> <STRUCTURE_IUPAC>
(2R)-2,5,7,8-tetramethyl-2-[(4R,8R)-4,8,12-trimethyltridecyl]-3,4-dihydro-2H-chromen-6-yl acetate

> <STRUCTURE_SMILES>
CC(=O)Oc2c(C)c(C)c1O[C@@](C)(CCc1c2C)CCC[C@H](C)CCC[C@H](C)CCCC(C)C

> <STRUCTURE_SMILES_Desalt>
CC(=O)Oc2c(C)c(C)c1O[C@@](C)(CCc1c2C)CCC[C@H](C)CCC[C@H](C)CCCC(C)C

> <Substance_modify_yyyymmdd>
20080429

$$$$
