52549-17-4
ChemmineR-0914142331XD

 19 21  0  0  0  0  0  0  0  0  1 V2000
   10.3591   -1.9993    0.0000 C   0  0  0  0  0  0  0  0  0  0  0  0
   10.3591   -3.3253    0.0000 C   0  0  0  0  0  0  0  0  0  0  0  0
    9.2092   -3.9882    0.0000 N   0  0  0  0  0  0  0  0  0  0  0  0
    8.0594   -3.3253    0.0000 C   0  0  0  0  0  0  0  0  0  0  0  0
    8.0594   -1.9993    0.0000 C   0  0  0  0  0  0  0  0  0  0  0  0
    9.2092   -1.3260    0.0000 C   0  0  0  0  0  0  0  0  0  0  0  0
    6.9095   -1.3260    0.0000 C   0  0  0  0  0  0  0  0  0  0  0  0
    5.7596   -1.9993    0.0000 C   0  0  0  0  0  0  0  0  0  0  0  0
    5.7596   -3.3253    0.0000 C   0  0  0  0  0  0  0  0  0  0  0  0
    6.9095   -3.9882    0.0000 O   0  0  0  0  0  0  0  0  0  0  0  0
    4.5994   -3.9882    0.0000 C   0  0  0  0  0  0  0  0  0  0  0  0
    3.4496   -3.3253    0.0000 C   0  0  0  0  0  0  0  0  0  0  0  0
    3.4496   -1.9993    0.0000 C   0  0  0  0  0  0  0  0  0  0  0  0
    2.2997   -1.3260    0.0000 C   0  0  0  0  0  0  0  0  0  0  0  0
    2.2997    0.0000    0.0000 C   0  0  0  0  0  0  0  0  0  0  0  0
    1.1499   -1.9993    0.0000 C   0  0  0  0  0  0  0  0  0  0  0  0
    1.1499   -3.3253    0.0000 O   0  0  0  0  0  0  0  0  0  0  0  0
    0.0000   -1.3260    0.0000 O   0  0  0  0  0  0  0  0  0  0  0  0
    4.5994   -1.3260    0.0000 C   0  0  0  0  0  0  0  0  0  0  0  0
  1  2  2  0  0  0  0
  1  6  1  0  0  0  0
  2  3  1  0  0  0  0
  3  4  2  0  0  0  0
  4  5  1  0  0  0  0
  4 10  1  0  0  0  0
  5  6  2  0  0  0  0
  5  7  1  0  0  0  0
  7  8  1  0  0  0  0
  8  9  2  0  0  0  0
  8 19  1  0  0  0  0
  9 10  1  0  0  0  0
  9 11  1  0  0  0  0
 11 12  2  0  0  0  0
 12 13  1  0  0  0  0
 13 14  1  0  0  0  0
 13 19  2  0  0  0  0
 14 15  1  0  0  0  0
 14 16  1  0  0  0  0
 16 17  2  0  0  0  0
 16 18  1  0  0  0  0
M  END
> <ID>
3134

> <Formula>
C15H13NO3

> <FW>
255.2686

> <DSSTox_CID>
3497

> <DSSTox_RID>
77055

> <DSSTox_GSID>
23497

> <DSSTox_FileID_Sort>
1738

> <TS_ChemName>
Pranoprofen

> <TS_ChemName_Synonyms>


> <TS_CASRN>
52549-17-4

> <CASRN_ChemName_Relationship>
primary

> <TS_Description>
single chemical compound

> <ChemNote>


> <STRUCTURE_Shown>
tested chemical

> <STRUCTURE_Formula>
C15H13NO3

> <STRUCTURE_MW>
255.2686

> <STRUCTURE_ChemType>
defined organic

> <STRUCTURE_DefinedOrganicForm>
parent

> <STRUCTURE_IUPAC>
2-(5H-chromeno[2,3-b]pyridin-7-yl)propanoic acid

> <STRUCTURE_SMILES>
O=C(O)C(C)c1cc2Cc3cccnc3Oc2cc1

> <STRUCTURE_SMILES_Desalt>
O=C(O)C(C)c1cc2Cc3cccnc3Oc2cc1

> <Substance_modify_yyyymmdd>
20080429

$$$$
