52645-53-1
ChemmineR-0914142331XD

 26 28  0  0  0  0  0  0  0  0  1 V2000
    6.9283   -3.3192    0.0000 C    0  0  0  0  0  0  0  0  0  0  0  0
    5.7687   -4.0004    0.0000 C    0  0  0  0  0  0  0  0  0  0  0  0
    4.6237   -3.3192    0.0000 C    0  0  0  0  0  0  0  0  0  0  0  0
    4.6237   -1.9857    0.0000 C    0  0  0  0  0  0  0  0  0  0  0  0
    3.4641   -1.3335    0.0000 O    0  0  0  0  0  0  0  0  0  0  0  0
    2.3046   -1.9857    0.0000 C    0  0  0  0  0  0  0  0  0  0  0  0
    2.3046   -3.3192    0.0000 C    0  0  0  0  0  0  0  0  0  0  0  0
    1.1595   -4.0004    0.0000 C    0  0  0  0  0  0  0  0  0  0  0  0
    0.0000   -3.3192    0.0000 C    0  0  0  0  0  0  0  0  0  0  0  0
    0.0000   -1.9857    0.0000 C    0  0  0  0  0  0  0  0  0  0  0  0
    1.1595   -1.3335    0.0000 C    0  0  0  0  0  0  0  0  0  0  0  0
    5.7687   -1.3335    0.0000 C    0  0  0  0  0  0  0  0  0  0  0  0
    6.9283   -1.9857    0.0000 C    0  0  0  0  0  0  0  0  0  0  0  0
    8.0588   -1.3335    0.0000 C    0  0  0  0  0  0  0  0  0  0  0  0
    9.2184   -1.9857    0.0000 O    0  0  0  0  0  0  0  0  0  0  0  0
   10.3779   -1.3335    0.0000 C    0  0  0  0  0  0  0  0  0  0  0  0
   10.3779    0.0000    0.0000 O    0  0  0  0  0  0  0  0  0  0  0  0
   11.5230   -1.9857    0.0000 C    0  0  0  0  0  0  0  0  0  0  0  0
   12.8565   -1.9857    0.0000 C    0  0  0  0  0  0  0  0  0  0  0  0
   13.5377   -0.8407    0.0000 C    0  0  0  0  0  0  0  0  0  0  0  0
   14.1899   -1.9857    0.0000 C    0  0  0  0  0  0  0  0  0  0  0  0
   12.2042   -3.1453    0.0000 C    0  0  0  0  0  0  0  0  0  0  0  0
   12.2042   -4.4787    0.0000 C    0  0  0  0  0  0  0  0  0  0  0  0
   13.3348   -5.1310    0.0000 C    0  0  0  0  0  0  0  0  0  0  0  0
   13.3348   -6.4645    0.0000 Cl   0  0  0  0  0  0  0  0  0  0  0  0
   14.4943   -4.4787    0.0000 Cl   0  0  0  0  0  0  0  0  0  0  0  0
  1  2  2  0  0  0  0
  1 13  1  0  0  0  0
  2  3  1  0  0  0  0
  3  4  2  0  0  0  0
  4  5  1  0  0  0  0
  4 12  1  0  0  0  0
  5  6  1  0  0  0  0
  6  7  2  0  0  0  0
  6 11  1  0  0  0  0
  7  8  1  0  0  0  0
  8  9  2  0  0  0  0
  9 10  1  0  0  0  0
 10 11  2  0  0  0  0
 12 13  2  0  0  0  0
 13 14  1  0  0  0  0
 14 15  1  0  0  0  0
 15 16  1  0  0  0  0
 16 17  2  0  0  0  0
 16 18  1  0  0  0  0
 18 19  1  0  0  0  0
 18 22  1  0  0  0  0
 19 20  1  0  0  0  0
 19 21  1  0  0  0  0
 19 22  1  0  0  0  0
 22 23  1  0  0  0  0
 23 24  2  0  0  0  0
 24 25  1  0  0  0  0
 24 26  1  0  0  0  0
M  END
> <ID>
2126

> <Formula>
C21H20Cl2O3

> <FW>
391.2877

> <DSSTox_CID>
2292

> <DSSTox_RID>
76537

> <DSSTox_GSID>
22292

> <DSSTox_FileID_Sort>
1221

> <TS_ChemName>
Permethrin

> <TS_ChemName_Synonyms>


> <TS_CASRN>
52645-53-1

> <CASRN_ChemName_Relationship>
primary

> <TS_Description>
single chemical compound

> <ChemNote>
mixture of (1R,S), (3R,S) isomers; structure shown without stereochem

> <STRUCTURE_Shown>
tested chemical

> <STRUCTURE_Formula>
C21H20Cl2O3

> <STRUCTURE_MW>
391.2877

> <STRUCTURE_ChemType>
defined organic

> <STRUCTURE_DefinedOrganicForm>
parent

> <STRUCTURE_IUPAC>
3-phenoxybenzyl 3-(2,2-dichloroethenyl)-2,2-dimethylcyclopropanecarboxylate

> <STRUCTURE_SMILES>
Cl/C(Cl)=C/C3C(C(=O)OCc2cccc(Oc1ccccc1)c2)C3(C)C

> <STRUCTURE_SMILES_Desalt>
Cl/C(Cl)=C/C3C(C(=O)OCc2cccc(Oc1ccccc1)c2)C3(C)C

> <Substance_modify_yyyymmdd>
20080429

$$$$
