53-36-1
ChemmineR-0914142331XD

 33 36  0  0  1  0  0  0  0  0  1 V2000
    3.5463   -5.4783    0.0000 C   0  0  0  0  0  0  0  0  0  0  0  0
    7.0290   -3.4319    0.0000 C   0  0  0  0  0  0  0  0  0  0  0  0
    3.5463   -6.8002    0.0000 C   0  0  0  0  0  0  0  0  0  0  0  0
    8.3128   -3.0379    0.0000 C   0  0  0  0  0  0  0  0  0  0  0  0
    4.7157   -4.8046    0.0000 C   0  0  0  0  0  0  0  0  0  0  0  0
    5.8723   -5.4783    0.0000 C   0  0  0  0  0  0  0  0  0  0  0  0
    7.0290   -4.8173    0.0000 C   0  0  0  0  0  0  0  0  0  0  0  0
    2.3642   -4.8046    0.0000 C   0  0  0  0  0  0  0  0  0  0  0  0
    5.8723   -2.7963    0.0000 C   0  0  0  0  0  0  0  0  0  0  0  0
    4.7157   -3.4319    0.0000 C   0  0  0  0  0  0  0  0  0  0  0  0
    5.8723   -6.7748    0.0000 C   0  0  0  0  0  0  0  0  0  0  0  0
    2.3642   -7.4485    0.0000 C   0  0  0  0  0  0  0  0  0  0  0  0
    4.7157   -7.4485    0.0000 C   0  0  0  0  0  0  0  0  0  0  0  0
    8.3255   -1.7032    0.0000 C   0  0  0  0  0  0  0  0  0  0  0  0
    9.0627   -4.1055    0.0000 C   0  0  0  0  0  0  0  0  0  0  0  0
    8.3128   -5.2368    0.0000 C   0  0  0  0  0  0  0  0  0  0  0  0
    1.2075   -5.4783    0.0000 C   0  0  0  0  0  0  0  0  0  0  0  0
    1.2075   -6.7748    0.0000 C   0  0  0  0  0  0  0  0  0  0  0  0
   11.7192   -1.2202    0.0000 C   0  0  0  0  0  0  0  0  0  0  0  0
    9.4949   -1.0423    0.0000 C   0  0  0  0  0  0  0  0  0  0  0  0
    7.1688   -0.9787    0.0000 O   0  0  0  0  0  0  0  0  0  0  0  0
   10.6134   -1.7668    0.0000 O   0  0  0  0  0  0  0  0  0  0  0  0
   11.7192    0.0000    0.0000 O   0  0  0  0  0  0  0  0  0  0  0  0
    0.0000   -7.4357    0.0000 O   0  0  0  0  0  0  0  0  0  0  0  0
    9.6601   -3.0506    0.0000 O   0  0  0  0  0  0  0  0  0  0  0  0
    3.5463   -4.0928    0.0000 C   0  0  0  0  0  0  0  0  0  0  0  0
    7.0290   -2.1227    0.0000 C   0  0  0  0  0  0  0  0  0  0  0  0
    3.5209   -2.7836    0.0000 O   0  0  0  0  0  0  0  0  0  0  0  0
    4.7157   -8.7958    0.0000 C   0  0  0  0  0  0  0  0  0  0  0  0
   12.7107   -1.8685    0.0000 C   0  0  0  0  0  0  0  0  0  0  0  0
    5.8723   -4.1437    0.0000 H   0  0  0  0  0  0  0  0  0  0  0  0
    7.0290   -6.1520    0.0000 H   0  0  0  0  0  0  0  0  0  0  0  0
    4.7157   -6.1265    0.0000 H   0  0  0  0  0  0  0  0  0  0  0  0
  1  3  1  0  0  0  0
  1  5  1  0  0  0  0
  1  8  1  0  0  0  0
  1 26  1  1  0  0  0
  2  9  1  0  0  0  0
  2  4  1  0  0  0  0
  2 27  1  1  0  0  0
  2  7  1  0  0  0  0
  3 12  2  0  0  0  0
  3 13  1  0  0  0  0
  4 14  1  0  0  0  0
  4 25  1  6  0  0  0
  4 15  1  0  0  0  0
  5  6  1  0  0  0  0
  5 10  1  0  0  0  0
  5 33  1  6  0  0  0
  6  7  1  0  0  0  0
  6 11  1  0  0  0  0
  6 31  1  1  0  0  0
  7 16  1  0  0  0  0
  7 32  1  6  0  0  0
  8 17  2  0  0  0  0
  9 10  1  0  0  0  0
 10 28  1  1  0  0  0
 11 13  1  0  0  0  0
 12 18  1  0  0  0  0
 13 29  1  6  0  0  0
 14 20  1  0  0  0  0
 14 21  2  0  0  0  0
 15 16  1  0  0  0  0
 17 18  1  0  0  0  0
 18 24  2  0  0  0  0
 19 22  1  0  0  0  0
 19 23  2  0  0  0  0
 19 30  1  0  0  0  0
 20 22  1  0  0  0  0
M  END
> <ID>
2964

> <Formula>
C24H32O6

> <FW>
416.5073

> <DSSTox_CID>
3302

> <DSSTox_RID>
76966

> <DSSTox_GSID>
23302

> <DSSTox_FileID_Sort>
1650

> <TS_ChemName>
Methylprednisolone acetate

> <TS_ChemName_Synonyms>


> <TS_CASRN>
53-36-1

> <CASRN_ChemName_Relationship>
primary

> <TS_Description>
single chemical compound

> <ChemNote>
stereochem; tautomers

> <STRUCTURE_Shown>
tested chemical

> <STRUCTURE_Formula>
C24H32O6

> <STRUCTURE_MW>
416.5073

> <STRUCTURE_ChemType>
defined organic

> <STRUCTURE_DefinedOrganicForm>
parent

> <STRUCTURE_IUPAC>
(6alpha,11beta)-11,17-dihydroxy-6-methyl-3,20-dioxopregna-1,4-dien-21-yl acetate

> <STRUCTURE_SMILES>
CC(=O)OCC(=O)[C@@]4(O)CC[C@@H]3[C@]4(C)C[C@H](O)[C@H]2[C@H]3C[C@H](C)C1=CC(=O)C=C[C@@]12C

> <STRUCTURE_SMILES_Desalt>
CC(=O)OCC(=O)[C@@]4(O)CC[C@@H]3[C@]4(C)C[C@H](O)[C@H]2[C@H]3C[C@H](C)C1=CC(=O)C=C[C@@]12C

> <Substance_modify_yyyymmdd>
20080429

$$$$
