53-86-1
ChemmineR-0914142331XD

 25 27  0  0  0  0  0  0  0  0  1 V2000
    7.2522   -3.4100    0.0000 C    0  0  0  0  0  0  0  0  0  0  0  0
    6.0995   -4.0704    0.0000 C    0  0  0  0  0  0  0  0  0  0  0  0
    4.8868   -3.5301    0.0000 C    0  0  0  0  0  0  0  0  0  0  0  0
    3.9863   -4.5266    0.0000 C    0  0  0  0  0  0  0  0  0  0  0  0
    4.6587   -5.6793    0.0000 C    0  0  0  0  0  0  0  0  0  0  0  0
    3.9863   -6.8200    0.0000 C    0  0  0  0  0  0  0  0  0  0  0  0
    2.6655   -6.8200    0.0000 C    0  0  0  0  0  0  0  0  0  0  0  0
    1.9932   -5.6793    0.0000 C    0  0  0  0  0  0  0  0  0  0  0  0
    2.6655   -4.5266    0.0000 C    0  0  0  0  0  0  0  0  0  0  0  0
    0.6604   -5.6793    0.0000 O    0  0  0  0  0  0  0  0  0  0  0  0
    0.0000   -6.8200    0.0000 C    0  0  0  0  0  0  0  0  0  0  0  0
    5.9555   -5.3911    0.0000 N    0  0  0  0  0  0  0  0  0  0  0  0
    6.9520   -6.2917    0.0000 C    0  0  0  0  0  0  0  0  0  0  0  0
    6.6639   -7.5884    0.0000 O    0  0  0  0  0  0  0  0  0  0  0  0
    8.2128   -5.8714    0.0000 C    0  0  0  0  0  0  0  0  0  0  0  0
    8.4889   -4.5747    0.0000 C    0  0  0  0  0  0  0  0  0  0  0  0
    9.7497   -4.1664    0.0000 C    0  0  0  0  0  0  0  0  0  0  0  0
   10.7462   -5.0549    0.0000 C    0  0  0  0  0  0  0  0  0  0  0  0
   10.4701   -6.3517    0.0000 C    0  0  0  0  0  0  0  0  0  0  0  0
    9.1973   -6.7719    0.0000 C    0  0  0  0  0  0  0  0  0  0  0  0
   12.0070   -4.6467    0.0000 Cl   0  0  0  0  0  0  0  0  0  0  0  0
    4.5987   -2.2333    0.0000 C    0  0  0  0  0  0  0  0  0  0  0  0
    5.5472   -1.2968    0.0000 C    0  0  0  0  0  0  0  0  0  0  0  0
    5.1990    0.0000    0.0000 O    0  0  0  0  0  0  0  0  0  0  0  0
    6.8320   -1.6329    0.0000 O    0  0  0  0  0  0  0  0  0  0  0  0
  1  2  1  0  0  0  0
  2  3  2  0  0  0  0
  2 12  1  0  0  0  0
  3  4  1  0  0  0  0
  3 22  1  0  0  0  0
  4  5  2  0  0  0  0
  4  9  1  0  0  0  0
  5  6  1  0  0  0  0
  5 12  1  0  0  0  0
  6  7  2  0  0  0  0
  7  8  1  0  0  0  0
  8  9  2  0  0  0  0
  8 10  1  0  0  0  0
 10 11  1  0  0  0  0
 12 13  1  0  0  0  0
 13 14  2  0  0  0  0
 13 15  1  0  0  0  0
 15 16  2  0  0  0  0
 15 20  1  0  0  0  0
 16 17  1  0  0  0  0
 17 18  2  0  0  0  0
 18 19  1  0  0  0  0
 18 21  1  0  0  0  0
 19 20  2  0  0  0  0
 22 23  1  0  0  0  0
 23 24  2  0  0  0  0
 23 25  1  0  0  0  0
M  END
> <ID>
710

> <Formula>
C19H16ClNO4

> <FW>
357.7876

> <DSSTox_CID>
740

> <DSSTox_RID>
75763

> <DSSTox_GSID>
20740

> <DSSTox_FileID_Sort>
447

> <TS_ChemName>
Indomethacin

> <TS_ChemName_Synonyms>


> <TS_CASRN>
53-86-1

> <CASRN_ChemName_Relationship>
primary

> <TS_Description>
single chemical compound

> <ChemNote>


> <STRUCTURE_Shown>
tested chemical

> <STRUCTURE_Formula>
C19H16ClNO4

> <STRUCTURE_MW>
357.7876

> <STRUCTURE_ChemType>
defined organic

> <STRUCTURE_DefinedOrganicForm>
parent

> <STRUCTURE_IUPAC>
[1-(4-chlorobenzoyl)-5-methoxy-2-methyl-1H-indol-3-yl]acetic acid

> <STRUCTURE_SMILES>
Clc1ccc(cc1)C(=O)n3c2ccc(cc2c(CC(=O)O)c3C)OC

> <STRUCTURE_SMILES_Desalt>
Clc1ccc(cc1)C(=O)n3c2ccc(cc2c(CC(=O)O)c3C)OC

> <Substance_modify_yyyymmdd>
20080429

$$$$
