53123-88-9
ChemmineR-0914142331XD

 69 72  0  0  1  0  0  0  0  0  1 V2000
    5.7287   -4.6408    0.0000 C   0  0  0  0  0  0  0  0  0  0  0  0
    5.7287   -5.9667    0.0000 O   0  0  0  0  0  0  0  0  0  0  0  0
    4.5898   -3.9778    0.0000 C   0  0  0  0  0  0  0  0  0  0  0  0
    4.5898   -6.6127    0.0000 O   0  0  0  0  0  0  0  0  0  0  0  0
    3.4508   -4.6408    0.0000 N   0  0  0  0  0  0  0  0  0  0  0  0
    3.4508   -5.9667    0.0000 C   0  0  0  0  0  0  0  0  0  0  0  0
    6.8847   -3.9778    0.0000 O   0  0  0  0  0  0  0  0  0  0  0  0
    8.0066   -4.6408    0.0000 C   0  0  0  0  0  0  0  0  0  0  0  0
    8.0066   -5.9667    0.0000 C   0  0  0  0  0  0  0  0  0  0  0  0
    9.1626   -3.9778    0.0000 C   0  0  0  0  0  0  0  0  0  0  0  0
   10.3015   -4.6408    0.0000 C   0  0  0  0  0  0  0  0  0  0  0  0
    9.1626   -6.6127    0.0000 C   0  0  0  0  0  0  0  0  0  0  0  0
    4.5898   -2.6519    0.0000 C   0  0  0  0  0  0  0  0  0  0  0  0
    3.4508   -1.9889    0.0000 C   0  0  0  0  0  0  0  0  0  0  0  0
    2.2949   -3.9778    0.0000 C   0  0  0  0  0  0  0  0  0  0  0  0
    2.2949   -2.6519    0.0000 C   0  0  0  0  0  0  0  0  0  0  0  0
    9.1626   -2.6519    0.0000 C   0  0  0  0  0  0  0  0  0  0  0  0
   10.3015   -1.9889    0.0000 C   0  0  0  0  0  0  0  0  0  0  0  0
   11.4575   -2.6519    0.0000 C   0  0  0  0  0  0  0  0  0  0  0  0
   10.3015   -0.6630    0.0000 C   0  0  0  0  0  0  0  0  0  0  0  0
   11.4575    0.0000    0.0000 C   0  0  0  0  0  0  0  0  0  0  0  0
   12.5964   -1.9889    0.0000 C   0  0  0  0  0  0  0  0  0  0  0  0
   12.5964   -0.6630    0.0000 C   0  0  0  0  0  0  0  0  0  0  0  0
    3.4508   -8.5846    0.0000 O   0  0  0  0  0  0  0  0  0  0  0  0
    2.2949   -6.6127    0.0000 C   0  0  0  0  0  0  0  0  0  0  0  0
    2.2949   -7.9386    0.0000 C   0  0  0  0  0  0  0  0  0  0  0  0
    9.1626   -7.9386    0.0000 C   0  0  0  0  0  0  0  0  0  0  0  0
    8.0066   -8.5846    0.0000 C   0  0  0  0  0  0  0  0  0  0  0  0
    3.4338   -9.9105    0.0000 C   0  0  0  0  0  0  0  0  0  0  0  0
    2.2949  -10.5905    0.0000 C   0  0  0  0  0  0  0  0  0  0  0  0
    1.1559   -8.5846    0.0000 C   0  0  0  0  0  0  0  0  0  0  0  0
    1.1559   -9.9105    0.0000 C   0  0  0  0  0  0  0  0  0  0  0  0
    4.5898  -10.5905    0.0000 C   0  0  0  0  0  0  0  0  0  0  0  0
   10.3015   -8.5846    0.0000 C   0  0  0  0  0  0  0  0  0  0  0  0
   10.3015   -9.9105    0.0000 C   0  0  0  0  0  0  0  0  0  0  0  0
    9.1626  -10.5905    0.0000 C   0  0  0  0  0  0  0  0  0  0  0  0
    4.5898  -11.9165    0.0000 C   0  0  0  0  0  0  0  0  0  0  0  0
    6.8847  -11.9165    0.0000 C   0  0  0  0  0  0  0  0  0  0  0  0
    5.7457  -12.5794    0.0000 C   0  0  0  0  0  0  0  0  0  0  0  0
   11.4575  -10.5905    0.0000 C   0  0  0  0  0  0  0  0  0  0  0  0
   11.4575  -11.9165    0.0000 C   0  0  0  0  0  0  0  0  0  0  0  0
   10.3015  -12.5624    0.0000 O   0  0  0  0  0  0  0  0  0  0  0  0
    5.7457  -13.8884    0.0000 C   0  0  0  0  0  0  0  0  0  0  0  0
    6.8847  -14.5513    0.0000 C   0  0  0  0  0  0  0  0  0  0  0  0
   10.3015  -13.8884    0.0000 C   0  0  0  0  0  0  0  0  0  0  0  0
   12.5964  -12.5624    0.0000 C   0  0  0  0  0  0  0  0  0  0  0  0
   12.5964  -13.8884    0.0000 C   0  0  0  0  0  0  0  0  0  0  0  0
   11.4575  -14.5513    0.0000 C   0  0  0  0  0  0  0  0  0  0  0  0
    9.1626  -15.8773    0.0000 C   0  0  0  0  0  0  0  0  0  0  0  0
    8.0066  -16.5402    0.0000 C   0  0  0  0  0  0  0  0  0  0  0  0
    6.8847  -15.8773    0.0000 C   0  0  0  0  0  0  0  0  0  0  0  0
   10.8285  -15.8773    0.0000 C   0  0  0  0  0  0  0  0  0  0  0  0
   13.7524  -11.9165    0.0000 O   0  0  0  0  0  0  0  0  0  0  0  0
   12.5964   -9.9105    0.0000 O   0  0  0  0  0  0  0  0  0  0  0  0
   13.7524  -14.5513    0.0000 C   0  0  0  0  0  0  0  0  0  0  0  0
   11.5425  -16.9992    0.0000 C   0  0  0  0  0  0  0  0  0  0  0  0
    3.4508  -12.5794    0.0000 O   0  0  0  0  0  0  0  0  0  0  0  0
    3.4508  -13.9054    0.0000 C   0  0  0  0  0  0  0  0  0  0  0  0
   10.3015   -5.9667    0.0000 O   0  0  0  0  0  0  0  0  0  0  0  0
    1.1559   -7.2757    0.0000 O   0  0  0  0  0  0  0  0  0  0  0  0
    1.1559   -5.9497    0.0000 O   0  0  0  0  0  0  0  0  0  0  0  0
   13.7524   -2.6519    0.0000 O   0  0  0  0  0  0  0  0  0  0  0  0
   13.7524   -0.0170    0.0000 O   0  0  0  0  0  0  0  0  0  0  0  0
    0.0000   -7.9386    0.0000 C   0  0  0  0  0  0  0  0  0  0  0  0
   13.7524   -3.9778    0.0000 C   0  0  0  0  0  0  0  0  0  0  0  0
    9.0266   -1.6659    0.0000 H   0  0  0  0  0  0  0  0  0  0  0  0
    8.0066   -3.3148    0.0000 H   0  0  0  0  0  0  0  0  0  0  0  0
    3.4338  -11.2365    0.0000 H   0  0  0  0  0  0  0  0  0  0  0  0
    4.5898   -5.2868    0.0000 H   0  0  0  0  0  0  0  0  0  0  0  0
  1  3  1  0  0  0  0
  1  7  1  0  0  0  0
  1  2  2  0  0  0  0
  3 13  1  0  0  0  0
  3  5  1  0  0  0  0
  3 69  1  6  0  0  0
  4  6  2  0  0  0  0
  5  6  1  0  0  0  0
  5 15  1  0  0  0  0
  6 25  1  0  0  0  0
  7  8  1  0  0  0  0
  8 10  1  0  0  0  0
  8  9  1  0  0  0  0
  8 67  1  1  0  0  0
  9 12  1  0  0  0  0
 10 17  1  0  0  0  0
 10 11  1  1  0  0  0
 12 27  1  0  0  0  0
 12 59  2  0  0  0  0
 13 14  1  0  0  0  0
 14 16  1  0  0  0  0
 15 16  1  0  0  0  0
 17 18  1  0  0  0  0
 18 20  1  0  0  0  0
 18 19  1  0  0  0  0
 18 66  1  1  0  0  0
 19 22  1  0  0  0  0
 20 21  1  0  0  0  0
 21 23  1  0  0  0  0
 22 23  1  0  0  0  0
 22 62  1  6  0  0  0
 23 63  1  1  0  0  0
 24 26  1  0  0  0  0
 24 29  1  0  0  0  0
 25 26  1  0  0  0  0
 25 61  2  0  0  0  0
 26 31  1  0  0  0  0
 26 60  1  1  0  0  0
 27 34  1  0  0  0  0
 27 28  1  1  0  0  0
 29 30  1  0  0  0  0
 29 33  1  0  0  0  0
 29 68  1  1  0  0  0
 30 32  1  0  0  0  0
 31 32  1  0  0  0  0
 31 64  1  1  0  0  0
 33 37  1  0  0  0  0
 34 35  2  0  0  0  0
 35 40  1  0  0  0  0
 35 36  1  0  0  0  0
 37 39  1  0  0  0  0
 37 57  1  1  0  0  0
 38 39  1  0  0  0  0
 39 43  2  0  0  0  0
 40 41  1  0  0  0  0
 40 54  1  1  0  0  0
 41 46  1  0  0  0  0
 41 42  1  6  0  0  0
 42 45  1  0  0  0  0
 43 44  1  0  0  0  0
 44 51  2  0  0  0  0
 46 47  1  0  0  0  0
 46 53  2  0  0  0  0
 47 48  1  0  0  0  0
 47 55  1  6  0  0  0
 48 52  1  0  0  0  0
 49 50  2  0  0  0  0
 49 52  1  0  0  0  0
 50 51  1  0  0  0  0
 52 56  1  6  0  0  0
 57 58  1  0  0  0  0
 62 65  1  0  0  0  0
M  END
> <ID>
3203

> <Formula>
C51H79NO13

> <FW>
914.1719

> <DSSTox_CID>
3582

> <DSSTox_RID>
77091

> <DSSTox_GSID>
23582

> <DSSTox_FileID_Sort>
1774

> <TS_ChemName>
Sirolimus

> <TS_ChemName_Synonyms>
Sirolimus (Rapamycin)

> <TS_CASRN>
53123-88-9

> <CASRN_ChemName_Relationship>
primary

> <TS_Description>
single chemical compound

> <ChemNote>
stereochem; tautomers

> <STRUCTURE_Shown>
tested chemical

> <STRUCTURE_Formula>
C51H79NO13

> <STRUCTURE_MW>
914.1719

> <STRUCTURE_ChemType>
defined organic

> <STRUCTURE_DefinedOrganicForm>
parent

> <STRUCTURE_IUPAC>
(3S,6R,7E,9R,10R,12R,14S,15E,17E,19E,21S,23S,26R,27R,34aS)-9,27-dihydroxy-3-{(2R)-1-[(1S,3R,4R)-4-hydroxy-3-methoxycyclohexyl]propan-2-yl}-10,21-dimethoxy-6,8,12,14,20,26-hexamethyl-9,10,12,13,14,21,22,23,24,25,26,27,32,33,34,34a-hexadecahydro-3H-23,27-ep

> <STRUCTURE_SMILES>
O[C@@H]1CC[C@H](C[C@H]1OC)C[C@@H](C)[C@H]2OC(=O)[C@@H]4CCCCN4C(=O)C(=O)[C@]3(O)O[C@H](C[C@H](OC)C(C)=CC=CC=C[C@@H](C)C[C@@H](C)C(=O)[C@H](OC)[C@H](O)C(C)=C[C@@H](C)C(=O)C2)CC[C@H]3C

> <STRUCTURE_SMILES_Desalt>
O[C@@H]1CC[C@H](C[C@H]1OC)C[C@@H](C)[C@H]2OC(=O)[C@@H]4CCCCN4C(=O)C(=O)[C@]3(O)O[C@H](C[C@H](OC)C(C)=CC=CC=C[C@@H](C)C[C@@H](C)C(=O)[C@H](OC)[C@H](O)C(C)=C[C@@H](C)C(=O)C2)CC[C@H]3C

> <Substance_modify_yyyymmdd>
20080429

$$$$
