53164-05-9
ChemmineR-0914142331XD

 29 31  0  0  0  0  0  0  0  0  1 V2000
    9.9818   -9.3340    0.0000 C    0  0  0  0  0  0  0  0  0  0  0  0
    8.8301  -10.0058    0.0000 C    0  0  0  0  0  0  0  0  0  0  0  0
    8.8301  -11.3376    0.0000 O    0  0  0  0  0  0  0  0  0  0  0  0
    9.9818  -11.9974    0.0000 C    0  0  0  0  0  0  0  0  0  0  0  0
    7.6783   -9.3340    0.0000 C    0  0  0  0  0  0  0  0  0  0  0  0
    7.6783   -8.0143    0.0000 C    0  0  0  0  0  0  0  0  0  0  0  0
    8.8301   -7.3424    0.0000 C    0  0  0  0  0  0  0  0  0  0  0  0
    9.9818   -8.0143    0.0000 C    0  0  0  0  0  0  0  0  0  0  0  0
    8.5542   -6.0467    0.0000 N    0  0  0  0  0  0  0  0  0  0  0  0
    9.4420   -5.0509    0.0000 C    0  0  0  0  0  0  0  0  0  0  0  0
   10.7377   -5.3388    0.0000 O    0  0  0  0  0  0  0  0  0  0  0  0
    9.0340   -3.7912    0.0000 C    0  0  0  0  0  0  0  0  0  0  0  0
    7.7263   -3.5152    0.0000 C    0  0  0  0  0  0  0  0  0  0  0  0
    7.3184   -2.2555    0.0000 C    0  0  0  0  0  0  0  0  0  0  0  0
    8.2062   -1.2597    0.0000 C    0  0  0  0  0  0  0  0  0  0  0  0
    7.7983    0.0000    0.0000 Cl   0  0  0  0  0  0  0  0  0  0  0  0
    9.5139   -1.5357    0.0000 C    0  0  0  0  0  0  0  0  0  0  0  0
    9.9219   -2.8074    0.0000 C    0  0  0  0  0  0  0  0  0  0  0  0
    7.2344   -5.9027    0.0000 C    0  0  0  0  0  0  0  0  0  0  0  0
    6.5626   -4.7510    0.0000 C    0  0  0  0  0  0  0  0  0  0  0  0
    6.6826   -7.1145    0.0000 C    0  0  0  0  0  0  0  0  0  0  0  0
    5.3868   -7.4024    0.0000 C    0  0  0  0  0  0  0  0  0  0  0  0
    4.4510   -6.4546    0.0000 C    0  0  0  0  0  0  0  0  0  0  0  0
    4.7870   -5.1709    0.0000 O    0  0  0  0  0  0  0  0  0  0  0  0
    3.1673   -6.8025    0.0000 O    0  0  0  0  0  0  0  0  0  0  0  0
    2.2195   -5.8547    0.0000 C    0  0  0  0  0  0  0  0  0  0  0  0
    0.9358   -6.2027    0.0000 C    0  0  0  0  0  0  0  0  0  0  0  0
    0.5999   -7.4864    0.0000 O    0  0  0  0  0  0  0  0  0  0  0  0
    0.0000   -5.2669    0.0000 O    0  0  0  0  0  0  0  0  0  0  0  0
  1  2  2  0  0  0  0
  1  8  1  0  0  0  0
  2  3  1  0  0  0  0
  2  5  1  0  0  0  0
  3  4  1  0  0  0  0
  5  6  2  0  0  0  0
  6  7  1  0  0  0  0
  6 21  1  0  0  0  0
  7  8  2  0  0  0  0
  7  9  1  0  0  0  0
  9 10  1  0  0  0  0
  9 19  1  0  0  0  0
 10 11  2  0  0  0  0
 10 12  1  0  0  0  0
 12 13  2  0  0  0  0
 12 18  1  0  0  0  0
 13 14  1  0  0  0  0
 14 15  2  0  0  0  0
 15 16  1  0  0  0  0
 15 17  1  0  0  0  0
 17 18  2  0  0  0  0
 19 20  1  0  0  0  0
 19 21  2  0  0  0  0
 21 22  1  0  0  0  0
 22 23  1  0  0  0  0
 23 24  2  0  0  0  0
 23 25  1  0  0  0  0
 25 26  1  0  0  0  0
 26 27  1  0  0  0  0
 27 28  1  0  0  0  0
 27 29  2  0  0  0  0
M  END
> <ID>
2305

> <Formula>
C21H18ClNO6

> <FW>
415.8237

> <DSSTox_CID>
2540

> <DSSTox_RID>
76618

> <DSSTox_GSID>
22540

> <DSSTox_FileID_Sort>
1302

> <TS_ChemName>
Acemetacin

> <TS_ChemName_Synonyms>


> <TS_CASRN>
53164-05-9

> <CASRN_ChemName_Relationship>
primary

> <TS_Description>
single chemical compound

> <ChemNote>


> <STRUCTURE_Shown>
tested chemical

> <STRUCTURE_Formula>
C21H18ClNO6

> <STRUCTURE_MW>
415.8237

> <STRUCTURE_ChemType>
defined organic

> <STRUCTURE_DefinedOrganicForm>
parent

> <STRUCTURE_IUPAC>
({[1-(4-chlorobenzoyl)-5-methoxy-2-methyl-1H-indol-3-yl]acetyl}oxy)acetic acid

> <STRUCTURE_SMILES>
Clc1ccc(cc1)C(=O)n3c2ccc(cc2c(CC(=O)OCC(=O)O)c3C)OC

> <STRUCTURE_SMILES_Desalt>
Clc1ccc(cc1)C(=O)n3c2ccc(cc2c(CC(=O)OCC(=O)O)c3C)OC

> <Substance_modify_yyyymmdd>
20080429

$$$$
