533-45-9
ChemmineR-0914142331XD

  9  9  0  0  0  0  0  0  0  0  1 V2000
    1.9688   -3.1645    0.0000 S    0  0  0  0  0  0  0  0  0  0  0  0
    0.6674   -3.4426    0.0000 C    0  0  0  0  0  0  0  0  0  0  0  0
    0.0000   -2.2913    0.0000 N    0  0  0  0  0  0  0  0  0  0  0  0
    0.8898   -1.3014    0.0000 C    0  0  0  0  0  0  0  0  0  0  0  0
    0.6118    0.0000    0.0000 C    0  0  0  0  0  0  0  0  0  0  0  0
    2.1078   -1.8408    0.0000 C    0  0  0  0  0  0  0  0  0  0  0  0
    3.2590   -1.1790    0.0000 C    0  0  0  0  0  0  0  0  0  0  0  0
    4.4103   -1.8408    0.0000 C    0  0  0  0  0  0  0  0  0  0  0  0
    5.5615   -1.1790    0.0000 Cl   0  0  0  0  0  0  0  0  0  0  0  0
  1  2  1  0  0  0  0
  1  6  1  0  0  0  0
  2  3  2  0  0  0  0
  3  4  1  0  0  0  0
  4  5  1  0  0  0  0
  4  6  2  0  0  0  0
  6  7  1  0  0  0  0
  7  8  1  0  0  0  0
  8  9  1  0  0  0  0
M  END
> <ID>
2568

> <Formula>
C6H8ClNS

> <FW>
161.6524

> <DSSTox_CID>
2842

> <DSSTox_RID>
76753

> <DSSTox_GSID>
22842

> <DSSTox_FileID_Sort>
1437

> <TS_ChemName>
Clomethiazole

> <TS_ChemName_Synonyms>


> <TS_CASRN>
533-45-9

> <CASRN_ChemName_Relationship>
primary

> <TS_Description>
single chemical compound

> <ChemNote>


> <STRUCTURE_Shown>
tested chemical

> <STRUCTURE_Formula>
C6H8ClNS

> <STRUCTURE_MW>
161.6524

> <STRUCTURE_ChemType>
defined organic

> <STRUCTURE_DefinedOrganicForm>
parent

> <STRUCTURE_IUPAC>
5-(2-chloroethyl)-4-methyl-1,3-thiazole

> <STRUCTURE_SMILES>
ClCCc1scnc1C

> <STRUCTURE_SMILES_Desalt>
ClCCc1scnc1C

> <Substance_modify_yyyymmdd>
20080429

$$$$
