534-07-6
ChemmineR-0914142331XD

  6  5  0  0  0  0  0  0  0  0  1 V2000
    2.3042    0.0000    0.0000 O    0  0  0  0  0  0  0  0  0  0  0  0
    2.3042   -1.3318    0.0000 C    0  0  0  0  0  0  0  0  0  0  0  0
    3.4563   -1.9954    0.0000 C    0  0  0  0  0  0  0  0  0  0  0  0
    4.6084   -1.3318    0.0000 Cl   0  0  0  0  0  0  0  0  0  0  0  0
    1.1521   -1.9954    0.0000 C    0  0  0  0  0  0  0  0  0  0  0  0
    0.0000   -1.3318    0.0000 Cl   0  0  0  0  0  0  0  0  0  0  0  0
  1  2  2  0  0  0  0
  2  3  1  0  0  0  0
  2  5  1  0  0  0  0
  3  4  1  0  0  0  0
  5  6  1  0  0  0  0
M  END
> <ID>
1515

> <Formula>
C3H4Cl2O

> <FW>
126.9693

> <DSSTox_CID>
1577

> <DSSTox_RID>
76217

> <DSSTox_GSID>
21577

> <DSSTox_FileID_Sort>
901

> <TS_ChemName>
1,3-Dichloropropanone

> <TS_ChemName_Synonyms>


> <TS_CASRN>
534-07-6

> <CASRN_ChemName_Relationship>
primary

> <TS_Description>
single chemical compound

> <ChemNote>


> <STRUCTURE_Shown>
tested chemical

> <STRUCTURE_Formula>
C3H4Cl2O

> <STRUCTURE_MW>
126.9693

> <STRUCTURE_ChemType>
defined organic

> <STRUCTURE_DefinedOrganicForm>
parent

> <STRUCTURE_IUPAC>
1,3-dichloropropan-2-one

> <STRUCTURE_SMILES>
ClCC(=O)CCl

> <STRUCTURE_SMILES_Desalt>
ClCC(=O)CCl

> <Substance_modify_yyyymmdd>
20080429

$$$$
