536-60-7
ChemmineR-0914142331XD

 11 11  0  0  0  0  0  0  0  0  1 V2000
    0.0000   -2.3022    0.0000 C   0  0  0  0  0  0  0  0  0  0  0  0
    0.6654   -1.1511    0.0000 C   0  0  0  0  0  0  0  0  0  0  0  0
    1.9961   -1.1511    0.0000 C   0  0  0  0  0  0  0  0  0  0  0  0
    2.6615    0.0000    0.0000 C   0  0  0  0  0  0  0  0  0  0  0  0
    3.9923    0.0000    0.0000 C   0  0  0  0  0  0  0  0  0  0  0  0
    4.6576   -1.1511    0.0000 C   0  0  0  0  0  0  0  0  0  0  0  0
    5.9884   -1.1511    0.0000 C   0  0  0  0  0  0  0  0  0  0  0  0
    6.6538    0.0000    0.0000 O   0  0  0  0  0  0  0  0  0  0  0  0
    3.9923   -2.3022    0.0000 C   0  0  0  0  0  0  0  0  0  0  0  0
    2.6615   -2.3022    0.0000 C   0  0  0  0  0  0  0  0  0  0  0  0
    0.0000    0.0000    0.0000 C   0  0  0  0  0  0  0  0  0  0  0  0
  1  2  1  0  0  0  0
  2  3  1  0  0  0  0
  2 11  1  0  0  0  0
  3  4  2  0  0  0  0
  3 10  1  0  0  0  0
  4  5  1  0  0  0  0
  5  6  2  0  0  0  0
  6  7  1  0  0  0  0
  6  9  1  0  0  0  0
  7  8  1  0  0  0  0
  9 10  2  0  0  0  0
M  END
> <ID>
1563

> <Formula>
C10H14O

> <FW>
150.2176

> <DSSTox_CID>
1626

> <DSSTox_RID>
76242

> <DSSTox_GSID>
21626

> <DSSTox_FileID_Sort>
926

> <TS_ChemName>
4-Isopropylbenzyl alcohol

> <TS_ChemName_Synonyms>
4-Isopropylbenzyl alcohol  (4-(1-Methylethyl)-benzene methanol)

> <TS_CASRN>
536-60-7

> <CASRN_ChemName_Relationship>
primary

> <TS_Description>
single chemical compound

> <ChemNote>


> <STRUCTURE_Shown>
tested chemical

> <STRUCTURE_Formula>
C10H14O

> <STRUCTURE_MW>
150.2176

> <STRUCTURE_ChemType>
defined organic

> <STRUCTURE_DefinedOrganicForm>
parent

> <STRUCTURE_IUPAC>
[4-(propan-2-yl)phenyl]methanol

> <STRUCTURE_SMILES>
OCc1ccc(cc1)C(C)C

> <STRUCTURE_SMILES_Desalt>
OCc1ccc(cc1)C(C)C

> <Substance_modify_yyyymmdd>
20080429

$$$$
