53902-12-8
ChemmineR-0914142331XD

 24 25  0  0  0  0  0  0  0  0  1 V2000
   10.3625   -5.3206    0.0000 C   0  0  0  0  0  0  0  0  0  0  0  0
    9.2097   -5.9794    0.0000 C   0  0  0  0  0  0  0  0  0  0  0  0
    8.0569   -5.3206    0.0000 C   0  0  0  0  0  0  0  0  0  0  0  0
    8.0569   -3.9905    0.0000 C   0  0  0  0  0  0  0  0  0  0  0  0
    9.2097   -3.3190    0.0000 C   0  0  0  0  0  0  0  0  0  0  0  0
    9.2097   -1.9889    0.0000 N   0  0  0  0  0  0  0  0  0  0  0  0
    8.0569   -1.3302    0.0000 C   0  0  0  0  0  0  0  0  0  0  0  0
    8.0569    0.0000    0.0000 O   0  0  0  0  0  0  0  0  0  0  0  0
    6.9041   -1.9889    0.0000 C   0  0  0  0  0  0  0  0  0  0  0  0
    5.7640   -1.3302    0.0000 C   0  0  0  0  0  0  0  0  0  0  0  0
    4.6112   -1.9889    0.0000 C   0  0  0  0  0  0  0  0  0  0  0  0
    4.6112   -3.3190    0.0000 C   0  0  0  0  0  0  0  0  0  0  0  0
    3.4584   -3.9905    0.0000 C   0  0  0  0  0  0  0  0  0  0  0  0
    2.3056   -3.3190    0.0000 C   0  0  0  0  0  0  0  0  0  0  0  0
    1.1528   -3.9905    0.0000 O   0  0  0  0  0  0  0  0  0  0  0  0
    0.0000   -3.3190    0.0000 C   0  0  0  0  0  0  0  0  0  0  0  0
    2.3056   -1.9889    0.0000 C   0  0  0  0  0  0  0  0  0  0  0  0
    1.1528   -1.3302    0.0000 O   0  0  0  0  0  0  0  0  0  0  0  0
    0.0000   -1.9889    0.0000 C   0  0  0  0  0  0  0  0  0  0  0  0
    3.4584   -1.3302    0.0000 C   0  0  0  0  0  0  0  0  0  0  0  0
   10.3625   -3.9905    0.0000 C   0  0  0  0  0  0  0  0  0  0  0  0
   11.5153   -3.3190    0.0000 C   0  0  0  0  0  0  0  0  0  0  0  0
   12.6681   -3.9905    0.0000 O   0  0  0  0  0  0  0  0  0  0  0  0
   11.5153   -1.9889    0.0000 O   0  0  0  0  0  0  0  0  0  0  0  0
  1  2  2  0  0  0  0
  1 21  1  0  0  0  0
  2  3  1  0  0  0  0
  3  4  2  0  0  0  0
  4  5  1  0  0  0  0
  5  6  1  0  0  0  0
  5 21  2  0  0  0  0
  6  7  1  0  0  0  0
  7  8  2  0  0  0  0
  7  9  1  0  0  0  0
  9 10  2  0  0  0  0
 10 11  1  0  0  0  0
 11 12  2  0  0  0  0
 11 20  1  0  0  0  0
 12 13  1  0  0  0  0
 13 14  2  0  0  0  0
 14 15  1  0  0  0  0
 14 17  1  0  0  0  0
 15 16  1  0  0  0  0
 17 18  1  0  0  0  0
 17 20  2  0  0  0  0
 18 19  1  0  0  0  0
 21 22  1  0  0  0  0
 22 23  1  0  0  0  0
 22 24  2  0  0  0  0
M  END
> <ID>
3299

> <Formula>
C18H17NO5

> <FW>
327.3313

> <DSSTox_CID>
3693

> <DSSTox_RID>
77152

> <DSSTox_GSID>
23693

> <DSSTox_FileID_Sort>
1835

> <TS_ChemName>
Tranilast

> <TS_ChemName_Synonyms>


> <TS_CASRN>
53902-12-8

> <CASRN_ChemName_Relationship>
primary

> <TS_Description>
single chemical compound

> <ChemNote>
stereochem

> <STRUCTURE_Shown>
tested chemical

> <STRUCTURE_Formula>
C18H17NO5

> <STRUCTURE_MW>
327.3313

> <STRUCTURE_ChemType>
defined organic

> <STRUCTURE_DefinedOrganicForm>
parent

> <STRUCTURE_IUPAC>
2-{[(2E)-3-(3,4-dimethoxyphenyl)prop-2-enoyl]amino}benzoic acid

> <STRUCTURE_SMILES>
COc1cc(ccc1OC)/C=C/C(=O)Nc2ccccc2C(=O)O

> <STRUCTURE_SMILES_Desalt>
COc1cc(ccc1OC)/C=C/C(=O)Nc2ccccc2C(=O)O

> <Substance_modify_yyyymmdd>
20080429

$$$$
