53910-25-1
ChemmineR-0914142331XD

 20 22  0  0  1  0  0  0  0  0  1 V2000
    4.2725   -3.7251    0.0000 N   0  0  0  0  0  0  0  0  0  0  0  0
    3.0471   -3.3085    0.0000 C   0  0  0  0  0  0  0  0  0  0  0  0
    3.0471   -2.0178    0.0000 C   0  0  0  0  0  0  0  0  0  0  0  0
    4.2725   -5.9471    0.0000 C   0  0  0  0  0  0  0  0  0  0  0  0
    4.2725   -1.6257    0.0000 N   0  0  0  0  0  0  0  0  0  0  0  0
    5.0158   -2.6795    0.0000 C   0  0  0  0  0  0  0  0  0  0  0  0
    2.0505   -4.1336    0.0000 N   0  0  0  0  0  0  0  0  0  0  0  0
    3.2513   -5.1711    0.0000 O   0  0  0  0  0  0  0  0  0  0  0  0
    3.8640   -7.1562    0.0000 C   0  0  0  0  0  0  0  0  0  0  0  0
    2.1893   -5.9308    0.0000 C   0  0  0  0  0  0  0  0  0  0  0  0
    2.0505   -1.2335    0.0000 C   0  0  0  0  0  0  0  0  0  0  0  0
    2.5733   -7.1480    0.0000 C   0  0  0  0  0  0  0  0  0  0  0  0
    0.7761   -3.8313    0.0000 C   0  0  0  0  0  0  0  0  0  0  0  0
    0.2369   -2.6795    0.0000 N   0  0  0  0  0  0  0  0  0  0  0  0
    2.9164   -0.2859    0.0000 H   0  0  0  0  0  0  0  0  0  0  0  0
    1.8135   -8.1691    0.0000 O   0  0  0  0  0  0  0  0  0  0  0  0
    0.7761   -1.5113    0.0000 C   0  0  0  0  0  0  0  0  0  0  0  0
    0.9640   -5.5060    0.0000 C   0  0  0  0  0  0  0  0  0  0  0  0
    0.0000   -6.3556    0.0000 O   0  0  0  0  0  0  0  0  0  0  0  0
    1.6747    0.0000    0.0000 O   0  0  0  0  0  0  0  0  0  0  0  0
  1  2  1  0  0  0  0
  4  1  1  1  0  0  0
  1  6  1  0  0  0  0
  2  3  2  0  0  0  0
  2  7  1  0  0  0  0
  3 11  1  0  0  0  0
  3  5  1  0  0  0  0
  4  8  1  0  0  0  0
  4  9  1  0  0  0  0
  5  6  2  0  0  0  0
  7 13  2  0  0  0  0
  8 10  1  0  0  0  0
  9 12  1  0  0  0  0
 10 18  1  1  0  0  0
 10 12  1  0  0  0  0
 11 15  1  6  0  0  0
 11 17  1  0  0  0  0
 11 20  1  1  0  0  0
 12 16  1  6  0  0  0
 13 14  1  0  0  0  0
 14 17  1  0  0  0  0
 18 19  1  0  0  0  0
M  END
> <ID>
3082

> <Formula>
C11H16N4O4

> <FW>
268.2691

> <DSSTox_CID>
3436

> <DSSTox_RID>
77027

> <DSSTox_GSID>
23436

> <DSSTox_FileID_Sort>
1711

> <TS_ChemName>
Pentostatin

> <TS_ChemName_Synonyms>


> <TS_CASRN>
53910-25-1

> <CASRN_ChemName_Relationship>
primary

> <TS_Description>
single chemical compound

> <ChemNote>
stereochem; tautomers

> <STRUCTURE_Shown>
tested chemical

> <STRUCTURE_Formula>
C11H16N4O4

> <STRUCTURE_MW>
268.2691

> <STRUCTURE_ChemType>
defined organic

> <STRUCTURE_DefinedOrganicForm>
parent

> <STRUCTURE_IUPAC>
(8R)-3-(2-deoxy-beta-D-erythro-pentofuranosyl)-3,6,7,8-tetrahydroimidazo[4,5-d][1,3]diazepin-8-ol

> <STRUCTURE_SMILES>
O[C@@H]3CNC=Nc2c3ncn2[C@H]1C[C@H](O)[C@@H](CO)O1

> <STRUCTURE_SMILES_Desalt>
O[C@@H]3CNC=Nc2c3ncn2[C@H]1C[C@H](O)[C@@H](CO)O1

> <Substance_modify_yyyymmdd>
20080429

$$$$
