54-62-6
ChemmineR-0914142331XD

 32 34  0  0  1  0  0  0  0  0  1 V2000
    2.0029   -1.1620    0.0000 N   0  0  0  0  0  0  0  0  0  0  0  0
    3.9906   -2.3087    0.0000 C   0  0  0  0  0  0  0  0  0  0  0  0
    2.0029   -3.4554    0.0000 N   0  0  0  0  0  0  0  0  0  0  0  0
    3.3331   -1.1620    0.0000 C   0  0  0  0  0  0  0  0  0  0  0  0
    3.3331   -3.4554    0.0000 C   0  0  0  0  0  0  0  0  0  0  0  0
    1.3302   -2.3087    0.0000 C   0  0  0  0  0  0  0  0  0  0  0  0
    5.3207   -2.3087    0.0000 N   0  0  0  0  0  0  0  0  0  0  0  0
   13.2866   -4.6174    0.0000 C   0  0  0  0  0  0  0  0  0  0  0  0
    3.9906   -4.6174    0.0000 N   0  0  0  0  0  0  0  0  0  0  0  0
   13.9593   -5.7641    0.0000 N   0  0  0  0  0  0  0  0  0  0  0  0
   13.9593   -8.0576    0.0000 C   0  0  0  0  0  0  0  0  0  0  0  0
   13.2866   -6.9109    0.0000 C   0  0  0  0  0  0  0  0  0  0  0  0
   11.9564   -4.6174    0.0000 C   0  0  0  0  0  0  0  0  0  0  0  0
    5.9935   -3.4554    0.0000 C   0  0  0  0  0  0  0  0  0  0  0  0
    3.9906    0.0000    0.0000 N   0  0  0  0  0  0  0  0  0  0  0  0
    9.9688   -8.0576    0.0000 C   0  0  0  0  0  0  0  0  0  0  0  0
   13.9593   -3.4554    0.0000 O   0  0  0  0  0  0  0  0  0  0  0  0
   15.2895   -8.0576    0.0000 O   0  0  0  0  0  0  0  0  0  0  0  0
    0.0000   -2.3087    0.0000 N   0  0  0  0  0  0  0  0  0  0  0  0
    7.9811   -4.6174    0.0000 N   0  0  0  0  0  0  0  0  0  0  0  0
    9.2960   -6.9109    0.0000 O   0  0  0  0  0  0  0  0  0  0  0  0
    5.3207   -4.6174    0.0000 C   0  0  0  0  0  0  0  0  0  0  0  0
   11.9564   -6.9109    0.0000 C   0  0  0  0  0  0  0  0  0  0  0  0
   11.2989   -5.7641    0.0000 C   0  0  0  0  0  0  0  0  0  0  0  0
   11.2989   -3.4554    0.0000 C   0  0  0  0  0  0  0  0  0  0  0  0
    7.3084   -3.4554    0.0000 C   0  0  0  0  0  0  0  0  0  0  0  0
    9.2960   -4.6174    0.0000 C   0  0  0  0  0  0  0  0  0  0  0  0
   11.2989   -8.0576    0.0000 C   0  0  0  0  0  0  0  0  0  0  0  0
   13.2866   -9.2043    0.0000 O   0  0  0  0  0  0  0  0  0  0  0  0
    9.2960   -9.2043    0.0000 O   0  0  0  0  0  0  0  0  0  0  0  0
    9.9688   -3.4554    0.0000 C   0  0  0  0  0  0  0  0  0  0  0  0
    9.9688   -5.7641    0.0000 C   0  0  0  0  0  0  0  0  0  0  0  0
  1  4  1  0  0  0  0
  1  6  2  0  0  0  0
  2  4  2  0  0  0  0
  2  7  1  0  0  0  0
  2  5  1  0  0  0  0
  3  6  1  0  0  0  0
  3  5  2  0  0  0  0
  4 15  1  0  0  0  0
  5  9  1  0  0  0  0
  6 19  1  0  0  0  0
  7 14  2  0  0  0  0
  8 13  1  0  0  0  0
  8 10  1  0  0  0  0
  8 17  2  0  0  0  0
  9 22  2  0  0  0  0
 12 10  1  6  0  0  0
 11 12  1  0  0  0  0
 11 18  2  0  0  0  0
 11 29  1  0  0  0  0
 12 23  1  0  0  0  0
 13 24  1  0  0  0  0
 13 25  2  0  0  0  0
 14 26  1  0  0  0  0
 14 22  1  0  0  0  0
 16 28  1  0  0  0  0
 16 21  2  0  0  0  0
 16 30  1  0  0  0  0
 20 26  1  0  0  0  0
 20 27  1  0  0  0  0
 23 28  1  0  0  0  0
 24 32  2  0  0  0  0
 25 31  1  0  0  0  0
 27 31  2  0  0  0  0
 27 32  1  0  0  0  0
M  END
> <ID>
2344

> <Formula>
C19H20N8O5

> <FW>
440.4127

> <DSSTox_CID>
2588

> <DSSTox_RID>
76646

> <DSSTox_GSID>
22588

> <DSSTox_FileID_Sort>
1330

> <TS_ChemName>
4-Aminofolic acid

> <TS_ChemName_Synonyms>
4-Aminofolic acid (Aminopterin)

> <TS_CASRN>
54-62-6

> <CASRN_ChemName_Relationship>
primary

> <TS_Description>
single chemical compound

> <ChemNote>
stereochem

> <STRUCTURE_Shown>
tested chemical

> <STRUCTURE_Formula>
C19H20N8O5

> <STRUCTURE_MW>
440.4127

> <STRUCTURE_ChemType>
defined organic

> <STRUCTURE_DefinedOrganicForm>
parent

> <STRUCTURE_IUPAC>
N-(4-{[(2,4-diaminopteridin-6-yl)methyl]amino}benzoyl)-L-glutamic acid

> <STRUCTURE_SMILES>
O=C(O)[C@H](CCC(=O)O)NC(=O)c1ccc(cc1)NCc2nc3c(nc2)nc(N)nc3N

> <STRUCTURE_SMILES_Desalt>
O=C(O)[C@H](CCC(=O)O)NC(=O)c1ccc(cc1)NCc2nc3c(nc2)nc(N)nc3N

> <Substance_modify_yyyymmdd>
20080429

$$$$
