54-80-8
ChemmineR-0914142331XD

 17 18  0  0  0  0  0  0  0  0  1 V2000
    0.6685   -1.1574    0.0000 C   0  0  0  0  0  0  0  0  0  0  0  0
    0.0000   -2.3048    0.0000 C   0  0  0  0  0  0  0  0  0  0  0  0
    0.6685   -3.4623    0.0000 C   0  0  0  0  0  0  0  0  0  0  0  0
    1.9955   -3.4623    0.0000 C   0  0  0  0  0  0  0  0  0  0  0  0
    2.6640   -2.3048    0.0000 C   0  0  0  0  0  0  0  0  0  0  0  0
    1.9955   -1.1574    0.0000 C   0  0  0  0  0  0  0  0  0  0  0  0
    3.9911   -2.3048    0.0000 C   0  0  0  0  0  0  0  0  0  0  0  0
    4.6596   -3.4623    0.0000 C   0  0  0  0  0  0  0  0  0  0  0  0
    3.9911   -4.6097    0.0000 C   0  0  0  0  0  0  0  0  0  0  0  0
    2.6640   -4.6097    0.0000 C   0  0  0  0  0  0  0  0  0  0  0  0
    5.9866   -3.4623    0.0000 C   0  0  0  0  0  0  0  0  0  0  0  0
    6.6551   -2.3048    0.0000 C   0  0  0  0  0  0  0  0  0  0  0  0
    7.9821   -2.3048    0.0000 N   0  0  0  0  0  0  0  0  0  0  0  0
    8.6506   -1.1574    0.0000 C   0  0  0  0  0  0  0  0  0  0  0  0
    7.9821    0.0000    0.0000 C   0  0  0  0  0  0  0  0  0  0  0  0
    9.9777   -1.1574    0.0000 C   0  0  0  0  0  0  0  0  0  0  0  0
    6.6551   -4.6097    0.0000 O   0  0  0  0  0  0  0  0  0  0  0  0
  1  2  2  0  0  0  0
  1  6  1  0  0  0  0
  2  3  1  0  0  0  0
  3  4  2  0  0  0  0
  4  5  1  0  0  0  0
  4 10  1  0  0  0  0
  5  6  2  0  0  0  0
  5  7  1  0  0  0  0
  7  8  2  0  0  0  0
  8  9  1  0  0  0  0
  8 11  1  0  0  0  0
  9 10  2  0  0  0  0
 11 12  1  0  0  0  0
 11 17  1  0  0  0  0
 12 13  1  0  0  0  0
 13 14  1  0  0  0  0
 14 15  1  0  0  0  0
 14 16  1  0  0  0  0
M  END
> <ID>
1147

> <Formula>
C15H19NO

> <FW>
229.3175

> <DSSTox_CID>
1193

> <DSSTox_RID>
76003

> <DSSTox_GSID>
21193

> <DSSTox_FileID_Sort>
687

> <TS_ChemName>
Pronethalol

> <TS_ChemName_Synonyms>


> <TS_CASRN>
54-80-8

> <CASRN_ChemName_Relationship>
primary

> <TS_Description>
single chemical compound

> <ChemNote>


> <STRUCTURE_Shown>
tested chemical

> <STRUCTURE_Formula>
C15H19NO

> <STRUCTURE_MW>
229.3175

> <STRUCTURE_ChemType>
defined organic

> <STRUCTURE_DefinedOrganicForm>
parent

> <STRUCTURE_IUPAC>
1-(naphthalen-2-yl)-2-(propan-2-ylamino)ethanol

> <STRUCTURE_SMILES>
CC(C)NCC(O)c1ccc2ccccc2c1

> <STRUCTURE_SMILES_Desalt>
CC(C)NCC(O)c1ccc2ccccc2c1

> <Substance_modify_yyyymmdd>
20080429

$$$$
