540-88-5
ChemmineR-0914142331XD

  8  7  0  0  0  0  0  0  0  0  1 V2000
    1.1522    0.0000    0.0000 O   0  0  0  0  0  0  0  0  0  0  0  0
    1.1522   -1.3319    0.0000 C   0  0  0  0  0  0  0  0  0  0  0  0
    2.3044   -1.9956    0.0000 O   0  0  0  0  0  0  0  0  0  0  0  0
    3.4566   -1.3319    0.0000 C   0  0  0  0  0  0  0  0  0  0  0  0
    2.7929   -0.1797    0.0000 C   0  0  0  0  0  0  0  0  0  0  0  0
    4.6088   -0.6683    0.0000 C   0  0  0  0  0  0  0  0  0  0  0  0
    4.1203   -2.4842    0.0000 C   0  0  0  0  0  0  0  0  0  0  0  0
    0.0000   -1.9956    0.0000 C   0  0  0  0  0  0  0  0  0  0  0  0
  1  2  2  0  0  0  0
  2  3  1  0  0  0  0
  2  8  1  0  0  0  0
  3  4  1  0  0  0  0
  4  5  1  0  0  0  0
  4  6  1  0  0  0  0
  4  7  1  0  0  0  0
M  END
> <ID>
1900

> <Formula>
C6H12O2

> <FW>
116.1583

> <DSSTox_CID>
2055

> <DSSTox_RID>
76472

> <DSSTox_GSID>
22055

> <DSSTox_FileID_Sort>
1156

> <TS_ChemName>
tert-Butyl acetate

> <TS_ChemName_Synonyms>


> <TS_CASRN>
540-88-5

> <CASRN_ChemName_Relationship>
primary

> <TS_Description>
single chemical compound

> <ChemNote>


> <STRUCTURE_Shown>
tested chemical

> <STRUCTURE_Formula>
C6H12O2

> <STRUCTURE_MW>
116.1583

> <STRUCTURE_ChemType>
defined organic

> <STRUCTURE_DefinedOrganicForm>
parent

> <STRUCTURE_IUPAC>
tert-butyl acetate

> <STRUCTURE_SMILES>
CC(=O)OC(C)(C)C

> <STRUCTURE_SMILES_Desalt>
CC(=O)OC(C)(C)C

> <Substance_modify_yyyymmdd>
20080429

$$$$
