540-51-2
ChemmineR-0914142331XD

  4  3  0  0  0  0  0  0  0  0  1 V2000
    0.0000    0.0000    0.0000 O    0  0  0  0  0  0  0  0  0  0  0  0
    1.1513   -0.6638    0.0000 C    0  0  0  0  0  0  0  0  0  0  0  0
    2.3061    0.0000    0.0000 C    0  0  0  0  0  0  0  0  0  0  0  0
    3.4575   -0.6638    0.0000 Br   0  0  0  0  0  0  0  0  0  0  0  0
  1  2  1  0  0  0  0
  2  3  1  0  0  0  0
  3  4  1  0  0  0  0
M  END
> <ID>
196

> <Formula>
C2H5BrO

> <FW>
124.9645

> <DSSTox_CID>
200

> <DSSTox_RID>
75429

> <DSSTox_GSID>
20200

> <DSSTox_FileID_Sort>
113

> <TS_ChemName>
2-Bromo-1-ethanol

> <TS_ChemName_Synonyms>
2-Bromo-1-ethanol (2-Bromoethanol) (Bromoethanol)

> <TS_CASRN>
540-51-2

> <CASRN_ChemName_Relationship>
primary

> <TS_Description>
single chemical compound

> <ChemNote>


> <STRUCTURE_Shown>
tested chemical

> <STRUCTURE_Formula>
C2H5BrO

> <STRUCTURE_MW>
124.9645

> <STRUCTURE_ChemType>
defined organic

> <STRUCTURE_DefinedOrganicForm>
parent

> <STRUCTURE_IUPAC>
2-bromoethanol

> <STRUCTURE_SMILES>
BrCCO

> <STRUCTURE_SMILES_Desalt>
BrCCO

> <Substance_modify_yyyymmdd>
20080429

$$$$
