540-72-7
ChemmineR-0914142331XD

  4  2  0  0  0  0  0  0  0  0  2 V2000
      1.33      0.00      0.00 C    0  0  0  0  0  0  0  0  0  0  0  0
      2.66      0.00      0.00 S    0  5  0  0  0  0  0  0  0  0  0  0
      0.00      0.00      0.00 N    0  0  0  0  0  0  0  0  0  0  0  0
      1.33     -1.33      0.00 Na   0  3  0  0  0  0  0  0  0  0  0  0
  1  2  1  0  0  0  0
  1  3  3  0  0  0  0
M  END
> <ID>
1290

> <Formula>
CNNaS

> <FW>
81.0722 (58.0829+22.9892)

> <DSSTox_CID>
1343

> <DSSTox_RID>
76097

> <DSSTox_GSID>
21343

> <DSSTox_FileID_Sort>
781

> <TS_ChemName>
Sodium thiocyanate

> <TS_ChemName_Synonyms>
Sodium thiocyanate (Thiocyanic acid, sodium salt)

> <TS_CASRN>
540-72-7

> <CASRN_ChemName_Relationship>
primary

> <TS_Description>
single chemical compound

> <ChemNote>
parent [463-56-9]

> <STRUCTURE_Shown>
tested chemical

> <STRUCTURE_Formula>
CNNaS

> <STRUCTURE_MW>
81.0722

> <STRUCTURE_ChemType>
defined organic

> <STRUCTURE_DefinedOrganicForm>
salt

> <STRUCTURE_IUPAC>
sodium thiocyanate

> <STRUCTURE_SMILES>
[Na+].[S-]C#N

> <STRUCTURE_SMILES_Desalt>
N#CS

> <Substance_modify_yyyymmdd>
20080429

$$$$
