54024-22-5
ChemmineR-0914142331XD

 27 30  0  0  1  0  0  0  0  0  1 V2000
    5.7441   -2.0033    0.0000 C   0  0  0  0  0  0  0  0  0  0  0  0
    3.4464   -2.0033    0.0000 C   0  0  0  0  0  0  0  0  0  0  0  0
    4.5668   -4.0161    0.0000 C   0  0  0  0  0  0  0  0  0  0  0  0
    3.4464   -3.3515    0.0000 C   0  0  0  0  0  0  0  0  0  0  0  0
    5.7441   -3.3515    0.0000 C   0  0  0  0  0  0  0  0  0  0  0  0
    4.5668   -1.3672    0.0000 C   0  0  0  0  0  0  0  0  0  0  0  0
    6.9878   -1.5855    0.0000 C   0  0  0  0  0  0  0  0  0  0  0  0
    2.2976   -4.0161    0.0000 C   0  0  0  0  0  0  0  0  0  0  0  0
    2.2976   -5.3453    0.0000 C   0  0  0  0  0  0  0  0  0  0  0  0
    8.2601   -1.1868    0.0000 C   0  0  0  0  0  0  0  0  0  0  0  0
    4.5668   -5.3453    0.0000 C   0  0  0  0  0  0  0  0  0  0  0  0
    6.9878   -3.7692    0.0000 C   0  0  0  0  0  0  0  0  0  0  0  0
    9.4943   -0.7880    0.0000 C   0  0  0  0  0  0  0  0  0  0  0  0
    2.2786   -1.3292    0.0000 C   0  0  0  0  0  0  0  0  0  0  0  0
    7.7948   -2.6679    0.0000 C   0  0  0  0  0  0  0  0  0  0  0  0
    3.4464   -6.0004    0.0000 C   0  0  0  0  0  0  0  0  0  0  0  0
    1.1393   -6.0004    0.0000 C   0  0  0  0  0  0  0  0  0  0  0  0
    6.9878   -0.2469    0.0000 O   0  0  0  0  0  0  0  0  0  0  0  0
    5.7441   -0.6741    0.0000 C   0  0  0  0  0  0  0  0  0  0  0  0
    1.1393   -3.3515    0.0000 C   0  0  0  0  0  0  0  0  0  0  0  0
    0.0000   -5.3453    0.0000 C   0  0  0  0  0  0  0  0  0  0  0  0
    4.5668    0.0000    0.0000 C   0  0  0  0  0  0  0  0  0  0  0  0
    0.0000   -4.0161    0.0000 C   0  0  0  0  0  0  0  0  0  0  0  0
    2.2976   -2.6679    0.0000 H   0  0  0  0  0  0  0  0  0  0  0  0
    4.5668   -2.6774    0.0000 H   0  0  0  0  0  0  0  0  0  0  0  0
    3.4464   -4.6807    0.0000 H   0  0  0  0  0  0  0  0  0  0  0  0
    5.7441   -4.6807    0.0000 H   0  0  0  0  0  0  0  0  0  0  0  0
  1  5  1  0  0  0  0
  1  6  1  0  0  0  0
  1  7  1  0  0  0  0
  1 19  1  1  0  0  0
  2  6  1  0  0  0  0
  2  4  1  0  0  0  0
  2 14  2  0  0  0  0
  3  5  1  0  0  0  0
  3 11  1  0  0  0  0
  3  4  1  0  0  0  0
  3 25  1  1  0  0  0
  4  8  1  0  0  0  0
  4 26  1  6  0  0  0
  5 12  1  0  0  0  0
  5 27  1  6  0  0  0
  7 10  1  6  0  0  0
  7 15  1  0  0  0  0
  7 18  1  0  0  0  0
  8  9  1  0  0  0  0
  8 20  1  0  0  0  0
  8 24  1  1  0  0  0
  9 17  2  0  0  0  0
  9 16  1  0  0  0  0
 10 13  3  0  0  0  0
 11 16  1  0  0  0  0
 12 15  1  0  0  0  0
 17 21  1  0  0  0  0
 19 22  1  0  0  0  0
 20 23  1  0  0  0  0
 21 23  1  0  0  0  0
M  END
> <ID>
2613

> <Formula>
C22H30O

> <FW>
310.473

> <DSSTox_CID>
2898

> <DSSTox_RID>
76779

> <DSSTox_GSID>
22898

> <DSSTox_FileID_Sort>
1463

> <TS_ChemName>
Desogestrel

> <TS_ChemName_Synonyms>


> <TS_CASRN>
54024-22-5

> <CASRN_ChemName_Relationship>
primary

> <TS_Description>
single chemical compound

> <ChemNote>
stereochem

> <STRUCTURE_Shown>
tested chemical

> <STRUCTURE_Formula>
C22H30O

> <STRUCTURE_MW>
310.473

> <STRUCTURE_ChemType>
defined organic

> <STRUCTURE_DefinedOrganicForm>
parent

> <STRUCTURE_IUPAC>
(8S,9S,10R,13S,14S,17R)-13-ethyl-17-ethynyl-11-methylidene-2,3,6,7,8,9,10,11,12,13,14,15,16,17-tetradecahydro-1H-cyclopenta[a]phenanthren-17-ol

> <STRUCTURE_SMILES>
C=C3C[C@@]1(CC)[C@@H](CC[C@@]1(O)C#C)[C@@H]4CCC2=CCCC[C@@H]2[C@@H]34

> <STRUCTURE_SMILES_Desalt>
C=C3C[C@@]1(CC)[C@@H](CC[C@@]1(O)C#C)[C@@H]4CCC2=CCCC[C@@H]2[C@@H]34

> <Substance_modify_yyyymmdd>
20080429

$$$$
