5407-04-5
ChemmineR-0914142331XD

  8  6  0  0  0  0  0  0  0  0  1 V2000
    5.7637   -1.9942    0.0000 C    0  0  0  0  0  0  0  0  0  0  0  0
    4.6110   -1.3314    0.0000 N    0  0  0  0  0  0  0  0  0  0  0  0
    3.4582   -1.9942    0.0000 C    0  0  0  0  0  0  0  0  0  0  0  0
    2.3055   -1.3314    0.0000 C    0  0  0  0  0  0  0  0  0  0  0  0
    1.1527   -1.9942    0.0000 C    0  0  0  0  0  0  0  0  0  0  0  0
    0.0000   -1.3314    0.0000 Cl   0  0  0  0  0  0  0  0  0  0  0  0
    4.6110    0.0000    0.0000 C    0  0  0  0  0  0  0  0  0  0  0  0
    3.4582   -2.6052    0.0000 Cl   0  0  0  0  0  0  0  0  0  0  0  0
  1  2  1  0  0  0  0
  2  3  1  0  0  0  0
  2  7  1  0  0  0  0
  3  4  1  0  0  0  0
  4  5  1  0  0  0  0
  5  6  1  0  0  0  0
M  END
> <ID>
2065

> <Formula>
C5H13Cl2N

> <FW>
158.0694 (121.6085+36.4609)

> <DSSTox_CID>
2227

> <DSSTox_RID>
76526

> <DSSTox_GSID>
22227

> <DSSTox_FileID_Sort>
1210

> <TS_ChemName>
Dimethylaminopropyl chloride hydrochloride

> <TS_ChemName_Synonyms>
Dimethylaminopropyl chloride, hydrochloride

> <TS_CASRN>
5407-04-5

> <CASRN_ChemName_Relationship>
primary

> <TS_Description>
single chemical compound

> <ChemNote>
parent [109-54-6]

> <STRUCTURE_Shown>
tested chemical

> <STRUCTURE_Formula>
C5H13Cl2N

> <STRUCTURE_MW>
158.0694

> <STRUCTURE_ChemType>
defined organic

> <STRUCTURE_DefinedOrganicForm>
complex

> <STRUCTURE_IUPAC>
3-chloro-N,N-dimethylpropan-1-amine hydrochloride (1:1)

> <STRUCTURE_SMILES>
Cl.ClCCCN(C)C

> <STRUCTURE_SMILES_Desalt>
ClCCCN(C)C

> <Substance_modify_yyyymmdd>
20080429

$$$$
