54143-55-4
ChemmineR-0914142331XD

 28 29  0  0  0  0  0  0  0  0  1 V2000
    5.7603   -5.8017    0.0000 C   0  0  0  0  0  0  0  0  0  0  0  0
    4.5999   -5.1387    0.0000 C   0  0  0  0  0  0  0  0  0  0  0  0
    3.4534   -5.8017    0.0000 O   0  0  0  0  0  0  0  0  0  0  0  0
    2.3069   -5.1387    0.0000 C   0  0  0  0  0  0  0  0  0  0  0  0
    1.1465   -5.8017    0.0000 C   0  0  0  0  0  0  0  0  0  0  0  0
    0.0000   -6.4648    0.0000 F   0  0  0  0  0  0  0  0  0  0  0  0
    0.4835   -4.6414    0.0000 F   0  0  0  0  0  0  0  0  0  0  0  0
    1.8096   -6.9482    0.0000 F   0  0  0  0  0  0  0  0  0  0  0  0
    4.5999   -3.7987    0.0000 C   0  0  0  0  0  0  0  0  0  0  0  0
    5.7603   -3.1357    0.0000 C   0  0  0  0  0  0  0  0  0  0  0  0
    6.9068   -3.7987    0.0000 C   0  0  0  0  0  0  0  0  0  0  0  0
    8.0533   -3.1357    0.0000 O   0  0  0  0  0  0  0  0  0  0  0  0
    8.0533   -1.8096    0.0000 C   0  0  0  0  0  0  0  0  0  0  0  0
    9.2137   -1.1465    0.0000 C   0  0  0  0  0  0  0  0  0  0  0  0
   10.3602   -0.4835    0.0000 F   0  0  0  0  0  0  0  0  0  0  0  0
    9.8767   -2.2931    0.0000 F   0  0  0  0  0  0  0  0  0  0  0  0
    8.5506    0.0000    0.0000 F   0  0  0  0  0  0  0  0  0  0  0  0
    6.9068   -5.1387    0.0000 C   0  0  0  0  0  0  0  0  0  0  0  0
    8.0533   -5.8017    0.0000 C   0  0  0  0  0  0  0  0  0  0  0  0
    8.0533   -7.1278    0.0000 O   0  0  0  0  0  0  0  0  0  0  0  0
    9.2137   -5.1387    0.0000 N   0  0  0  0  0  0  0  0  0  0  0  0
   10.3602   -5.8017    0.0000 C   0  0  0  0  0  0  0  0  0  0  0  0
   11.5067   -5.1387    0.0000 C   0  0  0  0  0  0  0  0  0  0  0  0
   11.5067   -3.7987    0.0000 C   0  0  0  0  0  0  0  0  0  0  0  0
   12.6671   -3.1357    0.0000 C   0  0  0  0  0  0  0  0  0  0  0  0
   13.8136   -3.7987    0.0000 C   0  0  0  0  0  0  0  0  0  0  0  0
   13.8136   -5.1387    0.0000 C   0  0  0  0  0  0  0  0  0  0  0  0
   12.6671   -5.8017    0.0000 N   0  0  0  0  0  0  0  0  0  0  0  0
  1  2  2  0  0  0  0
  1 18  1  0  0  0  0
  2  3  1  0  0  0  0
  2  9  1  0  0  0  0
  3  4  1  0  0  0  0
  4  5  1  0  0  0  0
  5  6  1  0  0  0  0
  5  7  1  0  0  0  0
  5  8  1  0  0  0  0
  9 10  2  0  0  0  0
 10 11  1  0  0  0  0
 11 12  1  0  0  0  0
 11 18  2  0  0  0  0
 12 13  1  0  0  0  0
 13 14  1  0  0  0  0
 14 15  1  0  0  0  0
 14 16  1  0  0  0  0
 14 17  1  0  0  0  0
 18 19  1  0  0  0  0
 19 20  2  0  0  0  0
 19 21  1  0  0  0  0
 21 22  1  0  0  0  0
 22 23  1  0  0  0  0
 23 24  1  0  0  0  0
 23 28  1  0  0  0  0
 24 25  1  0  0  0  0
 25 26  1  0  0  0  0
 26 27  1  0  0  0  0
 27 28  1  0  0  0  0
M  END
> <ID>
2746

> <Formula>
C17H20F6N2O3

> <FW>
414.3427

> <DSSTox_CID>
3054

> <DSSTox_RID>
76854

> <DSSTox_GSID>
23054

> <DSSTox_FileID_Sort>
1538

> <TS_ChemName>
Flecainide

> <TS_ChemName_Synonyms>


> <TS_CASRN>
54143-55-4

> <CASRN_ChemName_Relationship>
primary

> <TS_Description>
single chemical compound

> <ChemNote>


> <STRUCTURE_Shown>
tested chemical

> <STRUCTURE_Formula>
C17H20F6N2O3

> <STRUCTURE_MW>
414.3427

> <STRUCTURE_ChemType>
defined organic

> <STRUCTURE_DefinedOrganicForm>
parent

> <STRUCTURE_IUPAC>
N-(piperidin-2-ylmethyl)-2,5-bis(2,2,2-trifluoroethoxy)benzamide

> <STRUCTURE_SMILES>
FC(F)(F)COc2cc(C(=O)NCC1CCCCN1)c(OCC(F)(F)F)cc2

> <STRUCTURE_SMILES_Desalt>
FC(F)(F)COc2cc(C(=O)NCC1CCCCN1)c(OCC(F)(F)F)cc2

> <Substance_modify_yyyymmdd>
20080429

$$$$
