542-56-3
ChemmineR-0914142331XD

  7  6  0  0  0  0  0  0  0  0  1 V2000
    5.7637   -1.9942    0.0000 C   0  0  0  0  0  0  0  0  0  0  0  0
    4.6110   -1.3314    0.0000 C   0  0  0  0  0  0  0  0  0  0  0  0
    3.4582   -1.9942    0.0000 C   0  0  0  0  0  0  0  0  0  0  0  0
    2.3055   -1.3314    0.0000 O   0  0  0  0  0  0  0  0  0  0  0  0
    1.1527   -1.9942    0.0000 N   0  0  0  0  0  0  0  0  0  0  0  0
    0.0000   -1.3314    0.0000 O   0  0  0  0  0  0  0  0  0  0  0  0
    4.6110    0.0000    0.0000 C   0  0  0  0  0  0  0  0  0  0  0  0
  1  2  1  0  0  0  0
  2  3  1  0  0  0  0
  2  7  1  0  0  0  0
  3  4  1  0  0  0  0
  4  5  1  0  0  0  0
  5  6  2  0  0  0  0
M  END
> <ID>
720

> <Formula>
C4H9NO2

> <FW>
103.1198

> <DSSTox_CID>
750

> <DSSTox_RID>
75768

> <DSSTox_GSID>
20750

> <DSSTox_FileID_Sort>
452

> <TS_ChemName>
Isobutyl nitrite

> <TS_ChemName_Synonyms>


> <TS_CASRN>
542-56-3

> <CASRN_ChemName_Relationship>
primary

> <TS_Description>
single chemical compound

> <ChemNote>


> <STRUCTURE_Shown>
tested chemical

> <STRUCTURE_Formula>
C4H9NO2

> <STRUCTURE_MW>
103.1198

> <STRUCTURE_ChemType>
defined organic

> <STRUCTURE_DefinedOrganicForm>
parent

> <STRUCTURE_IUPAC>
2-methylpropyl nitrite

> <STRUCTURE_SMILES>
CC(C)CON=O

> <STRUCTURE_SMILES_Desalt>
CC(C)CON=O

> <Substance_modify_yyyymmdd>
20080429

$$$$
