54910-89-3
ChemmineR-0914142331XD

 22 23  0  0  0  0  0  0  0  0  1 V2000
    2.3013   -2.6641    0.0000 C   0  0  0  0  0  0  0  0  0  0  0  0
    1.1506   -1.9903    0.0000 C   0  0  0  0  0  0  0  0  0  0  0  0
    0.0000   -1.3269    0.0000 F   0  0  0  0  0  0  0  0  0  0  0  0
    1.8141   -0.8397    0.0000 F   0  0  0  0  0  0  0  0  0  0  0  0
    0.4872   -3.1513    0.0000 F   0  0  0  0  0  0  0  0  0  0  0  0
    3.4519   -1.9903    0.0000 C   0  0  0  0  0  0  0  0  0  0  0  0
    4.6026   -2.6641    0.0000 C   0  0  0  0  0  0  0  0  0  0  0  0
    4.6026   -3.9910    0.0000 C   0  0  0  0  0  0  0  0  0  0  0  0
    5.7636   -4.6544    0.0000 O   0  0  0  0  0  0  0  0  0  0  0  0
    6.9142   -3.9910    0.0000 C   0  0  0  0  0  0  0  0  0  0  0  0
    8.0649   -4.6544    0.0000 C   0  0  0  0  0  0  0  0  0  0  0  0
    9.2155   -3.9910    0.0000 C   0  0  0  0  0  0  0  0  0  0  0  0
    9.2155   -2.6641    0.0000 N   0  0  0  0  0  0  0  0  0  0  0  0
   10.3662   -1.9903    0.0000 C   0  0  0  0  0  0  0  0  0  0  0  0
    6.9142   -2.6641    0.0000 C   0  0  0  0  0  0  0  0  0  0  0  0
    5.7636   -1.9903    0.0000 C   0  0  0  0  0  0  0  0  0  0  0  0
    5.7636   -0.6634    0.0000 C   0  0  0  0  0  0  0  0  0  0  0  0
    6.9142    0.0000    0.0000 C   0  0  0  0  0  0  0  0  0  0  0  0
    8.0649   -0.6634    0.0000 C   0  0  0  0  0  0  0  0  0  0  0  0
    8.0649   -1.9903    0.0000 C   0  0  0  0  0  0  0  0  0  0  0  0
    3.4519   -4.6544    0.0000 C   0  0  0  0  0  0  0  0  0  0  0  0
    2.3013   -3.9910    0.0000 C   0  0  0  0  0  0  0  0  0  0  0  0
  1  2  1  0  0  0  0
  1  6  2  0  0  0  0
  1 22  1  0  0  0  0
  2  3  1  0  0  0  0
  2  4  1  0  0  0  0
  2  5  1  0  0  0  0
  6  7  1  0  0  0  0
  7  8  2  0  0  0  0
  8  9  1  0  0  0  0
  8 21  1  0  0  0  0
  9 10  1  0  0  0  0
 10 11  1  0  0  0  0
 10 15  1  0  0  0  0
 11 12  1  0  0  0  0
 12 13  1  0  0  0  0
 13 14  1  0  0  0  0
 15 16  2  0  0  0  0
 15 20  1  0  0  0  0
 16 17  1  0  0  0  0
 17 18  2  0  0  0  0
 18 19  1  0  0  0  0
 19 20  2  0  0  0  0
 21 22  2  0  0  0  0
M  END
> <ID>
2758

> <Formula>
C17H18F3NO

> <FW>
309.3261

> <DSSTox_CID>
3067

> <DSSTox_RID>
76861

> <DSSTox_GSID>
23067

> <DSSTox_FileID_Sort>
1545

> <TS_ChemName>
Fluoxetine

> <TS_ChemName_Synonyms>


> <TS_CASRN>
54910-89-3

> <CASRN_ChemName_Relationship>
primary

> <TS_Description>
single chemical compound

> <ChemNote>


> <STRUCTURE_Shown>
tested chemical

> <STRUCTURE_Formula>
C17H18F3NO

> <STRUCTURE_MW>
309.3261

> <STRUCTURE_ChemType>
defined organic

> <STRUCTURE_DefinedOrganicForm>
parent

> <STRUCTURE_IUPAC>
N-methyl-3-phenyl-3-[4-(trifluoromethyl)phenoxy]propan-1-amine

> <STRUCTURE_SMILES>
FC(F)(F)c2ccc(OC(CCNC)c1ccccc1)cc2

> <STRUCTURE_SMILES_Desalt>
FC(F)(F)c2ccc(OC(CCNC)c1ccccc1)cc2

> <Substance_modify_yyyymmdd>
20080429

$$$$
