55-38-9
ChemmineR-0914142331XD

 16 16  0  0  0  0  0  0  0  0  1 V2000
    7.5738   -3.4552    0.0000 S   0  0  0  0  0  0  0  0  0  0  0  0
    6.9104   -2.3035    0.0000 P   0  0  0  0  0  0  0  0  0  0  0  0
    5.7587   -2.9669    0.0000 O   0  0  0  0  0  0  0  0  0  0  0  0
    4.6070   -2.3035    0.0000 C   0  0  0  0  0  0  0  0  0  0  0  0
    3.4552   -2.9669    0.0000 C   0  0  0  0  0  0  0  0  0  0  0  0
    2.3035   -2.3035    0.0000 C   0  0  0  0  0  0  0  0  0  0  0  0
    2.3035   -0.9767    0.0000 C   0  0  0  0  0  0  0  0  0  0  0  0
    3.4552   -0.3041    0.0000 C   0  0  0  0  0  0  0  0  0  0  0  0
    4.6070   -0.9767    0.0000 C   0  0  0  0  0  0  0  0  0  0  0  0
    1.1517   -0.3041    0.0000 S   0  0  0  0  0  0  0  0  0  0  0  0
    0.0000   -0.9767    0.0000 C   0  0  0  0  0  0  0  0  0  0  0  0
    1.1517   -2.9669    0.0000 C   0  0  0  0  0  0  0  0  0  0  0  0
    6.2470   -1.1517    0.0000 O   0  0  0  0  0  0  0  0  0  0  0  0
    6.9104    0.0000    0.0000 C   0  0  0  0  0  0  0  0  0  0  0  0
    8.0622   -1.6401    0.0000 O   0  0  0  0  0  0  0  0  0  0  0  0
    9.2139   -2.3035    0.0000 C   0  0  0  0  0  0  0  0  0  0  0  0
  1  2  2  0  0  0  0
  2  3  1  0  0  0  0
  2 13  1  0  0  0  0
  2 15  1  0  0  0  0
  3  4  1  0  0  0  0
  4  5  2  0  0  0  0
  4  9  1  0  0  0  0
  5  6  1  0  0  0  0
  6  7  2  0  0  0  0
  6 12  1  0  0  0  0
  7  8  1  0  0  0  0
  7 10  1  0  0  0  0
  8  9  2  0  0  0  0
 10 11  1  0  0  0  0
 13 14  1  0  0  0  0
 15 16  1  0  0  0  0
M  END
> <ID>
595

> <Formula>
C10H15O3PS2

> <FW>
278.3281

> <DSSTox_CID>
620

> <DSSTox_RID>
75695

> <DSSTox_GSID>
20620

> <DSSTox_FileID_Sort>
379

> <TS_ChemName>
Fenthion

> <TS_ChemName_Synonyms>
Fenthion (Baytex)

> <TS_CASRN>
55-38-9

> <CASRN_ChemName_Relationship>
primary

> <TS_Description>
single chemical compound

> <ChemNote>


> <STRUCTURE_Shown>
tested chemical

> <STRUCTURE_Formula>
C10H15O3PS2

> <STRUCTURE_MW>
278.3281

> <STRUCTURE_ChemType>
defined organic

> <STRUCTURE_DefinedOrganicForm>
parent

> <STRUCTURE_IUPAC>
O,O-dimethyl O-[3-methyl-4-(methylsulfanyl)phenyl] phosphorothioate

> <STRUCTURE_SMILES>
Cc1cc(ccc1SC)OP(=S)(OC)OC

> <STRUCTURE_SMILES_Desalt>
Cc1cc(ccc1SC)OP(=S)(OC)OC

> <Substance_modify_yyyymmdd>
20080429

$$$$
