55079-83-9
ChemmineR-0914142331XD

 24 24  0  0  0  0  0  0  0  0  1 V2000
    2.6643   -4.6113    0.0000 C   0  0  0  0  0  0  0  0  0  0  0  0
    1.9909   -5.7677    0.0000 C   0  0  0  0  0  0  0  0  0  0  0  0
    1.9909   -3.4694    0.0000 C   0  0  0  0  0  0  0  0  0  0  0  0
    0.6588   -3.4694    0.0000 O   0  0  0  0  0  0  0  0  0  0  0  0
    0.0000   -2.3276    0.0000 C   0  0  0  0  0  0  0  0  0  0  0  0
    2.6643   -2.3276    0.0000 C   0  0  0  0  0  0  0  0  0  0  0  0
    3.9964   -2.3276    0.0000 C   0  0  0  0  0  0  0  0  0  0  0  0
    4.6552   -1.1565    0.0000 C   0  0  0  0  0  0  0  0  0  0  0  0
    4.6552   -3.4694    0.0000 C   0  0  0  0  0  0  0  0  0  0  0  0
    5.9873   -3.4694    0.0000 C   0  0  0  0  0  0  0  0  0  0  0  0
    6.6607   -4.6113    0.0000 C   0  0  0  0  0  0  0  0  0  0  0  0
    7.9782   -4.6113    0.0000 C   0  0  0  0  0  0  0  0  0  0  0  0
    8.6369   -5.7677    0.0000 C   0  0  0  0  0  0  0  0  0  0  0  0
    8.6369   -3.4694    0.0000 C   0  0  0  0  0  0  0  0  0  0  0  0
    9.9691   -3.4694    0.0000 C   0  0  0  0  0  0  0  0  0  0  0  0
   10.6278   -2.3276    0.0000 C   0  0  0  0  0  0  0  0  0  0  0  0
   11.9746   -2.3276    0.0000 C   0  0  0  0  0  0  0  0  0  0  0  0
   12.6480   -3.4694    0.0000 C   0  0  0  0  0  0  0  0  0  0  0  0
   12.6480   -1.1565    0.0000 C   0  0  0  0  0  0  0  0  0  0  0  0
   13.9801   -1.1565    0.0000 C   0  0  0  0  0  0  0  0  0  0  0  0
   14.6389    0.0000    0.0000 O   0  0  0  0  0  0  0  0  0  0  0  0
   14.6389   -2.3276    0.0000 O   0  0  0  0  0  0  0  0  0  0  0  0
    3.9964   -4.6113    0.0000 C   0  0  0  0  0  0  0  0  0  0  0  0
    4.6552   -5.7677    0.0000 C   0  0  0  0  0  0  0  0  0  0  0  0
  1  2  1  0  0  0  0
  1  3  2  0  0  0  0
  1 23  1  0  0  0  0
  3  4  1  0  0  0  0
  3  6  1  0  0  0  0
  4  5  1  0  0  0  0
  6  7  2  0  0  0  0
  7  8  1  0  0  0  0
  7  9  1  0  0  0  0
  9 10  1  0  0  0  0
  9 23  2  0  0  0  0
 10 11  2  0  0  0  0
 11 12  1  0  0  0  0
 12 13  1  0  0  0  0
 12 14  2  0  0  0  0
 14 15  1  0  0  0  0
 15 16  2  0  0  0  0
 16 17  1  0  0  0  0
 17 18  1  0  0  0  0
 17 19  2  0  0  0  0
 19 20  1  0  0  0  0
 20 21  1  0  0  0  0
 20 22  2  0  0  0  0
 23 24  1  0  0  0  0
M  END
> <ID>
2315

> <Formula>
C21H26O3

> <FW>
326.4293

> <DSSTox_CID>
2553

> <DSSTox_RID>
76624

> <DSSTox_GSID>
22553

> <DSSTox_FileID_Sort>
1308

> <TS_ChemName>
Acitretin

> <TS_ChemName_Synonyms>
Acitretin (Etretin)

> <TS_CASRN>
55079-83-9

> <CASRN_ChemName_Relationship>
primary

> <TS_Description>
single chemical compound

> <ChemNote>
stereochem

> <STRUCTURE_Shown>
tested chemical

> <STRUCTURE_Formula>
C21H26O3

> <STRUCTURE_MW>
326.4293

> <STRUCTURE_ChemType>
defined organic

> <STRUCTURE_DefinedOrganicForm>
parent

> <STRUCTURE_IUPAC>
(2E,4E,6E,8E)-9-(4-methoxy-2,3,6-trimethylphenyl)-3,7-dimethylnona-2,4,6,8-tetraenoic acid

> <STRUCTURE_SMILES>
Cc1c(C)c(/C=CC(\C)=C\C=C\C(\C)=C\C(=O)O)c(C)cc1OC

> <STRUCTURE_SMILES_Desalt>
Cc1c(C)c(/C=CC(\C)=C\C=C\C(\C)=C\C(=O)O)c(C)cc1OC

> <Substance_modify_yyyymmdd>
20080429

$$$$
