55142-85-3
ChemmineR-0914142331XD

 17 19  0  0  0  0  0  0  0  0  1 V2000
    0.3443   -0.3443    0.0000 C    0  0  0  0  0  0  0  0  0  0  0  0
    1.6331    0.0000    0.0000 C    0  0  0  0  0  0  0  0  0  0  0  0
    2.5689   -0.9357    0.0000 C    0  0  0  0  0  0  0  0  0  0  0  0
    2.2246   -2.2246    0.0000 C    0  0  0  0  0  0  0  0  0  0  0  0
    3.1692   -3.1604    0.0000 C    0  0  0  0  0  0  0  0  0  0  0  0
    4.4492   -2.8161    0.0000 N    0  0  0  0  0  0  0  0  0  0  0  0
    5.3938   -3.7606    0.0000 C    0  0  0  0  0  0  0  0  0  0  0  0
    6.6738   -3.4164    0.0000 C    0  0  0  0  0  0  0  0  0  0  0  0
    7.0181   -2.1275    0.0000 C    0  0  0  0  0  0  0  0  0  0  0  0
    6.0824   -1.1918    0.0000 C    0  0  0  0  0  0  0  0  0  0  0  0
    4.7935   -1.5360    0.0000 C    0  0  0  0  0  0  0  0  0  0  0  0
    8.3511   -2.0569    0.0000 S    0  0  0  0  0  0  0  0  0  0  0  0
    8.8278   -3.3016    0.0000 C    0  0  0  0  0  0  0  0  0  0  0  0
    7.7949   -4.1402    0.0000 C    0  0  0  0  0  0  0  0  0  0  0  0
    0.9446   -2.5689    0.0000 C    0  0  0  0  0  0  0  0  0  0  0  0
    0.6003   -3.8489    0.0000 Cl   0  0  0  0  0  0  0  0  0  0  0  0
    0.0000   -1.6243    0.0000 C    0  0  0  0  0  0  0  0  0  0  0  0
  1  2  2  0  0  0  0
  1 17  1  0  0  0  0
  2  3  1  0  0  0  0
  3  4  2  0  0  0  0
  4  5  1  0  0  0  0
  4 15  1  0  0  0  0
  5  6  1  0  0  0  0
  6  7  1  0  0  0  0
  6 11  1  0  0  0  0
  7  8  1  0  0  0  0
  8  9  2  0  0  0  0
  8 14  1  0  0  0  0
  9 10  1  0  0  0  0
  9 12  1  0  0  0  0
 10 11  1  0  0  0  0
 12 13  1  0  0  0  0
 13 14  2  0  0  0  0
 15 16  1  0  0  0  0
 15 17  2  0  0  0  0
M  END
> <ID>
3277

> <Formula>
C14H14ClNS

> <FW>
263.7857

> <DSSTox_CID>
3669

> <DSSTox_RID>
77136

> <DSSTox_GSID>
23669

> <DSSTox_FileID_Sort>
1819

> <TS_ChemName>
Ticlopidine

> <TS_ChemName_Synonyms>


> <TS_CASRN>
55142-85-3

> <CASRN_ChemName_Relationship>
primary

> <TS_Description>
single chemical compound

> <ChemNote>


> <STRUCTURE_Shown>
tested chemical

> <STRUCTURE_Formula>
C14H14ClNS

> <STRUCTURE_MW>
263.7857

> <STRUCTURE_ChemType>
defined organic

> <STRUCTURE_DefinedOrganicForm>
parent

> <STRUCTURE_IUPAC>
5-(2-chlorobenzyl)-4,5,6,7-tetrahydrothieno[3,2-c]pyridine

> <STRUCTURE_SMILES>
Clc3ccccc3CN1CCc2sccc2C1

> <STRUCTURE_SMILES_Desalt>
Clc3ccccc3CN1CCc2sccc2C1

> <Substance_modify_yyyymmdd>
20080429

$$$$
