55268-74-1
ChemmineR-0914142331XD

 23 26  0  0  0  0  0  0  0  0  1 V2000
    4.6025   -7.9798    0.0000 O   0  0  0  0  0  0  0  0  0  0  0  0
    4.6025   -6.6499    0.0000 C   0  0  0  0  0  0  0  0  0  0  0  0
    3.4579   -5.9889    0.0000 N   0  0  0  0  0  0  0  0  0  0  0  0
    3.4579   -4.6589    0.0000 C   0  0  0  0  0  0  0  0  0  0  0  0
    2.3053   -3.9899    0.0000 C   0  0  0  0  0  0  0  0  0  0  0  0
    1.1526   -4.6589    0.0000 C   0  0  0  0  0  0  0  0  0  0  0  0
    0.0000   -3.9899    0.0000 C   0  0  0  0  0  0  0  0  0  0  0  0
    0.0000   -2.6599    0.0000 C   0  0  0  0  0  0  0  0  0  0  0  0
    1.1526   -1.9990    0.0000 C   0  0  0  0  0  0  0  0  0  0  0  0
    2.3053   -2.6599    0.0000 C   0  0  0  0  0  0  0  0  0  0  0  0
    1.1526   -5.9889    0.0000 C   0  0  0  0  0  0  0  0  0  0  0  0
    2.3053   -6.6499    0.0000 C   0  0  0  0  0  0  0  0  0  0  0  0
    4.6025   -3.9899    0.0000 C   0  0  0  0  0  0  0  0  0  0  0  0
    5.7552   -4.6589    0.0000 N   0  0  0  0  0  0  0  0  0  0  0  0
    5.7552   -5.9889    0.0000 C   0  0  0  0  0  0  0  0  0  0  0  0
    6.9078   -3.9899    0.0000 C   0  0  0  0  0  0  0  0  0  0  0  0
    8.0604   -4.6589    0.0000 O   0  0  0  0  0  0  0  0  0  0  0  0
    6.9078   -2.6599    0.0000 C   0  0  0  0  0  0  0  0  0  0  0  0
    5.7552   -1.9990    0.0000 C   0  0  0  0  0  0  0  0  0  0  0  0
    5.7552   -0.6690    0.0000 C   0  0  0  0  0  0  0  0  0  0  0  0
    6.9078    0.0000    0.0000 C   0  0  0  0  0  0  0  0  0  0  0  0
    8.0604   -0.6690    0.0000 C   0  0  0  0  0  0  0  0  0  0  0  0
    8.0604   -1.9990    0.0000 C   0  0  0  0  0  0  0  0  0  0  0  0
  1  2  2  0  0  0  0
  2  3  1  0  0  0  0
  2 15  1  0  0  0  0
  3  4  1  0  0  0  0
  3 12  1  0  0  0  0
  4  5  1  0  0  0  0
  4 13  1  0  0  0  0
  5  6  2  0  0  0  0
  5 10  1  0  0  0  0
  6  7  1  0  0  0  0
  6 11  1  0  0  0  0
  7  8  2  0  0  0  0
  8  9  1  0  0  0  0
  9 10  2  0  0  0  0
 11 12  1  0  0  0  0
 13 14  1  0  0  0  0
 14 15  1  0  0  0  0
 14 16  1  0  0  0  0
 16 17  2  0  0  0  0
 16 18  1  0  0  0  0
 18 19  1  0  0  0  0
 18 23  1  0  0  0  0
 19 20  1  0  0  0  0
 20 21  1  0  0  0  0
 21 22  1  0  0  0  0
 22 23  1  0  0  0  0
M  END
> <ID>
1136

> <Formula>
C19H24N2O2

> <FW>
312.4061

> <DSSTox_CID>
1182

> <DSSTox_RID>
75995

> <DSSTox_GSID>
21182

> <DSSTox_FileID_Sort>
679

> <TS_ChemName>
Praziquantel

> <TS_ChemName_Synonyms>


> <TS_CASRN>
55268-74-1

> <CASRN_ChemName_Relationship>
primary

> <TS_Description>
single chemical compound

> <ChemNote>


> <STRUCTURE_Shown>
tested chemical

> <STRUCTURE_Formula>
C19H24N2O2

> <STRUCTURE_MW>
312.4061

> <STRUCTURE_ChemType>
defined organic

> <STRUCTURE_DefinedOrganicForm>
parent

> <STRUCTURE_IUPAC>
2-(cyclohexylcarbonyl)-1,2,3,6,7,11b-hexahydro-4H-pyrazino[2,1-a]isoquinolin-4-one

> <STRUCTURE_SMILES>
O=C2CN(CC1c3ccccc3CCN12)C(=O)C4CCCCC4

> <STRUCTURE_SMILES_Desalt>
O=C2CN(CC1c3ccccc3CCN12)C(=O)C4CCCCC4

> <Substance_modify_yyyymmdd>
20080429

$$$$
