554-57-4
ChemmineR-0914142331XD

 14 14  0  0  0  0  0  0  0  0  1 V2000
    4.5317   -4.6196    0.0000 N   0  0  0  0  0  0  0  0  0  0  0  0
    3.2609   -4.1960    0.0000 N   0  0  0  0  0  0  0  0  0  0  0  0
    2.1899   -4.9873    0.0000 C   0  0  0  0  0  0  0  0  0  0  0  0
    3.2609   -2.8613    0.0000 C   0  0  0  0  0  0  0  0  0  0  0  0
    2.1899   -2.0940    0.0000 N   0  0  0  0  0  0  0  0  0  0  0  0
    1.1429   -1.3347    0.0000 C   0  0  0  0  0  0  0  0  0  0  0  0
    0.0000   -1.9981    0.0000 O   0  0  0  0  0  0  0  0  0  0  0  0
    1.1429    0.0000    0.0000 C   0  0  0  0  0  0  0  0  0  0  0  0
    4.5317   -2.4617    0.0000 S   0  0  0  0  0  0  0  0  0  0  0  0
    5.3230   -3.5406    0.0000 C   0  0  0  0  0  0  0  0  0  0  0  0
    6.6577   -3.5406    0.0000 S   0  0  0  0  0  0  0  0  0  0  0  0
    6.6577   -2.2059    0.0000 O   0  0  0  0  0  0  0  0  0  0  0  0
    6.6577   -4.8754    0.0000 O   0  0  0  0  0  0  0  0  0  0  0  0
    7.9924   -3.5406    0.0000 N   0  0  0  0  0  0  0  0  0  0  0  0
  1  2  1  0  0  0  0
  1 10  2  0  0  0  0
  2  3  1  0  0  0  0
  2  4  1  0  0  0  0
  4  5  2  0  0  0  0
  4  9  1  0  0  0  0
  5  6  1  0  0  0  0
  6  7  2  0  0  0  0
  6  8  1  0  0  0  0
  9 10  1  0  0  0  0
 10 11  1  0  0  0  0
 11 12  2  0  0  0  0
 11 13  2  0  0  0  0
 11 14  1  0  0  0  0
M  END
> <ID>
2947

> <Formula>
C5H8N4O3S2

> <FW>
236.272

> <DSSTox_CID>
3281

> <DSSTox_RID>
76956

> <DSSTox_GSID>
23281

> <DSSTox_FileID_Sort>
1640

> <TS_ChemName>
Methazolamide

> <TS_ChemName_Synonyms>


> <TS_CASRN>
554-57-4

> <CASRN_ChemName_Relationship>
primary

> <TS_Description>
single chemical compound

> <ChemNote>


> <STRUCTURE_Shown>
tested chemical

> <STRUCTURE_Formula>
C5H8N4O3S2

> <STRUCTURE_MW>
236.272

> <STRUCTURE_ChemType>
defined organic

> <STRUCTURE_DefinedOrganicForm>
parent

> <STRUCTURE_IUPAC>
N-(3-methyl-5-sulfamoyl-1,3,4-thiadiazol-2(3H)-ylidene)acetamide

> <STRUCTURE_SMILES>
CN1N=C(S\C1=N/C(C)=O)S(=O)(N)=O

> <STRUCTURE_SMILES_Desalt>
CN1N=C(S\C1=N/C(C)=O)S(=O)(N)=O

> <Substance_modify_yyyymmdd>
20110720

$$$$
