55779-06-1
ChemmineR-0914142331XD

 28 29  0  0  1  0  0  0  0  0  1 V2000
    8.6435   -5.7652    0.0000 N   0  0  0  0  0  0  0  0  0  0  0  0
    7.9780   -4.6070    0.0000 C   0  0  0  0  0  0  0  0  0  0  0  0
    8.6435   -3.4574    0.0000 C   0  0  0  0  0  0  0  0  0  0  0  0
    7.9780   -2.3078    0.0000 C   0  0  0  0  0  0  0  0  0  0  0  0
    6.6469   -2.3078    0.0000 C   0  0  0  0  0  0  0  0  0  0  0  0
    5.9813   -3.4574    0.0000 O   0  0  0  0  0  0  0  0  0  0  0  0
    6.6469   -4.6070    0.0000 C   0  0  0  0  0  0  0  0  0  0  0  0
    5.9813   -5.7652    0.0000 O   0  0  0  0  0  0  0  0  0  0  0  0
    4.6502   -5.7652    0.0000 C   0  0  0  0  0  0  0  0  0  0  0  0
    3.9933   -6.9148    0.0000 C   0  0  0  0  0  0  0  0  0  0  0  0
    4.6502   -8.0644    0.0000 N   0  0  0  0  0  0  0  0  0  0  0  0
    2.6622   -6.9148    0.0000 C   0  0  0  0  0  0  0  0  0  0  0  0
    1.9967   -8.0644    0.0000 O   0  0  0  0  0  0  0  0  0  0  0  0
    1.9967   -5.7652    0.0000 C   0  0  0  0  0  0  0  0  0  0  0  0
    0.6656   -5.7652    0.0000 O   0  0  0  0  0  0  0  0  0  0  0  0
    0.0000   -6.9148    0.0000 C   0  0  0  0  0  0  0  0  0  0  0  0
    2.6622   -4.6070    0.0000 C   0  0  0  0  0  0  0  0  0  0  0  0
    1.9967   -3.4574    0.0000 N   0  0  0  0  0  0  0  0  0  0  0  0
    0.6656   -3.4574    0.0000 C   0  0  0  0  0  0  0  0  0  0  0  0
    2.6622   -2.3078    0.0000 C   0  0  0  0  0  0  0  0  0  0  0  0
    3.9933   -2.3078    0.0000 O   0  0  0  0  0  0  0  0  0  0  0  0
    1.9967   -1.1582    0.0000 C   0  0  0  0  0  0  0  0  0  0  0  0
    0.6656   -1.1582    0.0000 N   0  0  0  0  0  0  0  0  0  0  0  0
    3.9933   -4.6070    0.0000 C   0  0  0  0  0  0  0  0  0  0  0  0
    4.6502   -3.4574    0.0000 O   0  0  0  0  0  0  0  0  0  0  0  0
    5.9813   -1.1582    0.0000 C   0  0  0  0  0  0  0  0  0  0  0  0
    4.6502   -1.1582    0.0000 N   0  0  0  0  0  0  0  0  0  0  0  0
    6.6469    0.0000    0.0000 C   0  0  0  0  0  0  0  0  0  0  0  0
  2  1  1  1  0  0  0
  2  3  1  0  0  0  0
  2  7  1  0  0  0  0
  3  4  1  0  0  0  0
  4  5  1  0  0  0  0
  5  6  1  6  0  0  0
  5 26  1  0  0  0  0
  6  7  1  0  0  0  0
  7  8  1  1  0  0  0
  9  8  1  6  0  0  0
  9 10  1  0  0  0  0
  9 24  1  0  0  0  0
 10 11  1  1  0  0  0
 10 12  1  0  0  0  0
 12 13  1  6  0  0  0
 12 14  1  0  0  0  0
 14 15  1  6  0  0  0
 14 17  1  0  0  0  0
 15 16  1  0  0  0  0
 17 18  1  1  0  0  0
 17 24  1  0  0  0  0
 18 19  1  0  0  0  0
 18 20  1  0  0  0  0
 20 21  2  0  0  0  0
 20 22  1  0  0  0  0
 22 23  1  0  0  0  0
 24 25  1  1  0  0  0
 26 27  1  1  0  0  0
 26 28  1  0  0  0  0
M  END
> <ID>
2376

> <Formula>
C17H35N5O6

> <FW>
405.4897

> <DSSTox_CID>
2624

> <DSSTox_RID>
76662

> <DSSTox_GSID>
22624

> <DSSTox_FileID_Sort>
1346

> <TS_ChemName>
Astromicin

> <TS_ChemName_Synonyms>
Astromicin A

> <TS_CASRN>
55779-06-1

> <CASRN_ChemName_Relationship>
primary

> <TS_Description>
single chemical compound

> <ChemNote>
stereochem

> <STRUCTURE_Shown>
tested chemical

> <STRUCTURE_Formula>
C17H35N5O6

> <STRUCTURE_MW>
405.4897

> <STRUCTURE_ChemType>
defined organic

> <STRUCTURE_DefinedOrganicForm>
parent

> <STRUCTURE_IUPAC>
N-[(1S,2R,3R,4S,5S,6R)-4-amino-3-({(2R,3R,6S)-3-amino-6-[(1S)-1-aminoethyl]tetrahydro-2H-pyran-2-yl}oxy)-2,5-dihydroxy-6-methoxycyclohexyl]-N-methylglycinamide

> <STRUCTURE_SMILES>
NCC(=O)N(C)[C@H]2[C@@H](O)[C@H](O[C@H]1O[C@@H](CC[C@H]1N)[C@H](C)N)[C@@H](N)[C@H](O)[C@@H]2OC

> <STRUCTURE_SMILES_Desalt>
NCC(=O)N(C)[C@H]2[C@@H](O)[C@H](O[C@H]1O[C@@H](CC[C@H]1N)[C@H](C)N)[C@@H](N)[C@H](O)[C@@H]2OC

> <Substance_modify_yyyymmdd>
20080429

$$$$
