55837-27-9
ChemmineR-0914142331XD

 25 27  0  0  0  0  0  0  0  0  1 V2000
    5.4401   -3.9039    0.0000 C   0  0  0  0  0  0  0  0  0  0  0  0
    6.5606   -4.5545    0.0000 S   0  0  0  0  0  0  0  0  0  0  0  0
    7.2113   -3.4249    0.0000 O   0  0  0  0  0  0  0  0  0  0  0  0
    5.9100   -5.6750    0.0000 O   0  0  0  0  0  0  0  0  0  0  0  0
    7.6902   -5.2051    0.0000 N   0  0  0  0  0  0  0  0  0  0  0  0
    4.3105   -4.5545    0.0000 C   0  0  0  0  0  0  0  0  0  0  0  0
    4.3105   -6.2444    0.0000 O   0  0  0  0  0  0  0  0  0  0  0  0
    5.7744   -7.0848    0.0000 C   0  0  0  0  0  0  0  0  0  0  0  0
    6.9040   -6.4341    0.0000 C   0  0  0  0  0  0  0  0  0  0  0  0
    8.0246   -7.0848    0.0000 C   0  0  0  0  0  0  0  0  0  0  0  0
    8.0246   -8.3861    0.0000 C   0  0  0  0  0  0  0  0  0  0  0  0
    6.9040   -9.0367    0.0000 C   0  0  0  0  0  0  0  0  0  0  0  0
    5.7744   -8.3861    0.0000 C   0  0  0  0  0  0  0  0  0  0  0  0
    3.1809   -3.9039    0.0000 C   0  0  0  0  0  0  0  0  0  0  0  0
    2.0604   -4.5545    0.0000 N   0  0  0  0  0  0  0  0  0  0  0  0
    1.9248   -5.8467    0.0000 C   0  0  0  0  0  0  0  0  0  0  0  0
    0.6506   -6.1178    0.0000 C   0  0  0  0  0  0  0  0  0  0  0  0
    0.0000   -4.9883    0.0000 C   0  0  0  0  0  0  0  0  0  0  0  0
    0.8675   -4.0213    0.0000 C   0  0  0  0  0  0  0  0  0  0  0  0
    3.1809   -2.6026    0.0000 C   0  0  0  0  0  0  0  0  0  0  0  0
    4.3105   -1.9519    0.0000 C   0  0  0  0  0  0  0  0  0  0  0  0
    4.3105   -0.6506    0.0000 C   0  0  0  0  0  0  0  0  0  0  0  0
    5.4401    0.0000    0.0000 O   0  0  0  0  0  0  0  0  0  0  0  0
    3.1809    0.0000    0.0000 O   0  0  0  0  0  0  0  0  0  0  0  0
    5.4401   -2.6026    0.0000 C   0  0  0  0  0  0  0  0  0  0  0  0
  1  2  1  0  0  0  0
  1  6  2  0  0  0  0
  1 25  1  0  0  0  0
  2  3  2  0  0  0  0
  2  4  2  0  0  0  0
  2  5  1  0  0  0  0
  6  7  1  0  0  0  0
  6 14  1  0  0  0  0
  7  8  1  0  0  0  0
  8  9  2  0  0  0  0
  8 13  1  0  0  0  0
  9 10  1  0  0  0  0
 10 11  2  0  0  0  0
 11 12  1  0  0  0  0
 12 13  2  0  0  0  0
 14 15  1  0  0  0  0
 14 20  2  0  0  0  0
 15 16  1  0  0  0  0
 15 19  1  0  0  0  0
 16 17  1  0  0  0  0
 17 18  1  0  0  0  0
 18 19  1  0  0  0  0
 20 21  1  0  0  0  0
 21 22  1  0  0  0  0
 21 25  2  0  0  0  0
 22 23  2  0  0  0  0
 22 24  1  0  0  0  0
M  END
> <ID>
3126

> <Formula>
C17H18N2O5S

> <FW>
362.4002

> <DSSTox_CID>
3488

> <DSSTox_RID>
77050

> <DSSTox_GSID>
23488

> <DSSTox_FileID_Sort>
1733

> <TS_ChemName>
Piretanide

> <TS_ChemName_Synonyms>


> <TS_CASRN>
55837-27-9

> <CASRN_ChemName_Relationship>
primary

> <TS_Description>
single chemical compound

> <ChemNote>


> <STRUCTURE_Shown>
tested chemical

> <STRUCTURE_Formula>
C17H18N2O5S

> <STRUCTURE_MW>
362.4002

> <STRUCTURE_ChemType>
defined organic

> <STRUCTURE_DefinedOrganicForm>
parent

> <STRUCTURE_IUPAC>
4-phenoxy-3-(pyrrolidin-1-yl)-5-sulfamoylbenzoic acid

> <STRUCTURE_SMILES>
O=C(O)c2cc(c(Oc1ccccc1)c(c2)N3CCCC3)S(N)(=O)=O

> <STRUCTURE_SMILES_Desalt>
O=C(O)c2cc(c(Oc1ccccc1)c(c2)N3CCCC3)S(N)(=O)=O

> <Substance_modify_yyyymmdd>
20080429

$$$$
