5593-20-4
ChemmineR-0914142331XD

 38 41  0  0  1  0  0  0  0  0  1 V2000
    6.9852   -5.7174    0.0000 C   0  0  0  0  0  0  0  0  0  0  0  0
    4.6526   -7.0612    0.0000 C   0  0  0  0  0  0  0  0  0  0  0  0
    3.4989   -7.7078    0.0000 C   0  0  0  0  0  0  0  0  0  0  0  0
    6.9852   -7.0612    0.0000 C   0  0  0  0  0  0  0  0  0  0  0  0
    5.8062   -7.7078    0.0000 C   0  0  0  0  0  0  0  0  0  0  0  0
    8.2402   -5.3118    0.0000 C   0  0  0  0  0  0  0  0  0  0  0  0
    3.4989   -9.0769    0.0000 C   0  0  0  0  0  0  0  0  0  0  0  0
    4.6526   -5.7174    0.0000 C   0  0  0  0  0  0  0  0  0  0  0  0
    5.8062   -5.0709    0.0000 C   0  0  0  0  0  0  0  0  0  0  0  0
    9.0389   -6.4020    0.0000 C   0  0  0  0  0  0  0  0  0  0  0  0
    2.3706   -7.0612    0.0000 C   0  0  0  0  0  0  0  0  0  0  0  0
    8.2529   -7.4669    0.0000 C   0  0  0  0  0  0  0  0  0  0  0  0
    2.3706   -9.7615    0.0000 C   0  0  0  0  0  0  0  0  0  0  0  0
    8.2402   -3.9553    0.0000 C   0  0  0  0  0  0  0  0  0  0  0  0
    5.8062   -9.0769    0.0000 C   0  0  0  0  0  0  0  0  0  0  0  0
    1.1917   -7.7078    0.0000 C   0  0  0  0  0  0  0  0  0  0  0  0
    1.1917   -9.0769    0.0000 C   0  0  0  0  0  0  0  0  0  0  0  0
    4.6526   -9.7615    0.0000 C   0  0  0  0  0  0  0  0  0  0  0  0
    4.6399   -8.2149    0.0000 F   0  0  0  0  0  0  0  0  0  0  0  0
    7.0612   -3.2961    0.0000 O   0  0  0  0  0  0  0  0  0  0  0  0
    0.0000   -9.7742    0.0000 O   0  0  0  0  0  0  0  0  0  0  0  0
    9.5967   -5.3118    0.0000 O   0  0  0  0  0  0  0  0  0  0  0  0
    6.9852   -4.3737    0.0000 C   0  0  0  0  0  0  0  0  0  0  0  0
    3.4862   -5.0329    0.0000 O   0  0  0  0  0  0  0  0  0  0  0  0
    3.4989   -6.4020    0.0000 C   0  0  0  0  0  0  0  0  0  0  0  0
   10.3827   -6.3893    0.0000 C   0  0  0  0  0  0  0  0  0  0  0  0
    9.3812   -3.2961    0.0000 C   0  0  0  0  0  0  0  0  0  0  0  0
    9.3812   -1.9777    0.0000 O   0  0  0  0  0  0  0  0  0  0  0  0
    5.8062   -6.3893    0.0000 H   0  0  0  0  0  0  0  0  0  0  0  0
    6.9852   -8.4050    0.0000 H   0  0  0  0  0  0  0  0  0  0  0  0
   10.5221   -1.3184    0.0000 C   0  0  0  0  0  0  0  0  0  0  0  0
   10.5095    0.0000    0.0000 O   0  0  0  0  0  0  0  0  0  0  0  0
   11.6758   -1.9523    0.0000 C   0  0  0  0  0  0  0  0  0  0  0  0
   12.6773   -1.3438    0.0000 C   0  0  0  0  0  0  0  0  0  0  0  0
   10.7376   -4.6272    0.0000 C   0  0  0  0  0  0  0  0  0  0  0  0
   11.9166   -5.3118    0.0000 O   0  0  0  0  0  0  0  0  0  0  0  0
   10.7376   -3.2961    0.0000 C   0  0  0  0  0  0  0  0  0  0  0  0
   11.9166   -2.6369    0.0000 C   0  0  0  0  0  0  0  0  0  0  0  0
  1  4  1  0  0  0  0
  1  6  1  0  0  0  0
  1  9  1  0  0  0  0
  1 23  1  1  0  0  0
  2  8  1  0  0  0  0
  2  3  1  0  0  0  0
  2 19  1  6  0  0  0
  2  5  1  0  0  0  0
  3  7  1  0  0  0  0
  3 11  1  0  0  0  0
  3 25  1  1  0  0  0
  4  5  1  0  0  0  0
  4 12  1  0  0  0  0
  4 30  1  6  0  0  0
  5 15  1  0  0  0  0
  5 29  1  1  0  0  0
  6 10  1  0  0  0  0
  6 14  1  1  0  0  0
  6 22  1  6  0  0  0
  7 13  2  0  0  0  0
  7 18  1  0  0  0  0
  8  9  1  0  0  0  0
  8 24  1  1  0  0  0
 10 26  1  1  0  0  0
 10 12  1  0  0  0  0
 11 16  2  0  0  0  0
 13 17  1  0  0  0  0
 14 20  2  0  0  0  0
 14 27  1  0  0  0  0
 15 18  1  0  0  0  0
 16 17  1  0  0  0  0
 17 21  2  0  0  0  0
 22 35  1  0  0  0  0
 27 28  1  0  0  0  0
 28 31  1  0  0  0  0
 31 32  2  0  0  0  0
 31 33  1  0  0  0  0
 33 34  1  0  0  0  0
 35 36  2  0  0  0  0
 35 37  1  0  0  0  0
 37 38  1  0  0  0  0
M  END
> <ID>
2418

> <Formula>
C28H37FO7

> <FW>
504.5876

> <DSSTox_CID>
2672

> <DSSTox_RID>
76683

> <DSSTox_GSID>
22672

> <DSSTox_FileID_Sort>
1367

> <TS_ChemName>
Betamethasone dipropionate

> <TS_ChemName_Synonyms>


> <TS_CASRN>
5593-20-4

> <CASRN_ChemName_Relationship>
primary

> <TS_Description>
single chemical compound

> <ChemNote>
stereochem; tautomers

> <STRUCTURE_Shown>
tested chemical

> <STRUCTURE_Formula>
C28H37FO7

> <STRUCTURE_MW>
504.5876

> <STRUCTURE_ChemType>
defined organic

> <STRUCTURE_DefinedOrganicForm>
parent

> <STRUCTURE_IUPAC>
(11beta,16beta)-9-fluoro-11-hydroxy-16-methyl-3,20-dioxopregna-1,4-diene-17,21-diyl dipropanoate

> <STRUCTURE_SMILES>
CCC(=O)OCC(=O)[C@@]4(OC(=O)CC)[C@@H](C)C[C@@H]3[C@]4(C)C[C@H](O)[C@@]2(F)[C@H]3CCC1=CC(=O)C=C[C@@]12C

> <STRUCTURE_SMILES_Desalt>
CCC(=O)OCC(=O)[C@@]4(OC(=O)CC)[C@@H](C)C[C@@H]3[C@]4(C)C[C@H](O)[C@@]2(F)[C@H]3CCC1=CC(=O)C=C[C@@]12C

> <Substance_modify_yyyymmdd>
20080429

$$$$
