56-04-2
ChemmineR-0914142331XD

  9  9  0  0  0  0  0  0  0  0  1 V2000
    0.0000   -2.3037    0.0000 C   0  0  0  0  0  0  0  0  0  0  0  0
    1.3315   -2.3037    0.0000 C   0  0  0  0  0  0  0  0  0  0  0  0
    1.9950   -1.1518    0.0000 C   0  0  0  0  0  0  0  0  0  0  0  0
    3.3265   -1.1518    0.0000 C   0  0  0  0  0  0  0  0  0  0  0  0
    3.9899    0.0000    0.0000 O   0  0  0  0  0  0  0  0  0  0  0  0
    3.9899   -2.3037    0.0000 N   0  0  0  0  0  0  0  0  0  0  0  0
    3.3265   -3.4555    0.0000 C   0  0  0  0  0  0  0  0  0  0  0  0
    3.9899   -4.6073    0.0000 S   0  0  0  0  0  0  0  0  0  0  0  0
    1.9950   -3.4555    0.0000 N   0  0  0  0  0  0  0  0  0  0  0  0
  1  2  1  0  0  0  0
  2  3  2  0  0  0  0
  2  9  1  0  0  0  0
  3  4  1  0  0  0  0
  4  5  2  0  0  0  0
  4  6  1  0  0  0  0
  6  7  1  0  0  0  0
  7  8  2  0  0  0  0
  7  9  1  0  0  0  0
M  END
> <ID>
856

> <Formula>
C5H6N2OS

> <FW>
142.1789

> <DSSTox_CID>
890

> <DSSTox_RID>
75847

> <DSSTox_GSID>
20890

> <DSSTox_FileID_Sort>
531

> <TS_ChemName>
6-Methyl-2-thiouracil

> <TS_ChemName_Synonyms>
6-Methyl-2-thiouracil (Methylthiouracil)

> <TS_CASRN>
56-04-2

> <CASRN_ChemName_Relationship>
primary

> <TS_Description>
single chemical compound

> <ChemNote>


> <STRUCTURE_Shown>
tested chemical

> <STRUCTURE_Formula>
C5H6N2OS

> <STRUCTURE_MW>
142.1789

> <STRUCTURE_ChemType>
defined organic

> <STRUCTURE_DefinedOrganicForm>
parent

> <STRUCTURE_IUPAC>
6-methyl-2-thioxo-2,3-dihydropyrimidin-4(1H)-one

> <STRUCTURE_SMILES>
O=C1C=C(C)NC(=S)N1

> <STRUCTURE_SMILES_Desalt>
O=C1C=C(C)NC(=S)N1

> <Substance_modify_yyyymmdd>
20080429

$$$$
