56-23-5
ChemmineR-0914142331XD

  5  4  0  0  0  0  0  0  0  0  1 V2000
      1.33     -2.66      0.00 Cl   0  0  0  0  0  0  0  0  0  0  0  0
      1.33     -1.33      0.00 C    0  0  0  0  0  0  0  0  0  0  0  0
      0.00     -1.33      0.00 Cl   0  0  0  0  0  0  0  0  0  0  0  0
      1.33      0.00      0.00 Cl   0  0  0  0  0  0  0  0  0  0  0  0
      2.66     -1.33      0.00 Cl   0  0  0  0  0  0  0  0  0  0  0  0
  1  2  1  0  0  0  0
  2  3  1  0  0  0  0
  2  4  1  0  0  0  0
  2  5  1  0  0  0  0
M  END
> <ID>
246

> <Formula>
CCl4

> <FW>
153.8227

> <DSSTox_CID>
250

> <DSSTox_RID>
75464

> <DSSTox_GSID>
20250

> <DSSTox_FileID_Sort>
148

> <TS_ChemName>
Carbon tetrachloride

> <TS_ChemName_Synonyms>
Carbon tetrachloride  (CT) (Tetrachloromethane) (Methane, tetrachloro-)

> <TS_CASRN>
56-23-5

> <CASRN_ChemName_Relationship>
primary

> <TS_Description>
single chemical compound

> <ChemNote>


> <STRUCTURE_Shown>
tested chemical

> <STRUCTURE_Formula>
CCl4

> <STRUCTURE_MW>
153.8227

> <STRUCTURE_ChemType>
defined organic

> <STRUCTURE_DefinedOrganicForm>
parent

> <STRUCTURE_IUPAC>
tetrachloromethane

> <STRUCTURE_SMILES>
ClC(Cl)(Cl)Cl

> <STRUCTURE_SMILES_Desalt>
ClC(Cl)(Cl)Cl

> <Substance_modify_yyyymmdd>
20080429

$$$$
