56-35-9
ChemmineR-0914142331XD

 27 26  0  0  0  0  0  0  0  0  1 V2000
    7.1346   -3.1461    0.0000 C    0  0  0  0  0  0  0  0  0  0  0  0
    6.4727   -4.2979    0.0000 C    0  0  0  0  0  0  0  0  0  0  0  0
    7.1346   -5.4498    0.0000 C    0  0  0  0  0  0  0  0  0  0  0  0
    6.4727   -6.6016    0.0000 C    0  0  0  0  0  0  0  0  0  0  0  0
    5.1403   -6.6016    0.0000 Sn   0  0  0  0  0  0  0  0  0  0  0  0
    5.1403   -5.2693    0.0000 O    0  0  0  0  0  0  0  0  0  0  0  0
    3.9885   -4.6074    0.0000 Sn   0  0  0  0  0  0  0  0  0  0  0  0
    3.3266   -5.7592    0.0000 C    0  0  0  0  0  0  0  0  0  0  0  0
    1.9942   -5.7592    0.0000 C    0  0  0  0  0  0  0  0  0  0  0  0
    1.3324   -4.6074    0.0000 C    0  0  0  0  0  0  0  0  0  0  0  0
    0.0000   -4.6074    0.0000 C    0  0  0  0  0  0  0  0  0  0  0  0
    2.8366   -3.9455    0.0000 C    0  0  0  0  0  0  0  0  0  0  0  0
    2.8366   -2.6131    0.0000 C    0  0  0  0  0  0  0  0  0  0  0  0
    1.6848   -1.9427    0.0000 C    0  0  0  0  0  0  0  0  0  0  0  0
    0.5329   -2.6131    0.0000 C    0  0  0  0  0  0  0  0  0  0  0  0
    4.6504   -3.4555    0.0000 C    0  0  0  0  0  0  0  0  0  0  0  0
    3.9885   -2.3037    0.0000 C    0  0  0  0  0  0  0  0  0  0  0  0
    4.6504   -1.1518    0.0000 C    0  0  0  0  0  0  0  0  0  0  0  0
    3.9885    0.0000    0.0000 C    0  0  0  0  0  0  0  0  0  0  0  0
    5.1403   -7.9340    0.0000 C    0  0  0  0  0  0  0  0  0  0  0  0
    6.2922   -8.5959    0.0000 C    0  0  0  0  0  0  0  0  0  0  0  0
    7.4440   -7.9340    0.0000 C    0  0  0  0  0  0  0  0  0  0  0  0
    8.5959   -8.5959    0.0000 C    0  0  0  0  0  0  0  0  0  0  0  0
    3.8080   -6.6016    0.0000 C    0  0  0  0  0  0  0  0  0  0  0  0
    3.1461   -7.7535    0.0000 C    0  0  0  0  0  0  0  0  0  0  0  0
    1.8137   -7.7535    0.0000 C    0  0  0  0  0  0  0  0  0  0  0  0
    1.1518   -6.6016    0.0000 C    0  0  0  0  0  0  0  0  0  0  0  0
  1  2  1  0  0  0  0
  2  3  1  0  0  0  0
  3  4  1  0  0  0  0
  4  5  1  0  0  0  0
  5  6  1  0  0  0  0
  5 20  1  0  0  0  0
  5 24  1  0  0  0  0
  6  7  1  0  0  0  0
  7  8  1  0  0  0  0
  7 12  1  0  0  0  0
  7 16  1  0  0  0  0
  8  9  1  0  0  0  0
  9 10  1  0  0  0  0
 10 11  1  0  0  0  0
 12 13  1  0  0  0  0
 13 14  1  0  0  0  0
 14 15  1  0  0  0  0
 16 17  1  0  0  0  0
 17 18  1  0  0  0  0
 18 19  1  0  0  0  0
 20 21  1  0  0  0  0
 21 22  1  0  0  0  0
 22 23  1  0  0  0  0
 24 25  1  0  0  0  0
 25 26  1  0  0  0  0
 26 27  1  0  0  0  0
M  END
> <ID>
163

> <Formula>
C24H54OSn2

> <FW>
596.105

> <DSSTox_CID>
166

> <DSSTox_RID>
75413

> <DSSTox_GSID>
20166

> <DSSTox_FileID_Sort>
97

> <TS_ChemName>
Bis(tributyltin)oxide

> <TS_ChemName_Synonyms>
Bis(tributyltin)oxide (TBTO) (Hexabutyl distannoxane) (Tributyltin oxide) (Distannoxane, hexabutyl-)

> <TS_CASRN>
56-35-9

> <CASRN_ChemName_Relationship>
primary

> <TS_Description>
single chemical compound

> <ChemNote>


> <STRUCTURE_Shown>
tested chemical

> <STRUCTURE_Formula>
C24H54OSn2

> <STRUCTURE_MW>
596.105

> <STRUCTURE_ChemType>
organometallic

> <STRUCTURE_DefinedOrganicForm>


> <STRUCTURE_IUPAC>
hexabutyldistannoxane

> <STRUCTURE_SMILES>
CCCC[Sn](CCCC)(CCCC)O[Sn](CCCC)(CCCC)CCCC

> <STRUCTURE_SMILES_Desalt>
CCCC[Sn](CCCC)(CCCC)O[Sn](CCCC)(CCCC)CCCC

> <Substance_modify_yyyymmdd>
20080429

$$$$
