56-38-2
ChemmineR-0914142331XD

 18 18  0  0  0  0  0  0  0  0  2 V2000
    5.5046   -3.3251    0.0000 S   0  0  0  0  0  0  0  0  0  0  0  0
    6.6502   -2.6545    0.0000 P   0  0  0  0  0  0  0  0  0  0  0  0
    5.9889   -1.5089    0.0000 O   0  0  0  0  0  0  0  0  0  0  0  0
    4.6570   -1.5089    0.0000 C   0  0  0  0  0  0  0  0  0  0  0  0
    3.9957   -2.6545    0.0000 C   0  0  0  0  0  0  0  0  0  0  0  0
    2.6638   -2.6545    0.0000 C   0  0  0  0  0  0  0  0  0  0  0  0
    1.9932   -1.5089    0.0000 C   0  0  0  0  0  0  0  0  0  0  0  0
    2.6638   -0.3539    0.0000 C   0  0  0  0  0  0  0  0  0  0  0  0
    3.9957   -0.3539    0.0000 C   0  0  0  0  0  0  0  0  0  0  0  0
    0.6613   -1.5089    0.0000 N   0  3  0  0  0  0  0  0  0  0  0  0
    0.0000   -2.6545    0.0000 O   0  0  0  0  0  0  0  0  0  0  0  0
    0.0000   -0.3539    0.0000 O   0  5  0  0  0  0  0  0  0  0  0  0
    7.8051   -1.9932    0.0000 O   0  0  0  0  0  0  0  0  0  0  0  0
    7.8051   -0.6613    0.0000 C   0  0  0  0  0  0  0  0  0  0  0  0
    8.9601    0.0000    0.0000 C   0  0  0  0  0  0  0  0  0  0  0  0
    7.3208   -3.8094    0.0000 O   0  0  0  0  0  0  0  0  0  0  0  0
    8.6527   -3.8094    0.0000 C   0  0  0  0  0  0  0  0  0  0  0  0
    9.3140   -2.6545    0.0000 C   0  0  0  0  0  0  0  0  0  0  0  0
  1  2  2  0  0  0  0
  2  3  1  0  0  0  0
  2 13  1  0  0  0  0
  2 16  1  0  0  0  0
  3  4  1  0  0  0  0
  4  5  2  0  0  0  0
  4  9  1  0  0  0  0
  5  6  1  0  0  0  0
  6  7  2  0  0  0  0
  7  8  1  0  0  0  0
  7 10  1  0  0  0  0
  8  9  2  0  0  0  0
 10 11  2  0  0  0  0
 10 12  1  0  0  0  0
 13 14  1  0  0  0  0
 14 15  1  0  0  0  0
 16 17  1  0  0  0  0
 17 18  1  0  0  0  0
M  END
> <ID>
1059

> <Formula>
C10H14NO5PS

> <FW>
291.2606

> <DSSTox_CID>
1100

> <DSSTox_RID>
75940

> <DSSTox_GSID>
21100

> <DSSTox_FileID_Sort>
624

> <TS_ChemName>
Parathion

> <TS_ChemName_Synonyms>
Parathion (Diethyl O-p-nitrophenyl phosphorothioate) (Ethylparathion)

> <TS_CASRN>
56-38-2

> <CASRN_ChemName_Relationship>
primary

> <TS_Description>
single chemical compound

> <ChemNote>


> <STRUCTURE_Shown>
tested chemical

> <STRUCTURE_Formula>
C10H14NO5PS

> <STRUCTURE_MW>
291.2606

> <STRUCTURE_ChemType>
defined organic

> <STRUCTURE_DefinedOrganicForm>
parent

> <STRUCTURE_IUPAC>
O,O-diethyl O-(4-nitrophenyl) phosphorothioate

> <STRUCTURE_SMILES>
S=P(Oc1ccc(cc1)[N+]([O-])=O)(OCC)OCC

> <STRUCTURE_SMILES_Desalt>
S=P(Oc1ccc(cc1)[N+]([O-])=O)(OCC)OCC

> <Substance_modify_yyyymmdd>
20080429

$$$$
