56-47-3
ChemmineR-0914142331XD

 30 33  0  0  1  0  0  0  0  0  1 V2000
    6.9263   -3.6864    0.0000 C   0  0  0  0  0  0  0  0  0  0  0  0
    3.4568   -5.6507    0.0000 C   0  0  0  0  0  0  0  0  0  0  0  0
    3.4568   -7.0028    0.0000 C   0  0  0  0  0  0  0  0  0  0  0  0
    6.9263   -5.0002    0.0000 C   0  0  0  0  0  0  0  0  0  0  0  0
    4.6048   -5.0002    0.0000 C   0  0  0  0  0  0  0  0  0  0  0  0
    5.7910   -5.6507    0.0000 C   0  0  0  0  0  0  0  0  0  0  0  0
    8.1891   -3.2654    0.0000 C   0  0  0  0  0  0  0  0  0  0  0  0
    2.3215   -7.6406    0.0000 C   0  0  0  0  0  0  0  0  0  0  0  0
    5.7400   -3.0231    0.0000 C   0  0  0  0  0  0  0  0  0  0  0  0
    4.6048   -3.6864    0.0000 C   0  0  0  0  0  0  0  0  0  0  0  0
    8.1891   -5.3956    0.0000 C   0  0  0  0  0  0  0  0  0  0  0  0
    2.3215   -5.0002    0.0000 C   0  0  0  0  0  0  0  0  0  0  0  0
    8.9544   -4.3114    0.0000 C   0  0  0  0  0  0  0  0  0  0  0  0
    5.7910   -7.0028    0.0000 C   0  0  0  0  0  0  0  0  0  0  0  0
    8.1763   -1.8751    0.0000 C   0  0  0  0  0  0  0  0  0  0  0  0
    4.6048   -7.6406    0.0000 C   0  0  0  0  0  0  0  0  0  0  0  0
    1.1480   -7.0028    0.0000 C   0  0  0  0  0  0  0  0  0  0  0  0
   11.6459   -1.3138    0.0000 C   0  0  0  0  0  0  0  0  0  0  0  0
    9.3371   -1.2373    0.0000 C   0  0  0  0  0  0  0  0  0  0  0  0
   10.4851   -1.9389    0.0000 O   0  0  0  0  0  0  0  0  0  0  0  0
   11.6331    0.0000    0.0000 O   0  0  0  0  0  0  0  0  0  0  0  0
    7.0028   -1.2500    0.0000 O   0  0  0  0  0  0  0  0  0  0  0  0
    0.0000   -7.6916    0.0000 O   0  0  0  0  0  0  0  0  0  0  0  0
    1.1480   -5.6507    0.0000 C   0  0  0  0  0  0  0  0  0  0  0  0
    6.9518   -2.3215    0.0000 C   0  0  0  0  0  0  0  0  0  0  0  0
    3.4568   -4.3369    0.0000 C   0  0  0  0  0  0  0  0  0  0  0  0
   12.7556   -2.0026    0.0000 C   0  0  0  0  0  0  0  0  0  0  0  0
    5.7910   -4.3241    0.0000 H   0  0  0  0  0  0  0  0  0  0  0  0
    6.9263   -6.3268    0.0000 H   0  0  0  0  0  0  0  0  0  0  0  0
    4.6048   -6.3268    0.0000 H   0  0  0  0  0  0  0  0  0  0  0  0
  1  4  1  0  0  0  0
  1  7  1  0  0  0  0
  1  9  1  0  0  0  0
  1 25  1  1  0  0  0
  2  5  1  0  0  0  0
  2  3  1  0  0  0  0
  2 12  1  0  0  0  0
  2 26  1  1  0  0  0
  3  8  2  0  0  0  0
  3 16  1  0  0  0  0
  4  6  1  0  0  0  0
  4 11  1  0  0  0  0
  4 29  1  6  0  0  0
  5 10  1  0  0  0  0
  5  6  1  0  0  0  0
  5 30  1  6  0  0  0
  6 14  1  0  0  0  0
  6 28  1  1  0  0  0
  7 13  1  0  0  0  0
  7 15  1  1  0  0  0
  8 17  1  0  0  0  0
  9 10  1  0  0  0  0
 11 13  1  0  0  0  0
 12 24  1  0  0  0  0
 14 16  1  0  0  0  0
 15 19  1  0  0  0  0
 15 22  2  0  0  0  0
 17 24  1  0  0  0  0
 17 23  2  0  0  0  0
 18 20  1  0  0  0  0
 18 21  2  0  0  0  0
 18 27  1  0  0  0  0
 19 20  1  0  0  0  0
M  END
> <ID>
2610

> <Formula>
C23H32O4

> <FW>
372.4978

> <DSSTox_CID>
2894

> <DSSTox_RID>
76777

> <DSSTox_GSID>
22894

> <DSSTox_FileID_Sort>
1461

> <TS_ChemName>
Deoxycorticosterone acetate

> <TS_ChemName_Synonyms>
Deoxycorticosterone acetate (DOCA)

> <TS_CASRN>
56-47-3

> <CASRN_ChemName_Relationship>
primary

> <TS_Description>
single chemical compound

> <ChemNote>
stereochem

> <STRUCTURE_Shown>
tested chemical

> <STRUCTURE_Formula>
C23H32O4

> <STRUCTURE_MW>
372.4978

> <STRUCTURE_ChemType>
defined organic

> <STRUCTURE_DefinedOrganicForm>
parent

> <STRUCTURE_IUPAC>
3,20-dioxopregn-4-en-21-yl acetate

> <STRUCTURE_SMILES>
CC(=O)OCC(=O)[C@H]2CC[C@H]3[C@@H]4CCC1=CC(=O)CC[C@]1(C)[C@H]4CC[C@]23C

> <STRUCTURE_SMILES_Desalt>
CC(=O)OCC(=O)[C@H]2CC[C@H]3[C@@H]4CCC1=CC(=O)CC[C@]1(C)[C@H]4CC[C@]23C

> <Substance_modify_yyyymmdd>
20080429

$$$$
