56-65-5
ChemmineR-0914142331XD

 31 33  0  0  1  0  0  0  0  0  1 V2000
   11.2319   -3.5564    0.0000 N   0  0  0  0  0  0  0  0  0  0  0  0
   10.0584   -3.1732    0.0000 C   0  0  0  0  0  0  0  0  0  0  0  0
   10.0584   -1.8800    0.0000 C   0  0  0  0  0  0  0  0  0  0  0  0
   11.2319   -1.5088    0.0000 N   0  0  0  0  0  0  0  0  0  0  0  0
   11.9743   -2.5266    0.0000 C   0  0  0  0  0  0  0  0  0  0  0  0
    8.9328   -1.2573    0.0000 C   0  0  0  0  0  0  0  0  0  0  0  0
    8.9328   -3.8078    0.0000 N   0  0  0  0  0  0  0  0  0  0  0  0
    7.8551   -1.8800    0.0000 N   0  0  0  0  0  0  0  0  0  0  0  0
    7.8551   -3.1732    0.0000 C   0  0  0  0  0  0  0  0  0  0  0  0
    8.9328    0.0000    0.0000 N   0  0  0  0  0  0  0  0  0  0  0  0
   11.2319   -5.3884    0.0000 C   0  0  0  0  0  0  0  0  0  0  0  0
    9.1124   -5.3884    0.0000 C   0  0  0  0  0  0  0  0  0  0  0  0
   10.1781   -4.6101    0.0000 O   0  0  0  0  0  0  0  0  0  0  0  0
    9.5195   -6.6577    0.0000 C   0  0  0  0  0  0  0  0  0  0  0  0
   10.8367   -6.6577    0.0000 C   0  0  0  0  0  0  0  0  0  0  0  0
    8.7412   -7.7114    0.0000 O   0  0  0  0  0  0  0  0  0  0  0  0
   11.5911   -7.7114    0.0000 O   0  0  0  0  0  0  0  0  0  0  0  0
    7.8312   -4.9693    0.0000 C   0  0  0  0  0  0  0  0  0  0  0  0
    6.8612   -5.8674    0.0000 O   0  0  0  0  0  0  0  0  0  0  0  0
    1.1615   -5.2088    0.0000 P   0  0  0  0  0  0  0  0  0  0  0  0
    2.2871   -5.8674    0.0000 O   0  0  0  0  0  0  0  0  0  0  0  0
    0.0000   -5.8674    0.0000 O   0  0  0  0  0  0  0  0  0  0  0  0
    1.1615   -3.8916    0.0000 O   0  0  0  0  0  0  0  0  0  0  0  0
    0.5149   -6.5260    0.0000 O   0  0  0  0  0  0  0  0  0  0  0  0
    3.4366   -5.2088    0.0000 P   0  0  0  0  0  0  0  0  0  0  0  0
    4.5742   -5.8674    0.0000 O   0  0  0  0  0  0  0  0  0  0  0  0
    3.4366   -3.8916    0.0000 O   0  0  0  0  0  0  0  0  0  0  0  0
    2.8020   -6.5260    0.0000 O   0  0  0  0  0  0  0  0  0  0  0  0
    5.7117   -5.2088    0.0000 P   0  0  0  0  0  0  0  0  0  0  0  0
    5.7117   -3.8916    0.0000 O   0  0  0  0  0  0  0  0  0  0  0  0
    5.0771   -6.5260    0.0000 O   0  0  0  0  0  0  0  0  0  0  0  0
  1  2  1  0  0  0  0
  1  5  1  0  0  0  0
 11  1  1  1  0  0  0
  2  3  2  0  0  0  0
  2  7  1  0  0  0  0
  3  6  1  0  0  0  0
  3  4  1  0  0  0  0
  4  5  2  0  0  0  0
  6 10  1  0  0  0  0
  6  8  2  0  0  0  0
  7  9  2  0  0  0  0
  8  9  1  0  0  0  0
 11 13  1  0  0  0  0
 11 15  1  0  0  0  0
 12 13  1  0  0  0  0
 12 14  1  0  0  0  0
 12 18  1  1  0  0  0
 14 15  1  0  0  0  0
 14 16  1  6  0  0  0
 15 17  1  6  0  0  0
 18 19  1  0  0  0  0
 19 29  1  0  0  0  0
 20 21  1  0  0  0  0
 20 22  1  0  0  0  0
 20 23  2  0  0  0  0
 20 24  1  0  0  0  0
 21 25  1  0  0  0  0
 25 26  1  0  0  0  0
 25 27  2  0  0  0  0
 25 28  1  0  0  0  0
 26 29  1  0  0  0  0
 29 30  2  0  0  0  0
 29 31  1  0  0  0  0
M  END
> <ID>
2321

> <Formula>
C10H16N5O13P3

> <FW>
507.181

> <DSSTox_CID>
2559

> <DSSTox_RID>
76629

> <DSSTox_GSID>
22559

> <DSSTox_FileID_Sort>
1313

> <TS_ChemName>
Adenosine triphosphate

> <TS_ChemName_Synonyms>


> <TS_CASRN>
56-65-5

> <CASRN_ChemName_Relationship>
primary

> <TS_Description>
single chemical compound

> <ChemNote>
stereochem

> <STRUCTURE_Shown>
tested chemical

> <STRUCTURE_Formula>
C10H16N5O13P3

> <STRUCTURE_MW>
507.181

> <STRUCTURE_ChemType>
defined organic

> <STRUCTURE_DefinedOrganicForm>
parent

> <STRUCTURE_IUPAC>
adenosine 5'-(tetrahydrogen triphosphate)

> <STRUCTURE_SMILES>
O=P(O)(O)OP(=O)(O)OP(=O)(O)OC[C@H]3O[C@@H](n2cnc1c(N)ncnc12)[C@H](O)[C@@H]3O

> <STRUCTURE_SMILES_Desalt>
O=P(O)(O)OP(=O)(O)OP(=O)(O)OC[C@H]3O[C@@H](n2cnc1c(N)ncnc12)[C@H](O)[C@@H]3O

> <Substance_modify_yyyymmdd>
20080429

$$$$
