56-75-7
ChemmineR-0914142331XD

 20 20  0  0  1  0  0  0  0  0  2 V2000
    3.4557    0.0000    0.0000 O    0  0  0  0  0  0  0  0  0  0  0  0
    3.4557   -1.3362    0.0000 C    0  0  0  0  0  0  0  0  0  0  0  0
    2.3038   -1.9997    0.0000 C    0  0  0  0  0  0  0  0  0  0  0  0
    1.1519   -1.3362    0.0000 C    0  0  0  0  0  0  0  0  0  0  0  0
    0.0000   -1.9997    0.0000 O    0  0  0  0  0  0  0  0  0  0  0  0
    2.3038   -3.3267    0.0000 N    0  0  0  0  0  0  0  0  0  0  0  0
    1.1519   -3.9902    0.0000 C    0  0  0  0  0  0  0  0  0  0  0  0
    0.0000   -3.3267    0.0000 O    0  0  0  0  0  0  0  0  0  0  0  0
    1.1519   -5.3264    0.0000 C    0  0  0  0  0  0  0  0  0  0  0  0
    0.0000   -5.9899    0.0000 Cl   0  0  0  0  0  0  0  0  0  0  0  0
    2.3038   -5.9899    0.0000 Cl   0  0  0  0  0  0  0  0  0  0  0  0
    4.6076   -1.9997    0.0000 C    0  0  0  0  0  0  0  0  0  0  0  0
    5.7595   -1.3362    0.0000 C    0  0  0  0  0  0  0  0  0  0  0  0
    6.9114   -1.9997    0.0000 C    0  0  0  0  0  0  0  0  0  0  0  0
    6.9114   -3.3267    0.0000 C    0  0  0  0  0  0  0  0  0  0  0  0
    5.7595   -3.9902    0.0000 C    0  0  0  0  0  0  0  0  0  0  0  0
    4.6076   -3.3267    0.0000 C    0  0  0  0  0  0  0  0  0  0  0  0
    8.0633   -3.9902    0.0000 N    0  3  0  0  0  0  0  0  0  0  0  0
    9.2152   -3.3267    0.0000 O    0  5  0  0  0  0  0  0  0  0  0  0
    8.0633   -5.3264    0.0000 O    0  0  0  0  0  0  0  0  0  0  0  0
  2  1  1  6  0  0  0
  2  3  1  0  0  0  0
  2 12  1  0  0  0  0
  3  4  1  0  0  0  0
  3  6  1  6  0  0  0
  4  5  1  0  0  0  0
  6  7  1  0  0  0  0
  7  8  2  0  0  0  0
  7  9  1  0  0  0  0
  9 10  1  0  0  0  0
  9 11  1  0  0  0  0
 12 13  2  0  0  0  0
 12 17  1  0  0  0  0
 13 14  1  0  0  0  0
 14 15  2  0  0  0  0
 15 16  1  0  0  0  0
 15 18  1  0  0  0  0
 16 17  2  0  0  0  0
 18 19  1  0  0  0  0
 18 20  2  0  0  0  0
M  END
> <ID>
257

> <Formula>
C11H12Cl2N2O5

> <FW>
323.1294

> <DSSTox_CID>
265

> <DSSTox_RID>
75473

> <DSSTox_GSID>
20265

> <DSSTox_FileID_Sort>
157

> <TS_ChemName>
Chloramphenicol

> <TS_ChemName_Synonyms>


> <TS_CASRN>
56-75-7

> <CASRN_ChemName_Relationship>
primary

> <TS_Description>
single chemical compound

> <ChemNote>
stereochem

> <STRUCTURE_Shown>
tested chemical

> <STRUCTURE_Formula>
C11H12Cl2N2O5

> <STRUCTURE_MW>
323.1294

> <STRUCTURE_ChemType>
defined organic

> <STRUCTURE_DefinedOrganicForm>
parent

> <STRUCTURE_IUPAC>
2,2-dichloro-N-[(1R,2R)-1,3-dihydroxy-1-(4-nitrophenyl)propan-2-yl]acetamide

> <STRUCTURE_SMILES>
O=[N+]([O-])c1ccc(cc1)[C@@H](O)[C@@H](CO)NC(=O)C(Cl)Cl

> <STRUCTURE_SMILES_Desalt>
O=[N+]([O-])c1ccc(cc1)[C@@H](O)[C@@H](CO)NC(=O)C(Cl)Cl

> <Substance_modify_yyyymmdd>
20080429

$$$$
