56-87-1
ChemmineR-0914142331XD

 10  9  0  0  1  0  0  0  0  0  1 V2000
    6.9239   -1.3331    0.0000 C   0  0  0  0  0  0  0  0  0  0  0  0
    6.9239    0.0000    0.0000 O   0  0  0  0  0  0  0  0  0  0  0  0
    5.7685   -1.9875    0.0000 C   0  0  0  0  0  0  0  0  0  0  0  0
    8.0792   -1.9875    0.0000 O   0  0  0  0  0  0  0  0  0  0  0  0
    5.7685   -3.3367    0.0000 N   0  0  0  0  0  0  0  0  0  0  0  0
    0.0000   -1.3331    0.0000 N   0  0  0  0  0  0  0  0  0  0  0  0
    1.1553   -1.9875    0.0000 C   0  0  0  0  0  0  0  0  0  0  0  0
    4.5971   -1.3331    0.0000 C   0  0  0  0  0  0  0  0  0  0  0  0
    2.3106   -1.3331    0.0000 C   0  0  0  0  0  0  0  0  0  0  0  0
    3.4821   -1.9875    0.0000 C   0  0  0  0  0  0  0  0  0  0  0  0
  1  2  2  0  0  0  0
  1  3  1  0  0  0  0
  1  4  1  0  0  0  0
  3  5  1  1  0  0  0
  3  8  1  0  0  0  0
  6  7  1  0  0  0  0
  7  9  1  0  0  0  0
  8 10  1  0  0  0  0
  9 10  1  0  0  0  0
M  END
> <ID>
2907

> <Formula>
C6H14N2O2

> <FW>
146.1876

> <DSSTox_CID>
3232

> <DSSTox_RID>
76935

> <DSSTox_GSID>
23232

> <DSSTox_FileID_Sort>
1619

> <TS_ChemName>
Lysine

> <TS_ChemName_Synonyms>


> <TS_CASRN>
56-87-1

> <CASRN_ChemName_Relationship>
primary

> <TS_Description>
single chemical compound

> <ChemNote>
stereochem

> <STRUCTURE_Shown>
tested chemical

> <STRUCTURE_Formula>
C6H14N2O2

> <STRUCTURE_MW>
146.1876

> <STRUCTURE_ChemType>
defined organic

> <STRUCTURE_DefinedOrganicForm>
parent

> <STRUCTURE_IUPAC>
L-lysine

> <STRUCTURE_SMILES>
N[C@@H](CCCCN)C(=O)O

> <STRUCTURE_SMILES_Desalt>
N[C@@H](CCCCN)C(=O)O

> <Substance_modify_yyyymmdd>
20080429

$$$$
