56-86-0
ChemmineR-0914142331XD

 10  9  0  0  1  0  0  0  0  0  1 V2000
    5.7807   -1.3276    0.0000 C   0  0  0  0  0  0  0  0  0  0  0  0
    1.1340   -1.3415    0.0000 C   0  0  0  0  0  0  0  0  0  0  0  0
    5.7807    0.0000    0.0000 O   0  0  0  0  0  0  0  0  0  0  0  0
    4.5914   -1.9983    0.0000 C   0  0  0  0  0  0  0  0  0  0  0  0
    0.0000   -1.9983    0.0000 O   0  0  0  0  0  0  0  0  0  0  0  0
    3.4574   -1.3276    0.0000 C   0  0  0  0  0  0  0  0  0  0  0  0
    2.3026   -1.9983    0.0000 C   0  0  0  0  0  0  0  0  0  0  0  0
    1.1548   -0.0138    0.0000 O   0  0  0  0  0  0  0  0  0  0  0  0
    6.9147   -1.9983    0.0000 O   0  0  0  0  0  0  0  0  0  0  0  0
    4.5914   -3.3260    0.0000 N   0  0  0  0  0  0  0  0  0  0  0  0
  1  3  2  0  0  0  0
  1  4  1  0  0  0  0
  1  9  1  0  0  0  0
  2  7  1  0  0  0  0
  2  5  2  0  0  0  0
  2  8  1  0  0  0  0
  4  6  1  0  0  0  0
  4 10  1  1  0  0  0
  6  7  1  0  0  0  0
M  END
> <ID>
633

> <Formula>
C5H9NO4

> <FW>
147.1293

> <DSSTox_CID>
659

> <DSSTox_RID>
75716

> <DSSTox_GSID>
20659

> <DSSTox_FileID_Sort>
400

> <TS_ChemName>
L-Glutamic acid

> <TS_ChemName_Synonyms>


> <TS_CASRN>
56-86-0

> <CASRN_ChemName_Relationship>
primary

> <TS_Description>
single chemical compound

> <ChemNote>
stereochem; d- form [6893-26-1]; dl form [617-65-2]

> <STRUCTURE_Shown>
tested chemical

> <STRUCTURE_Formula>
C5H9NO4

> <STRUCTURE_MW>
147.1293

> <STRUCTURE_ChemType>
defined organic

> <STRUCTURE_DefinedOrganicForm>
parent

> <STRUCTURE_IUPAC>
L-glutamic acid

> <STRUCTURE_SMILES>
OC(=O)CC[C@H](N)C(=O)O

> <STRUCTURE_SMILES_Desalt>
OC(=O)CC[C@H](N)C(=O)O

> <Substance_modify_yyyymmdd>
20080429

$$$$
