5630-53-5
ChemmineR-0914142331XD

 26 29  0  0  1  0  0  0  0  0  1 V2000
    3.5098   -3.7496    0.0000 C   0  0  0  0  0  0  0  0  0  0  0  0
    3.5098   -5.0576    0.0000 C   0  0  0  0  0  0  0  0  0  0  0  0
    6.9542   -1.7549    0.0000 C   0  0  0  0  0  0  0  0  0  0  0  0
    6.9542   -3.0738    0.0000 C   0  0  0  0  0  0  0  0  0  0  0  0
    4.6652   -3.0738    0.0000 C   0  0  0  0  0  0  0  0  0  0  0  0
    5.7770   -3.7496    0.0000 C   0  0  0  0  0  0  0  0  0  0  0  0
    8.2077   -1.3625    0.0000 C   0  0  0  0  0  0  0  0  0  0  0  0
    5.7770   -5.0576    0.0000 C   0  0  0  0  0  0  0  0  0  0  0  0
    4.6652   -5.7334    0.0000 C   0  0  0  0  0  0  0  0  0  0  0  0
    9.5593   -1.3407    0.0000 C   0  0  0  0  0  0  0  0  0  0  0  0
    5.7770   -1.0791    0.0000 C   0  0  0  0  0  0  0  0  0  0  0  0
    4.6652   -1.7549    0.0000 C   0  0  0  0  0  0  0  0  0  0  0  0
    8.2077   -3.4989    0.0000 C   0  0  0  0  0  0  0  0  0  0  0  0
    2.3108   -3.0738    0.0000 C   0  0  0  0  0  0  0  0  0  0  0  0
   10.9000   -1.3407    0.0000 C   0  0  0  0  0  0  0  0  0  0  0  0
    2.3108   -5.7334    0.0000 C   0  0  0  0  0  0  0  0  0  0  0  0
    8.9816   -2.4198    0.0000 C   0  0  0  0  0  0  0  0  0  0  0  0
    1.1663   -5.0576    0.0000 C   0  0  0  0  0  0  0  0  0  0  0  0
    0.0000   -5.7661    0.0000 O   0  0  0  0  0  0  0  0  0  0  0  0
    1.1663   -3.7496    0.0000 C   0  0  0  0  0  0  0  0  0  0  0  0
    8.2077    0.0000    0.0000 O   0  0  0  0  0  0  0  0  0  0  0  0
    6.9542   -0.4142    0.0000 C   0  0  0  0  0  0  0  0  0  0  0  0
    6.7362   -6.0277    0.0000 C   0  0  0  0  0  0  0  0  0  0  0  0
    6.9542   -4.4036    0.0000 H   0  0  0  0  0  0  0  0  0  0  0  0
    4.6652   -4.3164    0.0000 H   0  0  0  0  0  0  0  0  0  0  0  0
    5.7770   -2.4198    0.0000 H   0  0  0  0  0  0  0  0  0  0  0  0
  1  2  2  0  0  0  0
  1  5  1  0  0  0  0
  1 14  1  0  0  0  0
  2  9  1  0  0  0  0
  2 16  1  0  0  0  0
  3 11  1  0  0  0  0
  3  7  1  0  0  0  0
  3 22  1  1  0  0  0
  3  4  1  0  0  0  0
  4  6  1  0  0  0  0
  4 13  1  0  0  0  0
  4 24  1  6  0  0  0
  5  6  1  0  0  0  0
  5 12  1  0  0  0  0
  5 25  1  6  0  0  0
  6  8  1  0  0  0  0
  6 26  1  1  0  0  0
  7 10  1  0  0  0  0
  7 21  1  1  0  0  0
  7 17  1  0  0  0  0
  8 23  1  6  0  0  0
  8  9  1  0  0  0  0
 10 15  3  0  0  0  0
 11 12  1  0  0  0  0
 13 17  1  0  0  0  0
 14 20  1  0  0  0  0
 16 18  1  0  0  0  0
 18 20  1  0  0  0  0
 18 19  2  0  0  0  0
M  END
> <ID>
3275

> <Formula>
C21H28O2

> <FW>
312.4458

> <DSSTox_CID>
3667

> <DSSTox_RID>
77135

> <DSSTox_GSID>
23667

> <DSSTox_FileID_Sort>
1818

> <TS_ChemName>
Tibolone

> <TS_ChemName_Synonyms>


> <TS_CASRN>
5630-53-5

> <CASRN_ChemName_Relationship>
primary

> <TS_Description>
single chemical compound

> <ChemNote>
stereochem

> <STRUCTURE_Shown>
tested chemical

> <STRUCTURE_Formula>
C21H28O2

> <STRUCTURE_MW>
312.4458

> <STRUCTURE_ChemType>
defined organic

> <STRUCTURE_DefinedOrganicForm>
parent

> <STRUCTURE_IUPAC>
(7beta,8xi,9beta,13alpha,14beta,17alpha)-17-ethynyl-17-hydroxy-7-methylestr-5(10)-en-3-one

> <STRUCTURE_SMILES>
O=C1CC=2C[C@@H](C)[C@H]3[C@@H]4CC[C@@](O)(C#C)[C@@]4(C)CC[C@@H]3C=2CC1

> <STRUCTURE_SMILES_Desalt>
O=C1CC=2C[C@@H](C)[C@H]3[C@@H]4CC[C@@](O)(C#C)[C@@]4(C)CC[C@@H]3C=2CC1

> <Substance_modify_yyyymmdd>
20080429

$$$$
