57-11-4
ChemmineR-0914142331XD

 20 19  0  0  0  0  0  0  0  0  1 V2000
    0.0000   -1.9917    0.0000 C   0  0  0  0  0  0  0  0  0  0  0  0
    1.1618   -1.3278    0.0000 C   0  0  0  0  0  0  0  0  0  0  0  0
    2.3029   -1.9917    0.0000 C   0  0  0  0  0  0  0  0  0  0  0  0
    3.4647   -1.3278    0.0000 C   0  0  0  0  0  0  0  0  0  0  0  0
    4.6057   -1.9917    0.0000 C   0  0  0  0  0  0  0  0  0  0  0  0
    5.7675   -1.3278    0.0000 C   0  0  0  0  0  0  0  0  0  0  0  0
    6.9086   -1.9917    0.0000 C   0  0  0  0  0  0  0  0  0  0  0  0
    8.0704   -1.3278    0.0000 C   0  0  0  0  0  0  0  0  0  0  0  0
    9.2115   -1.9917    0.0000 C   0  0  0  0  0  0  0  0  0  0  0  0
   10.3733   -1.3278    0.0000 C   0  0  0  0  0  0  0  0  0  0  0  0
   11.5351   -1.9917    0.0000 C   0  0  0  0  0  0  0  0  0  0  0  0
   12.6761   -1.3278    0.0000 C   0  0  0  0  0  0  0  0  0  0  0  0
   13.8379   -1.9917    0.0000 C   0  0  0  0  0  0  0  0  0  0  0  0
   14.9790   -1.3278    0.0000 C   0  0  0  0  0  0  0  0  0  0  0  0
   16.1408   -1.9917    0.0000 C   0  0  0  0  0  0  0  0  0  0  0  0
   17.2819   -1.3278    0.0000 C   0  0  0  0  0  0  0  0  0  0  0  0
   18.4437   -1.9917    0.0000 C   0  0  0  0  0  0  0  0  0  0  0  0
   19.5847   -1.3278    0.0000 C   0  0  0  0  0  0  0  0  0  0  0  0
   20.7465   -1.9917    0.0000 O   0  0  0  0  0  0  0  0  0  0  0  0
   19.5847    0.0000    0.0000 O   0  0  0  0  0  0  0  0  0  0  0  0
  1  2  1  0  0  0  0
  2  3  1  0  0  0  0
  3  4  1  0  0  0  0
  4  5  1  0  0  0  0
  5  6  1  0  0  0  0
  6  7  1  0  0  0  0
  7  8  1  0  0  0  0
  8  9  1  0  0  0  0
  9 10  1  0  0  0  0
 10 11  1  0  0  0  0
 11 12  1  0  0  0  0
 12 13  1  0  0  0  0
 13 14  1  0  0  0  0
 14 15  1  0  0  0  0
 15 16  1  0  0  0  0
 16 17  1  0  0  0  0
 17 18  1  0  0  0  0
 18 19  1  0  0  0  0
 18 20  2  0  0  0  0
M  END
> <ID>
1579

> <Formula>
C18H36O2

> <FW>
284.4772

> <DSSTox_CID>
1642

> <DSSTox_RID>
76256

> <DSSTox_GSID>
21642

> <DSSTox_FileID_Sort>
940

> <TS_ChemName>
Octadecanoic acid

> <TS_ChemName_Synonyms>
Octadecanoic acid (Stearic acid)

> <TS_CASRN>
57-11-4

> <CASRN_ChemName_Relationship>
primary

> <TS_Description>
single chemical compound

> <ChemNote>


> <STRUCTURE_Shown>
tested chemical

> <STRUCTURE_Formula>
C18H36O2

> <STRUCTURE_MW>
284.4772

> <STRUCTURE_ChemType>
defined organic

> <STRUCTURE_DefinedOrganicForm>
parent

> <STRUCTURE_IUPAC>
octadecanoic acid

> <STRUCTURE_SMILES>
O=C(O)CCCCCCCCCCCCCCCCC

> <STRUCTURE_SMILES_Desalt>
O=C(O)CCCCCCCCCCCCCCCCC

> <Substance_modify_yyyymmdd>
20080429

$$$$
