57-30-7
ChemmineR-0914142331XD

 18 18  0  0  0  0  0  0  0  0  2 V2000
    3.4567   -1.9942    0.0000 C    0  0  0  0  0  0  0  0  0  0  0  0
    4.7640   -2.2232    0.0000 C    0  0  0  0  0  0  0  0  0  0  0  0
    5.6208   -1.2039    0.0000 C    0  0  0  0  0  0  0  0  0  0  0  0
    6.9281   -1.4329    0.0000 C    0  0  0  0  0  0  0  0  0  0  0  0
    7.3860   -2.6885    0.0000 C    0  0  0  0  0  0  0  0  0  0  0  0
    6.5292   -3.7078    0.0000 C    0  0  0  0  0  0  0  0  0  0  0  0
    5.2219   -3.4714    0.0000 C    0  0  0  0  0  0  0  0  0  0  0  0
    3.4567   -3.3237    0.0000 C    0  0  0  0  0  0  0  0  0  0  0  0
    2.3044   -3.9884    0.0000 N    0  0  0  0  0  0  0  0  0  0  0  0
    1.1522   -3.3237    0.0000 C    0  0  0  0  0  0  0  0  0  0  0  0
    1.1522   -1.9942    0.0000 N    0  0  0  0  0  0  0  0  0  0  0  0
    2.3044   -1.3295    0.0000 C    0  0  0  0  0  0  0  0  0  0  0  0
    2.3044    0.0000    0.0000 O    0  0  0  0  0  0  0  0  0  0  0  0
    0.0000   -3.9884    0.0000 O    0  5  0  0  0  0  0  0  0  0  0  0
    4.6089   -3.9884    0.0000 O    0  0  0  0  0  0  0  0  0  0  0  0
    3.9146   -0.7460    0.0000 C    0  0  0  0  0  0  0  0  0  0  0  0
    5.2219   -0.5096    0.0000 C    0  0  0  0  0  0  0  0  0  0  0  0
    3.7225   -5.3179    0.0000 Na   0  3  0  0  0  0  0  0  0  0  0  0
  1  2  1  0  0  0  0
  1  8  1  0  0  0  0
  1 12  1  0  0  0  0
  1 16  1  0  0  0  0
  2  3  2  0  0  0  0
  2  7  1  0  0  0  0
  3  4  1  0  0  0  0
  4  5  2  0  0  0  0
  5  6  1  0  0  0  0
  6  7  2  0  0  0  0
  8  9  1  0  0  0  0
  8 15  2  0  0  0  0
  9 10  1  0  0  0  0
 10 11  2  0  0  0  0
 10 14  1  0  0  0  0
 11 12  1  0  0  0  0
 12 13  2  0  0  0  0
 16 17  1  0  0  0  0
M  END
> <ID>
1079

> <Formula>
C12H11N2NaO3

> <FW>
254.2171 (231.2279+22.9892)

> <DSSTox_CID>
1123

> <DSSTox_RID>
75954

> <DSSTox_GSID>
21123

> <DSSTox_FileID_Sort>
638

> <TS_ChemName>
Phenobarbital sodium

> <TS_ChemName_Synonyms>
Phenobarbital, sodium

> <TS_CASRN>
57-30-7

> <CASRN_ChemName_Relationship>
primary

> <TS_Description>
single chemical compound

> <ChemNote>
parent [50-06-6]

> <STRUCTURE_Shown>
tested chemical

> <STRUCTURE_Formula>
C12H11N2NaO3

> <STRUCTURE_MW>
254.2171

> <STRUCTURE_ChemType>
defined organic

> <STRUCTURE_DefinedOrganicForm>
salt

> <STRUCTURE_IUPAC>
sodium 5-ethyl-4,6-dioxo-5-phenyl-1,4,5,6-tetrahydropyrimidin-2-olate

> <STRUCTURE_SMILES>
[Na+].CCC1(C(=O)N=C([O-])NC1=O)c2ccccc2

> <STRUCTURE_SMILES_Desalt>
CCC1(C(=O)N=C(O)NC1=O)c2ccccc2

> <Substance_modify_yyyymmdd>
20080429

$$$$
