57-39-6
ChemmineR-0914142331XD

 14 16  0  0  0  0  0  0  0  0  1 V2000
    4.4719   -3.1448    0.0000 O   0  0  0  0  0  0  0  0  0  0  0  0
    3.1448   -3.1448    0.0000 P   0  0  0  0  0  0  0  0  0  0  0  0
    3.1448   -4.4719    0.0000 N   0  0  0  0  0  0  0  0  0  0  0  0
    3.8115   -5.6229    0.0000 C   0  0  0  0  0  0  0  0  0  0  0  0
    2.4781   -5.6229    0.0000 C   0  0  0  0  0  0  0  0  0  0  0  0
    4.9625   -6.2896    0.0000 C   0  0  0  0  0  0  0  0  0  0  0  0
    1.8177   -3.1448    0.0000 N   0  0  0  0  0  0  0  0  0  0  0  0
    0.6667   -3.8115    0.0000 C   0  0  0  0  0  0  0  0  0  0  0  0
    0.6667   -2.4781    0.0000 C   0  0  0  0  0  0  0  0  0  0  0  0
    0.0000   -4.9625    0.0000 C   0  0  0  0  0  0  0  0  0  0  0  0
    3.1448   -1.8177    0.0000 N   0  0  0  0  0  0  0  0  0  0  0  0
    2.4781   -0.6667    0.0000 C   0  0  0  0  0  0  0  0  0  0  0  0
    3.8115   -0.6667    0.0000 C   0  0  0  0  0  0  0  0  0  0  0  0
    1.3271    0.0000    0.0000 C   0  0  0  0  0  0  0  0  0  0  0  0
  1  2  2  0  0  0  0
  2  3  1  0  0  0  0
  2  7  1  0  0  0  0
  2 11  1  0  0  0  0
  3  4  1  0  0  0  0
  3  5  1  0  0  0  0
  4  5  1  0  0  0  0
  4  6  1  0  0  0  0
  7  8  1  0  0  0  0
  7  9  1  0  0  0  0
  8  9  1  0  0  0  0
  8 10  1  0  0  0  0
 11 12  1  0  0  0  0
 11 13  1  0  0  0  0
 12 13  1  0  0  0  0
 12 14  1  0  0  0  0
M  END
> <ID>
781

> <Formula>
C9H18N3OP

> <FW>
215.2325

> <DSSTox_CID>
815

> <DSSTox_RID>
75805

> <DSSTox_GSID>
20815

> <DSSTox_FileID_Sort>
489

> <TS_ChemName>
Metepa

> <TS_ChemName_Synonyms>


> <TS_CASRN>
57-39-6

> <CASRN_ChemName_Relationship>
primary

> <TS_Description>
single chemical compound

> <ChemNote>


> <STRUCTURE_Shown>
tested chemical

> <STRUCTURE_Formula>
C9H18N3OP

> <STRUCTURE_MW>
215.2325

> <STRUCTURE_ChemType>
defined organic

> <STRUCTURE_DefinedOrganicForm>
parent

> <STRUCTURE_IUPAC>
1,1',1''-phosphoryltris(2-methylaziridine)

> <STRUCTURE_SMILES>
CC1CN1P(=O)(N2CC2C)N3CC3C

> <STRUCTURE_SMILES_Desalt>
CC1CN1P(=O)(N2CC2C)N3CC3C

> <Substance_modify_yyyymmdd>
20080429

$$$$
