57-43-2
ChemmineR-0914142331XD

 16 16  0  0  0  0  0  0  0  0  1 V2000
    3.9929   -2.0076    0.0000 C   0  0  0  0  0  0  0  0  0  0  0  0
    2.6619   -2.0076    0.0000 C   0  0  0  0  0  0  0  0  0  0  0  0
    3.3162   -3.1452    0.0000 C   0  0  0  0  0  0  0  0  0  0  0  0
    3.9929   -0.6766    0.0000 C   0  0  0  0  0  0  0  0  0  0  0  0
    2.8329    0.0000    0.0000 O   0  0  0  0  0  0  0  0  0  0  0  0
    5.1305    0.0000    0.0000 N   0  0  0  0  0  0  0  0  0  0  0  0
    6.2830   -0.6766    0.0000 C   0  0  0  0  0  0  0  0  0  0  0  0
    7.4355    0.0000    0.0000 O   0  0  0  0  0  0  0  0  0  0  0  0
    6.2830   -2.0076    0.0000 N   0  0  0  0  0  0  0  0  0  0  0  0
    5.1305   -2.6619    0.0000 C   0  0  0  0  0  0  0  0  0  0  0  0
    5.1305   -3.9929    0.0000 O   0  0  0  0  0  0  0  0  0  0  0  0
    1.9853   -3.1452    0.0000 C   0  0  0  0  0  0  0  0  0  0  0  0
    1.9853   -0.8477    0.0000 C   0  0  0  0  0  0  0  0  0  0  0  0
    1.3310   -4.2977    0.0000 C   0  0  0  0  0  0  0  0  0  0  0  0
    0.0000   -4.2977    0.0000 C   0  0  0  0  0  0  0  0  0  0  0  0
    1.9853   -5.4502    0.0000 C   0  0  0  0  0  0  0  0  0  0  0  0
  1  2  1  0  0  0  0
  1  3  1  0  0  0  0
  1  4  1  0  0  0  0
  1 10  1  0  0  0  0
  2 13  1  0  0  0  0
  3 12  1  0  0  0  0
  4  5  2  0  0  0  0
  4  6  1  0  0  0  0
  6  7  1  0  0  0  0
  7  8  2  0  0  0  0
  7  9  1  0  0  0  0
  9 10  1  0  0  0  0
 10 11  2  0  0  0  0
 12 14  1  0  0  0  0
 14 15  1  0  0  0  0
 14 16  1  0  0  0  0
M  END
> <ID>
80

> <Formula>
C11H18N2O3

> <FW>
226.2722

> <DSSTox_CID>
81

> <DSSTox_RID>
75353

> <DSSTox_GSID>
20081

> <DSSTox_FileID_Sort>
37

> <TS_ChemName>
Amobarbital

> <TS_ChemName_Synonyms>


> <TS_CASRN>
57-43-2

> <CASRN_ChemName_Relationship>
primary

> <TS_Description>
single chemical compound

> <ChemNote>


> <STRUCTURE_Shown>
tested chemical

> <STRUCTURE_Formula>
C11H18N2O3

> <STRUCTURE_MW>
226.2722

> <STRUCTURE_ChemType>
defined organic

> <STRUCTURE_DefinedOrganicForm>
parent

> <STRUCTURE_IUPAC>
5-ethyl-5-(3-methylbutyl)pyrimidine-2,4,6(1H,3H,5H)-trione

> <STRUCTURE_SMILES>
O=C1NC(=O)NC(=O)C1(CCC(C)C)CC

> <STRUCTURE_SMILES_Desalt>
O=C1NC(=O)NC(=O)C1(CCC(C)C)CC

> <Substance_modify_yyyymmdd>
20080429

$$$$
