57-55-6
ChemmineR-0914142331XD

  5  4  0  0  0  0  0  0  0  0  1 V2000
    3.4567   -1.9945    0.0000 C   0  0  0  0  0  0  0  0  0  0  0  0
    2.3056   -1.3308    0.0000 C   0  0  0  0  0  0  0  0  0  0  0  0
    1.1511   -1.9945    0.0000 C   0  0  0  0  0  0  0  0  0  0  0  0
    0.0000   -1.3308    0.0000 O   0  0  0  0  0  0  0  0  0  0  0  0
    2.3056    0.0000    0.0000 O   0  0  0  0  0  0  0  0  0  0  0  0
  1  2  1  0  0  0  0
  2  3  1  0  0  0  0
  2  5  1  0  0  0  0
  3  4  1  0  0  0  0
M  END
> <ID>
1160

> <Formula>
C3H8O2

> <FW>
76.0944

> <DSSTox_CID>
1206

> <DSSTox_RID>
76010

> <DSSTox_GSID>
21206

> <DSSTox_FileID_Sort>
694

> <TS_ChemName>
1,2-Propylene glycol

> <TS_ChemName_Synonyms>
1,2-Propanediol; Propylene glycol

> <TS_CASRN>
57-55-6

> <CASRN_ChemName_Relationship>
primary

> <TS_Description>
single chemical compound

> <ChemNote>


> <STRUCTURE_Shown>
tested chemical

> <STRUCTURE_Formula>
C3H8O2

> <STRUCTURE_MW>
76.0944

> <STRUCTURE_ChemType>
defined organic

> <STRUCTURE_DefinedOrganicForm>
parent

> <STRUCTURE_IUPAC>
propane-1,2-diol

> <STRUCTURE_SMILES>
CC(O)CO

> <STRUCTURE_SMILES_Desalt>
CC(O)CO

> <Substance_modify_yyyymmdd>
20080429

$$$$
