57-50-1
ChemmineR-0914142331XD

 23 24  0  0  1  0  0  0  0  0  1 V2000
    6.2931   -2.0154    0.0000 C   0  0  0  0  0  0  0  0  0  0  0  0
    3.9383   -3.4345    0.0000 C   0  0  0  0  0  0  0  0  0  0  0  0
    7.2597   -2.8998    0.0000 C   0  0  0  0  0  0  0  0  0  0  0  0
    3.2802   -4.5656    0.0000 C   0  0  0  0  0  0  0  0  0  0  0  0
    6.8278   -0.8226    0.0000 O   0  0  0  0  0  0  0  0  0  0  0  0
    5.6041   -3.4036    0.0000 O   0  0  0  0  0  0  0  0  0  0  0  0
    1.9640   -4.5656    0.0000 C   0  0  0  0  0  0  0  0  0  0  0  0
    3.2802   -2.2931    0.0000 O   0  0  0  0  0  0  0  0  0  0  0  0
    8.3908   -2.2519    0.0000 C   0  0  0  0  0  0  0  0  0  0  0  0
    1.3059   -3.4242    0.0000 C   0  0  0  0  0  0  0  0  0  0  0  0
    8.1234   -0.9666    0.0000 C   0  0  0  0  0  0  0  0  0  0  0  0
    1.9743   -2.2931    0.0000 C   0  0  0  0  0  0  0  0  0  0  0  0
    5.0592   -1.6144    0.0000 C   0  0  0  0  0  0  0  0  0  0  0  0
    7.1157   -4.2057    0.0000 O   0  0  0  0  0  0  0  0  0  0  0  0
    3.9280   -5.7070    0.0000 O   0  0  0  0  0  0  0  0  0  0  0  0
    1.3059   -5.7070    0.0000 O   0  0  0  0  0  0  0  0  0  0  0  0
    9.5939   -2.7866    0.0000 O   0  0  0  0  0  0  0  0  0  0  0  0
    0.0000   -3.4242    0.0000 O   0  0  0  0  0  0  0  0  0  0  0  0
    9.0078    0.0000    0.0000 C   0  0  0  0  0  0  0  0  0  0  0  0
    1.3162   -1.1620    0.0000 C   0  0  0  0  0  0  0  0  0  0  0  0
    4.8227   -0.4524    0.0000 O   0  0  0  0  0  0  0  0  0  0  0  0
   10.2828   -0.2674    0.0000 O   0  0  0  0  0  0  0  0  0  0  0  0
    0.0000   -1.1517    0.0000 O   0  0  0  0  0  0  0  0  0  0  0  0
  1  3  1  0  0  0  0
  1  5  1  0  0  0  0
  1  6  1  6  0  0  0
  1 13  1  1  0  0  0
  2  6  1  6  0  0  0
  2  4  1  0  0  0  0
  2  8  1  0  0  0  0
  3  9  1  0  0  0  0
  3 14  1  6  0  0  0
  4  7  1  0  0  0  0
  4 15  1  6  0  0  0
  5 11  1  0  0  0  0
  7 16  1  1  0  0  0
  7 10  1  0  0  0  0
  8 12  1  0  0  0  0
  9 17  1  1  0  0  0
  9 11  1  0  0  0  0
 10 12  1  0  0  0  0
 10 18  1  6  0  0  0
 11 19  1  6  0  0  0
 12 20  1  1  0  0  0
 13 21  1  0  0  0  0
 19 22  1  0  0  0  0
 20 23  1  0  0  0  0
M  END
> <ID>
1238

> <Formula>
C12H22O11

> <FW>
342.2965

> <DSSTox_CID>
1288

> <DSSTox_RID>
76060

> <DSSTox_GSID>
21288

> <DSSTox_FileID_Sort>
744

> <TS_ChemName>
Sucrose

> <TS_ChemName_Synonyms>
Sucrose (.alpha.-D-Glucopyranoside, .beta.-D-fructofuranosyl) (D(+)-Sucrose)

> <TS_CASRN>
57-50-1

> <CASRN_ChemName_Relationship>
primary

> <TS_Description>
single chemical compound

> <ChemNote>
stereochem

> <STRUCTURE_Shown>
tested chemical

> <STRUCTURE_Formula>
C12H22O11

> <STRUCTURE_MW>
342.2965

> <STRUCTURE_ChemType>
defined organic

> <STRUCTURE_DefinedOrganicForm>
parent

> <STRUCTURE_IUPAC>
beta-D-fructofuranosyl alpha-D-glucopyranoside

> <STRUCTURE_SMILES>
O[C@H]1[C@H](O[C@H](CO)[C@@H](O)[C@@H]1O)O[C@]2(CO)O[C@H](CO)[C@@H](O)[C@@H]2O

> <STRUCTURE_SMILES_Desalt>
O[C@H]1[C@H](O[C@H](CO)[C@@H](O)[C@@H]1O)O[C@]2(CO)O[C@H](CO)[C@@H](O)[C@@H]2O

> <Substance_modify_yyyymmdd>
20130513

$$$$
