57-67-0
ChemmineR-0914142331XD

 14 14  0  0  0  0  0  0  0  0  1 V2000
    6.9097   -1.8222    0.0000 C   0  0  0  0  0  0  0  0  0  0  0  0
    6.9097   -3.1525    0.0000 C   0  0  0  0  0  0  0  0  0  0  0  0
    8.0627   -3.8137    0.0000 N   0  0  0  0  0  0  0  0  0  0  0  0
    5.7568   -3.8137    0.0000 C   0  0  0  0  0  0  0  0  0  0  0  0
    4.6038   -3.1525    0.0000 C   0  0  0  0  0  0  0  0  0  0  0  0
    4.6038   -1.8222    0.0000 C   0  0  0  0  0  0  0  0  0  0  0  0
    3.4589   -1.1530    0.0000 S   0  0  0  0  0  0  0  0  0  0  0  0
    4.1200    0.0000    0.0000 O   0  0  0  0  0  0  0  0  0  0  0  0
    2.7897   -2.3059    0.0000 O   0  0  0  0  0  0  0  0  0  0  0  0
    2.3059   -0.4918    0.0000 N   0  0  0  0  0  0  0  0  0  0  0  0
    1.1530   -1.1530    0.0000 C   0  0  0  0  0  0  0  0  0  0  0  0
    1.1530   -2.4833    0.0000 N   0  0  0  0  0  0  0  0  0  0  0  0
    0.0000   -0.4918    0.0000 N   0  0  0  0  0  0  0  0  0  0  0  0
    5.7568   -1.1530    0.0000 C   0  0  0  0  0  0  0  0  0  0  0  0
  1  2  2  0  0  0  0
  1 14  1  0  0  0  0
  2  3  1  0  0  0  0
  2  4  1  0  0  0  0
  4  5  2  0  0  0  0
  5  6  1  0  0  0  0
  6  7  1  0  0  0  0
  6 14  2  0  0  0  0
  7  8  2  0  0  0  0
  7  9  2  0  0  0  0
  7 10  1  0  0  0  0
 10 11  1  0  0  0  0
 11 12  1  0  0  0  0
 11 13  2  0  0  0  0
M  END
> <ID>
3228

> <Formula>
C7H10N4O2S

> <FW>
214.2449

> <DSSTox_CID>
3609

> <DSSTox_RID>
77107

> <DSSTox_GSID>
23609

> <DSSTox_FileID_Sort>
1790

> <TS_ChemName>
Sulfaguanidine

> <TS_ChemName_Synonyms>


> <TS_CASRN>
57-67-0

> <CASRN_ChemName_Relationship>
primary

> <TS_Description>
single chemical compound

> <ChemNote>


> <STRUCTURE_Shown>
tested chemical

> <STRUCTURE_Formula>
C7H10N4O2S

> <STRUCTURE_MW>
214.2449

> <STRUCTURE_ChemType>
defined organic

> <STRUCTURE_DefinedOrganicForm>
parent

> <STRUCTURE_IUPAC>
4-amino-N-carbamimidoylbenzenesulfonamide

> <STRUCTURE_SMILES>
Nc1ccc(cc1)S(=O)(=O)NC(=N)N

> <STRUCTURE_SMILES_Desalt>
Nc1ccc(cc1)S(=O)(=O)NC(=N)N

> <Substance_modify_yyyymmdd>
20080429

$$$$
