57-94-3
ChemmineR-0914142331XD

 47 51  0  0  1  0  0  0  0  0  2 V2000
    6.3924   -3.7223    0.0000 O    0  0  0  0  0  0  0  0  0  0  0  0
    6.3924   -2.4859    0.0000 C    0  0  0  0  0  0  0  0  0  0  0  0
    7.4447   -1.8546    0.0000 C    0  0  0  0  0  0  0  0  0  0  0  0
    7.4447   -0.6050    0.0000 C    0  0  0  0  0  0  0  0  0  0  0  0
    6.3924    0.0000    0.0000 C    0  0  0  0  0  0  0  0  0  0  0  0
    5.3270   -0.6050    0.0000 C    0  0  0  0  0  0  0  0  0  0  0  0
    4.2616    0.0000    0.0000 C    0  0  0  0  0  0  0  0  0  0  0  0
    3.1962   -0.6050    0.0000 C    0  0  0  0  0  0  0  0  0  0  0  0
    3.1962   -1.8546    0.0000 N    0  3  0  0  0  0  0  0  0  0  0  0
    4.2616   -2.4859    0.0000 C    0  0  0  0  0  0  0  0  0  0  0  0
    4.2616   -3.7223    0.0000 C    0  0  0  0  0  0  0  0  0  0  0  0
    3.1962   -4.3274    0.0000 C    0  0  0  0  0  0  0  0  0  0  0  0
    3.1962   -5.5638    0.0000 C    0  0  0  0  0  0  0  0  0  0  0  0
    2.1440   -6.1820    0.0000 C    0  0  0  0  0  0  0  0  0  0  0  0
    2.1440   -7.9839    0.0000 O    0  0  0  0  0  0  0  0  0  0  0  0
    7.4447   -7.9839    0.0000 C    0  0  0  0  0  0  0  0  0  0  0  0
    7.4447   -9.1940    0.0000 C    0  0  0  0  0  0  0  0  0  0  0  0
    8.5364   -9.8385    0.0000 C    0  0  0  0  0  0  0  0  0  0  0  0
    9.5886   -9.1940    0.0000 C    0  0  0  0  0  0  0  0  0  0  0  0
   10.6409   -9.8385    0.0000 C    0  0  0  0  0  0  0  0  0  0  0  0
   11.7194   -9.1940    0.0000 C    0  0  0  0  0  0  0  0  0  0  0  0
   11.7194   -7.9708    0.0000 N    0  0  0  0  0  0  0  0  0  0  0  0
   10.6409   -7.3789    0.0000 C    0  0  0  0  0  0  0  0  0  0  0  0
   10.6409   -6.1557    0.0000 C    0  0  0  0  0  0  0  0  0  0  0  0
    9.5886   -5.5375    0.0000 C    0  0  0  0  0  0  0  0  0  0  0  0
    9.5886   -4.3274    0.0000 C    0  0  0  0  0  0  0  0  0  0  0  0
    8.5364   -3.7223    0.0000 C    0  0  0  0  0  0  0  0  0  0  0  0
    7.4447   -4.3274    0.0000 C    0  0  0  0  0  0  0  0  0  0  0  0
    7.4447   -5.5375    0.0000 C    0  0  0  0  0  0  0  0  0  0  0  0
    8.5364   -6.1557    0.0000 C    0  0  0  0  0  0  0  0  0  0  0  0
    5.3270   -1.8546    0.0000 C    0  0  0  0  0  0  0  0  0  0  0  0
    2.1440   -3.7355    0.0000 C    0  0  0  0  0  0  0  0  0  0  0  0
    1.0654   -4.3274    0.0000 C    0  0  0  0  0  0  0  0  0  0  0  0
    1.0654   -5.5638    0.0000 C    0  0  0  0  0  0  0  0  0  0  0  0
    8.5364   -7.3789    0.0000 C    0  0  0  0  0  0  0  0  0  0  0  0
    9.5886   -7.9708    0.0000 C    0  0  0  0  0  0  0  0  0  0  0  0
    8.5495   -2.4859    0.0000 O    0  0  0  0  0  0  0  0  0  0  0  0
    8.5495    0.0000    0.0000 O    0  0  0  0  0  0  0  0  0  0  0  0
    9.6149   -0.6050    0.0000 C    0  0  0  0  0  0  0  0  0  0  0  0
    1.9730   -1.3942    0.0000 C    0  0  0  0  0  0  0  0  0  0  0  0
    2.5912   -2.9200    0.0000 C    0  0  0  0  0  0  0  0  0  0  0  0
    6.3924   -9.8385    0.0000 O    0  0  0  0  0  0  0  0  0  0  0  0
    6.3924  -11.0486    0.0000 C    0  0  0  0  0  0  0  0  0  0  0  0
   12.8111   -6.8659    0.0000 C    0  0  0  0  0  0  0  0  0  0  0  0
    0.0000   -6.1820    0.0000 O    0  0  0  0  0  0  0  0  0  0  0  0
    0.8944   -2.4070    0.0000 Cl   0  5  0  0  0  0  0  0  0  0  0  0
   13.1531   -8.7074    0.0000 Cl   0  0  0  0  0  0  0  0  0  0  0  0
  1  2  1  0  0  0  0
  1 28  1  0  0  0  0
  2 31  1  0  0  0  0
  2  3  2  0  0  0  0
  3 37  1  0  0  0  0
  3  4  1  0  0  0  0
  4  5  2  0  0  0  0
  4 38  1  0  0  0  0
  5  6  1  0  0  0  0
  6 31  2  0  0  0  0
  6  7  1  0  0  0  0
  7  8  1  0  0  0  0
  8  9  1  0  0  0  0
  9 10  1  0  0  0  0
  9 40  1  0  0  0  0
  9 41  1  0  0  0  0
 10 31  1  0  0  0  0
 10 11  1  1  0  0  0
 11 12  1  0  0  0  0
 12 32  1  0  0  0  0
 12 13  2  0  0  0  0
 13 14  1  0  0  0  0
 14 34  2  0  0  0  0
 14 15  1  0  0  0  0
 15 16  1  0  0  0  0
 16 17  1  0  0  0  0
 16 35  2  0  0  0  0
 17 18  2  0  0  0  0
 17 42  1  0  0  0  0
 18 19  1  0  0  0  0
 19 20  1  0  0  0  0
 19 36  2  0  0  0  0
 20 21  1  0  0  0  0
 21 22  1  0  0  0  0
 22 23  1  0  0  0  0
 22 44  1  0  0  0  0
 23 24  1  6  0  0  0
 23 36  1  0  0  0  0
 24 25  1  0  0  0  0
 25 26  2  0  0  0  0
 25 30  1  0  0  0  0
 26 27  1  0  0  0  0
 27 28  2  0  0  0  0
 28 29  1  0  0  0  0
 29 30  2  0  0  0  0
 32 33  2  0  0  0  0
 33 34  1  0  0  0  0
 34 45  1  0  0  0  0
 35 36  1  0  0  0  0
 38 39  1  0  0  0  0
 42 43  1  0  0  0  0
M  END
> <ID>
3329

> <Formula>
C37H42Cl2N2O6

> <FW>
681.6452 (609.7307+35.4535+36.4609)

> <DSSTox_CID>
3727

> <DSSTox_RID>
77168

> <DSSTox_GSID>
23727

> <DSSTox_FileID_Sort>
1851

> <TS_ChemName>
(+)-Tubocurarine chloride hydrochloride

> <TS_ChemName_Synonyms>
Tubocurarine; d-Tubocurarine chloride hydrochloride

> <TS_CASRN>
57-94-3

> <CASRN_ChemName_Relationship>
primary

> <TS_Description>
single chemical compound

> <ChemNote>
ammonium; stereochem; parent  [57-95-4]

> <STRUCTURE_Shown>
tested chemical

> <STRUCTURE_Formula>
C37H42Cl2N2O6

> <STRUCTURE_MW>
681.6452

> <STRUCTURE_ChemType>
defined organic

> <STRUCTURE_DefinedOrganicForm>
salt complex

> <STRUCTURE_IUPAC>
7',12'-dihydroxy-6,6'-dimethoxy-2,2',2'-trimethyltubocuraran-2'-ium chloride hydrochloride (1:1:1)

> <STRUCTURE_SMILES>
[Cl-].Cl.Oc7ccc1cc7Oc5cc6[C@H](Cc4ccc(Oc2c3[C@@H](C1)[N+](C)(C)CCc3cc(OC)c2O)cc4)N(C)CCc6cc5OC

> <STRUCTURE_SMILES_Desalt>
Oc7ccc1cc7Oc5cc6[C@H](Cc4ccc(Oc2c3[C@@H](C1)[N+](C)(C)CCc3cc(OC)c2O)cc4)N(C)CCc6cc5OC

> <Substance_modify_yyyymmdd>
20080429

$$$$
