57-96-5
ChemmineR-0914142331XD

 29 32  0  0  0  0  0  0  0  0  1 V2000
    3.0120    0.0000    0.0000 C   0  0  0  0  0  0  0  0  0  0  0  0
    4.3363   -0.1428    0.0000 C   0  0  0  0  0  0  0  0  0  0  0  0
    4.8686   -1.3632    0.0000 C   0  0  0  0  0  0  0  0  0  0  0  0
    4.0896   -2.4408    0.0000 C   0  0  0  0  0  0  0  0  0  0  0  0
    4.6349   -3.6482    0.0000 N   0  0  0  0  0  0  0  0  0  0  0  0
    5.9332   -3.9209    0.0000 C   0  0  0  0  0  0  0  0  0  0  0  0
    6.9199   -3.0380    0.0000 O   0  0  0  0  0  0  0  0  0  0  0  0
    6.0760   -5.2451    0.0000 C   0  0  0  0  0  0  0  0  0  0  0  0
    7.2185   -5.9202    0.0000 C   0  0  0  0  0  0  0  0  0  0  0  0
    8.3740   -5.2451    0.0000 C   0  0  0  0  0  0  0  0  0  0  0  0
    9.5295   -5.9202    0.0000 S   0  0  0  0  0  0  0  0  0  0  0  0
    9.5295   -7.2445    0.0000 O   0  0  0  0  0  0  0  0  0  0  0  0
   10.6850   -5.2451    0.0000 C   0  0  0  0  0  0  0  0  0  0  0  0
   10.6850   -3.9209    0.0000 C   0  0  0  0  0  0  0  0  0  0  0  0
   11.8275   -3.2587    0.0000 C   0  0  0  0  0  0  0  0  0  0  0  0
   12.9830   -3.9209    0.0000 C   0  0  0  0  0  0  0  0  0  0  0  0
   12.9830   -5.2451    0.0000 C   0  0  0  0  0  0  0  0  0  0  0  0
   11.8275   -5.9202    0.0000 C   0  0  0  0  0  0  0  0  0  0  0  0
    4.8556   -5.7904    0.0000 C   0  0  0  0  0  0  0  0  0  0  0  0
    4.5830   -7.0887    0.0000 O   0  0  0  0  0  0  0  0  0  0  0  0
    3.9728   -4.8037    0.0000 N   0  0  0  0  0  0  0  0  0  0  0  0
    2.6485   -4.9465    0.0000 C   0  0  0  0  0  0  0  0  0  0  0  0
    2.1032   -6.1539    0.0000 C   0  0  0  0  0  0  0  0  0  0  0  0
    0.7790   -6.2967    0.0000 C   0  0  0  0  0  0  0  0  0  0  0  0
    0.0000   -5.2191    0.0000 C   0  0  0  0  0  0  0  0  0  0  0  0
    0.5453   -3.9988    0.0000 C   0  0  0  0  0  0  0  0  0  0  0  0
    1.8695   -3.8689    0.0000 C   0  0  0  0  0  0  0  0  0  0  0  0
    2.7654   -2.2980    0.0000 C   0  0  0  0  0  0  0  0  0  0  0  0
    2.2331   -1.0776    0.0000 C   0  0  0  0  0  0  0  0  0  0  0  0
  1  2  2  0  0  0  0
  1 29  1  0  0  0  0
  2  3  1  0  0  0  0
  3  4  2  0  0  0  0
  4  5  1  0  0  0  0
  4 28  1  0  0  0  0
  5  6  1  0  0  0  0
  5 21  1  0  0  0  0
  6  7  2  0  0  0  0
  6  8  1  0  0  0  0
  8  9  1  0  0  0  0
  8 19  1  0  0  0  0
  9 10  1  0  0  0  0
 10 11  1  0  0  0  0
 11 12  2  0  0  0  0
 11 13  1  0  0  0  0
 13 14  2  0  0  0  0
 13 18  1  0  0  0  0
 14 15  1  0  0  0  0
 15 16  2  0  0  0  0
 16 17  1  0  0  0  0
 17 18  2  0  0  0  0
 19 20  2  0  0  0  0
 19 21  1  0  0  0  0
 21 22  1  0  0  0  0
 22 23  2  0  0  0  0
 22 27  1  0  0  0  0
 23 24  1  0  0  0  0
 24 25  2  0  0  0  0
 25 26  1  0  0  0  0
 26 27  2  0  0  0  0
 28 29  2  0  0  0  0
M  END
> <ID>
3236

> <Formula>
C23H20N2O3S

> <FW>
404.4815

> <DSSTox_CID>
3618

> <DSSTox_RID>
77113

> <DSSTox_GSID>
23618

> <DSSTox_FileID_Sort>
1796

> <TS_ChemName>
Sulfinpyrazone

> <TS_ChemName_Synonyms>


> <TS_CASRN>
57-96-5

> <CASRN_ChemName_Relationship>
primary

> <TS_Description>
single chemical compound

> <ChemNote>


> <STRUCTURE_Shown>
tested chemical

> <STRUCTURE_Formula>
C23H20N2O3S

> <STRUCTURE_MW>
404.4815

> <STRUCTURE_ChemType>
defined organic

> <STRUCTURE_DefinedOrganicForm>
parent

> <STRUCTURE_IUPAC>
1,2-diphenyl-4-[2-(phenylsulfinyl)ethyl]pyrazolidine-3,5-dione

> <STRUCTURE_SMILES>
O=C4C(CCS(=O)c1ccccc1)C(=O)N(c2ccccc2)N4c3ccccc3

> <STRUCTURE_SMILES_Desalt>
O=C4C(CCS(=O)c1ccccc1)C(=O)N(c2ccccc2)N4c3ccccc3

> <Substance_modify_yyyymmdd>
20080429

$$$$
