573-58-0
ChemmineR-0914142331XD

 48 51  0  0  0  0  0  0  0  0  2 V2000
    0.0000   -7.1610    0.0000 Na   0  3  0  0  0  0  0  0  0  0  0  0
   24.2745   -5.1705    0.0000 Na   0  3  0  0  0  0  0  0  0  0  0  0
   22.4782   -5.7773    0.0000 O    0  5  0  0  0  0  0  0  0  0  0  0
   21.8227   -4.6364    0.0000 S    0  0  0  0  0  0  0  0  0  0  0  0
   22.9879   -3.9567    0.0000 O    0  0  0  0  0  0  0  0  0  0  0  0
   20.6818   -5.2918    0.0000 O    0  0  0  0  0  0  0  0  0  0  0  0
   21.1673   -3.4712    0.0000 C    0  0  0  0  0  0  0  0  0  0  0  0
   19.8565   -3.4712    0.0000 C    0  0  0  0  0  0  0  0  0  0  0  0
   19.2011   -2.3061    0.0000 C    0  0  0  0  0  0  0  0  0  0  0  0
   17.8660   -2.3061    0.0000 N    0  0  0  0  0  0  0  0  0  0  0  0
   17.1863   -3.4470    0.0000 N    0  0  0  0  0  0  0  0  0  0  0  0
   15.8512   -3.4470    0.0000 C    0  0  0  0  0  0  0  0  0  0  0  0
   15.1715   -4.5879    0.0000 C    0  0  0  0  0  0  0  0  0  0  0  0
   13.8364   -4.5879    0.0000 C    0  0  0  0  0  0  0  0  0  0  0  0
   13.1810   -3.4227    0.0000 C    0  0  0  0  0  0  0  0  0  0  0  0
   13.8607   -2.2575    0.0000 C    0  0  0  0  0  0  0  0  0  0  0  0
   15.1958   -2.2818    0.0000 C    0  0  0  0  0  0  0  0  0  0  0  0
   11.8702   -3.4227    0.0000 C    0  0  0  0  0  0  0  0  0  0  0  0
   11.2148   -4.5393    0.0000 C    0  0  0  0  0  0  0  0  0  0  0  0
    9.8797   -4.5393    0.0000 C    0  0  0  0  0  0  0  0  0  0  0  0
    9.2000   -3.3742    0.0000 C    0  0  0  0  0  0  0  0  0  0  0  0
    9.8797   -2.2575    0.0000 C    0  0  0  0  0  0  0  0  0  0  0  0
   11.2148   -2.2575    0.0000 C    0  0  0  0  0  0  0  0  0  0  0  0
    7.8892   -3.3742    0.0000 N    0  0  0  0  0  0  0  0  0  0  0  0
    7.2095   -4.5150    0.0000 N    0  0  0  0  0  0  0  0  0  0  0  0
    5.8744   -4.5150    0.0000 C    0  0  0  0  0  0  0  0  0  0  0  0
    5.1947   -5.6560    0.0000 C    0  0  0  0  0  0  0  0  0  0  0  0
    3.8596   -5.6317    0.0000 C    0  0  0  0  0  0  0  0  0  0  0  0
    3.2042   -4.4908    0.0000 C    0  0  0  0  0  0  0  0  0  0  0  0
    1.8691   -4.4908    0.0000 C    0  0  0  0  0  0  0  0  0  0  0  0
    1.2137   -3.3256    0.0000 C    0  0  0  0  0  0  0  0  0  0  0  0
    1.8934   -2.1847    0.0000 C    0  0  0  0  0  0  0  0  0  0  0  0
    3.2285   -2.1847    0.0000 C    0  0  0  0  0  0  0  0  0  0  0  0
    3.8839   -3.3499    0.0000 C    0  0  0  0  0  0  0  0  0  0  0  0
    5.2190   -3.3499    0.0000 C    0  0  0  0  0  0  0  0  0  0  0  0
    5.8744   -2.2090    0.0000 N    0  0  0  0  0  0  0  0  0  0  0  0
    3.1800   -6.7968    0.0000 S    0  0  0  0  0  0  0  0  0  0  0  0
    2.5003   -7.9377    0.0000 O    0  5  0  0  0  0  0  0  0  0  0  0
    4.3451   -7.4765    0.0000 O    0  0  0  0  0  0  0  0  0  0  0  0
    2.0633   -6.1414    0.0000 O    0  0  0  0  0  0  0  0  0  0  0  0
   19.8808   -1.1652    0.0000 C    0  0  0  0  0  0  0  0  0  0  0  0
   19.2011    0.0000    0.0000 N    0  0  0  0  0  0  0  0  0  0  0  0
   21.2159   -1.1652    0.0000 C    0  0  0  0  0  0  0  0  0  0  0  0
   21.8713   -0.0243    0.0000 C    0  0  0  0  0  0  0  0  0  0  0  0
   23.2064   -0.0243    0.0000 C    0  0  0  0  0  0  0  0  0  0  0  0
   23.8618   -1.1652    0.0000 C    0  0  0  0  0  0  0  0  0  0  0  0
   23.1821   -2.3303    0.0000 C    0  0  0  0  0  0  0  0  0  0  0  0
   21.8470   -2.3061    0.0000 C    0  0  0  0  0  0  0  0  0  0  0  0
  3  4  1  0  0  0  0
  4  5  2  0  0  0  0
  4  6  2  0  0  0  0
  4  7  1  0  0  0  0
  7  8  2  0  0  0  0
  7 48  1  0  0  0  0
  8  9  1  0  0  0  0
  9 10  1  0  0  0  0
  9 41  2  0  0  0  0
 10 11  2  0  0  0  0
 11 12  1  0  0  0  0
 12 13  2  0  0  0  0
 12 17  1  0  0  0  0
 13 14  1  0  0  0  0
 14 15  2  0  0  0  0
 15 16  1  0  0  0  0
 15 18  1  0  0  0  0
 16 17  2  0  0  0  0
 18 19  2  0  0  0  0
 18 23  1  0  0  0  0
 19 20  1  0  0  0  0
 20 21  2  0  0  0  0
 21 22  1  0  0  0  0
 21 24  1  0  0  0  0
 22 23  2  0  0  0  0
 24 25  2  0  0  0  0
 25 26  1  0  0  0  0
 26 27  2  0  0  0  0
 26 35  1  0  0  0  0
 27 28  1  0  0  0  0
 28 29  2  0  0  0  0
 28 37  1  0  0  0  0
 29 30  1  0  0  0  0
 29 34  1  0  0  0  0
 30 31  2  0  0  0  0
 31 32  1  0  0  0  0
 32 33  2  0  0  0  0
 33 34  1  0  0  0  0
 34 35  2  0  0  0  0
 35 36  1  0  0  0  0
 37 38  1  0  0  0  0
 37 39  2  0  0  0  0
 37 40  2  0  0  0  0
 41 42  1  0  0  0  0
 41 43  1  0  0  0  0
 43 44  2  0  0  0  0
 43 48  1  0  0  0  0
 44 45  1  0  0  0  0
 45 46  2  0  0  0  0
 46 47  1  0  0  0  0
 47 48  2  0  0  0  0
M  END
> <ID>
2547

> <Formula>
C32H22N6Na2O6S2

> <FW>
696.6632 (22.9892+22.9892+650.6848)

> <DSSTox_CID>
2816

> <DSSTox_RID>
76742

> <DSSTox_GSID>
22816

> <DSSTox_FileID_Sort>
1426

> <TS_ChemName>
C.I. Direct Red 28

> <TS_ChemName_Synonyms>
C.I. Direct Red 28 (Congo red)

> <TS_CASRN>
573-58-0

> <CASRN_ChemName_Relationship>
primary

> <TS_Description>
single chemical compound

> <ChemNote>
C.I. 22120; parent [14684-01-6]

> <STRUCTURE_Shown>
tested chemical

> <STRUCTURE_Formula>
C32H22N6Na2O6S2

> <STRUCTURE_MW>
696.6632

> <STRUCTURE_ChemType>
defined organic

> <STRUCTURE_DefinedOrganicForm>
salt

> <STRUCTURE_IUPAC>
disodium 3,3'-[biphenyl-4,4'-diyldi(E)diazene-2,1-diyl]bis(4-aminonaphthalene-1-sulfonate)

> <STRUCTURE_SMILES>
[Na+].[Na+].[O-]S(=O)(=O)c5cc(/N=N/c1ccc(cc1)c2ccc(cc2)/N=N/c3cc(c4ccccc4c3N)S([O-])(=O)=O)c(N)c6ccccc56

> <STRUCTURE_SMILES_Desalt>
O=S(=O)(O)c5cc(/N=N/c1ccc(cc1)c2ccc(cc2)/N=N/c3cc(c4ccccc4c3N)S(=O)(=O)O)c(N)c6ccccc56

> <Substance_modify_yyyymmdd>
20080429

$$$$
