577-11-7
ChemmineR-0914142331XD

 29 27  0  0  0  0  0  0  0  0  2 V2000
    5.7424   -1.3349    0.0000 S    0  0  0  0  0  0  0  0  0  0  0  0
    5.7424   -2.6583    0.0000 C    0  0  0  0  0  0  0  0  0  0  0  0
    4.6031   -3.3373    0.0000 C    0  0  0  0  0  0  0  0  0  0  0  0
    6.9047   -3.3373    0.0000 C    0  0  0  0  0  0  0  0  0  0  0  0
    3.4408   -2.6583    0.0000 C    0  0  0  0  0  0  0  0  0  0  0  0
    7.0773   -1.3349    0.0000 O    0  0  0  0  0  0  0  0  0  0  0  0
    4.4190   -1.3349    0.0000 O    0  0  0  0  0  0  0  0  0  0  0  0
    5.7424    0.0000    0.0000 O    0  5  0  0  0  0  0  0  0  0  0  0
    8.0440   -2.6583    0.0000 O    0  0  0  0  0  0  0  0  0  0  0  0
    6.9047   -4.6607    0.0000 O    0  0  0  0  0  0  0  0  0  0  0  0
    3.4408   -1.3349    0.0000 O    0  0  0  0  0  0  0  0  0  0  0  0
    2.3016   -3.3373    0.0000 O    0  0  0  0  0  0  0  0  0  0  0  0
    9.2063   -3.3373    0.0000 C    0  0  0  0  0  0  0  0  0  0  0  0
    2.3016   -4.6607    0.0000 C    0  0  0  0  0  0  0  0  0  0  0  0
   10.3456   -2.6583    0.0000 C    0  0  0  0  0  0  0  0  0  0  0  0
    1.1393   -5.3166    0.0000 C    0  0  0  0  0  0  0  0  0  0  0  0
    0.0000   -4.6607    0.0000 C    0  0  0  0  0  0  0  0  0  0  0  0
   10.3456   -1.3349    0.0000 C    0  0  0  0  0  0  0  0  0  0  0  0
   11.5078   -3.3373    0.0000 C    0  0  0  0  0  0  0  0  0  0  0  0
    1.1393   -6.6400    0.0000 C    0  0  0  0  0  0  0  0  0  0  0  0
   10.3456   -5.3166    0.0000 C    0  0  0  0  0  0  0  0  0  0  0  0
    3.4408   -6.6400    0.0000 C    0  0  0  0  0  0  0  0  0  0  0  0
    2.3016   -7.3190    0.0000 C    0  0  0  0  0  0  0  0  0  0  0  0
   11.5078   -4.6607    0.0000 C    0  0  0  0  0  0  0  0  0  0  0  0
    0.0000   -3.3373    0.0000 C    0  0  0  0  0  0  0  0  0  0  0  0
    9.2063   -0.6790    0.0000 C    0  0  0  0  0  0  0  0  0  0  0  0
   10.3456   -6.6400    0.0000 C    0  0  0  0  0  0  0  0  0  0  0  0
    4.6031   -7.3190    0.0000 C    0  0  0  0  0  0  0  0  0  0  0  0
    6.8242   -0.0575    0.0000 Na   0  3  0  0  0  0  0  0  0  0  0  0
  1  2  1  0  0  0  0
  1  6  2  0  0  0  0
  1  7  2  0  0  0  0
  1  8  1  0  0  0  0
  2  3  1  0  0  0  0
  2  4  1  0  0  0  0
  3  5  1  0  0  0  0
  4  9  1  0  0  0  0
  4 10  2  0  0  0  0
  5 11  2  0  0  0  0
  5 12  1  0  0  0  0
  9 13  1  0  0  0  0
 12 14  1  0  0  0  0
 13 15  1  0  0  0  0
 14 16  1  0  0  0  0
 15 18  1  0  0  0  0
 15 19  1  0  0  0  0
 16 17  1  0  0  0  0
 16 20  1  0  0  0  0
 17 25  1  0  0  0  0
 18 26  1  0  0  0  0
 19 24  1  0  0  0  0
 20 23  1  0  0  0  0
 21 24  1  0  0  0  0
 21 27  1  0  0  0  0
 22 23  1  0  0  0  0
 22 28  1  0  0  0  0
M  END
> <ID>
2664

> <Formula>
C20H37NaO7S

> <FW>
444.5583 (421.5691+22.9892)

> <DSSTox_CID>
2959

> <DSSTox_RID>
76808

> <DSSTox_GSID>
22959

> <DSSTox_FileID_Sort>
1492

> <TS_ChemName>
Docusate sodium

> <TS_ChemName_Synonyms>
Docusate sodium (Butanedioic acid, sulfo-, 1,4-bis(2-ethylhexyl) ester, sodium salt) (Bis(2-ethylhexyl) sodium sulfosuccinate) (Butanedioic acid, sulfo-, 1,4-dioctyl ester, sodium salt)

> <TS_CASRN>
577-11-7

> <CASRN_ChemName_Relationship>
primary

> <TS_Description>
single chemical compound

> <ChemNote>
parent [10041-19-7]

> <STRUCTURE_Shown>
tested chemical

> <STRUCTURE_Formula>
C20H37NaO7S

> <STRUCTURE_MW>
444.5583

> <STRUCTURE_ChemType>
defined organic

> <STRUCTURE_DefinedOrganicForm>
salt

> <STRUCTURE_IUPAC>
sodium 1,4-bis[(2-ethylhexyl)oxy]-1,4-dioxobutane-2-sulfonate

> <STRUCTURE_SMILES>
[Na+].O=S(=O)([O-])C(CC(=O)OCC(CC)CCCC)C(=O)OCC(CC)CCCC

> <STRUCTURE_SMILES_Desalt>
O=S(=O)(O)C(CC(=O)OCC(CC)CCCC)C(=O)OCC(CC)CCCC

> <Substance_modify_yyyymmdd>
20080429

$$$$
