58-15-1
ChemmineR-0914142331XD

 17 18  0  0  0  0  0  0  0  0  1 V2000
    4.3628   -4.6875    0.0000 O   0  0  0  0  0  0  0  0  0  0  0  0
    4.7708   -3.4220    0.0000 C   0  0  0  0  0  0  0  0  0  0  0  0
    3.9882   -2.3396    0.0000 N   0  0  0  0  0  0  0  0  0  0  0  0
    2.6560   -2.3396    0.0000 C   0  0  0  0  0  0  0  0  0  0  0  0
    1.9982   -3.4969    0.0000 C   0  0  0  0  0  0  0  0  0  0  0  0
    0.6661   -3.4969    0.0000 C   0  0  0  0  0  0  0  0  0  0  0  0
    0.0000   -2.3396    0.0000 C   0  0  0  0  0  0  0  0  0  0  0  0
    0.6661   -1.1906    0.0000 C   0  0  0  0  0  0  0  0  0  0  0  0
    1.9982   -1.1906    0.0000 C   0  0  0  0  0  0  0  0  0  0  0  0
    4.7708   -1.2656    0.0000 N   0  0  0  0  0  0  0  0  0  0  0  0
    6.0364   -1.6819    0.0000 C   0  0  0  0  0  0  0  0  0  0  0  0
    6.0364   -3.0057    0.0000 C   0  0  0  0  0  0  0  0  0  0  0  0
    7.1104   -3.7883    0.0000 N   0  0  0  0  0  0  0  0  0  0  0  0
    8.3260   -3.2471    0.0000 C   0  0  0  0  0  0  0  0  0  0  0  0
    7.0854   -5.1122    0.0000 C   0  0  0  0  0  0  0  0  0  0  0  0
    7.1104   -0.8992    0.0000 C   0  0  0  0  0  0  0  0  0  0  0  0
    4.3628    0.0000    0.0000 C   0  0  0  0  0  0  0  0  0  0  0  0
  1  2  2  0  0  0  0
  2  3  1  0  0  0  0
  2 12  1  0  0  0  0
  3  4  1  0  0  0  0
  3 10  1  0  0  0  0
  4  5  2  0  0  0  0
  4  9  1  0  0  0  0
  5  6  1  0  0  0  0
  6  7  2  0  0  0  0
  7  8  1  0  0  0  0
  8  9  2  0  0  0  0
 10 11  1  0  0  0  0
 10 17  1  0  0  0  0
 11 12  2  0  0  0  0
 11 16  1  0  0  0  0
 12 13  1  0  0  0  0
 13 14  1  0  0  0  0
 13 15  1  0  0  0  0
M  END
> <ID>
487

> <Formula>
C13H17N3O

> <FW>
231.2936

> <DSSTox_CID>
504

> <DSSTox_RID>
75627

> <DSSTox_GSID>
20504

> <DSSTox_FileID_Sort>
311

> <TS_ChemName>
4-Dimethylaminoantipyrine

> <TS_ChemName_Synonyms>
4-Dimethylaminoantipyrine (Aminopyrine)

> <TS_CASRN>
58-15-1

> <CASRN_ChemName_Relationship>
primary

> <TS_Description>
single chemical compound

> <ChemNote>


> <STRUCTURE_Shown>
tested chemical

> <STRUCTURE_Formula>
C13H17N3O

> <STRUCTURE_MW>
231.2936

> <STRUCTURE_ChemType>
defined organic

> <STRUCTURE_DefinedOrganicForm>
parent

> <STRUCTURE_IUPAC>
4-(dimethylamino)-1,5-dimethyl-2-phenyl-1,2-dihydro-3H-pyrazol-3-one

> <STRUCTURE_SMILES>
CN(C)C=2C(=O)N(c1ccccc1)N(C)C=2C

> <STRUCTURE_SMILES_Desalt>
CN(C)C=2C(=O)N(c1ccccc1)N(C)C=2C

> <Substance_modify_yyyymmdd>
20080429

$$$$
