58-55-9
ChemmineR-0914142331XD

 13 14  0  0  0  0  0  0  0  0  1 V2000
    2.3264   -3.9944    0.0000 N   0  0  0  0  0  0  0  0  0  0  0  0
    3.4677   -3.3250    0.0000 C   0  0  0  0  0  0  0  0  0  0  0  0
    1.1687   -2.0082    0.0000 N   0  0  0  0  0  0  0  0  0  0  0  0
    1.1687   -3.3250    0.0000 C   0  0  0  0  0  0  0  0  0  0  0  0
    3.4677   -2.0082    0.0000 C   0  0  0  0  0  0  0  0  0  0  0  0
    2.3264   -1.3333    0.0000 C   0  0  0  0  0  0  0  0  0  0  0  0
    4.7186   -3.7420    0.0000 N   0  0  0  0  0  0  0  0  0  0  0  0
    4.7186   -1.5912    0.0000 N   0  0  0  0  0  0  0  0  0  0  0  0
    5.4868   -2.6501    0.0000 C   0  0  0  0  0  0  0  0  0  0  0  0
    0.0000   -4.0108    0.0000 O   0  0  0  0  0  0  0  0  0  0  0  0
    2.3264    0.0000    0.0000 O   0  0  0  0  0  0  0  0  0  0  0  0
    2.3264   -5.3277    0.0000 C   0  0  0  0  0  0  0  0  0  0  0  0
    0.0000   -1.3168    0.0000 C   0  0  0  0  0  0  0  0  0  0  0  0
  1  2  1  0  0  0  0
  1  4  1  0  0  0  0
  1 12  1  0  0  0  0
  2  5  2  0  0  0  0
  2  7  1  0  0  0  0
  3  4  1  0  0  0  0
  3  6  1  0  0  0  0
  3 13  1  0  0  0  0
  4 10  2  0  0  0  0
  5  8  1  0  0  0  0
  5  6  1  0  0  0  0
  6 11  2  0  0  0  0
  7  9  2  0  0  0  0
  8  9  1  0  0  0  0
M  END
> <ID>
1283

> <Formula>
C7H8N4O2

> <FW>
180.164

> <DSSTox_CID>
1336

> <DSSTox_RID>
76090

> <DSSTox_GSID>
21336

> <DSSTox_FileID_Sort>
774

> <TS_ChemName>
Theophylline

> <TS_ChemName_Synonyms>
Theophylline (1H-Purine-2,6-dione, 3,7-dihydro-1,3-dimethyl-)

> <TS_CASRN>
58-55-9

> <CASRN_ChemName_Relationship>
primary

> <TS_Description>
single chemical compound

> <ChemNote>
tautomers

> <STRUCTURE_Shown>
tested chemical

> <STRUCTURE_Formula>
C7H8N4O2

> <STRUCTURE_MW>
180.164

> <STRUCTURE_ChemType>
defined organic

> <STRUCTURE_DefinedOrganicForm>
parent

> <STRUCTURE_IUPAC>
1,3-dimethyl-3,7-dihydro-1H-purine-2,6-dione

> <STRUCTURE_SMILES>
O=C2c1ncnc1N(C)C(=O)N2C

> <STRUCTURE_SMILES_Desalt>
O=C2c1ncnc1N(C)C(=O)N2C

> <Substance_modify_yyyymmdd>
20080429

$$$$
