58-73-1
ChemmineR-0914142331XD

 19 20  0  0  0  0  0  0  0  0  1 V2000
    0.6660   -2.3092    0.0000 C   0  0  0  0  0  0  0  0  0  0  0  0
    1.9979   -2.3092    0.0000 C   0  0  0  0  0  0  0  0  0  0  0  0
    2.6638   -3.4595    0.0000 C   0  0  0  0  0  0  0  0  0  0  0  0
    3.9957   -3.4595    0.0000 C   0  0  0  0  0  0  0  0  0  0  0  0
    4.6530   -2.3092    0.0000 C   0  0  0  0  0  0  0  0  0  0  0  0
    3.9957   -1.1503    0.0000 C   0  0  0  0  0  0  0  0  0  0  0  0
    4.6530    0.0000    0.0000 C   0  0  0  0  0  0  0  0  0  0  0  0
    5.9849    0.0000    0.0000 C   0  0  0  0  0  0  0  0  0  0  0  0
    6.6509   -1.1503    0.0000 C   0  0  0  0  0  0  0  0  0  0  0  0
    5.9849   -2.3092    0.0000 C   0  0  0  0  0  0  0  0  0  0  0  0
    4.6530   -4.6098    0.0000 O   0  0  0  0  0  0  0  0  0  0  0  0
    5.9849   -4.6098    0.0000 C   0  0  0  0  0  0  0  0  0  0  0  0
    6.6509   -3.4595    0.0000 C   0  0  0  0  0  0  0  0  0  0  0  0
    7.9828   -3.4595    0.0000 N   0  0  0  0  0  0  0  0  0  0  0  0
    8.6487   -2.3092    0.0000 C   0  0  0  0  0  0  0  0  0  0  0  0
    8.6487   -4.6098    0.0000 C   0  0  0  0  0  0  0  0  0  0  0  0
    1.9979   -4.6098    0.0000 C   0  0  0  0  0  0  0  0  0  0  0  0
    0.6660   -4.6098    0.0000 C   0  0  0  0  0  0  0  0  0  0  0  0
    0.0000   -3.4595    0.0000 C   0  0  0  0  0  0  0  0  0  0  0  0
  1  2  2  0  0  0  0
  1 19  1  0  0  0  0
  2  3  1  0  0  0  0
  3  4  1  0  0  0  0
  3 17  2  0  0  0  0
  4  5  1  0  0  0  0
  4 11  1  0  0  0  0
  5  6  2  0  0  0  0
  5 10  1  0  0  0  0
  6  7  1  0  0  0  0
  7  8  2  0  0  0  0
  8  9  1  0  0  0  0
  9 10  2  0  0  0  0
 11 12  1  0  0  0  0
 12 13  1  0  0  0  0
 13 14  1  0  0  0  0
 14 15  1  0  0  0  0
 14 16  1  0  0  0  0
 17 18  1  0  0  0  0
 18 19  2  0  0  0  0
M  END
> <ID>
2656

> <Formula>
C17H21NO

> <FW>
255.3547

> <DSSTox_CID>
2949

> <DSSTox_RID>
76803

> <DSSTox_GSID>
22949

> <DSSTox_FileID_Sort>
1487

> <TS_ChemName>
Diphenhydramine

> <TS_ChemName_Synonyms>


> <TS_CASRN>
58-73-1

> <CASRN_ChemName_Relationship>
primary

> <TS_Description>
single chemical compound

> <ChemNote>


> <STRUCTURE_Shown>
tested chemical

> <STRUCTURE_Formula>
C17H21NO

> <STRUCTURE_MW>
255.3547

> <STRUCTURE_ChemType>
defined organic

> <STRUCTURE_DefinedOrganicForm>
parent

> <STRUCTURE_IUPAC>
2-(diphenylmethoxy)-N,N-dimethylethanamine

> <STRUCTURE_SMILES>
CN(C)CCOC(c1ccccc1)c2ccccc2

> <STRUCTURE_SMILES_Desalt>
CN(C)CCOC(c1ccccc1)c2ccccc2

> <Substance_modify_yyyymmdd>
20080429

$$$$
