5834-17-3
ChemmineR-0914142331XD

 16 18  0  0  0  0  0  0  0  0  1 V2000
    1.1500    0.0000    0.0000 N   0  0  0  0  0  0  0  0  0  0  0  0
    2.2999   -0.6644    0.0000 C   0  0  0  0  0  0  0  0  0  0  0  0
    2.2999   -1.9933    0.0000 C   0  0  0  0  0  0  0  0  0  0  0  0
    3.4584   -2.6577    0.0000 C   0  0  0  0  0  0  0  0  0  0  0  0
    4.6084   -1.9933    0.0000 C   0  0  0  0  0  0  0  0  0  0  0  0
    5.8690   -2.4021    0.0000 C   0  0  0  0  0  0  0  0  0  0  0  0
    6.6527   -1.3288    0.0000 C   0  0  0  0  0  0  0  0  0  0  0  0
    7.9730   -1.4651    0.0000 C   0  0  0  0  0  0  0  0  0  0  0  0
    8.5182   -2.6832    0.0000 C   0  0  0  0  0  0  0  0  0  0  0  0
    7.7345   -3.7565    0.0000 C   0  0  0  0  0  0  0  0  0  0  0  0
    6.4142   -3.6202    0.0000 C   0  0  0  0  0  0  0  0  0  0  0  0
    5.8690   -0.2470    0.0000 O   0  0  0  0  0  0  0  0  0  0  0  0
    4.6084   -0.6644    0.0000 C   0  0  0  0  0  0  0  0  0  0  0  0
    3.4584    0.0000    0.0000 C   0  0  0  0  0  0  0  0  0  0  0  0
    1.1500   -2.6577    0.0000 O   0  0  0  0  0  0  0  0  0  0  0  0
    0.0000   -1.9933    0.0000 C   0  0  0  0  0  0  0  0  0  0  0  0
  1  2  1  0  0  0  0
  2  3  2  0  0  0  0
  2 14  1  0  0  0  0
  3  4  1  0  0  0  0
  3 15  1  0  0  0  0
  4  5  2  0  0  0  0
  5  6  1  0  0  0  0
  5 13  1  0  0  0  0
  6  7  2  0  0  0  0
  6 11  1  0  0  0  0
  7  8  1  0  0  0  0
  7 12  1  0  0  0  0
  8  9  2  0  0  0  0
  9 10  1  0  0  0  0
 10 11  2  0  0  0  0
 12 13  1  0  0  0  0
 13 14  2  0  0  0  0
 15 16  1  0  0  0  0
M  END
> <ID>
791

> <Formula>
C13H11NO2

> <FW>
213.2319

> <DSSTox_CID>
825

> <DSSTox_RID>
75811

> <DSSTox_GSID>
20825

> <DSSTox_FileID_Sort>
495

> <TS_ChemName>
2-Methoxy-3-aminodibenzofuran

> <TS_ChemName_Synonyms>


> <TS_CASRN>
5834-17-3

> <CASRN_ChemName_Relationship>
primary

> <TS_Description>
single chemical compound

> <ChemNote>


> <STRUCTURE_Shown>
tested chemical

> <STRUCTURE_Formula>
C13H11NO2

> <STRUCTURE_MW>
213.2319

> <STRUCTURE_ChemType>
defined organic

> <STRUCTURE_DefinedOrganicForm>
parent

> <STRUCTURE_IUPAC>
2-methoxydibenzo[b,d]furan-3-amine

> <STRUCTURE_SMILES>
COc1cc2c3ccccc3oc2cc1N

> <STRUCTURE_SMILES_Desalt>
COc1cc2c3ccccc3oc2cc1N

> <Substance_modify_yyyymmdd>
20080429

$$$$
