59-05-2
ChemmineR-0914142331XD

 33 35  0  0  1  0  0  0  0  0  1 V2000
   14.9725   -5.3302    0.0000 N   0  0  0  0  0  0  0  0  0  0  0  0
   13.8197   -5.9890    0.0000 C   0  0  0  0  0  0  0  0  0  0  0  0
   12.6668   -5.3302    0.0000 C   0  0  0  0  0  0  0  0  0  0  0  0
   11.5139   -5.9890    0.0000 C   0  0  0  0  0  0  0  0  0  0  0  0
   11.5139   -7.3216    0.0000 N   0  0  0  0  0  0  0  0  0  0  0  0
   12.6668   -7.9804    0.0000 C   0  0  0  0  0  0  0  0  0  0  0  0
   13.8197   -7.3216    0.0000 N   0  0  0  0  0  0  0  0  0  0  0  0
   12.6668   -9.3129    0.0000 N   0  0  0  0  0  0  0  0  0  0  0  0
   10.3610   -5.3302    0.0000 N   0  0  0  0  0  0  0  0  0  0  0  0
   10.3610   -3.9977    0.0000 C   0  0  0  0  0  0  0  0  0  0  0  0
   11.5139   -3.3239    0.0000 C   0  0  0  0  0  0  0  0  0  0  0  0
   12.6668   -3.9977    0.0000 N   0  0  0  0  0  0  0  0  0  0  0  0
   11.5139   -1.9913    0.0000 C   0  0  0  0  0  0  0  0  0  0  0  0
   10.3610   -1.3326    0.0000 N   0  0  0  0  0  0  0  0  0  0  0  0
    9.2081   -1.9913    0.0000 C   0  0  0  0  0  0  0  0  0  0  0  0
    9.2081   -3.3239    0.0000 C   0  0  0  0  0  0  0  0  0  0  0  0
    8.0552   -3.9977    0.0000 C   0  0  0  0  0  0  0  0  0  0  0  0
    6.9173   -3.3239    0.0000 C   0  0  0  0  0  0  0  0  0  0  0  0
    6.9173   -1.9913    0.0000 C   0  0  0  0  0  0  0  0  0  0  0  0
    8.0552   -1.3326    0.0000 C   0  0  0  0  0  0  0  0  0  0  0  0
    5.7644   -3.9977    0.0000 C   0  0  0  0  0  0  0  0  0  0  0  0
    4.6115   -3.3239    0.0000 O   0  0  0  0  0  0  0  0  0  0  0  0
    5.7644   -5.3302    0.0000 N   0  0  0  0  0  0  0  0  0  0  0  0
    4.6115   -5.9890    0.0000 C   0  0  0  0  0  0  0  0  0  0  0  0
    3.4587   -5.3302    0.0000 C   0  0  0  0  0  0  0  0  0  0  0  0
    2.3058   -5.9890    0.0000 C   0  0  0  0  0  0  0  0  0  0  0  0
    1.1529   -5.3302    0.0000 C   0  0  0  0  0  0  0  0  0  0  0  0
    1.1529   -3.9977    0.0000 O   0  0  0  0  0  0  0  0  0  0  0  0
    0.0000   -5.9890    0.0000 O   0  0  0  0  0  0  0  0  0  0  0  0
    4.6115   -7.3216    0.0000 C   0  0  0  0  0  0  0  0  0  0  0  0
    3.4587   -7.9804    0.0000 O   0  0  0  0  0  0  0  0  0  0  0  0
    5.7644   -7.9804    0.0000 O   0  0  0  0  0  0  0  0  0  0  0  0
   10.3610    0.0000    0.0000 C   0  0  0  0  0  0  0  0  0  0  0  0
  1  2  1  0  0  0  0
  2  3  2  0  0  0  0
  2  7  1  0  0  0  0
  3  4  1  0  0  0  0
  3 12  1  0  0  0  0
  4  5  2  0  0  0  0
  4  9  1  0  0  0  0
  5  6  1  0  0  0  0
  6  7  2  0  0  0  0
  6  8  1  0  0  0  0
  9 10  2  0  0  0  0
 10 11  1  0  0  0  0
 11 12  2  0  0  0  0
 11 13  1  0  0  0  0
 13 14  1  0  0  0  0
 14 15  1  0  0  0  0
 14 33  1  0  0  0  0
 15 16  2  0  0  0  0
 15 20  1  0  0  0  0
 16 17  1  0  0  0  0
 17 18  2  0  0  0  0
 18 19  1  0  0  0  0
 18 21  1  0  0  0  0
 19 20  2  0  0  0  0
 21 22  2  0  0  0  0
 21 23  1  0  0  0  0
 24 23  1  6  0  0  0
 24 25  1  0  0  0  0
 24 30  1  0  0  0  0
 25 26  1  0  0  0  0
 26 27  1  0  0  0  0
 27 28  2  0  0  0  0
 27 29  1  0  0  0  0
 30 31  2  0  0  0  0
 30 32  1  0  0  0  0
M  END
> <ID>
788

> <Formula>
C20H22N8O5

> <FW>
454.4393

> <DSSTox_CID>
822

> <DSSTox_RID>
75810

> <DSSTox_GSID>
20822

> <DSSTox_FileID_Sort>
494

> <TS_ChemName>
Methotrexate

> <TS_ChemName_Synonyms>
Methotrexate (MTX)

> <TS_CASRN>
59-05-2

> <CASRN_ChemName_Relationship>
primary

> <TS_Description>
single chemical compound

> <ChemNote>
stereochem

> <STRUCTURE_Shown>
tested chemical

> <STRUCTURE_Formula>
C20H22N8O5

> <STRUCTURE_MW>
454.4393

> <STRUCTURE_ChemType>
defined organic

> <STRUCTURE_DefinedOrganicForm>
parent

> <STRUCTURE_IUPAC>
N-(4-{[(2,4-diaminopteridin-6-yl)methyl](methyl)amino}benzoyl)-L-glutamic acid

> <STRUCTURE_SMILES>
O=C(O)[C@H](CCC(=O)O)NC(=O)c1ccc(cc1)N(C)Cc2nc3c(nc2)nc(N)nc3N

> <STRUCTURE_SMILES_Desalt>
O=C(O)[C@H](CCC(=O)O)NC(=O)c1ccc(cc1)N(C)Cc2nc3c(nc2)nc(N)nc3N

> <Substance_modify_yyyymmdd>
20080429

$$$$
