59-33-6
ChemmineR-0914142331XD

 29 29  0  0  0  0  0  0  0  0  1 V2000
    6.6462   -3.4454    0.0000 N   0  0  0  0  0  0  0  0  0  0  0  0
    7.9754   -3.4454    0.0000 C   0  0  0  0  0  0  0  0  0  0  0  0
    8.6453   -2.2969    0.0000 C   0  0  0  0  0  0  0  0  0  0  0  0
    9.9639   -2.2969    0.0000 C   0  0  0  0  0  0  0  0  0  0  0  0
   10.6338   -3.4454    0.0000 C   0  0  0  0  0  0  0  0  0  0  0  0
    9.9639   -4.6045    0.0000 C   0  0  0  0  0  0  0  0  0  0  0  0
    8.6453   -4.6045    0.0000 N   0  0  0  0  0  0  0  0  0  0  0  0
    5.9869   -4.6045    0.0000 C   0  0  0  0  0  0  0  0  0  0  0  0
    4.6576   -4.6045    0.0000 C   0  0  0  0  0  0  0  0  0  0  0  0
    3.9877   -5.7529    0.0000 C   0  0  0  0  0  0  0  0  0  0  0  0
    2.6585   -5.7529    0.0000 C   0  0  0  0  0  0  0  0  0  0  0  0
    1.9885   -4.6045    0.0000 C   0  0  0  0  0  0  0  0  0  0  0  0
    0.6593   -4.6045    0.0000 O   0  0  0  0  0  0  0  0  0  0  0  0
    0.0000   -5.7529    0.0000 C   0  0  0  0  0  0  0  0  0  0  0  0
    2.6585   -3.4454    0.0000 C   0  0  0  0  0  0  0  0  0  0  0  0
    3.9877   -3.4454    0.0000 C   0  0  0  0  0  0  0  0  0  0  0  0
    5.9869   -2.2969    0.0000 C   0  0  0  0  0  0  0  0  0  0  0  0
    4.6576   -2.2969    0.0000 C   0  0  0  0  0  0  0  0  0  0  0  0
    3.9877   -1.1485    0.0000 N   0  0  0  0  0  0  0  0  0  0  0  0
    2.6585   -1.1485    0.0000 C   0  0  0  0  0  0  0  0  0  0  0  0
    4.6576    0.0000    0.0000 C   0  0  0  0  0  0  0  0  0  0  0  0
    5.9869   -7.1672    0.0000 O   0  0  0  0  0  0  0  0  0  0  0  0
    6.6462   -8.3263    0.0000 C   0  0  0  0  0  0  0  0  0  0  0  0
    7.9754   -8.3263    0.0000 O   0  0  0  0  0  0  0  0  0  0  0  0
    5.9869   -9.4748    0.0000 C   0  0  0  0  0  0  0  0  0  0  0  0
    4.6576   -9.4748    0.0000 C   0  0  0  0  0  0  0  0  0  0  0  0
    3.9877   -8.3263    0.0000 C   0  0  0  0  0  0  0  0  0  0  0  0
    2.6585   -8.3263    0.0000 O   0  0  0  0  0  0  0  0  0  0  0  0
    4.6576   -7.1672    0.0000 O   0  0  0  0  0  0  0  0  0  0  0  0
  1  2  1  0  0  0  0
  1  8  1  0  0  0  0
  1 17  1  0  0  0  0
  2  3  1  0  0  0  0
  2  7  2  0  0  0  0
  3  4  2  0  0  0  0
  4  5  1  0  0  0  0
  5  6  2  0  0  0  0
  6  7  1  0  0  0  0
  8  9  1  0  0  0  0
  9 10  1  0  0  0  0
  9 16  2  0  0  0  0
 10 11  2  0  0  0  0
 11 12  1  0  0  0  0
 12 13  1  0  0  0  0
 12 15  2  0  0  0  0
 13 14  1  0  0  0  0
 15 16  1  0  0  0  0
 17 18  1  0  0  0  0
 18 19  1  0  0  0  0
 19 20  1  0  0  0  0
 19 21  1  0  0  0  0
 22 23  1  0  0  0  0
 23 24  2  0  0  0  0
 23 25  1  0  0  0  0
 25 26  2  0  0  0  0
 26 27  1  0  0  0  0
 27 28  1  0  0  0  0
 27 29  2  0  0  0  0
M  END
> <ID>
1170

> <Formula>
C21H27N3O5

> <FW>
401.4562 (285.3840+116.0722)

> <DSSTox_CID>
1216

> <DSSTox_RID>
76015

> <DSSTox_GSID>
21216

> <DSSTox_FileID_Sort>
699

> <TS_ChemName>
Pyrilamine maleate

> <TS_ChemName_Synonyms>


> <TS_CASRN>
59-33-6

> <CASRN_ChemName_Relationship>
primary

> <TS_Description>
single chemical compound

> <ChemNote>
parent [91-84-9]

> <STRUCTURE_Shown>
tested chemical

> <STRUCTURE_Formula>
C21H27N3O5

> <STRUCTURE_MW>
401.4562

> <STRUCTURE_ChemType>
defined organic

> <STRUCTURE_DefinedOrganicForm>
complex

> <STRUCTURE_IUPAC>
N-(4-methoxybenzyl)-N',N'-dimethyl-N-(pyridin-2-yl)ethane-1,2-diamine (2Z)-but-2-enedioate (1:1)

> <STRUCTURE_SMILES>
O=C(O)/C=C\C(=O)O.COc1ccc(cc1)CN(CCN(C)C)c2ccccn2

> <STRUCTURE_SMILES_Desalt>
COc1ccc(cc1)CN(CCN(C)C)c2ccccn2

> <Substance_modify_yyyymmdd>
20080429

$$$$
