59-66-5
ChemmineR-0914142331XD

 13 13  0  0  0  0  0  0  0  0  1 V2000
    4.7048   -2.3564    0.0000 N   0  0  0  0  0  0  0  0  0  0  0  0
    3.4378   -2.7680    0.0000 N   0  0  0  0  0  0  0  0  0  0  0  0
    2.6550   -1.6866    0.0000 C   0  0  0  0  0  0  0  0  0  0  0  0
    1.3316   -1.6866    0.0000 S   0  0  0  0  0  0  0  0  0  0  0  0
    0.0000   -1.6866    0.0000 N   0  0  0  0  0  0  0  0  0  0  0  0
    1.3316   -3.0182    0.0000 O   0  0  0  0  0  0  0  0  0  0  0  0
    1.3316   -0.3632    0.0000 O   0  0  0  0  0  0  0  0  0  0  0  0
    3.4378   -0.6133    0.0000 S   0  0  0  0  0  0  0  0  0  0  0  0
    4.7048   -1.0249    0.0000 C   0  0  0  0  0  0  0  0  0  0  0  0
    5.7781   -0.2421    0.0000 N   0  0  0  0  0  0  0  0  0  0  0  0
    6.9967   -0.7828    0.0000 C   0  0  0  0  0  0  0  0  0  0  0  0
    8.0700    0.0000    0.0000 C   0  0  0  0  0  0  0  0  0  0  0  0
    7.1339   -2.1063    0.0000 O   0  0  0  0  0  0  0  0  0  0  0  0
  1  2  1  0  0  0  0
  1  9  2  0  0  0  0
  2  3  2  0  0  0  0
  3  4  1  0  0  0  0
  3  8  1  0  0  0  0
  4  5  1  0  0  0  0
  4  6  2  0  0  0  0
  4  7  2  0  0  0  0
  8  9  1  0  0  0  0
  9 10  1  0  0  0  0
 10 11  1  0  0  0  0
 11 12  1  0  0  0  0
 11 13  2  0  0  0  0
M  END
> <ID>
2308

> <Formula>
C4H6N4O3S2

> <FW>
222.2454

> <DSSTox_CID>
2544

> <DSSTox_RID>
76621

> <DSSTox_GSID>
22544

> <DSSTox_FileID_Sort>
1305

> <TS_ChemName>
Acetazolamide

> <TS_ChemName_Synonyms>


> <TS_CASRN>
59-66-5

> <CASRN_ChemName_Relationship>
primary

> <TS_Description>
single chemical compound

> <ChemNote>


> <STRUCTURE_Shown>
tested chemical

> <STRUCTURE_Formula>
C4H6N4O3S2

> <STRUCTURE_MW>
222.2454

> <STRUCTURE_ChemType>
defined organic

> <STRUCTURE_DefinedOrganicForm>
parent

> <STRUCTURE_IUPAC>
N-(5-sulfamoyl-1,3,4-thiadiazol-2-yl)acetamide

> <STRUCTURE_SMILES>
O=S(N)(=O)c1nnc(NC(C)=O)s1

> <STRUCTURE_SMILES_Desalt>
O=S(N)(=O)c1nnc(NC(C)=O)s1

> <Substance_modify_yyyymmdd>
20080429

$$$$
