59-92-7
ChemmineR-0914142331XD

 14 14  0  0  1  0  0  0  0  0  1 V2000
    2.3043   -3.9882    0.0000 C   0  0  0  0  0  0  0  0  0  0  0  0
    1.1521   -3.3275    0.0000 C   0  0  0  0  0  0  0  0  0  0  0  0
    0.0000   -3.9882    0.0000 O   0  0  0  0  0  0  0  0  0  0  0  0
    1.1521   -1.9981    0.0000 C   0  0  0  0  0  0  0  0  0  0  0  0
    0.0000   -1.3294    0.0000 O   0  0  0  0  0  0  0  0  0  0  0  0
    2.3043   -1.3294    0.0000 C   0  0  0  0  0  0  0  0  0  0  0  0
    3.4564   -1.9981    0.0000 C   0  0  0  0  0  0  0  0  0  0  0  0
    4.6005   -1.3294    0.0000 C   0  0  0  0  0  0  0  0  0  0  0  0
    5.7526   -1.9981    0.0000 C   0  0  0  0  0  0  0  0  0  0  0  0
    5.7526   -3.3275    0.0000 N   0  0  0  0  0  0  0  0  0  0  0  0
    6.9048   -1.3294    0.0000 C   0  0  0  0  0  0  0  0  0  0  0  0
    8.0569   -1.9981    0.0000 O   0  0  0  0  0  0  0  0  0  0  0  0
    6.9048    0.0000    0.0000 O   0  0  0  0  0  0  0  0  0  0  0  0
    3.4564   -3.3275    0.0000 C   0  0  0  0  0  0  0  0  0  0  0  0
  1  2  2  0  0  0  0
  1 14  1  0  0  0  0
  2  3  1  0  0  0  0
  2  4  1  0  0  0  0
  4  5  1  0  0  0  0
  4  6  2  0  0  0  0
  6  7  1  0  0  0  0
  7  8  1  0  0  0  0
  7 14  2  0  0  0  0
  8  9  1  0  0  0  0
  9 10  1  1  0  0  0
  9 11  1  0  0  0  0
 11 12  1  0  0  0  0
 11 13  2  0  0  0  0
M  END
> <ID>
2885

> <Formula>
C9H11NO4

> <FW>
197.1879

> <DSSTox_CID>
3209

> <DSSTox_RID>
76926

> <DSSTox_GSID>
23209

> <DSSTox_FileID_Sort>
1610

> <TS_ChemName>
L-Dopa

> <TS_ChemName_Synonyms>
L-Dopa (Levodopa)

> <TS_CASRN>
59-92-7

> <CASRN_ChemName_Relationship>
primary

> <TS_Description>
single chemical compound

> <ChemNote>
stereochem

> <STRUCTURE_Shown>
tested chemical

> <STRUCTURE_Formula>
C9H11NO4

> <STRUCTURE_MW>
197.1879

> <STRUCTURE_ChemType>
defined organic

> <STRUCTURE_DefinedOrganicForm>
parent

> <STRUCTURE_IUPAC>
3-hydroxy-L-tyrosine

> <STRUCTURE_SMILES>
Oc1ccc(C[C@H](N)C(=O)O)cc1O

> <STRUCTURE_SMILES_Desalt>
Oc1ccc(C[C@H](N)C(=O)O)cc1O

> <Substance_modify_yyyymmdd>
20080429

$$$$
