59017-64-0
ChemmineR-0914142331XD

 43 44  0  0  0  0  0  0  0  0  1 V2000
    3.3204   -2.3105    0.0000 I   0  0  0  0  0  0  0  0  0  0  0  0
    3.9937   -3.4582    0.0000 C   0  0  0  0  0  0  0  0  0  0  0  0
    5.3250   -3.4582    0.0000 C   0  0  0  0  0  0  0  0  0  0  0  0
    5.9829   -4.6058    0.0000 C   0  0  0  0  0  0  0  0  0  0  0  0
    7.3142   -4.6058    0.0000 I   0  0  0  0  0  0  0  0  0  0  0  0
    5.3250   -5.7687    0.0000 C   0  0  0  0  0  0  0  0  0  0  0  0
    3.9937   -5.7687    0.0000 C   0  0  0  0  0  0  0  0  0  0  0  0
    3.3204   -6.9163    0.0000 I   0  0  0  0  0  0  0  0  0  0  0  0
    3.3204   -4.6058    0.0000 C   0  0  0  0  0  0  0  0  0  0  0  0
    1.9892   -4.6058    0.0000 N   0  0  0  0  0  0  0  0  0  0  0  0
    1.3312   -3.4582    0.0000 C   0  0  0  0  0  0  0  0  0  0  0  0
    1.3312   -5.7687    0.0000 C   0  0  0  0  0  0  0  0  0  0  0  0
    1.9892   -6.9163    0.0000 C   0  0  0  0  0  0  0  0  0  0  0  0
    0.0000   -5.7687    0.0000 O   0  0  0  0  0  0  0  0  0  0  0  0
    5.9829   -6.9163    0.0000 C   0  0  0  0  0  0  0  0  0  0  0  0
    5.3250   -8.0639    0.0000 O   0  0  0  0  0  0  0  0  0  0  0  0
    7.3142   -6.9163    0.0000 N   0  0  0  0  0  0  0  0  0  0  0  0
    7.9874   -8.0639    0.0000 C   0  0  0  0  0  0  0  0  0  0  0  0
    9.3187   -8.0639    0.0000 C   0  0  0  0  0  0  0  0  0  0  0  0
    9.9766   -9.2269    0.0000 O   0  0  0  0  0  0  0  0  0  0  0  0
    9.9766   -6.9163    0.0000 N   0  0  0  0  0  0  0  0  0  0  0  0
   11.3079   -6.9163    0.0000 C   0  0  0  0  0  0  0  0  0  0  0  0
   11.9811   -5.7687    0.0000 C   0  0  0  0  0  0  0  0  0  0  0  0
   11.3079   -4.6058    0.0000 I   0  0  0  0  0  0  0  0  0  0  0  0
   13.3124   -5.7687    0.0000 C   0  0  0  0  0  0  0  0  0  0  0  0
   13.9704   -4.6058    0.0000 C   0  0  0  0  0  0  0  0  0  0  0  0
   15.3016   -4.6058    0.0000 O   0  0  0  0  0  0  0  0  0  0  0  0
   13.3124   -3.4582    0.0000 N   0  0  0  0  0  0  0  0  0  0  0  0
   13.9704   -2.3105    0.0000 C   0  0  0  0  0  0  0  0  0  0  0  0
   13.3124   -1.1629    0.0000 C   0  0  0  0  0  0  0  0  0  0  0  0
   13.9704    0.0000    0.0000 O   0  0  0  0  0  0  0  0  0  0  0  0
   13.9704   -6.9163    0.0000 C   0  0  0  0  0  0  0  0  0  0  0  0
   15.3016   -6.9163    0.0000 I   0  0  0  0  0  0  0  0  0  0  0  0
   13.3124   -8.0639    0.0000 C   0  0  0  0  0  0  0  0  0  0  0  0
   13.9704   -9.2269    0.0000 C   0  0  0  0  0  0  0  0  0  0  0  0
   13.3124  -10.3745    0.0000 O   0  0  0  0  0  0  0  0  0  0  0  0
   15.3016   -9.2269    0.0000 O   0  0  0  0  0  0  0  0  0  0  0  0
   11.9811   -8.0639    0.0000 C   0  0  0  0  0  0  0  0  0  0  0  0
   11.3079   -9.2269    0.0000 I   0  0  0  0  0  0  0  0  0  0  0  0
    5.9829   -2.3105    0.0000 C   0  0  0  0  0  0  0  0  0  0  0  0
    7.3142   -2.3105    0.0000 O   0  0  0  0  0  0  0  0  0  0  0  0
    5.3250   -1.1629    0.0000 N   0  0  0  0  0  0  0  0  0  0  0  0
    3.9937   -1.1629    0.0000 C   0  0  0  0  0  0  0  0  0  0  0  0
  1  2  1  0  0  0  0
  2  3  2  0  0  0  0
  2  9  1  0  0  0  0
  3  4  1  0  0  0  0
  3 40  1  0  0  0  0
  4  5  1  0  0  0  0
  4  6  2  0  0  0  0
  6  7  1  0  0  0  0
  6 15  1  0  0  0  0
  7  8  1  0  0  0  0
  7  9  2  0  0  0  0
  9 10  1  0  0  0  0
 10 11  1  0  0  0  0
 10 12  1  0  0  0  0
 12 13  1  0  0  0  0
 12 14  2  0  0  0  0
 15 16  2  0  0  0  0
 15 17  1  0  0  0  0
 17 18  1  0  0  0  0
 18 19  1  0  0  0  0
 19 20  2  0  0  0  0
 19 21  1  0  0  0  0
 21 22  1  0  0  0  0
 22 23  2  0  0  0  0
 22 38  1  0  0  0  0
 23 24  1  0  0  0  0
 23 25  1  0  0  0  0
 25 26  1  0  0  0  0
 25 32  2  0  0  0  0
 26 27  2  0  0  0  0
 26 28  1  0  0  0  0
 28 29  1  0  0  0  0
 29 30  1  0  0  0  0
 30 31  1  0  0  0  0
 32 33  1  0  0  0  0
 32 34  1  0  0  0  0
 34 35  1  0  0  0  0
 34 38  2  0  0  0  0
 35 36  1  0  0  0  0
 35 37  2  0  0  0  0
 38 39  1  0  0  0  0
 40 41  2  0  0  0  0
 40 42  1  0  0  0  0
 42 43  1  0  0  0  0
M  END
> <ID>
2843

> <Formula>
C24H21I6N5O8

> <FW>
1268.8791

> <DSSTox_CID>
3166

> <DSSTox_RID>
76899

> <DSSTox_GSID>
23166

> <DSSTox_FileID_Sort>
1583

> <TS_ChemName>
Ioxaglic acid

> <TS_ChemName_Synonyms>


> <TS_CASRN>
59017-64-0

> <CASRN_ChemName_Relationship>
primary

> <TS_Description>
single chemical compound

> <ChemNote>


> <STRUCTURE_Shown>
tested chemical

> <STRUCTURE_Formula>
C24H21I6N5O8

> <STRUCTURE_MW>
1268.8791

> <STRUCTURE_ChemType>
defined organic

> <STRUCTURE_DefinedOrganicForm>
parent

> <STRUCTURE_IUPAC>
3-[(N-{3-[acetyl(methyl)amino]-2,4,6-triiodo-5-(methylcarbamoyl)benzoyl}glycyl)amino]-5-[(2-hydroxyethyl)carbamoyl]-2,4,6-triiodobenzoic acid

> <STRUCTURE_SMILES>
Ic1c(c(I)c(c(I)c1N(C)C(C)=O)C(=O)NC)C(=O)NCC(=O)Nc2c(I)c(C(=O)NCCO)c(I)c(C(=O)O)c2I

> <STRUCTURE_SMILES_Desalt>
Ic1c(c(I)c(c(I)c1N(C)C(C)=O)C(=O)NC)C(=O)NCC(=O)Nc2c(I)c(C(=O)NCCO)c(I)c(C(=O)O)c2I

> <Substance_modify_yyyymmdd>
20080429

$$$$
