59122-46-2
ChemmineR-0914142331XD

 27 27  0  0  1  0  0  0  0  0  1 V2000
    8.5749   -0.6583    0.0000 C   0  0  0  0  0  0  0  0  0  0  0  0
    9.7270    0.0000    0.0000 C   0  0  0  0  0  0  0  0  0  0  0  0
   10.7145   -0.8888    0.0000 C   0  0  0  0  0  0  0  0  0  0  0  0
   10.1713   -2.1067    0.0000 C   0  0  0  0  0  0  0  0  0  0  0  0
    8.8382   -1.9586    0.0000 C   0  0  0  0  0  0  0  0  0  0  0  0
    7.9494   -2.9461    0.0000 C   0  0  0  0  0  0  0  0  0  0  0  0
    6.6657   -2.6169    0.0000 C   0  0  0  0  0  0  0  0  0  0  0  0
    5.7275   -3.5550    0.0000 C   0  0  0  0  0  0  0  0  0  0  0  0
    4.4438   -3.2094    0.0000 C   0  0  0  0  0  0  0  0  0  0  0  0
    3.5057   -4.1475    0.0000 C   0  0  0  0  0  0  0  0  0  0  0  0
    2.2219   -3.8019    0.0000 C   0  0  0  0  0  0  0  0  0  0  0  0
    1.2838   -4.7400    0.0000 C   0  0  0  0  0  0  0  0  0  0  0  0
    0.0000   -4.3944    0.0000 O   0  0  0  0  0  0  0  0  0  0  0  0
    1.6294   -6.0238    0.0000 O   0  0  0  0  0  0  0  0  0  0  0  0
    2.9131   -6.3694    0.0000 C   0  0  0  0  0  0  0  0  0  0  0  0
   10.8297   -3.2588    0.0000 C   0  0  0  0  0  0  0  0  0  0  0  0
   12.1628   -3.2588    0.0000 C   0  0  0  0  0  0  0  0  0  0  0  0
   12.8211   -4.4109    0.0000 C   0  0  0  0  0  0  0  0  0  0  0  0
   14.1543   -4.4109    0.0000 C   0  0  0  0  0  0  0  0  0  0  0  0
   15.4874   -4.4109    0.0000 O   0  0  0  0  0  0  0  0  0  0  0  0
   14.1543   -3.0777    0.0000 C   0  0  0  0  0  0  0  0  0  0  0  0
   15.3064   -2.4194    0.0000 C   0  0  0  0  0  0  0  0  0  0  0  0
   15.3064   -1.0863    0.0000 C   0  0  0  0  0  0  0  0  0  0  0  0
   16.4585   -0.4115    0.0000 C   0  0  0  0  0  0  0  0  0  0  0  0
   14.1543   -5.7440    0.0000 C   0  0  0  0  0  0  0  0  0  0  0  0
   12.0147   -0.6090    0.0000 O   0  0  0  0  0  0  0  0  0  0  0  0
    7.3569   -0.1317    0.0000 O   0  0  0  0  0  0  0  0  0  0  0  0
  1  2  1  0  0  0  0
  1  5  1  0  0  0  0
  1 27  2  0  0  0  0
  2  3  1  0  0  0  0
  3  4  1  0  0  0  0
  3 26  1  1  0  0  0
  4  5  1  0  0  0  0
  4 16  1  6  0  0  0
  5  6  1  1  0  0  0
  6  7  1  0  0  0  0
  7  8  1  0  0  0  0
  8  9  1  0  0  0  0
  9 10  1  0  0  0  0
 10 11  1  0  0  0  0
 11 12  1  0  0  0  0
 12 13  2  0  0  0  0
 12 14  1  0  0  0  0
 14 15  1  0  0  0  0
 16 17  2  0  0  0  0
 17 18  1  0  0  0  0
 18 19  1  0  0  0  0
 19 20  1  0  0  0  0
 19 21  1  0  0  0  0
 19 25  1  0  0  0  0
 21 22  1  0  0  0  0
 22 23  1  0  0  0  0
 23 24  1  0  0  0  0
M  END
> <ID>
863

> <Formula>
C22H38O5

> <FW>
382.5341

> <DSSTox_CID>
897

> <DSSTox_RID>
75852

> <DSSTox_GSID>
20897

> <DSSTox_FileID_Sort>
536

> <TS_ChemName>
Misoprostol

> <TS_ChemName_Synonyms>


> <TS_CASRN>
59122-46-2

> <CASRN_ChemName_Relationship>
primary

> <TS_Description>
single chemical compound

> <ChemNote>
stereochem

> <STRUCTURE_Shown>
tested chemical

> <STRUCTURE_Formula>
C22H38O5

> <STRUCTURE_MW>
382.5341

> <STRUCTURE_ChemType>
defined organic

> <STRUCTURE_DefinedOrganicForm>
parent

> <STRUCTURE_IUPAC>
methyl (11alpha,13E)-11,16-dihydroxy-16-methyl-9-oxoprost-13-en-1-oate

> <STRUCTURE_SMILES>
O[C@@H]1CC(=O)[C@H](CCCCCCC(=O)OC)[C@H]1\C=C\CC(C)(O)CCCC

> <STRUCTURE_SMILES_Desalt>
O[C@@H]1CC(=O)[C@H](CCCCCCC(=O)OC)[C@H]1\C=C\CC(C)(O)CCCC

> <Substance_modify_yyyymmdd>
20080429

$$$$
