593-08-8
ChemmineR-0914142331XD

 14 13  0  0  0  0  0  0  0  0  1 V2000
    0.0000   -1.9918    0.0000 C   0  0  0  0  0  0  0  0  0  0  0  0
    1.1480   -1.3278    0.0000 C   0  0  0  0  0  0  0  0  0  0  0  0
    2.3099   -1.9918    0.0000 C   0  0  0  0  0  0  0  0  0  0  0  0
    3.4579   -1.3278    0.0000 C   0  0  0  0  0  0  0  0  0  0  0  0
    4.6059   -1.9918    0.0000 C   0  0  0  0  0  0  0  0  0  0  0  0
    5.7678   -1.3278    0.0000 C   0  0  0  0  0  0  0  0  0  0  0  0
    6.9158   -1.9918    0.0000 C   0  0  0  0  0  0  0  0  0  0  0  0
    8.0639   -1.3278    0.0000 C   0  0  0  0  0  0  0  0  0  0  0  0
    9.2257   -1.9918    0.0000 C   0  0  0  0  0  0  0  0  0  0  0  0
   10.3738   -1.3278    0.0000 C   0  0  0  0  0  0  0  0  0  0  0  0
   11.5218   -1.9918    0.0000 C   0  0  0  0  0  0  0  0  0  0  0  0
   12.6836   -1.3278    0.0000 C   0  0  0  0  0  0  0  0  0  0  0  0
   12.6836    0.0000    0.0000 O   0  0  0  0  0  0  0  0  0  0  0  0
   13.8317   -1.9918    0.0000 C   0  0  0  0  0  0  0  0  0  0  0  0
  1  2  1  0  0  0  0
  2  3  1  0  0  0  0
  3  4  1  0  0  0  0
  4  5  1  0  0  0  0
  5  6  1  0  0  0  0
  6  7  1  0  0  0  0
  7  8  1  0  0  0  0
  8  9  1  0  0  0  0
  9 10  1  0  0  0  0
 10 11  1  0  0  0  0
 11 12  1  0  0  0  0
 12 13  2  0  0  0  0
 12 14  1  0  0  0  0
M  END
> <ID>
1913

> <Formula>
C13H26O

> <FW>
198.3449

> <DSSTox_CID>
2070

> <DSSTox_RID>
76479

> <DSSTox_GSID>
22070

> <DSSTox_FileID_Sort>
1163

> <TS_ChemName>
2-Tridecanone

> <TS_ChemName_Synonyms>


> <TS_CASRN>
593-08-8

> <CASRN_ChemName_Relationship>
primary

> <TS_Description>
single chemical compound

> <ChemNote>


> <STRUCTURE_Shown>
tested chemical

> <STRUCTURE_Formula>
C13H26O

> <STRUCTURE_MW>
198.3449

> <STRUCTURE_ChemType>
defined organic

> <STRUCTURE_DefinedOrganicForm>
parent

> <STRUCTURE_IUPAC>
tridecan-2-one

> <STRUCTURE_SMILES>
CC(=O)CCCCCCCCCCC

> <STRUCTURE_SMILES_Desalt>
CC(=O)CCCCCCCCCCC

> <Substance_modify_yyyymmdd>
20080429

$$$$
