59333-67-4
ChemmineR-0914142331XD

 23 23  0  0  0  0  0  0  0  0  1 V2000
    5.7323   -5.9914    0.0000 Cl   0  0  0  0  0  0  0  0  0  0  0  0
    9.2152   -3.9908    0.0000 C    0  0  0  0  0  0  0  0  0  0  0  0
    9.2152   -2.6536    0.0000 N    0  0  0  0  0  0  0  0  0  0  0  0
   10.3658   -1.9902    0.0000 C    0  0  0  0  0  0  0  0  0  0  0  0
    8.0646   -4.6542    0.0000 C    0  0  0  0  0  0  0  0  0  0  0  0
    6.9140   -3.9908    0.0000 C    0  0  0  0  0  0  0  0  0  0  0  0
    5.7634   -4.6542    0.0000 O    0  0  0  0  0  0  0  0  0  0  0  0
    4.6024   -3.9908    0.0000 C    0  0  0  0  0  0  0  0  0  0  0  0
    3.4518   -4.6542    0.0000 C    0  0  0  0  0  0  0  0  0  0  0  0
    2.3012   -3.9908    0.0000 C    0  0  0  0  0  0  0  0  0  0  0  0
    2.3012   -2.6536    0.0000 C    0  0  0  0  0  0  0  0  0  0  0  0
    3.4518   -1.9902    0.0000 C    0  0  0  0  0  0  0  0  0  0  0  0
    4.6024   -2.6536    0.0000 C    0  0  0  0  0  0  0  0  0  0  0  0
    1.1506   -1.9902    0.0000 C    0  0  0  0  0  0  0  0  0  0  0  0
    0.4872   -3.1408    0.0000 F    0  0  0  0  0  0  0  0  0  0  0  0
    0.0000   -1.3268    0.0000 F    0  0  0  0  0  0  0  0  0  0  0  0
    1.8140   -0.8396    0.0000 F    0  0  0  0  0  0  0  0  0  0  0  0
    6.9140   -2.6536    0.0000 C    0  0  0  0  0  0  0  0  0  0  0  0
    5.7634   -1.9902    0.0000 C    0  0  0  0  0  0  0  0  0  0  0  0
    5.7634   -0.6634    0.0000 C    0  0  0  0  0  0  0  0  0  0  0  0
    6.9140    0.0000    0.0000 C    0  0  0  0  0  0  0  0  0  0  0  0
    8.0646   -0.6634    0.0000 C    0  0  0  0  0  0  0  0  0  0  0  0
    8.0646   -1.9902    0.0000 C    0  0  0  0  0  0  0  0  0  0  0  0
  2  3  1  0  0  0  0
  2  5  1  0  0  0  0
  3  4  1  0  0  0  0
  5  6  1  0  0  0  0
  6  7  1  0  0  0  0
  6 18  1  0  0  0  0
  7  8  1  0  0  0  0
  8  9  2  0  0  0  0
  8 13  1  0  0  0  0
  9 10  1  0  0  0  0
 10 11  2  0  0  0  0
 11 12  1  0  0  0  0
 11 14  1  0  0  0  0
 12 13  2  0  0  0  0
 14 15  1  0  0  0  0
 14 16  1  0  0  0  0
 14 17  1  0  0  0  0
 18 19  2  0  0  0  0
 18 23  1  0  0  0  0
 19 20  1  0  0  0  0
 20 21  2  0  0  0  0
 21 22  1  0  0  0  0
 22 23  2  0  0  0  0
M  END
> <ID>
610

> <Formula>
C17H19ClF3NO

> <FW>
345.7871 (36.4609+309.3261)

> <DSSTox_CID>
635

> <DSSTox_RID>
75706

> <DSSTox_GSID>
20635

> <DSSTox_FileID_Sort>
390

> <TS_ChemName>
Fluoxetine hydrochloride

> <TS_ChemName_Synonyms>


> <TS_CASRN>
59333-67-4

> <CASRN_ChemName_Relationship>
primary

> <TS_Description>
single chemical compound

> <ChemNote>
parent [54910-89-3]

> <STRUCTURE_Shown>
tested chemical

> <STRUCTURE_Formula>
C17H19ClF3NO

> <STRUCTURE_MW>
345.7871

> <STRUCTURE_ChemType>
defined organic

> <STRUCTURE_DefinedOrganicForm>
complex

> <STRUCTURE_IUPAC>
N-methyl-3-phenyl-3-[4-(trifluoromethyl)phenoxy]propan-1-amine hydrochloride (1:1)

> <STRUCTURE_SMILES>
Cl.FC(F)(F)c2ccc(OC(CCNC)c1ccccc1)cc2

> <STRUCTURE_SMILES_Desalt>
FC(F)(F)c2ccc(OC(CCNC)c1ccccc1)cc2

> <Substance_modify_yyyymmdd>
20080429

$$$$
