597-43-3
ChemmineR-0914142331XD

 10  9  0  0  0  0  0  0  0  0  1 V2000
    0.0000   -1.9951    0.0000 O   0  0  0  0  0  0  0  0  0  0  0  0
    1.1502   -1.3301    0.0000 C   0  0  0  0  0  0  0  0  0  0  0  0
    2.3059   -1.9951    0.0000 C   0  0  0  0  0  0  0  0  0  0  0  0
    3.4561   -1.3301    0.0000 C   0  0  0  0  0  0  0  0  0  0  0  0
    2.7910   -0.1799    0.0000 C   0  0  0  0  0  0  0  0  0  0  0  0
    4.1211   -2.4857    0.0000 C   0  0  0  0  0  0  0  0  0  0  0  0
    3.4561   -3.6359    0.0000 O   0  0  0  0  0  0  0  0  0  0  0  0
    5.4512   -2.4857    0.0000 O   0  0  0  0  0  0  0  0  0  0  0  0
    4.6063   -0.6650    0.0000 C   0  0  0  0  0  0  0  0  0  0  0  0
    1.1502    0.0000    0.0000 O   0  0  0  0  0  0  0  0  0  0  0  0
  1  2  1  0  0  0  0
  2  3  1  0  0  0  0
  2 10  2  0  0  0  0
  3  4  1  0  0  0  0
  4  5  1  0  0  0  0
  4  6  1  0  0  0  0
  4  9  1  0  0  0  0
  6  7  1  0  0  0  0
  6  8  2  0  0  0  0
M  END
> <ID>
1518

> <Formula>
C6H10O4

> <FW>
146.1412

> <DSSTox_CID>
1581

> <DSSTox_RID>
76218

> <DSSTox_GSID>
21581

> <DSSTox_FileID_Sort>
902

> <TS_ChemName>
2,2-Dimethylbutanedioic acid

> <TS_ChemName_Synonyms>


> <TS_CASRN>
597-43-3

> <CASRN_ChemName_Relationship>
primary

> <TS_Description>
single chemical compound

> <ChemNote>


> <STRUCTURE_Shown>
tested chemical

> <STRUCTURE_Formula>
C6H10O4

> <STRUCTURE_MW>
146.1412

> <STRUCTURE_ChemType>
defined organic

> <STRUCTURE_DefinedOrganicForm>
parent

> <STRUCTURE_IUPAC>
2,2-dimethylbutanedioic acid

> <STRUCTURE_SMILES>
CC(C)(CC(O)=O)C(=O)O

> <STRUCTURE_SMILES_Desalt>
CC(C)(CC(O)=O)C(=O)O

> <Substance_modify_yyyymmdd>
20080429

$$$$
