598-91-4
ChemmineR-0914142331XD

  6  5  0  0  0  0  0  0  0  0  2 V2000
    3.3250   -1.1509    0.0000 Br   0  0  0  0  0  0  0  0  0  0  0  0
    1.9943   -1.1509    0.0000 C    0  0  0  0  0  0  0  0  0  0  0  0
    1.3307    0.0000    0.0000 Br   0  0  0  0  0  0  0  0  0  0  0  0
    1.3307   -2.3053    0.0000 N    0  3  0  0  0  0  0  0  0  0  0  0
    1.9943   -3.4563    0.0000 O    0  0  0  0  0  0  0  0  0  0  0  0
    0.0000   -2.3053    0.0000 O    0  5  0  0  0  0  0  0  0  0  0  0
  1  2  1  0  0  0  0
  2  3  1  0  0  0  0
  2  4  1  0  0  0  0
  4  5  2  0  0  0  0
  4  6  1  0  0  0  0
M  END
> <ID>
1574

> <Formula>
CHBr2NO2

> <FW>
218.8321

> <DSSTox_CID>
1637

> <DSSTox_RID>
76251

> <DSSTox_GSID>
21637

> <DSSTox_FileID_Sort>
935

> <TS_ChemName>
Dibromonitromethane

> <TS_ChemName_Synonyms>


> <TS_CASRN>
598-91-4

> <CASRN_ChemName_Relationship>
primary

> <TS_Description>
single chemical compound

> <ChemNote>


> <STRUCTURE_Shown>
tested chemical

> <STRUCTURE_Formula>
CHBr2NO2

> <STRUCTURE_MW>
218.8321

> <STRUCTURE_ChemType>
defined organic

> <STRUCTURE_DefinedOrganicForm>
parent

> <STRUCTURE_IUPAC>
dibromo(nitro)methane

> <STRUCTURE_SMILES>
BrC(Br)[N+]([O-])=O

> <STRUCTURE_SMILES_Desalt>
BrC(Br)[N+]([O-])=O

> <Substance_modify_yyyymmdd>
20080429

$$$$
