59820-43-8
ChemmineR-0914142331XD

 17 17  0  0  0  0  0  0  0  0  2 V2000
    2.3090   -1.3523    0.0000 C   0  0  0  0  0  0  0  0  0  0  0  0
    3.4682   -2.0055    0.0000 C   0  0  0  0  0  0  0  0  0  0  0  0
    2.3090    0.0000    0.0000 O   0  0  0  0  0  0  0  0  0  0  0  0
    3.4682   -3.3210    0.0000 N   0  0  0  0  0  0  0  0  0  0  0  0
    4.5997   -3.9741    0.0000 C   0  0  0  0  0  0  0  0  0  0  0  0
    4.5997   -5.3264    0.0000 C   0  0  0  0  0  0  0  0  0  0  0  0
    5.7588   -3.3210    0.0000 C   0  0  0  0  0  0  0  0  0  0  0  0
    5.7588   -5.9888    0.0000 C   0  0  0  0  0  0  0  0  0  0  0  0
    6.9363   -3.9741    0.0000 C   0  0  0  0  0  0  0  0  0  0  0  0
    6.9363   -5.3264    0.0000 C   0  0  0  0  0  0  0  0  0  0  0  0
    3.4682   -5.9888    0.0000 O   0  0  0  0  0  0  0  0  0  0  0  0
    2.3090   -5.3264    0.0000 C   0  0  0  0  0  0  0  0  0  0  0  0
    1.1591   -5.9888    0.0000 C   0  0  0  0  0  0  0  0  0  0  0  0
    0.0000   -5.3264    0.0000 O   0  0  0  0  0  0  0  0  0  0  0  0
    8.0679   -5.9428    0.0000 N   0  3  0  0  0  0  0  0  0  0  0  0
    9.1994   -5.3264    0.0000 O   0  5  0  0  0  0  0  0  0  0  0  0
    8.0679   -7.2951    0.0000 O   0  0  0  0  0  0  0  0  0  0  0  0
  1  2  1  0  0  0  0
  1  3  1  0  0  0  0
  2  4  1  0  0  0  0
  4  5  1  0  0  0  0
  5  6  2  0  0  0  0
  5  7  1  0  0  0  0
  6  8  1  0  0  0  0
  6 11  1  0  0  0  0
  7  9  2  0  0  0  0
  8 10  2  0  0  0  0
  9 10  1  0  0  0  0
 10 15  1  0  0  0  0
 11 12  1  0  0  0  0
 12 13  1  0  0  0  0
 13 14  1  0  0  0  0
 15 16  1  0  0  0  0
 15 17  2  0  0  0  0
M  END
> <ID>
1399

> <Formula>
C10H14N2O5

> <FW>
242.2286

> <DSSTox_CID>
1458

> <DSSTox_RID>
76166

> <DSSTox_GSID>
21458

> <DSSTox_FileID_Sort>
850

> <TS_ChemName>
HC yellow 4

> <TS_ChemName_Synonyms>


> <TS_CASRN>
59820-43-8

> <CASRN_ChemName_Relationship>
primary

> <TS_Description>
single chemical compound

> <ChemNote>


> <STRUCTURE_Shown>
tested chemical

> <STRUCTURE_Formula>
C10H14N2O5

> <STRUCTURE_MW>
242.2286

> <STRUCTURE_ChemType>
defined organic

> <STRUCTURE_DefinedOrganicForm>
parent

> <STRUCTURE_IUPAC>
2-{[2-(2-hydroxyethoxy)-4-nitrophenyl]amino}ethanol

> <STRUCTURE_SMILES>
[O-][N+](=O)c1cc(OCCO)c(cc1)NCCO

> <STRUCTURE_SMILES_Desalt>
[O-][N+](=O)c1cc(OCCO)c(cc1)NCCO

> <Substance_modify_yyyymmdd>
20080429

$$$$
