599-79-1
ChemmineR-0914142331XD

 28 30  0  0  0  0  0  0  0  0  1 V2000
   13.2958    0.0000    0.0000 C   0  0  0  0  0  0  0  0  0  0  0  0
   14.6254    0.0000    0.0000 C   0  0  0  0  0  0  0  0  0  0  0  0
   15.2826   -1.1615    0.0000 C   0  0  0  0  0  0  0  0  0  0  0  0
   14.6254   -2.3077    0.0000 C   0  0  0  0  0  0  0  0  0  0  0  0
   13.2958   -2.3077    0.0000 C   0  0  0  0  0  0  0  0  0  0  0  0
   12.6234   -3.4539    0.0000 N   0  0  0  0  0  0  0  0  0  0  0  0
   11.2938   -3.4539    0.0000 S   0  0  0  0  0  0  0  0  0  0  0  0
   11.2938   -4.7834    0.0000 O   0  0  0  0  0  0  0  0  0  0  0  0
   11.2938   -2.1243    0.0000 O   0  0  0  0  0  0  0  0  0  0  0  0
    9.9642   -3.4539    0.0000 C   0  0  0  0  0  0  0  0  0  0  0  0
    9.3071   -4.6153    0.0000 C   0  0  0  0  0  0  0  0  0  0  0  0
    7.9775   -4.6153    0.0000 C   0  0  0  0  0  0  0  0  0  0  0  0
    7.3051   -3.4539    0.0000 C   0  0  0  0  0  0  0  0  0  0  0  0
    5.9755   -3.4539    0.0000 N   0  0  0  0  0  0  0  0  0  0  0  0
    5.3183   -4.6153    0.0000 N   0  0  0  0  0  0  0  0  0  0  0  0
    3.9888   -4.6153    0.0000 C   0  0  0  0  0  0  0  0  0  0  0  0
    3.3163   -5.7615    0.0000 C   0  0  0  0  0  0  0  0  0  0  0  0
    1.9867   -5.7615    0.0000 C   0  0  0  0  0  0  0  0  0  0  0  0
    1.3296   -4.6153    0.0000 C   0  0  0  0  0  0  0  0  0  0  0  0
    0.0000   -4.6153    0.0000 O   0  0  0  0  0  0  0  0  0  0  0  0
    1.9867   -3.4539    0.0000 C   0  0  0  0  0  0  0  0  0  0  0  0
    1.3296   -2.3077    0.0000 C   0  0  0  0  0  0  0  0  0  0  0  0
    0.0000   -2.3077    0.0000 O   0  0  0  0  0  0  0  0  0  0  0  0
    1.9867   -1.1615    0.0000 O   0  0  0  0  0  0  0  0  0  0  0  0
    3.3163   -3.4539    0.0000 C   0  0  0  0  0  0  0  0  0  0  0  0
    7.9775   -2.3077    0.0000 C   0  0  0  0  0  0  0  0  0  0  0  0
    9.3071   -2.3077    0.0000 C   0  0  0  0  0  0  0  0  0  0  0  0
   12.6234   -1.1615    0.0000 N   0  0  0  0  0  0  0  0  0  0  0  0
  1  2  2  0  0  0  0
  1 28  1  0  0  0  0
  2  3  1  0  0  0  0
  3  4  2  0  0  0  0
  4  5  1  0  0  0  0
  5  6  1  0  0  0  0
  5 28  2  0  0  0  0
  6  7  1  0  0  0  0
  7  8  2  0  0  0  0
  7  9  2  0  0  0  0
  7 10  1  0  0  0  0
 10 11  2  0  0  0  0
 10 27  1  0  0  0  0
 11 12  1  0  0  0  0
 12 13  2  0  0  0  0
 13 14  1  0  0  0  0
 13 26  1  0  0  0  0
 14 15  2  0  0  0  0
 15 16  1  0  0  0  0
 16 17  2  0  0  0  0
 16 25  1  0  0  0  0
 17 18  1  0  0  0  0
 18 19  2  0  0  0  0
 19 20  1  0  0  0  0
 19 21  1  0  0  0  0
 21 22  1  0  0  0  0
 21 25  2  0  0  0  0
 22 23  1  0  0  0  0
 22 24  2  0  0  0  0
 26 27  2  0  0  0  0
M  END
> <ID>
1208

> <Formula>
C18H14N4O5S

> <FW>
398.3926

> <DSSTox_CID>
1256

> <DSSTox_RID>
76043

> <DSSTox_GSID>
21256

> <DSSTox_FileID_Sort>
727

> <TS_ChemName>
Sulfasalazine

> <TS_ChemName_Synonyms>
Sulfasalazine (Salicylazosulfapyridine) (Sulfasalazine, N-)

> <TS_CASRN>
599-79-1

> <CASRN_ChemName_Relationship>
primary

> <TS_Description>
single chemical compound

> <ChemNote>


> <STRUCTURE_Shown>
tested chemical

> <STRUCTURE_Formula>
C18H14N4O5S

> <STRUCTURE_MW>
398.3926

> <STRUCTURE_ChemType>
defined organic

> <STRUCTURE_DefinedOrganicForm>
parent

> <STRUCTURE_IUPAC>
2-hydroxy-5-{(E)-[4-(pyridin-2-ylsulfamoyl)phenyl]diazenyl}benzoic acid

> <STRUCTURE_SMILES>
O=S(=O)(Nc1ccccn1)c3ccc(/N=N/c2cc(C(=O)O)c(O)cc2)cc3

> <STRUCTURE_SMILES_Desalt>
O=S(=O)(Nc1ccccn1)c3ccc(/N=N/c2cc(C(=O)O)c(O)cc2)cc3

> <Substance_modify_yyyymmdd>
20080429

$$$$
