60-18-4
ChemmineR-0914142331XD

 13 13  0  0  1  0  0  0  0  0  1 V2000
    4.6537   -2.3089    0.0000 C   0  0  0  0  0  0  0  0  0  0  0  0
    3.9778   -1.1425    0.0000 C   0  0  0  0  0  0  0  0  0  0  0  0
    5.9816   -2.3089    0.0000 O   0  0  0  0  0  0  0  0  0  0  0  0
    2.6618   -1.1425    0.0000 C   0  0  0  0  0  0  0  0  0  0  0  0
    2.0038   -2.3089    0.0000 C   0  0  0  0  0  0  0  0  0  0  0  0
    4.6537    0.0000    0.0000 N   0  0  0  0  0  0  0  0  0  0  0  0
    3.9778   -3.4454    0.0000 O   0  0  0  0  0  0  0  0  0  0  0  0
    0.6699   -4.6118    0.0000 C   0  0  0  0  0  0  0  0  0  0  0  0
    2.6618   -3.4454    0.0000 C   0  0  0  0  0  0  0  0  0  0  0  0
    0.6699   -2.3089    0.0000 C   0  0  0  0  0  0  0  0  0  0  0  0
    2.0038   -4.6118    0.0000 C   0  0  0  0  0  0  0  0  0  0  0  0
    0.0000   -3.4454    0.0000 C   0  0  0  0  0  0  0  0  0  0  0  0
    0.0000   -5.7543    0.0000 O   0  0  0  0  0  0  0  0  0  0  0  0
  1  2  1  0  0  0  0
  1  3  2  0  0  0  0
  1  7  1  0  0  0  0
  2  4  1  0  0  0  0
  2  6  1  6  0  0  0
  4  5  1  0  0  0  0
  5  9  1  0  0  0  0
  5 10  2  0  0  0  0
  8 12  2  0  0  0  0
  8 13  1  0  0  0  0
  8 11  1  0  0  0  0
  9 11  2  0  0  0  0
 10 12  1  0  0  0  0
M  END
> <ID>
3332

> <Formula>
C9H11NO3

> <FW>
181.1885

> <DSSTox_CID>
3730

> <DSSTox_RID>
77170

> <DSSTox_GSID>
23730

> <DSSTox_FileID_Sort>
1853

> <TS_ChemName>
L-Tyrosine

> <TS_ChemName_Synonyms>
L-Tyrosine (Tyrosine)

> <TS_CASRN>
60-18-4

> <CASRN_ChemName_Relationship>
primary

> <TS_Description>
single chemical compound

> <ChemNote>
stereochem

> <STRUCTURE_Shown>
tested chemical

> <STRUCTURE_Formula>
C9H11NO3

> <STRUCTURE_MW>
181.1885

> <STRUCTURE_ChemType>
defined organic

> <STRUCTURE_DefinedOrganicForm>
parent

> <STRUCTURE_IUPAC>
L-tyrosine

> <STRUCTURE_SMILES>
Oc1ccc(C[C@H](N)C(=O)O)cc1

> <STRUCTURE_SMILES_Desalt>
Oc1ccc(C[C@H](N)C(=O)O)cc1

> <Substance_modify_yyyymmdd>
20080429

$$$$
