60-23-1
ChemmineR-0914142331XD

  4  3  0  0  0  0  0  0  0  0  1 V2000
    0.0000    0.0000    0.0000 S   0  0  0  0  0  0  0  0  0  0  0  0
    1.1513   -0.6638    0.0000 C   0  0  0  0  0  0  0  0  0  0  0  0
    2.3061    0.0000    0.0000 C   0  0  0  0  0  0  0  0  0  0  0  0
    3.4575   -0.6638    0.0000 N   0  0  0  0  0  0  0  0  0  0  0  0
  1  2  1  0  0  0  0
  2  3  1  0  0  0  0
  3  4  1  0  0  0  0
M  END
> <ID>
2597

> <Formula>
C2H7NS

> <FW>
77.1487

> <DSSTox_CID>
2875

> <DSSTox_RID>
76770

> <DSSTox_GSID>
22875

> <DSSTox_FileID_Sort>
1454

> <TS_ChemName>
Cysteamine

> <TS_ChemName_Synonyms>


> <TS_CASRN>
60-23-1

> <CASRN_ChemName_Relationship>
primary

> <TS_Description>
single chemical compound

> <ChemNote>


> <STRUCTURE_Shown>
tested chemical

> <STRUCTURE_Formula>
C2H7NS

> <STRUCTURE_MW>
77.1487

> <STRUCTURE_ChemType>
defined organic

> <STRUCTURE_DefinedOrganicForm>
parent

> <STRUCTURE_IUPAC>
2-aminoethanethiol

> <STRUCTURE_SMILES>
NCCS

> <STRUCTURE_SMILES_Desalt>
NCCS

> <Substance_modify_yyyymmdd>
20080429

$$$$
