60-41-3
ChemmineR-0914142331XD

 65 76  0  0  1  0  0  0  0  0  1 V2000
    9.3214   -2.9428    0.0000 C   0  0  0  0  0  0  0  0  0  0  0  0
    8.2891   -3.5283    0.0000 C   0  0  0  0  0  0  0  0  0  0  0  0
    8.2891   -4.7146    0.0000 C   0  0  0  0  0  0  0  0  0  0  0  0
    7.2723   -2.9428    0.0000 C   0  0  0  0  0  0  0  0  0  0  0  0
    6.2400   -3.5283    0.0000 N   0  0  0  0  0  0  0  0  0  0  0  0
    7.2723   -5.3309    0.0000 C   0  0  0  0  0  0  0  0  0  0  0  0
    6.2400   -4.7146    0.0000 C   0  0  0  0  0  0  0  0  0  0  0  0
    9.3214   -1.7718    0.0000 C   0  0  0  0  0  0  0  0  0  0  0  0
    8.2891   -1.1710    0.0000 C   0  0  0  0  0  0  0  0  0  0  0  0
    7.2723   -1.7718    0.0000 C   0  0  0  0  0  0  0  0  0  0  0  0
    5.2231   -2.9428    0.0000 C   0  0  0  0  0  0  0  0  0  0  0  0
    5.2231   -1.7718    0.0000 C   0  0  0  0  0  0  0  0  0  0  0  0
    4.1908   -3.5283    0.0000 C   0  0  0  0  0  0  0  0  0  0  0  0
    3.1585   -2.9428    0.0000 C   0  0  0  0  0  0  0  0  0  0  0  0
    4.1908   -1.1710    0.0000 C   0  0  0  0  0  0  0  0  0  0  0  0
    3.1585   -1.7718    0.0000 C   0  0  0  0  0  0  0  0  0  0  0  0
    8.2891    0.0000    0.0000 N   0  0  0  0  0  0  0  0  0  0  0  0
    6.2400   -1.1710    0.0000 C   0  0  0  0  0  0  0  0  0  0  0  0
    6.2400    0.0000    0.0000 C   0  0  0  0  0  0  0  0  0  0  0  0
   10.4924    0.0000    0.0000 C   0  0  0  0  0  0  0  0  0  0  0  0
    5.2231   -5.3309    0.0000 O   0  0  0  0  0  0  0  0  0  0  0  0
    8.2891   -5.8856    0.0000 H   0  0  0  0  0  0  0  0  0  0  0  0
    7.2723   -4.1292    0.0000 H   0  0  0  0  0  0  0  0  0  0  0  0
    9.3214   -4.1292    0.0000 H   0  0  0  0  0  0  0  0  0  0  0  0
    8.2891   -2.3573    0.0000 H   0  0  0  0  0  0  0  0  0  0  0  0
   10.4924   -2.9428    0.0000 C   0  0  0  0  0  0  0  0  0  0  0  0
   11.5093   -3.5283    0.0000 C   0  0  0  0  0  0  0  0  0  0  0  0
   11.5093   -4.7146    0.0000 C   0  0  0  0  0  0  0  0  0  0  0  0
    9.8761   -5.3926    0.0000 O   0  0  0  0  0  0  0  0  0  0  0  0
    9.3368   -0.5855    0.0000 H   0  0  0  0  0  0  0  0  0  0  0  0
   10.3229  -12.4645    0.0000 C   0  0  0  0  0  0  0  0  0  0  0  0
    9.3060  -13.0500    0.0000 C   0  0  0  0  0  0  0  0  0  0  0  0
    9.3060  -14.2364    0.0000 C   0  0  0  0  0  0  0  0  0  0  0  0
    8.2737  -12.4645    0.0000 C   0  0  0  0  0  0  0  0  0  0  0  0
    7.2569  -13.0500    0.0000 N   0  0  0  0  0  0  0  0  0  0  0  0
    8.2737  -14.8373    0.0000 C   0  0  0  0  0  0  0  0  0  0  0  0
    7.2569  -14.2364    0.0000 C   0  0  0  0  0  0  0  0  0  0  0  0
   10.3229  -11.2936    0.0000 C   0  0  0  0  0  0  0  0  0  0  0  0
    9.3060  -10.6927    0.0000 C   0  0  0  0  0  0  0  0  0  0  0  0
    8.2737  -11.2936    0.0000 C   0  0  0  0  0  0  0  0  0  0  0  0
    6.2246  -12.4645    0.0000 C   0  0  0  0  0  0  0  0  0  0  0  0
    6.2246  -11.2936    0.0000 C   0  0  0  0  0  0  0  0  0  0  0  0
    5.2077  -13.0500    0.0000 C   0  0  0  0  0  0  0  0  0  0  0  0
    4.1754  -12.4645    0.0000 C   0  0  0  0  0  0  0  0  0  0  0  0
    5.2077  -10.6927    0.0000 C   0  0  0  0  0  0  0  0  0  0  0  0
    4.1754  -11.2936    0.0000 C   0  0  0  0  0  0  0  0  0  0  0  0
    9.3060   -9.5217    0.0000 N   0  0  0  0  0  0  0  0  0  0  0  0
    7.2569  -10.6927    0.0000 C   0  0  0  0  0  0  0  0  0  0  0  0
    7.2569   -9.5217    0.0000 C   0  0  0  0  0  0  0  0  0  0  0  0
   11.4939   -9.5217    0.0000 C   0  0  0  0  0  0  0  0  0  0  0  0
    6.2246  -14.8373    0.0000 O   0  0  0  0  0  0  0  0  0  0  0  0
    9.3060  -15.4073    0.0000 H   0  0  0  0  0  0  0  0  0  0  0  0
    8.2737  -13.6509    0.0000 H   0  0  0  0  0  0  0  0  0  0  0  0
   10.3229  -13.6509    0.0000 H   0  0  0  0  0  0  0  0  0  0  0  0
    9.3060  -11.8791    0.0000 H   0  0  0  0  0  0  0  0  0  0  0  0
   11.4939  -12.4645    0.0000 C   0  0  0  0  0  0  0  0  0  0  0  0
   12.5262  -13.0500    0.0000 C   0  0  0  0  0  0  0  0  0  0  0  0
   12.5262  -14.2364    0.0000 C   0  0  0  0  0  0  0  0  0  0  0  0
   10.8930  -14.9143    0.0000 O   0  0  0  0  0  0  0  0  0  0  0  0
   10.3383  -10.1072    0.0000 H   0  0  0  0  0  0  0  0  0  0  0  0
    1.1864   -7.8886    0.0000 S   0  0  0  0  0  0  0  0  0  0  0  0
    2.3573   -7.8886    0.0000 O   0  0  0  0  0  0  0  0  0  0  0  0
    0.0000   -7.8886    0.0000 O   0  0  0  0  0  0  0  0  0  0  0  0
    1.1864   -9.0595    0.0000 O   0  0  0  0  0  0  0  0  0  0  0  0
    1.1864   -6.7022    0.0000 O   0  0  0  0  0  0  0  0  0  0  0  0
  1 26  1  0  0  0  0
  1  8  1  0  0  0  0
  1 24  1  6  0  0  0
  1  2  1  0  0  0  0
  2  4  1  0  0  0  0
  2 25  1  6  0  0  0
  2  3  1  0  0  0  0
  3  6  1  0  0  0  0
  3 22  1  6  0  0  0
  3 29  1  0  0  0  0
  4  5  1  0  0  0  0
  4 10  1  0  0  0  0
  4 23  1  1  0  0  0
  5  7  1  0  0  0  0
  5 11  1  0  0  0  0
  6  7  1  0  0  0  0
  7 21  2  0  0  0  0
  8  9  1  0  0  0  0
  9 17  1  0  0  0  0
  9 10  1  0  0  0  0
  9 30  1  6  0  0  0
 10 12  1  0  0  0  0
 10 18  1  1  0  0  0
 11 13  1  0  0  0  0
 11 12  2  0  0  0  0
 12 15  1  0  0  0  0
 13 14  2  0  0  0  0
 14 16  1  0  0  0  0
 15 16  2  0  0  0  0
 17 19  1  0  0  0  0
 17 20  1  0  0  0  0
 18 19  1  0  0  0  0
 20 26  1  0  0  0  0
 26 27  2  0  0  0  0
 27 28  1  0  0  0  0
 28 29  1  0  0  0  0
 31 56  1  0  0  0  0
 31 38  1  0  0  0  0
 31 54  1  6  0  0  0
 31 32  1  0  0  0  0
 32 34  1  0  0  0  0
 32 55  1  6  0  0  0
 32 33  1  0  0  0  0
 33 36  1  0  0  0  0
 33 52  1  6  0  0  0
 33 59  1  0  0  0  0
 34 35  1  0  0  0  0
 34 40  1  0  0  0  0
 34 53  1  1  0  0  0
 35 37  1  0  0  0  0
 35 41  1  0  0  0  0
 36 37  1  0  0  0  0
 37 51  2  0  0  0  0
 38 39  1  0  0  0  0
 39 47  1  0  0  0  0
 39 40  1  0  0  0  0
 39 60  1  6  0  0  0
 40 42  1  0  0  0  0
 40 48  1  1  0  0  0
 41 43  1  0  0  0  0
 41 42  2  0  0  0  0
 42 45  1  0  0  0  0
 43 44  2  0  0  0  0
 44 46  1  0  0  0  0
 45 46  2  0  0  0  0
 47 49  1  0  0  0  0
 47 50  1  0  0  0  0
 48 49  1  0  0  0  0
 50 56  1  0  0  0  0
 56 57  2  0  0  0  0
 57 58  1  0  0  0  0
 58 59  1  0  0  0  0
 61 62  2  0  0  0  0
 61 63  2  0  0  0  0
 61 64  1  0  0  0  0
 61 65  1  0  0  0  0
M  END
> <ID>
1651

> <Formula>
C42H46N4O8S

> <FW>
766.9016 (334.4116+334.4116+98.0785)

> <DSSTox_CID>
1721

> <DSSTox_RID>
76293

> <DSSTox_GSID>
21721

> <DSSTox_FileID_Sort>
977

> <TS_ChemName>
Strychnine hemisulphate salt

> <TS_ChemName_Synonyms>


> <TS_CASRN>
60-41-3

> <CASRN_ChemName_Relationship>
primary

> <TS_Description>
single chemical compound

> <ChemNote>
stereochem; parent [57-24-9]

> <STRUCTURE_Shown>
tested chemical

> <STRUCTURE_Formula>
C42H46N4O8S

> <STRUCTURE_MW>
766.9016

> <STRUCTURE_ChemType>
defined organic

> <STRUCTURE_DefinedOrganicForm>
complex

> <STRUCTURE_IUPAC>
strychnidin-10-one sulfate (2:1)

> <STRUCTURE_SMILES>
O=S(=O)(O)O.O=C2C[C@@H]6OCC=C5CN3CC[C@@]47c1ccccc1N2[C@H]7[C@H]6[C@H]5C[C@H]34.O=C2C[C@@H]7OCC=C6CN4CC[C@@]53c1ccccc1N2[C@H]3[C@H]7[C@H]6C[C@H]45

> <STRUCTURE_SMILES_Desalt>
O=C2C[C@@H]7OCC=C6CN4CC[C@@]53c1ccccc1N2[C@H]3[C@H]7[C@H]6C[C@H]45

> <Substance_modify_yyyymmdd>
20080429

$$$$
