60-40-2
ChemmineR-0914142331XD

 12 13  0  0  0  0  0  0  0  0  1 V2000
    1.1252    0.0000    0.0000 C   0  0  0  0  0  0  0  0  0  0  0  0
    2.4225    0.0000    0.0000 C   0  0  0  0  0  0  0  0  0  0  0  0
    3.0732   -1.1252    0.0000 C   0  0  0  0  0  0  0  0  0  0  0  0
    2.4225   -2.2503    0.0000 C   0  0  0  0  0  0  0  0  0  0  0  0
    2.4225   -3.5476    0.0000 C   0  0  0  0  0  0  0  0  0  0  0  0
    3.5476   -2.9011    0.0000 C   0  0  0  0  0  0  0  0  0  0  0  0
    1.1252   -2.2503    0.0000 C   0  0  0  0  0  0  0  0  0  0  0  0
    0.0000   -2.9011    0.0000 C   0  0  0  0  0  0  0  0  0  0  0  0
    1.1252   -3.5476    0.0000 N   0  0  0  0  0  0  0  0  0  0  0  0
    0.0000   -4.1984    0.0000 C   0  0  0  0  0  0  0  0  0  0  0  0
    0.4744   -1.1252    0.0000 C   0  0  0  0  0  0  0  0  0  0  0  0
    1.7759   -1.8767    0.0000 C   0  0  0  0  0  0  0  0  0  0  0  0
  1  2  1  0  0  0  0
  1 11  1  0  0  0  0
  2  3  1  0  0  0  0
  3  4  1  0  0  0  0
  3 12  1  0  0  0  0
  4  5  1  0  0  0  0
  4  6  1  0  0  0  0
  4  7  1  0  0  0  0
  7  8  1  0  0  0  0
  7  9  1  0  0  0  0
  7 11  1  0  0  0  0
  9 10  1  0  0  0  0
 11 12  1  0  0  0  0
M  END
> <ID>
2914

> <Formula>
C11H21N

> <FW>
167.2911

> <DSSTox_CID>
3240

> <DSSTox_RID>
76937

> <DSSTox_GSID>
23240

> <DSSTox_FileID_Sort>
1621

> <TS_ChemName>
Mecamylamine

> <TS_ChemName_Synonyms>


> <TS_CASRN>
60-40-2

> <CASRN_ChemName_Relationship>
primary

> <TS_Description>
single chemical compound

> <ChemNote>


> <STRUCTURE_Shown>
tested chemical

> <STRUCTURE_Formula>
C11H21N

> <STRUCTURE_MW>
167.2911

> <STRUCTURE_ChemType>
defined organic

> <STRUCTURE_DefinedOrganicForm>
parent

> <STRUCTURE_IUPAC>
N,2,3,3-tetramethylbicyclo[2.2.1]heptan-2-amine

> <STRUCTURE_SMILES>
CNC2(C)C1CCC(C1)C2(C)C

> <STRUCTURE_SMILES_Desalt>
CNC2(C)C1CCC(C1)C2(C)C

> <Substance_modify_yyyymmdd>
20080429

$$$$
