60-56-0
ChemmineR-0914142331XD

  7  7  0  0  0  0  0  0  0  0  1 V2000
    2.1116   -3.4168    0.0000 N   0  0  0  0  0  0  0  0  0  0  0  0
    1.3291   -2.3405    0.0000 C   0  0  0  0  0  0  0  0  0  0  0  0
    2.1116   -1.2642    0.0000 N   0  0  0  0  0  0  0  0  0  0  0  0
    3.3758   -1.6742    0.0000 C   0  0  0  0  0  0  0  0  0  0  0  0
    3.3758   -3.0067    0.0000 C   0  0  0  0  0  0  0  0  0  0  0  0
    1.7015    0.0000    0.0000 C   0  0  0  0  0  0  0  0  0  0  0  0
    0.0000   -2.3405    0.0000 S   0  0  0  0  0  0  0  0  0  0  0  0
  1  2  1  0  0  0  0
  1  5  1  0  0  0  0
  2  3  1  0  0  0  0
  2  7  2  0  0  0  0
  3  4  1  0  0  0  0
  3  6  1  0  0  0  0
  4  5  2  0  0  0  0
M  END
> <ID>
786

> <Formula>
C4H6N2S

> <FW>
114.1688

> <DSSTox_CID>
820

> <DSSTox_RID>
75808

> <DSSTox_GSID>
20820

> <DSSTox_FileID_Sort>
492

> <TS_ChemName>
Methimazole

> <TS_ChemName_Synonyms>


> <TS_CASRN>
60-56-0

> <CASRN_ChemName_Relationship>
primary

> <TS_Description>
single chemical compound

> <ChemNote>
tautomers

> <STRUCTURE_Shown>
tested chemical

> <STRUCTURE_Formula>
C4H6N2S

> <STRUCTURE_MW>
114.1688

> <STRUCTURE_ChemType>
defined organic

> <STRUCTURE_DefinedOrganicForm>
parent

> <STRUCTURE_IUPAC>
1-methyl-1,3-dihydro-2H-imidazole-2-thione

> <STRUCTURE_SMILES>
S=C1NC=CN1C

> <STRUCTURE_SMILES_Desalt>
S=C1NC=CN1C

> <Substance_modify_yyyymmdd>
20080429

$$$$
