60-87-7
ChemmineR-0914142331XD

 20 22  0  0  0  0  0  0  0  0  1 V2000
    4.6030    0.0000    0.0000 C   0  0  0  0  0  0  0  0  0  0  0  0
    5.7558   -0.6691    0.0000 C   0  0  0  0  0  0  0  0  0  0  0  0
    5.7558   -1.9992    0.0000 C   0  0  0  0  0  0  0  0  0  0  0  0
    4.6030   -2.6602    0.0000 C   0  0  0  0  0  0  0  0  0  0  0  0
    3.4583   -1.9992    0.0000 C   0  0  0  0  0  0  0  0  0  0  0  0
    3.4583   -0.6691    0.0000 C   0  0  0  0  0  0  0  0  0  0  0  0
    4.6030   -3.9903    0.0000 N   0  0  0  0  0  0  0  0  0  0  0  0
    3.4583   -4.6594    0.0000 C   0  0  0  0  0  0  0  0  0  0  0  0
    2.3055   -3.9903    0.0000 C   0  0  0  0  0  0  0  0  0  0  0  0
    2.3055   -2.6602    0.0000 C   0  0  0  0  0  0  0  0  0  0  0  0
    1.1528   -4.6594    0.0000 N   0  0  0  0  0  0  0  0  0  0  0  0
    0.0000   -3.9903    0.0000 C   0  0  0  0  0  0  0  0  0  0  0  0
    1.1528   -5.9895    0.0000 C   0  0  0  0  0  0  0  0  0  0  0  0
    5.7558   -4.6594    0.0000 C   0  0  0  0  0  0  0  0  0  0  0  0
    6.9085   -3.9903    0.0000 C   0  0  0  0  0  0  0  0  0  0  0  0
    6.9085   -2.6602    0.0000 S   0  0  0  0  0  0  0  0  0  0  0  0
    8.0613   -4.6594    0.0000 C   0  0  0  0  0  0  0  0  0  0  0  0
    8.0613   -5.9895    0.0000 C   0  0  0  0  0  0  0  0  0  0  0  0
    6.9085   -6.6506    0.0000 C   0  0  0  0  0  0  0  0  0  0  0  0
    5.7558   -5.9895    0.0000 C   0  0  0  0  0  0  0  0  0  0  0  0
  1  2  2  0  0  0  0
  1  6  1  0  0  0  0
  2  3  1  0  0  0  0
  3  4  2  0  0  0  0
  3 16  1  0  0  0  0
  4  5  1  0  0  0  0
  4  7  1  0  0  0  0
  5  6  2  0  0  0  0
  7  8  1  0  0  0  0
  7 14  1  0  0  0  0
  8  9  1  0  0  0  0
  9 10  1  0  0  0  0
  9 11  1  0  0  0  0
 11 12  1  0  0  0  0
 11 13  1  0  0  0  0
 14 15  2  0  0  0  0
 14 20  1  0  0  0  0
 15 16  1  0  0  0  0
 15 17  1  0  0  0  0
 17 18  2  0  0  0  0
 18 19  1  0  0  0  0
 19 20  2  0  0  0  0
M  END
> <ID>
3150

> <Formula>
C17H20N2S

> <FW>
284.4191

> <DSSTox_CID>
3518

> <DSSTox_RID>
77061

> <DSSTox_GSID>
23518

> <DSSTox_FileID_Sort>
1744

> <TS_ChemName>
Promethazine

> <TS_ChemName_Synonyms>


> <TS_CASRN>
60-87-7

> <CASRN_ChemName_Relationship>
primary

> <TS_Description>
single chemical compound

> <ChemNote>


> <STRUCTURE_Shown>
tested chemical

> <STRUCTURE_Formula>
C17H20N2S

> <STRUCTURE_MW>
284.4191

> <STRUCTURE_ChemType>
defined organic

> <STRUCTURE_DefinedOrganicForm>
parent

> <STRUCTURE_IUPAC>
N,N-dimethyl-1-(10H-phenothiazin-10-yl)propan-2-amine

> <STRUCTURE_SMILES>
CN(C)C(C)CN1c3ccccc3Sc2ccccc12

> <STRUCTURE_SMILES_Desalt>
CN(C)C(C)CN1c3ccccc3Sc2ccccc12

> <Substance_modify_yyyymmdd>
20080429

$$$$
