603-50-9
ChemmineR-0914142331XD

 27 29  0  0  0  0  0  0  0  0  1 V2000
    8.0660   -0.6641    0.0000 C   0  0  0  0  0  0  0  0  0  0  0  0
    8.0660   -1.9923    0.0000 C   0  0  0  0  0  0  0  0  0  0  0  0
    6.9176   -2.6564    0.0000 C   0  0  0  0  0  0  0  0  0  0  0  0
    6.9176   -3.9984    0.0000 C   0  0  0  0  0  0  0  0  0  0  0  0
    8.0660   -4.6625    0.0000 C   0  0  0  0  0  0  0  0  0  0  0  0
    9.2281   -3.9984    0.0000 C   0  0  0  0  0  0  0  0  0  0  0  0
   10.3764   -4.6625    0.0000 C   0  0  0  0  0  0  0  0  0  0  0  0
   10.3764   -5.9907    0.0000 C   0  0  0  0  0  0  0  0  0  0  0  0
   11.5248   -6.6548    0.0000 O   0  0  0  0  0  0  0  0  0  0  0  0
   12.6869   -5.9907    0.0000 C   0  0  0  0  0  0  0  0  0  0  0  0
   13.8353   -6.6548    0.0000 C   0  0  0  0  0  0  0  0  0  0  0  0
   12.6869   -4.6625    0.0000 O   0  0  0  0  0  0  0  0  0  0  0  0
    9.2281   -6.6548    0.0000 C   0  0  0  0  0  0  0  0  0  0  0  0
    8.0660   -5.9907    0.0000 C   0  0  0  0  0  0  0  0  0  0  0  0
    5.7693   -4.6625    0.0000 C   0  0  0  0  0  0  0  0  0  0  0  0
    5.7693   -5.9907    0.0000 C   0  0  0  0  0  0  0  0  0  0  0  0
    4.6071   -6.6548    0.0000 C   0  0  0  0  0  0  0  0  0  0  0  0
    3.4588   -5.9907    0.0000 C   0  0  0  0  0  0  0  0  0  0  0  0
    2.3105   -6.6548    0.0000 O   0  0  0  0  0  0  0  0  0  0  0  0
    1.1483   -5.9907    0.0000 C   0  0  0  0  0  0  0  0  0  0  0  0
    0.0000   -6.6548    0.0000 C   0  0  0  0  0  0  0  0  0  0  0  0
    1.1483   -4.6625    0.0000 O   0  0  0  0  0  0  0  0  0  0  0  0
    3.4588   -4.6625    0.0000 C   0  0  0  0  0  0  0  0  0  0  0  0
    4.6071   -3.9984    0.0000 C   0  0  0  0  0  0  0  0  0  0  0  0
    5.7693   -1.9923    0.0000 N   0  0  0  0  0  0  0  0  0  0  0  0
    5.7693   -0.6641    0.0000 C   0  0  0  0  0  0  0  0  0  0  0  0
    6.9176    0.0000    0.0000 C   0  0  0  0  0  0  0  0  0  0  0  0
  1  2  2  0  0  0  0
  1 27  1  0  0  0  0
  2  3  1  0  0  0  0
  3  4  1  0  0  0  0
  3 25  2  0  0  0  0
  4  5  1  0  0  0  0
  4 15  1  0  0  0  0
  5  6  2  0  0  0  0
  5 14  1  0  0  0  0
  6  7  1  0  0  0  0
  7  8  2  0  0  0  0
  8  9  1  0  0  0  0
  8 13  1  0  0  0  0
  9 10  1  0  0  0  0
 10 11  1  0  0  0  0
 10 12  2  0  0  0  0
 13 14  2  0  0  0  0
 15 16  2  0  0  0  0
 15 24  1  0  0  0  0
 16 17  1  0  0  0  0
 17 18  2  0  0  0  0
 18 19  1  0  0  0  0
 18 23  1  0  0  0  0
 19 20  1  0  0  0  0
 20 21  1  0  0  0  0
 20 22  2  0  0  0  0
 23 24  2  0  0  0  0
 25 26  1  0  0  0  0
 26 27  2  0  0  0  0
M  END
> <ID>
2427

> <Formula>
C22H19NO4

> <FW>
361.3906

> <DSSTox_CID>
2681

> <DSSTox_RID>
76689

> <DSSTox_GSID>
22681

> <DSSTox_FileID_Sort>
1373

> <TS_ChemName>
Bisacodyl

> <TS_ChemName_Synonyms>


> <TS_CASRN>
603-50-9

> <CASRN_ChemName_Relationship>
primary

> <TS_Description>
single chemical compound

> <ChemNote>


> <STRUCTURE_Shown>
tested chemical

> <STRUCTURE_Formula>
C22H19NO4

> <STRUCTURE_MW>
361.3906

> <STRUCTURE_ChemType>
defined organic

> <STRUCTURE_DefinedOrganicForm>
parent

> <STRUCTURE_IUPAC>
(pyridin-2-ylmethanediyl)dibenzene-4,1-diyl diacetate

> <STRUCTURE_SMILES>
CC(=O)Oc1ccc(cc1)C(c2ccc(OC(C)=O)cc2)c3ccccn3

> <STRUCTURE_SMILES_Desalt>
CC(=O)Oc1ccc(cc1)C(c2ccc(OC(C)=O)cc2)c3ccccn3

> <Substance_modify_yyyymmdd>
20080429

$$$$
