603-00-9
ChemmineR-0914142331XD

 17 18  0  0  0  0  0  0  0  0  1 V2000
    2.1944   -1.2686    0.0000 N   0  0  0  0  0  0  0  0  0  0  0  0
    1.7829    0.0000    0.0000 C   0  0  0  0  0  0  0  0  0  0  0  0
    1.3029   -2.2544    0.0000 C   0  0  0  0  0  0  0  0  0  0  0  0
    0.0000   -1.9801    0.0000 O   0  0  0  0  0  0  0  0  0  0  0  0
    1.7144   -3.5144    0.0000 N   0  0  0  0  0  0  0  0  0  0  0  0
    0.8229   -4.5088    0.0000 C   0  0  0  0  0  0  0  0  0  0  0  0
    3.0087   -3.7973    0.0000 C   0  0  0  0  0  0  0  0  0  0  0  0
    3.9002   -2.8030    0.0000 C   0  0  0  0  0  0  0  0  0  0  0  0
    3.4887   -1.5429    0.0000 C   0  0  0  0  0  0  0  0  0  0  0  0
    4.3802   -0.5572    0.0000 O   0  0  0  0  0  0  0  0  0  0  0  0
    5.1174   -3.3430    0.0000 N   0  0  0  0  0  0  0  0  0  0  0  0
    6.2660   -2.6830    0.0000 C   0  0  0  0  0  0  0  0  0  0  0  0
    7.4232   -3.3430    0.0000 C   0  0  0  0  0  0  0  0  0  0  0  0
    8.5718   -2.6830    0.0000 C   0  0  0  0  0  0  0  0  0  0  0  0
    7.4232   -4.6802    0.0000 O   0  0  0  0  0  0  0  0  0  0  0  0
    4.9802   -4.6716    0.0000 C   0  0  0  0  0  0  0  0  0  0  0  0
    3.6773   -4.9459    0.0000 N   0  0  0  0  0  0  0  0  0  0  0  0
  1  2  1  0  0  0  0
  1  3  1  0  0  0  0
  1  9  1  0  0  0  0
  3  4  2  0  0  0  0
  3  5  1  0  0  0  0
  5  6  1  0  0  0  0
  5  7  1  0  0  0  0
  7  8  2  0  0  0  0
  7 17  1  0  0  0  0
  8  9  1  0  0  0  0
  8 11  1  0  0  0  0
  9 10  2  0  0  0  0
 11 12  1  0  0  0  0
 11 16  1  0  0  0  0
 12 13  1  0  0  0  0
 13 14  1  0  0  0  0
 13 15  1  0  0  0  0
 16 17  2  0  0  0  0
M  END
> <ID>
3165

> <Formula>
C10H14N4O3

> <FW>
238.2432

> <DSSTox_CID>
3536

> <DSSTox_RID>
77068

> <DSSTox_GSID>
23536

> <DSSTox_FileID_Sort>
1751

> <TS_ChemName>
Proxyphylline

> <TS_ChemName_Synonyms>


> <TS_CASRN>
603-00-9

> <CASRN_ChemName_Relationship>
primary

> <TS_Description>
single chemical compound

> <ChemNote>


> <STRUCTURE_Shown>
tested chemical

> <STRUCTURE_Formula>
C10H14N4O3

> <STRUCTURE_MW>
238.2432

> <STRUCTURE_ChemType>
defined organic

> <STRUCTURE_DefinedOrganicForm>
parent

> <STRUCTURE_IUPAC>
7-(2-hydroxypropyl)-1,3-dimethyl-3,7-dihydro-1H-purine-2,6-dione

> <STRUCTURE_SMILES>
CC(O)Cn2cnc1c2C(=O)N(C)C(=O)N1C

> <STRUCTURE_SMILES_Desalt>
CC(O)Cn2cnc1c2C(=O)N(C)C(=O)N1C

> <Substance_modify_yyyymmdd>
20080429

$$$$
