604-75-1
ChemmineR-0914142331XD

 20 22  0  0  0  0  0  0  0  0  1 V2000
    1.6905    0.0000    0.0000 Cl   0  0  0  0  0  0  0  0  0  0  0  0
    2.8391   -0.6633    0.0000 C    0  0  0  0  0  0  0  0  0  0  0  0
    3.9958    0.0000    0.0000 C    0  0  0  0  0  0  0  0  0  0  0  0
    5.1444   -0.6633    0.0000 C    0  0  0  0  0  0  0  0  0  0  0  0
    5.1444   -1.9979    0.0000 C    0  0  0  0  0  0  0  0  0  0  0  0
    3.9958   -2.6612    0.0000 C    0  0  0  0  0  0  0  0  0  0  0  0
    2.8391   -1.9979    0.0000 C    0  0  0  0  0  0  0  0  0  0  0  0
    3.7774   -3.9958    0.0000 C    0  0  0  0  0  0  0  0  0  0  0  0
    4.7157   -4.9341    0.0000 N    0  0  0  0  0  0  0  0  0  0  0  0
    6.0261   -4.8532    0.0000 C    0  0  0  0  0  0  0  0  0  0  0  0
    6.6894   -6.0018    0.0000 O    0  0  0  0  0  0  0  0  0  0  0  0
    6.7703   -3.7532    0.0000 C    0  0  0  0  0  0  0  0  0  0  0  0
    8.0887   -3.9554    0.0000 O    0  0  0  0  0  0  0  0  0  0  0  0
    6.3820   -2.4832    0.0000 N    0  0  0  0  0  0  0  0  0  0  0  0
    2.5075   -4.3841    0.0000 C    0  0  0  0  0  0  0  0  0  0  0  0
    2.2244   -5.6621    0.0000 C    0  0  0  0  0  0  0  0  0  0  0  0
    0.9383   -6.0746    0.0000 C    0  0  0  0  0  0  0  0  0  0  0  0
    0.0000   -5.1363    0.0000 C    0  0  0  0  0  0  0  0  0  0  0  0
    0.2750   -3.8583    0.0000 C    0  0  0  0  0  0  0  0  0  0  0  0
    1.5692   -3.4458    0.0000 C    0  0  0  0  0  0  0  0  0  0  0  0
  1  2  1  0  0  0  0
  2  3  2  0  0  0  0
  2  7  1  0  0  0  0
  3  4  1  0  0  0  0
  4  5  2  0  0  0  0
  5  6  1  0  0  0  0
  5 14  1  0  0  0  0
  6  7  2  0  0  0  0
  6  8  1  0  0  0  0
  8  9  2  0  0  0  0
  8 15  1  0  0  0  0
  9 10  1  0  0  0  0
 10 11  1  0  0  0  0
 10 12  1  0  0  0  0
 12 13  2  0  0  0  0
 12 14  1  0  0  0  0
 15 16  2  0  0  0  0
 15 20  1  0  0  0  0
 16 17  1  0  0  0  0
 17 18  2  0  0  0  0
 18 19  1  0  0  0  0
 19 20  2  0  0  0  0
M  END
> <ID>
1046

> <Formula>
C15H11ClN2O2

> <FW>
286.713

> <DSSTox_CID>
1087

> <DSSTox_RID>
75934

> <DSSTox_GSID>
21087

> <DSSTox_FileID_Sort>
618

> <TS_ChemName>
Oxazepam

> <TS_ChemName_Synonyms>


> <TS_CASRN>
604-75-1

> <CASRN_ChemName_Relationship>
primary

> <TS_Description>
single chemical compound

> <ChemNote>
tautomers

> <STRUCTURE_Shown>
tested chemical

> <STRUCTURE_Formula>
C15H11ClN2O2

> <STRUCTURE_MW>
286.713

> <STRUCTURE_ChemType>
defined organic

> <STRUCTURE_DefinedOrganicForm>
parent

> <STRUCTURE_IUPAC>
7-chloro-3-hydroxy-5-phenyl-1,3-dihydro-2H-1,4-benzodiazepin-2-one

> <STRUCTURE_SMILES>
Clc1ccc2NC(=O)C(O)N=C(c2c1)c3ccccc3

> <STRUCTURE_SMILES_Desalt>
Clc1ccc2NC(=O)C(O)N=C(c2c1)c3ccccc3

> <Substance_modify_yyyymmdd>
20080429

$$$$
