61-75-6
ChemmineR-0914142331XD

 24 24  0  0  0  0  0  0  0  0  2 V2000
    3.5508    0.0000    0.0000 Br   0  0  0  0  0  0  0  0  0  0  0  0
    4.2119   -1.1521    0.0000 C    0  0  0  0  0  0  0  0  0  0  0  0
    5.5435   -1.1521    0.0000 C    0  0  0  0  0  0  0  0  0  0  0  0
    6.2045   -2.3043    0.0000 C    0  0  0  0  0  0  0  0  0  0  0  0
    5.5435   -3.4564    0.0000 C    0  0  0  0  0  0  0  0  0  0  0  0
    4.2119   -3.4564    0.0000 C    0  0  0  0  0  0  0  0  0  0  0  0
    3.5508   -2.3043    0.0000 C    0  0  0  0  0  0  0  0  0  0  0  0
    2.2193   -2.3043    0.0000 C    0  0  0  0  0  0  0  0  0  0  0  0
    1.5488   -3.4564    0.0000 N    0  3  0  0  0  0  0  0  0  0  0  0
    0.3966   -2.7953    0.0000 C    0  0  0  0  0  0  0  0  0  0  0  0
    0.8877   -4.6085    0.0000 C    0  0  0  0  0  0  0  0  0  0  0  0
    2.7009   -4.1175    0.0000 C    0  0  0  0  0  0  0  0  0  0  0  0
    2.7009   -5.4490    0.0000 C    0  0  0  0  0  0  0  0  0  0  0  0
    6.6484   -8.1122    0.0000 O    0  5  0  0  0  0  0  0  0  0  0  0
    5.3263   -8.1122    0.0000 S    0  0  0  0  0  0  0  0  0  0  0  0
    5.3263   -6.7806    0.0000 O    0  0  0  0  0  0  0  0  0  0  0  0
    5.3263   -9.4437    0.0000 O    0  0  0  0  0  0  0  0  0  0  0  0
    3.9947   -8.1122    0.0000 C    0  0  0  0  0  0  0  0  0  0  0  0
    3.3242   -9.2643    0.0000 C    0  0  0  0  0  0  0  0  0  0  0  0
    1.9926   -9.2643    0.0000 C    0  0  0  0  0  0  0  0  0  0  0  0
    1.3316   -8.1122    0.0000 C    0  0  0  0  0  0  0  0  0  0  0  0
    0.0000   -8.1122    0.0000 C    0  0  0  0  0  0  0  0  0  0  0  0
    1.9926   -6.9600    0.0000 C    0  0  0  0  0  0  0  0  0  0  0  0
    3.3242   -6.9600    0.0000 C    0  0  0  0  0  0  0  0  0  0  0  0
  1  2  1  0  0  0  0
  2  3  2  0  0  0  0
  2  7  1  0  0  0  0
  3  4  1  0  0  0  0
  4  5  2  0  0  0  0
  5  6  1  0  0  0  0
  6  7  2  0  0  0  0
  7  8  1  0  0  0  0
  8  9  1  0  0  0  0
  9 10  1  0  0  0  0
  9 11  1  0  0  0  0
  9 12  1  0  0  0  0
 12 13  1  0  0  0  0
 14 15  1  0  0  0  0
 15 16  2  0  0  0  0
 15 17  2  0  0  0  0
 15 18  1  0  0  0  0
 18 19  2  0  0  0  0
 18 24  1  0  0  0  0
 19 20  1  0  0  0  0
 20 21  2  0  0  0  0
 21 22  1  0  0  0  0
 21 23  1  0  0  0  0
 23 24  2  0  0  0  0
M  END
> <ID>
2431

> <Formula>
C18H24BrNO3S

> <FW>
414.3571 (243.1628+171.1942)

> <DSSTox_CID>
2685

> <DSSTox_RID>
76691

> <DSSTox_GSID>
22685

> <DSSTox_FileID_Sort>
1375

> <TS_ChemName>
Bretylium tosylate

> <TS_ChemName_Synonyms>


> <TS_CASRN>
61-75-6

> <CASRN_ChemName_Relationship>
primary

> <TS_Description>
single chemical compound

> <ChemNote>
ammonium; parent [59-41-6]

> <STRUCTURE_Shown>
tested chemical

> <STRUCTURE_Formula>
C18H24BrNO3S

> <STRUCTURE_MW>
414.3571

> <STRUCTURE_ChemType>
defined organic

> <STRUCTURE_DefinedOrganicForm>
complex

> <STRUCTURE_IUPAC>
N-(2-bromobenzyl)-N,N-dimethylethanaminium 4-methylbenzenesulfonate

> <STRUCTURE_SMILES>
Brc1ccccc1C[N+](C)(C)CC.[O-]S(=O)(=O)c1ccc(C)cc1

> <STRUCTURE_SMILES_Desalt>
Brc1ccccc1C[N+](C)(C)CC

> <Substance_modify_yyyymmdd>
20080429

$$$$
