61-82-5
ChemmineR-0914142331XD

  6  6  0  0  0  0  0  0  0  0  1 V2000
    1.3304   -1.0738    0.0000 C   0  0  0  0  0  0  0  0  0  0  0  0
    2.1104    0.0000    0.0000 N   0  0  0  0  0  0  0  0  0  0  0  0
    3.3767   -0.4086    0.0000 C   0  0  0  0  0  0  0  0  0  0  0  0
    3.3767   -1.7390    0.0000 N   0  0  0  0  0  0  0  0  0  0  0  0
    2.1104   -2.1509    0.0000 N   0  0  0  0  0  0  0  0  0  0  0  0
    0.0000   -1.0738    0.0000 N   0  0  0  0  0  0  0  0  0  0  0  0
  1  2  1  0  0  0  0
  1  5  2  0  0  0  0
  1  6  1  0  0  0  0
  2  3  2  0  0  0  0
  3  4  1  0  0  0  0
  4  5  1  0  0  0  0
M  END
> <ID>
75

> <Formula>
C2H4N4

> <FW>
84.08

> <DSSTox_CID>
76

> <DSSTox_RID>
75351

> <DSSTox_GSID>
20076

> <DSSTox_FileID_Sort>
35

> <TS_ChemName>
Amitrole

> <TS_ChemName_Synonyms>
3-Aminotriazole; 3-Amino-1,2,4-triazole; 1H-1,2,4-Triazol-3-amine

> <TS_CASRN>
61-82-5

> <CASRN_ChemName_Relationship>
primary

> <TS_Description>
single chemical compound

> <ChemNote>
tautomers

> <STRUCTURE_Shown>
tested chemical

> <STRUCTURE_Formula>
C2H4N4

> <STRUCTURE_MW>
84.08

> <STRUCTURE_ChemType>
defined organic

> <STRUCTURE_DefinedOrganicForm>
parent

> <STRUCTURE_IUPAC>
1H-1,2,4-triazol-3-amine

> <STRUCTURE_SMILES>
Nc1ncnn1

> <STRUCTURE_SMILES_Desalt>
Nc1ncnn1

> <Substance_modify_yyyymmdd>
20080429

$$$$
