61702-44-1
ChemmineR-0914142331XD

 14 13  0  0  0  0  0  0  0  0  1 V2000
    4.6076   -2.6595    0.0000 Cl   0  0  0  0  0  0  0  0  0  0  0  0
    3.4573   -1.9946    0.0000 C    0  0  0  0  0  0  0  0  0  0  0  0
    2.3005   -2.6595    0.0000 C    0  0  0  0  0  0  0  0  0  0  0  0
    1.1502   -1.9946    0.0000 C    0  0  0  0  0  0  0  0  0  0  0  0
    1.1502   -0.6649    0.0000 C    0  0  0  0  0  0  0  0  0  0  0  0
    2.3005    0.0000    0.0000 C    0  0  0  0  0  0  0  0  0  0  0  0
    3.4573   -0.6649    0.0000 C    0  0  0  0  0  0  0  0  0  0  0  0
    4.6076    0.0000    0.0000 N    0  0  0  0  0  0  0  0  0  0  0  0
    0.0000   -2.6595    0.0000 N    0  0  0  0  0  0  0  0  0  0  0  0
    2.2606   -6.6487    0.0000 O    0  0  0  0  0  0  0  0  0  0  0  0
    2.2606   -5.3190    0.0000 S    0  0  0  0  0  0  0  0  0  0  0  0
    2.2606   -3.9892    0.0000 O    0  0  0  0  0  0  0  0  0  0  0  0
    0.9308   -5.3190    0.0000 O    0  0  0  0  0  0  0  0  0  0  0  0
    3.5903   -5.3190    0.0000 O    0  0  0  0  0  0  0  0  0  0  0  0
  1  2  1  0  0  0  0
  2  3  2  0  0  0  0
  2  7  1  0  0  0  0
  3  4  1  0  0  0  0
  4  5  2  0  0  0  0
  4  9  1  0  0  0  0
  5  6  1  0  0  0  0
  6  7  2  0  0  0  0
  7  8  1  0  0  0  0
 10 11  2  0  0  0  0
 11 12  2  0  0  0  0
 11 13  1  0  0  0  0
 11 14  1  0  0  0  0
M  END
> <ID>
275

> <Formula>
C6H9ClN2O4S

> <FW>
240.6647 (142.5862+98.0785)

> <DSSTox_CID>
284

> <DSSTox_RID>
75487

> <DSSTox_GSID>
20284

> <DSSTox_FileID_Sort>
171

> <TS_ChemName>
2-Chloro-1,4-diaminobenzene sulfate

> <TS_ChemName_Synonyms>
2-Chloro-1,4-diaminobenzene sulfate (2-Chloro-p-phenylenediamine sulfate)

> <TS_CASRN>
61702-44-1

> <CASRN_ChemName_Relationship>
primary

> <TS_Description>
single chemical compound

> <ChemNote>
parent [615-66-7]

> <STRUCTURE_Shown>
tested chemical

> <STRUCTURE_Formula>
C6H9ClN2O4S

> <STRUCTURE_MW>
240.6647

> <STRUCTURE_ChemType>
defined organic

> <STRUCTURE_DefinedOrganicForm>
complex

> <STRUCTURE_IUPAC>
2-chlorobenzene-1,4-diamine sulfate (1:1)

> <STRUCTURE_SMILES>
Nc1cc(Cl)c(N)cc1.O=S(=O)(O)O

> <STRUCTURE_SMILES_Desalt>
Nc1cc(Cl)c(N)cc1

> <Substance_modify_yyyymmdd>
20080429

$$$$
