61869-08-7
ChemmineR-0914142331XD

 24 27  0  0  1  0  0  0  0  0  1 V2000
    2.3062   -4.6609    0.0000 C   0  0  0  0  0  0  0  0  0  0  0  0
    2.3062   -5.9960    0.0000 C   0  0  0  0  0  0  0  0  0  0  0  0
    1.1571   -3.9892    0.0000 C   0  0  0  0  0  0  0  0  0  0  0  0
    1.1571   -6.6514    0.0000 C   0  0  0  0  0  0  0  0  0  0  0  0
    0.0000   -4.6609    0.0000 C   0  0  0  0  0  0  0  0  0  0  0  0
    0.0000   -5.9960    0.0000 C   0  0  0  0  0  0  0  0  0  0  0  0
    1.1571   -2.6622    0.0000 C   0  0  0  0  0  0  0  0  0  0  0  0
    0.0000   -2.0068    0.0000 C   0  0  0  0  0  0  0  0  0  0  0  0
    2.3062   -1.9906    0.0000 C   0  0  0  0  0  0  0  0  0  0  0  0
    0.0000   -0.6554    0.0000 C   0  0  0  0  0  0  0  0  0  0  0  0
    2.3062   -0.6554    0.0000 C   0  0  0  0  0  0  0  0  0  0  0  0
    1.1571    0.0000    0.0000 N   0  0  0  0  0  0  0  0  0  0  0  0
    1.1571   -7.9785    0.0000 F   0  0  0  0  0  0  0  0  0  0  0  0
    3.4633   -2.6622    0.0000 C   0  0  0  0  0  0  0  0  0  0  0  0
    3.4633   -3.9892    0.0000 O   0  0  0  0  0  0  0  0  0  0  0  0
    4.6123   -4.6447    0.0000 C   0  0  0  0  0  0  0  0  0  0  0  0
    5.7694   -3.9892    0.0000 C   0  0  0  0  0  0  0  0  0  0  0  0
    4.6123   -5.9798    0.0000 C   0  0  0  0  0  0  0  0  0  0  0  0
    6.9023   -4.6447    0.0000 C   0  0  0  0  0  0  0  0  0  0  0  0
    5.7694   -6.6514    0.0000 C   0  0  0  0  0  0  0  0  0  0  0  0
    6.9023   -5.9798    0.0000 C   0  0  0  0  0  0  0  0  0  0  0  0
    6.0446   -7.9461    0.0000 O   0  0  0  0  0  0  0  0  0  0  0  0
    7.3554   -8.0918    0.0000 C   0  0  0  0  0  0  0  0  0  0  0  0
    7.8976   -6.8780    0.0000 O   0  0  0  0  0  0  0  0  0  0  0  0
  1  2  1  0  0  0  0
  1  3  2  0  0  0  0
  2  4  2  0  0  0  0
  3  5  1  0  0  0  0
  7  3  1  6  0  0  0
  4  6  1  0  0  0  0
  4 13  1  0  0  0  0
  5  6  2  0  0  0  0
  7  8  1  0  0  0  0
  7  9  1  0  0  0  0
  8 10  1  0  0  0  0
  9 11  1  0  0  0  0
  9 14  1  1  0  0  0
 10 12  1  0  0  0  0
 11 12  1  0  0  0  0
 14 15  1  0  0  0  0
 15 16  1  0  0  0  0
 16 17  1  0  0  0  0
 16 18  2  0  0  0  0
 17 19  2  0  0  0  0
 18 20  1  0  0  0  0
 19 21  1  0  0  0  0
 20 21  2  0  0  0  0
 20 22  1  0  0  0  0
 21 24  1  0  0  0  0
 22 23  1  0  0  0  0
 23 24  1  0  0  0  0
M  END
> <ID>
3072

> <Formula>
C19H20FNO3

> <FW>
329.3654

> <DSSTox_CID>
3425

> <DSSTox_RID>
77022

> <DSSTox_GSID>
23425

> <DSSTox_FileID_Sort>
1706

> <TS_ChemName>
Paroxetine

> <TS_ChemName_Synonyms>


> <TS_CASRN>
61869-08-7

> <CASRN_ChemName_Relationship>
primary

> <TS_Description>
single chemical compound

> <ChemNote>
stereochem

> <STRUCTURE_Shown>
tested chemical

> <STRUCTURE_Formula>
C19H20FNO3

> <STRUCTURE_MW>
329.3654

> <STRUCTURE_ChemType>
defined organic

> <STRUCTURE_DefinedOrganicForm>
parent

> <STRUCTURE_IUPAC>
(3S,4R)-3-[(1,3-benzodioxol-5-yloxy)methyl]-4-(4-fluorophenyl)piperidine

> <STRUCTURE_SMILES>
Fc1ccc(cc1)[C@@H]4CCNC[C@H]4COc2ccc3OCOc3c2

> <STRUCTURE_SMILES_Desalt>
Fc1ccc(cc1)[C@@H]4CCNC[C@H]4COc2ccc3OCOc3c2

> <Substance_modify_yyyymmdd>
20080429

$$$$
