62-38-4
ChemmineR-0914142331XD

 11 11  0  0  0  0  0  0  0  0  1 V2000
    0.0000   -2.3079    0.0000 C    0  0  0  0  0  0  0  0  0  0  0  0
    0.6651   -1.1573    0.0000 C    0  0  0  0  0  0  0  0  0  0  0  0
    0.0000    0.0000    0.0000 O    0  0  0  0  0  0  0  0  0  0  0  0
    1.9953   -1.1573    0.0000 O    0  0  0  0  0  0  0  0  0  0  0  0
    2.6605   -2.3079    0.0000 Hg   0  0  0  0  0  0  0  0  0  0  0  0
    3.9907   -2.3079    0.0000 C    0  0  0  0  0  0  0  0  0  0  0  0
    4.6558   -1.1573    0.0000 C    0  0  0  0  0  0  0  0  0  0  0  0
    5.9860   -1.1573    0.0000 C    0  0  0  0  0  0  0  0  0  0  0  0
    6.6511   -2.3079    0.0000 C    0  0  0  0  0  0  0  0  0  0  0  0
    5.9860   -3.4586    0.0000 C    0  0  0  0  0  0  0  0  0  0  0  0
    4.6558   -3.4586    0.0000 C    0  0  0  0  0  0  0  0  0  0  0  0
  1  2  1  0  0  0  0
  2  3  2  0  0  0  0
  2  4  1  0  0  0  0
  4  5  1  0  0  0  0
  5  6  1  0  0  0  0
  6  7  2  0  0  0  0
  6 11  1  0  0  0  0
  7  8  1  0  0  0  0
  8  9  2  0  0  0  0
  9 10  1  0  0  0  0
 10 11  2  0  0  0  0
M  END
> <ID>
1106

> <Formula>
C8H8HgO2

> <FW>
336.7379

> <DSSTox_CID>
1150

> <DSSTox_RID>
75977

> <DSSTox_GSID>
21150

> <DSSTox_FileID_Sort>
661

> <TS_ChemName>
Phenylmercuric acetate

> <TS_ChemName_Synonyms>


> <TS_CASRN>
62-38-4

> <CASRN_ChemName_Relationship>
primary

> <TS_Description>
single chemical compound

> <ChemNote>


> <STRUCTURE_Shown>
tested chemical

> <STRUCTURE_Formula>
C8H8HgO2

> <STRUCTURE_MW>
336.7379

> <STRUCTURE_ChemType>
organometallic

> <STRUCTURE_DefinedOrganicForm>


> <STRUCTURE_IUPAC>
(acetato-kappaO)(phenyl)mercury

> <STRUCTURE_SMILES>
CC(=O)O[Hg]c1ccccc1

> <STRUCTURE_SMILES_Desalt>
CC(=O)O[Hg]c1ccccc1

> <Substance_modify_yyyymmdd>
20080429

$$$$
