62-56-6
ChemmineR-0914142331XD

  4  3  0  0  0  0  0  0  0  0  1 V2000
    1.9950    0.0000    0.0000 N   0  0  0  0  0  0  0  0  0  0  0  0
    1.3292   -1.1518    0.0000 C   0  0  0  0  0  0  0  0  0  0  0  0
    1.9950   -2.3037    0.0000 S   0  0  0  0  0  0  0  0  0  0  0  0
    0.0000   -1.1518    0.0000 N   0  0  0  0  0  0  0  0  0  0  0  0
  1  2  1  0  0  0  0
  2  3  2  0  0  0  0
  2  4  1  0  0  0  0
M  END
> <ID>
1295

> <Formula>
CH4N2S

> <FW>
76.1209

> <DSSTox_CID>
1348

> <DSSTox_RID>
76101

> <DSSTox_GSID>
21348

> <DSSTox_FileID_Sort>
785

> <TS_ChemName>
Thiourea

> <TS_ChemName_Synonyms>


> <TS_CASRN>
62-56-6

> <CASRN_ChemName_Relationship>
primary

> <TS_Description>
single chemical compound

> <ChemNote>


> <STRUCTURE_Shown>
tested chemical

> <STRUCTURE_Formula>
CH4N2S

> <STRUCTURE_MW>
76.1209

> <STRUCTURE_ChemType>
defined organic

> <STRUCTURE_DefinedOrganicForm>
parent

> <STRUCTURE_IUPAC>
thiourea

> <STRUCTURE_SMILES>
NC(N)=S

> <STRUCTURE_SMILES_Desalt>
NC(N)=S

> <Substance_modify_yyyymmdd>
20080429

$$$$
