62-55-5
ChemmineR-0914142331XD

  4  3  0  0  0  0  0  0  0  0  1 V2000
    1.9950    0.0000    0.0000 C   0  0  0  0  0  0  0  0  0  0  0  0
    1.3292   -1.1518    0.0000 C   0  0  0  0  0  0  0  0  0  0  0  0
    1.9950   -2.3037    0.0000 S   0  0  0  0  0  0  0  0  0  0  0  0
    0.0000   -1.1518    0.0000 N   0  0  0  0  0  0  0  0  0  0  0  0
  1  2  1  0  0  0  0
  2  3  2  0  0  0  0
  2  4  1  0  0  0  0
M  END
> <ID>
1287

> <Formula>
C2H5NS

> <FW>
75.1328

> <DSSTox_CID>
1340

> <DSSTox_RID>
76094

> <DSSTox_GSID>
21340

> <DSSTox_FileID_Sort>
778

> <TS_ChemName>
Thioacetamide

> <TS_ChemName_Synonyms>


> <TS_CASRN>
62-55-5

> <CASRN_ChemName_Relationship>
primary

> <TS_Description>
single chemical compound

> <ChemNote>


> <STRUCTURE_Shown>
tested chemical

> <STRUCTURE_Formula>
C2H5NS

> <STRUCTURE_MW>
75.1328

> <STRUCTURE_ChemType>
defined organic

> <STRUCTURE_DefinedOrganicForm>
parent

> <STRUCTURE_IUPAC>
ethanethioamide

> <STRUCTURE_SMILES>
CC(N)=S

> <STRUCTURE_SMILES_Desalt>
CC(N)=S

> <Substance_modify_yyyymmdd>
20080429

$$$$
