62-97-5
ChemmineR-0914142331XD

 27 28  0  0  0  0  0  0  0  0  2 V2000
   10.6275   -3.3912    0.0000 S   0  0  0  0  0  0  0  0  0  0  0  0
    9.3498   -3.3912    0.0000 O   0  5  0  0  0  0  0  0  0  0  0  0
   11.9410   -3.3912    0.0000 O   0  0  0  0  0  0  0  0  0  0  0  0
   10.6275   -2.1016    0.0000 O   0  0  0  0  0  0  0  0  0  0  0  0
   10.6275   -4.6928    0.0000 O   0  0  0  0  0  0  0  0  0  0  0  0
   11.7857   -5.3496    0.0000 C   0  0  0  0  0  0  0  0  0  0  0  0
    6.6750   -3.4748    0.0000 N   0  3  0  0  0  0  0  0  0  0  0  0
    2.6748   -3.4748    0.0000 C   0  0  0  0  0  0  0  0  0  0  0  0
    4.0122   -3.4748    0.0000 C   0  0  0  0  0  0  0  0  0  0  0  0
    2.0061   -4.6331    0.0000 C   0  0  0  0  0  0  0  0  0  0  0  0
    2.0061   -2.3404    0.0000 C   0  0  0  0  0  0  0  0  0  0  0  0
    4.6570   -2.3404    0.0000 C   0  0  0  0  0  0  0  0  0  0  0  0
    4.6570   -4.6331    0.0000 C   0  0  0  0  0  0  0  0  0  0  0  0
    5.9824   -4.6331    0.0000 C   0  0  0  0  0  0  0  0  0  0  0  0
    5.9824   -2.3404    0.0000 C   0  0  0  0  0  0  0  0  0  0  0  0
    7.8452   -2.8181    0.0000 C   0  0  0  0  0  0  0  0  0  0  0  0
    7.8452   -4.1316    0.0000 C   0  0  0  0  0  0  0  0  0  0  0  0
    0.6687   -2.3404    0.0000 C   0  0  0  0  0  0  0  0  0  0  0  0
    2.6748   -5.7914    0.0000 C   0  0  0  0  0  0  0  0  0  0  0  0
    2.6748   -1.1583    0.0000 C   0  0  0  0  0  0  0  0  0  0  0  0
    0.6687   -4.6331    0.0000 C   0  0  0  0  0  0  0  0  0  0  0  0
    0.0000   -5.7914    0.0000 C   0  0  0  0  0  0  0  0  0  0  0  0
    2.0061   -6.9496    0.0000 C   0  0  0  0  0  0  0  0  0  0  0  0
    0.0000   -1.1583    0.0000 C   0  0  0  0  0  0  0  0  0  0  0  0
    2.0061    0.0000    0.0000 C   0  0  0  0  0  0  0  0  0  0  0  0
    0.6687    0.0000    0.0000 C   0  0  0  0  0  0  0  0  0  0  0  0
    0.6687   -6.9496    0.0000 C   0  0  0  0  0  0  0  0  0  0  0  0
  1  2  1  0  0  0  0
  1  3  2  0  0  0  0
  1  4  2  0  0  0  0
  1  5  1  0  0  0  0
  5  6  1  0  0  0  0
  7 14  1  0  0  0  0
  7 15  1  0  0  0  0
  7 16  1  0  0  0  0
  7 17  1  0  0  0  0
  8  9  2  0  0  0  0
  8 10  1  0  0  0  0
  8 11  1  0  0  0  0
  9 12  1  0  0  0  0
  9 13  1  0  0  0  0
 10 19  1  0  0  0  0
 10 21  2  0  0  0  0
 11 18  1  0  0  0  0
 11 20  2  0  0  0  0
 12 15  1  0  0  0  0
 13 14  1  0  0  0  0
 18 24  2  0  0  0  0
 19 23  2  0  0  0  0
 20 25  1  0  0  0  0
 21 22  1  0  0  0  0
 22 27  2  0  0  0  0
 23 27  1  0  0  0  0
 24 26  1  0  0  0  0
 25 26  2  0  0  0  0
M  END
> <ID>
2655

> <Formula>
C21H27NO4S

> <FW>
389.5084 (111.0977+278.4107)

> <DSSTox_CID>
2948

> <DSSTox_RID>
76802

> <DSSTox_GSID>
22948

> <DSSTox_FileID_Sort>
1486

> <TS_ChemName>
Diphemanil methylsulfate

> <TS_ChemName_Synonyms>


> <TS_CASRN>
62-97-5

> <CASRN_ChemName_Relationship>
primary

> <TS_Description>
single chemical compound

> <ChemNote>
ammonium; parent [15394-62-4]

> <STRUCTURE_Shown>
tested chemical

> <STRUCTURE_Formula>
C21H27NO4S

> <STRUCTURE_MW>
389.5084

> <STRUCTURE_ChemType>
defined organic

> <STRUCTURE_DefinedOrganicForm>
complex

> <STRUCTURE_IUPAC>
4-(diphenylmethylidene)-1,1-dimethylpiperidinium methyl sulfate

> <STRUCTURE_SMILES>
[O-]S(=O)(=O)OC.C[N+]1(C)CC\C(CC1)=C(\c2ccccc2)c3ccccc3

> <STRUCTURE_SMILES_Desalt>
C[N+]1(C)CC\C(CC1)=C(\c2ccccc2)c3ccccc3

> <Substance_modify_yyyymmdd>
20080429

$$$$
