620-92-8
ChemmineR-0914142331XD

 15 16  0  0  0  0  0  0  0  0  1 V2000
    5.7550   -0.6630    0.0000 C   0  0  0  0  0  0  0  0  0  0  0  0
    4.6040    0.0000    0.0000 C   0  0  0  0  0  0  0  0  0  0  0  0
    3.4530   -0.6630    0.0000 C   0  0  0  0  0  0  0  0  0  0  0  0
    3.4530   -1.9981    0.0000 C   0  0  0  0  0  0  0  0  0  0  0  0
    2.3020   -2.6611    0.0000 C   0  0  0  0  0  0  0  0  0  0  0  0
    1.1510   -1.9981    0.0000 C   0  0  0  0  0  0  0  0  0  0  0  0
    1.1510   -0.6630    0.0000 C   0  0  0  0  0  0  0  0  0  0  0  0
    2.3020    0.0000    0.0000 C   0  0  0  0  0  0  0  0  0  0  0  0
    0.0000   -2.6611    0.0000 O   0  0  0  0  0  0  0  0  0  0  0  0
    6.9060    0.0000    0.0000 C   0  0  0  0  0  0  0  0  0  0  0  0
    8.0570   -0.6630    0.0000 C   0  0  0  0  0  0  0  0  0  0  0  0
    8.0570   -1.9981    0.0000 C   0  0  0  0  0  0  0  0  0  0  0  0
    6.9060   -2.6611    0.0000 C   0  0  0  0  0  0  0  0  0  0  0  0
    5.7550   -1.9981    0.0000 C   0  0  0  0  0  0  0  0  0  0  0  0
    9.2080   -2.6611    0.0000 O   0  0  0  0  0  0  0  0  0  0  0  0
  1  2  1  0  0  0  0
  1 10  1  0  0  0  0
  1 14  2  0  0  0  0
  2  3  1  0  0  0  0
  3  4  1  0  0  0  0
  3  8  2  0  0  0  0
  4  5  2  0  0  0  0
  5  6  1  0  0  0  0
  6  7  2  0  0  0  0
  6  9  1  0  0  0  0
  7  8  1  0  0  0  0
 10 11  2  0  0  0  0
 11 12  1  0  0  0  0
 12 13  2  0  0  0  0
 12 15  1  0  0  0  0
 13 14  1  0  0  0  0
M  END
> <ID>
2230

> <Formula>
C13H12O2

> <FW>
200.2332

> <DSSTox_CID>
2445

> <DSSTox_RID>
76593

> <DSSTox_GSID>
22445

> <DSSTox_FileID_Sort>
1277

> <TS_ChemName>
Bis(4-hydroxyphenyl)methane

> <TS_ChemName_Synonyms>


> <TS_CASRN>
620-92-8

> <CASRN_ChemName_Relationship>
primary

> <TS_Description>
single chemical compound

> <ChemNote>


> <STRUCTURE_Shown>
tested chemical

> <STRUCTURE_Formula>
C13H12O2

> <STRUCTURE_MW>
200.2332

> <STRUCTURE_ChemType>
defined organic

> <STRUCTURE_DefinedOrganicForm>
parent

> <STRUCTURE_IUPAC>
4,4'-methanediyldiphenol

> <STRUCTURE_SMILES>
Oc2ccc(Cc1ccc(O)cc1)cc2

> <STRUCTURE_SMILES_Desalt>
Oc2ccc(Cc1ccc(O)cc1)cc2

> <Substance_modify_yyyymmdd>
20080429

$$$$
