628-02-4
ChemmineR-0914142331XD

  8  7  0  0  0  0  0  0  0  0  1 V2000
    3.9913    0.0000    0.0000 N   0  0  0  0  0  0  0  0  0  0  0  0
    4.6555   -1.1549    0.0000 C   0  0  0  0  0  0  0  0  0  0  0  0
    5.9839   -1.1549    0.0000 O   0  0  0  0  0  0  0  0  0  0  0  0
    3.9913   -2.3038    0.0000 C   0  0  0  0  0  0  0  0  0  0  0  0
    2.6569   -2.3038    0.0000 C   0  0  0  0  0  0  0  0  0  0  0  0
    1.9926   -1.1549    0.0000 C   0  0  0  0  0  0  0  0  0  0  0  0
    0.6642   -1.1549    0.0000 C   0  0  0  0  0  0  0  0  0  0  0  0
    0.0000    0.0000    0.0000 C   0  0  0  0  0  0  0  0  0  0  0  0
  1  2  1  0  0  0  0
  2  3  2  0  0  0  0
  2  4  1  0  0  0  0
  4  5  1  0  0  0  0
  5  6  1  0  0  0  0
  6  7  1  0  0  0  0
  7  8  1  0  0  0  0
M  END
> <ID>
667

> <Formula>
C6H13NO

> <FW>
115.1735

> <DSSTox_CID>
696

> <DSSTox_RID>
75741

> <DSSTox_GSID>
20696

> <DSSTox_FileID_Sort>
425

> <TS_ChemName>
Hexanamide

> <TS_ChemName_Synonyms>


> <TS_CASRN>
628-02-4

> <CASRN_ChemName_Relationship>
primary

> <TS_Description>
single chemical compound

> <ChemNote>


> <STRUCTURE_Shown>
tested chemical

> <STRUCTURE_Formula>
C6H13NO

> <STRUCTURE_MW>
115.1735

> <STRUCTURE_ChemType>
defined organic

> <STRUCTURE_DefinedOrganicForm>
parent

> <STRUCTURE_IUPAC>
hexanamide

> <STRUCTURE_SMILES>
CCCCCC(N)=O

> <STRUCTURE_SMILES_Desalt>
CCCCCC(N)=O

> <Substance_modify_yyyymmdd>
20080429

$$$$
