6284-40-8
ChemmineR-0914142331XD

 13 12  0  0  1  0  0  0  0  0  1 V2000
    3.4101   -1.9801    0.0000 C   0  0  0  0  0  0  0  0  0  0  0  0
    4.5560   -1.3200    0.0000 C   0  0  0  0  0  0  0  0  0  0  0  0
    5.7293   -2.0076    0.0000 C   0  0  0  0  0  0  0  0  0  0  0  0
    6.8752   -1.3750    0.0000 C   0  0  0  0  0  0  0  0  0  0  0  0
    8.0027   -2.0626    0.0000 C   0  0  0  0  0  0  0  0  0  0  0  0
    2.2734   -1.2742    0.0000 C   0  0  0  0  0  0  0  0  0  0  0  0
    4.5926    0.0000    0.0000 O   0  0  0  0  0  0  0  0  0  0  0  0
    5.6927   -3.3551    0.0000 O   0  0  0  0  0  0  0  0  0  0  0  0
    6.9118   -0.0458    0.0000 O   0  0  0  0  0  0  0  0  0  0  0  0
    9.1669   -1.4209    0.0000 O   0  0  0  0  0  0  0  0  0  0  0  0
    1.1000   -1.9342    0.0000 N   0  0  0  0  0  0  0  0  0  0  0  0
    3.3918   -3.3093    0.0000 O   0  0  0  0  0  0  0  0  0  0  0  0
    0.0000   -1.2284    0.0000 C   0  0  0  0  0  0  0  0  0  0  0  0
  1  2  1  0  0  0  0
  1  6  1  0  0  0  0
  1 12  1  1  0  0  0
  2  3  1  0  0  0  0
  2  7  1  1  0  0  0
  3  4  1  0  0  0  0
  3  8  1  1  0  0  0
  4  5  1  0  0  0  0
  4  9  1  6  0  0  0
  5 10  1  0  0  0  0
  6 11  1  0  0  0  0
 11 13  1  0  0  0  0
M  END
> <ID>
2917

> <Formula>
C7H17NO5

> <FW>
195.2136

> <DSSTox_CID>
3244

> <DSSTox_RID>
76939

> <DSSTox_GSID>
23244

> <DSSTox_FileID_Sort>
1623

> <TS_ChemName>
Meglumine

> <TS_ChemName_Synonyms>


> <TS_CASRN>
6284-40-8

> <CASRN_ChemName_Relationship>
primary

> <TS_Description>
single chemical compound

> <ChemNote>
stereochem

> <STRUCTURE_Shown>
tested chemical

> <STRUCTURE_Formula>
C7H17NO5

> <STRUCTURE_MW>
195.2136

> <STRUCTURE_ChemType>
defined organic

> <STRUCTURE_DefinedOrganicForm>
parent

> <STRUCTURE_IUPAC>
1-deoxy-1-(methylamino)-D-glucitol

> <STRUCTURE_SMILES>
O[C@H]([C@@H](O)CNC)[C@H](O)[C@H](O)CO

> <STRUCTURE_SMILES_Desalt>
O[C@H]([C@@H](O)CNC)[C@H](O)[C@H](O)CO

> <Substance_modify_yyyymmdd>
20080429

$$$$
