6294-89-9
ChemmineR-0914142331XD

  6  5  0  0  0  0  0  0  0  0  1 V2000
    2.6616    0.0000    0.0000 O   0  0  0  0  0  0  0  0  0  0  0  0
    1.9952   -1.1492    0.0000 C   0  0  0  0  0  0  0  0  0  0  0  0
    2.6616   -2.3025    0.0000 N   0  0  0  0  0  0  0  0  0  0  0  0
    3.9905   -2.3025    0.0000 N   0  0  0  0  0  0  0  0  0  0  0  0
    0.6664   -1.1492    0.0000 O   0  0  0  0  0  0  0  0  0  0  0  0
    0.0000   -2.3025    0.0000 C   0  0  0  0  0  0  0  0  0  0  0  0
  1  2  2  0  0  0  0
  2  3  1  0  0  0  0
  2  5  1  0  0  0  0
  3  4  1  0  0  0  0
  5  6  1  0  0  0  0
M  END
> <ID>
801

> <Formula>
C2H6N2O2

> <FW>
90.0812

> <DSSTox_CID>
835

> <DSSTox_RID>
75819

> <DSSTox_GSID>
20835

> <DSSTox_FileID_Sort>
503

> <TS_ChemName>
Methyl carbazate

> <TS_ChemName_Synonyms>


> <TS_CASRN>
6294-89-9

> <CASRN_ChemName_Relationship>
primary

> <TS_Description>
single chemical compound

> <ChemNote>


> <STRUCTURE_Shown>
tested chemical

> <STRUCTURE_Formula>
C2H6N2O2

> <STRUCTURE_MW>
90.0812

> <STRUCTURE_ChemType>
defined organic

> <STRUCTURE_DefinedOrganicForm>
parent

> <STRUCTURE_IUPAC>
methyl hydrazinecarboxylate

> <STRUCTURE_SMILES>
NNC(=O)OC

> <STRUCTURE_SMILES_Desalt>
NNC(=O)OC

> <Substance_modify_yyyymmdd>
20080429

$$$$
