630-20-6
ChemmineR-0914142331XD

  6  5  0  0  0  0  0  0  0  0  1 V2000
    1.8169   -2.3040    0.0000 Cl   0  0  0  0  0  0  0  0  0  0  0  0
    1.1503   -1.1537    0.0000 C    0  0  0  0  0  0  0  0  0  0  0  0
    2.3040   -0.4870    0.0000 C    0  0  0  0  0  0  0  0  0  0  0  0
    3.4542   -1.1537    0.0000 Cl   0  0  0  0  0  0  0  0  0  0  0  0
    0.0000   -1.8169    0.0000 Cl   0  0  0  0  0  0  0  0  0  0  0  0
    0.4870    0.0000    0.0000 Cl   0  0  0  0  0  0  0  0  0  0  0  0
  1  2  1  0  0  0  0
  2  3  1  0  0  0  0
  2  5  1  0  0  0  0
  2  6  1  0  0  0  0
  3  4  1  0  0  0  0
M  END
> <ID>
1264

> <Formula>
C2H2Cl4

> <FW>
167.8493

> <DSSTox_CID>
1317

> <DSSTox_RID>
76077

> <DSSTox_GSID>
21317

> <DSSTox_FileID_Sort>
761

> <TS_ChemName>
1,1,1,2-Tetrachloroethane

> <TS_ChemName_Synonyms>


> <TS_CASRN>
630-20-6

> <CASRN_ChemName_Relationship>
primary

> <TS_Description>
single chemical compound

> <ChemNote>


> <STRUCTURE_Shown>
tested chemical

> <STRUCTURE_Formula>
C2H2Cl4

> <STRUCTURE_MW>
167.8493

> <STRUCTURE_ChemType>
defined organic

> <STRUCTURE_DefinedOrganicForm>
parent

> <STRUCTURE_IUPAC>
1,1,1,2-tetrachloroethane

> <STRUCTURE_SMILES>
ClCC(Cl)(Cl)Cl

> <STRUCTURE_SMILES_Desalt>
ClCC(Cl)(Cl)Cl

> <Substance_modify_yyyymmdd>
20080429

$$$$
