632-69-9
ChemmineR-0914142331XD

 35 36  0  0  0  0  0  0  0  0  2 V2000
    0.0000   -4.8213    0.0000 Na   0  3  0  0  0  0  0  0  0  0  0  0
    0.0000   -6.1391    0.0000 Na   0  3  0  0  0  0  0  0  0  0  0  0
    3.1271   -4.5181    0.0000 O    0  5  0  0  0  0  0  0  0  0  0  0
    3.5768   -3.2735    0.0000 C    0  0  0  0  0  0  0  0  0  0  0  0
    2.7297   -2.2695    0.0000 O    0  0  0  0  0  0  0  0  0  0  0  0
    4.8736   -3.0539    0.0000 C    0  0  0  0  0  0  0  0  0  0  0  0
    5.1037   -1.7466    0.0000 C    0  0  0  0  0  0  0  0  0  0  0  0
    4.0997   -0.8994    0.0000 Cl   0  0  0  0  0  0  0  0  0  0  0  0
    6.3483   -1.2968    0.0000 C    0  0  0  0  0  0  0  0  0  0  0  0
    6.5784    0.0000    0.0000 Cl   0  0  0  0  0  0  0  0  0  0  0  0
    7.3523   -2.1440    0.0000 C    0  0  0  0  0  0  0  0  0  0  0  0
    8.5968   -1.6943    0.0000 Cl   0  0  0  0  0  0  0  0  0  0  0  0
    7.1327   -3.4408    0.0000 C    0  0  0  0  0  0  0  0  0  0  0  0
    8.1367   -4.2984    0.0000 Cl   0  0  0  0  0  0  0  0  0  0  0  0
    5.8881   -3.9010    0.0000 C    0  0  0  0  0  0  0  0  0  0  0  0
    5.8881   -5.6162    0.0000 C    0  0  0  0  0  0  0  0  0  0  0  0
    7.0281   -6.2751    0.0000 C    0  0  0  0  0  0  0  0  0  0  0  0
    8.1785   -5.6162    0.0000 C    0  0  0  0  0  0  0  0  0  0  0  0
    9.3185   -6.2751    0.0000 C    0  0  0  0  0  0  0  0  0  0  0  0
   10.4585   -5.6162    0.0000 I    0  0  0  0  0  0  0  0  0  0  0  0
    9.3185   -7.5928    0.0000 C    0  0  0  0  0  0  0  0  0  0  0  0
   10.4585   -8.2517    0.0000 O    0  5  0  0  0  0  0  0  0  0  0  0
    8.1785   -8.2517    0.0000 C    0  0  0  0  0  0  0  0  0  0  0  0
    8.1785   -9.5695    0.0000 I    0  0  0  0  0  0  0  0  0  0  0  0
    7.0281   -7.5928    0.0000 C    0  0  0  0  0  0  0  0  0  0  0  0
    5.8881   -8.2517    0.0000 O    0  0  0  0  0  0  0  0  0  0  0  0
    4.7481   -7.5928    0.0000 C    0  0  0  0  0  0  0  0  0  0  0  0
    4.7481   -6.2751    0.0000 C    0  0  0  0  0  0  0  0  0  0  0  0
    3.6082   -5.6162    0.0000 C    0  0  0  0  0  0  0  0  0  0  0  0
    2.4577   -6.2751    0.0000 C    0  0  0  0  0  0  0  0  0  0  0  0
    1.3178   -5.6162    0.0000 I    0  0  0  0  0  0  0  0  0  0  0  0
    2.4577   -7.5928    0.0000 C    0  0  0  0  0  0  0  0  0  0  0  0
    1.3178   -8.2517    0.0000 O    0  0  0  0  0  0  0  0  0  0  0  0
    3.6082   -8.2517    0.0000 C    0  0  0  0  0  0  0  0  0  0  0  0
    3.6082   -9.5695    0.0000 I    0  0  0  0  0  0  0  0  0  0  0  0
  3  4  1  0  0  0  0
  4  5  2  0  0  0  0
  4  6  1  0  0  0  0
  6  7  2  0  0  0  0
  6 15  1  0  0  0  0
  7  8  1  0  0  0  0
  7  9  1  0  0  0  0
  9 10  1  0  0  0  0
  9 11  2  0  0  0  0
 11 12  1  0  0  0  0
 11 13  1  0  0  0  0
 13 14  1  0  0  0  0
 13 15  2  0  0  0  0
 15 16  1  0  0  0  0
 16 17  1  0  0  0  0
 16 28  2  0  0  0  0
 17 18  2  0  0  0  0
 17 25  1  0  0  0  0
 18 19  1  0  0  0  0
 19 20  1  0  0  0  0
 19 21  2  0  0  0  0
 21 22  1  0  0  0  0
 21 23  1  0  0  0  0
 23 24  1  0  0  0  0
 23 25  2  0  0  0  0
 25 26  1  0  0  0  0
 26 27  1  0  0  0  0
 27 28  1  0  0  0  0
 27 34  2  0  0  0  0
 28 29  1  0  0  0  0
 29 30  2  0  0  0  0
 30 31  1  0  0  0  0
 30 32  1  0  0  0  0
 32 33  2  0  0  0  0
 32 34  1  0  0  0  0
 34 35  1  0  0  0  0
M  END
> <ID>
2545

> <Formula>
C20H2Cl4I4Na2O5

> <FW>
1017.6363 (22.9892+22.9892+971.6579)

> <DSSTox_CID>
2814

> <DSSTox_RID>
76740

> <DSSTox_GSID>
22814

> <DSSTox_FileID_Sort>
1424

> <TS_ChemName>
Rose bengal sodium

> <TS_ChemName_Synonyms>
C.I. Acid Red 94; C.I. Acid Red 94 sodium

> <TS_CASRN>
632-69-9

> <CASRN_ChemName_Relationship>
primary

> <TS_Description>
single chemical compound

> <ChemNote>
parent [4159-77-7]

> <STRUCTURE_Shown>
tested chemical

> <STRUCTURE_Formula>
C20H2Cl4I4Na2O5

> <STRUCTURE_MW>
1017.6363

> <STRUCTURE_ChemType>
defined organic

> <STRUCTURE_DefinedOrganicForm>
salt

> <STRUCTURE_IUPAC>
disodium 2,3,4,5-tetrachloro-6-(2,4,5,7-tetraiodo-6-oxido-3-oxo-3H-xanthen-9-yl)benzoate

> <STRUCTURE_SMILES>
[Na+].[Na+].[O-]C(=O)c4c(Cl)c(Cl)c(Cl)c(Cl)c4C=2c3cc(I)c([O-])c(I)c3OC=1C=2C=C(I)C(=O)C=1I

> <STRUCTURE_SMILES_Desalt>
O=C(O)c4c(Cl)c(Cl)c(Cl)c(Cl)c4C=2c3cc(I)c(O)c(I)c3OC=1C=2C=C(I)C(=O)C=1I

> <Substance_modify_yyyymmdd>
20080429

$$$$
