63449-39-8_3
ChemmineR-0914142331XD

 19 18  0  0  0  0  0  0  0  0  1 V2000
    0.0000   -2.0042    0.0000 C    0  0  0  0  0  0  0  0  0  0  0  0
    1.1472   -1.3407    0.0000 C    0  0  0  0  0  0  0  0  0  0  0  0
    2.3083   -2.0042    0.0000 C    0  0  0  0  0  0  0  0  0  0  0  0
    3.4555   -1.3407    0.0000 C    0  0  0  0  0  0  0  0  0  0  0  0
    4.6027   -2.0042    0.0000 C    0  0  0  0  0  0  0  0  0  0  0  0
    5.7637   -1.3407    0.0000 C    0  0  0  0  0  0  0  0  0  0  0  0
    6.9110   -2.0042    0.0000 C    0  0  0  0  0  0  0  0  0  0  0  0
    8.0582   -1.3407    0.0000 C    0  0  0  0  0  0  0  0  0  0  0  0
    9.2192   -2.0042    0.0000 C    0  0  0  0  0  0  0  0  0  0  0  0
   10.3665   -1.3407    0.0000 C    0  0  0  0  0  0  0  0  0  0  0  0
   11.5137   -2.0042    0.0000 C    0  0  0  0  0  0  0  0  0  0  0  0
   12.6747   -1.3407    0.0000 C    0  0  0  0  0  0  0  0  0  0  0  0
    2.3083   -3.3311    0.0000 Cl   0  0  0  0  0  0  0  0  0  0  0  0
    5.7637    0.0000    0.0000 Cl   0  0  0  0  0  0  0  0  0  0  0  0
    6.9110   -3.3311    0.0000 Cl   0  0  0  0  0  0  0  0  0  0  0  0
   10.3665    0.0000    0.0000 Cl   0  0  0  0  0  0  0  0  0  0  0  0
   13.8219   -2.0042    0.0000 Cl   0  0  0  0  0  0  0  0  0  0  0  0
    9.2192   -3.3311    0.0000 Cl   0  0  0  0  0  0  0  0  0  0  0  0
   11.5137   -3.3311    0.0000 Cl   0  0  0  0  0  0  0  0  0  0  0  0
  1  2  1  0  0  0  0
  2  3  1  0  0  0  0
  3  4  1  0  0  0  0
  3 13  1  0  0  0  0
  4  5  1  0  0  0  0
  5  6  1  0  0  0  0
  6  7  1  0  0  0  0
  6 14  1  0  0  0  0
  7  8  1  0  0  0  0
  7 15  1  0  0  0  0
  8  9  1  0  0  0  0
  9 10  1  0  0  0  0
  9 18  1  0  0  0  0
 10 11  1  0  0  0  0
 10 16  1  0  0  0  0
 11 12  1  0  0  0  0
 11 19  1  0  0  0  0
 12 17  1  0  0  0  0
M  END
> <ID>
261

> <Formula>
C12H19Cl7

> <FW>
411.4503

> <DSSTox_CID>
269

> <DSSTox_RID>
75477

> <DSSTox_GSID>
20269

> <DSSTox_FileID_Sort>
161

> <TS_ChemName>
Chlorinated paraffins (C12, 60% chlorine)

> <TS_ChemName_Synonyms>


> <TS_CASRN>
63449-39-8_3

> <CASRN_ChemName_Relationship>
CAS for various forms

> <TS_Description>
mixture or formulation

> <ChemNote>
mixture of C12 hydrocarbons containing 60% Cl; structure shown heptachlorododecane; CASRN is for Chlorinated hydrocarbons

> <STRUCTURE_Shown>
representative isomer in mixture

> <STRUCTURE_Formula>
C12H19Cl7

> <STRUCTURE_MW>
411.4503

> <STRUCTURE_ChemType>
defined organic

> <STRUCTURE_DefinedOrganicForm>
parent

> <STRUCTURE_IUPAC>
1,2,3,4,6,7,10-heptachlorododecane

> <STRUCTURE_SMILES>
ClC(CC(Cl)C(Cl)CCC(Cl)CC)C(Cl)C(Cl)CCl

> <STRUCTURE_SMILES_Desalt>
ClC(CC(Cl)C(Cl)CCC(Cl)CC)C(Cl)C(Cl)CCl

> <Substance_modify_yyyymmdd>
20130906

$$$$
