635-41-6
ChemmineR-0914142331XD

 20 21  0  0  0  0  0  0  0  0  1 V2000
    6.9088   -1.9912    0.0000 C   0  0  0  0  0  0  0  0  0  0  0  0
    8.0616   -2.6603    0.0000 O   0  0  0  0  0  0  0  0  0  0  0  0
    8.0616   -3.9905    0.0000 C   0  0  0  0  0  0  0  0  0  0  0  0
    6.9088   -4.6515    0.0000 C   0  0  0  0  0  0  0  0  0  0  0  0
    5.7560   -3.9905    0.0000 N   0  0  0  0  0  0  0  0  0  0  0  0
    4.6032   -4.6515    0.0000 C   0  0  0  0  0  0  0  0  0  0  0  0
    4.6032   -5.9817    0.0000 O   0  0  0  0  0  0  0  0  0  0  0  0
    3.4584   -3.9905    0.0000 C   0  0  0  0  0  0  0  0  0  0  0  0
    2.3056   -4.6515    0.0000 C   0  0  0  0  0  0  0  0  0  0  0  0
    1.1528   -3.9905    0.0000 C   0  0  0  0  0  0  0  0  0  0  0  0
    0.0000   -4.6515    0.0000 O   0  0  0  0  0  0  0  0  0  0  0  0
    0.0000   -5.9817    0.0000 C   0  0  0  0  0  0  0  0  0  0  0  0
    1.1528   -2.6603    0.0000 C   0  0  0  0  0  0  0  0  0  0  0  0
    0.0000   -1.9912    0.0000 O   0  0  0  0  0  0  0  0  0  0  0  0
    0.0000   -0.6610    0.0000 C   0  0  0  0  0  0  0  0  0  0  0  0
    2.3056   -1.9912    0.0000 C   0  0  0  0  0  0  0  0  0  0  0  0
    2.3056   -0.6610    0.0000 O   0  0  0  0  0  0  0  0  0  0  0  0
    3.4584    0.0000    0.0000 C   0  0  0  0  0  0  0  0  0  0  0  0
    3.4584   -2.6603    0.0000 C   0  0  0  0  0  0  0  0  0  0  0  0
    5.7560   -2.6603    0.0000 C   0  0  0  0  0  0  0  0  0  0  0  0
  1  2  1  0  0  0  0
  1 20  1  0  0  0  0
  2  3  1  0  0  0  0
  3  4  1  0  0  0  0
  4  5  1  0  0  0  0
  5  6  1  0  0  0  0
  5 20  1  0  0  0  0
  6  7  2  0  0  0  0
  6  8  1  0  0  0  0
  8  9  2  0  0  0  0
  8 19  1  0  0  0  0
  9 10  1  0  0  0  0
 10 11  1  0  0  0  0
 10 13  2  0  0  0  0
 11 12  1  0  0  0  0
 13 14  1  0  0  0  0
 13 16  1  0  0  0  0
 14 15  1  0  0  0  0
 16 17  1  0  0  0  0
 16 19  2  0  0  0  0
 17 18  1  0  0  0  0
M  END
> <ID>
3317

> <Formula>
C14H19NO5

> <FW>
281.3044

> <DSSTox_CID>
3713

> <DSSTox_RID>
77159

> <DSSTox_GSID>
23713

> <DSSTox_FileID_Sort>
1842

> <TS_ChemName>
Trimetozine

> <TS_ChemName_Synonyms>


> <TS_CASRN>
635-41-6

> <CASRN_ChemName_Relationship>
primary

> <TS_Description>
single chemical compound

> <ChemNote>


> <STRUCTURE_Shown>
tested chemical

> <STRUCTURE_Formula>
C14H19NO5

> <STRUCTURE_MW>
281.3044

> <STRUCTURE_ChemType>
defined organic

> <STRUCTURE_DefinedOrganicForm>
parent

> <STRUCTURE_IUPAC>
morpholin-4-yl(3,4,5-trimethoxyphenyl)methanone

> <STRUCTURE_SMILES>
O=C(c1cc(OC)c(OC)c(OC)c1)N2CCOCC2

> <STRUCTURE_SMILES_Desalt>
O=C(c1cc(OC)c(OC)c(OC)c1)N2CCOCC2

> <Substance_modify_yyyymmdd>
20080429

$$$$
