63659-18-7
ChemmineR-0914142331XD

 22 23  0  0  0  0  0  0  0  0  1 V2000
    0.0000   -1.3324    0.0000 C   0  0  0  0  0  0  0  0  0  0  0  0
    0.0000    0.0000    0.0000 C   0  0  0  0  0  0  0  0  0  0  0  0
    1.1515   -0.6744    0.0000 C   0  0  0  0  0  0  0  0  0  0  0  0
    2.4839   -0.6744    0.0000 C   0  0  0  0  0  0  0  0  0  0  0  0
    3.1419   -1.8259    0.0000 O   0  0  0  0  0  0  0  0  0  0  0  0
    4.4743   -1.8259    0.0000 C   0  0  0  0  0  0  0  0  0  0  0  0
    5.1488   -2.9774    0.0000 C   0  0  0  0  0  0  0  0  0  0  0  0
    6.4648   -2.9774    0.0000 C   0  0  0  0  0  0  0  0  0  0  0  0
    7.1392   -1.8259    0.0000 C   0  0  0  0  0  0  0  0  0  0  0  0
    8.4716   -1.8259    0.0000 C   0  0  0  0  0  0  0  0  0  0  0  0
    9.1296   -2.9774    0.0000 C   0  0  0  0  0  0  0  0  0  0  0  0
   10.4621   -2.9774    0.0000 O   0  0  0  0  0  0  0  0  0  0  0  0
   11.1365   -4.1289    0.0000 C   0  0  0  0  0  0  0  0  0  0  0  0
   12.4525   -4.1289    0.0000 C   0  0  0  0  0  0  0  0  0  0  0  0
   13.1269   -5.2804    0.0000 O   0  0  0  0  0  0  0  0  0  0  0  0
   13.1269   -2.9774    0.0000 C   0  0  0  0  0  0  0  0  0  0  0  0
   14.4594   -2.9774    0.0000 N   0  0  0  0  0  0  0  0  0  0  0  0
   15.1174   -1.8259    0.0000 C   0  0  0  0  0  0  0  0  0  0  0  0
   14.4594   -0.6744    0.0000 C   0  0  0  0  0  0  0  0  0  0  0  0
   16.4498   -1.8259    0.0000 C   0  0  0  0  0  0  0  0  0  0  0  0
    8.4716   -4.1289    0.0000 C   0  0  0  0  0  0  0  0  0  0  0  0
    7.1392   -4.1289    0.0000 C   0  0  0  0  0  0  0  0  0  0  0  0
  1  2  1  0  0  0  0
  1  3  1  0  0  0  0
  2  3  1  0  0  0  0
  3  4  1  0  0  0  0
  4  5  1  0  0  0  0
  5  6  1  0  0  0  0
  6  7  1  0  0  0  0
  7  8  1  0  0  0  0
  8  9  2  0  0  0  0
  8 22  1  0  0  0  0
  9 10  1  0  0  0  0
 10 11  2  0  0  0  0
 11 12  1  0  0  0  0
 11 21  1  0  0  0  0
 12 13  1  0  0  0  0
 13 14  1  0  0  0  0
 14 15  1  0  0  0  0
 14 16  1  0  0  0  0
 16 17  1  0  0  0  0
 17 18  1  0  0  0  0
 18 19  1  0  0  0  0
 18 20  1  0  0  0  0
 21 22  2  0  0  0  0
M  END
> <ID>
2420

> <Formula>
C18H29NO3

> <FW>
307.4278

> <DSSTox_CID>
2674

> <DSSTox_RID>
76685

> <DSSTox_GSID>
22674

> <DSSTox_FileID_Sort>
1369

> <TS_ChemName>
Betaxolol

> <TS_ChemName_Synonyms>


> <TS_CASRN>
63659-18-7

> <CASRN_ChemName_Relationship>
primary

> <TS_Description>
single chemical compound

> <ChemNote>


> <STRUCTURE_Shown>
tested chemical

> <STRUCTURE_Formula>
C18H29NO3

> <STRUCTURE_MW>
307.4278

> <STRUCTURE_ChemType>
defined organic

> <STRUCTURE_DefinedOrganicForm>
parent

> <STRUCTURE_IUPAC>
1-{4-[2-(cyclopropylmethoxy)ethyl]phenoxy}-3-(propan-2-ylamino)propan-2-ol

> <STRUCTURE_SMILES>
CC(C)NCC(O)COc1ccc(cc1)CCOCC2CC2

> <STRUCTURE_SMILES_Desalt>
CC(C)NCC(O)COc1ccc(cc1)CCOCC2CC2

> <Substance_modify_yyyymmdd>
20080429

$$$$
