63675-72-9
ChemmineR-0914142331XD

 28 29  0  0  0  0  0  0  0  0  2 V2000
    6.6808   -4.1525    0.0000 C   0  0  0  0  0  0  0  0  0  0  0  0
    7.7957   -4.7933    0.0000 C   0  0  0  0  0  0  0  0  0  0  0  0
    5.5659   -4.7933    0.0000 C   0  0  0  0  0  0  0  0  0  0  0  0
    5.8644   -5.7766    0.0000 C   0  0  0  0  0  0  0  0  0  0  0  0
    4.7319   -6.4438    0.0000 O   0  0  0  0  0  0  0  0  0  0  0  0
    6.6808   -6.4438    0.0000 O   0  0  0  0  0  0  0  0  0  0  0  0
    7.7957   -6.0751    0.0000 C   0  0  0  0  0  0  0  0  0  0  0  0
    4.4509   -4.1525    0.0000 C   0  0  0  0  0  0  0  0  0  0  0  0
    2.6776   -5.1796    0.0000 C   0  0  0  0  0  0  0  0  0  0  0  0
    1.5627   -4.5387    0.0000 C   0  0  0  0  0  0  0  0  0  0  0  0
    0.4389   -5.1796    0.0000 C   0  0  0  0  0  0  0  0  0  0  0  0
    0.4389   -6.4701    0.0000 C   0  0  0  0  0  0  0  0  0  0  0  0
    1.5627   -7.1110    0.0000 C   0  0  0  0  0  0  0  0  0  0  0  0
    2.6776   -6.4701    0.0000 C   0  0  0  0  0  0  0  0  0  0  0  0
    4.4509   -7.4885    0.0000 N   0  3  0  0  0  0  0  0  0  0  0  0
    5.5659   -8.2961    0.0000 O   0  5  0  0  0  0  0  0  0  0  0  0
    3.5818   -8.7790    0.0000 O   0  0  0  0  0  0  0  0  0  0  0  0
    4.4509   -2.8620    0.0000 C   0  0  0  0  0  0  0  0  0  0  0  0
    3.3448   -2.2299    0.0000 C   0  0  0  0  0  0  0  0  0  0  0  0
    3.3448   -0.9481    0.0000 O   0  0  0  0  0  0  0  0  0  0  0  0
    2.2299   -2.8620    0.0000 O   0  0  0  0  0  0  0  0  0  0  0  0
    1.1149   -2.2299    0.0000 C   0  0  0  0  0  0  0  0  0  0  0  0
    1.1149   -0.9481    0.0000 C   0  0  0  0  0  0  0  0  0  0  0  0
    0.0000   -0.2985    0.0000 C   0  0  0  0  0  0  0  0  0  0  0  0
    1.9402    0.0000    0.0000 C   0  0  0  0  0  0  0  0  0  0  0  0
    5.5659   -2.2299    0.0000 C   0  0  0  0  0  0  0  0  0  0  0  0
    5.5659   -0.9481    0.0000 C   0  0  0  0  0  0  0  0  0  0  0  0
    6.6808   -2.8620    0.0000 N   0  0  0  0  0  0  0  0  0  0  0  0
  1  2  1  0  0  0  0
  1  3  2  0  0  0  0
  1 28  1  0  0  0  0
  3  4  1  0  0  0  0
  3  8  1  0  0  0  0
  4  5  2  0  0  0  0
  4  6  1  0  0  0  0
  6  7  1  0  0  0  0
  8  9  1  0  0  0  0
  8 18  1  0  0  0  0
  9 10  2  0  0  0  0
  9 14  1  0  0  0  0
 10 11  1  0  0  0  0
 11 12  2  0  0  0  0
 12 13  1  0  0  0  0
 13 14  2  0  0  0  0
 14 15  1  0  0  0  0
 15 16  1  0  0  0  0
 15 17  2  0  0  0  0
 18 19  1  0  0  0  0
 18 26  2  0  0  0  0
 19 20  2  0  0  0  0
 19 21  1  0  0  0  0
 21 22  1  0  0  0  0
 22 23  1  0  0  0  0
 23 24  1  0  0  0  0
 23 25  1  0  0  0  0
 26 27  1  0  0  0  0
 26 28  1  0  0  0  0
M  END
> <ID>
3024

> <Formula>
C20H24N2O6

> <FW>
388.4144

> <DSSTox_CID>
3371

> <DSSTox_RID>
76999

> <DSSTox_GSID>
23371

> <DSSTox_FileID_Sort>
1683

> <TS_ChemName>
Nisoldipine

> <TS_ChemName_Synonyms>


> <TS_CASRN>
63675-72-9

> <CASRN_ChemName_Relationship>
primary

> <TS_Description>
single chemical compound

> <ChemNote>
tautomers

> <STRUCTURE_Shown>
tested chemical

> <STRUCTURE_Formula>
C20H24N2O6

> <STRUCTURE_MW>
388.4144

> <STRUCTURE_ChemType>
defined organic

> <STRUCTURE_DefinedOrganicForm>
parent

> <STRUCTURE_IUPAC>
methyl 2-methylpropyl 2,6-dimethyl-4-(2-nitrophenyl)-1,4-dihydropyridine-3,5-dicarboxylate

> <STRUCTURE_SMILES>
CC=1NC(C)=C(C(C=1C(=O)OCC(C)C)c2ccccc2[N+]([O-])=O)C(=O)OC

> <STRUCTURE_SMILES_Desalt>
CC=1NC(C)=C(C(C=1C(=O)OCC(C)C)c2ccccc2[N+]([O-])=O)C(=O)OC

> <Substance_modify_yyyymmdd>
20080429

$$$$
