6373-74-6
ChemmineR-0914142331XD

 31 32  0  0  0  0  0  0  0  0  2 V2000
   11.5753   -7.1882    0.0000 Na   0  3  0  0  0  0  0  0  0  0  0  0
    7.9869   -4.6070    0.0000 C    0  0  0  0  0  0  0  0  0  0  0  0
    8.6467   -5.7529    0.0000 C    0  0  0  0  0  0  0  0  0  0  0  0
    7.9869   -6.9104    0.0000 C    0  0  0  0  0  0  0  0  0  0  0  0
    6.6558   -6.9104    0.0000 C    0  0  0  0  0  0  0  0  0  0  0  0
    5.9844   -5.7529    0.0000 C    0  0  0  0  0  0  0  0  0  0  0  0
    6.6558   -4.6070    0.0000 C    0  0  0  0  0  0  0  0  0  0  0  0
    5.9844   -8.0564    0.0000 N    0  0  0  0  0  0  0  0  0  0  0  0
    4.6533   -8.0564    0.0000 C    0  0  0  0  0  0  0  0  0  0  0  0
    3.9935   -9.2139    0.0000 C    0  0  0  0  0  0  0  0  0  0  0  0
    2.6623   -9.2139    0.0000 C    0  0  0  0  0  0  0  0  0  0  0  0
    1.9909   -8.0564    0.0000 C    0  0  0  0  0  0  0  0  0  0  0  0
    2.6623   -6.9104    0.0000 C    0  0  0  0  0  0  0  0  0  0  0  0
    3.9935   -6.9104    0.0000 C    0  0  0  0  0  0  0  0  0  0  0  0
    0.6598   -8.0564    0.0000 N    0  3  0  0  0  0  0  0  0  0  0  0
    0.0000   -9.2139    0.0000 O    0  0  0  0  0  0  0  0  0  0  0  0
    0.0000   -6.9104    0.0000 O    0  5  0  0  0  0  0  0  0  0  0  0
    4.6533  -10.3599    0.0000 N    0  3  0  0  0  0  0  0  0  0  0  0
    3.9935  -11.5174    0.0000 O    0  0  0  0  0  0  0  0  0  0  0  0
    5.9844  -10.3599    0.0000 O    0  5  0  0  0  0  0  0  0  0  0  0
    9.9779   -5.7529    0.0000 S    0  0  0  0  0  0  0  0  0  0  0  0
    9.9779   -7.0841    0.0000 O    0  0  0  0  0  0  0  0  0  0  0  0
    9.9779   -4.4217    0.0000 O    0  0  0  0  0  0  0  0  0  0  0  0
   11.3090   -5.7529    0.0000 O    0  5  0  0  0  0  0  0  0  0  0  0
    8.6467   -3.4494    0.0000 N    0  0  0  0  0  0  0  0  0  0  0  0
    7.9869   -2.3035    0.0000 C    0  0  0  0  0  0  0  0  0  0  0  0
    6.6558   -2.3035    0.0000 C    0  0  0  0  0  0  0  0  0  0  0  0
    5.9844   -1.1460    0.0000 C    0  0  0  0  0  0  0  0  0  0  0  0
    6.6558    0.0000    0.0000 C    0  0  0  0  0  0  0  0  0  0  0  0
    7.9869    0.0000    0.0000 C    0  0  0  0  0  0  0  0  0  0  0  0
    8.6467   -1.1460    0.0000 C    0  0  0  0  0  0  0  0  0  0  0  0
  2  3  2  0  0  0  0
  2  7  1  0  0  0  0
  2 25  1  0  0  0  0
  3  4  1  0  0  0  0
  3 21  1  0  0  0  0
  4  5  2  0  0  0  0
  5  6  1  0  0  0  0
  5  8  1  0  0  0  0
  6  7  2  0  0  0  0
  8  9  1  0  0  0  0
  9 10  2  0  0  0  0
  9 14  1  0  0  0  0
 10 11  1  0  0  0  0
 10 18  1  0  0  0  0
 11 12  2  0  0  0  0
 12 13  1  0  0  0  0
 12 15  1  0  0  0  0
 13 14  2  0  0  0  0
 15 16  2  0  0  0  0
 15 17  1  0  0  0  0
 18 19  2  0  0  0  0
 18 20  1  0  0  0  0
 21 22  2  0  0  0  0
 21 23  2  0  0  0  0
 21 24  1  0  0  0  0
 25 26  1  0  0  0  0
 26 27  2  0  0  0  0
 26 31  1  0  0  0  0
 27 28  1  0  0  0  0
 28 29  2  0  0  0  0
 29 30  1  0  0  0  0
 30 31  2  0  0  0  0
M  END
> <ID>
1041

> <Formula>
C18H13N4NaO7S

> <FW>
452.3732 (22.9892+429.3840)

> <DSSTox_CID>
1081

> <DSSTox_RID>
75930

> <DSSTox_GSID>
21081

> <DSSTox_FileID_Sort>
614

> <TS_ChemName>
C.I. Acid orange 3

> <TS_ChemName_Synonyms>


> <TS_CASRN>
6373-74-6

> <CASRN_ChemName_Relationship>
primary

> <TS_Description>
single chemical compound

> <ChemNote>
parent [15347-52-1]

> <STRUCTURE_Shown>
tested chemical

> <STRUCTURE_Formula>
C18H13N4NaO7S

> <STRUCTURE_MW>
452.3732

> <STRUCTURE_ChemType>
defined organic

> <STRUCTURE_DefinedOrganicForm>
salt

> <STRUCTURE_IUPAC>
sodium 5-[(2,4-dinitrophenyl)amino]-2-(phenylamino)benzenesulfonate

> <STRUCTURE_SMILES>
[Na+].O=S([O-])(=O)c2cc(ccc2Nc1ccccc1)Nc3ccc(cc3[N+]([O-])=O)[N+]([O-])=O

> <STRUCTURE_SMILES_Desalt>
OS(=O)(=O)c2cc(ccc2Nc1ccccc1)Nc3ccc(cc3[N+]([O-])=O)[N+]([O-])=O

> <Substance_modify_yyyymmdd>
20080429

$$$$
