64-77-7
ChemmineR-0914142331XD

 18 18  0  0  0  0  0  0  0  0  1 V2000
    6.4226    0.0000    0.0000 O   0  0  0  0  0  0  0  0  0  0  0  0
    5.7596   -1.1498    0.0000 S   0  0  0  0  0  0  0  0  0  0  0  0
    5.0862   -2.2997    0.0000 O   0  0  0  0  0  0  0  0  0  0  0  0
    6.9094   -1.8128    0.0000 C   0  0  0  0  0  0  0  0  0  0  0  0
    8.0593   -1.1498    0.0000 C   0  0  0  0  0  0  0  0  0  0  0  0
    9.2091   -1.8128    0.0000 C   0  0  0  0  0  0  0  0  0  0  0  0
    9.2091   -3.1491    0.0000 C   0  0  0  0  0  0  0  0  0  0  0  0
    8.0593   -3.8121    0.0000 C   0  0  0  0  0  0  0  0  0  0  0  0
    6.9094   -3.1491    0.0000 C   0  0  0  0  0  0  0  0  0  0  0  0
   10.3590   -3.8121    0.0000 C   0  0  0  0  0  0  0  0  0  0  0  0
    4.5994   -0.4869    0.0000 N   0  0  0  0  0  0  0  0  0  0  0  0
    3.4495   -1.1498    0.0000 C   0  0  0  0  0  0  0  0  0  0  0  0
    3.4495   -2.4861    0.0000 O   0  0  0  0  0  0  0  0  0  0  0  0
    2.2997   -0.4869    0.0000 N   0  0  0  0  0  0  0  0  0  0  0  0
    1.1498   -1.1498    0.0000 C   0  0  0  0  0  0  0  0  0  0  0  0
    1.1498   -2.4861    0.0000 C   0  0  0  0  0  0  0  0  0  0  0  0
    0.0000   -3.1491    0.0000 C   0  0  0  0  0  0  0  0  0  0  0  0
    0.0000   -4.4751    0.0000 C   0  0  0  0  0  0  0  0  0  0  0  0
  1  2  2  0  0  0  0
  2  3  2  0  0  0  0
  2  4  1  0  0  0  0
  2 11  1  0  0  0  0
  4  5  2  0  0  0  0
  4  9  1  0  0  0  0
  5  6  1  0  0  0  0
  6  7  2  0  0  0  0
  7  8  1  0  0  0  0
  7 10  1  0  0  0  0
  8  9  2  0  0  0  0
 11 12  1  0  0  0  0
 12 13  2  0  0  0  0
 12 14  1  0  0  0  0
 14 15  1  0  0  0  0
 15 16  1  0  0  0  0
 16 17  1  0  0  0  0
 17 18  1  0  0  0  0
M  END
> <ID>
1306

> <Formula>
C12H18N2O3S

> <FW>
270.3479

> <DSSTox_CID>
1359

> <DSSTox_RID>
76106

> <DSSTox_GSID>
21359

> <DSSTox_FileID_Sort>
790

> <TS_ChemName>
Tolbutamide

> <TS_ChemName_Synonyms>


> <TS_CASRN>
64-77-7

> <CASRN_ChemName_Relationship>
primary

> <TS_Description>
single chemical compound

> <ChemNote>


> <STRUCTURE_Shown>
tested chemical

> <STRUCTURE_Formula>
C12H18N2O3S

> <STRUCTURE_MW>
270.3479

> <STRUCTURE_ChemType>
defined organic

> <STRUCTURE_DefinedOrganicForm>
parent

> <STRUCTURE_IUPAC>
N-(butylcarbamoyl)-4-methylbenzenesulfonamide

> <STRUCTURE_SMILES>
Cc1ccc(cc1)S(=O)(=O)NC(=O)NCCCC

> <STRUCTURE_SMILES_Desalt>
Cc1ccc(cc1)S(=O)(=O)NC(=O)NCCCC

> <Substance_modify_yyyymmdd>
20080429

$$$$
