64706-54-3
ChemmineR-0914142331XD

 27 29  0  0  0  0  0  0  0  0  1 V2000
    4.6007   -5.3675    0.0000 N   0  0  0  0  0  0  0  0  0  0  0  0
    4.6007   -4.0411    0.0000 C   0  0  0  0  0  0  0  0  0  0  0  0
    5.7612   -3.3780    0.0000 C   0  0  0  0  0  0  0  0  0  0  0  0
    5.7612   -2.0517    0.0000 N   0  0  0  0  0  0  0  0  0  0  0  0
    4.6836   -1.2642    0.0000 C   0  0  0  0  0  0  0  0  0  0  0  0
    5.0877    0.0000    0.0000 C   0  0  0  0  0  0  0  0  0  0  0  0
    6.4244    0.0000    0.0000 C   0  0  0  0  0  0  0  0  0  0  0  0
    6.8285   -1.2642    0.0000 C   0  0  0  0  0  0  0  0  0  0  0  0
    6.9114   -4.0411    0.0000 C   0  0  0  0  0  0  0  0  0  0  0  0
    8.0616   -3.3780    0.0000 O   0  0  0  0  0  0  0  0  0  0  0  0
    8.0616   -2.0517    0.0000 C   0  0  0  0  0  0  0  0  0  0  0  0
    9.2117   -1.3781    0.0000 C   0  0  0  0  0  0  0  0  0  0  0  0
    9.2117   -0.0518    0.0000 C   0  0  0  0  0  0  0  0  0  0  0  0
   10.3619   -2.0517    0.0000 C   0  0  0  0  0  0  0  0  0  0  0  0
    3.4505   -6.0410    0.0000 C   0  0  0  0  0  0  0  0  0  0  0  0
    2.3003   -5.3675    0.0000 C   0  0  0  0  0  0  0  0  0  0  0  0
    1.1502   -6.0410    0.0000 C   0  0  0  0  0  0  0  0  0  0  0  0
    0.0000   -5.3675    0.0000 C   0  0  0  0  0  0  0  0  0  0  0  0
    0.0000   -4.0411    0.0000 C   0  0  0  0  0  0  0  0  0  0  0  0
    1.1502   -3.3780    0.0000 C   0  0  0  0  0  0  0  0  0  0  0  0
    2.3003   -4.0411    0.0000 C   0  0  0  0  0  0  0  0  0  0  0  0
    5.7612   -6.0410    0.0000 C   0  0  0  0  0  0  0  0  0  0  0  0
    6.9114   -5.3675    0.0000 C   0  0  0  0  0  0  0  0  0  0  0  0
    8.0616   -6.0410    0.0000 C   0  0  0  0  0  0  0  0  0  0  0  0
    8.0616   -7.3673    0.0000 C   0  0  0  0  0  0  0  0  0  0  0  0
    6.9114   -8.0305    0.0000 C   0  0  0  0  0  0  0  0  0  0  0  0
    5.7612   -7.3673    0.0000 C   0  0  0  0  0  0  0  0  0  0  0  0
  1  2  1  0  0  0  0
  1 15  1  0  0  0  0
  1 22  1  0  0  0  0
  2  3  1  0  0  0  0
  3  4  1  0  0  0  0
  3  9  1  0  0  0  0
  4  5  1  0  0  0  0
  4  8  1  0  0  0  0
  5  6  1  0  0  0  0
  6  7  1  0  0  0  0
  7  8  1  0  0  0  0
  9 10  1  0  0  0  0
 10 11  1  0  0  0  0
 11 12  1  0  0  0  0
 12 13  1  0  0  0  0
 12 14  1  0  0  0  0
 15 16  1  0  0  0  0
 16 17  2  0  0  0  0
 16 21  1  0  0  0  0
 17 18  1  0  0  0  0
 18 19  2  0  0  0  0
 19 20  1  0  0  0  0
 20 21  2  0  0  0  0
 22 23  1  0  0  0  0
 22 27  2  0  0  0  0
 23 24  2  0  0  0  0
 24 25  1  0  0  0  0
 25 26  2  0  0  0  0
 26 27  1  0  0  0  0
M  END
> <ID>
2410

> <Formula>
C24H34N2O

> <FW>
366.5396

> <DSSTox_CID>
2663

> <DSSTox_RID>
76679

> <DSSTox_GSID>
22663

> <DSSTox_FileID_Sort>
1363

> <TS_ChemName>
Bepridil

> <TS_ChemName_Synonyms>


> <TS_CASRN>
64706-54-3

> <CASRN_ChemName_Relationship>
primary

> <TS_Description>
single chemical compound

> <ChemNote>


> <STRUCTURE_Shown>
tested chemical

> <STRUCTURE_Formula>
C24H34N2O

> <STRUCTURE_MW>
366.5396

> <STRUCTURE_ChemType>
defined organic

> <STRUCTURE_DefinedOrganicForm>
parent

> <STRUCTURE_IUPAC>
N-benzyl-N-[3-(2-methylpropoxy)-2-(pyrrolidin-1-yl)propyl]aniline

> <STRUCTURE_SMILES>
CC(C)COCC(CN(Cc1ccccc1)c2ccccc2)N3CCCC3

> <STRUCTURE_SMILES_Desalt>
CC(C)COCC(CN(Cc1ccccc1)c2ccccc2)N3CCCC3

> <Substance_modify_yyyymmdd>
20080429

$$$$
