65-29-2
ChemmineR-0914142331XD

 39 36  0  0  0  0  0  0  0  0  2 V2000
    8.9451   -8.3784    0.0000 C   0  0  0  0  0  0  0  0  0  0  0  0
    8.2712   -9.5272    0.0000 C   0  0  0  0  0  0  0  0  0  0  0  0
    8.2712   -7.2296    0.0000 C   0  0  0  0  0  0  0  0  0  0  0  0
    6.9539   -9.5272    0.0000 C   0  0  0  0  0  0  0  0  0  0  0  0
    6.9539   -7.2296    0.0000 C   0  0  0  0  0  0  0  0  0  0  0  0
    6.2953   -8.3784    0.0000 C   0  0  0  0  0  0  0  0  0  0  0  0
    4.9627   -8.3784    0.0000 O   0  0  0  0  0  0  0  0  0  0  0  0
    6.2953   -6.0655    0.0000 O   0  0  0  0  0  0  0  0  0  0  0  0
    8.9451   -6.0655    0.0000 O   0  0  0  0  0  0  0  0  0  0  0  0
   10.2777   -6.0655    0.0000 C   0  0  0  0  0  0  0  0  0  0  0  0
    6.9539   -4.9168    0.0000 C   0  0  0  0  0  0  0  0  0  0  0  0
    4.2888   -7.2296    0.0000 C   0  0  0  0  0  0  0  0  0  0  0  0
   10.9363   -4.9168    0.0000 C   0  0  0  0  0  0  0  0  0  0  0  0
   12.2536   -4.9168    0.0000 N   0  3  0  0  0  0  0  0  0  0  0  0
    6.2953   -3.7680    0.0000 C   0  0  0  0  0  0  0  0  0  0  0  0
    6.9539   -2.6192    0.0000 N   0  3  0  0  0  0  0  0  0  0  0  0
    2.9562   -7.2296    0.0000 C   0  0  0  0  0  0  0  0  0  0  0  0
    2.2976   -6.0655    0.0000 N   0  3  0  0  0  0  0  0  0  0  0  0
   12.2536   -6.2493    0.0000 C   0  0  0  0  0  0  0  0  0  0  0  0
   12.2536   -3.5842    0.0000 C   0  0  0  0  0  0  0  0  0  0  0  0
   13.5862   -4.9168    0.0000 C   0  0  0  0  0  0  0  0  0  0  0  0
   13.4177   -2.9102    0.0000 C   0  0  0  0  0  0  0  0  0  0  0  0
   14.2601   -6.0655    0.0000 C   0  0  0  0  0  0  0  0  0  0  0  0
   11.1048   -6.9080    0.0000 C   0  0  0  0  0  0  0  0  0  0  0  0
    5.7898   -1.9606    0.0000 C   0  0  0  0  0  0  0  0  0  0  0  0
    8.1027   -3.2778    0.0000 C   0  0  0  0  0  0  0  0  0  0  0  0
    7.6126   -1.4551    0.0000 C   0  0  0  0  0  0  0  0  0  0  0  0
    1.1488   -6.7242    0.0000 C   0  0  0  0  0  0  0  0  0  0  0  0
    3.4616   -5.3916    0.0000 C   0  0  0  0  0  0  0  0  0  0  0  0
    1.6389   -4.9168    0.0000 C   0  0  0  0  0  0  0  0  0  0  0  0
    5.7898   -0.6280    0.0000 C   0  0  0  0  0  0  0  0  0  0  0  0
    8.9451   -1.4551    0.0000 C   0  0  0  0  0  0  0  0  0  0  0  0
    8.1027   -4.6104    0.0000 C   0  0  0  0  0  0  0  0  0  0  0  0
    0.0000   -6.0655    0.0000 C   0  0  0  0  0  0  0  0  0  0  0  0
    2.2976   -3.7680    0.0000 C   0  0  0  0  0  0  0  0  0  0  0  0
    4.6104   -6.0655    0.0000 C   0  0  0  0  0  0  0  0  0  0  0  0
    0.7505   -8.0567    0.0000 I   0  5  0  0  0  0  0  0  0  0  0  0
    8.7001    0.0000    0.0000 I   0  5  0  0  0  0  0  0  0  0  0  0
   15.3170   -4.6564    0.0000 I   0  5  0  0  0  0  0  0  0  0  0  0
  1  2  1  0  0  0  0
  1  3  2  0  0  0  0
  2  4  2  0  0  0  0
  3  5  1  0  0  0  0
  3  9  1  0  0  0  0
  4  6  1  0  0  0  0
  5  6  2  0  0  0  0
  5  8  1  0  0  0  0
  6  7  1  0  0  0  0
  7 12  1  0  0  0  0
  8 11  1  0  0  0  0
  9 10  1  0  0  0  0
 10 13  1  0  0  0  0
 11 15  1  0  0  0  0
 12 17  1  0  0  0  0
 13 14  1  0  0  0  0
 14 19  1  0  0  0  0
 14 20  1  0  0  0  0
 14 21  1  0  0  0  0
 15 16  1  0  0  0  0
 16 25  1  0  0  0  0
 16 26  1  0  0  0  0
 16 27  1  0  0  0  0
 17 18  1  0  0  0  0
 18 28  1  0  0  0  0
 18 29  1  0  0  0  0
 18 30  1  0  0  0  0
 19 24  1  0  0  0  0
 20 22  1  0  0  0  0
 21 23  1  0  0  0  0
 25 31  1  0  0  0  0
 26 33  1  0  0  0  0
 27 32  1  0  0  0  0
 28 34  1  0  0  0  0
 29 36  1  0  0  0  0
 30 35  1  0  0  0  0
M  END
> <ID>
2776

> <Formula>
C30H60I3N3O3

> <FW>
891.5291 (510.8141+126.9050+126.9050+126.9050)

> <DSSTox_CID>
3089

> <DSSTox_RID>
76870

> <DSSTox_GSID>
23089

> <DSSTox_FileID_Sort>
1554

> <TS_ChemName>
Gallamine triethiodide

> <TS_ChemName_Synonyms>


> <TS_CASRN>
65-29-2

> <CASRN_ChemName_Relationship>
primary

> <TS_Description>
single chemical compound

> <ChemNote>
ammonium; parent [7006-17-9]

> <STRUCTURE_Shown>
tested chemical

> <STRUCTURE_Formula>
C30H60I3N3O3

> <STRUCTURE_MW>
891.5291

> <STRUCTURE_ChemType>
defined organic

> <STRUCTURE_DefinedOrganicForm>
salt

> <STRUCTURE_IUPAC>
2,2',2''-[benzene-1,2,3-triyltris(oxy)]tris(N,N,N-triethylethanaminium) triiodide

> <STRUCTURE_SMILES>
[I-].[I-].[I-].CC[N+](CC)(CC)CCOc1cccc(OCC[N+](CC)(CC)CC)c1OCC[N+](CC)(CC)CC

> <STRUCTURE_SMILES_Desalt>
CC[N+](CC)(CC)CCOc1cccc(OCC[N+](CC)(CC)CC)c1OCC[N+](CC)(CC)CC

> <Substance_modify_yyyymmdd>
20080429

$$$$
