65-30-5
ChemmineR-0914142331XD

 29 30  0  0  1  0  0  0  0  0  1 V2000
    4.8097   -1.7699    0.0000 N   0  0  0  0  0  0  0  0  0  0  0  0
    3.7097   -2.5398    0.0000 C   0  0  0  0  0  0  0  0  0  0  0  0
    2.4898   -1.9999    0.0000 C   0  0  0  0  0  0  0  0  0  0  0  0
    1.3599    0.0000    0.0000 N   0  0  0  0  0  0  0  0  0  0  0  0
    2.4898   -0.6700    0.0000 C   0  0  0  0  0  0  0  0  0  0  0  0
    5.8796   -2.5198    0.0000 C   0  0  0  0  0  0  0  0  0  0  0  0
    4.8097   -0.4200    0.0000 C   0  0  0  0  0  0  0  0  0  0  0  0
    4.1397   -3.7997    0.0000 C   0  0  0  0  0  0  0  0  0  0  0  0
    5.4996   -3.7997    0.0000 C   0  0  0  0  0  0  0  0  0  0  0  0
    1.3599   -2.6498    0.0000 C   0  0  0  0  0  0  0  0  0  0  0  0
    0.2100   -0.6500    0.0000 C   0  0  0  0  0  0  0  0  0  0  0  0
    0.2100   -1.9999    0.0000 C   0  0  0  0  0  0  0  0  0  0  0  0
    4.5997   -7.9694    0.0000 N   0  0  0  0  0  0  0  0  0  0  0  0
    3.4997   -8.7394    0.0000 C   0  0  0  0  0  0  0  0  0  0  0  0
    2.2798   -8.1894    0.0000 C   0  0  0  0  0  0  0  0  0  0  0  0
    1.1499   -6.1996    0.0000 N   0  0  0  0  0  0  0  0  0  0  0  0
    2.2798   -6.8695    0.0000 C   0  0  0  0  0  0  0  0  0  0  0  0
    5.6696   -8.7194    0.0000 C   0  0  0  0  0  0  0  0  0  0  0  0
    4.5997   -6.6095    0.0000 C   0  0  0  0  0  0  0  0  0  0  0  0
    3.9297   -9.9993    0.0000 C   0  0  0  0  0  0  0  0  0  0  0  0
    5.2896   -9.9993    0.0000 C   0  0  0  0  0  0  0  0  0  0  0  0
    1.1499   -8.8494    0.0000 C   0  0  0  0  0  0  0  0  0  0  0  0
    0.0000   -6.8495    0.0000 C   0  0  0  0  0  0  0  0  0  0  0  0
    0.0000   -8.1894    0.0000 C   0  0  0  0  0  0  0  0  0  0  0  0
    3.8497   -4.6197    0.0000 O   0  0  0  0  0  0  0  0  0  0  0  0
    2.5198   -4.6197    0.0000 S   0  0  0  0  0  0  0  0  0  0  0  0
    1.1999   -4.6197    0.0000 O   0  0  0  0  0  0  0  0  0  0  0  0
    2.5198   -3.2898    0.0000 O   0  0  0  0  0  0  0  0  0  0  0  0
    2.5198   -5.9396    0.0000 O   0  0  0  0  0  0  0  0  0  0  0  0
  1  2  1  0  0  0  0
  1  6  1  0  0  0  0
  1  7  1  0  0  0  0
  2  3  1  1  0  0  0
  2  8  1  0  0  0  0
  3  5  2  0  0  0  0
  3 10  1  0  0  0  0
  4  5  1  0  0  0  0
  4 11  2  0  0  0  0
  6  9  1  0  0  0  0
  8  9  1  0  0  0  0
 10 12  2  0  0  0  0
 11 12  1  0  0  0  0
 13 14  1  0  0  0  0
 13 18  1  0  0  0  0
 13 19  1  0  0  0  0
 14 15  1  1  0  0  0
 14 20  1  0  0  0  0
 15 17  2  0  0  0  0
 15 22  1  0  0  0  0
 16 17  1  0  0  0  0
 16 23  2  0  0  0  0
 18 21  1  0  0  0  0
 20 21  1  0  0  0  0
 22 24  2  0  0  0  0
 23 24  1  0  0  0  0
 25 26  1  0  0  0  0
 26 27  1  0  0  0  0
 26 28  2  0  0  0  0
 26 29  2  0  0  0  0
M  END
> <ID>
1652

> <Formula>
C20H30N4O4S

> <FW>
422.5416 (162.2316+162.2316+98.0785)

> <DSSTox_CID>
1725

> <DSSTox_RID>
76294

> <DSSTox_GSID>
21725

> <DSSTox_FileID_Sort>
978

> <TS_ChemName>
Nicotine sulfate

> <TS_ChemName_Synonyms>


> <TS_CASRN>
65-30-5

> <CASRN_ChemName_Relationship>
primary

> <TS_Description>
single chemical compound

> <ChemNote>
stereochem; parent [54-11-5]

> <STRUCTURE_Shown>
tested chemical

> <STRUCTURE_Formula>
C20H30N4O4S

> <STRUCTURE_MW>
422.5416

> <STRUCTURE_ChemType>
defined organic

> <STRUCTURE_DefinedOrganicForm>
complex

> <STRUCTURE_IUPAC>
3-[(2S)-1-methylpyrrolidin-2-yl]pyridine sulfate (2:1)

> <STRUCTURE_SMILES>
CN2CCC[C@H]2c1cnccc1.O=S(=O)(O)O.CN2CCC[C@H]2c1cccnc1

> <STRUCTURE_SMILES_Desalt>
CN2CCC[C@H]2c1cnccc1

> <Substance_modify_yyyymmdd>
20110406

$$$$
