657-24-9
ChemmineR-0914142331XD

  9  8  0  0  0  0  0  0  0  0  1 V2000
    0.0000   -1.9937    0.0000 C   0  0  0  0  0  0  0  0  0  0  0  0
    1.1524   -1.3311    0.0000 N   0  0  0  0  0  0  0  0  0  0  0  0
    1.1524    0.0000    0.0000 C   0  0  0  0  0  0  0  0  0  0  0  0
    2.3049   -1.9937    0.0000 C   0  0  0  0  0  0  0  0  0  0  0  0
    2.3049   -3.3248    0.0000 N   0  0  0  0  0  0  0  0  0  0  0  0
    3.4573   -1.3311    0.0000 N   0  0  0  0  0  0  0  0  0  0  0  0
    4.6097   -1.9937    0.0000 C   0  0  0  0  0  0  0  0  0  0  0  0
    5.7622   -1.3311    0.0000 N   0  0  0  0  0  0  0  0  0  0  0  0
    4.6097   -3.3248    0.0000 N   0  0  0  0  0  0  0  0  0  0  0  0
  1  2  1  0  0  0  0
  2  3  1  0  0  0  0
  2  4  1  0  0  0  0
  4  5  2  0  0  0  0
  4  6  1  0  0  0  0
  6  7  1  0  0  0  0
  7  8  1  0  0  0  0
  7  9  2  0  0  0  0
M  END
> <ID>
2936

> <Formula>
C4H11N5

> <FW>
129.1636

> <DSSTox_CID>
3270

> <DSSTox_RID>
76950

> <DSSTox_GSID>
23270

> <DSSTox_FileID_Sort>
1634

> <TS_ChemName>
Metformin

> <TS_ChemName_Synonyms>


> <TS_CASRN>
657-24-9

> <CASRN_ChemName_Relationship>
primary

> <TS_Description>
single chemical compound

> <ChemNote>


> <STRUCTURE_Shown>
tested chemical

> <STRUCTURE_Formula>
C4H11N5

> <STRUCTURE_MW>
129.1636

> <STRUCTURE_ChemType>
defined organic

> <STRUCTURE_DefinedOrganicForm>
parent

> <STRUCTURE_IUPAC>
N,N-dimethylimidodicarbonimidic diamide

> <STRUCTURE_SMILES>
N=C(N)NC(=N)N(C)C

> <STRUCTURE_SMILES_Desalt>
N=C(N)NC(=N)N(C)C

> <Substance_modify_yyyymmdd>
20080429

$$$$
