66085-59-4
ChemmineR-0914142331XD

 30 31  0  0  0  0  0  0  0  0  2 V2000
    3.4554   -1.9903    0.0000 C   0  0  0  0  0  0  0  0  0  0  0  0
    4.6071   -2.6537    0.0000 C   0  0  0  0  0  0  0  0  0  0  0  0
    4.6071   -3.9898    0.0000 C   0  0  0  0  0  0  0  0  0  0  0  0
    5.7589   -4.6532    0.0000 C   0  0  0  0  0  0  0  0  0  0  0  0
    6.9107   -3.9898    0.0000 C   0  0  0  0  0  0  0  0  0  0  0  0
    6.9107   -2.6537    0.0000 C   0  0  0  0  0  0  0  0  0  0  0  0
    8.0625   -1.9903    0.0000 O   0  0  0  0  0  0  0  0  0  0  0  0
    5.7589   -1.9903    0.0000 O   0  0  0  0  0  0  0  0  0  0  0  0
    5.7589   -0.6634    0.0000 C   0  0  0  0  0  0  0  0  0  0  0  0
    4.6071    0.0000    0.0000 C   0  0  0  0  0  0  0  0  0  0  0  0
    6.9107    0.0000    0.0000 C   0  0  0  0  0  0  0  0  0  0  0  0
    8.0625   -4.6532    0.0000 C   0  0  0  0  0  0  0  0  0  0  0  0
    9.2143   -3.9898    0.0000 C   0  0  0  0  0  0  0  0  0  0  0  0
    8.0625   -5.9801    0.0000 N   0  0  0  0  0  0  0  0  0  0  0  0
    6.9107   -6.6435    0.0000 C   0  0  0  0  0  0  0  0  0  0  0  0
    6.9107   -7.9796    0.0000 C   0  0  0  0  0  0  0  0  0  0  0  0
    5.7589   -5.9801    0.0000 C   0  0  0  0  0  0  0  0  0  0  0  0
    4.6071   -6.6435    0.0000 C   0  0  0  0  0  0  0  0  0  0  0  0
    3.4554   -5.9801    0.0000 O   0  0  0  0  0  0  0  0  0  0  0  0
    4.6071   -7.9796    0.0000 O   0  0  0  0  0  0  0  0  0  0  0  0
    3.4554   -8.6430    0.0000 C   0  0  0  0  0  0  0  0  0  0  0  0
    2.3036   -7.9796    0.0000 C   0  0  0  0  0  0  0  0  0  0  0  0
    1.1518   -8.6430    0.0000 O   0  0  0  0  0  0  0  0  0  0  0  0
    0.0000   -7.9796    0.0000 C   0  0  0  0  0  0  0  0  0  0  0  0
    3.4554   -4.6532    0.0000 C   0  0  0  0  0  0  0  0  0  0  0  0
    2.3036   -3.9898    0.0000 C   0  0  0  0  0  0  0  0  0  0  0  0
    1.1518   -4.6532    0.0000 N   0  3  0  0  0  0  0  0  0  0  0  0
    0.0000   -3.9898    0.0000 O   0  5  0  0  0  0  0  0  0  0  0  0
    1.1518   -5.9801    0.0000 O   0  0  0  0  0  0  0  0  0  0  0  0
    2.3036   -2.6537    0.0000 C   0  0  0  0  0  0  0  0  0  0  0  0
  1  2  2  0  0  0  0
  1 30  1  0  0  0  0
  2  3  1  0  0  0  0
  3  4  1  0  0  0  0
  3 25  2  0  0  0  0
  4  5  1  0  0  0  0
  4 17  1  0  0  0  0
  5  6  1  0  0  0  0
  5 12  2  0  0  0  0
  6  7  2  0  0  0  0
  6  8  1  0  0  0  0
  8  9  1  0  0  0  0
  9 10  1  0  0  0  0
  9 11  1  0  0  0  0
 12 13  1  0  0  0  0
 12 14  1  0  0  0  0
 14 15  1  0  0  0  0
 15 16  1  0  0  0  0
 15 17  2  0  0  0  0
 17 18  1  0  0  0  0
 18 19  2  0  0  0  0
 18 20  1  0  0  0  0
 20 21  1  0  0  0  0
 21 22  1  0  0  0  0
 22 23  1  0  0  0  0
 23 24  1  0  0  0  0
 25 26  1  0  0  0  0
 26 27  1  0  0  0  0
 26 30  2  0  0  0  0
 27 28  1  0  0  0  0
 27 29  2  0  0  0  0
M  END
> <ID>
3023

> <Formula>
C21H26N2O7

> <FW>
418.4403

> <DSSTox_CID>
3370

> <DSSTox_RID>
76998

> <DSSTox_GSID>
23370

> <DSSTox_FileID_Sort>
1682

> <TS_ChemName>
Nimodipine

> <TS_ChemName_Synonyms>


> <TS_CASRN>
66085-59-4

> <CASRN_ChemName_Relationship>
primary

> <TS_Description>
single chemical compound

> <ChemNote>


> <STRUCTURE_Shown>
tested chemical

> <STRUCTURE_Formula>
C21H26N2O7

> <STRUCTURE_MW>
418.4403

> <STRUCTURE_ChemType>
defined organic

> <STRUCTURE_DefinedOrganicForm>
parent

> <STRUCTURE_IUPAC>
2-methoxyethyl propan-2-yl 2,6-dimethyl-4-(3-nitrophenyl)-1,4-dihydropyridine-3,5-dicarboxylate

> <STRUCTURE_SMILES>
CC=1NC(C)=C(C(C=1C(=O)OC(C)C)c2cccc(c2)[N+]([O-])=O)C(=O)OCCOC

> <STRUCTURE_SMILES_Desalt>
CC=1NC(C)=C(C(C=1C(=O)OC(C)C)c2cccc(c2)[N+]([O-])=O)C(=O)OCCOC

> <Substance_modify_yyyymmdd>
20080429

$$$$
