66104-23-2
ChemmineR-0914142331XD

 30 32  0  0  1  0  0  0  0  0  1 V2000
    5.4247   -6.1653    0.0000 C   0  0  0  0  0  0  0  0  0  0  0  0
    5.4247   -3.5931    0.0000 C   0  0  0  0  0  0  0  0  0  0  0  0
    6.4856   -4.2537    0.0000 C   0  0  0  0  0  0  0  0  0  0  0  0
    4.3037   -4.2537    0.0000 C   0  0  0  0  0  0  0  0  0  0  0  0
    7.6266   -3.5931    0.0000 N   0  0  0  0  0  0  0  0  0  0  0  0
    4.3037   -5.5348    0.0000 C   0  0  0  0  0  0  0  0  0  0  0  0
    6.4856   -5.5348    0.0000 C   0  0  0  0  0  0  0  0  0  0  0  0
    5.4247   -7.4364    0.0000 C   0  0  0  0  0  0  0  0  0  0  0  0
    3.2228   -7.4364    0.0000 N   0  0  0  0  0  0  0  0  0  0  0  0
    3.2228   -6.1653    0.0000 C   0  0  0  0  0  0  0  0  0  0  0  0
    7.6266   -2.3520    0.0000 C   0  0  0  0  0  0  0  0  0  0  0  0
    5.4247   -2.3520    0.0000 C   0  0  0  0  0  0  0  0  0  0  0  0
    6.4856   -1.7115    0.0000 C   0  0  0  0  0  0  0  0  0  0  0  0
    3.2228   -3.5931    0.0000 C   0  0  0  0  0  0  0  0  0  0  0  0
    8.7776   -4.2337    0.0000 C   0  0  0  0  0  0  0  0  0  0  0  0
    8.7776   -1.6414    0.0000 S   0  0  0  0  0  0  0  0  0  0  0  0
    7.5665   -1.0209    0.0000 C   0  0  0  0  0  0  0  0  0  0  0  0
    2.1018   -4.2537    0.0000 C   0  0  0  0  0  0  0  0  0  0  0  0
    2.1018   -5.5348    0.0000 C   0  0  0  0  0  0  0  0  0  0  0  0
    9.8785   -1.0609    0.0000 C   0  0  0  0  0  0  0  0  0  0  0  0
    8.7776   -5.5748    0.0000 C   0  0  0  0  0  0  0  0  0  0  0  0
   10.0086   -6.2654    0.0000 C   0  0  0  0  0  0  0  0  0  0  0  0
    7.6966   -5.0143    0.0000 H   0  0  0  0  0  0  0  0  0  0  0  0
    4.2637   -2.9025    0.0000 H   0  0  0  0  0  0  0  0  0  0  0  0
    5.2946   -0.9308    0.0000 H   0  0  0  0  0  0  0  0  0  0  0  0
    0.0000   -1.3211    0.0000 C   0  0  0  0  0  0  0  0  0  0  0  0
    1.3211   -1.3211    0.0000 S   0  0  0  0  0  0  0  0  0  0  0  0
    1.3211    0.0000    0.0000 O   0  0  0  0  0  0  0  0  0  0  0  0
    1.3211   -2.6423    0.0000 O   0  0  0  0  0  0  0  0  0  0  0  0
    2.6423   -1.3211    0.0000 O   0  0  0  0  0  0  0  0  0  0  0  0
  1  6  1  0  0  0  0
  1  7  1  0  0  0  0
  1  8  2  0  0  0  0
  2  3  1  0  0  0  0
  2 12  1  0  0  0  0
  2 24  1  6  0  0  0
  2  4  1  0  0  0  0
  3  7  1  0  0  0  0
  3  5  1  0  0  0  0
  3 23  1  1  0  0  0
  4  6  2  0  0  0  0
  4 14  1  0  0  0  0
  5 11  1  0  0  0  0
  5 15  1  0  0  0  0
  6 10  1  0  0  0  0
  8  9  1  0  0  0  0
  9 10  1  0  0  0  0
 10 19  2  0  0  0  0
 11 13  1  0  0  0  0
 12 13  1  0  0  0  0
 13 17  1  1  0  0  0
 13 25  1  6  0  0  0
 14 18  2  0  0  0  0
 15 21  1  0  0  0  0
 16 17  1  0  0  0  0
 16 20  1  0  0  0  0
 18 19  1  0  0  0  0
 21 22  1  0  0  0  0
 26 27  1  0  0  0  0
 27 28  2  0  0  0  0
 27 29  2  0  0  0  0
 27 30  1  0  0  0  0
M  END
> <ID>
7815

> <Formula>
C20H30N2O3S2

> <FW>
410.5938 (314.4881+96.1057)

> <DSSTox_CID>
20583

> <DSSTox_RID>
77029

> <DSSTox_GSID>
40583

> <DSSTox_FileID_Sort>
1713

> <TS_ChemName>
Pergolide methanesulfonate

> <TS_ChemName_Synonyms>
Pergolide methanesulfonate (pergolide mesylate)

> <TS_CASRN>
66104-23-2

> <CASRN_ChemName_Relationship>
primary

> <TS_Description>
single chemical compound

> <ChemNote>
stereochem; parent [66104-22-1]

> <STRUCTURE_Shown>
tested chemical

> <STRUCTURE_Formula>
C20H30N2O3S2

> <STRUCTURE_MW>
410.5938

> <STRUCTURE_ChemType>
defined organic

> <STRUCTURE_DefinedOrganicForm>
complex

> <STRUCTURE_IUPAC>
(8beta)-8-[(methylsulfanyl)methyl]-6-propylergoline methanesulfonate (1:1)

> <STRUCTURE_SMILES>
CS(=O)(=O)O.CSC[C@@H]1C[C@@H]2c3cccc4ncc(C[C@H]2N(C1)CCC)c34

> <STRUCTURE_SMILES_Desalt>
CSC[C@@H]1C[C@@H]2c3cccc4ncc(C[C@H]2N(C1)CCC)c34

> <Substance_modify_yyyymmdd>
20080429

$$$$
