6620-60-6
ChemmineR-0914142331XD

 24 24  0  0  0  0  0  0  0  0  1 V2000
    5.9862   -2.3047    0.0000 N   0  0  0  0  0  0  0  0  0  0  0  0
    6.6546   -3.4520    0.0000 C   0  0  0  0  0  0  0  0  0  0  0  0
    7.9816   -3.4520    0.0000 O   0  0  0  0  0  0  0  0  0  0  0  0
    5.9862   -4.6094    0.0000 C   0  0  0  0  0  0  0  0  0  0  0  0
    6.6546   -5.7567    0.0000 C   0  0  0  0  0  0  0  0  0  0  0  0
    7.9816   -5.7567    0.0000 C   0  0  0  0  0  0  0  0  0  0  0  0
    8.6500   -6.9140    0.0000 C   0  0  0  0  0  0  0  0  0  0  0  0
    9.9770   -6.9140    0.0000 O   0  0  0  0  0  0  0  0  0  0  0  0
    7.9816   -8.0614    0.0000 O   0  0  0  0  0  0  0  0  0  0  0  0
    4.6592   -4.6094    0.0000 N   0  0  0  0  0  0  0  0  0  0  0  0
    3.9908   -5.7567    0.0000 C   0  0  0  0  0  0  0  0  0  0  0  0
    4.6592   -6.9140    0.0000 O   0  0  0  0  0  0  0  0  0  0  0  0
    2.6638   -5.7567    0.0000 C   0  0  0  0  0  0  0  0  0  0  0  0
    1.9954   -6.9140    0.0000 C   0  0  0  0  0  0  0  0  0  0  0  0
    0.6685   -6.9140    0.0000 C   0  0  0  0  0  0  0  0  0  0  0  0
    0.0000   -5.7567    0.0000 C   0  0  0  0  0  0  0  0  0  0  0  0
    0.6685   -4.6094    0.0000 C   0  0  0  0  0  0  0  0  0  0  0  0
    1.9954   -4.6094    0.0000 C   0  0  0  0  0  0  0  0  0  0  0  0
    4.6592   -2.3047    0.0000 C   0  0  0  0  0  0  0  0  0  0  0  0
    3.9908   -1.1474    0.0000 C   0  0  0  0  0  0  0  0  0  0  0  0
    2.6638   -1.1474    0.0000 C   0  0  0  0  0  0  0  0  0  0  0  0
    6.6546   -1.1474    0.0000 C   0  0  0  0  0  0  0  0  0  0  0  0
    5.9862    0.0000    0.0000 C   0  0  0  0  0  0  0  0  0  0  0  0
    4.6592    0.0000    0.0000 C   0  0  0  0  0  0  0  0  0  0  0  0
  1  2  1  0  0  0  0
  1 19  1  0  0  0  0
  1 22  1  0  0  0  0
  2  3  2  0  0  0  0
  2  4  1  0  0  0  0
  4  5  1  0  0  0  0
  4 10  1  0  0  0  0
  5  6  1  0  0  0  0
  6  7  1  0  0  0  0
  7  8  1  0  0  0  0
  7  9  2  0  0  0  0
 10 11  1  0  0  0  0
 11 12  2  0  0  0  0
 11 13  1  0  0  0  0
 13 14  2  0  0  0  0
 13 18  1  0  0  0  0
 14 15  1  0  0  0  0
 15 16  2  0  0  0  0
 16 17  1  0  0  0  0
 17 18  2  0  0  0  0
 19 20  1  0  0  0  0
 20 21  1  0  0  0  0
 22 23  1  0  0  0  0
 23 24  1  0  0  0  0
M  END
> <ID>
3148

> <Formula>
C18H26N2O4

> <FW>
334.41

> <DSSTox_CID>
3516

> <DSSTox_RID>
77060

> <DSSTox_GSID>
23516

> <DSSTox_FileID_Sort>
1743

> <TS_ChemName>
Proglumide

> <TS_ChemName_Synonyms>


> <TS_CASRN>
6620-60-6

> <CASRN_ChemName_Relationship>
primary

> <TS_Description>
single chemical compound

> <ChemNote>


> <STRUCTURE_Shown>
tested chemical

> <STRUCTURE_Formula>
C18H26N2O4

> <STRUCTURE_MW>
334.41

> <STRUCTURE_ChemType>
defined organic

> <STRUCTURE_DefinedOrganicForm>
parent

> <STRUCTURE_IUPAC>
N~2~-benzoyl-N,N-dipropyl-alpha-glutamine

> <STRUCTURE_SMILES>
O=C(NC(CCC(=O)O)C(=O)N(CCC)CCC)c1ccccc1

> <STRUCTURE_SMILES_Desalt>
O=C(NC(CCC(=O)O)C(=O)N(CCC)CCC)c1ccccc1

> <Substance_modify_yyyymmdd>
20080429

$$$$
