67-20-9
ChemmineR-0914142331XD

 17 18  0  0  0  0  0  0  0  0  2 V2000
    9.8164   -4.4665    0.0000 O   0  0  0  0  0  0  0  0  0  0  0  0
    9.0409   -3.3965    0.0000 C   0  0  0  0  0  0  0  0  0  0  0  0
    7.7255   -3.3768    0.0000 N   0  0  0  0  0  0  0  0  0  0  0  0
    7.3231   -2.1105    0.0000 C   0  0  0  0  0  0  0  0  0  0  0  0
    8.4029   -1.3350    0.0000 C   0  0  0  0  0  0  0  0  0  0  0  0
    8.4225    0.0000    0.0000 O   0  0  0  0  0  0  0  0  0  0  0  0
    9.4630   -2.1203    0.0000 N   0  0  0  0  0  0  0  0  0  0  0  0
    6.9206   -4.4370    0.0000 N   0  0  0  0  0  0  0  0  0  0  0  0
    5.5954   -4.4370    0.0000 C   0  0  0  0  0  0  0  0  0  0  0  0
    4.2603   -4.4370    0.0000 C   0  0  0  0  0  0  0  0  0  0  0  0
    3.3867   -5.4481    0.0000 C   0  0  0  0  0  0  0  0  0  0  0  0
    2.1694   -4.9475    0.0000 C   0  0  0  0  0  0  0  0  0  0  0  0
    2.2676   -3.6124    0.0000 C   0  0  0  0  0  0  0  0  0  0  0  0
    3.5634   -3.2983    0.0000 O   0  0  0  0  0  0  0  0  0  0  0  0
    1.2565   -2.7486    0.0000 N   0  3  0  0  0  0  0  0  0  0  0  0
    0.0000   -3.2002    0.0000 O   0  0  0  0  0  0  0  0  0  0  0  0
    1.5117   -1.4430    0.0000 O   0  5  0  0  0  0  0  0  0  0  0  0
  1  2  2  0  0  0  0
  2  3  1  0  0  0  0
  2  7  1  0  0  0  0
  3  4  1  0  0  0  0
  3  8  1  0  0  0  0
  4  5  1  0  0  0  0
  5  6  2  0  0  0  0
  5  7  1  0  0  0  0
  8  9  2  0  0  0  0
  9 10  1  0  0  0  0
 10 11  2  0  0  0  0
 10 14  1  0  0  0  0
 11 12  1  0  0  0  0
 12 13  2  0  0  0  0
 13 14  1  0  0  0  0
 13 15  1  0  0  0  0
 15 16  2  0  0  0  0
 15 17  1  0  0  0  0
M  END
> <ID>
936

> <Formula>
C8H6N4O5

> <FW>
238.157

> <DSSTox_CID>
972

> <DSSTox_RID>
75899

> <DSSTox_GSID>
20972

> <DSSTox_FileID_Sort>
583

> <TS_ChemName>
Nitrofurantoin

> <TS_ChemName_Synonyms>


> <TS_CASRN>
67-20-9

> <CASRN_ChemName_Relationship>
primary

> <TS_Description>
single chemical compound

> <ChemNote>


> <STRUCTURE_Shown>
tested chemical

> <STRUCTURE_Formula>
C8H6N4O5

> <STRUCTURE_MW>
238.157

> <STRUCTURE_ChemType>
defined organic

> <STRUCTURE_DefinedOrganicForm>
parent

> <STRUCTURE_IUPAC>
1-{[(5-nitrofuran-2-yl)methylidene]amino}imidazolidine-2,4-dione

> <STRUCTURE_SMILES>
O=[N+]([O-])c2ccc(/C=N/N1CC(=O)NC1=O)o2

> <STRUCTURE_SMILES_Desalt>
O=[N+]([O-])c2ccc(/C=N/N1CC(=O)NC1=O)o2

> <Substance_modify_yyyymmdd>
20110530

$$$$
