67-68-5
ChemmineR-0914142331XD

  4  3  0  0  0  0  0  0  0  0  1 V2000
    1.9950    0.0000    0.0000 C   0  0  0  0  0  0  0  0  0  0  0  0
    1.3292   -1.1518    0.0000 S   0  0  0  0  0  0  0  0  0  0  0  0
    1.9950   -2.3037    0.0000 O   0  0  0  0  0  0  0  0  0  0  0  0
    0.0000   -1.1518    0.0000 C   0  0  0  0  0  0  0  0  0  0  0  0
  1  2  1  0  0  0  0
  2  3  2  0  0  0  0
  2  4  1  0  0  0  0
M  END
> <ID>
1657

> <Formula>
C2H6OS

> <FW>
78.1334

> <DSSTox_CID>
1735

> <DSSTox_RID>
76298

> <DSSTox_GSID>
21735

> <DSSTox_FileID_Sort>
982

> <TS_ChemName>
Dimethyl sulfoxide

> <TS_ChemName_Synonyms>
Dimethyl sulfoxide (DMSO) (Methane, sulfinylbis-) (Methyl sulfoxide)

> <TS_CASRN>
67-68-5

> <CASRN_ChemName_Relationship>
primary

> <TS_Description>
single chemical compound

> <ChemNote>


> <STRUCTURE_Shown>
tested chemical

> <STRUCTURE_Formula>
C2H6OS

> <STRUCTURE_MW>
78.1334

> <STRUCTURE_ChemType>
defined organic

> <STRUCTURE_DefinedOrganicForm>
parent

> <STRUCTURE_IUPAC>
dimethyl sulfoxide

> <STRUCTURE_SMILES>
CS(C)=O

> <STRUCTURE_SMILES_Desalt>
CS(C)=O

> <Substance_modify_yyyymmdd>
20080429

$$$$
