67-63-0
ChemmineR-0914142331XD

  4  3  0  0  0  0  0  0  0  0  1 V2000
    1.1518    0.0000    0.0000 O   0  0  0  0  0  0  0  0  0  0  0  0
    1.1518   -1.3292    0.0000 C   0  0  0  0  0  0  0  0  0  0  0  0
    0.0000   -1.9950    0.0000 C   0  0  0  0  0  0  0  0  0  0  0  0
    2.3037   -1.9950    0.0000 C   0  0  0  0  0  0  0  0  0  0  0  0
  1  2  1  0  0  0  0
  2  3  1  0  0  0  0
  2  4  1  0  0  0  0
M  END
> <ID>
732

> <Formula>
C3H8O

> <FW>
60.095

> <DSSTox_CID>
762

> <DSSTox_RID>
75777

> <DSSTox_GSID>
20762

> <DSSTox_FileID_Sort>
461

> <TS_ChemName>
Isopropanol

> <TS_ChemName_Synonyms>
2-Propanol; Isopropyl alcohol

> <TS_CASRN>
67-63-0

> <CASRN_ChemName_Relationship>
primary

> <TS_Description>
single chemical compound

> <ChemNote>


> <STRUCTURE_Shown>
tested chemical

> <STRUCTURE_Formula>
C3H8O

> <STRUCTURE_MW>
60.095

> <STRUCTURE_ChemType>
defined organic

> <STRUCTURE_DefinedOrganicForm>
parent

> <STRUCTURE_IUPAC>
propan-2-ol

> <STRUCTURE_SMILES>
CC(C)O

> <STRUCTURE_SMILES_Desalt>
CC(C)O

> <Substance_modify_yyyymmdd>
20080429

$$$$
