67-66-3
ChemmineR-0914142331XD

  4  3  0  0  0  0  0  0  0  0  1 V2000
    1.9950    0.0000    0.0000 Cl   0  0  0  0  0  0  0  0  0  0  0  0
    1.3292   -1.1518    0.0000 C    0  0  0  0  0  0  0  0  0  0  0  0
    1.9950   -2.3037    0.0000 Cl   0  0  0  0  0  0  0  0  0  0  0  0
    0.0000   -1.1518    0.0000 Cl   0  0  0  0  0  0  0  0  0  0  0  0
  1  2  1  0  0  0  0
  2  3  1  0  0  0  0
  2  4  1  0  0  0  0
M  END
> <ID>
297

> <Formula>
CHCl3

> <FW>
119.3776

> <DSSTox_CID>
306

> <DSSTox_RID>
75501

> <DSSTox_GSID>
20306

> <DSSTox_FileID_Sort>
185

> <TS_ChemName>
Chloroform

> <TS_ChemName_Synonyms>
Methane, trichloro-; Trichloromethane

> <TS_CASRN>
67-66-3

> <CASRN_ChemName_Relationship>
primary

> <TS_Description>
single chemical compound

> <ChemNote>


> <STRUCTURE_Shown>
tested chemical

> <STRUCTURE_Formula>
CHCl3

> <STRUCTURE_MW>
119.3776

> <STRUCTURE_ChemType>
defined organic

> <STRUCTURE_DefinedOrganicForm>
parent

> <STRUCTURE_IUPAC>
trichloromethane

> <STRUCTURE_SMILES>
ClC(Cl)Cl

> <STRUCTURE_SMILES_Desalt>
ClC(Cl)Cl

> <Substance_modify_yyyymmdd>
20080429

$$$$
