67-72-1
ChemmineR-0914142331XD

  8  7  0  0  0  0  0  0  0  0  1 V2000
    0.0000   -1.3283    0.0000 Cl   0  0  0  0  0  0  0  0  0  0  0  0
    1.3283   -1.3283    0.0000 C    0  0  0  0  0  0  0  0  0  0  0  0
    1.3283   -2.6606    0.0000 C    0  0  0  0  0  0  0  0  0  0  0  0
    2.6606   -2.6606    0.0000 Cl   0  0  0  0  0  0  0  0  0  0  0  0
    1.3283   -3.9889    0.0000 Cl   0  0  0  0  0  0  0  0  0  0  0  0
    0.0000   -2.6606    0.0000 Cl   0  0  0  0  0  0  0  0  0  0  0  0
    1.3283    0.0000    0.0000 Cl   0  0  0  0  0  0  0  0  0  0  0  0
    2.6606   -1.3283    0.0000 Cl   0  0  0  0  0  0  0  0  0  0  0  0
  1  2  1  0  0  0  0
  2  3  1  0  0  0  0
  2  7  1  0  0  0  0
  2  8  1  0  0  0  0
  3  4  1  0  0  0  0
  3  5  1  0  0  0  0
  3  6  1  0  0  0  0
M  END
> <ID>
660

> <Formula>
C2Cl6

> <FW>
236.7394

> <DSSTox_CID>
689

> <DSSTox_RID>
75737

> <DSSTox_GSID>
20689

> <DSSTox_FileID_Sort>
421

> <TS_ChemName>
Hexachloroethane

> <TS_ChemName_Synonyms>
Hexachloroethane (Ethane, hexachloro-)

> <TS_CASRN>
67-72-1

> <CASRN_ChemName_Relationship>
primary

> <TS_Description>
single chemical compound

> <ChemNote>


> <STRUCTURE_Shown>
tested chemical

> <STRUCTURE_Formula>
C2Cl6

> <STRUCTURE_MW>
236.7394

> <STRUCTURE_ChemType>
defined organic

> <STRUCTURE_DefinedOrganicForm>
parent

> <STRUCTURE_IUPAC>
hexachloroethane

> <STRUCTURE_SMILES>
ClC(Cl)(Cl)C(Cl)(Cl)Cl

> <STRUCTURE_SMILES_Desalt>
ClC(Cl)(Cl)C(Cl)(Cl)Cl

> <Substance_modify_yyyymmdd>
20080429

$$$$
