67-96-9
ChemmineR-0914142331XD

 31 33  0  0  1  0  0  0  0  0  1 V2000
    4.5600   -3.8766    0.0000 C   0  0  0  0  0  0  0  0  0  0  0  0
    4.5600   -5.1963    0.0000 C   0  0  0  0  0  0  0  0  0  0  0  0
    5.8326   -3.4642    0.0000 C   0  0  0  0  0  0  0  0  0  0  0  0
    2.2859   -9.1672    0.0000 C   0  0  0  0  0  0  0  0  0  0  0  0
    2.2859   -7.8593    0.0000 C   0  0  0  0  0  0  0  0  0  0  0  0
    3.4406   -5.8915    0.0000 C   0  0  0  0  0  0  0  0  0  0  0  0
    3.4406   -7.2112    0.0000 C   0  0  0  0  0  0  0  0  0  0  0  0
    6.9991   -1.2961    0.0000 C   0  0  0  0  0  0  0  0  0  0  0  0
    8.1303   -1.9795    0.0000 C   0  0  0  0  0  0  0  0  0  0  0  0
    5.8326   -5.6087    0.0000 C   0  0  0  0  0  0  0  0  0  0  0  0
    6.6338   -4.5482    0.0000 C   0  0  0  0  0  0  0  0  0  0  0  0
    3.4171   -9.8152    0.0000 C   0  0  0  0  0  0  0  0  0  0  0  0
    1.1430   -9.8152    0.0000 C   0  0  0  0  0  0  0  0  0  0  0  0
    5.8326   -1.9795    0.0000 C   0  0  0  0  0  0  0  0  0  0  0  0
    9.2850   -1.3315    0.0000 C   0  0  0  0  0  0  0  0  0  0  0  0
    1.1430  -11.1232    0.0000 C   0  0  0  0  0  0  0  0  0  0  0  0
    3.4406   -3.2168    0.0000 C   0  0  0  0  0  0  0  0  0  0  0  0
    4.5600   -2.5451    0.0000 C   0  0  0  0  0  0  0  0  0  0  0  0
    3.4171  -11.1232    0.0000 C   0  0  0  0  0  0  0  0  0  0  0  0
    2.2859  -11.7830    0.0000 C   0  0  0  0  0  0  0  0  0  0  0  0
   10.3926   -2.0385    0.0000 C   0  0  0  0  0  0  0  0  0  0  0  0
    2.2977   -5.1963    0.0000 C   0  0  0  0  0  0  0  0  0  0  0  0
    4.5600  -11.7830    0.0000 O   0  0  0  0  0  0  0  0  0  0  0  0
    2.2977   -3.8766    0.0000 C   0  0  0  0  0  0  0  0  0  0  0  0
    0.0000   -9.1672    0.0000 C   0  0  0  0  0  0  0  0  0  0  0  0
    4.6896   -1.2961    0.0000 C   0  0  0  0  0  0  0  0  0  0  0  0
    9.3321    0.0000    0.0000 C   0  0  0  0  0  0  0  0  0  0  0  0
   10.3926   -3.3464    0.0000 C   0  0  0  0  0  0  0  0  0  0  0  0
   11.5945   -1.3904    0.0000 C   0  0  0  0  0  0  0  0  0  0  0  0
    4.5600   -6.5513    0.0000 H   0  0  0  0  0  0  0  0  0  0  0  0
    5.8326   -4.8192    0.0000 H   0  0  0  0  0  0  0  0  0  0  0  0
  1  2  1  0  0  0  0
  1  3  1  0  0  0  0
  1 17  1  0  0  0  0
  1 18  1  1  0  0  0
  2  6  1  0  0  0  0
  2 10  1  0  0  0  0
  2 30  1  6  0  0  0
  3 11  1  0  0  0  0
  3 14  1  0  0  0  0
  3 31  1  6  0  0  0
  4  5  2  0  0  0  0
  4 12  1  0  0  0  0
  4 13  1  0  0  0  0
  5  7  1  0  0  0  0
  6  7  2  0  0  0  0
  6 22  1  0  0  0  0
  8 14  1  0  0  0  0
  8  9  2  0  0  0  0
  9 15  1  0  0  0  0
 10 11  1  0  0  0  0
 12 19  1  0  0  0  0
 13 16  1  0  0  0  0
 13 25  1  6  0  0  0
 14 26  1  6  0  0  0
 15 21  1  0  0  0  0
 15 27  1  6  0  0  0
 16 20  1  0  0  0  0
 17 24  1  0  0  0  0
 19 23  1  1  0  0  0
 19 20  1  0  0  0  0
 21 28  1  0  0  0  0
 21 29  1  0  0  0  0
 22 24  1  0  0  0  0
M  END
> <ID>
2646

> <Formula>
C28H46O

> <FW>
398.6642

> <DSSTox_CID>
2938

> <DSSTox_RID>
76796

> <DSSTox_GSID>
22938

> <DSSTox_FileID_Sort>
1480

> <TS_ChemName>
Dihydrotachysterol

> <TS_ChemName_Synonyms>


> <TS_CASRN>
67-96-9

> <CASRN_ChemName_Relationship>
primary

> <TS_Description>
single chemical compound

> <ChemNote>
stereochem

> <STRUCTURE_Shown>
tested chemical

> <STRUCTURE_Formula>
C28H46O

> <STRUCTURE_MW>
398.6642

> <STRUCTURE_ChemType>
defined organic

> <STRUCTURE_DefinedOrganicForm>
parent

> <STRUCTURE_IUPAC>
(3S,5E,7E,10S,22E)-9,10-secoergosta-5,7,22-trien-3-ol

> <STRUCTURE_SMILES>
C[C@H]3CC[C@H](O)C/C3=C\C=C1/CCC[C@]2(C)[C@H](CC[C@@H]12)[C@H](C)/C=C/[C@H](C)C(C)C

> <STRUCTURE_SMILES_Desalt>
C[C@H]3CC[C@H](O)C/C3=C\C=C1/CCC[C@]2(C)[C@H](CC[C@@H]12)[C@H](C)/C=C/[C@H](C)C(C)C

> <Substance_modify_yyyymmdd>
20080429

$$$$
