6740-88-1
ChemmineR-0914142331XD

 16 17  0  0  0  0  0  0  0  0  1 V2000
    0.0000   -1.4833    0.0000 C    0  0  0  0  0  0  0  0  0  0  0  0
    0.4569   -0.2316    0.0000 C    0  0  0  0  0  0  0  0  0  0  0  0
    1.7650    0.0000    0.0000 C    0  0  0  0  0  0  0  0  0  0  0  0
    2.6224   -1.0202    0.0000 C    0  0  0  0  0  0  0  0  0  0  0  0
    2.1655   -2.2657    0.0000 C    0  0  0  0  0  0  0  0  0  0  0  0
    3.4736   -2.4973    0.0000 N    0  0  0  0  0  0  0  0  0  0  0  0
    4.3311   -1.4833    0.0000 C    0  0  0  0  0  0  0  0  0  0  0  0
    2.1655   -3.5988    0.0000 C    0  0  0  0  0  0  0  0  0  0  0  0
    3.3172   -4.2622    0.0000 C    0  0  0  0  0  0  0  0  0  0  0  0
    4.4688   -3.5988    0.0000 Cl   0  0  0  0  0  0  0  0  0  0  0  0
    3.3172   -5.5953    0.0000 C    0  0  0  0  0  0  0  0  0  0  0  0
    2.1655   -6.2588    0.0000 C    0  0  0  0  0  0  0  0  0  0  0  0
    1.0139   -5.5953    0.0000 C    0  0  0  0  0  0  0  0  0  0  0  0
    1.0139   -4.2622    0.0000 C    0  0  0  0  0  0  0  0  0  0  0  0
    0.8575   -2.4973    0.0000 C    0  0  0  0  0  0  0  0  0  0  0  0
    0.4006   -3.7490    0.0000 O    0  0  0  0  0  0  0  0  0  0  0  0
  1  2  1  0  0  0  0
  1 15  1  0  0  0  0
  2  3  1  0  0  0  0
  3  4  1  0  0  0  0
  4  5  1  0  0  0  0
  5  6  1  0  0  0  0
  5  8  1  0  0  0  0
  5 15  1  0  0  0  0
  6  7  1  0  0  0  0
  8  9  2  0  0  0  0
  8 14  1  0  0  0  0
  9 10  1  0  0  0  0
  9 11  1  0  0  0  0
 11 12  2  0  0  0  0
 12 13  1  0  0  0  0
 13 14  2  0  0  0  0
 15 16  2  0  0  0  0
M  END
> <ID>
2863

> <Formula>
C13H16ClNO

> <FW>
237.7252

> <DSSTox_CID>
3187

> <DSSTox_RID>
76912

> <DSSTox_GSID>
23187

> <DSSTox_FileID_Sort>
1596

> <TS_ChemName>
Ketamine

> <TS_ChemName_Synonyms>


> <TS_CASRN>
6740-88-1

> <CASRN_ChemName_Relationship>
primary

> <TS_Description>
single chemical compound

> <ChemNote>


> <STRUCTURE_Shown>
tested chemical

> <STRUCTURE_Formula>
C13H16ClNO

> <STRUCTURE_MW>
237.7252

> <STRUCTURE_ChemType>
defined organic

> <STRUCTURE_DefinedOrganicForm>
parent

> <STRUCTURE_IUPAC>
2-(2-chlorophenyl)-2-(methylamino)cyclohexanone

> <STRUCTURE_SMILES>
CNC1(CCCCC1=O)c2ccccc2Cl

> <STRUCTURE_SMILES_Desalt>
CNC1(CCCCC1=O)c2ccccc2Cl

> <Substance_modify_yyyymmdd>
20080429

$$$$
