68-23-5
ChemmineR-0914142331XD

 25 28  0  0  1  0  0  0  0  0  1 V2000
    3.4957   -3.7237    0.0000 C   0  0  0  0  0  0  0  0  0  0  0  0
    6.9263   -1.7370    0.0000 C   0  0  0  0  0  0  0  0  0  0  0  0
    6.9263   -3.0723    0.0000 C   0  0  0  0  0  0  0  0  0  0  0  0
    4.6356   -3.0723    0.0000 C   0  0  0  0  0  0  0  0  0  0  0  0
    3.4957   -5.0590    0.0000 C   0  0  0  0  0  0  0  0  0  0  0  0
    5.7755   -3.7237    0.0000 C   0  0  0  0  0  0  0  0  0  0  0  0
    8.1965   -1.3787    0.0000 C   0  0  0  0  0  0  0  0  0  0  0  0
    9.5209   -1.4222    0.0000 C   0  0  0  0  0  0  0  0  0  0  0  0
    5.7755   -1.0639    0.0000 C   0  0  0  0  0  0  0  0  0  0  0  0
    4.6356   -1.7370    0.0000 C   0  0  0  0  0  0  0  0  0  0  0  0
    2.3232   -3.0723    0.0000 C   0  0  0  0  0  0  0  0  0  0  0  0
    5.7755   -5.0590    0.0000 C   0  0  0  0  0  0  0  0  0  0  0  0
    8.1965   -3.4849    0.0000 C   0  0  0  0  0  0  0  0  0  0  0  0
   10.8562   -1.4222    0.0000 C   0  0  0  0  0  0  0  0  0  0  0  0
    2.3232   -5.7321    0.0000 C   0  0  0  0  0  0  0  0  0  0  0  0
    4.6356   -5.7321    0.0000 C   0  0  0  0  0  0  0  0  0  0  0  0
    8.9564   -2.4101    0.0000 C   0  0  0  0  0  0  0  0  0  0  0  0
    1.1616   -5.0590    0.0000 C   0  0  0  0  0  0  0  0  0  0  0  0
    0.0000   -5.7538    0.0000 O   0  0  0  0  0  0  0  0  0  0  0  0
    1.1616   -3.7237    0.0000 C   0  0  0  0  0  0  0  0  0  0  0  0
    8.1965    0.0000    0.0000 O   0  0  0  0  0  0  0  0  0  0  0  0
    6.9263   -0.4125    0.0000 C   0  0  0  0  0  0  0  0  0  0  0  0
    4.6356   -4.3968    0.0000 H   0  0  0  0  0  0  0  0  0  0  0  0
    5.7755   -2.3992    0.0000 H   0  0  0  0  0  0  0  0  0  0  0  0
    6.9263   -4.3968    0.0000 H   0  0  0  0  0  0  0  0  0  0  0  0
  1  4  1  0  0  0  0
  1  5  2  0  0  0  0
  1 11  1  0  0  0  0
  2  9  1  0  0  0  0
  2  7  1  0  0  0  0
  2 22  1  1  0  0  0
  2  3  1  0  0  0  0
  3  6  1  0  0  0  0
  3 13  1  0  0  0  0
  3 25  1  6  0  0  0
  4  6  1  0  0  0  0
  4 10  1  0  0  0  0
  4 23  1  6  0  0  0
  5 15  1  0  0  0  0
  5 16  1  0  0  0  0
  6 12  1  0  0  0  0
  6 24  1  1  0  0  0
  7  8  1  6  0  0  0
  7 21  1  1  0  0  0
  7 17  1  0  0  0  0
  8 14  3  0  0  0  0
  9 10  1  0  0  0  0
 11 20  1  0  0  0  0
 12 16  1  0  0  0  0
 13 17  1  0  0  0  0
 15 18  1  0  0  0  0
 18 20  1  0  0  0  0
 18 19  2  0  0  0  0
M  END
> <ID>
539

> <Formula>
C20H26O2

> <FW>
298.4192

> <DSSTox_CID>
563

> <DSSTox_RID>
75927

> <DSSTox_GSID>
21069

> <DSSTox_FileID_Sort>
611

> <TS_ChemName>
Norethynodrel

> <TS_ChemName_Synonyms>


> <TS_CASRN>
68-23-5

> <CASRN_ChemName_Relationship>
primary

> <TS_Description>
single chemical compound

> <ChemNote>
stereochem

> <STRUCTURE_Shown>
tested chemical

> <STRUCTURE_Formula>
C20H26O2

> <STRUCTURE_MW>
298.4192

> <STRUCTURE_ChemType>
defined organic

> <STRUCTURE_DefinedOrganicForm>
parent

> <STRUCTURE_IUPAC>
(17beta)-17-ethynyl-17-hydroxyestr-5(10)-en-3-one

> <STRUCTURE_SMILES>
O=C1CCC4=C(C1)CC[C@@H]3[C@@H]4CC[C@@]2(C)[C@H]3CC[C@@]2(O)C#C

> <STRUCTURE_SMILES_Desalt>
O=C1CCC4=C(C1)CC[C@@H]3[C@@H]4CC[C@@]2(C)[C@H]3CC[C@@]2(O)C#C

> <Substance_modify_yyyymmdd>
20080429

$$$$
