68-26-8
ChemmineR-0914142331XD

 21 21  0  0  0  0  0  0  0  0  1 V2000
   13.8020   -2.0151    0.0000 C   0  0  0  0  0  0  0  0  0  0  0  0
   13.8020   -3.3401    0.0000 C   0  0  0  0  0  0  0  0  0  0  0  0
   12.6565   -4.0026    0.0000 C   0  0  0  0  0  0  0  0  0  0  0  0
   11.4971   -3.3401    0.0000 C   0  0  0  0  0  0  0  0  0  0  0  0
   10.3515   -4.0026    0.0000 C   0  0  0  0  0  0  0  0  0  0  0  0
   11.4971   -2.0151    0.0000 C   0  0  0  0  0  0  0  0  0  0  0  0
   10.3515   -1.3526    0.0000 C   0  0  0  0  0  0  0  0  0  0  0  0
    9.2059   -2.0151    0.0000 C   0  0  0  0  0  0  0  0  0  0  0  0
    8.0466   -1.3526    0.0000 C   0  0  0  0  0  0  0  0  0  0  0  0
    8.0466    0.0000    0.0000 C   0  0  0  0  0  0  0  0  0  0  0  0
    6.9010   -2.0151    0.0000 C   0  0  0  0  0  0  0  0  0  0  0  0
    5.7554   -1.3526    0.0000 C   0  0  0  0  0  0  0  0  0  0  0  0
    4.5961   -2.0151    0.0000 C   0  0  0  0  0  0  0  0  0  0  0  0
    3.4505   -1.3526    0.0000 C   0  0  0  0  0  0  0  0  0  0  0  0
    3.4505    0.0000    0.0000 C   0  0  0  0  0  0  0  0  0  0  0  0
    2.3049   -2.0151    0.0000 C   0  0  0  0  0  0  0  0  0  0  0  0
    1.1456   -1.3526    0.0000 C   0  0  0  0  0  0  0  0  0  0  0  0
    0.0000   -2.0151    0.0000 O   0  0  0  0  0  0  0  0  0  0  0  0
   12.6565   -1.3526    0.0000 C   0  0  0  0  0  0  0  0  0  0  0  0
   11.8007   -0.3312    0.0000 C   0  0  0  0  0  0  0  0  0  0  0  0
   13.5122   -0.3312    0.0000 C   0  0  0  0  0  0  0  0  0  0  0  0
  1  2  1  0  0  0  0
  1 19  1  0  0  0  0
  2  3  1  0  0  0  0
  3  4  1  0  0  0  0
  4  5  1  0  0  0  0
  4  6  2  0  0  0  0
  6  7  1  0  0  0  0
  6 19  1  0  0  0  0
  7  8  2  0  0  0  0
  8  9  1  0  0  0  0
  9 10  1  0  0  0  0
  9 11  2  0  0  0  0
 11 12  1  0  0  0  0
 12 13  2  0  0  0  0
 13 14  1  0  0  0  0
 14 15  1  0  0  0  0
 14 16  2  0  0  0  0
 16 17  1  0  0  0  0
 17 18  1  0  0  0  0
 19 20  1  0  0  0  0
 19 21  1  0  0  0  0
M  END
> <ID>
3182

> <Formula>
C20H30O

> <FW>
286.4516

> <DSSTox_CID>
3556

> <DSSTox_RID>
77080

> <DSSTox_GSID>
23556

> <DSSTox_FileID_Sort>
1763

> <TS_ChemName>
Retinol

> <TS_ChemName_Synonyms>
Retinol (All-trans retinol) (Vitamin A)

> <TS_CASRN>
68-26-8

> <CASRN_ChemName_Relationship>
primary

> <TS_Description>
single chemical compound

> <ChemNote>
stereochem

> <STRUCTURE_Shown>
tested chemical

> <STRUCTURE_Formula>
C20H30O

> <STRUCTURE_MW>
286.4516

> <STRUCTURE_ChemType>
defined organic

> <STRUCTURE_DefinedOrganicForm>
parent

> <STRUCTURE_IUPAC>
retinol

> <STRUCTURE_SMILES>
CC=1CCCC(C)(C)C=1/C=CC(\C)=C\C=C\C(\C)=C\CO

> <STRUCTURE_SMILES_Desalt>
CC=1CCCC(C)(C)C=1/C=CC(\C)=C\C=C\C(\C)=C\CO

> <Substance_modify_yyyymmdd>
20080429

$$$$
