68-22-4
ChemmineR-0914142331XD

 26 29  0  0  1  0  0  0  0  0  1 V2000
    6.9121   -1.7199    0.0000 C   0  0  0  0  0  0  0  0  0  0  0  0
    6.9121   -3.0478    0.0000 C   0  0  0  0  0  0  0  0  0  0  0  0
    3.4724   -5.0507    0.0000 C   0  0  0  0  0  0  0  0  0  0  0  0
    5.7800   -3.7118    0.0000 C   0  0  0  0  0  0  0  0  0  0  0  0
    4.6153   -3.0478    0.0000 C   0  0  0  0  0  0  0  0  0  0  0  0
    3.4724   -3.7118    0.0000 C   0  0  0  0  0  0  0  0  0  0  0  0
    8.1639   -1.3280    0.0000 C   0  0  0  0  0  0  0  0  0  0  0  0
    2.3403   -5.7147    0.0000 C   0  0  0  0  0  0  0  0  0  0  0  0
    9.5245   -1.3280    0.0000 C   0  0  0  0  0  0  0  0  0  0  0  0
    5.7800   -1.0667    0.0000 C   0  0  0  0  0  0  0  0  0  0  0  0
    4.6153   -1.7199    0.0000 C   0  0  0  0  0  0  0  0  0  0  0  0
    5.7800   -5.0507    0.0000 C   0  0  0  0  0  0  0  0  0  0  0  0
    8.1639   -3.4506    0.0000 C   0  0  0  0  0  0  0  0  0  0  0  0
   10.8851   -1.3280    0.0000 C   0  0  0  0  0  0  0  0  0  0  0  0
    2.3403   -3.0478    0.0000 C   0  0  0  0  0  0  0  0  0  0  0  0
    4.6153   -5.7147    0.0000 C   0  0  0  0  0  0  0  0  0  0  0  0
    1.1865   -5.0507    0.0000 C   0  0  0  0  0  0  0  0  0  0  0  0
    8.9476   -2.3838    0.0000 C   0  0  0  0  0  0  0  0  0  0  0  0
    0.0000   -5.7256    0.0000 O   0  0  0  0  0  0  0  0  0  0  0  0
    1.1865   -3.7118    0.0000 C   0  0  0  0  0  0  0  0  0  0  0  0
    8.1639    0.0000    0.0000 O   0  0  0  0  0  0  0  0  0  0  0  0
    6.9121   -0.3810    0.0000 C   0  0  0  0  0  0  0  0  0  0  0  0
    5.7800   -2.3838    0.0000 H   0  0  0  0  0  0  0  0  0  0  0  0
    4.6153   -4.3758    0.0000 H   0  0  0  0  0  0  0  0  0  0  0  0
    6.9121   -4.3758    0.0000 H   0  0  0  0  0  0  0  0  0  0  0  0
    3.4724   -2.3838    0.0000 H   0  0  0  0  0  0  0  0  0  0  0  0
  1  2  1  0  0  0  0
  1  7  1  0  0  0  0
  1 10  1  0  0  0  0
  1 22  1  1  0  0  0
  2  4  1  0  0  0  0
  2 13  1  0  0  0  0
  2 25  1  6  0  0  0
  3  6  1  0  0  0  0
  3  8  2  0  0  0  0
  3 16  1  0  0  0  0
  4 12  1  0  0  0  0
  4  5  1  0  0  0  0
  4 23  1  1  0  0  0
  5 11  1  0  0  0  0
  5  6  1  0  0  0  0
  5 24  1  6  0  0  0
  6 15  1  0  0  0  0
  6 26  1  1  0  0  0
  7  9  1  0  0  0  0
  7 18  1  0  0  0  0
  7 21  1  1  0  0  0
  8 17  1  0  0  0  0
  9 14  3  0  0  0  0
 10 11  1  0  0  0  0
 12 16  1  0  0  0  0
 13 18  1  0  0  0  0
 15 20  1  0  0  0  0
 17 20  1  0  0  0  0
 17 19  2  0  0  0  0
M  END
> <ID>
3032

> <Formula>
C20H26O2

> <FW>
298.4192

> <DSSTox_CID>
3380

> <DSSTox_RID>
77005

> <DSSTox_GSID>
23380

> <DSSTox_FileID_Sort>
1689

> <TS_ChemName>
Norethindrone

> <TS_ChemName_Synonyms>


> <TS_CASRN>
68-22-4

> <CASRN_ChemName_Relationship>
primary

> <TS_Description>
single chemical compound

> <ChemNote>
stereochem

> <STRUCTURE_Shown>
tested chemical

> <STRUCTURE_Formula>
C20H26O2

> <STRUCTURE_MW>
298.4192

> <STRUCTURE_ChemType>
defined organic

> <STRUCTURE_DefinedOrganicForm>
parent

> <STRUCTURE_IUPAC>
(17beta)-17-ethynyl-17-hydroxyestr-4-en-3-one

> <STRUCTURE_SMILES>
O=C4CC[C@H]3C(CC[C@@H]2[C@@H]3CC[C@@]1(C)[C@H]2CC[C@@]1(O)C#C)=C4

> <STRUCTURE_SMILES_Desalt>
O=C4CC[C@H]3C(CC[C@@H]2[C@@H]3CC[C@@]1(C)[C@H]2CC[C@@]1(O)C#C)=C4

> <Substance_modify_yyyymmdd>
20080429

$$$$
