68-41-7
ChemmineR-0914142331XD

  7  7  0  0  1  0  0  0  0  0  1 V2000
    2.1261   -2.0476    0.0000 C   0  0  0  0  0  0  0  0  0  0  0  0
    0.8102   -2.0476    0.0000 C   0  0  0  0  0  0  0  0  0  0  0  0
    2.5061   -0.7945    0.0000 N   0  0  0  0  0  0  0  0  0  0  0  0
    1.4446    0.0000    0.0000 O   0  0  0  0  0  0  0  0  0  0  0  0
    2.9489   -3.1405    0.0000 O   0  0  0  0  0  0  0  0  0  0  0  0
    0.3957   -0.8102    0.0000 C   0  0  0  0  0  0  0  0  0  0  0  0
    0.0000   -3.1405    0.0000 N   0  0  0  0  0  0  0  0  0  0  0  0
  1  2  1  0  0  0  0
  1  3  1  0  0  0  0
  1  5  2  0  0  0  0
  2  6  1  0  0  0  0
  2  7  1  6  0  0  0
  3  4  1  0  0  0  0
  4  6  1  0  0  0  0
M  END
> <ID>
2593

> <Formula>
C3H6N2O2

> <FW>
102.0919

> <DSSTox_CID>
2870

> <DSSTox_RID>
76766

> <DSSTox_GSID>
22870

> <DSSTox_FileID_Sort>
1450

> <TS_ChemName>
Cycloserine

> <TS_ChemName_Synonyms>


> <TS_CASRN>
68-41-7

> <CASRN_ChemName_Relationship>
primary

> <TS_Description>
single chemical compound

> <ChemNote>
stereochem

> <STRUCTURE_Shown>
tested chemical

> <STRUCTURE_Formula>
C3H6N2O2

> <STRUCTURE_MW>
102.0919

> <STRUCTURE_ChemType>
defined organic

> <STRUCTURE_DefinedOrganicForm>
parent

> <STRUCTURE_IUPAC>
(4R)-4-amino-1,2-oxazolidin-3-one

> <STRUCTURE_SMILES>
N[C@@H]1CONC1=O

> <STRUCTURE_SMILES_Desalt>
N[C@@H]1CONC1=O

> <Substance_modify_yyyymmdd>
20080429

$$$$
