68-89-3
ChemmineR-0914142331XD

 22 22  0  0  0  0  0  0  0  0  2 V2000
    6.7154   -3.0118    0.0000 N    0  0  0  0  0  0  0  0  0  0  0  0
    7.8652   -3.6528    0.0000 C    0  0  0  0  0  0  0  0  0  0  0  0
    9.0047   -2.9812    0.0000 C    0  0  0  0  0  0  0  0  0  0  0  0
   10.1749   -3.6324    0.0000 C    0  0  0  0  0  0  0  0  0  0  0  0
   10.1749   -4.9450    0.0000 C    0  0  0  0  0  0  0  0  0  0  0  0
    9.0353   -5.6369    0.0000 C    0  0  0  0  0  0  0  0  0  0  0  0
    7.8855   -4.9857    0.0000 C    0  0  0  0  0  0  0  0  0  0  0  0
    5.4435   -3.4086    0.0000 C    0  0  0  0  0  0  0  0  0  0  0  0
    4.6601   -2.3402    0.0000 C    0  0  0  0  0  0  0  0  0  0  0  0
    3.3374   -2.3402    0.0000 N    0  0  0  0  0  0  0  0  0  0  0  0
    2.6556   -3.4900    0.0000 C    0  0  0  0  0  0  0  0  0  0  0  0
    1.3329   -3.4900    0.0000 S    0  0  0  0  0  0  0  0  0  0  0  0
    1.3329   -4.8229    0.0000 O    0  0  0  0  0  0  0  0  0  0  0  0
    1.3329   -2.1571    0.0000 O    0  0  0  0  0  0  0  0  0  0  0  0
    0.0000   -3.4900    0.0000 O    0  5  0  0  0  0  0  0  0  0  0  0
    2.6556   -1.1803    0.0000 C    0  0  0  0  0  0  0  0  0  0  0  0
    5.4435   -1.2617    0.0000 C    0  0  0  0  0  0  0  0  0  0  0  0
    6.7154   -1.6789    0.0000 N    0  0  0  0  0  0  0  0  0  0  0  0
    7.7736   -0.8954    0.0000 C    0  0  0  0  0  0  0  0  0  0  0  0
    5.0264    0.0000    0.0000 C    0  0  0  0  0  0  0  0  0  0  0  0
    5.0264   -4.6906    0.0000 O    0  0  0  0  0  0  0  0  0  0  0  0
    5.0671   -7.2241    0.0000 Na   0  3  0  0  0  0  0  0  0  0  0  0
  1  2  1  0  0  0  0
  1  8  1  0  0  0  0
  1 18  1  0  0  0  0
  2  3  2  0  0  0  0
  2  7  1  0  0  0  0
  3  4  1  0  0  0  0
  4  5  2  0  0  0  0
  5  6  1  0  0  0  0
  6  7  2  0  0  0  0
  8  9  1  0  0  0  0
  8 21  2  0  0  0  0
  9 10  1  0  0  0  0
  9 17  2  0  0  0  0
 10 11  1  0  0  0  0
 10 16  1  0  0  0  0
 11 12  1  0  0  0  0
 12 13  2  0  0  0  0
 12 14  2  0  0  0  0
 12 15  1  0  0  0  0
 17 18  1  0  0  0  0
 17 20  1  0  0  0  0
 18 19  1  0  0  0  0
M  END
> <ID>
522

> <Formula>
C13H16N3NaO4S

> <FW>
333.3386 (310.3494+22.9892)

> <DSSTox_CID>
543

> <DSSTox_RID>
75651

> <DSSTox_GSID>
20543

> <DSSTox_FileID_Sort>
335

> <TS_ChemName>
Dipyrone

> <TS_ChemName_Synonyms>


> <TS_CASRN>
68-89-3

> <CASRN_ChemName_Relationship>
primary

> <TS_Description>
single chemical compound

> <ChemNote>
parent [50567-35-6]

> <STRUCTURE_Shown>
tested chemical

> <STRUCTURE_Formula>
C13H16N3NaO4S

> <STRUCTURE_MW>
333.3386

> <STRUCTURE_ChemType>
defined organic

> <STRUCTURE_DefinedOrganicForm>
salt

> <STRUCTURE_IUPAC>
sodium [(1,5-dimethyl-3-oxo-2-phenyl-2,3-dihydro-1H-pyrazol-4-yl)(methyl)amino]methanesulfonate

> <STRUCTURE_SMILES>
[Na+].[O-]S(=O)(=O)CN(C)C=2C(=O)N(c1ccccc1)N(C)C=2C

> <STRUCTURE_SMILES_Desalt>
O=S(=O)(O)CN(C)C=2C(=O)N(c1ccccc1)N(C)C=2C

> <Substance_modify_yyyymmdd>
20080429

$$$$
