68-88-2
ChemmineR-0914142331XD

 26 28  0  0  0  0  0  0  0  0  1 V2000
    1.1531   -5.9904    0.0000 C    0  0  0  0  0  0  0  0  0  0  0  0
    0.0000   -6.6493    0.0000 Cl   0  0  0  0  0  0  0  0  0  0  0  0
    1.1531   -4.6575    0.0000 C    0  0  0  0  0  0  0  0  0  0  0  0
    2.3063   -3.9836    0.0000 C    0  0  0  0  0  0  0  0  0  0  0  0
    3.4594   -4.6575    0.0000 C    0  0  0  0  0  0  0  0  0  0  0  0
    4.6126   -3.9836    0.0000 C    0  0  0  0  0  0  0  0  0  0  0  0
    4.6126   -2.6657    0.0000 C    0  0  0  0  0  0  0  0  0  0  0  0
    3.4594   -1.9918    0.0000 C    0  0  0  0  0  0  0  0  0  0  0  0
    3.4594   -0.6589    0.0000 C    0  0  0  0  0  0  0  0  0  0  0  0
    4.6126    0.0000    0.0000 C    0  0  0  0  0  0  0  0  0  0  0  0
    5.7657   -0.6589    0.0000 C    0  0  0  0  0  0  0  0  0  0  0  0
    5.7657   -1.9918    0.0000 C    0  0  0  0  0  0  0  0  0  0  0  0
    5.7657   -4.6575    0.0000 N    0  0  0  0  0  0  0  0  0  0  0  0
    6.9189   -3.9836    0.0000 C    0  0  0  0  0  0  0  0  0  0  0  0
    8.0571   -4.6575    0.0000 C    0  0  0  0  0  0  0  0  0  0  0  0
    8.0571   -5.9904    0.0000 N    0  0  0  0  0  0  0  0  0  0  0  0
    9.2102   -6.6493    0.0000 C    0  0  0  0  0  0  0  0  0  0  0  0
   10.3633   -5.9904    0.0000 C    0  0  0  0  0  0  0  0  0  0  0  0
   11.5165   -6.6493    0.0000 O    0  0  0  0  0  0  0  0  0  0  0  0
   12.6696   -5.9904    0.0000 C    0  0  0  0  0  0  0  0  0  0  0  0
   13.8228   -6.6493    0.0000 C    0  0  0  0  0  0  0  0  0  0  0  0
   14.9759   -5.9904    0.0000 O    0  0  0  0  0  0  0  0  0  0  0  0
    6.9189   -6.6493    0.0000 C    0  0  0  0  0  0  0  0  0  0  0  0
    5.7657   -5.9904    0.0000 C    0  0  0  0  0  0  0  0  0  0  0  0
    3.4594   -5.9904    0.0000 C    0  0  0  0  0  0  0  0  0  0  0  0
    2.3063   -6.6493    0.0000 C    0  0  0  0  0  0  0  0  0  0  0  0
  1  2  1  0  0  0  0
  1  3  2  0  0  0  0
  1 26  1  0  0  0  0
  3  4  1  0  0  0  0
  4  5  2  0  0  0  0
  5  6  1  0  0  0  0
  5 25  1  0  0  0  0
  6  7  1  0  0  0  0
  6 13  1  0  0  0  0
  7  8  2  0  0  0  0
  7 12  1  0  0  0  0
  8  9  1  0  0  0  0
  9 10  2  0  0  0  0
 10 11  1  0  0  0  0
 11 12  2  0  0  0  0
 13 14  1  0  0  0  0
 13 24  1  0  0  0  0
 14 15  1  0  0  0  0
 15 16  1  0  0  0  0
 16 17  1  0  0  0  0
 16 23  1  0  0  0  0
 17 18  1  0  0  0  0
 18 19  1  0  0  0  0
 19 20  1  0  0  0  0
 20 21  1  0  0  0  0
 21 22  1  0  0  0  0
 23 24  1  0  0  0  0
 25 26  2  0  0  0  0
M  END
> <ID>
2817

> <Formula>
C21H27ClN2O2

> <FW>
374.9043

> <DSSTox_CID>
3137

> <DSSTox_RID>
76887

> <DSSTox_GSID>
23137

> <DSSTox_FileID_Sort>
1571

> <TS_ChemName>
Hydroxyzine

> <TS_ChemName_Synonyms>


> <TS_CASRN>
68-88-2

> <CASRN_ChemName_Relationship>
primary

> <TS_Description>
single chemical compound

> <ChemNote>


> <STRUCTURE_Shown>
tested chemical

> <STRUCTURE_Formula>
C21H27ClN2O2

> <STRUCTURE_MW>
374.9043

> <STRUCTURE_ChemType>
defined organic

> <STRUCTURE_DefinedOrganicForm>
parent

> <STRUCTURE_IUPAC>
2-(2-{4-[(4-chlorophenyl)(phenyl)methyl]piperazin-1-yl}ethoxy)ethanol

> <STRUCTURE_SMILES>
Clc1ccc(cc1)C(c2ccccc2)N3CCN(CC3)CCOCCO

> <STRUCTURE_SMILES_Desalt>
Clc1ccc(cc1)C(c2ccccc2)N3CCN(CC3)CCOCCO

> <Substance_modify_yyyymmdd>
20080429

$$$$
