683-72-7
ChemmineR-0914142331XD

  6  5  0  0  0  0  0  0  0  0  1 V2000
    3.3250   -1.1509    0.0000 Cl   0  0  0  0  0  0  0  0  0  0  0  0
    1.9943   -1.1509    0.0000 C    0  0  0  0  0  0  0  0  0  0  0  0
    1.3307    0.0000    0.0000 Cl   0  0  0  0  0  0  0  0  0  0  0  0
    1.3307   -2.3053    0.0000 C    0  0  0  0  0  0  0  0  0  0  0  0
    1.9943   -3.4563    0.0000 N    0  0  0  0  0  0  0  0  0  0  0  0
    0.0000   -2.3053    0.0000 O    0  0  0  0  0  0  0  0  0  0  0  0
  1  2  1  0  0  0  0
  2  3  1  0  0  0  0
  2  4  1  0  0  0  0
  4  5  1  0  0  0  0
  4  6  2  0  0  0  0
M  END
> <ID>
1500

> <Formula>
C2H3Cl2NO

> <FW>
127.9573

> <DSSTox_CID>
1561

> <DSSTox_RID>
76211

> <DSSTox_GSID>
21561

> <DSSTox_FileID_Sort>
895

> <TS_ChemName>
2,2-Dichloroacetamide

> <TS_ChemName_Synonyms>


> <TS_CASRN>
683-72-7

> <CASRN_ChemName_Relationship>
primary

> <TS_Description>
single chemical compound

> <ChemNote>


> <STRUCTURE_Shown>
tested chemical

> <STRUCTURE_Formula>
C2H3Cl2NO

> <STRUCTURE_MW>
127.9573

> <STRUCTURE_ChemType>
defined organic

> <STRUCTURE_DefinedOrganicForm>
parent

> <STRUCTURE_IUPAC>
2,2-dichloroacetamide

> <STRUCTURE_SMILES>
ClC(Cl)C(N)=O

> <STRUCTURE_SMILES_Desalt>
ClC(Cl)C(N)=O

> <Substance_modify_yyyymmdd>
20080429

$$$$
