68302-57-8
ChemmineR-0914142331XD

 22 24  0  0  0  0  0  0  0  0  1 V2000
    9.2163   -0.6567    0.0000 C   0  0  0  0  0  0  0  0  0  0  0  0
    9.2163   -1.9930    0.0000 C   0  0  0  0  0  0  0  0  0  0  0  0
   10.3683   -2.6612    0.0000 C   0  0  0  0  0  0  0  0  0  0  0  0
   10.3683   -3.9860    0.0000 C   0  0  0  0  0  0  0  0  0  0  0  0
   11.5203   -1.9930    0.0000 C   0  0  0  0  0  0  0  0  0  0  0  0
    8.0642   -2.6612    0.0000 C   0  0  0  0  0  0  0  0  0  0  0  0
    6.9122   -1.9930    0.0000 C   0  0  0  0  0  0  0  0  0  0  0  0
    6.9122   -0.6567    0.0000 C   0  0  0  0  0  0  0  0  0  0  0  0
    8.0642    0.0000    0.0000 C   0  0  0  0  0  0  0  0  0  0  0  0
    5.7602    0.0000    0.0000 O   0  0  0  0  0  0  0  0  0  0  0  0
    4.6081   -0.6567    0.0000 C   0  0  0  0  0  0  0  0  0  0  0  0
    4.6081   -1.9930    0.0000 C   0  0  0  0  0  0  0  0  0  0  0  0
    5.7602   -2.6612    0.0000 C   0  0  0  0  0  0  0  0  0  0  0  0
    5.7602   -3.9860    0.0000 O   0  0  0  0  0  0  0  0  0  0  0  0
    3.4561   -2.6612    0.0000 C   0  0  0  0  0  0  0  0  0  0  0  0
    2.3041   -1.9930    0.0000 C   0  0  0  0  0  0  0  0  0  0  0  0
    1.1520   -2.6612    0.0000 C   0  0  0  0  0  0  0  0  0  0  0  0
    1.1520   -3.9860    0.0000 O   0  0  0  0  0  0  0  0  0  0  0  0
    0.0000   -1.9930    0.0000 O   0  0  0  0  0  0  0  0  0  0  0  0
    2.3041   -0.6567    0.0000 C   0  0  0  0  0  0  0  0  0  0  0  0
    1.1520    0.0000    0.0000 N   0  0  0  0  0  0  0  0  0  0  0  0
    3.4561    0.0000    0.0000 N   0  0  0  0  0  0  0  0  0  0  0  0
  1  2  2  0  0  0  0
  1  9  1  0  0  0  0
  2  3  1  0  0  0  0
  2  6  1  0  0  0  0
  3  4  1  0  0  0  0
  3  5  1  0  0  0  0
  6  7  2  0  0  0  0
  7  8  1  0  0  0  0
  7 13  1  0  0  0  0
  8  9  2  0  0  0  0
  8 10  1  0  0  0  0
 10 11  1  0  0  0  0
 11 12  2  0  0  0  0
 11 22  1  0  0  0  0
 12 13  1  0  0  0  0
 12 15  1  0  0  0  0
 13 14  2  0  0  0  0
 15 16  2  0  0  0  0
 16 17  1  0  0  0  0
 16 20  1  0  0  0  0
 17 18  2  0  0  0  0
 17 19  1  0  0  0  0
 20 21  1  0  0  0  0
 20 22  2  0  0  0  0
M  END
> <ID>
2351

> <Formula>
C16H14N2O4

> <FW>
298.2934

> <DSSTox_CID>
2595

> <DSSTox_RID>
76651

> <DSSTox_GSID>
22595

> <DSSTox_FileID_Sort>
1335

> <TS_ChemName>
Amlenanox

> <TS_ChemName_Synonyms>


> <TS_CASRN>
68302-57-8

> <CASRN_ChemName_Relationship>
primary

> <TS_Description>
single chemical compound

> <ChemNote>


> <STRUCTURE_Shown>
tested chemical

> <STRUCTURE_Formula>
C16H14N2O4

> <STRUCTURE_MW>
298.2934

> <STRUCTURE_ChemType>
defined organic

> <STRUCTURE_DefinedOrganicForm>
parent

> <STRUCTURE_IUPAC>
2-amino-5-oxo-7-(propan-2-yl)-5H-chromeno[2,3-b]pyridine-3-carboxylic acid

> <STRUCTURE_SMILES>
CC(C)c1cc2C(=O)c3cc(c(N)nc3Oc2cc1)C(=O)O

> <STRUCTURE_SMILES_Desalt>
CC(C)c1cc2C(=O)c3cc(c(N)nc3Oc2cc1)C(=O)O

> <Substance_modify_yyyymmdd>
20080429

$$$$
