68373-14-8
ChemmineR-0914142331XD

 16 17  0  0  1  0  0  0  0  0  1 V2000
    3.4916   -0.9928    0.0000 S   0  0  0  0  0  0  0  0  0  0  0  0
    2.1697   -2.7888    0.0000 N   0  0  0  0  0  0  0  0  0  0  0  0
    4.2724   -2.0693    0.0000 C   0  0  0  0  0  0  0  0  0  0  0  0
    2.1697   -1.4167    0.0000 C   0  0  0  0  0  0  0  0  0  0  0  0
    3.4748   -3.2127    0.0000 C   0  0  0  0  0  0  0  0  0  0  0  0
    0.7641   -2.7888    0.0000 C   0  0  0  0  0  0  0  0  0  0  0  0
    0.7641   -1.4167    0.0000 C   0  0  0  0  0  0  0  0  0  0  0  0
    3.9155   -4.5178    0.0000 C   0  0  0  0  0  0  0  0  0  0  0  0
    2.7721    0.0000    0.0000 O   0  0  0  0  0  0  0  0  0  0  0  0
    4.3561    0.0000    0.0000 O   0  0  0  0  0  0  0  0  0  0  0  0
    0.0000   -3.6701    0.0000 O   0  0  0  0  0  0  0  0  0  0  0  0
    5.2541   -4.8302    0.0000 O   0  0  0  0  0  0  0  0  0  0  0  0
    5.1202   -3.1792    0.0000 C   0  0  0  0  0  0  0  0  0  0  0  0
    5.0700   -0.9761    0.0000 C   0  0  0  0  0  0  0  0  0  0  0  0
    3.0007   -5.5776    0.0000 O   0  0  0  0  0  0  0  0  0  0  0  0
    2.1697   -0.4574    0.0000 H   0  0  0  0  0  0  0  0  0  0  0  0
  1  3  1  0  0  0  0
  1  4  1  0  0  0  0
  1  9  2  0  0  0  0
  1 10  2  0  0  0  0
  2  4  1  0  0  0  0
  2  5  1  0  0  0  0
  2  6  1  0  0  0  0
  3  5  1  0  0  0  0
  3 13  1  0  0  0  0
  3 14  1  0  0  0  0
  4  7  1  0  0  0  0
  4 16  1  6  0  0  0
  5  8  1  6  0  0  0
  6  7  1  0  0  0  0
  6 11  2  0  0  0  0
  8 12  2  0  0  0  0
  8 15  1  0  0  0  0
M  END
> <ID>
3224

> <Formula>
C8H11NO5S

> <FW>
233.2416

> <DSSTox_CID>
3605

> <DSSTox_RID>
77104

> <DSSTox_GSID>
23605

> <DSSTox_FileID_Sort>
1787

> <TS_ChemName>
Sulbactam

> <TS_ChemName_Synonyms>


> <TS_CASRN>
68373-14-8

> <CASRN_ChemName_Relationship>
primary

> <TS_Description>
single chemical compound

> <ChemNote>
stereochem

> <STRUCTURE_Shown>
tested chemical

> <STRUCTURE_Formula>
C8H11NO5S

> <STRUCTURE_MW>
233.2416

> <STRUCTURE_ChemType>
defined organic

> <STRUCTURE_DefinedOrganicForm>
parent

> <STRUCTURE_IUPAC>
(2S,5R)-3,3-dimethyl-7-oxo-4-thia-1-azabicyclo[3.2.0]heptane-2-carboxylic acid 4,4-dioxide

> <STRUCTURE_SMILES>
O=S2(=O)C(C)(C)[C@@H](N1C(=O)C[C@H]12)C(=O)O

> <STRUCTURE_SMILES_Desalt>
O=S2(=O)C(C)(C)[C@@H](N1C(=O)C[C@H]12)C(=O)O

> <Substance_modify_yyyymmdd>
20080429

$$$$
