69049-73-6
ChemmineR-0914142331XD

 27 29  0  0  0  0  0  0  0  0  1 V2000
    9.2139   -5.3210    0.0000 C   0  0  0  0  0  0  0  0  0  0  0  0
    9.2139   -3.9850    0.0000 C   0  0  0  0  0  0  0  0  0  0  0  0
   10.3656   -3.3285    0.0000 C   0  0  0  0  0  0  0  0  0  0  0  0
   10.3656   -1.9925    0.0000 O   0  0  0  0  0  0  0  0  0  0  0  0
   11.5173   -3.9850    0.0000 O   0  0  0  0  0  0  0  0  0  0  0  0
    8.0621   -3.3285    0.0000 O   0  0  0  0  0  0  0  0  0  0  0  0
    6.9104   -3.9850    0.0000 C   0  0  0  0  0  0  0  0  0  0  0  0
    6.9104   -5.3210    0.0000 C   0  0  0  0  0  0  0  0  0  0  0  0
    8.0621   -5.9890    0.0000 C   0  0  0  0  0  0  0  0  0  0  0  0
    8.0621   -7.3135    0.0000 O   0  0  0  0  0  0  0  0  0  0  0  0
    5.7587   -5.9890    0.0000 C   0  0  0  0  0  0  0  0  0  0  0  0
    4.6069   -5.3210    0.0000 C   0  0  0  0  0  0  0  0  0  0  0  0
    4.6069   -3.9850    0.0000 C   0  0  0  0  0  0  0  0  0  0  0  0
    5.7587   -3.3285    0.0000 C   0  0  0  0  0  0  0  0  0  0  0  0
    5.7587   -1.9925    0.0000 C   0  0  0  0  0  0  0  0  0  0  0  0
    6.9104   -1.3245    0.0000 C   0  0  0  0  0  0  0  0  0  0  0  0
    6.9104    0.0000    0.0000 C   0  0  0  0  0  0  0  0  0  0  0  0
    3.4552   -3.3285    0.0000 N   0  0  0  0  0  0  0  0  0  0  0  0
    3.4552   -1.9925    0.0000 C   0  0  0  0  0  0  0  0  0  0  0  0
    2.3035   -1.3245    0.0000 C   0  0  0  0  0  0  0  0  0  0  0  0
    2.3035   -3.9850    0.0000 C   0  0  0  0  0  0  0  0  0  0  0  0
    1.1517   -3.3285    0.0000 C   0  0  0  0  0  0  0  0  0  0  0  0
    0.0000   -3.9850    0.0000 O   0  0  0  0  0  0  0  0  0  0  0  0
    1.1517   -1.9925    0.0000 O   0  0  0  0  0  0  0  0  0  0  0  0
    2.3035   -5.3210    0.0000 C   0  0  0  0  0  0  0  0  0  0  0  0
    3.4552   -5.9890    0.0000 C   0  0  0  0  0  0  0  0  0  0  0  0
    3.4552   -7.3135    0.0000 O   0  0  0  0  0  0  0  0  0  0  0  0
  1  2  2  0  0  0  0
  1  9  1  0  0  0  0
  2  3  1  0  0  0  0
  2  6  1  0  0  0  0
  3  4  2  0  0  0  0
  3  5  1  0  0  0  0
  6  7  1  0  0  0  0
  7  8  2  0  0  0  0
  7 14  1  0  0  0  0
  8  9  1  0  0  0  0
  8 11  1  0  0  0  0
  9 10  2  0  0  0  0
 11 12  2  0  0  0  0
 12 13  1  0  0  0  0
 12 26  1  0  0  0  0
 13 14  2  0  0  0  0
 13 18  1  0  0  0  0
 14 15  1  0  0  0  0
 15 16  1  0  0  0  0
 16 17  1  0  0  0  0
 18 19  1  0  0  0  0
 18 21  1  0  0  0  0
 19 20  1  0  0  0  0
 21 22  1  0  0  0  0
 21 25  2  0  0  0  0
 22 23  1  0  0  0  0
 22 24  2  0  0  0  0
 25 26  1  0  0  0  0
 26 27  2  0  0  0  0
M  END
> <ID>
3011

> <Formula>
C19H17NO7

> <FW>
371.3408

> <DSSTox_CID>
3356

> <DSSTox_RID>
76990

> <DSSTox_GSID>
23356

> <DSSTox_FileID_Sort>
1674

> <TS_ChemName>
Nedocromil

> <TS_ChemName_Synonyms>


> <TS_CASRN>
69049-73-6

> <CASRN_ChemName_Relationship>
primary

> <TS_Description>
single chemical compound

> <ChemNote>


> <STRUCTURE_Shown>
tested chemical

> <STRUCTURE_Formula>
C19H17NO7

> <STRUCTURE_MW>
371.3408

> <STRUCTURE_ChemType>
defined organic

> <STRUCTURE_DefinedOrganicForm>
parent

> <STRUCTURE_IUPAC>
9-ethyl-4,6-dioxo-10-propyl-6,9-dihydro-4H-pyrano[3,2-g]quinoline-2,8-dicarboxylic acid

> <STRUCTURE_SMILES>
O=C(O)C2=CC(=O)c3cc1c(OC(=CC1=O)C(=O)O)c(CCC)c3N2CC

> <STRUCTURE_SMILES_Desalt>
O=C(O)C2=CC(=O)c3cc1c(OC(=CC1=O)C(=O)O)c(CCC)c3N2CC

> <Substance_modify_yyyymmdd>
20080429

$$$$
