70124-77-5
ChemmineR-0914142331XD

 33 35  0  0  1  0  0  0  0  0  1 V2000
    8.0885   -2.6408    0.0000 C   0  0  0  0  0  0  0  0  0  0  0  0
    6.9251   -3.3056    0.0000 C   0  0  0  0  0  0  0  0  0  0  0  0
    6.9251   -4.6352    0.0000 C   0  0  0  0  0  0  0  0  0  0  0  0
    5.7802   -5.3185    0.0000 C   0  0  0  0  0  0  0  0  0  0  0  0
    8.0885   -1.3296    0.0000 O   0  0  0  0  0  0  0  0  0  0  0  0
    9.2335   -3.3056    0.0000 O   0  0  0  0  0  0  0  0  0  0  0  0
    4.6168   -0.6463    0.0000 C   0  0  0  0  0  0  0  0  0  0  0  0
    3.4718   -1.3112    0.0000 C   0  0  0  0  0  0  0  0  0  0  0  0
    3.4718   -2.6408    0.0000 C   0  0  0  0  0  0  0  0  0  0  0  0
    4.6168   -3.3056    0.0000 C   0  0  0  0  0  0  0  0  0  0  0  0
    5.7802   -2.6408    0.0000 C   0  0  0  0  0  0  0  0  0  0  0  0
    5.7802   -1.3112    0.0000 C   0  0  0  0  0  0  0  0  0  0  0  0
    2.3084   -0.6463    0.0000 O   0  0  0  0  0  0  0  0  0  0  0  0
    1.1634   -1.3112    0.0000 C   0  0  0  0  0  0  0  0  0  0  0  0
    1.1634   -2.6408    0.0000 F   0  0  0  0  0  0  0  0  0  0  0  0
    0.0000   -0.6463    0.0000 F   0  0  0  0  0  0  0  0  0  0  0  0
    8.0701   -5.3000    0.0000 C   0  0  0  0  0  0  0  0  0  0  0  0
   10.3785   -2.6592    0.0000 C   0  0  0  0  0  0  0  0  0  0  0  0
   10.3969   -1.3296    0.0000 C   0  0  0  0  0  0  0  0  0  0  0  0
   10.3969    0.0000    0.0000 N   0  0  0  0  0  0  0  0  0  0  0  0
   13.8503   -3.3241    0.0000 C   0  0  0  0  0  0  0  0  0  0  0  0
   13.8503   -4.6537    0.0000 C   0  0  0  0  0  0  0  0  0  0  0  0
   12.7053   -5.3000    0.0000 C   0  0  0  0  0  0  0  0  0  0  0  0
   11.5419   -4.6352    0.0000 C   0  0  0  0  0  0  0  0  0  0  0  0
   11.5419   -3.3241    0.0000 C   0  0  0  0  0  0  0  0  0  0  0  0
   12.6868   -2.6592    0.0000 C   0  0  0  0  0  0  0  0  0  0  0  0
   14.9952   -2.6592    0.0000 O   0  0  0  0  0  0  0  0  0  0  0  0
   16.1586   -3.3241    0.0000 C   0  0  0  0  0  0  0  0  0  0  0  0
   16.1586   -4.6537    0.0000 C   0  0  0  0  0  0  0  0  0  0  0  0
   17.3036   -2.6408    0.0000 C   0  0  0  0  0  0  0  0  0  0  0  0
   17.3036   -5.3185    0.0000 C   0  0  0  0  0  0  0  0  0  0  0  0
   18.4670   -3.3241    0.0000 C   0  0  0  0  0  0  0  0  0  0  0  0
   18.4670   -4.6537    0.0000 C   0  0  0  0  0  0  0  0  0  0  0  0
  1  2  1  0  0  0  0
  1  6  1  0  0  0  0
  1  5  2  0  0  0  0
  2  3  1  1  0  0  0
  2 11  1  0  0  0  0
  3  4  1  0  0  0  0
  3 17  1  0  0  0  0
  6 18  1  0  0  0  0
  7 12  2  0  0  0  0
  7  8  1  0  0  0  0
  8  9  2  0  0  0  0
  8 13  1  0  0  0  0
  9 10  1  0  0  0  0
 10 11  2  0  0  0  0
 11 12  1  0  0  0  0
 13 14  1  0  0  0  0
 14 15  1  0  0  0  0
 14 16  1  0  0  0  0
 18 19  1  0  0  0  0
 18 25  1  0  0  0  0
 19 20  3  0  0  0  0
 21 26  2  0  0  0  0
 21 22  1  0  0  0  0
 21 27  1  0  0  0  0
 22 23  2  0  0  0  0
 23 24  1  0  0  0  0
 24 25  2  0  0  0  0
 25 26  1  0  0  0  0
 27 28  1  0  0  0  0
 28 29  2  0  0  0  0
 28 30  1  0  0  0  0
 29 31  1  0  0  0  0
 30 32  2  0  0  0  0
 31 33  2  0  0  0  0
 32 33  1  0  0  0  0
M  END
> <ID>
2135

> <Formula>
C26H23F2NO4

> <FW>
451.4619

> <DSSTox_CID>
2301

> <DSSTox_RID>
76538

> <DSSTox_GSID>
22301

> <DSSTox_FileID_Sort>
1222

> <TS_ChemName>
Flucythrinate

> <TS_ChemName_Synonyms>


> <TS_CASRN>
70124-77-5

> <CASRN_ChemName_Relationship>
primary

> <TS_Description>
single chemical compound

> <ChemNote>


> <STRUCTURE_Shown>
tested chemical

> <STRUCTURE_Formula>
C26H23F2NO4

> <STRUCTURE_MW>
451.4619

> <STRUCTURE_ChemType>
defined organic

> <STRUCTURE_DefinedOrganicForm>
parent

> <STRUCTURE_IUPAC>
cyano(3-phenoxyphenyl)methyl (2S)-2-[4-(difluoromethoxy)phenyl]-3-methylbutanoate

> <STRUCTURE_SMILES>
FC(F)Oc1ccc(cc1)[C@H](C(C)C)C(=O)OC(C#N)c3cc(Oc2ccccc2)ccc3

> <STRUCTURE_SMILES_Desalt>
FC(F)Oc1ccc(cc1)[C@H](C(C)C)C(=O)OC(C#N)c3cc(Oc2ccccc2)ccc3

> <Substance_modify_yyyymmdd>
20080429

$$$$
