706-14-9
ChemmineR-0914142331XD

 12 12  0  0  0  0  0  0  0  0  1 V2000
   10.3444   -1.6034    0.0000 C   0  0  0  0  0  0  0  0  0  0  0  0
    9.1962   -2.2654    0.0000 C   0  0  0  0  0  0  0  0  0  0  0  0
    8.0376   -1.6034    0.0000 C   0  0  0  0  0  0  0  0  0  0  0  0
    6.8894   -2.2654    0.0000 C   0  0  0  0  0  0  0  0  0  0  0  0
    5.7308   -1.6034    0.0000 C   0  0  0  0  0  0  0  0  0  0  0  0
    4.5826   -2.2654    0.0000 C   0  0  0  0  0  0  0  0  0  0  0  0
    3.4343   -1.6034    0.0000 C   0  0  0  0  0  0  0  0  0  0  0  0
    2.2137   -2.1413    0.0000 O   0  0  0  0  0  0  0  0  0  0  0  0
    1.3241   -1.1482    0.0000 C   0  0  0  0  0  0  0  0  0  0  0  0
    0.0000   -1.2931    0.0000 O   0  0  0  0  0  0  0  0  0  0  0  0
    1.9861    0.0000    0.0000 C   0  0  0  0  0  0  0  0  0  0  0  0
    3.2895   -0.2793    0.0000 C   0  0  0  0  0  0  0  0  0  0  0  0
  1  2  1  0  0  0  0
  2  3  1  0  0  0  0
  3  4  1  0  0  0  0
  4  5  1  0  0  0  0
  5  6  1  0  0  0  0
  6  7  1  0  0  0  0
  7  8  1  0  0  0  0
  7 12  1  0  0  0  0
  8  9  1  0  0  0  0
  9 10  2  0  0  0  0
  9 11  1  0  0  0  0
 11 12  1  0  0  0  0
M  END
> <ID>
1951

> <Formula>
C10H18O2

> <FW>
170.2487

> <DSSTox_CID>
2109

> <DSSTox_RID>
76490

> <DSSTox_GSID>
22109

> <DSSTox_FileID_Sort>
1174

> <TS_ChemName>
gamma-Decanolactone

> <TS_ChemName_Synonyms>
5-Hexyldihydro-2(3H)-furanone

> <TS_CASRN>
706-14-9

> <CASRN_ChemName_Relationship>
primary

> <TS_Description>
single chemical compound

> <ChemNote>


> <STRUCTURE_Shown>
tested chemical

> <STRUCTURE_Formula>
C10H18O2

> <STRUCTURE_MW>
170.2487

> <STRUCTURE_ChemType>
defined organic

> <STRUCTURE_DefinedOrganicForm>
parent

> <STRUCTURE_IUPAC>
5-hexyldihydrofuran-2(3H)-one

> <STRUCTURE_SMILES>
O=C1CCC(CCCCCC)O1

> <STRUCTURE_SMILES_Desalt>
O=C1CCC(CCCCCC)O1

> <Substance_modify_yyyymmdd>
20080429

$$$$
