71-23-8
ChemmineR-0914142331XD

  4  3  0  0  0  0  0  0  0  0  1 V2000
    0.0000    0.0000    0.0000 O   0  0  0  0  0  0  0  0  0  0  0  0
    1.1513   -0.6638    0.0000 C   0  0  0  0  0  0  0  0  0  0  0  0
    2.3061    0.0000    0.0000 C   0  0  0  0  0  0  0  0  0  0  0  0
    3.4575   -0.6638    0.0000 C   0  0  0  0  0  0  0  0  0  0  0  0
  1  2  1  0  0  0  0
  2  3  1  0  0  0  0
  3  4  1  0  0  0  0
M  END
> <ID>
1659

> <Formula>
C3H8O

> <FW>
60.095

> <DSSTox_CID>
1739

> <DSSTox_RID>
76299

> <DSSTox_GSID>
21739

> <DSSTox_FileID_Sort>
983

> <TS_ChemName>
1-Propanol

> <TS_ChemName_Synonyms>
1-Propanol (n-propanol)

> <TS_CASRN>
71-23-8

> <CASRN_ChemName_Relationship>
primary

> <TS_Description>
single chemical compound

> <ChemNote>


> <STRUCTURE_Shown>
tested chemical

> <STRUCTURE_Formula>
C3H8O

> <STRUCTURE_MW>
60.095

> <STRUCTURE_ChemType>
defined organic

> <STRUCTURE_DefinedOrganicForm>
parent

> <STRUCTURE_IUPAC>
propan-1-ol

> <STRUCTURE_SMILES>
CCCO

> <STRUCTURE_SMILES_Desalt>
CCCO

> <Substance_modify_yyyymmdd>
20080429

$$$$
