71-63-6
ChemmineR-0914142331XD

 57 64  0  0  1  0  0  0  0  0  1 V2000
   13.6669   -8.9746    0.0000 O   0  0  0  0  0  0  0  0  0  0  0  0
   12.5280   -8.3368    0.0000 C   0  0  0  0  0  0  0  0  0  0  0  0
   11.3891   -8.9746    0.0000 C   0  0  0  0  0  0  0  0  0  0  0  0
   12.5280   -6.9929    0.0000 O   0  0  0  0  0  0  0  0  0  0  0  0
   10.2502   -8.3368    0.0000 C   0  0  0  0  0  0  0  0  0  0  0  0
   11.3891   -6.3551    0.0000 C   0  0  0  0  0  0  0  0  0  0  0  0
   10.2502   -6.9929    0.0000 C   0  0  0  0  0  0  0  0  0  0  0  0
    9.1113   -6.3551    0.0000 O   0  0  0  0  0  0  0  0  0  0  0  0
    7.9724   -6.9929    0.0000 C   0  0  0  0  0  0  0  0  0  0  0  0
    7.9724   -8.3368    0.0000 O   0  0  0  0  0  0  0  0  0  0  0  0
    6.8335   -6.3551    0.0000 C   0  0  0  0  0  0  0  0  0  0  0  0
    6.8335   -8.9746    0.0000 C   0  0  0  0  0  0  0  0  0  0  0  0
    5.6945   -6.9929    0.0000 C   0  0  0  0  0  0  0  0  0  0  0  0
    5.6945   -8.3368    0.0000 C   0  0  0  0  0  0  0  0  0  0  0  0
    4.5556   -8.9746    0.0000 O   0  0  0  0  0  0  0  0  0  0  0  0
    3.4167   -8.3368    0.0000 C   0  0  0  0  0  0  0  0  0  0  0  0
    2.2778   -8.9746    0.0000 C   0  0  0  0  0  0  0  0  0  0  0  0
    3.4167   -6.9929    0.0000 O   0  0  0  0  0  0  0  0  0  0  0  0
    1.1389   -8.3368    0.0000 C   0  0  0  0  0  0  0  0  0  0  0  0
    2.2778   -6.3551    0.0000 C   0  0  0  0  0  0  0  0  0  0  0  0
    1.1389   -6.9929    0.0000 C   0  0  0  0  0  0  0  0  0  0  0  0
    9.1113   -8.9746    0.0000 O   0  0  0  0  0  0  0  0  0  0  0  0
    4.5556   -6.3551    0.0000 O   0  0  0  0  0  0  0  0  0  0  0  0
    0.0000   -6.3551    0.0000 O   0  0  0  0  0  0  0  0  0  0  0  0
    0.0000   -8.9746    0.0000 O   0  0  0  0  0  0  0  0  0  0  0  0
    2.2778   -5.0568    0.0000 C   0  0  0  0  0  0  0  0  0  0  0  0
    6.8335  -10.2957    0.0000 C   0  0  0  0  0  0  0  0  0  0  0  0
   11.3891   -5.0568    0.0000 C   0  0  0  0  0  0  0  0  0  0  0  0
   14.8058   -8.3368    0.0000 C   0  0  0  0  0  0  0  0  0  0  0  0
   14.8058   -6.9929    0.0000 C   0  0  0  0  0  0  0  0  0  0  0  0
   15.9447   -8.9746    0.0000 C   0  0  0  0  0  0  0  0  0  0  0  0
   15.9447   -6.3551    0.0000 C   0  0  0  0  0  0  0  0  0  0  0  0
   17.0836   -8.3368    0.0000 C   0  0  0  0  0  0  0  0  0  0  0  0
   17.0836   -7.0157    0.0000 C   0  0  0  0  0  0  0  0  0  0  0  0
   18.2226   -8.9746    0.0000 C   0  0  0  0  0  0  0  0  0  0  0  0
   19.3615   -8.3368    0.0000 C   0  0  0  0  0  0  0  0  0  0  0  0
   18.2226   -6.3551    0.0000 C   0  0  0  0  0  0  0  0  0  0  0  0
   19.3615   -6.9929    0.0000 C   0  0  0  0  0  0  0  0  0  0  0  0
   18.2226   -5.0568    0.0000 C   0  0  0  0  0  0  0  0  0  0  0  0
   19.3615   -4.3734    0.0000 C   0  0  0  0  0  0  0  0  0  0  0  0
   20.5004   -6.3551    0.0000 C   0  0  0  0  0  0  0  0  0  0  0  0
   20.5004   -5.0568    0.0000 C   0  0  0  0  0  0  0  0  0  0  0  0
   22.7782   -6.3551    0.0000 C   0  0  0  0  0  0  0  0  0  0  0  0
   21.6393   -4.3734    0.0000 C   0  0  0  0  0  0  0  0  0  0  0  0
   22.7782   -5.0568    0.0000 C   0  0  0  0  0  0  0  0  0  0  0  0
   21.6393   -3.0751    0.0000 C   0  0  0  0  0  0  0  0  0  0  0  0
   20.5687   -2.3234    0.0000 C   0  0  0  0  0  0  0  0  0  0  0  0
   22.6871   -2.3234    0.0000 C   0  0  0  0  0  0  0  0  0  0  0  0
   20.9787   -1.0478    0.0000 C   0  0  0  0  0  0  0  0  0  0  0  0
   22.2999   -1.0478    0.0000 O   0  0  0  0  0  0  0  0  0  0  0  0
   17.0836   -5.6945    0.0000 C   0  0  0  0  0  0  0  0  0  0  0  0
   17.0836   -9.6352    0.0000 H   0  0  0  0  0  0  0  0  0  0  0  0
   18.2226   -7.6990    0.0000 H   0  0  0  0  0  0  0  0  0  0  0  0
   19.3615   -5.6718    0.0000 H   0  0  0  0  0  0  0  0  0  0  0  0
   20.5004   -7.6990    0.0000 O   0  0  0  0  0  0  0  0  0  0  0  0
   20.5004   -3.7356    0.0000 C   0  0  0  0  0  0  0  0  0  0  0  0
   20.1815    0.0000    0.0000 O   0  0  0  0  0  0  0  0  0  0  0  0
  2  1  1  1  0  0  0
 29  1  1  1  0  0  0
  2  3  1  0  0  0  0
  2  4  1  0  0  0  0
  3  5  1  0  0  0  0
  4  6  1  0  0  0  0
  5  7  1  0  0  0  0
  5 22  1  6  0  0  0
  6  7  1  0  0  0  0
  6 28  1  1  0  0  0
  7  8  1  6  0  0  0
  9  8  1  6  0  0  0
  9 10  1  0  0  0  0
  9 11  1  0  0  0  0
 10 12  1  0  0  0  0
 11 13  1  0  0  0  0
 12 14  1  0  0  0  0
 12 27  1  6  0  0  0
 13 14  1  0  0  0  0
 13 23  1  1  0  0  0
 14 15  1  1  0  0  0
 16 15  1  1  0  0  0
 16 17  1  0  0  0  0
 16 18  1  0  0  0  0
 17 19  1  0  0  0  0
 18 20  1  0  0  0  0
 19 21  1  0  0  0  0
 19 25  1  6  0  0  0
 20 21  1  0  0  0  0
 20 26  1  1  0  0  0
 21 24  1  6  0  0  0
 29 30  1  0  0  0  0
 29 31  1  0  0  0  0
 30 32  1  0  0  0  0
 31 33  1  0  0  0  0
 32 34  1  0  0  0  0
 33 35  1  0  0  0  0
 33 34  1  0  0  0  0
 33 52  1  1  0  0  0
 34 37  1  0  0  0  0
 34 51  1  1  0  0  0
 35 36  1  0  0  0  0
 36 38  1  0  0  0  0
 37 39  1  0  0  0  0
 37 38  1  0  0  0  0
 37 53  1  6  0  0  0
 38 41  1  0  0  0  0
 38 54  1  1  0  0  0
 39 40  1  0  0  0  0
 40 42  1  0  0  0  0
 41 43  1  0  0  0  0
 41 42  1  0  0  0  0
 41 55  1  1  0  0  0
 42 44  1  0  0  0  0
 42 56  1  1  0  0  0
 43 45  1  0  0  0  0
 44 45  1  0  0  0  0
 44 46  1  1  0  0  0
 46 47  2  0  0  0  0
 46 48  1  0  0  0  0
 47 49  1  0  0  0  0
 48 50  1  0  0  0  0
 49 50  1  0  0  0  0
 49 57  2  0  0  0  0
M  END
> <ID>
2641

> <Formula>
C41H64O13

> <FW>
764.9391

> <DSSTox_CID>
2933

> <DSSTox_RID>
76793

> <DSSTox_GSID>
22933

> <DSSTox_FileID_Sort>
1477

> <TS_ChemName>
Digitoxin

> <TS_ChemName_Synonyms>


> <TS_CASRN>
71-63-6

> <CASRN_ChemName_Relationship>
primary

> <TS_Description>
single chemical compound

> <ChemNote>
stereochem; tautomers

> <STRUCTURE_Shown>
tested chemical

> <STRUCTURE_Formula>
C41H64O13

> <STRUCTURE_MW>
764.9391

> <STRUCTURE_ChemType>
defined organic

> <STRUCTURE_DefinedOrganicForm>
parent

> <STRUCTURE_IUPAC>
(3beta,5beta)-3-{[2,6-dideoxy-beta-D-ribo-hexopyranosyl-(1->4)-2,6-dideoxy-beta-D-ribo-hexopyranosyl-(1->4)-2,6-dideoxy-beta-D-ribo-hexopyranosyl]oxy}-14-hydroxycard-20(22)-enolide

> <STRUCTURE_SMILES>
O=C1C=C(CO1)[C@H]8CC[C@@]7(O)[C@]8(C)CC[C@H]3[C@H]7CC[C@@H]2C[C@H](CC[C@@]23C)O[C@@H]6O[C@H](C)[C@@H](O[C@H]5C[C@H](O)[C@H](O[C@H]4C[C@H](O)[C@H](O)[C@@H](C)O4)[C@@H](C)O5)[C@@H](O)C6

> <STRUCTURE_SMILES_Desalt>
O=C1C=C(CO1)[C@H]8CC[C@@]7(O)[C@]8(C)CC[C@H]3[C@H]7CC[C@@H]2C[C@H](CC[C@@]23C)O[C@@H]6O[C@H](C)[C@@H](O[C@H]5C[C@H](O)[C@H](O[C@H]4C[C@H](O)[C@H](O)[C@@H](C)O4)[C@@H](C)O5)[C@@H](O)C6

> <Substance_modify_yyyymmdd>
20080429

$$$$
