71-67-0
ChemmineR-0914142331XD

 38 39  0  0  0  0  0  0  0  0  2 V2000
    5.1508  -10.4268    0.0000 Na   0  3  0  0  0  0  0  0  0  0  0  0
    3.8266  -10.4268    0.0000 Na   0  3  0  0  0  0  0  0  0  0  0  0
    7.6011   -8.8836    0.0000 O    0  5  0  0  0  0  0  0  0  0  0  0
    6.5689   -8.0703    0.0000 S    0  0  0  0  0  0  0  0  0  0  0  0
    7.3822   -7.0277    0.0000 O    0  0  0  0  0  0  0  0  0  0  0  0
    5.7556   -9.1026    0.0000 O    0  0  0  0  0  0  0  0  0  0  0  0
    5.5262   -7.2571    0.0000 C    0  0  0  0  0  0  0  0  0  0  0  0
    5.7139   -5.9433    0.0000 C    0  0  0  0  0  0  0  0  0  0  0  0
    4.6712   -5.1404    0.0000 C    0  0  0  0  0  0  0  0  0  0  0  0
    3.4408   -5.6305    0.0000 C    0  0  0  0  0  0  0  0  0  0  0  0
    3.2636   -6.9338    0.0000 C    0  0  0  0  0  0  0  0  0  0  0  0
    4.3063   -7.7471    0.0000 C    0  0  0  0  0  0  0  0  0  0  0  0
    4.1186   -9.0609    0.0000 O    0  0  0  0  0  0  0  0  0  0  0  0
    4.9110   -3.4408    0.0000 C    0  0  0  0  0  0  0  0  0  0  0  0
    5.5679   -2.2939    0.0000 O    0  0  0  0  0  0  0  0  0  0  0  0
    4.6816   -1.3138    0.0000 C    0  0  0  0  0  0  0  0  0  0  0  0
    4.9632   -0.0209    0.0000 O    0  0  0  0  0  0  0  0  0  0  0  0
    3.4826   -1.8455    0.0000 C    0  0  0  0  0  0  0  0  0  0  0  0
    2.2730   -1.3138    0.0000 C    0  0  0  0  0  0  0  0  0  0  0  0
    2.1375    0.0000    0.0000 Br   0  0  0  0  0  0  0  0  0  0  0  0
    1.2095   -2.0854    0.0000 C    0  0  0  0  0  0  0  0  0  0  0  0
    0.0000   -1.5536    0.0000 Br   0  0  0  0  0  0  0  0  0  0  0  0
    1.3451   -3.3991    0.0000 C    0  0  0  0  0  0  0  0  0  0  0  0
    0.2711   -4.1811    0.0000 Br   0  0  0  0  0  0  0  0  0  0  0  0
    2.5441   -3.9413    0.0000 C    0  0  0  0  0  0  0  0  0  0  0  0
    2.6901   -5.2551    0.0000 Br   0  0  0  0  0  0  0  0  0  0  0  0
    3.6181   -3.1593    0.0000 C    0  0  0  0  0  0  0  0  0  0  0  0
    6.1518   -3.8683    0.0000 C    0  0  0  0  0  0  0  0  0  0  0  0
    6.4125   -5.1613    0.0000 C    0  0  0  0  0  0  0  0  0  0  0  0
    7.6533   -5.5888    0.0000 C    0  0  0  0  0  0  0  0  0  0  0  0
    8.6543   -4.7233    0.0000 C    0  0  0  0  0  0  0  0  0  0  0  0
    9.8950   -5.1508    0.0000 O    0  0  0  0  0  0  0  0  0  0  0  0
    8.4040   -3.4304    0.0000 C    0  0  0  0  0  0  0  0  0  0  0  0
    7.1528   -3.0029    0.0000 C    0  0  0  0  0  0  0  0  0  0  0  0
    9.3946   -2.5650    0.0000 S    0  0  0  0  0  0  0  0  0  0  0  0
   10.3955   -1.6996    0.0000 O    0  5  0  0  0  0  0  0  0  0  0  0
   10.2600   -3.5555    0.0000 O    0  0  0  0  0  0  0  0  0  0  0  0
    8.5291   -1.5640    0.0000 O    0  0  0  0  0  0  0  0  0  0  0  0
  3  4  1  0  0  0  0
  4  5  2  0  0  0  0
  4  6  2  0  0  0  0
  4  7  1  0  0  0  0
  7  8  2  0  0  0  0
  7 12  1  0  0  0  0
  8  9  1  0  0  0  0
  9 10  2  0  0  0  0
  9 14  1  0  0  0  0
 10 11  1  0  0  0  0
 11 12  2  0  0  0  0
 12 13  1  0  0  0  0
 14 15  1  0  0  0  0
 14 27  1  0  0  0  0
 14 28  1  0  0  0  0
 15 16  1  0  0  0  0
 16 17  2  0  0  0  0
 16 18  1  0  0  0  0
 18 19  2  0  0  0  0
 18 27  1  0  0  0  0
 19 20  1  0  0  0  0
 19 21  1  0  0  0  0
 21 22  1  0  0  0  0
 21 23  2  0  0  0  0
 23 24  1  0  0  0  0
 23 25  1  0  0  0  0
 25 26  1  0  0  0  0
 25 27  2  0  0  0  0
 28 29  2  0  0  0  0
 28 34  1  0  0  0  0
 29 30  1  0  0  0  0
 30 31  2  0  0  0  0
 31 32  1  0  0  0  0
 31 33  1  0  0  0  0
 33 34  2  0  0  0  0
 33 35  1  0  0  0  0
 35 36  1  0  0  0  0
 35 37  2  0  0  0  0
 35 38  2  0  0  0  0
M  END
> <ID>
3238

> <Formula>
C20H8Br4Na2O10S2

> <FW>
837.9971 (22.9892+22.9892+792.0186)

> <DSSTox_CID>
3621

> <DSSTox_RID>
77114

> <DSSTox_GSID>
23621

> <DSSTox_FileID_Sort>
1797

> <TS_ChemName>
Sulfobromophthalein

> <TS_ChemName_Synonyms>


> <TS_CASRN>
71-67-0

> <CASRN_ChemName_Relationship>
primary

> <TS_Description>
single chemical compound

> <ChemNote>
parent [297-83-6]

> <STRUCTURE_Shown>
tested chemical

> <STRUCTURE_Formula>
C20H8Br4Na2O10S2

> <STRUCTURE_MW>
837.9971

> <STRUCTURE_ChemType>
defined organic

> <STRUCTURE_DefinedOrganicForm>
salt

> <STRUCTURE_IUPAC>
disodium 3,3'-(4,5,6,7-tetrabromo-3-oxo-1,3-dihydro-2-benzofuran-1,1-diyl)bis(6-hydroxybenzenesulfonate)

> <STRUCTURE_SMILES>
[Na+].[Na+].[O-]S(=O)(=O)c1cc(ccc1O)C3(OC(=O)c2c(Br)c(Br)c(Br)c(Br)c23)c4ccc(O)c(c4)S([O-])(=O)=O

> <STRUCTURE_SMILES_Desalt>
O=S(=O)(O)c1cc(ccc1O)C3(OC(=O)c2c(Br)c(Br)c(Br)c(Br)c23)c4ccc(O)c(c4)S(=O)(=O)O

> <Substance_modify_yyyymmdd>
20080429

$$$$
