7177-48-2
ChemmineR-0914142331XD

 29 28  0  0  1  0  0  0  0  0  1 V2000
    7.0799   -2.6811    0.0000 C   0  0  0  0  0  0  0  0  0  0  0  0
    8.4030   -3.9926    0.0000 N   0  0  0  0  0  0  0  0  0  0  0  0
    8.4030   -2.6811    0.0000 C   0  0  0  0  0  0  0  0  0  0  0  0
    7.0799   -3.9926    0.0000 C   0  0  0  0  0  0  0  0  0  0  0  0
    9.6797   -4.4104    0.0000 C   0  0  0  0  0  0  0  0  0  0  0  0
   10.4689   -3.3426    0.0000 C   0  0  0  0  0  0  0  0  0  0  0  0
    9.6797   -2.2748    0.0000 S   0  0  0  0  0  0  0  0  0  0  0  0
    8.4378   -1.3347    0.0000 H   0  0  0  0  0  0  0  0  0  0  0  0
    7.0799   -1.3347    0.0000 H   0  0  0  0  0  0  0  0  0  0  0  0
    5.7335   -2.6579    0.0000 N   0  0  0  0  0  0  0  0  0  0  0  0
   11.6063   -2.6579    0.0000 C   0  0  0  0  0  0  0  0  0  0  0  0
   11.6063   -4.0158    0.0000 C   0  0  0  0  0  0  0  0  0  0  0  0
   10.0859   -5.6987    0.0000 C   0  0  0  0  0  0  0  0  0  0  0  0
   11.3858   -5.9657    0.0000 O   0  0  0  0  0  0  0  0  0  0  0  0
    9.2038   -6.6736    0.0000 O   0  0  0  0  0  0  0  0  0  0  0  0
    6.1398   -4.9559    0.0000 O   0  0  0  0  0  0  0  0  0  0  0  0
    2.2981   -0.6616    0.0000 C   0  0  0  0  0  0  0  0  0  0  0  0
    2.2981   -1.9847    0.0000 C   0  0  0  0  0  0  0  0  0  0  0  0
    1.1374    0.0000    0.0000 C   0  0  0  0  0  0  0  0  0  0  0  0
    1.1374   -2.6579    0.0000 C   0  0  0  0  0  0  0  0  0  0  0  0
    0.0000   -0.6616    0.0000 C   0  0  0  0  0  0  0  0  0  0  0  0
    0.0000   -1.9847    0.0000 C   0  0  0  0  0  0  0  0  0  0  0  0
    3.4471   -2.6579    0.0000 C   0  0  0  0  0  0  0  0  0  0  0  0
    3.4471   -3.9926    0.0000 N   0  0  0  0  0  0  0  0  0  0  0  0
    4.5961   -1.9847    0.0000 C   0  0  0  0  0  0  0  0  0  0  0  0
    4.5961   -0.6616    0.0000 O   0  0  0  0  0  0  0  0  0  0  0  0
    0.0116   -7.1379    0.0000 O   0  0  0  0  0  0  0  0  0  0  0  0
    1.9731   -7.0915    0.0000 O   0  0  0  0  0  0  0  0  0  0  0  0
    3.7140   -7.1843    0.0000 O   0  0  0  0  0  0  0  0  0  0  0  0
  1  3  1  0  0  0  0
  1  4  1  0  0  0  0
  1  9  1  6  0  0  0
  1 10  1  1  0  0  0
  2  4  1  0  0  0  0
  2  5  1  0  0  0  0
  2  3  1  0  0  0  0
  3  7  1  1  0  0  0
  3  8  1  6  0  0  0
  4 16  2  0  0  0  0
  5  6  1  0  0  0  0
  5 13  1  6  0  0  0
  6  7  1  0  0  0  0
  6 11  1  0  0  0  0
  6 12  1  0  0  0  0
 10 25  1  0  0  0  0
 13 14  2  0  0  0  0
 13 15  1  0  0  0  0
 17 18  1  0  0  0  0
 17 19  2  0  0  0  0
 18 20  2  0  0  0  0
 18 23  1  0  0  0  0
 19 21  1  0  0  0  0
 20 22  1  0  0  0  0
 21 22  2  0  0  0  0
 23 24  1  6  0  0  0
 23 25  1  0  0  0  0
 25 26  2  0  0  0  0
M  END
> <ID>
82

> <Formula>
C16H25N3O7S

> <FW>
403.4506 (349.4048+18.0153+18.0153+18.0153)

> <DSSTox_CID>
83

> <DSSTox_RID>
75354

> <DSSTox_GSID>
20083

> <DSSTox_FileID_Sort>
38

> <TS_ChemName>
Ampicillin trihydrate

> <TS_ChemName_Synonyms>


> <TS_CASRN>
7177-48-2

> <CASRN_ChemName_Relationship>
primary

> <TS_Description>
single chemical compound

> <ChemNote>
stereochem; parent [69-53-4]

> <STRUCTURE_Shown>
tested chemical

> <STRUCTURE_Formula>
C16H25N3O7S

> <STRUCTURE_MW>
403.4506

> <STRUCTURE_ChemType>
defined organic

> <STRUCTURE_DefinedOrganicForm>
complex

> <STRUCTURE_IUPAC>
(2S,5R,6R)-6-{[(2R)-2-amino-2-phenylacetyl]amino}-3,3-dimethyl-7-oxo-4-thia-1-azabicyclo[3.2.0]heptane-2-carboxylic acid trihydrate

> <STRUCTURE_SMILES>
O.O.O.OC(=O)[C@@H]2N3C(=O)[C@@H](NC(=O)[C@H](N)c1ccccc1)[C@H]3SC2(C)C

> <STRUCTURE_SMILES_Desalt>
OC(=O)[C@@H]2N3C(=O)[C@@H](NC(=O)[C@H](N)c1ccccc1)[C@H]3SC2(C)C

> <Substance_modify_yyyymmdd>
20080429

$$$$
