71827-03-7
ChemmineR-0914142331XD

 69 75  0  0  1  0  0  0  0  0  1 V2000
   10.3519   -3.9716    0.0000 C   0  0  0  0  0  0  0  0  0  0  0  0
    9.1935   -3.3097    0.0000 C   0  0  0  0  0  0  0  0  0  0  0  0
    9.1935   -5.9574    0.0000 C   0  0  0  0  0  0  0  0  0  0  0  0
    8.0351   -3.9716    0.0000 C   0  0  0  0  0  0  0  0  0  0  0  0
    8.0351   -5.3139    0.0000 C   0  0  0  0  0  0  0  0  0  0  0  0
   11.4919   -3.3097    0.0000 C   0  0  0  0  0  0  0  0  0  0  0  0
   12.6503   -3.9716    0.0000 C   0  0  0  0  0  0  0  0  0  0  0  0
   12.6503   -5.3139    0.0000 C   0  0  0  0  0  0  0  0  0  0  0  0
   13.7903   -5.9574    0.0000 C   0  0  0  0  0  0  0  0  0  0  0  0
   13.7903   -7.2813    0.0000 O   0  0  0  0  0  0  0  0  0  0  0  0
   12.6503   -7.9616    0.0000 C   0  0  0  0  0  0  0  0  0  0  0  0
   12.6503   -9.2671    0.0000 C   0  0  0  0  0  0  0  0  0  0  0  0
   11.4919   -9.9474    0.0000 C   0  0  0  0  0  0  0  0  0  0  0  0
   10.3519   -7.9432    0.0000 C   0  0  0  0  0  0  0  0  0  0  0  0
   10.3519   -9.2671    0.0000 C   0  0  0  0  0  0  0  0  0  0  0  0
    9.1935   -7.2813    0.0000 C   0  0  0  0  0  0  0  0  0  0  0  0
   14.9487   -3.9716    0.0000 C   0  0  0  0  0  0  0  0  0  0  0  0
   14.9487   -5.3139    0.0000 C   0  0  0  0  0  0  0  0  0  0  0  0
   13.7903   -3.3097    0.0000 O   0  0  0  0  0  0  0  0  0  0  0  0
   17.2470   -2.6477    0.0000 C   0  0  0  0  0  0  0  0  0  0  0  0
   17.2470   -3.9716    0.0000 C   0  0  0  0  0  0  0  0  0  0  0  0
   16.0887   -1.9858    0.0000 C   0  0  0  0  0  0  0  0  0  0  0  0
   16.0887   -4.6335    0.0000 C   0  0  0  0  0  0  0  0  0  0  0  0
   14.9487   -2.6477    0.0000 O   0  0  0  0  0  0  0  0  0  0  0  0
   13.7903   -9.9474    0.0000 C   0  0  0  0  0  0  0  0  0  0  0  0
   13.7903  -11.2713    0.0000 C   0  0  0  0  0  0  0  0  0  0  0  0
   12.6503  -11.9332    0.0000 C   0  0  0  0  0  0  0  0  0  0  0  0
   11.4919  -11.3264    0.0000 C   0  0  0  0  0  0  0  0  0  0  0  0
    9.8922  -11.3264    0.0000 O   0  0  0  0  0  0  0  0  0  0  0  0
    9.3590  -10.1680    0.0000 C   0  0  0  0  0  0  0  0  0  0  0  0
    6.8951   -3.3097    0.0000 O   0  0  0  0  0  0  0  0  0  0  0  0
   11.4919   -8.6235    0.0000 O   0  0  0  0  0  0  0  0  0  0  0  0
   12.6687  -13.2571    0.0000 O   0  0  0  0  0  0  0  0  0  0  0  0
   11.4919   -7.2813    0.0000 O   0  0  0  0  0  0  0  0  0  0  0  0
    5.7368   -3.9716    0.0000 C   0  0  0  0  0  0  0  0  0  0  0  0
    5.7368   -5.3139    0.0000 O   0  0  0  0  0  0  0  0  0  0  0  0
    4.5968   -3.3097    0.0000 C   0  0  0  0  0  0  0  0  0  0  0  0
    4.5968   -5.9574    0.0000 C   0  0  0  0  0  0  0  0  0  0  0  0
    3.4384   -3.9716    0.0000 C   0  0  0  0  0  0  0  0  0  0  0  0
    3.4384   -5.3139    0.0000 C   0  0  0  0  0  0  0  0  0  0  0  0
    2.2984   -3.3097    0.0000 O   0  0  0  0  0  0  0  0  0  0  0  0
    2.2984   -5.9574    0.0000 O   0  0  0  0  0  0  0  0  0  0  0  0
    2.2984   -7.2813    0.0000 C   0  0  0  0  0  0  0  0  0  0  0  0
    3.4384   -7.9616    0.0000 C   0  0  0  0  0  0  0  0  0  0  0  0
    1.1400   -7.9616    0.0000 O   0  0  0  0  0  0  0  0  0  0  0  0
    3.4384   -9.2855    0.0000 C   0  0  0  0  0  0  0  0  0  0  0  0
    1.1400   -9.2855    0.0000 C   0  0  0  0  0  0  0  0  0  0  0  0
    2.2984   -9.9474    0.0000 C   0  0  0  0  0  0  0  0  0  0  0  0
    2.2984  -11.2713    0.0000 O   0  0  0  0  0  0  0  0  0  0  0  0
    4.5968   -9.9474    0.0000 O   0  0  0  0  0  0  0  0  0  0  0  0
    9.1935   -1.9858    0.0000 C   0  0  0  0  0  0  0  0  0  0  0  0
    6.8951   -5.9574    0.0000 C   0  0  0  0  0  0  0  0  0  0  0  0
   14.9487  -11.9332    0.0000 C   0  0  0  0  0  0  0  0  0  0  0  0
   18.3870   -1.9858    0.0000 C   0  0  0  0  0  0  0  0  0  0  0  0
   16.0887   -0.6435    0.0000 C   0  0  0  0  0  0  0  0  0  0  0  0
   17.2470    0.0000    0.0000 C   0  0  0  0  0  0  0  0  0  0  0  0
   14.9487    0.0000    0.0000 C   0  0  0  0  0  0  0  0  0  0  0  0
   18.3870   -0.6435    0.0000 C   0  0  0  0  0  0  0  0  0  0  0  0
    2.2984   -1.9858    0.0000 C   0  0  0  0  0  0  0  0  0  0  0  0
    4.5968   -7.2813    0.0000 C   0  0  0  0  0  0  0  0  0  0  0  0
    0.0000   -9.9474    0.0000 C   0  0  0  0  0  0  0  0  0  0  0  0
    4.5968  -11.2713    0.0000 C   0  0  0  0  0  0  0  0  0  0  0  0
   12.6503   -2.6477    0.0000 H   0  0  0  0  0  0  0  0  0  0  0  0
   13.7903   -4.6335    0.0000 H   0  0  0  0  0  0  0  0  0  0  0  0
   17.2470   -1.3239    0.0000 H   0  0  0  0  0  0  0  0  0  0  0  0
   12.6503  -10.6093    0.0000 H   0  0  0  0  0  0  0  0  0  0  0  0
   11.4919  -12.6503    0.0000 H   0  0  0  0  0  0  0  0  0  0  0  0
    6.8951   -4.6335    0.0000 H   0  0  0  0  0  0  0  0  0  0  0  0
    3.4384   -6.6193    0.0000 H   0  0  0  0  0  0  0  0  0  0  0  0
  1  2  2  0  0  0  0
  1  6  1  0  0  0  0
  2  4  1  0  0  0  0
  2 51  1  0  0  0  0
  3  5  1  0  0  0  0
  3 16  2  0  0  0  0
  4  5  1  0  0  0  0
  4 31  1  6  0  0  0
  5 52  1  6  0  0  0
  6  7  1  0  0  0  0
  7 19  1  0  0  0  0
  7  8  1  0  0  0  0
  7 63  1  6  0  0  0
  8  9  1  0  0  0  0
  9 10  1  0  0  0  0
  9 18  1  0  0  0  0
  9 64  1  6  0  0  0
 10 11  1  0  0  0  0
 11 12  1  0  0  0  0
 11 34  2  0  0  0  0
 12 13  1  0  0  0  0
 12 25  1  0  0  0  0
 12 66  1  1  0  0  0
 13 28  1  0  0  0  0
 13 15  1  0  0  0  0
 13 32  1  6  0  0  0
 14 15  2  0  0  0  0
 14 16  1  0  0  0  0
 15 30  1  0  0  0  0
 17 18  1  6  0  0  0
 17 19  1  1  0  0  0
 17 23  1  0  0  0  0
 17 24  1  0  0  0  0
 20 21  1  0  0  0  0
 20 22  1  0  0  0  0
 20 54  1  1  0  0  0
 21 23  1  0  0  0  0
 22 24  1  0  0  0  0
 22 55  1  0  0  0  0
 22 65  1  1  0  0  0
 25 26  2  0  0  0  0
 26 27  1  0  0  0  0
 26 53  1  0  0  0  0
 27 28  1  0  0  0  0
 27 33  1  1  0  0  0
 28 29  1  0  0  0  0
 28 67  1  6  0  0  0
 29 30  1  0  0  0  0
 31 35  1  0  0  0  0
 35 36  1  0  0  0  0
 35 37  1  0  0  0  0
 35 68  1  1  0  0  0
 36 38  1  0  0  0  0
 37 39  1  0  0  0  0
 38 40  1  0  0  0  0
 38 60  1  1  0  0  0
 39 40  1  0  0  0  0
 39 41  1  1  0  0  0
 40 42  1  6  0  0  0
 41 59  1  0  0  0  0
 42 43  1  0  0  0  0
 43 44  1  0  0  0  0
 43 45  1  0  0  0  0
 43 69  1  6  0  0  0
 44 46  1  0  0  0  0
 45 47  1  0  0  0  0
 46 48  1  0  0  0  0
 46 50  1  6  0  0  0
 47 48  1  0  0  0  0
 47 61  1  6  0  0  0
 48 49  1  1  0  0  0
 50 62  1  0  0  0  0
 55 56  1  0  0  0  0
 55 57  1  1  0  0  0
 56 58  1  0  0  0  0
M  END
> <ID>
2857

> <Formula>
C48H74O14

> <FW>
875.0928

> <DSSTox_CID>
3181

> <DSSTox_RID>
76909

> <DSSTox_GSID>
23181

> <DSSTox_FileID_Sort>
1593

> <TS_ChemName>
Ivermectin B1a

> <TS_ChemName_Synonyms>


> <TS_CASRN>
71827-03-7

> <CASRN_ChemName_Relationship>
primary

> <TS_Description>
single chemical compound

> <ChemNote>
stereochem

> <STRUCTURE_Shown>
tested chemical

> <STRUCTURE_Formula>
C48H74O14

> <STRUCTURE_MW>
875.0928

> <STRUCTURE_ChemType>
defined organic

> <STRUCTURE_DefinedOrganicForm>
parent

> <STRUCTURE_IUPAC>
(2aE,4E,5'S,6S,6'R,7S,8E,11R,13R,15S,17aR,20R,20aR,20bS)-6'-[(2S)-butan-2-yl]-20,20b-dihydroxy-5',6,8,19-tetramethyl-17-oxo-3',4',5',6,6',10,11,14,15,17,17a,20,20a,20b-tetradecahydro-2H,7H-spiro[11,15-methanofuro[4,3,2-pq][2,6]benzodioxacyclooctadecine-13

> <STRUCTURE_SMILES>
CO[C@H]1C[C@@H](O[C@@H](C)[C@@H]1O)O[C@@H]2[C@@H](OC)C[C@@H](O[C@H]2C)O[C@@H]3C(C)=CC[C@@H]6C[C@H](OC(=O)[C@@H]4C=C(C)[C@@H](O)[C@H]5OCC(=CC=C[C@@H]3C)[C@@]45O)C[C@@]7(O6)CC[C@H](C)[C@H](O7)[C@@H](C)CC

> <STRUCTURE_SMILES_Desalt>
CO[C@H]1C[C@@H](O[C@@H](C)[C@@H]1O)O[C@@H]2[C@@H](OC)C[C@@H](O[C@H]2C)O[C@@H]3C(C)=CC[C@@H]6C[C@H](OC(=O)[C@@H]4C=C(C)[C@@H](O)[C@H]5OCC(=CC=C[C@@H]3C)[C@@]45O)C[C@@]7(O6)CC[C@H](C)[C@H](O7)[C@@H](C)CC

> <Substance_modify_yyyymmdd>
20080429

$$$$
