72-20-8
ChemmineR-0914142331XD

 21 25  0  0  1  0  0  0  0  0  1 V2000
    1.2351   -2.6648    0.0000 C    0  0  0  0  0  0  0  0  0  0  0  0
    0.0000   -2.6648    0.0000 O    0  0  0  0  0  0  0  0  0  0  0  0
    0.6063   -3.7278    0.0000 C    0  0  0  0  0  0  0  0  0  0  0  0
    2.2681   -2.9493    0.0000 C    0  0  0  0  0  0  0  0  0  0  0  0
    3.4508   -2.7247    0.0000 C    0  0  0  0  0  0  0  0  0  0  0  0
    1.8115   -3.9299    0.0000 C    0  0  0  0  0  0  0  0  0  0  0  0
    2.1184   -5.0677    0.0000 C    0  0  0  0  0  0  0  0  0  0  0  0
    3.3310   -3.7278    0.0000 C    0  0  0  0  0  0  0  0  0  0  0  0
    4.8955   -2.0211    0.0000 C    0  0  0  0  0  0  0  0  0  0  0  0
    4.4389   -3.1514    0.0000 C    0  0  0  0  0  0  0  0  0  0  0  0
    5.7489   -3.7877    0.0000 C    0  0  0  0  0  0  0  0  0  0  0  0
    6.3776   -2.7247    0.0000 C    0  0  0  0  0  0  0  0  0  0  0  0
    7.4855   -2.4478    0.0000 Cl   0  0  0  0  0  0  0  0  0  0  0  0
    6.2055   -4.8581    0.0000 Cl   0  0  0  0  0  0  0  0  0  0  0  0
    4.0047   -4.3640    0.0000 Cl   0  0  0  0  0  0  0  0  0  0  0  0
    4.4389   -0.7785    0.0000 C    0  0  0  0  0  0  0  0  0  0  0  0
    5.1725    0.0000    0.0000 Cl   0  0  0  0  0  0  0  0  0  0  0  0
    3.5781   -0.0749    0.0000 Cl   0  0  0  0  0  0  0  0  0  0  0  0
    5.7040   -1.1603    0.0000 Cl   0  0  0  0  0  0  0  0  0  0  0  0
    3.3310   -4.9779    0.0000 H    0  0  0  0  0  0  0  0  0  0  0  0
    3.4358   -1.6019    0.0000 H    0  0  0  0  0  0  0  0  0  0  0  0
  1  2  1  1  0  0  0
  1  3  1  0  0  0  0
  1  4  1  0  0  0  0
  3  2  1  1  0  0  0
  3  6  1  0  0  0  0
  4  5  1  0  0  0  0
  4  7  1  6  0  0  0
  5  9  1  0  0  0  0
  5  8  1  0  0  0  0
  5 21  1  1  0  0  0
  6  7  1  1  0  0  0
  6  8  1  0  0  0  0
  8 10  1  0  0  0  0
  8 20  1  1  0  0  0
  9 12  1  0  0  0  0
  9 16  1  1  0  0  0
  9 19  1  0  0  0  0
 10 11  1  0  0  0  0
 10 16  1  1  0  0  0
 10 15  1  0  0  0  0
 11 12  2  0  0  0  0
 11 14  1  0  0  0  0
 12 13  1  0  0  0  0
 16 17  1  0  0  0  0
 16 18  1  0  0  0  0
M  END
> <ID>
537

> <Formula>
C12H8Cl6O

> <FW>
380.9093

> <DSSTox_CID>
561

> <DSSTox_RID>
75660

> <DSSTox_GSID>
20561

> <DSSTox_FileID_Sort>
344

> <TS_ChemName>
Endrin

> <TS_ChemName_Synonyms>


> <TS_CASRN>
72-20-8

> <CASRN_ChemName_Relationship>
primary

> <TS_Description>
single chemical compound

> <ChemNote>
relative stereochem

> <STRUCTURE_Shown>
tested chemical

> <STRUCTURE_Formula>
C12H8Cl6O

> <STRUCTURE_MW>
380.9093

> <STRUCTURE_ChemType>
defined organic

> <STRUCTURE_DefinedOrganicForm>
parent

> <STRUCTURE_IUPAC>
(1aR,2R,2aR,3R,6S,6aS,7S,7aS)-3,4,5,6,9,9-hexachloro-1a,2,2a,3,6,6a,7,7a-octahydro-2,7:3,6-dimethanonaphtho[2,3-b]oxirene

> <STRUCTURE_SMILES>
ClC1=C(Cl)[C@@]5(Cl)C(Cl)(Cl)[C@]1(Cl)[C@H]4[C@@H]3C[C@@H]([C@H]2O[C@H]23)[C@H]45

> <STRUCTURE_SMILES_Desalt>
ClC1=C(Cl)[C@@]5(Cl)C(Cl)(Cl)[C@]1(Cl)[C@H]4[C@@H]3C[C@@H]([C@H]2O[C@H]23)[C@H]45

> <Substance_modify_yyyymmdd>
20080815

$$$$
