72-54-8
ChemmineR-0914142331XD

 18 19  0  0  0  0  0  0  0  0  1 V2000
    3.4540    0.0000    0.0000 Cl   0  0  0  0  0  0  0  0  0  0  0  0
    4.6054   -0.6632    0.0000 C    0  0  0  0  0  0  0  0  0  0  0  0
    4.6054   -1.9895    0.0000 C    0  0  0  0  0  0  0  0  0  0  0  0
    5.7567   -2.6527    0.0000 C    0  0  0  0  0  0  0  0  0  0  0  0
    6.9080   -1.9895    0.0000 C    0  0  0  0  0  0  0  0  0  0  0  0
    8.0594   -2.6527    0.0000 C    0  0  0  0  0  0  0  0  0  0  0  0
    8.0594   -3.9882    0.0000 C    0  0  0  0  0  0  0  0  0  0  0  0
    6.9080   -4.6514    0.0000 C    0  0  0  0  0  0  0  0  0  0  0  0
    5.7567   -3.9882    0.0000 C    0  0  0  0  0  0  0  0  0  0  0  0
    9.2107   -4.6514    0.0000 Cl   0  0  0  0  0  0  0  0  0  0  0  0
    3.4540   -2.6527    0.0000 C    0  0  0  0  0  0  0  0  0  0  0  0
    3.4540   -3.9882    0.0000 C    0  0  0  0  0  0  0  0  0  0  0  0
    2.3027   -4.6514    0.0000 C    0  0  0  0  0  0  0  0  0  0  0  0
    1.1513   -3.9882    0.0000 C    0  0  0  0  0  0  0  0  0  0  0  0
    1.1513   -2.6527    0.0000 C    0  0  0  0  0  0  0  0  0  0  0  0
    2.3027   -1.9895    0.0000 C    0  0  0  0  0  0  0  0  0  0  0  0
    0.0000   -4.6514    0.0000 Cl   0  0  0  0  0  0  0  0  0  0  0  0
    5.7567    0.0000    0.0000 Cl   0  0  0  0  0  0  0  0  0  0  0  0
  1  2  1  0  0  0  0
  2  3  1  0  0  0  0
  2 18  1  0  0  0  0
  3  4  1  0  0  0  0
  3 11  1  0  0  0  0
  4  5  2  0  0  0  0
  4  9  1  0  0  0  0
  5  6  1  0  0  0  0
  6  7  2  0  0  0  0
  7  8  1  0  0  0  0
  7 10  1  0  0  0  0
  8  9  2  0  0  0  0
 11 12  2  0  0  0  0
 11 16  1  0  0  0  0
 12 13  1  0  0  0  0
 13 14  2  0  0  0  0
 14 15  1  0  0  0  0
 14 17  1  0  0  0  0
 15 16  2  0  0  0  0
M  END
> <ID>
363

> <Formula>
C14H10Cl4

> <FW>
320.0412

> <DSSTox_CID>
373

> <DSSTox_RID>
75549

> <DSSTox_GSID>
20373

> <DSSTox_FileID_Sort>
233

> <TS_ChemName>
p,p'-DDD

> <TS_ChemName_Synonyms>
p,p'-DDD (Tetrachlorodiphenylethane) (TDE) (Rhothane)

> <TS_CASRN>
72-54-8

> <CASRN_ChemName_Relationship>
primary

> <TS_Description>
single chemical compound

> <ChemNote>


> <STRUCTURE_Shown>
tested chemical

> <STRUCTURE_Formula>
C14H10Cl4

> <STRUCTURE_MW>
320.0412

> <STRUCTURE_ChemType>
defined organic

> <STRUCTURE_DefinedOrganicForm>
parent

> <STRUCTURE_IUPAC>
1,1'-(2,2-dichloroethane-1,1-diyl)bis(4-chlorobenzene)

> <STRUCTURE_SMILES>
Clc1ccc(cc1)C(C(Cl)Cl)c2ccc(Cl)cc2

> <STRUCTURE_SMILES_Desalt>
Clc1ccc(cc1)C(C(Cl)Cl)c2ccc(Cl)cc2

> <Substance_modify_yyyymmdd>
20080429

$$$$
