72-63-9
ChemmineR-0914142331XD

 25 28  0  0  1  0  0  0  0  0  1 V2000
    3.4930   -3.6171    0.0000 C   0  0  0  0  0  0  0  0  0  0  0  0
    6.9479   -1.6320    0.0000 C   0  0  0  0  0  0  0  0  0  0  0  0
    3.4930   -4.9628    0.0000 C   0  0  0  0  0  0  0  0  0  0  0  0
    4.6479   -2.9777    0.0000 C   0  0  0  0  0  0  0  0  0  0  0  0
    6.9479   -2.9777    0.0000 C   0  0  0  0  0  0  0  0  0  0  0  0
    5.7931   -3.6171    0.0000 C   0  0  0  0  0  0  0  0  0  0  0  0
    2.3573   -2.9777    0.0000 C   0  0  0  0  0  0  0  0  0  0  0  0
    2.3573   -5.6404    0.0000 C   0  0  0  0  0  0  0  0  0  0  0  0
    8.2173   -1.2216    0.0000 C   0  0  0  0  0  0  0  0  0  0  0  0
    5.7931   -0.9639    0.0000 C   0  0  0  0  0  0  0  0  0  0  0  0
    4.6479   -1.6320    0.0000 C   0  0  0  0  0  0  0  0  0  0  0  0
    5.7931   -4.9628    0.0000 C   0  0  0  0  0  0  0  0  0  0  0  0
    8.2173   -3.3785    0.0000 C   0  0  0  0  0  0  0  0  0  0  0  0
    1.1834   -3.6171    0.0000 C   0  0  0  0  0  0  0  0  0  0  0  0
    1.1834   -4.9628    0.0000 C   0  0  0  0  0  0  0  0  0  0  0  0
    4.6479   -5.6404    0.0000 C   0  0  0  0  0  0  0  0  0  0  0  0
    9.0189   -2.3192    0.0000 C   0  0  0  0  0  0  0  0  0  0  0  0
    0.0000   -5.6690    0.0000 O   0  0  0  0  0  0  0  0  0  0  0  0
    8.2173    0.0000    0.0000 O   0  0  0  0  0  0  0  0  0  0  0  0
    3.4930   -2.3192    0.0000 C   0  0  0  0  0  0  0  0  0  0  0  0
    6.9479   -0.2768    0.0000 C   0  0  0  0  0  0  0  0  0  0  0  0
    9.5438   -1.2312    0.0000 C   0  0  0  0  0  0  0  0  0  0  0  0
    5.7931   -2.2905    0.0000 H   0  0  0  0  0  0  0  0  0  0  0  0
    6.9479   -4.3043    0.0000 H   0  0  0  0  0  0  0  0  0  0  0  0
    4.6479   -4.3043    0.0000 H   0  0  0  0  0  0  0  0  0  0  0  0
  1  3  1  0  0  0  0
  1  4  1  0  0  0  0
  1  7  1  0  0  0  0
  1 20  1  1  0  0  0
  2 10  1  0  0  0  0
  2  9  1  0  0  0  0
  2 21  1  1  0  0  0
  2  5  1  0  0  0  0
  3  8  2  0  0  0  0
  3 16  1  0  0  0  0
  4  6  1  0  0  0  0
  4 11  1  0  0  0  0
  4 25  1  6  0  0  0
  5  6  1  0  0  0  0
  5 13  1  0  0  0  0
  5 24  1  6  0  0  0
  6 12  1  0  0  0  0
  6 23  1  1  0  0  0
  7 14  2  0  0  0  0
  8 15  1  0  0  0  0
  9 19  1  0  0  0  0
  9 22  1  6  0  0  0
  9 17  1  0  0  0  0
 10 11  1  0  0  0  0
 12 16  1  0  0  0  0
 13 17  1  0  0  0  0
 14 15  1  0  0  0  0
 15 18  2  0  0  0  0
M  END
> <ID>
2942

> <Formula>
C20H28O2

> <FW>
300.4351

> <DSSTox_CID>
3276

> <DSSTox_RID>
76952

> <DSSTox_GSID>
23276

> <DSSTox_FileID_Sort>
1636

> <TS_ChemName>
Methandrostenolone

> <TS_ChemName_Synonyms>


> <TS_CASRN>
72-63-9

> <CASRN_ChemName_Relationship>
primary

> <TS_Description>
single chemical compound

> <ChemNote>
stereochem

> <STRUCTURE_Shown>
tested chemical

> <STRUCTURE_Formula>
C20H28O2

> <STRUCTURE_MW>
300.4351

> <STRUCTURE_ChemType>
defined organic

> <STRUCTURE_DefinedOrganicForm>
parent

> <STRUCTURE_IUPAC>
(17beta)-17-hydroxy-17-methylandrosta-1,4-dien-3-one

> <STRUCTURE_SMILES>
O=C3C=C4CC[C@@H]2[C@H](CC[C@@]1(C)[C@H]2CC[C@]1(C)O)[C@@]4(C)C=C3

> <STRUCTURE_SMILES_Desalt>
O=C3C=C4CC[C@@H]2[C@H](CC[C@@]1(C)[C@H]2CC[C@]1(C)O)[C@@]4(C)C=C3

> <Substance_modify_yyyymmdd>
20080429

$$$$
