7235-40-7
ChemmineR-0914142331XD

 40 41  0  0  0  0  0  0  0  0  1 V2000
    2.2980   -2.9847    0.0000 C   0  0  0  0  0  0  0  0  0  0  0  0
   24.0890   -2.3772    0.0000 C   0  0  0  0  0  0  0  0  0  0  0  0
   22.9532   -2.9847    0.0000 C   0  0  0  0  0  0  0  0  0  0  0  0
    3.4337   -2.3772    0.0000 C   0  0  0  0  0  0  0  0  0  0  0  0
    1.1622   -2.3772    0.0000 C   0  0  0  0  0  0  0  0  0  0  0  0
   25.2776   -2.9847    0.0000 C   0  0  0  0  0  0  0  0  0  0  0  0
    2.2980   -4.3318    0.0000 C   0  0  0  0  0  0  0  0  0  0  0  0
   24.0890   -0.9773    0.0000 C   0  0  0  0  0  0  0  0  0  0  0  0
   21.7910   -2.3772    0.0000 C   0  0  0  0  0  0  0  0  0  0  0  0
    4.5695   -2.9847    0.0000 C   0  0  0  0  0  0  0  0  0  0  0  0
    8.0297   -2.3772    0.0000 C   0  0  0  0  0  0  0  0  0  0  0  0
   18.3308   -2.9847    0.0000 C   0  0  0  0  0  0  0  0  0  0  0  0
    5.7053   -2.3772    0.0000 C   0  0  0  0  0  0  0  0  0  0  0  0
   20.6552   -2.9847    0.0000 C   0  0  0  0  0  0  0  0  0  0  0  0
   10.3012   -2.3772    0.0000 C   0  0  0  0  0  0  0  0  0  0  0  0
   16.0329   -2.9847    0.0000 C   0  0  0  0  0  0  0  0  0  0  0  0
    6.8939   -2.9847    0.0000 C   0  0  0  0  0  0  0  0  0  0  0  0
   19.4930   -2.3772    0.0000 C   0  0  0  0  0  0  0  0  0  0  0  0
    9.1918   -2.9847    0.0000 C   0  0  0  0  0  0  0  0  0  0  0  0
   17.1687   -2.3772    0.0000 C   0  0  0  0  0  0  0  0  0  0  0  0
   11.4370   -2.9847    0.0000 C   0  0  0  0  0  0  0  0  0  0  0  0
   14.8707   -2.3772    0.0000 C   0  0  0  0  0  0  0  0  0  0  0  0
   13.7085   -2.9847    0.0000 C   0  0  0  0  0  0  0  0  0  0  0  0
   12.5992   -2.3772    0.0000 C   0  0  0  0  0  0  0  0  0  0  0  0
    0.0000   -2.9847    0.0000 C   0  0  0  0  0  0  0  0  0  0  0  0
   26.4133   -2.3772    0.0000 C   0  0  0  0  0  0  0  0  0  0  0  0
    1.1622   -4.9657    0.0000 C   0  0  0  0  0  0  0  0  0  0  0  0
   25.2776   -0.3170    0.0000 C   0  0  0  0  0  0  0  0  0  0  0  0
    1.1622   -0.8716    0.0000 C   0  0  0  0  0  0  0  0  0  0  0  0
   25.2776   -4.3318    0.0000 C   0  0  0  0  0  0  0  0  0  0  0  0
    2.9055   -5.5732    0.0000 C   0  0  0  0  0  0  0  0  0  0  0  0
   22.8475   -0.9773    0.0000 C   0  0  0  0  0  0  0  0  0  0  0  0
   23.1909    0.0000    0.0000 C   0  0  0  0  0  0  0  0  0  0  0  0
    3.7243   -4.3318    0.0000 C   0  0  0  0  0  0  0  0  0  0  0  0
   26.4133   -0.9773    0.0000 C   0  0  0  0  0  0  0  0  0  0  0  0
    0.0000   -4.3318    0.0000 C   0  0  0  0  0  0  0  0  0  0  0  0
   20.6552   -4.3318    0.0000 C   0  0  0  0  0  0  0  0  0  0  0  0
    5.7053   -0.8716    0.0000 C   0  0  0  0  0  0  0  0  0  0  0  0
   16.0329   -4.3318    0.0000 C   0  0  0  0  0  0  0  0  0  0  0  0
   10.3012   -0.9509    0.0000 C   0  0  0  0  0  0  0  0  0  0  0  0
  1  4  1  0  0  0  0
  1  5  2  0  0  0  0
  1  7  1  0  0  0  0
  2  3  1  0  0  0  0
  2  6  2  0  0  0  0
  2  8  1  0  0  0  0
  3  9  2  0  0  0  0
  4 10  2  0  0  0  0
  5 25  1  0  0  0  0
  5 29  1  0  0  0  0
  6 26  1  0  0  0  0
  6 30  1  0  0  0  0
  7 27  1  0  0  0  0
  7 31  1  0  0  0  0
  7 34  1  0  0  0  0
  8 28  1  0  0  0  0
  8 32  1  0  0  0  0
  8 33  1  0  0  0  0
  9 14  1  0  0  0  0
 10 13  1  0  0  0  0
 11 17  1  0  0  0  0
 11 19  2  0  0  0  0
 12 20  2  0  0  0  0
 12 18  1  0  0  0  0
 13 17  2  0  0  0  0
 13 38  1  0  0  0  0
 14 18  2  0  0  0  0
 14 37  1  0  0  0  0
 15 19  1  0  0  0  0
 15 21  2  0  0  0  0
 15 40  1  0  0  0  0
 16 22  2  0  0  0  0
 16 20  1  0  0  0  0
 16 39  1  0  0  0  0
 21 24  1  0  0  0  0
 22 23  1  0  0  0  0
 23 24  2  0  0  0  0
 25 36  1  0  0  0  0
 26 35  1  0  0  0  0
 27 36  1  0  0  0  0
 28 35  1  0  0  0  0
M  END
> <ID>
249

> <Formula>
C40H56

> <FW>
536.8726

> <DSSTox_CID>
253

> <DSSTox_RID>
75466

> <DSSTox_GSID>
20253

> <DSSTox_FileID_Sort>
150

> <TS_ChemName>
beta-Carotene

> <TS_ChemName_Synonyms>
beta-Carotene (trans-beta-Carotene)

> <TS_CASRN>
7235-40-7

> <CASRN_ChemName_Relationship>
primary

> <TS_Description>
single chemical compound

> <ChemNote>
C.I. 75130; stereochem

> <STRUCTURE_Shown>
tested chemical

> <STRUCTURE_Formula>
C40H56

> <STRUCTURE_MW>
536.8726

> <STRUCTURE_ChemType>
defined organic

> <STRUCTURE_DefinedOrganicForm>
parent

> <STRUCTURE_IUPAC>
beta,beta-carotene

> <STRUCTURE_SMILES>
CC=2CCCC(C)(C)C=2/C=CC(\C)=C\C=C\C(\C)=C\C=C\C=C(/C)\C=C\C=C(/C)\C=C\C1=C(C)CCCC1(C)C

> <STRUCTURE_SMILES_Desalt>
CC=2CCCC(C)(C)C=2/C=CC(\C)=C\C=C\C(\C)=C\C=C\C=C(/C)\C=C\C=C(/C)\C=C\C1=C(C)CCCC1(C)C

> <Substance_modify_yyyymmdd>
20080429

$$$$
