72509-76-3
ChemmineR-0914142331XD

 25 26  0  0  0  0  0  0  0  0  1 V2000
    6.5137   -3.1769    0.0000 C    0  0  0  0  0  0  0  0  0  0  0  0
    7.6031   -3.8244    0.0000 C    0  0  0  0  0  0  0  0  0  0  0  0
    5.4014   -3.8244    0.0000 C    0  0  0  0  0  0  0  0  0  0  0  0
    5.4014   -5.0891    0.0000 C    0  0  0  0  0  0  0  0  0  0  0  0
    4.4263   -5.9042    0.0000 O    0  0  0  0  0  0  0  0  0  0  0  0
    6.5594   -5.6224    0.0000 O    0  0  0  0  0  0  0  0  0  0  0  0
    6.6661   -6.8870    0.0000 C    0  0  0  0  0  0  0  0  0  0  0  0
    5.6224   -7.6184    0.0000 C    0  0  0  0  0  0  0  0  0  0  0  0
    4.3044   -3.1769    0.0000 C    0  0  0  0  0  0  0  0  0  0  0  0
    2.3998   -3.8854    0.0000 C    0  0  0  0  0  0  0  0  0  0  0  0
    1.4094   -3.0550    0.0000 C    0  0  0  0  0  0  0  0  0  0  0  0
    0.2209   -3.4892    0.0000 C    0  0  0  0  0  0  0  0  0  0  0  0
    0.0000   -4.7463    0.0000 C    0  0  0  0  0  0  0  0  0  0  0  0
    0.9752   -5.5614    0.0000 C    0  0  0  0  0  0  0  0  0  0  0  0
    0.7542   -6.8184    0.0000 Cl   0  0  0  0  0  0  0  0  0  0  0  0
    2.1636   -5.1272    0.0000 C    0  0  0  0  0  0  0  0  0  0  0  0
    3.2378   -6.3918    0.0000 Cl   0  0  0  0  0  0  0  0  0  0  0  0
    4.3044   -1.8970    0.0000 C    0  0  0  0  0  0  0  0  0  0  0  0
    3.1997   -1.2647    0.0000 C    0  0  0  0  0  0  0  0  0  0  0  0
    3.1997    0.0000    0.0000 O    0  0  0  0  0  0  0  0  0  0  0  0
    2.0951   -1.8970    0.0000 O    0  0  0  0  0  0  0  0  0  0  0  0
    0.6552   -1.1656    0.0000 C    0  0  0  0  0  0  0  0  0  0  0  0
    5.4014   -1.2647    0.0000 C    0  0  0  0  0  0  0  0  0  0  0  0
    5.4014    0.0000    0.0000 C    0  0  0  0  0  0  0  0  0  0  0  0
    6.5137   -1.8970    0.0000 N    0  0  0  0  0  0  0  0  0  0  0  0
  1  2  1  0  0  0  0
  1  3  2  0  0  0  0
  1 25  1  0  0  0  0
  3  4  1  0  0  0  0
  3  9  1  0  0  0  0
  4  5  2  0  0  0  0
  4  6  1  0  0  0  0
  6  7  1  0  0  0  0
  7  8  1  0  0  0  0
  9 10  1  0  0  0  0
  9 18  1  0  0  0  0
 10 11  2  0  0  0  0
 10 16  1  0  0  0  0
 11 12  1  0  0  0  0
 12 13  2  0  0  0  0
 13 14  1  0  0  0  0
 14 15  1  0  0  0  0
 14 16  2  0  0  0  0
 16 17  1  0  0  0  0
 18 19  1  0  0  0  0
 18 23  2  0  0  0  0
 19 20  2  0  0  0  0
 19 21  1  0  0  0  0
 21 22  1  0  0  0  0
 23 24  1  0  0  0  0
 23 25  1  0  0  0  0
M  END
> <ID>
2735

> <Formula>
C18H19Cl2NO4

> <FW>
384.2538

> <DSSTox_CID>
3042

> <DSSTox_RID>
76848

> <DSSTox_GSID>
23042

> <DSSTox_FileID_Sort>
1532

> <TS_ChemName>
Felodipine

> <TS_ChemName_Synonyms>


> <TS_CASRN>
72509-76-3

> <CASRN_ChemName_Relationship>
primary

> <TS_Description>
single chemical compound

> <ChemNote>
tautomers

> <STRUCTURE_Shown>
tested chemical

> <STRUCTURE_Formula>
C18H19Cl2NO4

> <STRUCTURE_MW>
384.2538

> <STRUCTURE_ChemType>
defined organic

> <STRUCTURE_DefinedOrganicForm>
parent

> <STRUCTURE_IUPAC>
ethyl methyl 4-(2,3-dichlorophenyl)-2,6-dimethyl-1,4-dihydropyridine-3,5-dicarboxylate

> <STRUCTURE_SMILES>
CC=1NC(C)=C(C(C=1C(=O)OCC)c2cccc(Cl)c2Cl)C(=O)OC

> <STRUCTURE_SMILES_Desalt>
CC=1NC(C)=C(C(C=1C(=O)OCC)c2cccc(Cl)c2Cl)C(=O)OC

> <Substance_modify_yyyymmdd>
20080429

$$$$
