73-22-3
ChemmineR-0914142331XD

 15 16  0  0  1  0  0  0  0  0  1 V2000
    7.1570   -1.2829    0.0000 C   0  0  0  0  0  0  0  0  0  0  0  0
    6.5578   -3.5110    0.0000 N   0  0  0  0  0  0  0  0  0  0  0  0
    6.2117   -2.2197    0.0000 C   0  0  0  0  0  0  0  0  0  0  0  0
    4.9458   -1.8146    0.0000 C   0  0  0  0  0  0  0  0  0  0  0  0
    3.9583   -2.7008    0.0000 C   0  0  0  0  0  0  0  0  0  0  0  0
    4.1018   -4.0258    0.0000 C   0  0  0  0  0  0  0  0  0  0  0  0
    2.8864   -4.5660    0.0000 N   0  0  0  0  0  0  0  0  0  0  0  0
    1.9918   -3.5785    0.0000 C   0  0  0  0  0  0  0  0  0  0  0  0
    0.6667   -3.5785    0.0000 C   0  0  0  0  0  0  0  0  0  0  0  0
    0.0000   -2.4222    0.0000 C   0  0  0  0  0  0  0  0  0  0  0  0
    0.6667   -1.2744    0.0000 C   0  0  0  0  0  0  0  0  0  0  0  0
    1.9918   -1.2744    0.0000 C   0  0  0  0  0  0  0  0  0  0  0  0
    2.6586   -2.4222    0.0000 C   0  0  0  0  0  0  0  0  0  0  0  0
    6.8110    0.0000    0.0000 O   0  0  0  0  0  0  0  0  0  0  0  0
    8.4398   -1.6289    0.0000 O   0  0  0  0  0  0  0  0  0  0  0  0
  1  3  1  0  0  0  0
  1 14  2  0  0  0  0
  1 15  1  0  0  0  0
  3  2  1  1  0  0  0
  3  4  1  0  0  0  0
  4  5  1  0  0  0  0
  5  6  2  0  0  0  0
  5 13  1  0  0  0  0
  6  7  1  0  0  0  0
  7  8  1  0  0  0  0
  8  9  2  0  0  0  0
  8 13  1  0  0  0  0
  9 10  1  0  0  0  0
 10 11  2  0  0  0  0
 11 12  1  0  0  0  0
 12 13  2  0  0  0  0
M  END
> <ID>
1364

> <Formula>
C11H12N2O2

> <FW>
204.2252

> <DSSTox_CID>
1419

> <DSSTox_RID>
76152

> <DSSTox_GSID>
21419

> <DSSTox_FileID_Sort>
836

> <TS_ChemName>
l-Tryptophan

> <TS_ChemName_Synonyms>


> <TS_CASRN>
73-22-3

> <CASRN_ChemName_Relationship>
primary

> <TS_Description>
single chemical compound

> <ChemNote>
stereochem

> <STRUCTURE_Shown>
tested chemical

> <STRUCTURE_Formula>
C11H12N2O2

> <STRUCTURE_MW>
204.2252

> <STRUCTURE_ChemType>
defined organic

> <STRUCTURE_DefinedOrganicForm>
parent

> <STRUCTURE_IUPAC>
L-tryptophan

> <STRUCTURE_SMILES>
O=C(O)[C@@H](N)Cc2cnc1ccccc12

> <STRUCTURE_SMILES_Desalt>
O=C(O)[C@@H](N)Cc2cnc1ccccc12

> <Substance_modify_yyyymmdd>
20080429

$$$$
