73-31-4
ChemmineR-0914142331XD

 17 18  0  0  0  0  0  0  0  0  1 V2000
   10.1143   -1.6607    0.0000 O   0  0  0  0  0  0  0  0  0  0  0  0
    9.7715   -2.9357    0.0000 C   0  0  0  0  0  0  0  0  0  0  0  0
   10.7143   -3.8786    0.0000 C   0  0  0  0  0  0  0  0  0  0  0  0
    8.4858   -3.2893    0.0000 N   0  0  0  0  0  0  0  0  0  0  0  0
    7.5429   -2.3464    0.0000 C   0  0  0  0  0  0  0  0  0  0  0  0
    6.2786   -2.7536    0.0000 C   0  0  0  0  0  0  0  0  0  0  0  0
    5.2929   -1.8643    0.0000 C   0  0  0  0  0  0  0  0  0  0  0  0
    5.4322   -0.5464    0.0000 C   0  0  0  0  0  0  0  0  0  0  0  0
    4.2214    0.0000    0.0000 N   0  0  0  0  0  0  0  0  0  0  0  0
    3.3214   -0.9857    0.0000 C   0  0  0  0  0  0  0  0  0  0  0  0
    3.9964   -2.1429    0.0000 C   0  0  0  0  0  0  0  0  0  0  0  0
    3.3214   -3.2893    0.0000 C   0  0  0  0  0  0  0  0  0  0  0  0
    1.9929   -3.2893    0.0000 C   0  0  0  0  0  0  0  0  0  0  0  0
    1.3286   -4.4465    0.0000 O   0  0  0  0  0  0  0  0  0  0  0  0
    0.0000   -4.4465    0.0000 C   0  0  0  0  0  0  0  0  0  0  0  0
    1.3286   -2.1429    0.0000 C   0  0  0  0  0  0  0  0  0  0  0  0
    1.9929   -0.9857    0.0000 C   0  0  0  0  0  0  0  0  0  0  0  0
  1  2  2  0  0  0  0
  2  3  1  0  0  0  0
  2  4  1  0  0  0  0
  4  5  1  0  0  0  0
  5  6  1  0  0  0  0
  6  7  1  0  0  0  0
  7  8  2  0  0  0  0
  7 11  1  0  0  0  0
  8  9  1  0  0  0  0
  9 10  1  0  0  0  0
 10 11  2  0  0  0  0
 10 17  1  0  0  0  0
 11 12  1  0  0  0  0
 12 13  2  0  0  0  0
 13 14  1  0  0  0  0
 13 16  1  0  0  0  0
 14 15  1  0  0  0  0
 16 17  2  0  0  0  0
M  END
> <ID>
2218

> <Formula>
C13H16N2O2

> <FW>
232.2783

> <DSSTox_CID>
2421

> <DSSTox_RID>
76585

> <DSSTox_GSID>
22421

> <DSSTox_FileID_Sort>
1269

> <TS_ChemName>
Melatonin

> <TS_ChemName_Synonyms>


> <TS_CASRN>
73-31-4

> <CASRN_ChemName_Relationship>
primary

> <TS_Description>
single chemical compound

> <ChemNote>


> <STRUCTURE_Shown>
tested chemical

> <STRUCTURE_Formula>
C13H16N2O2

> <STRUCTURE_MW>
232.2783

> <STRUCTURE_ChemType>
defined organic

> <STRUCTURE_DefinedOrganicForm>
parent

> <STRUCTURE_IUPAC>
N-[2-(5-methoxy-1H-indol-3-yl)ethyl]acetamide

> <STRUCTURE_SMILES>
CC(=O)NCCc2cnc1ccc(cc12)OC

> <STRUCTURE_SMILES_Desalt>
CC(=O)NCCc2cnc1ccc(cc12)OC

> <Substance_modify_yyyymmdd>
20080429

$$$$
