73-49-4
ChemmineR-0914142331XD

 18 19  0  0  0  0  0  0  0  0  1 V2000
    2.3033   -3.3260    0.0000 C    0  0  0  0  0  0  0  0  0  0  0  0
    1.1517   -3.9893    0.0000 Cl   0  0  0  0  0  0  0  0  0  0  0  0
    2.3033   -1.9901    0.0000 C    0  0  0  0  0  0  0  0  0  0  0  0
    1.1517   -1.3267    0.0000 S    0  0  0  0  0  0  0  0  0  0  0  0
    0.0000   -0.6634    0.0000 N    0  0  0  0  0  0  0  0  0  0  0  0
    0.4883   -2.4784    0.0000 O    0  0  0  0  0  0  0  0  0  0  0  0
    1.8150   -0.1751    0.0000 O    0  0  0  0  0  0  0  0  0  0  0  0
    3.4550   -1.3267    0.0000 C    0  0  0  0  0  0  0  0  0  0  0  0
    4.6066   -1.9901    0.0000 C    0  0  0  0  0  0  0  0  0  0  0  0
    4.6066   -3.3260    0.0000 C    0  0  0  0  0  0  0  0  0  0  0  0
    3.4550   -3.9893    0.0000 C    0  0  0  0  0  0  0  0  0  0  0  0
    5.7583   -3.9893    0.0000 N    0  0  0  0  0  0  0  0  0  0  0  0
    6.9099   -3.3260    0.0000 C    0  0  0  0  0  0  0  0  0  0  0  0
    8.0616   -3.9893    0.0000 C    0  0  0  0  0  0  0  0  0  0  0  0
    9.2132   -3.3260    0.0000 C    0  0  0  0  0  0  0  0  0  0  0  0
    6.9099   -1.9901    0.0000 N    0  0  0  0  0  0  0  0  0  0  0  0
    5.7583   -1.3267    0.0000 C    0  0  0  0  0  0  0  0  0  0  0  0
    5.7583    0.0000    0.0000 O    0  0  0  0  0  0  0  0  0  0  0  0
  1  2  1  0  0  0  0
  1  3  2  0  0  0  0
  1 11  1  0  0  0  0
  3  4  1  0  0  0  0
  3  8  1  0  0  0  0
  4  5  1  0  0  0  0
  4  6  2  0  0  0  0
  4  7  2  0  0  0  0
  8  9  2  0  0  0  0
  9 10  1  0  0  0  0
  9 17  1  0  0  0  0
 10 11  2  0  0  0  0
 10 12  1  0  0  0  0
 12 13  1  0  0  0  0
 13 14  1  0  0  0  0
 13 16  1  0  0  0  0
 14 15  1  0  0  0  0
 16 17  1  0  0  0  0
 17 18  2  0  0  0  0
M  END
> <ID>
3175

> <Formula>
C10H12ClN3O3S

> <FW>
289.7386

> <DSSTox_CID>
3548

> <DSSTox_RID>
77074

> <DSSTox_GSID>
23548

> <DSSTox_FileID_Sort>
1757

> <TS_ChemName>
Quinethazone

> <TS_ChemName_Synonyms>
Quinethazone (aquamox)

> <TS_CASRN>
73-49-4

> <CASRN_ChemName_Relationship>
primary

> <TS_Description>
single chemical compound

> <ChemNote>


> <STRUCTURE_Shown>
tested chemical

> <STRUCTURE_Formula>
C10H12ClN3O3S

> <STRUCTURE_MW>
289.7386

> <STRUCTURE_ChemType>
defined organic

> <STRUCTURE_DefinedOrganicForm>
parent

> <STRUCTURE_IUPAC>
7-chloro-2-ethyl-4-oxo-1,2,3,4-tetrahydroquinazoline-6-sulfonamide

> <STRUCTURE_SMILES>
NS(=O)(=O)c1cc2C(=O)NC(Nc2cc1Cl)CC

> <STRUCTURE_SMILES_Desalt>
NS(=O)(=O)c1cc2C(=O)NC(Nc2cc1Cl)CC

> <Substance_modify_yyyymmdd>
20080429

$$$$
