73334-07-3
ChemmineR-0914142331XD

 32 32  0  0  0  0  0  0  0  0  1 V2000
    5.3157   -3.4607    0.0000 C   0  0  0  0  0  0  0  0  0  0  0  0
    5.9838   -2.3038    0.0000 N   0  0  0  0  0  0  0  0  0  0  0  0
    7.3103   -2.3038    0.0000 C   0  0  0  0  0  0  0  0  0  0  0  0
    7.9785   -3.4607    0.0000 O   0  0  0  0  0  0  0  0  0  0  0  0
    7.9785   -1.1569    0.0000 C   0  0  0  0  0  0  0  0  0  0  0  0
    9.3049   -1.1569    0.0000 O   0  0  0  0  0  0  0  0  0  0  0  0
    9.9731    0.0000    0.0000 C   0  0  0  0  0  0  0  0  0  0  0  0
    5.9838   -4.6076    0.0000 C   0  0  0  0  0  0  0  0  0  0  0  0
    7.3103   -4.6076    0.0000 I   0  0  0  0  0  0  0  0  0  0  0  0
    5.3157   -5.7644    0.0000 C   0  0  0  0  0  0  0  0  0  0  0  0
    5.9838   -6.9113    0.0000 C   0  0  0  0  0  0  0  0  0  0  0  0
    5.3157   -8.0682    0.0000 O   0  0  0  0  0  0  0  0  0  0  0  0
    7.3103   -6.9113    0.0000 N   0  0  0  0  0  0  0  0  0  0  0  0
    7.9785   -8.0682    0.0000 C   0  0  0  0  0  0  0  0  0  0  0  0
    9.3049   -8.0682    0.0000 C   0  0  0  0  0  0  0  0  0  0  0  0
    9.9731   -9.2151    0.0000 O   0  0  0  0  0  0  0  0  0  0  0  0
    9.9731   -6.9113    0.0000 C   0  0  0  0  0  0  0  0  0  0  0  0
    9.3049   -5.7644    0.0000 O   0  0  0  0  0  0  0  0  0  0  0  0
    3.9892   -5.7644    0.0000 C   0  0  0  0  0  0  0  0  0  0  0  0
    3.3210   -6.9113    0.0000 I   0  0  0  0  0  0  0  0  0  0  0  0
    3.3210   -4.6076    0.0000 C   0  0  0  0  0  0  0  0  0  0  0  0
    1.9946   -4.6076    0.0000 C   0  0  0  0  0  0  0  0  0  0  0  0
    1.3264   -3.4607    0.0000 O   0  0  0  0  0  0  0  0  0  0  0  0
    1.3264   -5.7644    0.0000 N   0  0  0  0  0  0  0  0  0  0  0  0
    0.0000   -5.7644    0.0000 C   0  0  0  0  0  0  0  0  0  0  0  0
    1.9946   -6.9113    0.0000 C   0  0  0  0  0  0  0  0  0  0  0  0
    1.3264   -8.0682    0.0000 C   0  0  0  0  0  0  0  0  0  0  0  0
    0.0000   -8.0682    0.0000 O   0  0  0  0  0  0  0  0  0  0  0  0
    1.9946   -9.2151    0.0000 C   0  0  0  0  0  0  0  0  0  0  0  0
    3.3210   -9.2151    0.0000 O   0  0  0  0  0  0  0  0  0  0  0  0
    3.9892   -3.4607    0.0000 C   0  0  0  0  0  0  0  0  0  0  0  0
    3.3210   -2.3038    0.0000 I   0  0  0  0  0  0  0  0  0  0  0  0
  1  2  1  0  0  0  0
  1  8  2  0  0  0  0
  1 31  1  0  0  0  0
  2  3  1  0  0  0  0
  3  4  2  0  0  0  0
  3  5  1  0  0  0  0
  5  6  1  0  0  0  0
  6  7  1  0  0  0  0
  8  9  1  0  0  0  0
  8 10  1  0  0  0  0
 10 11  1  0  0  0  0
 10 19  2  0  0  0  0
 11 12  2  0  0  0  0
 11 13  1  0  0  0  0
 13 14  1  0  0  0  0
 14 15  1  0  0  0  0
 15 16  1  0  0  0  0
 15 17  1  0  0  0  0
 17 18  1  0  0  0  0
 19 20  1  0  0  0  0
 19 21  1  0  0  0  0
 21 22  1  0  0  0  0
 21 31  2  0  0  0  0
 22 23  2  0  0  0  0
 22 24  1  0  0  0  0
 24 25  1  0  0  0  0
 24 26  1  0  0  0  0
 26 27  1  0  0  0  0
 27 28  1  0  0  0  0
 27 29  1  0  0  0  0
 29 30  1  0  0  0  0
 31 32  1  0  0  0  0
M  END
> <ID>
2840

> <Formula>
C18H24I3N3O8

> <FW>
791.1119

> <DSSTox_CID>
3163

> <DSSTox_RID>
76898

> <DSSTox_GSID>
23163

> <DSSTox_FileID_Sort>
1582

> <TS_ChemName>
Iopromide

> <TS_ChemName_Synonyms>


> <TS_CASRN>
73334-07-3

> <CASRN_ChemName_Relationship>
primary

> <TS_Description>
single chemical compound

> <ChemNote>
tautomers

> <STRUCTURE_Shown>
tested chemical

> <STRUCTURE_Formula>
C18H24I3N3O8

> <STRUCTURE_MW>
791.1119

> <STRUCTURE_ChemType>
defined organic

> <STRUCTURE_DefinedOrganicForm>
parent

> <STRUCTURE_IUPAC>
N,N'-bis(2,3-dihydroxypropyl)-2,4,6-triiodo-5-[(methoxyacetyl)amino]-N-methylbenzene-1,3-dicarboxamide

> <STRUCTURE_SMILES>
O=C(Nc1c(I)c(c(I)c(c1I)C(=O)N(C)CC(O)CO)C(=O)NCC(O)CO)COC

> <STRUCTURE_SMILES_Desalt>
O=C(Nc1c(I)c(c(I)c(c1I)C(=O)N(C)CC(O)CO)C(=O)NCC(O)CO)COC

> <Substance_modify_yyyymmdd>
20080429

$$$$
