73590-58-6
ChemmineR-0914142331XD

 24 26  0  0  0  0  0  0  0  0  1 V2000
    8.6485   -4.6107    0.0000 O   0  0  0  0  0  0  0  0  0  0  0  0
    7.9919   -3.4650    0.0000 S   0  0  0  0  0  0  0  0  0  0  0  0
    6.6506   -3.4650    0.0000 C   0  0  0  0  0  0  0  0  0  0  0  0
    5.8682   -2.3892    0.0000 N   0  0  0  0  0  0  0  0  0  0  0  0
    4.6107   -2.7944    0.0000 C   0  0  0  0  0  0  0  0  0  0  0  0
    4.6107   -4.1217    0.0000 C   0  0  0  0  0  0  0  0  0  0  0  0
    3.4510   -4.7923    0.0000 C   0  0  0  0  0  0  0  0  0  0  0  0
    2.3053   -4.1217    0.0000 C   0  0  0  0  0  0  0  0  0  0  0  0
    2.3053   -2.7944    0.0000 C   0  0  0  0  0  0  0  0  0  0  0  0
    3.4510   -2.1377    0.0000 C   0  0  0  0  0  0  0  0  0  0  0  0
    1.1457   -2.1377    0.0000 O   0  0  0  0  0  0  0  0  0  0  0  0
    0.0000   -2.7944    0.0000 C   0  0  0  0  0  0  0  0  0  0  0  0
    5.8682   -4.5408    0.0000 N   0  0  0  0  0  0  0  0  0  0  0  0
    8.6485   -2.3053    0.0000 C   0  0  0  0  0  0  0  0  0  0  0  0
    9.9759   -2.3053    0.0000 C   0  0  0  0  0  0  0  0  0  0  0  0
   10.6465   -1.1597    0.0000 C   0  0  0  0  0  0  0  0  0  0  0  0
   11.9738   -1.1597    0.0000 C   0  0  0  0  0  0  0  0  0  0  0  0
   12.6445   -2.3053    0.0000 C   0  0  0  0  0  0  0  0  0  0  0  0
   11.9738   -3.4650    0.0000 C   0  0  0  0  0  0  0  0  0  0  0  0
   10.6465   -3.4650    0.0000 N   0  0  0  0  0  0  0  0  0  0  0  0
   13.9718   -2.3053    0.0000 C   0  0  0  0  0  0  0  0  0  0  0  0
   12.6445    0.0000    0.0000 O   0  0  0  0  0  0  0  0  0  0  0  0
   13.9718    0.0000    0.0000 C   0  0  0  0  0  0  0  0  0  0  0  0
    9.9759    0.0000    0.0000 C   0  0  0  0  0  0  0  0  0  0  0  0
  1  2  2  0  0  0  0
  2  3  1  0  0  0  0
  2 14  1  0  0  0  0
  3  4  2  0  0  0  0
  3 13  1  0  0  0  0
  4  5  1  0  0  0  0
  5  6  2  0  0  0  0
  5 10  1  0  0  0  0
  6  7  1  0  0  0  0
  6 13  1  0  0  0  0
  7  8  2  0  0  0  0
  8  9  1  0  0  0  0
  9 10  2  0  0  0  0
  9 11  1  0  0  0  0
 11 12  1  0  0  0  0
 14 15  1  0  0  0  0
 15 16  2  0  0  0  0
 15 20  1  0  0  0  0
 16 17  1  0  0  0  0
 16 24  1  0  0  0  0
 17 18  2  0  0  0  0
 17 22  1  0  0  0  0
 18 19  1  0  0  0  0
 18 21  1  0  0  0  0
 19 20  2  0  0  0  0
 22 23  1  0  0  0  0
M  END
> <ID>
1040

> <Formula>
C17H19N3O3S

> <FW>
345.4161

> <DSSTox_CID>
1080

> <DSSTox_RID>
75929

> <DSSTox_GSID>
21080

> <DSSTox_FileID_Sort>
613

> <TS_ChemName>
Omeprazole

> <TS_ChemName_Synonyms>


> <TS_CASRN>
73590-58-6

> <CASRN_ChemName_Relationship>
primary

> <TS_Description>
single chemical compound

> <ChemNote>


> <STRUCTURE_Shown>
tested chemical

> <STRUCTURE_Formula>
C17H19N3O3S

> <STRUCTURE_MW>
345.4161

> <STRUCTURE_ChemType>
defined organic

> <STRUCTURE_DefinedOrganicForm>
parent

> <STRUCTURE_IUPAC>
5-methoxy-2-{[(4-methoxy-3,5-dimethylpyridin-2-yl)methyl]sulfinyl}-1H-benzimidazole

> <STRUCTURE_SMILES>
Cc3c(OC)c(C)cnc3CS(=O)c1nc2cc(ccc2n1)OC

> <STRUCTURE_SMILES_Desalt>
Cc3c(OC)c(C)cnc3CS(=O)c1nc2cc(ccc2n1)OC

> <Substance_modify_yyyymmdd>
20080429

$$$$
