74-97-5
ChemmineR-0914142331XD

  3  2  0  0  0  0  0  0  0  0  1 V2000
    2.3030   -0.6656    0.0000 Cl   0  0  0  0  0  0  0  0  0  0  0  0
    1.1515    0.0000    0.0000 C    0  0  0  0  0  0  0  0  0  0  0  0
    0.0000   -0.6656    0.0000 Br   0  0  0  0  0  0  0  0  0  0  0  0
  1  2  1  0  0  0  0
  2  3  1  0  0  0  0
M  END
> <ID>
1443

> <Formula>
CH2BrCl

> <FW>
129.3836

> <DSSTox_CID>
1503

> <DSSTox_RID>
76190

> <DSSTox_GSID>
21503

> <DSSTox_FileID_Sort>
874

> <TS_ChemName>
Bromochloromethane

> <TS_ChemName_Synonyms>
Bromochloromethane (Halon 1011)

> <TS_CASRN>
74-97-5

> <CASRN_ChemName_Relationship>
primary

> <TS_Description>
single chemical compound

> <ChemNote>


> <STRUCTURE_Shown>
tested chemical

> <STRUCTURE_Formula>
CH2BrCl

> <STRUCTURE_MW>
129.3836

> <STRUCTURE_ChemType>
defined organic

> <STRUCTURE_DefinedOrganicForm>
parent

> <STRUCTURE_IUPAC>
bromo(chloro)methane

> <STRUCTURE_SMILES>
BrCCl

> <STRUCTURE_SMILES_Desalt>
BrCCl

> <Substance_modify_yyyymmdd>
20080429

$$$$
