74011-58-8
ChemmineR-0914142331XD

 23 25  0  0  0  0  0  0  0  0  1 V2000
    6.9145   -1.9904    0.0000 C   0  0  0  0  0  0  0  0  0  0  0  0
    8.0652   -1.3269    0.0000 F   0  0  0  0  0  0  0  0  0  0  0  0
    6.9145   -3.3173    0.0000 C   0  0  0  0  0  0  0  0  0  0  0  0
    8.0652   -3.9911    0.0000 N   0  0  0  0  0  0  0  0  0  0  0  0
    9.2158   -3.3173    0.0000 C   0  0  0  0  0  0  0  0  0  0  0  0
   10.3665   -3.9911    0.0000 C   0  0  0  0  0  0  0  0  0  0  0  0
   10.3665   -5.3180    0.0000 N   0  0  0  0  0  0  0  0  0  0  0  0
    9.2158   -5.9815    0.0000 C   0  0  0  0  0  0  0  0  0  0  0  0
    8.0652   -5.3180    0.0000 C   0  0  0  0  0  0  0  0  0  0  0  0
    5.7638   -3.9911    0.0000 N   0  0  0  0  0  0  0  0  0  0  0  0
    4.6027   -3.3173    0.0000 C   0  0  0  0  0  0  0  0  0  0  0  0
    4.6027   -1.9904    0.0000 C   0  0  0  0  0  0  0  0  0  0  0  0
    5.7638   -1.3269    0.0000 C   0  0  0  0  0  0  0  0  0  0  0  0
    3.4521   -1.3269    0.0000 C   0  0  0  0  0  0  0  0  0  0  0  0
    3.4521    0.0000    0.0000 O   0  0  0  0  0  0  0  0  0  0  0  0
    2.3014   -1.9904    0.0000 C   0  0  0  0  0  0  0  0  0  0  0  0
    1.1507   -1.3269    0.0000 C   0  0  0  0  0  0  0  0  0  0  0  0
    0.0000   -1.9904    0.0000 O   0  0  0  0  0  0  0  0  0  0  0  0
    1.1507    0.0000    0.0000 O   0  0  0  0  0  0  0  0  0  0  0  0
    2.3014   -3.3173    0.0000 C   0  0  0  0  0  0  0  0  0  0  0  0
    3.4521   -3.9911    0.0000 N   0  0  0  0  0  0  0  0  0  0  0  0
    3.4521   -5.3180    0.0000 C   0  0  0  0  0  0  0  0  0  0  0  0
    2.3014   -5.9815    0.0000 C   0  0  0  0  0  0  0  0  0  0  0  0
  1  2  1  0  0  0  0
  1  3  2  0  0  0  0
  1 13  1  0  0  0  0
  3  4  1  0  0  0  0
  3 10  1  0  0  0  0
  4  5  1  0  0  0  0
  4  9  1  0  0  0  0
  5  6  1  0  0  0  0
  6  7  1  0  0  0  0
  7  8  1  0  0  0  0
  8  9  1  0  0  0  0
 10 11  2  0  0  0  0
 11 12  1  0  0  0  0
 11 21  1  0  0  0  0
 12 13  2  0  0  0  0
 12 14  1  0  0  0  0
 14 15  2  0  0  0  0
 14 16  1  0  0  0  0
 16 17  1  0  0  0  0
 16 20  2  0  0  0  0
 17 18  1  0  0  0  0
 17 19  2  0  0  0  0
 20 21  1  0  0  0  0
 21 22  1  0  0  0  0
 22 23  1  0  0  0  0
M  END
> <ID>
2686

> <Formula>
C15H17FN4O3

> <FW>
320.3189

> <DSSTox_CID>
2984

> <DSSTox_RID>
76818

> <DSSTox_GSID>
22984

> <DSSTox_FileID_Sort>
1502

> <TS_ChemName>
Enoxacin

> <TS_ChemName_Synonyms>


> <TS_CASRN>
74011-58-8

> <CASRN_ChemName_Relationship>
primary

> <TS_Description>
single chemical compound

> <ChemNote>


> <STRUCTURE_Shown>
tested chemical

> <STRUCTURE_Formula>
C15H17FN4O3

> <STRUCTURE_MW>
320.3189

> <STRUCTURE_ChemType>
defined organic

> <STRUCTURE_DefinedOrganicForm>
parent

> <STRUCTURE_IUPAC>
1-ethyl-6-fluoro-4-oxo-7-(piperazin-1-yl)-1,4-dihydro-1,8-naphthyridine-3-carboxylic acid

> <STRUCTURE_SMILES>
O=C(O)C2=CN(CC)c1nc(c(F)cc1C2=O)N3CCNCC3

> <STRUCTURE_SMILES_Desalt>
O=C(O)C2=CN(CC)c1nc(c(F)cc1C2=O)N3CCNCC3

> <Substance_modify_yyyymmdd>
20080429

$$$$
