7446-08-4
ChemmineR-0914142331XD

  3  2  0  0  0  0  0  0  0  0  1 V2000
     1.338     0.000     0.000 Se   0  0  0  0  0  0  0  0  0  0  0  0
     2.660     0.000     0.000 O    0  0  0  0  0  0  0  0  0  0  0  0
     0.000     0.000     0.000 O    0  0  0  0  0  0  0  0  0  0  0  0
  1  2  2  0  0  0  0
  1  3  2  0  0  0  0
M  END
> <ID>
1215

> <Formula>
O2Se

> <FW>
110.9588

> <DSSTox_CID>
1264

> <DSSTox_RID>
76046

> <DSSTox_GSID>
21264

> <DSSTox_FileID_Sort>
730

> <TS_ChemName>
Selenium dioxide

> <TS_ChemName_Synonyms>


> <TS_CASRN>
7446-08-4

> <CASRN_ChemName_Relationship>
primary

> <TS_Description>
single chemical compound

> <ChemNote>


> <STRUCTURE_Shown>
tested chemical

> <STRUCTURE_Formula>
O2Se

> <STRUCTURE_MW>
110.9588

> <STRUCTURE_ChemType>
inorganic

> <STRUCTURE_DefinedOrganicForm>


> <STRUCTURE_IUPAC>
oxoselane oxide

> <STRUCTURE_SMILES>
O=[SeH2]=O

> <STRUCTURE_SMILES_Desalt>
O=[SeH2]=O

> <Substance_modify_yyyymmdd>
20080429

$$$$
