745-65-3
ChemmineR-0914142331XD

 25 25  0  0  1  0  0  0  0  0  1 V2000
    2.7527  -12.2889    0.0000 O   0  0  0  0  0  0  0  0  0  0  0  0
    2.3349  -11.0231    0.0000 C   0  0  0  0  0  0  0  0  0  0  0  0
    1.0691  -10.6176    0.0000 C   0  0  0  0  0  0  0  0  0  0  0  0
    1.0691   -9.2904    0.0000 C   0  0  0  0  0  0  0  0  0  0  0  0
    0.0000   -8.5039    0.0000 O   0  0  0  0  0  0  0  0  0  0  0  0
    2.3349   -8.8726    0.0000 C   0  0  0  0  0  0  0  0  0  0  0  0
    2.7527   -7.6068    0.0000 C   0  0  0  0  0  0  0  0  0  0  0  0
    1.8065   -6.6729    0.0000 C   0  0  0  0  0  0  0  0  0  0  0  0
    2.1506   -5.3825    0.0000 C   0  0  0  0  0  0  0  0  0  0  0  0
    1.2166   -4.4486    0.0000 C   0  0  0  0  0  0  0  0  0  0  0  0
    1.5607   -3.1582    0.0000 C   0  0  0  0  0  0  0  0  0  0  0  0
    0.6144   -2.2243    0.0000 C   0  0  0  0  0  0  0  0  0  0  0  0
    0.9585   -0.9340    0.0000 C   0  0  0  0  0  0  0  0  0  0  0  0
    0.0246    0.0000    0.0000 O   0  0  0  0  0  0  0  0  0  0  0  0
    2.2489   -0.5899    0.0000 O   0  0  0  0  0  0  0  0  0  0  0  0
    3.1214   -9.9540    0.0000 C   0  0  0  0  0  0  0  0  0  0  0  0
    4.4486   -9.9540    0.0000 C   0  0  0  0  0  0  0  0  0  0  0  0
    5.1122  -11.0969    0.0000 C   0  0  0  0  0  0  0  0  0  0  0  0
    6.4394  -11.0969    0.0000 C   0  0  0  0  0  0  0  0  0  0  0  0
    7.1030  -12.2520    0.0000 O   0  0  0  0  0  0  0  0  0  0  0  0
    7.1030   -9.9540    0.0000 C   0  0  0  0  0  0  0  0  0  0  0  0
    8.4425   -9.9540    0.0000 C   0  0  0  0  0  0  0  0  0  0  0  0
    9.1061   -8.7988    0.0000 C   0  0  0  0  0  0  0  0  0  0  0  0
   10.4333   -8.7988    0.0000 C   0  0  0  0  0  0  0  0  0  0  0  0
   11.0969   -7.6437    0.0000 C   0  0  0  0  0  0  0  0  0  0  0  0
  2  1  1  6  0  0  0
  2  3  1  0  0  0  0
  2 16  1  0  0  0  0
  3  4  1  0  0  0  0
  4  5  2  0  0  0  0
  4  6  1  0  0  0  0
  6  7  1  6  0  0  0
  6 16  1  0  0  0  0
  7  8  1  0  0  0  0
  8  9  1  0  0  0  0
  9 10  1  0  0  0  0
 10 11  1  0  0  0  0
 11 12  1  0  0  0  0
 12 13  1  0  0  0  0
 13 14  1  0  0  0  0
 13 15  2  0  0  0  0
 16 17  1  1  0  0  0
 17 18  2  0  0  0  0
 18 19  1  0  0  0  0
 19 20  1  6  0  0  0
 19 21  1  0  0  0  0
 21 22  1  0  0  0  0
 22 23  1  0  0  0  0
 23 24  1  0  0  0  0
 24 25  1  0  0  0  0
M  END
> <ID>
2337

> <Formula>
C20H34O5

> <FW>
354.481

> <DSSTox_CID>
2578

> <DSSTox_RID>
76640

> <DSSTox_GSID>
22578

> <DSSTox_FileID_Sort>
1324

> <TS_ChemName>
Alprostadil

> <TS_ChemName_Synonyms>


> <TS_CASRN>
745-65-3

> <CASRN_ChemName_Relationship>
primary

> <TS_Description>
single chemical compound

> <ChemNote>
stereochem

> <STRUCTURE_Shown>
tested chemical

> <STRUCTURE_Formula>
C20H34O5

> <STRUCTURE_MW>
354.481

> <STRUCTURE_ChemType>
defined organic

> <STRUCTURE_DefinedOrganicForm>
parent

> <STRUCTURE_IUPAC>
(11alpha,13E,15S)-11,15-dihydroxy-9-oxoprost-13-en-1-oic acid

> <STRUCTURE_SMILES>
O[C@@H]1CC(=O)[C@H](CCCCCCC(=O)O)[C@H]1/C=C/[C@@H](O)CCCCC

> <STRUCTURE_SMILES_Desalt>
O[C@@H]1CC(=O)[C@H](CCCCCCC(=O)O)[C@H]1/C=C/[C@@H](O)CCCCC

> <Substance_modify_yyyymmdd>
20080429

$$$$
