75-09-2
ChemmineR-0914142331XD

  3  2  0  0  0  0  0  0  0  0  1 V2000
    2.3030   -0.6656    0.0000 Cl   0  0  0  0  0  0  0  0  0  0  0  0
    1.1515    0.0000    0.0000 C    0  0  0  0  0  0  0  0  0  0  0  0
    0.0000   -0.6656    0.0000 Cl   0  0  0  0  0  0  0  0  0  0  0  0
  1  2  1  0  0  0  0
  2  3  1  0  0  0  0
M  END
> <ID>
834

> <Formula>
CH2Cl2

> <FW>
84.9326

> <DSSTox_CID>
868

> <DSSTox_RID>
75836

> <DSSTox_GSID>
20868

> <DSSTox_FileID_Sort>
520

> <TS_ChemName>
Dichloromethane

> <TS_ChemName_Synonyms>
Methylene chloride; Methane, dichloro-

> <TS_CASRN>
75-09-2

> <CASRN_ChemName_Relationship>
primary

> <TS_Description>
single chemical compound

> <ChemNote>


> <STRUCTURE_Shown>
tested chemical

> <STRUCTURE_Formula>
CH2Cl2

> <STRUCTURE_MW>
84.9326

> <STRUCTURE_ChemType>
defined organic

> <STRUCTURE_DefinedOrganicForm>
parent

> <STRUCTURE_IUPAC>
dichloromethane

> <STRUCTURE_SMILES>
ClCCl

> <STRUCTURE_SMILES_Desalt>
ClCCl

> <Substance_modify_yyyymmdd>
20080429

$$$$
