75-27-4
ChemmineR-0914142331XD

  4  3  0  0  0  0  0  0  0  0  1 V2000
    1.9950    0.0000    0.0000 Cl   0  0  0  0  0  0  0  0  0  0  0  0
    1.3292   -1.1518    0.0000 C    0  0  0  0  0  0  0  0  0  0  0  0
    1.9950   -2.3037    0.0000 Cl   0  0  0  0  0  0  0  0  0  0  0  0
    0.0000   -1.1518    0.0000 Br   0  0  0  0  0  0  0  0  0  0  0  0
  1  2  1  0  0  0  0
  2  3  1  0  0  0  0
  2  4  1  0  0  0  0
M  END
> <ID>
194

> <Formula>
CHBrCl2

> <FW>
163.8286

> <DSSTox_CID>
198

> <DSSTox_RID>
75427

> <DSSTox_GSID>
20198

> <DSSTox_FileID_Sort>
111

> <TS_ChemName>
Bromodichloromethane

> <TS_ChemName_Synonyms>
Dichlorobromomethane

> <TS_CASRN>
75-27-4

> <CASRN_ChemName_Relationship>
primary

> <TS_Description>
single chemical compound

> <ChemNote>


> <STRUCTURE_Shown>
tested chemical

> <STRUCTURE_Formula>
CHBrCl2

> <STRUCTURE_MW>
163.8286

> <STRUCTURE_ChemType>
defined organic

> <STRUCTURE_DefinedOrganicForm>
parent

> <STRUCTURE_IUPAC>
bromo(dichloro)methane

> <STRUCTURE_SMILES>
BrC(Cl)Cl

> <STRUCTURE_SMILES_Desalt>
BrC(Cl)Cl

> <Substance_modify_yyyymmdd>
20080429

$$$$
