75-25-2
ChemmineR-0914142331XD

  4  3  0  0  0  0  0  0  0  0  1 V2000
    1.3292   -1.1518    0.0000 C    0  0  0  0  0  0  0  0  0  0  0  0
    1.9950    0.0000    0.0000 Br   0  0  0  0  0  0  0  0  0  0  0  0
    1.9950   -2.3037    0.0000 Br   0  0  0  0  0  0  0  0  0  0  0  0
    0.0000   -1.1518    0.0000 Br   0  0  0  0  0  0  0  0  0  0  0  0
  1  2  1  0  0  0  0
  1  3  1  0  0  0  0
  1  4  1  0  0  0  0
M  END
> <ID>
1320

> <Formula>
CHBr3

> <FW>
252.7306

> <DSSTox_CID>
1374

> <DSSTox_RID>
76118

> <DSSTox_GSID>
21374

> <DSSTox_FileID_Sort>
802

> <TS_ChemName>
Bromoform

> <TS_ChemName_Synonyms>
Tribromomethane

> <TS_CASRN>
75-25-2

> <CASRN_ChemName_Relationship>
primary

> <TS_Description>
single chemical compound

> <ChemNote>


> <STRUCTURE_Shown>
tested chemical

> <STRUCTURE_Formula>
CHBr3

> <STRUCTURE_MW>
252.7306

> <STRUCTURE_ChemType>
defined organic

> <STRUCTURE_DefinedOrganicForm>
parent

> <STRUCTURE_IUPAC>
tribromomethane

> <STRUCTURE_SMILES>
BrC(Br)Br

> <STRUCTURE_SMILES_Desalt>
BrC(Br)Br

> <Substance_modify_yyyymmdd>
20080429

$$$$
