75-34-3
ChemmineR-0914142331XD

  4  3  0  0  0  0  0  0  0  0  1 V2000
    1.9950    0.0000    0.0000 C    0  0  0  0  0  0  0  0  0  0  0  0
    1.3292   -1.1518    0.0000 C    0  0  0  0  0  0  0  0  0  0  0  0
    1.9950   -2.3037    0.0000 Cl   0  0  0  0  0  0  0  0  0  0  0  0
    0.0000   -1.1518    0.0000 Cl   0  0  0  0  0  0  0  0  0  0  0  0
  1  2  1  0  0  0  0
  2  3  1  0  0  0  0
  2  4  1  0  0  0  0
M  END
> <ID>
421

> <Formula>
C2H4Cl2

> <FW>
98.9592

> <DSSTox_CID>
437

> <DSSTox_RID>
75586

> <DSSTox_GSID>
20437

> <DSSTox_FileID_Sort>
270

> <TS_ChemName>
1,1-Dichloroethane

> <TS_ChemName_Synonyms>


> <TS_CASRN>
75-34-3

> <CASRN_ChemName_Relationship>
primary

> <TS_Description>
single chemical compound

> <ChemNote>


> <STRUCTURE_Shown>
tested chemical

> <STRUCTURE_Formula>
C2H4Cl2

> <STRUCTURE_MW>
98.9592

> <STRUCTURE_ChemType>
defined organic

> <STRUCTURE_DefinedOrganicForm>
parent

> <STRUCTURE_IUPAC>
1,1-dichloroethane

> <STRUCTURE_SMILES>
CC(Cl)Cl

> <STRUCTURE_SMILES_Desalt>
CC(Cl)Cl

> <Substance_modify_yyyymmdd>
20080429

$$$$
