75-47-8
ChemmineR-0914142331XD

  4  3  0  0  0  0  0  0  0  0  1 V2000
    1.9950    0.0000    0.0000 I   0  0  0  0  0  0  0  0  0  0  0  0
    1.3292   -1.1518    0.0000 C   0  0  0  0  0  0  0  0  0  0  0  0
    1.9950   -2.3037    0.0000 I   0  0  0  0  0  0  0  0  0  0  0  0
    0.0000   -1.1518    0.0000 I   0  0  0  0  0  0  0  0  0  0  0  0
  1  2  1  0  0  0  0
  2  3  1  0  0  0  0
  2  4  1  0  0  0  0
M  END
> <ID>
713

> <Formula>
CHI3

> <FW>
393.7321

> <DSSTox_CID>
743

> <DSSTox_RID>
75765

> <DSSTox_GSID>
20743

> <DSSTox_FileID_Sort>
449

> <TS_ChemName>
Iodoform

> <TS_ChemName_Synonyms>


> <TS_CASRN>
75-47-8

> <CASRN_ChemName_Relationship>
primary

> <TS_Description>
single chemical compound

> <ChemNote>


> <STRUCTURE_Shown>
tested chemical

> <STRUCTURE_Formula>
CHI3

> <STRUCTURE_MW>
393.7321

> <STRUCTURE_ChemType>
defined organic

> <STRUCTURE_DefinedOrganicForm>
parent

> <STRUCTURE_IUPAC>
triiodomethane

> <STRUCTURE_SMILES>
IC(I)I

> <STRUCTURE_SMILES_Desalt>
IC(I)I

> <Substance_modify_yyyymmdd>
20080429

$$$$
