75-57-0
ChemmineR-0914142331XD

  6  4  0  0  0  0  0  0  0  0  2 V2000
     2.660    -1.332     0.000 N    0  3  0  0  0  0  0  0  0  0  0  0
     2.660    -2.660     0.000 C    0  0  0  0  0  0  0  0  0  0  0  0
     1.328    -1.332     0.000 C    0  0  0  0  0  0  0  0  0  0  0  0
     2.660     0.000     0.000 C    0  0  0  0  0  0  0  0  0  0  0  0
     3.988    -1.332     0.000 C    0  0  0  0  0  0  0  0  0  0  0  0
     0.000    -1.332     0.000 Cl   0  5  0  0  0  0  0  0  0  0  0  0
  1  2  1  0  0  0  0
  1  3  1  0  0  0  0
  1  4  1  0  0  0  0
  1  5  1  0  0  0  0
M  END
> <ID>
1663

> <Formula>
C4H12ClN

> <FW>
109.5978 (74.1442+35.4535)

> <DSSTox_CID>
1749

> <DSSTox_RID>
76303

> <DSSTox_GSID>
21749

> <DSSTox_FileID_Sort>
987

> <TS_ChemName>
Tetramethylammonium chloride

> <TS_ChemName_Synonyms>
Tetramethylammonium chloride (methanaminium, N,N,N-trimethyl-, chloride)

> <TS_CASRN>
75-57-0

> <CASRN_ChemName_Relationship>
primary

> <TS_Description>
single chemical compound

> <ChemNote>
ammonium; parent [51-92-3]

> <STRUCTURE_Shown>
tested chemical

> <STRUCTURE_Formula>
C4H12ClN

> <STRUCTURE_MW>
109.5978

> <STRUCTURE_ChemType>
defined organic

> <STRUCTURE_DefinedOrganicForm>
salt

> <STRUCTURE_IUPAC>
N,N,N-trimethylmethanaminium chloride

> <STRUCTURE_SMILES>
[Cl-].C[N+](C)(C)C

> <STRUCTURE_SMILES_Desalt>
C[N+](C)(C)C

> <Substance_modify_yyyymmdd>
20080429

$$$$
