75-52-5
ChemmineR-0914142331XD

  4  3  0  0  0  0  0  0  0  0  2 V2000
    0.0000   -1.1505    0.0000 C   0  0  0  0  0  0  0  0  0  0  0  0
    1.3323   -1.1505    0.0000 N   0  3  0  0  0  0  0  0  0  0  0  0
    1.9973    0.0000    0.0000 O   0  0  0  0  0  0  0  0  0  0  0  0
    1.9973   -2.3010    0.0000 O   0  5  0  0  0  0  0  0  0  0  0  0
  1  2  1  0  0  0  0
  2  3  2  0  0  0  0
  2  4  1  0  0  0  0
M  END
> <ID>
941

> <Formula>
CH3NO2

> <FW>
61.04

> <DSSTox_CID>
977

> <DSSTox_RID>
75900

> <DSSTox_GSID>
20977

> <DSSTox_FileID_Sort>
584

> <TS_ChemName>
Nitromethane

> <TS_ChemName_Synonyms>


> <TS_CASRN>
75-52-5

> <CASRN_ChemName_Relationship>
primary

> <TS_Description>
single chemical compound

> <ChemNote>


> <STRUCTURE_Shown>
tested chemical

> <STRUCTURE_Formula>
CH3NO2

> <STRUCTURE_MW>
61.04

> <STRUCTURE_ChemType>
defined organic

> <STRUCTURE_DefinedOrganicForm>
parent

> <STRUCTURE_IUPAC>
nitromethane

> <STRUCTURE_SMILES>
[O-][N+](C)=O

> <STRUCTURE_SMILES_Desalt>
[O-][N+](C)=O

> <Substance_modify_yyyymmdd>
20080429

$$$$
