75-89-8
ChemmineR-0914142331XD

  6  5  0  0  0  0  0  0  0  0  1 V2000
    1.1503   -1.1537    0.0000 C   0  0  0  0  0  0  0  0  0  0  0  0
    0.4870    0.0000    0.0000 F   0  0  0  0  0  0  0  0  0  0  0  0
    1.8169   -2.3040    0.0000 F   0  0  0  0  0  0  0  0  0  0  0  0
    0.0000   -1.8169    0.0000 F   0  0  0  0  0  0  0  0  0  0  0  0
    2.3040   -0.4870    0.0000 C   0  0  0  0  0  0  0  0  0  0  0  0
    3.4542   -1.1537    0.0000 O   0  0  0  0  0  0  0  0  0  0  0  0
  1  2  1  0  0  0  0
  1  3  1  0  0  0  0
  1  4  1  0  0  0  0
  1  5  1  0  0  0  0
  5  6  1  0  0  0  0
M  END
> <ID>
1664

> <Formula>
C2H3F3O

> <FW>
100.0398

> <DSSTox_CID>
1751

> <DSSTox_RID>
76304

> <DSSTox_GSID>
21751

> <DSSTox_FileID_Sort>
988

> <TS_ChemName>
2,2,2-Trifluoroethanol

> <TS_ChemName_Synonyms>
2,2,2-Trifluoroethanol (ethanol, 2,2,2-trifluoro-)

> <TS_CASRN>
75-89-8

> <CASRN_ChemName_Relationship>
primary

> <TS_Description>
single chemical compound

> <ChemNote>


> <STRUCTURE_Shown>
tested chemical

> <STRUCTURE_Formula>
C2H3F3O

> <STRUCTURE_MW>
100.0398

> <STRUCTURE_ChemType>
defined organic

> <STRUCTURE_DefinedOrganicForm>
parent

> <STRUCTURE_IUPAC>
2,2,2-trifluoroethanol

> <STRUCTURE_SMILES>
FC(F)(F)CO

> <STRUCTURE_SMILES_Desalt>
FC(F)(F)CO

> <Substance_modify_yyyymmdd>
20080429

$$$$
