75-96-7
ChemmineR-0914142331XD

  7  6  0  0  0  0  0  0  0  0  1 V2000
    0.1796    0.0000    0.0000 O    0  0  0  0  0  0  0  0  0  0  0  0
    1.3304   -0.6652    0.0000 C    0  0  0  0  0  0  0  0  0  0  0  0
    1.3304   -1.9956    0.0000 C    0  0  0  0  0  0  0  0  0  0  0  0
    2.6608   -1.9956    0.0000 Br   0  0  0  0  0  0  0  0  0  0  0  0
    1.3304   -3.3260    0.0000 Br   0  0  0  0  0  0  0  0  0  0  0  0
    0.0000   -1.9956    0.0000 Br   0  0  0  0  0  0  0  0  0  0  0  0
    2.4812    0.0000    0.0000 O    0  0  0  0  0  0  0  0  0  0  0  0
  1  2  1  0  0  0  0
  2  3  1  0  0  0  0
  2  7  2  0  0  0  0
  3  4  1  0  0  0  0
  3  5  1  0  0  0  0
  3  6  1  0  0  0  0
M  END
> <ID>
1605

> <Formula>
C2HBr3O2

> <FW>
296.7401

> <DSSTox_CID>
1668

> <DSSTox_RID>
76276

> <DSSTox_GSID>
21668

> <DSSTox_FileID_Sort>
960

> <TS_ChemName>
Tribromoacetic acid

> <TS_ChemName_Synonyms>


> <TS_CASRN>
75-96-7

> <CASRN_ChemName_Relationship>
primary

> <TS_Description>
single chemical compound

> <ChemNote>


> <STRUCTURE_Shown>
tested chemical

> <STRUCTURE_Formula>
C2HBr3O2

> <STRUCTURE_MW>
296.7401

> <STRUCTURE_ChemType>
defined organic

> <STRUCTURE_DefinedOrganicForm>
parent

> <STRUCTURE_IUPAC>
tribromoacetic acid

> <STRUCTURE_SMILES>
BrC(Br)(Br)C(=O)O

> <STRUCTURE_SMILES_Desalt>
BrC(Br)(Br)C(=O)O

> <Substance_modify_yyyymmdd>
20080429

$$$$
