75330-75-5
ChemmineR-0914142331XD

 30 32  0  0  1  0  0  0  0  0  1 V2000
    5.7467   -7.9746    0.0000 C   0  0  0  0  0  0  0  0  0  0  0  0
    5.7467   -6.6629    0.0000 C   0  0  0  0  0  0  0  0  0  0  0  0
    4.6120   -5.9966    0.0000 C   0  0  0  0  0  0  0  0  0  0  0  0
    9.2239   -0.6871    0.0000 C   0  0  0  0  0  0  0  0  0  0  0  0
    3.4564   -4.0081    0.0000 C   0  0  0  0  0  0  0  0  0  0  0  0
    6.9231   -8.6305    0.0000 C   0  0  0  0  0  0  0  0  0  0  0  0
    4.6120   -8.6305    0.0000 C   0  0  0  0  0  0  0  0  0  0  0  0
    4.6120   -4.6640    0.0000 O   0  0  0  0  0  0  0  0  0  0  0  0
    6.9231   -5.9966    0.0000 C   0  0  0  0  0  0  0  0  0  0  0  0
    9.2239   -1.9989    0.0000 O   0  0  0  0  0  0  0  0  0  0  0  0
    8.0683   -7.9746    0.0000 C   0  0  0  0  0  0  0  0  0  0  0  0
    8.0683   -0.0312    0.0000 C   0  0  0  0  0  0  0  0  0  0  0  0
    6.9231   -4.6640    0.0000 C   0  0  0  0  0  0  0  0  0  0  0  0
    3.4564   -6.6837    0.0000 C   0  0  0  0  0  0  0  0  0  0  0  0
    8.0683   -6.6525    0.0000 C   0  0  0  0  0  0  0  0  0  0  0  0
    8.0683   -2.6652    0.0000 C   0  0  0  0  0  0  0  0  0  0  0  0
    3.4564   -2.6652    0.0000 O   0  0  0  0  0  0  0  0  0  0  0  0
    6.9231   -0.6871    0.0000 C   0  0  0  0  0  0  0  0  0  0  0  0
   10.4107   -0.0208    0.0000 O   0  0  0  0  0  0  0  0  0  0  0  0
    3.4564   -7.9955    0.0000 C   0  0  0  0  0  0  0  0  0  0  0  0
    6.9231   -1.9989    0.0000 C   0  0  0  0  0  0  0  0  0  0  0  0
    2.3112   -4.6744    0.0000 C   0  0  0  0  0  0  0  0  0  0  0  0
    8.0683   -4.0081    0.0000 C   0  0  0  0  0  0  0  0  0  0  0  0
    5.7467    0.0000    0.0000 O   0  0  0  0  0  0  0  0  0  0  0  0
    9.2239   -5.9758    0.0000 C   0  0  0  0  0  0  0  0  0  0  0  0
    2.3112   -8.6826    0.0000 C   0  0  0  0  0  0  0  0  0  0  0  0
    1.1556   -4.0185    0.0000 C   0  0  0  0  0  0  0  0  0  0  0  0
    2.3112   -6.0070    0.0000 C   0  0  0  0  0  0  0  0  0  0  0  0
    0.0000   -4.6952    0.0000 C   0  0  0  0  0  0  0  0  0  0  0  0
    5.7467   -5.3303    0.0000 H   0  0  0  0  0  0  0  0  0  0  0  0
  1  2  1  0  0  0  0
  1  6  1  0  0  0  0
  1  7  2  0  0  0  0
  2  3  1  0  0  0  0
  2  9  1  0  0  0  0
  2 30  1  1  0  0  0
  3  8  1  6  0  0  0
  3 14  1  0  0  0  0
  4 10  1  0  0  0  0
  4 19  2  0  0  0  0
  4 12  1  0  0  0  0
  5  8  1  0  0  0  0
  5 17  2  0  0  0  0
  5 22  1  0  0  0  0
  6 11  2  0  0  0  0
  7 20  1  0  0  0  0
  9 13  1  1  0  0  0
  9 15  1  0  0  0  0
 10 16  1  0  0  0  0
 11 15  1  0  0  0  0
 12 18  1  0  0  0  0
 13 23  1  0  0  0  0
 14 20  1  0  0  0  0
 15 25  1  1  0  0  0
 16 23  1  6  0  0  0
 16 21  1  0  0  0  0
 18 21  1  0  0  0  0
 18 24  1  1  0  0  0
 20 26  1  6  0  0  0
 22 27  1  0  0  0  0
 22 28  1  1  0  0  0
 27 29  1  0  0  0  0
M  END
> <ID>
752

> <Formula>
C24H36O5

> <FW>
404.5396

> <DSSTox_CID>
784

> <DSSTox_RID>
75788

> <DSSTox_GSID>
20784

> <DSSTox_FileID_Sort>
472

> <TS_ChemName>
Lovastatin

> <TS_ChemName_Synonyms>
Mevinolin

> <TS_CASRN>
75330-75-5

> <CASRN_ChemName_Relationship>
primary

> <TS_Description>
single chemical compound

> <ChemNote>
stereochem

> <STRUCTURE_Shown>
tested chemical

> <STRUCTURE_Formula>
C24H36O5

> <STRUCTURE_MW>
404.5396

> <STRUCTURE_ChemType>
defined organic

> <STRUCTURE_DefinedOrganicForm>
parent

> <STRUCTURE_IUPAC>
(1S,3R,7S,8S,8aR)-8-{2-[(2R,4R)-4-hydroxy-6-oxotetrahydro-2H-pyran-2-yl]ethyl}-3,7-dimethyl-1,2,3,7,8,8a-hexahydronaphthalen-1-yl (2S)-2-methylbutanoate

> <STRUCTURE_SMILES>
C[C@@H](CC)C(=O)O[C@H]2C[C@@H](C)C=C3C=C[C@H](C)[C@H](CC[C@@H]1C[C@@H](O)CC(=O)O1)[C@@H]23

> <STRUCTURE_SMILES_Desalt>
C[C@@H](CC)C(=O)O[C@H]2C[C@@H](C)C=C3C=C[C@H](C)[C@H](CC[C@@H]1C[C@@H](O)CC(=O)O1)[C@@H]23

> <Substance_modify_yyyymmdd>
20080429

$$$$
