75706-12-6
ChemmineR-0914142331XD

 19 20  0  0  0  0  0  0  0  0  1 V2000
    8.6509   -1.1549    0.0000 C   0  0  0  0  0  0  0  0  0  0  0  0
    7.3142   -1.1549    0.0000 C   0  0  0  0  0  0  0  0  0  0  0  0
    6.6513    0.0000    0.0000 O   0  0  0  0  0  0  0  0  0  0  0  0
    6.6513   -2.3098    0.0000 N   0  0  0  0  0  0  0  0  0  0  0  0
    5.3253   -2.3098    0.0000 C   0  0  0  0  0  0  0  0  0  0  0  0
    4.6516   -3.4539    0.0000 C   0  0  0  0  0  0  0  0  0  0  0  0
    3.3256   -3.4539    0.0000 C   0  0  0  0  0  0  0  0  0  0  0  0
    2.6626   -2.3098    0.0000 C   0  0  0  0  0  0  0  0  0  0  0  0
    1.3260   -2.3098    0.0000 C   0  0  0  0  0  0  0  0  0  0  0  0
    1.3260   -0.9731    0.0000 F   0  0  0  0  0  0  0  0  0  0  0  0
    1.3260   -3.6357    0.0000 F   0  0  0  0  0  0  0  0  0  0  0  0
    0.0000   -2.3098    0.0000 F   0  0  0  0  0  0  0  0  0  0  0  0
    3.3256   -1.1549    0.0000 C   0  0  0  0  0  0  0  0  0  0  0  0
    4.6516   -1.1549    0.0000 C   0  0  0  0  0  0  0  0  0  0  0  0
    9.4315   -0.0749    0.0000 C   0  0  0  0  0  0  0  0  0  0  0  0
   10.6933   -0.4919    0.0000 N   0  0  0  0  0  0  0  0  0  0  0  0
   10.6933   -1.8179    0.0000 O   0  0  0  0  0  0  0  0  0  0  0  0
    9.4315   -2.2349    0.0000 C   0  0  0  0  0  0  0  0  0  0  0  0
    9.0145   -3.4967    0.0000 C   0  0  0  0  0  0  0  0  0  0  0  0
  1  2  1  0  0  0  0
  1 15  1  0  0  0  0
  1 18  2  0  0  0  0
  2  3  2  0  0  0  0
  2  4  1  0  0  0  0
  4  5  1  0  0  0  0
  5  6  2  0  0  0  0
  5 14  1  0  0  0  0
  6  7  1  0  0  0  0
  7  8  2  0  0  0  0
  8  9  1  0  0  0  0
  8 13  1  0  0  0  0
  9 10  1  0  0  0  0
  9 11  1  0  0  0  0
  9 12  1  0  0  0  0
 13 14  2  0  0  0  0
 15 16  2  0  0  0  0
 16 17  1  0  0  0  0
 17 18  1  0  0  0  0
 18 19  1  0  0  0  0
M  END
> <ID>
2877

> <Formula>
C12H9F3N2O2

> <FW>
270.2073

> <DSSTox_CID>
3201

> <DSSTox_RID>
76923

> <DSSTox_GSID>
23201

> <DSSTox_FileID_Sort>
1607

> <TS_ChemName>
Leflunomide

> <TS_ChemName_Synonyms>


> <TS_CASRN>
75706-12-6

> <CASRN_ChemName_Relationship>
primary

> <TS_Description>
single chemical compound

> <ChemNote>


> <STRUCTURE_Shown>
tested chemical

> <STRUCTURE_Formula>
C12H9F3N2O2

> <STRUCTURE_MW>
270.2073

> <STRUCTURE_ChemType>
defined organic

> <STRUCTURE_DefinedOrganicForm>
parent

> <STRUCTURE_IUPAC>
5-methyl-N-[4-(trifluoromethyl)phenyl]-1,2-oxazole-4-carboxamide

> <STRUCTURE_SMILES>
Cc2oncc2C(=O)Nc1ccc(cc1)C(F)(F)F

> <STRUCTURE_SMILES_Desalt>
Cc2oncc2C(=O)Nc1ccc(cc1)C(F)(F)F

> <Substance_modify_yyyymmdd>
20080429

$$$$
