75847-73-3
ChemmineR-0914142331XD

 27 28  0  0  1  0  0  0  0  0  1 V2000
    1.6269   -6.7384    0.0000 O   0  0  0  0  0  0  0  0  0  0  0  0
    1.2870   -5.4515    0.0000 C   0  0  0  0  0  0  0  0  0  0  0  0
    0.0000   -5.1115    0.0000 O   0  0  0  0  0  0  0  0  0  0  0  0
    2.1733   -4.4680    0.0000 C   0  0  0  0  0  0  0  0  0  0  0  0
    1.8940   -3.1689    0.0000 C   0  0  0  0  0  0  0  0  0  0  0  0
    3.0475   -2.5011    0.0000 C   0  0  0  0  0  0  0  0  0  0  0  0
    4.0431   -3.3874    0.0000 C   0  0  0  0  0  0  0  0  0  0  0  0
    3.4967   -4.6016    0.0000 N   0  0  0  0  0  0  0  0  0  0  0  0
    4.1645   -5.7550    0.0000 C   0  0  0  0  0  0  0  0  0  0  0  0
    3.4967   -6.9084    0.0000 O   0  0  0  0  0  0  0  0  0  0  0  0
    5.4879   -5.7550    0.0000 C   0  0  0  0  0  0  0  0  0  0  0  0
    6.1556   -6.9084    0.0000 C   0  0  0  0  0  0  0  0  0  0  0  0
    6.1556   -4.6016    0.0000 N   0  0  0  0  0  0  0  0  0  0  0  0
    7.4912   -4.6016    0.0000 C   0  0  0  0  0  0  0  0  0  0  0  0
    8.1468   -3.4481    0.0000 C   0  0  0  0  0  0  0  0  0  0  0  0
    9.4824   -3.4481    0.0000 C   0  0  0  0  0  0  0  0  0  0  0  0
   10.1501   -2.3069    0.0000 C   0  0  0  0  0  0  0  0  0  0  0  0
    9.4824   -1.1534    0.0000 C   0  0  0  0  0  0  0  0  0  0  0  0
   10.1501    0.0000    0.0000 C   0  0  0  0  0  0  0  0  0  0  0  0
   11.4735    0.0000    0.0000 C   0  0  0  0  0  0  0  0  0  0  0  0
   12.1413   -1.1534    0.0000 C   0  0  0  0  0  0  0  0  0  0  0  0
   11.4735   -2.3069    0.0000 C   0  0  0  0  0  0  0  0  0  0  0  0
    8.1468   -5.7550    0.0000 C   0  0  0  0  0  0  0  0  0  0  0  0
    7.4912   -6.9084    0.0000 O   0  0  0  0  0  0  0  0  0  0  0  0
    9.4824   -5.7550    0.0000 O   0  0  0  0  0  0  0  0  0  0  0  0
   10.1501   -6.9084    0.0000 C   0  0  0  0  0  0  0  0  0  0  0  0
   11.4735   -6.9084    0.0000 C   0  0  0  0  0  0  0  0  0  0  0  0
  1  2  2  0  0  0  0
  2  3  1  0  0  0  0
  4  2  1  6  0  0  0
  4  5  1  0  0  0  0
  4  8  1  0  0  0  0
  5  6  1  0  0  0  0
  6  7  1  0  0  0  0
  7  8  1  0  0  0  0
  8  9  1  0  0  0  0
  9 10  2  0  0  0  0
  9 11  1  0  0  0  0
 11 12  1  1  0  0  0
 11 13  1  0  0  0  0
 14 13  1  1  0  0  0
 14 15  1  0  0  0  0
 14 23  1  0  0  0  0
 15 16  1  0  0  0  0
 16 17  1  0  0  0  0
 17 18  2  0  0  0  0
 17 22  1  0  0  0  0
 18 19  1  0  0  0  0
 19 20  2  0  0  0  0
 20 21  1  0  0  0  0
 21 22  2  0  0  0  0
 23 24  2  0  0  0  0
 23 25  1  0  0  0  0
 25 26  1  0  0  0  0
 26 27  1  0  0  0  0
M  END
> <ID>
2684

> <Formula>
C20H28N2O5

> <FW>
376.4467

> <DSSTox_CID>
2982

> <DSSTox_RID>
76817

> <DSSTox_GSID>
22982

> <DSSTox_FileID_Sort>
1501

> <TS_ChemName>
Enalapril

> <TS_ChemName_Synonyms>


> <TS_CASRN>
75847-73-3

> <CASRN_ChemName_Relationship>
primary

> <TS_Description>
single chemical compound

> <ChemNote>
stereochem

> <STRUCTURE_Shown>
tested chemical

> <STRUCTURE_Formula>
C20H28N2O5

> <STRUCTURE_MW>
376.4467

> <STRUCTURE_ChemType>
defined organic

> <STRUCTURE_DefinedOrganicForm>
parent

> <STRUCTURE_IUPAC>
N-[(2S)-1-ethoxy-1-oxo-4-phenylbutan-2-yl]-L-alanyl-L-proline

> <STRUCTURE_SMILES>
OC(=O)[C@@H]2CCCN2C(=O)[C@H](C)N[C@@H](CCc1ccccc1)C(=O)OCC

> <STRUCTURE_SMILES_Desalt>
OC(=O)[C@@H]2CCCN2C(=O)[C@H](C)N[C@@H](CCc1ccccc1)C(=O)OCC

> <Substance_modify_yyyymmdd>
20080429

$$$$
