7585-39-9
ChemmineR-0914142331XD

 77 84  0  0  1  0  0  0  0  0  1 V2000
    7.1750   -1.8934    0.0000 C   0  0  0  0  0  0  0  0  0  0  0  0
    7.1750   -3.2055    0.0000 O   0  0  0  0  0  0  0  0  0  0  0  0
    6.0788   -1.2789    0.0000 C   0  0  0  0  0  0  0  0  0  0  0  0
    6.0788   -3.8532    0.0000 C   0  0  0  0  0  0  0  0  0  0  0  0
    4.9826   -1.8934    0.0000 C   0  0  0  0  0  0  0  0  0  0  0  0
    4.9826   -3.2055    0.0000 C   0  0  0  0  0  0  0  0  0  0  0  0
    8.3044   -1.2789    0.0000 O   0  0  0  0  0  0  0  0  0  0  0  0
    9.4005   -1.9432    0.0000 C   0  0  0  0  0  0  0  0  0  0  0  0
    8.3044   -3.8532    0.0000 C   0  0  0  0  0  0  0  0  0  0  0  0
    9.4005   -3.2055    0.0000 C   0  0  0  0  0  0  0  0  0  0  0  0
   10.5299   -1.2789    0.0000 C   0  0  0  0  0  0  0  0  0  0  0  0
   11.6261   -1.9432    0.0000 C   0  0  0  0  0  0  0  0  0  0  0  0
   10.5299   -3.8532    0.0000 O   0  0  0  0  0  0  0  0  0  0  0  0
   11.6261   -3.2055    0.0000 C   0  0  0  0  0  0  0  0  0  0  0  0
    6.0788   -5.1321    0.0000 C   0  0  0  0  0  0  0  0  0  0  0  0
    8.3044   -5.1321    0.0000 O   0  0  0  0  0  0  0  0  0  0  0  0
    7.1750   -5.7632    0.0000 O   0  0  0  0  0  0  0  0  0  0  0  0
   11.4766   -6.0788    0.0000 C   0  0  0  0  0  0  0  0  0  0  0  0
   10.8123   -7.1916    0.0000 O   0  0  0  0  0  0  0  0  0  0  0  0
   12.7721   -6.0788    0.0000 C   0  0  0  0  0  0  0  0  0  0  0  0
   12.7721   -3.8532    0.0000 O   0  0  0  0  0  0  0  0  0  0  0  0
   13.3866   -4.9494    0.0000 C   0  0  0  0  0  0  0  0  0  0  0  0
    3.8366   -6.0788    0.0000 O   0  0  0  0  0  0  0  0  0  0  0  0
    3.8366   -3.8532    0.0000 O   0  0  0  0  0  0  0  0  0  0  0  0
    3.1889   -4.9494    0.0000 C   0  0  0  0  0  0  0  0  0  0  0  0
    3.1889   -7.1916    0.0000 C   0  0  0  0  0  0  0  0  0  0  0  0
    1.9100   -7.1916    0.0000 C   0  0  0  0  0  0  0  0  0  0  0  0
    1.9100   -4.9494    0.0000 C   0  0  0  0  0  0  0  0  0  0  0  0
    1.2789   -6.0788    0.0000 C   0  0  0  0  0  0  0  0  0  0  0  0
    5.1321   -8.3044    0.0000 O   0  0  0  0  0  0  0  0  0  0  0  0
    3.8366   -8.3044    0.0000 C   0  0  0  0  0  0  0  0  0  0  0  0
   11.4766   -8.3044    0.0000 O   0  0  0  0  0  0  0  0  0  0  0  0
    5.7632   -9.4005    0.0000 O   0  0  0  0  0  0  0  0  0  0  0  0
   13.3866   -7.1916    0.0000 O   0  0  0  0  0  0  0  0  0  0  0  0
   12.7721   -8.3044    0.0000 C   0  0  0  0  0  0  0  0  0  0  0  0
   14.6655   -7.1916    0.0000 C   0  0  0  0  0  0  0  0  0  0  0  0
   14.6655   -4.9494    0.0000 C   0  0  0  0  0  0  0  0  0  0  0  0
   15.3299   -6.0788    0.0000 C   0  0  0  0  0  0  0  0  0  0  0  0
   13.4199   -9.4005    0.0000 C   0  0  0  0  0  0  0  0  0  0  0  0
   15.3299   -8.3044    0.0000 O   0  0  0  0  0  0  0  0  0  0  0  0
   14.6655   -9.4005    0.0000 C   0  0  0  0  0  0  0  0  0  0  0  0
   12.7721  -10.5299    0.0000 O   0  0  0  0  0  0  0  0  0  0  0  0
    5.1321  -10.5299    0.0000 C   0  0  0  0  0  0  0  0  0  0  0  0
    3.8366  -10.5299    0.0000 C   0  0  0  0  0  0  0  0  0  0  0  0
    3.1889   -9.4005    0.0000 O   0  0  0  0  0  0  0  0  0  0  0  0
    1.9100   -9.4005    0.0000 C   0  0  0  0  0  0  0  0  0  0  0  0
    1.2789   -8.3044    0.0000 O   0  0  0  0  0  0  0  0  0  0  0  0
    3.1889  -11.6427    0.0000 C   0  0  0  0  0  0  0  0  0  0  0  0
    1.2789  -10.5299    0.0000 C   0  0  0  0  0  0  0  0  0  0  0  0
    1.9100  -11.6427    0.0000 C   0  0  0  0  0  0  0  0  0  0  0  0
   13.3866  -11.6261    0.0000 C   0  0  0  0  0  0  0  0  0  0  0  0
    3.8366  -12.7389    0.0000 O   0  0  0  0  0  0  0  0  0  0  0  0
   15.3299  -10.5299    0.0000 C   0  0  0  0  0  0  0  0  0  0  0  0
   14.6655  -11.6427    0.0000 C   0  0  0  0  0  0  0  0  0  0  0  0
    6.0788    0.0000    0.0000 O   0  0  0  0  0  0  0  0  0  0  0  0
   10.5299    0.0000    0.0000 O   0  0  0  0  0  0  0  0  0  0  0  0
   12.7721   -1.2789    0.0000 O   0  0  0  0  0  0  0  0  0  0  0  0
    3.8366   -1.2789    0.0000 O   0  0  0  0  0  0  0  0  0  0  0  0
   15.3299   -3.8532    0.0000 O   0  0  0  0  0  0  0  0  0  0  0  0
   16.6087   -6.0788    0.0000 O   0  0  0  0  0  0  0  0  0  0  0  0
   16.6087  -10.5299    0.0000 O   0  0  0  0  0  0  0  0  0  0  0  0
   15.3299  -12.7721    0.0000 O   0  0  0  0  0  0  0  0  0  0  0  0
    1.2789  -12.7721    0.0000 O   0  0  0  0  0  0  0  0  0  0  0  0
    0.0000  -10.5299    0.0000 O   0  0  0  0  0  0  0  0  0  0  0  0
    0.0000   -6.0788    0.0000 O   0  0  0  0  0  0  0  0  0  0  0  0
    1.2789   -3.8532    0.0000 O   0  0  0  0  0  0  0  0  0  0  0  0
   12.7721  -12.7721    0.0000 O   0  0  0  0  0  0  0  0  0  0  0  0
   11.0282  -14.9977    0.0000 O   0  0  0  0  0  0  0  0  0  0  0  0
    9.7493  -14.9977    0.0000 C   0  0  0  0  0  0  0  0  0  0  0  0
    9.1182  -13.8683    0.0000 C   0  0  0  0  0  0  0  0  0  0  0  0
    9.7493  -12.7887    0.0000 C   0  0  0  0  0  0  0  0  0  0  0  0
    7.8393  -13.8683    0.0000 O   0  0  0  0  0  0  0  0  0  0  0  0
    7.2082  -12.7887    0.0000 C   0  0  0  0  0  0  0  0  0  0  0  0
    9.1182  -11.6427    0.0000 C   0  0  0  0  0  0  0  0  0  0  0  0
    7.8393  -11.6427    0.0000 C   0  0  0  0  0  0  0  0  0  0  0  0
    9.7493  -10.5466    0.0000 O   0  0  0  0  0  0  0  0  0  0  0  0
    7.1750  -10.5466    0.0000 O   0  0  0  0  0  0  0  0  0  0  0  0
  1  3  1  0  0  0  0
  1  7  1  1  0  0  0
  1  2  1  0  0  0  0
  2  4  1  0  0  0  0
  3  5  1  0  0  0  0
  3 55  1  1  0  0  0
  4 15  1  6  0  0  0
  4  6  1  0  0  0  0
  5  6  1  0  0  0  0
  5 58  1  6  0  0  0
  6 24  1  1  0  0  0
  8  7  1  1  0  0  0
  8 11  1  0  0  0  0
  8 10  1  0  0  0  0
 10  9  1  6  0  0  0
  9 16  1  0  0  0  0
 10 13  1  0  0  0  0
 11 12  1  0  0  0  0
 11 56  1  6  0  0  0
 12 14  1  0  0  0  0
 12 57  1  1  0  0  0
 13 14  1  0  0  0  0
 14 21  1  1  0  0  0
 15 17  1  0  0  0  0
 20 18  1  6  0  0  0
 18 19  1  0  0  0  0
 20 34  1  0  0  0  0
 20 22  1  0  0  0  0
 22 21  1  1  0  0  0
 22 37  1  0  0  0  0
 23 25  1  0  0  0  0
 23 26  1  0  0  0  0
 25 24  1  1  0  0  0
 25 28  1  0  0  0  0
 26 31  1  6  0  0  0
 26 27  1  0  0  0  0
 27 29  1  0  0  0  0
 27 47  1  1  0  0  0
 28 29  1  0  0  0  0
 28 66  1  1  0  0  0
 29 65  1  6  0  0  0
 30 31  1  0  0  0  0
 32 35  1  0  0  0  0
 33 43  1  0  0  0  0
 34 36  1  0  0  0  0
 39 35  1  6  0  0  0
 36 38  1  0  0  0  0
 36 40  1  1  0  0  0
 37 38  1  0  0  0  0
 37 59  1  6  0  0  0
 38 60  1  1  0  0  0
 39 41  1  0  0  0  0
 39 42  1  0  0  0  0
 41 40  1  1  0  0  0
 41 53  1  0  0  0  0
 42 51  1  0  0  0  0
 44 43  1  6  0  0  0
 44 45  1  0  0  0  0
 44 48  1  0  0  0  0
 45 46  1  0  0  0  0
 46 47  1  1  0  0  0
 46 49  1  0  0  0  0
 48 50  1  0  0  0  0
 48 52  1  1  0  0  0
 49 50  1  0  0  0  0
 49 64  1  1  0  0  0
 50 63  1  6  0  0  0
 51 54  1  0  0  0  0
 51 67  1  1  0  0  0
 73 52  1  6  0  0  0
 53 54  1  0  0  0  0
 53 61  1  6  0  0  0
 54 62  1  1  0  0  0
 71 67  1  6  0  0  0
 68 69  1  0  0  0  0
 70 69  1  1  0  0  0
 70 71  1  0  0  0  0
 70 72  1  0  0  0  0
 71 74  1  0  0  0  0
 72 73  1  0  0  0  0
 73 75  1  0  0  0  0
 74 75  1  0  0  0  0
 74 76  1  1  0  0  0
 75 77  1  6  0  0  0
M  END
> <ID>
348

> <Formula>
C42H70O35

> <FW>
1134.9842

> <DSSTox_CID>
358

> <DSSTox_RID>
75536

> <DSSTox_GSID>
20358

> <DSSTox_FileID_Sort>
220

> <TS_ChemName>
beta-Cyclodextrin

> <TS_ChemName_Synonyms>


> <TS_CASRN>
7585-39-9

> <CASRN_ChemName_Relationship>
primary

> <TS_Description>
single chemical compound

> <ChemNote>
stereochem

> <STRUCTURE_Shown>
tested chemical

> <STRUCTURE_Formula>
C42H70O35

> <STRUCTURE_MW>
1134.9842

> <STRUCTURE_ChemType>
defined organic

> <STRUCTURE_DefinedOrganicForm>
parent

> <STRUCTURE_IUPAC>
(1S,3R,5R,6S,8R,10R,11S,13R,15R,16S,18R,20R,21S,23R,25R,26S,28R,30R,31S,33R,35R,36R,37R,38R,39R,40R,41R,42R,43R,44R,45R,46R,47R,48R,49R)-5,10,15,20,25,30,35-heptakis(hydroxymethyl)-2,4,7,9,12,14,17,19,22,24,27,29,32,34-tetradecaoxaoctacyclo[31.2.2.2~3,6~.

> <STRUCTURE_SMILES>
O[C@@H]2[C@@H](O)[C@@H]1O[C@H]8O[C@H](CO)[C@@H](O[C@H]7O[C@H](CO)[C@@H](O[C@H]6O[C@H](CO)[C@@H](O[C@H]5O[C@H](CO)[C@@H](O[C@H]4O[C@H](CO)[C@@H](O[C@H]3O[C@H](CO)[C@@H](O[C@H]2O[C@@H]1CO)[C@H](O)[C@H]3O)[C@H](O)[C@H]4O)[C@H](O)[C@H]5O)[C@H](O)[C@H]6O)[C@H]

> <STRUCTURE_SMILES_Desalt>
O[C@@H]2[C@@H](O)[C@@H]1O[C@H]8O[C@H](CO)[C@@H](O[C@H]7O[C@H](CO)[C@@H](O[C@H]6O[C@H](CO)[C@@H](O[C@H]5O[C@H](CO)[C@@H](O[C@H]4O[C@H](CO)[C@@H](O[C@H]3O[C@H](CO)[C@@H](O[C@H]2O[C@@H]1CO)[C@H](O)[C@H]3O)[C@H](O)[C@H]4O)[C@H](O)[C@H]5O)[C@H](O)[C@H]6O)[C@H]

> <Substance_modify_yyyymmdd>
20080429

$$$$
