76-01-7
ChemmineR-0914142331XD

  7  6  0  0  0  0  0  0  0  0  1 V2000
    2.6608   -1.9956    0.0000 Cl   0  0  0  0  0  0  0  0  0  0  0  0
    1.3304   -1.9956    0.0000 C    0  0  0  0  0  0  0  0  0  0  0  0
    1.3304   -0.6652    0.0000 C    0  0  0  0  0  0  0  0  0  0  0  0
    0.1796    0.0000    0.0000 Cl   0  0  0  0  0  0  0  0  0  0  0  0
    2.4812    0.0000    0.0000 Cl   0  0  0  0  0  0  0  0  0  0  0  0
    1.3304   -3.3260    0.0000 Cl   0  0  0  0  0  0  0  0  0  0  0  0
    0.0000   -1.9956    0.0000 Cl   0  0  0  0  0  0  0  0  0  0  0  0
  1  2  1  0  0  0  0
  2  3  1  0  0  0  0
  2  6  1  0  0  0  0
  2  7  1  0  0  0  0
  3  4  1  0  0  0  0
  3  5  1  0  0  0  0
M  END
> <ID>
1063

> <Formula>
C2HCl5

> <FW>
202.2943

> <DSSTox_CID>
1104

> <DSSTox_RID>
75943

> <DSSTox_GSID>
21104

> <DSSTox_FileID_Sort>
627

> <TS_ChemName>
Pentachloroethane

> <TS_ChemName_Synonyms>


> <TS_CASRN>
76-01-7

> <CASRN_ChemName_Relationship>
primary

> <TS_Description>
single chemical compound

> <ChemNote>


> <STRUCTURE_Shown>
tested chemical

> <STRUCTURE_Formula>
C2HCl5

> <STRUCTURE_MW>
202.2943

> <STRUCTURE_ChemType>
defined organic

> <STRUCTURE_DefinedOrganicForm>
parent

> <STRUCTURE_IUPAC>
1,1,1,2,2-pentachloroethane

> <STRUCTURE_SMILES>
ClC(Cl)C(Cl)(Cl)Cl

> <STRUCTURE_SMILES_Desalt>
ClC(Cl)C(Cl)(Cl)Cl

> <Substance_modify_yyyymmdd>
20080429

$$$$
