76-03-9
ChemmineR-0914142331XD

  7  6  0  0  0  0  0  0  0  0  1 V2000
    2.6608   -1.9956    0.0000 Cl   0  0  0  0  0  0  0  0  0  0  0  0
    1.3304   -1.9956    0.0000 C    0  0  0  0  0  0  0  0  0  0  0  0
    1.3304   -0.6652    0.0000 C    0  0  0  0  0  0  0  0  0  0  0  0
    0.1796    0.0000    0.0000 O    0  0  0  0  0  0  0  0  0  0  0  0
    2.4812    0.0000    0.0000 O    0  0  0  0  0  0  0  0  0  0  0  0
    1.3304   -3.3260    0.0000 Cl   0  0  0  0  0  0  0  0  0  0  0  0
    0.0000   -1.9956    0.0000 Cl   0  0  0  0  0  0  0  0  0  0  0  0
  1  2  1  0  0  0  0
  2  3  1  0  0  0  0
  2  6  1  0  0  0  0
  2  7  1  0  0  0  0
  3  4  2  0  0  0  0
  3  5  1  0  0  0  0
M  END
> <ID>
1324

> <Formula>
C2HCl3O2

> <FW>
163.3871

> <DSSTox_CID>
1378

> <DSSTox_RID>
76121

> <DSSTox_GSID>
21378

> <DSSTox_FileID_Sort>
805

> <TS_ChemName>
Trichloroacetic acid

> <TS_ChemName_Synonyms>


> <TS_CASRN>
76-03-9

> <CASRN_ChemName_Relationship>
primary

> <TS_Description>
single chemical compound

> <ChemNote>


> <STRUCTURE_Shown>
tested chemical

> <STRUCTURE_Formula>
C2HCl3O2

> <STRUCTURE_MW>
163.3871

> <STRUCTURE_ChemType>
defined organic

> <STRUCTURE_DefinedOrganicForm>
parent

> <STRUCTURE_IUPAC>
trichloroacetic acid

> <STRUCTURE_SMILES>
ClC(Cl)(Cl)C(=O)O

> <STRUCTURE_SMILES_Desalt>
ClC(Cl)(Cl)C(=O)O

> <Substance_modify_yyyymmdd>
20080429

$$$$
