76-44-8
ChemmineR-0914142331XD

 17 19  0  0  0  0  0  0  0  0  1 V2000
    3.2392   -3.7118    0.0000 C    0  0  0  0  0  0  0  0  0  0  0  0
    3.1297   -2.2651    0.0000 C    0  0  0  0  0  0  0  0  0  0  0  0
    3.7637   -1.2104    0.0000 C    0  0  0  0  0  0  0  0  0  0  0  0
    4.1845   -4.2479    0.0000 C    0  0  0  0  0  0  0  0  0  0  0  0
    4.2248   -2.9337    0.0000 C    0  0  0  0  0  0  0  0  0  0  0  0
    1.9481   -4.1787    0.0000 C    0  0  0  0  0  0  0  0  0  0  0  0
    1.9885   -2.8646    0.0000 C    0  0  0  0  0  0  0  0  0  0  0  0
    0.7666   -2.4438    0.0000 C    0  0  0  0  0  0  0  0  0  0  0  0
    0.0000   -3.4582    0.0000 C    0  0  0  0  0  0  0  0  0  0  0  0
    0.6974   -4.5418    0.0000 C    0  0  0  0  0  0  0  0  0  0  0  0
    2.3747   -4.8358    0.0000 Cl   0  0  0  0  0  0  0  0  0  0  0  0
    2.2536   -1.3141    0.0000 Cl   0  0  0  0  0  0  0  0  0  0  0  0
    4.6859   -0.4957    0.0000 Cl   0  0  0  0  0  0  0  0  0  0  0  0
    3.6081    0.0000    0.0000 Cl   0  0  0  0  0  0  0  0  0  0  0  0
    4.4669   -5.3026    0.0000 Cl   0  0  0  0  0  0  0  0  0  0  0  0
    5.3372   -2.5476    0.0000 Cl   0  0  0  0  0  0  0  0  0  0  0  0
    0.2536   -5.7637    0.0000 Cl   0  0  0  0  0  0  0  0  0  0  0  0
  1  3  1  0  0  0  0
  1  4  1  0  0  0  0
  1  6  1  0  0  0  0
  1 11  1  0  0  0  0
  2  3  1  0  0  0  0
  2 12  1  0  0  0  0
  2  7  1  0  0  0  0
  2  5  1  0  0  0  0
  3 13  1  0  0  0  0
  3 14  1  0  0  0  0
  4  5  2  0  0  0  0
  4 15  1  0  0  0  0
  5 16  1  0  0  0  0
  6  7  1  0  0  0  0
  6 10  1  0  0  0  0
  7  8  1  0  0  0  0
  8  9  2  0  0  0  0
  9 10  1  0  0  0  0
 10 17  1  0  0  0  0
M  END
> <ID>
650

> <Formula>
C10H5Cl7

> <FW>
373.3177

> <DSSTox_CID>
679

> <DSSTox_RID>
75727

> <DSSTox_GSID>
20679

> <DSSTox_FileID_Sort>
411

> <TS_ChemName>
Heptachlor

> <TS_ChemName_Synonyms>


> <TS_CASRN>
76-44-8

> <CASRN_ChemName_Relationship>
primary

> <TS_Description>
single chemical compound

> <ChemNote>
stereochem

> <STRUCTURE_Shown>
tested chemical

> <STRUCTURE_Formula>
C10H5Cl7

> <STRUCTURE_MW>
373.3177

> <STRUCTURE_ChemType>
defined organic

> <STRUCTURE_DefinedOrganicForm>
parent

> <STRUCTURE_IUPAC>
1,4,5,6,7,8,8-heptachloro-3a,4,7,7a-tetrahydro-1H-4,7-methanoindene

> <STRUCTURE_SMILES>
ClC2=C(Cl)C3(Cl)C1C=CC(Cl)C1C2(Cl)C3(Cl)Cl

> <STRUCTURE_SMILES_Desalt>
ClC2=C(Cl)C3(Cl)C1C=CC(Cl)C1C2(Cl)C3(Cl)Cl

> <Substance_modify_yyyymmdd>
20080429

$$$$
