76-57-3
ChemmineR-0914142331XD

 23 27  0  0  1  0  0  0  0  0  1 V2000
    2.2855   -5.2669    0.0000 C   0  0  0  0  0  0  0  0  0  0  0  0
    2.2855   -3.9383    0.0000 C   0  0  0  0  0  0  0  0  0  0  0  0
    3.4005   -5.9233    0.0000 C   0  0  0  0  0  0  0  0  0  0  0  0
    1.1388   -3.2819    0.0000 C   0  0  0  0  0  0  0  0  0  0  0  0
    1.1388   -5.9233    0.0000 C   0  0  0  0  0  0  0  0  0  0  0  0
    0.3796   -4.5630    0.0000 O   0  0  0  0  0  0  0  0  0  0  0  0
    4.5314   -5.2432    0.0000 C   0  0  0  0  0  0  0  0  0  0  0  0
    3.4005   -3.2819    0.0000 C   0  0  0  0  0  0  0  0  0  0  0  0
    3.4005   -7.2281    0.0000 C   0  0  0  0  0  0  0  0  0  0  0  0
    4.5314   -3.9383    0.0000 C   0  0  0  0  0  0  0  0  0  0  0  0
    5.1641   -5.8521    0.0000 N   0  0  0  0  0  0  0  0  0  0  0  0
    2.2855   -6.5717    0.0000 C   0  0  0  0  0  0  0  0  0  0  0  0
    2.2855   -7.8845    0.0000 C   0  0  0  0  0  0  0  0  0  0  0  0
    1.1388   -7.2518    0.0000 C   0  0  0  0  0  0  0  0  0  0  0  0
    1.1388   -1.9850    0.0000 C   0  0  0  0  0  0  0  0  0  0  0  0
    4.7845   -6.5717    0.0000 C   0  0  0  0  0  0  0  0  0  0  0  0
    3.4005   -1.9850    0.0000 C   0  0  0  0  0  0  0  0  0  0  0  0
    2.2855   -1.3128    0.0000 C   0  0  0  0  0  0  0  0  0  0  0  0
    0.0395   -7.9082    0.0000 O   0  0  0  0  0  0  0  0  0  0  0  0
    0.0000   -1.3128    0.0000 O   0  0  0  0  0  0  0  0  0  0  0  0
    6.3898   -5.8521    0.0000 C   0  0  0  0  0  0  0  0  0  0  0  0
    0.0000    0.0000    0.0000 C   0  0  0  0  0  0  0  0  0  0  0  0
    3.4005   -4.6500    0.0000 H   0  0  0  0  0  0  0  0  0  0  0  0
  1  2  1  0  0  0  0
  1  3  1  0  0  0  0
  1  5  1  0  0  0  0
  1 12  1  1  0  0  0
  2  4  1  0  0  0  0
  2  8  2  0  0  0  0
  3  7  1  0  0  0  0
  3  9  1  0  0  0  0
  3 23  1  1  0  0  0
  4 15  2  0  0  0  0
  4  6  1  0  0  0  0
  5  6  1  6  0  0  0
  5 14  1  0  0  0  0
  7 10  1  0  0  0  0
  7 11  1  1  0  0  0
  8 17  1  0  0  0  0
  8 10  1  0  0  0  0
  9 13  2  0  0  0  0
 11 16  1  0  0  0  0
 11 21  1  0  0  0  0
 12 16  1  0  0  0  0
 13 14  1  0  0  0  0
 14 19  1  6  0  0  0
 15 20  1  0  0  0  0
 15 18  1  0  0  0  0
 17 18  2  0  0  0  0
 20 22  1  0  0  0  0
M  END
> <ID>
331

> <Formula>
C18H21NO3

> <FW>
299.3642

> <DSSTox_CID>
341

> <DSSTox_RID>
75524

> <DSSTox_GSID>
20341

> <DSSTox_FileID_Sort>
208

> <TS_ChemName>
Codeine

> <TS_ChemName_Synonyms>


> <TS_CASRN>
76-57-3

> <CASRN_ChemName_Relationship>
primary

> <TS_Description>
single chemical compound

> <ChemNote>
stereochem

> <STRUCTURE_Shown>
tested chemical

> <STRUCTURE_Formula>
C18H21NO3

> <STRUCTURE_MW>
299.3642

> <STRUCTURE_ChemType>
defined organic

> <STRUCTURE_DefinedOrganicForm>
parent

> <STRUCTURE_IUPAC>
(5alpha,6alpha)-3-methoxy-17-methyl-7,8-didehydro-4,5-epoxymorphinan-6-ol

> <STRUCTURE_SMILES>
COc1ccc2C[C@H]4N(C)CC[C@@]35[C@@H](Oc1c23)[C@@H](O)C=C[C@@H]45

> <STRUCTURE_SMILES_Desalt>
COc1ccc2C[C@H]4N(C)CC[C@@]35[C@@H](Oc1c23)[C@@H](O)C=C[C@@H]45

> <Substance_modify_yyyymmdd>
20080429

$$$$
