76-74-4
ChemmineR-0914142331XD

 16 16  0  0  0  0  0  0  0  0  1 V2000
    2.2829   -3.8349    0.0000 C   0  0  0  0  0  0  0  0  0  0  0  0
    2.2829   -2.5221    0.0000 O   0  0  0  0  0  0  0  0  0  0  0  0
    3.4211   -4.5011    0.0000 C   0  0  0  0  0  0  0  0  0  0  0  0
    4.7145   -4.7274    0.0000 C   0  0  0  0  0  0  0  0  0  0  0  0
    5.5616   -3.7121    0.0000 C   0  0  0  0  0  0  0  0  0  0  0  0
    3.8737   -3.2594    0.0000 C   0  0  0  0  0  0  0  0  0  0  0  0
    5.1607   -2.4316    0.0000 C   0  0  0  0  0  0  0  0  0  0  0  0
    3.0201   -2.2441    0.0000 C   0  0  0  0  0  0  0  0  0  0  0  0
    3.4728   -1.0024    0.0000 C   0  0  0  0  0  0  0  0  0  0  0  0
    2.6321    0.0000    0.0000 C   0  0  0  0  0  0  0  0  0  0  0  0
    3.4211   -5.8009    0.0000 C   0  0  0  0  0  0  0  0  0  0  0  0
    4.5593   -6.4670    0.0000 O   0  0  0  0  0  0  0  0  0  0  0  0
    2.2829   -6.4670    0.0000 N   0  0  0  0  0  0  0  0  0  0  0  0
    1.1382   -5.8009    0.0000 C   0  0  0  0  0  0  0  0  0  0  0  0
    0.0000   -6.4670    0.0000 O   0  0  0  0  0  0  0  0  0  0  0  0
    1.1382   -4.5011    0.0000 N   0  0  0  0  0  0  0  0  0  0  0  0
  1  2  2  0  0  0  0
  1  3  1  0  0  0  0
  1 16  1  0  0  0  0
  3  4  1  0  0  0  0
  3  6  1  0  0  0  0
  3 11  1  0  0  0  0
  4  5  1  0  0  0  0
  6  7  1  0  0  0  0
  6  8  1  0  0  0  0
  8  9  1  0  0  0  0
  9 10  1  0  0  0  0
 11 12  2  0  0  0  0
 11 13  1  0  0  0  0
 13 14  2  0  0  0  0
 14 15  1  0  0  0  0
 14 16  1  0  0  0  0
M  END
> <ID>
3081

> <Formula>
C11H18N2O3

> <FW>
226.2722

> <DSSTox_CID>
3435

> <DSSTox_RID>
77026

> <DSSTox_GSID>
23435

> <DSSTox_FileID_Sort>
1710

> <TS_ChemName>
Pentobarbital

> <TS_ChemName_Synonyms>


> <TS_CASRN>
76-74-4

> <CASRN_ChemName_Relationship>
primary

> <TS_Description>
single chemical compound

> <ChemNote>
tautomers

> <STRUCTURE_Shown>
tested chemical

> <STRUCTURE_Formula>
C11H18N2O3

> <STRUCTURE_MW>
226.2722

> <STRUCTURE_ChemType>
defined organic

> <STRUCTURE_DefinedOrganicForm>
parent

> <STRUCTURE_IUPAC>
5-ethyl-2-hydroxy-5-(pentan-2-yl)pyrimidine-4,6(1H,5H)-dione

> <STRUCTURE_SMILES>
O=C1NC(O)=NC(=O)C1(CC)C(C)CCC

> <STRUCTURE_SMILES_Desalt>
O=C1NC(O)=NC(=O)C1(CC)C(C)CCC

> <Substance_modify_yyyymmdd>
20080429

$$$$
