76180-96-6
ChemmineR-0914142331XD

 15 17  0  0  0  0  0  0  0  0  1 V2000
    0.3043   -0.5362    0.0000 C   0  0  0  0  0  0  0  0  0  0  0  0
    1.2899   -1.4275    0.0000 N   0  0  0  0  0  0  0  0  0  0  0  0
    2.5942   -1.1522    0.0000 C   0  0  0  0  0  0  0  0  0  0  0  0
    3.2536   -2.3043    0.0000 C   0  0  0  0  0  0  0  0  0  0  0  0
    4.5869   -2.3043    0.0000 C   0  0  0  0  0  0  0  0  0  0  0  0
    5.2536   -1.1522    0.0000 C   0  0  0  0  0  0  0  0  0  0  0  0
    4.5869    0.0000    0.0000 C   0  0  0  0  0  0  0  0  0  0  0  0
    3.2536    0.0000    0.0000 C   0  0  0  0  0  0  0  0  0  0  0  0
    6.5797   -1.1522    0.0000 N   0  0  0  0  0  0  0  0  0  0  0  0
    7.2464   -2.3043    0.0000 C   0  0  0  0  0  0  0  0  0  0  0  0
    6.5797   -3.4565    0.0000 C   0  0  0  0  0  0  0  0  0  0  0  0
    5.2536   -3.4565    0.0000 C   0  0  0  0  0  0  0  0  0  0  0  0
    2.3696   -3.2898    0.0000 N   0  0  0  0  0  0  0  0  0  0  0  0
    1.1522   -2.7536    0.0000 C   0  0  0  0  0  0  0  0  0  0  0  0
    0.0000   -3.4203    0.0000 N   0  0  0  0  0  0  0  0  0  0  0  0
  1  2  1  0  0  0  0
  2  3  1  0  0  0  0
  2 14  1  0  0  0  0
  3  4  2  0  0  0  0
  3  8  1  0  0  0  0
  4  5  1  0  0  0  0
  4 13  1  0  0  0  0
  5  6  2  0  0  0  0
  5 12  1  0  0  0  0
  6  7  1  0  0  0  0
  6  9  1  0  0  0  0
  7  8  2  0  0  0  0
  9 10  2  0  0  0  0
 10 11  1  0  0  0  0
 11 12  2  0  0  0  0
 13 14  2  0  0  0  0
 14 15  1  0  0  0  0
M  END
> <ID>
715

> <Formula>
C11H10N4

> <FW>
198.2239

> <DSSTox_CID>
745

> <DSSTox_RID>
75766

> <DSSTox_GSID>
20745

> <DSSTox_FileID_Sort>
450

> <TS_ChemName>
IQ

> <TS_ChemName_Synonyms>


> <TS_CASRN>
76180-96-6

> <CASRN_ChemName_Relationship>
primary

> <TS_Description>
single chemical compound

> <ChemNote>


> <STRUCTURE_Shown>
tested chemical

> <STRUCTURE_Formula>
C11H10N4

> <STRUCTURE_MW>
198.2239

> <STRUCTURE_ChemType>
defined organic

> <STRUCTURE_DefinedOrganicForm>
parent

> <STRUCTURE_IUPAC>
3-methyl-3H-imidazo[4,5-f]quinolin-2-amine

> <STRUCTURE_SMILES>
Nc3nc2c(ccc1ncccc12)n3C

> <STRUCTURE_SMILES_Desalt>
Nc3nc2c(ccc1ncccc12)n3C

> <Substance_modify_yyyymmdd>
20080429

$$$$
