7683-59-2
ChemmineR-0914142331XD

 15 15  0  0  0  0  0  0  0  0  1 V2000
    1.9928   -4.6094    0.0000 C   0  0  0  0  0  0  0  0  0  0  0  0
    1.3316   -3.4548    0.0000 C   0  0  0  0  0  0  0  0  0  0  0  0
    0.0000   -3.4548    0.0000 O   0  0  0  0  0  0  0  0  0  0  0  0
    1.9928   -2.3094    0.0000 C   0  0  0  0  0  0  0  0  0  0  0  0
    1.3316   -1.1547    0.0000 O   0  0  0  0  0  0  0  0  0  0  0  0
    3.3244   -2.3094    0.0000 C   0  0  0  0  0  0  0  0  0  0  0  0
    3.9948   -3.4548    0.0000 C   0  0  0  0  0  0  0  0  0  0  0  0
    5.3172   -3.4548    0.0000 C   0  0  0  0  0  0  0  0  0  0  0  0
    5.9876   -4.6094    0.0000 O   0  0  0  0  0  0  0  0  0  0  0  0
    5.9876   -2.3094    0.0000 C   0  0  0  0  0  0  0  0  0  0  0  0
    7.3192   -2.3094    0.0000 N   0  0  0  0  0  0  0  0  0  0  0  0
    7.9804   -1.1547    0.0000 C   0  0  0  0  0  0  0  0  0  0  0  0
    7.3192    0.0000    0.0000 C   0  0  0  0  0  0  0  0  0  0  0  0
    9.3120   -1.1547    0.0000 C   0  0  0  0  0  0  0  0  0  0  0  0
    3.3244   -4.6094    0.0000 C   0  0  0  0  0  0  0  0  0  0  0  0
  1  2  2  0  0  0  0
  1 15  1  0  0  0  0
  2  3  1  0  0  0  0
  2  4  1  0  0  0  0
  4  5  1  0  0  0  0
  4  6  2  0  0  0  0
  6  7  1  0  0  0  0
  7  8  1  0  0  0  0
  7 15  2  0  0  0  0
  8  9  1  0  0  0  0
  8 10  1  0  0  0  0
 10 11  1  0  0  0  0
 11 12  1  0  0  0  0
 12 13  1  0  0  0  0
 12 14  1  0  0  0  0
M  END
> <ID>
2851

> <Formula>
C11H17NO3

> <FW>
211.2576

> <DSSTox_CID>
3175

> <DSSTox_RID>
76904

> <DSSTox_GSID>
23175

> <DSSTox_FileID_Sort>
1588

> <TS_ChemName>
Isoproterenol

> <TS_ChemName_Synonyms>
Isoproterenol (Iso) (Isoprenaline)

> <TS_CASRN>
7683-59-2

> <CASRN_ChemName_Relationship>
primary

> <TS_Description>
single chemical compound

> <ChemNote>


> <STRUCTURE_Shown>
tested chemical

> <STRUCTURE_Formula>
C11H17NO3

> <STRUCTURE_MW>
211.2576

> <STRUCTURE_ChemType>
defined organic

> <STRUCTURE_DefinedOrganicForm>
parent

> <STRUCTURE_IUPAC>
4-[1-hydroxy-2-(propan-2-ylamino)ethyl]benzene-1,2-diol

> <STRUCTURE_SMILES>
Oc1ccc(cc1O)C(O)CNC(C)C

> <STRUCTURE_SMILES_Desalt>
Oc1ccc(cc1O)C(O)CNC(C)C

> <Substance_modify_yyyymmdd>
20080429

$$$$
