77-06-5
ChemmineR-0914142331XD

 27 31  0  0  1  0  0  0  0  0  1 V2000
    3.2540   -1.2343    0.0000 C   0  0  0  0  0  0  0  0  0  0  0  0
    5.3772   -2.4944    0.0000 C   0  0  0  0  0  0  0  0  0  0  0  0
    2.1751   -3.1159    0.0000 C   0  0  0  0  0  0  0  0  0  0  0  0
    3.2540   -2.4944    0.0000 C   0  0  0  0  0  0  0  0  0  0  0  0
    2.1751   -1.9248    0.0000 C   0  0  0  0  0  0  0  0  0  0  0  0
    3.2540    0.0000    0.0000 O   0  0  0  0  0  0  0  0  0  0  0  0
    4.3156   -3.1159    0.0000 C   0  0  0  0  0  0  0  0  0  0  0  0
    5.3772   -1.2343    0.0000 C   0  0  0  0  0  0  0  0  0  0  0  0
    7.5350   -2.4944    0.0000 C   0  0  0  0  0  0  0  0  0  0  0  0
    2.1751   -0.6042    0.0000 C   0  0  0  0  0  0  0  0  0  0  0  0
    6.4302   -3.1159    0.0000 C   0  0  0  0  0  0  0  0  0  0  0  0
    5.3772   -3.8581    0.0000 C   0  0  0  0  0  0  0  0  0  0  0  0
    7.5264   -3.8581    0.0000 C   0  0  0  0  0  0  0  0  0  0  0  0
    4.3156   -4.3501    0.0000 C   0  0  0  0  0  0  0  0  0  0  0  0
    1.0962   -1.2343    0.0000 C   0  0  0  0  0  0  0  0  0  0  0  0
    1.0962   -2.4944    0.0000 C   0  0  0  0  0  0  0  0  0  0  0  0
    6.4302   -0.6042    0.0000 C   0  0  0  0  0  0  0  0  0  0  0  0
    1.3119   -1.6745    0.0000 O   0  0  0  0  0  0  0  0  0  0  0  0
    7.5350   -1.2343    0.0000 C   0  0  0  0  0  0  0  0  0  0  0  0
    5.3686   -4.9975    0.0000 O   0  0  0  0  0  0  0  0  0  0  0  0
    8.5794   -4.4968    0.0000 C   0  0  0  0  0  0  0  0  0  0  0  0
    8.6312   -3.1331    0.0000 O   0  0  0  0  0  0  0  0  0  0  0  0
    2.1751   -4.3501    0.0000 C   0  0  0  0  0  0  0  0  0  0  0  0
    3.2540   -5.0147    0.0000 O   0  0  0  0  0  0  0  0  0  0  0  0
    0.0000   -3.1331    0.0000 O   0  0  0  0  0  0  0  0  0  0  0  0
    5.3772    0.0000    0.0000 H   0  0  0  0  0  0  0  0  0  0  0  0
    3.2540   -3.7546    0.0000 H   0  0  0  0  0  0  0  0  0  0  0  0
  1  4  1  0  0  0  0
  1  6  1  6  0  0  0
  1  8  1  0  0  0  0
  1 10  1  0  0  0  0
  2  8  1  0  0  0  0
  2 11  1  0  0  0  0
  2 12  1  1  0  0  0
  2  7  1  0  0  0  0
  3  4  1  0  0  0  0
  3 23  1  0  0  0  0
  3  5  1  6  0  0  0
  3 16  1  0  0  0  0
  4  7  1  0  0  0  0
  4 27  1  1  0  0  0
  5  6  1  0  0  0  0
  5 18  2  0  0  0  0
  7 14  1  1  0  0  0
  8 17  1  0  0  0  0
  8 26  1  1  0  0  0
  9 19  1  0  0  0  0
  9 22  1  6  0  0  0
  9 11  1  0  0  0  0
  9 13  1  1  0  0  0
 10 15  2  0  0  0  0
 12 13  1  0  0  0  0
 13 21  2  0  0  0  0
 14 20  2  0  0  0  0
 14 24  1  0  0  0  0
 15 16  1  0  0  0  0
 16 25  1  1  0  0  0
 17 19  1  0  0  0  0
M  END
> <ID>
630

> <Formula>
C19H22O6

> <FW>
346.3744

> <DSSTox_CID>
656

> <DSSTox_RID>
75715

> <DSSTox_GSID>
20656

> <DSSTox_FileID_Sort>
399

> <TS_ChemName>
Gibberellic acid

> <TS_ChemName_Synonyms>
Gibberellic acid (Gibberellin) (GA)

> <TS_CASRN>
77-06-5

> <CASRN_ChemName_Relationship>
primary

> <TS_Description>
single chemical compound

> <ChemNote>
stereochem

> <STRUCTURE_Shown>
tested chemical

> <STRUCTURE_Formula>
C19H22O6

> <STRUCTURE_MW>
346.3744

> <STRUCTURE_ChemType>
defined organic

> <STRUCTURE_DefinedOrganicForm>
parent

> <STRUCTURE_IUPAC>
(1S,2S,4aR,4bR,7S,9aS,10S,10aR)-2,7-dihydroxy-1-methyl-8-methylidene-13-oxo-1,2,4b,5,6,7,8,9,10,10a-decahydro-4a,1-(epoxymethano)-7,9a-methanobenzo[a]azulene-10-carboxylic acid

> <STRUCTURE_SMILES>
O=C(O)[C@H]3[C@@H]5[C@]1(C)C(=O)O[C@]5(C=C[C@@H]1O)[C@@H]4CC[C@]2(O)C[C@]34CC2=C

> <STRUCTURE_SMILES_Desalt>
O=C(O)[C@H]3[C@@H]5[C@]1(C)C(=O)O[C@]5(C=C[C@@H]1O)[C@@H]4CC[C@]2(O)C[C@]34CC2=C

> <Substance_modify_yyyymmdd>
20080429

$$$$
