77-09-8
ChemmineR-0914142331XD

 24 27  0  0  0  0  0  0  0  0  1 V2000
    0.5369   -6.3722    0.0000 O   0  0  0  0  0  0  0  0  0  0  0  0
    1.4292   -5.3773    0.0000 C   0  0  0  0  0  0  0  0  0  0  0  0
    2.7479   -5.5194    0.0000 O   0  0  0  0  0  0  0  0  0  0  0  0
    3.2927   -4.3034    0.0000 C   0  0  0  0  0  0  0  0  0  0  0  0
    2.3057   -3.4191    0.0000 C   0  0  0  0  0  0  0  0  0  0  0  0
    1.1528   -4.0823    0.0000 C   0  0  0  0  0  0  0  0  0  0  0  0
    0.0000   -3.4191    0.0000 C   0  0  0  0  0  0  0  0  0  0  0  0
    0.0000   -2.0846    0.0000 C   0  0  0  0  0  0  0  0  0  0  0  0
    1.1528   -1.4213    0.0000 C   0  0  0  0  0  0  0  0  0  0  0  0
    2.3057   -2.0846    0.0000 C   0  0  0  0  0  0  0  0  0  0  0  0
    4.0744   -3.2295    0.0000 C   0  0  0  0  0  0  0  0  0  0  0  0
    3.5296   -2.0135    0.0000 C   0  0  0  0  0  0  0  0  0  0  0  0
    4.3113   -0.9396    0.0000 C   0  0  0  0  0  0  0  0  0  0  0  0
    5.6379   -1.0818    0.0000 C   0  0  0  0  0  0  0  0  0  0  0  0
    6.1748   -2.2899    0.0000 C   0  0  0  0  0  0  0  0  0  0  0  0
    5.3931   -3.3717    0.0000 C   0  0  0  0  0  0  0  0  0  0  0  0
    6.4196    0.0000    0.0000 O   0  0  0  0  0  0  0  0  0  0  0  0
    4.4456   -4.9667    0.0000 C   0  0  0  0  0  0  0  0  0  0  0  0
    5.5905   -4.3034    0.0000 C   0  0  0  0  0  0  0  0  0  0  0  0
    6.7433   -4.9667    0.0000 C   0  0  0  0  0  0  0  0  0  0  0  0
    6.7433   -6.3012    0.0000 C   0  0  0  0  0  0  0  0  0  0  0  0
    5.5905   -6.9644    0.0000 C   0  0  0  0  0  0  0  0  0  0  0  0
    4.4456   -6.3012    0.0000 C   0  0  0  0  0  0  0  0  0  0  0  0
    7.8962   -6.9644    0.0000 O   0  0  0  0  0  0  0  0  0  0  0  0
  1  2  2  0  0  0  0
  2  3  1  0  0  0  0
  2  6  1  0  0  0  0
  3  4  1  0  0  0  0
  4  5  1  0  0  0  0
  4 11  1  0  0  0  0
  4 18  1  0  0  0  0
  5  6  2  0  0  0  0
  5 10  1  0  0  0  0
  6  7  1  0  0  0  0
  7  8  2  0  0  0  0
  8  9  1  0  0  0  0
  9 10  2  0  0  0  0
 11 12  2  0  0  0  0
 11 16  1  0  0  0  0
 12 13  1  0  0  0  0
 13 14  2  0  0  0  0
 14 15  1  0  0  0  0
 14 17  1  0  0  0  0
 15 16  2  0  0  0  0
 18 19  2  0  0  0  0
 18 23  1  0  0  0  0
 19 20  1  0  0  0  0
 20 21  2  0  0  0  0
 21 22  1  0  0  0  0
 21 24  1  0  0  0  0
 22 23  2  0  0  0  0
M  END
> <ID>
1081

> <Formula>
C20H14O4

> <FW>
318.3228

> <DSSTox_CID>
1125

> <DSSTox_RID>
75956

> <DSSTox_GSID>
21125

> <DSSTox_FileID_Sort>
640

> <TS_ChemName>
Phenolphthalein

> <TS_ChemName_Synonyms>
Phenolphthalein (3,3-Bis(4-hydroxyphenyl)-2-benzofuran-1(3H)-one)

> <TS_CASRN>
77-09-8

> <CASRN_ChemName_Relationship>
primary

> <TS_Description>
single chemical compound

> <ChemNote>
furanone form shown [77-09-8]; acid form [81-90-3]

> <STRUCTURE_Shown>
tested chemical

> <STRUCTURE_Formula>
C20H14O4

> <STRUCTURE_MW>
318.3228

> <STRUCTURE_ChemType>
defined organic

> <STRUCTURE_DefinedOrganicForm>
parent

> <STRUCTURE_IUPAC>
3,3-bis(4-hydroxyphenyl)-2-benzofuran-1(3H)-one

> <STRUCTURE_SMILES>
Oc1ccc(cc1)C3(OC(=O)c2ccccc23)c4ccc(O)cc4

> <STRUCTURE_SMILES_Desalt>
Oc1ccc(cc1)C3(OC(=O)c2ccccc23)c4ccc(O)cc4

> <Substance_modify_yyyymmdd>
20080429

$$$$
