77-21-4
ChemmineR-0914142331XD

 16 17  0  0  0  0  0  0  0  0  1 V2000
    1.1522   -2.8140    0.0000 C   0  0  0  0  0  0  0  0  0  0  0  0
    0.0000   -3.4787    0.0000 O   0  0  0  0  0  0  0  0  0  0  0  0
    1.1522   -1.4846    0.0000 C   0  0  0  0  0  0  0  0  0  0  0  0
    2.3044   -0.8198    0.0000 C   0  0  0  0  0  0  0  0  0  0  0  0
    3.4566   -1.4846    0.0000 C   0  0  0  0  0  0  0  0  0  0  0  0
    4.7639   -1.7135    0.0000 C   0  0  0  0  0  0  0  0  0  0  0  0
    5.6206   -0.6943    0.0000 C   0  0  0  0  0  0  0  0  0  0  0  0
    6.9279   -0.9232    0.0000 C   0  0  0  0  0  0  0  0  0  0  0  0
    7.3858   -2.1788    0.0000 C   0  0  0  0  0  0  0  0  0  0  0  0
    6.5291   -3.1981    0.0000 C   0  0  0  0  0  0  0  0  0  0  0  0
    5.2218   -2.9617    0.0000 C   0  0  0  0  0  0  0  0  0  0  0  0
    3.9145   -0.2363    0.0000 C   0  0  0  0  0  0  0  0  0  0  0  0
    5.2218    0.0000    0.0000 C   0  0  0  0  0  0  0  0  0  0  0  0
    3.4566   -2.8140    0.0000 C   0  0  0  0  0  0  0  0  0  0  0  0
    4.6088   -3.4787    0.0000 O   0  0  0  0  0  0  0  0  0  0  0  0
    2.3044   -3.4787    0.0000 N   0  0  0  0  0  0  0  0  0  0  0  0
  1  2  2  0  0  0  0
  1  3  1  0  0  0  0
  1 16  1  0  0  0  0
  3  4  1  0  0  0  0
  4  5  1  0  0  0  0
  5  6  1  0  0  0  0
  5 12  1  0  0  0  0
  5 14  1  0  0  0  0
  6  7  2  0  0  0  0
  6 11  1  0  0  0  0
  7  8  1  0  0  0  0
  8  9  2  0  0  0  0
  9 10  1  0  0  0  0
 10 11  2  0  0  0  0
 12 13  1  0  0  0  0
 14 15  2  0  0  0  0
 14 16  1  0  0  0  0
M  END
> <ID>
2787

> <Formula>
C13H15NO2

> <FW>
217.2637

> <DSSTox_CID>
3102

> <DSSTox_RID>
76876

> <DSSTox_GSID>
23102

> <DSSTox_FileID_Sort>
1560

> <TS_ChemName>
Glutethimide

> <TS_ChemName_Synonyms>


> <TS_CASRN>
77-21-4

> <CASRN_ChemName_Relationship>
primary

> <TS_Description>
single chemical compound

> <ChemNote>


> <STRUCTURE_Shown>
tested chemical

> <STRUCTURE_Formula>
C13H15NO2

> <STRUCTURE_MW>
217.2637

> <STRUCTURE_ChemType>
defined organic

> <STRUCTURE_DefinedOrganicForm>
parent

> <STRUCTURE_IUPAC>
3-ethyl-3-phenylpiperidine-2,6-dione

> <STRUCTURE_SMILES>
CCC1(CCC(=O)NC1=O)c2ccccc2

> <STRUCTURE_SMILES_Desalt>
CCC1(CCC(=O)NC1=O)c2ccccc2

> <Substance_modify_yyyymmdd>
20080429

$$$$
