77-23-6
ChemmineR-0914142331XD

 24 25  0  0  0  0  0  0  0  0  1 V2000
    8.6259   -2.7479    0.0000 C   0  0  0  0  0  0  0  0  0  0  0  0
    8.4825   -1.4217    0.0000 C   0  0  0  0  0  0  0  0  0  0  0  0
    9.5578   -0.6451    0.0000 C   0  0  0  0  0  0  0  0  0  0  0  0
   10.7764   -1.1828    0.0000 C   0  0  0  0  0  0  0  0  0  0  0  0
   10.9198   -2.5089    0.0000 C   0  0  0  0  0  0  0  0  0  0  0  0
    9.8445   -3.2855    0.0000 C   0  0  0  0  0  0  0  0  0  0  0  0
    9.9759   -4.6116    0.0000 C   0  0  0  0  0  0  0  0  0  0  0  0
    8.6498   -4.6116    0.0000 C   0  0  0  0  0  0  0  0  0  0  0  0
    7.9807   -3.4527    0.0000 O   0  0  0  0  0  0  0  0  0  0  0  0
    7.9807   -5.7586    0.0000 O   0  0  0  0  0  0  0  0  0  0  0  0
    6.6546   -5.7586    0.0000 C   0  0  0  0  0  0  0  0  0  0  0  0
    5.9856   -4.6116    0.0000 C   0  0  0  0  0  0  0  0  0  0  0  0
    4.6594   -4.6116    0.0000 O   0  0  0  0  0  0  0  0  0  0  0  0
    3.9904   -3.4527    0.0000 C   0  0  0  0  0  0  0  0  0  0  0  0
    2.6642   -3.4527    0.0000 C   0  0  0  0  0  0  0  0  0  0  0  0
    1.9952   -2.3058    0.0000 N   0  0  0  0  0  0  0  0  0  0  0  0
    0.6690   -2.3058    0.0000 C   0  0  0  0  0  0  0  0  0  0  0  0
    0.0000   -3.4527    0.0000 C   0  0  0  0  0  0  0  0  0  0  0  0
    2.6642   -1.1589    0.0000 C   0  0  0  0  0  0  0  0  0  0  0  0
    1.9952    0.0000    0.0000 C   0  0  0  0  0  0  0  0  0  0  0  0
   11.2782   -4.3368    0.0000 C   0  0  0  0  0  0  0  0  0  0  0  0
   11.9472   -5.4838    0.0000 C   0  0  0  0  0  0  0  0  0  0  0  0
   11.0512   -6.4754    0.0000 C   0  0  0  0  0  0  0  0  0  0  0  0
    9.8445   -5.9378    0.0000 C   0  0  0  0  0  0  0  0  0  0  0  0
  1  2  2  0  0  0  0
  1  6  1  0  0  0  0
  2  3  1  0  0  0  0
  3  4  2  0  0  0  0
  4  5  1  0  0  0  0
  5  6  2  0  0  0  0
  6  7  1  0  0  0  0
  7  8  1  0  0  0  0
  7 21  1  0  0  0  0
  7 24  1  0  0  0  0
  8  9  2  0  0  0  0
  8 10  1  0  0  0  0
 10 11  1  0  0  0  0
 11 12  1  0  0  0  0
 12 13  1  0  0  0  0
 13 14  1  0  0  0  0
 14 15  1  0  0  0  0
 15 16  1  0  0  0  0
 16 17  1  0  0  0  0
 16 19  1  0  0  0  0
 17 18  1  0  0  0  0
 19 20  1  0  0  0  0
 21 22  1  0  0  0  0
 22 23  1  0  0  0  0
 23 24  1  0  0  0  0
M  END
> <ID>
2474

> <Formula>
C20H31NO3

> <FW>
333.465

> <DSSTox_CID>
2734

> <DSSTox_RID>
76706

> <DSSTox_GSID>
22734

> <DSSTox_FileID_Sort>
1390

> <TS_ChemName>
Carbetapentane

> <TS_ChemName_Synonyms>


> <TS_CASRN>
77-23-6

> <CASRN_ChemName_Relationship>
primary

> <TS_Description>
single chemical compound

> <ChemNote>


> <STRUCTURE_Shown>
tested chemical

> <STRUCTURE_Formula>
C20H31NO3

> <STRUCTURE_MW>
333.465

> <STRUCTURE_ChemType>
defined organic

> <STRUCTURE_DefinedOrganicForm>
parent

> <STRUCTURE_IUPAC>
2-[2-(diethylamino)ethoxy]ethyl 1-phenylcyclopentanecarboxylate

> <STRUCTURE_SMILES>
CCN(CC)CCOCCOC(=O)C1(CCCC1)c2ccccc2

> <STRUCTURE_SMILES_Desalt>
CCN(CC)CCOCCOC(=O)C1(CCCC1)c2ccccc2

> <Substance_modify_yyyymmdd>
20080429

$$$$
