77-36-1
ChemmineR-0914142331XD

 22 24  0  0  0  0  0  0  0  0  1 V2000
    6.5433    0.0000    0.0000 C    0  0  0  0  0  0  0  0  0  0  0  0
    7.8648   -0.1367    0.0000 C    0  0  0  0  0  0  0  0  0  0  0  0
    8.4024   -1.3579    0.0000 C    0  0  0  0  0  0  0  0  0  0  0  0
    7.6187   -2.4332    0.0000 C    0  0  0  0  0  0  0  0  0  0  0  0
    6.2973   -2.2874    0.0000 C    0  0  0  0  0  0  0  0  0  0  0  0
    5.7596   -1.0754    0.0000 C    0  0  0  0  0  0  0  0  0  0  0  0
    5.7596   -3.5086    0.0000 C    0  0  0  0  0  0  0  0  0  0  0  0
    4.9758   -4.5840    0.0000 O    0  0  0  0  0  0  0  0  0  0  0  0
    4.6022   -2.8433    0.0000 C    0  0  0  0  0  0  0  0  0  0  0  0
    3.4539   -3.5086    0.0000 C    0  0  0  0  0  0  0  0  0  0  0  0
    2.3057   -2.8433    0.0000 C    0  0  0  0  0  0  0  0  0  0  0  0
    1.1483   -3.5086    0.0000 S    0  0  0  0  0  0  0  0  0  0  0  0
    0.0000   -4.1739    0.0000 N    0  0  0  0  0  0  0  0  0  0  0  0
    1.8135   -4.6569    0.0000 O    0  0  0  0  0  0  0  0  0  0  0  0
    0.4830   -2.3512    0.0000 O    0  0  0  0  0  0  0  0  0  0  0  0
    2.3057   -1.5128    0.0000 C    0  0  0  0  0  0  0  0  0  0  0  0
    1.1483   -0.8475    0.0000 Cl   0  0  0  0  0  0  0  0  0  0  0  0
    3.4539   -0.8475    0.0000 C    0  0  0  0  0  0  0  0  0  0  0  0
    4.6022   -1.5128    0.0000 C    0  0  0  0  0  0  0  0  0  0  0  0
    6.7438   -4.3926    0.0000 N    0  0  0  0  0  0  0  0  0  0  0  0
    7.9012   -3.7273    0.0000 C    0  0  0  0  0  0  0  0  0  0  0  0
    9.1133   -4.2741    0.0000 O    0  0  0  0  0  0  0  0  0  0  0  0
  1  2  2  0  0  0  0
  1  6  1  0  0  0  0
  2  3  1  0  0  0  0
  3  4  2  0  0  0  0
  4  5  1  0  0  0  0
  4 21  1  0  0  0  0
  5  6  2  0  0  0  0
  5  7  1  0  0  0  0
  7  8  1  0  0  0  0
  7  9  1  0  0  0  0
  7 20  1  0  0  0  0
  9 10  2  0  0  0  0
  9 19  1  0  0  0  0
 10 11  1  0  0  0  0
 11 12  1  0  0  0  0
 11 16  2  0  0  0  0
 12 13  1  0  0  0  0
 12 14  2  0  0  0  0
 12 15  2  0  0  0  0
 16 17  1  0  0  0  0
 16 18  1  0  0  0  0
 18 19  2  0  0  0  0
 20 21  1  0  0  0  0
 21 22  2  0  0  0  0
M  END
> <ID>
2543

> <Formula>
C14H11ClN2O4S

> <FW>
338.7661

> <DSSTox_CID>
2812

> <DSSTox_RID>
76738

> <DSSTox_GSID>
22812

> <DSSTox_FileID_Sort>
1422

> <TS_ChemName>
Chlorthalidone

> <TS_ChemName_Synonyms>


> <TS_CASRN>
77-36-1

> <CASRN_ChemName_Relationship>
primary

> <TS_Description>
single chemical compound

> <ChemNote>


> <STRUCTURE_Shown>
tested chemical

> <STRUCTURE_Formula>
C14H11ClN2O4S

> <STRUCTURE_MW>
338.7661

> <STRUCTURE_ChemType>
defined organic

> <STRUCTURE_DefinedOrganicForm>
parent

> <STRUCTURE_IUPAC>
2-chloro-5-(1-hydroxy-3-oxo-2,3-dihydro-1H-isoindol-1-yl)benzenesulfonamide

> <STRUCTURE_SMILES>
NS(=O)(=O)c1cc(ccc1Cl)C3(O)NC(=O)c2ccccc23

> <STRUCTURE_SMILES_Desalt>
NS(=O)(=O)c1cc(ccc1Cl)C3(O)NC(=O)c2ccccc23

> <Substance_modify_yyyymmdd>
20080429

$$$$
