77-41-8
ChemmineR-0914142331XD

 15 16  0  0  0  0  0  0  0  0  1 V2000
    0.0000   -1.9951    0.0000 C   0  0  0  0  0  0  0  0  0  0  0  0
    0.0000   -0.6673    0.0000 C   0  0  0  0  0  0  0  0  0  0  0  0
    1.1508    0.0000    0.0000 C   0  0  0  0  0  0  0  0  0  0  0  0
    2.3015   -0.6673    0.0000 C   0  0  0  0  0  0  0  0  0  0  0  0
    2.3015   -1.9951    0.0000 C   0  0  0  0  0  0  0  0  0  0  0  0
    3.4523   -2.6624    0.0000 C   0  0  0  0  0  0  0  0  0  0  0  0
    2.6760   -3.7383    0.0000 C   0  0  0  0  0  0  0  0  0  0  0  0
    3.9970   -1.4504    0.0000 C   0  0  0  0  0  0  0  0  0  0  0  0
    3.3297   -0.2928    0.0000 O   0  0  0  0  0  0  0  0  0  0  0  0
    5.3180   -1.5865    0.0000 N   0  0  0  0  0  0  0  0  0  0  0  0
    6.2100   -0.5992    0.0000 C   0  0  0  0  0  0  0  0  0  0  0  0
    5.5972   -2.8871    0.0000 C   0  0  0  0  0  0  0  0  0  0  0  0
    6.8092   -3.4250    0.0000 O   0  0  0  0  0  0  0  0  0  0  0  0
    4.4396   -3.5544    0.0000 C   0  0  0  0  0  0  0  0  0  0  0  0
    1.1508   -2.6624    0.0000 C   0  0  0  0  0  0  0  0  0  0  0  0
  1  2  2  0  0  0  0
  1 15  1  0  0  0  0
  2  3  1  0  0  0  0
  3  4  2  0  0  0  0
  4  5  1  0  0  0  0
  5  6  1  0  0  0  0
  5 15  2  0  0  0  0
  6  7  1  0  0  0  0
  6  8  1  0  0  0  0
  6 14  1  0  0  0  0
  8  9  2  0  0  0  0
  8 10  1  0  0  0  0
 10 11  1  0  0  0  0
 10 12  1  0  0  0  0
 12 13  2  0  0  0  0
 12 14  1  0  0  0  0
M  END
> <ID>
2956

> <Formula>
C12H13NO2

> <FW>
203.2371

> <DSSTox_CID>
3293

> <DSSTox_RID>
76960

> <DSSTox_GSID>
23293

> <DSSTox_FileID_Sort>
1644

> <TS_ChemName>
Methsuximide

> <TS_ChemName_Synonyms>


> <TS_CASRN>
77-41-8

> <CASRN_ChemName_Relationship>
primary

> <TS_Description>
single chemical compound

> <ChemNote>


> <STRUCTURE_Shown>
tested chemical

> <STRUCTURE_Formula>
C12H13NO2

> <STRUCTURE_MW>
203.2371

> <STRUCTURE_ChemType>
defined organic

> <STRUCTURE_DefinedOrganicForm>
parent

> <STRUCTURE_IUPAC>
1,3-dimethyl-3-phenylpyrrolidine-2,5-dione

> <STRUCTURE_SMILES>
CC1(CC(=O)N(C)C1=O)c2ccccc2

> <STRUCTURE_SMILES_Desalt>
CC1(CC(=O)N(C)C1=O)c2ccccc2

> <Substance_modify_yyyymmdd>
20080429

$$$$
