77-67-8
ChemmineR-0914142331XD

 10 10  0  0  0  0  0  0  0  0  1 V2000
    3.3568   -2.3662    0.0000 C   0  0  0  0  0  0  0  0  0  0  0  0
    4.1380   -3.4417    0.0000 C   0  0  0  0  0  0  0  0  0  0  0  0
    4.5059   -1.6982    0.0000 C   0  0  0  0  0  0  0  0  0  0  0  0
    5.6607   -2.3662    0.0000 C   0  0  0  0  0  0  0  0  0  0  0  0
    2.3662   -3.2549    0.0000 C   0  0  0  0  0  0  0  0  0  0  0  0
    1.2171   -2.5926    0.0000 C   0  0  0  0  0  0  0  0  0  0  0  0
    0.0000   -3.1304    0.0000 O   0  0  0  0  0  0  0  0  0  0  0  0
    1.4944   -1.2906    0.0000 N   0  0  0  0  0  0  0  0  0  0  0  0
    2.8134   -1.1491    0.0000 C   0  0  0  0  0  0  0  0  0  0  0  0
    3.4813    0.0000    0.0000 O   0  0  0  0  0  0  0  0  0  0  0  0
  1  2  1  0  0  0  0
  1  3  1  0  0  0  0
  1  5  1  0  0  0  0
  1  9  1  0  0  0  0
  3  4  1  0  0  0  0
  5  6  1  0  0  0  0
  6  7  2  0  0  0  0
  6  8  1  0  0  0  0
  8  9  1  0  0  0  0
  9 10  2  0  0  0  0
M  END
> <ID>
2715

> <Formula>
C7H11NO2

> <FW>
141.1677

> <DSSTox_CID>
3019

> <DSSTox_RID>
76832

> <DSSTox_GSID>
23019

> <DSSTox_FileID_Sort>
1516

> <TS_ChemName>
Ethosuximide

> <TS_ChemName_Synonyms>


> <TS_CASRN>
77-67-8

> <CASRN_ChemName_Relationship>
primary

> <TS_Description>
single chemical compound

> <ChemNote>


> <STRUCTURE_Shown>
tested chemical

> <STRUCTURE_Formula>
C7H11NO2

> <STRUCTURE_MW>
141.1677

> <STRUCTURE_ChemType>
defined organic

> <STRUCTURE_DefinedOrganicForm>
parent

> <STRUCTURE_IUPAC>
3-ethyl-3-methylpyrrolidine-2,5-dione

> <STRUCTURE_SMILES>
CC1(CC)CC(=O)NC1=O

> <STRUCTURE_SMILES_Desalt>
CC1(CC)CC(=O)NC1=O

> <Substance_modify_yyyymmdd>
20080429

$$$$
