77-83-8
ChemmineR-0914142331XD

 15 16  0  0  0  0  0  0  0  0  1 V2000
    0.0000   -4.2176    0.0000 C   0  0  0  0  0  0  0  0  0  0  0  0
    1.3110   -3.9889    0.0000 C   0  0  0  0  0  0  0  0  0  0  0  0
    1.3110   -2.6611    0.0000 C   0  0  0  0  0  0  0  0  0  0  0  0
    0.1562   -1.9972    0.0000 C   0  0  0  0  0  0  0  0  0  0  0  0
    0.1562   -0.6639    0.0000 C   0  0  0  0  0  0  0  0  0  0  0  0
    1.3110    0.0000    0.0000 C   0  0  0  0  0  0  0  0  0  0  0  0
    2.4603   -0.6639    0.0000 C   0  0  0  0  0  0  0  0  0  0  0  0
    2.4603   -1.9972    0.0000 C   0  0  0  0  0  0  0  0  0  0  0  0
    2.6165   -4.2176    0.0000 C   0  0  0  0  0  0  0  0  0  0  0  0
    1.7629   -5.2386    0.0000 O   0  0  0  0  0  0  0  0  0  0  0  0
    3.8662   -3.7658    0.0000 C   0  0  0  0  0  0  0  0  0  0  0  0
    4.8871   -4.6193    0.0000 O   0  0  0  0  0  0  0  0  0  0  0  0
    4.1005   -2.4547    0.0000 O   0  0  0  0  0  0  0  0  0  0  0  0
    5.3502   -2.0028    0.0000 C   0  0  0  0  0  0  0  0  0  0  0  0
    5.5789   -0.6918    0.0000 C   0  0  0  0  0  0  0  0  0  0  0  0
  1  2  1  0  0  0  0
  2  3  1  0  0  0  0
  2  9  1  0  0  0  0
  2 10  1  0  0  0  0
  3  4  2  0  0  0  0
  3  8  1  0  0  0  0
  4  5  1  0  0  0  0
  5  6  2  0  0  0  0
  6  7  1  0  0  0  0
  7  8  2  0  0  0  0
  9 10  1  0  0  0  0
  9 11  1  0  0  0  0
 11 12  2  0  0  0  0
 11 13  1  0  0  0  0
 13 14  1  0  0  0  0
 14 15  1  0  0  0  0
M  END
> <ID>
566

> <Formula>
C12H14O3

> <FW>
206.2378

> <DSSTox_CID>
591

> <DSSTox_RID>
75677

> <DSSTox_GSID>
20591

> <DSSTox_FileID_Sort>
361

> <TS_ChemName>
Ethyl methylphenylglycidate

> <TS_ChemName_Synonyms>
Ethyl methylphenylglycidate (Ethyl-3-methyl-3-phenylglycidate) (3-Methyl-3-phenylglycidic acid, ethyl ester)

> <TS_CASRN>
77-83-8

> <CASRN_ChemName_Relationship>
primary

> <TS_Description>
single chemical compound

> <ChemNote>


> <STRUCTURE_Shown>
tested chemical

> <STRUCTURE_Formula>
C12H14O3

> <STRUCTURE_MW>
206.2378

> <STRUCTURE_ChemType>
defined organic

> <STRUCTURE_DefinedOrganicForm>
parent

> <STRUCTURE_IUPAC>
ethyl 3-methyl-3-phenyloxirane-2-carboxylate

> <STRUCTURE_SMILES>
CCOC(=O)C2OC2(C)c1ccccc1

> <STRUCTURE_SMILES_Desalt>
CCOC(=O)C2OC2(C)c1ccccc1

> <Substance_modify_yyyymmdd>
20080429

$$$$
