77439-76-0
ChemmineR-0914142331XD

 11 11  0  0  0  0  0  0  0  0  1 V2000
    4.3388   -2.3406    0.0000 O    0  0  0  0  0  0  0  0  0  0  0  0
    3.5569   -3.4189    0.0000 C    0  0  0  0  0  0  0  0  0  0  0  0
    3.5569   -1.2674    0.0000 C    0  0  0  0  0  0  0  0  0  0  0  0
    2.2895   -3.0050    0.0000 C    0  0  0  0  0  0  0  0  0  0  0  0
    2.2895   -1.6762    0.0000 C    0  0  0  0  0  0  0  0  0  0  0  0
    3.9657    0.0000    0.0000 O    0  0  0  0  0  0  0  0  0  0  0  0
    1.2163   -0.8943    0.0000 Cl   0  0  0  0  0  0  0  0  0  0  0  0
    1.2163   -3.7869    0.0000 C    0  0  0  0  0  0  0  0  0  0  0  0
    0.0000   -3.2452    0.0000 Cl   0  0  0  0  0  0  0  0  0  0  0  0
    1.3543   -5.1105    0.0000 Cl   0  0  0  0  0  0  0  0  0  0  0  0
    3.9657   -4.6812    0.0000 O    0  0  0  0  0  0  0  0  0  0  0  0
  1  2  1  0  0  0  0
  1  3  1  0  0  0  0
  2  4  1  0  0  0  0
  2 11  1  0  0  0  0
  3  5  1  0  0  0  0
  3  6  2  0  0  0  0
  4  5  2  0  0  0  0
  4  8  1  0  0  0  0
  5  7  1  0  0  0  0
  8  9  1  0  0  0  0
  8 10  1  0  0  0  0
M  END
> <ID>
267

> <Formula>
C5H3Cl3O3

> <FW>
217.4345

> <DSSTox_CID>
276

> <DSSTox_RID>
75480

> <DSSTox_GSID>
20276

> <DSSTox_FileID_Sort>
164

> <TS_ChemName>
3-Chloro-4-(dichloromethyl)-5-hydroxy-2(5H)-furanone

> <TS_ChemName_Synonyms>
3-Chloro-4-(dichloromethyl)-5-hydroxy-2(5H)-furanone (MX)

> <TS_CASRN>
77439-76-0

> <CASRN_ChemName_Relationship>
primary

> <TS_Description>
single chemical compound

> <ChemNote>
MX; tautomers

> <STRUCTURE_Shown>
tested chemical

> <STRUCTURE_Formula>
C5H3Cl3O3

> <STRUCTURE_MW>
217.4345

> <STRUCTURE_ChemType>
defined organic

> <STRUCTURE_DefinedOrganicForm>
parent

> <STRUCTURE_IUPAC>
3-chloro-4-(dichloromethyl)-5-hydroxyfuran-2(5H)-one

> <STRUCTURE_SMILES>
ClC=1C(=O)OC(O)C=1C(Cl)Cl

> <STRUCTURE_SMILES_Desalt>
ClC=1C(=O)OC(O)C=1C(Cl)Cl

> <Substance_modify_yyyymmdd>
20080429

$$$$
