78-87-5
ChemmineR-0914142331XD

  5  4  0  0  0  0  0  0  0  0  1 V2000
    3.4567   -1.9945    0.0000 C    0  0  0  0  0  0  0  0  0  0  0  0
    2.3056   -1.3308    0.0000 C    0  0  0  0  0  0  0  0  0  0  0  0
    1.1511   -1.9945    0.0000 C    0  0  0  0  0  0  0  0  0  0  0  0
    0.0000   -1.3308    0.0000 Cl   0  0  0  0  0  0  0  0  0  0  0  0
    2.3056    0.0000    0.0000 Cl   0  0  0  0  0  0  0  0  0  0  0  0
  1  2  1  0  0  0  0
  2  3  1  0  0  0  0
  2  5  1  0  0  0  0
  3  4  1  0  0  0  0
M  END
> <ID>
432

> <Formula>
C3H6Cl2

> <FW>
112.9857

> <DSSTox_CID>
448

> <DSSTox_RID>
75597

> <DSSTox_GSID>
20448

> <DSSTox_FileID_Sort>
281

> <TS_ChemName>
1,2-Dichloropropane

> <TS_ChemName_Synonyms>
1,2-Dichloropropane (Propane, 1,2-dichloro-) (propylene dichloride)

> <TS_CASRN>
78-87-5

> <CASRN_ChemName_Relationship>
primary

> <TS_Description>
single chemical compound

> <ChemNote>


> <STRUCTURE_Shown>
tested chemical

> <STRUCTURE_Formula>
C3H6Cl2

> <STRUCTURE_MW>
112.9857

> <STRUCTURE_ChemType>
defined organic

> <STRUCTURE_DefinedOrganicForm>
parent

> <STRUCTURE_IUPAC>
1,2-dichloropropane

> <STRUCTURE_SMILES>
CC(Cl)CCl

> <STRUCTURE_SMILES_Desalt>
CC(Cl)CCl

> <Substance_modify_yyyymmdd>
20080429

$$$$
