78-84-2
ChemmineR-0914142331XD

  5  4  0  0  0  0  0  0  0  0  1 V2000
    3.4567   -1.9945    0.0000 C   0  0  0  0  0  0  0  0  0  0  0  0
    2.3056   -1.3308    0.0000 C   0  0  0  0  0  0  0  0  0  0  0  0
    2.3056    0.0000    0.0000 C   0  0  0  0  0  0  0  0  0  0  0  0
    1.1511   -1.9945    0.0000 C   0  0  0  0  0  0  0  0  0  0  0  0
    0.0000   -1.3308    0.0000 O   0  0  0  0  0  0  0  0  0  0  0  0
  1  2  1  0  0  0  0
  2  3  1  0  0  0  0
  2  4  1  0  0  0  0
  4  5  2  0  0  0  0
M  END
> <ID>
1572

> <Formula>
C4H8O

> <FW>
72.1057

> <DSSTox_CID>
1635

> <DSSTox_RID>
76249

> <DSSTox_GSID>
21635

> <DSSTox_FileID_Sort>
933

> <TS_ChemName>
2-Methylpropanal

> <TS_ChemName_Synonyms>
2-Methylpropanal (Isobutyraldehyde)

> <TS_CASRN>
78-84-2

> <CASRN_ChemName_Relationship>
primary

> <TS_Description>
single chemical compound

> <ChemNote>


> <STRUCTURE_Shown>
tested chemical

> <STRUCTURE_Formula>
C4H8O

> <STRUCTURE_MW>
72.1057

> <STRUCTURE_ChemType>
defined organic

> <STRUCTURE_DefinedOrganicForm>
parent

> <STRUCTURE_IUPAC>
2-methylpropanal

> <STRUCTURE_SMILES>
CC(C)C=O

> <STRUCTURE_SMILES_Desalt>
CC(C)C=O

> <Substance_modify_yyyymmdd>
20080429

$$$$
