78-90-0
ChemmineR-0914142331XD

  5  4  0  0  0  0  0  0  0  0  1 V2000
    0.0000   -1.3308    0.0000 N   0  0  0  0  0  0  0  0  0  0  0  0
    1.1511   -1.9945    0.0000 C   0  0  0  0  0  0  0  0  0  0  0  0
    2.3056   -1.3308    0.0000 C   0  0  0  0  0  0  0  0  0  0  0  0
    2.3056    0.0000    0.0000 N   0  0  0  0  0  0  0  0  0  0  0  0
    3.4567   -1.9945    0.0000 C   0  0  0  0  0  0  0  0  0  0  0  0
  1  2  1  0  0  0  0
  2  3  1  0  0  0  0
  3  4  1  0  0  0  0
  3  5  1  0  0  0  0
M  END
> <ID>
1672

> <Formula>
C3H10N2

> <FW>
74.1249

> <DSSTox_CID>
1761

> <DSSTox_RID>
76311

> <DSSTox_GSID>
21761

> <DSSTox_FileID_Sort>
995

> <TS_ChemName>
1,2-Diaminopropane

> <TS_ChemName_Synonyms>
Propylenediamine

> <TS_CASRN>
78-90-0

> <CASRN_ChemName_Relationship>
primary

> <TS_Description>
single chemical compound

> <ChemNote>


> <STRUCTURE_Shown>
tested chemical

> <STRUCTURE_Formula>
C3H10N2

> <STRUCTURE_MW>
74.1249

> <STRUCTURE_ChemType>
defined organic

> <STRUCTURE_DefinedOrganicForm>
parent

> <STRUCTURE_IUPAC>
propane-1,2-diamine

> <STRUCTURE_SMILES>
CC(N)CN

> <STRUCTURE_SMILES_Desalt>
CC(N)CN

> <Substance_modify_yyyymmdd>
20080429

$$$$
