78110-38-0
ChemmineR-0914142331XD

 28 29  0  0  1  0  0  0  0  0  1 V2000
    0.0000   -4.4309    0.0000 N   0  0  0  0  0  0  0  0  0  0  0  0
    1.3077   -4.2904    0.0000 C   0  0  0  0  0  0  0  0  0  0  0  0
    2.2047   -5.2847    0.0000 N   0  0  0  0  0  0  0  0  0  0  0  0
    3.4259   -4.7335    0.0000 C   0  0  0  0  0  0  0  0  0  0  0  0
    3.2854   -3.4259    0.0000 C   0  0  0  0  0  0  0  0  0  0  0  0
    1.9885   -3.1341    0.0000 S   0  0  0  0  0  0  0  0  0  0  0  0
    4.5606   -5.4144    0.0000 C   0  0  0  0  0  0  0  0  0  0  0  0
    4.5606   -6.7437    0.0000 N   0  0  0  0  0  0  0  0  0  0  0  0
    4.5498   -8.0730    0.0000 O   0  0  0  0  0  0  0  0  0  0  0  0
    3.3935   -8.7214    0.0000 C   0  0  0  0  0  0  0  0  0  0  0  0
    2.2263   -9.3698    0.0000 C   0  0  0  0  0  0  0  0  0  0  0  0
    4.0311   -9.8778    0.0000 C   0  0  0  0  0  0  0  0  0  0  0  0
    2.7558   -7.5542    0.0000 C   0  0  0  0  0  0  0  0  0  0  0  0
    3.4259   -6.4195    0.0000 O   0  0  0  0  0  0  0  0  0  0  0  0
    1.4049   -7.5434    0.0000 O   0  0  0  0  0  0  0  0  0  0  0  0
    5.7278   -4.7335    0.0000 C   0  0  0  0  0  0  0  0  0  0  0  0
    6.8734   -5.4144    0.0000 O   0  0  0  0  0  0  0  0  0  0  0  0
    5.7278   -3.4043    0.0000 N   0  0  0  0  0  0  0  0  0  0  0  0
    6.8734   -2.7558    0.0000 C   0  0  0  0  0  0  0  0  0  0  0  0
    7.2192   -1.4698    0.0000 C   0  0  0  0  0  0  0  0  0  0  0  0
    6.5600   -0.3026    0.0000 O   0  0  0  0  0  0  0  0  0  0  0  0
    8.5052   -1.8048    0.0000 N   0  0  0  0  0  0  0  0  0  0  0  0
    8.1486   -3.0908    0.0000 C   0  0  0  0  0  0  0  0  0  0  0  0
    8.8186   -4.2472    0.0000 C   0  0  0  0  0  0  0  0  0  0  0  0
    9.6508   -1.1348    0.0000 S   0  0  0  0  0  0  0  0  0  0  0  0
   10.8072   -0.4755    0.0000 O   0  0  0  0  0  0  0  0  0  0  0  0
    8.9808    0.0000    0.0000 O   0  0  0  0  0  0  0  0  0  0  0  0
   10.3100   -2.2911    0.0000 O   0  0  0  0  0  0  0  0  0  0  0  0
  1  2  1  0  0  0  0
  2  3  2  0  0  0  0
  2  6  1  0  0  0  0
  3  4  1  0  0  0  0
  4  5  2  0  0  0  0
  4  7  1  0  0  0  0
  5  6  1  0  0  0  0
  7  8  2  0  0  0  0
  7 16  1  0  0  0  0
  8  9  1  0  0  0  0
  9 10  1  0  0  0  0
 10 11  1  0  0  0  0
 10 12  1  0  0  0  0
 10 13  1  0  0  0  0
 13 14  2  0  0  0  0
 13 15  1  0  0  0  0
 16 17  2  0  0  0  0
 16 18  1  0  0  0  0
 19 18  1  6  0  0  0
 19 20  1  0  0  0  0
 19 23  1  0  0  0  0
 20 21  2  0  0  0  0
 20 22  1  0  0  0  0
 22 23  1  0  0  0  0
 22 25  1  0  0  0  0
 23 24  1  1  0  0  0
 25 26  1  0  0  0  0
 25 27  2  0  0  0  0
 25 28  2  0  0  0  0
M  END
> <ID>
2389

> <Formula>
C13H17N5O8S2

> <FW>
435.4328

> <DSSTox_CID>
2640

> <DSSTox_RID>
76669

> <DSSTox_GSID>
22640

> <DSSTox_FileID_Sort>
1353

> <TS_ChemName>
Aztreonam

> <TS_ChemName_Synonyms>


> <TS_CASRN>
78110-38-0

> <CASRN_ChemName_Relationship>
primary

> <TS_Description>
single chemical compound

> <ChemNote>
stereochem

> <STRUCTURE_Shown>
tested chemical

> <STRUCTURE_Formula>
C13H17N5O8S2

> <STRUCTURE_MW>
435.4328

> <STRUCTURE_ChemType>
defined organic

> <STRUCTURE_DefinedOrganicForm>
parent

> <STRUCTURE_IUPAC>
2-({[1-(2-amino-1,3-thiazol-4-yl)-2-{[(2S,3S)-2-methyl-4-oxo-1-sulfoazetidin-3-yl]amino}-2-oxoethylidene]amino}oxy)-2-methylpropanoic acid

> <STRUCTURE_SMILES>
Nc1nc(cs1)/C(=N\OC(C)(C)C(=O)O)C(=O)N[C@@H]2C(=O)N([C@H]2C)S(=O)(=O)O

> <STRUCTURE_SMILES_Desalt>
Nc1nc(cs1)/C(=N\OC(C)(C)C(=O)O)C(=O)N[C@@H]2C(=O)N([C@H]2C)S(=O)(=O)O

> <Substance_modify_yyyymmdd>
20080429

$$$$
