79-06-1
ChemmineR-0914142331XD

  5  4  0  0  0  0  0  0  0  0  1 V2000
    3.4567   -1.9945    0.0000 N   0  0  0  0  0  0  0  0  0  0  0  0
    2.3056   -1.3308    0.0000 C   0  0  0  0  0  0  0  0  0  0  0  0
    2.3056    0.0000    0.0000 O   0  0  0  0  0  0  0  0  0  0  0  0
    1.1511   -1.9945    0.0000 C   0  0  0  0  0  0  0  0  0  0  0  0
    0.0000   -1.3308    0.0000 C   0  0  0  0  0  0  0  0  0  0  0  0
  1  2  1  0  0  0  0
  2  3  2  0  0  0  0
  2  4  1  0  0  0  0
  4  5  2  0  0  0  0
M  END
> <ID>
27

> <Formula>
C3H5NO

> <FW>
71.0779

> <DSSTox_CID>
27

> <DSSTox_RID>
75328

> <DSSTox_GSID>
20027

> <DSSTox_FileID_Sort>
12

> <TS_ChemName>
Acrylamide

> <TS_ChemName_Synonyms>
2-Propenamide

> <TS_CASRN>
79-06-1

> <CASRN_ChemName_Relationship>
primary

> <TS_Description>
single chemical compound

> <ChemNote>


> <STRUCTURE_Shown>
tested chemical

> <STRUCTURE_Formula>
C3H5NO

> <STRUCTURE_MW>
71.0779

> <STRUCTURE_ChemType>
defined organic

> <STRUCTURE_DefinedOrganicForm>
parent

> <STRUCTURE_IUPAC>
prop-2-enamide

> <STRUCTURE_SMILES>
C=CC(N)=O

> <STRUCTURE_SMILES_Desalt>
C=CC(N)=O

> <Substance_modify_yyyymmdd>
20080429

$$$$
