79-08-3
ChemmineR-0914142331XD

  5  4  0  0  0  0  0  0  0  0  1 V2000
    2.3056    0.0000    0.0000 O    0  0  0  0  0  0  0  0  0  0  0  0
    2.3056   -1.3308    0.0000 C    0  0  0  0  0  0  0  0  0  0  0  0
    3.4567   -1.9945    0.0000 O    0  0  0  0  0  0  0  0  0  0  0  0
    1.1511   -1.9945    0.0000 C    0  0  0  0  0  0  0  0  0  0  0  0
    0.0000   -1.3308    0.0000 Br   0  0  0  0  0  0  0  0  0  0  0  0
  1  2  2  0  0  0  0
  2  3  1  0  0  0  0
  2  4  1  0  0  0  0
  4  5  1  0  0  0  0
M  END
> <ID>
1435

> <Formula>
C2H3BrO2

> <FW>
138.948

> <DSSTox_CID>
1495

> <DSSTox_RID>
76186

> <DSSTox_GSID>
21495

> <DSSTox_FileID_Sort>
870

> <TS_ChemName>
Bromoacetic acid

> <TS_ChemName_Synonyms>


> <TS_CASRN>
79-08-3

> <CASRN_ChemName_Relationship>
primary

> <TS_Description>
single chemical compound

> <ChemNote>


> <STRUCTURE_Shown>
tested chemical

> <STRUCTURE_Formula>
C2H3BrO2

> <STRUCTURE_MW>
138.948

> <STRUCTURE_ChemType>
defined organic

> <STRUCTURE_DefinedOrganicForm>
parent

> <STRUCTURE_IUPAC>
bromoacetic acid

> <STRUCTURE_SMILES>
BrCC(=O)O

> <STRUCTURE_SMILES_Desalt>
BrCC(=O)O

> <Substance_modify_yyyymmdd>
20080429

$$$$
