79-24-3
ChemmineR-0914142331XD

  5  4  0  0  0  0  0  0  0  0  2 V2000
    1.1511    0.0000    0.0000 O   0  0  0  0  0  0  0  0  0  0  0  0
    1.1511   -1.3308    0.0000 N   0  3  0  0  0  0  0  0  0  0  0  0
    2.3056   -1.9945    0.0000 C   0  0  0  0  0  0  0  0  0  0  0  0
    3.4567   -1.3308    0.0000 C   0  0  0  0  0  0  0  0  0  0  0  0
    0.0000   -1.9945    0.0000 O   0  5  0  0  0  0  0  0  0  0  0  0
  1  2  2  0  0  0  0
  2  3  1  0  0  0  0
  2  5  1  0  0  0  0
  3  4  1  0  0  0  0
M  END
> <ID>
933

> <Formula>
C2H5NO2

> <FW>
75.0666

> <DSSTox_CID>
969

> <DSSTox_RID>
75896

> <DSSTox_GSID>
20969

> <DSSTox_FileID_Sort>
580

> <TS_ChemName>
Nitroethane

> <TS_ChemName_Synonyms>


> <TS_CASRN>
79-24-3

> <CASRN_ChemName_Relationship>
primary

> <TS_Description>
single chemical compound

> <ChemNote>


> <STRUCTURE_Shown>
tested chemical

> <STRUCTURE_Formula>
C2H5NO2

> <STRUCTURE_MW>
75.0666

> <STRUCTURE_ChemType>
defined organic

> <STRUCTURE_DefinedOrganicForm>
parent

> <STRUCTURE_IUPAC>
nitroethane

> <STRUCTURE_SMILES>
[O-][N+](=O)CC

> <STRUCTURE_SMILES_Desalt>
[O-][N+](=O)CC

> <Substance_modify_yyyymmdd>
20080429

$$$$
