79-34-5
ChemmineR-0914142331XD

  6  5  0  0  0  0  0  0  0  0  1 V2000
    1.3307    0.0000    0.0000 Cl   0  0  0  0  0  0  0  0  0  0  0  0
    1.9943   -1.1509    0.0000 C    0  0  0  0  0  0  0  0  0  0  0  0
    1.3307   -2.3053    0.0000 C    0  0  0  0  0  0  0  0  0  0  0  0
    1.9943   -3.4563    0.0000 Cl   0  0  0  0  0  0  0  0  0  0  0  0
    0.0000   -2.3053    0.0000 Cl   0  0  0  0  0  0  0  0  0  0  0  0
    3.3250   -1.1509    0.0000 Cl   0  0  0  0  0  0  0  0  0  0  0  0
  1  2  1  0  0  0  0
  2  3  1  0  0  0  0
  2  6  1  0  0  0  0
  3  4  1  0  0  0  0
  3  5  1  0  0  0  0
M  END
> <ID>
1265

> <Formula>
C2H2Cl4

> <FW>
167.8493

> <DSSTox_CID>
1318

> <DSSTox_RID>
76078

> <DSSTox_GSID>
21318

> <DSSTox_FileID_Sort>
762

> <TS_ChemName>
1,1,2,2-Tetrachloroethane

> <TS_ChemName_Synonyms>


> <TS_CASRN>
79-34-5

> <CASRN_ChemName_Relationship>
primary

> <TS_Description>
single chemical compound

> <ChemNote>


> <STRUCTURE_Shown>
tested chemical

> <STRUCTURE_Formula>
C2H2Cl4

> <STRUCTURE_MW>
167.8493

> <STRUCTURE_ChemType>
defined organic

> <STRUCTURE_DefinedOrganicForm>
parent

> <STRUCTURE_IUPAC>
1,1,2,2-tetrachloroethane

> <STRUCTURE_SMILES>
ClC(Cl)C(Cl)Cl

> <STRUCTURE_SMILES_Desalt>
ClC(Cl)C(Cl)Cl

> <Substance_modify_yyyymmdd>
20080429

$$$$
