79-31-2
ChemmineR-0914142331XD

  6  5  0  0  0  0  0  0  0  0  1 V2000
    3.3250   -1.1509    0.0000 C   0  0  0  0  0  0  0  0  0  0  0  0
    1.9943   -1.1509    0.0000 C   0  0  0  0  0  0  0  0  0  0  0  0
    1.3307    0.0000    0.0000 C   0  0  0  0  0  0  0  0  0  0  0  0
    1.3307   -2.3053    0.0000 C   0  0  0  0  0  0  0  0  0  0  0  0
    1.9943   -3.4563    0.0000 O   0  0  0  0  0  0  0  0  0  0  0  0
    0.0000   -2.3053    0.0000 O   0  0  0  0  0  0  0  0  0  0  0  0
  1  2  1  0  0  0  0
  2  3  1  0  0  0  0
  2  4  1  0  0  0  0
  4  5  1  0  0  0  0
  4  6  2  0  0  0  0
M  END
> <ID>
1573

> <Formula>
C4H8O2

> <FW>
88.1051

> <DSSTox_CID>
1636

> <DSSTox_RID>
76250

> <DSSTox_GSID>
21636

> <DSSTox_FileID_Sort>
934

> <TS_ChemName>
2-Methylpropanoic acid

> <TS_ChemName_Synonyms>


> <TS_CASRN>
79-31-2

> <CASRN_ChemName_Relationship>
primary

> <TS_Description>
single chemical compound

> <ChemNote>


> <STRUCTURE_Shown>
tested chemical

> <STRUCTURE_Formula>
C4H8O2

> <STRUCTURE_MW>
88.1051

> <STRUCTURE_ChemType>
defined organic

> <STRUCTURE_DefinedOrganicForm>
parent

> <STRUCTURE_IUPAC>
2-methylpropanoic acid

> <STRUCTURE_SMILES>
CC(C)C(=O)O

> <STRUCTURE_SMILES_Desalt>
CC(C)C(=O)O

> <Substance_modify_yyyymmdd>
20080429

$$$$
