79-40-3
ChemmineR-0914142331XD

  6  5  0  0  0  0  0  0  0  0  1 V2000
    3.3250   -1.1509    0.0000 N   0  0  0  0  0  0  0  0  0  0  0  0
    1.9943   -1.1509    0.0000 C   0  0  0  0  0  0  0  0  0  0  0  0
    1.3307    0.0000    0.0000 S   0  0  0  0  0  0  0  0  0  0  0  0
    1.3307   -2.3053    0.0000 C   0  0  0  0  0  0  0  0  0  0  0  0
    1.9943   -3.4563    0.0000 S   0  0  0  0  0  0  0  0  0  0  0  0
    0.0000   -2.3053    0.0000 N   0  0  0  0  0  0  0  0  0  0  0  0
  1  2  1  0  0  0  0
  2  3  2  0  0  0  0
  2  4  1  0  0  0  0
  4  5  2  0  0  0  0
  4  6  1  0  0  0  0
M  END
> <ID>
525

> <Formula>
C2H4N2S2

> <FW>
120.1966

> <DSSTox_CID>
546

> <DSSTox_RID>
75653

> <DSSTox_GSID>
20546

> <DSSTox_FileID_Sort>
337

> <TS_ChemName>
Dithiooxamide

> <TS_ChemName_Synonyms>


> <TS_CASRN>
79-40-3

> <CASRN_ChemName_Relationship>
primary

> <TS_Description>
single chemical compound

> <ChemNote>


> <STRUCTURE_Shown>
tested chemical

> <STRUCTURE_Formula>
C2H4N2S2

> <STRUCTURE_MW>
120.1966

> <STRUCTURE_ChemType>
defined organic

> <STRUCTURE_DefinedOrganicForm>
parent

> <STRUCTURE_IUPAC>
ethanebis(thioamide)

> <STRUCTURE_SMILES>
NC(=S)C(N)=S

> <STRUCTURE_SMILES_Desalt>
NC(=S)C(N)=S

> <Substance_modify_yyyymmdd>
20080429

$$$$
