79-46-9
ChemmineR-0914142331XD

  6  5  0  0  0  0  0  0  0  0  2 V2000
    1.3307    0.0000    0.0000 C   0  0  0  0  0  0  0  0  0  0  0  0
    1.9943   -1.1509    0.0000 C   0  0  0  0  0  0  0  0  0  0  0  0
    1.3307   -2.3053    0.0000 N   0  3  0  0  0  0  0  0  0  0  0  0
    1.9943   -3.4563    0.0000 O   0  0  0  0  0  0  0  0  0  0  0  0
    0.0000   -2.3053    0.0000 O   0  5  0  0  0  0  0  0  0  0  0  0
    3.3250   -1.1509    0.0000 C   0  0  0  0  0  0  0  0  0  0  0  0
  1  2  1  0  0  0  0
  2  3  1  0  0  0  0
  2  6  1  0  0  0  0
  3  4  2  0  0  0  0
  3  5  1  0  0  0  0
M  END
> <ID>
945

> <Formula>
C3H7NO2

> <FW>
89.0932

> <DSSTox_CID>
981

> <DSSTox_RID>
75903

> <DSSTox_GSID>
20981

> <DSSTox_FileID_Sort>
587

> <TS_ChemName>
2-Nitropropane

> <TS_ChemName_Synonyms>


> <TS_CASRN>
79-46-9

> <CASRN_ChemName_Relationship>
primary

> <TS_Description>
single chemical compound

> <ChemNote>


> <STRUCTURE_Shown>
tested chemical

> <STRUCTURE_Formula>
C3H7NO2

> <STRUCTURE_MW>
89.0932

> <STRUCTURE_ChemType>
defined organic

> <STRUCTURE_DefinedOrganicForm>
parent

> <STRUCTURE_IUPAC>
2-nitropropane

> <STRUCTURE_SMILES>
CC(C)[N+]([O-])=O

> <STRUCTURE_SMILES_Desalt>
CC(C)[N+]([O-])=O

> <Substance_modify_yyyymmdd>
20080429

$$$$
