79-77-6
ChemmineR-0914142331XD

 14 14  0  0  0  0  0  0  0  0  1 V2000
    1.1542   -2.6610    0.0000 C   0  0  0  0  0  0  0  0  0  0  0  0
    2.0044   -3.6770    0.0000 C   0  0  0  0  0  0  0  0  0  0  0  0
    0.2972   -3.6770    0.0000 C   0  0  0  0  0  0  0  0  0  0  0  0
    0.0000   -1.9905    0.0000 C   0  0  0  0  0  0  0  0  0  0  0  0
    0.0000   -0.6635    0.0000 C   0  0  0  0  0  0  0  0  0  0  0  0
    1.1542    0.0000    0.0000 C   0  0  0  0  0  0  0  0  0  0  0  0
    2.3016   -0.6635    0.0000 C   0  0  0  0  0  0  0  0  0  0  0  0
    3.4558    0.0000    0.0000 C   0  0  0  0  0  0  0  0  0  0  0  0
    2.3016   -1.9905    0.0000 C   0  0  0  0  0  0  0  0  0  0  0  0
    3.4558   -2.6610    0.0000 C   0  0  0  0  0  0  0  0  0  0  0  0
    4.6100   -1.9905    0.0000 C   0  0  0  0  0  0  0  0  0  0  0  0
    5.7573   -2.6610    0.0000 C   0  0  0  0  0  0  0  0  0  0  0  0
    6.9116   -1.9905    0.0000 C   0  0  0  0  0  0  0  0  0  0  0  0
    5.7573   -3.9880    0.0000 O   0  0  0  0  0  0  0  0  0  0  0  0
  1  2  1  0  0  0  0
  1  3  1  0  0  0  0
  1  4  1  0  0  0  0
  1  9  1  0  0  0  0
  4  5  1  0  0  0  0
  5  6  1  0  0  0  0
  6  7  1  0  0  0  0
  7  8  1  0  0  0  0
  7  9  2  0  0  0  0
  9 10  1  0  0  0  0
 10 11  2  0  0  0  0
 11 12  1  0  0  0  0
 12 13  1  0  0  0  0
 12 14  2  0  0  0  0
M  END
> <ID>
1676

> <Formula>
C13H20O

> <FW>
192.2973

> <DSSTox_CID>
1769

> <DSSTox_RID>
76315

> <DSSTox_GSID>
21769

> <DSSTox_FileID_Sort>
999

> <TS_ChemName>
(3E)-4-(2,6,6-trimethylcyclohex-1-en-1-yl)but-3-en-2-one

> <TS_ChemName_Synonyms>
beta-Ionone

> <TS_CASRN>
79-77-6

> <CASRN_ChemName_Relationship>
primary

> <TS_Description>
single chemical compound

> <ChemNote>
stereochem

> <STRUCTURE_Shown>
tested chemical

> <STRUCTURE_Formula>
C13H20O

> <STRUCTURE_MW>
192.2973

> <STRUCTURE_ChemType>
defined organic

> <STRUCTURE_DefinedOrganicForm>
parent

> <STRUCTURE_IUPAC>
(3E)-4-(2,6,6-trimethylcyclohex-1-en-1-yl)but-3-en-2-one

> <STRUCTURE_SMILES>
CC=1CCCC(C)(C)C=1/C=C/C(C)=O

> <STRUCTURE_SMILES_Desalt>
CC=1CCCC(C)(C)C=1/C=C/C(C)=O

> <Substance_modify_yyyymmdd>
20080429

$$$$
