79-81-2
ChemmineR-0914142331XD

 38 38  0  0  0  0  0  0  0  0  1 V2000
    1.7721   -2.1436    0.0000 C   0  0  0  0  0  0  0  0  0  0  0  0
    2.0007   -3.4584    0.0000 C   0  0  0  0  0  0  0  0  0  0  0  0
    2.6581   -4.6017    0.0000 C   0  0  0  0  0  0  0  0  0  0  0  0
    2.0007   -5.7449    0.0000 C   0  0  0  0  0  0  0  0  0  0  0  0
    0.6574   -5.7449    0.0000 C   0  0  0  0  0  0  0  0  0  0  0  0
    0.0000   -4.6017    0.0000 C   0  0  0  0  0  0  0  0  0  0  0  0
    0.6574   -3.4584    0.0000 C   0  0  0  0  0  0  0  0  0  0  0  0
    2.6581   -6.9168    0.0000 C   0  0  0  0  0  0  0  0  0  0  0  0
    4.0014   -4.6017    0.0000 C   0  0  0  0  0  0  0  0  0  0  0  0
    4.6588   -5.7449    0.0000 C   0  0  0  0  0  0  0  0  0  0  0  0
    5.9736   -5.7449    0.0000 C   0  0  0  0  0  0  0  0  0  0  0  0
    6.6595   -4.6017    0.0000 C   0  0  0  0  0  0  0  0  0  0  0  0
    7.9743   -4.6017    0.0000 C   0  0  0  0  0  0  0  0  0  0  0  0
    8.6317   -3.4584    0.0000 C   0  0  0  0  0  0  0  0  0  0  0  0
    9.9750   -3.4584    0.0000 C   0  0  0  0  0  0  0  0  0  0  0  0
   10.6324   -2.3151    0.0000 C   0  0  0  0  0  0  0  0  0  0  0  0
   11.9757   -2.3151    0.0000 C   0  0  0  0  0  0  0  0  0  0  0  0
   12.6331   -1.1433    0.0000 O   0  0  0  0  0  0  0  0  0  0  0  0
   13.9479   -1.1433    0.0000 C   0  0  0  0  0  0  0  0  0  0  0  0
   14.6338   -2.3151    0.0000 O   0  0  0  0  0  0  0  0  0  0  0  0
   14.6338    0.0000    0.0000 C   0  0  0  0  0  0  0  0  0  0  0  0
   15.9486    0.0000    0.0000 C   0  0  0  0  0  0  0  0  0  0  0  0
   16.6060   -1.1433    0.0000 C   0  0  0  0  0  0  0  0  0  0  0  0
   17.9493   -1.1433    0.0000 C   0  0  0  0  0  0  0  0  0  0  0  0
   18.6067   -2.3151    0.0000 C   0  0  0  0  0  0  0  0  0  0  0  0
   19.9500   -2.3151    0.0000 C   0  0  0  0  0  0  0  0  0  0  0  0
   20.6074   -3.4584    0.0000 C   0  0  0  0  0  0  0  0  0  0  0  0
   21.9222   -3.4584    0.0000 C   0  0  0  0  0  0  0  0  0  0  0  0
   22.6081   -4.6017    0.0000 C   0  0  0  0  0  0  0  0  0  0  0  0
   23.9229   -4.6017    0.0000 C   0  0  0  0  0  0  0  0  0  0  0  0
   24.5803   -5.7449    0.0000 C   0  0  0  0  0  0  0  0  0  0  0  0
   25.9236   -5.7449    0.0000 C   0  0  0  0  0  0  0  0  0  0  0  0
   26.5810   -6.9168    0.0000 C   0  0  0  0  0  0  0  0  0  0  0  0
   27.9243   -6.9168    0.0000 C   0  0  0  0  0  0  0  0  0  0  0  0
   28.5817   -8.0600    0.0000 C   0  0  0  0  0  0  0  0  0  0  0  0
   10.6324   -4.6017    0.0000 C   0  0  0  0  0  0  0  0  0  0  0  0
    6.6595   -6.9168    0.0000 C   0  0  0  0  0  0  0  0  0  0  0  0
    3.2297   -3.0011    0.0000 C   0  0  0  0  0  0  0  0  0  0  0  0
  1  2  1  0  0  0  0
  2  3  1  0  0  0  0
  2  7  1  0  0  0  0
  2 38  1  0  0  0  0
  3  4  2  0  0  0  0
  3  9  1  0  0  0  0
  4  5  1  0  0  0  0
  4  8  1  0  0  0  0
  5  6  1  0  0  0  0
  6  7  1  0  0  0  0
  9 10  2  0  0  0  0
 10 11  1  0  0  0  0
 11 12  2  0  0  0  0
 11 37  1  0  0  0  0
 12 13  1  0  0  0  0
 13 14  2  0  0  0  0
 14 15  1  0  0  0  0
 15 16  2  0  0  0  0
 15 36  1  0  0  0  0
 16 17  1  0  0  0  0
 17 18  1  0  0  0  0
 18 19  1  0  0  0  0
 19 20  2  0  0  0  0
 19 21  1  0  0  0  0
 21 22  1  0  0  0  0
 22 23  1  0  0  0  0
 23 24  1  0  0  0  0
 24 25  1  0  0  0  0
 25 26  1  0  0  0  0
 26 27  1  0  0  0  0
 27 28  1  0  0  0  0
 28 29  1  0  0  0  0
 29 30  1  0  0  0  0
 30 31  1  0  0  0  0
 31 32  1  0  0  0  0
 32 33  1  0  0  0  0
 33 34  1  0  0  0  0
 34 35  1  0  0  0  0
M  END
> <ID>
1194

> <Formula>
C36H60O2

> <FW>
524.8604

> <DSSTox_CID>
1241

> <DSSTox_RID>
76033

> <DSSTox_GSID>
21241

> <DSSTox_FileID_Sort>
717

> <TS_ChemName>
Retinol palmitate

> <TS_ChemName_Synonyms>
Retinol palmitate (All-trans-retinyl palmitate)

> <TS_CASRN>
79-81-2

> <CASRN_ChemName_Relationship>
primary

> <TS_Description>
single chemical compound

> <ChemNote>
stereochem

> <STRUCTURE_Shown>
tested chemical

> <STRUCTURE_Formula>
C36H60O2

> <STRUCTURE_MW>
524.8604

> <STRUCTURE_ChemType>
defined organic

> <STRUCTURE_DefinedOrganicForm>
parent

> <STRUCTURE_IUPAC>
O~15~-hexadecanoylretinol

> <STRUCTURE_SMILES>
CC=1CCCC(C)(C)C=1/C=CC(\C)=C\C=C\C(\C)=C\COC(=O)CCCCCCCCCCCCCCC

> <STRUCTURE_SMILES_Desalt>
CC=1CCCC(C)(C)C=1/C=CC(\C)=C\C=C\C(\C)=C\COC(=O)CCCCCCCCCCCCCCC

> <Substance_modify_yyyymmdd>
20080429

$$$$
