79902-63-9
ChemmineR-0914142331XD

 31 33  0  0  1  0  0  0  0  0  1 V2000
    5.7448   -7.9719    0.0000 C   0  0  0  0  0  0  0  0  0  0  0  0
    5.7448   -6.6606    0.0000 C   0  0  0  0  0  0  0  0  0  0  0  0
    4.6000   -5.9946    0.0000 C   0  0  0  0  0  0  0  0  0  0  0  0
    3.4552   -4.0172    0.0000 C   0  0  0  0  0  0  0  0  0  0  0  0
    9.2208   -0.6869    0.0000 C   0  0  0  0  0  0  0  0  0  0  0  0
    6.9208   -8.6484    0.0000 C   0  0  0  0  0  0  0  0  0  0  0  0
    4.6000   -4.6624    0.0000 O   0  0  0  0  0  0  0  0  0  0  0  0
    4.6000   -8.6484    0.0000 C   0  0  0  0  0  0  0  0  0  0  0  0
    6.9208   -5.9946    0.0000 C   0  0  0  0  0  0  0  0  0  0  0  0
    9.2208   -1.9982    0.0000 O   0  0  0  0  0  0  0  0  0  0  0  0
    8.0656   -7.9719    0.0000 C   0  0  0  0  0  0  0  0  0  0  0  0
    8.0656   -0.0312    0.0000 C   0  0  0  0  0  0  0  0  0  0  0  0
    2.3104   -4.6728    0.0000 C   0  0  0  0  0  0  0  0  0  0  0  0
    6.9208   -4.6624    0.0000 C   0  0  0  0  0  0  0  0  0  0  0  0
    3.4552   -6.6814    0.0000 C   0  0  0  0  0  0  0  0  0  0  0  0
    8.0656   -6.6502    0.0000 C   0  0  0  0  0  0  0  0  0  0  0  0
    8.0656   -2.6642    0.0000 C   0  0  0  0  0  0  0  0  0  0  0  0
    3.4552   -2.6642    0.0000 O   0  0  0  0  0  0  0  0  0  0  0  0
    6.9208   -0.6869    0.0000 C   0  0  0  0  0  0  0  0  0  0  0  0
   10.4072   -0.0208    0.0000 O   0  0  0  0  0  0  0  0  0  0  0  0
    3.4552   -7.9927    0.0000 C   0  0  0  0  0  0  0  0  0  0  0  0
    6.9208   -2.0190    0.0000 C   0  0  0  0  0  0  0  0  0  0  0  0
    8.0656   -4.0172    0.0000 C   0  0  0  0  0  0  0  0  0  0  0  0
    5.7448    0.0000    0.0000 O   0  0  0  0  0  0  0  0  0  0  0  0
    1.1344   -4.0172    0.0000 C   0  0  0  0  0  0  0  0  0  0  0  0
    1.2801   -5.4326    0.0000 C   0  0  0  0  0  0  0  0  0  0  0  0
    3.4240   -5.4326    0.0000 C   0  0  0  0  0  0  0  0  0  0  0  0
    9.2208   -5.9737    0.0000 C   0  0  0  0  0  0  0  0  0  0  0  0
    2.3104   -8.6796    0.0000 C   0  0  0  0  0  0  0  0  0  0  0  0
    0.0000   -4.6937    0.0000 C   0  0  0  0  0  0  0  0  0  0  0  0
    5.7448   -5.3285    0.0000 H   0  0  0  0  0  0  0  0  0  0  0  0
  1  2  1  0  0  0  0
  1  6  1  0  0  0  0
  1  8  2  0  0  0  0
  2  3  1  0  0  0  0
  2  9  1  0  0  0  0
  2 31  1  1  0  0  0
  3  7  1  6  0  0  0
  3 15  1  0  0  0  0
  4  7  1  0  0  0  0
  4 13  1  0  0  0  0
  4 18  2  0  0  0  0
  5 10  1  0  0  0  0
  5 20  2  0  0  0  0
  5 12  1  0  0  0  0
  6 11  2  0  0  0  0
  8 21  1  0  0  0  0
  9 14  1  1  0  0  0
  9 16  1  0  0  0  0
 10 17  1  0  0  0  0
 11 16  1  0  0  0  0
 12 19  1  0  0  0  0
 13 25  1  0  0  0  0
 13 26  1  0  0  0  0
 13 27  1  0  0  0  0
 14 23  1  0  0  0  0
 15 21  1  0  0  0  0
 16 28  1  1  0  0  0
 17 23  1  6  0  0  0
 17 22  1  0  0  0  0
 19 22  1  0  0  0  0
 19 24  1  1  0  0  0
 21 29  1  6  0  0  0
 25 30  1  0  0  0  0
M  END
> <ID>
3202

> <Formula>
C25H38O5

> <FW>
418.5662

> <DSSTox_CID>
3581

> <DSSTox_RID>
77090

> <DSSTox_GSID>
23581

> <DSSTox_FileID_Sort>
1773

> <TS_ChemName>
Simvastatin

> <TS_ChemName_Synonyms>


> <TS_CASRN>
79902-63-9

> <CASRN_ChemName_Relationship>
primary

> <TS_Description>
single chemical compound

> <ChemNote>
stereochem

> <STRUCTURE_Shown>
tested chemical

> <STRUCTURE_Formula>
C25H38O5

> <STRUCTURE_MW>
418.5662

> <STRUCTURE_ChemType>
defined organic

> <STRUCTURE_DefinedOrganicForm>
parent

> <STRUCTURE_IUPAC>
(1S,3R,7S,8S,8aR)-8-{2-[(2R,4R)-4-hydroxy-6-oxotetrahydro-2H-pyran-2-yl]ethyl}-3,7-dimethyl-1,2,3,7,8,8a-hexahydronaphthalen-1-yl 2,2-dimethylbutanoate

> <STRUCTURE_SMILES>
CC(C)(CC)C(=O)O[C@H]2C[C@@H](C)C=C3C=C[C@H](C)[C@H](CC[C@@H]1C[C@@H](O)CC(=O)O1)[C@@H]23

> <STRUCTURE_SMILES_Desalt>
CC(C)(CC)C(=O)O[C@H]2C[C@@H](C)C=C3C=C[C@H](C)[C@H](CC[C@@H]1C[C@@H](O)CC(=O)O1)[C@@H]23

> <Substance_modify_yyyymmdd>
20080429

$$$$
