80-08-0
ChemmineR-0914142331XD

 17 18  0  0  0  0  0  0  0  0  1 V2000
    5.3218   -2.6609    0.0000 O   0  0  0  0  0  0  0  0  0  0  0  0
    5.3218   -1.3304    0.0000 S   0  0  0  0  0  0  0  0  0  0  0  0
    5.3218    0.0000    0.0000 O   0  0  0  0  0  0  0  0  0  0  0  0
    3.9913   -1.3304    0.0000 C   0  0  0  0  0  0  0  0  0  0  0  0
    3.3208   -0.1809    0.0000 C   0  0  0  0  0  0  0  0  0  0  0  0
    1.9903   -0.1809    0.0000 C   0  0  0  0  0  0  0  0  0  0  0  0
    1.3304   -1.3304    0.0000 C   0  0  0  0  0  0  0  0  0  0  0  0
    1.9903   -2.4799    0.0000 C   0  0  0  0  0  0  0  0  0  0  0  0
    3.3208   -2.4799    0.0000 C   0  0  0  0  0  0  0  0  0  0  0  0
    0.0000   -1.3304    0.0000 N   0  0  0  0  0  0  0  0  0  0  0  0
    6.6522   -1.3304    0.0000 C   0  0  0  0  0  0  0  0  0  0  0  0
    7.3121   -0.1809    0.0000 C   0  0  0  0  0  0  0  0  0  0  0  0
    8.6532   -0.1809    0.0000 C   0  0  0  0  0  0  0  0  0  0  0  0
    9.3131   -1.3304    0.0000 C   0  0  0  0  0  0  0  0  0  0  0  0
    8.6532   -2.4799    0.0000 C   0  0  0  0  0  0  0  0  0  0  0  0
    7.3121   -2.4799    0.0000 C   0  0  0  0  0  0  0  0  0  0  0  0
   10.6435   -1.3304    0.0000 N   0  0  0  0  0  0  0  0  0  0  0  0
  1  2  2  0  0  0  0
  2  3  2  0  0  0  0
  2  4  1  0  0  0  0
  2 11  1  0  0  0  0
  4  5  2  0  0  0  0
  4  9  1  0  0  0  0
  5  6  1  0  0  0  0
  6  7  2  0  0  0  0
  7  8  1  0  0  0  0
  7 10  1  0  0  0  0
  8  9  2  0  0  0  0
 11 12  2  0  0  0  0
 11 16  1  0  0  0  0
 12 13  1  0  0  0  0
 13 14  2  0  0  0  0
 14 15  1  0  0  0  0
 14 17  1  0  0  0  0
 15 16  2  0  0  0  0
M  END
> <ID>
361

> <Formula>
C12H12N2O2S

> <FW>
248.3009

> <DSSTox_CID>
371

> <DSSTox_RID>
75547

> <DSSTox_GSID>
20371

> <DSSTox_FileID_Sort>
231

> <TS_ChemName>
Dapsone

> <TS_ChemName_Synonyms>
Dapsone (4,4'-Sulfonyldianiline)

> <TS_CASRN>
80-08-0

> <CASRN_ChemName_Relationship>
primary

> <TS_Description>
single chemical compound

> <ChemNote>


> <STRUCTURE_Shown>
tested chemical

> <STRUCTURE_Formula>
C12H12N2O2S

> <STRUCTURE_MW>
248.3009

> <STRUCTURE_ChemType>
defined organic

> <STRUCTURE_DefinedOrganicForm>
parent

> <STRUCTURE_IUPAC>
4,4'-sulfonyldianiline

> <STRUCTURE_SMILES>
Nc1ccc(cc1)S(=O)(=O)c2ccc(N)cc2

> <STRUCTURE_SMILES_Desalt>
Nc1ccc(cc1)S(=O)(=O)c2ccc(N)cc2

> <Substance_modify_yyyymmdd>
20080429

$$$$
