80-52-4
ChemmineR-0914142331XD

 12 12  0  0  0  0  0  0  0  0  1 V2000
    4.6511   -2.4840    0.0000 C   0  0  0  0  0  0  0  0  0  0  0  0
    3.3267   -2.4840    0.0000 C   0  0  0  0  0  0  0  0  0  0  0  0
    2.6614   -1.3307    0.0000 C   0  0  0  0  0  0  0  0  0  0  0  0
    3.3267   -0.1774    0.0000 C   0  0  0  0  0  0  0  0  0  0  0  0
    4.6511   -0.1774    0.0000 C   0  0  0  0  0  0  0  0  0  0  0  0
    5.3164   -1.3307    0.0000 C   0  0  0  0  0  0  0  0  0  0  0  0
    6.3366   -2.1861    0.0000 N   0  0  0  0  0  0  0  0  0  0  0  0
    6.3366   -0.4752    0.0000 C   0  0  0  0  0  0  0  0  0  0  0  0
    1.3307   -1.3307    0.0000 C   0  0  0  0  0  0  0  0  0  0  0  0
    1.3307   -2.6614    0.0000 C   0  0  0  0  0  0  0  0  0  0  0  0
    0.0000   -1.3307    0.0000 N   0  0  0  0  0  0  0  0  0  0  0  0
    1.3307    0.0000    0.0000 C   0  0  0  0  0  0  0  0  0  0  0  0
  1  2  1  0  0  0  0
  1  6  1  0  0  0  0
  2  3  1  0  0  0  0
  3  4  1  0  0  0  0
  3  9  1  0  0  0  0
  4  5  1  0  0  0  0
  5  6  1  0  0  0  0
  6  7  1  0  0  0  0
  6  8  1  0  0  0  0
  9 10  1  0  0  0  0
  9 11  1  0  0  0  0
  9 12  1  0  0  0  0
M  END
> <ID>
1679

> <Formula>
C10H22N2

> <FW>
170.2951

> <DSSTox_CID>
1772

> <DSSTox_RID>
76318

> <DSSTox_GSID>
21772

> <DSSTox_FileID_Sort>
1002

> <TS_ChemName>
1,8-Diamino-p-menthane

> <TS_ChemName_Synonyms>
1,8-Diamino-p-menthane (1,8-p-Menthanediamine)

> <TS_CASRN>
80-52-4

> <CASRN_ChemName_Relationship>
primary

> <TS_Description>
single chemical compound

> <ChemNote>


> <STRUCTURE_Shown>
tested chemical

> <STRUCTURE_Formula>
C10H22N2

> <STRUCTURE_MW>
170.2951

> <STRUCTURE_ChemType>
defined organic

> <STRUCTURE_DefinedOrganicForm>
parent

> <STRUCTURE_IUPAC>
4-(2-aminopropan-2-yl)-1-methylcyclohexanamine

> <STRUCTURE_SMILES>
CC1(N)CCC(CC1)C(C)(C)N

> <STRUCTURE_SMILES_Desalt>
CC1(N)CCC(CC1)C(C)(C)N

> <Substance_modify_yyyymmdd>
20080429

$$$$
