81-90-3
ChemmineR-0914142331XD

 24 26  0  0  0  0  0  0  0  0  1 V2000
    6.6803   -3.2339    0.0000 C   0  0  0  0  0  0  0  0  0  0  0  0
    6.4494   -1.9496    0.0000 C   0  0  0  0  0  0  0  0  0  0  0  0
    5.3221   -1.3028    0.0000 C   0  0  0  0  0  0  0  0  0  0  0  0
    5.3221    0.0000    0.0000 O   0  0  0  0  0  0  0  0  0  0  0  0
    4.2041   -1.9496    0.0000 O   0  0  0  0  0  0  0  0  0  0  0  0
    7.4472   -1.1180    0.0000 C   0  0  0  0  0  0  0  0  0  0  0  0
    8.6669   -1.5615    0.0000 C   0  0  0  0  0  0  0  0  0  0  0  0
    8.8979   -2.8366    0.0000 C   0  0  0  0  0  0  0  0  0  0  0  0
    7.9000   -3.6774    0.0000 C   0  0  0  0  0  0  0  0  0  0  0  0
    5.5901   -4.5275    0.0000 C   0  0  0  0  0  0  0  0  0  0  0  0
    6.1444   -5.7009    0.0000 C   0  0  0  0  0  0  0  0  0  0  0  0
    7.4380   -5.8211    0.0000 C   0  0  0  0  0  0  0  0  0  0  0  0
    7.9832   -6.9945    0.0000 C   0  0  0  0  0  0  0  0  0  0  0  0
    7.2440   -8.0571    0.0000 C   0  0  0  0  0  0  0  0  0  0  0  0
    5.9412   -7.9462    0.0000 C   0  0  0  0  0  0  0  0  0  0  0  0
    5.3960   -6.7727    0.0000 C   0  0  0  0  0  0  0  0  0  0  0  0
    7.7891   -9.2398    0.0000 O   0  0  0  0  0  0  0  0  0  0  0  0
    3.8992   -4.5275    0.0000 C   0  0  0  0  0  0  0  0  0  0  0  0
    3.2524   -5.6547    0.0000 C   0  0  0  0  0  0  0  0  0  0  0  0
    1.9496   -5.6547    0.0000 C   0  0  0  0  0  0  0  0  0  0  0  0
    1.3028   -4.5275    0.0000 C   0  0  0  0  0  0  0  0  0  0  0  0
    1.9496   -3.4002    0.0000 C   0  0  0  0  0  0  0  0  0  0  0  0
    3.2524   -3.4002    0.0000 C   0  0  0  0  0  0  0  0  0  0  0  0
    0.0000   -4.5275    0.0000 O   0  0  0  0  0  0  0  0  0  0  0  0
  1  2  2  0  0  0  0
  1  9  1  0  0  0  0
  1 10  1  0  0  0  0
  2  3  1  0  0  0  0
  2  6  1  0  0  0  0
  3  4  2  0  0  0  0
  3  5  1  0  0  0  0
  6  7  2  0  0  0  0
  7  8  1  0  0  0  0
  8  9  2  0  0  0  0
 10 11  1  0  0  0  0
 10 18  1  0  0  0  0
 11 12  2  0  0  0  0
 11 16  1  0  0  0  0
 12 13  1  0  0  0  0
 13 14  2  0  0  0  0
 14 15  1  0  0  0  0
 14 17  1  0  0  0  0
 15 16  2  0  0  0  0
 18 19  2  0  0  0  0
 18 23  1  0  0  0  0
 19 20  1  0  0  0  0
 20 21  2  0  0  0  0
 21 22  1  0  0  0  0
 21 24  1  0  0  0  0
 22 23  2  0  0  0  0
M  END
> <ID>
2227

> <Formula>
C20H16O4

> <FW>
320.3386

> <DSSTox_CID>
2439

> <DSSTox_RID>
76591

> <DSSTox_GSID>
22439

> <DSSTox_FileID_Sort>
1275

> <TS_ChemName>
Phenolphthalin

> <TS_ChemName_Synonyms>


> <TS_CASRN>
81-90-3

> <CASRN_ChemName_Relationship>
primary

> <TS_Description>
single chemical compound

> <ChemNote>


> <STRUCTURE_Shown>
tested chemical

> <STRUCTURE_Formula>
C20H16O4

> <STRUCTURE_MW>
320.3386

> <STRUCTURE_ChemType>
defined organic

> <STRUCTURE_DefinedOrganicForm>
parent

> <STRUCTURE_IUPAC>
2-[bis(4-hydroxyphenyl)methyl]benzoic acid

> <STRUCTURE_SMILES>
Oc1ccc(cc1)C(c2ccccc2C(=O)O)c3ccc(O)cc3

> <STRUCTURE_SMILES_Desalt>
Oc1ccc(cc1)C(c2ccccc2C(=O)O)c3ccc(O)cc3

> <Substance_modify_yyyymmdd>
20080429

$$$$
