81103-11-9
ChemmineR-0914142331XD

 52 54  0  0  1  0  0  0  0  0  1 V2000
    5.6413   -1.9682    0.0000 C   0  0  0  0  0  0  0  0  0  0  0  0
    5.6413   -3.2988    0.0000 C   0  0  0  0  0  0  0  0  0  0  0  0
    4.5186   -1.3168    0.0000 C   0  0  0  0  0  0  0  0  0  0  0  0
    3.3959   -1.9682    0.0000 C   0  0  0  0  0  0  0  0  0  0  0  0
    3.3959   -3.2988    0.0000 C   0  0  0  0  0  0  0  0  0  0  0  0
    3.3959   -5.8769    0.0000 O   0  0  0  0  0  0  0  0  0  0  0  0
    2.2593   -3.9087    0.0000 C   0  0  0  0  0  0  0  0  0  0  0  0
    2.2593   -5.2255    0.0000 C   0  0  0  0  0  0  0  0  0  0  0  0
    6.8056   -3.9087    0.0000 C   0  0  0  0  0  0  0  0  0  0  0  0
    6.8056   -5.2255    0.0000 C   0  0  0  0  0  0  0  0  0  0  0  0
    5.6413   -5.9047    0.0000 C   0  0  0  0  0  0  0  0  0  0  0  0
    3.3959   -7.1798    0.0000 C   0  0  0  0  0  0  0  0  0  0  0  0
    5.6413   -7.1798    0.0000 C   0  0  0  0  0  0  0  0  0  0  0  0
    4.5186   -7.8452    0.0000 C   0  0  0  0  0  0  0  0  0  0  0  0
    4.5186    0.0000    0.0000 O   0  0  0  0  0  0  0  0  0  0  0  0
    2.2593   -1.3168    0.0000 C   0  0  0  0  0  0  0  0  0  0  0  0
    6.8056   -1.3168    0.0000 C   0  0  0  0  0  0  0  0  0  0  0  0
    4.5186   -3.9087    0.0000 O   0  0  0  0  0  0  0  0  0  0  0  0
    0.9564   -3.9087    0.0000 O   0  0  0  0  0  0  0  0  0  0  0  0
    1.6217   -2.7721    0.0000 C   0  0  0  0  0  0  0  0  0  0  0  0
    1.1366   -5.8769    0.0000 C   0  0  0  0  0  0  0  0  0  0  0  0
    0.0000   -5.2255    0.0000 C   0  0  0  0  0  0  0  0  0  0  0  0
    2.2593   -7.8452    0.0000 O   0  0  0  0  0  0  0  0  0  0  0  0
    4.5186   -9.1619    0.0000 C   0  0  0  0  0  0  0  0  0  0  0  0
    6.8056   -7.8452    0.0000 O   0  0  0  0  0  0  0  0  0  0  0  0
    4.5186   -5.2255    0.0000 C   0  0  0  0  0  0  0  0  0  0  0  0
    8.2887   -6.0987    0.0000 O   0  0  0  0  0  0  0  0  0  0  0  0
    8.1085   -3.9087    0.0000 C   0  0  0  0  0  0  0  0  0  0  0  0
    8.7461   -2.7999    0.0000 C   0  0  0  0  0  0  0  0  0  0  0  0
   12.5578   -6.0710    0.0000 C   0  0  0  0  0  0  0  0  0  0  0  0
   11.9202   -7.2076    0.0000 C   0  0  0  0  0  0  0  0  0  0  0  0
   11.9202   -4.9205    0.0000 C   0  0  0  0  0  0  0  0  0  0  0  0
   10.6173   -7.2076    0.0000 O   0  0  0  0  0  0  0  0  0  0  0  0
   10.6173   -4.9205    0.0000 C   0  0  0  0  0  0  0  0  0  0  0  0
    9.9381   -6.0710    0.0000 C   0  0  0  0  0  0  0  0  0  0  0  0
    9.9381   -3.7978    0.0000 O   0  0  0  0  0  0  0  0  0  0  0  0
   12.5578   -3.7978    0.0000 N   0  0  0  0  0  0  0  0  0  0  0  0
   12.5578   -8.3441    0.0000 C   0  0  0  0  0  0  0  0  0  0  0  0
   13.8607   -3.7978    0.0000 C   0  0  0  0  0  0  0  0  0  0  0  0
   11.9202   -2.6751    0.0000 C   0  0  0  0  0  0  0  0  0  0  0  0
    6.8195  -12.1142    0.0000 C   0  0  0  0  0  0  0  0  0  0  0  0
    5.6829  -11.4212    0.0000 C   0  0  0  0  0  0  0  0  0  0  0  0
    7.9560  -11.4212    0.0000 C   0  0  0  0  0  0  0  0  0  0  0  0
    5.6829  -10.1183    0.0000 O   0  0  0  0  0  0  0  0  0  0  0  0
    7.9560  -10.1183    0.0000 C   0  0  0  0  0  0  0  0  0  0  0  0
    6.8195   -9.4946    0.0000 C   0  0  0  0  0  0  0  0  0  0  0  0
    4.5324  -12.1142    0.0000 C   0  0  0  0  0  0  0  0  0  0  0  0
    8.5936  -12.5994    0.0000 O   0  0  0  0  0  0  0  0  0  0  0  0
    9.2589  -11.4212    0.0000 C   0  0  0  0  0  0  0  0  0  0  0  0
    9.8965  -12.5994    0.0000 C   0  0  0  0  0  0  0  0  0  0  0  0
    6.8195  -13.4033    0.0000 O   0  0  0  0  0  0  0  0  0  0  0  0
    7.4709   -2.7721    0.0000 O   0  0  0  0  0  0  0  0  0  0  0  0
  1  2  1  0  0  0  0
  1  3  1  0  0  0  0
  1 17  1  6  0  0  0
  2  9  1  0  0  0  0
  3  4  1  0  0  0  0
  3 15  2  0  0  0  0
  4  5  1  0  0  0  0
  4 16  1  1  0  0  0
  5  7  1  0  0  0  0
  5 18  1  1  0  0  0
  6  8  1  0  0  0  0
  6 12  1  0  0  0  0
  7  8  1  0  0  0  0
  7 19  1  1  0  0  0
  7 20  1  6  0  0  0
  8 21  1  6  0  0  0
  9 10  1  0  0  0  0
  9 28  1  6  0  0  0
  9 52  1  1  0  0  0
 10 11  1  0  0  0  0
 10 27  1  6  0  0  0
 11 13  1  0  0  0  0
 11 26  1  0  0  0  0
 12 14  1  0  0  0  0
 12 23  2  0  0  0  0
 13 14  1  0  0  0  0
 13 25  1  6  0  0  0
 14 24  1  1  0  0  0
 21 22  1  0  0  0  0
 46 25  1  1  0  0  0
 35 27  1  1  0  0  0
 29 52  1  0  0  0  0
 30 31  1  0  0  0  0
 30 32  1  0  0  0  0
 31 33  1  0  0  0  0
 31 38  1  1  0  0  0
 32 34  1  0  0  0  0
 32 37  1  1  0  0  0
 33 35  1  0  0  0  0
 34 35  1  0  0  0  0
 34 36  1  6  0  0  0
 37 39  1  0  0  0  0
 37 40  1  0  0  0  0
 41 42  1  0  0  0  0
 41 43  1  0  0  0  0
 41 51  1  1  0  0  0
 42 44  1  0  0  0  0
 42 47  1  6  0  0  0
 43 45  1  0  0  0  0
 43 48  1  1  0  0  0
 43 49  1  0  0  0  0
 44 46  1  0  0  0  0
 45 46  1  0  0  0  0
 48 50  1  0  0  0  0
M  END
> <ID>
2556

> <Formula>
C38H69NO13

> <FW>
747.9534

> <DSSTox_CID>
2829

> <DSSTox_RID>
76748

> <DSSTox_GSID>
22829

> <DSSTox_FileID_Sort>
1432

> <TS_ChemName>
Clarithromycin

> <TS_ChemName_Synonyms>


> <TS_CASRN>
81103-11-9

> <CASRN_ChemName_Relationship>
primary

> <TS_Description>
single chemical compound

> <ChemNote>
stereochem

> <STRUCTURE_Shown>
tested chemical

> <STRUCTURE_Formula>
C38H69NO13

> <STRUCTURE_MW>
747.9534

> <STRUCTURE_ChemType>
defined organic

> <STRUCTURE_DefinedOrganicForm>
parent

> <STRUCTURE_IUPAC>
(3R,4S,6R,7R,9R,11R,12R,13S,14R)-6-{[(2S,3R,4S,6R)-4-(dimethylamino)-3-hydroxy-6-methyltetrahydro-2H-pyran-2-yl]oxy}-14-ethyl-12,13-dihydroxy-4-{[(2R,4R,5S,6S)-5-hydroxy-4-methoxy-4,6-dimethyltetrahydro-2H-pyran-2-yl]oxy}-7-methoxy-3,5,7,9,11,13-hexamethy

> <STRUCTURE_SMILES>
CN(C)[C@H]3C[C@@H](C)O[C@@H](O[C@@H]2C(C)[C@H](O[C@H]1C[C@@](C)(OC)[C@@H](O)[C@H](C)O1)[C@@H](C)C(=O)O[C@H](CC)[C@@](C)(O)[C@H](O)[C@@H](C)C(=O)[C@H](C)C[C@@]2(C)OC)[C@@H]3O

> <STRUCTURE_SMILES_Desalt>
CN(C)[C@H]3C[C@@H](C)O[C@@H](O[C@@H]2C(C)[C@H](O[C@H]1C[C@@](C)(OC)[C@@H](O)[C@H](C)O1)[C@@H](C)C(=O)O[C@H](CC)[C@@](C)(O)[C@H](O)[C@@H](C)C(=O)[C@H](C)C[C@@]2(C)OC)[C@@H]3O

> <Substance_modify_yyyymmdd>
20080429

$$$$
