81409-90-7
ChemmineR-0914142331XD

 35 38  0  0  1  0  0  0  0  0  1 V2000
    3.3354   -5.9081    0.0000 C   0  0  0  0  0  0  0  0  0  0  0  0
    2.2084   -6.5342    0.0000 C   0  0  0  0  0  0  0  0  0  0  0  0
    4.5193   -6.5342    0.0000 C   0  0  0  0  0  0  0  0  0  0  0  0
    3.3354   -4.5876    0.0000 C   0  0  0  0  0  0  0  0  0  0  0  0
    2.2084   -7.8889    0.0000 C   0  0  0  0  0  0  0  0  0  0  0  0
    1.0473   -5.9081    0.0000 C   0  0  0  0  0  0  0  0  0  0  0  0
    5.6463   -5.9081    0.0000 N   0  0  0  0  0  0  0  0  0  0  0  0
    4.5193   -7.8889    0.0000 C   0  0  0  0  0  0  0  0  0  0  0  0
    4.5193   -3.9046    0.0000 C   0  0  0  0  0  0  0  0  0  0  0  0
    3.3354   -8.5264    0.0000 C   0  0  0  0  0  0  0  0  0  0  0  0
    1.0473   -8.5264    0.0000 C   0  0  0  0  0  0  0  0  0  0  0  0
    0.0000   -6.5342    0.0000 C   0  0  0  0  0  0  0  0  0  0  0  0
    5.6463   -4.5876    0.0000 C   0  0  0  0  0  0  0  0  0  0  0  0
    6.8188   -6.5342    0.0000 C   0  0  0  0  0  0  0  0  0  0  0  0
    4.5193   -2.5499    0.0000 C   0  0  0  0  0  0  0  0  0  0  0  0
    3.3354   -9.8697    0.0000 C   0  0  0  0  0  0  0  0  0  0  0  0
    1.0473   -9.8697    0.0000 N   0  0  0  0  0  0  0  0  0  0  0  0
    0.0000   -7.8889    0.0000 C   0  0  0  0  0  0  0  0  0  0  0  0
    7.9572   -5.9081    0.0000 C   0  0  0  0  0  0  0  0  0  0  0  0
    5.6463   -1.9125    0.0000 N   0  0  0  0  0  0  0  0  0  0  0  0
    3.3354   -1.9125    0.0000 O   0  0  0  0  0  0  0  0  0  0  0  0
    9.0728   -6.5342    0.0000 C   0  0  0  0  0  0  0  0  0  0  0  0
    5.6463   -0.6716    0.0000 C   0  0  0  0  0  0  0  0  0  0  0  0
    6.8188   -2.5499    0.0000 C   0  0  0  0  0  0  0  0  0  0  0  0
    6.8188    0.0000    0.0000 N   0  0  0  0  0  0  0  0  0  0  0  0
    4.4738    0.0000    0.0000 O   0  0  0  0  0  0  0  0  0  0  0  0
    7.9572   -1.9125    0.0000 C   0  0  0  0  0  0  0  0  0  0  0  0
    7.9572   -0.6716    0.0000 C   0  0  0  0  0  0  0  0  0  0  0  0
    9.0728   -2.5499    0.0000 C   0  0  0  0  0  0  0  0  0  0  0  0
    9.0728    0.0000    0.0000 C   0  0  0  0  0  0  0  0  0  0  0  0
   10.2453   -1.9125    0.0000 N   0  0  0  0  0  0  0  0  0  0  0  0
   10.2453   -0.6716    0.0000 C   0  0  0  0  0  0  0  0  0  0  0  0
   11.3837   -2.5499    0.0000 C   0  0  0  0  0  0  0  0  0  0  0  0
    2.3678   -5.3276    0.0000 H   0  0  0  0  0  0  0  0  0  0  0  0
    5.4983   -7.0920    0.0000 H   0  0  0  0  0  0  0  0  0  0  0  0
  1  2  1  0  0  0  0
  1  3  1  0  0  0  0
  1  4  1  0  0  0  0
  1 34  1  6  0  0  0
  2  5  2  0  0  0  0
  2  6  1  0  0  0  0
  3  7  1  0  0  0  0
  3  8  1  0  0  0  0
  3 35  1  1  0  0  0
  4  9  1  0  0  0  0
  5 10  1  0  0  0  0
  5 11  1  0  0  0  0
  6 12  2  0  0  0  0
  7 13  1  0  0  0  0
  7 14  1  0  0  0  0
  8 10  1  0  0  0  0
  9 15  1  1  0  0  0
  9 13  1  0  0  0  0
 10 16  2  0  0  0  0
 11 17  1  0  0  0  0
 11 18  2  0  0  0  0
 12 18  1  0  0  0  0
 14 19  1  0  0  0  0
 15 20  1  0  0  0  0
 15 21  2  0  0  0  0
 16 17  1  0  0  0  0
 19 22  2  0  0  0  0
 20 23  1  0  0  0  0
 20 24  1  0  0  0  0
 23 25  1  0  0  0  0
 23 26  2  0  0  0  0
 24 27  1  0  0  0  0
 25 28  1  0  0  0  0
 27 29  1  0  0  0  0
 28 30  1  0  0  0  0
 29 31  1  0  0  0  0
 31 32  1  0  0  0  0
 31 33  1  0  0  0  0
M  END
> <ID>
2460

> <Formula>
C26H37N5O2

> <FW>
451.6043

> <DSSTox_CID>
2719

> <DSSTox_RID>
76698

> <DSSTox_GSID>
22719

> <DSSTox_FileID_Sort>
1382

> <TS_ChemName>
Cabergoline

> <TS_ChemName_Synonyms>


> <TS_CASRN>
81409-90-7

> <CASRN_ChemName_Relationship>
primary

> <TS_Description>
single chemical compound

> <ChemNote>
stereochem

> <STRUCTURE_Shown>
tested chemical

> <STRUCTURE_Formula>
C26H37N5O2

> <STRUCTURE_MW>
451.6043

> <STRUCTURE_ChemType>
defined organic

> <STRUCTURE_DefinedOrganicForm>
parent

> <STRUCTURE_IUPAC>
(8beta)-N-[3-(dimethylamino)propyl]-N-(ethylcarbamoyl)-6-(prop-2-en-1-yl)ergoline-8-carboxamide

> <STRUCTURE_SMILES>
CCNC(=O)N(CCCN(C)C)C(=O)[C@@H]1C[C@@H]2c3cccc4ncc(C[C@H]2N(C1)CC=C)c34

> <STRUCTURE_SMILES_Desalt>
CCNC(=O)N(CCCN(C)C)C(=O)[C@@H]1C[C@@H]2c3cccc4ncc(C[C@H]2N(C1)CC=C)c34

> <Substance_modify_yyyymmdd>
20080429

$$$$
