82586-55-8
ChemmineR-0914142331XD

 33 34  0  0  1  0  0  0  0  0  1 V2000
    8.6539   -2.2981    0.0000 N    0  0  0  0  0  0  0  0  0  0  0  0
    7.9955   -1.1610    0.0000 C    0  0  0  0  0  0  0  0  0  0  0  0
    9.9825   -2.2981    0.0000 C    0  0  0  0  0  0  0  0  0  0  0  0
    7.9955   -3.4472    0.0000 C    0  0  0  0  0  0  0  0  0  0  0  0
   10.6527   -3.4711    0.0000 C    0  0  0  0  0  0  0  0  0  0  0  0
    5.9847   -2.2981    0.0000 N    0  0  0  0  0  0  0  0  0  0  0  0
   10.6527   -1.1610    0.0000 C    0  0  0  0  0  0  0  0  0  0  0  0
    6.6430   -1.1610    0.0000 C    0  0  0  0  0  0  0  0  0  0  0  0
    3.9738   -1.1610    0.0000 C    0  0  0  0  0  0  0  0  0  0  0  0
    8.6539   -4.6082    0.0000 C    0  0  0  0  0  0  0  0  0  0  0  0
    9.9825   -4.6082    0.0000 C    0  0  0  0  0  0  0  0  0  0  0  0
    4.6561   -2.2981    0.0000 C    0  0  0  0  0  0  0  0  0  0  0  0
    8.6539    0.0000    0.0000 O    0  0  0  0  0  0  0  0  0  0  0  0
    9.9825    0.0000    0.0000 O    0  0  0  0  0  0  0  0  0  0  0  0
    4.6561    0.0000    0.0000 O    0  0  0  0  0  0  0  0  0  0  0  0
    3.9738   -3.4711    0.0000 C    0  0  0  0  0  0  0  0  0  0  0  0
   11.9694   -1.1610    0.0000 O    0  0  0  0  0  0  0  0  0  0  0  0
    2.6692   -1.1610    0.0000 O    0  0  0  0  0  0  0  0  0  0  0  0
    2.6692   -3.4711    0.0000 C    0  0  0  0  0  0  0  0  0  0  0  0
    1.9869   -4.6082    0.0000 C    0  0  0  0  0  0  0  0  0  0  0  0
    5.9847    0.0000    0.0000 C    0  0  0  0  0  0  0  0  0  0  0  0
    7.9955   -5.7573    0.0000 C    0  0  0  0  0  0  0  0  0  0  0  0
   10.6527   -5.7573    0.0000 C    0  0  0  0  0  0  0  0  0  0  0  0
    1.9869   -2.2981    0.0000 C    0  0  0  0  0  0  0  0  0  0  0  0
    2.6692   -5.7573    0.0000 C    0  0  0  0  0  0  0  0  0  0  0  0
    0.6583   -4.6082    0.0000 C    0  0  0  0  0  0  0  0  0  0  0  0
    0.6583   -2.2981    0.0000 C    0  0  0  0  0  0  0  0  0  0  0  0
    8.6539   -6.9183    0.0000 C    0  0  0  0  0  0  0  0  0  0  0  0
    9.9825   -6.9183    0.0000 C    0  0  0  0  0  0  0  0  0  0  0  0
    1.9869   -6.9183    0.0000 C    0  0  0  0  0  0  0  0  0  0  0  0
    0.0000   -5.7573    0.0000 C    0  0  0  0  0  0  0  0  0  0  0  0
    0.6583   -6.9183    0.0000 C    0  0  0  0  0  0  0  0  0  0  0  0
    4.8955   -7.0141    0.0000 Cl   0  0  0  0  0  0  0  0  0  0  0  0
  1  2  1  0  0  0  0
  1  3  1  0  0  0  0
  1  4  1  0  0  0  0
  2  8  1  0  0  0  0
  2 13  2  0  0  0  0
  3  5  1  0  0  0  0
  3  7  1  6  0  0  0
  4 10  1  0  0  0  0
  5 11  1  0  0  0  0
  6  8  1  0  0  0  0
  6 12  1  0  0  0  0
  7 14  2  0  0  0  0
  7 17  1  0  0  0  0
  8 21  1  1  0  0  0
 12  9  1  1  0  0  0
  9 15  2  0  0  0  0
  9 18  1  0  0  0  0
 10 11  2  0  0  0  0
 10 22  1  0  0  0  0
 11 23  1  0  0  0  0
 12 16  1  0  0  0  0
 16 19  1  0  0  0  0
 18 24  1  0  0  0  0
 19 20  1  0  0  0  0
 20 25  1  0  0  0  0
 20 26  2  0  0  0  0
 22 28  2  0  0  0  0
 23 29  2  0  0  0  0
 24 27  1  0  0  0  0
 25 30  2  0  0  0  0
 26 31  1  0  0  0  0
 28 29  1  0  0  0  0
 30 32  1  0  0  0  0
 31 32  2  0  0  0  0
M  END
> <ID>
1174

> <Formula>
C25H31ClN2O5

> <FW>
474.9770 (438.5161+36.4609)

> <DSSTox_CID>
1221

> <DSSTox_RID>
76019

> <DSSTox_GSID>
21221

> <DSSTox_FileID_Sort>
703

> <TS_ChemName>
Quinapril hydrochloride

> <TS_ChemName_Synonyms>


> <TS_CASRN>
82586-55-8

> <CASRN_ChemName_Relationship>
primary

> <TS_Description>
single chemical compound

> <ChemNote>
stereochem; parent  [85441-61-8]

> <STRUCTURE_Shown>
tested chemical

> <STRUCTURE_Formula>
C25H31ClN2O5

> <STRUCTURE_MW>
474.977

> <STRUCTURE_ChemType>
defined organic

> <STRUCTURE_DefinedOrganicForm>
complex

> <STRUCTURE_IUPAC>
(3S)-2-{N-[(2S)-1-ethoxy-1-oxo-4-phenylbutan-2-yl]-L-alanyl}-1,2,3,4-tetrahydroisoquinoline-3-carboxylic acid hydrochloride (1:1)

> <STRUCTURE_SMILES>
Cl.O=C(OCC)[C@H](CCc1ccccc1)N[C@@H](C)C(=O)N2Cc3ccccc3C[C@H]2C(=O)O

> <STRUCTURE_SMILES_Desalt>
O=C(OCC)[C@H](CCc1ccccc1)N[C@@H](C)C(=O)N2Cc3ccccc3C[C@H]2C(=O)O

> <Substance_modify_yyyymmdd>
20080429

$$$$
