83-46-5
ChemmineR-0914142331XD

 34 37  0  0  1  0  0  0  0  0  1 V2000
    6.9132   -4.3955    0.0000 C   0  0  0  0  0  0  0  0  0  0  0  0
    3.4914   -6.4124    0.0000 C   0  0  0  0  0  0  0  0  0  0  0  0
    3.4914   -7.7061    0.0000 C   0  0  0  0  0  0  0  0  0  0  0  0
    6.9132   -5.7169    0.0000 C   0  0  0  0  0  0  0  0  0  0  0  0
    4.6181   -5.7169    0.0000 C   0  0  0  0  0  0  0  0  0  0  0  0
    5.7726   -6.4124    0.0000 C   0  0  0  0  0  0  0  0  0  0  0  0
    8.1929   -3.9643    0.0000 C   0  0  0  0  0  0  0  0  0  0  0  0
    4.6181   -8.3598    0.0000 C   0  0  0  0  0  0  0  0  0  0  0  0
    5.7726   -3.7000    0.0000 C   0  0  0  0  0  0  0  0  0  0  0  0
    5.7726   -7.7061    0.0000 C   0  0  0  0  0  0  0  0  0  0  0  0
    4.6181   -4.3955    0.0000 C   0  0  0  0  0  0  0  0  0  0  0  0
    8.1929   -6.1203    0.0000 C   0  0  0  0  0  0  0  0  0  0  0  0
    2.3229   -5.7169    0.0000 C   0  0  0  0  0  0  0  0  0  0  0  0
    8.9579   -5.0354    0.0000 C   0  0  0  0  0  0  0  0  0  0  0  0
    2.3229   -8.3598    0.0000 C   0  0  0  0  0  0  0  0  0  0  0  0
    8.1929   -2.6568    0.0000 C   0  0  0  0  0  0  0  0  0  0  0  0
    9.3335   -1.9752    0.0000 C   0  0  0  0  0  0  0  0  0  0  0  0
   10.4741   -2.6568    0.0000 C   0  0  0  0  0  0  0  0  0  0  0  0
    6.9132   -3.0323    0.0000 C   0  0  0  0  0  0  0  0  0  0  0  0
   11.6286   -1.9752    0.0000 C   0  0  0  0  0  0  0  0  0  0  0  0
    1.1823   -6.4124    0.0000 C   0  0  0  0  0  0  0  0  0  0  0  0
    1.1823   -7.7061    0.0000 C   0  0  0  0  0  0  0  0  0  0  0  0
    3.4914   -5.0493    0.0000 C   0  0  0  0  0  0  0  0  0  0  0  0
   12.7692   -2.6568    0.0000 C   0  0  0  0  0  0  0  0  0  0  0  0
    0.0000   -8.3737    0.0000 O   0  0  0  0  0  0  0  0  0  0  0  0
   11.6286   -0.6677    0.0000 C   0  0  0  0  0  0  0  0  0  0  0  0
    7.0523   -1.9752    0.0000 C   0  0  0  0  0  0  0  0  0  0  0  0
   13.9098   -1.9752    0.0000 C   0  0  0  0  0  0  0  0  0  0  0  0
   12.7692   -3.9643    0.0000 C   0  0  0  0  0  0  0  0  0  0  0  0
   10.4741    0.0000    0.0000 C   0  0  0  0  0  0  0  0  0  0  0  0
    5.7726   -5.0632    0.0000 H   0  0  0  0  0  0  0  0  0  0  0  0
    8.1929   -5.2718    0.0000 H   0  0  0  0  0  0  0  0  0  0  0  0
    6.9132   -7.0662    0.0000 H   0  0  0  0  0  0  0  0  0  0  0  0
    4.6181   -7.0662    0.0000 H   0  0  0  0  0  0  0  0  0  0  0  0
  1  4  1  0  0  0  0
  1  7  1  0  0  0  0
  1  9  1  0  0  0  0
  1 19  1  1  0  0  0
  2  5  1  0  0  0  0
  2  3  1  0  0  0  0
  2 13  1  0  0  0  0
  2 23  1  1  0  0  0
  3 15  1  0  0  0  0
  3  8  2  0  0  0  0
  4  6  1  0  0  0  0
  4 12  1  0  0  0  0
  4 33  1  6  0  0  0
  5 11  1  0  0  0  0
  5  6  1  0  0  0  0
  5 34  1  6  0  0  0
  6 10  1  0  0  0  0
  6 31  1  1  0  0  0
  7 14  1  0  0  0  0
  7 16  1  0  0  0  0
  7 32  1  6  0  0  0
  8 10  1  0  0  0  0
  9 11  1  0  0  0  0
 12 14  1  0  0  0  0
 13 21  1  0  0  0  0
 15 22  1  0  0  0  0
 16 17  1  0  0  0  0
 16 27  1  6  0  0  0
 17 18  1  0  0  0  0
 18 20  1  0  0  0  0
 20 24  1  0  0  0  0
 20 26  1  1  0  0  0
 21 22  1  0  0  0  0
 22 25  1  1  0  0  0
 24 28  1  0  0  0  0
 24 29  1  0  0  0  0
 26 30  1  0  0  0  0
M  END
> <ID>
2256

> <Formula>
C29H50O

> <FW>
414.7067

> <DSSTox_CID>
2481

> <DSSTox_RID>
76601

> <DSSTox_GSID>
22481

> <DSSTox_FileID_Sort>
1285

> <TS_ChemName>
beta-Sitosterol

> <TS_ChemName_Synonyms>


> <TS_CASRN>
83-46-5

> <CASRN_ChemName_Relationship>
primary

> <TS_Description>
single chemical compound

> <ChemNote>
stereochem

> <STRUCTURE_Shown>
tested chemical

> <STRUCTURE_Formula>
C29H50O

> <STRUCTURE_MW>
414.7067

> <STRUCTURE_ChemType>
defined organic

> <STRUCTURE_DefinedOrganicForm>
parent

> <STRUCTURE_IUPAC>
(3beta)-stigmast-5-en-3-ol

> <STRUCTURE_SMILES>
CC(C)[C@H](CC)CC[C@@H](C)[C@H]4CC[C@@H]3[C@]4(C)CC[C@H]2[C@H]3CC=C1C[C@@H](O)CC[C@@]12C

> <STRUCTURE_SMILES_Desalt>
CC(C)[C@H](CC)CC[C@@H](C)[C@H]4CC[C@@H]3[C@]4(C)CC[C@H]2[C@H]3CC=C1C[C@@H](O)CC[C@@]12C

> <Substance_modify_yyyymmdd>
20080429

$$$$
