830-89-7
ChemmineR-0914142331XD

 14 14  0  0  0  0  0  0  0  0  1 V2000
    5.5135   -2.3642    0.0000 N   0  0  0  0  0  0  0  0  0  0  0  0
    4.7195   -1.3056    0.0000 C   0  0  0  0  0  0  0  0  0  0  0  0
    4.7195   -3.4492    0.0000 C   0  0  0  0  0  0  0  0  0  0  0  0
    3.4845   -1.7026    0.0000 N   0  0  0  0  0  0  0  0  0  0  0  0
    3.4845   -3.0346    0.0000 C   0  0  0  0  0  0  0  0  0  0  0  0
    5.1165    0.0000    0.0000 S   0  0  0  0  0  0  0  0  0  0  0  0
    5.1165   -4.7195    0.0000 O   0  0  0  0  0  0  0  0  0  0  0  0
    2.3112   -3.6962    0.0000 C   0  0  0  0  0  0  0  0  0  0  0  0
    6.8367   -2.3642    0.0000 C   0  0  0  0  0  0  0  0  0  0  0  0
    7.4895   -3.5198    0.0000 C   0  0  0  0  0  0  0  0  0  0  0  0
    8.8215   -3.5198    0.0000 C   0  0  0  0  0  0  0  0  0  0  0  0
    1.1556   -3.0346    0.0000 C   0  0  0  0  0  0  0  0  0  0  0  0
    0.0000   -3.6962    0.0000 C   0  0  0  0  0  0  0  0  0  0  0  0
    1.1556   -1.7026    0.0000 C   0  0  0  0  0  0  0  0  0  0  0  0
  1  2  1  0  0  0  0
  1  3  1  0  0  0  0
  1  9  1  0  0  0  0
  2  4  1  0  0  0  0
  2  6  2  0  0  0  0
  3  5  1  0  0  0  0
  3  7  2  0  0  0  0
  4  5  1  0  0  0  0
  5  8  1  0  0  0  0
  8 12  1  0  0  0  0
  9 10  1  0  0  0  0
 10 11  2  0  0  0  0
 12 13  1  0  0  0  0
 12 14  1  0  0  0  0
M  END
> <ID>
2326

> <Formula>
C10H16N2OS

> <FW>
212.3118

> <DSSTox_CID>
2565

> <DSSTox_RID>
76633

> <DSSTox_GSID>
22565

> <DSSTox_FileID_Sort>
1317

> <TS_ChemName>
Albutoin

> <TS_ChemName_Synonyms>


> <TS_CASRN>
830-89-7

> <CASRN_ChemName_Relationship>
primary

> <TS_Description>
single chemical compound

> <ChemNote>


> <STRUCTURE_Shown>
tested chemical

> <STRUCTURE_Formula>
C10H16N2OS

> <STRUCTURE_MW>
212.3118

> <STRUCTURE_ChemType>
defined organic

> <STRUCTURE_DefinedOrganicForm>
parent

> <STRUCTURE_IUPAC>
5-(2-methylpropyl)-3-(prop-2-en-1-yl)-2-thioxoimidazolidin-4-one

> <STRUCTURE_SMILES>
S=C1NC(CC(C)C)C(=O)N1CC=C

> <STRUCTURE_SMILES_Desalt>
S=C1NC(CC(C)C)C(=O)N1CC=C

> <Substance_modify_yyyymmdd>
20080429

$$$$
