834-28-6
ChemmineR-0914142331XD

 16 15  0  0  0  0  0  0  0  0  1 V2000
    8.0575   -1.9988    0.0000 C    0  0  0  0  0  0  0  0  0  0  0  0
    6.9079   -2.6617    0.0000 C    0  0  0  0  0  0  0  0  0  0  0  0
    5.7583   -1.9988    0.0000 C    0  0  0  0  0  0  0  0  0  0  0  0
    4.5984   -2.6617    0.0000 N    0  0  0  0  0  0  0  0  0  0  0  0
    3.4488   -1.9988    0.0000 C    0  0  0  0  0  0  0  0  0  0  0  0
    2.2992   -2.6617    0.0000 N    0  0  0  0  0  0  0  0  0  0  0  0
    1.1496   -1.9988    0.0000 C    0  0  0  0  0  0  0  0  0  0  0  0
    0.0000   -2.6617    0.0000 N    0  0  0  0  0  0  0  0  0  0  0  0
    1.1496   -0.6628    0.0000 N    0  0  0  0  0  0  0  0  0  0  0  0
    3.4488   -0.6628    0.0000 N    0  0  0  0  0  0  0  0  0  0  0  0
    8.0575   -0.6628    0.0000 C    0  0  0  0  0  0  0  0  0  0  0  0
    9.2071    0.0000    0.0000 C    0  0  0  0  0  0  0  0  0  0  0  0
   10.3567   -0.6628    0.0000 C    0  0  0  0  0  0  0  0  0  0  0  0
   10.3567   -1.9988    0.0000 C    0  0  0  0  0  0  0  0  0  0  0  0
    9.2071   -2.6617    0.0000 C    0  0  0  0  0  0  0  0  0  0  0  0
    3.8009   -3.8631    0.0000 Cl   0  0  0  0  0  0  0  0  0  0  0  0
  1  2  1  0  0  0  0
  1 11  2  0  0  0  0
  1 15  1  0  0  0  0
  2  3  1  0  0  0  0
  3  4  1  0  0  0  0
  4  5  1  0  0  0  0
  5  6  1  0  0  0  0
  5 10  2  0  0  0  0
  6  7  1  0  0  0  0
  7  8  1  0  0  0  0
  7  9  2  0  0  0  0
 11 12  1  0  0  0  0
 12 13  2  0  0  0  0
 13 14  1  0  0  0  0
 14 15  2  0  0  0  0
M  END
> <ID>
1077

> <Formula>
C10H16ClN5

> <FW>
241.7205 (205.2596+36.4609)

> <DSSTox_CID>
1121

> <DSSTox_RID>
75952

> <DSSTox_GSID>
21121

> <DSSTox_FileID_Sort>
636

> <TS_ChemName>
Phenformin hydrochloride

> <TS_ChemName_Synonyms>


> <TS_CASRN>
834-28-6

> <CASRN_ChemName_Relationship>
primary

> <TS_Description>
single chemical compound

> <ChemNote>
parent [114-86-3]

> <STRUCTURE_Shown>
tested chemical

> <STRUCTURE_Formula>
C10H16ClN5

> <STRUCTURE_MW>
241.7205

> <STRUCTURE_ChemType>
defined organic

> <STRUCTURE_DefinedOrganicForm>
complex

> <STRUCTURE_IUPAC>
N-(2-phenylethyl)imidodicarbonimidic diamide hydrochloride (1:1)

> <STRUCTURE_SMILES>
Cl.N=C(N)NC(=N)NCCc1ccccc1

> <STRUCTURE_SMILES_Desalt>
N=C(N)NC(=N)NCCc1ccccc1

> <Substance_modify_yyyymmdd>
20080429

$$$$
