835-11-0
ChemmineR-0914142331XD

 16 17  0  0  0  0  0  0  0  0  1 V2000
    3.4567   -2.6617    0.0000 C   0  0  0  0  0  0  0  0  0  0  0  0
    2.3022   -1.9911    0.0000 C   0  0  0  0  0  0  0  0  0  0  0  0
    1.1545   -2.6617    0.0000 C   0  0  0  0  0  0  0  0  0  0  0  0
    1.1545   -3.9891    0.0000 O   0  0  0  0  0  0  0  0  0  0  0  0
    0.0000   -1.9911    0.0000 C   0  0  0  0  0  0  0  0  0  0  0  0
    0.0000   -0.6637    0.0000 C   0  0  0  0  0  0  0  0  0  0  0  0
    1.1545    0.0000    0.0000 C   0  0  0  0  0  0  0  0  0  0  0  0
    2.3022   -0.6637    0.0000 C   0  0  0  0  0  0  0  0  0  0  0  0
    4.6113   -1.9911    0.0000 C   0  0  0  0  0  0  0  0  0  0  0  0
    4.6113   -0.6637    0.0000 C   0  0  0  0  0  0  0  0  0  0  0  0
    3.4567    0.0000    0.0000 O   0  0  0  0  0  0  0  0  0  0  0  0
    5.7589    0.0000    0.0000 C   0  0  0  0  0  0  0  0  0  0  0  0
    6.9135   -0.6637    0.0000 C   0  0  0  0  0  0  0  0  0  0  0  0
    6.9135   -1.9911    0.0000 C   0  0  0  0  0  0  0  0  0  0  0  0
    5.7589   -2.6617    0.0000 C   0  0  0  0  0  0  0  0  0  0  0  0
    3.4567   -3.9891    0.0000 O   0  0  0  0  0  0  0  0  0  0  0  0
  1  2  1  0  0  0  0
  1  9  1  0  0  0  0
  1 16  2  0  0  0  0
  2  3  1  0  0  0  0
  2  8  2  0  0  0  0
  3  4  1  0  0  0  0
  3  5  2  0  0  0  0
  5  6  1  0  0  0  0
  6  7  2  0  0  0  0
  7  8  1  0  0  0  0
  9 10  2  0  0  0  0
  9 15  1  0  0  0  0
 10 11  1  0  0  0  0
 10 12  1  0  0  0  0
 12 13  2  0  0  0  0
 13 14  1  0  0  0  0
 14 15  2  0  0  0  0
M  END
> <ID>
2205

> <Formula>
C13H10O3

> <FW>
214.2167

> <DSSTox_CID>
2404

> <DSSTox_RID>
76575

> <DSSTox_GSID>
22404

> <DSSTox_FileID_Sort>
1259

> <TS_ChemName>
2,2'-Dihydroxybenzophenone

> <TS_ChemName_Synonyms>
2,2'-Dihydroxy benzophenone

> <TS_CASRN>
835-11-0

> <CASRN_ChemName_Relationship>
primary

> <TS_Description>
single chemical compound

> <ChemNote>


> <STRUCTURE_Shown>
tested chemical

> <STRUCTURE_Formula>
C13H10O3

> <STRUCTURE_MW>
214.2167

> <STRUCTURE_ChemType>
defined organic

> <STRUCTURE_DefinedOrganicForm>
parent

> <STRUCTURE_IUPAC>
bis(2-hydroxyphenyl)methanone

> <STRUCTURE_SMILES>
O=C(c1ccccc1O)c2ccccc2O

> <STRUCTURE_SMILES_Desalt>
O=C(c1ccccc1O)c2ccccc2O

> <Substance_modify_yyyymmdd>
20080429

$$$$
