838-88-0
ChemmineR-0914142331XD

 17 18  0  0  0  0  0  0  0  0  1 V2000
    0.0000   -3.9880    0.0000 C   0  0  0  0  0  0  0  0  0  0  0  0
    1.1513   -3.3249    0.0000 C   0  0  0  0  0  0  0  0  0  0  0  0
    1.1513   -1.9894    0.0000 C   0  0  0  0  0  0  0  0  0  0  0  0
    2.3026   -1.3263    0.0000 C   0  0  0  0  0  0  0  0  0  0  0  0
    3.4538   -1.9894    0.0000 C   0  0  0  0  0  0  0  0  0  0  0  0
    3.4538   -3.3249    0.0000 C   0  0  0  0  0  0  0  0  0  0  0  0
    2.3026   -3.9880    0.0000 C   0  0  0  0  0  0  0  0  0  0  0  0
    4.6051   -3.9880    0.0000 C   0  0  0  0  0  0  0  0  0  0  0  0
    5.7564   -3.3249    0.0000 C   0  0  0  0  0  0  0  0  0  0  0  0
    5.7564   -1.9894    0.0000 C   0  0  0  0  0  0  0  0  0  0  0  0
    6.9076   -1.3263    0.0000 C   0  0  0  0  0  0  0  0  0  0  0  0
    8.0589   -1.9894    0.0000 C   0  0  0  0  0  0  0  0  0  0  0  0
    8.0589   -3.3249    0.0000 C   0  0  0  0  0  0  0  0  0  0  0  0
    6.9076   -3.9880    0.0000 C   0  0  0  0  0  0  0  0  0  0  0  0
    9.2102   -1.3263    0.0000 N   0  0  0  0  0  0  0  0  0  0  0  0
    6.9076    0.0000    0.0000 C   0  0  0  0  0  0  0  0  0  0  0  0
    0.0000   -1.3263    0.0000 N   0  0  0  0  0  0  0  0  0  0  0  0
  1  2  1  0  0  0  0
  2  3  2  0  0  0  0
  2  7  1  0  0  0  0
  3  4  1  0  0  0  0
  3 17  1  0  0  0  0
  4  5  2  0  0  0  0
  5  6  1  0  0  0  0
  6  7  2  0  0  0  0
  6  8  1  0  0  0  0
  8  9  1  0  0  0  0
  9 10  2  0  0  0  0
  9 14  1  0  0  0  0
 10 11  1  0  0  0  0
 11 12  2  0  0  0  0
 11 16  1  0  0  0  0
 12 13  1  0  0  0  0
 12 15  1  0  0  0  0
 13 14  2  0  0  0  0
M  END
> <ID>
833

> <Formula>
C15H18N2

> <FW>
226.3168

> <DSSTox_CID>
867

> <DSSTox_RID>
75835

> <DSSTox_GSID>
20867

> <DSSTox_FileID_Sort>
519

> <TS_ChemName>
4,4'-Methylenebis(2-methylaniline)

> <TS_ChemName_Synonyms>


> <TS_CASRN>
838-88-0

> <CASRN_ChemName_Relationship>
primary

> <TS_Description>
single chemical compound

> <ChemNote>


> <STRUCTURE_Shown>
tested chemical

> <STRUCTURE_Formula>
C15H18N2

> <STRUCTURE_MW>
226.3168

> <STRUCTURE_ChemType>
defined organic

> <STRUCTURE_DefinedOrganicForm>
parent

> <STRUCTURE_IUPAC>
4,4'-methanediylbis(2-methylaniline)

> <STRUCTURE_SMILES>
Cc2cc(Cc1ccc(N)c(C)c1)ccc2N

> <STRUCTURE_SMILES_Desalt>
Cc2cc(Cc1ccc(N)c(C)c1)ccc2N

> <Substance_modify_yyyymmdd>
20080429

$$$$
