83919-23-7
ChemmineR-0914142331XD

 37 41  0  0  1  0  0  0  0  0  1 V2000
    6.9292   -3.5046    0.0000 C    0  0  0  0  0  0  0  0  0  0  0  0
    8.1951   -3.0915    0.0000 C    0  0  0  0  0  0  0  0  0  0  0  0
    4.6506   -4.8505    0.0000 C    0  0  0  0  0  0  0  0  0  0  0  0
    3.4913   -5.5167    0.0000 C    0  0  0  0  0  0  0  0  0  0  0  0
    6.9292   -4.8505    0.0000 C    0  0  0  0  0  0  0  0  0  0  0  0
    5.7832   -5.5167    0.0000 C    0  0  0  0  0  0  0  0  0  0  0  0
    3.4913   -6.8626    0.0000 C    0  0  0  0  0  0  0  0  0  0  0  0
    9.5410   -3.0915    0.0000 O    0  0  0  0  0  0  0  0  0  0  0  0
    4.6506   -3.5046    0.0000 C    0  0  0  0  0  0  0  0  0  0  0  0
    5.7832   -2.8516    0.0000 C    0  0  0  0  0  0  0  0  0  0  0  0
    8.9814   -4.1975    0.0000 C    0  0  0  0  0  0  0  0  0  0  0  0
   10.8736   -3.0915    0.0000 C    0  0  0  0  0  0  0  0  0  0  0  0
    2.3719   -4.8505    0.0000 C    0  0  0  0  0  0  0  0  0  0  0  0
    8.1951   -5.2502    0.0000 C    0  0  0  0  0  0  0  0  0  0  0  0
   11.6065   -2.0255    0.0000 C    0  0  0  0  0  0  0  0  0  0  0  0
    2.3719   -7.5156    0.0000 C    0  0  0  0  0  0  0  0  0  0  0  0
    8.5683   -1.8256    0.0000 C    0  0  0  0  0  0  0  0  0  0  0  0
    5.7832   -6.8626    0.0000 C    0  0  0  0  0  0  0  0  0  0  0  0
    1.1860   -5.5167    0.0000 C    0  0  0  0  0  0  0  0  0  0  0  0
    1.1860   -6.8626    0.0000 C    0  0  0  0  0  0  0  0  0  0  0  0
   12.9124   -2.0388    0.0000 O    0  0  0  0  0  0  0  0  0  0  0  0
    4.6506   -7.5156    0.0000 C    0  0  0  0  0  0  0  0  0  0  0  0
   11.6065   -4.1975    0.0000 O    0  0  0  0  0  0  0  0  0  0  0  0
   11.1934   -0.7329    0.0000 C    0  0  0  0  0  0  0  0  0  0  0  0
    4.6639   -6.1164    0.0000 Cl   0  0  0  0  0  0  0  0  0  0  0  0
    7.6355   -0.8528    0.0000 O    0  0  0  0  0  0  0  0  0  0  0  0
   13.3254   -0.7329    0.0000 C    0  0  0  0  0  0  0  0  0  0  0  0
   12.2328    0.0000    0.0000 C    0  0  0  0  0  0  0  0  0  0  0  0
    0.0000   -7.5289    0.0000 O    0  0  0  0  0  0  0  0  0  0  0  0
    6.9292   -2.1587    0.0000 C    0  0  0  0  0  0  0  0  0  0  0  0
    3.4779   -2.8383    0.0000 O    0  0  0  0  0  0  0  0  0  0  0  0
    3.4913   -4.1975    0.0000 C    0  0  0  0  0  0  0  0  0  0  0  0
    9.8475   -1.4924    0.0000 C    0  0  0  0  0  0  0  0  0  0  0  0
   10.1673   -0.1732    0.0000 Cl   0  0  0  0  0  0  0  0  0  0  0  0
   10.3272   -4.1842    0.0000 C    0  0  0  0  0  0  0  0  0  0  0  0
    6.9292   -6.1697    0.0000 H    0  0  0  0  0  0  0  0  0  0  0  0
    5.7832   -4.1709    0.0000 H    0  0  0  0  0  0  0  0  0  0  0  0
  1  2  1  0  0  0  0
  1  5  1  0  0  0  0
  1 10  1  0  0  0  0
  1 30  1  1  0  0  0
  2  8  1  6  0  0  0
  2 11  1  0  0  0  0
  2 17  1  1  0  0  0
  3  9  1  0  0  0  0
  3  4  1  0  0  0  0
  3 25  1  6  0  0  0
  3  6  1  0  0  0  0
  4  7  1  0  0  0  0
  4 13  1  0  0  0  0
  4 32  1  1  0  0  0
  5  6  1  0  0  0  0
  5 14  1  0  0  0  0
  5 36  1  6  0  0  0
  6 18  1  0  0  0  0
  6 37  1  1  0  0  0
  7 16  2  0  0  0  0
  7 22  1  0  0  0  0
  8 12  1  0  0  0  0
  9 10  1  0  0  0  0
  9 31  1  1  0  0  0
 11 35  1  6  0  0  0
 11 14  1  0  0  0  0
 12 15  1  0  0  0  0
 12 23  2  0  0  0  0
 13 19  2  0  0  0  0
 15 21  1  0  0  0  0
 15 24  2  0  0  0  0
 16 20  1  0  0  0  0
 17 26  2  0  0  0  0
 17 33  1  0  0  0  0
 18 22  1  0  0  0  0
 19 20  1  0  0  0  0
 20 29  2  0  0  0  0
 21 27  1  0  0  0  0
 24 28  1  0  0  0  0
 27 28  2  0  0  0  0
 33 34  1  0  0  0  0
M  END
> <ID>
2990

> <Formula>
C27H30Cl2O6

> <FW>
521.4295

> <DSSTox_CID>
3333

> <DSSTox_RID>
76981

> <DSSTox_GSID>
23333

> <DSSTox_FileID_Sort>
1665

> <TS_ChemName>
Mometasone furoate

> <TS_ChemName_Synonyms>


> <TS_CASRN>
83919-23-7

> <CASRN_ChemName_Relationship>
primary

> <TS_Description>
single chemical compound

> <ChemNote>
stereochem

> <STRUCTURE_Shown>
tested chemical

> <STRUCTURE_Formula>
C27H30Cl2O6

> <STRUCTURE_MW>
521.4295

> <STRUCTURE_ChemType>
defined organic

> <STRUCTURE_DefinedOrganicForm>
parent

> <STRUCTURE_IUPAC>
(11beta,16alpha)-9,21-dichloro-11-hydroxy-16-methyl-3,20-dioxopregna-1,4-dien-17-yl furan-2-carboxylate

> <STRUCTURE_SMILES>
ClCC(=O)[C@@]5(OC(=O)c1ccco1)[C@H](C)C[C@@H]3[C@]5(C)C[C@H](O)[C@]2(Cl)[C@@]4(C)C=CC(=O)C=C4CC[C@H]23

> <STRUCTURE_SMILES_Desalt>
ClCC(=O)[C@@]5(OC(=O)c1ccco1)[C@H](C)C[C@@H]3[C@]5(C)C[C@H](O)[C@]2(Cl)[C@@]4(C)C=CC(=O)C=C4CC[C@H]23

> <Substance_modify_yyyymmdd>
20080429

$$$$
