84-16-2
ChemmineR-0914142331XD

 20 21  0  0  1  0  0  0  0  0  1 V2000
    4.6071   -1.9937    0.0000 C   0  0  0  0  0  0  0  0  0  0  0  0
    5.7434   -2.6651    0.0000 C   0  0  0  0  0  0  0  0  0  0  0  0
    3.4399   -2.6651    0.0000 C   0  0  0  0  0  0  0  0  0  0  0  0
    6.8900   -1.9937    0.0000 C   0  0  0  0  0  0  0  0  0  0  0  0
    3.4399   -4.0080    0.0000 C   0  0  0  0  0  0  0  0  0  0  0  0
    6.8900   -0.6714    0.0000 C   0  0  0  0  0  0  0  0  0  0  0  0
    2.2932   -1.9937    0.0000 C   0  0  0  0  0  0  0  0  0  0  0  0
    8.0470   -2.6651    0.0000 C   0  0  0  0  0  0  0  0  0  0  0  0
    1.1363   -4.0080    0.0000 C   0  0  0  0  0  0  0  0  0  0  0  0
    9.1936   -0.6714    0.0000 C   0  0  0  0  0  0  0  0  0  0  0  0
    1.1363   -2.6651    0.0000 C   0  0  0  0  0  0  0  0  0  0  0  0
    8.0470    0.0000    0.0000 C   0  0  0  0  0  0  0  0  0  0  0  0
    9.1936   -1.9937    0.0000 C   0  0  0  0  0  0  0  0  0  0  0  0
    2.2932   -4.6588    0.0000 C   0  0  0  0  0  0  0  0  0  0  0  0
    0.0000   -4.6588    0.0000 O   0  0  0  0  0  0  0  0  0  0  0  0
   10.3299    0.0000    0.0000 O   0  0  0  0  0  0  0  0  0  0  0  0
    4.6071   -0.6714    0.0000 C   0  0  0  0  0  0  0  0  0  0  0  0
    5.7434   -4.0080    0.0000 C   0  0  0  0  0  0  0  0  0  0  0  0
    3.4399    0.0000    0.0000 C   0  0  0  0  0  0  0  0  0  0  0  0
    6.8900   -4.6588    0.0000 C   0  0  0  0  0  0  0  0  0  0  0  0
  1  2  1  0  0  0  0
  1  3  1  0  0  0  0
  1 17  1  1  0  0  0
  2  4  1  0  0  0  0
  2 18  1  6  0  0  0
  3  5  2  0  0  0  0
  3  7  1  0  0  0  0
  4  6  1  0  0  0  0
  4  8  2  0  0  0  0
  5 14  1  0  0  0  0
  6 12  2  0  0  0  0
  7 11  2  0  0  0  0
  8 13  1  0  0  0  0
  9 11  1  0  0  0  0
  9 15  1  0  0  0  0
  9 14  2  0  0  0  0
 10 13  2  0  0  0  0
 10 16  1  0  0  0  0
 10 12  1  0  0  0  0
 17 19  1  0  0  0  0
 18 20  1  0  0  0  0
M  END
> <ID>
2187

> <Formula>
C18H22O2

> <FW>
270.3661

> <DSSTox_CID>
2381

> <DSSTox_RID>
76565

> <DSSTox_GSID>
22381

> <DSSTox_FileID_Sort>
1249

> <TS_ChemName>
meso-Hexestrol

> <TS_ChemName_Synonyms>


> <TS_CASRN>
84-16-2

> <CASRN_ChemName_Relationship>
primary

> <TS_Description>
single chemical compound

> <ChemNote>
stereochem

> <STRUCTURE_Shown>
tested chemical

> <STRUCTURE_Formula>
C18H22O2

> <STRUCTURE_MW>
270.3661

> <STRUCTURE_ChemType>
defined organic

> <STRUCTURE_DefinedOrganicForm>
parent

> <STRUCTURE_IUPAC>
4-[(3R,4S)-4-(4-hydroxyphenyl)hexan-3-yl]phenol

> <STRUCTURE_SMILES>
Oc1ccc(cc1)[C@@H](CC)[C@@H](CC)c2ccc(O)cc2

> <STRUCTURE_SMILES_Desalt>
Oc1ccc(cc1)[C@@H](CC)[C@@H](CC)c2ccc(O)cc2

> <Substance_modify_yyyymmdd>
20080429

$$$$
