84-17-3
ChemmineR-0914142331XD

 20 21  0  0  0  0  0  0  0  0  1 V2000
    5.7636   -1.9903    0.0000 C   0  0  0  0  0  0  0  0  0  0  0  0
    4.6026   -2.6641    0.0000 C   0  0  0  0  0  0  0  0  0  0  0  0
    3.4520   -1.9903    0.0000 C   0  0  0  0  0  0  0  0  0  0  0  0
    2.3013   -2.6641    0.0000 C   0  0  0  0  0  0  0  0  0  0  0  0
    1.1507   -1.9903    0.0000 C   0  0  0  0  0  0  0  0  0  0  0  0
    1.1507   -0.6634    0.0000 C   0  0  0  0  0  0  0  0  0  0  0  0
    2.3013    0.0000    0.0000 C   0  0  0  0  0  0  0  0  0  0  0  0
    3.4520   -0.6634    0.0000 C   0  0  0  0  0  0  0  0  0  0  0  0
    0.0000    0.0000    0.0000 O   0  0  0  0  0  0  0  0  0  0  0  0
    4.6026   -3.9910    0.0000 C   0  0  0  0  0  0  0  0  0  0  0  0
    3.4520   -4.6545    0.0000 C   0  0  0  0  0  0  0  0  0  0  0  0
    6.9143   -2.6641    0.0000 C   0  0  0  0  0  0  0  0  0  0  0  0
    8.0650   -1.9903    0.0000 C   0  0  0  0  0  0  0  0  0  0  0  0
    9.2156   -2.6641    0.0000 C   0  0  0  0  0  0  0  0  0  0  0  0
    9.2156   -3.9910    0.0000 C   0  0  0  0  0  0  0  0  0  0  0  0
    8.0650   -4.6545    0.0000 C   0  0  0  0  0  0  0  0  0  0  0  0
    6.9143   -3.9910    0.0000 C   0  0  0  0  0  0  0  0  0  0  0  0
   10.3663   -4.6545    0.0000 O   0  0  0  0  0  0  0  0  0  0  0  0
    5.7636   -0.6634    0.0000 C   0  0  0  0  0  0  0  0  0  0  0  0
    6.9143    0.0000    0.0000 C   0  0  0  0  0  0  0  0  0  0  0  0
  1  2  1  0  0  0  0
  1 12  1  0  0  0  0
  1 19  2  0  0  0  0
  2  3  1  0  0  0  0
  2 10  2  0  0  0  0
  3  4  2  0  0  0  0
  3  8  1  0  0  0  0
  4  5  1  0  0  0  0
  5  6  2  0  0  0  0
  6  7  1  0  0  0  0
  6  9  1  0  0  0  0
  7  8  2  0  0  0  0
 10 11  1  0  0  0  0
 12 13  1  0  0  0  0
 12 17  2  0  0  0  0
 13 14  2  0  0  0  0
 14 15  1  0  0  0  0
 15 16  2  0  0  0  0
 15 18  1  0  0  0  0
 16 17  1  0  0  0  0
 19 20  1  0  0  0  0
M  END
> <ID>
2188

> <Formula>
C18H18O2

> <FW>
266.3343

> <DSSTox_CID>
2382

> <DSSTox_RID>
76566

> <DSSTox_GSID>
22382

> <DSSTox_FileID_Sort>
1250

> <TS_ChemName>
Dienestrol

> <TS_ChemName_Synonyms>


> <TS_CASRN>
84-17-3

> <CASRN_ChemName_Relationship>
primary

> <TS_Description>
single chemical compound

> <ChemNote>
stereochem

> <STRUCTURE_Shown>
tested chemical

> <STRUCTURE_Formula>
C18H18O2

> <STRUCTURE_MW>
266.3343

> <STRUCTURE_ChemType>
defined organic

> <STRUCTURE_DefinedOrganicForm>
parent

> <STRUCTURE_IUPAC>
4,4'-(2E,4E)-hexa-2,4-diene-3,4-diyldiphenol

> <STRUCTURE_SMILES>
Oc1ccc(cc1)C(=C\C)/C(=C/C)c2ccc(O)cc2

> <STRUCTURE_SMILES_Desalt>
Oc1ccc(cc1)C(=C\C)/C(=C/C)c2ccc(O)cc2

> <Substance_modify_yyyymmdd>
20080429

$$$$
