84-62-8
ChemmineR-0914142331XD

 24 26  0  0  0  0  0  0  0  0  1 V2000
    8.6401   -2.2984    0.0000 C   0  0  0  0  0  0  0  0  0  0  0  0
    9.9702   -2.2984    0.0000 C   0  0  0  0  0  0  0  0  0  0  0  0
   10.6405   -3.4475    0.0000 C   0  0  0  0  0  0  0  0  0  0  0  0
    9.9702   -4.6074    0.0000 C   0  0  0  0  0  0  0  0  0  0  0  0
    8.6401   -4.6074    0.0000 C   0  0  0  0  0  0  0  0  0  0  0  0
    7.9804   -3.4475    0.0000 C   0  0  0  0  0  0  0  0  0  0  0  0
    6.6503   -3.4475    0.0000 O   0  0  0  0  0  0  0  0  0  0  0  0
    5.9800   -4.6074    0.0000 C   0  0  0  0  0  0  0  0  0  0  0  0
    6.6503   -5.7565    0.0000 O   0  0  0  0  0  0  0  0  0  0  0  0
    4.6606   -4.6074    0.0000 C   0  0  0  0  0  0  0  0  0  0  0  0
    3.9902   -5.7565    0.0000 C   0  0  0  0  0  0  0  0  0  0  0  0
    2.6601   -5.7565    0.0000 C   0  0  0  0  0  0  0  0  0  0  0  0
    2.0004   -4.6074    0.0000 C   0  0  0  0  0  0  0  0  0  0  0  0
    2.6601   -3.4475    0.0000 C   0  0  0  0  0  0  0  0  0  0  0  0
    3.9902   -3.4475    0.0000 C   0  0  0  0  0  0  0  0  0  0  0  0
    4.6606   -2.2984    0.0000 C   0  0  0  0  0  0  0  0  0  0  0  0
    5.9800   -2.2984    0.0000 O   0  0  0  0  0  0  0  0  0  0  0  0
    3.9902   -1.1492    0.0000 O   0  0  0  0  0  0  0  0  0  0  0  0
    2.6601   -1.1492    0.0000 C   0  0  0  0  0  0  0  0  0  0  0  0
    2.0004   -2.2984    0.0000 C   0  0  0  0  0  0  0  0  0  0  0  0
    0.6704   -2.2984    0.0000 C   0  0  0  0  0  0  0  0  0  0  0  0
    0.0000   -1.1492    0.0000 C   0  0  0  0  0  0  0  0  0  0  0  0
    0.6704    0.0000    0.0000 C   0  0  0  0  0  0  0  0  0  0  0  0
    2.0004    0.0000    0.0000 C   0  0  0  0  0  0  0  0  0  0  0  0
  1  2  2  0  0  0  0
  1  6  1  0  0  0  0
  2  3  1  0  0  0  0
  3  4  2  0  0  0  0
  4  5  1  0  0  0  0
  5  6  2  0  0  0  0
  6  7  1  0  0  0  0
  7  8  1  0  0  0  0
  8  9  2  0  0  0  0
  8 10  1  0  0  0  0
 10 11  2  0  0  0  0
 10 15  1  0  0  0  0
 11 12  1  0  0  0  0
 12 13  2  0  0  0  0
 13 14  1  0  0  0  0
 14 15  2  0  0  0  0
 15 16  1  0  0  0  0
 16 17  2  0  0  0  0
 16 18  1  0  0  0  0
 18 19  1  0  0  0  0
 19 20  2  0  0  0  0
 19 24  1  0  0  0  0
 20 21  1  0  0  0  0
 21 22  2  0  0  0  0
 22 23  1  0  0  0  0
 23 24  2  0  0  0  0
M  END
> <ID>
1684

> <Formula>
C20H14O4

> <FW>
318.3228

> <DSSTox_CID>
1778

> <DSSTox_RID>
76322

> <DSSTox_GSID>
21778

> <DSSTox_FileID_Sort>
1006

> <TS_ChemName>
Diphenyl phthalate

> <TS_ChemName_Synonyms>


> <TS_CASRN>
84-62-8

> <CASRN_ChemName_Relationship>
primary

> <TS_Description>
single chemical compound

> <ChemNote>


> <STRUCTURE_Shown>
tested chemical

> <STRUCTURE_Formula>
C20H14O4

> <STRUCTURE_MW>
318.3228

> <STRUCTURE_ChemType>
defined organic

> <STRUCTURE_DefinedOrganicForm>
parent

> <STRUCTURE_IUPAC>
diphenyl benzene-1,2-dicarboxylate

> <STRUCTURE_SMILES>
O=C(Oc1ccccc1)c3ccccc3C(=O)Oc2ccccc2

> <STRUCTURE_SMILES_Desalt>
O=C(Oc1ccccc1)c3ccccc3C(=O)Oc2ccccc2

> <Substance_modify_yyyymmdd>
20080429

$$$$
