84057-84-1
ChemmineR-0914142331XD

 16 17  0  0  0  0  0  0  0  0  1 V2000
    1.1525   -0.6609    0.0000 C    0  0  0  0  0  0  0  0  0  0  0  0
    2.3050    0.0000    0.0000 C    0  0  0  0  0  0  0  0  0  0  0  0
    3.4575   -0.6609    0.0000 C    0  0  0  0  0  0  0  0  0  0  0  0
    3.4575   -1.9907    0.0000 C    0  0  0  0  0  0  0  0  0  0  0  0
    4.6019   -2.6596    0.0000 C    0  0  0  0  0  0  0  0  0  0  0  0
    5.7545   -1.9907    0.0000 C    0  0  0  0  0  0  0  0  0  0  0  0
    5.7545   -0.6609    0.0000 N    0  0  0  0  0  0  0  0  0  0  0  0
    6.9070   -2.6596    0.0000 N    0  0  0  0  0  0  0  0  0  0  0  0
    6.9070   -3.9894    0.0000 C    0  0  0  0  0  0  0  0  0  0  0  0
    8.0595   -4.6503    0.0000 N    0  0  0  0  0  0  0  0  0  0  0  0
    5.7545   -4.6503    0.0000 N    0  0  0  0  0  0  0  0  0  0  0  0
    4.6019   -3.9894    0.0000 N    0  0  0  0  0  0  0  0  0  0  0  0
    2.3050   -2.6596    0.0000 C    0  0  0  0  0  0  0  0  0  0  0  0
    2.3050   -3.9894    0.0000 Cl   0  0  0  0  0  0  0  0  0  0  0  0
    1.1525   -1.9907    0.0000 C    0  0  0  0  0  0  0  0  0  0  0  0
    0.0000   -2.6596    0.0000 Cl   0  0  0  0  0  0  0  0  0  0  0  0
  1  2  2  0  0  0  0
  1 15  1  0  0  0  0
  2  3  1  0  0  0  0
  3  4  2  0  0  0  0
  4  5  1  0  0  0  0
  4 13  1  0  0  0  0
  5  6  2  0  0  0  0
  5 12  1  0  0  0  0
  6  7  1  0  0  0  0
  6  8  1  0  0  0  0
  8  9  2  0  0  0  0
  9 10  1  0  0  0  0
  9 11  1  0  0  0  0
 11 12  2  0  0  0  0
 13 14  1  0  0  0  0
 13 15  2  0  0  0  0
 15 16  1  0  0  0  0
M  END
> <ID>
2871

> <Formula>
C9H7Cl2N5

> <FW>
256.0914

> <DSSTox_CID>
3195

> <DSSTox_RID>
76918

> <DSSTox_GSID>
23195

> <DSSTox_FileID_Sort>
1602

> <TS_ChemName>
Lamotrigine

> <TS_ChemName_Synonyms>


> <TS_CASRN>
84057-84-1

> <CASRN_ChemName_Relationship>
primary

> <TS_Description>
single chemical compound

> <ChemNote>


> <STRUCTURE_Shown>
tested chemical

> <STRUCTURE_Formula>
C9H7Cl2N5

> <STRUCTURE_MW>
256.0914

> <STRUCTURE_ChemType>
defined organic

> <STRUCTURE_DefinedOrganicForm>
parent

> <STRUCTURE_IUPAC>
6-(2,3-dichlorophenyl)-1,2,4-triazine-3,5-diamine

> <STRUCTURE_SMILES>
Clc1cccc(c1Cl)c2nnc(N)nc2N

> <STRUCTURE_SMILES_Desalt>
Clc1cccc(c1Cl)c2nnc(N)nc2N

> <Substance_modify_yyyymmdd>
20080429

$$$$
