84371-65-3
ChemmineR-0914142331XD

 35 39  0  0  1  0  0  0  0  0  1 V2000
    5.7795   -5.3534    0.0000 C   0  0  0  0  0  0  0  0  0  0  0  0
    8.0833   -4.0084    0.0000 C   0  0  0  0  0  0  0  0  0  0  0  0
    4.6209   -5.9926    0.0000 C   0  0  0  0  0  0  0  0  0  0  0  0
    6.9248   -5.9926    0.0000 C   0  0  0  0  0  0  0  0  0  0  0  0
    5.7795   -4.0084    0.0000 C   0  0  0  0  0  0  0  0  0  0  0  0
    8.0833   -5.3534    0.0000 C   0  0  0  0  0  0  0  0  0  0  0  0
    4.6209   -7.3376    0.0000 C   0  0  0  0  0  0  0  0  0  0  0  0
    6.9248   -3.3558    0.0000 C   0  0  0  0  0  0  0  0  0  0  0  0
    9.3751   -3.6089    0.0000 C   0  0  0  0  0  0  0  0  0  0  0  0
    3.4757   -8.0167    0.0000 C   0  0  0  0  0  0  0  0  0  0  0  0
   10.6801   -3.6089    0.0000 C   0  0  0  0  0  0  0  0  0  0  0  0
    6.9248   -7.3376    0.0000 C   0  0  0  0  0  0  0  0  0  0  0  0
    3.4757   -5.3534    0.0000 C   0  0  0  0  0  0  0  0  0  0  0  0
    9.3751   -5.7396    0.0000 C   0  0  0  0  0  0  0  0  0  0  0  0
   11.9852   -3.6089    0.0000 C   0  0  0  0  0  0  0  0  0  0  0  0
    4.6209   -3.3558    0.0000 C   0  0  0  0  0  0  0  0  0  0  0  0
    5.7795   -8.0167    0.0000 C   0  0  0  0  0  0  0  0  0  0  0  0
    2.3171   -7.3376    0.0000 C   0  0  0  0  0  0  0  0  0  0  0  0
    2.3171   -2.0108    0.0000 C   0  0  0  0  0  0  0  0  0  0  0  0
   10.1208   -4.6476    0.0000 C   0  0  0  0  0  0  0  0  0  0  0  0
    1.1719   -1.3450    0.0000 N   0  0  0  0  0  0  0  0  0  0  0  0
    3.4757   -4.0084    0.0000 C   0  0  0  0  0  0  0  0  0  0  0  0
    4.6209   -2.0108    0.0000 C   0  0  0  0  0  0  0  0  0  0  0  0
    2.3171   -3.3558    0.0000 C   0  0  0  0  0  0  0  0  0  0  0  0
    3.4757   -1.3583    0.0000 C   0  0  0  0  0  0  0  0  0  0  0  0
    1.1719   -8.0301    0.0000 O   0  0  0  0  0  0  0  0  0  0  0  0
    2.3171   -5.9926    0.0000 C   0  0  0  0  0  0  0  0  0  0  0  0
    9.6547   -2.2905    0.0000 O   0  0  0  0  0  0  0  0  0  0  0  0
    8.0833   -2.7033    0.0000 C   0  0  0  0  0  0  0  0  0  0  0  0
   13.3169   -3.6089    0.0000 C   0  0  0  0  0  0  0  0  0  0  0  0
    1.1719    0.0000    0.0000 C   0  0  0  0  0  0  0  0  0  0  0  0
    0.0000   -1.9975    0.0000 C   0  0  0  0  0  0  0  0  0  0  0  0
    6.9248   -4.6476    0.0000 H   0  0  0  0  0  0  0  0  0  0  0  0
    8.0833   -6.6584    0.0000 H   0  0  0  0  0  0  0  0  0  0  0  0
    5.7795   -2.6634    0.0000 H   0  0  0  0  0  0  0  0  0  0  0  0
  1  3  2  0  0  0  0
  1  4  1  0  0  0  0
  1  5  1  0  0  0  0
  2  8  1  0  0  0  0
  2  9  1  0  0  0  0
  2 29  1  1  0  0  0
  2  6  1  0  0  0  0
  3  7  1  0  0  0  0
  3 13  1  0  0  0  0
  4  6  1  0  0  0  0
  4 12  1  0  0  0  0
  4 33  1  1  0  0  0
  5  8  1  0  0  0  0
  5 16  1  1  0  0  0
  5 35  1  6  0  0  0
  6 14  1  0  0  0  0
  6 34  1  6  0  0  0
  7 10  2  0  0  0  0
  7 17  1  0  0  0  0
  9 11  1  6  0  0  0
  9 28  1  0  0  0  0
  9 20  1  0  0  0  0
 10 18  1  0  0  0  0
 11 15  3  0  0  0  0
 12 17  1  0  0  0  0
 13 27  1  0  0  0  0
 14 20  1  0  0  0  0
 15 30  1  0  0  0  0
 16 22  2  0  0  0  0
 16 23  1  0  0  0  0
 18 27  1  0  0  0  0
 18 26  2  0  0  0  0
 19 25  1  0  0  0  0
 19 21  1  0  0  0  0
 19 24  2  0  0  0  0
 21 31  1  0  0  0  0
 21 32  1  0  0  0  0
 22 24  1  0  0  0  0
 23 25  2  0  0  0  0
M  END
> <ID>
2982

> <Formula>
C29H35NO2

> <FW>
429.5937

> <DSSTox_CID>
3322

> <DSSTox_RID>
76976

> <DSSTox_GSID>
23322

> <DSSTox_FileID_Sort>
1660

> <TS_ChemName>
Mifepristone

> <TS_ChemName_Synonyms>
Mifepristone (RU486) (Mifeprex)

> <TS_CASRN>
84371-65-3

> <CASRN_ChemName_Relationship>
primary

> <TS_Description>
single chemical compound

> <ChemNote>
stereochem

> <STRUCTURE_Shown>
tested chemical

> <STRUCTURE_Formula>
C29H35NO2

> <STRUCTURE_MW>
429.5937

> <STRUCTURE_ChemType>
defined organic

> <STRUCTURE_DefinedOrganicForm>
parent

> <STRUCTURE_IUPAC>
(11beta,17beta)-11-[4-(dimethylamino)phenyl]-17-hydroxy-17-(prop-1-yn-1-yl)estra-4,9-dien-3-one

> <STRUCTURE_SMILES>
CN(C)c1ccc(cc1)[C@H]5C[C@@]2(C)[C@@H](CC[C@@]2(O)C#CC)[C@@H]4CCC3=CC(=O)CCC3=C45

> <STRUCTURE_SMILES_Desalt>
CN(C)c1ccc(cc1)[C@H]5C[C@@]2(C)[C@@H](CC[C@@]2(O)C#CC)[C@@H]4CCC3=CC(=O)CCC3=C45

> <Substance_modify_yyyymmdd>
20080429

$$$$
