84449-90-1
ChemmineR-0914142331XD

 34 38  0  0  0  0  0  0  0  0  1 V2000
    9.1100    0.0000    0.0000 O   0  0  0  0  0  0  0  0  0  0  0  0
    9.5216   -1.2622    0.0000 C   0  0  0  0  0  0  0  0  0  0  0  0
   10.8250   -1.5503    0.0000 C   0  0  0  0  0  0  0  0  0  0  0  0
   11.2366   -2.8126    0.0000 C   0  0  0  0  0  0  0  0  0  0  0  0
   10.3448   -3.8004    0.0000 C   0  0  0  0  0  0  0  0  0  0  0  0
    9.0414   -3.5260    0.0000 C   0  0  0  0  0  0  0  0  0  0  0  0
    8.6298   -2.2501    0.0000 C   0  0  0  0  0  0  0  0  0  0  0  0
   10.7564   -5.0626    0.0000 C   0  0  0  0  0  0  0  0  0  0  0  0
   12.0186   -5.4742    0.0000 S   0  0  0  0  0  0  0  0  0  0  0  0
   12.0186   -6.8051    0.0000 C   0  0  0  0  0  0  0  0  0  0  0  0
   13.0064   -7.6968    0.0000 C   0  0  0  0  0  0  0  0  0  0  0  0
   12.7320   -8.9865    0.0000 C   0  0  0  0  0  0  0  0  0  0  0  0
   13.7199   -9.8783    0.0000 O   0  0  0  0  0  0  0  0  0  0  0  0
   11.4698   -9.3981    0.0000 C   0  0  0  0  0  0  0  0  0  0  0  0
   10.4820   -8.5200    0.0000 C   0  0  0  0  0  0  0  0  0  0  0  0
   10.7564   -7.2166    0.0000 C   0  0  0  0  0  0  0  0  0  0  0  0
    9.9743   -6.1328    0.0000 C   0  0  0  0  0  0  0  0  0  0  0  0
    8.6435   -6.1328    0.0000 C   0  0  0  0  0  0  0  0  0  0  0  0
    7.9850   -4.9803    0.0000 O   0  0  0  0  0  0  0  0  0  0  0  0
    7.9850   -7.2852    0.0000 C   0  0  0  0  0  0  0  0  0  0  0  0
    8.6435   -8.4377    0.0000 C   0  0  0  0  0  0  0  0  0  0  0  0
    7.9850   -9.5902    0.0000 C   0  0  0  0  0  0  0  0  0  0  0  0
    6.6541   -9.5902    0.0000 C   0  0  0  0  0  0  0  0  0  0  0  0
    5.9819  -10.7427    0.0000 O   0  0  0  0  0  0  0  0  0  0  0  0
    4.6510  -10.7427    0.0000 C   0  0  0  0  0  0  0  0  0  0  0  0
    3.9925  -11.8951    0.0000 C   0  0  0  0  0  0  0  0  0  0  0  0
    2.6617  -11.8951    0.0000 N   0  0  0  0  0  0  0  0  0  0  0  0
    1.9894  -13.0476    0.0000 C   0  0  0  0  0  0  0  0  0  0  0  0
    0.6586  -13.0476    0.0000 C   0  0  0  0  0  0  0  0  0  0  0  0
    0.0000  -11.8951    0.0000 C   0  0  0  0  0  0  0  0  0  0  0  0
    0.6586  -10.7427    0.0000 C   0  0  0  0  0  0  0  0  0  0  0  0
    1.9894  -10.7427    0.0000 C   0  0  0  0  0  0  0  0  0  0  0  0
    5.9819   -8.4377    0.0000 C   0  0  0  0  0  0  0  0  0  0  0  0
    6.6541   -7.2852    0.0000 C   0  0  0  0  0  0  0  0  0  0  0  0
  1  2  1  0  0  0  0
  2  3  2  0  0  0  0
  2  7  1  0  0  0  0
  3  4  1  0  0  0  0
  4  5  2  0  0  0  0
  5  6  1  0  0  0  0
  5  8  1  0  0  0  0
  6  7  2  0  0  0  0
  8  9  1  0  0  0  0
  8 17  2  0  0  0  0
  9 10  1  0  0  0  0
 10 11  2  0  0  0  0
 10 16  1  0  0  0  0
 11 12  1  0  0  0  0
 12 13  1  0  0  0  0
 12 14  2  0  0  0  0
 14 15  1  0  0  0  0
 15 16  2  0  0  0  0
 16 17  1  0  0  0  0
 17 18  1  0  0  0  0
 18 19  2  0  0  0  0
 18 20  1  0  0  0  0
 20 21  2  0  0  0  0
 20 34  1  0  0  0  0
 21 22  1  0  0  0  0
 22 23  2  0  0  0  0
 23 24  1  0  0  0  0
 23 33  1  0  0  0  0
 24 25  1  0  0  0  0
 25 26  1  0  0  0  0
 26 27  1  0  0  0  0
 27 28  1  0  0  0  0
 27 32  1  0  0  0  0
 28 29  1  0  0  0  0
 29 30  1  0  0  0  0
 30 31  1  0  0  0  0
 31 32  1  0  0  0  0
 33 34  2  0  0  0  0
M  END
> <ID>
3177

> <Formula>
C28H27NO4S

> <FW>
473.5833

> <DSSTox_CID>
3550

> <DSSTox_RID>
77076

> <DSSTox_GSID>
23550

> <DSSTox_FileID_Sort>
1759

> <TS_ChemName>
Raloxifene

> <TS_ChemName_Synonyms>
Raloxifene (RAL)

> <TS_CASRN>
84449-90-1

> <CASRN_ChemName_Relationship>
primary

> <TS_Description>
single chemical compound

> <ChemNote>


> <STRUCTURE_Shown>
tested chemical

> <STRUCTURE_Formula>
C28H27NO4S

> <STRUCTURE_MW>
473.5833

> <STRUCTURE_ChemType>
defined organic

> <STRUCTURE_DefinedOrganicForm>
parent

> <STRUCTURE_IUPAC>
[6-hydroxy-2-(4-hydroxyphenyl)-1-benzothiophen-3-yl]{4-[2-(piperidin-1-yl)ethoxy]phenyl}methanone

> <STRUCTURE_SMILES>
Oc1ccc(cc1)c3sc2cc(O)ccc2c3C(=O)c5ccc(OCCN4CCCCC4)cc5

> <STRUCTURE_SMILES_Desalt>
Oc1ccc(cc1)c3sc2cc(O)ccc2c3C(=O)c5ccc(OCCN4CCCCC4)cc5

> <Substance_modify_yyyymmdd>
20080429

$$$$
