846-50-4
ChemmineR-0914142331XD

 21 23  0  0  0  0  0  0  0  0  1 V2000
    4.2049   -8.1966    0.0000 C    0  0  0  0  0  0  0  0  0  0  0  0
    4.4999   -6.9015    0.0000 N    0  0  0  0  0  0  0  0  0  0  0  0
    3.4590   -6.0737    0.0000 C    0  0  0  0  0  0  0  0  0  0  0  0
    2.3032   -6.7376    0.0000 C    0  0  0  0  0  0  0  0  0  0  0  0
    1.1557   -6.0737    0.0000 C    0  0  0  0  0  0  0  0  0  0  0  0
    1.1557   -4.7376    0.0000 C    0  0  0  0  0  0  0  0  0  0  0  0
    2.3032   -4.0737    0.0000 C    0  0  0  0  0  0  0  0  0  0  0  0
    3.4590   -4.7376    0.0000 C    0  0  0  0  0  0  0  0  0  0  0  0
    4.4999   -3.9098    0.0000 C    0  0  0  0  0  0  0  0  0  0  0  0
    5.7950   -4.2049    0.0000 N    0  0  0  0  0  0  0  0  0  0  0  0
    6.3688   -5.4016    0.0000 C    0  0  0  0  0  0  0  0  0  0  0  0
    5.7950   -6.6065    0.0000 C    0  0  0  0  0  0  0  0  0  0  0  0
    6.6229   -7.6474    0.0000 O    0  0  0  0  0  0  0  0  0  0  0  0
    7.7048   -5.4016    0.0000 O    0  0  0  0  0  0  0  0  0  0  0  0
    4.2213   -2.6311    0.0000 C    0  0  0  0  0  0  0  0  0  0  0  0
    2.9262   -2.2213    0.0000 C    0  0  0  0  0  0  0  0  0  0  0  0
    2.6475   -0.9426    0.0000 C    0  0  0  0  0  0  0  0  0  0  0  0
    3.5901    0.0000    0.0000 C    0  0  0  0  0  0  0  0  0  0  0  0
    4.8770   -0.4098    0.0000 C    0  0  0  0  0  0  0  0  0  0  0  0
    5.1557   -1.6885    0.0000 C    0  0  0  0  0  0  0  0  0  0  0  0
    0.0000   -4.0737    0.0000 Cl   0  0  0  0  0  0  0  0  0  0  0  0
  1  2  1  0  0  0  0
  2  3  1  0  0  0  0
  2 12  1  0  0  0  0
  3  4  2  0  0  0  0
  3  8  1  0  0  0  0
  4  5  1  0  0  0  0
  5  6  2  0  0  0  0
  6  7  1  0  0  0  0
  6 21  1  0  0  0  0
  7  8  2  0  0  0  0
  8  9  1  0  0  0  0
  9 10  2  0  0  0  0
  9 15  1  0  0  0  0
 10 11  1  0  0  0  0
 11 12  1  0  0  0  0
 11 14  1  0  0  0  0
 12 13  2  0  0  0  0
 15 16  2  0  0  0  0
 15 20  1  0  0  0  0
 16 17  1  0  0  0  0
 17 18  2  0  0  0  0
 18 19  1  0  0  0  0
 19 20  2  0  0  0  0
M  END
> <ID>
1256

> <Formula>
C16H13ClN2O2

> <FW>
300.7396

> <DSSTox_CID>
1309

> <DSSTox_RID>
76071

> <DSSTox_GSID>
21309

> <DSSTox_FileID_Sort>
755

> <TS_ChemName>
Temazepam

> <TS_ChemName_Synonyms>


> <TS_CASRN>
846-50-4

> <CASRN_ChemName_Relationship>
primary

> <TS_Description>
single chemical compound

> <ChemNote>


> <STRUCTURE_Shown>
tested chemical

> <STRUCTURE_Formula>
C16H13ClN2O2

> <STRUCTURE_MW>
300.7396

> <STRUCTURE_ChemType>
defined organic

> <STRUCTURE_DefinedOrganicForm>
parent

> <STRUCTURE_IUPAC>
7-chloro-3-hydroxy-1-methyl-5-phenyl-1,3-dihydro-2H-1,4-benzodiazepin-2-one

> <STRUCTURE_SMILES>
Clc1ccc2c(c1)C(=NC(O)C(=O)N2C)c3ccccc3

> <STRUCTURE_SMILES_Desalt>
Clc1ccc2c(c1)C(=NC(O)C(=O)N2C)c3ccccc3

> <Substance_modify_yyyymmdd>
20080429

$$$$
