84625-61-6
ChemmineR-0914142331XD

 49 55  0  0  1  0  0  0  0  0  1 V2000
    4.3394   -7.0079    0.0000 N    0  0  0  0  0  0  0  0  0  0  0  0
    3.5414   -8.1053    0.0000 C    0  0  0  0  0  0  0  0  0  0  0  0
    2.2944   -7.6813    0.0000 N    0  0  0  0  0  0  0  0  0  0  0  0
    1.2220   -8.4544    0.0000 C    0  0  0  0  0  0  0  0  0  0  0  0
    1.3467   -9.7762    0.0000 C    0  0  0  0  0  0  0  0  0  0  0  0
    2.5687  -10.3249    0.0000 C    0  0  0  0  0  0  0  0  0  0  0  0
    0.0000   -7.9307    0.0000 C    0  0  0  0  0  0  0  0  0  0  0  0
    2.2944   -6.3595    0.0000 N    0  0  0  0  0  0  0  0  0  0  0  0
    3.5414   -5.9355    0.0000 C    0  0  0  0  0  0  0  0  0  0  0  0
    3.9653   -9.3522    0.0000 O    0  0  0  0  0  0  0  0  0  0  0  0
    5.6612   -7.0079    0.0000 C    0  0  0  0  0  0  0  0  0  0  0  0
    6.3096   -5.8607    0.0000 C    0  0  0  0  0  0  0  0  0  0  0  0
    7.6564   -5.8607    0.0000 C    0  0  0  0  0  0  0  0  0  0  0  0
    8.3048   -7.0079    0.0000 C    0  0  0  0  0  0  0  0  0  0  0  0
    9.6515   -7.0079    0.0000 N    0  0  0  0  0  0  0  0  0  0  0  0
   10.2999   -5.8607    0.0000 C    0  0  0  0  0  0  0  0  0  0  0  0
   11.6217   -5.8607    0.0000 C    0  0  0  0  0  0  0  0  0  0  0  0
   12.2951   -7.0079    0.0000 N    0  0  0  0  0  0  0  0  0  0  0  0
   11.6217   -8.1801    0.0000 C    0  0  0  0  0  0  0  0  0  0  0  0
   10.2999   -8.1801    0.0000 C    0  0  0  0  0  0  0  0  0  0  0  0
   13.6168   -7.0079    0.0000 C    0  0  0  0  0  0  0  0  0  0  0  0
   14.2902   -5.8607    0.0000 C    0  0  0  0  0  0  0  0  0  0  0  0
   15.6120   -5.8607    0.0000 C    0  0  0  0  0  0  0  0  0  0  0  0
   16.2853   -7.0079    0.0000 C    0  0  0  0  0  0  0  0  0  0  0  0
   17.6071   -7.0079    0.0000 O    0  0  0  0  0  0  0  0  0  0  0  0
   18.2805   -5.8607    0.0000 C    0  0  0  0  0  0  0  0  0  0  0  0
   19.6023   -5.8607    0.0000 C    0  0  0  0  0  0  0  0  0  0  0  0
   20.3754   -4.7883    0.0000 O    0  0  0  0  0  0  0  0  0  0  0  0
   21.6473   -5.2123    0.0000 C    0  0  0  0  0  0  0  0  0  0  0  0
   21.9216   -3.9155    0.0000 C    0  0  0  0  0  0  0  0  0  0  0  0
   20.9240   -3.0177    0.0000 C    0  0  0  0  0  0  0  0  0  0  0  0
   21.1984   -1.7208    0.0000 C    0  0  0  0  0  0  0  0  0  0  0  0
   22.4703   -1.3218    0.0000 C    0  0  0  0  0  0  0  0  0  0  0  0
   23.4678   -2.1947    0.0000 C    0  0  0  0  0  0  0  0  0  0  0  0
   23.1686   -3.4915    0.0000 C    0  0  0  0  0  0  0  0  0  0  0  0
   22.7446    0.0000    0.0000 Cl   0  0  0  0  0  0  0  0  0  0  0  0
   19.6771   -3.4416    0.0000 Cl   0  0  0  0  0  0  0  0  0  0  0  0
   22.9691   -5.3370    0.0000 C    0  0  0  0  0  0  0  0  0  0  0  0
   23.4928   -6.5590    0.0000 N    0  0  0  0  0  0  0  0  0  0  0  0
   22.8444   -7.7062    0.0000 N    0  0  0  0  0  0  0  0  0  0  0  0
   23.7172   -8.7038    0.0000 C    0  0  0  0  0  0  0  0  0  0  0  0
   24.9393   -8.1551    0.0000 N    0  0  0  0  0  0  0  0  0  0  0  0
   24.7896   -6.8334    0.0000 C    0  0  0  0  0  0  0  0  0  0  0  0
   21.6473   -6.5341    0.0000 O    0  0  0  0  0  0  0  0  0  0  0  0
   20.3754   -6.9331    0.0000 C    0  0  0  0  0  0  0  0  0  0  0  0
   15.6120   -8.1801    0.0000 C    0  0  0  0  0  0  0  0  0  0  0  0
   14.2902   -8.1801    0.0000 C    0  0  0  0  0  0  0  0  0  0  0  0
    7.6564   -8.1801    0.0000 C    0  0  0  0  0  0  0  0  0  0  0  0
    6.3096   -8.1801    0.0000 C    0  0  0  0  0  0  0  0  0  0  0  0
  1  2  1  0  0  0  0
  1  9  1  0  0  0  0
  1 11  1  0  0  0  0
  2  3  1  0  0  0  0
  2 10  2  0  0  0  0
  3  4  1  0  0  0  0
  3  8  1  0  0  0  0
  4  5  1  0  0  0  0
  4  7  1  0  0  0  0
  5  6  1  0  0  0  0
  8  9  2  0  0  0  0
 11 12  2  0  0  0  0
 11 49  1  0  0  0  0
 12 13  1  0  0  0  0
 13 14  2  0  0  0  0
 14 15  1  0  0  0  0
 14 48  1  0  0  0  0
 15 16  1  0  0  0  0
 15 20  1  0  0  0  0
 16 17  1  0  0  0  0
 17 18  1  0  0  0  0
 18 19  1  0  0  0  0
 18 21  1  0  0  0  0
 19 20  1  0  0  0  0
 21 22  2  0  0  0  0
 21 47  1  0  0  0  0
 22 23  1  0  0  0  0
 23 24  2  0  0  0  0
 24 25  1  0  0  0  0
 24 46  1  0  0  0  0
 25 26  1  0  0  0  0
 27 26  1  6  0  0  0
 27 28  1  0  0  0  0
 27 45  1  0  0  0  0
 28 29  1  0  0  0  0
 29 30  1  1  0  0  0
 29 38  1  6  0  0  0
 29 44  1  0  0  0  0
 30 31  2  0  0  0  0
 30 35  1  0  0  0  0
 31 32  1  0  0  0  0
 31 37  1  0  0  0  0
 32 33  2  0  0  0  0
 33 34  1  0  0  0  0
 33 36  1  0  0  0  0
 34 35  2  0  0  0  0
 38 39  1  0  0  0  0
 39 40  1  0  0  0  0
 39 43  1  0  0  0  0
 40 41  2  0  0  0  0
 41 42  1  0  0  0  0
 42 43  2  0  0  0  0
 44 45  1  0  0  0  0
 46 47  2  0  0  0  0
 48 49  2  0  0  0  0
M  END
> <ID>
2856

> <Formula>
C35H38Cl2N8O4

> <FW>
705.6334

> <DSSTox_CID>
3180

> <DSSTox_RID>
76908

> <DSSTox_GSID>
23180

> <DSSTox_FileID_Sort>
1592

> <TS_ChemName>
Itraconazole

> <TS_ChemName_Synonyms>


> <TS_CASRN>
84625-61-6

> <CASRN_ChemName_Relationship>
primary

> <TS_Description>
single chemical compound

> <ChemNote>
stereochem

> <STRUCTURE_Shown>
tested chemical

> <STRUCTURE_Formula>
C35H38Cl2N8O4

> <STRUCTURE_MW>
705.6334

> <STRUCTURE_ChemType>
defined organic

> <STRUCTURE_DefinedOrganicForm>
parent

> <STRUCTURE_IUPAC>
2-(butan-2-yl)-4-{4-[4-(4-{[(2R,4S)-2-(2,4-dichlorophenyl)-2-(1H-1,2,4-triazol-1-ylmethyl)-1,3-dioxolan-4-yl]methoxy}phenyl)piperazin-1-yl]phenyl}-2,4-dihydro-3H-1,2,4-triazol-3-one

> <STRUCTURE_SMILES>
CC(CC)N1N=CN(C1=O)c2ccc(cc2)N3CCN(CC3)c4ccc(cc4)OC[C@H]6CO[C@@](Cn5ncnc5)(O6)c7ccc(Cl)cc7Cl

> <STRUCTURE_SMILES_Desalt>
CC(CC)N1N=CN(C1=O)c2ccc(cc2)N3CCN(CC3)c4ccc(cc4)OC[C@H]6CO[C@@](Cn5ncnc5)(O6)c7ccc(Cl)cc7Cl

> <Substance_modify_yyyymmdd>
20080429

$$$$
