85-36-9
ChemmineR-0914142331XD

 16 16  0  0  0  0  0  0  0  0  1 V2000
    5.7552   -3.3290    0.0000 C   0  0  0  0  0  0  0  0  0  0  0  0
    6.9079   -3.9900    0.0000 I   0  0  0  0  0  0  0  0  0  0  0  0
    4.6025   -3.9900    0.0000 C   0  0  0  0  0  0  0  0  0  0  0  0
    3.4580   -3.3290    0.0000 C   0  0  0  0  0  0  0  0  0  0  0  0
    2.3053   -3.9900    0.0000 I   0  0  0  0  0  0  0  0  0  0  0  0
    3.4580   -1.9990    0.0000 C   0  0  0  0  0  0  0  0  0  0  0  0
    2.3053   -1.3300    0.0000 N   0  0  0  0  0  0  0  0  0  0  0  0
    1.1527   -1.9990    0.0000 C   0  0  0  0  0  0  0  0  0  0  0  0
    0.0000   -1.3300    0.0000 C   0  0  0  0  0  0  0  0  0  0  0  0
    1.1527   -3.3290    0.0000 O   0  0  0  0  0  0  0  0  0  0  0  0
    4.6025   -1.3300    0.0000 C   0  0  0  0  0  0  0  0  0  0  0  0
    4.6025    0.0000    0.0000 I   0  0  0  0  0  0  0  0  0  0  0  0
    5.7552   -1.9990    0.0000 C   0  0  0  0  0  0  0  0  0  0  0  0
    6.9079   -1.3300    0.0000 C   0  0  0  0  0  0  0  0  0  0  0  0
    8.0605   -1.9990    0.0000 O   0  0  0  0  0  0  0  0  0  0  0  0
    6.9079    0.0000    0.0000 O   0  0  0  0  0  0  0  0  0  0  0  0
  1  2  1  0  0  0  0
  1  3  2  0  0  0  0
  1 13  1  0  0  0  0
  3  4  1  0  0  0  0
  4  5  1  0  0  0  0
  4  6  2  0  0  0  0
  6  7  1  0  0  0  0
  6 11  1  0  0  0  0
  7  8  1  0  0  0  0
  8  9  1  0  0  0  0
  8 10  2  0  0  0  0
 11 12  1  0  0  0  0
 11 13  2  0  0  0  0
 13 14  1  0  0  0  0
 14 15  1  0  0  0  0
 14 16  2  0  0  0  0
M  END
> <ID>
2312

> <Formula>
C9H6I3NO3

> <FW>
556.8623

> <DSSTox_CID>
2549

> <DSSTox_RID>
76623

> <DSSTox_GSID>
22549

> <DSSTox_FileID_Sort>
1307

> <TS_ChemName>
Acetrizoic acid

> <TS_ChemName_Synonyms>


> <TS_CASRN>
85-36-9

> <CASRN_ChemName_Relationship>
primary

> <TS_Description>
single chemical compound

> <ChemNote>


> <STRUCTURE_Shown>
tested chemical

> <STRUCTURE_Formula>
C9H6I3NO3

> <STRUCTURE_MW>
556.8623

> <STRUCTURE_ChemType>
defined organic

> <STRUCTURE_DefinedOrganicForm>
parent

> <STRUCTURE_IUPAC>
3-(acetylamino)-2,4,6-triiodobenzoic acid

> <STRUCTURE_SMILES>
O=C(C)Nc1c(I)c(c(I)cc1I)C(=O)O

> <STRUCTURE_SMILES_Desalt>
O=C(C)Nc1c(I)c(c(I)cc1I)C(=O)O

> <Substance_modify_yyyymmdd>
20080429

$$$$
