85-68-7
ChemmineR-0914142331XD

 23 24  0  0  0  0  0  0  0  0  1 V2000
    2.3078   -5.9765    0.0000 C   0  0  0  0  0  0  0  0  0  0  0  0
    2.3078   -4.6433    0.0000 C   0  0  0  0  0  0  0  0  0  0  0  0
    3.4480   -6.6293    0.0000 C   0  0  0  0  0  0  0  0  0  0  0  0
    3.4480   -3.9905    0.0000 C   0  0  0  0  0  0  0  0  0  0  0  0
    4.5973   -5.9581    0.0000 O   0  0  0  0  0  0  0  0  0  0  0  0
    4.5973   -4.6617    0.0000 O   0  0  0  0  0  0  0  0  0  0  0  0
    3.4480   -7.9625    0.0000 O   0  0  0  0  0  0  0  0  0  0  0  0
    3.4480   -2.6572    0.0000 O   0  0  0  0  0  0  0  0  0  0  0  0
    1.1493   -6.6477    0.0000 C   0  0  0  0  0  0  0  0  0  0  0  0
    1.1493   -3.9905    0.0000 C   0  0  0  0  0  0  0  0  0  0  0  0
    0.0000   -5.9765    0.0000 C   0  0  0  0  0  0  0  0  0  0  0  0
    0.0000   -4.6433    0.0000 C   0  0  0  0  0  0  0  0  0  0  0  0
    5.7466   -6.6293    0.0000 C   0  0  0  0  0  0  0  0  0  0  0  0
    6.9051   -5.9581    0.0000 C   0  0  0  0  0  0  0  0  0  0  0  0
    8.0453   -6.6293    0.0000 C   0  0  0  0  0  0  0  0  0  0  0  0
    9.1946   -5.9581    0.0000 C   0  0  0  0  0  0  0  0  0  0  0  0
    5.7466   -3.9905    0.0000 C   0  0  0  0  0  0  0  0  0  0  0  0
    5.7466   -2.6572    0.0000 C   0  0  0  0  0  0  0  0  0  0  0  0
    4.5973   -2.0044    0.0000 C   0  0  0  0  0  0  0  0  0  0  0  0
    6.9051   -2.0044    0.0000 C   0  0  0  0  0  0  0  0  0  0  0  0
    4.6157   -0.6712    0.0000 C   0  0  0  0  0  0  0  0  0  0  0  0
    6.9235   -0.6712    0.0000 C   0  0  0  0  0  0  0  0  0  0  0  0
    5.7650    0.0000    0.0000 C   0  0  0  0  0  0  0  0  0  0  0  0
  1  2  2  0  0  0  0
  1  3  1  0  0  0  0
  1  9  1  0  0  0  0
  2  4  1  0  0  0  0
  2 10  1  0  0  0  0
  3  5  1  0  0  0  0
  3  7  2  0  0  0  0
  4  6  1  0  0  0  0
  4  8  2  0  0  0  0
  5 13  1  0  0  0  0
  6 17  1  0  0  0  0
  9 11  2  0  0  0  0
 10 12  2  0  0  0  0
 11 12  1  0  0  0  0
 13 14  1  0  0  0  0
 14 15  1  0  0  0  0
 15 16  1  0  0  0  0
 17 18  1  0  0  0  0
 18 19  1  0  0  0  0
 18 20  2  0  0  0  0
 19 21  2  0  0  0  0
 20 22  1  0  0  0  0
 21 23  1  0  0  0  0
 22 23  2  0  0  0  0
M  END
> <ID>
201

> <Formula>
C19H20O4

> <FW>
312.3597

> <DSSTox_CID>
205

> <DSSTox_RID>
75431

> <DSSTox_GSID>
20205

> <DSSTox_FileID_Sort>
115

> <TS_ChemName>
Butyl benzyl phthalate

> <TS_ChemName_Synonyms>
Butyl benzyl phthalate (1,2-Benzenedicarboxylic acid, butyl phenylmethyl ester)

> <TS_CASRN>
85-68-7

> <CASRN_ChemName_Relationship>
primary

> <TS_Description>
single chemical compound

> <ChemNote>


> <STRUCTURE_Shown>
tested chemical

> <STRUCTURE_Formula>
C19H20O4

> <STRUCTURE_MW>
312.3597

> <STRUCTURE_ChemType>
defined organic

> <STRUCTURE_DefinedOrganicForm>
parent

> <STRUCTURE_IUPAC>
benzyl butyl benzene-1,2-dicarboxylate

> <STRUCTURE_SMILES>
O=C(OCc1ccccc1)c2ccccc2C(=O)OCCCC

> <STRUCTURE_SMILES_Desalt>
O=C(OCc1ccccc1)c2ccccc2C(=O)OCCCC

> <Substance_modify_yyyymmdd>
20080429

$$$$
