853-23-6
ChemmineR-0914142331XD

 27 30  0  0  1  0  0  0  0  0  1 V2000
    5.7622   -3.6914    0.0000 C   0  0  0  0  0  0  0  0  0  0  0  0
    9.2285   -1.6881    0.0000 C   0  0  0  0  0  0  0  0  0  0  0  0
    5.7622   -5.0306    0.0000 C   0  0  0  0  0  0  0  0  0  0  0  0
    6.9101   -3.0161    0.0000 C   0  0  0  0  0  0  0  0  0  0  0  0
    9.2285   -3.0161    0.0000 C   0  0  0  0  0  0  0  0  0  0  0  0
    8.0805   -3.6914    0.0000 C   0  0  0  0  0  0  0  0  0  0  0  0
    6.9101   -5.6834    0.0000 C   0  0  0  0  0  0  0  0  0  0  0  0
   10.4889   -1.2717    0.0000 C   0  0  0  0  0  0  0  0  0  0  0  0
    8.0580   -1.0354    0.0000 C   0  0  0  0  0  0  0  0  0  0  0  0
    8.0805   -5.0419    0.0000 C   0  0  0  0  0  0  0  0  0  0  0  0
    6.9101   -1.6881    0.0000 C   0  0  0  0  0  0  0  0  0  0  0  0
    4.6142   -3.0161    0.0000 C   0  0  0  0  0  0  0  0  0  0  0  0
   10.4889   -3.4213    0.0000 C   0  0  0  0  0  0  0  0  0  0  0  0
    4.6142   -5.6834    0.0000 C   0  0  0  0  0  0  0  0  0  0  0  0
   11.2542   -2.3409    0.0000 C   0  0  0  0  0  0  0  0  0  0  0  0
   10.9166    0.0000    0.0000 O   0  0  0  0  0  0  0  0  0  0  0  0
    3.4550   -3.6914    0.0000 C   0  0  0  0  0  0  0  0  0  0  0  0
    3.4550   -5.0306    0.0000 C   0  0  0  0  0  0  0  0  0  0  0  0
    5.7622   -2.3634    0.0000 C   0  0  0  0  0  0  0  0  0  0  0  0
    9.2285   -0.4052    0.0000 C   0  0  0  0  0  0  0  0  0  0  0  0
    2.3071   -5.6834    0.0000 O   0  0  0  0  0  0  0  0  0  0  0  0
    8.0805   -2.3634    0.0000 H   0  0  0  0  0  0  0  0  0  0  0  0
    9.2285   -4.3554    0.0000 H   0  0  0  0  0  0  0  0  0  0  0  0
    6.9101   -4.3554    0.0000 H   0  0  0  0  0  0  0  0  0  0  0  0
    1.1479   -5.0194    0.0000 C   0  0  0  0  0  0  0  0  0  0  0  0
    1.1479   -3.6914    0.0000 O   0  0  0  0  0  0  0  0  0  0  0  0
    0.0000   -5.6834    0.0000 C   0  0  0  0  0  0  0  0  0  0  0  0
  1  3  1  0  0  0  0
  1  4  1  0  0  0  0
  1 12  1  0  0  0  0
  1 19  1  1  0  0  0
  2  9  1  0  0  0  0
  2  8  1  0  0  0  0
  2 20  1  1  0  0  0
  2  5  1  0  0  0  0
  3  7  2  0  0  0  0
  3 14  1  0  0  0  0
  4  6  1  0  0  0  0
  4 11  1  0  0  0  0
  4 24  1  6  0  0  0
  5  6  1  0  0  0  0
  5 13  1  0  0  0  0
  5 23  1  6  0  0  0
  6 10  1  0  0  0  0
  6 22  1  1  0  0  0
  7 10  1  0  0  0  0
  8 16  2  0  0  0  0
  8 15  1  0  0  0  0
  9 11  1  0  0  0  0
 12 17  1  0  0  0  0
 13 15  1  0  0  0  0
 14 18  1  0  0  0  0
 17 18  1  0  0  0  0
 18 21  1  1  0  0  0
 21 25  1  0  0  0  0
 25 26  2  0  0  0  0
 25 27  1  0  0  0  0
M  END
> <ID>
369

> <Formula>
C21H30O3

> <FW>
330.4611

> <DSSTox_CID>
380

> <DSSTox_RID>
75554

> <DSSTox_GSID>
20380

> <DSSTox_FileID_Sort>
238

> <TS_ChemName>
Dehydroepiandrosterone acetate

> <TS_ChemName_Synonyms>


> <TS_CASRN>
853-23-6

> <CASRN_ChemName_Relationship>
primary

> <TS_Description>
single chemical compound

> <ChemNote>
stereochem

> <STRUCTURE_Shown>
tested chemical

> <STRUCTURE_Formula>
C21H30O3

> <STRUCTURE_MW>
330.4611

> <STRUCTURE_ChemType>
defined organic

> <STRUCTURE_DefinedOrganicForm>
parent

> <STRUCTURE_IUPAC>
(3beta)-17-oxoandrost-5-en-3-yl acetate

> <STRUCTURE_SMILES>
CC(=O)O[C@H]4CC[C@@]2(C)C(=CC[C@H]1[C@@H]3CCC(=O)[C@@]3(C)CC[C@@H]12)C4

> <STRUCTURE_SMILES_Desalt>
CC(=O)O[C@H]4CC[C@@]2(C)C(=CC[C@H]1[C@@H]3CCC(=O)[C@@]3(C)CC[C@@H]12)C4

> <Substance_modify_yyyymmdd>
20080429

$$$$
