86-13-5
ChemmineR-0914142331XD

 23 26  0  0  1  0  0  0  0  0  1 V2000
    1.5618   -1.8868    0.0000 C   0  0  0  0  0  0  0  0  0  0  0  0
    3.2742   -3.2108    0.0000 C   0  0  0  0  0  0  0  0  0  0  0  0
    2.4338   -2.4973    0.0000 C   0  0  0  0  0  0  0  0  0  0  0  0
    0.8721   -2.4814    0.0000 C   0  0  0  0  0  0  0  0  0  0  0  0
    0.6580   -1.1654    0.0000 N   0  0  0  0  0  0  0  0  0  0  0  0
    3.0601   -1.8868    0.0000 C   0  0  0  0  0  0  0  0  0  0  0  0
    0.0000   -3.6072    0.0000 C   0  0  0  0  0  0  0  0  0  0  0  0
    1.0148   -3.0126    0.0000 C   0  0  0  0  0  0  0  0  0  0  0  0
    0.0000    0.0000    0.0000 C   0  0  0  0  0  0  0  0  0  0  0  0
    3.9164   -4.3841    0.0000 O   0  0  0  0  0  0  0  0  0  0  0  0
    5.2562   -4.3682    0.0000 C   0  0  0  0  0  0  0  0  0  0  0  0
    5.9300   -5.5257    0.0000 C   0  0  0  0  0  0  0  0  0  0  0  0
    7.2698   -5.5257    0.0000 C   0  0  0  0  0  0  0  0  0  0  0  0
    5.2562   -6.6911    0.0000 C   0  0  0  0  0  0  0  0  0  0  0  0
    7.9278   -6.6911    0.0000 C   0  0  0  0  0  0  0  0  0  0  0  0
    5.9300   -7.8486    0.0000 C   0  0  0  0  0  0  0  0  0  0  0  0
    7.2698   -7.8486    0.0000 C   0  0  0  0  0  0  0  0  0  0  0  0
    5.9142   -3.2108    0.0000 C   0  0  0  0  0  0  0  0  0  0  0  0
    5.2403   -2.0612    0.0000 C   0  0  0  0  0  0  0  0  0  0  0  0
    7.2540   -3.2108    0.0000 C   0  0  0  0  0  0  0  0  0  0  0  0
    5.9142   -0.9038    0.0000 C   0  0  0  0  0  0  0  0  0  0  0  0
    7.9120   -2.0454    0.0000 C   0  0  0  0  0  0  0  0  0  0  0  0
    7.2381   -0.8879    0.0000 C   0  0  0  0  0  0  0  0  0  0  0  0
  1  5  1  1  0  0  0
  1  6  1  0  0  0  0
  1  8  1  0  0  0  0
  2  3  1  0  0  0  0
  2  6  1  0  0  0  0
  2 10  1  6  0  0  0
  3  4  1  0  0  0  0
  4  5  1  6  0  0  0
  4  7  1  0  0  0  0
  5  9  1  0  0  0  0
  7  8  1  0  0  0  0
 10 11  1  0  0  0  0
 11 12  1  0  0  0  0
 11 18  1  0  0  0  0
 12 13  1  0  0  0  0
 12 14  2  0  0  0  0
 13 15  2  0  0  0  0
 14 16  1  0  0  0  0
 15 17  1  0  0  0  0
 16 17  2  0  0  0  0
 18 19  1  0  0  0  0
 18 20  2  0  0  0  0
 19 21  2  0  0  0  0
 20 22  1  0  0  0  0
 21 23  1  0  0  0  0
 22 23  2  0  0  0  0
M  END
> <ID>
2407

> <Formula>
C21H25NO

> <FW>
307.4293

> <DSSTox_CID>
2659

> <DSSTox_RID>
76678

> <DSSTox_GSID>
22659

> <DSSTox_FileID_Sort>
1362

> <TS_ChemName>
Benztropine

> <TS_ChemName_Synonyms>


> <TS_CASRN>
86-13-5

> <CASRN_ChemName_Relationship>
primary

> <TS_Description>
single chemical compound

> <ChemNote>
stereochem

> <STRUCTURE_Shown>
tested chemical

> <STRUCTURE_Formula>
C21H25NO

> <STRUCTURE_MW>
307.4293

> <STRUCTURE_ChemType>
defined organic

> <STRUCTURE_DefinedOrganicForm>
parent

> <STRUCTURE_IUPAC>
(3-endo)-3-(diphenylmethoxy)-8-methyl-8-azabicyclo[3.2.1]octane

> <STRUCTURE_SMILES>
CN4[C@H]1CC[C@@H]4C[C@@H](C1)OC(c2ccccc2)c3ccccc3

> <STRUCTURE_SMILES_Desalt>
CN4[C@H]1CC[C@@H]4C[C@@H](C1)OC(c2ccccc2)c3ccccc3

> <Substance_modify_yyyymmdd>
20080815

$$$$
