86-30-6
ChemmineR-0914142331XD

 15 16  0  0  0  0  0  0  0  0  1 V2000
    0.6565   -4.6019    0.0000 O   0  0  0  0  0  0  0  0  0  0  0  0
    1.9893   -4.6019    0.0000 N   0  0  0  0  0  0  0  0  0  0  0  0
    2.6590   -3.4614    0.0000 N   0  0  0  0  0  0  0  0  0  0  0  0
    3.9852   -3.4614    0.0000 C   0  0  0  0  0  0  0  0  0  0  0  0
    4.6417   -4.6152    0.0000 C   0  0  0  0  0  0  0  0  0  0  0  0
    5.9745   -4.6152    0.0000 C   0  0  0  0  0  0  0  0  0  0  0  0
    6.6310   -3.4614    0.0000 C   0  0  0  0  0  0  0  0  0  0  0  0
    5.9745   -2.3076    0.0000 C   0  0  0  0  0  0  0  0  0  0  0  0
    4.6417   -2.3076    0.0000 C   0  0  0  0  0  0  0  0  0  0  0  0
    1.9893   -2.3076    0.0000 C   0  0  0  0  0  0  0  0  0  0  0  0
    2.6590   -1.1538    0.0000 C   0  0  0  0  0  0  0  0  0  0  0  0
    2.0026    0.0000    0.0000 C   0  0  0  0  0  0  0  0  0  0  0  0
    0.6697    0.0000    0.0000 C   0  0  0  0  0  0  0  0  0  0  0  0
    0.0000   -1.1538    0.0000 C   0  0  0  0  0  0  0  0  0  0  0  0
    0.6565   -2.3076    0.0000 C   0  0  0  0  0  0  0  0  0  0  0  0
  1  2  2  0  0  0  0
  2  3  1  0  0  0  0
  3  4  1  0  0  0  0
  3 10  1  0  0  0  0
  4  5  2  0  0  0  0
  4  9  1  0  0  0  0
  5  6  1  0  0  0  0
  6  7  2  0  0  0  0
  7  8  1  0  0  0  0
  8  9  2  0  0  0  0
 10 11  2  0  0  0  0
 10 15  1  0  0  0  0
 11 12  1  0  0  0  0
 12 13  2  0  0  0  0
 13 14  1  0  0  0  0
 14 15  2  0  0  0  0
M  END
> <ID>
994

> <Formula>
C12H10N2O

> <FW>
198.2206

> <DSSTox_CID>
1030

> <DSSTox_RID>
75915

> <DSSTox_GSID>
21030

> <DSSTox_FileID_Sort>
599

> <TS_ChemName>
N-Nitrosodiphenylamine

> <TS_ChemName_Synonyms>


> <TS_CASRN>
86-30-6

> <CASRN_ChemName_Relationship>
primary

> <TS_Description>
single chemical compound

> <ChemNote>


> <STRUCTURE_Shown>
tested chemical

> <STRUCTURE_Formula>
C12H10N2O

> <STRUCTURE_MW>
198.2206

> <STRUCTURE_ChemType>
defined organic

> <STRUCTURE_DefinedOrganicForm>
parent

> <STRUCTURE_IUPAC>
N-nitroso-N-phenylaniline

> <STRUCTURE_SMILES>
O=NN(c1ccccc1)c2ccccc2

> <STRUCTURE_SMILES_Desalt>
O=NN(c1ccccc1)c2ccccc2

> <Substance_modify_yyyymmdd>
20080429

$$$$
