86-34-0
ChemmineR-0914142331XD

 14 15  0  0  0  0  0  0  0  0  1 V2000
    6.4514   -0.2987    0.0000 C   0  0  0  0  0  0  0  0  0  0  0  0
    7.1128   -1.4510    0.0000 C   0  0  0  0  0  0  0  0  0  0  0  0
    6.4514   -2.6033    0.0000 C   0  0  0  0  0  0  0  0  0  0  0  0
    5.1212   -2.6033    0.0000 C   0  0  0  0  0  0  0  0  0  0  0  0
    4.4526   -1.4510    0.0000 C   0  0  0  0  0  0  0  0  0  0  0  0
    3.1225   -1.4510    0.0000 C   0  0  0  0  0  0  0  0  0  0  0  0
    2.3401   -2.5251    0.0000 C   0  0  0  0  0  0  0  0  0  0  0  0
    2.7527   -3.7911    0.0000 O   0  0  0  0  0  0  0  0  0  0  0  0
    1.0740   -2.1125    0.0000 N   0  0  0  0  0  0  0  0  0  0  0  0
    0.0000   -2.8949    0.0000 C   0  0  0  0  0  0  0  0  0  0  0  0
    1.0740   -0.7824    0.0000 C   0  0  0  0  0  0  0  0  0  0  0  0
    0.0000    0.0000    0.0000 O   0  0  0  0  0  0  0  0  0  0  0  0
    2.3401   -0.3770    0.0000 C   0  0  0  0  0  0  0  0  0  0  0  0
    5.1212   -0.2987    0.0000 C   0  0  0  0  0  0  0  0  0  0  0  0
  1  2  2  0  0  0  0
  1 14  1  0  0  0  0
  2  3  1  0  0  0  0
  3  4  2  0  0  0  0
  4  5  1  0  0  0  0
  5  6  1  0  0  0  0
  5 14  2  0  0  0  0
  6  7  1  0  0  0  0
  6 13  1  0  0  0  0
  7  8  2  0  0  0  0
  7  9  1  0  0  0  0
  9 10  1  0  0  0  0
  9 11  1  0  0  0  0
 11 12  2  0  0  0  0
 11 13  1  0  0  0  0
M  END
> <ID>
3102

> <Formula>
C11H11NO2

> <FW>
189.2105

> <DSSTox_CID>
3460

> <DSSTox_RID>
77035

> <DSSTox_GSID>
23460

> <DSSTox_FileID_Sort>
1719

> <TS_ChemName>
Phensuximide

> <TS_ChemName_Synonyms>


> <TS_CASRN>
86-34-0

> <CASRN_ChemName_Relationship>
primary

> <TS_Description>
single chemical compound

> <ChemNote>


> <STRUCTURE_Shown>
tested chemical

> <STRUCTURE_Formula>
C11H11NO2

> <STRUCTURE_MW>
189.2105

> <STRUCTURE_ChemType>
defined organic

> <STRUCTURE_DefinedOrganicForm>
parent

> <STRUCTURE_IUPAC>
1-methyl-3-phenylpyrrolidine-2,5-dione

> <STRUCTURE_SMILES>
O=C1C(CC(=O)N1C)c2ccccc2

> <STRUCTURE_SMILES_Desalt>
O=C1C(CC(=O)N1C)c2ccccc2

> <Substance_modify_yyyymmdd>
20080429

$$$$
