86-35-1
ChemmineR-0914142331XD

 15 16  0  0  0  0  0  0  0  0  1 V2000
    5.6731   -1.4495    0.0000 C   0  0  0  0  0  0  0  0  0  0  0  0
    4.3403   -1.4495    0.0000 C   0  0  0  0  0  0  0  0  0  0  0  0
    3.5572   -2.5242    0.0000 C   0  0  0  0  0  0  0  0  0  0  0  0
    3.9654   -3.7904    0.0000 O   0  0  0  0  0  0  0  0  0  0  0  0
    2.2909   -2.1160    0.0000 N   0  0  0  0  0  0  0  0  0  0  0  0
    1.2163   -2.8991    0.0000 C   0  0  0  0  0  0  0  0  0  0  0  0
    0.0000   -2.3576    0.0000 C   0  0  0  0  0  0  0  0  0  0  0  0
    2.2909   -0.7831    0.0000 C   0  0  0  0  0  0  0  0  0  0  0  0
    1.2163    0.0000    0.0000 O   0  0  0  0  0  0  0  0  0  0  0  0
    3.5572   -0.3749    0.0000 N   0  0  0  0  0  0  0  0  0  0  0  0
    6.3313   -0.2999    0.0000 C   0  0  0  0  0  0  0  0  0  0  0  0
    7.6642   -0.2999    0.0000 C   0  0  0  0  0  0  0  0  0  0  0  0
    8.3306   -1.4495    0.0000 C   0  0  0  0  0  0  0  0  0  0  0  0
    7.6642   -2.5992    0.0000 C   0  0  0  0  0  0  0  0  0  0  0  0
    6.3313   -2.5992    0.0000 C   0  0  0  0  0  0  0  0  0  0  0  0
  1  2  1  0  0  0  0
  1 11  2  0  0  0  0
  1 15  1  0  0  0  0
  2  3  1  0  0  0  0
  2 10  1  0  0  0  0
  3  4  2  0  0  0  0
  3  5  1  0  0  0  0
  5  6  1  0  0  0  0
  5  8  1  0  0  0  0
  6  7  1  0  0  0  0
  8  9  2  0  0  0  0
  8 10  1  0  0  0  0
 11 12  1  0  0  0  0
 12 13  2  0  0  0  0
 13 14  1  0  0  0  0
 14 15  2  0  0  0  0
M  END
> <ID>
2716

> <Formula>
C11H12N2O2

> <FW>
204.2252

> <DSSTox_CID>
3020

> <DSSTox_RID>
76833

> <DSSTox_GSID>
23020

> <DSSTox_FileID_Sort>
1517

> <TS_ChemName>
Ethotoin

> <TS_ChemName_Synonyms>


> <TS_CASRN>
86-35-1

> <CASRN_ChemName_Relationship>
primary

> <TS_Description>
single chemical compound

> <ChemNote>


> <STRUCTURE_Shown>
tested chemical

> <STRUCTURE_Formula>
C11H12N2O2

> <STRUCTURE_MW>
204.2252

> <STRUCTURE_ChemType>
defined organic

> <STRUCTURE_DefinedOrganicForm>
parent

> <STRUCTURE_IUPAC>
3-ethyl-5-phenylimidazolidine-2,4-dione

> <STRUCTURE_SMILES>
O=C2NC(c1ccccc1)C(=O)N2CC

> <STRUCTURE_SMILES_Desalt>
O=C2NC(c1ccccc1)C(=O)N2CC

> <Substance_modify_yyyymmdd>
20080429

$$$$
