86-57-7
ChemmineR-0914142331XD

 13 14  0  0  0  0  0  0  0  0  2 V2000
    1.1516   -3.9902    0.0000 O   0  0  0  0  0  0  0  0  0  0  0  0
    1.1516   -2.6601    0.0000 N   0  3  0  0  0  0  0  0  0  0  0  0
    2.3031   -1.9922    0.0000 C   0  0  0  0  0  0  0  0  0  0  0  0
    3.4547   -2.6601    0.0000 C   0  0  0  0  0  0  0  0  0  0  0  0
    4.6063   -1.9922    0.0000 C   0  0  0  0  0  0  0  0  0  0  0  0
    4.6063   -0.6622    0.0000 C   0  0  0  0  0  0  0  0  0  0  0  0
    3.4547    0.0000    0.0000 C   0  0  0  0  0  0  0  0  0  0  0  0
    2.3031   -0.6622    0.0000 C   0  0  0  0  0  0  0  0  0  0  0  0
    5.7578   -2.6601    0.0000 C   0  0  0  0  0  0  0  0  0  0  0  0
    5.7578   -3.9902    0.0000 C   0  0  0  0  0  0  0  0  0  0  0  0
    4.6063   -4.6523    0.0000 C   0  0  0  0  0  0  0  0  0  0  0  0
    3.4547   -3.9902    0.0000 C   0  0  0  0  0  0  0  0  0  0  0  0
    0.0000   -1.9922    0.0000 O   0  5  0  0  0  0  0  0  0  0  0  0
  1  2  2  0  0  0  0
  2  3  1  0  0  0  0
  2 13  1  0  0  0  0
  3  4  2  0  0  0  0
  3  8  1  0  0  0  0
  4  5  1  0  0  0  0
  4 12  1  0  0  0  0
  5  6  2  0  0  0  0
  5  9  1  0  0  0  0
  6  7  1  0  0  0  0
  7  8  2  0  0  0  0
  9 10  2  0  0  0  0
 10 11  1  0  0  0  0
 11 12  2  0  0  0  0
M  END
> <ID>
942

> <Formula>
C10H7NO2

> <FW>
173.1681

> <DSSTox_CID>
978

> <DSSTox_RID>
75901

> <DSSTox_GSID>
20978

> <DSSTox_FileID_Sort>
585

> <TS_ChemName>
1-Nitronaphthalene

> <TS_ChemName_Synonyms>


> <TS_CASRN>
86-57-7

> <CASRN_ChemName_Relationship>
primary

> <TS_Description>
single chemical compound

> <ChemNote>


> <STRUCTURE_Shown>
tested chemical

> <STRUCTURE_Formula>
C10H7NO2

> <STRUCTURE_MW>
173.1681

> <STRUCTURE_ChemType>
defined organic

> <STRUCTURE_DefinedOrganicForm>
parent

> <STRUCTURE_IUPAC>
1-nitronaphthalene

> <STRUCTURE_SMILES>
[O-][N+](=O)c2cccc1ccccc12

> <STRUCTURE_SMILES_Desalt>
[O-][N+](=O)c2cccc1ccccc12

> <Substance_modify_yyyymmdd>
20080429

$$$$
