87-68-3
ChemmineR-0914142331XD

 10  9  0  0  0  0  0  0  0  0  1 V2000
    2.3047    0.0000    0.0000 Cl   0  0  0  0  0  0  0  0  0  0  0  0
    2.3047   -1.3309    0.0000 C    0  0  0  0  0  0  0  0  0  0  0  0
    1.1523   -1.9935    0.0000 C    0  0  0  0  0  0  0  0  0  0  0  0
    1.1523   -3.3245    0.0000 Cl   0  0  0  0  0  0  0  0  0  0  0  0
    0.0000   -1.3309    0.0000 Cl   0  0  0  0  0  0  0  0  0  0  0  0
    3.4570   -1.9935    0.0000 C    0  0  0  0  0  0  0  0  0  0  0  0
    4.6093   -1.3309    0.0000 C    0  0  0  0  0  0  0  0  0  0  0  0
    5.7617   -1.9935    0.0000 Cl   0  0  0  0  0  0  0  0  0  0  0  0
    4.6093    0.0000    0.0000 Cl   0  0  0  0  0  0  0  0  0  0  0  0
    3.4570   -3.3245    0.0000 Cl   0  0  0  0  0  0  0  0  0  0  0  0
  1  2  1  0  0  0  0
  2  3  2  0  0  0  0
  2  6  1  0  0  0  0
  3  4  1  0  0  0  0
  3  5  1  0  0  0  0
  6  7  2  0  0  0  0
  6 10  1  0  0  0  0
  7  8  1  0  0  0  0
  7  9  1  0  0  0  0
M  END
> <ID>
654

> <Formula>
C4Cl6

> <FW>
260.7608

> <DSSTox_CID>
683

> <DSSTox_RID>
75731

> <DSSTox_GSID>
20683

> <DSSTox_FileID_Sort>
415

> <TS_ChemName>
Hexachloro-1,3-butadiene

> <TS_ChemName_Synonyms>
Hexachloro-1,3-butadiene (Hexachlorobutadiene)

> <TS_CASRN>
87-68-3

> <CASRN_ChemName_Relationship>
primary

> <TS_Description>
single chemical compound

> <ChemNote>


> <STRUCTURE_Shown>
tested chemical

> <STRUCTURE_Formula>
C4Cl6

> <STRUCTURE_MW>
260.7608

> <STRUCTURE_ChemType>
defined organic

> <STRUCTURE_DefinedOrganicForm>
parent

> <STRUCTURE_IUPAC>
1,1,2,3,4,4-hexachlorobuta-1,3-diene

> <STRUCTURE_SMILES>
Cl/C(Cl)=C(\Cl)C(\Cl)=C(\Cl)Cl

> <STRUCTURE_SMILES_Desalt>
Cl/C(Cl)=C(\Cl)C(\Cl)=C(\Cl)Cl

> <Substance_modify_yyyymmdd>
20080429

$$$$
