87-89-8
ChemmineR-0914142331XD

 12 12  0  0  1  0  0  0  0  0  1 V2000
    0.0000   -2.3036    0.0000 O   0  0  0  0  0  0  0  0  0  0  0  0
    1.3300   -2.3036    0.0000 C   0  0  0  0  0  0  0  0  0  0  0  0
    1.9950   -1.1491    0.0000 C   0  0  0  0  0  0  0  0  0  0  0  0
    1.3300    0.0000    0.0000 O   0  0  0  0  0  0  0  0  0  0  0  0
    3.3250   -1.1491    0.0000 C   0  0  0  0  0  0  0  0  0  0  0  0
    3.9901    0.0000    0.0000 O   0  0  0  0  0  0  0  0  0  0  0  0
    3.9901   -2.3036    0.0000 C   0  0  0  0  0  0  0  0  0  0  0  0
    5.3201   -2.3036    0.0000 O   0  0  0  0  0  0  0  0  0  0  0  0
    3.3250   -3.4580    0.0000 C   0  0  0  0  0  0  0  0  0  0  0  0
    3.9901   -4.6072    0.0000 O   0  0  0  0  0  0  0  0  0  0  0  0
    1.9950   -3.4580    0.0000 C   0  0  0  0  0  0  0  0  0  0  0  0
    1.3300   -4.6072    0.0000 O   0  0  0  0  0  0  0  0  0  0  0  0
  2  1  1  1  0  0  0
  2  3  1  0  0  0  0
  2 11  1  0  0  0  0
  3  4  1  6  0  0  0
  3  5  1  0  0  0  0
  5  6  1  6  0  0  0
  5  7  1  0  0  0  0
  7  8  1  6  0  0  0
  7  9  1  0  0  0  0
  9 10  1  1  0  0  0
  9 11  1  0  0  0  0
 11 12  1  6  0  0  0
M  END
> <ID>
2824

> <Formula>
C6H12O6

> <FW>
180.1559

> <DSSTox_CID>
3146

> <DSSTox_RID>
76890

> <DSSTox_GSID>
23146

> <DSSTox_FileID_Sort>
1574

> <TS_ChemName>
Inositol

> <TS_ChemName_Synonyms>
Inositol (Myo-inositol)

> <TS_CASRN>
87-89-8

> <CASRN_ChemName_Relationship>
primary

> <TS_Description>
single chemical compound

> <ChemNote>
stereochem

> <STRUCTURE_Shown>
tested chemical

> <STRUCTURE_Formula>
C6H12O6

> <STRUCTURE_MW>
180.1559

> <STRUCTURE_ChemType>
defined organic

> <STRUCTURE_DefinedOrganicForm>
parent

> <STRUCTURE_IUPAC>
(1R,2S,3r,4R,5S,6s)-cyclohexane-1,2,3,4,5,6-hexol

> <STRUCTURE_SMILES>
O[C@H]1[C@H](O)[C@@H](O)[C@H](O)[C@H](O)[C@@H]1O

> <STRUCTURE_SMILES_Desalt>
O[C@H]1[C@H](O)[C@@H](O)[C@H](O)[C@H](O)[C@@H]1O

> <Substance_modify_yyyymmdd>
20080429

$$$$
