87239-81-4
ChemmineR-0914142331XD

 39 41  0  0  1  0  0  0  0  0  1 V2000
    7.1391   -4.7594    0.0000 N   0  0  0  0  0  0  0  0  0  0  0  0
    5.7987   -4.7594    0.0000 C   0  0  0  0  0  0  0  0  0  0  0  0
    5.7987   -3.4340    0.0000 C   0  0  0  0  0  0  0  0  0  0  0  0
    7.1391   -3.4340    0.0000 C   0  0  0  0  0  0  0  0  0  0  0  0
    8.2989   -5.4372    0.0000 C   0  0  0  0  0  0  0  0  0  0  0  0
    1.7321   -3.4641    0.0000 C   0  0  0  0  0  0  0  0  0  0  0  0
    2.4249   -2.3345    0.0000 C   0  0  0  0  0  0  0  0  0  0  0  0
    2.1538   -4.7594    0.0000 N   0  0  0  0  0  0  0  0  0  0  0  0
    4.4281   -3.4943    0.0000 N   0  0  0  0  0  0  0  0  0  0  0  0
    3.7654   -2.3345    0.0000 C   0  0  0  0  0  0  0  0  0  0  0  0
    8.2989   -2.7713    0.0000 S   0  0  0  0  0  0  0  0  0  0  0  0
    9.4736   -4.7594    0.0000 C   0  0  0  0  0  0  0  0  0  0  0  0
    1.0694   -5.5426    0.0000 C   0  0  0  0  0  0  0  0  0  0  0  0
    0.3916   -3.4641    0.0000 C   0  0  0  0  0  0  0  0  0  0  0  0
    0.0000   -4.7594    0.0000 S   0  0  0  0  0  0  0  0  0  0  0  0
    8.2989   -6.8078    0.0000 C   0  0  0  0  0  0  0  0  0  0  0  0
    9.4736   -3.4340    0.0000 C   0  0  0  0  0  0  0  0  0  0  0  0
    1.7321   -1.1597    0.0000 N   0  0  0  0  0  0  0  0  0  0  0  0
    4.8347   -5.7083    0.0000 O   0  0  0  0  0  0  0  0  0  0  0  0
    4.4281   -1.1597    0.0000 O   0  0  0  0  0  0  0  0  0  0  0  0
    7.1391   -7.4554    0.0000 O   0  0  0  0  0  0  0  0  0  0  0  0
    1.0694   -6.8530    0.0000 N   0  0  0  0  0  0  0  0  0  0  0  0
    9.4736   -7.4554    0.0000 O   0  0  0  0  0  0  0  0  0  0  0  0
   10.6183   -5.4372    0.0000 C   0  0  0  0  0  0  0  0  0  0  0  0
    2.3646    0.0000    0.0000 O   0  0  0  0  0  0  0  0  0  0  0  0
   11.8082   -4.7895    0.0000 O   0  0  0  0  0  0  0  0  0  0  0  0
    3.7352    0.0000    0.0000 C   0  0  0  0  0  0  0  0  0  0  0  0
   12.9528   -5.5125    0.0000 C   0  0  0  0  0  0  0  0  0  0  0  0
    5.7987   -2.0935    0.0000 H   0  0  0  0  0  0  0  0  0  0  0  0
    7.1241   -2.1387    0.0000 H   0  0  0  0  0  0  0  0  0  0  0  0
    9.4736   -8.7356    0.0000 C   0  0  0  0  0  0  0  0  0  0  0  0
   10.5882   -9.3833    0.0000 O   0  0  0  0  0  0  0  0  0  0  0  0
    8.3290   -9.3833    0.0000 C   0  0  0  0  0  0  0  0  0  0  0  0
   11.7027   -8.7356    0.0000 C   0  0  0  0  0  0  0  0  0  0  0  0
   12.8323   -9.3833    0.0000 O   0  0  0  0  0  0  0  0  0  0  0  0
   11.7027   -7.4554    0.0000 O   0  0  0  0  0  0  0  0  0  0  0  0
   13.9619   -8.7356    0.0000 C   0  0  0  0  0  0  0  0  0  0  0  0
   15.0614   -9.3833    0.0000 C   0  0  0  0  0  0  0  0  0  0  0  0
   13.9619   -7.4554    0.0000 C   0  0  0  0  0  0  0  0  0  0  0  0
  1  2  1  0  0  0  0
  1  4  1  0  0  0  0
  1  5  1  0  0  0  0
  2 19  2  0  0  0  0
  2  3  1  0  0  0  0
  3  4  1  0  0  0  0
  3  9  1  1  0  0  0
  3 29  1  6  0  0  0
  4 11  1  0  0  0  0
  4 30  1  6  0  0  0
  5 12  2  0  0  0  0
  5 16  1  0  0  0  0
  6  7  1  0  0  0  0
  6  8  1  0  0  0  0
  6 14  2  0  0  0  0
  7 10  1  0  0  0  0
  7 18  2  0  0  0  0
  8 13  2  0  0  0  0
  9 10  1  0  0  0  0
 10 20  2  0  0  0  0
 11 17  1  0  0  0  0
 12 17  1  0  0  0  0
 12 24  1  0  0  0  0
 13 22  1  0  0  0  0
 13 15  1  0  0  0  0
 14 15  1  0  0  0  0
 16 21  2  0  0  0  0
 16 23  1  0  0  0  0
 18 25  1  0  0  0  0
 23 31  1  0  0  0  0
 24 26  1  0  0  0  0
 25 27  1  0  0  0  0
 26 28  1  0  0  0  0
 31 32  1  0  0  0  0
 31 33  1  0  0  0  0
 32 34  1  0  0  0  0
 34 35  1  0  0  0  0
 34 36  2  0  0  0  0
 35 37  1  0  0  0  0
 37 38  1  0  0  0  0
 37 39  1  0  0  0  0
M  END
> <ID>
2505

> <Formula>
C21H27N5O9S2

> <FW>
557.5972

> <DSSTox_CID>
2766

> <DSSTox_RID>
76722

> <DSSTox_GSID>
22766

> <DSSTox_FileID_Sort>
1406

> <TS_ChemName>
Cefpodoxime proxetil

> <TS_ChemName_Synonyms>


> <TS_CASRN>
87239-81-4

> <CASRN_ChemName_Relationship>
primary

> <TS_Description>
single chemical compound

> <ChemNote>
stereochem; tautomers

> <STRUCTURE_Shown>
tested chemical

> <STRUCTURE_Formula>
C21H27N5O9S2

> <STRUCTURE_MW>
557.5972

> <STRUCTURE_ChemType>
defined organic

> <STRUCTURE_DefinedOrganicForm>
parent

> <STRUCTURE_IUPAC>
1-{[(propan-2-yloxy)carbonyl]oxy}ethyl (6R,7R)-7-{[(2Z)-2-(2-amino-1,3-thiazol-4-yl)-2-(methoxyimino)acetyl]amino}-3-(methoxymethyl)-8-oxo-5-thia-1-azabicyclo[4.2.0]oct-2-ene-2-carboxylate

> <STRUCTURE_SMILES>
Nc1scc(n1)\C(=N\OC)C(=O)N[C@@H]3C(=O)N2C(=C(COC)CS[C@@H]23)C(=O)OC(C)OC(=O)OC(C)C

> <STRUCTURE_SMILES_Desalt>
Nc1scc(n1)\C(=N\OC)C(=O)N[C@@H]3C(=O)N2C(=C(COC)CS[C@@H]23)C(=O)OC(C)OC(=O)OC(C)C

> <Substance_modify_yyyymmdd>
20080429

$$$$
