87333-19-5
ChemmineR-0914142331XD

 32 34  0  0  1  0  0  0  0  0  1 V2000
    9.5216   -4.0571    0.0000 N   0  0  0  0  0  0  0  0  0  0  0  0
    8.8496   -5.0968    0.0000 C   0  0  0  0  0  0  0  0  0  0  0  0
    9.5216   -2.4977    0.0000 C   0  0  0  0  0  0  0  0  0  0  0  0
   10.7134   -4.4121    0.0000 C   0  0  0  0  0  0  0  0  0  0  0  0
    9.5723   -6.0477    0.0000 C   0  0  0  0  0  0  0  0  0  0  0  0
    7.4804   -5.0968    0.0000 C   0  0  0  0  0  0  0  0  0  0  0  0
    7.1254   -2.6498    0.0000 N   0  0  0  0  0  0  0  0  0  0  0  0
   10.7134   -5.6166    0.0000 C   0  0  0  0  0  0  0  0  0  0  0  0
    8.2664   -1.9018    0.0000 C   0  0  0  0  0  0  0  0  0  0  0  0
    5.9589   -0.6720    0.0000 C   0  0  0  0  0  0  0  0  0  0  0  0
    5.9589   -2.0032    0.0000 C   0  0  0  0  0  0  0  0  0  0  0  0
   10.7007   -1.7370    0.0000 O   0  0  0  0  0  0  0  0  0  0  0  0
    6.8211   -6.1871    0.0000 O   0  0  0  0  0  0  0  0  0  0  0  0
    7.1254    0.0000    0.0000 O   0  0  0  0  0  0  0  0  0  0  0  0
    4.7418   -2.7132    0.0000 C   0  0  0  0  0  0  0  0  0  0  0  0
    6.7577   -3.9937    0.0000 O   0  0  0  0  0  0  0  0  0  0  0  0
    4.7671    0.0000    0.0000 O   0  0  0  0  0  0  0  0  0  0  0  0
    3.5500   -2.0286    0.0000 C   0  0  0  0  0  0  0  0  0  0  0  0
   11.9179   -3.9684    0.0000 C   0  0  0  0  0  0  0  0  0  0  0  0
    2.3836   -2.7132    0.0000 C   0  0  0  0  0  0  0  0  0  0  0  0
   11.9686   -5.9716    0.0000 C   0  0  0  0  0  0  0  0  0  0  0  0
   12.6786   -4.9320    0.0000 C   0  0  0  0  0  0  0  0  0  0  0  0
    8.2664   -0.5579    0.0000 C   0  0  0  0  0  0  0  0  0  0  0  0
    3.5880   -0.7100    0.0000 C   0  0  0  0  0  0  0  0  0  0  0  0
    1.1791   -2.0286    0.0000 C   0  0  0  0  0  0  0  0  0  0  0  0
    2.3836   -4.0825    0.0000 C   0  0  0  0  0  0  0  0  0  0  0  0
    2.4596   -0.0254    0.0000 C   0  0  0  0  0  0  0  0  0  0  0  0
    0.0000   -2.7132    0.0000 C   0  0  0  0  0  0  0  0  0  0  0  0
    1.1791   -4.7798    0.0000 C   0  0  0  0  0  0  0  0  0  0  0  0
    0.0000   -4.0825    0.0000 C   0  0  0  0  0  0  0  0  0  0  0  0
   10.7641   -6.8845    0.0000 H   0  0  0  0  0  0  0  0  0  0  0  0
   10.7007   -3.1189    0.0000 H   0  0  0  0  0  0  0  0  0  0  0  0
  1  2  1  0  0  0  0
  1  3  1  0  0  0  0
  1  4  1  0  0  0  0
  2  5  1  0  0  0  0
  2  6  1  1  0  0  0
  3  9  1  0  0  0  0
  3 12  2  0  0  0  0
  4  8  1  0  0  0  0
  4 19  1  0  0  0  0
  4 32  1  6  0  0  0
  5  8  1  0  0  0  0
  6 13  2  0  0  0  0
  6 16  1  0  0  0  0
  7  9  1  0  0  0  0
  7 11  1  0  0  0  0
  8 21  1  0  0  0  0
  8 31  1  6  0  0  0
  9 23  1  1  0  0  0
 11 10  1  1  0  0  0
 10 14  2  0  0  0  0
 10 17  1  0  0  0  0
 11 15  1  0  0  0  0
 15 18  1  0  0  0  0
 17 24  1  0  0  0  0
 18 20  1  0  0  0  0
 19 22  1  0  0  0  0
 20 25  1  0  0  0  0
 20 26  2  0  0  0  0
 21 22  1  0  0  0  0
 24 27  1  0  0  0  0
 25 28  2  0  0  0  0
 26 29  1  0  0  0  0
 28 30  1  0  0  0  0
 29 30  2  0  0  0  0
M  END
> <ID>
3178

> <Formula>
C23H32N2O5

> <FW>
416.5106

> <DSSTox_CID>
3551

> <DSSTox_RID>
77077

> <DSSTox_GSID>
23551

> <DSSTox_FileID_Sort>
1760

> <TS_ChemName>
Ramipril

> <TS_ChemName_Synonyms>


> <TS_CASRN>
87333-19-5

> <CASRN_ChemName_Relationship>
primary

> <TS_Description>
single chemical compound

> <ChemNote>
stereochem

> <STRUCTURE_Shown>
tested chemical

> <STRUCTURE_Formula>
C23H32N2O5

> <STRUCTURE_MW>
416.5106

> <STRUCTURE_ChemType>
defined organic

> <STRUCTURE_DefinedOrganicForm>
parent

> <STRUCTURE_IUPAC>
(2S,3aS,6aS)-1-[(2S)-2-{[(2S)-1-ethoxy-1-oxo-4-phenylbutan-2-yl]amino}propanoyl]octahydrocyclopenta[b]pyrrole-2-carboxylic acid

> <STRUCTURE_SMILES>
O=C(OCC)[C@H](CCc1ccccc1)N[C@@H](C)C(=O)N2[C@@H](C[C@@H]3CCC[C@H]23)C(=O)O

> <STRUCTURE_SMILES_Desalt>
O=C(OCC)[C@H](CCc1ccccc1)N[C@@H](C)C(=O)N2[C@@H](C[C@@H]3CCC[C@H]23)C(=O)O

> <Substance_modify_yyyymmdd>
20080429

$$$$
