87848-99-5
ChemmineR-0914142331XD

 26 28  0  0  0  0  0  0  0  0  1 V2000
    8.0661   -5.3274    0.0000 C   0  0  0  0  0  0  0  0  0  0  0  0
    9.2106   -5.9951    0.0000 C   0  0  0  0  0  0  0  0  0  0  0  0
   10.3687   -5.3274    0.0000 C   0  0  0  0  0  0  0  0  0  0  0  0
   11.5133   -5.9951    0.0000 N   0  0  0  0  0  0  0  0  0  0  0  0
   12.7395   -5.4501    0.0000 C   0  0  0  0  0  0  0  0  0  0  0  0
   13.6252   -6.4311    0.0000 C   0  0  0  0  0  0  0  0  0  0  0  0
   12.9575   -7.5892    0.0000 C   0  0  0  0  0  0  0  0  0  0  0  0
   11.6631   -7.3167    0.0000 C   0  0  0  0  0  0  0  0  0  0  0  0
    8.0661   -3.9922    0.0000 C   0  0  0  0  0  0  0  0  0  0  0  0
    6.9080   -3.3245    0.0000 C   0  0  0  0  0  0  0  0  0  0  0  0
    6.9080   -2.0029    0.0000 C   0  0  0  0  0  0  0  0  0  0  0  0
    8.0661   -1.3353    0.0000 C   0  0  0  0  0  0  0  0  0  0  0  0
    8.0661    0.0000    0.0000 C   0  0  0  0  0  0  0  0  0  0  0  0
    9.2106   -2.0029    0.0000 C   0  0  0  0  0  0  0  0  0  0  0  0
    9.2106   -3.3245    0.0000 C   0  0  0  0  0  0  0  0  0  0  0  0
    6.9080   -5.9951    0.0000 C   0  0  0  0  0  0  0  0  0  0  0  0
    6.9080   -7.3167    0.0000 C   0  0  0  0  0  0  0  0  0  0  0  0
    5.7634   -7.9843    0.0000 C   0  0  0  0  0  0  0  0  0  0  0  0
    4.6053   -7.3167    0.0000 C   0  0  0  0  0  0  0  0  0  0  0  0
    4.6053   -5.9951    0.0000 C   0  0  0  0  0  0  0  0  0  0  0  0
    3.4608   -5.3274    0.0000 C   0  0  0  0  0  0  0  0  0  0  0  0
    2.3027   -5.9951    0.0000 C   0  0  0  0  0  0  0  0  0  0  0  0
    1.1581   -5.3274    0.0000 C   0  0  0  0  0  0  0  0  0  0  0  0
    0.0000   -5.9951    0.0000 O   0  0  0  0  0  0  0  0  0  0  0  0
    1.1581   -3.9922    0.0000 O   0  0  0  0  0  0  0  0  0  0  0  0
    5.7634   -5.3274    0.0000 N   0  0  0  0  0  0  0  0  0  0  0  0
  1  2  2  0  0  0  0
  1  9  1  0  0  0  0
  1 16  1  0  0  0  0
  2  3  1  0  0  0  0
  3  4  1  0  0  0  0
  4  5  1  0  0  0  0
  4  8  1  0  0  0  0
  5  6  1  0  0  0  0
  6  7  1  0  0  0  0
  7  8  1  0  0  0  0
  9 10  2  0  0  0  0
  9 15  1  0  0  0  0
 10 11  1  0  0  0  0
 11 12  2  0  0  0  0
 12 13  1  0  0  0  0
 12 14  1  0  0  0  0
 14 15  2  0  0  0  0
 16 17  2  0  0  0  0
 16 26  1  0  0  0  0
 17 18  1  0  0  0  0
 18 19  2  0  0  0  0
 19 20  1  0  0  0  0
 20 21  1  0  0  0  0
 20 26  2  0  0  0  0
 21 22  2  0  0  0  0
 22 23  1  0  0  0  0
 23 24  1  0  0  0  0
 23 25  2  0  0  0  0
M  END
> <ID>
2317

> <Formula>
C22H24N2O2

> <FW>
348.4382

> <DSSTox_CID>
2555

> <DSSTox_RID>
76625

> <DSSTox_GSID>
22555

> <DSSTox_FileID_Sort>
1309

> <TS_ChemName>
Acrivastine

> <TS_ChemName_Synonyms>


> <TS_CASRN>
87848-99-5

> <CASRN_ChemName_Relationship>
primary

> <TS_Description>
single chemical compound

> <ChemNote>
stereochem

> <STRUCTURE_Shown>
tested chemical

> <STRUCTURE_Formula>
C22H24N2O2

> <STRUCTURE_MW>
348.4382

> <STRUCTURE_ChemType>
defined organic

> <STRUCTURE_DefinedOrganicForm>
parent

> <STRUCTURE_IUPAC>
(2E)-3-{6-[(1E)-1-(4-methylphenyl)-3-(pyrrolidin-1-yl)prop-1-en-1-yl]pyridin-2-yl}prop-2-enoic acid

> <STRUCTURE_SMILES>
O=C(O)/C=C/c1cccc(n1)\C(=C\CN2CCCC2)c3ccc(C)cc3

> <STRUCTURE_SMILES_Desalt>
O=C(O)/C=C/c1cccc(n1)\C(=C\CN2CCCC2)c3ccc(C)cc3

> <Substance_modify_yyyymmdd>
20080429

$$$$
