88-96-0
ChemmineR-0914142331XD

 12 12  0  0  0  0  0  0  0  0  1 V2000
    0.0000   -2.3041    0.0000 N   0  0  0  0  0  0  0  0  0  0  0  0
    0.6656   -3.4585    0.0000 C   0  0  0  0  0  0  0  0  0  0  0  0
    0.0000   -4.6082    0.0000 O   0  0  0  0  0  0  0  0  0  0  0  0
    1.9969   -3.4585    0.0000 C   0  0  0  0  0  0  0  0  0  0  0  0
    2.6579   -2.3041    0.0000 C   0  0  0  0  0  0  0  0  0  0  0  0
    3.9891   -2.3041    0.0000 C   0  0  0  0  0  0  0  0  0  0  0  0
    4.6548   -3.4585    0.0000 C   0  0  0  0  0  0  0  0  0  0  0  0
    3.9891   -4.6082    0.0000 C   0  0  0  0  0  0  0  0  0  0  0  0
    2.6579   -4.6082    0.0000 C   0  0  0  0  0  0  0  0  0  0  0  0
    1.9969   -1.1544    0.0000 C   0  0  0  0  0  0  0  0  0  0  0  0
    0.6656   -1.1544    0.0000 O   0  0  0  0  0  0  0  0  0  0  0  0
    2.6579    0.0000    0.0000 N   0  0  0  0  0  0  0  0  0  0  0  0
  1  2  1  0  0  0  0
  2  3  2  0  0  0  0
  2  4  1  0  0  0  0
  4  5  2  0  0  0  0
  4  9  1  0  0  0  0
  5  6  1  0  0  0  0
  5 10  1  0  0  0  0
  6  7  2  0  0  0  0
  7  8  1  0  0  0  0
  8  9  2  0  0  0  0
 10 11  2  0  0  0  0
 10 12  1  0  0  0  0
M  END
> <ID>
1114

> <Formula>
C8H8N2O2

> <FW>
164.1613

> <DSSTox_CID>
1158

> <DSSTox_RID>
75981

> <DSSTox_GSID>
21158

> <DSSTox_FileID_Sort>
665

> <TS_ChemName>
Phthalamide

> <TS_ChemName_Synonyms>


> <TS_CASRN>
88-96-0

> <CASRN_ChemName_Relationship>
primary

> <TS_Description>
single chemical compound

> <ChemNote>


> <STRUCTURE_Shown>
tested chemical

> <STRUCTURE_Formula>
C8H8N2O2

> <STRUCTURE_MW>
164.1613

> <STRUCTURE_ChemType>
defined organic

> <STRUCTURE_DefinedOrganicForm>
parent

> <STRUCTURE_IUPAC>
benzene-1,2-dicarboxamide

> <STRUCTURE_SMILES>
O=C(N)c1ccccc1C(N)=O

> <STRUCTURE_SMILES_Desalt>
O=C(N)c1ccccc1C(N)=O

> <Substance_modify_yyyymmdd>
20080429

$$$$
