88107-10-2
ChemmineR-0914142331XD

 23 24  0  0  0  0  0  0  0  0  1 V2000
    9.0180   -3.9913    0.0000 C   0  0  0  0  0  0  0  0  0  0  0  0
   10.1623   -3.3238    0.0000 C   0  0  0  0  0  0  0  0  0  0  0  0
   11.3202   -3.9913    0.0000 C   0  0  0  0  0  0  0  0  0  0  0  0
   11.3202   -5.3263    0.0000 C   0  0  0  0  0  0  0  0  0  0  0  0
   10.1623   -5.9802    0.0000 C   0  0  0  0  0  0  0  0  0  0  0  0
    9.0180   -5.3263    0.0000 C   0  0  0  0  0  0  0  0  0  0  0  0
   12.4644   -5.9802    0.0000 C   0  0  0  0  0  0  0  0  0  0  0  0
   13.6223   -5.3263    0.0000 C   0  0  0  0  0  0  0  0  0  0  0  0
   12.4644   -7.3152    0.0000 O   0  0  0  0  0  0  0  0  0  0  0  0
   12.4644   -3.3238    0.0000 O   0  0  0  0  0  0  0  0  0  0  0  0
   10.1623   -1.9889    0.0000 C   0  0  0  0  0  0  0  0  0  0  0  0
   11.3202   -1.3350    0.0000 C   0  0  0  0  0  0  0  0  0  0  0  0
   11.3202    0.0000    0.0000 C   0  0  0  0  0  0  0  0  0  0  0  0
    7.8601   -3.3238    0.0000 O   0  0  0  0  0  0  0  0  0  0  0  0
    6.7158   -3.9913    0.0000 C   0  0  0  0  0  0  0  0  0  0  0  0
    5.5579   -3.3238    0.0000 C   0  0  0  0  0  0  0  0  0  0  0  0
    4.4136   -3.9913    0.0000 C   0  0  0  0  0  0  0  0  0  0  0  0
    3.2557   -3.3238    0.0000 C   0  0  0  0  0  0  0  0  0  0  0  0
    2.1115   -3.9913    0.0000 C   0  0  0  0  0  0  0  0  0  0  0  0
    1.9616   -5.3127    0.0000 N   0  0  0  0  0  0  0  0  0  0  0  0
    0.6675   -5.5852    0.0000 N   0  0  0  0  0  0  0  0  0  0  0  0
    0.0000   -4.4409    0.0000 N   0  0  0  0  0  0  0  0  0  0  0  0
    0.8855   -3.4464    0.0000 N   0  0  0  0  0  0  0  0  0  0  0  0
  1  2  2  0  0  0  0
  1  6  1  0  0  0  0
  1 14  1  0  0  0  0
  2  3  1  0  0  0  0
  2 11  1  0  0  0  0
  3  4  2  0  0  0  0
  3 10  1  0  0  0  0
  4  5  1  0  0  0  0
  4  7  1  0  0  0  0
  5  6  2  0  0  0  0
  7  8  1  0  0  0  0
  7  9  2  0  0  0  0
 11 12  1  0  0  0  0
 12 13  1  0  0  0  0
 14 15  1  0  0  0  0
 15 16  1  0  0  0  0
 16 17  1  0  0  0  0
 17 18  1  0  0  0  0
 18 19  1  0  0  0  0
 19 20  1  0  0  0  0
 19 23  2  0  0  0  0
 20 21  1  0  0  0  0
 21 22  2  0  0  0  0
 22 23  1  0  0  0  0
M  END
> <ID>
334

> <Formula>
C16H22N4O3

> <FW>
318.3709

> <DSSTox_CID>
344

> <DSSTox_RID>
75526

> <DSSTox_GSID>
20344

> <DSSTox_FileID_Sort>
210

> <TS_ChemName>
Tomelukast

> <TS_ChemName_Synonyms>
LY171883 (Compound LY171883) (Tomelukast)

> <TS_CASRN>
88107-10-2

> <CASRN_ChemName_Relationship>
primary

> <TS_Description>
single chemical compound

> <ChemNote>
tautomers

> <STRUCTURE_Shown>
tested chemical

> <STRUCTURE_Formula>
C16H22N4O3

> <STRUCTURE_MW>
318.3709

> <STRUCTURE_ChemType>
defined organic

> <STRUCTURE_DefinedOrganicForm>
parent

> <STRUCTURE_IUPAC>
1-{2-hydroxy-3-propyl-4-[4-(1H-tetrazol-5-yl)butoxy]phenyl}ethanone

> <STRUCTURE_SMILES>
CC(=O)c2ccc(OCCCCc1nnnn1)c(CCC)c2O

> <STRUCTURE_SMILES_Desalt>
CC(=O)c2ccc(OCCCCc1nnnn1)c(CCC)c2O

> <Substance_modify_yyyymmdd>
20080429

$$$$
