89667-40-3
ChemmineR-0914142331XD

 21 22  0  0  0  0  0  0  0  0  1 V2000
   10.3694   -2.6500    0.0000 C   0  0  0  0  0  0  0  0  0  0  0  0
    0.0000   -0.6798    0.0000 C   0  0  0  0  0  0  0  0  0  0  0  0
    1.1406    0.0000    0.0000 C   0  0  0  0  0  0  0  0  0  0  0  0
    2.2928   -0.6798    0.0000 C   0  0  0  0  0  0  0  0  0  0  0  0
    2.2928   -1.9932    0.0000 C   0  0  0  0  0  0  0  0  0  0  0  0
    1.1406   -2.6500    0.0000 C   0  0  0  0  0  0  0  0  0  0  0  0
    0.0000   -1.9932    0.0000 N   0  0  0  0  0  0  0  0  0  0  0  0
    3.4450   -2.6500    0.0000 C   0  0  0  0  0  0  0  0  0  0  0  0
    4.6086   -1.9932    0.0000 C   0  0  0  0  0  0  0  0  0  0  0  0
    5.7608   -2.6500    0.0000 C   0  0  0  0  0  0  0  0  0  0  0  0
    6.9130   -1.9932    0.0000 C   0  0  0  0  0  0  0  0  0  0  0  0
    8.0766   -2.6500    0.0000 C   0  0  0  0  0  0  0  0  0  0  0  0
    9.2288   -1.9932    0.0000 C   0  0  0  0  0  0  0  0  0  0  0  0
    3.4450   -3.9980    0.0000 C   0  0  0  0  0  0  0  0  0  0  0  0
    4.6086   -4.6547    0.0000 C   0  0  0  0  0  0  0  0  0  0  0  0
    4.6086   -6.0028    0.0000 C   0  0  0  0  0  0  0  0  0  0  0  0
    3.4450   -6.6480    0.0000 C   0  0  0  0  0  0  0  0  0  0  0  0
    2.2928   -6.0028    0.0000 C   0  0  0  0  0  0  0  0  0  0  0  0
    2.2928   -4.6547    0.0000 C   0  0  0  0  0  0  0  0  0  0  0  0
   11.5216   -1.9932    0.0000 O   0  0  0  0  0  0  0  0  0  0  0  0
   10.3694   -3.9980    0.0000 O   0  0  0  0  0  0  0  0  0  0  0  0
  1 13  1  0  0  0  0
  1 20  1  0  0  0  0
  1 21  2  0  0  0  0
  2  7  1  0  0  0  0
  2  3  2  0  0  0  0
  3  4  1  0  0  0  0
  4  5  2  0  0  0  0
  5  8  1  0  0  0  0
  5  6  1  0  0  0  0
  6  7  2  0  0  0  0
  8 14  1  0  0  0  0
  8  9  2  0  0  0  0
  9 10  1  0  0  0  0
 10 11  1  0  0  0  0
 11 12  1  0  0  0  0
 12 13  1  0  0  0  0
 14 15  2  0  0  0  0
 14 19  1  0  0  0  0
 15 16  1  0  0  0  0
 16 17  2  0  0  0  0
 17 18  1  0  0  0  0
 18 19  2  0  0  0  0
M  END
> <ID>
1089

> <Formula>
C18H19NO2

> <FW>
281.349

> <DSSTox_CID>
1133

> <DSSTox_RID>
75964

> <DSSTox_GSID>
21133

> <DSSTox_FileID_Sort>
648

> <TS_ChemName>
Isbogrel

> <TS_ChemName_Synonyms>
(E)-7-Phenyl-7-(3-pyridyl)-6-heptenoic acid

> <TS_CASRN>
89667-40-3

> <CASRN_ChemName_Relationship>
primary

> <TS_Description>
single chemical compound

> <ChemNote>
stereochem

> <STRUCTURE_Shown>
tested chemical

> <STRUCTURE_Formula>
C18H19NO2

> <STRUCTURE_MW>
281.349

> <STRUCTURE_ChemType>
defined organic

> <STRUCTURE_DefinedOrganicForm>
parent

> <STRUCTURE_IUPAC>
(6E)-7-phenyl-7-(pyridin-3-yl)hept-6-enoic acid

> <STRUCTURE_SMILES>
O=C(O)CCCC\C=C(\c1cccnc1)c2ccccc2

> <STRUCTURE_SMILES_Desalt>
O=C(O)CCCC\C=C(\c1cccnc1)c2ccccc2

> <Substance_modify_yyyymmdd>
20080429

$$$$
