90-12-0
ChemmineR-0914142331XD

 11 12  0  0  0  0  0  0  0  0  1 V2000
    3.4589    0.0000    0.0000 C   0  0  0  0  0  0  0  0  0  0  0  0
    3.4589   -1.3328    0.0000 C   0  0  0  0  0  0  0  0  0  0  0  0
    2.3060   -2.0016    0.0000 C   0  0  0  0  0  0  0  0  0  0  0  0
    2.3060   -3.3344    0.0000 C   0  0  0  0  0  0  0  0  0  0  0  0
    3.4589   -3.9893    0.0000 C   0  0  0  0  0  0  0  0  0  0  0  0
    4.6119   -3.3344    0.0000 C   0  0  0  0  0  0  0  0  0  0  0  0
    4.6119   -1.9877    0.0000 C   0  0  0  0  0  0  0  0  0  0  0  0
    1.1530   -3.9893    0.0000 C   0  0  0  0  0  0  0  0  0  0  0  0
    0.0000   -3.3344    0.0000 C   0  0  0  0  0  0  0  0  0  0  0  0
    0.0000   -2.0016    0.0000 C   0  0  0  0  0  0  0  0  0  0  0  0
    1.1530   -1.3467    0.0000 C   0  0  0  0  0  0  0  0  0  0  0  0
  1  2  1  0  0  0  0
  2  3  2  0  0  0  0
  2  7  1  0  0  0  0
  3  4  1  0  0  0  0
  3 11  1  0  0  0  0
  4  5  2  0  0  0  0
  4  8  1  0  0  0  0
  5  6  1  0  0  0  0
  6  7  2  0  0  0  0
  8  9  2  0  0  0  0
  9 10  1  0  0  0  0
 10 11  2  0  0  0  0
M  END
> <ID>
843

> <Formula>
C11H10

> <FW>
142.1971

> <DSSTox_CID>
877

> <DSSTox_RID>
75841

> <DSSTox_GSID>
20877

> <DSSTox_FileID_Sort>
525

> <TS_ChemName>
1-Methylnaphthalene

> <TS_ChemName_Synonyms>


> <TS_CASRN>
90-12-0

> <CASRN_ChemName_Relationship>
primary

> <TS_Description>
single chemical compound

> <ChemNote>


> <STRUCTURE_Shown>
tested chemical

> <STRUCTURE_Formula>
C11H10

> <STRUCTURE_MW>
142.1971

> <STRUCTURE_ChemType>
defined organic

> <STRUCTURE_DefinedOrganicForm>
parent

> <STRUCTURE_IUPAC>
1-methylnaphthalene

> <STRUCTURE_SMILES>
Cc2cccc1ccccc12

> <STRUCTURE_SMILES_Desalt>
Cc2cccc1ccccc12

> <Substance_modify_yyyymmdd>
20110530

$$$$
