90-49-3
ChemmineR-0914142331XD

 15 15  0  0  0  0  0  0  0  0  1 V2000
    5.9866   -3.4543    0.0000 O   0  0  0  0  0  0  0  0  0  0  0  0
    4.6576   -3.4543    0.0000 C   0  0  0  0  0  0  0  0  0  0  0  0
    3.9930   -4.6097    0.0000 C   0  0  0  0  0  0  0  0  0  0  0  0
    2.6580   -4.6097    0.0000 C   0  0  0  0  0  0  0  0  0  0  0  0
    1.9935   -5.7591    0.0000 C   0  0  0  0  0  0  0  0  0  0  0  0
    0.6645   -5.7591    0.0000 C   0  0  0  0  0  0  0  0  0  0  0  0
    0.0000   -4.6097    0.0000 C   0  0  0  0  0  0  0  0  0  0  0  0
    0.6645   -3.4543    0.0000 C   0  0  0  0  0  0  0  0  0  0  0  0
    1.9935   -3.4543    0.0000 C   0  0  0  0  0  0  0  0  0  0  0  0
    4.6576   -5.7591    0.0000 C   0  0  0  0  0  0  0  0  0  0  0  0
    5.9866   -5.7591    0.0000 C   0  0  0  0  0  0  0  0  0  0  0  0
    3.9930   -2.3048    0.0000 N   0  0  0  0  0  0  0  0  0  0  0  0
    4.6576   -1.1494    0.0000 C   0  0  0  0  0  0  0  0  0  0  0  0
    3.9930    0.0000    0.0000 O   0  0  0  0  0  0  0  0  0  0  0  0
    5.9866   -1.1494    0.0000 N   0  0  0  0  0  0  0  0  0  0  0  0
  1  2  2  0  0  0  0
  2  3  1  0  0  0  0
  2 12  1  0  0  0  0
  3  4  1  0  0  0  0
  3 10  1  0  0  0  0
  4  5  2  0  0  0  0
  4  9  1  0  0  0  0
  5  6  1  0  0  0  0
  6  7  2  0  0  0  0
  7  8  1  0  0  0  0
  8  9  2  0  0  0  0
 10 11  1  0  0  0  0
 12 13  1  0  0  0  0
 13 14  2  0  0  0  0
 13 15  1  0  0  0  0
M  END
> <ID>
587

> <Formula>
C11H14N2O2

> <FW>
206.2411

> <DSSTox_CID>
612

> <DSSTox_RID>
75689

> <DSSTox_GSID>
20612

> <DSSTox_FileID_Sort>
373

> <TS_ChemName>
Ethylphenylacetylurea

> <TS_ChemName_Synonyms>


> <TS_CASRN>
90-49-3

> <CASRN_ChemName_Relationship>
primary

> <TS_Description>
single chemical compound

> <ChemNote>


> <STRUCTURE_Shown>
tested chemical

> <STRUCTURE_Formula>
C11H14N2O2

> <STRUCTURE_MW>
206.2411

> <STRUCTURE_ChemType>
defined organic

> <STRUCTURE_DefinedOrganicForm>
parent

> <STRUCTURE_IUPAC>
N-carbamoyl-2-phenylbutanamide

> <STRUCTURE_SMILES>
CCC(C(=O)NC(N)=O)c1ccccc1

> <STRUCTURE_SMILES_Desalt>
CCC(C(=O)NC(N)=O)c1ccccc1

> <Substance_modify_yyyymmdd>
20080429

$$$$
