90-69-7
ChemmineR-0914142331XD

 25 27  0  0  1  0  0  0  0  0  1 V2000
    5.9889   -2.3122    0.0000 N   0  0  0  0  0  0  0  0  0  0  0  0
    6.6459   -3.4619    0.0000 C   0  0  0  0  0  0  0  0  0  0  0  0
    7.9851   -3.4619    0.0000 C   0  0  0  0  0  0  0  0  0  0  0  0
    8.6421   -4.6117    0.0000 C   0  0  0  0  0  0  0  0  0  0  0  0
    7.9851   -5.7614    0.0000 O   0  0  0  0  0  0  0  0  0  0  0  0
    9.9688   -4.6117    0.0000 C   0  0  0  0  0  0  0  0  0  0  0  0
   10.6384   -3.4619    0.0000 C   0  0  0  0  0  0  0  0  0  0  0  0
   11.9651   -3.4619    0.0000 C   0  0  0  0  0  0  0  0  0  0  0  0
   12.6347   -4.6117    0.0000 C   0  0  0  0  0  0  0  0  0  0  0  0
   11.9651   -5.7614    0.0000 C   0  0  0  0  0  0  0  0  0  0  0  0
   10.6384   -5.7614    0.0000 C   0  0  0  0  0  0  0  0  0  0  0  0
    5.9889   -4.6117    0.0000 C   0  0  0  0  0  0  0  0  0  0  0  0
    4.6496   -4.6117    0.0000 C   0  0  0  0  0  0  0  0  0  0  0  0
    3.9926   -3.4619    0.0000 C   0  0  0  0  0  0  0  0  0  0  0  0
    4.6496   -2.3122    0.0000 C   0  0  0  0  0  0  0  0  0  0  0  0
    3.9926   -1.1498    0.0000 C   0  0  0  0  0  0  0  0  0  0  0  0
    2.6659   -1.1498    0.0000 C   0  0  0  0  0  0  0  0  0  0  0  0
    1.9963   -2.3122    0.0000 C   0  0  0  0  0  0  0  0  0  0  0  0
    2.6659   -3.4619    0.0000 C   0  0  0  0  0  0  0  0  0  0  0  0
    1.9963   -4.6117    0.0000 C   0  0  0  0  0  0  0  0  0  0  0  0
    0.6696   -4.6117    0.0000 C   0  0  0  0  0  0  0  0  0  0  0  0
    0.0000   -3.4619    0.0000 C   0  0  0  0  0  0  0  0  0  0  0  0
    0.6696   -2.3122    0.0000 C   0  0  0  0  0  0  0  0  0  0  0  0
    1.9963    0.0000    0.0000 O   0  0  0  0  0  0  0  0  0  0  0  0
    6.6459   -1.1498    0.0000 C   0  0  0  0  0  0  0  0  0  0  0  0
  1  2  1  0  0  0  0
  1 15  1  0  0  0  0
  1 25  1  0  0  0  0
  2  3  1  1  0  0  0
  2 12  1  0  0  0  0
  3  4  1  0  0  0  0
  4  5  2  0  0  0  0
  4  6  1  0  0  0  0
  6  7  2  0  0  0  0
  6 11  1  0  0  0  0
  7  8  1  0  0  0  0
  8  9  2  0  0  0  0
  9 10  1  0  0  0  0
 10 11  2  0  0  0  0
 12 13  1  0  0  0  0
 13 14  1  0  0  0  0
 14 15  1  0  0  0  0
 15 16  1  1  0  0  0
 16 17  1  0  0  0  0
 17 18  1  0  0  0  0
 17 24  1  1  0  0  0
 18 19  2  0  0  0  0
 18 23  1  0  0  0  0
 19 20  1  0  0  0  0
 20 21  2  0  0  0  0
 21 22  1  0  0  0  0
 22 23  2  0  0  0  0
M  END
> <ID>
2895

> <Formula>
C22H27NO2

> <FW>
337.4553

> <DSSTox_CID>
3219

> <DSSTox_RID>
76929

> <DSSTox_GSID>
23219

> <DSSTox_FileID_Sort>
1613

> <TS_ChemName>
Lobeline

> <TS_ChemName_Synonyms>


> <TS_CASRN>
90-69-7

> <CASRN_ChemName_Relationship>
primary

> <TS_Description>
single chemical compound

> <ChemNote>
stereochem

> <STRUCTURE_Shown>
tested chemical

> <STRUCTURE_Formula>
C22H27NO2

> <STRUCTURE_MW>
337.4553

> <STRUCTURE_ChemType>
defined organic

> <STRUCTURE_DefinedOrganicForm>
parent

> <STRUCTURE_IUPAC>
2-{(2R,6S)-6-[(2S)-2-hydroxy-2-phenylethyl]-1-methylpiperidin-2-yl}-1-phenylethanone

> <STRUCTURE_SMILES>
CN2[C@H](CCC[C@H]2C[C@H](O)c1ccccc1)CC(=O)c3ccccc3

> <STRUCTURE_SMILES_Desalt>
CN2[C@H](CCC[C@H]2C[C@H](O)c1ccccc1)CC(=O)c3ccccc3

> <Substance_modify_yyyymmdd>
20080429

$$$$
