90357-06-5
ChemmineR-0914142331XD

 29 30  0  0  1  0  0  0  0  0  1 V2000
    3.1429   -3.4558    0.0000 C   0  0  0  0  0  0  0  0  0  0  0  0
    3.8255   -2.2896    0.0000 C   0  0  0  0  0  0  0  0  0  0  0  0
    5.1339   -2.2896    0.0000 C   0  0  0  0  0  0  0  0  0  0  0  0
    5.8165   -1.1377    0.0000 C   0  0  0  0  0  0  0  0  0  0  0  0
    6.4707    0.0000    0.0000 N   0  0  0  0  0  0  0  0  0  0  0  0
    5.8165   -3.4558    0.0000 C   0  0  0  0  0  0  0  0  0  0  0  0
    7.1391   -3.4558    0.0000 C   0  0  0  0  0  0  0  0  0  0  0  0
    7.1391   -4.7641    0.0000 F   0  0  0  0  0  0  0  0  0  0  0  0
    7.1391   -2.1190    0.0000 F   0  0  0  0  0  0  0  0  0  0  0  0
    8.4616   -3.4558    0.0000 F   0  0  0  0  0  0  0  0  0  0  0  0
    5.1339   -4.6077    0.0000 C   0  0  0  0  0  0  0  0  0  0  0  0
    3.8255   -4.6077    0.0000 C   0  0  0  0  0  0  0  0  0  0  0  0
    3.1429   -5.7596    0.0000 N   0  0  0  0  0  0  0  0  0  0  0  0
    1.8345   -5.7596    0.0000 C   0  0  0  0  0  0  0  0  0  0  0  0
    1.1519   -4.6077    0.0000 O   0  0  0  0  0  0  0  0  0  0  0  0
    1.1519   -6.8973    0.0000 C   0  0  0  0  0  0  0  0  0  0  0  0
    0.0000   -6.2431    0.0000 C   0  0  0  0  0  0  0  0  0  0  0  0
    0.4835   -8.0634    0.0000 O   0  0  0  0  0  0  0  0  0  0  0  0
    2.3181   -7.5799    0.0000 C   0  0  0  0  0  0  0  0  0  0  0  0
    2.3181   -8.8883    0.0000 S   0  0  0  0  0  0  0  0  0  0  0  0
    0.9670   -8.8883    0.0000 O   0  0  0  0  0  0  0  0  0  0  0  0
    3.6264   -8.8883    0.0000 O   0  0  0  0  0  0  0  0  0  0  0  0
    2.3181  -10.2393    0.0000 C   0  0  0  0  0  0  0  0  0  0  0  0
    1.1519  -10.8935    0.0000 C   0  0  0  0  0  0  0  0  0  0  0  0
    1.1519  -12.2303    0.0000 C   0  0  0  0  0  0  0  0  0  0  0  0
    2.3181  -12.8987    0.0000 C   0  0  0  0  0  0  0  0  0  0  0  0
    2.3181  -14.2212    0.0000 F   0  0  0  0  0  0  0  0  0  0  0  0
    3.4558  -12.2303    0.0000 C   0  0  0  0  0  0  0  0  0  0  0  0
    3.4558  -10.8935    0.0000 C   0  0  0  0  0  0  0  0  0  0  0  0
  1  2  2  0  0  0  0
  1 12  1  0  0  0  0
  2  3  1  0  0  0  0
  3  4  1  0  0  0  0
  3  6  2  0  0  0  0
  4  5  3  0  0  0  0
  6  7  1  0  0  0  0
  6 11  1  0  0  0  0
  7  8  1  0  0  0  0
  7  9  1  0  0  0  0
  7 10  1  0  0  0  0
 11 12  2  0  0  0  0
 12 13  1  0  0  0  0
 13 14  1  0  0  0  0
 14 15  2  0  0  0  0
 14 16  1  0  0  0  0
 16 17  1  1  0  0  0
 16 18  1  6  0  0  0
 16 19  1  0  0  0  0
 19 20  1  0  0  0  0
 20 21  2  0  0  0  0
 20 22  2  0  0  0  0
 20 23  1  0  0  0  0
 23 24  2  0  0  0  0
 23 29  1  0  0  0  0
 24 25  1  0  0  0  0
 25 26  2  0  0  0  0
 26 27  1  0  0  0  0
 26 28  1  0  0  0  0
 28 29  2  0  0  0  0
M  END
> <ID>
2424

> <Formula>
C18H14F4N2O4S

> <FW>
430.3734

> <DSSTox_CID>
2678

> <DSSTox_RID>
76687

> <DSSTox_GSID>
22678

> <DSSTox_FileID_Sort>
1371

> <TS_ChemName>
Bicalutamide

> <TS_ChemName_Synonyms>
CDX; Casodex

> <TS_CASRN>
90357-06-5

> <CASRN_ChemName_Relationship>
primary

> <TS_Description>
single chemical compound

> <ChemNote>
stereochem

> <STRUCTURE_Shown>
tested chemical

> <STRUCTURE_Formula>
C18H14F4N2O4S

> <STRUCTURE_MW>
430.3734

> <STRUCTURE_ChemType>
defined organic

> <STRUCTURE_DefinedOrganicForm>
parent

> <STRUCTURE_IUPAC>
(2R)-N-[4-cyano-3-(trifluoromethyl)phenyl]-3-[(4-fluorophenyl)sulfonyl]-2-hydroxy-2-methylpropanamide

> <STRUCTURE_SMILES>
Fc1ccc(cc1)S(=O)(=O)C[C@](C)(O)C(=O)Nc2cc(c(C#N)cc2)C(F)(F)F

> <STRUCTURE_SMILES_Desalt>
Fc1ccc(cc1)S(=O)(=O)C[C@](C)(O)C(=O)Nc2cc(c(C#N)cc2)C(F)(F)F

> <Substance_modify_yyyymmdd>
20080429

$$$$
