91-23-6
ChemmineR-0914142331XD

 11 11  0  0  0  0  0  0  0  0  2 V2000
    1.9971    0.0000    0.0000 C   0  0  0  0  0  0  0  0  0  0  0  0
    2.6581   -1.1545    0.0000 O   0  0  0  0  0  0  0  0  0  0  0  0
    1.9971   -2.3043    0.0000 C   0  0  0  0  0  0  0  0  0  0  0  0
    2.6581   -3.4588    0.0000 C   0  0  0  0  0  0  0  0  0  0  0  0
    1.9971   -4.6086    0.0000 C   0  0  0  0  0  0  0  0  0  0  0  0
    0.6657   -4.6086    0.0000 C   0  0  0  0  0  0  0  0  0  0  0  0
    0.0000   -3.4588    0.0000 C   0  0  0  0  0  0  0  0  0  0  0  0
    0.6657   -2.3043    0.0000 C   0  0  0  0  0  0  0  0  0  0  0  0
    3.9895   -3.4588    0.0000 N   0  3  0  0  0  0  0  0  0  0  0  0
    4.6552   -2.3043    0.0000 O   0  0  0  0  0  0  0  0  0  0  0  0
    4.6552   -4.6086    0.0000 O   0  5  0  0  0  0  0  0  0  0  0  0
  1  2  1  0  0  0  0
  2  3  1  0  0  0  0
  3  4  2  0  0  0  0
  3  8  1  0  0  0  0
  4  5  1  0  0  0  0
  4  9  1  0  0  0  0
  5  6  2  0  0  0  0
  6  7  1  0  0  0  0
  7  8  2  0  0  0  0
  9 10  2  0  0  0  0
  9 11  1  0  0  0  0
M  END
> <ID>
926

> <Formula>
C7H7NO3

> <FW>
153.1354

> <DSSTox_CID>
962

> <DSSTox_RID>
75890

> <DSSTox_GSID>
20962

> <DSSTox_FileID_Sort>
574

> <TS_ChemName>
1-Methoxy-2-nitrobenzene

> <TS_ChemName_Synonyms>
1-Methoxy-2-nitrobenzene (methyl 2-nitrophenyl ether) (o-Nitroanisole)

> <TS_CASRN>
91-23-6

> <CASRN_ChemName_Relationship>
primary

> <TS_Description>
single chemical compound

> <ChemNote>


> <STRUCTURE_Shown>
tested chemical

> <STRUCTURE_Formula>
C7H7NO3

> <STRUCTURE_MW>
153.1354

> <STRUCTURE_ChemType>
defined organic

> <STRUCTURE_DefinedOrganicForm>
parent

> <STRUCTURE_IUPAC>
1-methoxy-2-nitrobenzene

> <STRUCTURE_SMILES>
COc1ccccc1[N+]([O-])=O

> <STRUCTURE_SMILES_Desalt>
COc1ccccc1[N+]([O-])=O

> <Substance_modify_yyyymmdd>
20080429

$$$$
