91-57-6
ChemmineR-0914142331XD

 11 12  0  0  0  0  0  0  0  0  1 V2000
    2.2832   -0.6556    0.0000 C   0  0  0  0  0  0  0  0  0  0  0  0
    2.2832   -2.0071    0.0000 C   0  0  0  0  0  0  0  0  0  0  0  0
    1.1445    0.0000    0.0000 C   0  0  0  0  0  0  0  0  0  0  0  0
    1.1445   -2.6627    0.0000 C   0  0  0  0  0  0  0  0  0  0  0  0
    0.0000   -0.6556    0.0000 C   0  0  0  0  0  0  0  0  0  0  0  0
    0.0000   -2.0071    0.0000 C   0  0  0  0  0  0  0  0  0  0  0  0
    3.4449    0.0000    0.0000 C   0  0  0  0  0  0  0  0  0  0  0  0
    4.5893   -0.6729    0.0000 C   0  0  0  0  0  0  0  0  0  0  0  0
    3.4449   -2.6627    0.0000 C   0  0  0  0  0  0  0  0  0  0  0  0
    4.5893   -2.0071    0.0000 C   0  0  0  0  0  0  0  0  0  0  0  0
    5.7510    0.0000    0.0000 C   0  0  0  0  0  0  0  0  0  0  0  0
  1  3  2  0  0  0  0
  1  7  1  0  0  0  0
  1  2  1  0  0  0  0
  2  4  2  0  0  0  0
  2  9  1  0  0  0  0
  3  5  1  0  0  0  0
  4  6  1  0  0  0  0
  5  6  2  0  0  0  0
  7  8  2  0  0  0  0
  8 10  1  0  0  0  0
  8 11  1  0  0  0  0
  9 10  2  0  0  0  0
M  END
> <ID>
844

> <Formula>
C11H10

> <FW>
142.1971

> <DSSTox_CID>
878

> <DSSTox_RID>
75842

> <DSSTox_GSID>
20878

> <DSSTox_FileID_Sort>
526

> <TS_ChemName>
2-Methylnaphthalene

> <TS_ChemName_Synonyms>


> <TS_CASRN>
91-57-6

> <CASRN_ChemName_Relationship>
primary

> <TS_Description>
single chemical compound

> <ChemNote>


> <STRUCTURE_Shown>
tested chemical

> <STRUCTURE_Formula>
C11H10

> <STRUCTURE_MW>
142.1971

> <STRUCTURE_ChemType>
defined organic

> <STRUCTURE_DefinedOrganicForm>
parent

> <STRUCTURE_IUPAC>
2-methylnaphthalene

> <STRUCTURE_SMILES>
Cc1ccc2ccccc2c1

> <STRUCTURE_SMILES_Desalt>
Cc1ccc2ccccc2c1

> <Substance_modify_yyyymmdd>
20080429

$$$$
