91-53-2
ChemmineR-0914142331XD

 16 17  0  0  0  0  0  0  0  0  1 V2000
    6.9073   -4.5736    0.0000 C   0  0  0  0  0  0  0  0  0  0  0  0
    6.9073   -3.2428    0.0000 C   0  0  0  0  0  0  0  0  0  0  0  0
    8.0601   -2.5774    0.0000 C   0  0  0  0  0  0  0  0  0  0  0  0
    8.0601   -1.2465    0.0000 C   0  0  0  0  0  0  0  0  0  0  0  0
    6.9073   -0.5811    0.0000 N   0  0  0  0  0  0  0  0  0  0  0  0
    5.7545   -1.2465    0.0000 C   0  0  0  0  0  0  0  0  0  0  0  0
    5.7545   -2.5774    0.0000 C   0  0  0  0  0  0  0  0  0  0  0  0
    4.6111   -3.2428    0.0000 C   0  0  0  0  0  0  0  0  0  0  0  0
    3.4583   -2.5774    0.0000 C   0  0  0  0  0  0  0  0  0  0  0  0
    3.4583   -1.2465    0.0000 C   0  0  0  0  0  0  0  0  0  0  0  0
    4.6111   -0.5811    0.0000 C   0  0  0  0  0  0  0  0  0  0  0  0
    2.3056   -3.2428    0.0000 O   0  0  0  0  0  0  0  0  0  0  0  0
    1.1528   -2.5774    0.0000 C   0  0  0  0  0  0  0  0  0  0  0  0
    0.0000   -3.2428    0.0000 C   0  0  0  0  0  0  0  0  0  0  0  0
    8.5193    0.0000    0.0000 C   0  0  0  0  0  0  0  0  0  0  0  0
    9.3722   -1.4808    0.0000 C   0  0  0  0  0  0  0  0  0  0  0  0
  1  2  1  0  0  0  0
  2  3  2  0  0  0  0
  2  7  1  0  0  0  0
  3  4  1  0  0  0  0
  4  5  1  0  0  0  0
  4 15  1  0  0  0  0
  4 16  1  0  0  0  0
  5  6  1  0  0  0  0
  6  7  2  0  0  0  0
  6 11  1  0  0  0  0
  7  8  1  0  0  0  0
  8  9  2  0  0  0  0
  9 10  1  0  0  0  0
  9 12  1  0  0  0  0
 10 11  2  0  0  0  0
 12 13  1  0  0  0  0
 13 14  1  0  0  0  0
M  END
> <ID>
557

> <Formula>
C14H19NO

> <FW>
217.3068

> <DSSTox_CID>
582

> <DSSTox_RID>
75672

> <DSSTox_GSID>
20582

> <DSSTox_FileID_Sort>
356

> <TS_ChemName>
Ethoxyquin

> <TS_ChemName_Synonyms>
Ethoxyquin (1,2-Dihydro-6-ethoxy-2,2,4-trimethylquinoline)

> <TS_CASRN>
91-53-2

> <CASRN_ChemName_Relationship>
primary

> <TS_Description>
single chemical compound

> <ChemNote>


> <STRUCTURE_Shown>
tested chemical

> <STRUCTURE_Formula>
C14H19NO

> <STRUCTURE_MW>
217.3068

> <STRUCTURE_ChemType>
defined organic

> <STRUCTURE_DefinedOrganicForm>
parent

> <STRUCTURE_IUPAC>
6-ethoxy-2,2,4-trimethyl-1,2-dihydroquinoline

> <STRUCTURE_SMILES>
CCOc1ccc2NC(C)(C)C=C(C)c2c1

> <STRUCTURE_SMILES_Desalt>
CCOc1ccc2NC(C)(C)C=C(C)c2c1

> <Substance_modify_yyyymmdd>
20080429

$$$$
