91-65-6
ChemmineR-0914142331XD

 11 11  0  0  0  0  0  0  0  0  1 V2000
    0.0000   -2.3044    0.0000 C   0  0  0  0  0  0  0  0  0  0  0  0
    1.3288   -2.3044    0.0000 C   0  0  0  0  0  0  0  0  0  0  0  0
    1.9932   -1.1552    0.0000 N   0  0  0  0  0  0  0  0  0  0  0  0
    1.3288    0.0000    0.0000 C   0  0  0  0  0  0  0  0  0  0  0  0
    0.0000    0.0000    0.0000 C   0  0  0  0  0  0  0  0  0  0  0  0
    3.3279   -1.1552    0.0000 C   0  0  0  0  0  0  0  0  0  0  0  0
    3.9923    0.0000    0.0000 C   0  0  0  0  0  0  0  0  0  0  0  0
    5.3211    0.0000    0.0000 C   0  0  0  0  0  0  0  0  0  0  0  0
    5.9855   -1.1552    0.0000 C   0  0  0  0  0  0  0  0  0  0  0  0
    5.3211   -2.3044    0.0000 C   0  0  0  0  0  0  0  0  0  0  0  0
    3.9923   -2.3044    0.0000 C   0  0  0  0  0  0  0  0  0  0  0  0
  1  2  1  0  0  0  0
  2  3  1  0  0  0  0
  3  4  1  0  0  0  0
  3  6  1  0  0  0  0
  4  5  1  0  0  0  0
  6  7  1  0  0  0  0
  6 11  1  0  0  0  0
  7  8  1  0  0  0  0
  8  9  1  0  0  0  0
  9 10  1  0  0  0  0
 10 11  1  0  0  0  0
M  END
> <ID>
1697

> <Formula>
C10H21N

> <FW>
155.2804

> <DSSTox_CID>
1799

> <DSSTox_RID>
76333

> <DSSTox_GSID>
21799

> <DSSTox_FileID_Sort>
1017

> <TS_ChemName>
N,N-Diethylcyclohexylamine

> <TS_ChemName_Synonyms>


> <TS_CASRN>
91-65-6

> <CASRN_ChemName_Relationship>
primary

> <TS_Description>
single chemical compound

> <ChemNote>


> <STRUCTURE_Shown>
tested chemical

> <STRUCTURE_Formula>
C10H21N

> <STRUCTURE_MW>
155.2804

> <STRUCTURE_ChemType>
defined organic

> <STRUCTURE_DefinedOrganicForm>
parent

> <STRUCTURE_IUPAC>
N,N-diethylcyclohexanamine

> <STRUCTURE_SMILES>
CCN(CC)C1CCCCC1

> <STRUCTURE_SMILES_Desalt>
CCN(CC)C1CCCCC1

> <Substance_modify_yyyymmdd>
20080429

$$$$
