91-66-7
ChemmineR-0914142331XD

 11 11  0  0  0  0  0  0  0  0  1 V2000
    0.0000   -2.3044    0.0000 C   0  0  0  0  0  0  0  0  0  0  0  0
    1.3288   -2.3044    0.0000 C   0  0  0  0  0  0  0  0  0  0  0  0
    1.9932   -1.1552    0.0000 N   0  0  0  0  0  0  0  0  0  0  0  0
    1.3288    0.0000    0.0000 C   0  0  0  0  0  0  0  0  0  0  0  0
    0.0000    0.0000    0.0000 C   0  0  0  0  0  0  0  0  0  0  0  0
    3.3279   -1.1552    0.0000 C   0  0  0  0  0  0  0  0  0  0  0  0
    3.9923    0.0000    0.0000 C   0  0  0  0  0  0  0  0  0  0  0  0
    5.3211    0.0000    0.0000 C   0  0  0  0  0  0  0  0  0  0  0  0
    5.9855   -1.1552    0.0000 C   0  0  0  0  0  0  0  0  0  0  0  0
    5.3211   -2.3044    0.0000 C   0  0  0  0  0  0  0  0  0  0  0  0
    3.9923   -2.3044    0.0000 C   0  0  0  0  0  0  0  0  0  0  0  0
  1  2  1  0  0  0  0
  2  3  1  0  0  0  0
  3  4  1  0  0  0  0
  3  6  1  0  0  0  0
  4  5  1  0  0  0  0
  6  7  2  0  0  0  0
  6 11  1  0  0  0  0
  7  8  1  0  0  0  0
  8  9  2  0  0  0  0
  9 10  1  0  0  0  0
 10 11  2  0  0  0  0
M  END
> <ID>
1698

> <Formula>
C10H15N

> <FW>
149.2328

> <DSSTox_CID>
1800

> <DSSTox_RID>
76334

> <DSSTox_GSID>
21800

> <DSSTox_FileID_Sort>
1018

> <TS_ChemName>
N,N-Diethylaniline

> <TS_ChemName_Synonyms>
N,N-Diethylaniline (Benzenamine, N,N-diethyl-)

> <TS_CASRN>
91-66-7

> <CASRN_ChemName_Relationship>
primary

> <TS_Description>
single chemical compound

> <ChemNote>


> <STRUCTURE_Shown>
tested chemical

> <STRUCTURE_Formula>
C10H15N

> <STRUCTURE_MW>
149.2328

> <STRUCTURE_ChemType>
defined organic

> <STRUCTURE_DefinedOrganicForm>
parent

> <STRUCTURE_IUPAC>
N,N-diethylaniline

> <STRUCTURE_SMILES>
CCN(CC)c1ccccc1

> <STRUCTURE_SMILES_Desalt>
CCN(CC)c1ccccc1

> <Substance_modify_yyyymmdd>
20080429

$$$$
