928-97-2
ChemmineR-0914142331XD

  7  6  0  0  0  0  0  0  0  0  1 V2000
    0.0000   -0.6638    0.0000 C   0  0  0  0  0  0  0  0  0  0  0  0
    1.1548    0.0000    0.0000 C   0  0  0  0  0  0  0  0  0  0  0  0
    2.3027   -0.6638    0.0000 C   0  0  0  0  0  0  0  0  0  0  0  0
    3.4575    0.0000    0.0000 C   0  0  0  0  0  0  0  0  0  0  0  0
    4.6122   -0.6638    0.0000 C   0  0  0  0  0  0  0  0  0  0  0  0
    5.7601    0.0000    0.0000 C   0  0  0  0  0  0  0  0  0  0  0  0
    6.9149   -0.6638    0.0000 O   0  0  0  0  0  0  0  0  0  0  0  0
  1  2  1  0  0  0  0
  2  3  1  0  0  0  0
  3  4  2  0  0  0  0
  4  5  1  0  0  0  0
  5  6  1  0  0  0  0
  6  7  1  0  0  0  0
M  END
> <ID>
1979

> <Formula>
C6H12O

> <FW>
100.1589

> <DSSTox_CID>
2138

> <DSSTox_RID>
76504

> <DSSTox_GSID>
22138

> <DSSTox_FileID_Sort>
1188

> <TS_ChemName>
(E)-3-Hexen-1-ol

> <TS_ChemName_Synonyms>
(E)-3-Hexen-1-ol (trans-3-hexen-1-ol)

> <TS_CASRN>
928-97-2

> <CASRN_ChemName_Relationship>
primary

> <TS_Description>
single chemical compound

> <ChemNote>
stereochem; same 2D structure cis isomer [928-96-1]

> <STRUCTURE_Shown>
tested chemical

> <STRUCTURE_Formula>
C6H12O

> <STRUCTURE_MW>
100.1589

> <STRUCTURE_ChemType>
defined organic

> <STRUCTURE_DefinedOrganicForm>
parent

> <STRUCTURE_IUPAC>
(3E)-hex-3-en-1-ol

> <STRUCTURE_SMILES>
CC\C=C\CCO

> <STRUCTURE_SMILES_Desalt>
CC\C=C\CCO

> <Substance_modify_yyyymmdd>
20080429

$$$$
