93-46-9
ChemmineR-0914142331XD

 28 32  0  0  0  0  0  0  0  0  1 V2000
    3.4575   -1.9907    0.0000 C   0  0  0  0  0  0  0  0  0  0  0  0
    2.3050   -2.6642    0.0000 C   0  0  0  0  0  0  0  0  0  0  0  0
    2.3050   -3.9963    0.0000 C   0  0  0  0  0  0  0  0  0  0  0  0
    3.4575   -4.6548    0.0000 C   0  0  0  0  0  0  0  0  0  0  0  0
    4.6099   -3.9963    0.0000 C   0  0  0  0  0  0  0  0  0  0  0  0
    4.6099   -2.6642    0.0000 C   0  0  0  0  0  0  0  0  0  0  0  0
    5.7624   -1.9907    0.0000 N   0  0  0  0  0  0  0  0  0  0  0  0
    6.9149   -2.6642    0.0000 C   0  0  0  0  0  0  0  0  0  0  0  0
    8.0524   -1.9907    0.0000 C   0  0  0  0  0  0  0  0  0  0  0  0
    9.2049   -2.6642    0.0000 C   0  0  0  0  0  0  0  0  0  0  0  0
    9.2049   -3.9963    0.0000 C   0  0  0  0  0  0  0  0  0  0  0  0
    8.0524   -4.6548    0.0000 C   0  0  0  0  0  0  0  0  0  0  0  0
    6.9149   -3.9963    0.0000 C   0  0  0  0  0  0  0  0  0  0  0  0
   10.3574   -4.6548    0.0000 N   0  0  0  0  0  0  0  0  0  0  0  0
   11.5099   -3.9963    0.0000 C   0  0  0  0  0  0  0  0  0  0  0  0
   12.6624   -4.6548    0.0000 C   0  0  0  0  0  0  0  0  0  0  0  0
   13.8148   -3.9963    0.0000 C   0  0  0  0  0  0  0  0  0  0  0  0
   13.8148   -2.6642    0.0000 C   0  0  0  0  0  0  0  0  0  0  0  0
   12.6624   -1.9907    0.0000 C   0  0  0  0  0  0  0  0  0  0  0  0
   11.5099   -2.6642    0.0000 C   0  0  0  0  0  0  0  0  0  0  0  0
   12.6624   -0.6735    0.0000 C   0  0  0  0  0  0  0  0  0  0  0  0
   13.8148    0.0000    0.0000 C   0  0  0  0  0  0  0  0  0  0  0  0
   14.9673   -0.6735    0.0000 C   0  0  0  0  0  0  0  0  0  0  0  0
   14.9673   -1.9907    0.0000 C   0  0  0  0  0  0  0  0  0  0  0  0
    1.1525   -4.6548    0.0000 C   0  0  0  0  0  0  0  0  0  0  0  0
    0.0000   -3.9963    0.0000 C   0  0  0  0  0  0  0  0  0  0  0  0
    0.0000   -2.6642    0.0000 C   0  0  0  0  0  0  0  0  0  0  0  0
    1.1525   -1.9907    0.0000 C   0  0  0  0  0  0  0  0  0  0  0  0
  1  2  2  0  0  0  0
  1  6  1  0  0  0  0
  2  3  1  0  0  0  0
  2 28  1  0  0  0  0
  3  4  2  0  0  0  0
  3 25  1  0  0  0  0
  4  5  1  0  0  0  0
  5  6  2  0  0  0  0
  6  7  1  0  0  0  0
  7  8  1  0  0  0  0
  8  9  2  0  0  0  0
  8 13  1  0  0  0  0
  9 10  1  0  0  0  0
 10 11  2  0  0  0  0
 11 12  1  0  0  0  0
 11 14  1  0  0  0  0
 12 13  2  0  0  0  0
 14 15  1  0  0  0  0
 15 16  2  0  0  0  0
 15 20  1  0  0  0  0
 16 17  1  0  0  0  0
 17 18  2  0  0  0  0
 18 19  1  0  0  0  0
 18 24  1  0  0  0  0
 19 20  2  0  0  0  0
 19 21  1  0  0  0  0
 21 22  2  0  0  0  0
 22 23  1  0  0  0  0
 23 24  2  0  0  0  0
 25 26  2  0  0  0  0
 26 27  1  0  0  0  0
 27 28  2  0  0  0  0
M  END
> <ID>
884

> <Formula>
C26H20N2

> <FW>
360.4504

> <DSSTox_CID>
918

> <DSSTox_RID>
75865

> <DSSTox_GSID>
20918

> <DSSTox_FileID_Sort>
549

> <TS_ChemName>
N,N'-Di-2-naphthyl-p-phenylenediamine

> <TS_ChemName_Synonyms>
N,N'-Di-2-napthyl-p-phenylenediamine (sym.-dibeta-Naphthyl-p-phenylenediamine)

> <TS_CASRN>
93-46-9

> <CASRN_ChemName_Relationship>
primary

> <TS_Description>
single chemical compound

> <ChemNote>


> <STRUCTURE_Shown>
tested chemical

> <STRUCTURE_Formula>
C26H20N2

> <STRUCTURE_MW>
360.4504

> <STRUCTURE_ChemType>
defined organic

> <STRUCTURE_DefinedOrganicForm>
parent

> <STRUCTURE_IUPAC>
N,N'-di(naphthalen-2-yl)benzene-1,4-diamine

> <STRUCTURE_SMILES>
c1cc5ccccc5cc1Nc2ccc(cc2)Nc3cc4ccccc4cc3

> <STRUCTURE_SMILES_Desalt>
c1cc5ccccc5cc1Nc2ccc(cc2)Nc3cc4ccccc4cc3

> <Substance_modify_yyyymmdd>
20080429

$$$$
