93957-54-1
ChemmineR-0914142331XD

 30 32  0  0  1  0  0  0  0  0  1 V2000
    0.0000   -1.1558    0.0000 O   0  0  0  0  0  0  0  0  0  0  0  0
    1.3319   -1.1558    0.0000 C   0  0  0  0  0  0  0  0  0  0  0  0
    1.9924   -2.3006    0.0000 C   0  0  0  0  0  0  0  0  0  0  0  0
    3.3244   -2.3006    0.0000 C   0  0  0  0  0  0  0  0  0  0  0  0
    3.9848   -3.4565    0.0000 C   0  0  0  0  0  0  0  0  0  0  0  0
    5.3168   -3.4565    0.0000 C   0  0  0  0  0  0  0  0  0  0  0  0
    5.9883   -4.6013    0.0000 C   0  0  0  0  0  0  0  0  0  0  0  0
    5.3168   -5.7571    0.0000 C   0  0  0  0  0  0  0  0  0  0  0  0
    5.9883   -6.9129    0.0000 C   0  0  0  0  0  0  0  0  0  0  0  0
    5.4379   -8.1238    0.0000 C   0  0  0  0  0  0  0  0  0  0  0  0
    6.4286   -9.0154    0.0000 C   0  0  0  0  0  0  0  0  0  0  0  0
    7.5844   -8.3439    0.0000 C   0  0  0  0  0  0  0  0  0  0  0  0
    7.3092   -7.0450    0.0000 N   0  0  0  0  0  0  0  0  0  0  0  0
    8.2008   -6.0653    0.0000 C   0  0  0  0  0  0  0  0  0  0  0  0
    9.4998   -6.3405    0.0000 C   0  0  0  0  0  0  0  0  0  0  0  0
    7.7825   -4.7994    0.0000 C   0  0  0  0  0  0  0  0  0  0  0  0
    8.7292   -9.0154    0.0000 C   0  0  0  0  0  0  0  0  0  0  0  0
    8.7292  -10.3474    0.0000 C   0  0  0  0  0  0  0  0  0  0  0  0
    7.5844  -11.0078    0.0000 C   0  0  0  0  0  0  0  0  0  0  0  0
    6.4286  -10.3474    0.0000 C   0  0  0  0  0  0  0  0  0  0  0  0
    4.1390   -8.3990    0.0000 C   0  0  0  0  0  0  0  0  0  0  0  0
    3.7317   -9.6649    0.0000 C   0  0  0  0  0  0  0  0  0  0  0  0
    2.4327   -9.9401    0.0000 C   0  0  0  0  0  0  0  0  0  0  0  0
    1.5411   -8.9494    0.0000 C   0  0  0  0  0  0  0  0  0  0  0  0
    1.9484   -7.6835    0.0000 C   0  0  0  0  0  0  0  0  0  0  0  0
    3.2473   -7.4083    0.0000 C   0  0  0  0  0  0  0  0  0  0  0  0
    0.2422   -9.2246    0.0000 F   0  0  0  0  0  0  0  0  0  0  0  0
    5.9883   -2.3006    0.0000 O   0  0  0  0  0  0  0  0  0  0  0  0
    3.9848   -1.1558    0.0000 O   0  0  0  0  0  0  0  0  0  0  0  0
    1.9924    0.0000    0.0000 O   0  0  0  0  0  0  0  0  0  0  0  0
  1  2  2  0  0  0  0
  2  3  1  0  0  0  0
  2 30  1  0  0  0  0
  3  4  1  0  0  0  0
  4  5  1  0  0  0  0
  4 29  1  6  0  0  0
  5  6  1  0  0  0  0
  6  7  1  0  0  0  0
  6 28  1  6  0  0  0
  7  8  2  0  0  0  0
  8  9  1  0  0  0  0
  9 10  2  0  0  0  0
  9 13  1  0  0  0  0
 10 11  1  0  0  0  0
 10 21  1  0  0  0  0
 11 12  2  0  0  0  0
 11 20  1  0  0  0  0
 12 13  1  0  0  0  0
 12 17  1  0  0  0  0
 13 14  1  0  0  0  0
 14 15  1  0  0  0  0
 14 16  1  0  0  0  0
 17 18  2  0  0  0  0
 18 19  1  0  0  0  0
 19 20  2  0  0  0  0
 21 22  2  0  0  0  0
 21 26  1  0  0  0  0
 22 23  1  0  0  0  0
 23 24  2  0  0  0  0
 24 25  1  0  0  0  0
 24 27  1  0  0  0  0
 25 26  2  0  0  0  0
M  END
> <ID>
611

> <Formula>
C24H26FNO4

> <FW>
411.4659

> <DSSTox_CID>
636

> <DSSTox_RID>
75707

> <DSSTox_GSID>
20636

> <DSSTox_FileID_Sort>
391

> <TS_ChemName>
Fluvastatin

> <TS_ChemName_Synonyms>


> <TS_CASRN>
93957-54-1

> <CASRN_ChemName_Relationship>
primary

> <TS_Description>
single chemical compound

> <ChemNote>
relative stereochem

> <STRUCTURE_Shown>
tested chemical

> <STRUCTURE_Formula>
C24H26FNO4

> <STRUCTURE_MW>
411.4659

> <STRUCTURE_ChemType>
defined organic

> <STRUCTURE_DefinedOrganicForm>
parent

> <STRUCTURE_IUPAC>
(3R,5S,6E)-7-[3-(4-fluorophenyl)-1-(propan-2-yl)-1H-indol-2-yl]-3,5-dihydroxyhept-6-enoic acid

> <STRUCTURE_SMILES>
O=C(O)C[C@H](O)C[C@H](O)/C=C/c2c(c1ccccc1n2C(C)C)c3ccc(F)cc3

> <STRUCTURE_SMILES_Desalt>
O=C(O)C[C@H](O)C[C@H](O)/C=C/c2c(c1ccccc1n2C(C)C)c3ccc(F)cc3

> <Substance_modify_yyyymmdd>
20080429

$$$$
