94-09-7
ChemmineR-0914142331XD

 12 12  0  0  0  0  0  0  0  0  1 V2000
    3.3259   -3.4535    0.0000 C   0  0  0  0  0  0  0  0  0  0  0  0
    1.9939   -3.4535    0.0000 C   0  0  0  0  0  0  0  0  0  0  0  0
    1.3320   -2.3050    0.0000 C   0  0  0  0  0  0  0  0  0  0  0  0
    0.0000   -2.3050    0.0000 N   0  0  0  0  0  0  0  0  0  0  0  0
    1.9939   -1.1485    0.0000 C   0  0  0  0  0  0  0  0  0  0  0  0
    3.3259   -1.1485    0.0000 C   0  0  0  0  0  0  0  0  0  0  0  0
    3.9879   -2.3050    0.0000 C   0  0  0  0  0  0  0  0  0  0  0  0
    5.3199   -2.3050    0.0000 C   0  0  0  0  0  0  0  0  0  0  0  0
    5.9818   -3.4535    0.0000 O   0  0  0  0  0  0  0  0  0  0  0  0
    5.9818   -1.1485    0.0000 O   0  0  0  0  0  0  0  0  0  0  0  0
    7.3138   -1.1485    0.0000 C   0  0  0  0  0  0  0  0  0  0  0  0
    7.9758    0.0000    0.0000 C   0  0  0  0  0  0  0  0  0  0  0  0
  1  2  2  0  0  0  0
  1  7  1  0  0  0  0
  2  3  1  0  0  0  0
  3  4  1  0  0  0  0
  3  5  2  0  0  0  0
  5  6  1  0  0  0  0
  6  7  2  0  0  0  0
  7  8  1  0  0  0  0
  8  9  2  0  0  0  0
  8 10  1  0  0  0  0
 10 11  1  0  0  0  0
 11 12  1  0  0  0  0
M  END
> <ID>
1702

> <Formula>
C9H11NO2

> <FW>
165.1891

> <DSSTox_CID>
1804

> <DSSTox_RID>
76338

> <DSSTox_GSID>
21804

> <DSSTox_FileID_Sort>
1022

> <TS_ChemName>
Ethyl 4-aminobenzoate

> <TS_ChemName_Synonyms>
Ethyl 4-aminobenzoate (Benzocaine)

> <TS_CASRN>
94-09-7

> <CASRN_ChemName_Relationship>
primary

> <TS_Description>
single chemical compound

> <ChemNote>


> <STRUCTURE_Shown>
tested chemical

> <STRUCTURE_Formula>
C9H11NO2

> <STRUCTURE_MW>
165.1891

> <STRUCTURE_ChemType>
defined organic

> <STRUCTURE_DefinedOrganicForm>
parent

> <STRUCTURE_IUPAC>
ethyl 4-aminobenzoate

> <STRUCTURE_SMILES>
Nc1ccc(cc1)C(=O)OCC

> <STRUCTURE_SMILES_Desalt>
Nc1ccc(cc1)C(=O)OCC

> <Substance_modify_yyyymmdd>
20080429

$$$$
