94-11-1
ChemmineR-0914142331XD

 16 16  0  0  0  0  0  0  0  0  1 V2000
    6.9177   -1.3399    0.0000 C    0  0  0  0  0  0  0  0  0  0  0  0
    6.9177    0.0000    0.0000 O    0  0  0  0  0  0  0  0  0  0  0  0
    8.0810   -1.9943    0.0000 O    0  0  0  0  0  0  0  0  0  0  0  0
    5.7751   -1.9943    0.0000 C    0  0  0  0  0  0  0  0  0  0  0  0
    4.6014   -1.3399    0.0000 O    0  0  0  0  0  0  0  0  0  0  0  0
    3.4692   -1.9943    0.0000 C    0  0  0  0  0  0  0  0  0  0  0  0
    3.4692   -3.3238    0.0000 C    0  0  0  0  0  0  0  0  0  0  0  0
    2.3059   -1.3399    0.0000 C    0  0  0  0  0  0  0  0  0  0  0  0
    2.3059   -3.9989    0.0000 C    0  0  0  0  0  0  0  0  0  0  0  0
    1.1633   -1.9943    0.0000 C    0  0  0  0  0  0  0  0  0  0  0  0
    1.1633   -3.3238    0.0000 C    0  0  0  0  0  0  0  0  0  0  0  0
    4.6014   -3.9989    0.0000 Cl   0  0  0  0  0  0  0  0  0  0  0  0
    0.0000   -3.9989    0.0000 Cl   0  0  0  0  0  0  0  0  0  0  0  0
    9.2443   -1.3399    0.0000 C    0  0  0  0  0  0  0  0  0  0  0  0
   10.3869   -1.9943    0.0000 C    0  0  0  0  0  0  0  0  0  0  0  0
    9.2443    0.0000    0.0000 C    0  0  0  0  0  0  0  0  0  0  0  0
  1  2  2  0  0  0  0
  1  3  1  0  0  0  0
  1  4  1  0  0  0  0
  3 14  1  0  0  0  0
  4  5  1  0  0  0  0
  5  6  1  0  0  0  0
  6  7  2  0  0  0  0
  6  8  1  0  0  0  0
  7  9  1  0  0  0  0
  7 12  1  0  0  0  0
  8 10  2  0  0  0  0
  9 11  2  0  0  0  0
 10 11  1  0  0  0  0
 11 13  1  0  0  0  0
 14 15  1  0  0  0  0
 14 16  1  0  0  0  0
M  END
> <ID>
429

> <Formula>
C11H12Cl2O3

> <FW>
263.1172

> <DSSTox_CID>
445

> <DSSTox_RID>
75594

> <DSSTox_GSID>
20445

> <DSSTox_FileID_Sort>
278

> <TS_ChemName>
Isopropyl (2,4-dichlorophenoxy)acetate

> <TS_ChemName_Synonyms>
Isopropyl (2,4-dichlorophenoxy)acetate (2,4-Dichlorophenoxyacetic acid, isopropyl ester) (2,4-D Isopropyl Ester)

> <TS_CASRN>
94-11-1

> <CASRN_ChemName_Relationship>
primary

> <TS_Description>
single chemical compound

> <ChemNote>


> <STRUCTURE_Shown>
tested chemical

> <STRUCTURE_Formula>
C11H12Cl2O3

> <STRUCTURE_MW>
263.1172

> <STRUCTURE_ChemType>
defined organic

> <STRUCTURE_DefinedOrganicForm>
parent

> <STRUCTURE_IUPAC>
propan-2-yl (2,4-dichlorophenoxy)acetate

> <STRUCTURE_SMILES>
Clc1cc(Cl)ccc1OCC(=O)OC(C)C

> <STRUCTURE_SMILES_Desalt>
Clc1cc(Cl)ccc1OCC(=O)OC(C)C

> <Substance_modify_yyyymmdd>
20080429

$$$$
