94-14-4
ChemmineR-0914142331XD

 14 14  0  0  0  0  0  0  0  0  1 V2000
    1.1511   -1.9890    0.0000 C   0  0  0  0  0  0  0  0  0  0  0  0
    1.1511   -0.6630    0.0000 C   0  0  0  0  0  0  0  0  0  0  0  0
    0.0000    0.0000    0.0000 N   0  0  0  0  0  0  0  0  0  0  0  0
    2.3021    0.0000    0.0000 C   0  0  0  0  0  0  0  0  0  0  0  0
    3.4532   -0.6630    0.0000 C   0  0  0  0  0  0  0  0  0  0  0  0
    3.4532   -1.9890    0.0000 C   0  0  0  0  0  0  0  0  0  0  0  0
    4.6043   -2.6613    0.0000 C   0  0  0  0  0  0  0  0  0  0  0  0
    4.6043   -3.9873    0.0000 O   0  0  0  0  0  0  0  0  0  0  0  0
    5.7553   -1.9890    0.0000 O   0  0  0  0  0  0  0  0  0  0  0  0
    6.9064   -2.6613    0.0000 C   0  0  0  0  0  0  0  0  0  0  0  0
    8.0574   -1.9890    0.0000 C   0  0  0  0  0  0  0  0  0  0  0  0
    8.0574   -0.6630    0.0000 C   0  0  0  0  0  0  0  0  0  0  0  0
    9.2085   -2.6613    0.0000 C   0  0  0  0  0  0  0  0  0  0  0  0
    2.3021   -2.6613    0.0000 C   0  0  0  0  0  0  0  0  0  0  0  0
  1  2  2  0  0  0  0
  1 14  1  0  0  0  0
  2  3  1  0  0  0  0
  2  4  1  0  0  0  0
  4  5  2  0  0  0  0
  5  6  1  0  0  0  0
  6  7  1  0  0  0  0
  6 14  2  0  0  0  0
  7  8  2  0  0  0  0
  7  9  1  0  0  0  0
  9 10  1  0  0  0  0
 10 11  1  0  0  0  0
 11 12  1  0  0  0  0
 11 13  1  0  0  0  0
M  END
> <ID>
2847

> <Formula>
C11H15NO2

> <FW>
193.2423

> <DSSTox_CID>
3170

> <DSSTox_RID>
76901

> <DSSTox_GSID>
23170

> <DSSTox_FileID_Sort>
1585

> <TS_ChemName>
Isocaine

> <TS_ChemName_Synonyms>


> <TS_CASRN>
94-14-4

> <CASRN_ChemName_Relationship>
primary

> <TS_Description>
single chemical compound

> <ChemNote>


> <STRUCTURE_Shown>
tested chemical

> <STRUCTURE_Formula>
C11H15NO2

> <STRUCTURE_MW>
193.2423

> <STRUCTURE_ChemType>
defined organic

> <STRUCTURE_DefinedOrganicForm>
parent

> <STRUCTURE_IUPAC>
2-methylpropyl 4-aminobenzoate

> <STRUCTURE_SMILES>
Nc1ccc(cc1)C(=O)OCC(C)C

> <STRUCTURE_SMILES_Desalt>
Nc1ccc(cc1)C(=O)OCC(C)C

> <Substance_modify_yyyymmdd>
20080429

$$$$
