94-13-3
ChemmineR-0914142331XD

 13 13  0  0  0  0  0  0  0  0  1 V2000
    5.3175   -2.3002    0.0000 C   0  0  0  0  0  0  0  0  0  0  0  0
    3.9951   -2.3002    0.0000 C   0  0  0  0  0  0  0  0  0  0  0  0
    3.3246   -3.4550    0.0000 C   0  0  0  0  0  0  0  0  0  0  0  0
    1.9929   -3.4550    0.0000 C   0  0  0  0  0  0  0  0  0  0  0  0
    1.3317   -2.3002    0.0000 C   0  0  0  0  0  0  0  0  0  0  0  0
    1.9929   -1.1548    0.0000 C   0  0  0  0  0  0  0  0  0  0  0  0
    3.3246   -1.1548    0.0000 C   0  0  0  0  0  0  0  0  0  0  0  0
    0.0000   -2.3002    0.0000 O   0  0  0  0  0  0  0  0  0  0  0  0
    5.9880   -3.4550    0.0000 O   0  0  0  0  0  0  0  0  0  0  0  0
    5.9880   -1.1548    0.0000 O   0  0  0  0  0  0  0  0  0  0  0  0
    7.3197   -1.1548    0.0000 C   0  0  0  0  0  0  0  0  0  0  0  0
    7.9809    0.0000    0.0000 C   0  0  0  0  0  0  0  0  0  0  0  0
    9.3126    0.0000    0.0000 C   0  0  0  0  0  0  0  0  0  0  0  0
  1  2  1  0  0  0  0
  1  9  2  0  0  0  0
  1 10  1  0  0  0  0
  2  3  2  0  0  0  0
  2  7  1  0  0  0  0
  3  4  1  0  0  0  0
  4  5  2  0  0  0  0
  5  6  1  0  0  0  0
  5  8  1  0  0  0  0
  6  7  2  0  0  0  0
 10 11  1  0  0  0  0
 11 12  1  0  0  0  0
 12 13  1  0  0  0  0
M  END
> <ID>
2294

> <Formula>
C10H12O3

> <FW>
180.2005

> <DSSTox_CID>
2527

> <DSSTox_RID>
76614

> <DSSTox_GSID>
22527

> <DSSTox_FileID_Sort>
1298

> <TS_ChemName>
Propylparaben

> <TS_ChemName_Synonyms>
Propylparaben (Propyl-4-hydroxybenzoate)

> <TS_CASRN>
94-13-3

> <CASRN_ChemName_Relationship>
primary

> <TS_Description>
single chemical compound

> <ChemNote>


> <STRUCTURE_Shown>
tested chemical

> <STRUCTURE_Formula>
C10H12O3

> <STRUCTURE_MW>
180.2005

> <STRUCTURE_ChemType>
defined organic

> <STRUCTURE_DefinedOrganicForm>
parent

> <STRUCTURE_IUPAC>
propyl 4-hydroxybenzoate

> <STRUCTURE_SMILES>
Oc1ccc(cc1)C(=O)OCCC

> <STRUCTURE_SMILES_Desalt>
Oc1ccc(cc1)C(=O)OCCC

> <Substance_modify_yyyymmdd>
20080429

$$$$
