94-59-7
ChemmineR-0914142331XD

 12 13  0  0  0  0  0  0  0  0  1 V2000
    0.0000   -2.6625    0.0000 C   0  0  0  0  0  0  0  0  0  0  0  0
    1.1556   -1.9988    0.0000 C   0  0  0  0  0  0  0  0  0  0  0  0
    2.3033   -2.6625    0.0000 C   0  0  0  0  0  0  0  0  0  0  0  0
    3.4589   -1.9988    0.0000 C   0  0  0  0  0  0  0  0  0  0  0  0
    3.4589   -0.6637    0.0000 C   0  0  0  0  0  0  0  0  0  0  0  0
    4.6067    0.0000    0.0000 C   0  0  0  0  0  0  0  0  0  0  0  0
    5.7622   -0.6637    0.0000 C   0  0  0  0  0  0  0  0  0  0  0  0
    5.7622   -1.9988    0.0000 C   0  0  0  0  0  0  0  0  0  0  0  0
    4.6067   -2.6625    0.0000 C   0  0  0  0  0  0  0  0  0  0  0  0
    7.0271   -2.4048    0.0000 O   0  0  0  0  0  0  0  0  0  0  0  0
    7.8079   -1.3351    0.0000 C   0  0  0  0  0  0  0  0  0  0  0  0
    7.0271   -0.2577    0.0000 O   0  0  0  0  0  0  0  0  0  0  0  0
  1  2  2  0  0  0  0
  2  3  1  0  0  0  0
  3  4  1  0  0  0  0
  4  5  2  0  0  0  0
  4  9  1  0  0  0  0
  5  6  1  0  0  0  0
  6  7  2  0  0  0  0
  7  8  1  0  0  0  0
  7 12  1  0  0  0  0
  8  9  2  0  0  0  0
  8 10  1  0  0  0  0
 10 11  1  0  0  0  0
 11 12  1  0  0  0  0
M  END
> <ID>
1206

> <Formula>
C10H10O2

> <FW>
162.1852

> <DSSTox_CID>
1254

> <DSSTox_RID>
76041

> <DSSTox_GSID>
21254

> <DSSTox_FileID_Sort>
725

> <TS_ChemName>
Safrole

> <TS_ChemName_Synonyms>


> <TS_CASRN>
94-59-7

> <CASRN_ChemName_Relationship>
primary

> <TS_Description>
single chemical compound

> <ChemNote>


> <STRUCTURE_Shown>
tested chemical

> <STRUCTURE_Formula>
C10H10O2

> <STRUCTURE_MW>
162.1852

> <STRUCTURE_ChemType>
defined organic

> <STRUCTURE_DefinedOrganicForm>
parent

> <STRUCTURE_IUPAC>
5-(prop-2-en-1-yl)-1,3-benzodioxole

> <STRUCTURE_SMILES>
C=CCc1ccc2OCOc2c1

> <STRUCTURE_SMILES_Desalt>
C=CCc1ccc2OCOc2c1

> <Substance_modify_yyyymmdd>
20080429

$$$$
