94-75-7
ChemmineR-0914142331XD

 13 13  0  0  0  0  0  0  0  0  1 V2000
    6.9166   -1.3348    0.0000 C    0  0  0  0  0  0  0  0  0  0  0  0
    6.9166    0.0000    0.0000 O    0  0  0  0  0  0  0  0  0  0  0  0
    8.0896   -1.9900    0.0000 O    0  0  0  0  0  0  0  0  0  0  0  0
    5.7760   -1.9900    0.0000 C    0  0  0  0  0  0  0  0  0  0  0  0
    4.5868   -1.3348    0.0000 O    0  0  0  0  0  0  0  0  0  0  0  0
    3.4704   -1.9900    0.0000 C    0  0  0  0  0  0  0  0  0  0  0  0
    3.4704   -3.3248    0.0000 C    0  0  0  0  0  0  0  0  0  0  0  0
    2.3136   -1.3348    0.0000 C    0  0  0  0  0  0  0  0  0  0  0  0
    2.3136   -3.9963    0.0000 C    0  0  0  0  0  0  0  0  0  0  0  0
    1.1568   -1.9900    0.0000 C    0  0  0  0  0  0  0  0  0  0  0  0
    1.1568   -3.3248    0.0000 C    0  0  0  0  0  0  0  0  0  0  0  0
    4.5868   -3.9963    0.0000 Cl   0  0  0  0  0  0  0  0  0  0  0  0
    0.0000   -3.9963    0.0000 Cl   0  0  0  0  0  0  0  0  0  0  0  0
  1  2  2  0  0  0  0
  1  3  1  0  0  0  0
  1  4  1  0  0  0  0
  4  5  1  0  0  0  0
  5  6  1  0  0  0  0
  6  7  2  0  0  0  0
  6  8  1  0  0  0  0
  7  9  1  0  0  0  0
  7 12  1  0  0  0  0
  8 10  2  0  0  0  0
  9 11  2  0  0  0  0
 10 11  1  0  0  0  0
 11 13  1  0  0  0  0
M  END
> <ID>
426

> <Formula>
C8H6Cl2O3

> <FW>
221.0374

> <DSSTox_CID>
442

> <DSSTox_RID>
75591

> <DSSTox_GSID>
20442

> <DSSTox_FileID_Sort>
275

> <TS_ChemName>
2,4-Dichlorophenoxyacetic acid

> <TS_ChemName_Synonyms>
2,4-Dichlorophenoxyacetic acid (2,4-D) (Acetic acid, (2,4-dichlorophenoxy)-)

> <TS_CASRN>
94-75-7

> <CASRN_ChemName_Relationship>
primary

> <TS_Description>
single chemical compound

> <ChemNote>


> <STRUCTURE_Shown>
tested chemical

> <STRUCTURE_Formula>
C8H6Cl2O3

> <STRUCTURE_MW>
221.0374

> <STRUCTURE_ChemType>
defined organic

> <STRUCTURE_DefinedOrganicForm>
parent

> <STRUCTURE_IUPAC>
(2,4-dichlorophenoxy)acetic acid

> <STRUCTURE_SMILES>
Clc1cc(Cl)ccc1OCC(=O)O

> <STRUCTURE_SMILES_Desalt>
Clc1cc(Cl)ccc1OCC(=O)O

> <Substance_modify_yyyymmdd>
20080429

$$$$
