943-41-9
ChemmineR-0914142331XD

 13 13  0  0  0  0  0  0  0  0  2 V2000
    1.3318    0.0000    0.0000 C   0  0  0  0  0  0  0  0  0  0  0  0
    1.9937   -1.1563    0.0000 N   0  0  0  0  0  0  0  0  0  0  0  0
    1.3318   -2.3047    0.0000 N   0  0  0  0  0  0  0  0  0  0  0  0
    0.0000   -2.3047    0.0000 O   0  0  0  0  0  0  0  0  0  0  0  0
    3.3254   -1.1563    0.0000 C   0  0  0  0  0  0  0  0  0  0  0  0
    3.9873    0.0000    0.0000 C   0  0  0  0  0  0  0  0  0  0  0  0
    5.3191    0.0000    0.0000 C   0  0  0  0  0  0  0  0  0  0  0  0
    5.9810   -1.1563    0.0000 C   0  0  0  0  0  0  0  0  0  0  0  0
    5.3191   -2.3047    0.0000 C   0  0  0  0  0  0  0  0  0  0  0  0
    3.9873   -2.3047    0.0000 C   0  0  0  0  0  0  0  0  0  0  0  0
    7.3127   -1.1563    0.0000 N   0  3  0  0  0  0  0  0  0  0  0  0
    7.9746    0.0000    0.0000 O   0  5  0  0  0  0  0  0  0  0  0  0
    7.9746   -2.3047    0.0000 O   0  0  0  0  0  0  0  0  0  0  0  0
  1  2  1  0  0  0  0
  2  3  1  0  0  0  0
  2  5  1  0  0  0  0
  3  4  2  0  0  0  0
  5  6  2  0  0  0  0
  5 10  1  0  0  0  0
  6  7  1  0  0  0  0
  7  8  2  0  0  0  0
  8  9  1  0  0  0  0
  8 11  1  0  0  0  0
  9 10  2  0  0  0  0
 11 12  1  0  0  0  0
 11 13  2  0  0  0  0
M  END
> <ID>
966

> <Formula>
C7H7N3O3

> <FW>
181.1488

> <DSSTox_CID>
1002

> <DSSTox_RID>
75908

> <DSSTox_GSID>
21002

> <DSSTox_FileID_Sort>
592

> <TS_ChemName>
N-Nitroso-N-methyl-4-nitroaniline

> <TS_ChemName_Synonyms>


> <TS_CASRN>
943-41-9

> <CASRN_ChemName_Relationship>
primary

> <TS_Description>
single chemical compound

> <ChemNote>


> <STRUCTURE_Shown>
tested chemical

> <STRUCTURE_Formula>
C7H7N3O3

> <STRUCTURE_MW>
181.1488

> <STRUCTURE_ChemType>
defined organic

> <STRUCTURE_DefinedOrganicForm>
parent

> <STRUCTURE_IUPAC>
N-methyl-4-nitro-N-nitrosoaniline

> <STRUCTURE_SMILES>
O=NN(C)c1ccc(cc1)[N+]([O-])=O

> <STRUCTURE_SMILES_Desalt>
O=NN(C)c1ccc(cc1)[N+]([O-])=O

> <Substance_modify_yyyymmdd>
20080429

$$$$
