95-33-0
ChemmineR-0914142331XD

 17 19  0  0  0  0  0  0  0  0  1 V2000
    3.5644   -2.4073    0.0000 N   0  0  0  0  0  0  0  0  0  0  0  0
    4.3496   -1.3328    0.0000 C   0  0  0  0  0  0  0  0  0  0  0  0
    5.6824   -1.3328    0.0000 S   0  0  0  0  0  0  0  0  0  0  0  0
    6.3436   -2.4899    0.0000 N   0  0  0  0  0  0  0  0  0  0  0  0
    7.6764   -2.4899    0.0000 C   0  0  0  0  0  0  0  0  0  0  0  0
    8.3376   -1.3328    0.0000 C   0  0  0  0  0  0  0  0  0  0  0  0
    9.6704   -1.3328    0.0000 C   0  0  0  0  0  0  0  0  0  0  0  0
   10.3316   -2.4899    0.0000 C   0  0  0  0  0  0  0  0  0  0  0  0
    9.6704   -3.6367    0.0000 C   0  0  0  0  0  0  0  0  0  0  0  0
    8.3376   -3.6367    0.0000 C   0  0  0  0  0  0  0  0  0  0  0  0
    3.5644   -0.2583    0.0000 S   0  0  0  0  0  0  0  0  0  0  0  0
    2.3039   -0.6716    0.0000 C   0  0  0  0  0  0  0  0  0  0  0  0
    2.3039   -1.9940    0.0000 C   0  0  0  0  0  0  0  0  0  0  0  0
    1.1468   -2.6655    0.0000 C   0  0  0  0  0  0  0  0  0  0  0  0
    0.0000   -1.9940    0.0000 C   0  0  0  0  0  0  0  0  0  0  0  0
    0.0000   -0.6716    0.0000 C   0  0  0  0  0  0  0  0  0  0  0  0
    1.1468    0.0000    0.0000 C   0  0  0  0  0  0  0  0  0  0  0  0
  1  2  2  0  0  0  0
  1 13  1  0  0  0  0
  2  3  1  0  0  0  0
  2 11  1  0  0  0  0
  3  4  1  0  0  0  0
  4  5  1  0  0  0  0
  5  6  1  0  0  0  0
  5 10  1  0  0  0  0
  6  7  1  0  0  0  0
  7  8  1  0  0  0  0
  8  9  1  0  0  0  0
  9 10  1  0  0  0  0
 11 12  1  0  0  0  0
 12 13  2  0  0  0  0
 12 17  1  0  0  0  0
 13 14  1  0  0  0  0
 14 15  2  0  0  0  0
 15 16  1  0  0  0  0
 16 17  2  0  0  0  0
M  END
> <ID>
350

> <Formula>
C13H16N2S2

> <FW>
264.4095

> <DSSTox_CID>
360

> <DSSTox_RID>
75538

> <DSSTox_GSID>
20360

> <DSSTox_FileID_Sort>
222

> <TS_ChemName>
N-Cyclohexyl-2-benzothiazolesulfenamide

> <TS_ChemName_Synonyms>
N-Cyclohexyl-2-benzothiazolesulfenamide (2-Benzothiazolesulfenamide, N-cyclohexyl-

> <TS_CASRN>
95-33-0

> <CASRN_ChemName_Relationship>
primary

> <TS_Description>
single chemical compound

> <ChemNote>


> <STRUCTURE_Shown>
tested chemical

> <STRUCTURE_Formula>
C13H16N2S2

> <STRUCTURE_MW>
264.4095

> <STRUCTURE_ChemType>
defined organic

> <STRUCTURE_DefinedOrganicForm>
parent

> <STRUCTURE_IUPAC>
N-(1,3-benzothiazol-2-ylsulfanyl)cyclohexanamine

> <STRUCTURE_SMILES>
c1cccc2sc(nc12)SNC3CCCCC3

> <STRUCTURE_SMILES_Desalt>
c1cccc2sc(nc12)SNC3CCCCC3

> <Substance_modify_yyyymmdd>
20080429

$$$$
