95-74-9
ChemmineR-0914142331XD

  9  9  0  0  0  0  0  0  0  0  1 V2000
    0.0000   -2.6589    0.0000 Cl   0  0  0  0  0  0  0  0  0  0  0  0
    1.1520   -1.9953    0.0000 C    0  0  0  0  0  0  0  0  0  0  0  0
    1.1520   -0.6636    0.0000 C    0  0  0  0  0  0  0  0  0  0  0  0
    2.3041    0.0000    0.0000 C    0  0  0  0  0  0  0  0  0  0  0  0
    3.4561   -0.6636    0.0000 C    0  0  0  0  0  0  0  0  0  0  0  0
    3.4561   -1.9953    0.0000 C    0  0  0  0  0  0  0  0  0  0  0  0
    2.3041   -2.6589    0.0000 C    0  0  0  0  0  0  0  0  0  0  0  0
    4.6082   -2.6589    0.0000 N    0  0  0  0  0  0  0  0  0  0  0  0
    0.0000    0.0000    0.0000 C    0  0  0  0  0  0  0  0  0  0  0  0
  1  2  1  0  0  0  0
  2  3  2  0  0  0  0
  2  7  1  0  0  0  0
  3  4  1  0  0  0  0
  3  9  1  0  0  0  0
  4  5  2  0  0  0  0
  5  6  1  0  0  0  0
  6  7  2  0  0  0  0
  6  8  1  0  0  0  0
M  END
> <ID>
277

> <Formula>
C7H8ClN

> <FW>
141.5981

> <DSSTox_CID>
286

> <DSSTox_RID>
75488

> <DSSTox_GSID>
20286

> <DSSTox_FileID_Sort>
172

> <TS_ChemName>
3-Chloro-4-methylaniline

> <TS_ChemName_Synonyms>
3-Chloro-4-methylaniline (3-Chloro-p-toluidine) (Benzenamine, 3-chloro-4-methyl-) (3-Chloro-4-methylbenzenamine)

> <TS_CASRN>
95-74-9

> <CASRN_ChemName_Relationship>
primary

> <TS_Description>
single chemical compound

> <ChemNote>


> <STRUCTURE_Shown>
tested chemical

> <STRUCTURE_Formula>
C7H8ClN

> <STRUCTURE_MW>
141.5981

> <STRUCTURE_ChemType>
defined organic

> <STRUCTURE_DefinedOrganicForm>
parent

> <STRUCTURE_IUPAC>
3-chloro-4-methylaniline

> <STRUCTURE_SMILES>
Nc1cc(Cl)c(C)cc1

> <STRUCTURE_SMILES_Desalt>
Nc1cc(Cl)c(C)cc1

> <Substance_modify_yyyymmdd>
20080429

$$$$
