950-37-8
ChemmineR-0914142331XD

 16 16  0  0  0  0  0  0  0  0  1 V2000
    7.6582   -3.9305    0.0000 S   0  0  0  0  0  0  0  0  0  0  0  0
    7.6582   -2.5978    0.0000 P   0  0  0  0  0  0  0  0  0  0  0  0
    6.3351   -2.5978    0.0000 S   0  0  0  0  0  0  0  0  0  0  0  0
    5.6688   -1.4486    0.0000 C   0  0  0  0  0  0  0  0  0  0  0  0
    4.3361   -1.4486    0.0000 N   0  0  0  0  0  0  0  0  0  0  0  0
    3.5539   -2.5205    0.0000 C   0  0  0  0  0  0  0  0  0  0  0  0
    3.9691   -3.7856    0.0000 O   0  0  0  0  0  0  0  0  0  0  0  0
    2.2888   -2.1149    0.0000 S   0  0  0  0  0  0  0  0  0  0  0  0
    2.2888   -0.7822    0.0000 C   0  0  0  0  0  0  0  0  0  0  0  0
    3.5539   -0.3766    0.0000 N   0  0  0  0  0  0  0  0  0  0  0  0
    1.2168    0.0000    0.0000 O   0  0  0  0  0  0  0  0  0  0  0  0
    0.0000   -0.5408    0.0000 C   0  0  0  0  0  0  0  0  0  0  0  0
    7.6582   -1.2748    0.0000 O   0  0  0  0  0  0  0  0  0  0  0  0
    8.8170   -0.6084    0.0000 C   0  0  0  0  0  0  0  0  0  0  0  0
    8.9909   -2.5978    0.0000 O   0  0  0  0  0  0  0  0  0  0  0  0
    9.6572   -3.7567    0.0000 C   0  0  0  0  0  0  0  0  0  0  0  0
  1  2  2  0  0  0  0
  2  3  1  0  0  0  0
  2 13  1  0  0  0  0
  2 15  1  0  0  0  0
  3  4  1  0  0  0  0
  4  5  1  0  0  0  0
  5  6  1  0  0  0  0
  5 10  1  0  0  0  0
  6  7  2  0  0  0  0
  6  8  1  0  0  0  0
  8  9  1  0  0  0  0
  9 10  2  0  0  0  0
  9 11  1  0  0  0  0
 11 12  1  0  0  0  0
 13 14  1  0  0  0  0
 15 16  1  0  0  0  0
M  END
> <ID>
785

> <Formula>
C6H11N2O4PS3

> <FW>
302.3313

> <DSSTox_CID>
819

> <DSSTox_RID>
75807

> <DSSTox_GSID>
20819

> <DSSTox_FileID_Sort>
491

> <TS_ChemName>
Methidathion

> <TS_ChemName_Synonyms>


> <TS_CASRN>
950-37-8

> <CASRN_ChemName_Relationship>
primary

> <TS_Description>
single chemical compound

> <ChemNote>


> <STRUCTURE_Shown>
tested chemical

> <STRUCTURE_Formula>
C6H11N2O4PS3

> <STRUCTURE_MW>
302.3313

> <STRUCTURE_ChemType>
defined organic

> <STRUCTURE_DefinedOrganicForm>
parent

> <STRUCTURE_IUPAC>
S-[(5-methoxy-2-oxo-1,3,4-thiadiazol-3(2H)-yl)methyl] O,O-dimethyl phosphorodithioate

> <STRUCTURE_SMILES>
O=C1SC(=NN1CSP(=S)(OC)OC)OC

> <STRUCTURE_SMILES_Desalt>
O=C1SC(=NN1CSP(=S)(OC)OC)OC

> <Substance_modify_yyyymmdd>
20080429

$$$$
