959-24-0
ChemmineR-0914142331XD

 19 18  0  0  0  0  0  0  0  0  1 V2000
    5.7564   -2.4752    0.0000 C    0  0  0  0  0  0  0  0  0  0  0  0
    6.9076   -3.1430    0.0000 C    0  0  0  0  0  0  0  0  0  0  0  0
    8.0589   -2.4752    0.0000 C    0  0  0  0  0  0  0  0  0  0  0  0
    9.2102   -3.1430    0.0000 N    0  0  0  0  0  0  0  0  0  0  0  0
   10.3614   -2.4752    0.0000 C    0  0  0  0  0  0  0  0  0  0  0  0
   10.3614   -1.1513    0.0000 C    0  0  0  0  0  0  0  0  0  0  0  0
   11.5127   -3.1430    0.0000 C    0  0  0  0  0  0  0  0  0  0  0  0
    6.9076   -4.4784    0.0000 O    0  0  0  0  0  0  0  0  0  0  0  0
    4.6051   -3.1430    0.0000 C    0  0  0  0  0  0  0  0  0  0  0  0
    3.4538   -2.4752    0.0000 C    0  0  0  0  0  0  0  0  0  0  0  0
    3.4538   -1.1513    0.0000 C    0  0  0  0  0  0  0  0  0  0  0  0
    2.3025   -0.4835    0.0000 N    0  0  0  0  0  0  0  0  0  0  0  0
    1.1513   -1.1513    0.0000 S    0  0  0  0  0  0  0  0  0  0  0  0
    0.0000   -1.8190    0.0000 C    0  0  0  0  0  0  0  0  0  0  0  0
    0.4835    0.0000    0.0000 O    0  0  0  0  0  0  0  0  0  0  0  0
    1.8190   -2.3025    0.0000 O    0  0  0  0  0  0  0  0  0  0  0  0
    4.6051   -0.4835    0.0000 C    0  0  0  0  0  0  0  0  0  0  0  0
    5.7564   -1.1513    0.0000 C    0  0  0  0  0  0  0  0  0  0  0  0
    3.8452   -4.0179    0.0000 Cl   0  0  0  0  0  0  0  0  0  0  0  0
  1  2  1  0  0  0  0
  1  9  1  0  0  0  0
  1 18  2  0  0  0  0
  2  3  1  0  0  0  0
  2  8  1  0  0  0  0
  3  4  1  0  0  0  0
  4  5  1  0  0  0  0
  5  6  1  0  0  0  0
  5  7  1  0  0  0  0
  9 10  2  0  0  0  0
 10 11  1  0  0  0  0
 11 12  1  0  0  0  0
 11 17  2  0  0  0  0
 12 13  1  0  0  0  0
 13 14  1  0  0  0  0
 13 15  2  0  0  0  0
 13 16  2  0  0  0  0
 17 18  1  0  0  0  0
M  END
> <ID>
1229

> <Formula>
C12H21ClN2O3S

> <FW>
308.8247 (272.3638+36.4609)

> <DSSTox_CID>
1278

> <DSSTox_RID>
76054

> <DSSTox_GSID>
21278

> <DSSTox_FileID_Sort>
738

> <TS_ChemName>
Sotalol hydrochloride

> <TS_ChemName_Synonyms>


> <TS_CASRN>
959-24-0

> <CASRN_ChemName_Relationship>
primary

> <TS_Description>
single chemical compound

> <ChemNote>
parent [3930-20-9]

> <STRUCTURE_Shown>
tested chemical

> <STRUCTURE_Formula>
C12H21ClN2O3S

> <STRUCTURE_MW>
308.8247

> <STRUCTURE_ChemType>
defined organic

> <STRUCTURE_DefinedOrganicForm>
complex

> <STRUCTURE_IUPAC>
N-{4-[1-hydroxy-2-(propan-2-ylamino)ethyl]phenyl}methanesulfonamide hydrochloride (1:1)

> <STRUCTURE_SMILES>
Cl.O=S(C)(=O)Nc1ccc(cc1)C(O)CNC(C)C

> <STRUCTURE_SMILES_Desalt>
O=S(C)(=O)Nc1ccc(cc1)C(O)CNC(C)C

> <Substance_modify_yyyymmdd>
20080429

$$$$
