961-11-5
ChemmineR-0914142331XD

 19 19  0  0  0  0  0  0  0  0  1 V2000
    9.2098   -4.6602    0.0000 Cl   0  0  0  0  0  0  0  0  0  0  0  0
    8.0586   -4.0063    0.0000 C    0  0  0  0  0  0  0  0  0  0  0  0
    6.9166   -4.6602    0.0000 C    0  0  0  0  0  0  0  0  0  0  0  0
    5.7653   -4.0063    0.0000 C    0  0  0  0  0  0  0  0  0  0  0  0
    4.6141   -4.6602    0.0000 Cl   0  0  0  0  0  0  0  0  0  0  0  0
    5.7653   -2.6616    0.0000 C    0  0  0  0  0  0  0  0  0  0  0  0
    4.6141   -1.9985    0.0000 C    0  0  0  0  0  0  0  0  0  0  0  0
    3.4629   -2.6616    0.0000 O    0  0  0  0  0  0  0  0  0  0  0  0
    2.3024   -1.9985    0.0000 P    0  0  0  0  0  0  0  0  0  0  0  0
    2.9656   -0.8473    0.0000 O    0  0  0  0  0  0  0  0  0  0  0  0
    1.6301   -3.1590    0.0000 O    0  0  0  0  0  0  0  0  0  0  0  0
    0.3039   -3.1590    0.0000 C    0  0  0  0  0  0  0  0  0  0  0  0
    1.1512   -1.3262    0.0000 O    0  0  0  0  0  0  0  0  0  0  0  0
    0.0000   -1.9985    0.0000 C    0  0  0  0  0  0  0  0  0  0  0  0
    4.6141   -0.6723    0.0000 C    0  0  0  0  0  0  0  0  0  0  0  0
    3.4629    0.0000    0.0000 Cl   0  0  0  0  0  0  0  0  0  0  0  0
    8.0586   -2.6616    0.0000 C    0  0  0  0  0  0  0  0  0  0  0  0
    9.2098   -1.9985    0.0000 Cl   0  0  0  0  0  0  0  0  0  0  0  0
    6.9166   -1.9985    0.0000 C    0  0  0  0  0  0  0  0  0  0  0  0
  1  2  1  0  0  0  0
  2  3  2  0  0  0  0
  2 17  1  0  0  0  0
  3  4  1  0  0  0  0
  4  5  1  0  0  0  0
  4  6  2  0  0  0  0
  6  7  1  0  0  0  0
  6 19  1  0  0  0  0
  7  8  1  0  0  0  0
  7 15  2  3  0  0  0
  8  9  1  0  0  0  0
  9 10  2  0  0  0  0
  9 11  1  0  0  0  0
  9 13  1  0  0  0  0
 11 12  1  0  0  0  0
 13 14  1  0  0  0  0
 15 16  1  0  0  0  0
 17 18  1  0  0  0  0
 17 19  2  0  0  0  0
M  END
> <ID>
1267

> <Formula>
C10H9Cl4O4P

> <FW>
365.9618

> <DSSTox_CID>
1320

> <DSSTox_RID>
76080

> <DSSTox_GSID>
21320

> <DSSTox_FileID_Sort>
764

> <TS_ChemName>
Tetrachlorovinphos

> <TS_ChemName_Synonyms>
Tetrachlorovinphos (Gardona)

> <TS_CASRN>
961-11-5

> <CASRN_ChemName_Relationship>
primary

> <TS_Description>
mixture or formulation

> <ChemNote>
mixture of Z [22248-79-9], E isomers

> <STRUCTURE_Shown>
representative isomer in mixture

> <STRUCTURE_Formula>
C10H9Cl4O4P

> <STRUCTURE_MW>
365.9618

> <STRUCTURE_ChemType>
defined organic

> <STRUCTURE_DefinedOrganicForm>
parent

> <STRUCTURE_IUPAC>
2-chloro-1-(2,4,5-trichlorophenyl)ethenyl dimethyl phosphate

> <STRUCTURE_SMILES>
Clc1cc(C(=CCl)OP(=O)(OC)OC)c(Cl)cc1Cl

> <STRUCTURE_SMILES_Desalt>
Clc1cc(C(=CCl)OP(=O)(OC)OC)c(Cl)cc1Cl

> <Substance_modify_yyyymmdd>
20080429

$$$$
