968-81-0
ChemmineR-0914142331XD

 22 23  0  0  0  0  0  0  0  0  1 V2000
    5.9826   -1.3308    0.0000 S   0  0  0  0  0  0  0  0  0  0  0  0
    7.3134   -1.3308    0.0000 N   0  0  0  0  0  0  0  0  0  0  0  0
    7.9968   -2.4938    0.0000 C   0  0  0  0  0  0  0  0  0  0  0  0
    4.6518   -1.3308    0.0000 C   0  0  0  0  0  0  0  0  0  0  0  0
    5.9826    0.0000    0.0000 O   0  0  0  0  0  0  0  0  0  0  0  0
    5.9826   -2.6616    0.0000 O   0  0  0  0  0  0  0  0  0  0  0  0
    9.3276   -2.4938    0.0000 N   0  0  0  0  0  0  0  0  0  0  0  0
    1.9902   -1.3308    0.0000 C   0  0  0  0  0  0  0  0  0  0  0  0
    0.6594   -1.3308    0.0000 C   0  0  0  0  0  0  0  0  0  0  0  0
    7.3134   -3.6447    0.0000 O   0  0  0  0  0  0  0  0  0  0  0  0
    3.9924   -2.4938    0.0000 C   0  0  0  0  0  0  0  0  0  0  0  0
    3.9924   -0.1918    0.0000 C   0  0  0  0  0  0  0  0  0  0  0  0
    0.0000   -0.1918    0.0000 O   0  0  0  0  0  0  0  0  0  0  0  0
    2.6616   -0.1918    0.0000 C   0  0  0  0  0  0  0  0  0  0  0  0
    2.6616   -2.4938    0.0000 C   0  0  0  0  0  0  0  0  0  0  0  0
    9.9870   -3.6447    0.0000 C   0  0  0  0  0  0  0  0  0  0  0  0
    0.0000   -2.4938    0.0000 C   0  0  0  0  0  0  0  0  0  0  0  0
    9.3276   -4.7957    0.0000 C   0  0  0  0  0  0  0  0  0  0  0  0
   11.3178   -3.6447    0.0000 C   0  0  0  0  0  0  0  0  0  0  0  0
    9.9870   -5.9347    0.0000 C   0  0  0  0  0  0  0  0  0  0  0  0
   11.9892   -4.7957    0.0000 C   0  0  0  0  0  0  0  0  0  0  0  0
   11.3178   -5.9347    0.0000 C   0  0  0  0  0  0  0  0  0  0  0  0
  1  2  1  0  0  0  0
  1  4  1  0  0  0  0
  1  5  2  0  0  0  0
  1  6  2  0  0  0  0
  2  3  1  0  0  0  0
  3  7  1  0  0  0  0
  3 10  2  0  0  0  0
  4 11  2  0  0  0  0
  4 12  1  0  0  0  0
  7 16  1  0  0  0  0
  8 14  1  0  0  0  0
  8  9  1  0  0  0  0
  8 15  2  0  0  0  0
  9 13  2  0  0  0  0
  9 17  1  0  0  0  0
 11 15  1  0  0  0  0
 12 14  2  0  0  0  0
 16 18  1  0  0  0  0
 16 19  1  0  0  0  0
 18 20  1  0  0  0  0
 19 21  1  0  0  0  0
 20 22  1  0  0  0  0
 21 22  1  0  0  0  0
M  END
> <ID>
7

> <Formula>
C15H20N2O4S

> <FW>
324.3953

> <DSSTox_CID>
7

> <DSSTox_RID>
75319

> <DSSTox_GSID>
20007

> <DSSTox_FileID_Sort>
3

> <TS_ChemName>
Acetohexamide

> <TS_ChemName_Synonyms>


> <TS_CASRN>
968-81-0

> <CASRN_ChemName_Relationship>
primary

> <TS_Description>
single chemical compound

> <ChemNote>


> <STRUCTURE_Shown>
tested chemical

> <STRUCTURE_Formula>
C15H20N2O4S

> <STRUCTURE_MW>
324.3953

> <STRUCTURE_ChemType>
defined organic

> <STRUCTURE_DefinedOrganicForm>
parent

> <STRUCTURE_IUPAC>
4-acetyl-N-(cyclohexylcarbamoyl)benzenesulfonamide

> <STRUCTURE_SMILES>
O=C(NC1CCCCC1)NS(=O)(=O)c2ccc(cc2)C(C)=O

> <STRUCTURE_SMILES_Desalt>
O=C(NC1CCCCC1)NS(=O)(=O)c2ccc(cc2)C(C)=O

> <Substance_modify_yyyymmdd>
20080429

$$$$
