968-93-4
ChemmineR-0914142331XD

 25 28  0  0  1  0  0  0  0  0  1 V2000
    3.4972   -3.3615    0.0000 C   0  0  0  0  0  0  0  0  0  0  0  0
    3.4972   -4.6769    0.0000 C   0  0  0  0  0  0  0  0  0  0  0  0
    6.9423   -1.3780    0.0000 C   0  0  0  0  0  0  0  0  0  0  0  0
    4.6560   -2.7143    0.0000 C   0  0  0  0  0  0  0  0  0  0  0  0
    5.7939   -3.3720    0.0000 C   0  0  0  0  0  0  0  0  0  0  0  0
    6.9423   -2.7352    0.0000 C   0  0  0  0  0  0  0  0  0  0  0  0
    2.3176   -2.7038    0.0000 C   0  0  0  0  0  0  0  0  0  0  0  0
    8.1219   -0.7099    0.0000 O   0  0  0  0  0  0  0  0  0  0  0  0
    2.3176   -5.3659    0.0000 C   0  0  0  0  0  0  0  0  0  0  0  0
    9.3016   -1.3989    0.0000 C   0  0  0  0  0  0  0  0  0  0  0  0
    4.6560   -1.3780    0.0000 C   0  0  0  0  0  0  0  0  0  0  0  0
    5.7939   -4.6560    0.0000 C   0  0  0  0  0  0  0  0  0  0  0  0
    1.1692   -3.3615    0.0000 C   0  0  0  0  0  0  0  0  0  0  0  0
    1.1692   -4.6873    0.0000 C   0  0  0  0  0  0  0  0  0  0  0  0
    8.1219   -3.3720    0.0000 C   0  0  0  0  0  0  0  0  0  0  0  0
    5.7939   -0.7099    0.0000 C   0  0  0  0  0  0  0  0  0  0  0  0
    4.6560   -5.3450    0.0000 C   0  0  0  0  0  0  0  0  0  0  0  0
   10.4395   -0.7516    0.0000 O   0  0  0  0  0  0  0  0  0  0  0  0
    0.0000   -5.3659    0.0000 O   0  0  0  0  0  0  0  0  0  0  0  0
    9.3016   -2.7143    0.0000 C   0  0  0  0  0  0  0  0  0  0  0  0
    3.4972   -2.1401    0.0000 C   0  0  0  0  0  0  0  0  0  0  0  0
    6.9423    0.0000    0.0000 C   0  0  0  0  0  0  0  0  0  0  0  0
    5.7939   -2.0461    0.0000 H   0  0  0  0  0  0  0  0  0  0  0  0
    4.6560   -4.0505    0.0000 H   0  0  0  0  0  0  0  0  0  0  0  0
    6.9423   -4.0610    0.0000 H   0  0  0  0  0  0  0  0  0  0  0  0
  1  2  1  0  0  0  0
  1  4  1  0  0  0  0
  1  7  1  0  0  0  0
  1 21  1  1  0  0  0
  2  9  2  0  0  0  0
  2 17  1  0  0  0  0
  3 16  1  0  0  0  0
  3  8  1  0  0  0  0
  3 22  1  1  0  0  0
  3  6  1  0  0  0  0
  4  5  1  0  0  0  0
  4 11  1  0  0  0  0
  4 24  1  6  0  0  0
  5  6  1  0  0  0  0
  5 12  1  0  0  0  0
  5 23  1  1  0  0  0
  6 15  1  0  0  0  0
  6 25  1  6  0  0  0
  7 13  2  0  0  0  0
  8 10  1  0  0  0  0
  9 14  1  0  0  0  0
 10 18  2  0  0  0  0
 10 20  1  0  0  0  0
 11 16  1  0  0  0  0
 12 17  1  0  0  0  0
 13 14  1  0  0  0  0
 14 19  2  0  0  0  0
 15 20  1  0  0  0  0
M  END
> <ID>
3257

> <Formula>
C19H24O3

> <FW>
300.3921

> <DSSTox_CID>
3644

> <DSSTox_RID>
77126

> <DSSTox_GSID>
23644

> <DSSTox_FileID_Sort>
1809

> <TS_ChemName>
Testolactone

> <TS_ChemName_Synonyms>


> <TS_CASRN>
968-93-4

> <CASRN_ChemName_Relationship>
primary

> <TS_Description>
single chemical compound

> <ChemNote>
stereochem

> <STRUCTURE_Shown>
tested chemical

> <STRUCTURE_Formula>
C19H24O3

> <STRUCTURE_MW>
300.3921

> <STRUCTURE_ChemType>
defined organic

> <STRUCTURE_DefinedOrganicForm>
parent

> <STRUCTURE_IUPAC>
(4aS,4bR,10aR,10bS,12aS)-10a,12a-dimethyl-3,4,4a,5,6,10a,10b,11,12,12a-decahydro-2H-naphtho[2,1-f]chromene-2,8(4bH)-dione

> <STRUCTURE_SMILES>
O=C3C=C4CC[C@@H]1[C@H](CC[C@]2(C)OC(=O)CC[C@@H]12)[C@@]4(C)C=C3

> <STRUCTURE_SMILES_Desalt>
O=C3C=C4CC[C@@H]1[C@H](CC[C@]2(C)OC(=O)CC[C@@H]12)[C@@]4(C)C=C3

> <Substance_modify_yyyymmdd>
20080429

$$$$
