97-02-9
ChemmineR-0914142331XD

 13 13  0  0  0  0  0  0  0  0  2 V2000
    5.7563    0.0000    0.0000 N   0  0  0  0  0  0  0  0  0  0  0  0
    4.6092   -0.6634    0.0000 C   0  0  0  0  0  0  0  0  0  0  0  0
    4.6092   -1.9902    0.0000 C   0  0  0  0  0  0  0  0  0  0  0  0
    5.7563   -2.6605    0.0000 N   0  3  0  0  0  0  0  0  0  0  0  0
    6.9103   -1.9902    0.0000 O   0  5  0  0  0  0  0  0  0  0  0  0
    5.7563   -3.9873    0.0000 O   0  0  0  0  0  0  0  0  0  0  0  0
    3.4552   -2.6605    0.0000 C   0  0  0  0  0  0  0  0  0  0  0  0
    2.3011   -1.9902    0.0000 C   0  0  0  0  0  0  0  0  0  0  0  0
    1.1540   -2.6605    0.0000 N   0  3  0  0  0  0  0  0  0  0  0  0
    0.0000   -1.9902    0.0000 O   0  5  0  0  0  0  0  0  0  0  0  0
    1.1540   -3.9873    0.0000 O   0  0  0  0  0  0  0  0  0  0  0  0
    2.3011   -0.6634    0.0000 C   0  0  0  0  0  0  0  0  0  0  0  0
    3.4552    0.0000    0.0000 C   0  0  0  0  0  0  0  0  0  0  0  0
  1  2  1  0  0  0  0
  2  3  2  0  0  0  0
  2 13  1  0  0  0  0
  3  4  1  0  0  0  0
  3  7  1  0  0  0  0
  4  5  1  0  0  0  0
  4  6  2  0  0  0  0
  7  8  2  0  0  0  0
  8  9  1  0  0  0  0
  8 12  1  0  0  0  0
  9 10  1  0  0  0  0
  9 11  2  0  0  0  0
 12 13  2  0  0  0  0
M  END
> <ID>
1717

> <Formula>
C6H5N3O4

> <FW>
183.1216

> <DSSTox_CID>
1823

> <DSSTox_RID>
76350

> <DSSTox_GSID>
21823

> <DSSTox_FileID_Sort>
1034

> <TS_ChemName>
2,4-Dinitroaniline

> <TS_ChemName_Synonyms>
2,4-Dinitroaniline (Benzenamine, 2,4-dinitro-)

> <TS_CASRN>
97-02-9

> <CASRN_ChemName_Relationship>
primary

> <TS_Description>
single chemical compound

> <ChemNote>


> <STRUCTURE_Shown>
tested chemical

> <STRUCTURE_Formula>
C6H5N3O4

> <STRUCTURE_MW>
183.1216

> <STRUCTURE_ChemType>
defined organic

> <STRUCTURE_DefinedOrganicForm>
parent

> <STRUCTURE_IUPAC>
2,4-dinitroaniline

> <STRUCTURE_SMILES>
O=[N+]([O-])c1cc(ccc1N)[N+]([O-])=O

> <STRUCTURE_SMILES_Desalt>
O=[N+]([O-])c1cc(ccc1N)[N+]([O-])=O

> <Substance_modify_yyyymmdd>
20080429

$$$$
