97-00-7
ChemmineR-0914142331XD

 13 13  0  0  0  0  0  0  0  0  2 V2000
    5.7563    0.0000    0.0000 Cl   0  0  0  0  0  0  0  0  0  0  0  0
    4.6092   -0.6634    0.0000 C    0  0  0  0  0  0  0  0  0  0  0  0
    4.6092   -1.9902    0.0000 C    0  0  0  0  0  0  0  0  0  0  0  0
    3.4552   -2.6605    0.0000 C    0  0  0  0  0  0  0  0  0  0  0  0
    2.3011   -1.9902    0.0000 C    0  0  0  0  0  0  0  0  0  0  0  0
    2.3011   -0.6634    0.0000 C    0  0  0  0  0  0  0  0  0  0  0  0
    3.4552    0.0000    0.0000 C    0  0  0  0  0  0  0  0  0  0  0  0
    1.1540   -2.6605    0.0000 N    0  3  0  0  0  0  0  0  0  0  0  0
    1.1540   -3.9873    0.0000 O    0  0  0  0  0  0  0  0  0  0  0  0
    0.0000   -1.9902    0.0000 O    0  5  0  0  0  0  0  0  0  0  0  0
    5.7563   -2.6605    0.0000 N    0  3  0  0  0  0  0  0  0  0  0  0
    5.7563   -3.9873    0.0000 O    0  0  0  0  0  0  0  0  0  0  0  0
    6.9103   -1.9902    0.0000 O    0  5  0  0  0  0  0  0  0  0  0  0
  1  2  1  0  0  0  0
  2  3  2  0  0  0  0
  2  7  1  0  0  0  0
  3  4  1  0  0  0  0
  3 11  1  0  0  0  0
  4  5  2  0  0  0  0
  5  6  1  0  0  0  0
  5  8  1  0  0  0  0
  6  7  2  0  0  0  0
  8  9  2  0  0  0  0
  8 10  1  0  0  0  0
 11 12  2  0  0  0  0
 11 13  1  0  0  0  0
M  END
> <ID>
269

> <Formula>
C6H3ClN2O4

> <FW>
202.552

> <DSSTox_CID>
278

> <DSSTox_RID>
75481

> <DSSTox_GSID>
20278

> <DSSTox_FileID_Sort>
165

> <TS_ChemName>
1-Chloro-2,4-dinitrobenzene

> <TS_ChemName_Synonyms>
Benzene, 1-chloro-2,4-dinitro-; Dinitrochlorobenzene; 2,4-Dinitrochlorobenzene

> <TS_CASRN>
97-00-7

> <CASRN_ChemName_Relationship>
primary

> <TS_Description>
single chemical compound

> <ChemNote>


> <STRUCTURE_Shown>
tested chemical

> <STRUCTURE_Formula>
C6H3ClN2O4

> <STRUCTURE_MW>
202.552

> <STRUCTURE_ChemType>
defined organic

> <STRUCTURE_DefinedOrganicForm>
parent

> <STRUCTURE_IUPAC>
1-chloro-2,4-dinitrobenzene

> <STRUCTURE_SMILES>
O=[N+]([O-])c1cc(ccc1Cl)[N+]([O-])=O

> <STRUCTURE_SMILES_Desalt>
O=[N+]([O-])c1cc(ccc1Cl)[N+]([O-])=O

> <Substance_modify_yyyymmdd>
20080429

$$$$
