97-18-7
ChemmineR-0914142331XD

 19 20  0  0  0  0  0  0  0  0  1 V2000
    2.3032   -5.3158    0.0000 O    0  0  0  0  0  0  0  0  0  0  0  0
    2.3032   -3.9891    0.0000 C    0  0  0  0  0  0  0  0  0  0  0  0
    1.1516   -3.3166    0.0000 C    0  0  0  0  0  0  0  0  0  0  0  0
    1.1516   -1.9900    0.0000 C    0  0  0  0  0  0  0  0  0  0  0  0
    2.3032   -1.3266    0.0000 C    0  0  0  0  0  0  0  0  0  0  0  0
    3.4548   -1.9900    0.0000 C    0  0  0  0  0  0  0  0  0  0  0  0
    3.4548   -3.3166    0.0000 C    0  0  0  0  0  0  0  0  0  0  0  0
    4.6064   -3.9891    0.0000 S    0  0  0  0  0  0  0  0  0  0  0  0
    5.7580   -3.3166    0.0000 C    0  0  0  0  0  0  0  0  0  0  0  0
    5.7580   -1.9900    0.0000 C    0  0  0  0  0  0  0  0  0  0  0  0
    6.9096   -1.3266    0.0000 C    0  0  0  0  0  0  0  0  0  0  0  0
    8.0611   -1.9900    0.0000 C    0  0  0  0  0  0  0  0  0  0  0  0
    8.0611   -3.3166    0.0000 C    0  0  0  0  0  0  0  0  0  0  0  0
    6.9096   -3.9891    0.0000 C    0  0  0  0  0  0  0  0  0  0  0  0
    9.2127   -3.9891    0.0000 Cl   0  0  0  0  0  0  0  0  0  0  0  0
    6.9096    0.0000    0.0000 Cl   0  0  0  0  0  0  0  0  0  0  0  0
    4.6064   -1.3266    0.0000 O    0  0  0  0  0  0  0  0  0  0  0  0
    2.3032    0.0000    0.0000 Cl   0  0  0  0  0  0  0  0  0  0  0  0
    0.0000   -3.9891    0.0000 Cl   0  0  0  0  0  0  0  0  0  0  0  0
  1  2  1  0  0  0  0
  2  3  2  0  0  0  0
  2  7  1  0  0  0  0
  3  4  1  0  0  0  0
  3 19  1  0  0  0  0
  4  5  2  0  0  0  0
  5  6  1  0  0  0  0
  5 18  1  0  0  0  0
  6  7  2  0  0  0  0
  7  8  1  0  0  0  0
  8  9  1  0  0  0  0
  9 10  2  0  0  0  0
  9 14  1  0  0  0  0
 10 11  1  0  0  0  0
 10 17  1  0  0  0  0
 11 12  2  0  0  0  0
 11 16  1  0  0  0  0
 12 13  1  0  0  0  0
 13 14  2  0  0  0  0
 13 15  1  0  0  0  0
M  END
> <ID>
1289

> <Formula>
C12H6Cl4O2S

> <FW>
356.0518

> <DSSTox_CID>
1342

> <DSSTox_RID>
76096

> <DSSTox_GSID>
21342

> <DSSTox_FileID_Sort>
780

> <TS_ChemName>
Bithionol

> <TS_ChemName_Synonyms>
Bithionol (2,2'-Thiobis(4,6-dichlorophenol))

> <TS_CASRN>
97-18-7

> <CASRN_ChemName_Relationship>
primary

> <TS_Description>
single chemical compound

> <ChemNote>


> <STRUCTURE_Shown>
tested chemical

> <STRUCTURE_Formula>
C12H6Cl4O2S

> <STRUCTURE_MW>
356.0518

> <STRUCTURE_ChemType>
defined organic

> <STRUCTURE_DefinedOrganicForm>
parent

> <STRUCTURE_IUPAC>
2,2'-sulfanediylbis(4,6-dichlorophenol)

> <STRUCTURE_SMILES>
Oc2c(Sc1cc(Cl)cc(Cl)c1O)cc(Cl)cc2Cl

> <STRUCTURE_SMILES_Desalt>
Oc2c(Sc1cc(Cl)cc(Cl)c1O)cc(Cl)cc2Cl

> <Substance_modify_yyyymmdd>
20080429

$$$$
