97-56-3
ChemmineR-0914142331XD

 17 18  0  0  0  0  0  0  0  0  1 V2000
    2.6759    0.0000    0.0000 C   0  0  0  0  0  0  0  0  0  0  0  0
    1.9751   -1.1256    0.0000 C   0  0  0  0  0  0  0  0  0  0  0  0
    2.6122   -2.2937    0.0000 C   0  0  0  0  0  0  0  0  0  0  0  0
    1.9114   -3.4511    0.0000 C   0  0  0  0  0  0  0  0  0  0  0  0
    0.6265   -3.4511    0.0000 C   0  0  0  0  0  0  0  0  0  0  0  0
    0.0000   -2.2618    0.0000 C   0  0  0  0  0  0  0  0  0  0  0  0
    0.6902   -1.1256    0.0000 C   0  0  0  0  0  0  0  0  0  0  0  0
    3.9502   -2.3468    0.0000 N   0  0  0  0  0  0  0  0  0  0  0  0
    5.2776   -2.3468    0.0000 N   0  0  0  0  0  0  0  0  0  0  0  0
    6.6049   -2.3574    0.0000 C   0  0  0  0  0  0  0  0  0  0  0  0
    7.2845   -1.1893    0.0000 C   0  0  0  0  0  0  0  0  0  0  0  0
    8.6119   -1.1999    0.0000 C   0  0  0  0  0  0  0  0  0  0  0  0
    9.2915   -2.3574    0.0000 C   0  0  0  0  0  0  0  0  0  0  0  0
    8.6119   -3.5148    0.0000 C   0  0  0  0  0  0  0  0  0  0  0  0
    7.2845   -3.5148    0.0000 C   0  0  0  0  0  0  0  0  0  0  0  0
   10.6188   -2.3574    0.0000 N   0  0  0  0  0  0  0  0  0  0  0  0
    9.2915   -0.0531    0.0000 C   0  0  0  0  0  0  0  0  0  0  0  0
  1  2  1  0  0  0  0
  2  3  2  0  0  0  0
  2  7  1  0  0  0  0
  3  4  1  0  0  0  0
  3  8  1  0  0  0  0
  4  5  2  0  0  0  0
  5  6  1  0  0  0  0
  6  7  2  0  0  0  0
  8  9  2  0  0  0  0
  9 10  1  0  0  0  0
 10 11  2  0  0  0  0
 10 15  1  0  0  0  0
 11 12  1  0  0  0  0
 12 13  2  0  0  0  0
 12 17  1  0  0  0  0
 13 14  1  0  0  0  0
 13 16  1  0  0  0  0
 14 15  2  0  0  0  0
M  END
> <ID>
68

> <Formula>
C14H15N3

> <FW>
225.289

> <DSSTox_CID>
69

> <DSSTox_RID>
75346

> <DSSTox_GSID>
20069

> <DSSTox_FileID_Sort>
30

> <TS_ChemName>
2-Amino-5-azotoluene

> <TS_ChemName_Synonyms>
C.I. Solvent yellow 3

> <TS_CASRN>
97-56-3

> <CASRN_ChemName_Relationship>
primary

> <TS_Description>
single chemical compound

> <ChemNote>
C.I. Solvent Yellow 3

> <STRUCTURE_Shown>
tested chemical

> <STRUCTURE_Formula>
C14H15N3

> <STRUCTURE_MW>
225.289

> <STRUCTURE_ChemType>
defined organic

> <STRUCTURE_DefinedOrganicForm>
parent

> <STRUCTURE_IUPAC>
2-methyl-4-[(2-methylphenyl)diazenyl]aniline

> <STRUCTURE_SMILES>
Cc2cc(/N=N/c1ccccc1C)ccc2N

> <STRUCTURE_SMILES_Desalt>
Cc2cc(/N=N/c1ccccc1C)ccc2N

> <Substance_modify_yyyymmdd>
20080429

$$$$
