972-02-1
ChemmineR-0914142331XD

 23 25  0  0  0  0  0  0  0  0  1 V2000
    0.0000   -5.4524    0.0000 C   0  0  0  0  0  0  0  0  0  0  0  0
    0.0000   -4.1256    0.0000 C   0  0  0  0  0  0  0  0  0  0  0  0
    1.1506   -3.4518    0.0000 C   0  0  0  0  0  0  0  0  0  0  0  0
    2.3012   -4.1256    0.0000 C   0  0  0  0  0  0  0  0  0  0  0  0
    3.4518   -3.4518    0.0000 C   0  0  0  0  0  0  0  0  0  0  0  0
    4.1152   -4.6127    0.0000 O   0  0  0  0  0  0  0  0  0  0  0  0
    4.6024   -2.7884    0.0000 C   0  0  0  0  0  0  0  0  0  0  0  0
    5.7633   -3.4518    0.0000 C   0  0  0  0  0  0  0  0  0  0  0  0
    6.9139   -2.7884    0.0000 C   0  0  0  0  0  0  0  0  0  0  0  0
    8.0645   -3.4518    0.0000 N   0  0  0  0  0  0  0  0  0  0  0  0
    9.2151   -2.7884    0.0000 C   0  0  0  0  0  0  0  0  0  0  0  0
   10.3657   -3.4518    0.0000 C   0  0  0  0  0  0  0  0  0  0  0  0
   10.3657   -4.7890    0.0000 C   0  0  0  0  0  0  0  0  0  0  0  0
    9.2151   -5.4524    0.0000 C   0  0  0  0  0  0  0  0  0  0  0  0
    8.0645   -4.7890    0.0000 C   0  0  0  0  0  0  0  0  0  0  0  0
    2.7884   -2.3012    0.0000 C   0  0  0  0  0  0  0  0  0  0  0  0
    1.4616   -2.3012    0.0000 C   0  0  0  0  0  0  0  0  0  0  0  0
    0.7982   -1.1506    0.0000 C   0  0  0  0  0  0  0  0  0  0  0  0
    1.4616    0.0000    0.0000 C   0  0  0  0  0  0  0  0  0  0  0  0
    2.7884    0.0000    0.0000 C   0  0  0  0  0  0  0  0  0  0  0  0
    3.4518   -1.1506    0.0000 C   0  0  0  0  0  0  0  0  0  0  0  0
    2.3012   -5.4524    0.0000 C   0  0  0  0  0  0  0  0  0  0  0  0
    1.1506   -6.1158    0.0000 C   0  0  0  0  0  0  0  0  0  0  0  0
  1  2  2  0  0  0  0
  1 23  1  0  0  0  0
  2  3  1  0  0  0  0
  3  4  2  0  0  0  0
  4  5  1  0  0  0  0
  4 22  1  0  0  0  0
  5  6  1  0  0  0  0
  5  7  1  0  0  0  0
  5 16  1  0  0  0  0
  7  8  1  0  0  0  0
  8  9  1  0  0  0  0
  9 10  1  0  0  0  0
 10 11  1  0  0  0  0
 10 15  1  0  0  0  0
 11 12  1  0  0  0  0
 12 13  1  0  0  0  0
 13 14  1  0  0  0  0
 14 15  1  0  0  0  0
 16 17  2  0  0  0  0
 16 21  1  0  0  0  0
 17 18  1  0  0  0  0
 18 19  2  0  0  0  0
 19 20  1  0  0  0  0
 20 21  2  0  0  0  0
 22 23  2  0  0  0  0
M  END
> <ID>
2657

> <Formula>
C21H27NO

> <FW>
309.4452

> <DSSTox_CID>
2950

> <DSSTox_RID>
76804

> <DSSTox_GSID>
22950

> <DSSTox_FileID_Sort>
1488

> <TS_ChemName>
Diphenidol

> <TS_ChemName_Synonyms>


> <TS_CASRN>
972-02-1

> <CASRN_ChemName_Relationship>
primary

> <TS_Description>
single chemical compound

> <ChemNote>


> <STRUCTURE_Shown>
tested chemical

> <STRUCTURE_Formula>
C21H27NO

> <STRUCTURE_MW>
309.4452

> <STRUCTURE_ChemType>
defined organic

> <STRUCTURE_DefinedOrganicForm>
parent

> <STRUCTURE_IUPAC>
1,1-diphenyl-4-(piperidin-1-yl)butan-1-ol

> <STRUCTURE_SMILES>
OC(CCCN1CCCCC1)(c2ccccc2)c3ccccc3

> <STRUCTURE_SMILES_Desalt>
OC(CCCN1CCCCC1)(c2ccccc2)c3ccccc3

> <Substance_modify_yyyymmdd>
20080429

$$$$
