97240-79-4
ChemmineR-0914142331XD

 22 24  0  0  1  0  0  0  0  0  1 V2000
    4.7198   -3.4115    0.0000 C   0  0  0  0  0  0  0  0  0  0  0  0
    5.8771   -2.7473    0.0000 C   0  0  0  0  0  0  0  0  0  0  0  0
    7.0243   -3.4115    0.0000 C   0  0  0  0  0  0  0  0  0  0  0  0
    8.2923   -2.9989    0.0000 O   0  0  0  0  0  0  0  0  0  0  0  0
    9.0772   -4.0757    0.0000 C   0  0  0  0  0  0  0  0  0  0  0  0
   10.0635   -4.9613    0.0000 C   0  0  0  0  0  0  0  0  0  0  0  0
   10.0635   -3.1801    0.0000 C   0  0  0  0  0  0  0  0  0  0  0  0
    8.2923   -5.1525    0.0000 O   0  0  0  0  0  0  0  0  0  0  0  0
    7.0243   -4.7399    0.0000 C   0  0  0  0  0  0  0  0  0  0  0  0
    5.8771   -5.4041    0.0000 C   0  0  0  0  0  0  0  0  0  0  0  0
    4.7198   -4.7399    0.0000 O   0  0  0  0  0  0  0  0  0  0  0  0
    5.5953   -1.4391    0.0000 O   0  0  0  0  0  0  0  0  0  0  0  0
    4.2770   -1.2982    0.0000 C   0  0  0  0  0  0  0  0  0  0  0  0
    3.7335   -2.5159    0.0000 O   0  0  0  0  0  0  0  0  0  0  0  0
    3.0090   -0.8956    0.0000 C   0  0  0  0  0  0  0  0  0  0  0  0
    4.5487    0.0000    0.0000 C   0  0  0  0  0  0  0  0  0  0  0  0
    3.5121   -3.9449    0.0000 C   0  0  0  0  0  0  0  0  0  0  0  0
    2.4354   -3.1700    0.0000 O   0  0  0  0  0  0  0  0  0  0  0  0
    1.2177   -3.7134    0.0000 S   0  0  0  0  0  0  0  0  0  0  0  0
    1.7611   -4.9210    0.0000 O   0  0  0  0  0  0  0  0  0  0  0  0
    0.6743   -2.4957    0.0000 O   0  0  0  0  0  0  0  0  0  0  0  0
    0.0000   -4.2468    0.0000 N   0  0  0  0  0  0  0  0  0  0  0  0
  1  2  1  0  0  0  0
  1 11  1  0  0  0  0
  1 14  1  0  0  0  0
  1 17  1  6  0  0  0
  2  3  1  0  0  0  0
  2 12  1  1  0  0  0
  3  4  1  6  0  0  0
  3  9  1  0  0  0  0
  4  5  1  0  0  0  0
  5  6  1  0  0  0  0
  5  7  1  0  0  0  0
  5  8  1  0  0  0  0
  9  8  1  6  0  0  0
  9 10  1  0  0  0  0
 10 11  1  0  0  0  0
 12 13  1  0  0  0  0
 13 14  1  0  0  0  0
 13 15  1  0  0  0  0
 13 16  1  0  0  0  0
 17 18  1  0  0  0  0
 18 19  1  0  0  0  0
 19 20  2  0  0  0  0
 19 21  2  0  0  0  0
 19 22  1  0  0  0  0
M  END
> <ID>
3294

> <Formula>
C12H21NO8S

> <FW>
339.362

> <DSSTox_CID>
3688

> <DSSTox_RID>
77148

> <DSSTox_GSID>
23688

> <DSSTox_FileID_Sort>
1831

> <TS_ChemName>
Topiramate

> <TS_ChemName_Synonyms>


> <TS_CASRN>
97240-79-4

> <CASRN_ChemName_Relationship>
primary

> <TS_Description>
single chemical compound

> <ChemNote>
stereochem

> <STRUCTURE_Shown>
tested chemical

> <STRUCTURE_Formula>
C12H21NO8S

> <STRUCTURE_MW>
339.362

> <STRUCTURE_ChemType>
defined organic

> <STRUCTURE_DefinedOrganicForm>
parent

> <STRUCTURE_IUPAC>
[(3aS,5aR,8aR,8bS)-2,2,7,7-tetramethyltetrahydro-3aH-bis[1,3]dioxolo[4,5-b:4',5'-d]pyran-3a-yl]methyl sulfamate

> <STRUCTURE_SMILES>
NS(=O)(=O)OC[C@]23OC[C@H]1OC(C)(C)O[C@H]1[C@@H]3OC(C)(C)O2

> <STRUCTURE_SMILES_Desalt>
NS(=O)(=O)OC[C@]23OC[C@H]1OC(C)(C)O[C@H]1[C@@H]3OC(C)(C)O2

> <Substance_modify_yyyymmdd>
20080429

$$$$
