98-07-7
ChemmineR-0914142331XD

 10 10  0  0  0  0  0  0  0  0  1 V2000
    3.9873    0.0000    0.0000 Cl   0  0  0  0  0  0  0  0  0  0  0  0
    3.9873   -1.3291    0.0000 C    0  0  0  0  0  0  0  0  0  0  0  0
    2.6582   -1.3291    0.0000 C    0  0  0  0  0  0  0  0  0  0  0  0
    1.9936   -2.4827    0.0000 C    0  0  0  0  0  0  0  0  0  0  0  0
    0.6645   -2.4827    0.0000 C    0  0  0  0  0  0  0  0  0  0  0  0
    0.0000   -1.3291    0.0000 C    0  0  0  0  0  0  0  0  0  0  0  0
    0.6645   -0.1754    0.0000 C    0  0  0  0  0  0  0  0  0  0  0  0
    1.9936   -0.1754    0.0000 C    0  0  0  0  0  0  0  0  0  0  0  0
    5.3164   -1.3291    0.0000 Cl   0  0  0  0  0  0  0  0  0  0  0  0
    3.9873   -2.6582    0.0000 Cl   0  0  0  0  0  0  0  0  0  0  0  0
  1  2  1  0  0  0  0
  2  3  1  0  0  0  0
  2  9  1  0  0  0  0
  2 10  1  0  0  0  0
  3  4  2  0  0  0  0
  3  8  1  0  0  0  0
  4  5  1  0  0  0  0
  5  6  2  0  0  0  0
  6  7  1  0  0  0  0
  7  8  2  0  0  0  0
M  END
> <ID>
145

> <Formula>
C7H5Cl3

> <FW>
195.4736

> <DSSTox_CID>
148

> <DSSTox_RID>
75401

> <DSSTox_GSID>
20148

> <DSSTox_FileID_Sort>
85

> <TS_ChemName>
Benzotrichloride

> <TS_ChemName_Synonyms>
Benzotrichloride (Benzene, (trichloromethyl)-)

> <TS_CASRN>
98-07-7

> <CASRN_ChemName_Relationship>
primary

> <TS_Description>
single chemical compound

> <ChemNote>


> <STRUCTURE_Shown>
tested chemical

> <STRUCTURE_Formula>
C7H5Cl3

> <STRUCTURE_MW>
195.4736

> <STRUCTURE_ChemType>
defined organic

> <STRUCTURE_DefinedOrganicForm>
parent

> <STRUCTURE_IUPAC>
(trichloromethyl)benzene

> <STRUCTURE_SMILES>
ClC(Cl)(Cl)c1ccccc1

> <STRUCTURE_SMILES_Desalt>
ClC(Cl)(Cl)c1ccccc1

> <Substance_modify_yyyymmdd>
20080429

$$$$
