98319-26-7
ChemmineR-0914142331XD

 31 34  0  0  1  0  0  0  0  0  1 V2000
    6.9124   -2.6967    0.0000 C   0  0  0  0  0  0  0  0  0  0  0  0
    3.4621   -4.6868    0.0000 C   0  0  0  0  0  0  0  0  0  0  0  0
    6.9124   -4.0274    0.0000 C   0  0  0  0  0  0  0  0  0  0  0  0
    4.6161   -4.0274    0.0000 C   0  0  0  0  0  0  0  0  0  0  0  0
    5.7584   -4.6868    0.0000 C   0  0  0  0  0  0  0  0  0  0  0  0
    8.5964   -1.0010    0.0000 C   0  0  0  0  0  0  0  0  0  0  0  0
    8.1725   -2.2727    0.0000 C   0  0  0  0  0  0  0  0  0  0  0  0
    2.3198   -6.6887    0.0000 N   0  0  0  0  0  0  0  0  0  0  0  0
    2.3198   -4.0274    0.0000 C   0  0  0  0  0  0  0  0  0  0  0  0
    3.4621   -6.0293    0.0000 C   0  0  0  0  0  0  0  0  0  0  0  0
    1.1776   -6.0293    0.0000 C   0  0  0  0  0  0  0  0  0  0  0  0
    9.9035   -0.7183    0.0000 N   0  0  0  0  0  0  0  0  0  0  0  0
    5.7584   -2.0372    0.0000 C   0  0  0  0  0  0  0  0  0  0  0  0
    4.6161   -2.6967    0.0000 C   0  0  0  0  0  0  0  0  0  0  0  0
    8.1725   -4.4277    0.0000 C   0  0  0  0  0  0  0  0  0  0  0  0
    1.1776   -4.6868    0.0000 C   0  0  0  0  0  0  0  0  0  0  0  0
    8.9497   -3.3561    0.0000 C   0  0  0  0  0  0  0  0  0  0  0  0
    5.7584   -6.0293    0.0000 C   0  0  0  0  0  0  0  0  0  0  0  0
    7.7014    0.0000    0.0000 O   0  0  0  0  0  0  0  0  0  0  0  0
    4.6161   -6.6887    0.0000 C   0  0  0  0  0  0  0  0  0  0  0  0
   10.7867   -1.7075    0.0000 C   0  0  0  0  0  0  0  0  0  0  0  0
    0.0000   -6.7123    0.0000 O   0  0  0  0  0  0  0  0  0  0  0  0
    6.9124   -1.3542    0.0000 C   0  0  0  0  0  0  0  0  0  0  0  0
    3.4621   -3.3561    0.0000 C   0  0  0  0  0  0  0  0  0  0  0  0
   11.6817   -2.6967    0.0000 C   0  0  0  0  0  0  0  0  0  0  0  0
   11.7759   -0.8243    0.0000 C   0  0  0  0  0  0  0  0  0  0  0  0
    9.8093   -2.5789    0.0000 C   0  0  0  0  0  0  0  0  0  0  0  0
    3.4621   -7.3599    0.0000 H   0  0  0  0  0  0  0  0  0  0  0  0
    5.7584   -3.3561    0.0000 H   0  0  0  0  0  0  0  0  0  0  0  0
    4.6161   -5.3580    0.0000 H   0  0  0  0  0  0  0  0  0  0  0  0
    6.9124   -5.3580    0.0000 H   0  0  0  0  0  0  0  0  0  0  0  0
  1  3  1  0  0  0  0
  1  7  1  0  0  0  0
  1 13  1  0  0  0  0
  1 23  1  1  0  0  0
  2  4  1  0  0  0  0
  2  9  1  0  0  0  0
  2 10  1  0  0  0  0
  2 24  1  1  0  0  0
  3  5  1  0  0  0  0
  3 15  1  0  0  0  0
  3 31  1  6  0  0  0
  4 14  1  0  0  0  0
  4  5  1  0  0  0  0
  4 30  1  6  0  0  0
  5 18  1  0  0  0  0
  5 29  1  1  0  0  0
  7  6  1  1  0  0  0
  6 12  1  0  0  0  0
  6 19  2  0  0  0  0
  7 17  1  0  0  0  0
  8 10  1  0  0  0  0
  8 11  1  0  0  0  0
  9 16  2  0  0  0  0
 10 28  1  6  0  0  0
 10 20  1  0  0  0  0
 11 22  2  0  0  0  0
 11 16  1  0  0  0  0
 12 21  1  0  0  0  0
 13 14  1  0  0  0  0
 15 17  1  0  0  0  0
 18 20  1  0  0  0  0
 21 25  1  0  0  0  0
 21 26  1  0  0  0  0
 21 27  1  0  0  0  0
M  END
> <ID>
600

> <Formula>
C23H36N2O2

> <FW>
372.5441

> <DSSTox_CID>
625

> <DSSTox_RID>
75699

> <DSSTox_GSID>
20625

> <DSSTox_FileID_Sort>
383

> <TS_ChemName>
Finasteride

> <TS_ChemName_Synonyms>


> <TS_CASRN>
98319-26-7

> <CASRN_ChemName_Relationship>
primary

> <TS_Description>
single chemical compound

> <ChemNote>
stereochem

> <STRUCTURE_Shown>
tested chemical

> <STRUCTURE_Formula>
C23H36N2O2

> <STRUCTURE_MW>
372.5441

> <STRUCTURE_ChemType>
defined organic

> <STRUCTURE_DefinedOrganicForm>
parent

> <STRUCTURE_IUPAC>
(4aR,4bS,6aS,7S,9aS,9bS,11aR)-N-tert-butyl-4a,6a-dimethyl-2-oxo-2,4a,4b,5,6,6a,7,8,9,9a,9b,10,11,11a-tetradecahydro-1H-indeno[5,4-f]quinoline-7-carboxamide

> <STRUCTURE_SMILES>
CC(C)(C)NC(=O)[C@H]4CC[C@@H]3[C@]4(C)CC[C@H]1[C@H]3CC[C@H]2NC(=O)C=C[C@]12C

> <STRUCTURE_SMILES_Desalt>
CC(C)(C)NC(=O)[C@H]4CC[C@@H]3[C@]4(C)CC[C@H]1[C@H]3CC[C@H]2NC(=O)C=C[C@]12C

> <Substance_modify_yyyymmdd>
20080429

$$$$
