99-06-9
ChemmineR-0914142331XD

 10 10  0  0  0  0  0  0  0  0  1 V2000
    0.0000   -3.4536    0.0000 O   0  0  0  0  0  0  0  0  0  0  0  0
    0.6656   -2.3040    0.0000 C   0  0  0  0  0  0  0  0  0  0  0  0
    1.9968   -2.3040    0.0000 C   0  0  0  0  0  0  0  0  0  0  0  0
    2.6577   -1.1497    0.0000 C   0  0  0  0  0  0  0  0  0  0  0  0
    3.9889   -1.1497    0.0000 C   0  0  0  0  0  0  0  0  0  0  0  0
    4.6545    0.0000    0.0000 O   0  0  0  0  0  0  0  0  0  0  0  0
    4.6545   -2.3040    0.0000 C   0  0  0  0  0  0  0  0  0  0  0  0
    3.9889   -3.4536    0.0000 C   0  0  0  0  0  0  0  0  0  0  0  0
    2.6577   -3.4536    0.0000 C   0  0  0  0  0  0  0  0  0  0  0  0
    0.0000   -1.1497    0.0000 O   0  0  0  0  0  0  0  0  0  0  0  0
  1  2  2  0  0  0  0
  2  3  1  0  0  0  0
  2 10  1  0  0  0  0
  3  4  2  0  0  0  0
  3  9  1  0  0  0  0
  4  5  1  0  0  0  0
  5  6  1  0  0  0  0
  5  7  2  0  0  0  0
  7  8  1  0  0  0  0
  8  9  2  0  0  0  0
M  END
> <ID>
1547

> <Formula>
C7H6O3

> <FW>
138.1207

> <DSSTox_CID>
1610

> <DSSTox_RID>
76235

> <DSSTox_GSID>
21610

> <DSSTox_FileID_Sort>
919

> <TS_ChemName>
3-Hydroxybenzoic acid

> <TS_ChemName_Synonyms>


> <TS_CASRN>
99-06-9

> <CASRN_ChemName_Relationship>
primary

> <TS_Description>
single chemical compound

> <ChemNote>


> <STRUCTURE_Shown>
tested chemical

> <STRUCTURE_Formula>
C7H6O3

> <STRUCTURE_MW>
138.1207

> <STRUCTURE_ChemType>
defined organic

> <STRUCTURE_DefinedOrganicForm>
parent

> <STRUCTURE_IUPAC>
3-hydroxybenzoic acid

> <STRUCTURE_SMILES>
OC(=O)c1cc(O)ccc1

> <STRUCTURE_SMILES_Desalt>
OC(=O)c1cc(O)ccc1

> <Substance_modify_yyyymmdd>
20080429

$$$$
