99-50-3
ChemmineR-0914142331XD

 11 11  0  0  0  0  0  0  0  0  1 V2000
    1.9925   -2.3037    0.0000 C   0  0  0  0  0  0  0  0  0  0  0  0
    2.6567   -1.1488    0.0000 C   0  0  0  0  0  0  0  0  0  0  0  0
    3.9910   -1.1488    0.0000 C   0  0  0  0  0  0  0  0  0  0  0  0
    4.6552   -2.3037    0.0000 C   0  0  0  0  0  0  0  0  0  0  0  0
    5.9835   -2.3037    0.0000 O   0  0  0  0  0  0  0  0  0  0  0  0
    3.9910   -3.4525    0.0000 C   0  0  0  0  0  0  0  0  0  0  0  0
    2.6567   -3.4525    0.0000 C   0  0  0  0  0  0  0  0  0  0  0  0
    4.6552    0.0000    0.0000 O   0  0  0  0  0  0  0  0  0  0  0  0
    0.6642   -2.3037    0.0000 C   0  0  0  0  0  0  0  0  0  0  0  0
    0.0000   -3.4525    0.0000 O   0  0  0  0  0  0  0  0  0  0  0  0
    0.0000   -1.1488    0.0000 O   0  0  0  0  0  0  0  0  0  0  0  0
  1  2  2  0  0  0  0
  1  7  1  0  0  0  0
  1  9  1  0  0  0  0
  2  3  1  0  0  0  0
  3  4  2  0  0  0  0
  3  8  1  0  0  0  0
  4  5  1  0  0  0  0
  4  6  1  0  0  0  0
  6  7  2  0  0  0  0
  9 10  1  0  0  0  0
  9 11  2  0  0  0  0
M  END
> <ID>
1166

> <Formula>
C7H6O4

> <FW>
154.1201

> <DSSTox_CID>
1212

> <DSSTox_RID>
76012

> <DSSTox_GSID>
21212

> <DSSTox_FileID_Sort>
696

> <TS_ChemName>
3,4-Dihydroxybenzoic acid

> <TS_ChemName_Synonyms>
3,4-Dihydroxybenzoic acid (Protocatechuic acid)

> <TS_CASRN>
99-50-3

> <CASRN_ChemName_Relationship>
primary

> <TS_Description>
single chemical compound

> <ChemNote>


> <STRUCTURE_Shown>
tested chemical

> <STRUCTURE_Formula>
C7H6O4

> <STRUCTURE_MW>
154.1201

> <STRUCTURE_ChemType>
defined organic

> <STRUCTURE_DefinedOrganicForm>
parent

> <STRUCTURE_IUPAC>
3,4-dihydroxybenzoic acid

> <STRUCTURE_SMILES>
Oc1ccc(cc1O)C(=O)O

> <STRUCTURE_SMILES_Desalt>
Oc1ccc(cc1O)C(=O)O

> <Substance_modify_yyyymmdd>
20080429

$$$$
