99-55-8
ChemmineR-0914142331XD

 11 11  0  0  0  0  0  0  0  0  2 V2000
    0.0000   -3.4525    0.0000 O   0  0  0  0  0  0  0  0  0  0  0  0
    0.6642   -2.3037    0.0000 N   0  3  0  0  0  0  0  0  0  0  0  0
    1.9925   -2.3037    0.0000 C   0  0  0  0  0  0  0  0  0  0  0  0
    2.6567   -1.1488    0.0000 C   0  0  0  0  0  0  0  0  0  0  0  0
    3.9910   -1.1488    0.0000 C   0  0  0  0  0  0  0  0  0  0  0  0
    4.6552   -2.3037    0.0000 C   0  0  0  0  0  0  0  0  0  0  0  0
    3.9910   -3.4525    0.0000 C   0  0  0  0  0  0  0  0  0  0  0  0
    2.6567   -3.4525    0.0000 C   0  0  0  0  0  0  0  0  0  0  0  0
    5.9835   -2.3037    0.0000 C   0  0  0  0  0  0  0  0  0  0  0  0
    4.6552    0.0000    0.0000 N   0  0  0  0  0  0  0  0  0  0  0  0
    0.0000   -1.1488    0.0000 O   0  5  0  0  0  0  0  0  0  0  0  0
  1  2  2  0  0  0  0
  2  3  1  0  0  0  0
  2 11  1  0  0  0  0
  3  4  2  0  0  0  0
  3  8  1  0  0  0  0
  4  5  1  0  0  0  0
  5  6  2  0  0  0  0
  5 10  1  0  0  0  0
  6  7  1  0  0  0  0
  6  9  1  0  0  0  0
  7  8  2  0  0  0  0
M  END
> <ID>
923

> <Formula>
C7H8N2O2

> <FW>
152.1506

> <DSSTox_CID>
959

> <DSSTox_RID>
75887

> <DSSTox_GSID>
20959

> <DSSTox_FileID_Sort>
571

> <TS_ChemName>
2-Methyl-5-nitroaniline

> <TS_ChemName_Synonyms>
2-Methyl-5-nitroaniline (5-Nitro-o-toluidine) (2-Methyl-5-nitro-phenylamine)

> <TS_CASRN>
99-55-8

> <CASRN_ChemName_Relationship>
primary

> <TS_Description>
single chemical compound

> <ChemNote>


> <STRUCTURE_Shown>
tested chemical

> <STRUCTURE_Formula>
C7H8N2O2

> <STRUCTURE_MW>
152.1506

> <STRUCTURE_ChemType>
defined organic

> <STRUCTURE_DefinedOrganicForm>
parent

> <STRUCTURE_IUPAC>
2-methyl-5-nitroaniline

> <STRUCTURE_SMILES>
Cc1ccc(cc1N)[N+]([O-])=O

> <STRUCTURE_SMILES_Desalt>
Cc1ccc(cc1N)[N+]([O-])=O

> <Substance_modify_yyyymmdd>
20080429

$$$$
