99-59-2
ChemmineR-0914142331XD

 12 12  0  0  0  0  0  0  0  0  2 V2000
    0.0000   -3.4588    0.0000 O   0  0  0  0  0  0  0  0  0  0  0  0
    0.6652   -2.3081    0.0000 N   0  3  0  0  0  0  0  0  0  0  0  0
    1.9955   -2.3081    0.0000 C   0  0  0  0  0  0  0  0  0  0  0  0
    2.6606   -1.1574    0.0000 C   0  0  0  0  0  0  0  0  0  0  0  0
    3.9909   -1.1574    0.0000 C   0  0  0  0  0  0  0  0  0  0  0  0
    4.6561   -2.3081    0.0000 C   0  0  0  0  0  0  0  0  0  0  0  0
    3.9909   -3.4588    0.0000 C   0  0  0  0  0  0  0  0  0  0  0  0
    2.6606   -3.4588    0.0000 C   0  0  0  0  0  0  0  0  0  0  0  0
    5.9864   -2.3081    0.0000 O   0  0  0  0  0  0  0  0  0  0  0  0
    6.6515   -3.4588    0.0000 C   0  0  0  0  0  0  0  0  0  0  0  0
    4.6561    0.0000    0.0000 N   0  0  0  0  0  0  0  0  0  0  0  0
    0.0000   -1.1574    0.0000 O   0  5  0  0  0  0  0  0  0  0  0  0
  1  2  2  0  0  0  0
  2  3  1  0  0  0  0
  2 12  1  0  0  0  0
  3  4  2  0  0  0  0
  3  8  1  0  0  0  0
  4  5  1  0  0  0  0
  5  6  2  0  0  0  0
  5 11  1  0  0  0  0
  6  7  1  0  0  0  0
  6  9  1  0  0  0  0
  7  8  2  0  0  0  0
  9 10  1  0  0  0  0
M  END
> <ID>
907

> <Formula>
C7H8N2O3

> <FW>
168.15

> <DSSTox_CID>
943

> <DSSTox_RID>
75880

> <DSSTox_GSID>
20943

> <DSSTox_FileID_Sort>
564

> <TS_ChemName>
2-Methoxy-5-nitroaniline

> <TS_ChemName_Synonyms>
2-Methoxy-5-nitroaniline (5-Nitro-o-anisidine)

> <TS_CASRN>
99-59-2

> <CASRN_ChemName_Relationship>
primary

> <TS_Description>
single chemical compound

> <ChemNote>


> <STRUCTURE_Shown>
tested chemical

> <STRUCTURE_Formula>
C7H8N2O3

> <STRUCTURE_MW>
168.15

> <STRUCTURE_ChemType>
defined organic

> <STRUCTURE_DefinedOrganicForm>
parent

> <STRUCTURE_IUPAC>
2-methoxy-5-nitroaniline

> <STRUCTURE_SMILES>
Nc1cc(ccc1OC)[N+]([O-])=O

> <STRUCTURE_SMILES_Desalt>
Nc1cc(ccc1OC)[N+]([O-])=O

> <Substance_modify_yyyymmdd>
20080429

$$$$
