99614-02-5
ChemmineR-0914142331XD

 22 25  0  0  0  0  0  0  0  0  1 V2000
    0.7863   -4.7712    0.0000 C   0  0  0  0  0  0  0  0  0  0  0  0
    0.0000   -3.6980    0.0000 C   0  0  0  0  0  0  0  0  0  0  0  0
    0.5419   -2.4866    0.0000 C   0  0  0  0  0  0  0  0  0  0  0  0
    1.8596   -2.3484    0.0000 C   0  0  0  0  0  0  0  0  0  0  0  0
    2.6460   -3.4217    0.0000 C   0  0  0  0  0  0  0  0  0  0  0  0
    2.1040   -4.6331    0.0000 C   0  0  0  0  0  0  0  0  0  0  0  0
    3.9105   -3.0073    0.0000 C   0  0  0  0  0  0  0  0  0  0  0  0
    3.9105   -1.6790    0.0000 C   0  0  0  0  0  0  0  0  0  0  0  0
    2.6460   -1.2645    0.0000 N   0  0  0  0  0  0  0  0  0  0  0  0
    2.2315    0.0000    0.0000 C   0  0  0  0  0  0  0  0  0  0  0  0
    5.0688   -1.0095    0.0000 C   0  0  0  0  0  0  0  0  0  0  0  0
    6.2164   -1.6790    0.0000 C   0  0  0  0  0  0  0  0  0  0  0  0
    6.2164   -3.0073    0.0000 C   0  0  0  0  0  0  0  0  0  0  0  0
    7.3641   -3.6767    0.0000 C   0  0  0  0  0  0  0  0  0  0  0  0
    8.5223   -3.0073    0.0000 N   0  0  0  0  0  0  0  0  0  0  0  0
    8.6605   -1.6896    0.0000 C   0  0  0  0  0  0  0  0  0  0  0  0
    7.6722   -0.7970    0.0000 C   0  0  0  0  0  0  0  0  0  0  0  0
    9.9569   -1.4133    0.0000 N   0  0  0  0  0  0  0  0  0  0  0  0
   10.6263   -2.5610    0.0000 C   0  0  0  0  0  0  0  0  0  0  0  0
    9.7337   -3.5492    0.0000 C   0  0  0  0  0  0  0  0  0  0  0  0
    5.0688   -3.6767    0.0000 C   0  0  0  0  0  0  0  0  0  0  0  0
    5.0688   -5.0050    0.0000 O   0  0  0  0  0  0  0  0  0  0  0  0
  1  2  2  0  0  0  0
  1  6  1  0  0  0  0
  2  3  1  0  0  0  0
  3  4  2  0  0  0  0
  4  5  1  0  0  0  0
  4  9  1  0  0  0  0
  5  6  2  0  0  0  0
  5  7  1  0  0  0  0
  7  8  2  0  0  0  0
  7 21  1  0  0  0  0
  8  9  1  0  0  0  0
  8 11  1  0  0  0  0
  9 10  1  0  0  0  0
 11 12  1  0  0  0  0
 12 13  1  0  0  0  0
 13 14  1  0  0  0  0
 13 21  1  0  0  0  0
 14 15  1  0  0  0  0
 15 16  1  0  0  0  0
 15 20  1  0  0  0  0
 16 17  1  0  0  0  0
 16 18  2  0  0  0  0
 18 19  1  0  0  0  0
 19 20  2  0  0  0  0
 21 22  2  0  0  0  0
M  END
> <ID>
3042

> <Formula>
C18H19N3O

> <FW>
293.363

> <DSSTox_CID>
3393

> <DSSTox_RID>
77011

> <DSSTox_GSID>
23393

> <DSSTox_FileID_Sort>
1695

> <TS_ChemName>
Ondansetron

> <TS_ChemName_Synonyms>


> <TS_CASRN>
99614-02-5

> <CASRN_ChemName_Relationship>
primary

> <TS_Description>
single chemical compound

> <ChemNote>


> <STRUCTURE_Shown>
tested chemical

> <STRUCTURE_Formula>
C18H19N3O

> <STRUCTURE_MW>
293.363

> <STRUCTURE_ChemType>
defined organic

> <STRUCTURE_DefinedOrganicForm>
parent

> <STRUCTURE_IUPAC>
9-methyl-3-[(2-methyl-1H-imidazol-1-yl)methyl]-1,2,3,9-tetrahydro-4H-carbazol-4-one

> <STRUCTURE_SMILES>
O=C1C(CCc3c1c2ccccc2n3C)Cn4ccnc4C

> <STRUCTURE_SMILES_Desalt>
O=C1C(CCc3c1c2ccccc2n3C)Cn4ccnc4C

> <Substance_modify_yyyymmdd>
20080429

$$$$
