100-64-1
ChemmineR-0915142007XD

  8  8  0  0  0  0  0  0  0  0  1 V2000
    0.0000   -2.3042    0.0000 O   0  0  0  0  0  0  0  0  0  0  0  0
    0.6656   -1.1544    0.0000 N   0  0  0  0  0  0  0  0  0  0  0  0
    1.9969   -1.1544    0.0000 C   0  0  0  0  0  0  0  0  0  0  0  0
    2.6579    0.0000    0.0000 C   0  0  0  0  0  0  0  0  0  0  0  0
    3.9892    0.0000    0.0000 C   0  0  0  0  0  0  0  0  0  0  0  0
    4.6549   -1.1544    0.0000 C   0  0  0  0  0  0  0  0  0  0  0  0
    3.9892   -2.3042    0.0000 C   0  0  0  0  0  0  0  0  0  0  0  0
    2.6579   -2.3042    0.0000 C   0  0  0  0  0  0  0  0  0  0  0  0
  1  2  1  0  0  0  0
  2  3  2  0  0  0  0
  3  4  1  0  0  0  0
  3  8  1  0  0  0  0
  4  5  1  0  0  0  0
  5  6  1  0  0  0  0
  6  7  1  0  0  0  0
  7  8  1  0  0  0  0
M  END
> <ID>
1731

> <Formula>
C6H11NO

> <FW>
113.1576

> <DSSTox_CID>
1842

> <DSSTox_RID>
76361

> <DSSTox_GSID>
21842

> <DSSTox_FileID_Sort>
1045

> <TS_ChemName>
Cyclohexanone oxime

> <TS_ChemName_Synonyms>


> <TS_CASRN>
100-64-1

> <CASRN_ChemName_Relationship>
primary

> <TS_Description>
single chemical compound

> <ChemNote>


> <STRUCTURE_Shown>
tested chemical

> <STRUCTURE_Formula>
C6H11NO

> <STRUCTURE_MW>
113.1576

> <STRUCTURE_ChemType>
defined organic

> <STRUCTURE_DefinedOrganicForm>
parent

> <STRUCTURE_IUPAC>
N-hydroxycyclohexanimine

> <STRUCTURE_SMILES>
O\N=C1/CCCCC1

> <STRUCTURE_SMILES_Desalt>
O\N=C1/CCCCC1

> <Substance_modify_yyyymmdd>
20080429

$$$$
