100-06-1
ChemmineR-0915142007XD

 11 11  0  0  0  0  0  0  0  0  1 V2000
    5.9727   -1.1599    0.0000 C   0  0  0  0  0  0  0  0  0  0  0  0
    6.6659   -2.3131    0.0000 C   0  0  0  0  0  0  0  0  0  0  0  0
    6.6526    0.0000    0.0000 O   0  0  0  0  0  0  0  0  0  0  0  0
    4.6395   -1.1599    0.0000 C   0  0  0  0  0  0  0  0  0  0  0  0
    3.9996    0.0000    0.0000 C   0  0  0  0  0  0  0  0  0  0  0  0
    3.9862   -2.2997    0.0000 C   0  0  0  0  0  0  0  0  0  0  0  0
    2.6664    0.0000    0.0000 C   0  0  0  0  0  0  0  0  0  0  0  0
    2.6530   -2.2997    0.0000 C   0  0  0  0  0  0  0  0  0  0  0  0
    1.9931   -1.1599    0.0000 C   0  0  0  0  0  0  0  0  0  0  0  0
    0.6733   -1.1599    0.0000 O   0  0  0  0  0  0  0  0  0  0  0  0
    0.0000   -2.2997    0.0000 C   0  0  0  0  0  0  0  0  0  0  0  0
  1  2  1  0  0  0  0
  1  3  2  0  0  0  0
  1  4  1  0  0  0  0
  4  5  2  0  0  0  0
  4  6  1  0  0  0  0
  5  7  1  0  0  0  0
  6  8  2  0  0  0  0
  7  9  2  0  0  0  0
  8  9  1  0  0  0  0
  9 10  1  0  0  0  0
 10 11  1  0  0  0  0
M  END
> <ID>
10005

> <Formula>
C9H10O2

> <FW>
150.1745

> <DSSTox_CID>
24347

> <DSSTox_RID>
80160

> <DSSTox_GSID>
44347

> <DSSTox_FileID_Sort>
4842

> <TS_ChemName>
4'-Methoxyacetophenone

> <TS_ChemName_Synonyms>
4'-Methoxyacetophenone (Ethanone, 1-(4-methoxyphenyl)-)

> <TS_CASRN>
100-06-1

> <CASRN_ChemName_Relationship>
primary

> <TS_Description>
single chemical compound

> <ChemNote>


> <STRUCTURE_Shown>
tested chemical

> <STRUCTURE_Formula>
C9H10O2

> <STRUCTURE_MW>
150.1745

> <STRUCTURE_ChemType>
defined organic

> <STRUCTURE_DefinedOrganicForm>
parent

> <STRUCTURE_IUPAC>
1-(4-methoxyphenyl)ethanone

> <STRUCTURE_SMILES>
COc1ccc(cc1)C(C)=O

> <STRUCTURE_SMILES_Desalt>
COc1ccc(cc1)C(C)=O

> <Substance_modify_yyyymmdd>
20091116

$$$$
