100-11-8
ChemmineR-0915142007XD

 11 11  0  0  0  0  0  0  0  0  2 V2000
    1.9969   -2.3010    0.0000 C    0  0  0  0  0  0  0  0  0  0  0  0
    3.9870   -3.4549    0.0000 C    0  0  0  0  0  0  0  0  0  0  0  0
    1.3267   -3.4549    0.0000 C    0  0  0  0  0  0  0  0  0  0  0  0
    3.3236   -4.6088    0.0000 C    0  0  0  0  0  0  0  0  0  0  0  0
    3.9870   -1.1539    0.0000 C    0  0  0  0  0  0  0  0  0  0  0  0
    3.3236   -2.3010    0.0000 C    0  0  0  0  0  0  0  0  0  0  0  0
    1.9969   -4.6088    0.0000 C    0  0  0  0  0  0  0  0  0  0  0  0
    3.3236    0.0000    0.0000 Br   0  0  0  0  0  0  0  0  0  0  0  0
    1.3267   -5.7559    0.0000 N    0  3  0  0  0  0  0  0  0  0  0  0
    0.0000   -5.7559    0.0000 O    0  5  0  0  0  0  0  0  0  0  0  0
    1.9969   -6.9098    0.0000 O    0  0  0  0  0  0  0  0  0  0  0  0
  1  3  1  0  0  0  0
  1  6  2  0  0  0  0
  2  4  2  0  0  0  0
  2  6  1  0  0  0  0
  3  7  2  0  0  0  0
  4  7  1  0  0  0  0
  5  6  1  0  0  0  0
  5  8  1  0  0  0  0
  7  9  1  0  0  0  0
  9 10  1  0  0  0  0
  9 11  2  0  0  0  0
M  END
> <ID>
14256

> <Formula>
C7H6BrNO2

> <FW>
216.032

> <DSSTox_CID>
29351

> <DSSTox_RID>
83467

> <DSSTox_GSID>
49392

> <DSSTox_FileID_Sort>
8142

> <TS_ChemName>
4-Nitrobenzylbromide

> <TS_ChemName_Synonyms>


> <TS_CASRN>
100-11-8

> <CASRN_ChemName_Relationship>
primary

> <TS_Description>
single chemical compound

> <ChemNote>


> <STRUCTURE_Shown>
tested chemical

> <STRUCTURE_Formula>
C7H6BrNO2

> <STRUCTURE_MW>
216.032

> <STRUCTURE_ChemType>
defined organic

> <STRUCTURE_DefinedOrganicForm>
parent

> <STRUCTURE_IUPAC>
1-(bromomethyl)-4-nitrobenzene

> <STRUCTURE_SMILES>
O=[N+]([O-])c1ccc(CBr)cc1

> <STRUCTURE_SMILES_Desalt>
O=[N+]([O-])c1ccc(CBr)cc1

> <Substance_modify_yyyymmdd>
20111204

$$$$
