100-54-9
ChemmineR-0915142007XD

  8  8  0  0  0  0  0  0  0  0  1 V2000
    0.6574   -2.3137    0.0000 N   0  0  0  0  0  0  0  0  0  0  0  0
    0.0000   -1.1569    0.0000 C   0  0  0  0  0  0  0  0  0  0  0  0
    1.9927   -2.3137    0.0000 C   0  0  0  0  0  0  0  0  0  0  0  0
    2.6705   -1.1569    0.0000 C   0  0  0  0  0  0  0  0  0  0  0  0
    0.6574    0.0000    0.0000 C   0  0  0  0  0  0  0  0  0  0  0  0
    1.9927    0.0000    0.0000 C   0  0  0  0  0  0  0  0  0  0  0  0
    4.0006   -1.1569    0.0000 C   0  0  0  0  0  0  0  0  0  0  0  0
    5.0963   -0.4638    0.0000 N   0  0  0  0  0  0  0  0  0  0  0  0
  1  2  2  0  0  0  0
  1  3  1  0  0  0  0
  2  5  1  0  0  0  0
  3  4  2  0  0  0  0
  4  6  1  0  0  0  0
  4  7  1  0  0  0  0
  5  6  2  0  0  0  0
  7  8  3  0  0  0  0
M  END
> <ID>
4757

> <Formula>
C6H4N2

> <FW>
104.1094

> <DSSTox_CID>
6665

> <DSSTox_RID>
78179

> <DSSTox_GSID>
26665

> <DSSTox_FileID_Sort>
2862

> <TS_ChemName>
3-Pyridinecarbonitrile

> <TS_ChemName_Synonyms>


> <TS_CASRN>
100-54-9

> <CASRN_ChemName_Relationship>
primary

> <TS_Description>
single chemical compound

> <ChemNote>


> <STRUCTURE_Shown>
tested chemical

> <STRUCTURE_Formula>
C6H4N2

> <STRUCTURE_MW>
104.1094

> <STRUCTURE_ChemType>
defined organic

> <STRUCTURE_DefinedOrganicForm>
parent

> <STRUCTURE_IUPAC>
pyridine-3-carbonitrile

> <STRUCTURE_SMILES>
N#Cc1cccnc1

> <STRUCTURE_SMILES_Desalt>
N#Cc1cccnc1

> <Substance_modify_yyyymmdd>
20080429

$$$$
