100-27-6
ChemmineR-0915142007XD

 12 12  0  0  0  0  0  0  0  0  2 V2000
    7.9758    0.0000    0.0000 O   0  0  0  0  0  0  0  0  0  0  0  0
    7.3138   -1.1565    0.0000 N   0  3  0  0  0  0  0  0  0  0  0  0
    7.9758   -2.3050    0.0000 O   0  5  0  0  0  0  0  0  0  0  0  0
    5.9818   -1.1565    0.0000 C   0  0  0  0  0  0  0  0  0  0  0  0
    5.3199   -2.3050    0.0000 C   0  0  0  0  0  0  0  0  0  0  0  0
    3.9879   -2.3050    0.0000 C   0  0  0  0  0  0  0  0  0  0  0  0
    3.3259   -1.1565    0.0000 C   0  0  0  0  0  0  0  0  0  0  0  0
    3.9879    0.0000    0.0000 C   0  0  0  0  0  0  0  0  0  0  0  0
    1.9939   -1.1565    0.0000 C   0  0  0  0  0  0  0  0  0  0  0  0
    1.3320   -2.3050    0.0000 C   0  0  0  0  0  0  0  0  0  0  0  0
    0.0000   -2.3050    0.0000 O   0  0  0  0  0  0  0  0  0  0  0  0
    5.3199    0.0000    0.0000 C   0  0  0  0  0  0  0  0  0  0  0  0
  1  2  2  0  0  0  0
  2  3  1  0  0  0  0
  2  4  1  0  0  0  0
  4  5  2  0  0  0  0
  4 12  1  0  0  0  0
  5  6  1  0  0  0  0
  6  7  2  0  0  0  0
  7  8  1  0  0  0  0
  7  9  1  0  0  0  0
  8 12  2  0  0  0  0
  9 10  1  0  0  0  0
 10 11  1  0  0  0  0
M  END
> <ID>
4391

> <Formula>
C8H9NO3

> <FW>
167.162

> <DSSTox_CID>
5764

> <DSSTox_RID>
77915

> <DSSTox_GSID>
25764

> <DSSTox_FileID_Sort>
2598

> <TS_ChemName>
2-(4-Nitrophenyl)ethanol

> <TS_ChemName_Synonyms>
2-(4-Nitrophenyl)ethanol (p-Nitrophenethyl alcohol)

> <TS_CASRN>
100-27-6

> <CASRN_ChemName_Relationship>
primary

> <TS_Description>
single chemical compound

> <ChemNote>


> <STRUCTURE_Shown>
tested chemical

> <STRUCTURE_Formula>
C8H9NO3

> <STRUCTURE_MW>
167.162

> <STRUCTURE_ChemType>
defined organic

> <STRUCTURE_DefinedOrganicForm>
parent

> <STRUCTURE_IUPAC>
2-(4-nitrophenyl)ethanol

> <STRUCTURE_SMILES>
O=[N+]([O-])c1ccc(CCO)cc1

> <STRUCTURE_SMILES_Desalt>
O=[N+]([O-])c1ccc(CCO)cc1

> <Substance_modify_yyyymmdd>
20080429

$$$$
