100-88-9
ChemmineR-0915142007XD

 11 11  0  0  0  0  0  0  0  0  1 V2000
    4.6412   -1.1560    0.0000 S   0  0  0  0  0  0  0  0  0  0  0  0
    3.4679   -0.4797    0.0000 N   0  0  0  0  0  0  0  0  0  0  0  0
    3.9650   -2.2946    0.0000 O   0  0  0  0  0  0  0  0  0  0  0  0
    5.3001    0.0000    0.0000 O   0  0  0  0  0  0  0  0  0  0  0  0
    5.7798   -1.8091    0.0000 O   0  0  0  0  0  0  0  0  0  0  0  0
    2.3119   -1.1386    0.0000 C   0  0  0  0  0  0  0  0  0  0  0  0
    2.3119   -2.4564    0.0000 C   0  0  0  0  0  0  0  0  0  0  0  0
    1.1560   -0.4797    0.0000 C   0  0  0  0  0  0  0  0  0  0  0  0
    1.1560   -3.1442    0.0000 C   0  0  0  0  0  0  0  0  0  0  0  0
    0.0173   -1.1386    0.0000 C   0  0  0  0  0  0  0  0  0  0  0  0
    0.0000   -2.4680    0.0000 C   0  0  0  0  0  0  0  0  0  0  0  0
  1  2  1  0  0  0  0
  1  3  2  0  0  0  0
  1  4  2  0  0  0  0
  1  5  1  0  0  0  0
  2  6  1  0  0  0  0
  6  7  1  0  0  0  0
  6  8  1  0  0  0  0
  7  9  1  0  0  0  0
  8 10  1  0  0  0  0
  9 11  1  0  0  0  0
 10 11  1  0  0  0  0
M  END
> <ID>
8759

> <Formula>
C6H13NO3S

> <FW>
179.2373

> <DSSTox_CID>
21809

> <DSSTox_RID>
79849

> <DSSTox_GSID>
41809

> <DSSTox_FileID_Sort>
4531

> <TS_ChemName>
Cyclamic acid

> <TS_ChemName_Synonyms>
N-Cyclohexylsulfamic acid (Cyclamic acid)

> <TS_CASRN>
100-88-9

> <CASRN_ChemName_Relationship>
primary

> <TS_Description>
single chemical compound

> <ChemNote>


> <STRUCTURE_Shown>
tested chemical

> <STRUCTURE_Formula>
C6H13NO3S

> <STRUCTURE_MW>
179.2373

> <STRUCTURE_ChemType>
defined organic

> <STRUCTURE_DefinedOrganicForm>
parent

> <STRUCTURE_IUPAC>
cyclohexylsulfamic acid

> <STRUCTURE_SMILES>
OS(=O)(=O)NC1CCCCC1

> <STRUCTURE_SMILES_Desalt>
OS(=O)(=O)NC1CCCCC1

> <Substance_modify_yyyymmdd>
20080825

$$$$
