100-97-0
ChemmineR-0915142007XD

 10 12  0  0  0  0  0  0  0  0  1 V2000
    0.5559   -2.0884    0.0000 N   0  0  0  0  0  0  0  0  0  0  0  0
    2.9112   -1.9879    0.0000 N   0  0  0  0  0  0  0  0  0  0  0  0
    1.0269   -2.6850    0.0000 N   0  0  0  0  0  0  0  0  0  0  0  0
    1.7586    0.0000    0.0000 N   0  0  0  0  0  0  0  0  0  0  0  0
    2.3427   -3.1404    0.0000 C   0  0  0  0  0  0  0  0  0  0  0  0
    1.8120   -2.5720    0.0000 C   0  0  0  0  0  0  0  0  0  0  0  0
    1.0269   -1.0144    0.0000 C   0  0  0  0  0  0  0  0  0  0  0  0
    0.5559   -0.6469    0.0000 C   0  0  0  0  0  0  0  0  0  0  0  0
    2.9112   -0.6720    0.0000 C   0  0  0  0  0  0  0  0  0  0  0  0
    0.0000   -3.1404    0.0000 C   0  0  0  0  0  0  0  0  0  0  0  0
  1  6  1  0  0  0  0
  1  8  1  0  0  0  0
  1 10  1  0  0  0  0
  2  6  1  0  0  0  0
  2  5  1  0  0  0  0
  2  9  1  0  0  0  0
  3 10  1  0  0  0  0
  3  5  1  0  0  0  0
  3  7  1  0  0  0  0
  4  8  1  0  0  0  0
  4  9  1  0  0  0  0
  4  7  1  0  0  0  0
M  END
> <ID>
663

> <Formula>
C6H12N4

> <FW>
140.1863

> <DSSTox_CID>
692

> <DSSTox_RID>
75739

> <DSSTox_GSID>
20692

> <DSSTox_FileID_Sort>
423

> <TS_ChemName>
Methenamine

> <TS_ChemName_Synonyms>
Methenamine (Urotropine) (Hexamethylenetetramine) (1,3,5,7-Tetraazatricyclo[3.3.1.13,7]decane)

> <TS_CASRN>
100-97-0

> <CASRN_ChemName_Relationship>
primary

> <TS_Description>
single chemical compound

> <ChemNote>


> <STRUCTURE_Shown>
tested chemical

> <STRUCTURE_Formula>
C6H12N4

> <STRUCTURE_MW>
140.1863

> <STRUCTURE_ChemType>
defined organic

> <STRUCTURE_DefinedOrganicForm>
parent

> <STRUCTURE_IUPAC>
1,3,5,7-tetraazatricyclo[3.3.1.1~3,7~]decane

> <STRUCTURE_SMILES>
C1N3CN2CN(CN1C2)C3

> <STRUCTURE_SMILES_Desalt>
C1N3CN2CN(CN1C2)C3

> <Substance_modify_yyyymmdd>
20080429

$$$$
