100-10-7
ChemmineR-0915142007XD

 11 11  0  0  0  0  0  0  0  0  1 V2000
    0.0000    0.0000    0.0000 C   0  0  0  0  0  0  0  0  0  0  0  0
    0.6654   -1.1511    0.0000 N   0  0  0  0  0  0  0  0  0  0  0  0
    0.0000   -2.3022    0.0000 C   0  0  0  0  0  0  0  0  0  0  0  0
    1.9961   -1.1511    0.0000 C   0  0  0  0  0  0  0  0  0  0  0  0
    2.6615    0.0000    0.0000 C   0  0  0  0  0  0  0  0  0  0  0  0
    3.9923    0.0000    0.0000 C   0  0  0  0  0  0  0  0  0  0  0  0
    4.6576   -1.1511    0.0000 C   0  0  0  0  0  0  0  0  0  0  0  0
    5.9884   -1.1511    0.0000 C   0  0  0  0  0  0  0  0  0  0  0  0
    6.6538    0.0000    0.0000 O   0  0  0  0  0  0  0  0  0  0  0  0
    3.9923   -2.3022    0.0000 C   0  0  0  0  0  0  0  0  0  0  0  0
    2.6615   -2.3022    0.0000 C   0  0  0  0  0  0  0  0  0  0  0  0
  1  2  1  0  0  0  0
  2  3  1  0  0  0  0
  2  4  1  0  0  0  0
  4  5  2  0  0  0  0
  4 11  1  0  0  0  0
  5  6  1  0  0  0  0
  6  7  2  0  0  0  0
  7  8  1  0  0  0  0
  7 10  1  0  0  0  0
  8  9  2  0  0  0  0
 10 11  2  0  0  0  0
M  END
> <ID>
1726

> <Formula>
C9H11NO

> <FW>
149.1897

> <DSSTox_CID>
1835

> <DSSTox_RID>
76357

> <DSSTox_GSID>
21835

> <DSSTox_FileID_Sort>
1041

> <TS_ChemName>
4-Dimethylaminobenzaldehyde

> <TS_ChemName_Synonyms>
4-Dimethylaminobenzaldehyde (p-dimethylaminobenzaldehyde)

> <TS_CASRN>
100-10-7

> <CASRN_ChemName_Relationship>
primary

> <TS_Description>
single chemical compound

> <ChemNote>


> <STRUCTURE_Shown>
tested chemical

> <STRUCTURE_Formula>
C9H11NO

> <STRUCTURE_MW>
149.1897

> <STRUCTURE_ChemType>
defined organic

> <STRUCTURE_DefinedOrganicForm>
parent

> <STRUCTURE_IUPAC>
4-(dimethylamino)benzaldehyde

> <STRUCTURE_SMILES>
CN(C)c1ccc(C=O)cc1

> <STRUCTURE_SMILES_Desalt>
CN(C)c1ccc(C=O)cc1

> <Substance_modify_yyyymmdd>
20080429

$$$$
