100-20-9
ChemmineR-0915142007XD

 12 12  0  0  0  0  0  0  0  0  1 V2000
    6.6635    0.0000    0.0000 Cl   0  0  0  0  0  0  0  0  0  0  0  0
    0.0000   -2.2989    0.0000 Cl   0  0  0  0  0  0  0  0  0  0  0  0
    1.9924   -1.1461    0.0000 C    0  0  0  0  0  0  0  0  0  0  0  0
    2.6654    0.0000    0.0000 C    0  0  0  0  0  0  0  0  0  0  0  0
    3.9981    0.0000    0.0000 C    0  0  0  0  0  0  0  0  0  0  0  0
    4.6578   -1.1461    0.0000 C    0  0  0  0  0  0  0  0  0  0  0  0
    3.9981   -2.2989    0.0000 C    0  0  0  0  0  0  0  0  0  0  0  0
    2.6654   -2.2989    0.0000 C    0  0  0  0  0  0  0  0  0  0  0  0
    0.6597   -1.1461    0.0000 C    0  0  0  0  0  0  0  0  0  0  0  0
    0.0000    0.0000    0.0000 O    0  0  0  0  0  0  0  0  0  0  0  0
    5.9905   -1.1461    0.0000 C    0  0  0  0  0  0  0  0  0  0  0  0
    6.6635   -2.2989    0.0000 O    0  0  0  0  0  0  0  0  0  0  0  0
  1 11  1  0  0  0  0
  2  9  1  0  0  0  0
  3  4  2  0  0  0  0
  3  8  1  0  0  0  0
  3  9  1  0  0  0  0
  4  5  1  0  0  0  0
  5  6  2  0  0  0  0
  6  7  1  0  0  0  0
  6 11  1  0  0  0  0
  7  8  2  0  0  0  0
  9 10  2  0  0  0  0
 11 12  2  0  0  0  0
M  END
> <ID>
4753

> <Formula>
C8H4Cl2O2

> <FW>
203.0222

> <DSSTox_CID>
6653

> <DSSTox_RID>
78175

> <DSSTox_GSID>
26653

> <DSSTox_FileID_Sort>
2858

> <TS_ChemName>
1,4-Benzenedicarbonyl dichloride

> <TS_ChemName_Synonyms>


> <TS_CASRN>
100-20-9

> <CASRN_ChemName_Relationship>
primary

> <TS_Description>
single chemical compound

> <ChemNote>


> <STRUCTURE_Shown>
tested chemical

> <STRUCTURE_Formula>
C8H4Cl2O2

> <STRUCTURE_MW>
203.0222

> <STRUCTURE_ChemType>
defined organic

> <STRUCTURE_DefinedOrganicForm>
parent

> <STRUCTURE_IUPAC>
benzene-1,4-dicarbonyl dichloride

> <STRUCTURE_SMILES>
O=C(Cl)c1ccc(cc1)C(Cl)=O

> <STRUCTURE_SMILES_Desalt>
O=C(Cl)c1ccc(cc1)C(Cl)=O

> <Substance_modify_yyyymmdd>
20080429

$$$$
