100-56-1
ChemmineR-0915142007XD

  8  8  0  0  0  0  0  0  0  0  1 V2000
    3.4612    0.0000    0.0000 Hg   0  0  0  0  0  0  0  0  0  0  0  0
    4.6149   -0.6553    0.0000 Cl   0  0  0  0  0  0  0  0  0  0  0  0
    2.3075   -0.6692    0.0000 C    0  0  0  0  0  0  0  0  0  0  0  0
    1.1537    0.0000    0.0000 C    0  0  0  0  0  0  0  0  0  0  0  0
    2.3075   -2.0029    0.0000 C    0  0  0  0  0  0  0  0  0  0  0  0
    1.1537   -2.6582    0.0000 C    0  0  0  0  0  0  0  0  0  0  0  0
    0.0000   -0.6692    0.0000 C    0  0  0  0  0  0  0  0  0  0  0  0
    0.0000   -1.9844    0.0000 C    0  0  0  0  0  0  0  0  0  0  0  0
  1  2  1  0  0  0  0
  1  3  1  0  0  0  0
  3  4  1  0  0  0  0
  3  5  2  0  0  0  0
  4  7  2  0  0  0  0
  5  6  1  0  0  0  0
  6  8  2  0  0  0  0
  7  8  1  0  0  0  0
M  END
> <ID>
9060

> <Formula>
C6H5ClHg

> <FW>
313.1469

> <DSSTox_CID>
22129

> <DSSTox_RID>
79931

> <DSSTox_GSID>
42129

> <DSSTox_FileID_Sort>
4613

> <TS_ChemName>
Mercury, chlorophenyl-

> <TS_ChemName_Synonyms>


> <TS_CASRN>
100-56-1

> <CASRN_ChemName_Relationship>
primary

> <TS_Description>
single chemical compound

> <ChemNote>


> <STRUCTURE_Shown>
tested chemical

> <STRUCTURE_Formula>
C6H5ClHg

> <STRUCTURE_MW>
313.1469

> <STRUCTURE_ChemType>
organometallic

> <STRUCTURE_DefinedOrganicForm>


> <STRUCTURE_IUPAC>
chloro(phenyl)mercury

> <STRUCTURE_SMILES>
Cl[Hg]c1ccccc1

> <STRUCTURE_SMILES_Desalt>
Cl[Hg]c1ccccc1

> <Substance_modify_yyyymmdd>
20080825

$$$$
