100-14-1
ChemmineR-0915142007XD

 11 11  0  0  0  0  0  0  0  0  2 V2000
    0.6654   -1.1511    0.0000 N    0  3  0  0  0  0  0  0  0  0  0  0
    0.0000    0.0000    0.0000 O    0  0  0  0  0  0  0  0  0  0  0  0
    0.0000   -2.3022    0.0000 O    0  5  0  0  0  0  0  0  0  0  0  0
    1.9961   -1.1511    0.0000 C    0  0  0  0  0  0  0  0  0  0  0  0
    2.6615    0.0000    0.0000 C    0  0  0  0  0  0  0  0  0  0  0  0
    3.9923    0.0000    0.0000 C    0  0  0  0  0  0  0  0  0  0  0  0
    4.6576   -1.1511    0.0000 C    0  0  0  0  0  0  0  0  0  0  0  0
    5.9884   -1.1511    0.0000 C    0  0  0  0  0  0  0  0  0  0  0  0
    6.6538    0.0000    0.0000 Cl   0  0  0  0  0  0  0  0  0  0  0  0
    3.9923   -2.3022    0.0000 C    0  0  0  0  0  0  0  0  0  0  0  0
    2.6615   -2.3022    0.0000 C    0  0  0  0  0  0  0  0  0  0  0  0
  1  2  2  0  0  0  0
  1  3  1  0  0  0  0
  1  4  1  0  0  0  0
  4  5  2  0  0  0  0
  4 11  1  0  0  0  0
  5  6  1  0  0  0  0
  6  7  2  0  0  0  0
  7  8  1  0  0  0  0
  7 10  1  0  0  0  0
  8  9  1  0  0  0  0
 10 11  2  0  0  0  0
M  END
> <ID>
4381

> <Formula>
C7H6ClNO2

> <FW>
171.581

> <DSSTox_CID>
5745

> <DSSTox_RID>
77906

> <DSSTox_GSID>
25745

> <DSSTox_FileID_Sort>
2589

> <TS_ChemName>
4-Nitrobenzyl chloride

> <TS_ChemName_Synonyms>
4-Nitrobenzyl chloride (p-Nitrobenzyl chloride)

> <TS_CASRN>
100-14-1

> <CASRN_ChemName_Relationship>
primary

> <TS_Description>
single chemical compound

> <ChemNote>


> <STRUCTURE_Shown>
tested chemical

> <STRUCTURE_Formula>
C7H6ClNO2

> <STRUCTURE_MW>
171.581

> <STRUCTURE_ChemType>
defined organic

> <STRUCTURE_DefinedOrganicForm>
parent

> <STRUCTURE_IUPAC>
1-(chloromethyl)-4-nitrobenzene

> <STRUCTURE_SMILES>
O=[N+]([O-])c1ccc(CCl)cc1

> <STRUCTURE_SMILES_Desalt>
O=[N+]([O-])c1ccc(CCl)cc1

> <Substance_modify_yyyymmdd>
20080429

$$$$
