100-47-0
ChemmineR-0915142007XD

  8  8  0  0  0  0  0  0  0  0  1 V2000
    0.0000   -1.1545    0.0000 N   0  0  0  0  0  0  0  0  0  0  0  0
    1.3300   -1.1545    0.0000 C   0  0  0  0  0  0  0  0  0  0  0  0
    2.6600   -1.1545    0.0000 C   0  0  0  0  0  0  0  0  0  0  0  0
    3.3250    0.0000    0.0000 C   0  0  0  0  0  0  0  0  0  0  0  0
    4.6551    0.0000    0.0000 C   0  0  0  0  0  0  0  0  0  0  0  0
    5.3201   -1.1545    0.0000 C   0  0  0  0  0  0  0  0  0  0  0  0
    4.6551   -2.3036    0.0000 C   0  0  0  0  0  0  0  0  0  0  0  0
    3.3250   -2.3036    0.0000 C   0  0  0  0  0  0  0  0  0  0  0  0
  1  2  3  0  0  0  0
  2  3  1  0  0  0  0
  3  4  2  0  0  0  0
  3  8  1  0  0  0  0
  4  5  1  0  0  0  0
  5  6  2  0  0  0  0
  6  7  1  0  0  0  0
  7  8  2  0  0  0  0
M  END
> <ID>
1431

> <Formula>
C7H5N

> <FW>
103.1213

> <DSSTox_CID>
1491

> <DSSTox_RID>
76183

> <DSSTox_GSID>
21491

> <DSSTox_FileID_Sort>
867

> <TS_ChemName>
Benzonitrile

> <TS_ChemName_Synonyms>


> <TS_CASRN>
100-47-0

> <CASRN_ChemName_Relationship>
primary

> <TS_Description>
single chemical compound

> <ChemNote>


> <STRUCTURE_Shown>
tested chemical

> <STRUCTURE_Formula>
C7H5N

> <STRUCTURE_MW>
103.1213

> <STRUCTURE_ChemType>
defined organic

> <STRUCTURE_DefinedOrganicForm>
parent

> <STRUCTURE_IUPAC>
benzonitrile

> <STRUCTURE_SMILES>
N#Cc1ccccc1

> <STRUCTURE_SMILES_Desalt>
N#Cc1ccccc1

> <Substance_modify_yyyymmdd>
20080429

$$$$
