100-69-6
ChemmineR-0915142007XD

  8  8  0  0  0  0  0  0  0  0  1 V2000
    2.0020   -2.3060    0.0000 N   0  0  0  0  0  0  0  0  0  0  0  0
    0.6923   -2.3060    0.0000 C   0  0  0  0  0  0  0  0  0  0  0  0
    2.6942   -1.1600    0.0000 C   0  0  0  0  0  0  0  0  0  0  0  0
    2.0020   -0.0140    0.0000 C   0  0  0  0  0  0  0  0  0  0  0  0
    0.0000   -1.1600    0.0000 C   0  0  0  0  0  0  0  0  0  0  0  0
    0.6923   -0.0140    0.0000 C   0  0  0  0  0  0  0  0  0  0  0  0
    4.0320   -1.1600    0.0000 C   0  0  0  0  0  0  0  0  0  0  0  0
    4.6775    0.0000    0.0000 C   0  0  0  0  0  0  0  0  0  0  0  0
  1  2  2  0  0  0  0
  1  3  1  0  0  0  0
  2  5  1  0  0  0  0
  3  4  2  0  0  0  0
  3  7  1  0  0  0  0
  4  6  1  0  0  0  0
  5  6  2  0  0  0  0
  7  8  2  0  0  0  0
M  END
> <ID>
4758

> <Formula>
C7H7N

> <FW>
105.1372

> <DSSTox_CID>
6667

> <DSSTox_RID>
78180

> <DSSTox_GSID>
26667

> <DSSTox_FileID_Sort>
2863

> <TS_ChemName>
2-Vinylpyridine

> <TS_ChemName_Synonyms>
2-Vinylpyridine (Pyridine, 2-ethenyl-)

> <TS_CASRN>
100-69-6

> <CASRN_ChemName_Relationship>
primary

> <TS_Description>
single chemical compound

> <ChemNote>


> <STRUCTURE_Shown>
tested chemical

> <STRUCTURE_Formula>
C7H7N

> <STRUCTURE_MW>
105.1372

> <STRUCTURE_ChemType>
defined organic

> <STRUCTURE_DefinedOrganicForm>
parent

> <STRUCTURE_IUPAC>
2-ethenylpyridine

> <STRUCTURE_SMILES>
C=Cc1ccccn1

> <STRUCTURE_SMILES_Desalt>
C=Cc1ccccn1

> <Substance_modify_yyyymmdd>
20080429

$$$$
