100-15-2
ChemmineR-0915142007XD

 11 11  0  0  0  0  0  0  0  0  2 V2000
    6.6538    0.0000    0.0000 C   0  0  0  0  0  0  0  0  0  0  0  0
    5.9884   -1.1511    0.0000 N   0  0  0  0  0  0  0  0  0  0  0  0
    4.6576   -1.1511    0.0000 C   0  0  0  0  0  0  0  0  0  0  0  0
    3.9923   -2.3022    0.0000 C   0  0  0  0  0  0  0  0  0  0  0  0
    2.6615   -2.3022    0.0000 C   0  0  0  0  0  0  0  0  0  0  0  0
    1.9961   -1.1511    0.0000 C   0  0  0  0  0  0  0  0  0  0  0  0
    2.6615    0.0000    0.0000 C   0  0  0  0  0  0  0  0  0  0  0  0
    3.9923    0.0000    0.0000 C   0  0  0  0  0  0  0  0  0  0  0  0
    0.6654   -1.1511    0.0000 N   0  3  0  0  0  0  0  0  0  0  0  0
    0.0000   -2.3022    0.0000 O   0  5  0  0  0  0  0  0  0  0  0  0
    0.0000    0.0000    0.0000 O   0  0  0  0  0  0  0  0  0  0  0  0
  1  2  1  0  0  0  0
  2  3  1  0  0  0  0
  3  4  2  0  0  0  0
  3  8  1  0  0  0  0
  4  5  1  0  0  0  0
  5  6  2  0  0  0  0
  6  7  1  0  0  0  0
  6  9  1  0  0  0  0
  7  8  2  0  0  0  0
  9 10  1  0  0  0  0
  9 11  2  0  0  0  0
M  END
> <ID>
4312

> <Formula>
C7H8N2O2

> <FW>
152.1506

> <DSSTox_CID>
5635

> <DSSTox_RID>
77862

> <DSSTox_GSID>
25635

> <DSSTox_FileID_Sort>
2545

> <TS_ChemName>
N-Methyl-4-nitroaniline

> <TS_ChemName_Synonyms>


> <TS_CASRN>
100-15-2

> <CASRN_ChemName_Relationship>
primary

> <TS_Description>
single chemical compound

> <ChemNote>


> <STRUCTURE_Shown>
tested chemical

> <STRUCTURE_Formula>
C7H8N2O2

> <STRUCTURE_MW>
152.1506

> <STRUCTURE_ChemType>
defined organic

> <STRUCTURE_DefinedOrganicForm>
parent

> <STRUCTURE_IUPAC>
N-methyl-4-nitroaniline

> <STRUCTURE_SMILES>
CNc1ccc(cc1)[N+]([O-])=O

> <STRUCTURE_SMILES_Desalt>
CNc1ccc(cc1)[N+]([O-])=O

> <Substance_modify_yyyymmdd>
20080429

$$$$
