100-50-5
ChemmineR-0915142007XD

  8  8  0  0  0  0  0  0  0  0  1 V2000
    2.6542   -1.1554    0.0000 C   0  0  0  0  0  0  0  0  0  0  0  0
    1.9860   -2.3062    0.0000 C   0  0  0  0  0  0  0  0  0  0  0  0
    0.6543   -2.3062    0.0000 C   0  0  0  0  0  0  0  0  0  0  0  0
    0.0000   -1.1554    0.0000 C   0  0  0  0  0  0  0  0  0  0  0  0
    0.6543    0.0000    0.0000 C   0  0  0  0  0  0  0  0  0  0  0  0
    1.9860    0.0000    0.0000 C   0  0  0  0  0  0  0  0  0  0  0  0
    3.9859   -1.1554    0.0000 C   0  0  0  0  0  0  0  0  0  0  0  0
    4.6402    0.0000    0.0000 O   0  0  0  0  0  0  0  0  0  0  0  0
  1  2  1  0  0  0  0
  1  6  1  0  0  0  0
  1  7  1  0  0  0  0
  2  3  1  0  0  0  0
  3  4  2  0  0  0  0
  4  5  1  0  0  0  0
  5  6  1  0  0  0  0
  7  8  2  0  0  0  0
M  END
> <ID>
4755

> <Formula>
C7H10O

> <FW>
110.1537

> <DSSTox_CID>
6661

> <DSSTox_RID>
78177

> <DSSTox_GSID>
26661

> <DSSTox_FileID_Sort>
2860

> <TS_ChemName>
3-Cyclohexene-1-carboxaldehyde

> <TS_ChemName_Synonyms>


> <TS_CASRN>
100-50-5

> <CASRN_ChemName_Relationship>
primary

> <TS_Description>
single chemical compound

> <ChemNote>


> <STRUCTURE_Shown>
tested chemical

> <STRUCTURE_Formula>
C7H10O

> <STRUCTURE_MW>
110.1537

> <STRUCTURE_ChemType>
defined organic

> <STRUCTURE_DefinedOrganicForm>
parent

> <STRUCTURE_IUPAC>
cyclohex-3-ene-1-carbaldehyde

> <STRUCTURE_SMILES>
O=CC1CC=CCC1

> <STRUCTURE_SMILES_Desalt>
O=CC1CC=CCC1

> <Substance_modify_yyyymmdd>
20080429

$$$$
