100-48-1
ChemmineR-0915142007XD

  8  8  0  0  0  0  0  0  0  0  1 V2000
    0.0000   -1.1546    0.0000 N   0  0  0  0  0  0  0  0  0  0  0  0
    0.6704    0.0000    0.0000 C   0  0  0  0  0  0  0  0  0  0  0  0
    0.6704   -2.3046    0.0000 C   0  0  0  0  0  0  0  0  0  0  0  0
    2.0020   -2.3046    0.0000 C   0  0  0  0  0  0  0  0  0  0  0  0
    2.0020    0.0000    0.0000 C   0  0  0  0  0  0  0  0  0  0  0  0
    2.6538   -1.1546    0.0000 C   0  0  0  0  0  0  0  0  0  0  0  0
    3.9854   -1.1546    0.0000 C   0  0  0  0  0  0  0  0  0  0  0  0
    4.6558   -2.3046    0.0000 N   0  0  0  0  0  0  0  0  0  0  0  0
  1  2  2  0  0  0  0
  1  3  1  0  0  0  0
  2  5  1  0  0  0  0
  3  4  2  0  0  0  0
  4  6  1  0  0  0  0
  5  6  2  0  0  0  0
  6  7  1  0  0  0  0
  7  8  3  0  0  0  0
M  END
> <ID>
8494

> <Formula>
C6H4N2

> <FW>
104.1094

> <DSSTox_CID>
21528

> <DSSTox_RID>
79767

> <DSSTox_GSID>
41528

> <DSSTox_FileID_Sort>
4449

> <TS_ChemName>
4-Pyridinecarbonitrile

> <TS_ChemName_Synonyms>


> <TS_CASRN>
100-48-1

> <CASRN_ChemName_Relationship>
primary

> <TS_Description>
single chemical compound

> <ChemNote>


> <STRUCTURE_Shown>
tested chemical

> <STRUCTURE_Formula>
C6H4N2

> <STRUCTURE_MW>
104.1094

> <STRUCTURE_ChemType>
defined organic

> <STRUCTURE_DefinedOrganicForm>
parent

> <STRUCTURE_IUPAC>
pyridine-4-carbonitrile

> <STRUCTURE_SMILES>
N#Cc1ccncc1

> <STRUCTURE_SMILES_Desalt>
N#Cc1ccncc1

> <Substance_modify_yyyymmdd>
20080825

$$$$
