100-86-7
ChemmineR-0915142007XD

 11 11  0  0  0  0  0  0  0  0  1 V2000
    1.1800   -3.9977    0.0000 C   0  0  0  0  0  0  0  0  0  0  0  0
    2.3119   -4.6961    0.0000 C   0  0  0  0  0  0  0  0  0  0  0  0
    3.4558   -3.9977    0.0000 C   0  0  0  0  0  0  0  0  0  0  0  0
    2.3119   -6.0206    0.0000 O   0  0  0  0  0  0  0  0  0  0  0  0
    1.1800   -5.3523    0.0000 C   0  0  0  0  0  0  0  0  0  0  0  0
    2.3119   -0.6683    0.0000 C   0  0  0  0  0  0  0  0  0  0  0  0
    1.1800    0.0000    0.0000 C   0  0  0  0  0  0  0  0  0  0  0  0
    0.0000   -0.6683    0.0000 C   0  0  0  0  0  0  0  0  0  0  0  0
    0.0000   -1.9928    0.0000 C   0  0  0  0  0  0  0  0  0  0  0  0
    1.1800   -2.6731    0.0000 C   0  0  0  0  0  0  0  0  0  0  0  0
    2.3119   -1.9928    0.0000 C   0  0  0  0  0  0  0  0  0  0  0  0
  1  2  1  0  0  0  0
  1 10  1  0  0  0  0
  2  3  1  0  0  0  0
  2  4  1  0  0  0  0
  2  5  1  0  0  0  0
  6 11  2  0  0  0  0
  6  7  1  0  0  0  0
  7  8  2  0  0  0  0
  8  9  1  0  0  0  0
  9 10  2  0  0  0  0
 10 11  1  0  0  0  0
M  END
> <ID>
12723

> <Formula>
C10H14O

> <FW>
150.2176

> <DSSTox_CID>
27601

> <DSSTox_RID>
82445

> <DSSTox_GSID>
47601

> <DSSTox_FileID_Sort>
7126

> <TS_ChemName>
2-Methyl-1-phenylpropan-2-ol

> <TS_ChemName_Synonyms>


> <TS_CASRN>
100-86-7

> <CASRN_ChemName_Relationship>
primary

> <TS_Description>
single chemical compound

> <ChemNote>


> <STRUCTURE_Shown>
tested chemical

> <STRUCTURE_Formula>
C10H14O

> <STRUCTURE_MW>
150.2176

> <STRUCTURE_ChemType>
defined organic

> <STRUCTURE_DefinedOrganicForm>
parent

> <STRUCTURE_IUPAC>
2-methyl-1-phenylpropan-2-ol

> <STRUCTURE_SMILES>
OC(C)(C)Cc1ccccc1

> <STRUCTURE_SMILES_Desalt>
OC(C)(C)Cc1ccccc1

> <Substance_modify_yyyymmdd>
20101021

$$$$
