100-19-6
ChemmineR-0915142007XD

 12 12  0  0  0  0  0  0  0  0  2 V2000
    0.6654   -1.1511    0.0000 C   0  0  0  0  0  0  0  0  0  0  0  0
    0.0000    0.0000    0.0000 C   0  0  0  0  0  0  0  0  0  0  0  0
    0.0000   -2.3023    0.0000 O   0  0  0  0  0  0  0  0  0  0  0  0
    1.9962   -1.1511    0.0000 C   0  0  0  0  0  0  0  0  0  0  0  0
    2.6616    0.0000    0.0000 C   0  0  0  0  0  0  0  0  0  0  0  0
    3.9924    0.0000    0.0000 C   0  0  0  0  0  0  0  0  0  0  0  0
    4.6578   -1.1511    0.0000 C   0  0  0  0  0  0  0  0  0  0  0  0
    3.9924   -2.3023    0.0000 C   0  0  0  0  0  0  0  0  0  0  0  0
    2.6616   -2.3023    0.0000 C   0  0  0  0  0  0  0  0  0  0  0  0
    5.9885   -1.1511    0.0000 N   0  3  0  0  0  0  0  0  0  0  0  0
    6.6539    0.0000    0.0000 O   0  0  0  0  0  0  0  0  0  0  0  0
    6.6539   -2.3023    0.0000 O   0  5  0  0  0  0  0  0  0  0  0  0
  1  2  1  0  0  0  0
  1  3  2  0  0  0  0
  1  4  1  0  0  0  0
  4  5  2  0  0  0  0
  4  9  1  0  0  0  0
  5  6  1  0  0  0  0
  6  7  2  0  0  0  0
  7  8  1  0  0  0  0
  7 10  1  0  0  0  0
  8  9  2  0  0  0  0
 10 11  2  0  0  0  0
 10 12  1  0  0  0  0
M  END
> <ID>
4368

> <Formula>
C8H7NO3

> <FW>
165.1461

> <DSSTox_CID>
5724

> <DSSTox_RID>
77893

> <DSSTox_GSID>
25724

> <DSSTox_FileID_Sort>
2576

> <TS_ChemName>
4-Nitroacetophenone

> <TS_ChemName_Synonyms>
4-Nitroacetophenone (p-Nitroacetophenone)

> <TS_CASRN>
100-19-6

> <CASRN_ChemName_Relationship>
primary

> <TS_Description>
single chemical compound

> <ChemNote>


> <STRUCTURE_Shown>
tested chemical

> <STRUCTURE_Formula>
C8H7NO3

> <STRUCTURE_MW>
165.1461

> <STRUCTURE_ChemType>
defined organic

> <STRUCTURE_DefinedOrganicForm>
parent

> <STRUCTURE_IUPAC>
1-(4-nitrophenyl)ethanone

> <STRUCTURE_SMILES>
O=[N+]([O-])c1ccc(cc1)C(C)=O

> <STRUCTURE_SMILES_Desalt>
O=[N+]([O-])c1ccc(cc1)C(C)=O

> <Substance_modify_yyyymmdd>
20080429

$$$$
