100-70-9
ChemmineR-0915142007XD

  8  8  0  0  0  0  0  0  0  0  1 V2000
    3.3250   -2.3036    0.0000 N   0  0  0  0  0  0  0  0  0  0  0  0
    2.6600   -1.1545    0.0000 C   0  0  0  0  0  0  0  0  0  0  0  0
    1.3300   -1.1545    0.0000 C   0  0  0  0  0  0  0  0  0  0  0  0
    0.0000   -1.1545    0.0000 N   0  0  0  0  0  0  0  0  0  0  0  0
    3.3250    0.0000    0.0000 C   0  0  0  0  0  0  0  0  0  0  0  0
    4.6551    0.0000    0.0000 C   0  0  0  0  0  0  0  0  0  0  0  0
    5.3201   -1.1545    0.0000 C   0  0  0  0  0  0  0  0  0  0  0  0
    4.6551   -2.3036    0.0000 C   0  0  0  0  0  0  0  0  0  0  0  0
  1  2  2  0  0  0  0
  1  8  1  0  0  0  0
  2  3  1  0  0  0  0
  2  5  1  0  0  0  0
  3  4  3  0  0  0  0
  5  6  2  0  0  0  0
  6  7  1  0  0  0  0
  7  8  2  0  0  0  0
M  END
> <ID>
1732

> <Formula>
C6H4N2

> <FW>
104.1094

> <DSSTox_CID>
1843

> <DSSTox_RID>
76362

> <DSSTox_GSID>
21843

> <DSSTox_FileID_Sort>
1046

> <TS_ChemName>
2-Pyridinecarbonitrile

> <TS_ChemName_Synonyms>
2-Pyridinecarbonitrile (2-Cyanopyridine)

> <TS_CASRN>
100-70-9

> <CASRN_ChemName_Relationship>
primary

> <TS_Description>
single chemical compound

> <ChemNote>


> <STRUCTURE_Shown>
tested chemical

> <STRUCTURE_Formula>
C6H4N2

> <STRUCTURE_MW>
104.1094

> <STRUCTURE_ChemType>
defined organic

> <STRUCTURE_DefinedOrganicForm>
parent

> <STRUCTURE_IUPAC>
pyridine-2-carbonitrile

> <STRUCTURE_SMILES>
N#Cc1ccccn1

> <STRUCTURE_SMILES_Desalt>
N#Cc1ccccn1

> <Substance_modify_yyyymmdd>
20080429

$$$$
