100-29-8
ChemmineR-0915142007XD

 12 12  0  0  0  0  0  0  0  0  2 V2000
    4.6567   -1.1482    0.0000 C   0  0  0  0  0  0  0  0  0  0  0  0
    3.9869   -2.3044    0.0000 C   0  0  0  0  0  0  0  0  0  0  0  0
    2.6553   -2.3044    0.0000 C   0  0  0  0  0  0  0  0  0  0  0  0
    2.0014   -1.1482    0.0000 C   0  0  0  0  0  0  0  0  0  0  0  0
    2.6553    0.0000    0.0000 C   0  0  0  0  0  0  0  0  0  0  0  0
    3.9869    0.0000    0.0000 C   0  0  0  0  0  0  0  0  0  0  0  0
    5.9883   -1.1482    0.0000 O   0  0  0  0  0  0  0  0  0  0  0  0
    6.6421    0.0000    0.0000 C   0  0  0  0  0  0  0  0  0  0  0  0
    7.9737    0.0000    0.0000 C   0  0  0  0  0  0  0  0  0  0  0  0
    0.6698   -1.1482    0.0000 N   0  3  0  0  0  0  0  0  0  0  0  0
    0.0000   -2.3044    0.0000 O   0  5  0  0  0  0  0  0  0  0  0  0
    0.0000    0.0000    0.0000 O   0  0  0  0  0  0  0  0  0  0  0  0
  1  2  2  0  0  0  0
  1  6  1  0  0  0  0
  1  7  1  0  0  0  0
  2  3  1  0  0  0  0
  3  4  2  0  0  0  0
  4  5  1  0  0  0  0
  4 10  1  0  0  0  0
  5  6  2  0  0  0  0
  7  8  1  0  0  0  0
  8  9  1  0  0  0  0
 10 11  1  0  0  0  0
 10 12  2  0  0  0  0
M  END
> <ID>
4754

> <Formula>
C8H9NO3

> <FW>
167.162

> <DSSTox_CID>
6655

> <DSSTox_RID>
78176

> <DSSTox_GSID>
26655

> <DSSTox_FileID_Sort>
2859

> <TS_ChemName>
1-Ethoxy-4-nitrobenzene

> <TS_ChemName_Synonyms>


> <TS_CASRN>
100-29-8

> <CASRN_ChemName_Relationship>
primary

> <TS_Description>
single chemical compound

> <ChemNote>


> <STRUCTURE_Shown>
tested chemical

> <STRUCTURE_Formula>
C8H9NO3

> <STRUCTURE_MW>
167.162

> <STRUCTURE_ChemType>
defined organic

> <STRUCTURE_DefinedOrganicForm>
parent

> <STRUCTURE_IUPAC>
1-ethoxy-4-nitrobenzene

> <STRUCTURE_SMILES>
CCOc1ccc(cc1)[N+]([O-])=O

> <STRUCTURE_SMILES_Desalt>
CCOc1ccc(cc1)[N+]([O-])=O

> <Substance_modify_yyyymmdd>
20080429

$$$$
