10016-20-3
ChemmineR-0915142007XD

 66 72  0  0  1  0  0  0  0  0  1 V2000
    5.7461   -2.0028    0.0000 C   0  0  0  0  0  0  0  0  0  0  0  0
    5.7461   -3.3427    0.0000 O   0  0  0  0  0  0  0  0  0  0  0  0
    4.5996   -1.3398    0.0000 C   0  0  0  0  0  0  0  0  0  0  0  0
    4.5996   -4.0057    0.0000 C   0  0  0  0  0  0  0  0  0  0  0  0
    3.4670   -2.0028    0.0000 C   0  0  0  0  0  0  0  0  0  0  0  0
    3.4670   -3.3427    0.0000 C   0  0  0  0  0  0  0  0  0  0  0  0
    6.9063   -1.3398    0.0000 O   0  0  0  0  0  0  0  0  0  0  0  0
    8.0528   -2.0166    0.0000 C   0  0  0  0  0  0  0  0  0  0  0  0
    6.9063   -4.0057    0.0000 C   0  0  0  0  0  0  0  0  0  0  0  0
    8.0528   -3.3427    0.0000 C   0  0  0  0  0  0  0  0  0  0  0  0
    9.2268   -1.3398    0.0000 C   0  0  0  0  0  0  0  0  0  0  0  0
   10.3457   -2.0166    0.0000 C   0  0  0  0  0  0  0  0  0  0  0  0
    9.2268   -4.0057    0.0000 O   0  0  0  0  0  0  0  0  0  0  0  0
   10.3457   -3.3427    0.0000 C   0  0  0  0  0  0  0  0  0  0  0  0
    4.5996   -5.3317    0.0000 C   0  0  0  0  0  0  0  0  0  0  0  0
    6.9063   -5.3317    0.0000 O   0  0  0  0  0  0  0  0  0  0  0  0
    5.7461   -5.9809    0.0000 O   0  0  0  0  0  0  0  0  0  0  0  0
    9.2268   -5.3317    0.0000 C   0  0  0  0  0  0  0  0  0  0  0  0
    8.0528   -5.9809    0.0000 O   0  0  0  0  0  0  0  0  0  0  0  0
   10.3457   -5.9809    0.0000 C   0  0  0  0  0  0  0  0  0  0  0  0
   11.5197   -4.0057    0.0000 O   0  0  0  0  0  0  0  0  0  0  0  0
   11.5197   -5.3317    0.0000 C   0  0  0  0  0  0  0  0  0  0  0  0
    3.4670   -5.9809    0.0000 O   0  0  0  0  0  0  0  0  0  0  0  0
    2.3067   -4.0057    0.0000 O   0  0  0  0  0  0  0  0  0  0  0  0
    2.3067   -5.3317    0.0000 C   0  0  0  0  0  0  0  0  0  0  0  0
    3.4393   -7.3069    0.0000 C   0  0  0  0  0  0  0  0  0  0  0  0
    2.3067   -7.9837    0.0000 C   0  0  0  0  0  0  0  0  0  0  0  0
    1.1603   -5.9809    0.0000 C   0  0  0  0  0  0  0  0  0  0  0  0
    1.1603   -7.3069    0.0000 C   0  0  0  0  0  0  0  0  0  0  0  0
    5.7461   -7.3345    0.0000 O   0  0  0  0  0  0  0  0  0  0  0  0
    4.5996   -7.9837    0.0000 C   0  0  0  0  0  0  0  0  0  0  0  0
    8.0528   -7.3069    0.0000 O   0  0  0  0  0  0  0  0  0  0  0  0
    6.9063   -7.9837    0.0000 O   0  0  0  0  0  0  0  0  0  0  0  0
   10.3457   -7.3069    0.0000 O   0  0  0  0  0  0  0  0  0  0  0  0
    9.2268   -7.9837    0.0000 C   0  0  0  0  0  0  0  0  0  0  0  0
   11.5197   -7.9837    0.0000 C   0  0  0  0  0  0  0  0  0  0  0  0
   12.6524   -5.9809    0.0000 C   0  0  0  0  0  0  0  0  0  0  0  0
   12.6524   -7.3069    0.0000 C   0  0  0  0  0  0  0  0  0  0  0  0
    9.2268   -9.3097    0.0000 C   0  0  0  0  0  0  0  0  0  0  0  0
   11.5197   -9.3097    0.0000 O   0  0  0  0  0  0  0  0  0  0  0  0
   10.3457   -9.9727    0.0000 C   0  0  0  0  0  0  0  0  0  0  0  0
    8.0528   -9.9727    0.0000 O   0  0  0  0  0  0  0  0  0  0  0  0
    6.9063   -9.3097    0.0000 C   0  0  0  0  0  0  0  0  0  0  0  0
    5.7599   -9.9727    0.0000 C   0  0  0  0  0  0  0  0  0  0  0  0
    4.5996   -9.3097    0.0000 O   0  0  0  0  0  0  0  0  0  0  0  0
    3.4393   -9.9865    0.0000 C   0  0  0  0  0  0  0  0  0  0  0  0
    2.3067   -9.3097    0.0000 O   0  0  0  0  0  0  0  0  0  0  0  0
    5.7599  -11.3126    0.0000 C   0  0  0  0  0  0  0  0  0  0  0  0
    3.4393  -11.3126    0.0000 C   0  0  0  0  0  0  0  0  0  0  0  0
    4.5996  -11.9756    0.0000 C   0  0  0  0  0  0  0  0  0  0  0  0
    8.0528  -11.2987    0.0000 C   0  0  0  0  0  0  0  0  0  0  0  0
    6.9063  -11.9756    0.0000 O   0  0  0  0  0  0  0  0  0  0  0  0
   10.3457  -11.3126    0.0000 C   0  0  0  0  0  0  0  0  0  0  0  0
    9.2268  -11.9756    0.0000 C   0  0  0  0  0  0  0  0  0  0  0  0
    4.5996    0.0000    0.0000 O   0  0  0  0  0  0  0  0  0  0  0  0
    9.2268    0.0000    0.0000 O   0  0  0  0  0  0  0  0  0  0  0  0
   11.5197   -1.3398    0.0000 O   0  0  0  0  0  0  0  0  0  0  0  0
    2.3067   -1.3398    0.0000 O   0  0  0  0  0  0  0  0  0  0  0  0
   13.8126   -5.3317    0.0000 O   0  0  0  0  0  0  0  0  0  0  0  0
   13.8126   -7.9837    0.0000 O   0  0  0  0  0  0  0  0  0  0  0  0
   11.5197  -11.9756    0.0000 O   0  0  0  0  0  0  0  0  0  0  0  0
    9.2268  -13.3016    0.0000 O   0  0  0  0  0  0  0  0  0  0  0  0
    4.5996  -13.3016    0.0000 O   0  0  0  0  0  0  0  0  0  0  0  0
    2.3067  -11.9756    0.0000 O   0  0  0  0  0  0  0  0  0  0  0  0
    0.0000   -7.9837    0.0000 O   0  0  0  0  0  0  0  0  0  0  0  0
    0.0000   -5.3317    0.0000 O   0  0  0  0  0  0  0  0  0  0  0  0
  1  3  1  0  0  0  0
  1  7  1  1  0  0  0
  1  2  1  0  0  0  0
  2  4  1  0  0  0  0
  3  5  1  0  0  0  0
  3 55  1  1  0  0  0
  4 15  1  6  0  0  0
  4  6  1  0  0  0  0
  5  6  1  0  0  0  0
  5 58  1  6  0  0  0
  6 24  1  1  0  0  0
  8  7  1  1  0  0  0
  8 11  1  0  0  0  0
  8 10  1  0  0  0  0
 10  9  1  6  0  0  0
  9 16  1  0  0  0  0
 10 13  1  0  0  0  0
 11 12  1  0  0  0  0
 11 56  1  6  0  0  0
 12 14  1  0  0  0  0
 12 57  1  1  0  0  0
 13 14  1  0  0  0  0
 14 21  1  1  0  0  0
 15 17  1  0  0  0  0
 20 18  1  6  0  0  0
 18 19  1  0  0  0  0
 20 34  1  0  0  0  0
 20 22  1  0  0  0  0
 22 21  1  1  0  0  0
 22 37  1  0  0  0  0
 23 25  1  0  0  0  0
 23 26  1  0  0  0  0
 25 24  1  1  0  0  0
 25 28  1  0  0  0  0
 26 31  1  6  0  0  0
 26 27  1  0  0  0  0
 27 29  1  0  0  0  0
 27 47  1  1  0  0  0
 28 29  1  0  0  0  0
 28 66  1  1  0  0  0
 29 65  1  6  0  0  0
 30 31  1  0  0  0  0
 32 35  1  0  0  0  0
 33 43  1  0  0  0  0
 34 36  1  0  0  0  0
 39 35  1  6  0  0  0
 36 38  1  0  0  0  0
 36 40  1  1  0  0  0
 37 38  1  0  0  0  0
 37 59  1  6  0  0  0
 38 60  1  1  0  0  0
 39 41  1  0  0  0  0
 39 42  1  0  0  0  0
 41 40  1  1  0  0  0
 41 53  1  0  0  0  0
 42 51  1  0  0  0  0
 44 43  1  6  0  0  0
 44 45  1  0  0  0  0
 44 48  1  0  0  0  0
 45 46  1  0  0  0  0
 46 47  1  1  0  0  0
 46 49  1  0  0  0  0
 48 50  1  0  0  0  0
 48 52  1  1  0  0  0
 49 50  1  0  0  0  0
 49 64  1  1  0  0  0
 50 63  1  6  0  0  0
 51 52  1  1  0  0  0
 51 54  1  0  0  0  0
 53 54  1  0  0  0  0
 53 61  1  6  0  0  0
 54 62  1  1  0  0  0
M  END
> <ID>
6282

> <Formula>
C36H60O30

> <FW>
972.8436

> <DSSTox_CID>
10698

> <DSSTox_RID>
78856

> <DSSTox_GSID>
30698

> <DSSTox_FileID_Sort>
3538

> <TS_ChemName>
alpha-Cyclodextrin

> <TS_ChemName_Synonyms>


> <TS_CASRN>
10016-20-3

> <CASRN_ChemName_Relationship>
primary

> <TS_Description>
single chemical compound

> <ChemNote>
stereochem; 6 membered sugar ring molecule

> <STRUCTURE_Shown>
tested chemical

> <STRUCTURE_Formula>
C36H60O30

> <STRUCTURE_MW>
972.8436

> <STRUCTURE_ChemType>
defined organic

> <STRUCTURE_DefinedOrganicForm>
parent

> <STRUCTURE_IUPAC>
(1S,3R,5R,6S,8R,10R,11S,13R,15R,16S,18R,20R,21S,23R,25R,26S,28R,30R,31R,32R,33R,34R,35R,36R,37R,38R,39R,40R,41R,42R)-5,10,15,20,25,30-hexakis(hydroxymethyl)-2,4,7,9,12,14,17,19,22,24,27,29-dodecaoxaheptacyclo[26.2.2.2~3,6~.2~8,11~.2~13,16~.2~18,21~.2~23,2

> <STRUCTURE_SMILES>
O[C@@H]2[C@@H](O)[C@@H]1O[C@H]7O[C@H](CO)[C@@H](O[C@H]6O[C@H](CO)[C@@H](O[C@H]5O[C@H](CO)[C@@H](O[C@H]4O[C@H](CO)[C@@H](O[C@H]3O[C@H](CO)[C@@H](O[C@H]2O[C@@H]1CO)[C@H](O)[C@H]3O)[C@H](O)[C@H]4O)[C@H](O)[C@H]5O)[C@H](O)[C@H]6O)[C@H](O)[C@H]7O

> <STRUCTURE_SMILES_Desalt>
O[C@@H]2[C@@H](O)[C@@H]1O[C@H]7O[C@H](CO)[C@@H](O[C@H]6O[C@H](CO)[C@@H](O[C@H]5O[C@H](CO)[C@@H](O[C@H]4O[C@H](CO)[C@@H](O[C@H]3O[C@H](CO)[C@@H](O[C@H]2O[C@@H]1CO)[C@H](O)[C@H]3O)[C@H](O)[C@H]4O)[C@H](O)[C@H]5O)[C@H](O)[C@H]6O)[C@H](O)[C@H]7O

> <Substance_modify_yyyymmdd>
20080429

$$$$
