1002-84-2
ChemmineR-0915142007XD

 17 16  0  0  0  0  0  0  0  0  1 V2000
   13.8275    0.0000    0.0000 O   0  0  0  0  0  0  0  0  0  0  0  0
   14.9892   -0.6615    0.0000 C   0  0  0  0  0  0  0  0  0  0  0  0
   16.1348    0.0000    0.0000 O   0  0  0  0  0  0  0  0  0  0  0  0
   14.9892   -2.0007    0.0000 C   0  0  0  0  0  0  0  0  0  0  0  0
   13.8275   -2.6622    0.0000 C   0  0  0  0  0  0  0  0  0  0  0  0
   12.6819   -2.0007    0.0000 C   0  0  0  0  0  0  0  0  0  0  0  0
   11.5202   -2.6622    0.0000 C   0  0  0  0  0  0  0  0  0  0  0  0
   10.3747   -2.0007    0.0000 C   0  0  0  0  0  0  0  0  0  0  0  0
    9.2130   -2.6622    0.0000 C   0  0  0  0  0  0  0  0  0  0  0  0
    8.0674   -2.0007    0.0000 C   0  0  0  0  0  0  0  0  0  0  0  0
    6.9218   -2.6622    0.0000 C   0  0  0  0  0  0  0  0  0  0  0  0
    5.7601   -2.0007    0.0000 C   0  0  0  0  0  0  0  0  0  0  0  0
    4.6145   -2.6622    0.0000 C   0  0  0  0  0  0  0  0  0  0  0  0
    3.4528   -2.0007    0.0000 C   0  0  0  0  0  0  0  0  0  0  0  0
    2.3073   -2.6622    0.0000 C   0  0  0  0  0  0  0  0  0  0  0  0
    1.1456   -2.0007    0.0000 C   0  0  0  0  0  0  0  0  0  0  0  0
    0.0000   -2.6622    0.0000 C   0  0  0  0  0  0  0  0  0  0  0  0
  1  2  2  0  0  0  0
  2  3  1  0  0  0  0
  2  4  1  0  0  0  0
  4  5  1  0  0  0  0
  5  6  1  0  0  0  0
  6  7  1  0  0  0  0
  7  8  1  0  0  0  0
  8  9  1  0  0  0  0
  9 10  1  0  0  0  0
 10 11  1  0  0  0  0
 11 12  1  0  0  0  0
 12 13  1  0  0  0  0
 13 14  1  0  0  0  0
 14 15  1  0  0  0  0
 15 16  1  0  0  0  0
 16 17  1  0  0  0  0
M  END
> <ID>
1589

> <Formula>
C15H30O2

> <FW>
242.3975

> <DSSTox_CID>
1652

> <DSSTox_RID>
76264

> <DSSTox_GSID>
21652

> <DSSTox_FileID_Sort>
948

> <TS_ChemName>
Pentadecanoic acid

> <TS_ChemName_Synonyms>


> <TS_CASRN>
1002-84-2

> <CASRN_ChemName_Relationship>
primary

> <TS_Description>
single chemical compound

> <ChemNote>


> <STRUCTURE_Shown>
tested chemical

> <STRUCTURE_Formula>
C15H30O2

> <STRUCTURE_MW>
242.3975

> <STRUCTURE_ChemType>
defined organic

> <STRUCTURE_DefinedOrganicForm>
parent

> <STRUCTURE_IUPAC>
pentadecanoic acid

> <STRUCTURE_SMILES>
O=C(O)CCCCCCCCCCCCCC

> <STRUCTURE_SMILES_Desalt>
O=C(O)CCCCCCCCCCCCCC

> <Substance_modify_yyyymmdd>
20080429

$$$$
