10025-82-8
ChemmineR-0915142007XD

  4  3  0  0  0  0  0  0  0  0  1 V2000
    2.3063   -1.9927    0.0000 Cl   0  0  0  0  0  0  0  0  0  0  0  0
    0.0000   -1.9927    0.0000 Cl   0  0  0  0  0  0  0  0  0  0  0  0
    1.1532   -1.3284    0.0000 In   0  0  0  0  0  0  0  0  0  0  0  0
    1.1532    0.0000    0.0000 Cl   0  0  0  0  0  0  0  0  0  0  0  0
  1  3  1  0  0  0  0
  2  3  1  0  0  0  0
  3  4  1  0  0  0  0
M  END
> <ID>
6637

> <Formula>
Cl3In

> <FW>
221.177

> <DSSTox_CID>
13566

> <DSSTox_RID>
79086

> <DSSTox_GSID>
33566

> <DSSTox_FileID_Sort>
3768

> <TS_ChemName>
Indium trichloride

> <TS_ChemName_Synonyms>


> <TS_CASRN>
10025-82-8

> <CASRN_ChemName_Relationship>
primary

> <TS_Description>
single chemical compound

> <ChemNote>


> <STRUCTURE_Shown>
tested chemical

> <STRUCTURE_Formula>
Cl3In

> <STRUCTURE_MW>
221.177

> <STRUCTURE_ChemType>
inorganic

> <STRUCTURE_DefinedOrganicForm>


> <STRUCTURE_IUPAC>
indium trichloride

> <STRUCTURE_SMILES>
Cl[In](Cl)Cl

> <STRUCTURE_SMILES_Desalt>
Cl[In](Cl)Cl

> <Substance_modify_yyyymmdd>
20080429

$$$$
