10026-13-8
ChemmineR-0915142007XD

  6  5  0  0  0  0  0  0  0  0  1 V2000
    1.0727   -1.2650    0.0000 P    0  0  0  0  0  0  0  0  0  0  0  0
    1.4901   -2.5299    0.0000 Cl   0  0  0  0  0  0  0  0  0  0  0  0
    0.0000   -2.0493    0.0000 Cl   0  0  0  0  0  0  0  0  0  0  0  0
    0.0000   -0.4807    0.0000 Cl   0  0  0  0  0  0  0  0  0  0  0  0
    1.4901    0.0000    0.0000 Cl   0  0  0  0  0  0  0  0  0  0  0  0
    2.4009   -1.2650    0.0000 Cl   0  0  0  0  0  0  0  0  0  0  0  0
  1  2  1  0  0  0  0
  1  3  1  0  0  0  0
  1  4  1  0  0  0  0
  1  5  1  0  0  0  0
  1  6  1  0  0  0  0
M  END
> <ID>
6650

> <Formula>
Cl5P

> <FW>
208.2388

> <DSSTox_CID>
13896

> <DSSTox_RID>
79101

> <DSSTox_GSID>
33896

> <DSSTox_FileID_Sort>
3783

> <TS_ChemName>
Phosphorus pentachloride

> <TS_ChemName_Synonyms>


> <TS_CASRN>
10026-13-8

> <CASRN_ChemName_Relationship>
primary

> <TS_Description>
single chemical compound

> <ChemNote>


> <STRUCTURE_Shown>
tested chemical

> <STRUCTURE_Formula>
Cl5P

> <STRUCTURE_MW>
208.2388

> <STRUCTURE_ChemType>
inorganic

> <STRUCTURE_DefinedOrganicForm>


> <STRUCTURE_IUPAC>
pentachloro-lambda~5~-phosphane

> <STRUCTURE_SMILES>
ClP(Cl)(Cl)(Cl)Cl

> <STRUCTURE_SMILES_Desalt>
ClP(Cl)(Cl)(Cl)Cl

> <Substance_modify_yyyymmdd>
20080429

$$$$
