10025-91-9
ChemmineR-0915142007XD

  4  3  0  0  0  0  0  0  0  0  1 V2000
    1.9950    0.0000    0.0000 Cl   0  0  0  0  0  0  0  0  0  0  0  0
    1.3292   -1.1518    0.0000 Sb   0  0  0  0  0  0  0  0  0  0  0  0
    0.0000   -1.1518    0.0000 Cl   0  0  0  0  0  0  0  0  0  0  0  0
    1.9950   -2.3037    0.0000 Cl   0  0  0  0  0  0  0  0  0  0  0  0
  1  2  1  0  0  0  0
  2  3  1  0  0  0  0
  2  4  1  0  0  0  0
M  END
> <ID>
9885

> <Formula>
Cl3Sb

> <FW>
228.119

> <DSSTox_CID>
24161

> <DSSTox_RID>
80109

> <DSSTox_GSID>
44161

> <DSSTox_FileID_Sort>
4791

> <TS_ChemName>
Antimony trichloride

> <TS_ChemName_Synonyms>


> <TS_CASRN>
10025-91-9

> <CASRN_ChemName_Relationship>
primary

> <TS_Description>
single chemical compound

> <ChemNote>


> <STRUCTURE_Shown>
tested chemical

> <STRUCTURE_Formula>
Cl3Sb

> <STRUCTURE_MW>
228.119

> <STRUCTURE_ChemType>
inorganic

> <STRUCTURE_DefinedOrganicForm>


> <STRUCTURE_IUPAC>
trichlorostibane

> <STRUCTURE_SMILES>
Cl[Sb](Cl)Cl

> <STRUCTURE_SMILES_Desalt>
Cl[Sb](Cl)Cl

> <Substance_modify_yyyymmdd>
20090225

$$$$
