10025-74-8
ChemmineR-0915142007XD

  4  3  0  0  0  0  0  0  0  0  1 V2000
    0.6654   -1.1512    0.0000 Dy   0  0  0  0  0  0  0  0  0  0  0  0
    1.9961   -1.1512    0.0000 Cl   0  0  0  0  0  0  0  0  0  0  0  0
    0.0000    0.0000    0.0000 Cl   0  0  0  0  0  0  0  0  0  0  0  0
    0.0000   -2.3023    0.0000 Cl   0  0  0  0  0  0  0  0  0  0  0  0
  1  2  1  0  0  0  0
  1  3  1  0  0  0  0
  1  4  1  0  0  0  0
M  END
> <ID>
8855

> <Formula>
Cl3Dy

> <FW>
268.859

> <DSSTox_CID>
21909

> <DSSTox_RID>
79872

> <DSSTox_GSID>
41909

> <DSSTox_FileID_Sort>
4554

> <TS_ChemName>
Dysprosium(III) chloride

> <TS_ChemName_Synonyms>
Dysprosium(III) chloride (Dysprosium chloride) (DyCl3)

> <TS_CASRN>
10025-74-8

> <CASRN_ChemName_Relationship>
primary

> <TS_Description>
single chemical compound

> <ChemNote>


> <STRUCTURE_Shown>
tested chemical

> <STRUCTURE_Formula>
Cl3Dy

> <STRUCTURE_MW>
268.859

> <STRUCTURE_ChemType>
inorganic

> <STRUCTURE_DefinedOrganicForm>


> <STRUCTURE_IUPAC>
dysprosium trichloride

> <STRUCTURE_SMILES>
Cl[Dy](Cl)Cl

> <STRUCTURE_SMILES_Desalt>
Cl[Dy](Cl)Cl

> <Substance_modify_yyyymmdd>
20080825

$$$$
