10022-31-8
ChemmineR-0915142007XD

  9  6  0  0  0  0  0  0  0  0  2 V2000
    3.5066   -1.2603    0.0000 Ba   0  2  0  0  0  0  0  0  0  0  0  0
    6.0940   -1.1788    0.0000 N    0  3  0  0  0  0  0  0  0  0  0  0
    5.4342   -0.0297    0.0000 O    0  5  0  0  0  0  0  0  0  0  0  0
    7.4136   -1.1788    0.0000 O    0  0  0  0  0  0  0  0  0  0  0  0
    5.4193   -2.3427    0.0000 O    0  5  0  0  0  0  0  0  0  0  0  0
    1.3196   -1.1639    0.0000 N    0  3  0  0  0  0  0  0  0  0  0  0
    1.9794   -2.3130    0.0000 O    0  5  0  0  0  0  0  0  0  0  0  0
    0.0000   -1.1639    0.0000 O    0  0  0  0  0  0  0  0  0  0  0  0
    1.9943    0.0000    0.0000 O    0  5  0  0  0  0  0  0  0  0  0  0
  2  3  1  0  0  0  0
  2  4  2  0  0  0  0
  2  5  1  0  0  0  0
  6  7  1  0  0  0  0
  6  8  2  0  0  0  0
  6  9  1  0  0  0  0
M  END
> <ID>
13545

> <Formula>
BaN2O6

> <FW>
261.3368 (137.3259+62.0054+62.0054)

> <DSSTox_CID>
28471

> <DSSTox_RID>
83275

> <DSSTox_GSID>
49200

> <DSSTox_FileID_Sort>
7950

> <TS_ChemName>
Barium nitrate

> <TS_ChemName_Synonyms>


> <TS_CASRN>
10022-31-8

> <CASRN_ChemName_Relationship>
primary

> <TS_Description>
single chemical compound

> <ChemNote>


> <STRUCTURE_Shown>
tested chemical

> <STRUCTURE_Formula>
BaN2O6

> <STRUCTURE_MW>
261.3368

> <STRUCTURE_ChemType>
inorganic

> <STRUCTURE_DefinedOrganicForm>


> <STRUCTURE_IUPAC>
barium dinitrate

> <STRUCTURE_SMILES>
[Ba+2].[O-][N+]([O-])=O.[O-][N+]([O-])=O

> <STRUCTURE_SMILES_Desalt>
[O-][N+](=O)O

> <Substance_modify_yyyymmdd>
20111204

$$$$
