10023-54-8
ChemmineR-0915142007XD

 31 33  0  0  0  0  0  0  0  0  1 V2000
    2.3017    0.0000    0.0000 C    0  0  0  0  0  0  0  0  0  0  0  0
    1.1509   -0.6703    0.0000 C    0  0  0  0  0  0  0  0  0  0  0  0
    1.1509   -1.9982    0.0000 N    0  0  0  0  0  0  0  0  0  0  0  0
    0.0000   -2.6685    0.0000 C    0  0  0  0  0  0  0  0  0  0  0  0
    0.0000   -3.9964    0.0000 C    0  0  0  0  0  0  0  0  0  0  0  0
    2.3017   -2.6685    0.0000 C    0  0  0  0  0  0  0  0  0  0  0  0
    2.3017   -3.9964    0.0000 C    0  0  0  0  0  0  0  0  0  0  0  0
    3.4526   -4.6667    0.0000 C    0  0  0  0  0  0  0  0  0  0  0  0
    4.6161   -3.9964    0.0000 C    0  0  0  0  0  0  0  0  0  0  0  0
    4.6161   -2.6685    0.0000 C    0  0  0  0  0  0  0  0  0  0  0  0
    5.7670   -4.6667    0.0000 N    0  0  0  0  0  0  0  0  0  0  0  0
    5.7670   -5.9820    0.0000 C    0  0  0  0  0  0  0  0  0  0  0  0
    6.9178   -6.6649    0.0000 C    0  0  0  0  0  0  0  0  0  0  0  0
    8.0687   -5.9820    0.0000 C    0  0  0  0  0  0  0  0  0  0  0  0
    9.2195   -6.6649    0.0000 C    0  0  0  0  0  0  0  0  0  0  0  0
    9.2195   -8.0054    0.0000 C    0  0  0  0  0  0  0  0  0  0  0  0
    8.0687   -8.6504    0.0000 C    0  0  0  0  0  0  0  0  0  0  0  0
    6.9178   -8.0054    0.0000 C    0  0  0  0  0  0  0  0  0  0  0  0
    5.7670   -8.6504    0.0000 N    0  0  0  0  0  0  0  0  0  0  0  0
    4.6161   -8.0054    0.0000 C    0  0  0  0  0  0  0  0  0  0  0  0
    4.6161   -6.6649    0.0000 C    0  0  0  0  0  0  0  0  0  0  0  0
    3.4526   -8.6504    0.0000 C    0  0  0  0  0  0  0  0  0  0  0  0
    3.4526   -9.9784    0.0000 C    0  0  0  0  0  0  0  0  0  0  0  0
    2.3017  -10.6486    0.0000 C    0  0  0  0  0  0  0  0  0  0  0  0
    2.3017  -11.9766    0.0000 C    0  0  0  0  0  0  0  0  0  0  0  0
    1.1509  -12.6468    0.0000 C    0  0  0  0  0  0  0  0  0  0  0  0
    0.0000  -11.9766    0.0000 C    0  0  0  0  0  0  0  0  0  0  0  0
    0.0000  -10.6486    0.0000 C    0  0  0  0  0  0  0  0  0  0  0  0
    1.1509   -9.9784    0.0000 C    0  0  0  0  0  0  0  0  0  0  0  0
    1.1509   -8.6504    0.0000 Cl   0  0  0  0  0  0  0  0  0  0  0  0
   10.3578   -8.6504    0.0000 Cl   0  0  0  0  0  0  0  0  0  0  0  0
  1  2  1  0  0  0  0
  2  3  1  0  0  0  0
  3  4  1  0  0  0  0
  3  6  1  0  0  0  0
  4  5  1  0  0  0  0
  6  7  1  0  0  0  0
  7  8  1  0  0  0  0
  8  9  1  0  0  0  0
  9 10  1  0  0  0  0
  9 11  1  0  0  0  0
 11 12  1  0  0  0  0
 12 13  2  0  0  0  0
 12 21  1  0  0  0  0
 13 14  1  0  0  0  0
 13 18  1  0  0  0  0
 14 15  2  0  0  0  0
 15 16  1  0  0  0  0
 16 17  2  0  0  0  0
 16 31  1  0  0  0  0
 17 18  1  0  0  0  0
 18 19  2  0  0  0  0
 19 20  1  0  0  0  0
 20 21  2  0  0  0  0
 20 22  1  0  0  0  0
 22 23  2  3  0  0  0
 23 24  1  0  0  0  0
 24 25  2  0  0  0  0
 24 29  1  0  0  0  0
 25 26  1  0  0  0  0
 26 27  2  0  0  0  0
 27 28  1  0  0  0  0
 28 29  2  0  0  0  0
 29 30  1  0  0  0  0
M  END
> <ID>
11501

> <Formula>
C26H31Cl2N3

> <FW>
456.4504

> <DSSTox_CID>
26205

> <DSSTox_RID>
81434

> <DSSTox_GSID>
46205

> <DSSTox_FileID_Sort>
6115

> <TS_ChemName>
Aminoquinol

> <TS_ChemName_Synonyms>


> <TS_CASRN>
10023-54-8

> <CASRN_ChemName_Relationship>
primary

> <TS_Description>
mixture of Z,E isomers

> <ChemNote>
mixture of Z,E isomers

> <STRUCTURE_Shown>
representative isomer in mixture

> <STRUCTURE_Formula>
C26H31Cl2N3

> <STRUCTURE_MW>
456.4504

> <STRUCTURE_ChemType>
defined organic

> <STRUCTURE_DefinedOrganicForm>
parent

> <STRUCTURE_IUPAC>
N~4~-{7-chloro-2-[2-(2-chlorophenyl)ethenyl]quinolin-4-yl}-N~1~,N~1~-diethylpentane-1,4-diamine

> <STRUCTURE_SMILES>
CCN(CC)CCCC(C)Nc2cc(C=Cc1ccccc1Cl)nc3cc(Cl)ccc23

> <STRUCTURE_SMILES_Desalt>
CCN(CC)CCCC(C)Nc2cc(C=Cc1ccccc1Cl)nc3cc(Cl)ccc23

> <Substance_modify_yyyymmdd>
20110817

$$$$
