100286-90-6
ChemmineR-0915142007XD

 44 49  0  0  1  0  0  0  0  0  1 V2000
    6.9198  -11.9713    0.0000 Cl   0  0  0  0  0  0  0  0  0  0  0  0
    8.0824  -10.6427    0.0000 C    0  0  0  0  0  0  0  0  0  0  0  0
    6.9337   -9.9784    0.0000 C    0  0  0  0  0  0  0  0  0  0  0  0
    6.9337   -8.6498    0.0000 C    0  0  0  0  0  0  0  0  0  0  0  0
    5.7711   -7.9855    0.0000 C    0  0  0  0  0  0  0  0  0  0  0  0
    4.5117   -8.3868    0.0000 C    0  0  0  0  0  0  0  0  0  0  0  0
    3.7229   -7.3212    0.0000 N    0  0  0  0  0  0  0  0  0  0  0  0
    2.4081   -7.1828    0.0000 C    0  0  0  0  0  0  0  0  0  0  0  0
    1.6192   -8.2484    0.0000 O    0  0  0  0  0  0  0  0  0  0  0  0
    1.8684   -5.9649    0.0000 C    0  0  0  0  0  0  0  0  0  0  0  0
    2.6434   -4.8854    0.0000 C    0  0  0  0  0  0  0  0  0  0  0  0
    3.9720   -5.0238    0.0000 C    0  0  0  0  0  0  0  0  0  0  0  0
    4.5117   -6.2417    0.0000 C    0  0  0  0  0  0  0  0  0  0  0  0
    5.7711   -6.6569    0.0000 C    0  0  0  0  0  0  0  0  0  0  0  0
    6.9337   -5.9787    0.0000 N    0  0  0  0  0  0  0  0  0  0  0  0
    8.0824   -6.6569    0.0000 C    0  0  0  0  0  0  0  0  0  0  0  0
    9.2311   -5.9787    0.0000 C    0  0  0  0  0  0  0  0  0  0  0  0
   10.3798   -6.6569    0.0000 C    0  0  0  0  0  0  0  0  0  0  0  0
   10.3798   -7.9855    0.0000 C    0  0  0  0  0  0  0  0  0  0  0  0
   11.5423   -8.6498    0.0000 O    0  0  0  0  0  0  0  0  0  0  0  0
   12.6910   -7.9855    0.0000 C    0  0  0  0  0  0  0  0  0  0  0  0
   13.8397   -8.6498    0.0000 O    0  0  0  0  0  0  0  0  0  0  0  0
   12.6910   -6.6569    0.0000 N    0  0  0  0  0  0  0  0  0  0  0  0
   11.5423   -5.9787    0.0000 C    0  0  0  0  0  0  0  0  0  0  0  0
   11.5423   -4.6501    0.0000 C    0  0  0  0  0  0  0  0  0  0  0  0
   12.6910   -3.9858    0.0000 C    0  0  0  0  0  0  0  0  0  0  0  0
   13.8397   -4.6501    0.0000 C    0  0  0  0  0  0  0  0  0  0  0  0
   13.8397   -5.9787    0.0000 C    0  0  0  0  0  0  0  0  0  0  0  0
   12.6910   -2.6572    0.0000 N    0  0  0  0  0  0  0  0  0  0  0  0
   11.5423   -1.9929    0.0000 C    0  0  0  0  0  0  0  0  0  0  0  0
   11.5423   -0.6643    0.0000 C    0  0  0  0  0  0  0  0  0  0  0  0
   12.6910    0.0000    0.0000 C    0  0  0  0  0  0  0  0  0  0  0  0
   13.8397   -0.6643    0.0000 C    0  0  0  0  0  0  0  0  0  0  0  0
   13.8397   -1.9929    0.0000 C    0  0  0  0  0  0  0  0  0  0  0  0
    9.2311   -8.6498    0.0000 C    0  0  0  0  0  0  0  0  0  0  0  0
    8.0824   -7.9855    0.0000 C    0  0  0  0  0  0  0  0  0  0  0  0
    2.1036   -3.6675    0.0000 C    0  0  0  0  0  0  0  0  0  0  0  0
    3.3907   -3.3492    0.0000 O    0  0  0  0  0  0  0  0  0  0  0  0
    2.0068   -2.3389    0.0000 C    0  0  0  0  0  0  0  0  0  0  0  0
    0.8165   -1.7576    0.0000 C    0  0  0  0  0  0  0  0  0  0  0  0
    0.7750   -3.5291    0.0000 C    0  0  0  0  0  0  0  0  0  0  0  0
    0.2353   -2.3112    0.0000 O    0  0  0  0  0  0  0  0  0  0  0  0
    0.0000   -4.6086    0.0000 O    0  0  0  0  0  0  0  0  0  0  0  0
    0.5397   -5.8265    0.0000 C    0  0  0  0  0  0  0  0  0  0  0  0
  2  3  1  0  0  0  0
  3  4  1  0  0  0  0
  4  5  2  0  0  0  0
  4 36  1  0  0  0  0
  5  6  1  0  0  0  0
  5 14  1  0  0  0  0
  6  7  1  0  0  0  0
  7  8  1  0  0  0  0
  7 13  1  0  0  0  0
  8  9  2  0  0  0  0
  8 10  1  0  0  0  0
 10 11  2  0  0  0  0
 10 44  1  0  0  0  0
 11 12  1  0  0  0  0
 11 37  1  0  0  0  0
 12 13  2  0  0  0  0
 13 14  1  0  0  0  0
 14 15  2  0  0  0  0
 15 16  1  0  0  0  0
 16 17  2  0  0  0  0
 16 36  1  0  0  0  0
 17 18  1  0  0  0  0
 18 19  2  0  0  0  0
 19 20  1  0  0  0  0
 19 35  1  0  0  0  0
 20 21  1  0  0  0  0
 21 22  2  0  0  0  0
 21 23  1  0  0  0  0
 23 24  1  0  0  0  0
 23 28  1  0  0  0  0
 24 25  1  0  0  0  0
 25 26  1  0  0  0  0
 26 27  1  0  0  0  0
 26 29  1  0  0  0  0
 27 28  1  0  0  0  0
 29 30  1  0  0  0  0
 29 34  1  0  0  0  0
 30 31  1  0  0  0  0
 31 32  1  0  0  0  0
 32 33  1  0  0  0  0
 33 34  1  0  0  0  0
 35 36  2  0  0  0  0
 37 38  1  1  0  0  0
 37 39  1  6  0  0  0
 37 41  1  0  0  0  0
 39 40  1  0  0  0  0
 41 42  2  0  0  0  0
 41 43  1  0  0  0  0
 43 44  1  0  0  0  0
M  END
> <ID>
11317

> <Formula>
C33H39ClN4O6

> <FW>
623.1390 (36.4609+586.6780)

> <DSSTox_CID>
25953

> <DSSTox_RID>
81249

> <DSSTox_GSID>
45953

> <DSSTox_FileID_Sort>
5930

> <TS_ChemName>
Irinotecan hydrochloride

> <TS_ChemName_Synonyms>


> <TS_CASRN>
100286-90-6

> <CASRN_ChemName_Relationship>
primary

> <TS_Description>
single chemical compound

> <ChemNote>
stereochem; parent [97682-44-5]

> <STRUCTURE_Shown>
tested chemical

> <STRUCTURE_Formula>
C33H39ClN4O6

> <STRUCTURE_MW>
623.139

> <STRUCTURE_ChemType>
defined organic

> <STRUCTURE_DefinedOrganicForm>
complex

> <STRUCTURE_IUPAC>
(4S)-4,11-diethyl-4-hydroxy-3,14-dioxo-3,4,12,14-tetrahydro-1H-pyrano[3',4':6,7]indolizino[1,2-b]quinolin-9-yl 1,4'-bipiperidine-1'-carboxylate hydrochloride (1:1)

> <STRUCTURE_SMILES>
Cl.CC[C@]3(O)C=4C=C5c6nc7ccc(OC(=O)N1CCC(CC1)N2CCCCC2)cc7c(CC)c6CN5C(=O)C=4COC3=O

> <STRUCTURE_SMILES_Desalt>
CC[C@]3(O)C=4C=C5c6nc7ccc(OC(=O)N1CCC(CC1)N2CCCCC2)cc7c(CC)c6CN5C(=O)C=4COC3=O

> <Substance_modify_yyyymmdd>
20110930

$$$$
