10032-15-2
ChemmineR-0915142007XD

 13 12  0  0  0  0  0  0  0  0  1 V2000
    3.4380   -1.3338    0.0000 C   0  0  0  0  0  0  0  0  0  0  0  0
    3.4380    0.0000    0.0000 O   0  0  0  0  0  0  0  0  0  0  0  0
    4.5993   -2.0007    0.0000 O   0  0  0  0  0  0  0  0  0  0  0  0
    2.2882   -2.0007    0.0000 C   0  0  0  0  0  0  0  0  0  0  0  0
    1.1383   -1.3338    0.0000 C   0  0  0  0  0  0  0  0  0  0  0  0
    0.0000   -2.0007    0.0000 C   0  0  0  0  0  0  0  0  0  0  0  0
    2.2882   -3.3345    0.0000 C   0  0  0  0  0  0  0  0  0  0  0  0
    5.7491   -1.3338    0.0000 C   0  0  0  0  0  0  0  0  0  0  0  0
    6.8990   -2.0007    0.0000 C   0  0  0  0  0  0  0  0  0  0  0  0
    8.0603   -1.3338    0.0000 C   0  0  0  0  0  0  0  0  0  0  0  0
    9.2101   -2.0007    0.0000 C   0  0  0  0  0  0  0  0  0  0  0  0
   10.3600   -1.3338    0.0000 C   0  0  0  0  0  0  0  0  0  0  0  0
   11.4983   -2.0007    0.0000 C   0  0  0  0  0  0  0  0  0  0  0  0
  1  2  2  0  0  0  0
  1  3  1  0  0  0  0
  1  4  1  0  0  0  0
  3  8  1  0  0  0  0
  4  5  1  0  0  0  0
  4  7  1  0  0  0  0
  5  6  1  0  0  0  0
  8  9  1  0  0  0  0
  9 10  1  0  0  0  0
 10 11  1  0  0  0  0
 11 12  1  0  0  0  0
 12 13  1  0  0  0  0
M  END
> <ID>
12721

> <Formula>
C11H22O2

> <FW>
186.2912

> <DSSTox_CID>
27599

> <DSSTox_RID>
82444

> <DSSTox_GSID>
47599

> <DSSTox_FileID_Sort>
7125

> <TS_ChemName>
Hexyl 2-methylbutanoate

> <TS_ChemName_Synonyms>


> <TS_CASRN>
10032-15-2

> <CASRN_ChemName_Relationship>
primary

> <TS_Description>
single chemical compound

> <ChemNote>


> <STRUCTURE_Shown>
tested chemical

> <STRUCTURE_Formula>
C11H22O2

> <STRUCTURE_MW>
186.2912

> <STRUCTURE_ChemType>
defined organic

> <STRUCTURE_DefinedOrganicForm>
parent

> <STRUCTURE_IUPAC>
hexyl 2-methylbutanoate

> <STRUCTURE_SMILES>
O=C(OCCCCCC)C(C)CC

> <STRUCTURE_SMILES_Desalt>
O=C(OCCCCCC)C(C)CC

> <Substance_modify_yyyymmdd>
20101021

$$$$
