10040-45-6
ChemmineR-0915142007XD

 31 31  0  0  0  0  0  0  0  0  2 V2000
    1.1058   -5.9023    0.0000 S    0  0  0  0  0  0  0  0  0  0  0  0
   12.6754   -5.9023    0.0000 S    0  0  0  0  0  0  0  0  0  0  0  0
    0.0000   -5.1973    0.0000 O    0  5  0  0  0  0  0  0  0  0  0  0
   13.8227   -5.1973    0.0000 O    0  5  0  0  0  0  0  0  0  0  0  0
    2.2531   -6.5934    0.0000 O    0  0  0  0  0  0  0  0  0  0  0  0
   11.5281   -6.5934    0.0000 O    0  0  0  0  0  0  0  0  0  0  0  0
    1.8384   -4.7550    0.0000 O    0  0  0  0  0  0  0  0  0  0  0  0
    0.4147   -6.9943    0.0000 O    0  0  0  0  0  0  0  0  0  0  0  0
   11.9843   -4.7965    0.0000 O    0  0  0  0  0  0  0  0  0  0  0  0
   13.3666   -6.9943    0.0000 O    0  0  0  0  0  0  0  0  0  0  0  0
    6.9114   -3.9533    0.0000 C    0  0  0  0  0  0  0  0  0  0  0  0
    5.7641   -1.9766    0.0000 N    0  0  0  0  0  0  0  0  0  0  0  0
    8.0586   -4.6030    0.0000 C    0  0  0  0  0  0  0  0  0  0  0  0
    5.7641   -4.6583    0.0000 C    0  0  0  0  0  0  0  0  0  0  0  0
    6.9114   -2.6263    0.0000 C    0  0  0  0  0  0  0  0  0  0  0  0
    4.6168   -3.9533    0.0000 C    0  0  0  0  0  0  0  0  0  0  0  0
    5.7641   -5.9438    0.0000 C    0  0  0  0  0  0  0  0  0  0  0  0
    9.2059   -3.9533    0.0000 C    0  0  0  0  0  0  0  0  0  0  0  0
    8.0586   -5.9438    0.0000 C    0  0  0  0  0  0  0  0  0  0  0  0
    3.4419   -5.9438    0.0000 C    0  0  0  0  0  0  0  0  0  0  0  0
   10.3809   -5.9438    0.0000 C    0  0  0  0  0  0  0  0  0  0  0  0
    4.6168   -6.6487    0.0000 C    0  0  0  0  0  0  0  0  0  0  0  0
    9.2059   -6.6487    0.0000 C    0  0  0  0  0  0  0  0  0  0  0  0
    3.4419   -4.6583    0.0000 C    0  0  0  0  0  0  0  0  0  0  0  0
   10.3809   -4.6583    0.0000 C    0  0  0  0  0  0  0  0  0  0  0  0
    5.7641   -0.6358    0.0000 C    0  0  0  0  0  0  0  0  0  0  0  0
    8.0586   -1.9766    0.0000 C    0  0  0  0  0  0  0  0  0  0  0  0
    6.9114    0.0000    0.0000 C    0  0  0  0  0  0  0  0  0  0  0  0
    8.0586   -0.6358    0.0000 C    0  0  0  0  0  0  0  0  0  0  0  0
    2.4881   -8.2936    0.0000 Na   0  3  0  0  0  0  0  0  0  0  0  0
   10.4361   -8.1139    0.0000 Na   0  3  0  0  0  0  0  0  0  0  0  0
  1  3  1  0  0  0  0
  1  5  1  0  0  0  0
  1  7  2  0  0  0  0
  1  8  2  0  0  0  0
  2  6  1  0  0  0  0
  2  4  1  0  0  0  0
  2  9  2  0  0  0  0
  2 10  2  0  0  0  0
  5 20  1  0  0  0  0
  6 21  1  0  0  0  0
 11 14  1  0  0  0  0
 11 13  1  0  0  0  0
 11 15  1  0  0  0  0
 12 15  1  0  0  0  0
 12 26  2  0  0  0  0
 13 18  1  0  0  0  0
 13 19  2  0  0  0  0
 14 16  2  0  0  0  0
 14 17  1  0  0  0  0
 15 27  2  0  0  0  0
 16 24  1  0  0  0  0
 17 22  2  0  0  0  0
 18 25  2  0  0  0  0
 19 23  1  0  0  0  0
 20 22  1  0  0  0  0
 20 24  2  0  0  0  0
 21 23  2  0  0  0  0
 21 25  1  0  0  0  0
 26 28  1  0  0  0  0
 27 29  1  0  0  0  0
 28 29  2  0  0  0  0
M  END
> <ID>
13658

> <Formula>
C18H13NNa2O8S2

> <FW>
481.4073 (435.4288+22.9892+22.9892)

> <DSSTox_CID>
28589

> <DSSTox_RID>
82860

> <DSSTox_GSID>
48663

> <DSSTox_FileID_Sort>
7537

> <TS_ChemName>
Picosulfate sodium

> <TS_ChemName_Synonyms>


> <TS_CASRN>
10040-45-6

> <CASRN_ChemName_Relationship>
primary

> <TS_Description>
single chemical compound

> <ChemNote>


> <STRUCTURE_Shown>
tested chemical

> <STRUCTURE_Formula>
C18H13NNa2O8S2

> <STRUCTURE_MW>
481.4073

> <STRUCTURE_ChemType>
defined organic

> <STRUCTURE_DefinedOrganicForm>
salt

> <STRUCTURE_IUPAC>
disodium (pyridin-2-ylmethanediyl)dibenzene-4,1-diyl disulfate

> <STRUCTURE_SMILES>
[Na+].[Na+].[O-]S(=O)(=O)Oc1ccc(cc1)C(c2ccc(OS([O-])(=O)=O)cc2)c3ccccn3

> <STRUCTURE_SMILES_Desalt>
O=S(=O)(O)Oc1ccc(cc1)C(c2ccc(OS(=O)(=O)O)cc2)c3ccccn3

> <Substance_modify_yyyymmdd>
20111204

$$$$
