10049-83-9
ChemmineR-0915142007XD

 26 25  0  0  0  0  0  0  0  0  1 V2000
   10.3727   -2.0011    0.0000 C    0  0  0  0  0  0  0  0  0  0  0  0
    2.2924   -2.6723    0.0000 C    0  0  0  0  0  0  0  0  0  0  0  0
   11.5379   -2.6723    0.0000 C    0  0  0  0  0  0  0  0  0  0  0  0
    1.1272   -2.0011    0.0000 C    0  0  0  0  0  0  0  0  0  0  0  0
   10.3727   -4.6608    0.0000 N    0  0  0  0  0  0  0  0  0  0  0  0
    2.2924    0.0000    0.0000 N    0  0  0  0  0  0  0  0  0  0  0  0
    3.4449   -2.0011    0.0000 C    0  0  0  0  0  0  0  0  0  0  0  0
    9.2202   -2.6723    0.0000 C    0  0  0  0  0  0  0  0  0  0  0  0
    1.1272   -0.6712    0.0000 C    0  0  0  0  0  0  0  0  0  0  0  0
   11.5379   -3.9895    0.0000 C    0  0  0  0  0  0  0  0  0  0  0  0
    9.2202   -3.9895    0.0000 C    0  0  0  0  0  0  0  0  0  0  0  0
    3.4449   -0.6712    0.0000 C    0  0  0  0  0  0  0  0  0  0  0  0
    0.0000   -2.6723    0.0000 O    0  0  0  0  0  0  0  0  0  0  0  0
   12.6651   -2.0011    0.0000 O    0  0  0  0  0  0  0  0  0  0  0  0
    5.7373   -2.0011    0.0000 S    0  0  0  0  0  0  0  0  0  0  0  0
    6.9278   -2.6723    0.0000 S    0  0  0  0  0  0  0  0  0  0  0  0
   10.3727   -0.6712    0.0000 C    0  0  0  0  0  0  0  0  0  0  0  0
    2.2924   -3.9895    0.0000 C    0  0  0  0  0  0  0  0  0  0  0  0
    4.6101   -2.6723    0.0000 C    0  0  0  0  0  0  0  0  0  0  0  0
    8.0550   -2.0011    0.0000 C    0  0  0  0  0  0  0  0  0  0  0  0
    9.2202    0.0000    0.0000 O    0  0  0  0  0  0  0  0  0  0  0  0
    3.4449   -4.6608    0.0000 O    0  0  0  0  0  0  0  0  0  0  0  0
   12.6651   -4.6608    0.0000 C    0  0  0  0  0  0  0  0  0  0  0  0
    0.0000    0.0000    0.0000 C    0  0  0  0  0  0  0  0  0  0  0  0
    6.2819   -4.1035    0.0000 Cl   0  0  0  0  0  0  0  0  0  0  0  0
    5.7373   -0.4686    0.0000 Cl   0  0  0  0  0  0  0  0  0  0  0  0
  1  3  1  0  0  0  0
  1  8  2  0  0  0  0
  1 17  1  0  0  0  0
  2  7  2  0  0  0  0
  2  4  1  0  0  0  0
  2 18  1  0  0  0  0
  3 10  2  0  0  0  0
  3 14  1  0  0  0  0
  4 13  1  0  0  0  0
  4  9  2  0  0  0  0
  5 11  2  0  0  0  0
  5 10  1  0  0  0  0
  6 12  2  0  0  0  0
  6  9  1  0  0  0  0
  7 19  1  0  0  0  0
  7 12  1  0  0  0  0
  8 11  1  0  0  0  0
  8 20  1  0  0  0  0
  9 24  1  0  0  0  0
 10 23  1  0  0  0  0
 15 16  1  0  0  0  0
 15 19  1  0  0  0  0
 16 20  1  0  0  0  0
 17 21  1  0  0  0  0
 18 22  1  0  0  0  0
M  END
> <ID>
11777

> <Formula>
C16H22Cl2N2O4S2

> <FW>
441.3929 (368.4710+36.4609+36.4609)

> <DSSTox_CID>
26550

> <DSSTox_RID>
81711

> <DSSTox_GSID>
46550

> <DSSTox_FileID_Sort>
6392

> <TS_ChemName>
Pyrithioxin dihydrochloride

> <TS_ChemName_Synonyms>


> <TS_CASRN>
10049-83-9

> <CASRN_ChemName_Relationship>
primary

> <TS_Description>
single chemical compound

> <ChemNote>
parent [1098-97-1]

> <STRUCTURE_Shown>
tested chemical

> <STRUCTURE_Formula>
C16H22Cl2N2O4S2

> <STRUCTURE_MW>
441.3929

> <STRUCTURE_ChemType>
defined organic

> <STRUCTURE_DefinedOrganicForm>
complex

> <STRUCTURE_IUPAC>
5,5'-(disulfanediyldimethanediyl)bis[4-(hydroxymethyl)-2-methylpyridin-3-ol] dihydrochloride

> <STRUCTURE_SMILES>
Cl.Cl.Oc1c(CO)c(cnc1C)CSSCc2cnc(C)c(O)c2CO

> <STRUCTURE_SMILES_Desalt>
Oc1c(CO)c(cnc1C)CSSCc2cnc(C)c(O)c2CO

> <Substance_modify_yyyymmdd>
20110811

$$$$
