10052-47-8
ChemmineR-0915142007XD

  9  7  0  0  0  0  0  0  0  0  2 V2000
    3.0195   -3.5022    0.0000 C    0  0  0  0  0  0  0  0  0  0  0  0
    2.4546   -4.6833    0.0000 C    0  0  0  0  0  0  0  0  0  0  0  0
    2.3571   -2.3417    0.0000 N    0  3  0  0  0  0  0  0  0  0  0  0
    1.7100   -1.1606    0.0000 C    0  0  0  0  0  0  0  0  0  0  0  0
    2.3109    0.0000    0.0000 C    0  0  0  0  0  0  0  0  0  0  0  0
    1.1965   -3.0195    0.0000 C    0  0  0  0  0  0  0  0  0  0  0  0
    0.0000   -2.4546    0.0000 C    0  0  0  0  0  0  0  0  0  0  0  0
    3.5690   -1.7614    0.0000 C    0  0  0  0  0  0  0  0  0  0  0  0
    5.1352   -0.5187    0.0000 Cl   0  5  0  0  0  0  0  0  0  0  0  0
  1  2  1  0  0  0  0
  1  3  1  0  0  0  0
  3  4  1  0  0  0  0
  3  6  1  0  0  0  0
  3  8  1  0  0  0  0
  4  5  1  0  0  0  0
  6  7  1  0  0  0  0
M  END
> <ID>
10152

> <Formula>
C7H18ClN

> <FW>
151.6775 (116.2240+35.4535)

> <DSSTox_CID>
24498

> <DSSTox_RID>
80272

> <DSSTox_GSID>
44498

> <DSSTox_FileID_Sort>
4954

> <TS_ChemName>
N,N-Diethyl-N-methylethanaminium chloride

> <TS_ChemName_Synonyms>
N,N-Diethyl-N-methylethanaminium chloride (Ethanaminium, N,N-diethyl-N-methyl-, chloride)

> <TS_CASRN>
10052-47-8

> <CASRN_ChemName_Relationship>
primary

> <TS_Description>
single chemical compound

> <ChemNote>
ammonium; parent [302-57-8]

> <STRUCTURE_Shown>
tested chemical

> <STRUCTURE_Formula>
C7H18ClN

> <STRUCTURE_MW>
151.6775

> <STRUCTURE_ChemType>
defined organic

> <STRUCTURE_DefinedOrganicForm>
salt

> <STRUCTURE_IUPAC>
N,N-diethyl-N-methylethanaminium chloride

> <STRUCTURE_SMILES>
[Cl-].CC[N+](C)(CC)CC

> <STRUCTURE_SMILES_Desalt>
CC[N+](C)(CC)CC

> <Substance_modify_yyyymmdd>
20091116

$$$$
