100643-71-8
ChemmineR-0915142007XD

 22 25  0  0  0  0  0  0  0  0  1 V2000
    1.5608   -4.0598    0.0000 C    0  0  0  0  0  0  0  0  0  0  0  0
    1.2627   -5.3488    0.0000 C    0  0  0  0  0  0  0  0  0  0  0  0
    2.2535   -6.2519    0.0000 C    0  0  0  0  0  0  0  0  0  0  0  0
    2.8498   -3.6652    0.0000 C    0  0  0  0  0  0  0  0  0  0  0  0
    3.5162   -5.8574    0.0000 C    0  0  0  0  0  0  0  0  0  0  0  0
    3.8143   -4.5684    0.0000 C    0  0  0  0  0  0  0  0  0  0  0  0
    5.0156   -3.9984    0.0000 C    0  0  0  0  0  0  0  0  0  0  0  0
    4.3579   -6.9096    0.0000 C    0  0  0  0  0  0  0  0  0  0  0  0
    5.6732   -6.9096    0.0000 C    0  0  0  0  0  0  0  0  0  0  0  0
    6.2169   -4.5684    0.0000 C    0  0  0  0  0  0  0  0  0  0  0  0
    6.5150   -5.8574    0.0000 C    0  0  0  0  0  0  0  0  0  0  0  0
    7.7777   -6.2519    0.0000 C    0  0  0  0  0  0  0  0  0  0  0  0
    8.7685   -5.3488    0.0000 C    0  0  0  0  0  0  0  0  0  0  0  0
    8.4704   -4.0598    0.0000 C    0  0  0  0  0  0  0  0  0  0  0  0
    7.2077   -3.6652    0.0000 N    0  0  0  0  0  0  0  0  0  0  0  0
    5.0156   -2.6481    0.0000 C    0  0  0  0  0  0  0  0  0  0  0  0
    3.8757   -1.9817    0.0000 C    0  0  0  0  0  0  0  0  0  0  0  0
    3.8757   -0.6664    0.0000 C    0  0  0  0  0  0  0  0  0  0  0  0
    5.0156    0.0000    0.0000 N    0  0  0  0  0  0  0  0  0  0  0  0
    6.1818   -0.6664    0.0000 C    0  0  0  0  0  0  0  0  0  0  0  0
    6.1818   -1.9817    0.0000 C    0  0  0  0  0  0  0  0  0  0  0  0
    0.0000   -5.7346    0.0000 Cl   0  0  0  0  0  0  0  0  0  0  0  0
  1  2  2  0  0  0  0
  1  4  1  0  0  0  0
  2  3  1  0  0  0  0
  2 22  1  0  0  0  0
  3  5  2  0  0  0  0
  4  6  2  0  0  0  0
  5  6  1  0  0  0  0
  5  8  1  0  0  0  0
  6  7  1  0  0  0  0
  7 16  2  0  0  0  0
  7 10  1  0  0  0  0
  8  9  1  0  0  0  0
  9 11  1  0  0  0  0
 10 11  2  0  0  0  0
 10 15  1  0  0  0  0
 11 12  1  0  0  0  0
 12 13  2  0  0  0  0
 13 14  1  0  0  0  0
 14 15  2  0  0  0  0
 16 17  1  0  0  0  0
 16 21  1  0  0  0  0
 17 18  1  0  0  0  0
 18 19  1  0  0  0  0
 19 20  1  0  0  0  0
 20 21  1  0  0  0  0
M  END
> <ID>
9892

> <Formula>
C19H19ClN2

> <FW>
310.8206

> <DSSTox_CID>
24196

> <DSSTox_RID>
80112

> <DSSTox_GSID>
44196

> <DSSTox_FileID_Sort>
4794

> <TS_ChemName>
Desloratadine

> <TS_ChemName_Synonyms>


> <TS_CASRN>
100643-71-8

> <CASRN_ChemName_Relationship>
primary

> <TS_Description>
single chemical compound

> <ChemNote>


> <STRUCTURE_Shown>
tested chemical

> <STRUCTURE_Formula>
C19H19ClN2

> <STRUCTURE_MW>
310.8206

> <STRUCTURE_ChemType>
defined organic

> <STRUCTURE_DefinedOrganicForm>
parent

> <STRUCTURE_IUPAC>
8-chloro-11-(piperidin-4-ylidene)-6,11-dihydro-5H-benzo[5,6]cyclohepta[1,2-b]pyridine

> <STRUCTURE_SMILES>
Clc2cc3CCc4cccnc4\C(=C1\CCNCC1)c3cc2

> <STRUCTURE_SMILES_Desalt>
Clc2cc3CCc4cccnc4\C(=C1\CCNCC1)c3cc2

> <Substance_modify_yyyymmdd>
20090302

$$$$
