100678-32-8
ChemmineR-0915142007XD

 28 30  0  0  0  0  0  0  0  0  1 V2000
    8.4607   -3.4256    0.0000 C   0  0  0  0  0  0  0  0  0  0  0  0
    8.6675   -4.7250    0.0000 C   0  0  0  0  0  0  0  0  0  0  0  0
    7.5157   -5.3747    0.0000 N   0  0  0  0  0  0  0  0  0  0  0  0
    6.5707   -4.4149    0.0000 C   0  0  0  0  0  0  0  0  0  0  0  0
    7.1318   -3.2484    0.0000 N   0  0  0  0  0  0  0  0  0  0  0  0
    5.2418   -4.6512    0.0000 C   0  0  0  0  0  0  0  0  0  0  0  0
    4.2377   -5.5224    0.0000 C   0  0  0  0  0  0  0  0  0  0  0  0
    3.9867   -4.2082    0.0000 C   0  0  0  0  0  0  0  0  0  0  0  0
    2.6578   -4.2082    0.0000 C   0  0  0  0  0  0  0  0  0  0  0  0
    1.9934   -5.3599    0.0000 C   0  0  0  0  0  0  0  0  0  0  0  0
    0.6792   -5.3599    0.0000 C   0  0  0  0  0  0  0  0  0  0  0  0
    0.0000   -4.2082    0.0000 C   0  0  0  0  0  0  0  0  0  0  0  0
    0.6792   -3.0565    0.0000 C   0  0  0  0  0  0  0  0  0  0  0  0
    1.9934   -3.0565    0.0000 C   0  0  0  0  0  0  0  0  0  0  0  0
    4.2377   -2.9088    0.0000 C   0  0  0  0  0  0  0  0  0  0  0  0
    3.2042   -2.0377    0.0000 C   0  0  0  0  0  0  0  0  0  0  0  0
    3.4256   -0.7235    0.0000 C   0  0  0  0  0  0  0  0  0  0  0  0
    4.6807   -0.2805    0.0000 C   0  0  0  0  0  0  0  0  0  0  0  0
    5.7143   -1.1222    0.0000 C   0  0  0  0  0  0  0  0  0  0  0  0
    5.4633   -2.4511    0.0000 C   0  0  0  0  0  0  0  0  0  0  0  0
   13.6287   -1.9934    0.0000 C   0  0  0  0  0  0  0  0  0  0  0  0
   10.1588   -1.3584    0.0000 C   0  0  0  0  0  0  0  0  0  0  0  0
   14.7657   -1.3289    0.0000 O   0  0  0  0  0  0  0  0  0  0  0  0
    9.0218   -1.9934    0.0000 O   0  0  0  0  0  0  0  0  0  0  0  0
   13.5992   -3.3370    0.0000 O   0  0  0  0  0  0  0  0  0  0  0  0
   10.1588    0.0000    0.0000 O   0  0  0  0  0  0  0  0  0  0  0  0
   11.3253   -1.9934    0.0000 C   0  0  0  0  0  0  0  0  0  0  0  0
   12.4770   -1.3289    0.0000 C   0  0  0  0  0  0  0  0  0  0  0  0
  1  2  1  0  0  0  0
  1  5  1  0  0  0  0
  2  3  1  0  0  0  0
  3  4  2  0  0  0  0
  4  5  1  0  0  0  0
  4  6  1  0  0  0  0
  6  7  1  0  0  0  0
  6  8  1  0  0  0  0
  7  8  1  0  0  0  0
  8  9  1  0  0  0  0
  8 15  1  0  0  0  0
  9 10  2  0  0  0  0
  9 14  1  0  0  0  0
 10 11  1  0  0  0  0
 11 12  2  0  0  0  0
 12 13  1  0  0  0  0
 13 14  2  0  0  0  0
 15 16  2  0  0  0  0
 15 20  1  0  0  0  0
 16 17  1  0  0  0  0
 17 18  2  0  0  0  0
 18 19  1  0  0  0  0
 19 20  2  0  0  0  0
 21 23  2  0  0  0  0
 21 25  1  0  0  0  0
 21 28  1  0  0  0  0
 22 27  1  0  0  0  0
 22 24  2  0  0  0  0
 22 26  1  0  0  0  0
 27 28  1  0  0  0  0
M  END
> <ID>
12908

> <Formula>
C22H24N2O4

> <FW>
380.4370 (262.3489+118.0880)

> <DSSTox_CID>
27797

> <DSSTox_RID>
82569

> <DSSTox_GSID>
47820

> <DSSTox_FileID_Sort>
7247

> <TS_ChemName>
Cifenline succinate

> <TS_ChemName_Synonyms>


> <TS_CASRN>
100678-32-8

> <CASRN_ChemName_Relationship>
primary

> <TS_Description>
single chemical compound

> <ChemNote>
parent [53267-01-9]

> <STRUCTURE_Shown>
tested chemical

> <STRUCTURE_Formula>
C22H24N2O4

> <STRUCTURE_MW>
380.437

> <STRUCTURE_ChemType>
defined organic

> <STRUCTURE_DefinedOrganicForm>
complex

> <STRUCTURE_IUPAC>
2-(2,2-diphenylcyclopropyl)-4,5-dihydro-1H-imidazole butanedioate (1:1)

> <STRUCTURE_SMILES>
O=C(O)CCC(=O)O.C2C(C1=NCCN1)C2(c3ccccc3)c4ccccc4

> <STRUCTURE_SMILES_Desalt>
C2C(C1=NCCN1)C2(c3ccccc3)c4ccccc4

> <Substance_modify_yyyymmdd>
20110815

$$$$
