1007-28-9
ChemmineR-0915142007XD

 11 11  0  0  0  0  0  0  0  0  1 V2000
    0.0000   -3.9883    0.0000 C    0  0  0  0  0  0  0  0  0  0  0  0
    1.1474   -3.3178    0.0000 C    0  0  0  0  0  0  0  0  0  0  0  0
    4.6173    0.0000    0.0000 Cl   0  0  0  0  0  0  0  0  0  0  0  0
    6.9121   -3.9883    0.0000 N    0  0  0  0  0  0  0  0  0  0  0  0
    2.3087   -3.9883    0.0000 N    0  0  0  0  0  0  0  0  0  0  0  0
    5.7509   -1.9838    0.0000 N    0  0  0  0  0  0  0  0  0  0  0  0
    5.7509   -3.3178    0.0000 C    0  0  0  0  0  0  0  0  0  0  0  0
    4.6173   -1.3340    0.0000 C    0  0  0  0  0  0  0  0  0  0  0  0
    4.6173   -3.9883    0.0000 N    0  0  0  0  0  0  0  0  0  0  0  0
    3.4561   -1.9976    0.0000 N    0  0  0  0  0  0  0  0  0  0  0  0
    3.4561   -3.3178    0.0000 C    0  0  0  0  0  0  0  0  0  0  0  0
  1  2  1  0  0  0  0
  2  5  1  0  0  0  0
  3  8  1  0  0  0  0
  4  7  1  0  0  0  0
  5 11  1  0  0  0  0
  6  7  2  0  0  0  0
  6  8  1  0  0  0  0
  7  9  1  0  0  0  0
  8 10  2  0  0  0  0
  9 11  2  0  0  0  0
 10 11  1  0  0  0  0
M  END
> <ID>
7304

> <Formula>
C5H8ClN5

> <FW>
173.6035

> <DSSTox_CID>
17495

> <DSSTox_RID>
79323

> <DSSTox_GSID>
37495

> <DSSTox_FileID_Sort>
4005

> <TS_ChemName>
Deisopropylatrazine

> <TS_ChemName_Synonyms>
Deisopropylatrazine (Atrazine Deisopropyl) (2-Amino-4-chloro-6-ethylamino-s-atrazine)

> <TS_CASRN>
1007-28-9

> <CASRN_ChemName_Relationship>
primary

> <TS_Description>
single chemical compound

> <ChemNote>


> <STRUCTURE_Shown>
tested chemical

> <STRUCTURE_Formula>
C5H8ClN5

> <STRUCTURE_MW>
173.6035

> <STRUCTURE_ChemType>
defined organic

> <STRUCTURE_DefinedOrganicForm>
parent

> <STRUCTURE_IUPAC>
6-chloro-N-ethyl-1,3,5-triazine-2,4-diamine

> <STRUCTURE_SMILES>
Nc1nc(NCC)nc(Cl)n1

> <STRUCTURE_SMILES_Desalt>
Nc1nc(NCC)nc(Cl)n1

> <Substance_modify_yyyymmdd>
20080429

$$$$
