1008-72-6
ChemmineR-0915142007XD

 13 12  0  0  0  0  0  0  0  0  2 V2000
    1.3320   -2.6641    0.0000 C    0  0  0  0  0  0  0  0  0  0  0  0
    0.1758   -3.3194    0.0000 C    0  0  0  0  0  0  0  0  0  0  0  0
    0.1758   -4.6515    0.0000 C    0  0  0  0  0  0  0  0  0  0  0  0
    1.3320   -5.3281    0.0000 C    0  0  0  0  0  0  0  0  0  0  0  0
    2.4723   -4.6515    0.0000 C    0  0  0  0  0  0  0  0  0  0  0  0
    2.4723   -3.3194    0.0000 C    0  0  0  0  0  0  0  0  0  0  0  0
    1.3320   -1.3320    0.0000 S    0  0  0  0  0  0  0  0  0  0  0  0
    0.0000   -1.3320    0.0000 O    0  0  0  0  0  0  0  0  0  0  0  0
    2.6641   -1.3320    0.0000 O    0  0  0  0  0  0  0  0  0  0  0  0
    1.3320    0.0000    0.0000 O    0  5  0  0  0  0  0  0  0  0  0  0
    3.6285   -2.6641    0.0000 C    0  0  0  0  0  0  0  0  0  0  0  0
    4.7847   -3.3194    0.0000 O    0  0  0  0  0  0  0  0  0  0  0  0
    2.7120   -0.0160    0.0000 Na   0  3  0  0  0  0  0  0  0  0  0  0
  1  2  2  0  0  0  0
  1  6  1  0  0  0  0
  1  7  1  0  0  0  0
  2  3  1  0  0  0  0
  3  4  2  0  0  0  0
  4  5  1  0  0  0  0
  5  6  2  0  0  0  0
  6 11  1  0  0  0  0
  7  8  2  0  0  0  0
  7  9  2  0  0  0  0
  7 10  1  0  0  0  0
 11 12  2  0  0  0  0
M  END
> <ID>
8603

> <Formula>
C7H5NaO4S

> <FW>
208.1670 (185.1777+22.9892)

> <DSSTox_CID>
21643

> <DSSTox_RID>
79801

> <DSSTox_GSID>
41643

> <DSSTox_FileID_Sort>
4483

> <TS_ChemName>
Sodium 2-formylbenzenesulfonate

> <TS_ChemName_Synonyms>
2-Formylbenzenesulfonic acid sodium salt

> <TS_CASRN>
1008-72-6

> <CASRN_ChemName_Relationship>
primary

> <TS_Description>
single chemical compound

> <ChemNote>


> <STRUCTURE_Shown>
tested chemical

> <STRUCTURE_Formula>
C7H5NaO4S

> <STRUCTURE_MW>
208.167

> <STRUCTURE_ChemType>
defined organic

> <STRUCTURE_DefinedOrganicForm>
salt

> <STRUCTURE_IUPAC>
sodium 2-formylbenzenesulfonate

> <STRUCTURE_SMILES>
[Na+].O=S([O-])(=O)c1ccccc1C=O

> <STRUCTURE_SMILES_Desalt>
OS(=O)(=O)c1ccccc1C=O

> <Substance_modify_yyyymmdd>
20080825

$$$$
