10081-67-1
ChemmineR-0915142007XD

 31 34  0  0  0  0  0  0  0  0  1 V2000
    4.6583   -2.4756    0.0000 C   0  0  0  0  0  0  0  0  0  0  0  0
    5.3321   -3.6329    0.0000 C   0  0  0  0  0  0  0  0  0  0  0  0
    4.6583   -4.7901    0.0000 C   0  0  0  0  0  0  0  0  0  0  0  0
    3.3399   -4.7901    0.0000 C   0  0  0  0  0  0  0  0  0  0  0  0
    2.6807   -3.6329    0.0000 C   0  0  0  0  0  0  0  0  0  0  0  0
    3.3399   -2.4756    0.0000 C   0  0  0  0  0  0  0  0  0  0  0  0
    5.3321   -1.3330    0.0000 N   0  0  0  0  0  0  0  0  0  0  0  0
    2.6807   -5.9327    0.0000 C   0  0  0  0  0  0  0  0  0  0  0  0
    3.8086   -6.6065    0.0000 C   0  0  0  0  0  0  0  0  0  0  0  0
    1.5235   -5.2735    0.0000 C   0  0  0  0  0  0  0  0  0  0  0  0
    2.0069   -7.0753    0.0000 C   0  0  0  0  0  0  0  0  0  0  0  0
    2.6807   -8.2325    0.0000 C   0  0  0  0  0  0  0  0  0  0  0  0
    0.6738   -7.0753    0.0000 C   0  0  0  0  0  0  0  0  0  0  0  0
    2.0069   -9.3898    0.0000 C   0  0  0  0  0  0  0  0  0  0  0  0
    0.0000   -8.2325    0.0000 C   0  0  0  0  0  0  0  0  0  0  0  0
    0.6738   -9.3898    0.0000 C   0  0  0  0  0  0  0  0  0  0  0  0
    6.6651   -1.3330    0.0000 C   0  0  0  0  0  0  0  0  0  0  0  0
    7.3243   -0.1758    0.0000 C   0  0  0  0  0  0  0  0  0  0  0  0
    7.3243   -2.4756    0.0000 C   0  0  0  0  0  0  0  0  0  0  0  0
    8.6573   -0.1758    0.0000 C   0  0  0  0  0  0  0  0  0  0  0  0
    8.6573   -2.4756    0.0000 C   0  0  0  0  0  0  0  0  0  0  0  0
    9.3312   -1.3330    0.0000 C   0  0  0  0  0  0  0  0  0  0  0  0
   10.6642   -1.3330    0.0000 C   0  0  0  0  0  0  0  0  0  0  0  0
   10.6642    0.0000    0.0000 C   0  0  0  0  0  0  0  0  0  0  0  0
   10.6642   -2.6514    0.0000 C   0  0  0  0  0  0  0  0  0  0  0  0
   11.9826   -1.3330    0.0000 C   0  0  0  0  0  0  0  0  0  0  0  0
   12.6418   -0.1758    0.0000 C   0  0  0  0  0  0  0  0  0  0  0  0
   12.6418   -2.4756    0.0000 C   0  0  0  0  0  0  0  0  0  0  0  0
   13.9748   -0.1758    0.0000 C   0  0  0  0  0  0  0  0  0  0  0  0
   13.9748   -2.4756    0.0000 C   0  0  0  0  0  0  0  0  0  0  0  0
   14.6486   -1.3330    0.0000 C   0  0  0  0  0  0  0  0  0  0  0  0
  1  2  2  0  0  0  0
  1  6  1  0  0  0  0
  1  7  1  0  0  0  0
  2  3  1  0  0  0  0
  3  4  2  0  0  0  0
  4  5  1  0  0  0  0
  4  8  1  0  0  0  0
  5  6  2  0  0  0  0
  7 17  1  0  0  0  0
  8  9  1  0  0  0  0
  8 10  1  0  0  0  0
  8 11  1  0  0  0  0
 11 12  2  0  0  0  0
 11 13  1  0  0  0  0
 12 14  1  0  0  0  0
 13 15  2  0  0  0  0
 14 16  2  0  0  0  0
 15 16  1  0  0  0  0
 17 18  2  0  0  0  0
 17 19  1  0  0  0  0
 18 20  1  0  0  0  0
 19 21  2  0  0  0  0
 20 22  2  0  0  0  0
 21 22  1  0  0  0  0
 22 23  1  0  0  0  0
 23 24  1  0  0  0  0
 23 25  1  0  0  0  0
 23 26  1  0  0  0  0
 26 27  2  0  0  0  0
 26 28  1  0  0  0  0
 27 29  1  0  0  0  0
 28 30  2  0  0  0  0
 29 31  2  0  0  0  0
 30 31  1  0  0  0  0
M  END
> <ID>
5339

> <Formula>
C30H31N

> <FW>
405.5738

> <DSSTox_CID>
7721

> <DSSTox_RID>
78549

> <DSSTox_GSID>
27721

> <DSSTox_FileID_Sort>
3232

> <TS_ChemName>
4-(2-Phenylpropan-2-yl)-N-[4-(2-phenylpropan-2-yl)phenyl]aniline

> <TS_ChemName_Synonyms>


> <TS_CASRN>
10081-67-1

> <CASRN_ChemName_Relationship>
primary

> <TS_Description>
single chemical compound

> <ChemNote>


> <STRUCTURE_Shown>
tested chemical

> <STRUCTURE_Formula>
C30H31N

> <STRUCTURE_MW>
405.5738

> <STRUCTURE_ChemType>
defined organic

> <STRUCTURE_DefinedOrganicForm>
parent

> <STRUCTURE_IUPAC>
4-(2-phenylpropan-2-yl)-N-[4-(2-phenylpropan-2-yl)phenyl]aniline

> <STRUCTURE_SMILES>
CC(C)(c1ccccc1)c2ccc(cc2)Nc3ccc(cc3)C(C)(C)c4ccccc4

> <STRUCTURE_SMILES_Desalt>
CC(C)(c1ccccc1)c2ccc(cc2)Nc3ccc(cc3)C(C)(C)c4ccccc4

> <Substance_modify_yyyymmdd>
20080429

$$$$
