1008-65-7
ChemmineR-0915142007XD

 12 13  0  0  0  0  0  0  0  0  1 V2000
    4.2602   -3.4537    0.0000 O   0  0  0  0  0  0  0  0  0  0  0  0
    3.5928   -2.3025    0.0000 C   0  0  0  0  0  0  0  0  0  0  0  0
    4.2602   -1.1512    0.0000 C   0  0  0  0  0  0  0  0  0  0  0  0
    3.5928    0.0000    0.0000 C   0  0  0  0  0  0  0  0  0  0  0  0
    2.2636    0.0000    0.0000 C   0  0  0  0  0  0  0  0  0  0  0  0
    1.6017   -1.1512    0.0000 C   0  0  0  0  0  0  0  0  0  0  0  0
    2.2636   -2.3025    0.0000 C   0  0  0  0  0  0  0  0  0  0  0  0
    1.6017   -3.4537    0.0000 C   0  0  0  0  0  0  0  0  0  0  0  0
    0.2781   -3.5928    0.0000 N   0  0  0  0  0  0  0  0  0  0  0  0
    0.0000   -4.8942    0.0000 N   0  0  0  0  0  0  0  0  0  0  0  0
    1.1512   -5.5616    0.0000 C   0  0  0  0  0  0  0  0  0  0  0  0
    2.1412   -4.6717    0.0000 O   0  0  0  0  0  0  0  0  0  0  0  0
  1  2  1  0  0  0  0
  2  3  2  0  0  0  0
  2  7  1  0  0  0  0
  3  4  1  0  0  0  0
  4  5  2  0  0  0  0
  5  6  1  0  0  0  0
  6  7  2  0  0  0  0
  7  8  1  0  0  0  0
  8  9  2  0  0  0  0
  8 12  1  0  0  0  0
  9 10  1  0  0  0  0
 10 11  2  0  0  0  0
 11 12  1  0  0  0  0
M  END
> <ID>
16014

> <Formula>
C8H6N2O2

> <FW>
162.1454

> <DSSTox_CID>
31397

> <DSSTox_RID>
97283

> <DSSTox_GSID>
57608

> <DSSTox_FileID_Sort>
8350

> <TS_ChemName>
Fenadiazole

> <TS_ChemName_Synonyms>


> <TS_CASRN>
1008-65-7

> <CASRN_ChemName_Relationship>
primary

> <TS_Description>
single chemical compound

> <ChemNote>


> <STRUCTURE_Shown>
tested chemical

> <STRUCTURE_Formula>
C8H6N2O2

> <STRUCTURE_MW>
162.1454

> <STRUCTURE_ChemType>
defined organic

> <STRUCTURE_DefinedOrganicForm>
parent

> <STRUCTURE_IUPAC>
2-(1,3,4-oxadiazol-2-yl)phenol

> <STRUCTURE_SMILES>
Oc1ccccc1c2nnco2

> <STRUCTURE_SMILES_Desalt>
Oc1ccccc1c2nnco2

> <Substance_modify_yyyymmdd>
20131018

$$$$
