10094-34-5
ChemmineR-0915142007XD

 16 16  0  0  0  0  0  0  0  0  1 V2000
    6.9327   -1.9748    0.0000 C   0  0  0  0  0  0  0  0  0  0  0  0
    8.0760   -2.6400    0.0000 C   0  0  0  0  0  0  0  0  0  0  0  0
    9.2193   -1.9748    0.0000 C   0  0  0  0  0  0  0  0  0  0  0  0
   10.3938   -2.6400    0.0000 C   0  0  0  0  0  0  0  0  0  0  0  0
    6.9327   -0.6236    0.0000 O   0  0  0  0  0  0  0  0  0  0  0  0
    5.7893   -2.6400    0.0000 O   0  0  0  0  0  0  0  0  0  0  0  0
    4.6045   -1.9748    0.0000 C   0  0  0  0  0  0  0  0  0  0  0  0
    3.4611   -2.6400    0.0000 C   0  0  0  0  0  0  0  0  0  0  0  0
    4.6045   -0.6236    0.0000 C   0  0  0  0  0  0  0  0  0  0  0  0
    3.4611   -1.3200    0.0000 C   0  0  0  0  0  0  0  0  0  0  0  0
    1.1433    0.0000    0.0000 C   0  0  0  0  0  0  0  0  0  0  0  0
    0.0000   -0.6652    0.0000 C   0  0  0  0  0  0  0  0  0  0  0  0
    0.0000   -1.9748    0.0000 C   0  0  0  0  0  0  0  0  0  0  0  0
    1.1433   -2.6400    0.0000 C   0  0  0  0  0  0  0  0  0  0  0  0
    2.3178   -1.9748    0.0000 C   0  0  0  0  0  0  0  0  0  0  0  0
    2.2866   -0.6652    0.0000 C   0  0  0  0  0  0  0  0  0  0  0  0
  1  2  1  0  0  0  0
  1  6  1  0  0  0  0
  1  5  2  0  0  0  0
  2  3  1  0  0  0  0
  3  4  1  0  0  0  0
  6  7  1  0  0  0  0
  7  8  1  0  0  0  0
  7  9  1  0  0  0  0
  7 10  1  0  0  0  0
  8 15  1  0  0  0  0
 11 16  2  0  0  0  0
 11 12  1  0  0  0  0
 12 13  2  0  0  0  0
 13 14  1  0  0  0  0
 14 15  2  0  0  0  0
 15 16  1  0  0  0  0
M  END
> <ID>
7514

> <Formula>
C14H20O2

> <FW>
220.3074

> <DSSTox_CID>
18830

> <DSSTox_RID>
79405

> <DSSTox_GSID>
38830

> <DSSTox_FileID_Sort>
4087

> <TS_ChemName>
1,1-Dimethyl-2-phenylethyl butanoate

> <TS_ChemName_Synonyms>
1,1-Dimethyl-2-phenylethyl butanoate; alpha,alpha-Dimethylphenethyl butyrate

> <TS_CASRN>
10094-34-5

> <CASRN_ChemName_Relationship>
primary

> <TS_Description>
single chemical compound

> <ChemNote>


> <STRUCTURE_Shown>
tested chemical

> <STRUCTURE_Formula>
C14H20O2

> <STRUCTURE_MW>
220.3074

> <STRUCTURE_ChemType>
defined organic

> <STRUCTURE_DefinedOrganicForm>
parent

> <STRUCTURE_IUPAC>
2-methyl-1-phenylpropan-2-yl butanoate

> <STRUCTURE_SMILES>
CCCC(=O)OC(C)(C)Cc1ccccc1

> <STRUCTURE_SMILES_Desalt>
CCCC(=O)OC(C)(C)Cc1ccccc1

> <Substance_modify_yyyymmdd>
20080429

$$$$
