1009-93-4
ChemmineR-0915142007XD

 12 12  0  0  0  0  0  0  0  0  1 V2000
    2.4819   -0.4864    0.0000 N    0  0  0  0  0  0  0  0  0  0  0  0
    3.6334   -1.1516    0.0000 Si   0  0  0  0  0  0  0  0  0  0  0  0
    3.6334   -2.4819    0.0000 N    0  0  0  0  0  0  0  0  0  0  0  0
    2.4819   -3.1470    0.0000 Si   0  0  0  0  0  0  0  0  0  0  0  0
    1.3303   -2.4819    0.0000 N    0  0  0  0  0  0  0  0  0  0  0  0
    1.3303   -1.1516    0.0000 Si   0  0  0  0  0  0  0  0  0  0  0  0
    4.2986    0.0000    0.0000 C    0  0  0  0  0  0  0  0  0  0  0  0
    4.9637   -1.1516    0.0000 C    0  0  0  0  0  0  0  0  0  0  0  0
    1.8167   -4.2986    0.0000 C    0  0  0  0  0  0  0  0  0  0  0  0
    3.1470   -4.2986    0.0000 C    0  0  0  0  0  0  0  0  0  0  0  0
    0.6651    0.0000    0.0000 C    0  0  0  0  0  0  0  0  0  0  0  0
    0.0000   -1.1516    0.0000 C    0  0  0  0  0  0  0  0  0  0  0  0
  1  2  1  0  0  0  0
  1  6  1  0  0  0  0
  2  3  1  0  0  0  0
  2  7  1  0  0  0  0
  2  8  1  0  0  0  0
  3  4  1  0  0  0  0
  4  5  1  0  0  0  0
  4  9  1  0  0  0  0
  4 10  1  0  0  0  0
  5  6  1  0  0  0  0
  6 11  1  0  0  0  0
  6 12  1  0  0  0  0
M  END
> <ID>
7426

> <Formula>
C6H21N3Si3

> <FW>
219.5075

> <DSSTox_CID>
17748

> <DSSTox_RID>
79372

> <DSSTox_GSID>
37748

> <DSSTox_FileID_Sort>
4054

> <TS_ChemName>
2,2,4,4,6,6-Hexamethyl-1,3,5,2,4,6-triazatrisilinane

> <TS_ChemName_Synonyms>
2,2,4,4,6,6-Hexamethyl-1,3,5,2,4,6-triazatrisilinane (2,2,4,4,6,6-hexamethylcyclotrisilazane)

> <TS_CASRN>
1009-93-4

> <CASRN_ChemName_Relationship>
primary

> <TS_Description>
single chemical compound

> <ChemNote>


> <STRUCTURE_Shown>
tested chemical

> <STRUCTURE_Formula>
C6H21N3Si3

> <STRUCTURE_MW>
219.5075

> <STRUCTURE_ChemType>
organometallic

> <STRUCTURE_DefinedOrganicForm>


> <STRUCTURE_IUPAC>
2,2,4,4,6,6-hexamethyl-1,3,5,2,4,6-triazatrisilinane

> <STRUCTURE_SMILES>
C[Si]1(C)N[Si](C)(C)N[Si](C)(C)N1

> <STRUCTURE_SMILES_Desalt>
C[Si]1(C)N[Si](C)(C)N[Si](C)(C)N1

> <Substance_modify_yyyymmdd>
20080429

$$$$
