1009-61-6
ChemmineR-0915142007XD

 12 12  0  0  0  0  0  0  0  0  1 V2000
    0.0000   -2.3023    0.0000 C   0  0  0  0  0  0  0  0  0  0  0  0
    0.6654   -1.1511    0.0000 C   0  0  0  0  0  0  0  0  0  0  0  0
    1.9962   -1.1511    0.0000 C   0  0  0  0  0  0  0  0  0  0  0  0
    2.6616    0.0000    0.0000 C   0  0  0  0  0  0  0  0  0  0  0  0
    3.9924    0.0000    0.0000 C   0  0  0  0  0  0  0  0  0  0  0  0
    2.6616   -2.3023    0.0000 C   0  0  0  0  0  0  0  0  0  0  0  0
    3.9924   -2.3023    0.0000 C   0  0  0  0  0  0  0  0  0  0  0  0
    4.6578   -1.1511    0.0000 C   0  0  0  0  0  0  0  0  0  0  0  0
    5.9885   -1.1511    0.0000 C   0  0  0  0  0  0  0  0  0  0  0  0
    6.6539    0.0000    0.0000 C   0  0  0  0  0  0  0  0  0  0  0  0
    6.6539   -2.3023    0.0000 O   0  0  0  0  0  0  0  0  0  0  0  0
    0.0000    0.0000    0.0000 O   0  0  0  0  0  0  0  0  0  0  0  0
  1  2  1  0  0  0  0
  2  3  1  0  0  0  0
  2 12  2  0  0  0  0
  3  4  1  0  0  0  0
  3  6  2  0  0  0  0
  4  5  2  0  0  0  0
  5  8  1  0  0  0  0
  6  7  1  0  0  0  0
  7  8  2  0  0  0  0
  8  9  1  0  0  0  0
  9 10  1  0  0  0  0
  9 11  2  0  0  0  0
M  END
> <ID>
1594

> <Formula>
C10H10O2

> <FW>
162.1852

> <DSSTox_CID>
1657

> <DSSTox_RID>
76269

> <DSSTox_GSID>
21657

> <DSSTox_FileID_Sort>
953

> <TS_ChemName>
1,1-(1,4-Phenylene)bis-ethanone

> <TS_ChemName_Synonyms>


> <TS_CASRN>
1009-61-6

> <CASRN_ChemName_Relationship>
primary

> <TS_Description>
single chemical compound

> <ChemNote>


> <STRUCTURE_Shown>
tested chemical

> <STRUCTURE_Formula>
C10H10O2

> <STRUCTURE_MW>
162.1852

> <STRUCTURE_ChemType>
defined organic

> <STRUCTURE_DefinedOrganicForm>
parent

> <STRUCTURE_IUPAC>
1,1'-benzene-1,4-diyldiethanone

> <STRUCTURE_SMILES>
O=C(C)c1ccc(cc1)C(C)=O

> <STRUCTURE_SMILES_Desalt>
O=C(C)c1ccc(cc1)C(C)=O

> <Substance_modify_yyyymmdd>
20080429

$$$$
