101-11-1
ChemmineR-0915142007XD

 20 21  0  0  0  0  0  0  0  0  1 V2000
    6.9100   -2.6602    0.0000 C   0  0  0  0  0  0  0  0  0  0  0  0
    8.0630   -3.3191    0.0000 C   0  0  0  0  0  0  0  0  0  0  0  0
    8.0630   -4.6451    0.0000 C   0  0  0  0  0  0  0  0  0  0  0  0
    6.9100   -5.3204    0.0000 C   0  0  0  0  0  0  0  0  0  0  0  0
    5.7487   -4.6451    0.0000 C   0  0  0  0  0  0  0  0  0  0  0  0
    5.7487   -3.3191    0.0000 C   0  0  0  0  0  0  0  0  0  0  0  0
    6.9100   -1.3260    0.0000 S   0  0  0  0  0  0  0  0  0  0  0  0
    8.2360   -1.3260    0.0000 O   0  0  0  0  0  0  0  0  0  0  0  0
    5.5757   -1.3260    0.0000 O   0  0  0  0  0  0  0  0  0  0  0  0
    6.9100    0.0000    0.0000 O   0  0  0  0  0  0  0  0  0  0  0  0
    4.5957   -5.3204    0.0000 C   0  0  0  0  0  0  0  0  0  0  0  0
    3.4426   -4.6451    0.0000 N   0  0  0  0  0  0  0  0  0  0  0  0
    3.4426   -3.3191    0.0000 C   0  0  0  0  0  0  0  0  0  0  0  0
    2.3061   -2.6602    0.0000 C   0  0  0  0  0  0  0  0  0  0  0  0
    2.3061   -5.3204    0.0000 C   0  0  0  0  0  0  0  0  0  0  0  0
    2.3061   -6.6464    0.0000 C   0  0  0  0  0  0  0  0  0  0  0  0
    1.1530   -4.6451    0.0000 C   0  0  0  0  0  0  0  0  0  0  0  0
    1.1530   -7.3053    0.0000 C   0  0  0  0  0  0  0  0  0  0  0  0
    0.0000   -5.3204    0.0000 C   0  0  0  0  0  0  0  0  0  0  0  0
    0.0000   -6.6464    0.0000 C   0  0  0  0  0  0  0  0  0  0  0  0
  1  2  2  0  0  0  0
  1  6  1  0  0  0  0
  1  7  1  0  0  0  0
  2  3  1  0  0  0  0
  3  4  2  0  0  0  0
  4  5  1  0  0  0  0
  5  6  2  0  0  0  0
  5 11  1  0  0  0  0
  7  8  2  0  0  0  0
  7  9  1  0  0  0  0
  7 10  2  0  0  0  0
 11 12  1  0  0  0  0
 12 13  1  0  0  0  0
 12 15  1  0  0  0  0
 13 14  1  0  0  0  0
 15 16  2  0  0  0  0
 15 17  1  0  0  0  0
 16 18  1  0  0  0  0
 17 19  2  0  0  0  0
 18 20  2  0  0  0  0
 19 20  1  0  0  0  0
M  END
> <ID>
5806

> <Formula>
C15H17NO3S

> <FW>
291.3654

> <DSSTox_CID>
9136

> <DSSTox_RID>
78679

> <DSSTox_GSID>
29136

> <DSSTox_FileID_Sort>
3361

> <TS_ChemName>
Benzenesulfonic acid, 3-[(ethylphenylamino)methyl]-

> <TS_ChemName_Synonyms>
Benzenesulfonic acid, 3-[(ethylphenylamino)methyl]- (.alpha.-(N-Ethylanilino)-m-toluenesulfonic acid)

> <TS_CASRN>
101-11-1

> <CASRN_ChemName_Relationship>
primary

> <TS_Description>
single chemical compound

> <ChemNote>


> <STRUCTURE_Shown>
tested chemical

> <STRUCTURE_Formula>
C15H17NO3S

> <STRUCTURE_MW>
291.3654

> <STRUCTURE_ChemType>
defined organic

> <STRUCTURE_DefinedOrganicForm>
parent

> <STRUCTURE_IUPAC>
3-{[ethyl(phenyl)amino]methyl}benzenesulfonic acid

> <STRUCTURE_SMILES>
OS(=O)(=O)c2cc(CN(CC)c1ccccc1)ccc2

> <STRUCTURE_SMILES_Desalt>
OS(=O)(=O)c2cc(CN(CC)c1ccccc1)ccc2

> <Substance_modify_yyyymmdd>
20080429

$$$$
