101-37-1
ChemmineR-0915142007XD

 18 18  0  0  0  0  0  0  0  0  1 V2000
    3.4509   -3.3212    0.0000 N   0  0  0  0  0  0  0  0  0  0  0  0
    4.6078   -3.9895    0.0000 C   0  0  0  0  0  0  0  0  0  0  0  0
    4.6078   -5.3160    0.0000 N   0  0  0  0  0  0  0  0  0  0  0  0
    3.4509   -5.9842    0.0000 C   0  0  0  0  0  0  0  0  0  0  0  0
    2.3039   -5.3160    0.0000 N   0  0  0  0  0  0  0  0  0  0  0  0
    2.3039   -3.9895    0.0000 C   0  0  0  0  0  0  0  0  0  0  0  0
    5.7548   -3.3212    0.0000 O   0  0  0  0  0  0  0  0  0  0  0  0
    6.9118   -3.9895    0.0000 C   0  0  0  0  0  0  0  0  0  0  0  0
    8.0587   -3.3212    0.0000 C   0  0  0  0  0  0  0  0  0  0  0  0
    9.2157   -3.9895    0.0000 C   0  0  0  0  0  0  0  0  0  0  0  0
    3.4509   -7.3107    0.0000 O   0  0  0  0  0  0  0  0  0  0  0  0
    2.3039   -7.9789    0.0000 C   0  0  0  0  0  0  0  0  0  0  0  0
    2.3039   -9.3054    0.0000 C   0  0  0  0  0  0  0  0  0  0  0  0
    1.1470   -9.9737    0.0000 C   0  0  0  0  0  0  0  0  0  0  0  0
    1.1470   -3.3212    0.0000 O   0  0  0  0  0  0  0  0  0  0  0  0
    1.1470   -1.9947    0.0000 C   0  0  0  0  0  0  0  0  0  0  0  0
    0.0000   -1.3265    0.0000 C   0  0  0  0  0  0  0  0  0  0  0  0
    0.0000    0.0000    0.0000 C   0  0  0  0  0  0  0  0  0  0  0  0
  1  2  2  0  0  0  0
  1  6  1  0  0  0  0
  2  3  1  0  0  0  0
  2  7  1  0  0  0  0
  3  4  2  0  0  0  0
  4  5  1  0  0  0  0
  4 11  1  0  0  0  0
  5  6  2  0  0  0  0
  6 15  1  0  0  0  0
  7  8  1  0  0  0  0
  8  9  1  0  0  0  0
  9 10  2  0  0  0  0
 11 12  1  0  0  0  0
 12 13  1  0  0  0  0
 13 14  2  0  0  0  0
 15 16  1  0  0  0  0
 16 17  1  0  0  0  0
 17 18  2  0  0  0  0
M  END
> <ID>
7430

> <Formula>
C12H15N3O3

> <FW>
249.2658

> <DSSTox_CID>
17754

> <DSSTox_RID>
79376

> <DSSTox_GSID>
37754

> <DSSTox_FileID_Sort>
4058

> <TS_ChemName>
2,4,6-Tris(allyloxy)-1,3,5-triazine

> <TS_ChemName_Synonyms>
2,4,6-Tris(allyloxy)-1,3,5-triazine (1,3,5-Triazine, 2,4,6-tris(2-propenyloxy)-)

> <TS_CASRN>
101-37-1

> <CASRN_ChemName_Relationship>
primary

> <TS_Description>
single chemical compound

> <ChemNote>


> <STRUCTURE_Shown>
tested chemical

> <STRUCTURE_Formula>
C12H15N3O3

> <STRUCTURE_MW>
249.2658

> <STRUCTURE_ChemType>
defined organic

> <STRUCTURE_DefinedOrganicForm>
parent

> <STRUCTURE_IUPAC>
2,4,6-tris(prop-2-en-1-yloxy)-1,3,5-triazine

> <STRUCTURE_SMILES>
C=CCOc1nc(nc(OCC=C)n1)OCC=C

> <STRUCTURE_SMILES_Desalt>
C=CCOc1nc(nc(OCC=C)n1)OCC=C

> <Substance_modify_yyyymmdd>
20080429

$$$$
