101-93-9
ChemmineR-0915142007XD

 22 23  0  0  0  0  0  0  0  0  1 V2000
    0.0000   -2.6597    0.0000 C   0  0  0  0  0  0  0  0  0  0  0  0
    1.1445   -1.9988    0.0000 C   0  0  0  0  0  0  0  0  0  0  0  0
    2.3051   -2.6597    0.0000 O   0  0  0  0  0  0  0  0  0  0  0  0
    3.4495   -1.9988    0.0000 C   0  0  0  0  0  0  0  0  0  0  0  0
    3.4495   -0.6609    0.0000 C   0  0  0  0  0  0  0  0  0  0  0  0
    4.6101    0.0000    0.0000 C   0  0  0  0  0  0  0  0  0  0  0  0
    5.7546   -0.6609    0.0000 C   0  0  0  0  0  0  0  0  0  0  0  0
    6.9152    0.0000    0.0000 N   0  0  0  0  0  0  0  0  0  0  0  0
    8.0597   -0.6609    0.0000 C   0  0  0  0  0  0  0  0  0  0  0  0
    8.0597   -1.9988    0.0000 C   0  0  0  0  0  0  0  0  0  0  0  0
    9.2041    0.0000    0.0000 N   0  0  0  0  0  0  0  0  0  0  0  0
   10.3647   -0.6609    0.0000 C   0  0  0  0  0  0  0  0  0  0  0  0
   11.5092    0.0000    0.0000 C   0  0  0  0  0  0  0  0  0  0  0  0
   12.6698   -0.6609    0.0000 C   0  0  0  0  0  0  0  0  0  0  0  0
   12.6698   -1.9988    0.0000 C   0  0  0  0  0  0  0  0  0  0  0  0
   13.8143   -2.6597    0.0000 O   0  0  0  0  0  0  0  0  0  0  0  0
   14.9749   -1.9988    0.0000 C   0  0  0  0  0  0  0  0  0  0  0  0
   16.1193   -2.6597    0.0000 C   0  0  0  0  0  0  0  0  0  0  0  0
   11.5092   -2.6597    0.0000 C   0  0  0  0  0  0  0  0  0  0  0  0
   10.3647   -1.9988    0.0000 C   0  0  0  0  0  0  0  0  0  0  0  0
    5.7546   -1.9988    0.0000 C   0  0  0  0  0  0  0  0  0  0  0  0
    4.6101   -2.6597    0.0000 C   0  0  0  0  0  0  0  0  0  0  0  0
  1  2  1  0  0  0  0
  2  3  1  0  0  0  0
  3  4  1  0  0  0  0
  4  5  2  0  0  0  0
  4 22  1  0  0  0  0
  5  6  1  0  0  0  0
  6  7  2  0  0  0  0
  7  8  1  0  0  0  0
  7 21  1  0  0  0  0
  8  9  1  0  0  0  0
  9 10  2  0  0  0  0
  9 11  1  0  0  0  0
 11 12  1  0  0  0  0
 12 13  2  0  0  0  0
 12 20  1  0  0  0  0
 13 14  1  0  0  0  0
 14 15  2  0  0  0  0
 15 16  1  0  0  0  0
 15 19  1  0  0  0  0
 16 17  1  0  0  0  0
 17 18  1  0  0  0  0
 19 20  2  0  0  0  0
 21 22  2  0  0  0  0
M  END
> <ID>
11381

> <Formula>
C18H22N2O2

> <FW>
298.3795

> <DSSTox_CID>
26062

> <DSSTox_RID>
81313

> <DSSTox_GSID>
46062

> <DSSTox_FileID_Sort>
5994

> <TS_ChemName>
Phenacaine

> <TS_ChemName_Synonyms>


> <TS_CASRN>
101-93-9

> <CASRN_ChemName_Relationship>
primary

> <TS_Description>
single chemical compound

> <ChemNote>


> <STRUCTURE_Shown>
tested chemical

> <STRUCTURE_Formula>
C18H22N2O2

> <STRUCTURE_MW>
298.3795

> <STRUCTURE_ChemType>
defined organic

> <STRUCTURE_DefinedOrganicForm>
parent

> <STRUCTURE_IUPAC>
N,N'-bis(4-ethoxyphenyl)ethene-1,1-diamine

> <STRUCTURE_SMILES>
CCOc1ccc(cc1)NC(=C)Nc2ccc(OCC)cc2

> <STRUCTURE_SMILES_Desalt>
CCOc1ccc(cc1)NC(=C)Nc2ccc(OCC)cc2

> <Substance_modify_yyyymmdd>
20110823

$$$$
