101-63-3
ChemmineR-0915142007XD

 19 20  0  0  0  0  0  0  0  0  2 V2000
    6.9107   -0.6565    0.0000 C   0  0  0  0  0  0  0  0  0  0  0  0
    8.0625    0.0000    0.0000 C   0  0  0  0  0  0  0  0  0  0  0  0
    9.2143   -0.6565    0.0000 C   0  0  0  0  0  0  0  0  0  0  0  0
    9.2143   -1.9926    0.0000 C   0  0  0  0  0  0  0  0  0  0  0  0
    8.0625   -2.6606    0.0000 C   0  0  0  0  0  0  0  0  0  0  0  0
    6.9107   -1.9926    0.0000 C   0  0  0  0  0  0  0  0  0  0  0  0
   10.3661   -2.6606    0.0000 N   0  3  0  0  0  0  0  0  0  0  0  0
   11.5179   -1.9926    0.0000 O   0  5  0  0  0  0  0  0  0  0  0  0
   10.3661   -3.9852    0.0000 O   0  0  0  0  0  0  0  0  0  0  0  0
    4.6072   -0.6565    0.0000 C   0  0  0  0  0  0  0  0  0  0  0  0
    4.6072   -1.9926    0.0000 C   0  0  0  0  0  0  0  0  0  0  0  0
    3.4554   -2.6606    0.0000 C   0  0  0  0  0  0  0  0  0  0  0  0
    2.3036   -1.9926    0.0000 C   0  0  0  0  0  0  0  0  0  0  0  0
    2.3036   -0.6565    0.0000 C   0  0  0  0  0  0  0  0  0  0  0  0
    3.4554    0.0000    0.0000 C   0  0  0  0  0  0  0  0  0  0  0  0
    1.1518   -2.6606    0.0000 N   0  3  0  0  0  0  0  0  0  0  0  0
    1.1518   -3.9852    0.0000 O   0  5  0  0  0  0  0  0  0  0  0  0
    0.0000   -1.9926    0.0000 O   0  0  0  0  0  0  0  0  0  0  0  0
    5.7590    0.0000    0.0000 O   0  0  0  0  0  0  0  0  0  0  0  0
  1  2  2  0  0  0  0
  1  6  1  0  0  0  0
  1 19  1  0  0  0  0
  2  3  1  0  0  0  0
  3  4  2  0  0  0  0
  4  5  1  0  0  0  0
  4  7  1  0  0  0  0
  5  6  2  0  0  0  0
  7  8  1  0  0  0  0
  7  9  2  0  0  0  0
 10 11  2  0  0  0  0
 10 15  1  0  0  0  0
 10 19  1  0  0  0  0
 11 12  1  0  0  0  0
 12 13  2  0  0  0  0
 13 14  1  0  0  0  0
 13 16  1  0  0  0  0
 14 15  2  0  0  0  0
 16 17  1  0  0  0  0
 16 18  2  0  0  0  0
M  END
> <ID>
4761

> <Formula>
C12H8N2O5

> <FW>
260.2023

> <DSSTox_CID>
6676

> <DSSTox_RID>
78181

> <DSSTox_GSID>
26676

> <DSSTox_FileID_Sort>
2864

> <TS_ChemName>
1,1'-Oxybis(4-nitrobenzene)

> <TS_ChemName_Synonyms>


> <TS_CASRN>
101-63-3

> <CASRN_ChemName_Relationship>
primary

> <TS_Description>
single chemical compound

> <ChemNote>


> <STRUCTURE_Shown>
tested chemical

> <STRUCTURE_Formula>
C12H8N2O5

> <STRUCTURE_MW>
260.2023

> <STRUCTURE_ChemType>
defined organic

> <STRUCTURE_DefinedOrganicForm>
parent

> <STRUCTURE_IUPAC>
bis(4-nitrophenyl) ether

> <STRUCTURE_SMILES>
[O-][N+](=O)c1ccc(cc1)Oc2ccc(cc2)[N+]([O-])=O

> <STRUCTURE_SMILES_Desalt>
[O-][N+](=O)c1ccc(cc1)Oc2ccc(cc2)[N+]([O-])=O

> <Substance_modify_yyyymmdd>
20080429

$$$$
