101-41-7
ChemmineR-0915142007XD

 11 11  0  0  0  0  0  0  0  0  1 V2000
    2.2996   -0.6906    0.0000 C   0  0  0  0  0  0  0  0  0  0  0  0
    2.2996   -2.0096    0.0000 C   0  0  0  0  0  0  0  0  0  0  0  0
    1.1602   -2.6864    0.0000 C   0  0  0  0  0  0  0  0  0  0  0  0
    0.0000   -2.0441    0.0000 C   0  0  0  0  0  0  0  0  0  0  0  0
    0.0000   -0.7044    0.0000 C   0  0  0  0  0  0  0  0  0  0  0  0
    1.1395   -0.0276    0.0000 C   0  0  0  0  0  0  0  0  0  0  0  0
    4.6062   -0.6768    0.0000 C   0  0  0  0  0  0  0  0  0  0  0  0
    4.6062   -2.0096    0.0000 O   0  0  0  0  0  0  0  0  0  0  0  0
    5.7456    0.0000    0.0000 O   0  0  0  0  0  0  0  0  0  0  0  0
    3.4460   -0.0138    0.0000 C   0  0  0  0  0  0  0  0  0  0  0  0
    6.9058   -0.6561    0.0000 C   0  0  0  0  0  0  0  0  0  0  0  0
  1  2  2  0  0  0  0
  1  6  1  0  0  0  0
  1 10  1  0  0  0  0
  2  3  1  0  0  0  0
  3  4  2  0  0  0  0
  4  5  1  0  0  0  0
  5  6  2  0  0  0  0
  7  8  2  0  0  0  0
  7  9  1  0  0  0  0
  7 10  1  0  0  0  0
  9 11  1  0  0  0  0
M  END
> <ID>
10010

> <Formula>
C9H10O2

> <FW>
150.1745

> <DSSTox_CID>
24352

> <DSSTox_RID>
80161

> <DSSTox_GSID>
44352

> <DSSTox_FileID_Sort>
4843

> <TS_ChemName>
Methyl phenylacetate

> <TS_ChemName_Synonyms>
Benzeneacetic acid, methyl ester

> <TS_CASRN>
101-41-7

> <CASRN_ChemName_Relationship>
primary

> <TS_Description>
single chemical compound

> <ChemNote>


> <STRUCTURE_Shown>
tested chemical

> <STRUCTURE_Formula>
C9H10O2

> <STRUCTURE_MW>
150.1745

> <STRUCTURE_ChemType>
defined organic

> <STRUCTURE_DefinedOrganicForm>
parent

> <STRUCTURE_IUPAC>
methyl phenylacetate

> <STRUCTURE_SMILES>
O=C(OC)Cc1ccccc1

> <STRUCTURE_SMILES_Desalt>
O=C(OC)Cc1ccccc1

> <Substance_modify_yyyymmdd>
20091116

$$$$
