101-81-5
ChemmineR-0915142007XD

 13 14  0  0  0  0  0  0  0  0  1 V2000
    3.4583    0.0000    0.0000 C   0  0  0  0  0  0  0  0  0  0  0  0
    4.6203   -0.6709    0.0000 C   0  0  0  0  0  0  0  0  0  0  0  0
    2.2963   -0.6709    0.0000 C   0  0  0  0  0  0  0  0  0  0  0  0
    4.6203   -2.0058    0.0000 C   0  0  0  0  0  0  0  0  0  0  0  0
    2.2963   -2.0058    0.0000 C   0  0  0  0  0  0  0  0  0  0  0  0
    5.7546    0.0000    0.0000 C   0  0  0  0  0  0  0  0  0  0  0  0
    1.1620   -0.0138    0.0000 C   0  0  0  0  0  0  0  0  0  0  0  0
    6.9166   -0.6709    0.0000 C   0  0  0  0  0  0  0  0  0  0  0  0
    5.7546   -2.6767    0.0000 C   0  0  0  0  0  0  0  0  0  0  0  0
    0.0000   -0.6847    0.0000 C   0  0  0  0  0  0  0  0  0  0  0  0
    1.1620   -2.6629    0.0000 C   0  0  0  0  0  0  0  0  0  0  0  0
    0.0000   -1.9920    0.0000 C   0  0  0  0  0  0  0  0  0  0  0  0
    6.9166   -2.0058    0.0000 C   0  0  0  0  0  0  0  0  0  0  0  0
  1  2  1  0  0  0  0
  1  3  1  0  0  0  0
  2  4  1  0  0  0  0
  2  6  2  0  0  0  0
  3  5  2  0  0  0  0
  3  7  1  0  0  0  0
  4  9  2  0  0  0  0
  5 11  1  0  0  0  0
  6  8  1  0  0  0  0
  7 10  2  0  0  0  0
  8 13  2  0  0  0  0
  9 13  1  0  0  0  0
 10 12  1  0  0  0  0
 11 12  2  0  0  0  0
M  END
> <ID>
8837

> <Formula>
C13H12

> <FW>
168.2344

> <DSSTox_CID>
21891

> <DSSTox_RID>
79869

> <DSSTox_GSID>
41891

> <DSSTox_FileID_Sort>
4551

> <TS_ChemName>
Diphenylmethane

> <TS_ChemName_Synonyms>


> <TS_CASRN>
101-81-5

> <CASRN_ChemName_Relationship>
primary

> <TS_Description>
single chemical compound

> <ChemNote>


> <STRUCTURE_Shown>
tested chemical

> <STRUCTURE_Formula>
C13H12

> <STRUCTURE_MW>
168.2344

> <STRUCTURE_ChemType>
defined organic

> <STRUCTURE_DefinedOrganicForm>
parent

> <STRUCTURE_IUPAC>
1,1'-methanediyldibenzene

> <STRUCTURE_SMILES>
c1ccccc1Cc2ccccc2

> <STRUCTURE_SMILES_Desalt>
c1ccccc1Cc2ccccc2

> <Substance_modify_yyyymmdd>
20080825

$$$$
