101-96-2
ChemmineR-0915142007XD

 16 16  0  0  0  0  0  0  0  0  1 V2000
    7.9749   -2.2968    0.0000 N   0  0  0  0  0  0  0  0  0  0  0  0
    6.6457   -2.2968    0.0000 C   0  0  0  0  0  0  0  0  0  0  0  0
    5.9865   -3.4558    0.0000 C   0  0  0  0  0  0  0  0  0  0  0  0
    4.6573   -3.4558    0.0000 C   0  0  0  0  0  0  0  0  0  0  0  0
    3.9874   -2.2968    0.0000 C   0  0  0  0  0  0  0  0  0  0  0  0
    2.6583   -2.2968    0.0000 N   0  0  0  0  0  0  0  0  0  0  0  0
    1.9884   -1.1484    0.0000 C   0  0  0  0  0  0  0  0  0  0  0  0
    0.6593   -1.1484    0.0000 C   0  0  0  0  0  0  0  0  0  0  0  0
    0.0000   -2.2968    0.0000 C   0  0  0  0  0  0  0  0  0  0  0  0
    2.6583    0.0000    0.0000 C   0  0  0  0  0  0  0  0  0  0  0  0
    4.6573   -1.1484    0.0000 C   0  0  0  0  0  0  0  0  0  0  0  0
    5.9865   -1.1484    0.0000 C   0  0  0  0  0  0  0  0  0  0  0  0
    8.6448   -3.4558    0.0000 C   0  0  0  0  0  0  0  0  0  0  0  0
    9.9633   -3.4558    0.0000 C   0  0  0  0  0  0  0  0  0  0  0  0
   10.6332   -2.2968    0.0000 C   0  0  0  0  0  0  0  0  0  0  0  0
    7.9749   -4.6042    0.0000 C   0  0  0  0  0  0  0  0  0  0  0  0
  1  2  1  0  0  0  0
  1 13  1  0  0  0  0
  2  3  2  0  0  0  0
  2 12  1  0  0  0  0
  3  4  1  0  0  0  0
  4  5  2  0  0  0  0
  5  6  1  0  0  0  0
  5 11  1  0  0  0  0
  6  7  1  0  0  0  0
  7  8  1  0  0  0  0
  7 10  1  0  0  0  0
  8  9  1  0  0  0  0
 11 12  2  0  0  0  0
 13 14  1  0  0  0  0
 13 16  1  0  0  0  0
 14 15  1  0  0  0  0
M  END
> <ID>
3936

> <Formula>
C14H24N2

> <FW>
220.3538

> <DSSTox_CID>
4956

> <DSSTox_RID>
77598

> <DSSTox_GSID>
24956

> <DSSTox_FileID_Sort>
2281

> <TS_ChemName>
N,N'-Bis(1-methylpropyl)-1,4-benzenediamine

> <TS_ChemName_Synonyms>
N,N'-Bis(1-methylpropyl)-1,4-benzenediamine (N,N'-Di-sec-butyl-p-phenyldiamine)

> <TS_CASRN>
101-96-2

> <CASRN_ChemName_Relationship>
primary

> <TS_Description>
single chemical compound

> <ChemNote>


> <STRUCTURE_Shown>
tested chemical

> <STRUCTURE_Formula>
C14H24N2

> <STRUCTURE_MW>
220.3538

> <STRUCTURE_ChemType>
defined organic

> <STRUCTURE_DefinedOrganicForm>
parent

> <STRUCTURE_IUPAC>
N,N'-di(butan-2-yl)benzene-1,4-diamine

> <STRUCTURE_SMILES>
CC(CC)Nc1ccc(NC(C)CC)cc1

> <STRUCTURE_SMILES_Desalt>
CC(CC)Nc1ccc(NC(C)CC)cc1

> <Substance_modify_yyyymmdd>
20080429

$$$$
