101-21-3
ChemmineR-0915142007XD

 14 14  0  0  0  0  0  0  0  0  1 V2000
    3.4524   -0.6629    0.0000 O    0  0  0  0  0  0  0  0  0  0  0  0
    3.4524   -1.9978    0.0000 C    0  0  0  0  0  0  0  0  0  0  0  0
    4.6031   -2.6606    0.0000 N    0  0  0  0  0  0  0  0  0  0  0  0
    5.7539   -1.9978    0.0000 C    0  0  0  0  0  0  0  0  0  0  0  0
    5.7539   -0.6629    0.0000 C    0  0  0  0  0  0  0  0  0  0  0  0
    6.9047    0.0000    0.0000 C    0  0  0  0  0  0  0  0  0  0  0  0
    8.0555   -0.6629    0.0000 C    0  0  0  0  0  0  0  0  0  0  0  0
    8.0555   -1.9978    0.0000 C    0  0  0  0  0  0  0  0  0  0  0  0
    6.9047   -2.6606    0.0000 C    0  0  0  0  0  0  0  0  0  0  0  0
    9.2063   -2.6606    0.0000 Cl   0  0  0  0  0  0  0  0  0  0  0  0
    2.3016   -2.6606    0.0000 O    0  0  0  0  0  0  0  0  0  0  0  0
    1.1508   -1.9978    0.0000 C    0  0  0  0  0  0  0  0  0  0  0  0
    0.0000   -2.6606    0.0000 C    0  0  0  0  0  0  0  0  0  0  0  0
    1.1508   -0.6629    0.0000 C    0  0  0  0  0  0  0  0  0  0  0  0
  1  2  2  0  0  0  0
  2  3  1  0  0  0  0
  2 11  1  0  0  0  0
  3  4  1  0  0  0  0
  4  5  2  0  0  0  0
  4  9  1  0  0  0  0
  5  6  1  0  0  0  0
  6  7  2  0  0  0  0
  7  8  1  0  0  0  0
  8  9  2  0  0  0  0
  8 10  1  0  0  0  0
 11 12  1  0  0  0  0
 12 13  1  0  0  0  0
 12 14  1  0  0  0  0
M  END
> <ID>
734

> <Formula>
C10H12ClNO2

> <FW>
213.6608

> <DSSTox_CID>
764

> <DSSTox_RID>
75778

> <DSSTox_GSID>
20764

> <DSSTox_FileID_Sort>
462

> <TS_ChemName>
Chlorpropham

> <TS_ChemName_Synonyms>
Chlorpropham (Isopropyl-N-(3-chlorophenyl) carbamate)

> <TS_CASRN>
101-21-3

> <CASRN_ChemName_Relationship>
primary

> <TS_Description>
single chemical compound

> <ChemNote>


> <STRUCTURE_Shown>
tested chemical

> <STRUCTURE_Formula>
C10H12ClNO2

> <STRUCTURE_MW>
213.6608

> <STRUCTURE_ChemType>
defined organic

> <STRUCTURE_DefinedOrganicForm>
parent

> <STRUCTURE_IUPAC>
propan-2-yl (3-chlorophenyl)carbamate

> <STRUCTURE_SMILES>
Clc1cc(NC(=O)OC(C)C)ccc1

> <STRUCTURE_SMILES_Desalt>
Clc1cc(NC(=O)OC(C)C)ccc1

> <Substance_modify_yyyymmdd>
20080429

$$$$
