101-54-2
ChemmineR-0915142007XD

 14 15  0  0  0  0  0  0  0  0  1 V2000
    4.6109   -2.6601    0.0000 N   0  0  0  0  0  0  0  0  0  0  0  0
    5.7555   -1.9991    0.0000 C   0  0  0  0  0  0  0  0  0  0  0  0
    5.7555   -0.6691    0.0000 C   0  0  0  0  0  0  0  0  0  0  0  0
    6.9082    0.0000    0.0000 C   0  0  0  0  0  0  0  0  0  0  0  0
    8.0609   -0.6691    0.0000 C   0  0  0  0  0  0  0  0  0  0  0  0
    8.0609   -1.9991    0.0000 C   0  0  0  0  0  0  0  0  0  0  0  0
    6.9082   -2.6601    0.0000 C   0  0  0  0  0  0  0  0  0  0  0  0
    3.4581   -1.9991    0.0000 C   0  0  0  0  0  0  0  0  0  0  0  0
    2.3054   -2.6601    0.0000 C   0  0  0  0  0  0  0  0  0  0  0  0
    1.1527   -1.9991    0.0000 C   0  0  0  0  0  0  0  0  0  0  0  0
    1.1527   -0.6691    0.0000 C   0  0  0  0  0  0  0  0  0  0  0  0
    0.0000    0.0000    0.0000 N   0  0  0  0  0  0  0  0  0  0  0  0
    2.3054    0.0000    0.0000 C   0  0  0  0  0  0  0  0  0  0  0  0
    3.4581   -0.6691    0.0000 C   0  0  0  0  0  0  0  0  0  0  0  0
  1  2  1  0  0  0  0
  1  8  1  0  0  0  0
  2  3  2  0  0  0  0
  2  7  1  0  0  0  0
  3  4  1  0  0  0  0
  4  5  2  0  0  0  0
  5  6  1  0  0  0  0
  6  7  2  0  0  0  0
  8  9  2  0  0  0  0
  8 14  1  0  0  0  0
  9 10  1  0  0  0  0
 10 11  2  0  0  0  0
 11 12  1  0  0  0  0
 11 13  1  0  0  0  0
 13 14  2  0  0  0  0
M  END
> <ID>
4457

> <Formula>
C12H12N2

> <FW>
184.2371

> <DSSTox_CID>
5895

> <DSSTox_RID>
77963

> <DSSTox_GSID>
25895

> <DSSTox_FileID_Sort>
2646

> <TS_ChemName>
N-Phenyl-1,4-benzenediamine

> <TS_ChemName_Synonyms>
N-Phenyl-1,4-benzenediamine (N-Phenyl-p-phenylenediamine)

> <TS_CASRN>
101-54-2

> <CASRN_ChemName_Relationship>
primary

> <TS_Description>
single chemical compound

> <ChemNote>


> <STRUCTURE_Shown>
tested chemical

> <STRUCTURE_Formula>
C12H12N2

> <STRUCTURE_MW>
184.2371

> <STRUCTURE_ChemType>
defined organic

> <STRUCTURE_DefinedOrganicForm>
parent

> <STRUCTURE_IUPAC>
N-phenylbenzene-1,4-diamine

> <STRUCTURE_SMILES>
Nc2ccc(Nc1ccccc1)cc2

> <STRUCTURE_SMILES_Desalt>
Nc2ccc(Nc1ccccc1)cc2

> <Substance_modify_yyyymmdd>
20080429

$$$$
