101-61-1
ChemmineR-0915142007XD

 19 20  0  0  0  0  0  0  0  0  1 V2000
    5.7456    0.0000    0.0000 C   0  0  0  0  0  0  0  0  0  0  0  0
    6.8970   -0.6678    0.0000 C   0  0  0  0  0  0  0  0  0  0  0  0
    6.8970   -2.0035    0.0000 C   0  0  0  0  0  0  0  0  0  0  0  0
    8.0599    0.0000    0.0000 C   0  0  0  0  0  0  0  0  0  0  0  0
    8.0599   -2.6598    0.0000 C   0  0  0  0  0  0  0  0  0  0  0  0
    9.2113   -0.6678    0.0000 C   0  0  0  0  0  0  0  0  0  0  0  0
    9.2113   -2.0035    0.0000 C   0  0  0  0  0  0  0  0  0  0  0  0
   10.3628   -2.6598    0.0000 N   0  0  0  0  0  0  0  0  0  0  0  0
   11.5142   -2.0035    0.0000 C   0  0  0  0  0  0  0  0  0  0  0  0
   10.3628   -3.9839    0.0000 C   0  0  0  0  0  0  0  0  0  0  0  0
    4.6172   -0.6678    0.0000 C   0  0  0  0  0  0  0  0  0  0  0  0
    3.4543    0.0000    0.0000 C   0  0  0  0  0  0  0  0  0  0  0  0
    4.6172   -2.0035    0.0000 C   0  0  0  0  0  0  0  0  0  0  0  0
    2.3028   -0.6678    0.0000 C   0  0  0  0  0  0  0  0  0  0  0  0
    3.4543   -2.6598    0.0000 C   0  0  0  0  0  0  0  0  0  0  0  0
    2.3028   -2.0035    0.0000 C   0  0  0  0  0  0  0  0  0  0  0  0
    1.1514   -2.6598    0.0000 N   0  0  0  0  0  0  0  0  0  0  0  0
    1.1514   -3.9839    0.0000 C   0  0  0  0  0  0  0  0  0  0  0  0
    0.0000   -2.0035    0.0000 C   0  0  0  0  0  0  0  0  0  0  0  0
  1  2  1  0  0  0  0
  1 11  1  0  0  0  0
  2  3  2  0  0  0  0
  2  4  1  0  0  0  0
  3  5  1  0  0  0  0
  4  6  2  0  0  0  0
  5  7  2  0  0  0  0
  6  7  1  0  0  0  0
  7  8  1  0  0  0  0
  8  9  1  0  0  0  0
  8 10  1  0  0  0  0
 11 12  2  0  0  0  0
 11 13  1  0  0  0  0
 12 14  1  0  0  0  0
 13 15  2  0  0  0  0
 14 16  2  0  0  0  0
 15 16  1  0  0  0  0
 16 17  1  0  0  0  0
 17 18  1  0  0  0  0
 17 19  1  0  0  0  0
M  END
> <ID>
835

> <Formula>
C17H22N2

> <FW>
254.37

> <DSSTox_CID>
869

> <DSSTox_RID>
75837

> <DSSTox_GSID>
20869

> <DSSTox_FileID_Sort>
521

> <TS_ChemName>
4,4'-Methylenebis(N,N-dimethylaniline)

> <TS_ChemName_Synonyms>
4,4'-Methylenebis(N,N-dimethylaniline) (4,4'-Methylenebis(N,N-dimethyl)benzenamine)

> <TS_CASRN>
101-61-1

> <CASRN_ChemName_Relationship>
primary

> <TS_Description>
single chemical compound

> <ChemNote>
Michler's Base

> <STRUCTURE_Shown>
tested chemical

> <STRUCTURE_Formula>
C17H22N2

> <STRUCTURE_MW>
254.37

> <STRUCTURE_ChemType>
defined organic

> <STRUCTURE_DefinedOrganicForm>
parent

> <STRUCTURE_IUPAC>
4,4'-methanediylbis(N,N-dimethylaniline)

> <STRUCTURE_SMILES>
CN(C)c2ccc(Cc1ccc(cc1)N(C)C)cc2

> <STRUCTURE_SMILES_Desalt>
CN(C)c2ccc(Cc1ccc(cc1)N(C)C)cc2

> <Substance_modify_yyyymmdd>
20080429

$$$$
