101-68-8
ChemmineR-0915142007XD

 19 20  0  0  0  0  0  0  0  0  1 V2000
    0.0000   -1.3381    0.0000 O   0  0  0  0  0  0  0  0  0  0  0  0
    1.1449   -0.6621    0.0000 C   0  0  0  0  0  0  0  0  0  0  0  0
    6.9111   -2.6624    0.0000 C   0  0  0  0  0  0  0  0  0  0  0  0
   10.3459   -0.6621    0.0000 C   0  0  0  0  0  0  0  0  0  0  0  0
   10.3459   -2.0002    0.0000 C   0  0  0  0  0  0  0  0  0  0  0  0
    9.2010    0.0000    0.0000 C   0  0  0  0  0  0  0  0  0  0  0  0
    9.2010   -2.6624    0.0000 C   0  0  0  0  0  0  0  0  0  0  0  0
    8.0422   -0.6621    0.0000 C   0  0  0  0  0  0  0  0  0  0  0  0
    8.0422   -2.0002    0.0000 C   0  0  0  0  0  0  0  0  0  0  0  0
    5.7523   -0.6621    0.0000 C   0  0  0  0  0  0  0  0  0  0  0  0
    5.7523   -2.0002    0.0000 C   0  0  0  0  0  0  0  0  0  0  0  0
    4.5936    0.0000    0.0000 C   0  0  0  0  0  0  0  0  0  0  0  0
    4.5936   -2.6624    0.0000 C   0  0  0  0  0  0  0  0  0  0  0  0
    3.4486   -0.6621    0.0000 C   0  0  0  0  0  0  0  0  0  0  0  0
    3.4486   -2.0002    0.0000 C   0  0  0  0  0  0  0  0  0  0  0  0
   11.5047    0.0000    0.0000 N   0  0  0  0  0  0  0  0  0  0  0  0
    2.2899    0.0000    0.0000 N   0  0  0  0  0  0  0  0  0  0  0  0
   12.6496   -0.6621    0.0000 C   0  0  0  0  0  0  0  0  0  0  0  0
   13.7946   -1.3381    0.0000 O   0  0  0  0  0  0  0  0  0  0  0  0
  1  2  2  0  0  0  0
  2 17  2  0  0  0  0
  3  9  1  0  0  0  0
  3 11  1  0  0  0  0
  4  5  1  0  0  0  0
  4  6  2  0  0  0  0
  4 16  1  0  0  0  0
  5  7  2  0  0  0  0
  6  8  1  0  0  0  0
  7  9  1  0  0  0  0
  8  9  2  0  0  0  0
 10 11  1  0  0  0  0
 10 12  2  0  0  0  0
 11 13  2  0  0  0  0
 12 14  1  0  0  0  0
 13 15  1  0  0  0  0
 14 15  2  0  0  0  0
 14 17  1  0  0  0  0
 16 18  2  0  0  0  0
 18 19  2  0  0  0  0
M  END
> <ID>
3556

> <Formula>
C15H10N2O2

> <FW>
250.2521

> <DSSTox_CID>
4196

> <DSSTox_RID>
77697

> <DSSTox_GSID>
25180

> <DSSTox_FileID_Sort>
2380

> <TS_ChemName>
4,4'-Diphenylmethane diisocyanate

> <TS_ChemName_Synonyms>
4,4'-Diphenylmethane diisocyanate (4,4'-Methylenedi(phenyl isocyanate)) (1-isocyanato-4-[(4-isocyanatophenyl)methyl]benzene)

> <TS_CASRN>
101-68-8

> <CASRN_ChemName_Relationship>
primary

> <TS_Description>
single chemical compound

> <ChemNote>


> <STRUCTURE_Shown>
tested chemical

> <STRUCTURE_Formula>
C15H10N2O2

> <STRUCTURE_MW>
250.2521

> <STRUCTURE_ChemType>
defined organic

> <STRUCTURE_DefinedOrganicForm>
parent

> <STRUCTURE_IUPAC>
1,1'-methanediylbis(4-isocyanatobenzene)

> <STRUCTURE_SMILES>
O=C=N/c1ccc(cc1)Cc2ccc(/N=C=O)cc2

> <STRUCTURE_SMILES_Desalt>
O=C=N/c1ccc(cc1)Cc2ccc(/N=C=O)cc2

> <Substance_modify_yyyymmdd>
20080429

$$$$
