101-42-8
ChemmineR-0915142007XD

 12 12  0  0  0  0  0  0  0  0  1 V2000
    4.6015   -1.9869    0.0000 C   0  0  0  0  0  0  0  0  0  0  0  0
    3.4494   -2.6629    0.0000 N   0  0  0  0  0  0  0  0  0  0  0  0
    5.7467   -2.6629    0.0000 N   0  0  0  0  0  0  0  0  0  0  0  0
    4.6015   -0.6554    0.0000 O   0  0  0  0  0  0  0  0  0  0  0  0
    2.2973   -1.9869    0.0000 C   0  0  0  0  0  0  0  0  0  0  0  0
    5.7467   -3.9944    0.0000 C   0  0  0  0  0  0  0  0  0  0  0  0
    6.8988   -1.9869    0.0000 C   0  0  0  0  0  0  0  0  0  0  0  0
    1.1383   -2.6491    0.0000 C   0  0  0  0  0  0  0  0  0  0  0  0
    2.2973   -0.6554    0.0000 C   0  0  0  0  0  0  0  0  0  0  0  0
    1.1383    0.0000    0.0000 C   0  0  0  0  0  0  0  0  0  0  0  0
    0.0000   -1.9869    0.0000 C   0  0  0  0  0  0  0  0  0  0  0  0
    0.0000   -0.6554    0.0000 C   0  0  0  0  0  0  0  0  0  0  0  0
  1  2  1  0  0  0  0
  1  3  1  0  0  0  0
  1  4  2  0  0  0  0
  2  5  1  0  0  0  0
  3  6  1  0  0  0  0
  3  7  1  0  0  0  0
  5  8  2  0  0  0  0
  5  9  1  0  0  0  0
  8 11  1  0  0  0  0
  9 10  2  0  0  0  0
 10 12  1  0  0  0  0
 11 12  2  0  0  0  0
M  END
> <ID>
7335

> <Formula>
C9H12N2O

> <FW>
164.2044

> <DSSTox_CID>
17551

> <DSSTox_RID>
79334

> <DSSTox_GSID>
37551

> <DSSTox_FileID_Sort>
4016

> <TS_ChemName>
Fenuron

> <TS_ChemName_Synonyms>


> <TS_CASRN>
101-42-8

> <CASRN_ChemName_Relationship>
primary

> <TS_Description>
single chemical compound

> <ChemNote>


> <STRUCTURE_Shown>
tested chemical

> <STRUCTURE_Formula>
C9H12N2O

> <STRUCTURE_MW>
164.2044

> <STRUCTURE_ChemType>
defined organic

> <STRUCTURE_DefinedOrganicForm>
parent

> <STRUCTURE_IUPAC>
1,1-dimethyl-3-phenylurea

> <STRUCTURE_SMILES>
O=C(Nc1ccccc1)N(C)C

> <STRUCTURE_SMILES_Desalt>
O=C(Nc1ccccc1)N(C)C

> <Substance_modify_yyyymmdd>
20080429

$$$$
