101-79-1
ChemmineR-0915142007XD

 15 16  0  0  0  0  0  0  0  0  1 V2000
    9.2080   -2.6611    0.0000 N    0  0  0  0  0  0  0  0  0  0  0  0
    8.0570   -1.9981    0.0000 C    0  0  0  0  0  0  0  0  0  0  0  0
    6.9060   -2.6611    0.0000 C    0  0  0  0  0  0  0  0  0  0  0  0
    5.7550   -1.9981    0.0000 C    0  0  0  0  0  0  0  0  0  0  0  0
    5.7550   -0.6630    0.0000 C    0  0  0  0  0  0  0  0  0  0  0  0
    6.9060    0.0000    0.0000 C    0  0  0  0  0  0  0  0  0  0  0  0
    8.0570   -0.6630    0.0000 C    0  0  0  0  0  0  0  0  0  0  0  0
    4.6040    0.0000    0.0000 O    0  0  0  0  0  0  0  0  0  0  0  0
    3.4530   -0.6630    0.0000 C    0  0  0  0  0  0  0  0  0  0  0  0
    3.4530   -1.9981    0.0000 C    0  0  0  0  0  0  0  0  0  0  0  0
    2.3020   -2.6611    0.0000 C    0  0  0  0  0  0  0  0  0  0  0  0
    1.1510   -1.9981    0.0000 C    0  0  0  0  0  0  0  0  0  0  0  0
    1.1510   -0.6630    0.0000 C    0  0  0  0  0  0  0  0  0  0  0  0
    2.3020    0.0000    0.0000 C    0  0  0  0  0  0  0  0  0  0  0  0
    0.0000   -2.6611    0.0000 Cl   0  0  0  0  0  0  0  0  0  0  0  0
  1  2  1  0  0  0  0
  2  3  2  0  0  0  0
  2  7  1  0  0  0  0
  3  4  1  0  0  0  0
  4  5  2  0  0  0  0
  5  6  1  0  0  0  0
  5  8  1  0  0  0  0
  6  7  2  0  0  0  0
  8  9  1  0  0  0  0
  9 10  2  0  0  0  0
  9 14  1  0  0  0  0
 10 11  1  0  0  0  0
 11 12  2  0  0  0  0
 12 13  1  0  0  0  0
 12 15  1  0  0  0  0
 13 14  2  0  0  0  0
M  END
> <ID>
266

> <Formula>
C12H10ClNO

> <FW>
219.6669

> <DSSTox_CID>
275

> <DSSTox_RID>
75479

> <DSSTox_GSID>
20275

> <DSSTox_FileID_Sort>
163

> <TS_ChemName>
4-Chloro-4'-aminodiphenyl ether

> <TS_ChemName_Synonyms>
4-Chloro-4'-aminodiphenyl ether (Benzenamine, 4-(4-chlorophenoxy)-)

> <TS_CASRN>
101-79-1

> <CASRN_ChemName_Relationship>
primary

> <TS_Description>
single chemical compound

> <ChemNote>


> <STRUCTURE_Shown>
tested chemical

> <STRUCTURE_Formula>
C12H10ClNO

> <STRUCTURE_MW>
219.6669

> <STRUCTURE_ChemType>
defined organic

> <STRUCTURE_DefinedOrganicForm>
parent

> <STRUCTURE_IUPAC>
4-(4-chlorophenoxy)aniline

> <STRUCTURE_SMILES>
Clc2ccc(Oc1ccc(N)cc1)cc2

> <STRUCTURE_SMILES_Desalt>
Clc2ccc(Oc1ccc(N)cc1)cc2

> <Substance_modify_yyyymmdd>
20080429

$$$$
