101-39-3
ChemmineR-0915142007XD

 11 11  0  0  0  0  0  0  0  0  1 V2000
    2.3089   -0.6706    0.0000 C   0  0  0  0  0  0  0  0  0  0  0  0
    2.3089   -2.0048    0.0000 C   0  0  0  0  0  0  0  0  0  0  0  0
    1.1545    0.0000    0.0000 C   0  0  0  0  0  0  0  0  0  0  0  0
    1.1545   -2.6615    0.0000 C   0  0  0  0  0  0  0  0  0  0  0  0
    0.0000   -0.6706    0.0000 C   0  0  0  0  0  0  0  0  0  0  0  0
    0.0000   -2.0048    0.0000 C   0  0  0  0  0  0  0  0  0  0  0  0
    3.4634   -2.6615    0.0000 C   0  0  0  0  0  0  0  0  0  0  0  0
    4.6179   -2.0048    0.0000 C   0  0  0  0  0  0  0  0  0  0  0  0
    5.7724   -2.6615    0.0000 C   0  0  0  0  0  0  0  0  0  0  0  0
    6.9130   -2.0048    0.0000 O   0  0  0  0  0  0  0  0  0  0  0  0
    4.6179   -0.6706    0.0000 C   0  0  0  0  0  0  0  0  0  0  0  0
  1  3  2  0  0  0  0
  1  2  1  0  0  0  0
  2  4  2  0  0  0  0
  2  7  1  0  0  0  0
  3  5  1  0  0  0  0
  4  6  1  0  0  0  0
  5  6  2  0  0  0  0
  7  8  2  3  0  0  0
  8  9  1  0  0  0  0
  8 11  1  0  0  0  0
  9 10  2  0  0  0  0
M  END
> <ID>
4283

> <Formula>
C10H10O

> <FW>
146.1858

> <DSSTox_CID>
5587

> <DSSTox_RID>
77841

> <DSSTox_GSID>
25587

> <DSSTox_FileID_Sort>
2524

> <TS_ChemName>
alpha-Methyl cinnamaldehyde

> <TS_ChemName_Synonyms>


> <TS_CASRN>
101-39-3

> <CASRN_ChemName_Relationship>
primary

> <TS_Description>
mixture or formulation

> <ChemNote>
mixture of Z [4510-34-3], E [4407-36-7] isomers

> <STRUCTURE_Shown>
representative isomer in mixture

> <STRUCTURE_Formula>
C10H10O

> <STRUCTURE_MW>
146.1858

> <STRUCTURE_ChemType>
defined organic

> <STRUCTURE_DefinedOrganicForm>
parent

> <STRUCTURE_IUPAC>
2-methyl-3-phenylprop-2-enal

> <STRUCTURE_SMILES>
CC(=Cc1ccccc1)C=O

> <STRUCTURE_SMILES_Desalt>
CC(=Cc1ccccc1)C=O

> <Substance_modify_yyyymmdd>
20080429

$$$$
