101-27-9
ChemmineR-0915142007XD

 16 16  0  0  0  0  0  0  0  0  1 V2000
    5.7726   -1.9919    0.0000 C    0  0  0  0  0  0  0  0  0  0  0  0
   10.3906   -3.3240    0.0000 C    0  0  0  0  0  0  0  0  0  0  0  0
    9.2361   -2.6516    0.0000 C    0  0  0  0  0  0  0  0  0  0  0  0
    4.6181   -2.6516    0.0000 N    0  0  0  0  0  0  0  0  0  0  0  0
    3.4509   -1.9792    0.0000 C    0  0  0  0  0  0  0  0  0  0  0  0
    5.7726   -0.6597    0.0000 O    0  0  0  0  0  0  0  0  0  0  0  0
    2.3217   -2.6516    0.0000 C    0  0  0  0  0  0  0  0  0  0  0  0
    1.1545   -1.9792    0.0000 C    0  0  0  0  0  0  0  0  0  0  0  0
    6.9144   -2.6516    0.0000 O    0  0  0  0  0  0  0  0  0  0  0  0
    0.0000   -2.6516    0.0000 Cl   0  0  0  0  0  0  0  0  0  0  0  0
   11.5452   -3.9837    0.0000 C    0  0  0  0  0  0  0  0  0  0  0  0
   12.6870   -3.3240    0.0000 Cl   0  0  0  0  0  0  0  0  0  0  0  0
    8.0689   -1.9919    0.0000 C    0  0  0  0  0  0  0  0  0  0  0  0
    2.2963    0.0000    0.0000 C    0  0  0  0  0  0  0  0  0  0  0  0
    3.4509   -0.6597    0.0000 C    0  0  0  0  0  0  0  0  0  0  0  0
    1.1545   -0.6343    0.0000 C    0  0  0  0  0  0  0  0  0  0  0  0
  1  4  1  0  0  0  0
  1  6  2  0  0  0  0
  1  9  1  0  0  0  0
  2  3  3  0  0  0  0
  2 11  1  0  0  0  0
  3 13  1  0  0  0  0
  4  5  1  0  0  0  0
  5  7  1  0  0  0  0
  5 15  2  0  0  0  0
  7  8  2  0  0  0  0
  8 10  1  0  0  0  0
  8 16  1  0  0  0  0
  9 13  1  0  0  0  0
 11 12  1  0  0  0  0
 14 15  1  0  0  0  0
 14 16  2  0  0  0  0
M  END
> <ID>
8577

> <Formula>
C11H9Cl2NO2

> <FW>
258.1007

> <DSSTox_CID>
21617

> <DSSTox_RID>
79788

> <DSSTox_GSID>
41617

> <DSSTox_FileID_Sort>
4470

> <TS_ChemName>
Barban

> <TS_ChemName_Synonyms>


> <TS_CASRN>
101-27-9

> <CASRN_ChemName_Relationship>
primary

> <TS_Description>
single chemical compound

> <ChemNote>


> <STRUCTURE_Shown>
tested chemical

> <STRUCTURE_Formula>
C11H9Cl2NO2

> <STRUCTURE_MW>
258.1007

> <STRUCTURE_ChemType>
defined organic

> <STRUCTURE_DefinedOrganicForm>
parent

> <STRUCTURE_IUPAC>
4-chlorobut-2-yn-1-yl (3-chlorophenyl)carbamate

> <STRUCTURE_SMILES>
Clc1cc(NC(=O)OCC#CCCl)ccc1

> <STRUCTURE_SMILES_Desalt>
Clc1cc(NC(=O)OCC#CCCl)ccc1

> <Substance_modify_yyyymmdd>
20080825

$$$$
