101-86-0
ChemmineR-0915142007XD

 16 16  0  0  0  0  0  0  0  0  1 V2000
    7.3277   -3.4483    0.0000 C   0  0  0  0  0  0  0  0  0  0  0  0
    5.9947   -3.4483    0.0000 C   0  0  0  0  0  0  0  0  0  0  0  0
    5.3322   -2.2909    0.0000 C   0  0  0  0  0  0  0  0  0  0  0  0
    3.9991   -2.2909    0.0000 C   0  0  0  0  0  0  0  0  0  0  0  0
    3.3446   -1.1574    0.0000 C   0  0  0  0  0  0  0  0  0  0  0  0
    2.0115   -1.1574    0.0000 C   0  0  0  0  0  0  0  0  0  0  0  0
    1.3330    0.0000    0.0000 C   0  0  0  0  0  0  0  0  0  0  0  0
    0.0000    0.0000    0.0000 C   0  0  0  0  0  0  0  0  0  0  0  0
    7.9823   -2.2909    0.0000 O   0  0  0  0  0  0  0  0  0  0  0  0
    5.3322   -4.5898    0.0000 C   0  0  0  0  0  0  0  0  0  0  0  0
    3.9991   -4.5898    0.0000 C   0  0  0  0  0  0  0  0  0  0  0  0
    3.3446   -5.7472    0.0000 C   0  0  0  0  0  0  0  0  0  0  0  0
    3.3446   -3.4483    0.0000 C   0  0  0  0  0  0  0  0  0  0  0  0
    2.0115   -5.7472    0.0000 C   0  0  0  0  0  0  0  0  0  0  0  0
    2.0115   -3.4483    0.0000 C   0  0  0  0  0  0  0  0  0  0  0  0
    1.3330   -4.5898    0.0000 C   0  0  0  0  0  0  0  0  0  0  0  0
  1  2  1  0  0  0  0
  1  9  2  0  0  0  0
  2  3  1  0  0  0  0
  2 10  2  3  0  0  0
  3  4  1  0  0  0  0
  4  5  1  0  0  0  0
  5  6  1  0  0  0  0
  6  7  1  0  0  0  0
  7  8  1  0  0  0  0
 10 11  1  0  0  0  0
 11 12  2  0  0  0  0
 11 13  1  0  0  0  0
 12 14  1  0  0  0  0
 13 15  2  0  0  0  0
 14 16  2  0  0  0  0
 15 16  1  0  0  0  0
M  END
> <ID>
4762

> <Formula>
C15H20O

> <FW>
216.3187

> <DSSTox_CID>
6684

> <DSSTox_RID>
78182

> <DSSTox_GSID>
26684

> <DSSTox_FileID_Sort>
2865

> <TS_ChemName>
2-Benzylideneoctanal

> <TS_ChemName_Synonyms>
Hexyl cinnamic aldehyde (Octanal, 2-(phenylmethylene)-) (.alpha.-Hexylcinnamaldehyde)

> <TS_CASRN>
101-86-0

> <CASRN_ChemName_Relationship>
primary

> <TS_Description>
mixture of Z,E isomers

> <ChemNote>
mixture of Z,E isomers

> <STRUCTURE_Shown>
representative isomer in mixture

> <STRUCTURE_Formula>
C15H20O

> <STRUCTURE_MW>
216.3187

> <STRUCTURE_ChemType>
defined organic

> <STRUCTURE_DefinedOrganicForm>
parent

> <STRUCTURE_IUPAC>
2-benzylideneoctanal

> <STRUCTURE_SMILES>
O=CC(CCCCCC)=Cc1ccccc1

> <STRUCTURE_SMILES_Desalt>
O=CC(CCCCCC)=Cc1ccccc1

> <Substance_modify_yyyymmdd>
20080429

$$$$
