101-83-7
ChemmineR-0915142007XD

 13 14  0  0  0  0  0  0  0  0  1 V2000
    3.4548   -2.6602    0.0000 N   0  0  0  0  0  0  0  0  0  0  0  0
    2.3009   -1.9969    0.0000 C   0  0  0  0  0  0  0  0  0  0  0  0
    1.1539   -2.6602    0.0000 C   0  0  0  0  0  0  0  0  0  0  0  0
    0.0000   -1.9969    0.0000 C   0  0  0  0  0  0  0  0  0  0  0  0
    0.0000   -0.6633    0.0000 C   0  0  0  0  0  0  0  0  0  0  0  0
    1.1539    0.0000    0.0000 C   0  0  0  0  0  0  0  0  0  0  0  0
    2.3009   -0.6633    0.0000 C   0  0  0  0  0  0  0  0  0  0  0  0
    4.6087   -1.9969    0.0000 C   0  0  0  0  0  0  0  0  0  0  0  0
    4.6087   -0.6633    0.0000 C   0  0  0  0  0  0  0  0  0  0  0  0
    5.7557    0.0000    0.0000 C   0  0  0  0  0  0  0  0  0  0  0  0
    6.9096   -0.6633    0.0000 C   0  0  0  0  0  0  0  0  0  0  0  0
    6.9096   -1.9969    0.0000 C   0  0  0  0  0  0  0  0  0  0  0  0
    5.7557   -2.6602    0.0000 C   0  0  0  0  0  0  0  0  0  0  0  0
  1  2  1  0  0  0  0
  1  8  1  0  0  0  0
  2  3  1  0  0  0  0
  2  7  1  0  0  0  0
  3  4  1  0  0  0  0
  4  5  1  0  0  0  0
  5  6  1  0  0  0  0
  6  7  1  0  0  0  0
  8  9  1  0  0  0  0
  8 13  1  0  0  0  0
  9 10  1  0  0  0  0
 10 11  1  0  0  0  0
 11 12  1  0  0  0  0
 12 13  1  0  0  0  0
M  END
> <ID>
3972

> <Formula>
C12H23N

> <FW>
181.3177

> <DSSTox_CID>
5018

> <DSSTox_RID>
77630

> <DSSTox_GSID>
25018

> <DSSTox_FileID_Sort>
2313

> <TS_ChemName>
Dicyclohexylamine

> <TS_ChemName_Synonyms>


> <TS_CASRN>
101-83-7

> <CASRN_ChemName_Relationship>
primary

> <TS_Description>
single chemical compound

> <ChemNote>


> <STRUCTURE_Shown>
tested chemical

> <STRUCTURE_Formula>
C12H23N

> <STRUCTURE_MW>
181.3177

> <STRUCTURE_ChemType>
defined organic

> <STRUCTURE_DefinedOrganicForm>
parent

> <STRUCTURE_IUPAC>
N-cyclohexylcyclohexanamine

> <STRUCTURE_SMILES>
C1CCCCC1NC2CCCCC2

> <STRUCTURE_SMILES_Desalt>
C1CCCCC1NC2CCCCC2

> <Substance_modify_yyyymmdd>
20080429

$$$$
