101-71-3
ChemmineR-0915142007XD

 17 18  0  0  0  0  0  0  0  0  1 V2000
   10.3618   -2.6630    0.0000 N   0  0  0  0  0  0  0  0  0  0  0  0
    9.2116   -1.9998    0.0000 C   0  0  0  0  0  0  0  0  0  0  0  0
    9.2116   -0.6735    0.0000 O   0  0  0  0  0  0  0  0  0  0  0  0
    8.0614   -2.6630    0.0000 O   0  0  0  0  0  0  0  0  0  0  0  0
    6.9113   -1.9998    0.0000 C   0  0  0  0  0  0  0  0  0  0  0  0
    5.7611   -2.6630    0.0000 C   0  0  0  0  0  0  0  0  0  0  0  0
    4.6006   -1.9998    0.0000 C   0  0  0  0  0  0  0  0  0  0  0  0
    4.6006   -0.6735    0.0000 C   0  0  0  0  0  0  0  0  0  0  0  0
    3.4505    0.0000    0.0000 C   0  0  0  0  0  0  0  0  0  0  0  0
    2.3003   -0.6735    0.0000 C   0  0  0  0  0  0  0  0  0  0  0  0
    2.3003   -1.9998    0.0000 C   0  0  0  0  0  0  0  0  0  0  0  0
    1.1502   -2.6630    0.0000 C   0  0  0  0  0  0  0  0  0  0  0  0
    0.0000   -1.9998    0.0000 C   0  0  0  0  0  0  0  0  0  0  0  0
    0.0000   -0.6735    0.0000 C   0  0  0  0  0  0  0  0  0  0  0  0
    1.1502    0.0000    0.0000 C   0  0  0  0  0  0  0  0  0  0  0  0
    5.7611    0.0000    0.0000 C   0  0  0  0  0  0  0  0  0  0  0  0
    6.9113   -0.6735    0.0000 C   0  0  0  0  0  0  0  0  0  0  0  0
  1  2  1  0  0  0  0
  2  3  2  0  0  0  0
  2  4  1  0  0  0  0
  4  5  1  0  0  0  0
  5  6  2  0  0  0  0
  5 17  1  0  0  0  0
  6  7  1  0  0  0  0
  7  8  2  0  0  0  0
  8  9  1  0  0  0  0
  8 16  1  0  0  0  0
  9 10  1  0  0  0  0
 10 11  2  0  0  0  0
 10 15  1  0  0  0  0
 11 12  1  0  0  0  0
 12 13  2  0  0  0  0
 13 14  1  0  0  0  0
 14 15  2  0  0  0  0
 16 17  2  0  0  0  0
M  END
> <ID>
11528

> <Formula>
C14H13NO2

> <FW>
227.2585

> <DSSTox_CID>
26234

> <DSSTox_RID>
81461

> <DSSTox_GSID>
46234

> <DSSTox_FileID_Sort>
6142

> <TS_ChemName>
Diphenan

> <TS_ChemName_Synonyms>


> <TS_CASRN>
101-71-3

> <CASRN_ChemName_Relationship>
primary

> <TS_Description>
single chemical compound

> <ChemNote>


> <STRUCTURE_Shown>
tested chemical

> <STRUCTURE_Formula>
C14H13NO2

> <STRUCTURE_MW>
227.2585

> <STRUCTURE_ChemType>
defined organic

> <STRUCTURE_DefinedOrganicForm>
parent

> <STRUCTURE_IUPAC>
4-benzylphenyl carbamate

> <STRUCTURE_SMILES>
O=C(N)Oc1ccc(cc1)Cc2ccccc2

> <STRUCTURE_SMILES_Desalt>
O=C(N)Oc1ccc(cc1)Cc2ccccc2

> <Substance_modify_yyyymmdd>
20110817

$$$$
