101-14-4
ChemmineR-0915142007XD

 17 18  0  0  0  0  0  0  0  0  1 V2000
    0.0000   -3.9880    0.0000 Cl   0  0  0  0  0  0  0  0  0  0  0  0
    1.1513   -3.3249    0.0000 C    0  0  0  0  0  0  0  0  0  0  0  0
    1.1513   -1.9894    0.0000 C    0  0  0  0  0  0  0  0  0  0  0  0
    2.3026   -1.3263    0.0000 C    0  0  0  0  0  0  0  0  0  0  0  0
    3.4538   -1.9894    0.0000 C    0  0  0  0  0  0  0  0  0  0  0  0
    3.4538   -3.3249    0.0000 C    0  0  0  0  0  0  0  0  0  0  0  0
    2.3026   -3.9880    0.0000 C    0  0  0  0  0  0  0  0  0  0  0  0
    4.6051   -3.9880    0.0000 C    0  0  0  0  0  0  0  0  0  0  0  0
    5.7564   -3.3249    0.0000 C    0  0  0  0  0  0  0  0  0  0  0  0
    5.7564   -1.9894    0.0000 C    0  0  0  0  0  0  0  0  0  0  0  0
    6.9076   -1.3263    0.0000 C    0  0  0  0  0  0  0  0  0  0  0  0
    8.0589   -1.9894    0.0000 C    0  0  0  0  0  0  0  0  0  0  0  0
    8.0589   -3.3249    0.0000 C    0  0  0  0  0  0  0  0  0  0  0  0
    6.9076   -3.9880    0.0000 C    0  0  0  0  0  0  0  0  0  0  0  0
    9.2102   -1.3263    0.0000 N    0  0  0  0  0  0  0  0  0  0  0  0
    6.9076    0.0000    0.0000 Cl   0  0  0  0  0  0  0  0  0  0  0  0
    0.0000   -1.3263    0.0000 N    0  0  0  0  0  0  0  0  0  0  0  0
  1  2  1  0  0  0  0
  2  3  2  0  0  0  0
  2  7  1  0  0  0  0
  3  4  1  0  0  0  0
  3 17  1  0  0  0  0
  4  5  2  0  0  0  0
  5  6  1  0  0  0  0
  6  7  2  0  0  0  0
  6  8  1  0  0  0  0
  8  9  1  0  0  0  0
  9 10  2  0  0  0  0
  9 14  1  0  0  0  0
 10 11  1  0  0  0  0
 11 12  2  0  0  0  0
 11 16  1  0  0  0  0
 12 13  1  0  0  0  0
 12 15  1  0  0  0  0
 13 14  2  0  0  0  0
M  END
> <ID>
831

> <Formula>
C13H12Cl2N2

> <FW>
267.1538

> <DSSTox_CID>
865

> <DSSTox_RID>
75834

> <DSSTox_GSID>
20865

> <DSSTox_FileID_Sort>
518

> <TS_ChemName>
4,4'-Methylenebis(2-chloroaniline)

> <TS_ChemName_Synonyms>
4,4'-Methylenebis(2-chloroaniline) (MOCA) (Benzenamine, 4,4'-methylenebis[2-chloro-)

> <TS_CASRN>
101-14-4

> <CASRN_ChemName_Relationship>
primary

> <TS_Description>
single chemical compound

> <ChemNote>


> <STRUCTURE_Shown>
tested chemical

> <STRUCTURE_Formula>
C13H12Cl2N2

> <STRUCTURE_MW>
267.1538

> <STRUCTURE_ChemType>
defined organic

> <STRUCTURE_DefinedOrganicForm>
parent

> <STRUCTURE_IUPAC>
4,4'-methanediylbis(2-chloroaniline)

> <STRUCTURE_SMILES>
Nc2ccc(Cc1ccc(N)c(Cl)c1)cc2Cl

> <STRUCTURE_SMILES_Desalt>
Nc2ccc(Cc1ccc(N)c(Cl)c1)cc2Cl

> <Substance_modify_yyyymmdd>
20080429

$$$$
