101-02-0
ChemmineR-0915142007XD

 22 24  0  0  0  0  0  0  0  0  1 V2000
    4.6494   -5.7642    0.0000 O   0  0  0  0  0  0  0  0  0  0  0  0
    5.9802   -5.7642    0.0000 C   0  0  0  0  0  0  0  0  0  0  0  0
    6.6457   -4.6062    0.0000 C   0  0  0  0  0  0  0  0  0  0  0  0
    7.9765   -4.6062    0.0000 C   0  0  0  0  0  0  0  0  0  0  0  0
    8.6419   -5.7642    0.0000 C   0  0  0  0  0  0  0  0  0  0  0  0
    7.9765   -6.9136    0.0000 C   0  0  0  0  0  0  0  0  0  0  0  0
    6.6457   -6.9136    0.0000 C   0  0  0  0  0  0  0  0  0  0  0  0
    3.9926   -4.6062    0.0000 P   0  0  0  0  0  0  0  0  0  0  0  0
    2.6617   -4.6062    0.0000 O   0  0  0  0  0  0  0  0  0  0  0  0
    1.9963   -5.7642    0.0000 C   0  0  0  0  0  0  0  0  0  0  0  0
    0.6654   -5.7642    0.0000 C   0  0  0  0  0  0  0  0  0  0  0  0
    0.0000   -6.9136    0.0000 C   0  0  0  0  0  0  0  0  0  0  0  0
    0.6654   -8.0629    0.0000 C   0  0  0  0  0  0  0  0  0  0  0  0
    1.9963   -8.0629    0.0000 C   0  0  0  0  0  0  0  0  0  0  0  0
    2.6617   -6.9136    0.0000 C   0  0  0  0  0  0  0  0  0  0  0  0
    4.6494   -3.4568    0.0000 O   0  0  0  0  0  0  0  0  0  0  0  0
    3.9926   -2.3074    0.0000 C   0  0  0  0  0  0  0  0  0  0  0  0
    2.6617   -2.3074    0.0000 C   0  0  0  0  0  0  0  0  0  0  0  0
    1.9963   -1.1580    0.0000 C   0  0  0  0  0  0  0  0  0  0  0  0
    2.6617    0.0000    0.0000 C   0  0  0  0  0  0  0  0  0  0  0  0
    3.9926    0.0000    0.0000 C   0  0  0  0  0  0  0  0  0  0  0  0
    4.6494   -1.1580    0.0000 C   0  0  0  0  0  0  0  0  0  0  0  0
  1  2  1  0  0  0  0
  1  8  1  0  0  0  0
  2  3  2  0  0  0  0
  2  7  1  0  0  0  0
  3  4  1  0  0  0  0
  4  5  2  0  0  0  0
  5  6  1  0  0  0  0
  6  7  2  0  0  0  0
  8  9  1  0  0  0  0
  8 16  1  0  0  0  0
  9 10  1  0  0  0  0
 10 11  2  0  0  0  0
 10 15  1  0  0  0  0
 11 12  1  0  0  0  0
 12 13  2  0  0  0  0
 13 14  1  0  0  0  0
 14 15  2  0  0  0  0
 16 17  1  0  0  0  0
 17 18  2  0  0  0  0
 17 22  1  0  0  0  0
 18 19  1  0  0  0  0
 19 20  2  0  0  0  0
 20 21  1  0  0  0  0
 21 22  2  0  0  0  0
M  END
> <ID>
4620

> <Formula>
C18H15O3P

> <FW>
310.2837

> <DSSTox_CID>
6252

> <DSSTox_RID>
78075

> <DSSTox_GSID>
26252

> <DSSTox_FileID_Sort>
2758

> <TS_ChemName>
Triphenyl phosphite

> <TS_ChemName_Synonyms>


> <TS_CASRN>
101-02-0

> <CASRN_ChemName_Relationship>
primary

> <TS_Description>
single chemical compound

> <ChemNote>


> <STRUCTURE_Shown>
tested chemical

> <STRUCTURE_Formula>
C18H15O3P

> <STRUCTURE_MW>
310.2837

> <STRUCTURE_ChemType>
defined organic

> <STRUCTURE_DefinedOrganicForm>
parent

> <STRUCTURE_IUPAC>
triphenyl phosphite

> <STRUCTURE_SMILES>
O(P(Oc1ccccc1)Oc2ccccc2)c3ccccc3

> <STRUCTURE_SMILES_Desalt>
O(P(Oc1ccccc1)Oc2ccccc2)c3ccccc3

> <Substance_modify_yyyymmdd>
20080429

$$$$
