101001-34-7
ChemmineR-0915142007XD

 32 35  0  0  0  0  0  0  0  0  1 V2000
    4.7386   -2.0631    0.0000 N   0  0  0  0  0  0  0  0  0  0  0  0
    4.3393   -0.7853    0.0000 C   0  0  0  0  0  0  0  0  0  0  0  0
    5.4041    0.0000    0.0000 C   0  0  0  0  0  0  0  0  0  0  0  0
    6.4557   -0.7853    0.0000 C   0  0  0  0  0  0  0  0  0  0  0  0
    6.0696   -2.0631    0.0000 C   0  0  0  0  0  0  0  0  0  0  0  0
    3.9533   -3.1280    0.0000 C   0  0  0  0  0  0  0  0  0  0  0  0
    2.6754   -3.1280    0.0000 C   0  0  0  0  0  0  0  0  0  0  0  0
    1.9434   -1.9567    0.0000 O   0  0  0  0  0  0  0  0  0  0  0  0
    1.9434   -4.2328    0.0000 O   0  0  0  0  0  0  0  0  0  0  0  0
    0.6788   -4.2328    0.0000 C   0  0  0  0  0  0  0  0  0  0  0  0
    0.0000   -5.4174    0.0000 C   0  0  0  0  0  0  0  0  0  0  0  0
    8.1860   -3.1280    0.0000 S   0  0  0  0  0  0  0  0  0  0  0  0
    8.5720   -4.3925    0.0000 C   0  0  0  0  0  0  0  0  0  0  0  0
    7.5205   -5.1246    0.0000 C   0  0  0  0  0  0  0  0  0  0  0  0
    6.4557   -4.3925    0.0000 N   0  0  0  0  0  0  0  0  0  0  0  0
    6.8550   -3.1280    0.0000 C   0  0  0  0  0  0  0  0  0  0  0  0
    7.5205   -6.4557    0.0000 C   0  0  0  0  0  0  0  0  0  0  0  0
    8.6918   -7.1345    0.0000 C   0  0  0  0  0  0  0  0  0  0  0  0
    8.6918   -8.4656    0.0000 C   0  0  0  0  0  0  0  0  0  0  0  0
    7.5205   -9.1311    0.0000 C   0  0  0  0  0  0  0  0  0  0  0  0
    6.3359   -8.4656    0.0000 C   0  0  0  0  0  0  0  0  0  0  0  0
    6.3359   -7.1345    0.0000 C   0  0  0  0  0  0  0  0  0  0  0  0
    7.5205  -10.4621    0.0000 O   0  0  0  0  0  0  0  0  0  0  0  0
    8.6918  -11.1410    0.0000 C   0  0  0  0  0  0  0  0  0  0  0  0
    9.8499   -4.8051    0.0000 C   0  0  0  0  0  0  0  0  0  0  0  0
   10.9813   -4.1263    0.0000 C   0  0  0  0  0  0  0  0  0  0  0  0
   12.1393   -4.8051    0.0000 C   0  0  0  0  0  0  0  0  0  0  0  0
   12.1393   -6.1362    0.0000 C   0  0  0  0  0  0  0  0  0  0  0  0
   10.9813   -6.8017    0.0000 C   0  0  0  0  0  0  0  0  0  0  0  0
    9.8499   -6.1362    0.0000 C   0  0  0  0  0  0  0  0  0  0  0  0
   13.3106   -6.8017    0.0000 O   0  0  0  0  0  0  0  0  0  0  0  0
   13.3106   -8.1328    0.0000 C   0  0  0  0  0  0  0  0  0  0  0  0
  1  2  1  0  0  0  0
  1  5  1  0  0  0  0
  1  6  1  0  0  0  0
  2  3  2  0  0  0  0
  3  4  1  0  0  0  0
  4  5  2  0  0  0  0
  5 16  1  0  0  0  0
  6  7  1  0  0  0  0
  7  8  2  0  0  0  0
  7  9  1  0  0  0  0
  9 10  1  0  0  0  0
 10 11  1  0  0  0  0
 12 16  1  0  0  0  0
 12 13  1  0  0  0  0
 13 25  1  0  0  0  0
 13 14  2  0  0  0  0
 14 15  1  0  0  0  0
 14 17  1  0  0  0  0
 15 16  2  0  0  0  0
 17 18  2  0  0  0  0
 17 22  1  0  0  0  0
 18 19  1  0  0  0  0
 19 20  2  0  0  0  0
 20 21  1  0  0  0  0
 20 23  1  0  0  0  0
 21 22  2  0  0  0  0
 23 24  1  0  0  0  0
 25 26  1  0  0  0  0
 25 30  2  0  0  0  0
 26 27  2  0  0  0  0
 27 28  1  0  0  0  0
 28 29  2  0  0  0  0
 28 31  1  0  0  0  0
 29 30  1  0  0  0  0
 31 32  1  0  0  0  0
M  END
> <ID>
13793

> <Formula>
C25H24N2O4S

> <FW>
448.5341

> <DSSTox_CID>
28730

> <DSSTox_RID>
82999

> <DSSTox_GSID>
48804

> <DSSTox_FileID_Sort>
7676

> <TS_ChemName>
Pamicogrel

> <TS_ChemName_Synonyms>


> <TS_CASRN>
101001-34-7

> <CASRN_ChemName_Relationship>
primary

> <TS_Description>
single chemical compound

> <ChemNote>


> <STRUCTURE_Shown>
tested chemical

> <STRUCTURE_Formula>
C25H24N2O4S

> <STRUCTURE_MW>
448.5341

> <STRUCTURE_ChemType>
defined organic

> <STRUCTURE_DefinedOrganicForm>
parent

> <STRUCTURE_IUPAC>
ethyl {2-[4,5-bis(4-methoxyphenyl)-1,3-thiazol-2-yl]-1H-pyrrol-1-yl}acetate

> <STRUCTURE_SMILES>
O=C(OCC)Cn1cccc1c2nc(c(s2)c3ccc(OC)cc3)c4ccc(OC)cc4

> <STRUCTURE_SMILES_Desalt>
O=C(OCC)Cn1cccc1c2nc(c(s2)c3ccc(OC)cc3)c4ccc(OC)cc4

> <Substance_modify_yyyymmdd>
20111204

$$$$
