10102-45-1
ChemmineR-0915142007XD

  5  3  0  0  0  0  0  0  0  0  2 V2000
    1.1555   -1.3307    0.0000 N    0  3  0  0  0  0  0  0  0  0  0  0
    1.1555    0.0000    0.0000 O    0  0  0  0  0  0  0  0  0  0  0  0
    0.0000   -1.9927    0.0000 O    0  5  0  0  0  0  0  0  0  0  0  0
    2.3063   -1.9927    0.0000 O    0  5  0  0  0  0  0  0  0  0  0  0
    1.2177   -2.2394    0.0000 Tl   0  3  0  0  0  0  0  0  0  0  0  0
  1  2  2  0  0  0  0
  1  3  1  0  0  0  0
  1  4  1  0  0  0  0
M  END
> <ID>
3629

> <Formula>
NO3Tl

> <FW>
266.3882 (62.0054+204.3828)

> <DSSTox_CID>
4334

> <DSSTox_RID>
77371

> <DSSTox_GSID>
24334

> <DSSTox_FileID_Sort>
2054

> <TS_ChemName>
Thallium nitrate

> <TS_ChemName_Synonyms>


> <TS_CASRN>
10102-45-1

> <CASRN_ChemName_Relationship>
primary

> <TS_Description>
single chemical compound

> <ChemNote>


> <STRUCTURE_Shown>
tested chemical

> <STRUCTURE_Formula>
NO3Tl

> <STRUCTURE_MW>
266.3882

> <STRUCTURE_ChemType>
inorganic

> <STRUCTURE_DefinedOrganicForm>


> <STRUCTURE_IUPAC>
thallium(1+) nitrate

> <STRUCTURE_SMILES>
[Tl+].[O-][N+]([O-])=O

> <STRUCTURE_SMILES_Desalt>
[O-][N+](=O)O

> <Substance_modify_yyyymmdd>
20080429

$$$$
