10118-90-8
ChemmineR-0915142007XD

 35 38  0  0  1  0  0  0  0  0  1 V2000
    6.8311   -3.9886    0.0000 C   0  0  0  0  0  0  0  0  0  0  0  0
    9.1234   -3.9886    0.0000 C   0  0  0  0  0  0  0  0  0  0  0  0
    4.5846   -3.9886    0.0000 C   0  0  0  0  0  0  0  0  0  0  0  0
    5.7422   -4.6534    0.0000 C   0  0  0  0  0  0  0  0  0  0  0  0
    8.0116   -4.6534    0.0000 C   0  0  0  0  0  0  0  0  0  0  0  0
    6.8311   -2.6935    0.0000 C   0  0  0  0  0  0  0  0  0  0  0  0
    9.1234   -2.6935    0.0000 C   0  0  0  0  0  0  0  0  0  0  0  0
    3.4270   -4.6305    0.0000 C   0  0  0  0  0  0  0  0  0  0  0  0
    2.2923   -3.9886    0.0000 C   0  0  0  0  0  0  0  0  0  0  0  0
    2.2923   -2.6935    0.0000 C   0  0  0  0  0  0  0  0  0  0  0  0
    8.0116   -2.0172    0.0000 C   0  0  0  0  0  0  0  0  0  0  0  0
    4.5846   -2.6935    0.0000 C   0  0  0  0  0  0  0  0  0  0  0  0
    5.7422   -2.0172    0.0000 C   0  0  0  0  0  0  0  0  0  0  0  0
    1.1347   -2.0516    0.0000 C   0  0  0  0  0  0  0  0  0  0  0  0
    3.4270   -2.0172    0.0000 C   0  0  0  0  0  0  0  0  0  0  0  0
   10.3039   -4.6305    0.0000 C   0  0  0  0  0  0  0  0  0  0  0  0
    0.0000   -2.7049    0.0000 C   0  0  0  0  0  0  0  0  0  0  0  0
    1.1347   -4.6305    0.0000 C   0  0  0  0  0  0  0  0  0  0  0  0
    8.0116   -5.9944    0.0000 O   0  0  0  0  0  0  0  0  0  0  0  0
    3.4270   -5.9829    0.0000 O   0  0  0  0  0  0  0  0  0  0  0  0
    8.0116   -0.6992    0.0000 N   0  0  0  0  0  0  0  0  0  0  0  0
    1.1347   -0.7221    0.0000 N   0  0  0  0  0  0  0  0  0  0  0  0
    6.8769   -5.3869    0.0000 O   0  0  0  0  0  0  0  0  0  0  0  0
   10.3039   -5.9829    0.0000 O   0  0  0  0  0  0  0  0  0  0  0  0
    5.7422   -5.9944    0.0000 O   0  0  0  0  0  0  0  0  0  0  0  0
   10.3039   -2.0172    0.0000 O   0  0  0  0  0  0  0  0  0  0  0  0
    0.0000   -3.9428    0.0000 C   0  0  0  0  0  0  0  0  0  0  0  0
   11.4615   -3.9886    0.0000 N   0  0  0  0  0  0  0  0  0  0  0  0
    1.1347   -5.9829    0.0000 O   0  0  0  0  0  0  0  0  0  0  0  0
    6.8311   -0.0115    0.0000 C   0  0  0  0  0  0  0  0  0  0  0  0
    9.1234    0.0000    0.0000 C   0  0  0  0  0  0  0  0  0  0  0  0
    2.2923   -0.0458    0.0000 C   0  0  0  0  0  0  0  0  0  0  0  0
    0.0458   -0.0458    0.0000 C   0  0  0  0  0  0  0  0  0  0  0  0
    4.5846   -1.1576    0.0000 H   0  0  0  0  0  0  0  0  0  0  0  0
    6.8311   -1.3410    0.0000 H   0  0  0  0  0  0  0  0  0  0  0  0
  1  4  1  0  0  0  0
  1  5  1  0  0  0  0
  1  6  1  0  0  0  0
  1 23  1  6  0  0  0
  2  5  1  0  0  0  0
  2 16  1  0  0  0  0
  2  7  2  0  0  0  0
  3  4  2  0  0  0  0
  3  8  1  0  0  0  0
  3 12  1  0  0  0  0
  4 25  1  0  0  0  0
  5 19  2  0  0  0  0
  6 11  1  0  0  0  0
  6 13  1  0  0  0  0
  6 35  1  6  0  0  0
  7 11  1  0  0  0  0
  7 26  1  0  0  0  0
  8  9  1  0  0  0  0
  8 20  2  0  0  0  0
  9 18  1  0  0  0  0
  9 10  2  0  0  0  0
 10 15  1  0  0  0  0
 10 14  1  0  0  0  0
 11 21  1  6  0  0  0
 12 13  1  0  0  0  0
 12 15  1  0  0  0  0
 12 34  1  6  0  0  0
 14 17  2  0  0  0  0
 14 22  1  0  0  0  0
 16 24  2  0  0  0  0
 16 28  1  0  0  0  0
 17 27  1  0  0  0  0
 18 27  2  0  0  0  0
 18 29  1  0  0  0  0
 21 30  1  0  0  0  0
 21 31  1  0  0  0  0
 22 32  1  0  0  0  0
 22 33  1  0  0  0  0
M  END
> <ID>
10678

> <Formula>
C23H27N3O7

> <FW>
457.4764

> <DSSTox_CID>
25033

> <DSSTox_RID>
80650

> <DSSTox_GSID>
45033

> <DSSTox_FileID_Sort>
5332

> <TS_ChemName>
Minocycline

> <TS_ChemName_Synonyms>


> <TS_CASRN>
10118-90-8

> <CASRN_ChemName_Relationship>
primary

> <TS_Description>
single chemical compound

> <ChemNote>
parent of [13614-98-7]; tautomers

> <STRUCTURE_Shown>
tested chemical

> <STRUCTURE_Formula>
C23H27N3O7

> <STRUCTURE_MW>
457.4764

> <STRUCTURE_ChemType>
defined organic

> <STRUCTURE_DefinedOrganicForm>
parent

> <STRUCTURE_IUPAC>
(4S,4aS,5aR,12aS)-4,7-bis(dimethylamino)-3,10,12,12a-tetrahydroxy-1,11-dioxo-1,4,4a,5,5a,6,11,12a-octahydrotetracene-2-carboxamide

> <STRUCTURE_SMILES>
CN(C)c2ccc(O)c1C(=O)C3=C(O)[C@]4(O)C(=O)C(=C(O)[C@@H](N(C)C)[C@@H]4C[C@@H]3Cc12)C(N)=O

> <STRUCTURE_SMILES_Desalt>
CN(C)c2ccc(O)c1C(=O)C3=C(O)[C@]4(O)C(=O)C(=C(O)[C@@H](N(C)C)[C@@H]4C[C@@H]3Cc12)C(N)=O

> <Substance_modify_yyyymmdd>
20091106

$$$$
