101152-94-7
ChemmineR-0915142007XD

 19 19  0  0  1  0  0  0  0  0  1 V2000
    2.3212   -2.9300    0.0000 C    0  0  0  0  0  0  0  0  0  0  0  0
    3.6454   -2.9300    0.0000 C    0  0  0  0  0  0  0  0  0  0  0  0
    2.9833   -1.7732    0.0000 C    0  0  0  0  0  0  0  0  0  0  0  0
    1.1644   -3.5921    0.0000 C    0  0  0  0  0  0  0  0  0  0  0  0
    0.0000   -2.9300    0.0000 N    0  0  0  0  0  0  0  0  0  0  0  0
    4.2923   -4.0944    0.0000 C    0  0  0  0  0  0  0  0  0  0  0  0
    5.6089   -4.0944    0.0000 N    0  0  0  0  0  0  0  0  0  0  0  0
    3.6302   -5.2207    0.0000 O    0  0  0  0  0  0  0  0  0  0  0  0
    6.2710   -5.2207    0.0000 C    0  0  0  0  0  0  0  0  0  0  0  0
    7.6104   -5.2207    0.0000 C    0  0  0  0  0  0  0  0  0  0  0  0
    6.2862   -2.9300    0.0000 C    0  0  0  0  0  0  0  0  0  0  0  0
    7.6104   -2.9300    0.0000 C    0  0  0  0  0  0  0  0  0  0  0  0
    4.5967   -1.9787    0.0000 C    0  0  0  0  0  0  0  0  0  0  0  0
    6.9026   -0.6393    0.0000 C    0  0  0  0  0  0  0  0  0  0  0  0
    6.9026   -1.9787    0.0000 C    0  0  0  0  0  0  0  0  0  0  0  0
    5.7382    0.0000    0.0000 C    0  0  0  0  0  0  0  0  0  0  0  0
    5.7382   -2.6560    0.0000 C    0  0  0  0  0  0  0  0  0  0  0  0
    4.5967   -0.6393    0.0000 C    0  0  0  0  0  0  0  0  0  0  0  0
    0.7078   -4.8022    0.0000 Cl   0  0  0  0  0  0  0  0  0  0  0  0
  1  2  1  0  0  0  0
  1  3  1  0  0  0  0
  1  4  1  1  0  0  0
  2  6  1  0  0  0  0
  2  3  1  0  0  0  0
  2 13  1  6  0  0  0
  4  5  1  0  0  0  0
  6  7  1  0  0  0  0
  6  8  2  0  0  0  0
  7  9  1  0  0  0  0
  7 11  1  0  0  0  0
  9 10  1  0  0  0  0
 11 12  1  0  0  0  0
 13 17  1  0  0  0  0
 13 18  2  0  0  0  0
 14 15  1  0  0  0  0
 14 16  2  0  0  0  0
 15 17  2  0  0  0  0
 16 18  1  0  0  0  0
M  END
> <ID>
11967

> <Formula>
C15H23ClN2O

> <FW>
282.8089 (246.3480+36.4609)

> <DSSTox_CID>
26785

> <DSSTox_RID>
81903

> <DSSTox_GSID>
46785

> <DSSTox_FileID_Sort>
6584

> <TS_ChemName>
Milnacipran hydrochloride

> <TS_ChemName_Synonyms>


> <TS_CASRN>
101152-94-7

> <CASRN_ChemName_Relationship>
primary

> <TS_Description>
single chemical compound

> <ChemNote>
stereochem; parent [92623-85-3]

> <STRUCTURE_Shown>
tested chemical

> <STRUCTURE_Formula>
C15H23ClN2O

> <STRUCTURE_MW>
282.8089

> <STRUCTURE_ChemType>
defined organic

> <STRUCTURE_DefinedOrganicForm>
complex

> <STRUCTURE_IUPAC>
(1R,2S)-2-(aminomethyl)-N,N-diethyl-1-phenylcyclopropanecarboxamide hydrochloride (1:1)

> <STRUCTURE_SMILES>
Cl.O=C(N(CC)CC)[C@@]1(C[C@@H]1CN)c2ccccc2

> <STRUCTURE_SMILES_Desalt>
O=C(N(CC)CC)[C@@]1(C[C@@H]1CN)c2ccccc2

> <Substance_modify_yyyymmdd>
20110802

$$$$
