101200-48-0
ChemmineR-0915142007XD

 27 28  0  0  0  0  0  0  0  0  1 V2000
    2.3062   -3.9782    0.0000 C   0  0  0  0  0  0  0  0  0  0  0  0
    2.3062   -2.6637    0.0000 C   0  0  0  0  0  0  0  0  0  0  0  0
    3.4593   -4.6470    0.0000 S   0  0  0  0  0  0  0  0  0  0  0  0
    1.1531   -4.6470    0.0000 C   0  0  0  0  0  0  0  0  0  0  0  0
    1.1531   -1.9949    0.0000 C   0  0  0  0  0  0  0  0  0  0  0  0
    3.4593   -1.9949    0.0000 C   0  0  0  0  0  0  0  0  0  0  0  0
    4.6124   -5.3158    0.0000 N   0  0  0  0  0  0  0  0  0  0  0  0
    4.1281   -3.4939    0.0000 O   0  0  0  0  0  0  0  0  0  0  0  0
    2.8020   -5.8001    0.0000 O   0  0  0  0  0  0  0  0  0  0  0  0
    0.0000   -3.9782    0.0000 C   0  0  0  0  0  0  0  0  0  0  0  0
    0.0000   -2.6637    0.0000 C   0  0  0  0  0  0  0  0  0  0  0  0
    3.4593   -0.6573    0.0000 O   0  0  0  0  0  0  0  0  0  0  0  0
    4.6124   -2.6637    0.0000 O   0  0  0  0  0  0  0  0  0  0  0  0
    5.7655   -4.6470    0.0000 C   0  0  0  0  0  0  0  0  0  0  0  0
    4.6124    0.0000    0.0000 C   0  0  0  0  0  0  0  0  0  0  0  0
    6.9186   -5.3158    0.0000 N   0  0  0  0  0  0  0  0  0  0  0  0
    5.7655   -3.3209    0.0000 O   0  0  0  0  0  0  0  0  0  0  0  0
    8.0717   -4.6470    0.0000 C   0  0  0  0  0  0  0  0  0  0  0  0
    8.0717   -3.3209    0.0000 N   0  0  0  0  0  0  0  0  0  0  0  0
    9.2248   -5.3158    0.0000 N   0  0  0  0  0  0  0  0  0  0  0  0
    9.2248   -2.6637    0.0000 C   0  0  0  0  0  0  0  0  0  0  0  0
   10.3779   -4.6470    0.0000 C   0  0  0  0  0  0  0  0  0  0  0  0
   10.3779   -3.3209    0.0000 N   0  0  0  0  0  0  0  0  0  0  0  0
    9.2248   -1.3376    0.0000 O   0  0  0  0  0  0  0  0  0  0  0  0
   11.5310   -5.3158    0.0000 C   0  0  0  0  0  0  0  0  0  0  0  0
    8.0717   -0.6573    0.0000 C   0  0  0  0  0  0  0  0  0  0  0  0
    6.9186   -6.6418    0.0000 C   0  0  0  0  0  0  0  0  0  0  0  0
  1  2  1  0  0  0  0
  1  3  1  0  0  0  0
  1  4  2  0  0  0  0
  2  5  2  0  0  0  0
  2  6  1  0  0  0  0
  3  7  1  0  0  0  0
  3  8  2  0  0  0  0
  3  9  2  0  0  0  0
  4 10  1  0  0  0  0
  5 11  1  0  0  0  0
  6 12  1  0  0  0  0
  6 13  2  0  0  0  0
  7 14  1  0  0  0  0
 10 11  2  0  0  0  0
 12 15  1  0  0  0  0
 14 16  1  0  0  0  0
 14 17  2  0  0  0  0
 16 18  1  0  0  0  0
 16 27  1  0  0  0  0
 18 19  2  0  0  0  0
 18 20  1  0  0  0  0
 19 21  1  0  0  0  0
 20 22  2  0  0  0  0
 21 23  2  0  0  0  0
 21 24  1  0  0  0  0
 22 25  1  0  0  0  0
 22 23  1  0  0  0  0
 24 26  1  0  0  0  0
M  END
> <ID>
3501

> <Formula>
C15H17N5O6S

> <FW>
395.3904

> <DSSTox_CID>
4101

> <DSSTox_RID>
77288

> <DSSTox_GSID>
24101

> <DSSTox_FileID_Sort>
1971

> <TS_ChemName>
Tribenuron-methyl

> <TS_ChemName_Synonyms>
Tribenuron-methyl (Express) (Methyl 2-(((((4-methoxy-6-methyl-1,3,5-triazin-2-yl)methylamino)carbonyl)amino)sulfonyl)benzoate)

> <TS_CASRN>
101200-48-0

> <CASRN_ChemName_Relationship>
primary

> <TS_Description>
single chemical compound

> <ChemNote>


> <STRUCTURE_Shown>
tested chemical

> <STRUCTURE_Formula>
C15H17N5O6S

> <STRUCTURE_MW>
395.3904

> <STRUCTURE_ChemType>
defined organic

> <STRUCTURE_DefinedOrganicForm>
parent

> <STRUCTURE_IUPAC>
methyl 2-{[(4-methoxy-6-methyl-1,3,5-triazin-2-yl)(methyl)carbamoyl]sulfamoyl}benzoate

> <STRUCTURE_SMILES>
Cc1nc(nc(OC)n1)N(C)C(=O)NS(=O)(=O)c2ccccc2C(=O)OC

> <STRUCTURE_SMILES_Desalt>
Cc1nc(nc(OC)n1)N(C)C(=O)NS(=O)(=O)c2ccccc2C(=O)OC

> <Substance_modify_yyyymmdd>
20080429

$$$$
