101312-92-9
ChemmineR-0915142007XD

 41 43  0  0  1  0  0  0  0  0  1 V2000
    1.1391   -2.1575    0.0000 C   0  0  0  0  0  0  0  0  0  0  0  0
    2.2956   -1.5189    0.0000 C   0  0  0  0  0  0  0  0  0  0  0  0
    0.0000   -1.5189    0.0000 C   0  0  0  0  0  0  0  0  0  0  0  0
    1.1391   -3.4865    0.0000 C   0  0  0  0  0  0  0  0  0  0  0  0
    3.4347   -2.1575    0.0000 C   0  0  0  0  0  0  0  0  0  0  0  0
    2.2956   -0.1899    0.0000 N   0  0  0  0  0  0  0  0  0  0  0  0
    3.4347   -3.4865    0.0000 O   0  0  0  0  0  0  0  0  0  0  0  0
    4.5911   -1.5189    0.0000 N   0  0  0  0  0  0  0  0  0  0  0  0
    5.7302   -2.1575    0.0000 C   0  0  0  0  0  0  0  0  0  0  0  0
    6.8867   -1.5189    0.0000 C   0  0  0  0  0  0  0  0  0  0  0  0
    8.0258   -2.1575    0.0000 S   0  0  0  0  0  0  0  0  0  0  0  0
    7.5425   -0.3797    0.0000 C   0  0  0  0  0  0  0  0  0  0  0  0
    6.2135   -0.3797    0.0000 C   0  0  0  0  0  0  0  0  0  0  0  0
    9.1822   -1.5189    0.0000 C   0  0  0  0  0  0  0  0  0  0  0  0
   10.3214   -2.1575    0.0000 C   0  0  0  0  0  0  0  0  0  0  0  0
   11.4778   -1.5189    0.0000 O   0  0  0  0  0  0  0  0  0  0  0  0
   10.3214   -3.4865    0.0000 O   0  0  0  0  0  0  0  0  0  0  0  0
   12.0301   -3.2103    0.0000 C   0  0  0  0  0  0  0  0  0  0  0  0
   12.9621   -2.2610    0.0000 C   0  0  0  0  0  0  0  0  0  0  0  0
   12.0301   -4.5221    0.0000 C   0  0  0  0  0  0  0  0  0  0  0  0
   12.9621   -5.4714    0.0000 C   0  0  0  0  0  0  0  0  0  0  0  0
   14.2911   -2.2610    0.0000 C   0  0  0  0  0  0  0  0  0  0  0  0
   14.2911   -5.4714    0.0000 C   0  0  0  0  0  0  0  0  0  0  0  0
   15.2231   -3.2103    0.0000 C   0  0  0  0  0  0  0  0  0  0  0  0
   15.2231   -4.5221    0.0000 C   0  0  0  0  0  0  0  0  0  0  0  0
   16.5176   -2.7961    0.0000 C   0  0  0  0  0  0  0  0  0  0  0  0
   17.2598   -3.8662    0.0000 C   0  0  0  0  0  0  0  0  0  0  0  0
   16.5176   -4.9190    0.0000 C   0  0  0  0  0  0  0  0  0  0  0  0
   12.4616   -6.6795    0.0000 O   0  0  0  0  0  0  0  0  0  0  0  0
   10.6838   -4.5221    0.0000 C   0  0  0  0  0  0  0  0  0  0  0  0
   11.3569   -5.6957    0.0000 C   0  0  0  0  0  0  0  0  0  0  0  0
   10.0452   -5.7130    0.0000 C   0  0  0  0  0  0  0  0  0  0  0  0
   14.7916   -6.6795    0.0000 C   0  0  0  0  0  0  0  0  0  0  0  0
   15.2059   -1.3290    0.0000 C   0  0  0  0  0  0  0  0  0  0  0  0
   16.1552   -3.5900    0.0000 C   0  0  0  0  0  0  0  0  0  0  0  0
   15.2059   -2.6407    0.0000 C   0  0  0  0  0  0  0  0  0  0  0  0
   16.3450   -0.6386    0.0000 C   0  0  0  0  0  0  0  0  0  0  0  0
   15.2059    0.0000    0.0000 H   0  0  0  0  0  0  0  0  0  0  0  0
   14.2738   -0.9320    0.0000 C   0  0  0  0  0  0  0  0  0  0  0  0
   14.0667   -3.8662    0.0000 H   0  0  0  0  0  0  0  0  0  0  0  0
   16.8801   -1.5361    0.0000 O   0  0  0  0  0  0  0  0  0  0  0  0
  1  2  1  0  0  0  0
  1  3  1  0  0  0  0
  1  4  1  0  0  0  0
  2  5  1  0  0  0  0
  2  6  1  1  0  0  0
  5  7  2  0  0  0  0
  5  8  1  0  0  0  0
  8  9  1  0  0  0  0
  9 10  1  0  0  0  0
 10 11  1  0  0  0  0
 10 12  1  0  0  0  0
 10 13  1  0  0  0  0
 11 14  1  0  0  0  0
 14 15  1  0  0  0  0
 15 16  1  0  0  0  0
 15 17  2  0  0  0  0
 19 16  1  1  0  0  0
 18 19  1  0  0  0  0
 18 20  1  0  0  0  0
 19 22  1  0  0  0  0
 20 21  1  0  0  0  0
 20 30  1  1  0  0  0
 20 31  1  0  0  0  0
 21 23  1  0  0  0  0
 21 29  1  6  0  0  0
 22 24  1  0  0  0  0
 22 34  1  0  0  0  0
 22 39  1  1  0  0  0
 23 25  1  0  0  0  0
 23 33  1  1  0  0  0
 24 25  1  0  0  0  0
 24 26  1  0  0  0  0
 24 40  1  1  0  0  0
 25 28  1  0  0  0  0
 25 35  1  6  0  0  0
 26 27  1  0  0  0  0
 26 41  2  0  0  0  0
 27 28  1  0  0  0  0
 31 32  2  0  0  0  0
 34 36  1  0  0  0  0
 34 37  1  6  0  0  0
 34 38  1  1  0  0  0
 35 36  1  0  0  0  0
M  END
> <ID>
11940

> <Formula>
C31H52N2O5S

> <FW>
564.82

> <DSSTox_CID>
26751

> <DSSTox_RID>
81876

> <DSSTox_GSID>
46751

> <DSSTox_FileID_Sort>
6557

> <TS_ChemName>
Valnemulin

> <TS_ChemName_Synonyms>


> <TS_CASRN>
101312-92-9

> <CASRN_ChemName_Relationship>
primary

> <TS_Description>
single chemical compound

> <ChemNote>
stereochem

> <STRUCTURE_Shown>
tested chemical

> <STRUCTURE_Formula>
C31H52N2O5S

> <STRUCTURE_MW>
564.82

> <STRUCTURE_ChemType>
defined organic

> <STRUCTURE_DefinedOrganicForm>
parent

> <STRUCTURE_IUPAC>
(3aS,4R,5S,6S,8R,9R,9aR,10R)-6-ethenyl-5-hydroxy-4,6,9,10-tetramethyl-1-oxodecahydro-3a,9-propanocyclopenta[8]annulen-8-yl {[2-methyl-1-(D-valylamino)propan-2-yl]sulfanyl}acetate

> <STRUCTURE_SMILES>
CC(C)[C@@H](N)C(=O)NCC(C)(C)SCC(=O)O[C@@H]2C[C@@](C)(C=C)[C@@H](O)[C@H](C)[C@@]31CCC(=O)[C@H]1[C@@]2(C)[C@H](C)CC3

> <STRUCTURE_SMILES_Desalt>
CC(C)[C@@H](N)C(=O)NCC(C)(C)SCC(=O)O[C@@H]2C[C@@](C)(C=C)[C@@H](O)[C@H](C)[C@@]31CCC(=O)[C@H]1[C@@]2(C)[C@H](C)CC3

> <Substance_modify_yyyymmdd>
20110803

$$$$
