101463-69-8
ChemmineR-0915142007XD

 33 35  0  0  0  0  0  0  0  0  1 V2000
    3.3630   -1.6062    0.0000 C    0  0  0  0  0  0  0  0  0  0  0  0
    3.3630    0.0000    0.0000 O    0  0  0  0  0  0  0  0  0  0  0  0
    2.2211   -2.2462    0.0000 C    0  0  0  0  0  0  0  0  0  0  0  0
    1.1419   -1.5435    0.0000 C    0  0  0  0  0  0  0  0  0  0  0  0
    2.2211   -3.5136    0.0000 C    0  0  0  0  0  0  0  0  0  0  0  0
    0.0000   -2.2462    0.0000 C    0  0  0  0  0  0  0  0  0  0  0  0
    1.1419   -4.1285    0.0000 C    0  0  0  0  0  0  0  0  0  0  0  0
    0.0000   -3.5136    0.0000 C    0  0  0  0  0  0  0  0  0  0  0  0
    4.5928   -2.2462    0.0000 N    0  0  0  0  0  0  0  0  0  0  0  0
    5.7347   -1.6062    0.0000 C    0  0  0  0  0  0  0  0  0  0  0  0
    5.7347   -0.2886    0.0000 O    0  0  0  0  0  0  0  0  0  0  0  0
    6.8766   -2.2462    0.0000 N    0  0  0  0  0  0  0  0  0  0  0  0
    6.8766   -3.6265    0.0000 C    0  0  0  0  0  0  0  0  0  0  0  0
    5.7347   -4.2540    0.0000 C    0  0  0  0  0  0  0  0  0  0  0  0
    8.0436   -4.2540    0.0000 C    0  0  0  0  0  0  0  0  0  0  0  0
    5.7347   -5.6218    0.0000 C    0  0  0  0  0  0  0  0  0  0  0  0
    8.0436   -5.5716    0.0000 C    0  0  0  0  0  0  0  0  0  0  0  0
    6.8766   -6.2617    0.0000 C    0  0  0  0  0  0  0  0  0  0  0  0
    6.8766   -7.5793    0.0000 O    0  0  0  0  0  0  0  0  0  0  0  0
    8.0436   -8.3197    0.0000 C    0  0  0  0  0  0  0  0  0  0  0  0
    8.0436   -9.6373    0.0000 C    0  0  0  0  0  0  0  0  0  0  0  0
    9.1856   -7.6421    0.0000 C    0  0  0  0  0  0  0  0  0  0  0  0
    9.1228  -10.2773    0.0000 C    0  0  0  0  0  0  0  0  0  0  0  0
   10.3275   -8.3197    0.0000 C    0  0  0  0  0  0  0  0  0  0  0  0
   10.3275   -9.6373    0.0000 C    0  0  0  0  0  0  0  0  0  0  0  0
    6.8766  -10.2773    0.0000 Cl   0  0  0  0  0  0  0  0  0  0  0  0
   11.4192  -10.3400    0.0000 C    0  0  0  0  0  0  0  0  0  0  0  0
   12.5486  -11.0553    0.0000 F    0  0  0  0  0  0  0  0  0  0  0  0
   12.1345   -9.2107    0.0000 F    0  0  0  0  0  0  0  0  0  0  0  0
   10.7039  -11.4694    0.0000 F    0  0  0  0  0  0  0  0  0  0  0  0
    4.5928   -3.6265    0.0000 F    0  0  0  0  0  0  0  0  0  0  0  0
    1.1419   -0.2259    0.0000 F    0  0  0  0  0  0  0  0  0  0  0  0
    3.4258   -4.1912    0.0000 F    0  0  0  0  0  0  0  0  0  0  0  0
  1  2  2  0  0  0  0
  1  3  1  0  0  0  0
  1  9  1  0  0  0  0
  3  4  2  0  0  0  0
  3  5  1  0  0  0  0
  4  6  1  0  0  0  0
  4 32  1  0  0  0  0
  5  7  2  0  0  0  0
  5 33  1  0  0  0  0
  6  8  2  0  0  0  0
  7  8  1  0  0  0  0
  9 10  1  0  0  0  0
 10 11  2  0  0  0  0
 10 12  1  0  0  0  0
 12 13  1  0  0  0  0
 13 14  2  0  0  0  0
 13 15  1  0  0  0  0
 14 16  1  0  0  0  0
 14 31  1  0  0  0  0
 15 17  2  0  0  0  0
 16 18  2  0  0  0  0
 17 18  1  0  0  0  0
 18 19  1  0  0  0  0
 19 20  1  0  0  0  0
 20 21  2  0  0  0  0
 20 22  1  0  0  0  0
 21 23  1  0  0  0  0
 21 26  1  0  0  0  0
 22 24  2  0  0  0  0
 23 25  2  0  0  0  0
 24 25  1  0  0  0  0
 25 27  1  0  0  0  0
 27 28  1  0  0  0  0
 27 29  1  0  0  0  0
 27 30  1  0  0  0  0
M  END
> <ID>
8913

> <Formula>
C21H11ClF6N2O3

> <FW>
488.7671

> <DSSTox_CID>
21978

> <DSSTox_RID>
79893

> <DSSTox_GSID>
41978

> <DSSTox_FileID_Sort>
4575

> <TS_ChemName>
Flufenoxuron

> <TS_ChemName_Synonyms>


> <TS_CASRN>
101463-69-8

> <CASRN_ChemName_Relationship>
primary

> <TS_Description>
single chemical compound

> <ChemNote>


> <STRUCTURE_Shown>
tested chemical

> <STRUCTURE_Formula>
C21H11ClF6N2O3

> <STRUCTURE_MW>
488.7671

> <STRUCTURE_ChemType>
defined organic

> <STRUCTURE_DefinedOrganicForm>
parent

> <STRUCTURE_IUPAC>
N-({4-[2-chloro-4-(trifluoromethyl)phenoxy]-2-fluorophenyl}carbamoyl)-2,6-difluorobenzamide

> <STRUCTURE_SMILES>
Clc3cc(ccc3Oc2ccc(NC(=O)NC(=O)c1c(F)cccc1F)c(F)c2)C(F)(F)F

> <STRUCTURE_SMILES_Desalt>
Clc3cc(ccc3Oc2ccc(NC(=O)NC(=O)c1c(F)cccc1F)c(F)c2)C(F)(F)F

> <Substance_modify_yyyymmdd>
20080825

$$$$
