101477-54-7
ChemmineR-0915142007XD

 36 37  0  0  0  0  0  0  0  0  1 V2000
    9.0874   -1.4222    0.0000 Cl   0  0  0  0  0  0  0  0  0  0  0  0
   11.9019   -1.4222    0.0000 Cl   0  0  0  0  0  0  0  0  0  0  0  0
   14.9709   -5.9884    0.0000 C    0  0  0  0  0  0  0  0  0  0  0  0
   13.8182   -5.3147    0.0000 O    0  0  0  0  0  0  0  0  0  0  0  0
   12.6505   -5.9884    0.0000 C    0  0  0  0  0  0  0  0  0  0  0  0
   12.6505   -7.3208    0.0000 C    0  0  0  0  0  0  0  0  0  0  0  0
   11.5127   -7.9795    0.0000 C    0  0  0  0  0  0  0  0  0  0  0  0
   10.3599   -7.3208    0.0000 C    0  0  0  0  0  0  0  0  0  0  0  0
    9.1922   -7.9795    0.0000 C    0  0  0  0  0  0  0  0  0  0  0  0
    8.0544   -7.3208    0.0000 N    0  0  0  0  0  0  0  0  0  0  0  0
    6.9166   -7.9795    0.0000 C    0  0  0  0  0  0  0  0  0  0  0  0
    5.7638   -7.3208    0.0000 C    0  0  0  0  0  0  0  0  0  0  0  0
    5.7638   -5.9884    0.0000 N    0  0  0  0  0  0  0  0  0  0  0  0
    6.9166   -5.3147    0.0000 C    0  0  0  0  0  0  0  0  0  0  0  0
    8.0544   -5.9884    0.0000 C    0  0  0  0  0  0  0  0  0  0  0  0
    4.6111   -5.3147    0.0000 C    0  0  0  0  0  0  0  0  0  0  0  0
    3.4583   -5.9884    0.0000 C    0  0  0  0  0  0  0  0  0  0  0  0
    3.4583   -7.3208    0.0000 C    0  0  0  0  0  0  0  0  0  0  0  0
    2.3055   -7.9795    0.0000 C    0  0  0  0  0  0  0  0  0  0  0  0
    1.1528   -7.3208    0.0000 C    0  0  0  0  0  0  0  0  0  0  0  0
    0.0000   -7.9795    0.0000 F    0  0  0  0  0  0  0  0  0  0  0  0
    1.1528   -5.9884    0.0000 C    0  0  0  0  0  0  0  0  0  0  0  0
    2.3055   -5.3147    0.0000 C    0  0  0  0  0  0  0  0  0  0  0  0
    4.6111   -3.9972    0.0000 C    0  0  0  0  0  0  0  0  0  0  0  0
    3.4583   -3.3385    0.0000 C    0  0  0  0  0  0  0  0  0  0  0  0
    3.4583   -1.9911    0.0000 C    0  0  0  0  0  0  0  0  0  0  0  0
    4.6111   -1.3324    0.0000 C    0  0  0  0  0  0  0  0  0  0  0  0
    4.6111    0.0000    0.0000 F    0  0  0  0  0  0  0  0  0  0  0  0
    5.7638   -1.9911    0.0000 C    0  0  0  0  0  0  0  0  0  0  0  0
    5.7638   -3.3385    0.0000 C    0  0  0  0  0  0  0  0  0  0  0  0
   10.3599   -5.9884    0.0000 C    0  0  0  0  0  0  0  0  0  0  0  0
   11.5127   -5.3147    0.0000 C    0  0  0  0  0  0  0  0  0  0  0  0
   11.5127   -3.9972    0.0000 O    0  0  0  0  0  0  0  0  0  0  0  0
   12.6505   -3.3385    0.0000 C    0  0  0  0  0  0  0  0  0  0  0  0
    9.1922   -5.3147    0.0000 O    0  0  0  0  0  0  0  0  0  0  0  0
    9.1922   -3.9972    0.0000 C    0  0  0  0  0  0  0  0  0  0  0  0
  3  4  1  0  0  0  0
  4  5  1  0  0  0  0
  5  6  2  0  0  0  0
  5 32  1  0  0  0  0
  6  7  1  0  0  0  0
  7  8  2  0  0  0  0
  8  9  1  0  0  0  0
  8 31  1  0  0  0  0
  9 10  1  0  0  0  0
 10 11  1  0  0  0  0
 10 15  1  0  0  0  0
 11 12  1  0  0  0  0
 12 13  1  0  0  0  0
 13 14  1  0  0  0  0
 13 16  1  0  0  0  0
 14 15  1  0  0  0  0
 16 17  1  0  0  0  0
 16 24  1  0  0  0  0
 17 18  2  0  0  0  0
 17 23  1  0  0  0  0
 18 19  1  0  0  0  0
 19 20  2  0  0  0  0
 20 21  1  0  0  0  0
 20 22  1  0  0  0  0
 22 23  2  0  0  0  0
 24 25  2  0  0  0  0
 24 30  1  0  0  0  0
 25 26  1  0  0  0  0
 26 27  2  0  0  0  0
 27 28  1  0  0  0  0
 27 29  1  0  0  0  0
 29 30  2  0  0  0  0
 31 32  2  0  0  0  0
 31 35  1  0  0  0  0
 32 33  1  0  0  0  0
 33 34  1  0  0  0  0
 35 36  1  0  0  0  0
M  END
> <ID>
11671

> <Formula>
C27H32Cl2F2N2O3

> <FW>
541.4574 (36.4609+36.4609+468.5355)

> <DSSTox_CID>
26427

> <DSSTox_RID>
81605

> <DSSTox_GSID>
46427

> <DSSTox_FileID_Sort>
6286

> <TS_ChemName>
Lomerizine dihydrochloride

> <TS_ChemName_Synonyms>


> <TS_CASRN>
101477-54-7

> <CASRN_ChemName_Relationship>
primary

> <TS_Description>
single chemical compound

> <ChemNote>
parent [101477-55-8]

> <STRUCTURE_Shown>
tested chemical

> <STRUCTURE_Formula>
C27H32Cl2F2N2O3

> <STRUCTURE_MW>
541.4574

> <STRUCTURE_ChemType>
defined organic

> <STRUCTURE_DefinedOrganicForm>
complex

> <STRUCTURE_IUPAC>
1-[bis(4-fluorophenyl)methyl]-4-(2,3,4-trimethoxybenzyl)piperazine dihydrochloride

> <STRUCTURE_SMILES>
Cl.Cl.Fc1ccc(cc1)C(c2ccc(F)cc2)N3CCN(CC3)Cc4ccc(OC)c(OC)c4OC

> <STRUCTURE_SMILES_Desalt>
Fc1ccc(cc1)C(c2ccc(F)cc2)N3CCN(CC3)Cc4ccc(OC)c(OC)c4OC

> <Substance_modify_yyyymmdd>
20110813

$$$$
