101526-62-9
ChemmineR-0915142007XD

 22 21  0  0  0  0  0  0  0  0  1 V2000
    5.7716   -2.6713    0.0000 C    0  0  0  0  0  0  0  0  0  0  0  0
    5.7716   -4.0000    0.0000 C    0  0  0  0  0  0  0  0  0  0  0  0
    4.6228   -2.0069    0.0000 C    0  0  0  0  0  0  0  0  0  0  0  0
    4.6228   -4.6644    0.0000 C    0  0  0  0  0  0  0  0  0  0  0  0
    3.4602   -2.6713    0.0000 C    0  0  0  0  0  0  0  0  0  0  0  0
    3.4602   -4.0000    0.0000 C    0  0  0  0  0  0  0  0  0  0  0  0
    2.2976   -4.6644    0.0000 N    0  0  0  0  0  0  0  0  0  0  0  0
    1.1488   -3.9862    0.0000 S    0  0  0  0  0  0  0  0  0  0  0  0
    0.0000   -4.6644    0.0000 C    0  0  0  0  0  0  0  0  0  0  0  0
    1.1488   -2.6574    0.0000 O    0  0  0  0  0  0  0  0  0  0  0  0
    1.1488   -5.3149    0.0000 O    0  0  0  0  0  0  0  0  0  0  0  0
    6.9343   -2.0069    0.0000 C    0  0  0  0  0  0  0  0  0  0  0  0
    8.0831   -2.6574    0.0000 N    0  0  0  0  0  0  0  0  0  0  0  0
    6.9343   -0.6782    0.0000 O    0  0  0  0  0  0  0  0  0  0  0  0
    9.2318   -2.0069    0.0000 C    0  0  0  0  0  0  0  0  0  0  0  0
   10.3668   -2.6574    0.0000 C    0  0  0  0  0  0  0  0  0  0  0  0
   11.5156   -2.0069    0.0000 N    0  0  0  0  0  0  0  0  0  0  0  0
   12.6782   -2.6574    0.0000 C    0  0  0  0  0  0  0  0  0  0  0  0
   13.8409   -2.0069    0.0000 C    0  0  0  0  0  0  0  0  0  0  0  0
   11.5156   -0.6782    0.0000 C    0  0  0  0  0  0  0  0  0  0  0  0
   12.6782    0.0000    0.0000 C    0  0  0  0  0  0  0  0  0  0  0  0
    8.5121   -4.6090    0.0000 Cl   0  0  0  0  0  0  0  0  0  0  0  0
  1  2  1  0  0  0  0
  1  3  2  0  0  0  0
  1 12  1  0  0  0  0
  2  4  2  0  0  0  0
  3  5  1  0  0  0  0
  4  6  1  0  0  0  0
  5  6  2  0  0  0  0
  6  7  1  0  0  0  0
  7  8  1  0  0  0  0
  8  9  1  0  0  0  0
  8 10  2  0  0  0  0
  8 11  2  0  0  0  0
 12 13  1  0  0  0  0
 12 14  2  0  0  0  0
 13 15  1  0  0  0  0
 15 16  1  0  0  0  0
 16 17  1  0  0  0  0
 17 18  1  0  0  0  0
 17 20  1  0  0  0  0
 18 19  1  0  0  0  0
 20 21  1  0  0  0  0
M  END
> <ID>
14000

> <Formula>
C14H24ClN3O3S

> <FW>
349.8767 (313.4157+36.4609)

> <DSSTox_CID>
28942

> <DSSTox_RID>
83207

> <DSSTox_GSID>
49016

> <DSSTox_FileID_Sort>
7883

> <TS_ChemName>
Sematilide monohydrochloride

> <TS_ChemName_Synonyms>
Sematilide monohydrochloride monohydrate

> <TS_CASRN>
101526-62-9

> <CASRN_ChemName_Relationship>
primary

> <TS_Description>
single chemical compound

> <ChemNote>
CASRN [101526-62-9] is for the anhydrous hydrochloride; parent [101526-83-4]

> <STRUCTURE_Shown>
tested chemical

> <STRUCTURE_Formula>
C14H24ClN3O3S

> <STRUCTURE_MW>
349.8767

> <STRUCTURE_ChemType>
defined organic

> <STRUCTURE_DefinedOrganicForm>
complex

> <STRUCTURE_IUPAC>
N-[2-(diethylamino)ethyl]-4-[(methylsulfonyl)amino]benzamide hydrochloride (1:1)

> <STRUCTURE_SMILES>
Cl.O=S(C)(=O)Nc1ccc(cc1)C(=O)NCCN(CC)CC

> <STRUCTURE_SMILES_Desalt>
O=S(C)(=O)Nc1ccc(cc1)C(=O)NCCN(CC)CC

> <Substance_modify_yyyymmdd>
20111204

$$$$
