10161-33-8
ChemmineR-0915142007XD

 22 25  0  0  1  0  0  0  0  0  1 V2000
    4.6552   -2.9927    0.0000 C   0  0  0  0  0  0  0  0  0  0  0  0
    3.4959   -3.6667    0.0000 C   0  0  0  0  0  0  0  0  0  0  0  0
    6.9469   -1.6895    0.0000 C   0  0  0  0  0  0  0  0  0  0  0  0
    3.4959   -4.9967    0.0000 C   0  0  0  0  0  0  0  0  0  0  0  0
    5.8056   -3.6757    0.0000 C   0  0  0  0  0  0  0  0  0  0  0  0
    6.9469   -3.0196    0.0000 C   0  0  0  0  0  0  0  0  0  0  0  0
    4.6552   -1.6895    0.0000 C   0  0  0  0  0  0  0  0  0  0  0  0
    5.8056   -1.0335    0.0000 C   0  0  0  0  0  0  0  0  0  0  0  0
    2.3276   -5.6528    0.0000 C   0  0  0  0  0  0  0  0  0  0  0  0
    2.3276   -2.9927    0.0000 C   0  0  0  0  0  0  0  0  0  0  0  0
    5.8056   -4.9788    0.0000 C   0  0  0  0  0  0  0  0  0  0  0  0
    8.2320   -3.4420    0.0000 C   0  0  0  0  0  0  0  0  0  0  0  0
    8.2320   -1.2672    0.0000 C   0  0  0  0  0  0  0  0  0  0  0  0
    4.6552   -5.6528    0.0000 C   0  0  0  0  0  0  0  0  0  0  0  0
    1.1863   -4.9788    0.0000 C   0  0  0  0  0  0  0  0  0  0  0  0
    8.9869   -2.3276    0.0000 C   0  0  0  0  0  0  0  0  0  0  0  0
    0.0000   -5.6168    0.0000 O   0  0  0  0  0  0  0  0  0  0  0  0
    1.1863   -3.6757    0.0000 C   0  0  0  0  0  0  0  0  0  0  0  0
    6.9469   -0.3595    0.0000 C   0  0  0  0  0  0  0  0  0  0  0  0
    8.6814    0.0000    0.0000 O   0  0  0  0  0  0  0  0  0  0  0  0
    5.8056   -2.3456    0.0000 H   0  0  0  0  0  0  0  0  0  0  0  0
    6.9469   -4.3497    0.0000 H   0  0  0  0  0  0  0  0  0  0  0  0
  1  2  2  0  0  0  0
  1  5  1  0  0  0  0
  1  7  1  0  0  0  0
  2  4  1  0  0  0  0
  2 10  1  0  0  0  0
  3  8  1  0  0  0  0
  3 13  1  0  0  0  0
  3 19  1  1  0  0  0
  3  6  1  0  0  0  0
  4  9  2  0  0  0  0
  4 14  1  0  0  0  0
  5  6  1  0  0  0  0
  5 11  1  0  0  0  0
  5 21  1  1  0  0  0
  6 12  1  0  0  0  0
  6 22  1  6  0  0  0
  7  8  2  0  0  0  0
  9 15  1  0  0  0  0
 10 18  1  0  0  0  0
 11 14  1  0  0  0  0
 12 16  1  0  0  0  0
 13 20  1  1  0  0  0
 13 16  1  0  0  0  0
 15 18  1  0  0  0  0
 15 17  2  0  0  0  0
M  END
> <ID>
6675

> <Formula>
C18H22O2

> <FW>
270.3661

> <DSSTox_CID>
14192

> <DSSTox_RID>
79122

> <DSSTox_GSID>
34192

> <DSSTox_FileID_Sort>
3804

> <TS_ChemName>
17beta-Trenbolone

> <TS_ChemName_Synonyms>


> <TS_CASRN>
10161-33-8

> <CASRN_ChemName_Relationship>
primary

> <TS_Description>
single chemical compound

> <ChemNote>
stereochem

> <STRUCTURE_Shown>
tested chemical

> <STRUCTURE_Formula>
C18H22O2

> <STRUCTURE_MW>
270.3661

> <STRUCTURE_ChemType>
defined organic

> <STRUCTURE_DefinedOrganicForm>
parent

> <STRUCTURE_IUPAC>
(17beta)-17-hydroxyestra-4,9,11-trien-3-one

> <STRUCTURE_SMILES>
O=C3C=C4CC[C@@H]1C(C=C[C@]2(C)[C@@H](O)CC[C@@H]12)=C4CC3

> <STRUCTURE_SMILES_Desalt>
O=C3C=C4CC[C@@H]1C(C=C[C@]2(C)[C@@H](O)CC[C@@H]12)=C4CC3

> <Substance_modify_yyyymmdd>
20080429

$$$$
