101626-70-4
ChemmineR-0915142007XD

 14 15  0  0  0  0  0  0  0  0  1 V2000
    0.0000   -1.5013    0.0000 N   0  0  0  0  0  0  0  0  0  0  0  0
    1.3280   -1.5013    0.0000 C   0  0  0  0  0  0  0  0  0  0  0  0
    2.1172   -0.4234    0.0000 N   0  0  0  0  0  0  0  0  0  0  0  0
    3.3778   -0.8276    0.0000 C   0  0  0  0  0  0  0  0  0  0  0  0
    3.3778   -2.1653    0.0000 C   0  0  0  0  0  0  0  0  0  0  0  0
    4.4172   -2.9929    0.0000 C   0  0  0  0  0  0  0  0  0  0  0  0
    5.7163   -2.6946    0.0000 C   0  0  0  0  0  0  0  0  0  0  0  0
    6.2937   -1.5013    0.0000 N   0  0  0  0  0  0  0  0  0  0  0  0
    5.7163   -0.2983    0.0000 C   0  0  0  0  0  0  0  0  0  0  0  0
    4.4172    0.0000    0.0000 C   0  0  0  0  0  0  0  0  0  0  0  0
    7.6314   -1.5013    0.0000 C   0  0  0  0  0  0  0  0  0  0  0  0
    8.2954   -2.6465    0.0000 C   0  0  0  0  0  0  0  0  0  0  0  0
    9.6235   -2.6465    0.0000 C   0  0  0  0  0  0  0  0  0  0  0  0
    2.1172   -2.5695    0.0000 S   0  0  0  0  0  0  0  0  0  0  0  0
  1  2  1  0  0  0  0
  2  3  2  0  0  0  0
  2 14  1  0  0  0  0
  3  4  1  0  0  0  0
  4  5  2  0  0  0  0
  4 10  1  0  0  0  0
  5  6  1  0  0  0  0
  5 14  1  0  0  0  0
  6  7  1  0  0  0  0
  7  8  1  0  0  0  0
  8  9  1  0  0  0  0
  8 11  1  0  0  0  0
  9 10  1  0  0  0  0
 11 12  1  0  0  0  0
 12 13  2  0  0  0  0
M  END
> <ID>
11604

> <Formula>
C10H15N3S

> <FW>
209.3112

> <DSSTox_CID>
26321

> <DSSTox_RID>
81537

> <DSSTox_GSID>
46321

> <DSSTox_FileID_Sort>
6218

> <TS_ChemName>
Talipexole

> <TS_ChemName_Synonyms>


> <TS_CASRN>
101626-70-4

> <CASRN_ChemName_Relationship>
primary

> <TS_Description>
single chemical compound

> <ChemNote>


> <STRUCTURE_Shown>
tested chemical

> <STRUCTURE_Formula>
C10H15N3S

> <STRUCTURE_MW>
209.3112

> <STRUCTURE_ChemType>
defined organic

> <STRUCTURE_DefinedOrganicForm>
parent

> <STRUCTURE_IUPAC>
6-(prop-2-en-1-yl)-5,6,7,8-tetrahydro-4H-[1,3]thiazolo[4,5-d]azepin-2-amine

> <STRUCTURE_SMILES>
C=CCN1CCc2sc(N)nc2CC1

> <STRUCTURE_SMILES_Desalt>
C=CCN1CCc2sc(N)nc2CC1

> <Substance_modify_yyyymmdd>
20110815

$$$$
