10161-34-9
ChemmineR-0915142007XD

 25 28  0  0  1  0  0  0  0  0  1 V2000
    4.7030   -4.3924    0.0000 C   0  0  0  0  0  0  0  0  0  0  0  0
    3.5567   -5.0780    0.0000 C   0  0  0  0  0  0  0  0  0  0  0  0
    7.0385   -3.0532    0.0000 C   0  0  0  0  0  0  0  0  0  0  0  0
    3.5567   -6.4171    0.0000 C   0  0  0  0  0  0  0  0  0  0  0  0
    5.8601   -5.0780    0.0000 C   0  0  0  0  0  0  0  0  0  0  0  0
    7.0385   -4.3924    0.0000 C   0  0  0  0  0  0  0  0  0  0  0  0
    4.7030   -3.0532    0.0000 C   0  0  0  0  0  0  0  0  0  0  0  0
    5.8601   -2.4104    0.0000 C   0  0  0  0  0  0  0  0  0  0  0  0
    8.3455   -2.6461    0.0000 C   0  0  0  0  0  0  0  0  0  0  0  0
    2.3890   -7.0921    0.0000 C   0  0  0  0  0  0  0  0  0  0  0  0
    2.3890   -4.3924    0.0000 C   0  0  0  0  0  0  0  0  0  0  0  0
    5.8601   -6.4064    0.0000 C   0  0  0  0  0  0  0  0  0  0  0  0
    8.3455   -4.8423    0.0000 C   0  0  0  0  0  0  0  0  0  0  0  0
    8.7847   -1.3391    0.0000 O   0  0  0  0  0  0  0  0  0  0  0  0
    9.9417   -1.1356    0.0000 C   0  0  0  0  0  0  0  0  0  0  0  0
    4.7030   -7.0921    0.0000 C   0  0  0  0  0  0  0  0  0  0  0  0
    1.1892   -6.4064    0.0000 C   0  0  0  0  0  0  0  0  0  0  0  0
    9.1168   -3.7281    0.0000 C   0  0  0  0  0  0  0  0  0  0  0  0
   10.3381    0.0000    0.0000 O   0  0  0  0  0  0  0  0  0  0  0  0
    0.0000   -7.0385    0.0000 O   0  0  0  0  0  0  0  0  0  0  0  0
    1.1892   -5.0780    0.0000 C   0  0  0  0  0  0  0  0  0  0  0  0
    7.0385   -1.7034    0.0000 C   0  0  0  0  0  0  0  0  0  0  0  0
   10.7131   -2.0141    0.0000 C   0  0  0  0  0  0  0  0  0  0  0  0
    5.8601   -3.7603    0.0000 H   0  0  0  0  0  0  0  0  0  0  0  0
    7.0385   -5.7315    0.0000 H   0  0  0  0  0  0  0  0  0  0  0  0
  1  2  2  0  0  0  0
  1  5  1  0  0  0  0
  1  7  1  0  0  0  0
  2  4  1  0  0  0  0
  2 11  1  0  0  0  0
  3  8  1  0  0  0  0
  3  9  1  0  0  0  0
  3 22  1  1  0  0  0
  3  6  1  0  0  0  0
  4 10  2  0  0  0  0
  4 16  1  0  0  0  0
  5  6  1  0  0  0  0
  5 12  1  0  0  0  0
  5 24  1  1  0  0  0
  6 13  1  0  0  0  0
  6 25  1  6  0  0  0
  7  8  2  0  0  0  0
  9 14  1  1  0  0  0
  9 18  1  0  0  0  0
 10 17  1  0  0  0  0
 11 21  1  0  0  0  0
 12 16  1  0  0  0  0
 13 18  1  0  0  0  0
 14 15  1  0  0  0  0
 15 19  2  0  0  0  0
 15 23  1  0  0  0  0
 17 21  1  0  0  0  0
 17 20  2  0  0  0  0
M  END
> <ID>
11840

> <Formula>
C20H24O3

> <FW>
312.4028

> <DSSTox_CID>
26626

> <DSSTox_RID>
81775

> <DSSTox_GSID>
46626

> <DSSTox_FileID_Sort>
6456

> <TS_ChemName>
Trenbolone acetate

> <TS_ChemName_Synonyms>


> <TS_CASRN>
10161-34-9

> <CASRN_ChemName_Relationship>
primary

> <TS_Description>
single chemical compound

> <ChemNote>
stereochem

> <STRUCTURE_Shown>
tested chemical

> <STRUCTURE_Formula>
C20H24O3

> <STRUCTURE_MW>
312.4028

> <STRUCTURE_ChemType>
defined organic

> <STRUCTURE_DefinedOrganicForm>
parent

> <STRUCTURE_IUPAC>
(17beta)-3-oxoestra-4,9,11-trien-17-yl acetate

> <STRUCTURE_SMILES>
CC(=O)O[C@H]2CC[C@H]3[C@@H]4CCC1=CC(=O)CCC1=C4C=C[C@]23C

> <STRUCTURE_SMILES_Desalt>
CC(=O)O[C@H]2CC[C@H]3[C@@H]4CCC1=CC(=O)CCC1=C4C=C[C@]23C

> <Substance_modify_yyyymmdd>
20110809

$$$$
