101831-37-2
ChemmineR-0915142007XD

 26 28  0  0  0  0  0  0  0  0  1 V2000
    0.0000   -5.3215    0.0000 Cl   0  0  0  0  0  0  0  0  0  0  0  0
    1.1530   -4.6500    0.0000 C    0  0  0  0  0  0  0  0  0  0  0  0
    1.1530   -3.3196    0.0000 C    0  0  0  0  0  0  0  0  0  0  0  0
    2.3060   -2.6608    0.0000 C    0  0  0  0  0  0  0  0  0  0  0  0
    3.4590   -3.3196    0.0000 C    0  0  0  0  0  0  0  0  0  0  0  0
    3.4590   -4.6500    0.0000 C    0  0  0  0  0  0  0  0  0  0  0  0
    2.3060   -5.3215    0.0000 C    0  0  0  0  0  0  0  0  0  0  0  0
    4.6120   -2.6608    0.0000 C    0  0  0  0  0  0  0  0  0  0  0  0
    4.6120   -1.3304    0.0000 C    0  0  0  0  0  0  0  0  0  0  0  0
    4.6120    0.0000    0.0000 N    0  0  0  0  0  0  0  0  0  0  0  0
    5.7650   -3.3196    0.0000 C    0  0  0  0  0  0  0  0  0  0  0  0
    6.9053   -2.6608    0.0000 C    0  0  0  0  0  0  0  0  0  0  0  0
    6.9053   -1.3304    0.0000 Cl   0  0  0  0  0  0  0  0  0  0  0  0
    8.0583   -3.3196    0.0000 C    0  0  0  0  0  0  0  0  0  0  0  0
    8.0583   -4.6500    0.0000 C    0  0  0  0  0  0  0  0  0  0  0  0
    6.9053   -5.3215    0.0000 C    0  0  0  0  0  0  0  0  0  0  0  0
    5.7650   -4.6500    0.0000 C    0  0  0  0  0  0  0  0  0  0  0  0
    4.6120   -5.3215    0.0000 Cl   0  0  0  0  0  0  0  0  0  0  0  0
    9.2113   -5.3215    0.0000 N    0  0  0  0  0  0  0  0  0  0  0  0
   10.3643   -4.6500    0.0000 N    0  0  0  0  0  0  0  0  0  0  0  0
   11.5173   -5.3215    0.0000 C    0  0  0  0  0  0  0  0  0  0  0  0
   11.5173   -6.6519    0.0000 C    0  0  0  0  0  0  0  0  0  0  0  0
   12.6704   -7.3108    0.0000 O    0  0  0  0  0  0  0  0  0  0  0  0
   10.3643   -7.3108    0.0000 N    0  0  0  0  0  0  0  0  0  0  0  0
    9.2113   -6.6519    0.0000 C    0  0  0  0  0  0  0  0  0  0  0  0
    8.0583   -7.3108    0.0000 O    0  0  0  0  0  0  0  0  0  0  0  0
  1  2  1  0  0  0  0
  2  3  2  0  0  0  0
  2  7  1  0  0  0  0
  3  4  1  0  0  0  0
  4  5  2  0  0  0  0
  5  6  1  0  0  0  0
  5  8  1  0  0  0  0
  6  7  2  0  0  0  0
  8  9  1  0  0  0  0
  8 11  1  0  0  0  0
  9 10  3  0  0  0  0
 11 12  2  0  0  0  0
 11 17  1  0  0  0  0
 12 13  1  0  0  0  0
 12 14  1  0  0  0  0
 14 15  2  0  0  0  0
 15 16  1  0  0  0  0
 15 19  1  0  0  0  0
 16 17  2  0  0  0  0
 17 18  1  0  0  0  0
 19 20  1  0  0  0  0
 19 25  1  0  0  0  0
 20 21  2  0  0  0  0
 21 22  1  0  0  0  0
 22 23  2  0  0  0  0
 22 24  1  0  0  0  0
 24 25  1  0  0  0  0
 25 26  2  0  0  0  0
M  END
> <ID>
11969

> <Formula>
C17H9Cl3N4O2

> <FW>
407.638

> <DSSTox_CID>
26787

> <DSSTox_RID>
81905

> <DSSTox_GSID>
46787

> <DSSTox_FileID_Sort>
6586

> <TS_ChemName>
Diclazuril

> <TS_ChemName_Synonyms>


> <TS_CASRN>
101831-37-2

> <CASRN_ChemName_Relationship>
primary

> <TS_Description>
single chemical compound

> <ChemNote>


> <STRUCTURE_Shown>
tested chemical

> <STRUCTURE_Formula>
C17H9Cl3N4O2

> <STRUCTURE_MW>
407.638

> <STRUCTURE_ChemType>
defined organic

> <STRUCTURE_DefinedOrganicForm>
parent

> <STRUCTURE_IUPAC>
(4-chlorophenyl)[2,6-dichloro-4-(3,5-dioxo-4,5-dihydro-1,2,4-triazin-2(3H)-yl)phenyl]acetonitrile

> <STRUCTURE_SMILES>
Clc1ccc(cc1)C(C#N)c2c(Cl)cc(cc2Cl)N3N=CC(=O)NC3=O

> <STRUCTURE_SMILES_Desalt>
Clc1ccc(cc1)C(C#N)c2c(Cl)cc(cc2Cl)N3N=CC(=O)NC3=O

> <Substance_modify_yyyymmdd>
20110802

$$$$
