101828-21-1
ChemmineR-0915142007XD

 24 26  0  0  0  0  0  0  0  0  1 V2000
    1.3219   -2.3048    0.0000 C   0  0  0  0  0  0  0  0  0  0  0  0
    2.6550   -2.3048    0.0000 C   0  0  0  0  0  0  0  0  0  0  0  0
    3.3103   -1.1411    0.0000 C   0  0  0  0  0  0  0  0  0  0  0  0
    4.6435   -1.1411    0.0000 C   0  0  0  0  0  0  0  0  0  0  0  0
    5.3214   -2.3048    0.0000 C   0  0  0  0  0  0  0  0  0  0  0  0
    4.6435   -3.4572    0.0000 C   0  0  0  0  0  0  0  0  0  0  0  0
    3.3103   -3.4572    0.0000 C   0  0  0  0  0  0  0  0  0  0  0  0
    1.3219   -3.6380    0.0000 C   0  0  0  0  0  0  0  0  0  0  0  0
    1.3219   -0.9716    0.0000 C   0  0  0  0  0  0  0  0  0  0  0  0
    0.0000   -2.3048    0.0000 C   0  0  0  0  0  0  0  0  0  0  0  0
    6.6433   -2.3048    0.0000 C   0  0  0  0  0  0  0  0  0  0  0  0
    7.3098   -1.1411    0.0000 N   0  0  0  0  0  0  0  0  0  0  0  0
    6.6433    0.0000    0.0000 C   0  0  0  0  0  0  0  0  0  0  0  0
    8.6317   -1.1411    0.0000 C   0  0  0  0  0  0  0  0  0  0  0  0
    9.2983   -2.3048    0.0000 C   0  0  0  0  0  0  0  0  0  0  0  0
   10.6315   -2.3048    0.0000 C   0  0  0  0  0  0  0  0  0  0  0  0
   11.2980   -3.4572    0.0000 C   0  0  0  0  0  0  0  0  0  0  0  0
   10.6315   -4.5983    0.0000 C   0  0  0  0  0  0  0  0  0  0  0  0
    8.6317   -3.4572    0.0000 C   0  0  0  0  0  0  0  0  0  0  0  0
    9.2983   -4.5983    0.0000 C   0  0  0  0  0  0  0  0  0  0  0  0
    8.6317   -5.7507    0.0000 C   0  0  0  0  0  0  0  0  0  0  0  0
    7.3098   -5.7507    0.0000 C   0  0  0  0  0  0  0  0  0  0  0  0
    6.6433   -4.5983    0.0000 C   0  0  0  0  0  0  0  0  0  0  0  0
    7.3098   -3.4572    0.0000 C   0  0  0  0  0  0  0  0  0  0  0  0
  1  2  1  0  0  0  0
  1  8  1  0  0  0  0
  1  9  1  0  0  0  0
  1 10  1  0  0  0  0
  2  7  1  0  0  0  0
  2  3  2  0  0  0  0
  3  4  1  0  0  0  0
  4  5  2  0  0  0  0
  5 11  1  0  0  0  0
  5  6  1  0  0  0  0
  6  7  2  0  0  0  0
 11 12  1  0  0  0  0
 12 13  1  0  0  0  0
 12 14  1  0  0  0  0
 14 15  1  0  0  0  0
 15 16  2  0  0  0  0
 15 19  1  0  0  0  0
 16 17  1  0  0  0  0
 17 18  2  0  0  0  0
 18 20  1  0  0  0  0
 19 20  2  0  0  0  0
 19 24  1  0  0  0  0
 20 21  1  0  0  0  0
 21 22  2  0  0  0  0
 22 23  1  0  0  0  0
 23 24  2  0  0  0  0
M  END
> <ID>
7859

> <Formula>
C23H27N

> <FW>
317.4672

> <DSSTox_CID>
20657

> <DSSTox_RID>
79525

> <DSSTox_GSID>
40657

> <DSSTox_FileID_Sort>
4207

> <TS_ChemName>
Butenafine

> <TS_ChemName_Synonyms>


> <TS_CASRN>
101828-21-1

> <CASRN_ChemName_Relationship>
primary

> <TS_Description>
single chemical compound

> <ChemNote>


> <STRUCTURE_Shown>
tested chemical

> <STRUCTURE_Formula>
C23H27N

> <STRUCTURE_MW>
317.4672

> <STRUCTURE_ChemType>
defined organic

> <STRUCTURE_DefinedOrganicForm>
parent

> <STRUCTURE_IUPAC>
1-(4-tert-butylphenyl)-N-methyl-N-(naphthalen-1-ylmethyl)methanamine

> <STRUCTURE_SMILES>
CN(Cc1ccc(cc1)C(C)(C)C)Cc3cccc2ccccc23

> <STRUCTURE_SMILES_Desalt>
CN(Cc1ccc(cc1)C(C)(C)C)Cc3cccc2ccccc23

> <Substance_modify_yyyymmdd>
20080429

$$$$
