1018-71-9
ChemmineR-0915142007XD

 16 17  0  0  0  0  0  0  0  0  2 V2000
    0.0000   -4.0487    0.0000 O    0  5  0  0  0  0  0  0  0  0  0  0
    1.1525   -3.3790    0.0000 N    0  3  0  0  0  0  0  0  0  0  0  0
    1.1525   -2.0515    0.0000 O    0  0  0  0  0  0  0  0  0  0  0  0
    2.3049   -4.0487    0.0000 C    0  0  0  0  0  0  0  0  0  0  0  0
    3.4574   -3.3790    0.0000 C    0  0  0  0  0  0  0  0  0  0  0  0
    4.6099   -4.0487    0.0000 C    0  0  0  0  0  0  0  0  0  0  0  0
    4.6099   -5.3762    0.0000 C    0  0  0  0  0  0  0  0  0  0  0  0
    3.4574   -6.0339    0.0000 C    0  0  0  0  0  0  0  0  0  0  0  0
    2.3049   -5.3762    0.0000 C    0  0  0  0  0  0  0  0  0  0  0  0
    1.1525   -6.0339    0.0000 Cl   0  0  0  0  0  0  0  0  0  0  0  0
    3.4574   -2.0515    0.0000 C    0  0  0  0  0  0  0  0  0  0  0  0
    2.3834   -1.2671    0.0000 C    0  0  0  0  0  0  0  0  0  0  0  0
    2.7877    0.0000    0.0000 N    0  0  0  0  0  0  0  0  0  0  0  0
    4.1272    0.0000    0.0000 C    0  0  0  0  0  0  0  0  0  0  0  0
    4.5314   -1.2671    0.0000 C    0  0  0  0  0  0  0  0  0  0  0  0
    5.7925   -1.6835    0.0000 Cl   0  0  0  0  0  0  0  0  0  0  0  0
  1  2  1  0  0  0  0
  2  3  2  0  0  0  0
  2  4  1  0  0  0  0
  4  5  2  0  0  0  0
  4  9  1  0  0  0  0
  5  6  1  0  0  0  0
  5 11  1  0  0  0  0
  6  7  2  0  0  0  0
  7  8  1  0  0  0  0
  8  9  2  0  0  0  0
  9 10  1  0  0  0  0
 11 12  2  0  0  0  0
 11 15  1  0  0  0  0
 12 13  1  0  0  0  0
 13 14  1  0  0  0  0
 14 15  2  0  0  0  0
 15 16  1  0  0  0  0
M  END
> <ID>
12037

> <Formula>
C10H6Cl2N2O2

> <FW>
257.0728

> <DSSTox_CID>
26867

> <DSSTox_RID>
81974

> <DSSTox_GSID>
46867

> <DSSTox_FileID_Sort>
6655

> <TS_ChemName>
Pyrrolnitrin

> <TS_ChemName_Synonyms>


> <TS_CASRN>
1018-71-9

> <CASRN_ChemName_Relationship>
primary

> <TS_Description>
single chemical compound

> <ChemNote>


> <STRUCTURE_Shown>
tested chemical

> <STRUCTURE_Formula>
C10H6Cl2N2O2

> <STRUCTURE_MW>
257.0728

> <STRUCTURE_ChemType>
defined organic

> <STRUCTURE_DefinedOrganicForm>
parent

> <STRUCTURE_IUPAC>
3-chloro-4-(3-chloro-2-nitrophenyl)-1H-pyrrole

> <STRUCTURE_SMILES>
Clc2cncc2c1cccc(Cl)c1[N+]([O-])=O

> <STRUCTURE_SMILES_Desalt>
Clc2cncc2c1cccc(Cl)c1[N+]([O-])=O

> <Substance_modify_yyyymmdd>
20110728

$$$$
