101827-46-7
ChemmineR-0915142007XD

 25 26  0  0  0  0  0  0  0  0  1 V2000
    1.3336   -2.3055    0.0000 C    0  0  0  0  0  0  0  0  0  0  0  0
    2.6672   -2.3055    0.0000 C    0  0  0  0  0  0  0  0  0  0  0  0
    3.3113   -1.1415    0.0000 C    0  0  0  0  0  0  0  0  0  0  0  0
    4.6449   -1.1415    0.0000 C    0  0  0  0  0  0  0  0  0  0  0  0
    5.3343   -2.3055    0.0000 C    0  0  0  0  0  0  0  0  0  0  0  0
    4.6449   -3.4583    0.0000 C    0  0  0  0  0  0  0  0  0  0  0  0
    3.3113   -3.4583    0.0000 C    0  0  0  0  0  0  0  0  0  0  0  0
    1.3336   -3.6278    0.0000 C    0  0  0  0  0  0  0  0  0  0  0  0
    1.3336   -0.9719    0.0000 C    0  0  0  0  0  0  0  0  0  0  0  0
    0.0000   -2.3055    0.0000 C    0  0  0  0  0  0  0  0  0  0  0  0
    6.6453   -2.3055    0.0000 C    0  0  0  0  0  0  0  0  0  0  0  0
    7.3008   -1.1415    0.0000 N    0  0  0  0  0  0  0  0  0  0  0  0
    6.6453    0.0000    0.0000 C    0  0  0  0  0  0  0  0  0  0  0  0
    8.6343   -1.1415    0.0000 C    0  0  0  0  0  0  0  0  0  0  0  0
    9.2898   -2.3055    0.0000 C    0  0  0  0  0  0  0  0  0  0  0  0
   10.6234   -2.3055    0.0000 C    0  0  0  0  0  0  0  0  0  0  0  0
   11.3015   -3.4583    0.0000 C    0  0  0  0  0  0  0  0  0  0  0  0
   10.6234   -4.5997    0.0000 C    0  0  0  0  0  0  0  0  0  0  0  0
    8.6343   -3.4583    0.0000 C    0  0  0  0  0  0  0  0  0  0  0  0
    9.2898   -4.5997    0.0000 C    0  0  0  0  0  0  0  0  0  0  0  0
    8.6343   -5.7525    0.0000 C    0  0  0  0  0  0  0  0  0  0  0  0
    7.3008   -5.7525    0.0000 C    0  0  0  0  0  0  0  0  0  0  0  0
    6.6453   -4.5997    0.0000 C    0  0  0  0  0  0  0  0  0  0  0  0
    7.3008   -3.4583    0.0000 C    0  0  0  0  0  0  0  0  0  0  0  0
    3.8877   -4.7579    0.0000 Cl   0  0  0  0  0  0  0  0  0  0  0  0
  1  2  1  0  0  0  0
  1  8  1  0  0  0  0
  1  9  1  0  0  0  0
  1 10  1  0  0  0  0
  2  7  1  0  0  0  0
  2  3  2  0  0  0  0
  3  4  1  0  0  0  0
  4  5  2  0  0  0  0
  5 11  1  0  0  0  0
  5  6  1  0  0  0  0
  6  7  2  0  0  0  0
 11 12  1  0  0  0  0
 12 13  1  0  0  0  0
 12 14  1  0  0  0  0
 14 15  1  0  0  0  0
 15 16  2  0  0  0  0
 15 19  1  0  0  0  0
 16 17  1  0  0  0  0
 17 18  2  0  0  0  0
 18 20  1  0  0  0  0
 19 20  2  0  0  0  0
 19 24  1  0  0  0  0
 20 21  1  0  0  0  0
 21 22  2  0  0  0  0
 22 23  1  0  0  0  0
 23 24  2  0  0  0  0
M  END
> <ID>
13587

> <Formula>
C23H28ClN

> <FW>
353.9281 (317.4672+36.4609)

> <DSSTox_CID>
28515

> <DSSTox_RID>
82787

> <DSSTox_GSID>
48589

> <DSSTox_FileID_Sort>
7464

> <TS_ChemName>
Butenafine hydrochloride

> <TS_ChemName_Synonyms>


> <TS_CASRN>
101827-46-7

> <CASRN_ChemName_Relationship>
primary

> <TS_Description>
single chemical compound

> <ChemNote>
parent [101828-21-1]

> <STRUCTURE_Shown>
tested chemical

> <STRUCTURE_Formula>
C23H28ClN

> <STRUCTURE_MW>
353.9281

> <STRUCTURE_ChemType>
defined organic

> <STRUCTURE_DefinedOrganicForm>
complex

> <STRUCTURE_IUPAC>
1-(4-tert-butylphenyl)-N-methyl-N-(naphthalen-1-ylmethyl)methanamine hydrochloride (1:1)

> <STRUCTURE_SMILES>
Cl.CN(Cc1ccc(cc1)C(C)(C)C)Cc3cccc2ccccc23

> <STRUCTURE_SMILES_Desalt>
CN(Cc1ccc(cc1)C(C)(C)C)Cc3cccc2ccccc23

> <Substance_modify_yyyymmdd>
20111014

$$$$
