101973-77-7
ChemmineR-0915142007XD

 19 19  0  0  0  0  0  0  0  0  1 V2000
    7.9709   -1.1533    0.0000 C   0  0  0  0  0  0  0  0  0  0  0  0
    7.3012    0.0000    0.0000 O   0  0  0  0  0  0  0  0  0  0  0  0
    9.3009   -1.1533    0.0000 O   0  0  0  0  0  0  0  0  0  0  0  0
    7.3012   -2.3066    0.0000 C   0  0  0  0  0  0  0  0  0  0  0  0
    5.9712   -2.3066    0.0000 C   0  0  0  0  0  0  0  0  0  0  0  0
    7.9709   -3.4599    0.0000 C   0  0  0  0  0  0  0  0  0  0  0  0
    7.3012   -4.6132    0.0000 S   0  0  0  0  0  0  0  0  0  0  0  0
    7.9709   -5.7665    0.0000 C   0  0  0  0  0  0  0  0  0  0  0  0
    9.3009   -5.7665    0.0000 O   0  0  0  0  0  0  0  0  0  0  0  0
    7.3012   -6.9013    0.0000 C   0  0  0  0  0  0  0  0  0  0  0  0
    5.3108   -1.1533    0.0000 C   0  0  0  0  0  0  0  0  0  0  0  0
    5.9712    0.0000    0.0000 O   0  0  0  0  0  0  0  0  0  0  0  0
    3.9901   -1.1533    0.0000 C   0  0  0  0  0  0  0  0  0  0  0  0
    3.3111   -2.3066    0.0000 C   0  0  0  0  0  0  0  0  0  0  0  0
    3.3111    0.0000    0.0000 C   0  0  0  0  0  0  0  0  0  0  0  0
    1.9811   -2.3066    0.0000 C   0  0  0  0  0  0  0  0  0  0  0  0
    1.9811    0.0000    0.0000 C   0  0  0  0  0  0  0  0  0  0  0  0
    1.3300   -1.1533    0.0000 C   0  0  0  0  0  0  0  0  0  0  0  0
    0.0000   -1.1533    0.0000 C   0  0  0  0  0  0  0  0  0  0  0  0
  1  2  2  0  0  0  0
  1  3  1  0  0  0  0
  1  4  1  0  0  0  0
  4  5  1  0  0  0  0
  4  6  1  0  0  0  0
  5 11  1  0  0  0  0
  6  7  1  0  0  0  0
  7  8  1  0  0  0  0
  8  9  2  0  0  0  0
  8 10  1  0  0  0  0
 11 12  2  0  0  0  0
 11 13  1  0  0  0  0
 13 14  2  0  0  0  0
 13 15  1  0  0  0  0
 14 16  1  0  0  0  0
 15 17  2  0  0  0  0
 16 18  2  0  0  0  0
 17 18  1  0  0  0  0
 18 19  1  0  0  0  0
M  END
> <ID>
13794

> <Formula>
C14H16O4S

> <FW>
280.3394

> <DSSTox_CID>
28731

> <DSSTox_RID>
83000

> <DSSTox_GSID>
48805

> <DSSTox_FileID_Sort>
7677

> <TS_ChemName>
Esonarimod

> <TS_ChemName_Synonyms>


> <TS_CASRN>
101973-77-7

> <CASRN_ChemName_Relationship>
primary

> <TS_Description>
single chemical compound

> <ChemNote>


> <STRUCTURE_Shown>
tested chemical

> <STRUCTURE_Formula>
C14H16O4S

> <STRUCTURE_MW>
280.3394

> <STRUCTURE_ChemType>
defined organic

> <STRUCTURE_DefinedOrganicForm>
parent

> <STRUCTURE_IUPAC>
2-[(acetylsulfanyl)methyl]-4-(4-methylphenyl)-4-oxobutanoic acid

> <STRUCTURE_SMILES>
Cc1ccc(cc1)C(=O)CC(CSC(C)=O)C(=O)O

> <STRUCTURE_SMILES_Desalt>
Cc1ccc(cc1)C(=O)CC(CSC(C)=O)C(=O)O

> <Substance_modify_yyyymmdd>
20111204

$$$$
