10190-99-5
ChemmineR-0915142007XD

 26 28  0  0  0  0  0  0  0  0  2 V2000
    4.6012   -5.3648    0.0000 C    0  0  0  0  0  0  0  0  0  0  0  0
    3.9551   -4.2488    0.0000 C    0  0  0  0  0  0  0  0  0  0  0  0
    3.4264   -7.5675    0.0000 N    0  3  0  0  0  0  0  0  0  0  0  0
    4.6012   -3.1229    0.0000 C    0  0  0  0  0  0  0  0  0  0  0  0
    2.6530   -4.2488    0.0000 C    0  0  0  0  0  0  0  0  0  0  0  0
    5.9032   -3.1229    0.0000 C    0  0  0  0  0  0  0  0  0  0  0  0
    6.5493   -4.2488    0.0000 C    0  0  0  0  0  0  0  0  0  0  0  0
    3.9551   -1.9971    0.0000 C    0  0  0  0  0  0  0  0  0  0  0  0
    5.9032   -5.3648    0.0000 C    0  0  0  0  0  0  0  0  0  0  0  0
    2.0069   -3.1229    0.0000 C    0  0  0  0  0  0  0  0  0  0  0  0
    2.6530   -1.9971    0.0000 C    0  0  0  0  0  0  0  0  0  0  0  0
    2.0069   -5.3648    0.0000 C    0  0  0  0  0  0  0  0  0  0  0  0
    4.3564   -0.7636    0.0000 O    0  0  0  0  0  0  0  0  0  0  0  0
    2.1244   -7.5675    0.0000 O    0  5  0  0  0  0  0  0  0  0  0  0
    2.2516   -0.7636    0.0000 O    0  0  0  0  0  0  0  0  0  0  0  0
    4.0725   -8.6933    0.0000 O    0  0  0  0  0  0  0  0  0  0  0  0
    3.3089    0.0000    0.0000 C    0  0  0  0  0  0  0  0  0  0  0  0
    7.8416   -4.2488    0.0000 C    0  0  0  0  0  0  0  0  0  0  0  0
    0.7147   -5.3648    0.0000 O    0  0  0  0  0  0  0  0  0  0  0  0
    2.5258   -6.2361    0.0000 O    0  5  0  0  0  0  0  0  0  0  0  0
    6.5493   -1.9971    0.0000 C    0  0  0  0  0  0  0  0  0  0  0  0
    8.4975   -5.3648    0.0000 O    0  0  0  0  0  0  0  0  0  0  0  0
    7.8416   -1.9971    0.0000 C    0  0  0  0  0  0  0  0  0  0  0  0
    8.4975   -3.1229    0.0000 C    0  0  0  0  0  0  0  0  0  0  0  0
    9.7897   -5.3648    0.0000 C    0  0  0  0  0  0  0  0  0  0  0  0
    0.0000   -3.4949    0.0000 Na   0  3  0  0  0  0  0  0  0  0  0  0
  1  2  1  0  0  0  0
  1  3  1  0  0  0  0
  1  9  2  0  0  0  0
  2  4  2  0  0  0  0
  2  5  1  0  0  0  0
  3 14  1  0  0  0  0
  3 16  2  0  0  0  0
  4  8  1  0  0  0  0
  4  6  1  0  0  0  0
  5 10  2  0  0  0  0
  5 12  1  0  0  0  0
  6  7  2  0  0  0  0
  6 21  1  0  0  0  0
  7  9  1  0  0  0  0
  7 18  1  0  0  0  0
  8 13  1  0  0  0  0
  8 11  2  0  0  0  0
 10 11  1  0  0  0  0
 11 15  1  0  0  0  0
 12 19  2  0  0  0  0
 12 20  1  0  0  0  0
 13 17  1  0  0  0  0
 15 17  1  0  0  0  0
 18 22  1  0  0  0  0
 18 24  2  0  0  0  0
 21 23  2  0  0  0  0
 22 25  1  0  0  0  0
 23 24  1  0  0  0  0
M  END
> <ID>
97

> <Formula>
C17H10NNaO7

> <FW>
363.2536 (340.2643+22.9892)

> <DSSTox_CID>
99

> <DSSTox_RID>
75366

> <DSSTox_GSID>
20099

> <DSSTox_FileID_Sort>
50

> <TS_ChemName>
Aristolochic acid, sodium salt (77% AA I, 21% AA II)

> <TS_ChemName_Synonyms>


> <TS_CASRN>
10190-99-5

> <CASRN_ChemName_Relationship>
primary

> <TS_Description>
mixture or formulation

> <ChemNote>
structure shown AA I,; parent [313-67-7]; AA II 6-Nitrophenanthro(3,4-d)-1,3-dioxole-5-carboxylic acid, sodium salt; AA II parent [475-80-9]

> <STRUCTURE_Shown>
representative component

> <STRUCTURE_Formula>
C17H10NNaO7

> <STRUCTURE_MW>
363.2536

> <STRUCTURE_ChemType>
defined organic

> <STRUCTURE_DefinedOrganicForm>
salt

> <STRUCTURE_IUPAC>
sodium 8-methoxy-6-nitrophenanthro[3,4-d][1,3]dioxole-5-carboxylate

> <STRUCTURE_SMILES>
[Na+].[O-]C(=O)c3cc4OCOc4c2c3c(cc1c2cccc1OC)[N+]([O-])=O

> <STRUCTURE_SMILES_Desalt>
O=C(O)c3cc4OCOc4c2c3c(cc1c2cccc1OC)[N+]([O-])=O

> <Substance_modify_yyyymmdd>
20080429

$$$$
