102-20-5
ChemmineR-0915142007XD

 18 19  0  0  0  0  0  0  0  0  1 V2000
    2.2944   -0.6687    0.0000 C   0  0  0  0  0  0  0  0  0  0  0  0
    2.2944   -1.9947    0.0000 C   0  0  0  0  0  0  0  0  0  0  0  0
    1.1530   -2.6634    0.0000 C   0  0  0  0  0  0  0  0  0  0  0  0
    0.0000   -1.9947    0.0000 C   0  0  0  0  0  0  0  0  0  0  0  0
    0.0000   -0.6687    0.0000 C   0  0  0  0  0  0  0  0  0  0  0  0
    1.1530    0.0000    0.0000 C   0  0  0  0  0  0  0  0  0  0  0  0
    4.6119   -0.6687    0.0000 C   0  0  0  0  0  0  0  0  0  0  0  0
    4.6119   -1.9947    0.0000 O   0  0  0  0  0  0  0  0  0  0  0  0
    5.7649    0.0000    0.0000 O   0  0  0  0  0  0  0  0  0  0  0  0
    3.4474    0.0000    0.0000 C   0  0  0  0  0  0  0  0  0  0  0  0
    6.9179   -0.6687    0.0000 C   0  0  0  0  0  0  0  0  0  0  0  0
    8.0824    0.0000    0.0000 C   0  0  0  0  0  0  0  0  0  0  0  0
   11.5298   -0.6687    0.0000 C   0  0  0  0  0  0  0  0  0  0  0  0
   11.5298   -1.9947    0.0000 C   0  0  0  0  0  0  0  0  0  0  0  0
   10.3768   -2.6634    0.0000 C   0  0  0  0  0  0  0  0  0  0  0  0
    9.2354   -1.9947    0.0000 C   0  0  0  0  0  0  0  0  0  0  0  0
    9.2354   -0.6687    0.0000 C   0  0  0  0  0  0  0  0  0  0  0  0
   10.3768    0.0000    0.0000 C   0  0  0  0  0  0  0  0  0  0  0  0
  1  2  2  0  0  0  0
  1  6  1  0  0  0  0
  1 10  1  0  0  0  0
  2  3  1  0  0  0  0
  3  4  2  0  0  0  0
  4  5  1  0  0  0  0
  5  6  2  0  0  0  0
  7  8  2  0  0  0  0
  7  9  1  0  0  0  0
  7 10  1  0  0  0  0
  9 11  1  0  0  0  0
 11 12  1  0  0  0  0
 12 17  1  0  0  0  0
 13 18  2  0  0  0  0
 13 14  1  0  0  0  0
 14 15  2  0  0  0  0
 15 16  1  0  0  0  0
 16 17  2  0  0  0  0
 17 18  1  0  0  0  0
M  END
> <ID>
10148

> <Formula>
C16H16O2

> <FW>
240.297

> <DSSTox_CID>
24494

> <DSSTox_RID>
80269

> <DSSTox_GSID>
44494

> <DSSTox_FileID_Sort>
4951

> <TS_ChemName>
2-Phenylethyl phenylacetate

> <TS_ChemName_Synonyms>
2-Phenylethyl phenylacetate (Benzeneacetic acid, 2-phenylethyl ester)

> <TS_CASRN>
102-20-5

> <CASRN_ChemName_Relationship>
primary

> <TS_Description>
single chemical compound

> <ChemNote>


> <STRUCTURE_Shown>
tested chemical

> <STRUCTURE_Formula>
C16H16O2

> <STRUCTURE_MW>
240.297

> <STRUCTURE_ChemType>
defined organic

> <STRUCTURE_DefinedOrganicForm>
parent

> <STRUCTURE_IUPAC>
2-phenylethyl phenylacetate

> <STRUCTURE_SMILES>
O=C(OCCc1ccccc1)Cc2ccccc2

> <STRUCTURE_SMILES_Desalt>
O=C(OCCc1ccccc1)Cc2ccccc2

> <Substance_modify_yyyymmdd>
20091116

$$$$
