102-82-9
ChemmineR-0915142007XD

 13 12  0  0  0  0  0  0  0  0  1 V2000
    3.9880   -1.1486    0.0000 N   0  0  0  0  0  0  0  0  0  0  0  0
    3.3260   -2.3051    0.0000 C   0  0  0  0  0  0  0  0  0  0  0  0
    1.9940   -2.3051    0.0000 C   0  0  0  0  0  0  0  0  0  0  0  0
    1.3320   -3.4536    0.0000 C   0  0  0  0  0  0  0  0  0  0  0  0
    0.0000   -3.4536    0.0000 C   0  0  0  0  0  0  0  0  0  0  0  0
    3.3260    0.0000    0.0000 C   0  0  0  0  0  0  0  0  0  0  0  0
    1.9940    0.0000    0.0000 C   0  0  0  0  0  0  0  0  0  0  0  0
    1.3320   -1.1486    0.0000 C   0  0  0  0  0  0  0  0  0  0  0  0
    0.0000   -1.1486    0.0000 C   0  0  0  0  0  0  0  0  0  0  0  0
    5.3201   -1.1486    0.0000 C   0  0  0  0  0  0  0  0  0  0  0  0
    5.9821   -2.3051    0.0000 C   0  0  0  0  0  0  0  0  0  0  0  0
    7.3141   -2.3051    0.0000 C   0  0  0  0  0  0  0  0  0  0  0  0
    7.9761   -3.4536    0.0000 C   0  0  0  0  0  0  0  0  0  0  0  0
  1  2  1  0  0  0  0
  1  6  1  0  0  0  0
  1 10  1  0  0  0  0
  2  3  1  0  0  0  0
  3  4  1  0  0  0  0
  4  5  1  0  0  0  0
  6  7  1  0  0  0  0
  7  8  1  0  0  0  0
  8  9  1  0  0  0  0
 10 11  1  0  0  0  0
 11 12  1  0  0  0  0
 12 13  1  0  0  0  0
M  END
> <ID>
4583

> <Formula>
C12H27N

> <FW>
185.3495

> <DSSTox_CID>
6183

> <DSSTox_RID>
78050

> <DSSTox_GSID>
26183

> <DSSTox_FileID_Sort>
2733

> <TS_ChemName>
Tributylamine

> <TS_ChemName_Synonyms>
Tributylamine (1-Butanamine, N,N-dibutyl-)

> <TS_CASRN>
102-82-9

> <CASRN_ChemName_Relationship>
primary

> <TS_Description>
single chemical compound

> <ChemNote>


> <STRUCTURE_Shown>
tested chemical

> <STRUCTURE_Formula>
C12H27N

> <STRUCTURE_MW>
185.3495

> <STRUCTURE_ChemType>
defined organic

> <STRUCTURE_DefinedOrganicForm>
parent

> <STRUCTURE_IUPAC>
N,N-dibutylbutan-1-amine

> <STRUCTURE_SMILES>
CCCCN(CCCC)CCCC

> <STRUCTURE_SMILES_Desalt>
CCCCN(CCCC)CCCC

> <Substance_modify_yyyymmdd>
20080429

$$$$
