102-76-1
ChemmineR-0915142007XD

 15 14  0  0  0  0  0  0  0  0  1 V2000
    2.3130   -3.3284    0.0000 C   0  0  0  0  0  0  0  0  0  0  0  0
    3.4413   -3.9973    0.0000 C   0  0  0  0  0  0  0  0  0  0  0  0
    4.6179   -3.3284    0.0000 C   0  0  0  0  0  0  0  0  0  0  0  0
    2.3130   -2.0148    0.0000 O   0  0  0  0  0  0  0  0  0  0  0  0
    3.4413   -5.3110    0.0000 O   0  0  0  0  0  0  0  0  0  0  0  0
    5.7462   -3.9973    0.0000 O   0  0  0  0  0  0  0  0  0  0  0  0
    1.1444   -1.3136    0.0000 C   0  0  0  0  0  0  0  0  0  0  0  0
    0.0000   -2.0148    0.0000 O   0  0  0  0  0  0  0  0  0  0  0  0
    1.1444    0.0000    0.0000 C   0  0  0  0  0  0  0  0  0  0  0  0
    4.6179   -6.0121    0.0000 C   0  0  0  0  0  0  0  0  0  0  0  0
    5.7462   -5.3110    0.0000 O   0  0  0  0  0  0  0  0  0  0  0  0
    4.6179   -7.3258    0.0000 C   0  0  0  0  0  0  0  0  0  0  0  0
    6.9147   -3.3284    0.0000 C   0  0  0  0  0  0  0  0  0  0  0  0
    6.9147   -2.0148    0.0000 O   0  0  0  0  0  0  0  0  0  0  0  0
    8.0591   -3.9973    0.0000 C   0  0  0  0  0  0  0  0  0  0  0  0
  1  2  1  0  0  0  0
  1  4  1  0  0  0  0
  2  3  1  0  0  0  0
  2  5  1  0  0  0  0
  3  6  1  0  0  0  0
  4  7  1  0  0  0  0
  5 10  1  0  0  0  0
  6 13  1  0  0  0  0
  7  8  2  0  0  0  0
  7  9  1  0  0  0  0
 10 11  2  0  0  0  0
 10 12  1  0  0  0  0
 13 14  2  0  0  0  0
 13 15  1  0  0  0  0
M  END
> <ID>
4764

> <Formula>
C9H14O6

> <FW>
218.2039

> <DSSTox_CID>
6691

> <DSSTox_RID>
78184

> <DSSTox_GSID>
26691

> <DSSTox_FileID_Sort>
2867

> <TS_ChemName>
Triacetin

> <TS_ChemName_Synonyms>
Triacetin (1,2,3-Propanetriol triacetate) (Glyceryl triacetate)

> <TS_CASRN>
102-76-1

> <CASRN_ChemName_Relationship>
primary

> <TS_Description>
single chemical compound

> <ChemNote>


> <STRUCTURE_Shown>
tested chemical

> <STRUCTURE_Formula>
C9H14O6

> <STRUCTURE_MW>
218.2039

> <STRUCTURE_ChemType>
defined organic

> <STRUCTURE_DefinedOrganicForm>
parent

> <STRUCTURE_IUPAC>
propane-1,2,3-triyl triacetate

> <STRUCTURE_SMILES>
O=C(C)OC(COC(C)=O)COC(=O)C

> <STRUCTURE_SMILES_Desalt>
O=C(C)OC(COC(C)=O)COC(=O)C

> <Substance_modify_yyyymmdd>
20080429

$$$$
