102-50-1
ChemmineR-0915142007XD

 10 10  0  0  0  0  0  0  0  0  1 V2000
    5.7597   -1.9986    0.0000 C   0  0  0  0  0  0  0  0  0  0  0  0
    4.6078   -2.6610    0.0000 O   0  0  0  0  0  0  0  0  0  0  0  0
    3.4558   -1.9986    0.0000 C   0  0  0  0  0  0  0  0  0  0  0  0
    2.3039   -2.6610    0.0000 C   0  0  0  0  0  0  0  0  0  0  0  0
    1.1519   -1.9986    0.0000 C   0  0  0  0  0  0  0  0  0  0  0  0
    1.1519   -0.6681    0.0000 C   0  0  0  0  0  0  0  0  0  0  0  0
    2.3039    0.0000    0.0000 C   0  0  0  0  0  0  0  0  0  0  0  0
    3.4558   -0.6681    0.0000 C   0  0  0  0  0  0  0  0  0  0  0  0
    0.0000    0.0000    0.0000 N   0  0  0  0  0  0  0  0  0  0  0  0
    0.0000   -2.6610    0.0000 C   0  0  0  0  0  0  0  0  0  0  0  0
  1  2  1  0  0  0  0
  2  3  1  0  0  0  0
  3  4  2  0  0  0  0
  3  8  1  0  0  0  0
  4  5  1  0  0  0  0
  5  6  2  0  0  0  0
  5 10  1  0  0  0  0
  6  7  1  0  0  0  0
  6  9  1  0  0  0  0
  7  8  2  0  0  0  0
M  END
> <ID>
339

> <Formula>
C8H11NO

> <FW>
137.179

> <DSSTox_CID>
349

> <DSSTox_RID>
75530

> <DSSTox_GSID>
20349

> <DSSTox_FileID_Sort>
214

> <TS_ChemName>
4-Methoxy-2-methylaniline

> <TS_ChemName_Synonyms>
4-Methoxy-2-methylaniline (m-Cresidine)

> <TS_CASRN>
102-50-1

> <CASRN_ChemName_Relationship>
primary

> <TS_Description>
single chemical compound

> <ChemNote>


> <STRUCTURE_Shown>
tested chemical

> <STRUCTURE_Formula>
C8H11NO

> <STRUCTURE_MW>
137.179

> <STRUCTURE_ChemType>
defined organic

> <STRUCTURE_DefinedOrganicForm>
parent

> <STRUCTURE_IUPAC>
4-methoxy-2-methylaniline

> <STRUCTURE_SMILES>
Nc1ccc(OC)cc1C

> <STRUCTURE_SMILES_Desalt>
Nc1ccc(OC)cc1C

> <Substance_modify_yyyymmdd>
20080429

$$$$
