102-87-4
ChemmineR-0915142007XD

 37 36  0  0  0  0  0  0  0  0  1 V2000
   12.0465   -7.0111    0.0000 N   0  0  0  0  0  0  0  0  0  0  0  0
   10.6973   -7.0111    0.0000 C   0  0  0  0  0  0  0  0  0  0  0  0
   10.0468   -5.8787    0.0000 C   0  0  0  0  0  0  0  0  0  0  0  0
    8.6976   -5.8787    0.0000 C   0  0  0  0  0  0  0  0  0  0  0  0
    7.9748   -4.7222    0.0000 C   0  0  0  0  0  0  0  0  0  0  0  0
    6.6979   -4.7222    0.0000 C   0  0  0  0  0  0  0  0  0  0  0  0
    5.9751   -3.5658    0.0000 C   0  0  0  0  0  0  0  0  0  0  0  0
    4.6259   -3.5658    0.0000 C   0  0  0  0  0  0  0  0  0  0  0  0
    3.9753   -2.4093    0.0000 C   0  0  0  0  0  0  0  0  0  0  0  0
    2.6261   -2.4093    0.0000 C   0  0  0  0  0  0  0  0  0  0  0  0
    1.9997   -1.2528    0.0000 C   0  0  0  0  0  0  0  0  0  0  0  0
    0.6264   -1.2528    0.0000 C   0  0  0  0  0  0  0  0  0  0  0  0
    0.0000   -0.0964    0.0000 C   0  0  0  0  0  0  0  0  0  0  0  0
   12.6729   -8.1675    0.0000 C   0  0  0  0  0  0  0  0  0  0  0  0
   12.0465   -9.3240    0.0000 C   0  0  0  0  0  0  0  0  0  0  0  0
   12.6729  -10.4805    0.0000 C   0  0  0  0  0  0  0  0  0  0  0  0
   12.0465  -11.6369    0.0000 C   0  0  0  0  0  0  0  0  0  0  0  0
   12.6729  -12.8657    0.0000 C   0  0  0  0  0  0  0  0  0  0  0  0
   12.0465  -14.0221    0.0000 C   0  0  0  0  0  0  0  0  0  0  0  0
   12.6729  -15.1786    0.0000 C   0  0  0  0  0  0  0  0  0  0  0  0
   12.0465  -16.3351    0.0000 C   0  0  0  0  0  0  0  0  0  0  0  0
   12.6729  -17.4915    0.0000 C   0  0  0  0  0  0  0  0  0  0  0  0
   12.0465  -18.6480    0.0000 C   0  0  0  0  0  0  0  0  0  0  0  0
   12.6729  -19.8044    0.0000 C   0  0  0  0  0  0  0  0  0  0  0  0
   12.0465  -20.9368    0.0000 C   0  0  0  0  0  0  0  0  0  0  0  0
   12.6729   -5.8787    0.0000 C   0  0  0  0  0  0  0  0  0  0  0  0
   14.0462   -5.8787    0.0000 C   0  0  0  0  0  0  0  0  0  0  0  0
   14.6726   -4.7222    0.0000 C   0  0  0  0  0  0  0  0  0  0  0  0
   16.0218   -4.7222    0.0000 C   0  0  0  0  0  0  0  0  0  0  0  0
   16.7687   -3.5658    0.0000 C   0  0  0  0  0  0  0  0  0  0  0  0
   18.0216   -3.5658    0.0000 C   0  0  0  0  0  0  0  0  0  0  0  0
   18.7444   -2.2888    0.0000 C   0  0  0  0  0  0  0  0  0  0  0  0
   19.9972   -2.2888    0.0000 C   0  0  0  0  0  0  0  0  0  0  0  0
   20.7441   -1.1324    0.0000 C   0  0  0  0  0  0  0  0  0  0  0  0
   21.9969   -1.1324    0.0000 C   0  0  0  0  0  0  0  0  0  0  0  0
   22.7438    0.0000    0.0000 C   0  0  0  0  0  0  0  0  0  0  0  0
   24.0930    0.0000    0.0000 C   0  0  0  0  0  0  0  0  0  0  0  0
  1  2  1  0  0  0  0
  1 14  1  0  0  0  0
  1 26  1  0  0  0  0
  2  3  1  0  0  0  0
  3  4  1  0  0  0  0
  4  5  1  0  0  0  0
  5  6  1  0  0  0  0
  6  7  1  0  0  0  0
  7  8  1  0  0  0  0
  8  9  1  0  0  0  0
  9 10  1  0  0  0  0
 10 11  1  0  0  0  0
 11 12  1  0  0  0  0
 12 13  1  0  0  0  0
 14 15  1  0  0  0  0
 15 16  1  0  0  0  0
 16 17  1  0  0  0  0
 17 18  1  0  0  0  0
 18 19  1  0  0  0  0
 19 20  1  0  0  0  0
 20 21  1  0  0  0  0
 21 22  1  0  0  0  0
 22 23  1  0  0  0  0
 23 24  1  0  0  0  0
 24 25  1  0  0  0  0
 26 27  1  0  0  0  0
 27 28  1  0  0  0  0
 28 29  1  0  0  0  0
 29 30  1  0  0  0  0
 30 31  1  0  0  0  0
 31 32  1  0  0  0  0
 32 33  1  0  0  0  0
 33 34  1  0  0  0  0
 34 35  1  0  0  0  0
 35 36  1  0  0  0  0
 36 37  1  0  0  0  0
M  END
> <ID>
12210

> <Formula>
C36H75N

> <FW>
521.9874

> <DSSTox_CID>
27056

> <DSSTox_RID>
82073

> <DSSTox_GSID>
47056

> <DSSTox_FileID_Sort>
6754

> <TS_ChemName>
Tridodecylamine

> <TS_ChemName_Synonyms>


> <TS_CASRN>
102-87-4

> <CASRN_ChemName_Relationship>
primary

> <TS_Description>
single chemical compound

> <ChemNote>


> <STRUCTURE_Shown>
tested chemical

> <STRUCTURE_Formula>
C36H75N

> <STRUCTURE_MW>
521.9874

> <STRUCTURE_ChemType>
defined organic

> <STRUCTURE_DefinedOrganicForm>
parent

> <STRUCTURE_IUPAC>
N,N-didodecyldodecan-1-amine

> <STRUCTURE_SMILES>
CCCCCCCCCCCCN(CCCCCCCCCCCC)CCCCCCCCCCCC

> <STRUCTURE_SMILES_Desalt>
CCCCCCCCCCCCN(CCCCCCCCCCCC)CCCCCCCCCCCC

> <Substance_modify_yyyymmdd>
20100429

$$$$
