1021868-82-5
ChemmineR-0915142007XD

 21 22  0  0  0  0  0  0  0  0  1 V2000
    2.3068   -2.2697    0.0000 C   0  0  0  0  0  0  0  0  0  0  0  0
    2.3068   -3.6020    0.0000 C   0  0  0  0  0  0  0  0  0  0  0  0
    1.1595   -1.5913    0.0000 C   0  0  0  0  0  0  0  0  0  0  0  0
    1.1595   -4.2558    0.0000 C   0  0  0  0  0  0  0  0  0  0  0  0
    0.0000   -2.2697    0.0000 C   0  0  0  0  0  0  0  0  0  0  0  0
    0.0000   -3.6020    0.0000 C   0  0  0  0  0  0  0  0  0  0  0  0
    3.4663   -1.5913    0.0000 C   0  0  0  0  0  0  0  0  0  0  0  0
    4.6135   -2.2697    0.0000 C   0  0  0  0  0  0  0  0  0  0  0  0
    3.4663   -4.2558    0.0000 C   0  0  0  0  0  0  0  0  0  0  0  0
    4.6135   -3.6020    0.0000 C   0  0  0  0  0  0  0  0  0  0  0  0
    5.7731   -1.5913    0.0000 C   0  0  0  0  0  0  0  0  0  0  0  0
    5.8964   -0.2714    0.0000 N   0  0  0  0  0  0  0  0  0  0  0  0
    6.9696   -2.1464    0.0000 N   0  0  0  0  0  0  0  0  0  0  0  0
    7.1916    0.0000    0.0000 C   0  0  0  0  0  0  0  0  0  0  0  0
    7.8701   -1.1472    0.0000 C   0  0  0  0  0  0  0  0  0  0  0  0
   10.3125   -2.8619    0.0000 C   0  0  0  0  0  0  0  0  0  0  0  0
   11.6325   -2.8619    0.0000 C   0  0  0  0  0  0  0  0  0  0  0  0
    9.6094   -3.9844    0.0000 O   0  0  0  0  0  0  0  0  0  0  0  0
   12.3356   -1.7393    0.0000 O   0  0  0  0  0  0  0  0  0  0  0  0
    9.6094   -1.7393    0.0000 O   0  0  0  0  0  0  0  0  0  0  0  0
   12.3356   -3.9844    0.0000 O   0  0  0  0  0  0  0  0  0  0  0  0
  1  3  2  0  0  0  0
  1  7  1  0  0  0  0
  1  2  1  0  0  0  0
  2  4  2  0  0  0  0
  2  9  1  0  0  0  0
  3  5  1  0  0  0  0
  4  6  1  0  0  0  0
  5  6  2  0  0  0  0
  7  8  2  0  0  0  0
  8 10  1  0  0  0  0
  8 11  1  0  0  0  0
  9 10  2  0  0  0  0
 11 12  1  0  0  0  0
 11 13  2  0  0  0  0
 12 14  1  0  0  0  0
 13 15  1  0  0  0  0
 14 15  1  0  0  0  0
 16 17  1  0  0  0  0
 16 18  2  0  0  0  0
 16 20  1  0  0  0  0
 17 19  2  0  0  0  0
 17 21  1  0  0  0  0
M  END
> <ID>
11169

> <Formula>
C15H14N2O4

> <FW>
286.2827 (196.2478+90.0349)

> <DSSTox_CID>
25758

> <DSSTox_RID>
81101

> <DSSTox_GSID>
45758

> <DSSTox_FileID_Sort>
5782

> <TS_ChemName>
Benazoline oxalate

> <TS_ChemName_Synonyms>


> <TS_CASRN>
1021868-82-5

> <CASRN_ChemName_Relationship>
primary

> <TS_Description>
single chemical compound

> <ChemNote>
parent [113698-36-5]

> <STRUCTURE_Shown>
tested chemical

> <STRUCTURE_Formula>
C15H14N2O4

> <STRUCTURE_MW>
286.2827

> <STRUCTURE_ChemType>
defined organic

> <STRUCTURE_DefinedOrganicForm>
complex

> <STRUCTURE_IUPAC>
2-(naphthalen-2-yl)-4,5-dihydro-1H-imidazole ethanedioate (1:1)

> <STRUCTURE_SMILES>
O=C(O)C(=O)O.c1cc(cc2ccccc12)C3=NCCN3

> <STRUCTURE_SMILES_Desalt>
c1cc(cc2ccccc12)C3=NCCN3

> <Substance_modify_yyyymmdd>
20110828

$$$$
