1021868-76-7
ChemmineR-0915142007XD

 31 30  0  0  0  0  0  0  0  0  2 V2000
   12.0979   -5.4170    0.0000 Na   0  3  0  0  0  0  0  0  0  0  0  0
    0.0000   -6.6671    0.0000 Cl   0  0  0  0  0  0  0  0  0  0  0  0
    1.1390   -5.9865    0.0000 C    0  0  0  0  0  0  0  0  0  0  0  0
    1.1390   -4.6531    0.0000 C    0  0  0  0  0  0  0  0  0  0  0  0
    2.3196   -4.0141    0.0000 C    0  0  0  0  0  0  0  0  0  0  0  0
    3.4585   -4.6531    0.0000 C    0  0  0  0  0  0  0  0  0  0  0  0
    3.4585   -5.9865    0.0000 C    0  0  0  0  0  0  0  0  0  0  0  0
    2.3196   -6.6671    0.0000 C    0  0  0  0  0  0  0  0  0  0  0  0
    0.0000   -4.0141    0.0000 Cl   0  0  0  0  0  0  0  0  0  0  0  0
    4.6253   -4.0141    0.0000 C    0  0  0  0  0  0  0  0  0  0  0  0
    4.6253   -2.6529    0.0000 O    0  0  0  0  0  0  0  0  0  0  0  0
    5.7781   -4.6531    0.0000 N    0  0  0  0  0  0  0  0  0  0  0  0
    6.9449   -4.0141    0.0000 C    0  0  0  0  0  0  0  0  0  0  0  0
    6.9449   -2.6529    0.0000 C    0  0  0  0  0  0  0  0  0  0  0  0
    5.7781   -2.0001    0.0000 O    0  0  0  0  0  0  0  0  0  0  0  0
    8.1116   -4.6531    0.0000 C    0  0  0  0  0  0  0  0  0  0  0  0
    9.2644   -4.0141    0.0000 C    0  0  0  0  0  0  0  0  0  0  0  0
   10.4034   -4.6531    0.0000 C    0  0  0  0  0  0  0  0  0  0  0  0
   10.4034   -5.9865    0.0000 O    0  0  0  0  0  0  0  0  0  0  0  0
   11.5701   -4.0141    0.0000 O    0  5  0  0  0  0  0  0  0  0  0  0
    8.1116   -2.0001    0.0000 N    0  0  0  0  0  0  0  0  0  0  0  0
    9.2644   -2.6529    0.0000 C    0  0  0  0  0  0  0  0  0  0  0  0
   10.4034   -2.0001    0.0000 C    0  0  0  0  0  0  0  0  0  0  0  0
   11.5701   -2.6529    0.0000 C    0  0  0  0  0  0  0  0  0  0  0  0
   12.7230   -2.0001    0.0000 C    0  0  0  0  0  0  0  0  0  0  0  0
   13.8897   -2.6529    0.0000 C    0  0  0  0  0  0  0  0  0  0  0  0
    8.1116   -0.6389    0.0000 C    0  0  0  0  0  0  0  0  0  0  0  0
    9.2644    0.0000    0.0000 C    0  0  0  0  0  0  0  0  0  0  0  0
   10.4034   -0.6389    0.0000 C    0  0  0  0  0  0  0  0  0  0  0  0
   11.5701    0.0000    0.0000 C    0  0  0  0  0  0  0  0  0  0  0  0
   12.7230   -0.6389    0.0000 C    0  0  0  0  0  0  0  0  0  0  0  0
  2  3  1  0  0  0  0
  3  4  2  0  0  0  0
  3  8  1  0  0  0  0
  4  5  1  0  0  0  0
  4  9  1  0  0  0  0
  5  6  2  0  0  0  0
  6 10  1  0  0  0  0
  6  7  1  0  0  0  0
  7  8  2  0  0  0  0
 10 11  2  0  0  0  0
 10 12  1  0  0  0  0
 12 13  1  0  0  0  0
 13 16  1  0  0  0  0
 13 14  1  0  0  0  0
 14 21  1  0  0  0  0
 14 15  2  0  0  0  0
 16 17  1  0  0  0  0
 17 18  1  0  0  0  0
 18 19  2  0  0  0  0
 18 20  1  0  0  0  0
 21 22  1  0  0  0  0
 21 27  1  0  0  0  0
 22 23  1  0  0  0  0
 23 24  1  0  0  0  0
 24 25  1  0  0  0  0
 25 26  1  0  0  0  0
 27 28  1  0  0  0  0
 28 29  1  0  0  0  0
 29 30  1  0  0  0  0
 30 31  1  0  0  0  0
M  END
> <ID>
10835

> <Formula>
C22H31Cl2N2NaO4

> <FW>
481.3883 (22.9892+458.3991)

> <DSSTox_CID>
25228

> <DSSTox_RID>
80765

> <DSSTox_GSID>
45228

> <DSSTox_FileID_Sort>
5446

> <TS_ChemName>
Lorglumide sodium

> <TS_ChemName_Synonyms>


> <TS_CASRN>
1021868-76-7

> <CASRN_ChemName_Relationship>
primary

> <TS_Description>
single chemical compound

> <ChemNote>
parent [97964-56-2]

> <STRUCTURE_Shown>
tested chemical

> <STRUCTURE_Formula>
C22H31Cl2N2NaO4

> <STRUCTURE_MW>
481.3883

> <STRUCTURE_ChemType>
defined organic

> <STRUCTURE_DefinedOrganicForm>
salt

> <STRUCTURE_IUPAC>
sodium 4-{[4-carboxylato-1-(dipentylamino)-1-oxobutan-2-yl]carbamoyl}-1,2-dichlorobenzene

> <STRUCTURE_SMILES>
[Na+].Clc1ccc(cc1Cl)C(=O)NC(CCC([O-])=O)C(=O)N(CCCCC)CCCCC

> <STRUCTURE_SMILES_Desalt>
Clc1ccc(cc1Cl)C(=O)NC(CCC(=O)O)C(=O)N(CCCCC)CCCCC

> <Substance_modify_yyyymmdd>
20130911

$$$$
