10217-34-2
ChemmineR-0915142007XD

 19 20  0  0  0  0  0  0  0  0  1 V2000
    3.4534   -3.4534    0.0000 Si   0  0  0  0  0  0  0  0  0  0  0  0
    4.1461   -4.5907    0.0000 O    0  0  0  0  0  0  0  0  0  0  0  0
    3.4844   -5.7488    0.0000 C    0  0  0  0  0  0  0  0  0  0  0  0
    4.1772   -6.8861    0.0000 C    0  0  0  0  0  0  0  0  0  0  0  0
    2.7813   -2.3057    0.0000 O    0  0  0  0  0  0  0  0  0  0  0  0
    3.4224   -1.1580    0.0000 C    0  0  0  0  0  0  0  0  0  0  0  0
    2.7503    0.0000    0.0000 C    0  0  0  0  0  0  0  0  0  0  0  0
    2.3160   -4.1255    0.0000 O    0  0  0  0  0  0  0  0  0  0  0  0
    1.1580   -3.4844    0.0000 C    0  0  0  0  0  0  0  0  0  0  0  0
    0.0000   -4.1565    0.0000 C    0  0  0  0  0  0  0  0  0  0  0  0
    4.6114   -2.7606    0.0000 C    0  0  0  0  0  0  0  0  0  0  0  0
    5.7488   -3.4224    0.0000 C    0  0  0  0  0  0  0  0  0  0  0  0
    9.2021   -2.7089    0.0000 C    0  0  0  0  0  0  0  0  0  0  0  0
    8.0648   -3.3810    0.0000 C    0  0  0  0  0  0  0  0  0  0  0  0
    6.8861   -2.7296    0.0000 C    0  0  0  0  0  0  0  0  0  0  0  0
    6.8758   -1.3958    0.0000 C    0  0  0  0  0  0  0  0  0  0  0  0
    8.0234   -0.7341    0.0000 C    0  0  0  0  0  0  0  0  0  0  0  0
    9.1815   -1.3752    0.0000 C    0  0  0  0  0  0  0  0  0  0  0  0
   10.3395   -2.0369    0.0000 O    0  0  0  0  0  0  0  0  0  0  0  0
  1  2  1  0  0  0  0
  1  5  1  0  0  0  0
  1  8  1  0  0  0  0
  1 11  1  0  0  0  0
  2  3  1  0  0  0  0
  3  4  1  0  0  0  0
  5  6  1  0  0  0  0
  6  7  1  0  0  0  0
  8  9  1  0  0  0  0
  9 10  1  0  0  0  0
 11 12  1  0  0  0  0
 12 15  1  0  0  0  0
 13 14  1  0  0  0  0
 13 19  1  0  0  0  0
 13 18  1  0  0  0  0
 14 15  1  0  0  0  0
 15 16  1  0  0  0  0
 16 17  1  0  0  0  0
 17 18  1  0  0  0  0
 18 19  1  0  0  0  0
M  END
> <ID>
10413

> <Formula>
C14H28O4Si

> <FW>
288.4552

> <DSSTox_CID>
24762

> <DSSTox_RID>
80454

> <DSSTox_GSID>
44762

> <DSSTox_FileID_Sort>
5136

> <TS_ChemName>
Triethoxy[2-(7-oxabicyclo[4.1.0]hept-3-yl)ethyl]silane

> <TS_ChemName_Synonyms>
Triethoxy[2-(7-oxabicyclo[4.1.0]hept-3-yl)ethyl]silane (Silane, triethoxy[2-(7-oxabicyclo[4.1.0]hept-3-yl)ethyl]-)

> <TS_CASRN>
10217-34-2

> <CASRN_ChemName_Relationship>
primary

> <TS_Description>
single chemical compound

> <ChemNote>


> <STRUCTURE_Shown>
tested chemical

> <STRUCTURE_Formula>
C14H28O4Si

> <STRUCTURE_MW>
288.4552

> <STRUCTURE_ChemType>
organometallic

> <STRUCTURE_DefinedOrganicForm>


> <STRUCTURE_IUPAC>
triethoxy[2-(7-oxabicyclo[4.1.0]hept-3-yl)ethyl]silane

> <STRUCTURE_SMILES>
CCO[Si](CCC1CC2OC2CC1)(OCC)OCC

> <STRUCTURE_SMILES_Desalt>
CCO[Si](CCC1CC2OC2CC1)(OCC)OCC

> <Substance_modify_yyyymmdd>
20091116

$$$$
