102121-60-8
ChemmineR-0915142007XD

 26 28  0  0  0  0  0  0  0  0  1 V2000
    2.3048   -3.9891    0.0000 C   0  0  0  0  0  0  0  0  0  0  0  0
    2.3048   -5.3189    0.0000 C   0  0  0  0  0  0  0  0  0  0  0  0
    1.1524   -3.3180    0.0000 C   0  0  0  0  0  0  0  0  0  0  0  0
    1.1524   -5.9774    0.0000 C   0  0  0  0  0  0  0  0  0  0  0  0
    0.0000   -3.9891    0.0000 C   0  0  0  0  0  0  0  0  0  0  0  0
    0.0000   -5.3189    0.0000 C   0  0  0  0  0  0  0  0  0  0  0  0
    3.4573   -3.3180    0.0000 C   0  0  0  0  0  0  0  0  0  0  0  0
    4.6097   -3.9891    0.0000 C   0  0  0  0  0  0  0  0  0  0  0  0
    3.4573   -5.9774    0.0000 C   0  0  0  0  0  0  0  0  0  0  0  0
    4.6097   -5.3189    0.0000 C   0  0  0  0  0  0  0  0  0  0  0  0
    5.7621   -3.3180    0.0000 C   0  0  0  0  0  0  0  0  0  0  0  0
    6.9019   -3.9891    0.0000 N   0  0  0  0  0  0  0  0  0  0  0  0
    5.7621   -1.9882    0.0000 O   0  0  0  0  0  0  0  0  0  0  0  0
   10.3591   -1.9882    0.0000 C   0  0  0  0  0  0  0  0  0  0  0  0
   10.3591   -3.3180    0.0000 C   0  0  0  0  0  0  0  0  0  0  0  0
    9.2067   -1.3297    0.0000 C   0  0  0  0  0  0  0  0  0  0  0  0
    9.2067   -3.9891    0.0000 C   0  0  0  0  0  0  0  0  0  0  0  0
    8.0543   -1.9882    0.0000 C   0  0  0  0  0  0  0  0  0  0  0  0
    8.0543   -3.3180    0.0000 C   0  0  0  0  0  0  0  0  0  0  0  0
   11.5115   -1.3297    0.0000 C   0  0  0  0  0  0  0  0  0  0  0  0
   12.6640   -1.9882    0.0000 O   0  0  0  0  0  0  0  0  0  0  0  0
   11.5115    0.0000    0.0000 O   0  0  0  0  0  0  0  0  0  0  0  0
    0.4812   -2.1655    0.0000 C   0  0  0  0  0  0  0  0  0  0  0  0
    1.8109   -2.1655    0.0000 C   0  0  0  0  0  0  0  0  0  0  0  0
    1.8109   -7.1298    0.0000 C   0  0  0  0  0  0  0  0  0  0  0  0
    0.4812   -7.1298    0.0000 C   0  0  0  0  0  0  0  0  0  0  0  0
  1  3  1  0  0  0  0
  1  7  1  0  0  0  0
  1  2  2  0  0  0  0
  2  4  1  0  0  0  0
  2  9  1  0  0  0  0
  3  5  1  0  0  0  0
  3 23  1  0  0  0  0
  3 24  1  0  0  0  0
  4  6  1  0  0  0  0
  4 25  1  0  0  0  0
  4 26  1  0  0  0  0
  5  6  1  0  0  0  0
  7  8  2  0  0  0  0
  8 10  1  0  0  0  0
  8 11  1  0  0  0  0
  9 10  2  0  0  0  0
 11 12  1  0  0  0  0
 11 13  2  0  0  0  0
 12 19  1  0  0  0  0
 14 15  1  0  0  0  0
 14 16  2  0  0  0  0
 14 20  1  0  0  0  0
 15 17  2  0  0  0  0
 16 18  1  0  0  0  0
 17 19  1  0  0  0  0
 18 19  2  0  0  0  0
 20 21  1  0  0  0  0
 20 22  2  0  0  0  0
M  END
> <ID>
7950

> <Formula>
C22H25NO3

> <FW>
351.4388

> <DSSTox_CID>
20758

> <DSSTox_RID>
79590

> <DSSTox_GSID>
40758

> <DSSTox_FileID_Sort>
4272

> <TS_ChemName>
AM580

> <TS_ChemName_Synonyms>
AM-580

> <TS_CASRN>
102121-60-8

> <CASRN_ChemName_Relationship>
primary

> <TS_Description>
single chemical compound

> <ChemNote>


> <STRUCTURE_Shown>
tested chemical

> <STRUCTURE_Formula>
C22H25NO3

> <STRUCTURE_MW>
351.4388

> <STRUCTURE_ChemType>
defined organic

> <STRUCTURE_DefinedOrganicForm>
parent

> <STRUCTURE_IUPAC>
4-{[(5,5,8,8-tetramethyl-5,6,7,8-tetrahydronaphthalen-2-yl)carbonyl]amino}benzoic acid

> <STRUCTURE_SMILES>
O=C(O)c1ccc(cc1)NC(=O)c2ccc3c(c2)C(C)(C)CCC3(C)C

> <STRUCTURE_SMILES_Desalt>
O=C(O)c1ccc(cc1)NC(=O)c2ccc3c(c2)C(C)(C)CCC3(C)C

> <Substance_modify_yyyymmdd>
20080429

$$$$
