102268-15-5
ChemmineR-0915142007XD

 14 14  0  0  0  0  0  0  0  0  1 V2000
    3.9868   -4.6114    0.0000 N   0  0  0  0  0  0  0  0  0  0  0  0
    2.6579   -4.6114    0.0000 C   0  0  0  0  0  0  0  0  0  0  0  0
    4.6446   -3.4552    0.0000 C   0  0  0  0  0  0  0  0  0  0  0  0
    3.9868   -2.3057    0.0000 C   0  0  0  0  0  0  0  0  0  0  0  0
    1.9868   -3.4552    0.0000 C   0  0  0  0  0  0  0  0  0  0  0  0
    2.6579   -2.3057    0.0000 C   0  0  0  0  0  0  0  0  0  0  0  0
    5.9735   -3.4552    0.0000 C   0  0  0  0  0  0  0  0  0  0  0  0
    6.6447   -4.6114    0.0000 O   0  0  0  0  0  0  0  0  0  0  0  0
    6.6447   -2.3057    0.0000 O   0  0  0  0  0  0  0  0  0  0  0  0
    4.6446   -1.1562    0.0000 C   0  0  0  0  0  0  0  0  0  0  0  0
    5.9735   -1.1562    0.0000 O   0  0  0  0  0  0  0  0  0  0  0  0
    3.9868    0.0000    0.0000 O   0  0  0  0  0  0  0  0  0  0  0  0
    0.6578   -3.4552    0.0000 C   0  0  0  0  0  0  0  0  0  0  0  0
    0.0000   -4.6114    0.0000 C   0  0  0  0  0  0  0  0  0  0  0  0
  1  2  2  0  0  0  0
  1  3  1  0  0  0  0
  2  5  1  0  0  0  0
  3  4  2  0  0  0  0
  3  7  1  0  0  0  0
  4  6  1  0  0  0  0
  4 10  1  0  0  0  0
  5  6  2  0  0  0  0
  5 13  1  0  0  0  0
  7  8  2  0  0  0  0
  7  9  1  0  0  0  0
 10 11  2  0  0  0  0
 10 12  1  0  0  0  0
 13 14  1  0  0  0  0
M  END
> <ID>
5784

> <Formula>
C9H9NO4

> <FW>
195.1721

> <DSSTox_CID>
9072

> <DSSTox_RID>
78667

> <DSSTox_GSID>
29072

> <DSSTox_FileID_Sort>
3349

> <TS_ChemName>
5-Ethyl-2,3-pyridinedicarboxylic acid

> <TS_ChemName_Synonyms>
5-Ethylpyridine-2,3-dicarboxylic acid

> <TS_CASRN>
102268-15-5

> <CASRN_ChemName_Relationship>
primary

> <TS_Description>
single chemical compound

> <ChemNote>


> <STRUCTURE_Shown>
tested chemical

> <STRUCTURE_Formula>
C9H9NO4

> <STRUCTURE_MW>
195.1721

> <STRUCTURE_ChemType>
defined organic

> <STRUCTURE_DefinedOrganicForm>
parent

> <STRUCTURE_IUPAC>
5-ethylpyridine-2,3-dicarboxylic acid

> <STRUCTURE_SMILES>
OC(=O)c1ncc(cc1C(=O)O)CC

> <STRUCTURE_SMILES_Desalt>
OC(=O)c1ncc(cc1C(=O)O)CC

> <Substance_modify_yyyymmdd>
20080429

$$$$
