102280-49-9
ChemmineR-0915142007XD

 27 29  0  0  0  0  0  0  0  0  1 V2000
    0.6728   -7.1874    0.0000 C   0  0  0  0  0  0  0  0  0  0  0  0
    2.0012   -7.1874    0.0000 C   0  0  0  0  0  0  0  0  0  0  0  0
    2.6569   -6.0377    0.0000 C   0  0  0  0  0  0  0  0  0  0  0  0
    3.9854   -6.0377    0.0000 C   0  0  0  0  0  0  0  0  0  0  0  0
    4.6582   -7.1874    0.0000 C   0  0  0  0  0  0  0  0  0  0  0  0
    3.9854   -8.3370    0.0000 C   0  0  0  0  0  0  0  0  0  0  0  0
    2.6569   -8.3370    0.0000 C   0  0  0  0  0  0  0  0  0  0  0  0
    5.9866   -7.1874    0.0000 S   0  0  0  0  0  0  0  0  0  0  0  0
    5.9866   -5.8589    0.0000 O   0  0  0  0  0  0  0  0  0  0  0  0
    7.3151   -7.1874    0.0000 O   0  0  0  0  0  0  0  0  0  0  0  0
    5.9866   -8.5158    0.0000 O   0  0  0  0  0  0  0  0  0  0  0  0
    8.0389   -2.3078    0.0000 C   0  0  0  0  0  0  0  0  0  0  0  0
    7.3662   -3.4574    0.0000 C   0  0  0  0  0  0  0  0  0  0  0  0
    6.0377   -3.4574    0.0000 C   0  0  0  0  0  0  0  0  0  0  0  0
    5.3650   -2.3078    0.0000 C   0  0  0  0  0  0  0  0  0  0  0  0
    4.0365   -2.3078    0.0000 C   0  0  0  0  0  0  0  0  0  0  0  0
    3.3808   -3.4574    0.0000 N   0  0  0  0  0  0  0  0  0  0  0  0
    2.0523   -3.4574    0.0000 C   0  0  0  0  0  0  0  0  0  0  0  0
    1.2603   -4.5304    0.0000 N   0  0  0  0  0  0  0  0  0  0  0  0
    0.0000   -4.1131    0.0000 C   0  0  0  0  0  0  0  0  0  0  0  0
    0.0000   -2.7847    0.0000 C   0  0  0  0  0  0  0  0  0  0  0  0
    1.2603   -2.3674    0.0000 N   0  0  0  0  0  0  0  0  0  0  0  0
    3.3808   -1.1496    0.0000 C   0  0  0  0  0  0  0  0  0  0  0  0
    4.0365    0.0000    0.0000 C   0  0  0  0  0  0  0  0  0  0  0  0
    5.3650    0.0000    0.0000 C   0  0  0  0  0  0  0  0  0  0  0  0
    6.0377   -1.1496    0.0000 C   0  0  0  0  0  0  0  0  0  0  0  0
    7.3662   -1.1496    0.0000 C   0  0  0  0  0  0  0  0  0  0  0  0
  1  2  1  0  0  0  0
  2  3  2  0  0  0  0
  2  7  1  0  0  0  0
  3  4  1  0  0  0  0
  4  5  2  0  0  0  0
  5  6  1  0  0  0  0
  5  8  1  0  0  0  0
  6  7  2  0  0  0  0
  8  9  1  0  0  0  0
  8 10  2  0  0  0  0
  8 11  2  0  0  0  0
 12 13  1  0  0  0  0
 12 27  1  0  0  0  0
 13 14  1  0  0  0  0
 14 15  1  0  0  0  0
 15 16  2  0  0  0  0
 15 26  1  0  0  0  0
 16 17  1  0  0  0  0
 16 23  1  0  0  0  0
 17 18  1  0  0  0  0
 18 19  2  0  0  0  0
 18 22  1  0  0  0  0
 19 20  1  0  0  0  0
 20 21  1  0  0  0  0
 21 22  1  0  0  0  0
 23 24  2  0  0  0  0
 24 25  1  0  0  0  0
 25 26  2  0  0  0  0
 26 27  1  0  0  0  0
M  END
> <ID>
10747

> <Formula>
C20H25N3O3S

> <FW>
387.4958 (172.2016+215.2942)

> <DSSTox_CID>
25112

> <DSSTox_RID>
80679

> <DSSTox_GSID>
45112

> <DSSTox_FileID_Sort>
5361

> <TS_ChemName>
Tramazoline tosylate

> <TS_ChemName_Synonyms>
N-(5,6,7,8-Tetrahydronaphthalen-1-yl)-4,5-dihydro-1H-imidazol-2-amine 4-methylbenzenesulfonate

> <TS_CASRN>
102280-49-9

> <CASRN_ChemName_Relationship>
primary

> <TS_Description>
single chemical compound

> <ChemNote>
Tamazoline hydrochloride is common form of drug, CAS [3715-90-0]

> <STRUCTURE_Shown>
tested chemical

> <STRUCTURE_Formula>
C20H25N3O3S

> <STRUCTURE_MW>
387.4958

> <STRUCTURE_ChemType>
defined organic

> <STRUCTURE_DefinedOrganicForm>
complex

> <STRUCTURE_IUPAC>
N-(5,6,7,8-tetrahydronaphthalen-1-yl)-4,5-dihydro-1H-imidazol-2-amine 4-methylbenzenesulfonate (1:1)

> <STRUCTURE_SMILES>
O=S(=O)(O)c1ccc(C)cc1.C2CCCc3cccc(NC1=NCCN1)c23

> <STRUCTURE_SMILES_Desalt>
C2CCCc3cccc(NC1=NCCN1)c23

> <Substance_modify_yyyymmdd>
20130911

$$$$
