10222-01-2
ChemmineR-0915142007XD

  8  7  0  0  0  0  0  0  0  0  1 V2000
    3.4549   -2.6533    0.0000 C    0  0  0  0  0  0  0  0  0  0  0  0
    4.6065   -3.3259    0.0000 N    0  0  0  0  0  0  0  0  0  0  0  0
    2.3032   -1.9992    0.0000 C    0  0  0  0  0  0  0  0  0  0  0  0
    2.9758   -0.8476    0.0000 Br   0  0  0  0  0  0  0  0  0  0  0  0
    1.6491   -3.1508    0.0000 Br   0  0  0  0  0  0  0  0  0  0  0  0
    1.1516   -1.3267    0.0000 C    0  0  0  0  0  0  0  0  0  0  0  0
    1.1516    0.0000    0.0000 O    0  0  0  0  0  0  0  0  0  0  0  0
    0.0000   -1.9992    0.0000 N    0  0  0  0  0  0  0  0  0  0  0  0
  1  2  3  0  0  0  0
  1  3  1  0  0  0  0
  3  4  1  0  0  0  0
  3  5  1  0  0  0  0
  3  6  1  0  0  0  0
  6  7  2  0  0  0  0
  6  8  1  0  0  0  0
M  END
> <ID>
6434

> <Formula>
C3H2Br2N2O

> <FW>
241.8688

> <DSSTox_CID>
12361

> <DSSTox_RID>
78926

> <DSSTox_GSID>
32361

> <DSSTox_FileID_Sort>
3608

> <TS_ChemName>
2,2-Dibromo-3-nitrilopropionamide

> <TS_ChemName_Synonyms>
DBNPA

> <TS_CASRN>
10222-01-2

> <CASRN_ChemName_Relationship>
primary

> <TS_Description>
single chemical compound

> <ChemNote>


> <STRUCTURE_Shown>
tested chemical

> <STRUCTURE_Formula>
C3H2Br2N2O

> <STRUCTURE_MW>
241.8688

> <STRUCTURE_ChemType>
defined organic

> <STRUCTURE_DefinedOrganicForm>
parent

> <STRUCTURE_IUPAC>
2,2-dibromo-2-cyanoacetamide

> <STRUCTURE_SMILES>
BrC(Br)(C#N)C(N)=O

> <STRUCTURE_SMILES_Desalt>
BrC(Br)(C#N)C(N)=O

> <Substance_modify_yyyymmdd>
20080429

$$$$
