102394-31-0
ChemmineR-0915142007XD

 31 34  0  0  0  0  0  0  0  0  1 V2000
    7.2557   -2.2504    0.0000 C   0  0  0  0  0  0  0  0  0  0  0  0
    6.9631   -3.5421    0.0000 C   0  0  0  0  0  0  0  0  0  0  0  0
    6.4383   -1.2009    0.0000 C   0  0  0  0  0  0  0  0  0  0  0  0
    5.7622   -4.1274    0.0000 N   0  0  0  0  0  0  0  0  0  0  0  0
    5.1063   -1.2009    0.0000 N   0  0  0  0  0  0  0  0  0  0  0  0
    4.2687   -2.2504    0.0000 C   0  0  0  0  0  0  0  0  0  0  0  0
    4.5613   -3.5421    0.0000 C   0  0  0  0  0  0  0  0  0  0  0  0
    2.9871   -1.8568    0.0000 C   0  0  0  0  0  0  0  0  0  0  0  0
    2.0183   -2.7550    0.0000 C   0  0  0  0  0  0  0  0  0  0  0  0
    3.5926   -4.4402    0.0000 N   0  0  0  0  0  0  0  0  0  0  0  0
    2.3311   -4.0467    0.0000 C   0  0  0  0  0  0  0  0  0  0  0  0
    8.5374   -1.8568    0.0000 C   0  0  0  0  0  0  0  0  0  0  0  0
    9.5162   -2.7550    0.0000 C   0  0  0  0  0  0  0  0  0  0  0  0
    7.9420   -4.4402    0.0000 C   0  0  0  0  0  0  0  0  0  0  0  0
    9.2135   -4.0769    0.0000 C   0  0  0  0  0  0  0  0  0  0  0  0
    6.9934    0.0000    0.0000 O   0  0  0  0  0  0  0  0  0  0  0  0
    5.7622   -5.4595    0.0000 C   0  0  0  0  0  0  0  0  0  0  0  0
    6.9025   -6.1154    0.0000 O   0  0  0  0  0  0  0  0  0  0  0  0
    4.6017   -6.1154    0.0000 C   0  0  0  0  0  0  0  0  0  0  0  0
    4.6017   -7.4475    0.0000 N   0  0  0  0  0  0  0  0  0  0  0  0
    5.7622   -8.1034    0.0000 C   0  0  0  0  0  0  0  0  0  0  0  0
    3.4614   -8.1034    0.0000 C   0  0  0  0  0  0  0  0  0  0  0  0
    5.7622   -9.4355    0.0000 C   0  0  0  0  0  0  0  0  0  0  0  0
    3.4614   -9.4355    0.0000 C   0  0  0  0  0  0  0  0  0  0  0  0
    4.6017  -10.0914    0.0000 C   0  0  0  0  0  0  0  0  0  0  0  0
    2.3109   -7.4475    0.0000 C   0  0  0  0  0  0  0  0  0  0  0  0
    1.1706   -8.1034    0.0000 N   0  0  0  0  0  0  0  0  0  0  0  0
    0.0000   -7.4475    0.0000 C   0  0  0  0  0  0  0  0  0  0  0  0
    1.1706   -9.4355    0.0000 C   0  0  0  0  0  0  0  0  0  0  0  0
    0.0000  -10.0914    0.0000 C   0  0  0  0  0  0  0  0  0  0  0  0
    0.0000   -6.1154    0.0000 C   0  0  0  0  0  0  0  0  0  0  0  0
  1  3  1  0  0  0  0
  1 12  1  0  0  0  0
  1  2  2  0  0  0  0
  2  4  1  0  0  0  0
  2 14  1  0  0  0  0
  3  5  1  0  0  0  0
  3 16  2  0  0  0  0
  4  7  1  0  0  0  0
  4 17  1  0  0  0  0
  5  6  1  0  0  0  0
  6  8  1  0  0  0  0
  6  7  2  0  0  0  0
  7 10  1  0  0  0  0
  8  9  2  0  0  0  0
  9 11  1  0  0  0  0
 10 11  2  0  0  0  0
 12 13  2  0  0  0  0
 13 15  1  0  0  0  0
 14 15  2  0  0  0  0
 17 18  2  0  0  0  0
 17 19  1  0  0  0  0
 19 20  1  0  0  0  0
 20 21  1  0  0  0  0
 20 22  1  0  0  0  0
 21 23  1  0  0  0  0
 22 24  1  0  0  0  0
 22 26  1  0  0  0  0
 23 25  1  0  0  0  0
 24 25  1  0  0  0  0
 26 27  1  0  0  0  0
 27 28  1  0  0  0  0
 27 29  1  0  0  0  0
 28 31  1  0  0  0  0
 29 30  1  0  0  0  0
M  END
> <ID>
11116

> <Formula>
C24H31N5O2

> <FW>
421.5352

> <DSSTox_CID>
25674

> <DSSTox_RID>
81048

> <DSSTox_GSID>
45674

> <DSSTox_FileID_Sort>
5729

> <TS_ChemName>
AF-DX 116

> <TS_ChemName_Synonyms>


> <TS_CASRN>
102394-31-0

> <CASRN_ChemName_Relationship>
primary

> <TS_Description>
single chemical compound

> <ChemNote>


> <STRUCTURE_Shown>
tested chemical

> <STRUCTURE_Formula>
C24H31N5O2

> <STRUCTURE_MW>
421.5352

> <STRUCTURE_ChemType>
defined organic

> <STRUCTURE_DefinedOrganicForm>
parent

> <STRUCTURE_IUPAC>
11-({2-[(diethylamino)methyl]piperidin-1-yl}acetyl)-5,11-dihydro-6H-pyrido[2,3-b][1,4]benzodiazepin-6-one

> <STRUCTURE_SMILES>
O=C(CN1CCCCC1CN(CC)CC)N4c2ccccc2C(=O)Nc3cccnc34

> <STRUCTURE_SMILES_Desalt>
O=C(CN1CCCCC1CN(CC)CC)N4c2ccccc2C(=O)Nc3cccnc34

> <Substance_modify_yyyymmdd>
20100107

$$$$
