10238-21-8
ChemmineR-0915142007XD

 33 35  0  0  0  0  0  0  0  0  1 V2000
   11.9761   -1.3287    0.0000 S    0  0  0  0  0  0  0  0  0  0  0  0
   13.3047   -1.3287    0.0000 N    0  0  0  0  0  0  0  0  0  0  0  0
    2.6574   -3.6449    0.0000 C    0  0  0  0  0  0  0  0  0  0  0  0
   13.9691   -2.4958    0.0000 C    0  0  0  0  0  0  0  0  0  0  0  0
    3.9860   -3.6449    0.0000 C    0  0  0  0  0  0  0  0  0  0  0  0
   10.6474   -1.3287    0.0000 C    0  0  0  0  0  0  0  0  0  0  0  0
   11.9761   -2.6753    0.0000 O    0  0  0  0  0  0  0  0  0  0  0  0
   11.9761    0.0000    0.0000 O    0  0  0  0  0  0  0  0  0  0  0  0
    1.9930   -4.7761    0.0000 C    0  0  0  0  0  0  0  0  0  0  0  0
   15.2978   -2.4958    0.0000 N    0  0  0  0  0  0  0  0  0  0  0  0
    1.9930   -2.4958    0.0000 C    0  0  0  0  0  0  0  0  0  0  0  0
   13.3047   -3.6449    0.0000 O    0  0  0  0  0  0  0  0  0  0  0  0
    4.6504   -4.7761    0.0000 O    0  0  0  0  0  0  0  0  0  0  0  0
    4.6504   -2.4958    0.0000 N    0  0  0  0  0  0  0  0  0  0  0  0
    9.9651   -2.4958    0.0000 C    0  0  0  0  0  0  0  0  0  0  0  0
    9.9651   -0.1796    0.0000 C    0  0  0  0  0  0  0  0  0  0  0  0
    0.6643   -4.7761    0.0000 C    0  0  0  0  0  0  0  0  0  0  0  0
    0.6643   -2.4958    0.0000 C    0  0  0  0  0  0  0  0  0  0  0  0
    0.0000   -3.6449    0.0000 C    0  0  0  0  0  0  0  0  0  0  0  0
    8.6364   -2.4958    0.0000 C    0  0  0  0  0  0  0  0  0  0  0  0
    8.6364   -0.1796    0.0000 C    0  0  0  0  0  0  0  0  0  0  0  0
    7.9900   -1.3287    0.0000 C    0  0  0  0  0  0  0  0  0  0  0  0
    0.0000   -1.3287    0.0000 Cl   0  0  0  0  0  0  0  0  0  0  0  0
   15.9621   -3.6449    0.0000 C    0  0  0  0  0  0  0  0  0  0  0  0
    2.6574   -5.9431    0.0000 O    0  0  0  0  0  0  0  0  0  0  0  0
    5.9791   -2.4958    0.0000 C    0  0  0  0  0  0  0  0  0  0  0  0
    6.6613   -1.3287    0.0000 C    0  0  0  0  0  0  0  0  0  0  0  0
    1.9930   -7.0923    0.0000 C    0  0  0  0  0  0  0  0  0  0  0  0
   17.2908   -3.6449    0.0000 C    0  0  0  0  0  0  0  0  0  0  0  0
   15.2978   -4.7761    0.0000 C    0  0  0  0  0  0  0  0  0  0  0  0
   15.9621   -5.9431    0.0000 C    0  0  0  0  0  0  0  0  0  0  0  0
   17.9551   -4.7761    0.0000 C    0  0  0  0  0  0  0  0  0  0  0  0
   17.2908   -5.9431    0.0000 C    0  0  0  0  0  0  0  0  0  0  0  0
  1  2  1  0  0  0  0
  1  6  1  0  0  0  0
  1  7  2  0  0  0  0
  1  8  2  0  0  0  0
  2  4  1  0  0  0  0
  3  5  1  0  0  0  0
  3  9  2  0  0  0  0
  3 11  1  0  0  0  0
  4 10  1  0  0  0  0
  4 12  2  0  0  0  0
  5 14  1  0  0  0  0
  5 13  2  0  0  0  0
  6 15  1  0  0  0  0
  6 16  2  0  0  0  0
  9 17  1  0  0  0  0
  9 25  1  0  0  0  0
 10 24  1  0  0  0  0
 11 18  2  0  0  0  0
 14 26  1  0  0  0  0
 15 20  2  0  0  0  0
 16 21  1  0  0  0  0
 17 19  2  0  0  0  0
 18 19  1  0  0  0  0
 18 23  1  0  0  0  0
 20 22  1  0  0  0  0
 21 22  2  0  0  0  0
 22 27  1  0  0  0  0
 24 29  1  0  0  0  0
 24 30  1  0  0  0  0
 25 28  1  0  0  0  0
 26 27  1  0  0  0  0
 29 32  1  0  0  0  0
 30 31  1  0  0  0  0
 31 33  1  0  0  0  0
 32 33  1  0  0  0  0
M  END
> <ID>
7282

> <Formula>
C23H28ClN3O5S

> <FW>
494.0035

> <DSSTox_CID>
17237

> <DSSTox_RID>
79313

> <DSSTox_GSID>
37237

> <DSSTox_FileID_Sort>
3995

> <TS_ChemName>
Glybenclamide

> <TS_ChemName_Synonyms>


> <TS_CASRN>
10238-21-8

> <CASRN_ChemName_Relationship>
primary

> <TS_Description>
single chemical compound

> <ChemNote>


> <STRUCTURE_Shown>
tested chemical

> <STRUCTURE_Formula>
C23H28ClN3O5S

> <STRUCTURE_MW>
494.0035

> <STRUCTURE_ChemType>
defined organic

> <STRUCTURE_DefinedOrganicForm>
parent

> <STRUCTURE_IUPAC>
5-chloro-N-(2-{4-[(cyclohexylcarbamoyl)sulfamoyl]phenyl}ethyl)-2-methoxybenzamide

> <STRUCTURE_SMILES>
O=C(NC1CCCCC1)NS(=O)(=O)c3ccc(CCNC(=O)c2cc(Cl)ccc2OC)cc3

> <STRUCTURE_SMILES_Desalt>
O=C(NC1CCCCC1)NS(=O)(=O)c3ccc(CCNC(=O)c2cc(Cl)ccc2OC)cc3

> <Substance_modify_yyyymmdd>
20080429

$$$$
