1024-57-3
ChemmineR-0915142007XD

 18 21  0  0  0  0  0  0  0  0  1 V2000
    0.9997   -2.4593    0.0000 C    0  0  0  0  0  0  0  0  0  0  0  0
    2.4127   -1.6329    0.0000 C    0  0  0  0  0  0  0  0  0  0  0  0
    2.7459   -2.9525    0.0000 C    0  0  0  0  0  0  0  0  0  0  0  0
    3.9856   -3.2058    0.0000 C    0  0  0  0  0  0  0  0  0  0  0  0
    3.9856   -1.9661    0.0000 C    0  0  0  0  0  0  0  0  0  0  0  0
    1.2863   -3.7456    0.0000 C    0  0  0  0  0  0  0  0  0  0  0  0
    5.1119   -3.5524    0.0000 C    0  0  0  0  0  0  0  0  0  0  0  0
    6.1383   -2.3793    0.0000 C    0  0  0  0  0  0  0  0  0  0  0  0
    4.9320   -1.4129    0.0000 C    0  0  0  0  0  0  0  0  0  0  0  0
    1.5063   -0.8731    0.0000 C    0  0  0  0  0  0  0  0  0  0  0  0
    0.0000   -2.4260    0.0000 Cl   0  0  0  0  0  0  0  0  0  0  0  0
    0.4132   -4.5521    0.0000 Cl   0  0  0  0  0  0  0  0  0  0  0  0
    3.3657   -4.0122    0.0000 Cl   0  0  0  0  0  0  0  0  0  0  0  0
    2.9992   -0.5199    0.0000 Cl   0  0  0  0  0  0  0  0  0  0  0  0
    1.4729    0.0000    0.0000 Cl   0  0  0  0  0  0  0  0  0  0  0  0
    0.6998   -0.8864    0.0000 Cl   0  0  0  0  0  0  0  0  0  0  0  0
    5.5385   -0.5865    0.0000 Cl   0  0  0  0  0  0  0  0  0  0  0  0
    6.6648   -3.5524    0.0000 O    0  0  0  0  0  0  0  0  0  0  0  0
  1  2  1  0  0  0  0
  1  6  2  0  0  0  0
  1 11  1  0  0  0  0
  2  5  1  0  0  0  0
  2 10  1  0  0  0  0
  2 14  1  0  0  0  0
  3  4  1  0  0  0  0
  3  6  1  0  0  0  0
  3 10  1  0  0  0  0
  3 13  1  0  0  0  0
  4  5  1  0  0  0  0
  4  7  1  0  0  0  0
  5  9  1  0  0  0  0
  6 12  1  0  0  0  0
  7  8  1  0  0  0  0
  7 18  1  0  0  0  0
  8  9  1  0  0  0  0
  8 18  1  0  0  0  0
  9 17  1  0  0  0  0
 10 15  1  0  0  0  0
 10 16  1  0  0  0  0
M  END
> <ID>
3518

> <Formula>
C10H5Cl7O

> <FW>
389.3171

> <DSSTox_CID>
4126

> <DSSTox_RID>
77300

> <DSSTox_GSID>
24126

> <DSSTox_FileID_Sort>
1983

> <TS_ChemName>
Heptachlor epoxide

> <TS_ChemName_Synonyms>
Epoxyheptachlor

> <TS_CASRN>
1024-57-3

> <CASRN_ChemName_Relationship>
primary

> <TS_Description>
single chemical compound

> <ChemNote>
stereochem

> <STRUCTURE_Shown>
tested chemical

> <STRUCTURE_Formula>
C10H5Cl7O

> <STRUCTURE_MW>
389.3171

> <STRUCTURE_ChemType>
defined organic

> <STRUCTURE_DefinedOrganicForm>
parent

> <STRUCTURE_IUPAC>
2,3,4,5,6,7,7-heptachloro-1b,2,5,5a,6,6a-hexahydro-1aH-2,5-methanoindeno[1,2-b]oxirene

> <STRUCTURE_SMILES>
ClC3=C(Cl)C4(Cl)C2C(C1OC1C2Cl)C3(Cl)C4(Cl)Cl

> <STRUCTURE_SMILES_Desalt>
ClC3=C(Cl)C4(Cl)C2C(C1OC1C2Cl)C3(Cl)C4(Cl)Cl

> <Substance_modify_yyyymmdd>
20080429

$$$$
