102409-92-7
ChemmineR-0915142007XD

 30 33  0  0  1  0  0  0  0  0  1 V2000
    3.0894   -5.4922    0.0000 C   0  0  0  0  0  0  0  0  0  0  0  0
    4.0119   -4.5697    0.0000 C   0  0  0  0  0  0  0  0  0  0  0  0
    3.0894   -6.7902    0.0000 C   0  0  0  0  0  0  0  0  0  0  0  0
    4.0119   -7.7020    0.0000 C   0  0  0  0  0  0  0  0  0  0  0  0
    5.2884   -4.5697    0.0000 C   0  0  0  0  0  0  0  0  0  0  0  0
    5.2884   -7.7020    0.0000 N   0  0  0  0  0  0  0  0  0  0  0  0
    6.2216   -5.4922    0.0000 C   0  0  0  0  0  0  0  0  0  0  0  0
    6.2216   -6.7902    0.0000 C   0  0  0  0  0  0  0  0  0  0  0  0
    7.3480   -4.8379    0.0000 C   0  0  0  0  0  0  0  0  0  0  0  0
    8.4743   -5.4922    0.0000 C   0  0  0  0  0  0  0  0  0  0  0  0
    7.3480   -7.4338    0.0000 C   0  0  0  0  0  0  0  0  0  0  0  0
    8.4743   -6.7902    0.0000 C   0  0  0  0  0  0  0  0  0  0  0  0
    1.9523   -6.1358    0.0000 N   0  0  0  0  0  0  0  0  0  0  0  0
    0.6543   -6.1358    0.0000 C   0  0  0  0  0  0  0  0  0  0  0  0
    0.0000   -5.0095    0.0000 C   0  0  0  0  0  0  0  0  0  0  0  0
    0.0000   -7.2622    0.0000 O   0  0  0  0  0  0  0  0  0  0  0  0
    9.6006   -7.4338    0.0000 C   0  0  0  0  0  0  0  0  0  0  0  0
   10.7270   -6.7902    0.0000 O   0  0  0  0  0  0  0  0  0  0  0  0
    7.3480   -3.5399    0.0000 O   0  0  0  0  0  0  0  0  0  0  0  0
    8.4743   -2.8963    0.0000 C   0  0  0  0  0  0  0  0  0  0  0  0
    5.2884   -6.0071    0.0000 O   0  0  0  0  0  0  0  0  0  0  0  0
    3.5077   -3.3683    0.0000 O   0  0  0  0  0  0  0  0  0  0  0  0
    5.7926   -3.3683    0.0000 C   0  0  0  0  0  0  0  0  0  0  0  0
    5.1382   -2.2527    0.0000 O   0  0  0  0  0  0  0  0  0  0  0  0
    5.7818   -1.1049    0.0000 C   0  0  0  0  0  0  0  0  0  0  0  0
    5.1060    0.0000    0.0000 N   0  0  0  0  0  0  0  0  0  0  0  0
    7.0798   -1.0942    0.0000 O   0  0  0  0  0  0  0  0  0  0  0  0
    2.2098   -3.1966    0.0000 C   0  0  0  0  0  0  0  0  0  0  0  0
    1.7270   -2.0059    0.0000 C   0  0  0  0  0  0  0  0  0  0  0  0
    1.4267   -4.2264    0.0000 O   0  0  0  0  0  0  0  0  0  0  0  0
  1  2  1  0  0  0  0
  1 13  1  6  0  0  0
  1  3  1  0  0  0  0
  2  5  1  0  0  0  0
  2 21  1  0  0  0  0
  2 22  1  1  0  0  0
  3  4  1  0  0  0  0
  3 13  1  6  0  0  0
  4  6  1  0  0  0  0
  5  7  1  0  0  0  0
  5 23  1  1  0  0  0
  6  8  1  0  0  0  0
  6 21  1  0  0  0  0
  7  9  1  0  0  0  0
  7  8  2  0  0  0  0
  8 11  1  0  0  0  0
  9 10  2  0  0  0  0
  9 19  1  0  0  0  0
 10 12  1  0  0  0  0
 11 12  2  0  0  0  0
 12 17  1  0  0  0  0
 13 14  1  0  0  0  0
 14 15  1  0  0  0  0
 14 16  2  0  0  0  0
 17 18  2  0  0  0  0
 19 20  1  0  0  0  0
 22 28  1  0  0  0  0
 23 24  1  0  0  0  0
 24 25  1  0  0  0  0
 25 26  1  0  0  0  0
 25 27  2  0  0  0  0
 28 29  1  0  0  0  0
 28 30  2  0  0  0  0
M  END
> <ID>
13227

> <Formula>
C19H21N3O8

> <FW>
419.3853

> <DSSTox_CID>
28140

> <DSSTox_RID>
82705

> <DSSTox_GSID>
48166

> <DSSTox_FileID_Sort>
7382

> <TS_ChemName>
FR073317

> <TS_ChemName_Synonyms>


> <TS_CASRN>
102409-92-7

> <CASRN_ChemName_Relationship>
primary

> <TS_Description>
single chemical compound

> <ChemNote>
stereochem; CAS 102409-92-7 is for all stereoisomers

> <STRUCTURE_Shown>
tested chemical

> <STRUCTURE_Formula>
C19H21N3O8

> <STRUCTURE_MW>
419.3853

> <STRUCTURE_ChemType>
defined organic

> <STRUCTURE_DefinedOrganicForm>
parent

> <STRUCTURE_IUPAC>
(1aS,8R,9S,9aS)-1-acetyl-8-[(carbamoyloxy)methyl]-5-formyl-7-methoxy-1,1a,2,9a-tetrahydro-3,9-epoxyazireno[2,3-c][1]benzazocin-9(8H)-yl acetate

> <STRUCTURE_SMILES>
NC(=O)OC[C@H]4c1c(cc(C=O)cc1OC)N3C[C@H]2[C@H](N2C(C)=O)[C@@]4(OC(C)=O)O3

> <STRUCTURE_SMILES_Desalt>
NC(=O)OC[C@H]4c1c(cc(C=O)cc1OC)N3C[C@H]2[C@H](N2C(C)=O)[C@@]4(OC(C)=O)O3

> <Substance_modify_yyyymmdd>
20130910

$$$$
