1025-15-6
ChemmineR-0915142007XD

 18 18  0  0  0  0  0  0  0  0  1 V2000
    5.9812   -4.6028    0.0000 C   0  0  0  0  0  0  0  0  0  0  0  0
    6.6503   -5.7555    0.0000 C   0  0  0  0  0  0  0  0  0  0  0  0
    7.9803   -5.7555    0.0000 C   0  0  0  0  0  0  0  0  0  0  0  0
    4.6512   -4.6028    0.0000 N   0  0  0  0  0  0  0  0  0  0  0  0
    3.9902   -5.7555    0.0000 C   0  0  0  0  0  0  0  0  0  0  0  0
    4.6512   -6.9082    0.0000 O   0  0  0  0  0  0  0  0  0  0  0  0
    2.6601   -5.7555    0.0000 N   0  0  0  0  0  0  0  0  0  0  0  0
    1.9911   -6.9082    0.0000 C   0  0  0  0  0  0  0  0  0  0  0  0
    0.6610   -6.9082    0.0000 C   0  0  0  0  0  0  0  0  0  0  0  0
    0.0000   -8.0609    0.0000 C   0  0  0  0  0  0  0  0  0  0  0  0
    1.9911   -4.6028    0.0000 C   0  0  0  0  0  0  0  0  0  0  0  0
    0.6610   -4.6028    0.0000 O   0  0  0  0  0  0  0  0  0  0  0  0
    2.6601   -3.4581    0.0000 N   0  0  0  0  0  0  0  0  0  0  0  0
    1.9911   -2.3054    0.0000 C   0  0  0  0  0  0  0  0  0  0  0  0
    2.6601   -1.1527    0.0000 C   0  0  0  0  0  0  0  0  0  0  0  0
    1.9911    0.0000    0.0000 C   0  0  0  0  0  0  0  0  0  0  0  0
    3.9902   -3.4581    0.0000 C   0  0  0  0  0  0  0  0  0  0  0  0
    4.6512   -2.3054    0.0000 O   0  0  0  0  0  0  0  0  0  0  0  0
  1  2  1  0  0  0  0
  1  4  1  0  0  0  0
  2  3  2  0  0  0  0
  4  5  1  0  0  0  0
  4 17  1  0  0  0  0
  5  6  2  0  0  0  0
  5  7  1  0  0  0  0
  7  8  1  0  0  0  0
  7 11  1  0  0  0  0
  8  9  1  0  0  0  0
  9 10  2  0  0  0  0
 11 12  2  0  0  0  0
 11 13  1  0  0  0  0
 13 14  1  0  0  0  0
 13 17  1  0  0  0  0
 14 15  1  0  0  0  0
 15 16  2  0  0  0  0
 17 18  2  0  0  0  0
M  END
> <ID>
4579

> <Formula>
C12H15N3O3

> <FW>
249.2658

> <DSSTox_CID>
6175

> <DSSTox_RID>
78047

> <DSSTox_GSID>
26175

> <DSSTox_FileID_Sort>
2730

> <TS_ChemName>
Triallyl isocyanurate

> <TS_ChemName_Synonyms>


> <TS_CASRN>
1025-15-6

> <CASRN_ChemName_Relationship>
primary

> <TS_Description>
single chemical compound

> <ChemNote>


> <STRUCTURE_Shown>
tested chemical

> <STRUCTURE_Formula>
C12H15N3O3

> <STRUCTURE_MW>
249.2658

> <STRUCTURE_ChemType>
defined organic

> <STRUCTURE_DefinedOrganicForm>
parent

> <STRUCTURE_IUPAC>
1,3,5-tri(prop-2-en-1-yl)-1,3,5-triazinane-2,4,6-trione

> <STRUCTURE_SMILES>
C=CCN1C(=O)N(CC=C)C(=O)N(CC=C)C1=O

> <STRUCTURE_SMILES_Desalt>
C=CCN1C(=O)N(CC=C)C(=O)N(CC=C)C1=O

> <Substance_modify_yyyymmdd>
20080429

$$$$
