102518-79-6
ChemmineR-0915142007XD

 18 20  0  0  1  0  0  0  0  0  1 V2000
    2.7344   -1.5741    0.0000 C   0  0  0  0  0  0  0  0  0  0  0  0
    1.1085   -2.2540    0.0000 C   0  0  0  0  0  0  0  0  0  0  0  0
    1.1085   -3.5178    0.0000 C   0  0  0  0  0  0  0  0  0  0  0  0
    2.1506   -1.6554    0.0000 N   0  0  0  0  0  0  0  0  0  0  0  0
    2.1506   -4.1164    0.0000 C   0  0  0  0  0  0  0  0  0  0  0  0
    3.2296   -2.2540    0.0000 C   0  0  0  0  0  0  0  0  0  0  0  0
    3.2296   -3.5178    0.0000 C   0  0  0  0  0  0  0  0  0  0  0  0
    0.0000   -1.6554    0.0000 O   0  0  0  0  0  0  0  0  0  0  0  0
    4.1016   -1.3968    0.0000 C   0  0  0  0  0  0  0  0  0  0  0  0
    5.3654   -1.3968    0.0000 C   0  0  0  0  0  0  0  0  0  0  0  0
    4.1016   -4.3898    0.0000 C   0  0  0  0  0  0  0  0  0  0  0  0
    4.1016   -2.3723    0.0000 C   0  0  0  0  0  0  0  0  0  0  0  0
    6.2005   -2.2540    0.0000 C   0  0  0  0  0  0  0  0  0  0  0  0
    5.3654   -4.3898    0.0000 C   0  0  0  0  0  0  0  0  0  0  0  0
    6.2005   -3.5178    0.0000 C   0  0  0  0  0  0  0  0  0  0  0  0
    3.6213   -5.5280    0.0000 N   0  0  0  0  0  0  0  0  0  0  0  0
    2.7344    0.0000    0.0000 C   0  0  0  0  0  0  0  0  0  0  0  0
    7.3903   -3.9982    0.0000 C   0  0  0  0  0  0  0  0  0  0  0  0
  1 12  2  0  0  0  0
  1 17  1  0  0  0  0
  2  3  1  0  0  0  0
  2  4  1  0  0  0  0
  2  8  2  0  0  0  0
  3  5  2  0  0  0  0
  4  6  1  0  0  0  0
  5  7  1  0  0  0  0
  6  7  2  0  0  0  0
  6  9  1  0  0  0  0
  7 11  1  0  0  0  0
  9 10  1  0  0  0  0
 10 12  1  1  0  0  0
 10 13  1  0  0  0  0
 11 12  1  1  0  0  0
 11 14  1  0  0  0  0
 11 16  1  0  0  0  0
 13 15  2  0  0  0  0
 14 15  1  0  0  0  0
 15 18  1  0  0  0  0
M  END
> <ID>
11370

> <Formula>
C15H18N2O

> <FW>
242.3162

> <DSSTox_CID>
26038

> <DSSTox_RID>
81302

> <DSSTox_GSID>
46038

> <DSSTox_FileID_Sort>
5983

> <TS_ChemName>
Huperzine A

> <TS_ChemName_Synonyms>


> <TS_CASRN>
102518-79-6

> <CASRN_ChemName_Relationship>
primary

> <TS_Description>
single chemical compound

> <ChemNote>
stereochem

> <STRUCTURE_Shown>
tested chemical

> <STRUCTURE_Formula>
C15H18N2O

> <STRUCTURE_MW>
242.3162

> <STRUCTURE_ChemType>
defined organic

> <STRUCTURE_DefinedOrganicForm>
parent

> <STRUCTURE_IUPAC>
(5R,9R,11E)-5-amino-11-ethylidene-7-methyl-5,6,9,10-tetrahydro-5,9-methanocycloocta[b]pyridin-2(1H)-one

> <STRUCTURE_SMILES>
CC2=C[C@H]\3CC=1NC(=O)C=CC=1[C@@](N)(C2)C/3=C\C

> <STRUCTURE_SMILES_Desalt>
CC2=C[C@H]\3CC=1NC(=O)C=CC=1[C@@](N)(C2)C/3=C\C

> <Substance_modify_yyyymmdd>
20110823

$$$$
