10258-54-5
ChemmineR-0915142007XD

 10  9  0  0  0  0  0  0  0  0  1 V2000
    3.4633   -1.3172    0.0000 C   0  0  0  0  0  0  0  0  0  0  0  0
    3.4633    0.0000    0.0000 O   0  0  0  0  0  0  0  0  0  0  0  0
    4.6054   -1.9895    0.0000 O   0  0  0  0  0  0  0  0  0  0  0  0
    2.3119   -1.9895    0.0000 C   0  0  0  0  0  0  0  0  0  0  0  0
    1.1514   -1.3172    0.0000 C   0  0  0  0  0  0  0  0  0  0  0  0
    0.0000   -0.6724    0.0000 N   0  0  0  0  0  0  0  0  0  0  0  0
    5.7476   -1.3172    0.0000 C   0  0  0  0  0  0  0  0  0  0  0  0
    6.8989   -1.9895    0.0000 C   0  0  0  0  0  0  0  0  0  0  0  0
    8.0595   -1.3172    0.0000 O   0  0  0  0  0  0  0  0  0  0  0  0
    9.2109   -1.9895    0.0000 C   0  0  0  0  0  0  0  0  0  0  0  0
  1  2  2  0  0  0  0
  1  3  1  0  0  0  0
  1  4  1  0  0  0  0
  3  7  1  0  0  0  0
  4  5  1  0  0  0  0
  5  6  3  0  0  0  0
  7  8  1  0  0  0  0
  8  9  1  0  0  0  0
  9 10  1  0  0  0  0
M  END
> <ID>
7515

> <Formula>
C6H9NO3

> <FW>
143.1406

> <DSSTox_CID>
18831

> <DSSTox_RID>
79406

> <DSSTox_GSID>
38831

> <DSSTox_FileID_Sort>
4088

> <TS_ChemName>
2-Methoxyethyl cyanoacetate

> <TS_ChemName_Synonyms>
Acetic acid, cyano-, 2-methoxyethyl ester

> <TS_CASRN>
10258-54-5

> <CASRN_ChemName_Relationship>
primary

> <TS_Description>
single chemical compound

> <ChemNote>


> <STRUCTURE_Shown>
tested chemical

> <STRUCTURE_Formula>
C6H9NO3

> <STRUCTURE_MW>
143.1406

> <STRUCTURE_ChemType>
defined organic

> <STRUCTURE_DefinedOrganicForm>
parent

> <STRUCTURE_IUPAC>
2-methoxyethyl cyanoacetate

> <STRUCTURE_SMILES>
O=C(CC#N)OCCOC

> <STRUCTURE_SMILES_Desalt>
O=C(CC#N)OCCOC

> <Substance_modify_yyyymmdd>
20080429

$$$$
