10262-69-8
ChemmineR-0915142007XD

 21 24  0  0  0  0  0  0  0  0  1 V2000
    3.5691   -2.0598    0.0000 C   0  0  0  0  0  0  0  0  0  0  0  0
    2.3933   -2.7602    0.0000 C   0  0  0  0  0  0  0  0  0  0  0  0
    4.7700   -2.7602    0.0000 C   0  0  0  0  0  0  0  0  0  0  0  0
    3.5691   -4.8200    0.0000 C   0  0  0  0  0  0  0  0  0  0  0  0
    4.7700   -4.1195    0.0000 C   0  0  0  0  0  0  0  0  0  0  0  0
    2.3933   -4.1195    0.0000 C   0  0  0  0  0  0  0  0  0  0  0  0
    3.0605   -3.0605    0.0000 C   0  0  0  0  0  0  0  0  0  0  0  0
    3.0605   -3.8693    0.0000 C   0  0  0  0  0  0  0  0  0  0  0  0
    3.5691   -0.7005    0.0000 C   0  0  0  0  0  0  0  0  0  0  0  0
    7.1466    0.0000    0.0000 N   0  0  0  0  0  0  0  0  0  0  0  0
    1.1925   -2.0598    0.0000 C   0  0  0  0  0  0  0  0  0  0  0  0
    5.9458   -2.0598    0.0000 C   0  0  0  0  0  0  0  0  0  0  0  0
    5.9458   -4.8200    0.0000 C   0  0  0  0  0  0  0  0  0  0  0  0
    1.1925   -4.8200    0.0000 C   0  0  0  0  0  0  0  0  0  0  0  0
    5.9458   -0.7005    0.0000 C   0  0  0  0  0  0  0  0  0  0  0  0
    8.3391   -0.7005    0.0000 C   0  0  0  0  0  0  0  0  0  0  0  0
    4.7700    0.0000    0.0000 C   0  0  0  0  0  0  0  0  0  0  0  0
    0.0000   -2.7602    0.0000 C   0  0  0  0  0  0  0  0  0  0  0  0
    0.0000   -4.1195    0.0000 C   0  0  0  0  0  0  0  0  0  0  0  0
    7.1466   -4.1195    0.0000 C   0  0  0  0  0  0  0  0  0  0  0  0
    7.1466   -2.7602    0.0000 C   0  0  0  0  0  0  0  0  0  0  0  0
  1  2  1  0  0  0  0
  1  3  1  0  0  0  0
  1  7  1  0  0  0  0
  1  9  1  0  0  0  0
  2  6  2  0  0  0  0
  2 11  1  0  0  0  0
  3  5  2  0  0  0  0
  3 12  1  0  0  0  0
  4  8  1  0  0  0  0
  4  5  1  0  0  0  0
  4  6  1  0  0  0  0
  5 13  1  0  0  0  0
  6 14  1  0  0  0  0
  7  8  1  0  0  0  0
  9 17  1  0  0  0  0
 10 15  1  0  0  0  0
 10 16  1  0  0  0  0
 11 18  2  0  0  0  0
 12 21  2  0  0  0  0
 13 20  2  0  0  0  0
 14 19  2  0  0  0  0
 15 17  1  0  0  0  0
 18 19  1  0  0  0  0
 20 21  1  0  0  0  0
M  END
> <ID>
10674

> <Formula>
C20H23N

> <FW>
277.4033

> <DSSTox_CID>
25029

> <DSSTox_RID>
80649

> <DSSTox_GSID>
45029

> <DSSTox_FileID_Sort>
5331

> <TS_ChemName>
Maprotiline

> <TS_ChemName_Synonyms>


> <TS_CASRN>
10262-69-8

> <CASRN_ChemName_Relationship>
primary

> <TS_Description>
single chemical compound

> <ChemNote>
parent of [10347-81-6]

> <STRUCTURE_Shown>
tested chemical

> <STRUCTURE_Formula>
C20H23N

> <STRUCTURE_MW>
277.4033

> <STRUCTURE_ChemType>
defined organic

> <STRUCTURE_DefinedOrganicForm>
parent

> <STRUCTURE_IUPAC>
3-(9,10-ethanoanthracen-9(10H)-yl)-N-methylpropan-1-amine

> <STRUCTURE_SMILES>
CNCCCC24CCC(c1ccccc12)c3ccccc34

> <STRUCTURE_SMILES_Desalt>
CNCCCC24CCC(c1ccccc12)c3ccccc34

> <Substance_modify_yyyymmdd>
20091116

$$$$
