1027-87-8
ChemmineR-0915142007XD

 19 20  0  0  0  0  0  0  0  0  1 V2000
   10.6376   -3.8083    0.0000 C   0  0  0  0  0  0  0  0  0  0  0  0
    9.4887   -3.1487    0.0000 C   0  0  0  0  0  0  0  0  0  0  0  0
    8.3505   -3.8083    0.0000 C   0  0  0  0  0  0  0  0  0  0  0  0
    7.1804   -3.1487    0.0000 C   0  0  0  0  0  0  0  0  0  0  0  0
    7.1804   -1.8190    0.0000 C   0  0  0  0  0  0  0  0  0  0  0  0
    8.3505   -1.1489    0.0000 C   0  0  0  0  0  0  0  0  0  0  0  0
    9.4887   -1.8190    0.0000 C   0  0  0  0  0  0  0  0  0  0  0  0
    6.0209   -1.1489    0.0000 S   0  0  0  0  0  0  0  0  0  0  0  0
    4.8827   -0.4893    0.0000 O   0  0  0  0  0  0  0  0  0  0  0  0
    6.7017    0.0000    0.0000 O   0  0  0  0  0  0  0  0  0  0  0  0
    5.3720   -2.3084    0.0000 N   0  0  0  0  0  0  0  0  0  0  0  0
    4.0423   -2.3084    0.0000 C   0  0  0  0  0  0  0  0  0  0  0  0
    3.3615   -1.1489    0.0000 O   0  0  0  0  0  0  0  0  0  0  0  0
    3.3615   -3.4572    0.0000 N   0  0  0  0  0  0  0  0  0  0  0  0
    2.0318   -3.4572    0.0000 C   0  0  0  0  0  0  0  0  0  0  0  0
    1.2659   -4.5316    0.0000 C   0  0  0  0  0  0  0  0  0  0  0  0
    0.0000   -4.1167    0.0000 C   0  0  0  0  0  0  0  0  0  0  0  0
    0.0000   -2.7870    0.0000 C   0  0  0  0  0  0  0  0  0  0  0  0
    1.2659   -2.3828    0.0000 C   0  0  0  0  0  0  0  0  0  0  0  0
  1  2  1  0  0  0  0
  2  3  2  0  0  0  0
  2  7  1  0  0  0  0
  3  4  1  0  0  0  0
  4  5  2  0  0  0  0
  5  6  1  0  0  0  0
  5  8  1  0  0  0  0
  6  7  2  0  0  0  0
  8  9  2  0  0  0  0
  8 10  2  0  0  0  0
  8 11  1  0  0  0  0
 11 12  1  0  0  0  0
 12 13  2  0  0  0  0
 12 14  1  0  0  0  0
 14 15  1  0  0  0  0
 15 16  1  0  0  0  0
 15 19  1  0  0  0  0
 16 17  1  0  0  0  0
 17 18  1  0  0  0  0
 18 19  1  0  0  0  0
M  END
> <ID>
11642

> <Formula>
C13H18N2O3S

> <FW>
282.3586

> <DSSTox_CID>
26395

> <DSSTox_RID>
81575

> <DSSTox_GSID>
46395

> <DSSTox_FileID_Sort>
6256

> <TS_ChemName>
Tolpentamide

> <TS_ChemName_Synonyms>


> <TS_CASRN>
1027-87-8

> <CASRN_ChemName_Relationship>
primary

> <TS_Description>
single chemical compound

> <ChemNote>


> <STRUCTURE_Shown>
tested chemical

> <STRUCTURE_Formula>
C13H18N2O3S

> <STRUCTURE_MW>
282.3586

> <STRUCTURE_ChemType>
defined organic

> <STRUCTURE_DefinedOrganicForm>
parent

> <STRUCTURE_IUPAC>
N-(cyclopentylcarbamoyl)-4-methylbenzenesulfonamide

> <STRUCTURE_SMILES>
O=C(NS(=O)(=O)c1ccc(C)cc1)NC2CCCC2

> <STRUCTURE_SMILES_Desalt>
O=C(NS(=O)(=O)c1ccc(C)cc1)NC2CCCC2

> <Substance_modify_yyyymmdd>
20110814

$$$$
