102778-59-6
ChemmineR-0915142007XD

 53 50  0  0  1  0  0  0  0  0  2 V2000
   15.0774   -8.5431    0.0000 Li   0  3  0  0  0  0  0  0  0  0  0  0
   14.3154   -2.2166    0.0000 Li   0  3  0  0  0  0  0  0  0  0  0  0
   17.1554   -2.4706    0.0000 Li   0  3  0  0  0  0  0  0  0  0  0  0
    6.3496   -7.2732    0.0000 O    0  0  0  0  0  0  0  0  0  0  0  0
    3.6019   -7.1346    0.0000 O    0  0  0  0  0  0  0  0  0  0  0  0
   22.3274   -3.6712    0.0000 N    0  0  0  0  0  0  0  0  0  0  0  0
   22.3274   -5.7954    0.0000 C    0  0  0  0  0  0  0  0  0  0  0  0
   21.0806   -3.3018    0.0000 C    0  0  0  0  0  0  0  0  0  0  0  0
   21.0806   -1.9857    0.0000 C    0  0  0  0  0  0  0  0  0  0  0  0
   21.9349   -6.9961    0.0000 C    0  0  0  0  0  0  0  0  0  0  0  0
   20.5957   -6.9961    0.0000 C    0  0  0  0  0  0  0  0  0  0  0  0
   22.3274   -1.5701    0.0000 N    0  0  0  0  0  0  0  0  0  0  0  0
   23.0894   -2.6091    0.0000 C    0  0  0  0  0  0  0  0  0  0  0  0
   21.2422   -5.0104    0.0000 O    0  0  0  0  0  0  0  0  0  0  0  0
   20.2263   -5.7723    0.0000 C    0  0  0  0  0  0  0  0  0  0  0  0
   19.9723   -1.3392    0.0000 C    0  0  0  0  0  0  0  0  0  0  0  0
   19.9492   -3.9021    0.0000 N    0  0  0  0  0  0  0  0  0  0  0  0
   19.8338   -8.0351    0.0000 O    0  0  0  0  0  0  0  0  0  0  0  0
   18.9564   -1.9395    0.0000 N    0  0  0  0  0  0  0  0  0  0  0  0
   19.0487   -5.3798    0.0000 C    0  0  0  0  0  0  0  0  0  0  0  0
   18.9564   -3.2325    0.0000 C    0  0  0  0  0  0  0  0  0  0  0  0
   18.4946   -4.2023    0.0000 O    0  0  0  0  0  0  0  0  0  0  0  0
   22.6969   -8.0813    0.0000 O    0  0  0  0  0  0  0  0  0  0  0  0
   19.9723    0.0000    0.0000 N    0  0  0  0  0  0  0  0  0  0  0  0
   18.6793   -8.7047    0.0000 P    0  0  0  0  0  0  0  0  0  0  0  0
   17.3401   -8.7278    0.0000 O    0  5  0  0  0  0  0  0  0  0  0  0
   18.6793  -10.0439    0.0000 O    0  0  0  0  0  0  0  0  0  0  0  0
   18.7255   -7.3886    0.0000 O    0  0  0  0  0  0  0  0  0  0  0  0
   17.3401   -4.8488    0.0000 P    0  0  0  0  0  0  0  0  0  0  0  0
   16.1626   -4.2023    0.0000 O    0  0  0  0  0  0  0  0  0  0  0  0
   17.3401   -6.2110    0.0000 O    0  0  0  0  0  0  0  0  0  0  0  0
   17.3632   -3.5327    0.0000 O    0  5  0  0  0  0  0  0  0  0  0  0
   15.0081   -4.8488    0.0000 P    0  0  0  0  0  0  0  0  0  0  0  0
   13.8536   -4.2023    0.0000 O    0  0  0  0  0  0  0  0  0  0  0  0
   15.0081   -6.2110    0.0000 O    0  0  0  0  0  0  0  0  0  0  0  0
   14.9850   -3.5327    0.0000 O    0  5  0  0  0  0  0  0  0  0  0  0
    1.1545   -4.8488    0.0000 C    0  0  0  0  0  0  0  0  0  0  0  0
    2.3320   -4.2023    0.0000 C    0  0  0  0  0  0  0  0  0  0  0  0
    3.4634   -4.8488    0.0000 N    0  0  0  0  0  0  0  0  0  0  0  0
    4.6179   -4.2023    0.0000 C    0  0  0  0  0  0  0  0  0  0  0  0
    5.7723   -4.8488    0.0000 C    0  0  0  0  0  0  0  0  0  0  0  0
    6.9268   -4.2023    0.0000 C    0  0  0  0  0  0  0  0  0  0  0  0
    8.0813   -4.8488    0.0000 N    0  0  0  0  0  0  0  0  0  0  0  0
    9.2588   -4.2023    0.0000 C    0  0  0  0  0  0  0  0  0  0  0  0
   10.4133   -4.8488    0.0000 C    0  0  0  0  0  0  0  0  0  0  0  0
   11.5447   -4.2023    0.0000 C    0  0  0  0  0  0  0  0  0  0  0  0
   12.6992   -4.8488    0.0000 C    0  0  0  0  0  0  0  0  0  0  0  0
   12.2143   -3.0247    0.0000 C    0  0  0  0  0  0  0  0  0  0  0  0
   11.2214   -2.8862    0.0000 C    0  0  0  0  0  0  0  0  0  0  0  0
   10.4133   -6.2110    0.0000 O    0  0  0  0  0  0  0  0  0  0  0  0
    9.2588   -2.8631    0.0000 O    0  0  0  0  0  0  0  0  0  0  0  0
    4.6179   -2.8631    0.0000 O    0  0  0  0  0  0  0  0  0  0  0  0
    0.0000   -4.2023    0.0000 S    0  0  0  0  0  0  0  0  0  0  0  0
  7  6  1  1  0  0  0
  6  8  1  0  0  0  0
  6 13  1  0  0  0  0
  7 10  1  0  0  0  0
  7 14  1  0  0  0  0
  8  9  2  0  0  0  0
  8 17  1  0  0  0  0
  9 16  1  0  0  0  0
  9 12  1  0  0  0  0
 10 11  1  0  0  0  0
 10 23  1  6  0  0  0
 11 18  1  6  0  0  0
 11 15  1  0  0  0  0
 12 13  2  0  0  0  0
 14 15  1  0  0  0  0
 15 20  1  1  0  0  0
 16 24  1  0  0  0  0
 16 19  2  0  0  0  0
 17 21  2  0  0  0  0
 18 25  1  0  0  0  0
 19 21  1  0  0  0  0
 20 22  1  0  0  0  0
 22 29  1  0  0  0  0
 25 26  1  0  0  0  0
 25 27  2  0  0  0  0
 25 28  1  0  0  0  0
 29 30  1  0  0  0  0
 29 31  2  0  0  0  0
 29 32  1  0  0  0  0
 30 33  1  0  0  0  0
 33 34  1  0  0  0  0
 33 35  2  0  0  0  0
 33 36  1  0  0  0  0
 34 47  1  0  0  0  0
 37 38  1  0  0  0  0
 37 53  1  0  0  0  0
 38 39  1  0  0  0  0
 39 40  1  0  0  0  0
 40 41  1  0  0  0  0
 40 52  2  0  0  0  0
 41 42  1  0  0  0  0
 42 43  1  0  0  0  0
 43 44  1  0  0  0  0
 44 45  1  0  0  0  0
 44 51  2  0  0  0  0
 45 46  1  0  0  0  0
 45 50  1  0  0  0  0
 46 47  1  0  0  0  0
 46 48  1  0  0  0  0
 46 49  1  0  0  0  0
M  END
> <ID>
11923

> <Formula>
C21H37Li3N7O18P3S

> <FW>
821.3639 (6.9405+6.9405+6.9405+18.0153+18.0153+764.5120)

> <DSSTox_CID>
26729

> <DSSTox_RID>
81859

> <DSSTox_GSID>
46729

> <DSSTox_FileID_Sort>
6540

> <TS_ChemName>
Coenzyme A trilithium dihydrate

> <TS_ChemName_Synonyms>


> <TS_CASRN>
102778-59-6

> <CASRN_ChemName_Relationship>
primary

> <TS_Description>
single chemical compound

> <ChemNote>
stereochem; parent [102778-59-6]

> <STRUCTURE_Shown>
tested chemical

> <STRUCTURE_Formula>
C21H37Li3N7O18P3S

> <STRUCTURE_MW>
821.3639

> <STRUCTURE_ChemType>
defined organic

> <STRUCTURE_DefinedOrganicForm>
salt complex

> <STRUCTURE_IUPAC>
trilithium [(2R,3S,4R,5R)-5-(6-amino-9H-purin-9-yl)-4-hydroxy-3-(phosphonooxy)tetrahydrofuran-2-yl]methyl 3-hydroxy-2,2-dimethyl-4-oxo-4-({3-oxo-3-[(2-sulfanylethyl)amino]propyl}amino)butyl dihydrogen diphosphate dihydrate

> <STRUCTURE_SMILES>
[Li+].[Li+].[Li+].O.O.SCCNC(=O)CCNC(=O)C(O)C(C)(C)COP([O-])(=O)OP([O-])(=O)OC[C@H]3O[C@@H](n2cnc1c(N)ncnc12)[C@H](O)[C@@H]3OP([O-])(=O)O

> <STRUCTURE_SMILES_Desalt>
SCCNC(=O)CCNC(=O)C(O)C(C)(C)COP(=O)(O)OP(=O)(O)OC[C@H]3O[C@@H](n2cnc1c(N)ncnc12)[C@H](O)[C@@H]3OP(=O)(O)O

> <Substance_modify_yyyymmdd>
20110804

$$$$
