102851-06-9
ChemmineR-0915142007XD

 35 37  0  0  1  0  0  0  0  0  1 V2000
    4.6098   -3.9961    0.0000 C    0  0  0  0  0  0  0  0  0  0  0  0
    4.6098   -2.6790    0.0000 C    0  0  0  0  0  0  0  0  0  0  0  0
    3.4573   -4.6547    0.0000 C    0  0  0  0  0  0  0  0  0  0  0  0
    3.4573   -1.9906    0.0000 C    0  0  0  0  0  0  0  0  0  0  0  0
    2.3049   -3.9961    0.0000 C    0  0  0  0  0  0  0  0  0  0  0  0
    2.3049   -2.6790    0.0000 C    0  0  0  0  0  0  0  0  0  0  0  0
    5.7622   -1.9906    0.0000 Cl   0  0  0  0  0  0  0  0  0  0  0  0
    1.1524   -1.9906    0.0000 C    0  0  0  0  0  0  0  0  0  0  0  0
    0.0000   -1.3320    0.0000 F    0  0  0  0  0  0  0  0  0  0  0  0
    1.8259   -0.8531    0.0000 F    0  0  0  0  0  0  0  0  0  0  0  0
    0.4939   -3.1430    0.0000 F    0  0  0  0  0  0  0  0  0  0  0  0
    6.9146   -6.6452    0.0000 C    0  0  0  0  0  0  0  0  0  0  0  0
    5.7622   -5.9867    0.0000 C    0  0  0  0  0  0  0  0  0  0  0  0
    6.9146   -7.9773    0.0000 O    0  0  0  0  0  0  0  0  0  0  0  0
    5.7622   -4.6547    0.0000 N    0  0  0  0  0  0  0  0  0  0  0  0
    4.6098   -6.6452    0.0000 C    0  0  0  0  0  0  0  0  0  0  0  0
    4.6098   -7.9773    0.0000 C    0  0  0  0  0  0  0  0  0  0  0  0
    3.4573   -5.9867    0.0000 C    0  0  0  0  0  0  0  0  0  0  0  0
    8.0521   -5.9867    0.0000 O    0  0  0  0  0  0  0  0  0  0  0  0
    9.2045   -6.6452    0.0000 C    0  0  0  0  0  0  0  0  0  0  0  0
    9.2045   -7.9773    0.0000 C    0  0  0  0  0  0  0  0  0  0  0  0
    9.2045   -9.3093    0.0000 N    0  0  0  0  0  0  0  0  0  0  0  0
   10.3570   -5.9867    0.0000 C    0  0  0  0  0  0  0  0  0  0  0  0
   10.3570   -4.6547    0.0000 C    0  0  0  0  0  0  0  0  0  0  0  0
   11.5094   -6.6452    0.0000 C    0  0  0  0  0  0  0  0  0  0  0  0
   11.5094   -3.9961    0.0000 C    0  0  0  0  0  0  0  0  0  0  0  0
   12.6619   -5.9867    0.0000 C    0  0  0  0  0  0  0  0  0  0  0  0
   12.6619   -4.6547    0.0000 C    0  0  0  0  0  0  0  0  0  0  0  0
   11.5094   -2.6790    0.0000 O    0  0  0  0  0  0  0  0  0  0  0  0
   12.6619   -1.9906    0.0000 C    0  0  0  0  0  0  0  0  0  0  0  0
   12.6619   -0.6585    0.0000 C    0  0  0  0  0  0  0  0  0  0  0  0
   13.8143   -2.6790    0.0000 C    0  0  0  0  0  0  0  0  0  0  0  0
   13.8143    0.0000    0.0000 C    0  0  0  0  0  0  0  0  0  0  0  0
   14.9667   -1.9906    0.0000 C    0  0  0  0  0  0  0  0  0  0  0  0
   14.9667   -0.6585    0.0000 C    0  0  0  0  0  0  0  0  0  0  0  0
  1  2  2  0  0  0  0
  1  3  1  0  0  0  0
  1 15  1  0  0  0  0
  2  4  1  0  0  0  0
  2  7  1  0  0  0  0
  3  5  2  0  0  0  0
  4  6  2  0  0  0  0
  5  6  1  0  0  0  0
  6  8  1  0  0  0  0
  8  9  1  0  0  0  0
  8 10  1  0  0  0  0
  8 11  1  0  0  0  0
 12 13  1  0  0  0  0
 12 14  2  0  0  0  0
 12 19  1  0  0  0  0
 13 15  1  1  0  0  0
 13 16  1  0  0  0  0
 16 17  1  0  0  0  0
 16 18  1  0  0  0  0
 19 20  1  0  0  0  0
 20 21  1  0  0  0  0
 20 23  1  0  0  0  0
 21 22  3  0  0  0  0
 23 24  2  0  0  0  0
 23 25  1  0  0  0  0
 24 26  1  0  0  0  0
 25 27  2  0  0  0  0
 26 28  2  0  0  0  0
 26 29  1  0  0  0  0
 27 28  1  0  0  0  0
 29 30  1  0  0  0  0
 30 31  2  0  0  0  0
 30 32  1  0  0  0  0
 31 33  1  0  0  0  0
 32 34  2  0  0  0  0
 33 35  2  0  0  0  0
 34 35  1  0  0  0  0
M  END
> <ID>
7338

> <Formula>
C26H22ClF3N2O3

> <FW>
502.9127

> <DSSTox_CID>
17555

> <DSSTox_RID>
79336

> <DSSTox_GSID>
37555

> <DSSTox_FileID_Sort>
4018

> <TS_ChemName>
tau-Fluvalinate

> <TS_ChemName_Synonyms>


> <TS_CASRN>
102851-06-9

> <CASRN_ChemName_Relationship>
primary

> <TS_Description>
single chemical compound

> <ChemNote>
stereochem

> <STRUCTURE_Shown>
tested chemical

> <STRUCTURE_Formula>
C26H22ClF3N2O3

> <STRUCTURE_MW>
502.9127

> <STRUCTURE_ChemType>
defined organic

> <STRUCTURE_DefinedOrganicForm>
parent

> <STRUCTURE_IUPAC>
cyano(3-phenoxyphenyl)methyl N-[2-chloro-4-(trifluoromethyl)phenyl]-D-valinate

> <STRUCTURE_SMILES>
Clc3cc(ccc3N[C@@H](C(=O)OC(C#N)c2cccc(Oc1ccccc1)c2)C(C)C)C(F)(F)F

> <STRUCTURE_SMILES_Desalt>
Clc3cc(ccc3N[C@@H](C(=O)OC(C#N)c2cccc(Oc1ccccc1)c2)C(C)C)C(F)(F)F

> <Substance_modify_yyyymmdd>
20080429

$$$$
