1028-33-7
ChemmineR-0915142007XD

 19 20  0  0  0  0  0  0  0  0  1 V2000
    0.0000   -1.9937    0.0000 C   0  0  0  0  0  0  0  0  0  0  0  0
    1.1489   -1.3291    0.0000 C   0  0  0  0  0  0  0  0  0  0  0  0
    2.3091   -1.9937    0.0000 C   0  0  0  0  0  0  0  0  0  0  0  0
    3.4580   -1.3291    0.0000 C   0  0  0  0  0  0  0  0  0  0  0  0
    4.6069   -1.9937    0.0000 C   0  0  0  0  0  0  0  0  0  0  0  0
    5.7558   -1.3291    0.0000 C   0  0  0  0  0  0  0  0  0  0  0  0
    6.9159   -1.9937    0.0000 N   0  0  0  0  0  0  0  0  0  0  0  0
    6.9159   -3.3228    0.0000 C   0  0  0  0  0  0  0  0  0  0  0  0
    5.7558   -3.9874    0.0000 O   0  0  0  0  0  0  0  0  0  0  0  0
    8.0648   -3.9874    0.0000 N   0  0  0  0  0  0  0  0  0  0  0  0
    8.0648   -5.3165    0.0000 C   0  0  0  0  0  0  0  0  0  0  0  0
    9.2137   -3.3228    0.0000 C   0  0  0  0  0  0  0  0  0  0  0  0
    9.2137   -1.9937    0.0000 C   0  0  0  0  0  0  0  0  0  0  0  0
   10.4865   -1.5769    0.0000 N   0  0  0  0  0  0  0  0  0  0  0  0
   10.8920   -0.3154    0.0000 C   0  0  0  0  0  0  0  0  0  0  0  0
   11.2637   -2.6582    0.0000 C   0  0  0  0  0  0  0  0  0  0  0  0
   10.4865   -3.7283    0.0000 N   0  0  0  0  0  0  0  0  0  0  0  0
    8.0648   -1.3291    0.0000 C   0  0  0  0  0  0  0  0  0  0  0  0
    8.0648    0.0000    0.0000 O   0  0  0  0  0  0  0  0  0  0  0  0
  1  2  1  0  0  0  0
  2  3  1  0  0  0  0
  3  4  1  0  0  0  0
  4  5  1  0  0  0  0
  5  6  1  0  0  0  0
  6  7  1  0  0  0  0
  7  8  1  0  0  0  0
  7 18  1  0  0  0  0
  8  9  2  0  0  0  0
  8 10  1  0  0  0  0
 10 11  1  0  0  0  0
 10 12  1  0  0  0  0
 12 13  2  0  0  0  0
 12 17  1  0  0  0  0
 13 14  1  0  0  0  0
 13 18  1  0  0  0  0
 14 15  1  0  0  0  0
 14 16  1  0  0  0  0
 16 17  2  0  0  0  0
 18 19  2  0  0  0  0
M  END
> <ID>
16015

> <Formula>
C13H20N4O2

> <FW>
264.3235

> <DSSTox_CID>
31398

> <DSSTox_RID>
97284

> <DSSTox_GSID>
57609

> <DSSTox_FileID_Sort>
8351

> <TS_ChemName>
Pentifylline

> <TS_ChemName_Synonyms>


> <TS_CASRN>
1028-33-7

> <CASRN_ChemName_Relationship>
primary

> <TS_Description>
single chemical compound

> <ChemNote>


> <STRUCTURE_Shown>
tested chemical

> <STRUCTURE_Formula>
C13H20N4O2

> <STRUCTURE_MW>
264.3235

> <STRUCTURE_ChemType>
defined organic

> <STRUCTURE_DefinedOrganicForm>
parent

> <STRUCTURE_IUPAC>
1-hexyl-3,7-dimethyl-3,7-dihydro-1H-purine-2,6-dione

> <STRUCTURE_SMILES>
O=C2c1n(C)cnc1N(C)C(=O)N2CCCCCC

> <STRUCTURE_SMILES_Desalt>
O=C2c1n(C)cnc1N(C)C(=O)N2CCCCCC

> <Substance_modify_yyyymmdd>
20131018

$$$$
