102992-93-8
ChemmineR-0915142007XD

 46 49  0  0  0  0  0  0  0  0  2 V2000
    4.5896   -6.0128    0.0000 C    0  0  0  0  0  0  0  0  0  0  0  0
    4.5896   -7.3469    0.0000 C    0  0  0  0  0  0  0  0  0  0  0  0
    3.4333   -5.3368    0.0000 C    0  0  0  0  0  0  0  0  0  0  0  0
    3.4333   -8.0051    0.0000 N    0  0  0  0  0  0  0  0  0  0  0  0
    2.2770   -6.0128    0.0000 C    0  0  0  0  0  0  0  0  0  0  0  0
    2.2770   -7.3469    0.0000 C    0  0  0  0  0  0  0  0  0  0  0  0
    1.1207   -8.0051    0.0000 C    0  0  0  0  0  0  0  0  0  0  0  0
    5.7459   -8.0051    0.0000 C    0  0  0  0  0  0  0  0  0  0  0  0
    1.1207   -5.3368    0.0000 C    0  0  0  0  0  0  0  0  0  0  0  0
    0.0000   -5.9950    0.0000 O    0  0  0  0  0  0  0  0  0  0  0  0
    1.1207   -4.0026    0.0000 O    0  0  0  0  0  0  0  0  0  0  0  0
    0.0000   -3.3444    0.0000 C    0  0  0  0  0  0  0  0  0  0  0  0
    3.4333   -4.0026    0.0000 C    0  0  0  0  0  0  0  0  0  0  0  0
    2.2770   -3.3444    0.0000 C    0  0  0  0  0  0  0  0  0  0  0  0
    4.5896   -3.3444    0.0000 C    0  0  0  0  0  0  0  0  0  0  0  0
    2.2770   -2.0102    0.0000 C    0  0  0  0  0  0  0  0  0  0  0  0
    4.5896   -2.0102    0.0000 C    0  0  0  0  0  0  0  0  0  0  0  0
    3.4333   -1.3520    0.0000 C    0  0  0  0  0  0  0  0  0  0  0  0
    5.7459   -5.3368    0.0000 C    0  0  0  0  0  0  0  0  0  0  0  0
    5.7459   -4.0026    0.0000 O    0  0  0  0  0  0  0  0  0  0  0  0
    6.8844   -6.0128    0.0000 O    0  0  0  0  0  0  0  0  0  0  0  0
    8.0585   -5.3368    0.0000 C    0  0  0  0  0  0  0  0  0  0  0  0
    9.1970   -6.0128    0.0000 C    0  0  0  0  0  0  0  0  0  0  0  0
   10.3533   -5.3368    0.0000 C    0  0  0  0  0  0  0  0  0  0  0  0
   11.4918   -6.0128    0.0000 N    0  0  0  0  0  0  0  0  0  0  0  0
   12.6659   -5.3368    0.0000 C    0  0  0  0  0  0  0  0  0  0  0  0
   11.4918   -7.3469    0.0000 C    0  0  0  0  0  0  0  0  0  0  0  0
   13.8044   -6.0128    0.0000 C    0  0  0  0  0  0  0  0  0  0  0  0
   12.6659   -8.0051    0.0000 C    0  0  0  0  0  0  0  0  0  0  0  0
   13.8044   -7.3469    0.0000 C    0  0  0  0  0  0  0  0  0  0  0  0
   15.1386   -7.3469    0.0000 C    0  0  0  0  0  0  0  0  0  0  0  0
   13.8044   -8.6811    0.0000 C    0  0  0  0  0  0  0  0  0  0  0  0
   15.7968   -6.2084    0.0000 C    0  0  0  0  0  0  0  0  0  0  0  0
   15.7790   -8.5032    0.0000 C    0  0  0  0  0  0  0  0  0  0  0  0
   17.1310   -6.2084    0.0000 C    0  0  0  0  0  0  0  0  0  0  0  0
   17.1132   -8.5032    0.0000 C    0  0  0  0  0  0  0  0  0  0  0  0
   17.7892   -7.3647    0.0000 C    0  0  0  0  0  0  0  0  0  0  0  0
   14.9429   -9.3393    0.0000 C    0  0  0  0  0  0  0  0  0  0  0  0
   12.6659   -9.3216    0.0000 C    0  0  0  0  0  0  0  0  0  0  0  0
   14.9429  -10.6735    0.0000 C    0  0  0  0  0  0  0  0  0  0  0  0
   12.6659  -10.6557    0.0000 C    0  0  0  0  0  0  0  0  0  0  0  0
   13.7866  -11.3317    0.0000 C    0  0  0  0  0  0  0  0  0  0  0  0
    5.7459   -1.3520    0.0000 N    0  3  0  0  0  0  0  0  0  0  0  0
    6.8844   -2.0102    0.0000 O    0  5  0  0  0  0  0  0  0  0  0  0
    5.7459    0.0000    0.0000 O    0  0  0  0  0  0  0  0  0  0  0  0
    8.1297   -3.3088    0.0000 Cl   0  0  0  0  0  0  0  0  0  0  0  0
  1  2  2  0  0  0  0
  1  3  1  0  0  0  0
  1 19  1  0  0  0  0
  2  4  1  0  0  0  0
  2  8  1  0  0  0  0
  3  5  1  0  0  0  0
  3 13  1  0  0  0  0
  4  6  1  0  0  0  0
  5  6  2  0  0  0  0
  5  9  1  0  0  0  0
  6  7  1  0  0  0  0
  9 10  2  0  0  0  0
  9 11  1  0  0  0  0
 11 12  1  0  0  0  0
 13 14  1  0  0  0  0
 13 15  2  0  0  0  0
 14 16  2  0  0  0  0
 15 17  1  0  0  0  0
 16 18  1  0  0  0  0
 17 18  2  0  0  0  0
 17 43  1  0  0  0  0
 19 20  2  0  0  0  0
 19 21  1  0  0  0  0
 21 22  1  0  0  0  0
 22 23  1  0  0  0  0
 23 24  1  0  0  0  0
 24 25  1  0  0  0  0
 25 26  1  0  0  0  0
 25 27  1  0  0  0  0
 26 28  1  0  0  0  0
 27 29  1  0  0  0  0
 28 30  1  0  0  0  0
 29 30  1  0  0  0  0
 30 31  1  0  0  0  0
 30 32  1  0  0  0  0
 31 33  1  0  0  0  0
 31 34  2  0  0  0  0
 32 38  1  0  0  0  0
 32 39  2  0  0  0  0
 33 35  2  0  0  0  0
 34 36  1  0  0  0  0
 35 37  1  0  0  0  0
 36 37  2  0  0  0  0
 38 40  2  0  0  0  0
 39 41  1  0  0  0  0
 40 42  1  0  0  0  0
 41 42  2  0  0  0  0
 43 44  1  0  0  0  0
 43 45  2  0  0  0  0
M  END
> <ID>
11601

> <Formula>
C36H40ClN3O6

> <FW>
646.1723 (609.7114+36.4609)

> <DSSTox_CID>
26318

> <DSSTox_RID>
81534

> <DSSTox_GSID>
46318

> <DSSTox_FileID_Sort>
6215

> <TS_ChemName>
Niguldipine hydrochloride

> <TS_ChemName_Synonyms>


> <TS_CASRN>
102992-93-8

> <CASRN_ChemName_Relationship>
primary

> <TS_Description>
single chemical compound

> <ChemNote>
tautomers; CAS for a compound containing xHCl; structure shown monoHCl; parent [102993-22-6]

> <STRUCTURE_Shown>
tested chemical

> <STRUCTURE_Formula>
C36H40ClN3O6

> <STRUCTURE_MW>
646.1723

> <STRUCTURE_ChemType>
defined organic

> <STRUCTURE_DefinedOrganicForm>
complex

> <STRUCTURE_IUPAC>
3-(4,4-diphenylpiperidin-1-yl)propyl methyl 2,6-dimethyl-4-(3-nitrophenyl)-1,4-dihydropyridine-3,5-dicarboxylate hydrochloride (1:1)

> <STRUCTURE_SMILES>
Cl.[O-][N+](=O)c1cccc(c1)C2C(C(=O)OC)=C(C)NC(C)=C2C(=O)OCCCN3CCC(CC3)(c4ccccc4)c5ccccc5

> <STRUCTURE_SMILES_Desalt>
[O-][N+](=O)c1cccc(c1)C2C(C(=O)OC)=C(C)NC(C)=C2C(=O)OCCCN3CCC(CC3)(c4ccccc4)c5ccccc5

> <Substance_modify_yyyymmdd>
20110815

$$$$
