103-89-9
ChemmineR-0915142007XD

 11 11  0  0  0  0  0  0  0  0  1 V2000
    1.1539   -0.6633    0.0000 O   0  0  0  0  0  0  0  0  0  0  0  0
    1.1539   -1.9968    0.0000 C   0  0  0  0  0  0  0  0  0  0  0  0
    2.3008   -2.6601    0.0000 N   0  0  0  0  0  0  0  0  0  0  0  0
    3.4547   -1.9968    0.0000 C   0  0  0  0  0  0  0  0  0  0  0  0
    3.4547   -0.6633    0.0000 C   0  0  0  0  0  0  0  0  0  0  0  0
    4.6086    0.0000    0.0000 C   0  0  0  0  0  0  0  0  0  0  0  0
    5.7555   -0.6633    0.0000 C   0  0  0  0  0  0  0  0  0  0  0  0
    5.7555   -1.9968    0.0000 C   0  0  0  0  0  0  0  0  0  0  0  0
    6.9094    0.0000    0.0000 C   0  0  0  0  0  0  0  0  0  0  0  0
    4.6086   -2.6601    0.0000 C   0  0  0  0  0  0  0  0  0  0  0  0
    0.0000   -2.6601    0.0000 C   0  0  0  0  0  0  0  0  0  0  0  0
  1  2  2  0  0  0  0
  2  3  1  0  0  0  0
  2 11  1  0  0  0  0
  3  4  1  0  0  0  0
  4  5  2  0  0  0  0
  4 10  1  0  0  0  0
  5  6  1  0  0  0  0
  6  7  2  0  0  0  0
  7  8  1  0  0  0  0
  7  9  1  0  0  0  0
  8 10  2  0  0  0  0
M  END
> <ID>
3664

> <Formula>
C9H11NO

> <FW>
149.1897

> <DSSTox_CID>
4414

> <DSSTox_RID>
77393

> <DSSTox_GSID>
24414

> <DSSTox_FileID_Sort>
2076

> <TS_ChemName>
N-Acetyl-p-toluidine

> <TS_ChemName_Synonyms>


> <TS_CASRN>
103-89-9

> <CASRN_ChemName_Relationship>
primary

> <TS_Description>
single chemical compound

> <ChemNote>


> <STRUCTURE_Shown>
tested chemical

> <STRUCTURE_Formula>
C9H11NO

> <STRUCTURE_MW>
149.1897

> <STRUCTURE_ChemType>
defined organic

> <STRUCTURE_DefinedOrganicForm>
parent

> <STRUCTURE_IUPAC>
N-(4-methylphenyl)acetamide

> <STRUCTURE_SMILES>
O=C(C)Nc1ccc(C)cc1

> <STRUCTURE_SMILES_Desalt>
O=C(C)Nc1ccc(C)cc1

> <Substance_modify_yyyymmdd>
20080429

$$$$
