103-74-2
ChemmineR-0915142007XD

  9  9  0  0  0  0  0  0  0  0  1 V2000
    4.6193   -2.0011    0.0000 C   0  0  0  0  0  0  0  0  0  0  0  0
    3.4659   -2.6701    0.0000 C   0  0  0  0  0  0  0  0  0  0  0  0
    5.7670   -2.6701    0.0000 O   0  0  0  0  0  0  0  0  0  0  0  0
    2.3183   -0.6747    0.0000 N   0  0  0  0  0  0  0  0  0  0  0  0
    2.3183   -2.0011    0.0000 C   0  0  0  0  0  0  0  0  0  0  0  0
    1.1476    0.0000    0.0000 C   0  0  0  0  0  0  0  0  0  0  0  0
    0.0000   -0.6747    0.0000 C   0  0  0  0  0  0  0  0  0  0  0  0
    1.1649   -2.6528    0.0000 C   0  0  0  0  0  0  0  0  0  0  0  0
    0.0173   -2.0011    0.0000 C   0  0  0  0  0  0  0  0  0  0  0  0
  1  2  1  0  0  0  0
  1  3  1  0  0  0  0
  2  5  1  0  0  0  0
  4  5  2  0  0  0  0
  4  6  1  0  0  0  0
  5  8  1  0  0  0  0
  6  7  2  0  0  0  0
  7  9  1  0  0  0  0
  8  9  2  0  0  0  0
M  END
> <ID>
10418

> <Formula>
C7H9NO

> <FW>
123.1525

> <DSSTox_CID>
24767

> <DSSTox_RID>
80458

> <DSSTox_GSID>
44767

> <DSSTox_FileID_Sort>
5140

> <TS_ChemName>
2-(Pyridin-2-yl)ethanol

> <TS_ChemName_Synonyms>
2-(2-pyridyl)ethanol

> <TS_CASRN>
103-74-2

> <CASRN_ChemName_Relationship>
primary

> <TS_Description>
single chemical compound

> <ChemNote>


> <STRUCTURE_Shown>
tested chemical

> <STRUCTURE_Formula>
C7H9NO

> <STRUCTURE_MW>
123.1525

> <STRUCTURE_ChemType>
defined organic

> <STRUCTURE_DefinedOrganicForm>
parent

> <STRUCTURE_IUPAC>
2-(pyridin-2-yl)ethanol

> <STRUCTURE_SMILES>
OCCc1ccccn1

> <STRUCTURE_SMILES_Desalt>
OCCc1ccccn1

> <Substance_modify_yyyymmdd>
20091116

$$$$
