103-84-4
ChemmineR-0915142007XD

 10 10  0  0  0  0  0  0  0  0  1 V2000
    1.1520   -2.6612    0.0000 C   0  0  0  0  0  0  0  0  0  0  0  0
    0.0000   -1.9988    0.0000 C   0  0  0  0  0  0  0  0  0  0  0  0
    0.0000   -0.6682    0.0000 C   0  0  0  0  0  0  0  0  0  0  0  0
    1.1520    0.0000    0.0000 C   0  0  0  0  0  0  0  0  0  0  0  0
    2.3041   -0.6682    0.0000 C   0  0  0  0  0  0  0  0  0  0  0  0
    2.3041   -1.9988    0.0000 C   0  0  0  0  0  0  0  0  0  0  0  0
    3.4561   -2.6612    0.0000 N   0  0  0  0  0  0  0  0  0  0  0  0
    4.6082   -1.9988    0.0000 C   0  0  0  0  0  0  0  0  0  0  0  0
    5.7602   -2.6612    0.0000 C   0  0  0  0  0  0  0  0  0  0  0  0
    4.6082   -0.6682    0.0000 O   0  0  0  0  0  0  0  0  0  0  0  0
  1  2  2  0  0  0  0
  1  6  1  0  0  0  0
  2  3  1  0  0  0  0
  3  4  2  0  0  0  0
  4  5  1  0  0  0  0
  5  6  2  0  0  0  0
  6  7  1  0  0  0  0
  7  8  1  0  0  0  0
  8  9  1  0  0  0  0
  8 10  2  0  0  0  0
M  END
> <ID>
2307

> <Formula>
C8H9NO

> <FW>
135.1632

> <DSSTox_CID>
2543

> <DSSTox_RID>
76620

> <DSSTox_GSID>
22543

> <DSSTox_FileID_Sort>
1304

> <TS_ChemName>
Acetanilide

> <TS_ChemName_Synonyms>


> <TS_CASRN>
103-84-4

> <CASRN_ChemName_Relationship>
primary

> <TS_Description>
single chemical compound

> <ChemNote>


> <STRUCTURE_Shown>
tested chemical

> <STRUCTURE_Formula>
C8H9NO

> <STRUCTURE_MW>
135.1632

> <STRUCTURE_ChemType>
defined organic

> <STRUCTURE_DefinedOrganicForm>
parent

> <STRUCTURE_IUPAC>
N-phenylacetamide

> <STRUCTURE_SMILES>
O=C(C)Nc1ccccc1

> <STRUCTURE_SMILES_Desalt>
O=C(C)Nc1ccccc1

> <Substance_modify_yyyymmdd>
20080429

$$$$
