103-38-8
ChemmineR-0915142007XD

 14 14  0  0  0  0  0  0  0  0  1 V2000
    5.7557   -1.3282    0.0000 C   0  0  0  0  0  0  0  0  0  0  0  0
    5.7557    0.0000    0.0000 O   0  0  0  0  0  0  0  0  0  0  0  0
    4.6027   -1.9923    0.0000 O   0  0  0  0  0  0  0  0  0  0  0  0
    6.9179   -1.9923    0.0000 C   0  0  0  0  0  0  0  0  0  0  0  0
    8.0709   -1.3282    0.0000 C   0  0  0  0  0  0  0  0  0  0  0  0
    9.2238   -1.9923    0.0000 C   0  0  0  0  0  0  0  0  0  0  0  0
    8.0709    0.0000    0.0000 C   0  0  0  0  0  0  0  0  0  0  0  0
    3.4497   -1.3282    0.0000 C   0  0  0  0  0  0  0  0  0  0  0  0
    2.2967   -1.9923    0.0000 C   0  0  0  0  0  0  0  0  0  0  0  0
    1.1345   -1.3282    0.0000 C   0  0  0  0  0  0  0  0  0  0  0  0
    2.2967   -3.3206    0.0000 C   0  0  0  0  0  0  0  0  0  0  0  0
    0.0000   -1.9923    0.0000 C   0  0  0  0  0  0  0  0  0  0  0  0
    1.1345   -3.9939    0.0000 C   0  0  0  0  0  0  0  0  0  0  0  0
    0.0000   -3.3206    0.0000 C   0  0  0  0  0  0  0  0  0  0  0  0
  1  2  2  0  0  0  0
  1  3  1  0  0  0  0
  1  4  1  0  0  0  0
  3  8  1  0  0  0  0
  4  5  1  0  0  0  0
  5  6  1  0  0  0  0
  5  7  1  0  0  0  0
  8  9  1  0  0  0  0
  9 10  2  0  0  0  0
  9 11  1  0  0  0  0
 10 12  1  0  0  0  0
 11 13  2  0  0  0  0
 12 14  2  0  0  0  0
 13 14  1  0  0  0  0
M  END
> <ID>
12725

> <Formula>
C12H16O2

> <FW>
192.2542

> <DSSTox_CID>
27603

> <DSSTox_RID>
82446

> <DSSTox_GSID>
47603

> <DSSTox_FileID_Sort>
7127

> <TS_ChemName>
Benzyl 3-methylbutanoate

> <TS_ChemName_Synonyms>


> <TS_CASRN>
103-38-8

> <CASRN_ChemName_Relationship>
primary

> <TS_Description>
single chemical compound

> <ChemNote>


> <STRUCTURE_Shown>
tested chemical

> <STRUCTURE_Formula>
C12H16O2

> <STRUCTURE_MW>
192.2542

> <STRUCTURE_ChemType>
defined organic

> <STRUCTURE_DefinedOrganicForm>
parent

> <STRUCTURE_IUPAC>
benzyl 3-methylbutanoate

> <STRUCTURE_SMILES>
CC(C)CC(=O)OCc1ccccc1

> <STRUCTURE_SMILES_Desalt>
CC(C)CC(=O)OCc1ccccc1

> <Substance_modify_yyyymmdd>
20101021

$$$$
