103-31-1
ChemmineR-0915142007XD

 14 15  0  0  0  0  0  0  0  0  1 V2000
    6.6746    0.0000    0.0000 C   0  0  0  0  0  0  0  0  0  0  0  0
    8.0095    0.0000    0.0000 C   0  0  0  0  0  0  0  0  0  0  0  0
    5.9985   -1.1442    0.0000 C   0  0  0  0  0  0  0  0  0  0  0  0
    8.6683   -1.1442    0.0000 N   0  0  0  0  0  0  0  0  0  0  0  0
    6.6746   -2.2971    0.0000 C   0  0  0  0  0  0  0  0  0  0  0  0
    8.0095   -2.2971    0.0000 C   0  0  0  0  0  0  0  0  0  0  0  0
    4.6636   -1.1616    0.0000 C   0  0  0  0  0  0  0  0  0  0  0  0
    4.0048   -2.2971    0.0000 C   0  0  0  0  0  0  0  0  0  0  0  0
    2.6698   -2.2971    0.0000 C   0  0  0  0  0  0  0  0  0  0  0  0
    1.9937   -3.4587    0.0000 C   0  0  0  0  0  0  0  0  0  0  0  0
    1.9937   -1.1616    0.0000 C   0  0  0  0  0  0  0  0  0  0  0  0
    0.6588   -3.4587    0.0000 C   0  0  0  0  0  0  0  0  0  0  0  0
    0.6588   -1.1616    0.0000 C   0  0  0  0  0  0  0  0  0  0  0  0
    0.0000   -2.2971    0.0000 C   0  0  0  0  0  0  0  0  0  0  0  0
  1  2  1  0  0  0  0
  1  3  2  0  0  0  0
  2  4  2  0  0  0  0
  3  5  1  0  0  0  0
  3  7  1  0  0  0  0
  4  6  1  0  0  0  0
  5  6  2  0  0  0  0
  7  8  2  3  0  0  0
  8  9  1  0  0  0  0
  9 10  1  0  0  0  0
  9 11  2  0  0  0  0
 10 12  2  0  0  0  0
 11 13  1  0  0  0  0
 12 14  1  0  0  0  0
 13 14  2  0  0  0  0
M  END
> <ID>
11549

> <Formula>
C13H11N

> <FW>
181.2331

> <DSSTox_CID>
26255

> <DSSTox_RID>
81482

> <DSSTox_GSID>
46255

> <DSSTox_FileID_Sort>
6163

> <TS_ChemName>
4-Styrylpyridine

> <TS_ChemName_Synonyms>


> <TS_CASRN>
103-31-1

> <CASRN_ChemName_Relationship>
primary

> <TS_Description>
single chemical compound

> <ChemNote>


> <STRUCTURE_Shown>
tested chemical

> <STRUCTURE_Formula>
C13H11N

> <STRUCTURE_MW>
181.2331

> <STRUCTURE_ChemType>
defined organic

> <STRUCTURE_DefinedOrganicForm>
parent

> <STRUCTURE_IUPAC>
4-(2-phenylethenyl)pyridine

> <STRUCTURE_SMILES>
C(=Cc1ccncc1)c2ccccc2

> <STRUCTURE_SMILES_Desalt>
C(=Cc1ccncc1)c2ccccc2

> <Substance_modify_yyyymmdd>
20110816

$$$$
