103-36-6
ChemmineR-0915142007XD

 13 13  0  0  0  0  0  0  0  0  1 V2000
    5.7540   -1.3115    0.0000 C   0  0  0  0  0  0  0  0  0  0  0  0
    4.5995   -1.9950    0.0000 C   0  0  0  0  0  0  0  0  0  0  0  0
    3.4358   -1.3115    0.0000 C   0  0  0  0  0  0  0  0  0  0  0  0
    5.7540    0.0000    0.0000 O   0  0  0  0  0  0  0  0  0  0  0  0
    6.9177   -1.9950    0.0000 O   0  0  0  0  0  0  0  0  0  0  0  0
    2.2813   -1.9950    0.0000 C   0  0  0  0  0  0  0  0  0  0  0  0
    1.1360   -1.3115    0.0000 C   0  0  0  0  0  0  0  0  0  0  0  0
    2.2813   -3.3065    0.0000 C   0  0  0  0  0  0  0  0  0  0  0  0
    0.0000   -1.9950    0.0000 C   0  0  0  0  0  0  0  0  0  0  0  0
    1.1360   -3.9715    0.0000 C   0  0  0  0  0  0  0  0  0  0  0  0
    0.0000   -3.3065    0.0000 C   0  0  0  0  0  0  0  0  0  0  0  0
    8.0722   -1.3115    0.0000 C   0  0  0  0  0  0  0  0  0  0  0  0
    9.2360   -1.9580    0.0000 C   0  0  0  0  0  0  0  0  0  0  0  0
  1  2  1  0  0  0  0
  1  4  2  0  0  0  0
  1  5  1  0  0  0  0
  2  3  2  3  0  0  0
  3  6  1  0  0  0  0
  5 12  1  0  0  0  0
  6  7  2  0  0  0  0
  6  8  1  0  0  0  0
  7  9  1  0  0  0  0
  8 10  2  0  0  0  0
  9 11  2  0  0  0  0
 10 11  1  0  0  0  0
 12 13  1  0  0  0  0
M  END
> <ID>
2287

> <Formula>
C11H12O2

> <FW>
176.2118

> <DSSTox_CID>
2520

> <DSSTox_RID>
76607

> <DSSTox_GSID>
22520

> <DSSTox_FileID_Sort>
1291

> <TS_ChemName>
Ethyl cinnamate

> <TS_ChemName_Synonyms>


> <TS_CASRN>
103-36-6

> <CASRN_ChemName_Relationship>
primary

> <TS_Description>
mixture of Z,E isomers

> <ChemNote>
mixture of Z,E isomers

> <STRUCTURE_Shown>
representative isomer in mixture

> <STRUCTURE_Formula>
C11H12O2

> <STRUCTURE_MW>
176.2118

> <STRUCTURE_ChemType>
defined organic

> <STRUCTURE_DefinedOrganicForm>
parent

> <STRUCTURE_IUPAC>
ethyl 3-phenylprop-2-enoate

> <STRUCTURE_SMILES>
O=C(C=Cc1ccccc1)OCC

> <STRUCTURE_SMILES_Desalt>
O=C(C=Cc1ccccc1)OCC

> <Substance_modify_yyyymmdd>
20110514

$$$$
