103-72-0
ChemmineR-0915142007XD

  9  9  0  0  0  0  0  0  0  0  1 V2000
    0.0000   -1.3304    0.0000 S   0  0  0  0  0  0  0  0  0  0  0  0
    1.1518   -1.9984    0.0000 C   0  0  0  0  0  0  0  0  0  0  0  0
    2.3037   -2.6607    0.0000 N   0  0  0  0  0  0  0  0  0  0  0  0
    3.4555   -1.9984    0.0000 C   0  0  0  0  0  0  0  0  0  0  0  0
    3.4555   -0.6681    0.0000 C   0  0  0  0  0  0  0  0  0  0  0  0
    4.6073    0.0000    0.0000 C   0  0  0  0  0  0  0  0  0  0  0  0
    5.7591   -0.6681    0.0000 C   0  0  0  0  0  0  0  0  0  0  0  0
    5.7591   -1.9984    0.0000 C   0  0  0  0  0  0  0  0  0  0  0  0
    4.6073   -2.6607    0.0000 C   0  0  0  0  0  0  0  0  0  0  0  0
  1  2  2  0  0  0  0
  2  3  2  0  0  0  0
  3  4  1  0  0  0  0
  4  5  2  0  0  0  0
  4  9  1  0  0  0  0
  5  6  1  0  0  0  0
  6  7  2  0  0  0  0
  7  8  1  0  0  0  0
  8  9  2  0  0  0  0
M  END
> <ID>
1085

> <Formula>
C7H5NS

> <FW>
135.1863

> <DSSTox_CID>
1129

> <DSSTox_RID>
75960

> <DSSTox_GSID>
21129

> <DSSTox_FileID_Sort>
644

> <TS_ChemName>
Phenyl isothiocyanate

> <TS_ChemName_Synonyms>


> <TS_CASRN>
103-72-0

> <CASRN_ChemName_Relationship>
primary

> <TS_Description>
single chemical compound

> <ChemNote>


> <STRUCTURE_Shown>
tested chemical

> <STRUCTURE_Formula>
C7H5NS

> <STRUCTURE_MW>
135.1863

> <STRUCTURE_ChemType>
defined organic

> <STRUCTURE_DefinedOrganicForm>
parent

> <STRUCTURE_IUPAC>
isothiocyanatobenzene

> <STRUCTURE_SMILES>
S=C=N/c1ccccc1

> <STRUCTURE_SMILES_Desalt>
S=C=N/c1ccccc1

> <Substance_modify_yyyymmdd>
20080429

$$$$
