103-49-1
ChemmineR-0915142007XD

 15 16  0  0  0  0  0  0  0  0  1 V2000
    4.6064   -0.6752    0.0000 N   0  0  0  0  0  0  0  0  0  0  0  0
    6.9558   -0.6752    0.0000 C   0  0  0  0  0  0  0  0  0  0  0  0
    2.2939   -0.6567    0.0000 C   0  0  0  0  0  0  0  0  0  0  0  0
    5.7811    0.0000    0.0000 C   0  0  0  0  0  0  0  0  0  0  0  0
    3.4502    0.0000    0.0000 C   0  0  0  0  0  0  0  0  0  0  0  0
    6.9558   -2.0072    0.0000 C   0  0  0  0  0  0  0  0  0  0  0  0
    2.2939   -1.9887    0.0000 C   0  0  0  0  0  0  0  0  0  0  0  0
    8.1121   -0.0185    0.0000 C   0  0  0  0  0  0  0  0  0  0  0  0
    1.1377    0.0000    0.0000 C   0  0  0  0  0  0  0  0  0  0  0  0
    9.2498   -0.6752    0.0000 C   0  0  0  0  0  0  0  0  0  0  0  0
    8.1121   -2.6639    0.0000 C   0  0  0  0  0  0  0  0  0  0  0  0
    0.0000   -0.6567    0.0000 C   0  0  0  0  0  0  0  0  0  0  0  0
    1.1377   -2.6454    0.0000 C   0  0  0  0  0  0  0  0  0  0  0  0
    0.0000   -1.9887    0.0000 C   0  0  0  0  0  0  0  0  0  0  0  0
    9.2498   -2.0072    0.0000 C   0  0  0  0  0  0  0  0  0  0  0  0
  1  4  1  0  0  0  0
  1  5  1  0  0  0  0
  2  4  1  0  0  0  0
  2  6  1  0  0  0  0
  2  8  2  0  0  0  0
  3  5  1  0  0  0  0
  3  7  2  0  0  0  0
  3  9  1  0  0  0  0
  6 11  2  0  0  0  0
  7 13  1  0  0  0  0
  8 10  1  0  0  0  0
  9 12  2  0  0  0  0
 10 15  2  0  0  0  0
 11 15  1  0  0  0  0
 12 14  1  0  0  0  0
 13 14  2  0  0  0  0
M  END
> <ID>
10013

> <Formula>
C14H15N

> <FW>
197.2756

> <DSSTox_CID>
24355

> <DSSTox_RID>
80164

> <DSSTox_GSID>
44355

> <DSSTox_FileID_Sort>
4846

> <TS_ChemName>
Dibenzylamine

> <TS_ChemName_Synonyms>
Benzenemethanamine, N-(phenylmethyl)-

> <TS_CASRN>
103-49-1

> <CASRN_ChemName_Relationship>
primary

> <TS_Description>
single chemical compound

> <ChemNote>


> <STRUCTURE_Shown>
tested chemical

> <STRUCTURE_Formula>
C14H15N

> <STRUCTURE_MW>
197.2756

> <STRUCTURE_ChemType>
defined organic

> <STRUCTURE_DefinedOrganicForm>
parent

> <STRUCTURE_IUPAC>
N-benzyl-1-phenylmethanamine

> <STRUCTURE_SMILES>
C(NCc1ccccc1)c2ccccc2

> <STRUCTURE_SMILES_Desalt>
C(NCc1ccccc1)c2ccccc2

> <Substance_modify_yyyymmdd>
20091116

$$$$
