103-24-2
ChemmineR-0915142007XD

 29 28  0  0  0  0  0  0  0  0  1 V2000
    5.8098   -7.2362    0.0000 C   0  0  0  0  0  0  0  0  0  0  0  0
    6.9579   -7.9146    0.0000 C   0  0  0  0  0  0  0  0  0  0  0  0
    8.1059   -7.2536    0.0000 C   0  0  0  0  0  0  0  0  0  0  0  0
    9.2714   -7.9320    0.0000 C   0  0  0  0  0  0  0  0  0  0  0  0
   10.4194   -7.2884    0.0000 C   0  0  0  0  0  0  0  0  0  0  0  0
   11.5675   -7.9668    0.0000 C   0  0  0  0  0  0  0  0  0  0  0  0
   12.7329   -7.3058    0.0000 C   0  0  0  0  0  0  0  0  0  0  0  0
   13.8635   -7.9842    0.0000 C   0  0  0  0  0  0  0  0  0  0  0  0
   15.0290   -7.3405    0.0000 C   0  0  0  0  0  0  0  0  0  0  0  0
    5.8272   -5.9142    0.0000 O   0  0  0  0  0  0  0  0  0  0  0  0
    4.6444   -7.8798    0.0000 O   0  0  0  0  0  0  0  0  0  0  0  0
   16.1770   -8.0189    0.0000 O   0  0  0  0  0  0  0  0  0  0  0  0
   15.0464   -6.0012    0.0000 O   0  0  0  0  0  0  0  0  0  0  0  0
    3.5137   -7.2188    0.0000 C   0  0  0  0  0  0  0  0  0  0  0  0
    2.3483   -7.8624    0.0000 C   0  0  0  0  0  0  0  0  0  0  0  0
    2.3483   -9.2018    0.0000 C   0  0  0  0  0  0  0  0  0  0  0  0
    1.1654   -9.8628    0.0000 C   0  0  0  0  0  0  0  0  0  0  0  0
    1.1480  -11.1848    0.0000 C   0  0  0  0  0  0  0  0  0  0  0  0
    0.0000  -11.8284    0.0000 C   0  0  0  0  0  0  0  0  0  0  0  0
    1.2002   -7.2014    0.0000 C   0  0  0  0  0  0  0  0  0  0  0  0
    0.0522   -7.8450    0.0000 C   0  0  0  0  0  0  0  0  0  0  0  0
   16.2118   -5.3576    0.0000 C   0  0  0  0  0  0  0  0  0  0  0  0
   16.2118   -4.0182    0.0000 C   0  0  0  0  0  0  0  0  0  0  0  0
   15.0638   -3.3398    0.0000 C   0  0  0  0  0  0  0  0  0  0  0  0
   15.0812   -2.0178    0.0000 C   0  0  0  0  0  0  0  0  0  0  0  0
   13.9331   -1.3220    0.0000 C   0  0  0  0  0  0  0  0  0  0  0  0
   13.9505    0.0000    0.0000 C   0  0  0  0  0  0  0  0  0  0  0  0
   17.3773   -3.3572    0.0000 C   0  0  0  0  0  0  0  0  0  0  0  0
   17.3947   -2.0352    0.0000 C   0  0  0  0  0  0  0  0  0  0  0  0
  1  2  1  0  0  0  0
  1 11  1  0  0  0  0
  1 10  2  0  0  0  0
  2  3  1  0  0  0  0
  3  4  1  0  0  0  0
  4  5  1  0  0  0  0
  5  6  1  0  0  0  0
  6  7  1  0  0  0  0
  7  8  1  0  0  0  0
  8  9  1  0  0  0  0
  9 13  1  0  0  0  0
  9 12  2  0  0  0  0
 11 14  1  0  0  0  0
 13 22  1  0  0  0  0
 14 15  1  0  0  0  0
 15 16  1  0  0  0  0
 15 20  1  0  0  0  0
 16 17  1  0  0  0  0
 17 18  1  0  0  0  0
 18 19  1  0  0  0  0
 20 21  1  0  0  0  0
 22 23  1  0  0  0  0
 23 24  1  0  0  0  0
 23 28  1  0  0  0  0
 24 25  1  0  0  0  0
 25 26  1  0  0  0  0
 26 27  1  0  0  0  0
 28 29  1  0  0  0  0
M  END
> <ID>
4766

> <Formula>
C25H48O4

> <FW>
412.6462

> <DSSTox_CID>
6697

> <DSSTox_RID>
78186

> <DSSTox_GSID>
26697

> <DSSTox_FileID_Sort>
2869

> <TS_ChemName>
Bis(2-ethylhexyl) nonanedioate

> <TS_ChemName_Synonyms>
Bis(2-ethylhexyl) nonanedioate (Nonanedioic acid, bis(2-ethylhexyl) ester)

> <TS_CASRN>
103-24-2

> <CASRN_ChemName_Relationship>
primary

> <TS_Description>
single chemical compound

> <ChemNote>


> <STRUCTURE_Shown>
tested chemical

> <STRUCTURE_Formula>
C25H48O4

> <STRUCTURE_MW>
412.6462

> <STRUCTURE_ChemType>
defined organic

> <STRUCTURE_DefinedOrganicForm>
parent

> <STRUCTURE_IUPAC>
bis(2-ethylhexyl) nonanedioate

> <STRUCTURE_SMILES>
O=C(CCCCCCCC(=O)OCC(CC)CCCC)OCC(CCCC)CC

> <STRUCTURE_SMILES_Desalt>
O=C(CCCCCCCC(=O)OCC(CC)CCCC)OCC(CCCC)CC

> <Substance_modify_yyyymmdd>
20080429

$$$$
