103-95-7
ChemmineR-0915142007XD

 14 14  0  0  0  0  0  0  0  0  1 V2000
    6.6788   -2.2899    0.0000 C   0  0  0  0  0  0  0  0  0  0  0  0
    5.9936   -3.4522    0.0000 C   0  0  0  0  0  0  0  0  0  0  0  0
    5.9936   -1.1623    0.0000 C   0  0  0  0  0  0  0  0  0  0  0  0
    0.0000    0.0000    0.0000 O   0  0  0  0  0  0  0  0  0  0  0  0
    4.0160   -2.2899    0.0000 C   0  0  0  0  0  0  0  0  0  0  0  0
    0.6592   -1.1623    0.0000 C   0  0  0  0  0  0  0  0  0  0  0  0
    8.0146   -2.2899    0.0000 C   0  0  0  0  0  0  0  0  0  0  0  0
    2.6802   -2.2899    0.0000 C   0  0  0  0  0  0  0  0  0  0  0  0
    4.6578   -1.1623    0.0000 C   0  0  0  0  0  0  0  0  0  0  0  0
    4.6578   -3.4522    0.0000 C   0  0  0  0  0  0  0  0  0  0  0  0
    1.9950   -1.1623    0.0000 C   0  0  0  0  0  0  0  0  0  0  0  0
    8.6738   -1.1623    0.0000 C   0  0  0  0  0  0  0  0  0  0  0  0
    8.6738   -3.4522    0.0000 C   0  0  0  0  0  0  0  0  0  0  0  0
    2.6802    0.0000    0.0000 C   0  0  0  0  0  0  0  0  0  0  0  0
  1  2  2  0  0  0  0
  1  3  1  0  0  0  0
  1  7  1  0  0  0  0
  2 10  1  0  0  0  0
  3  9  2  0  0  0  0
  4  6  2  0  0  0  0
  5  9  1  0  0  0  0
  5  8  1  0  0  0  0
  5 10  2  0  0  0  0
  6 11  1  0  0  0  0
  7 12  1  0  0  0  0
  7 13  1  0  0  0  0
  8 11  1  0  0  0  0
 11 14  1  0  0  0  0
M  END
> <ID>
10420

> <Formula>
C13H18O

> <FW>
190.2814

> <DSSTox_CID>
24769

> <DSSTox_RID>
80460

> <DSSTox_GSID>
44769

> <DSSTox_FileID_Sort>
5142

> <TS_ChemName>
2-Methyl-3-[4-(propan-2-yl)phenyl]propanal

> <TS_ChemName_Synonyms>
2-Methyl-3-[4-(propan-2-yl)phenyl]propanal (Benzenepropanal, .alpha.-methyl-4-(1-methylethyl)-)

> <TS_CASRN>
103-95-7

> <CASRN_ChemName_Relationship>
primary

> <TS_Description>
single chemical compound

> <ChemNote>


> <STRUCTURE_Shown>
tested chemical

> <STRUCTURE_Formula>
C13H18O

> <STRUCTURE_MW>
190.2814

> <STRUCTURE_ChemType>
defined organic

> <STRUCTURE_DefinedOrganicForm>
parent

> <STRUCTURE_IUPAC>
2-methyl-3-[4-(propan-2-yl)phenyl]propanal

> <STRUCTURE_SMILES>
CC(C)c1ccc(CC(C)C=O)cc1

> <STRUCTURE_SMILES_Desalt>
CC(C)c1ccc(CC(C)C=O)cc1

> <Substance_modify_yyyymmdd>
20091116

$$$$
