103-59-3
ChemmineR-0915142007XD

 15 15  0  0  0  0  0  0  0  0  1 V2000
    5.7695   -1.3490    0.0000 C   0  0  0  0  0  0  0  0  0  0  0  0
    4.6073   -2.0027    0.0000 C   0  0  0  0  0  0  0  0  0  0  0  0
    3.4762   -1.3490    0.0000 C   0  0  0  0  0  0  0  0  0  0  0  0
    6.9317   -2.0027    0.0000 O   0  0  0  0  0  0  0  0  0  0  0  0
    1.1518   -4.0054    0.0000 C   0  0  0  0  0  0  0  0  0  0  0  0
    0.0000   -3.3309    0.0000 C   0  0  0  0  0  0  0  0  0  0  0  0
    0.0000   -2.0027    0.0000 C   0  0  0  0  0  0  0  0  0  0  0  0
    1.1518   -1.3490    0.0000 C   0  0  0  0  0  0  0  0  0  0  0  0
    2.3244   -2.0027    0.0000 C   0  0  0  0  0  0  0  0  0  0  0  0
    2.3244   -3.3309    0.0000 C   0  0  0  0  0  0  0  0  0  0  0  0
    8.0731   -1.3490    0.0000 C   0  0  0  0  0  0  0  0  0  0  0  0
    8.0731    0.0000    0.0000 O   0  0  0  0  0  0  0  0  0  0  0  0
    9.2250   -2.0027    0.0000 C   0  0  0  0  0  0  0  0  0  0  0  0
   10.3768   -1.3490    0.0000 C   0  0  0  0  0  0  0  0  0  0  0  0
    9.2250   -3.3309    0.0000 C   0  0  0  0  0  0  0  0  0  0  0  0
  1  2  1  0  0  0  0
  1  4  1  0  0  0  0
  2  3  2  3  0  0  0
  3  9  1  0  0  0  0
  4 11  1  0  0  0  0
  5 10  2  0  0  0  0
  5  6  1  0  0  0  0
  6  7  2  0  0  0  0
  7  8  1  0  0  0  0
  8  9  2  0  0  0  0
  9 10  1  0  0  0  0
 11 12  2  0  0  0  0
 11 13  1  0  0  0  0
 13 14  1  0  0  0  0
 13 15  1  0  0  0  0
M  END
> <ID>
12730

> <Formula>
C13H16O2

> <FW>
204.2649

> <DSSTox_CID>
27608

> <DSSTox_RID>
82450

> <DSSTox_GSID>
47608

> <DSSTox_FileID_Sort>
7131

> <TS_ChemName>
3-Phenylprop-2-en-1-yl 2-methylpropanoate

> <TS_ChemName_Synonyms>
3-Phenylprop-2-en-1-yl 2-methylpropanoate (Cinnamyl isobutyrate)

> <TS_CASRN>
103-59-3

> <CASRN_ChemName_Relationship>
primary

> <TS_Description>
mixture of Z,E isomers

> <ChemNote>
mixture of Z,E isomers

> <STRUCTURE_Shown>
representative isomer in mixture

> <STRUCTURE_Formula>
C13H16O2

> <STRUCTURE_MW>
204.2649

> <STRUCTURE_ChemType>
defined organic

> <STRUCTURE_DefinedOrganicForm>
parent

> <STRUCTURE_IUPAC>
3-phenylprop-2-en-1-yl 2-methylpropanoate

> <STRUCTURE_SMILES>
CC(C)C(=O)OCC=Cc1ccccc1

> <STRUCTURE_SMILES_Desalt>
CC(C)C(=O)OCC=Cc1ccccc1

> <Substance_modify_yyyymmdd>
20101021

$$$$
