103-60-6
ChemmineR-0915142007XD

 15 15  0  0  0  0  0  0  0  0  1 V2000
    3.4591   -2.6720    0.0000 O   0  0  0  0  0  0  0  0  0  0  0  0
    2.2992   -2.0092    0.0000 C   0  0  0  0  0  0  0  0  0  0  0  0
    1.1392   -2.6720    0.0000 C   0  0  0  0  0  0  0  0  0  0  0  0
    2.2992   -0.6732    0.0000 C   0  0  0  0  0  0  0  0  0  0  0  0
    0.0000   -2.0092    0.0000 C   0  0  0  0  0  0  0  0  0  0  0  0
    1.1392    0.0000    0.0000 C   0  0  0  0  0  0  0  0  0  0  0  0
    0.0000   -0.6732    0.0000 C   0  0  0  0  0  0  0  0  0  0  0  0
    8.0574   -2.6927    0.0000 C   0  0  0  0  0  0  0  0  0  0  0  0
    8.0678   -4.0080    0.0000 O   0  0  0  0  0  0  0  0  0  0  0  0
    6.8975   -2.0195    0.0000 O   0  0  0  0  0  0  0  0  0  0  0  0
    9.2174   -2.0195    0.0000 C   0  0  0  0  0  0  0  0  0  0  0  0
    9.2174   -0.6835    0.0000 C   0  0  0  0  0  0  0  0  0  0  0  0
   10.3566   -2.6927    0.0000 C   0  0  0  0  0  0  0  0  0  0  0  0
    5.7479   -2.6720    0.0000 C   0  0  0  0  0  0  0  0  0  0  0  0
    4.6087   -2.0092    0.0000 C   0  0  0  0  0  0  0  0  0  0  0  0
  1  2  1  0  0  0  0
  1 15  1  0  0  0  0
  2  3  2  0  0  0  0
  2  4  1  0  0  0  0
  3  5  1  0  0  0  0
  4  6  2  0  0  0  0
  5  7  2  0  0  0  0
  6  7  1  0  0  0  0
  8  9  2  0  0  0  0
  8 10  1  0  0  0  0
  8 11  1  0  0  0  0
 10 14  1  0  0  0  0
 11 12  1  0  0  0  0
 11 13  1  0  0  0  0
 14 15  1  0  0  0  0
M  END
> <ID>
9207

> <Formula>
C12H16O3

> <FW>
208.2536

> <DSSTox_CID>
22279

> <DSSTox_RID>
79986

> <DSSTox_GSID>
42279

> <DSSTox_FileID_Sort>
4668

> <TS_ChemName>
Phenoxyethyl isobutyrate

> <TS_ChemName_Synonyms>


> <TS_CASRN>
103-60-6

> <CASRN_ChemName_Relationship>
primary

> <TS_Description>
single chemical compound

> <ChemNote>


> <STRUCTURE_Shown>
tested chemical

> <STRUCTURE_Formula>
C12H16O3

> <STRUCTURE_MW>
208.2536

> <STRUCTURE_ChemType>
defined organic

> <STRUCTURE_DefinedOrganicForm>
parent

> <STRUCTURE_IUPAC>
2-phenoxyethyl 2-methylpropanoate

> <STRUCTURE_SMILES>
CC(C)C(=O)OCCOc1ccccc1

> <STRUCTURE_SMILES_Desalt>
CC(C)C(=O)OCCOc1ccccc1

> <Substance_modify_yyyymmdd>
20080825

$$$$
