103-34-4
ChemmineR-0915142007XD

 14 15  0  0  0  0  0  0  0  0  1 V2000
    5.9836   -1.1620    0.0000 N   0  0  0  0  0  0  0  0  0  0  0  0
    8.6718   -1.1620    0.0000 O   0  0  0  0  0  0  0  0  0  0  0  0
    6.6686    0.0000    0.0000 C   0  0  0  0  0  0  0  0  0  0  0  0
    6.6686   -2.2980    0.0000 C   0  0  0  0  0  0  0  0  0  0  0  0
    8.0128   -2.2980    0.0000 C   0  0  0  0  0  0  0  0  0  0  0  0
    8.0128    0.0000    0.0000 C   0  0  0  0  0  0  0  0  0  0  0  0
    2.6362   -2.2980    0.0000 N   0  0  0  0  0  0  0  0  0  0  0  0
    0.0000   -2.2980    0.0000 O   0  0  0  0  0  0  0  0  0  0  0  0
    1.9859   -3.4601    0.0000 C   0  0  0  0  0  0  0  0  0  0  0  0
    1.9859   -1.1620    0.0000 C   0  0  0  0  0  0  0  0  0  0  0  0
    0.6504   -1.1620    0.0000 C   0  0  0  0  0  0  0  0  0  0  0  0
    0.6504   -3.4601    0.0000 C   0  0  0  0  0  0  0  0  0  0  0  0
    3.9804   -2.2980    0.0000 S   0  0  0  0  0  0  0  0  0  0  0  0
    4.6741   -1.1620    0.0000 S   0  0  0  0  0  0  0  0  0  0  0  0
  1  3  1  0  0  0  0
  1  4  1  0  0  0  0
  1 14  1  0  0  0  0
  2  5  1  0  0  0  0
  2  6  1  0  0  0  0
  3  6  1  0  0  0  0
  4  5  1  0  0  0  0
  7  9  1  0  0  0  0
  7 10  1  0  0  0  0
  7 13  1  0  0  0  0
  8 11  1  0  0  0  0
  8 12  1  0  0  0  0
  9 12  1  0  0  0  0
 10 11  1  0  0  0  0
 13 14  1  0  0  0  0
M  END
> <ID>
4767

> <Formula>
C8H16N2O2S2

> <FW>
236.3548

> <DSSTox_CID>
6698

> <DSSTox_RID>
78187

> <DSSTox_GSID>
26698

> <DSSTox_FileID_Sort>
2870

> <TS_ChemName>
4,4'-Dithiodimorpholine

> <TS_ChemName_Synonyms>
Morpholine, 4,4'-dithiobis-

> <TS_CASRN>
103-34-4

> <CASRN_ChemName_Relationship>
primary

> <TS_Description>
single chemical compound

> <ChemNote>


> <STRUCTURE_Shown>
tested chemical

> <STRUCTURE_Formula>
C8H16N2O2S2

> <STRUCTURE_MW>
236.3548

> <STRUCTURE_ChemType>
defined organic

> <STRUCTURE_DefinedOrganicForm>
parent

> <STRUCTURE_IUPAC>
4,4'-disulfanediyldimorpholine

> <STRUCTURE_SMILES>
S(SN1CCOCC1)N2CCOCC2

> <STRUCTURE_SMILES_Desalt>
S(SN1CCOCC1)N2CCOCC2

> <Substance_modify_yyyymmdd>
20080429

$$$$
