103-29-7
ChemmineR-0915142007XD

 14 15  0  0  0  0  0  0  0  0  1 V2000
    3.9848   -1.1496    0.0000 C   0  0  0  0  0  0  0  0  0  0  0  0
    4.6591   -2.3079    0.0000 C   0  0  0  0  0  0  0  0  0  0  0  0
    2.6537   -1.1496    0.0000 C   0  0  0  0  0  0  0  0  0  0  0  0
    5.9902   -2.3079    0.0000 C   0  0  0  0  0  0  0  0  0  0  0  0
    1.9967   -2.3079    0.0000 C   0  0  0  0  0  0  0  0  0  0  0  0
    6.6472   -1.1496    0.0000 C   0  0  0  0  0  0  0  0  0  0  0  0
    1.9967    0.0000    0.0000 C   0  0  0  0  0  0  0  0  0  0  0  0
    6.6472   -3.4576    0.0000 C   0  0  0  0  0  0  0  0  0  0  0  0
    0.6742    0.0000    0.0000 C   0  0  0  0  0  0  0  0  0  0  0  0
    0.6742   -2.3079    0.0000 C   0  0  0  0  0  0  0  0  0  0  0  0
    7.9697   -3.4576    0.0000 C   0  0  0  0  0  0  0  0  0  0  0  0
    7.9697   -1.1496    0.0000 C   0  0  0  0  0  0  0  0  0  0  0  0
    8.6439   -2.3079    0.0000 C   0  0  0  0  0  0  0  0  0  0  0  0
    0.0000   -1.1496    0.0000 C   0  0  0  0  0  0  0  0  0  0  0  0
  1  2  1  0  0  0  0
  1  3  1  0  0  0  0
  2  4  1  0  0  0  0
  3  5  1  0  0  0  0
  3  7  2  0  0  0  0
  4  6  2  0  0  0  0
  4  8  1  0  0  0  0
  5 10  2  0  0  0  0
  6 12  1  0  0  0  0
  7  9  1  0  0  0  0
  8 11  2  0  0  0  0
  9 14  2  0  0  0  0
 10 14  1  0  0  0  0
 11 13  1  0  0  0  0
 12 13  2  0  0  0  0
M  END
> <ID>
8624

> <Formula>
C14H14

> <FW>
182.261

> <DSSTox_CID>
21668

> <DSSTox_RID>
79810

> <DSSTox_GSID>
41668

> <DSSTox_FileID_Sort>
4492

> <TS_ChemName>
Bibenzyl

> <TS_ChemName_Synonyms>


> <TS_CASRN>
103-29-7

> <CASRN_ChemName_Relationship>
primary

> <TS_Description>
single chemical compound

> <ChemNote>


> <STRUCTURE_Shown>
tested chemical

> <STRUCTURE_Formula>
C14H14

> <STRUCTURE_MW>
182.261

> <STRUCTURE_ChemType>
defined organic

> <STRUCTURE_DefinedOrganicForm>
parent

> <STRUCTURE_IUPAC>
1,1'-ethane-1,2-diyldibenzene

> <STRUCTURE_SMILES>
C(Cc1ccccc1)c2ccccc2

> <STRUCTURE_SMILES_Desalt>
C(Cc1ccccc1)c2ccccc2

> <Substance_modify_yyyymmdd>
20080825

$$$$
