103-53-7
ChemmineR-0915142007XD

 19 20  0  0  0  0  0  0  0  0  1 V2000
    5.7550   -1.9818    0.0000 C   0  0  0  0  0  0  0  0  0  0  0  0
    4.6243   -2.6552    0.0000 C   0  0  0  0  0  0  0  0  0  0  0  0
    3.4428   -1.9818    0.0000 C   0  0  0  0  0  0  0  0  0  0  0  0
    5.7550   -0.6733    0.0000 O   0  0  0  0  0  0  0  0  0  0  0  0
    6.8983   -2.6552    0.0000 O   0  0  0  0  0  0  0  0  0  0  0  0
    2.2867   -2.6552    0.0000 C   0  0  0  0  0  0  0  0  0  0  0  0
    1.1561   -1.9818    0.0000 C   0  0  0  0  0  0  0  0  0  0  0  0
    2.2867   -3.9637    0.0000 C   0  0  0  0  0  0  0  0  0  0  0  0
    0.0000   -2.6552    0.0000 C   0  0  0  0  0  0  0  0  0  0  0  0
    1.1561   -4.6370    0.0000 C   0  0  0  0  0  0  0  0  0  0  0  0
    0.0000   -3.9637    0.0000 C   0  0  0  0  0  0  0  0  0  0  0  0
   10.3665   -1.9818    0.0000 C   0  0  0  0  0  0  0  0  0  0  0  0
   11.5480   -2.6552    0.0000 C   0  0  0  0  0  0  0  0  0  0  0  0
   12.7041   -1.9818    0.0000 C   0  0  0  0  0  0  0  0  0  0  0  0
   12.7041   -0.6733    0.0000 C   0  0  0  0  0  0  0  0  0  0  0  0
   11.5480    0.0000    0.0000 C   0  0  0  0  0  0  0  0  0  0  0  0
   10.3665   -0.6733    0.0000 C   0  0  0  0  0  0  0  0  0  0  0  0
    9.2359   -2.6552    0.0000 C   0  0  0  0  0  0  0  0  0  0  0  0
    8.0798   -1.9818    0.0000 C   0  0  0  0  0  0  0  0  0  0  0  0
  1  2  1  0  0  0  0
  1  4  2  0  0  0  0
  1  5  1  0  0  0  0
  2  3  2  3  0  0  0
  3  6  1  0  0  0  0
  5 19  1  0  0  0  0
  6  7  2  0  0  0  0
  6  8  1  0  0  0  0
  7  9  1  0  0  0  0
  8 10  2  0  0  0  0
  9 11  2  0  0  0  0
 10 11  1  0  0  0  0
 12 17  2  0  0  0  0
 12 13  1  0  0  0  0
 12 18  1  0  0  0  0
 13 14  2  0  0  0  0
 14 15  1  0  0  0  0
 15 16  2  0  0  0  0
 16 17  1  0  0  0  0
 18 19  1  0  0  0  0
M  END
> <ID>
12727

> <Formula>
C17H16O2

> <FW>
252.3077

> <DSSTox_CID>
27605

> <DSSTox_RID>
82448

> <DSSTox_GSID>
47605

> <DSSTox_FileID_Sort>
7129

> <TS_ChemName>
2-Phenylethyl 3-phenylprop-2-enoate

> <TS_ChemName_Synonyms>
2-Phenylethyl 3-phenylprop-2-enoate (Phenethyl cinnamate)

> <TS_CASRN>
103-53-7

> <CASRN_ChemName_Relationship>
primary

> <TS_Description>
mixture of Z,E isomers

> <ChemNote>
mixture of Z,E isomers

> <STRUCTURE_Shown>
representative isomer in mixture

> <STRUCTURE_Formula>
C17H16O2

> <STRUCTURE_MW>
252.3077

> <STRUCTURE_ChemType>
defined organic

> <STRUCTURE_DefinedOrganicForm>
parent

> <STRUCTURE_IUPAC>
2-phenylethyl 3-phenylprop-2-enoate

> <STRUCTURE_SMILES>
O=C(OCCc1ccccc1)C=Cc2ccccc2

> <STRUCTURE_SMILES_Desalt>
O=C(OCCc1ccccc1)C=Cc2ccccc2

> <Substance_modify_yyyymmdd>
20101021

$$$$
