103-52-6
ChemmineR-0915142007XD

 14 14  0  0  0  0  0  0  0  0  1 V2000
    6.9114   -1.9985    0.0000 C   0  0  0  0  0  0  0  0  0  0  0  0
    6.9114   -0.6453    0.0000 O   0  0  0  0  0  0  0  0  0  0  0  0
    5.7977   -2.6542    0.0000 O   0  0  0  0  0  0  0  0  0  0  0  0
    8.0564   -2.6542    0.0000 C   0  0  0  0  0  0  0  0  0  0  0  0
    9.2638   -2.0297    0.0000 C   0  0  0  0  0  0  0  0  0  0  0  0
   10.4088   -2.6542    0.0000 C   0  0  0  0  0  0  0  0  0  0  0  0
    2.3212   -1.9985    0.0000 C   0  0  0  0  0  0  0  0  0  0  0  0
    1.1762   -2.6542    0.0000 C   0  0  0  0  0  0  0  0  0  0  0  0
    0.0000   -1.9985    0.0000 C   0  0  0  0  0  0  0  0  0  0  0  0
    0.0000   -0.6766    0.0000 C   0  0  0  0  0  0  0  0  0  0  0  0
    1.1762    0.0000    0.0000 C   0  0  0  0  0  0  0  0  0  0  0  0
    2.3212   -0.6766    0.0000 C   0  0  0  0  0  0  0  0  0  0  0  0
    3.4661   -2.6542    0.0000 C   0  0  0  0  0  0  0  0  0  0  0  0
    4.6111   -1.9985    0.0000 C   0  0  0  0  0  0  0  0  0  0  0  0
  1  2  2  0  0  0  0
  1  3  1  0  0  0  0
  1  4  1  0  0  0  0
  3 14  1  0  0  0  0
  4  5  1  0  0  0  0
  5  6  1  0  0  0  0
  7 12  2  0  0  0  0
  7  8  1  0  0  0  0
  7 13  1  0  0  0  0
  8  9  2  0  0  0  0
  9 10  1  0  0  0  0
 10 11  2  0  0  0  0
 11 12  1  0  0  0  0
 13 14  1  0  0  0  0
M  END
> <ID>
12726

> <Formula>
C12H16O2

> <FW>
192.2542

> <DSSTox_CID>
27604

> <DSSTox_RID>
82447

> <DSSTox_GSID>
47604

> <DSSTox_FileID_Sort>
7128

> <TS_ChemName>
2-Phenylethyl butanoate

> <TS_ChemName_Synonyms>


> <TS_CASRN>
103-52-6

> <CASRN_ChemName_Relationship>
primary

> <TS_Description>
single chemical compound

> <ChemNote>


> <STRUCTURE_Shown>
tested chemical

> <STRUCTURE_Formula>
C12H16O2

> <STRUCTURE_MW>
192.2542

> <STRUCTURE_ChemType>
defined organic

> <STRUCTURE_DefinedOrganicForm>
parent

> <STRUCTURE_IUPAC>
2-phenylethyl butanoate

> <STRUCTURE_SMILES>
CCCC(=O)OCCc1ccccc1

> <STRUCTURE_SMILES_Desalt>
CCCC(=O)OCCc1ccccc1

> <Substance_modify_yyyymmdd>
20101021

$$$$
