103-48-0
ChemmineR-0915142007XD

 14 14  0  0  0  0  0  0  0  0  1 V2000
    6.9154   -1.9943    0.0000 C   0  0  0  0  0  0  0  0  0  0  0  0
    6.9154   -0.6555    0.0000 O   0  0  0  0  0  0  0  0  0  0  0  0
    5.7705   -2.6498    0.0000 O   0  0  0  0  0  0  0  0  0  0  0  0
    8.0788   -2.6683    0.0000 C   0  0  0  0  0  0  0  0  0  0  0  0
    8.0788   -3.9886    0.0000 C   0  0  0  0  0  0  0  0  0  0  0  0
    9.2329   -1.9943    0.0000 C   0  0  0  0  0  0  0  0  0  0  0  0
    4.6164   -1.9943    0.0000 C   0  0  0  0  0  0  0  0  0  0  0  0
    3.4716   -2.6498    0.0000 C   0  0  0  0  0  0  0  0  0  0  0  0
    1.1541    0.0000    0.0000 C   0  0  0  0  0  0  0  0  0  0  0  0
    0.0000   -0.6555    0.0000 C   0  0  0  0  0  0  0  0  0  0  0  0
    0.0000   -1.9943    0.0000 C   0  0  0  0  0  0  0  0  0  0  0  0
    1.1541   -2.6498    0.0000 C   0  0  0  0  0  0  0  0  0  0  0  0
    2.3175   -1.9943    0.0000 C   0  0  0  0  0  0  0  0  0  0  0  0
    2.2990   -0.6555    0.0000 C   0  0  0  0  0  0  0  0  0  0  0  0
  1  2  2  0  0  0  0
  1  3  1  0  0  0  0
  1  4  1  0  0  0  0
  3  7  1  0  0  0  0
  4  5  1  0  0  0  0
  4  6  1  0  0  0  0
  7  8  1  0  0  0  0
  8 13  1  0  0  0  0
  9 14  2  0  0  0  0
  9 10  1  0  0  0  0
 10 11  2  0  0  0  0
 11 12  1  0  0  0  0
 12 13  2  0  0  0  0
 13 14  1  0  0  0  0
M  END
> <ID>
10415

> <Formula>
C12H16O2

> <FW>
192.2542

> <DSSTox_CID>
24764

> <DSSTox_RID>
80456

> <DSSTox_GSID>
44764

> <DSSTox_FileID_Sort>
5138

> <TS_ChemName>
2-Phenylethyl 2-methylpropanoate

> <TS_ChemName_Synonyms>
2-Phenylethyl 2-methylpropanoate (Propanoic acid, 2-methyl-, 2-phenylethyl ester) (Phenethyl isobutyrate)

> <TS_CASRN>
103-48-0

> <CASRN_ChemName_Relationship>
primary

> <TS_Description>
single chemical compound

> <ChemNote>


> <STRUCTURE_Shown>
tested chemical

> <STRUCTURE_Formula>
C12H16O2

> <STRUCTURE_MW>
192.2542

> <STRUCTURE_ChemType>
defined organic

> <STRUCTURE_DefinedOrganicForm>
parent

> <STRUCTURE_IUPAC>
2-phenylethyl 2-methylpropanoate

> <STRUCTURE_SMILES>
CC(C)C(=O)OCCc1ccccc1

> <STRUCTURE_SMILES_Desalt>
CC(C)C(=O)OCCc1ccccc1

> <Substance_modify_yyyymmdd>
20091116

$$$$
