103-11-7
ChemmineR-0915142007XD

 13 12  0  0  0  0  0  0  0  0  1 V2000
    3.9927   -1.1493    0.0000 O   0  0  0  0  0  0  0  0  0  0  0  0
    2.6578   -1.1493    0.0000 C   0  0  0  0  0  0  0  0  0  0  0  0
    1.9934   -2.3047    0.0000 O   0  0  0  0  0  0  0  0  0  0  0  0
    2.6578   -3.4540    0.0000 C   0  0  0  0  0  0  0  0  0  0  0  0
    1.9934   -4.6093    0.0000 C   0  0  0  0  0  0  0  0  0  0  0  0
    2.6578   -5.7586    0.0000 C   0  0  0  0  0  0  0  0  0  0  0  0
    3.9927   -5.7586    0.0000 C   0  0  0  0  0  0  0  0  0  0  0  0
    4.6572   -4.6093    0.0000 C   0  0  0  0  0  0  0  0  0  0  0  0
    5.9861   -4.6093    0.0000 C   0  0  0  0  0  0  0  0  0  0  0  0
    0.6645   -4.6093    0.0000 C   0  0  0  0  0  0  0  0  0  0  0  0
    0.0000   -5.7586    0.0000 C   0  0  0  0  0  0  0  0  0  0  0  0
    1.9934    0.0000    0.0000 C   0  0  0  0  0  0  0  0  0  0  0  0
    0.6645    0.0000    0.0000 C   0  0  0  0  0  0  0  0  0  0  0  0
  1  2  2  0  0  0  0
  2  3  1  0  0  0  0
  2 12  1  0  0  0  0
  3  4  1  0  0  0  0
  4  5  1  0  0  0  0
  5  6  1  0  0  0  0
  5 10  1  0  0  0  0
  6  7  1  0  0  0  0
  7  8  1  0  0  0  0
  8  9  1  0  0  0  0
 10 11  1  0  0  0  0
 12 13  2  0  0  0  0
M  END
> <ID>
4125

> <Formula>
C11H20O2

> <FW>
184.2753

> <DSSTox_CID>
5297

> <DSSTox_RID>
77732

> <DSSTox_GSID>
25297

> <DSSTox_FileID_Sort>
2415

> <TS_ChemName>
2-Ethylhexyl acrylate

> <TS_ChemName_Synonyms>


> <TS_CASRN>
103-11-7

> <CASRN_ChemName_Relationship>
primary

> <TS_Description>
single chemical compound

> <ChemNote>


> <STRUCTURE_Shown>
tested chemical

> <STRUCTURE_Formula>
C11H20O2

> <STRUCTURE_MW>
184.2753

> <STRUCTURE_ChemType>
defined organic

> <STRUCTURE_DefinedOrganicForm>
parent

> <STRUCTURE_IUPAC>
2-ethylhexyl prop-2-enoate

> <STRUCTURE_SMILES>
O=C(C=C)OCC(CCCC)CC

> <STRUCTURE_SMILES_Desalt>
O=C(C=C)OCC(CCCC)CC

> <Substance_modify_yyyymmdd>
20080429

$$$$
