103-41-3
ChemmineR-0915142007XD

 18 19  0  0  0  0  0  0  0  0  1 V2000
    5.7388   -1.3341    0.0000 C   0  0  0  0  0  0  0  0  0  0  0  0
    4.5772   -2.0126    0.0000 C   0  0  0  0  0  0  0  0  0  0  0  0
    3.4502   -1.3341    0.0000 C   0  0  0  0  0  0  0  0  0  0  0  0
    5.7388    0.0000    0.0000 O   0  0  0  0  0  0  0  0  0  0  0  0
    6.8889   -2.0126    0.0000 O   0  0  0  0  0  0  0  0  0  0  0  0
    2.3116   -2.0126    0.0000 C   0  0  0  0  0  0  0  0  0  0  0  0
    8.0389   -1.3341    0.0000 C   0  0  0  0  0  0  0  0  0  0  0  0
    9.1890   -2.0126    0.0000 C   0  0  0  0  0  0  0  0  0  0  0  0
    1.1501   -1.3341    0.0000 C   0  0  0  0  0  0  0  0  0  0  0  0
    2.3116   -3.3122    0.0000 C   0  0  0  0  0  0  0  0  0  0  0  0
   10.3505   -1.3341    0.0000 C   0  0  0  0  0  0  0  0  0  0  0  0
    9.1890   -3.3122    0.0000 C   0  0  0  0  0  0  0  0  0  0  0  0
    1.1501   -4.0022    0.0000 C   0  0  0  0  0  0  0  0  0  0  0  0
   11.5006   -2.0126    0.0000 C   0  0  0  0  0  0  0  0  0  0  0  0
    0.0000   -2.0126    0.0000 C   0  0  0  0  0  0  0  0  0  0  0  0
   10.3390   -4.0022    0.0000 C   0  0  0  0  0  0  0  0  0  0  0  0
   11.5006   -3.3122    0.0000 C   0  0  0  0  0  0  0  0  0  0  0  0
    0.0000   -3.3122    0.0000 C   0  0  0  0  0  0  0  0  0  0  0  0
  1  2  1  0  0  0  0
  1  4  2  0  0  0  0
  1  5  1  0  0  0  0
  2  3  2  3  0  0  0
  3  6  1  0  0  0  0
  5  7  1  0  0  0  0
  6  9  1  0  0  0  0
  6 10  2  0  0  0  0
  7  8  1  0  0  0  0
  8 11  2  0  0  0  0
  8 12  1  0  0  0  0
  9 15  2  0  0  0  0
 10 13  1  0  0  0  0
 11 14  1  0  0  0  0
 12 16  2  0  0  0  0
 13 18  2  0  0  0  0
 14 17  2  0  0  0  0
 15 18  1  0  0  0  0
 16 17  1  0  0  0  0
M  END
> <ID>
8619

> <Formula>
C16H14O2

> <FW>
238.2812

> <DSSTox_CID>
21663

> <DSSTox_RID>
79808

> <DSSTox_GSID>
41663

> <DSSTox_FileID_Sort>
4490

> <TS_ChemName>
Benzyl cinnamate

> <TS_ChemName_Synonyms>


> <TS_CASRN>
103-41-3

> <CASRN_ChemName_Relationship>
primary

> <TS_Description>
mixture of Z,E isomers

> <ChemNote>
mixture of Z,E isomers

> <STRUCTURE_Shown>
representative isomer in mixture

> <STRUCTURE_Formula>
C16H14O2

> <STRUCTURE_MW>
238.2812

> <STRUCTURE_ChemType>
defined organic

> <STRUCTURE_DefinedOrganicForm>
parent

> <STRUCTURE_IUPAC>
benzyl 3-phenylprop-2-enoate

> <STRUCTURE_SMILES>
O=C(OCc1ccccc1)C=Cc2ccccc2

> <STRUCTURE_SMILES_Desalt>
O=C(OCc1ccccc1)C=Cc2ccccc2

> <Substance_modify_yyyymmdd>
20110514

$$$$
