103-37-7
ChemmineR-0915142007XD

 13 13  0  0  0  0  0  0  0  0  1 V2000
    3.4404   -1.3247    0.0000 C   0  0  0  0  0  0  0  0  0  0  0  0
    3.4404    0.0000    0.0000 O   0  0  0  0  0  0  0  0  0  0  0  0
    4.5903   -1.9962    0.0000 O   0  0  0  0  0  0  0  0  0  0  0  0
    2.2905   -1.9962    0.0000 C   0  0  0  0  0  0  0  0  0  0  0  0
    1.1315   -1.3247    0.0000 C   0  0  0  0  0  0  0  0  0  0  0  0
    0.0000   -1.9962    0.0000 C   0  0  0  0  0  0  0  0  0  0  0  0
    5.7402   -1.3247    0.0000 C   0  0  0  0  0  0  0  0  0  0  0  0
    6.8992   -1.9962    0.0000 C   0  0  0  0  0  0  0  0  0  0  0  0
    8.0491   -1.3247    0.0000 C   0  0  0  0  0  0  0  0  0  0  0  0
    6.8992   -3.3300    0.0000 C   0  0  0  0  0  0  0  0  0  0  0  0
    9.1990   -1.9962    0.0000 C   0  0  0  0  0  0  0  0  0  0  0  0
    8.0491   -3.9832    0.0000 C   0  0  0  0  0  0  0  0  0  0  0  0
    9.1990   -3.3300    0.0000 C   0  0  0  0  0  0  0  0  0  0  0  0
  1  2  2  0  0  0  0
  1  3  1  0  0  0  0
  1  4  1  0  0  0  0
  3  7  1  0  0  0  0
  4  5  1  0  0  0  0
  5  6  1  0  0  0  0
  7  8  1  0  0  0  0
  8  9  2  0  0  0  0
  8 10  1  0  0  0  0
  9 11  1  0  0  0  0
 10 12  2  0  0  0  0
 11 13  2  0  0  0  0
 12 13  1  0  0  0  0
M  END
> <ID>
12637

> <Formula>
C11H14O2

> <FW>
178.2277

> <DSSTox_CID>
27510

> <DSSTox_RID>
82387

> <DSSTox_GSID>
47510

> <DSSTox_FileID_Sort>
7068

> <TS_ChemName>
Benzyl butyrate

> <TS_ChemName_Synonyms>


> <TS_CASRN>
103-37-7

> <CASRN_ChemName_Relationship>
primary

> <TS_Description>
single chemical compound

> <ChemNote>


> <STRUCTURE_Shown>
tested chemical

> <STRUCTURE_Formula>
C11H14O2

> <STRUCTURE_MW>
178.2277

> <STRUCTURE_ChemType>
defined organic

> <STRUCTURE_DefinedOrganicForm>
parent

> <STRUCTURE_IUPAC>
benzyl butanoate

> <STRUCTURE_SMILES>
CCCC(=O)OCc1ccccc1

> <STRUCTURE_SMILES_Desalt>
CCCC(=O)OCc1ccccc1

> <Substance_modify_yyyymmdd>
20100704

$$$$
