103-54-8
ChemmineR-0915142007XD

 13 13  0  0  0  0  0  0  0  0  1 V2000
    5.7524   -1.3275    0.0000 C   0  0  0  0  0  0  0  0  0  0  0  0
    4.6001   -1.9912    0.0000 C   0  0  0  0  0  0  0  0  0  0  0  0
    3.4662   -1.3275    0.0000 C   0  0  0  0  0  0  0  0  0  0  0  0
    6.9232   -1.9912    0.0000 O   0  0  0  0  0  0  0  0  0  0  0  0
    1.1523   -3.9917    0.0000 C   0  0  0  0  0  0  0  0  0  0  0  0
    0.0000   -3.3187    0.0000 C   0  0  0  0  0  0  0  0  0  0  0  0
    0.0000   -1.9912    0.0000 C   0  0  0  0  0  0  0  0  0  0  0  0
    1.1523   -1.3275    0.0000 C   0  0  0  0  0  0  0  0  0  0  0  0
    2.3047   -1.9912    0.0000 C   0  0  0  0  0  0  0  0  0  0  0  0
    2.3047   -3.3187    0.0000 C   0  0  0  0  0  0  0  0  0  0  0  0
    8.0663   -1.3275    0.0000 C   0  0  0  0  0  0  0  0  0  0  0  0
    8.0663    0.0000    0.0000 O   0  0  0  0  0  0  0  0  0  0  0  0
    9.2187   -1.9912    0.0000 C   0  0  0  0  0  0  0  0  0  0  0  0
  1  2  1  0  0  0  0
  1  4  1  0  0  0  0
  2  3  2  3  0  0  0
  3  9  1  0  0  0  0
  4 11  1  0  0  0  0
  5 10  2  0  0  0  0
  5  6  1  0  0  0  0
  6  7  2  0  0  0  0
  7  8  1  0  0  0  0
  8  9  2  0  0  0  0
  9 10  1  0  0  0  0
 11 12  2  0  0  0  0
 11 13  1  0  0  0  0
M  END
> <ID>
10416

> <Formula>
C11H12O2

> <FW>
176.2118

> <DSSTox_CID>
24765

> <DSSTox_RID>
80457

> <DSSTox_GSID>
44765

> <DSSTox_FileID_Sort>
5139

> <TS_ChemName>
3-Phenylprop-2-en-1-yl acetate

> <TS_ChemName_Synonyms>
2-Propen-1-ol, 3-phenyl-, acetate

> <TS_CASRN>
103-54-8

> <CASRN_ChemName_Relationship>
primary

> <TS_Description>
mixture of Z,E isomers

> <ChemNote>
mixture of Z [21040-45-9] ,E [21040-45-9]- isomers

> <STRUCTURE_Shown>
representative isomer in mixture

> <STRUCTURE_Formula>
C11H12O2

> <STRUCTURE_MW>
176.2118

> <STRUCTURE_ChemType>
defined organic

> <STRUCTURE_DefinedOrganicForm>
parent

> <STRUCTURE_IUPAC>
3-phenylprop-2-en-1-yl acetate

> <STRUCTURE_SMILES>
CC(=O)OCC=Cc1ccccc1

> <STRUCTURE_SMILES_Desalt>
CC(=O)OCC=Cc1ccccc1

> <Substance_modify_yyyymmdd>
20101021

$$$$
