103055-07-8
ChemmineR-0915142007XD

 32 33  0  0  0  0  0  0  0  0  1 V2000
    3.4187   -1.3715    0.0000 C    0  0  0  0  0  0  0  0  0  0  0  0
    3.4187   -0.0605    0.0000 O    0  0  0  0  0  0  0  0  0  0  0  0
    2.2791   -1.9867    0.0000 C    0  0  0  0  0  0  0  0  0  0  0  0
    1.1396   -1.3715    0.0000 C    0  0  0  0  0  0  0  0  0  0  0  0
    2.2791   -3.3077    0.0000 C    0  0  0  0  0  0  0  0  0  0  0  0
    0.0000   -1.9867    0.0000 C    0  0  0  0  0  0  0  0  0  0  0  0
    1.1396   -3.9632    0.0000 C    0  0  0  0  0  0  0  0  0  0  0  0
    0.0000   -3.3077    0.0000 C    0  0  0  0  0  0  0  0  0  0  0  0
    4.5985   -2.0371    0.0000 N    0  0  0  0  0  0  0  0  0  0  0  0
    5.7986   -1.3715    0.0000 C    0  0  0  0  0  0  0  0  0  0  0  0
    5.7986   -0.0605    0.0000 O    0  0  0  0  0  0  0  0  0  0  0  0
    6.9382   -2.0371    0.0000 N    0  0  0  0  0  0  0  0  0  0  0  0
    6.9382   -3.3481    0.0000 C    0  0  0  0  0  0  0  0  0  0  0  0
    5.7986   -4.0338    0.0000 C    0  0  0  0  0  0  0  0  0  0  0  0
    8.0575   -4.0338    0.0000 C    0  0  0  0  0  0  0  0  0  0  0  0
    5.7986   -5.4053    0.0000 C    0  0  0  0  0  0  0  0  0  0  0  0
    8.0575   -5.3448    0.0000 C    0  0  0  0  0  0  0  0  0  0  0  0
    6.9382   -6.0205    0.0000 C    0  0  0  0  0  0  0  0  0  0  0  0
    4.6591   -3.4187    0.0000 Cl   0  0  0  0  0  0  0  0  0  0  0  0
    9.1971   -6.0205    0.0000 Cl   0  0  0  0  0  0  0  0  0  0  0  0
    6.9382   -7.4020    0.0000 O    0  0  0  0  0  0  0  0  0  0  0  0
    5.7684   -8.0777    0.0000 C    0  0  0  0  0  0  0  0  0  0  0  0
    4.5985   -8.7433    0.0000 C    0  0  0  0  0  0  0  0  0  0  0  0
    3.4287   -8.0777    0.0000 C    0  0  0  0  0  0  0  0  0  0  0  0
    5.0927   -6.8877    0.0000 F    0  0  0  0  0  0  0  0  0  0  0  0
    6.4541   -9.2273    0.0000 F    0  0  0  0  0  0  0  0  0  0  0  0
    4.5985  -10.0845    0.0000 F    0  0  0  0  0  0  0  0  0  0  0  0
    2.7531   -9.2273    0.0000 F    0  0  0  0  0  0  0  0  0  0  0  0
    4.0943   -6.8877    0.0000 F    0  0  0  0  0  0  0  0  0  0  0  0
    2.2589   -7.4020    0.0000 F    0  0  0  0  0  0  0  0  0  0  0  0
    1.1396    0.0000    0.0000 F    0  0  0  0  0  0  0  0  0  0  0  0
    3.4187   -3.9632    0.0000 F    0  0  0  0  0  0  0  0  0  0  0  0
  1  2  2  0  0  0  0
  1  3  1  0  0  0  0
  1  9  1  0  0  0  0
  3  4  2  0  0  0  0
  3  5  1  0  0  0  0
  4  6  1  0  0  0  0
  4 31  1  0  0  0  0
  5  7  2  0  0  0  0
  5 32  1  0  0  0  0
  6  8  2  0  0  0  0
  7  8  1  0  0  0  0
  9 10  1  0  0  0  0
 10 11  2  0  0  0  0
 10 12  1  0  0  0  0
 12 13  1  0  0  0  0
 13 14  2  0  0  0  0
 13 15  1  0  0  0  0
 14 16  1  0  0  0  0
 14 19  1  0  0  0  0
 15 17  2  0  0  0  0
 16 18  2  0  0  0  0
 17 18  1  0  0  0  0
 17 20  1  0  0  0  0
 18 21  1  0  0  0  0
 21 22  1  0  0  0  0
 22 23  1  0  0  0  0
 22 25  1  0  0  0  0
 22 26  1  0  0  0  0
 23 24  1  0  0  0  0
 23 27  1  0  0  0  0
 24 28  1  0  0  0  0
 24 29  1  0  0  0  0
 24 30  1  0  0  0  0
M  END
> <ID>
6752

> <Formula>
C17H8Cl2F8N2O3

> <FW>
511.1502

> <DSSTox_CID>
14357

> <DSSTox_RID>
79146

> <DSSTox_GSID>
34357

> <DSSTox_FileID_Sort>
3828

> <TS_ChemName>
Lufenuron

> <TS_ChemName_Synonyms>
Lufenuron (Benzamide, N-[[[2,5-dichloro-4-(1,1,2,3,3,3-hexafluoropropoxy)phenyl] amino]carbonyl]-2,6-difluoro-)

> <TS_CASRN>
103055-07-8

> <CASRN_ChemName_Relationship>
primary

> <TS_Description>
single chemical compound

> <ChemNote>


> <STRUCTURE_Shown>
tested chemical

> <STRUCTURE_Formula>
C17H8Cl2F8N2O3

> <STRUCTURE_MW>
511.1502

> <STRUCTURE_ChemType>
defined organic

> <STRUCTURE_DefinedOrganicForm>
parent

> <STRUCTURE_IUPAC>
N-{[2,5-dichloro-4-(1,1,2,3,3,3-hexafluoropropoxy)phenyl]carbamoyl}-2,6-difluorobenzamide

> <STRUCTURE_SMILES>
Clc2cc(NC(=O)NC(=O)c1c(F)cccc1F)c(Cl)cc2OC(F)(F)C(F)C(F)(F)F

> <STRUCTURE_SMILES_Desalt>
Clc2cc(NC(=O)NC(=O)c1c(F)cccc1F)c(Cl)cc2OC(F)(F)C(F)C(F)(F)F

> <Substance_modify_yyyymmdd>
20080429

$$$$
