103177-37-3
ChemmineR-0915142007XD

 36 40  0  0  0  0  0  0  0  0  1 V2000
    1.1557   -4.6620    0.0000 C   0  0  0  0  0  0  0  0  0  0  0  0
    0.0000   -3.9960    0.0000 C   0  0  0  0  0  0  0  0  0  0  0  0
    2.3114   -3.9960    0.0000 C   0  0  0  0  0  0  0  0  0  0  0  0
    0.0000   -2.6640    0.0000 C   0  0  0  0  0  0  0  0  0  0  0  0
    2.3114   -2.6640    0.0000 C   0  0  0  0  0  0  0  0  0  0  0  0
    1.1557   -1.9980    0.0000 C   0  0  0  0  0  0  0  0  0  0  0  0
    3.4475   -4.6620    0.0000 C   0  0  0  0  0  0  0  0  0  0  0  0
    4.6032   -3.9960    0.0000 C   0  0  0  0  0  0  0  0  0  0  0  0
    5.7589   -4.6620    0.0000 C   0  0  0  0  0  0  0  0  0  0  0  0
    6.9146   -3.9960    0.0000 C   0  0  0  0  0  0  0  0  0  0  0  0
    8.0703   -4.6620    0.0000 O   0  0  0  0  0  0  0  0  0  0  0  0
   11.5178   -3.9960    0.0000 C   0  0  0  0  0  0  0  0  0  0  0  0
   10.3621   -4.6620    0.0000 C   0  0  0  0  0  0  0  0  0  0  0  0
   11.5178   -2.6640    0.0000 C   0  0  0  0  0  0  0  0  0  0  0  0
    9.2260   -3.9960    0.0000 C   0  0  0  0  0  0  0  0  0  0  0  0
   10.3621   -1.9980    0.0000 C   0  0  0  0  0  0  0  0  0  0  0  0
    9.2260   -2.6640    0.0000 C   0  0  0  0  0  0  0  0  0  0  0  0
   12.6735   -1.9980    0.0000 C   0  0  0  0  0  0  0  0  0  0  0  0
   12.6735   -0.6660    0.0000 O   0  0  0  0  0  0  0  0  0  0  0  0
   13.8292   -2.6640    0.0000 N   0  0  0  0  0  0  0  0  0  0  0  0
   17.2767   -1.9980    0.0000 C   0  0  0  0  0  0  0  0  0  0  0  0
   16.1406   -2.6640    0.0000 C   0  0  0  0  0  0  0  0  0  0  0  0
   17.2767   -0.6660    0.0000 C   0  0  0  0  0  0  0  0  0  0  0  0
   14.9849   -1.9980    0.0000 C   0  0  0  0  0  0  0  0  0  0  0  0
   16.1406    0.0000    0.0000 C   0  0  0  0  0  0  0  0  0  0  0  0
   14.9849   -0.6660    0.0000 C   0  0  0  0  0  0  0  0  0  0  0  0
   18.4324   -3.9960    0.0000 C   0  0  0  0  0  0  0  0  0  0  0  0
   17.2767   -4.6620    0.0000 C   0  0  0  0  0  0  0  0  0  0  0  0
   18.4324   -2.6640    0.0000 C   0  0  0  0  0  0  0  0  0  0  0  0
   16.1406   -3.9960    0.0000 O   0  0  0  0  0  0  0  0  0  0  0  0
   19.5881   -1.9980    0.0000 O   0  0  0  0  0  0  0  0  0  0  0  0
   16.1994   -6.7775    0.0000 N   0  0  0  0  0  0  0  0  0  0  0  0
   17.2767   -5.9940    0.0000 C   0  0  0  0  0  0  0  0  0  0  0  0
   16.6107   -8.0311    0.0000 N   0  0  0  0  0  0  0  0  0  0  0  0
   18.3541   -6.7775    0.0000 N   0  0  0  0  0  0  0  0  0  0  0  0
   17.9427   -8.0311    0.0000 N   0  0  0  0  0  0  0  0  0  0  0  0
  1  2  1  0  0  0  0
  1  3  2  0  0  0  0
  2  4  2  0  0  0  0
  3  5  1  0  0  0  0
  3  7  1  0  0  0  0
  4  6  1  0  0  0  0
  5  6  2  0  0  0  0
  7  8  1  0  0  0  0
  8  9  1  0  0  0  0
  9 10  1  0  0  0  0
 10 11  1  0  0  0  0
 11 15  1  0  0  0  0
 12 13  1  0  0  0  0
 12 14  2  0  0  0  0
 13 15  2  0  0  0  0
 14 16  1  0  0  0  0
 14 18  1  0  0  0  0
 15 17  1  0  0  0  0
 16 17  2  0  0  0  0
 18 19  2  0  0  0  0
 18 20  1  0  0  0  0
 20 24  1  0  0  0  0
 21 23  2  0  0  0  0
 21 29  1  0  0  0  0
 21 22  1  0  0  0  0
 22 24  2  0  0  0  0
 22 30  1  0  0  0  0
 23 25  1  0  0  0  0
 24 26  1  0  0  0  0
 25 26  2  0  0  0  0
 27 28  2  0  0  0  0
 27 29  1  0  0  0  0
 28 30  1  0  0  0  0
 28 33  1  0  0  0  0
 29 31  2  0  0  0  0
 32 33  2  0  0  0  0
 32 34  1  0  0  0  0
 33 35  1  0  0  0  0
 34 36  2  0  0  0  0
 35 36  1  0  0  0  0
M  END
> <ID>
9618

> <Formula>
C27H23N5O4

> <FW>
481.5026

> <DSSTox_CID>
23782

> <DSSTox_RID>
80074

> <DSSTox_GSID>
43782

> <DSSTox_FileID_Sort>
4756

> <TS_ChemName>
Pranlukast

> <TS_ChemName_Synonyms>


> <TS_CASRN>
103177-37-3

> <CASRN_ChemName_Relationship>
primary

> <TS_Description>
single chemical compound

> <ChemNote>


> <STRUCTURE_Shown>
tested chemical

> <STRUCTURE_Formula>
C27H23N5O4

> <STRUCTURE_MW>
481.5026

> <STRUCTURE_ChemType>
defined organic

> <STRUCTURE_DefinedOrganicForm>
parent

> <STRUCTURE_IUPAC>
N-[4-oxo-2-(1H-tetrazol-5-yl)-4H-chromen-8-yl]-4-(4-phenylbutoxy)benzamide

> <STRUCTURE_SMILES>
O=C(Nc3cccc1c3OC(=CC1=O)c2nnnn2)c5ccc(OCCCCc4ccccc4)cc5

> <STRUCTURE_SMILES_Desalt>
O=C(Nc3cccc1c3OC(=CC1=O)c2nnnn2)c5ccc(OCCCCc4ccccc4)cc5

> <Substance_modify_yyyymmdd>
20081229

$$$$
