10311-84-9
ChemmineR-0915142007XD

 23 24  0  0  0  0  0  0  0  0  1 V2000
    4.2880   -2.6982    0.0000 N    0  0  0  0  0  0  0  0  0  0  0  0
    5.4636   -2.0041    0.0000 C    0  0  0  0  0  0  0  0  0  0  0  0
    3.5155   -3.7506    0.0000 C    0  0  0  0  0  0  0  0  0  0  0  0
    3.5155   -1.6010    0.0000 C    0  0  0  0  0  0  0  0  0  0  0  0
    6.6056   -2.6982    0.0000 S    0  0  0  0  0  0  0  0  0  0  0  0
    5.4636   -0.6830    0.0000 C    0  0  0  0  0  0  0  0  0  0  0  0
    2.2280   -3.3700    0.0000 C    0  0  0  0  0  0  0  0  0  0  0  0
    3.8850   -5.0158    0.0000 O    0  0  0  0  0  0  0  0  0  0  0  0
    2.2280   -2.0041    0.0000 C    0  0  0  0  0  0  0  0  0  0  0  0
    3.8850   -0.3359    0.0000 O    0  0  0  0  0  0  0  0  0  0  0  0
    7.7364   -2.0041    0.0000 P    0  0  0  0  0  0  0  0  0  0  0  0
    6.6056    0.0000    0.0000 Cl   0  0  0  0  0  0  0  0  0  0  0  0
    1.0524   -4.0081    0.0000 C    0  0  0  0  0  0  0  0  0  0  0  0
    1.0524   -1.3435    0.0000 C    0  0  0  0  0  0  0  0  0  0  0  0
    8.9120   -2.6982    0.0000 O    0  0  0  0  0  0  0  0  0  0  0  0
    8.0947   -3.3140    0.0000 O    0  0  0  0  0  0  0  0  0  0  0  0
    7.7364   -0.6830    0.0000 S    0  0  0  0  0  0  0  0  0  0  0  0
    0.0000   -3.3700    0.0000 C    0  0  0  0  0  0  0  0  0  0  0  0
    0.0000   -2.0041    0.0000 C    0  0  0  0  0  0  0  0  0  0  0  0
   10.0651   -2.0041    0.0000 C    0  0  0  0  0  0  0  0  0  0  0  0
    9.4046   -3.6723    0.0000 C    0  0  0  0  0  0  0  0  0  0  0  0
   11.1959   -2.6982    0.0000 C    0  0  0  0  0  0  0  0  0  0  0  0
    9.6957   -4.9374    0.0000 C    0  0  0  0  0  0  0  0  0  0  0  0
  1  2  1  0  0  0  0
  1  3  1  0  0  0  0
  1  4  1  0  0  0  0
  2  5  1  0  0  0  0
  2  6  1  0  0  0  0
  3  7  1  0  0  0  0
  3  8  2  0  0  0  0
  4  9  1  0  0  0  0
  4 10  2  0  0  0  0
  5 11  1  0  0  0  0
  6 12  1  0  0  0  0
  7 13  1  0  0  0  0
  7  9  2  0  0  0  0
  9 14  1  0  0  0  0
 11 15  1  0  0  0  0
 11 16  1  0  0  0  0
 11 17  2  0  0  0  0
 13 18  2  0  0  0  0
 14 19  2  0  0  0  0
 15 20  1  0  0  0  0
 16 21  1  0  0  0  0
 18 19  1  0  0  0  0
 20 22  1  0  0  0  0
 21 23  1  0  0  0  0
M  END
> <ID>
7319

> <Formula>
C14H17ClNO4PS2

> <FW>
393.8458

> <DSSTox_CID>
17522

> <DSSTox_RID>
79328

> <DSSTox_GSID>
37522

> <DSSTox_FileID_Sort>
4010

> <TS_ChemName>
Dialifor

> <TS_ChemName_Synonyms>


> <TS_CASRN>
10311-84-9

> <CASRN_ChemName_Relationship>
primary

> <TS_Description>
single chemical compound

> <ChemNote>


> <STRUCTURE_Shown>
tested chemical

> <STRUCTURE_Formula>
C14H17ClNO4PS2

> <STRUCTURE_MW>
393.8458

> <STRUCTURE_ChemType>
defined organic

> <STRUCTURE_DefinedOrganicForm>
parent

> <STRUCTURE_IUPAC>
S-[2-chloro-1-(1,3-dioxo-1,3-dihydro-2H-isoindol-2-yl)ethyl] O,O-diethyl phosphorodithioate

> <STRUCTURE_SMILES>
CCOP(=S)(OCC)SC(CCl)N2C(=O)c1ccccc1C2=O

> <STRUCTURE_SMILES_Desalt>
CCOP(=S)(OCC)SC(CCl)N2C(=O)c1ccccc1C2=O

> <Substance_modify_yyyymmdd>
20080429

$$$$
