103112-35-2
ChemmineR-0915142007XD

 22 23  0  0  0  0  0  0  0  0  1 V2000
    6.6391   -3.5169    0.0000 N    0  0  0  0  0  0  0  0  0  0  0  0
    5.8496   -4.5935    0.0000 N    0  0  0  0  0  0  0  0  0  0  0  0
    4.5935   -4.1748    0.0000 C    0  0  0  0  0  0  0  0  0  0  0  0
    4.5935   -2.8470    0.0000 N    0  0  0  0  0  0  0  0  0  0  0  0
    5.8496   -2.4283    0.0000 C    0  0  0  0  0  0  0  0  0  0  0  0
    3.5169   -4.9524    0.0000 C    0  0  0  0  0  0  0  0  0  0  0  0
    3.6246   -6.2682    0.0000 O    0  0  0  0  0  0  0  0  0  0  0  0
    2.3087   -4.4141    0.0000 O    0  0  0  0  0  0  0  0  0  0  0  0
    7.9669   -3.5169    0.0000 C    0  0  0  0  0  0  0  0  0  0  0  0
    8.6368   -4.6533    0.0000 C    0  0  0  0  0  0  0  0  0  0  0  0
    8.6368   -2.3446    0.0000 C    0  0  0  0  0  0  0  0  0  0  0  0
    9.9646   -4.6533    0.0000 C    0  0  0  0  0  0  0  0  0  0  0  0
    9.9646   -2.3446    0.0000 C    0  0  0  0  0  0  0  0  0  0  0  0
   10.6345   -3.5169    0.0000 C    0  0  0  0  0  0  0  0  0  0  0  0
    7.9669   -5.8017    0.0000 Cl   0  0  0  0  0  0  0  0  0  0  0  0
   11.9623   -3.5169    0.0000 Cl   0  0  0  0  0  0  0  0  0  0  0  0
    6.3759   -1.2202    0.0000 C    0  0  0  0  0  0  0  0  0  0  0  0
    6.9262    0.0000    0.0000 Cl   0  0  0  0  0  0  0  0  0  0  0  0
    7.5960   -1.7585    0.0000 Cl   0  0  0  0  0  0  0  0  0  0  0  0
    5.1677   -0.6818    0.0000 Cl   0  0  0  0  0  0  0  0  0  0  0  0
    1.2202   -5.1916    0.0000 C    0  0  0  0  0  0  0  0  0  0  0  0
    0.0000   -4.6533    0.0000 C    0  0  0  0  0  0  0  0  0  0  0  0
  1  2  1  0  0  0  0
  1  5  1  0  0  0  0
  1  9  1  0  0  0  0
  2  3  2  0  0  0  0
  3  4  1  0  0  0  0
  3  6  1  0  0  0  0
  4  5  2  0  0  0  0
  5 17  1  0  0  0  0
  6  7  2  0  0  0  0
  6  8  1  0  0  0  0
  8 21  1  0  0  0  0
  9 10  2  0  0  0  0
  9 11  1  0  0  0  0
 10 12  1  0  0  0  0
 10 15  1  0  0  0  0
 11 13  2  0  0  0  0
 12 14  2  0  0  0  0
 13 14  1  0  0  0  0
 14 16  1  0  0  0  0
 17 18  1  0  0  0  0
 17 19  1  0  0  0  0
 17 20  1  0  0  0  0
 21 22  1  0  0  0  0
M  END
> <ID>
8239

> <Formula>
C12H8Cl5N3O2

> <FW>
403.4758

> <DSSTox_CID>
21268

> <DSSTox_RID>
79671

> <DSSTox_GSID>
41268

> <DSSTox_FileID_Sort>
4353

> <TS_ChemName>
1H-1,2,4-Triazole-3-carboxylic acid, 1-(2,4-dichlorophenyl)-5-(trichloromethyl)-, ethyl ester

> <TS_ChemName_Synonyms>


> <TS_CASRN>
103112-35-2

> <CASRN_ChemName_Relationship>
primary

> <TS_Description>
single chemical compound

> <ChemNote>


> <STRUCTURE_Shown>
tested chemical

> <STRUCTURE_Formula>
C12H8Cl5N3O2

> <STRUCTURE_MW>
403.4758

> <STRUCTURE_ChemType>
defined organic

> <STRUCTURE_DefinedOrganicForm>
parent

> <STRUCTURE_IUPAC>
ethyl 1-(2,4-dichlorophenyl)-5-(trichloromethyl)-1H-1,2,4-triazole-3-carboxylate

> <STRUCTURE_SMILES>
ClC(Cl)(Cl)c2nc(nn2c1ccc(Cl)cc1Cl)C(=O)OCC

> <STRUCTURE_SMILES_Desalt>
ClC(Cl)(Cl)c2nc(nn2c1ccc(Cl)cc1Cl)C(=O)OCC

> <Substance_modify_yyyymmdd>
20080825

$$$$
