1031-07-8
ChemmineR-0915142007XD

 20 22  0  0  0  0  0  0  0  0  1 V2000
    1.8051   -4.4636    0.0000 O    0  0  0  0  0  0  0  0  0  0  0  0
    1.2390   -3.4051    0.0000 S    0  0  0  0  0  0  0  0  0  0  0  0
    2.9620   -4.6605    0.0000 C    0  0  0  0  0  0  0  0  0  0  0  0
    1.6985   -2.3220    0.0000 O    0  0  0  0  0  0  0  0  0  0  0  0
    3.8482   -3.8810    0.0000 C    0  0  0  0  0  0  0  0  0  0  0  0
    3.8072   -2.6913    0.0000 C    0  0  0  0  0  0  0  0  0  0  0  0
    2.8308   -2.0102    0.0000 C    0  0  0  0  0  0  0  0  0  0  0  0
    0.0000   -3.1918    0.0000 O    0  0  0  0  0  0  0  0  0  0  0  0
    5.3251   -3.1918    0.0000 C    0  0  0  0  0  0  0  0  0  0  0  0
    5.4810   -1.8954    0.0000 C    0  0  0  0  0  0  0  0  0  0  0  0
    6.9087   -3.8236    0.0000 C    0  0  0  0  0  0  0  0  0  0  0  0
    7.1795   -2.5272    0.0000 C    0  0  0  0  0  0  0  0  0  0  0  0
    4.6113   -0.7467    0.0000 C    0  0  0  0  0  0  0  0  0  0  0  0
    7.4092   -4.5784    0.0000 Cl   0  0  0  0  0  0  0  0  0  0  0  0
    8.2051   -2.1251    0.0000 Cl   0  0  0  0  0  0  0  0  0  0  0  0
    4.8820   -4.0779    0.0000 Cl   0  0  0  0  0  0  0  0  0  0  0  0
    6.3425   -1.3292    0.0000 Cl   0  0  0  0  0  0  0  0  0  0  0  0
    5.1446    0.0000    0.0000 Cl   0  0  0  0  0  0  0  0  0  0  0  0
    3.8564   -0.1313    0.0000 Cl   0  0  0  0  0  0  0  0  0  0  0  0
    0.1149   -4.3733    0.0000 O    0  0  0  0  0  0  0  0  0  0  0  0
  1  2  1  0  0  0  0
  1  3  1  0  0  0  0
  2  4  1  0  0  0  0
  2  8  2  0  0  0  0
  2 20  2  0  0  0  0
  3  5  1  0  0  0  0
  4  7  1  0  0  0  0
  5  6  1  0  0  0  0
  5  9  1  0  0  0  0
  6  7  1  0  0  0  0
  6 10  1  0  0  0  0
  9 11  1  0  0  0  0
  9 13  1  0  0  0  0
  9 16  1  0  0  0  0
 10 12  1  0  0  0  0
 10 13  1  0  0  0  0
 10 17  1  0  0  0  0
 11 12  2  0  0  0  0
 11 14  1  0  0  0  0
 12 15  1  0  0  0  0
 13 18  1  0  0  0  0
 13 19  1  0  0  0  0
M  END
> <ID>
7329

> <Formula>
C9H6Cl6O4S

> <FW>
422.9245

> <DSSTox_CID>
17541

> <DSSTox_RID>
79332

> <DSSTox_GSID>
37541

> <DSSTox_FileID_Sort>
4014

> <TS_ChemName>
Endosulfan sulfate

> <TS_ChemName_Synonyms>


> <TS_CASRN>
1031-07-8

> <CASRN_ChemName_Relationship>
primary

> <TS_Description>
single chemical compound

> <ChemNote>
stereochem

> <STRUCTURE_Shown>
tested chemical

> <STRUCTURE_Formula>
C9H6Cl6O4S

> <STRUCTURE_MW>
422.9245

> <STRUCTURE_ChemType>
defined organic

> <STRUCTURE_DefinedOrganicForm>
parent

> <STRUCTURE_IUPAC>
6,7,8,9,10,10-hexachloro-1,5,5a,6,9,9a-hexahydro-6,9-methano-2,4,3-benzodioxathiepine 3,3-dioxide

> <STRUCTURE_SMILES>
ClC2=C(Cl)C3(Cl)C1COS(=O)(=O)OCC1C2(Cl)C3(Cl)Cl

> <STRUCTURE_SMILES_Desalt>
ClC2=C(Cl)C3(Cl)C1COS(=O)(=O)OCC1C2(Cl)C3(Cl)Cl

> <Substance_modify_yyyymmdd>
20080429

$$$$
