103173-73-5
ChemmineR-0915142007XD

 15 14  0  0  0  0  0  0  0  0  2 V2000
    1.9950   -2.3105    0.0000 N   0  3  0  0  0  0  0  0  0  0  0  0
    0.6588   -2.3105    0.0000 C   0  0  0  0  0  0  0  0  0  0  0  0
    2.6631   -1.1599    0.0000 C   0  0  0  0  0  0  0  0  0  0  0  0
    1.9950    0.0000    0.0000 C   0  0  0  0  0  0  0  0  0  0  0  0
    0.0000   -1.1599    0.0000 C   0  0  0  0  0  0  0  0  0  0  0  0
    0.6588    0.0000    0.0000 C   0  0  0  0  0  0  0  0  0  0  0  0
    2.6631   -3.4704    0.0000 C   0  0  0  0  0  0  0  0  0  0  0  0
    3.9994   -3.4704    0.0000 C   0  0  0  0  0  0  0  0  0  0  0  0
    7.9430   -1.7352    0.0000 P   0  5  0  0  0  0  0  0  0  0  0  0
    6.6161   -1.7352    0.0000 F   0  0  0  0  0  0  0  0  0  0  0  0
    8.6019   -2.8766    0.0000 F   0  0  0  0  0  0  0  0  0  0  0  0
    8.6019   -0.5939    0.0000 F   0  0  0  0  0  0  0  0  0  0  0  0
    7.2749   -2.8766    0.0000 F   0  0  0  0  0  0  0  0  0  0  0  0
    7.2749   -0.5939    0.0000 F   0  0  0  0  0  0  0  0  0  0  0  0
    9.2792   -1.7352    0.0000 F   0  0  0  0  0  0  0  0  0  0  0  0
  1  2  2  0  0  0  0
  1  3  1  0  0  0  0
  1  7  1  0  0  0  0
  2  5  1  0  0  0  0
  3  4  2  0  0  0  0
  4  6  1  0  0  0  0
  5  6  2  0  0  0  0
  7  8  1  0  0  0  0
  9 10  1  0  0  0  0
  9 11  1  0  0  0  0
  9 12  1  0  0  0  0
  9 13  1  0  0  0  0
  9 14  1  0  0  0  0
  9 15  1  0  0  0  0
M  END
> <ID>
12950

> <Formula>
C7H10F6NP

> <FW>
253.1252 (108.1605+144.9647)

> <DSSTox_CID>
27851

> <DSSTox_RID>
82604

> <DSSTox_GSID>
47875

> <DSSTox_FileID_Sort>
7281

> <TS_ChemName>
1-Ethylpyridinium hexafluorophosphate

> <TS_ChemName_Synonyms>


> <TS_CASRN>
103173-73-5

> <CASRN_ChemName_Relationship>
primary

> <TS_Description>
single chemical compound

> <ChemNote>
ammonium; parent [15302-96-2]

> <STRUCTURE_Shown>
tested chemical

> <STRUCTURE_Formula>
C7H10F6NP

> <STRUCTURE_MW>
253.1252

> <STRUCTURE_ChemType>
defined organic

> <STRUCTURE_DefinedOrganicForm>
salt

> <STRUCTURE_IUPAC>
1-ethylpyridinium hexafluorophosphate

> <STRUCTURE_SMILES>
F[P-](F)(F)(F)(F)F.CC[n+]1ccccc1

> <STRUCTURE_SMILES_Desalt>
CC[n+]1ccccc1

> <Substance_modify_yyyymmdd>
20110419

$$$$
