10319-14-9
ChemmineR-0915142007XD

 23 26  0  0  0  0  0  0  0  0  1 V2000
    4.3636   -2.3314    0.0000 C    0  0  0  0  0  0  0  0  0  0  0  0
    2.3004   -1.6402    0.0000 C    0  0  0  0  0  0  0  0  0  0  0  0
    3.5486   -1.2688    0.0000 C    0  0  0  0  0  0  0  0  0  0  0  0
    2.3004   -3.0328    0.0000 C    0  0  0  0  0  0  0  0  0  0  0  0
    3.5486   -3.4042    0.0000 C    0  0  0  0  0  0  0  0  0  0  0  0
    1.1450   -1.0006    0.0000 C    0  0  0  0  0  0  0  0  0  0  0  0
    1.1450   -3.6724    0.0000 C    0  0  0  0  0  0  0  0  0  0  0  0
    0.0000   -3.0328    0.0000 C    0  0  0  0  0  0  0  0  0  0  0  0
    0.0000   -1.6402    0.0000 C    0  0  0  0  0  0  0  0  0  0  0  0
    3.9922   -4.6730    0.0000 O    0  0  0  0  0  0  0  0  0  0  0  0
    3.9922    0.0000    0.0000 O    0  0  0  0  0  0  0  0  0  0  0  0
    6.3648   -1.1760    0.0000 N    0  0  0  0  0  0  0  0  0  0  0  0
    7.7059   -1.1760    0.0000 C    0  0  0  0  0  0  0  0  0  0  0  0
    8.3455   -2.3004    0.0000 C    0  0  0  0  0  0  0  0  0  0  0  0
    5.6737   -2.3314    0.0000 C    0  0  0  0  0  0  0  0  0  0  0  0
    8.3145   -0.0309    0.0000 C    0  0  0  0  0  0  0  0  0  0  0  0
    9.6556   -2.3314    0.0000 C    0  0  0  0  0  0  0  0  0  0  0  0
    7.7059   -3.4661    0.0000 C    0  0  0  0  0  0  0  0  0  0  0  0
    6.3648   -3.4661    0.0000 C    0  0  0  0  0  0  0  0  0  0  0  0
   10.3158   -1.1760    0.0000 C    0  0  0  0  0  0  0  0  0  0  0  0
    9.6556   -0.0309    0.0000 C    0  0  0  0  0  0  0  0  0  0  0  0
    8.3455   -4.6111    0.0000 Br   0  0  0  0  0  0  0  0  0  0  0  0
    5.7046   -4.6421    0.0000 O    0  0  0  0  0  0  0  0  0  0  0  0
  1  3  1  0  0  0  0
  1  5  1  0  0  0  0
  1 15  1  0  0  0  0
  2  3  1  0  0  0  0
  2  4  2  0  0  0  0
  2  6  1  0  0  0  0
  3 11  2  0  0  0  0
  4  5  1  0  0  0  0
  4  7  1  0  0  0  0
  5 10  2  0  0  0  0
  6  9  2  0  0  0  0
  7  8  2  0  0  0  0
  8  9  1  0  0  0  0
 12 13  2  0  0  0  0
 12 15  1  0  0  0  0
 13 14  1  0  0  0  0
 13 16  1  0  0  0  0
 14 17  1  0  0  0  0
 14 18  2  0  0  0  0
 15 19  2  0  0  0  0
 16 21  2  0  0  0  0
 17 20  2  0  0  0  0
 18 19  1  0  0  0  0
 18 22  1  0  0  0  0
 19 23  1  0  0  0  0
 20 21  1  0  0  0  0
M  END
> <ID>
10157

> <Formula>
C18H10BrNO3

> <FW>
368.1809

> <DSSTox_CID>
24503

> <DSSTox_RID>
80274

> <DSSTox_GSID>
44503

> <DSSTox_FileID_Sort>
4956

> <TS_ChemName>
C.I. Disperse yellow 64

> <TS_ChemName_Synonyms>
C.I. Disperse yellow 64 (1H-Indene-1,3(2H)-dione, 2-(4-bromo-3-hydroxy-2-quinolinyl)-)

> <TS_CASRN>
10319-14-9

> <CASRN_ChemName_Relationship>
primary

> <TS_Description>
single chemical compound

> <ChemNote>
tautomers; C.I. 47023

> <STRUCTURE_Shown>
tested chemical

> <STRUCTURE_Formula>
C18H10BrNO3

> <STRUCTURE_MW>
368.1809

> <STRUCTURE_ChemType>
defined organic

> <STRUCTURE_DefinedOrganicForm>
parent

> <STRUCTURE_IUPAC>
2-(4-bromo-3-hydroxyquinolin-2-yl)-1H-indene-1,3(2H)-dione

> <STRUCTURE_SMILES>
O=C4c1ccccc1C(=O)C4c2nc3ccccc3c(Br)c2O

> <STRUCTURE_SMILES_Desalt>
O=C4c1ccccc1C(=O)C4c2nc3ccccc3c(Br)c2O

> <Substance_modify_yyyymmdd>
20091116

$$$$
