1032350-13-2
ChemmineR-0915142007XD

 31 36  0  0  0  0  0  0  0  0  1 V2000
    3.6792   -6.5743    0.0000 N   0  0  0  0  0  0  0  0  0  0  0  0
    5.0061   -6.5743    0.0000 C   0  0  0  0  0  0  0  0  0  0  0  0
    5.6816   -7.6600    0.0000 C   0  0  0  0  0  0  0  0  0  0  0  0
    5.0061   -8.8663    0.0000 C   0  0  0  0  0  0  0  0  0  0  0  0
    3.6792   -8.8663    0.0000 C   0  0  0  0  0  0  0  0  0  0  0  0
    2.9554  -10.0846    0.0000 C   0  0  0  0  0  0  0  0  0  0  0  0
    1.7009  -10.0846    0.0000 N   0  0  0  0  0  0  0  0  0  0  0  0
    0.9771   -8.8663    0.0000 C   0  0  0  0  0  0  0  0  0  0  0  0
    1.7009   -7.6600    0.0000 C   0  0  0  0  0  0  0  0  0  0  0  0
    2.9554   -7.6600    0.0000 C   0  0  0  0  0  0  0  0  0  0  0  0
    2.3523  -12.0629    0.0000 N   0  0  0  0  0  0  0  0  0  0  0  0
    3.3776  -11.2789    0.0000 N   0  0  0  0  0  0  0  0  0  0  0  0
    1.2666  -11.2789    0.0000 C   0  0  0  0  0  0  0  0  0  0  0  0
    0.0000  -11.6528    0.0000 O   0  0  0  0  0  0  0  0  0  0  0  0
    7.6117   -4.2220    0.0000 C   0  0  0  0  0  0  0  0  0  0  0  0
    6.8759   -3.0761    0.0000 C   0  0  0  0  0  0  0  0  0  0  0  0
    5.5490   -3.0761    0.0000 C   0  0  0  0  0  0  0  0  0  0  0  0
    4.9579   -4.2220    0.0000 C   0  0  0  0  0  0  0  0  0  0  0  0
    5.6213   -5.3801    0.0000 C   0  0  0  0  0  0  0  0  0  0  0  0
    6.9483   -5.3801    0.0000 C   0  0  0  0  0  0  0  0  0  0  0  0
    7.5514   -1.8698    0.0000 C   0  0  0  0  0  0  0  0  0  0  0  0
    6.5261   -1.0254    0.0000 C   0  0  0  0  0  0  0  0  0  0  0  0
    7.3584    0.0000    0.0000 C   0  0  0  0  0  0  0  0  0  0  0  0
    8.3958   -0.8444    0.0000 C   0  0  0  0  0  0  0  0  0  0  0  0
    8.8180   -2.2920    0.0000 N   0  0  0  0  0  0  0  0  0  0  0  0
    8.9869   -8.7456    0.0000 C   0  0  0  0  0  0  0  0  0  0  0  0
    9.6624   -7.5997    0.0000 C   0  0  0  0  0  0  0  0  0  0  0  0
    8.9869   -6.4416    0.0000 C   0  0  0  0  0  0  0  0  0  0  0  0
    7.6600   -6.4416    0.0000 C   0  0  0  0  0  0  0  0  0  0  0  0
    7.0086   -7.5997    0.0000 C   0  0  0  0  0  0  0  0  0  0  0  0
    7.7323   -8.7456    0.0000 C   0  0  0  0  0  0  0  0  0  0  0  0
  1  2  2  0  0  0  0
  1 10  1  0  0  0  0
  2  3  1  0  0  0  0
  2 19  1  0  0  0  0
  3  4  2  0  0  0  0
  3 30  1  0  0  0  0
  4  5  1  0  0  0  0
  5  6  1  0  0  0  0
  5 10  2  0  0  0  0
  6  7  1  0  0  0  0
  6 12  2  0  0  0  0
  7  8  1  0  0  0  0
  7 13  1  0  0  0  0
  8  9  2  0  0  0  0
  9 10  1  0  0  0  0
 11 12  1  0  0  0  0
 11 13  1  0  0  0  0
 13 14  2  0  0  0  0
 15 20  2  0  0  0  0
 15 16  1  0  0  0  0
 16 17  2  0  0  0  0
 16 21  1  0  0  0  0
 17 18  1  0  0  0  0
 18 19  2  0  0  0  0
 19 20  1  0  0  0  0
 21 22  1  0  0  0  0
 21 24  1  0  0  0  0
 21 25  1  0  0  0  0
 22 23  1  0  0  0  0
 23 24  1  0  0  0  0
 26 31  2  0  0  0  0
 26 27  1  0  0  0  0
 27 28  2  0  0  0  0
 28 29  1  0  0  0  0
 29 30  2  0  0  0  0
 30 31  1  0  0  0  0
M  END
> <ID>
13937

> <Formula>
C25H21N5O

> <FW>
407.4671

> <DSSTox_CID>
28874

> <DSSTox_RID>
83143

> <DSSTox_GSID>
48948

> <DSSTox_FileID_Sort>
7820

> <TS_ChemName>
MK-2206

> <TS_ChemName_Synonyms>


> <TS_CASRN>
1032350-13-2

> <CASRN_ChemName_Relationship>
primary

> <TS_Description>
single chemical compound

> <ChemNote>


> <STRUCTURE_Shown>
tested chemical

> <STRUCTURE_Formula>
C25H21N5O

> <STRUCTURE_MW>
407.4671

> <STRUCTURE_ChemType>
defined organic

> <STRUCTURE_DefinedOrganicForm>
parent

> <STRUCTURE_IUPAC>
8-[4-(1-aminocyclobutyl)phenyl]-9-phenyl[1,2,4]triazolo[3,4-f][1,6]naphthyridin-3(2H)-one

> <STRUCTURE_SMILES>
NC1(CCC1)c2ccc(cc2)c3nc5C=CN6C(=O)NN=C6c5cc3c4ccccc4

> <STRUCTURE_SMILES_Desalt>
NC1(CCC1)c2ccc(cc2)c3nc5C=CN6C(=O)NN=C6c5cc3c4ccccc4

> <Substance_modify_yyyymmdd>
20111204

$$$$
