10326-41-7
ChemmineR-0915142007XD

  6  5  0  0  1  0  0  0  0  0  1 V2000
    2.0016   -1.1669    0.0000 C   0  0  0  0  0  0  0  0  0  0  0  0
    2.6581   -2.3046    0.0000 O   0  0  0  0  0  0  0  0  0  0  0  0
    0.6566   -1.1669    0.0000 C   0  0  0  0  0  0  0  0  0  0  0  0
    2.6581    0.0000    0.0000 O   0  0  0  0  0  0  0  0  0  0  0  0
    0.0000    0.0000    0.0000 O   0  0  0  0  0  0  0  0  0  0  0  0
    0.0000   -2.3046    0.0000 C   0  0  0  0  0  0  0  0  0  0  0  0
  1  2  2  0  0  0  0
  1  3  1  0  0  0  0
  1  4  1  0  0  0  0
  3  5  1  1  0  0  0
  3  6  1  0  0  0  0
M  END
> <ID>
12184

> <Formula>
C3H6O3

> <FW>
90.0779

> <DSSTox_CID>
27030

> <DSSTox_RID>
82051

> <DSSTox_GSID>
47030

> <DSSTox_FileID_Sort>
6732

> <TS_ChemName>
D-Lactic acid

> <TS_ChemName_Synonyms>
D-(-)-Lactic acid

> <TS_CASRN>
10326-41-7

> <CASRN_ChemName_Relationship>
primary

> <TS_Description>
single chemical compound

> <ChemNote>
stereochem

> <STRUCTURE_Shown>
tested chemical

> <STRUCTURE_Formula>
C3H6O3

> <STRUCTURE_MW>
90.0779

> <STRUCTURE_ChemType>
defined organic

> <STRUCTURE_DefinedOrganicForm>
parent

> <STRUCTURE_IUPAC>
(2R)-2-hydroxypropanoic acid

> <STRUCTURE_SMILES>
O=C(O)[C@@H](C)O

> <STRUCTURE_SMILES_Desalt>
O=C(O)[C@@H](C)O

> <Substance_modify_yyyymmdd>
20100427

$$$$
