10325-94-7
ChemmineR-0915142007XD

  9  8  0  0  0  0  0  0  0  0  2 V2000
    3.4681   -0.6576    0.0000 Cd   0  0  0  0  0  0  0  0  0  0  0  0
    4.6103    0.0000    0.0000 O    0  0  0  0  0  0  0  0  0  0  0  0
    2.3121    0.0000    0.0000 O    0  0  0  0  0  0  0  0  0  0  0  0
    1.1560   -0.6576    0.0000 N    0  3  0  0  0  0  0  0  0  0  0  0
    5.7663   -0.6576    0.0000 N    0  3  0  0  0  0  0  0  0  0  0  0
    5.7663   -1.9936    0.0000 O    0  0  0  0  0  0  0  0  0  0  0  0
    6.9224    0.0000    0.0000 O    0  5  0  0  0  0  0  0  0  0  0  0
    1.1560   -1.9936    0.0000 O    0  0  0  0  0  0  0  0  0  0  0  0
    0.0000    0.0000    0.0000 O    0  5  0  0  0  0  0  0  0  0  0  0
  1  2  1  0  0  0  0
  1  3  1  0  0  0  0
  2  5  1  0  0  0  0
  3  4  1  0  0  0  0
  4  8  2  0  0  0  0
  4  9  1  0  0  0  0
  5  6  2  0  0  0  0
  5  7  1  0  0  0  0
M  END
> <ID>
10158

> <Formula>
CdN2O6

> <FW>
236.4208

> <DSSTox_CID>
24504

> <DSSTox_RID>
80275

> <DSSTox_GSID>
44504

> <DSSTox_FileID_Sort>
4957

> <TS_ChemName>
Cadmium dinitrate

> <TS_ChemName_Synonyms>
Cadmium dinitrate (Nitric acid, cadmium salt)

> <TS_CASRN>
10325-94-7

> <CASRN_ChemName_Relationship>
primary

> <TS_Description>
single chemical compound

> <ChemNote>
given CAS anhydrous; tetrahydrate [10022-68-1]

> <STRUCTURE_Shown>
tested chemical

> <STRUCTURE_Formula>
CdN2O6

> <STRUCTURE_MW>
236.4208

> <STRUCTURE_ChemType>
inorganic

> <STRUCTURE_DefinedOrganicForm>


> <STRUCTURE_IUPAC>
cadmium dinitrate

> <STRUCTURE_SMILES>
[O-][N+](=O)O[Cd]O[N+]([O-])=O

> <STRUCTURE_SMILES_Desalt>
[O-][N+](=O)O[Cd]O[N+]([O-])=O

> <Substance_modify_yyyymmdd>
20091116

$$$$
