103361-09-7
ChemmineR-0915142007XD

 26 29  0  0  0  0  0  0  0  0  1 V2000
    5.6764   -8.0648    0.0000 F   0  0  0  0  0  0  0  0  0  0  0  0
    6.3485   -6.9068    0.0000 C   0  0  0  0  0  0  0  0  0  0  0  0
    5.6764   -5.7591    0.0000 C   0  0  0  0  0  0  0  0  0  0  0  0
    6.3485   -4.6011    0.0000 C   0  0  0  0  0  0  0  0  0  0  0  0
    7.6823   -4.6011    0.0000 C   0  0  0  0  0  0  0  0  0  0  0  0
    8.3337   -5.7591    0.0000 C   0  0  0  0  0  0  0  0  0  0  0  0
    7.6823   -6.9068    0.0000 C   0  0  0  0  0  0  0  0  0  0  0  0
    9.6675   -5.7591    0.0000 O   0  0  0  0  0  0  0  0  0  0  0  0
   10.3395   -4.6011    0.0000 C   0  0  0  0  0  0  0  0  0  0  0  0
    9.6675   -3.4431    0.0000 C   0  0  0  0  0  0  0  0  0  0  0  0
   10.3395   -2.3057    0.0000 O   0  0  0  0  0  0  0  0  0  0  0  0
    8.3337   -3.4431    0.0000 N   0  0  0  0  0  0  0  0  0  0  0  0
    7.6823   -2.3057    0.0000 C   0  0  0  0  0  0  0  0  0  0  0  0
    8.3337   -1.1580    0.0000 C   0  0  0  0  0  0  0  0  0  0  0  0
    9.0057    0.0000    0.0000 C   0  0  0  0  0  0  0  0  0  0  0  0
    4.3426   -5.7591    0.0000 N   0  0  0  0  0  0  0  0  0  0  0  0
    3.5775   -4.6838    0.0000 C   0  0  0  0  0  0  0  0  0  0  0  0
    3.9704   -3.4120    0.0000 O   0  0  0  0  0  0  0  0  0  0  0  0
    2.3057   -5.0974    0.0000 C   0  0  0  0  0  0  0  0  0  0  0  0
    2.3057   -6.4312    0.0000 C   0  0  0  0  0  0  0  0  0  0  0  0
    3.5775   -6.8344    0.0000 C   0  0  0  0  0  0  0  0  0  0  0  0
    3.9704   -8.0958    0.0000 O   0  0  0  0  0  0  0  0  0  0  0  0
    1.1580   -7.0826    0.0000 C   0  0  0  0  0  0  0  0  0  0  0  0
    0.0000   -6.4312    0.0000 C   0  0  0  0  0  0  0  0  0  0  0  0
    0.0000   -5.0974    0.0000 C   0  0  0  0  0  0  0  0  0  0  0  0
    1.1580   -4.4253    0.0000 C   0  0  0  0  0  0  0  0  0  0  0  0
  1  2  1  0  0  0  0
  2  3  1  0  0  0  0
  2  7  2  0  0  0  0
  3  4  2  0  0  0  0
  3 16  1  0  0  0  0
  4  5  1  0  0  0  0
  5  6  2  0  0  0  0
  5 12  1  0  0  0  0
  6  7  1  0  0  0  0
  6  8  1  0  0  0  0
  8  9  1  0  0  0  0
  9 10  1  0  0  0  0
 10 11  2  0  0  0  0
 10 12  1  0  0  0  0
 12 13  1  0  0  0  0
 13 14  1  0  0  0  0
 14 15  3  0  0  0  0
 16 17  1  0  0  0  0
 16 21  1  0  0  0  0
 17 18  2  0  0  0  0
 17 19  1  0  0  0  0
 19 20  2  0  0  0  0
 19 26  1  0  0  0  0
 20 21  1  0  0  0  0
 20 23  1  0  0  0  0
 21 22  2  0  0  0  0
 23 24  1  0  0  0  0
 24 25  1  0  0  0  0
 25 26  1  0  0  0  0
M  END
> <ID>
6517

> <Formula>
C19H15FN2O4

> <FW>
354.3318

> <DSSTox_CID>
12555

> <DSSTox_RID>
78984

> <DSSTox_GSID>
32555

> <DSSTox_FileID_Sort>
3666

> <TS_ChemName>
Flumioxazin

> <TS_ChemName_Synonyms>
Flumioxazin (V-53482)

> <TS_CASRN>
103361-09-7

> <CASRN_ChemName_Relationship>
primary

> <TS_Description>
single chemical compound

> <ChemNote>


> <STRUCTURE_Shown>
tested chemical

> <STRUCTURE_Formula>
C19H15FN2O4

> <STRUCTURE_MW>
354.3318

> <STRUCTURE_ChemType>
defined organic

> <STRUCTURE_DefinedOrganicForm>
parent

> <STRUCTURE_IUPAC>
2-[7-fluoro-3-oxo-4-(prop-2-yn-1-yl)-3,4-dihydro-2H-1,4-benzoxazin-6-yl]-4,5,6,7-tetrahydro-1H-isoindole-1,3(2H)-dione

> <STRUCTURE_SMILES>
O=C4C=1CCCCC=1C(=O)N4c2cc3c(cc2F)OCC(=O)N3CC#C

> <STRUCTURE_SMILES_Desalt>
O=C4C=1CCCCC=1C(=O)N4c2cc3c(cc2F)OCC(=O)N3CC#C

> <Substance_modify_yyyymmdd>
20080429

$$$$
