103300-74-9
ChemmineR-0915142007XD

 30 32  0  0  1  0  0  0  0  0  1 V2000
    9.5065   -7.5875    0.0000 C   0  0  0  0  0  0  0  0  0  0  0  0
    8.2062   -7.3098    0.0000 N   0  0  0  0  0  0  0  0  0  0  0  0
   10.1756   -6.4387    0.0000 N   0  0  0  0  0  0  0  0  0  0  0  0
    8.0673   -5.9842    0.0000 C   0  0  0  0  0  0  0  0  0  0  0  0
    9.2793   -5.4539    0.0000 C   0  0  0  0  0  0  0  0  0  0  0  0
    3.4466   -1.9947    0.0000 N   0  0  0  0  0  0  0  0  0  0  0  0
    3.4466   -3.3330    0.0000 C   0  0  0  0  0  0  0  0  0  0  0  0
    2.2977   -1.3256    0.0000 C   0  0  0  0  0  0  0  0  0  0  0  0
    2.2977   -3.9895    0.0000 C   0  0  0  0  0  0  0  0  0  0  0  0
    1.1489   -1.9947    0.0000 N   0  0  0  0  0  0  0  0  0  0  0  0
    1.1489   -3.3330    0.0000 C   0  0  0  0  0  0  0  0  0  0  0  0
    0.0000   -1.3256    0.0000 C   0  0  0  0  0  0  0  0  0  0  0  0
    0.0000   -3.9895    0.0000 O   0  0  0  0  0  0  0  0  0  0  0  0
    2.2977    0.0000    0.0000 O   0  0  0  0  0  0  0  0  0  0  0  0
    4.6207   -3.9895    0.0000 C   0  0  0  0  0  0  0  0  0  0  0  0
    5.7696   -3.3330    0.0000 N   0  0  0  0  0  0  0  0  0  0  0  0
    6.9184   -3.9895    0.0000 C   0  0  0  0  0  0  0  0  0  0  0  0
    4.6207   -5.3277    0.0000 O   0  0  0  0  0  0  0  0  0  0  0  0
    8.0673   -3.3330    0.0000 C   0  0  0  0  0  0  0  0  0  0  0  0
    8.0673   -1.9947    0.0000 O   0  0  0  0  0  0  0  0  0  0  0  0
    9.2161   -3.9895    0.0000 N   0  0  0  0  0  0  0  0  0  0  0  0
   10.4281   -3.4466    0.0000 C   0  0  0  0  0  0  0  0  0  0  0  0
    9.3550   -5.3151    0.0000 C   0  0  0  0  0  0  0  0  0  0  0  0
   11.3245   -4.4439    0.0000 C   0  0  0  0  0  0  0  0  0  0  0  0
   10.6554   -5.5928    0.0000 C   0  0  0  0  0  0  0  0  0  0  0  0
   10.0241   -2.1967    0.0000 H   0  0  0  0  0  0  0  0  0  0  0  0
   11.3245   -2.4618    0.0000 C   0  0  0  0  0  0  0  0  0  0  0  0
   10.9079   -1.1867    0.0000 O   0  0  0  0  0  0  0  0  0  0  0  0
   12.6248   -2.7396    0.0000 N   0  0  0  0  0  0  0  0  0  0  0  0
    6.9184   -5.3277    0.0000 C   0  0  0  0  0  0  0  0  0  0  0  0
  1  2  2  0  0  0  0
  1  3  1  0  0  0  0
  2  4  1  0  0  0  0
  3  5  1  0  0  0  0
  4  5  2  0  0  0  0
  4 30  1  0  0  0  0
  6  7  1  0  0  0  0
  6  8  1  0  0  0  0
  7  9  1  0  0  0  0
  7 15  1  6  0  0  0
  8 10  1  0  0  0  0
  8 14  2  0  0  0  0
  9 11  1  0  0  0  0
 10 11  1  0  0  0  0
 10 12  1  0  0  0  0
 11 13  2  0  0  0  0
 15 16  1  0  0  0  0
 15 18  2  0  0  0  0
 16 17  1  0  0  0  0
 17 19  1  0  0  0  0
 17 30  1  6  0  0  0
 19 20  2  0  0  0  0
 19 21  1  0  0  0  0
 21 22  1  0  0  0  0
 21 23  1  0  0  0  0
 22 24  1  0  0  0  0
 22 26  1  1  0  0  0
 22 27  1  0  0  0  0
 23 25  1  0  0  0  0
 24 25  1  0  0  0  0
 27 28  2  0  0  0  0
 27 29  1  0  0  0  0
M  END
> <ID>
9599

> <Formula>
C17H23N7O5

> <FW>
405.4084

> <DSSTox_CID>
23763

> <DSSTox_RID>
80071

> <DSSTox_GSID>
43763

> <DSSTox_FileID_Sort>
4753

> <TS_ChemName>
Taltirelin

> <TS_ChemName_Synonyms>


> <TS_CASRN>
103300-74-9

> <CASRN_ChemName_Relationship>
primary

> <TS_Description>
single chemical compound

> <ChemNote>
stereochem

> <STRUCTURE_Shown>
tested chemical

> <STRUCTURE_Formula>
C17H23N7O5

> <STRUCTURE_MW>
405.4084

> <STRUCTURE_ChemType>
defined organic

> <STRUCTURE_DefinedOrganicForm>
parent

> <STRUCTURE_IUPAC>
N-{[(4S)-1-methyl-2,6-dioxohexahydropyrimidin-4-yl]carbonyl}-L-histidyl-L-prolinamide

> <STRUCTURE_SMILES>
O=C(N)[C@@H]3CCCN3C(=O)[C@H](Cc1cncn1)NC(=O)[C@@H]2CC(=O)N(C)C(=O)N2

> <STRUCTURE_SMILES_Desalt>
O=C(N)[C@@H]3CCCN3C(=O)[C@H](Cc1cncn1)NC(=O)[C@@H]2CC(=O)N(C)C(=O)N2

> <Substance_modify_yyyymmdd>
20081229

$$$$
