10339-55-6
ChemmineR-0915142007XD

 12 11  0  0  0  0  0  0  0  0  1 V2000
    0.0000   -1.3174    0.0000 C   0  0  0  0  0  0  0  0  0  0  0  0
    1.1331   -1.9899    0.0000 C   0  0  0  0  0  0  0  0  0  0  0  0
    2.2663   -1.3174    0.0000 C   0  0  0  0  0  0  0  0  0  0  0  0
    3.4455   -1.9899    0.0000 C   0  0  0  0  0  0  0  0  0  0  0  0
    4.5786   -1.3174    0.0000 C   0  0  0  0  0  0  0  0  0  0  0  0
    5.7394   -1.9899    0.0000 C   0  0  0  0  0  0  0  0  0  0  0  0
    6.8817   -1.3174    0.0000 C   0  0  0  0  0  0  0  0  0  0  0  0
    8.0517   -1.9899    0.0000 C   0  0  0  0  0  0  0  0  0  0  0  0
    9.2125   -1.3174    0.0000 C   0  0  0  0  0  0  0  0  0  0  0  0
    2.2663    0.0000    0.0000 O   0  0  0  0  0  0  0  0  0  0  0  0
    2.2663   -2.6440    0.0000 C   0  0  0  0  0  0  0  0  0  0  0  0
    6.8817    0.0000    0.0000 C   0  0  0  0  0  0  0  0  0  0  0  0
  1  2  2  0  0  0  0
  2  3  1  0  0  0  0
  3  4  1  0  0  0  0
  3 10  1  0  0  0  0
  3 11  1  0  0  0  0
  4  5  1  0  0  0  0
  5  6  1  0  0  0  0
  6  7  2  0  0  0  0
  7  8  1  0  0  0  0
  7 12  1  0  0  0  0
  8  9  1  0  0  0  0
M  END
> <ID>
12557

> <Formula>
C11H20O

> <FW>
168.2759

> <DSSTox_CID>
27415

> <DSSTox_RID>
82329

> <DSSTox_GSID>
47415

> <DSSTox_FileID_Sort>
7010

> <TS_ChemName>
Ethyl linalool

> <TS_ChemName_Synonyms>


> <TS_CASRN>
10339-55-6

> <CASRN_ChemName_Relationship>
primary

> <TS_Description>
single chemical compound

> <ChemNote>
mixture of Z,E isomers

> <STRUCTURE_Shown>
tested chemical

> <STRUCTURE_Formula>
C11H20O

> <STRUCTURE_MW>
168.2759

> <STRUCTURE_ChemType>
defined organic

> <STRUCTURE_DefinedOrganicForm>
parent

> <STRUCTURE_IUPAC>
(6E)-3,7-dimethylnona-1,6-dien-3-ol

> <STRUCTURE_SMILES>
CC(O)(CC\C=C(/C)CC)C=C

> <STRUCTURE_SMILES_Desalt>
CC(O)(CC\C=C(/C)CC)C=C

> <Substance_modify_yyyymmdd>
20100618

$$$$
