103377-41-9
ChemmineR-0915142007XD

 34 38  0  0  0  0  0  0  0  0  1 V2000
   13.3362   -8.8744    0.0000 S   0  0  0  0  0  0  0  0  0  0  0  0
   14.1400   -7.8574    0.0000 C   0  0  0  0  0  0  0  0  0  0  0  0
   13.8611   -6.5451    0.0000 C   0  0  0  0  0  0  0  0  0  0  0  0
   12.6636   -5.9709    0.0000 C   0  0  0  0  0  0  0  0  0  0  0  0
   11.4662   -6.5451    0.0000 C   0  0  0  0  0  0  0  0  0  0  0  0
   11.1709   -7.8574    0.0000 C   0  0  0  0  0  0  0  0  0  0  0  0
   12.0075   -8.8744    0.0000 C   0  0  0  0  0  0  0  0  0  0  0  0
   15.4194   -8.2346    0.0000 C   0  0  0  0  0  0  0  0  0  0  0  0
   16.4037   -7.3160    0.0000 C   0  0  0  0  0  0  0  0  0  0  0  0
   16.1084   -6.0201    0.0000 C   0  0  0  0  0  0  0  0  0  0  0  0
   14.8453   -5.6265    0.0000 C   0  0  0  0  0  0  0  0  0  0  0  0
   10.4983   -5.6265    0.0000 C   0  0  0  0  0  0  0  0  0  0  0  0
    9.2189   -6.0201    0.0000 C   0  0  0  0  0  0  0  0  0  0  0  0
    8.9236   -7.3160    0.0000 C   0  0  0  0  0  0  0  0  0  0  0  0
    9.9078   -8.2346    0.0000 C   0  0  0  0  0  0  0  0  0  0  0  0
   12.6636   -4.6422    0.0000 N   0  0  0  0  0  0  0  0  0  0  0  0
   11.4990   -3.9697    0.0000 C   0  0  0  0  0  0  0  0  0  0  0  0
   11.4990   -2.6410    0.0000 O   0  0  0  0  0  0  0  0  0  0  0  0
   10.3671   -4.6422    0.0000 C   0  0  0  0  0  0  0  0  0  0  0  0
    9.2189   -3.9697    0.0000 C   0  0  0  0  0  0  0  0  0  0  0  0
    8.0542   -4.6422    0.0000 C   0  0  0  0  0  0  0  0  0  0  0  0
    6.9059   -3.9697    0.0000 N   0  0  0  0  0  0  0  0  0  0  0  0
    4.5930   -2.6410    0.0000 N   0  0  0  0  0  0  0  0  0  0  0  0
    5.7577   -1.9848    0.0000 C   0  0  0  0  0  0  0  0  0  0  0  0
    5.7577   -4.6422    0.0000 C   0  0  0  0  0  0  0  0  0  0  0  0
    4.5930   -3.9697    0.0000 C   0  0  0  0  0  0  0  0  0  0  0  0
    6.9059   -2.6410    0.0000 C   0  0  0  0  0  0  0  0  0  0  0  0
    3.4612   -1.9848    0.0000 C   0  0  0  0  0  0  0  0  0  0  0  0
    2.2965   -2.6410    0.0000 C   0  0  0  0  0  0  0  0  0  0  0  0
    3.4612   -0.6561    0.0000 C   0  0  0  0  0  0  0  0  0  0  0  0
    1.1647   -1.9848    0.0000 C   0  0  0  0  0  0  0  0  0  0  0  0
    2.2965    0.0000    0.0000 C   0  0  0  0  0  0  0  0  0  0  0  0
    1.1647   -0.6561    0.0000 C   0  0  0  0  0  0  0  0  0  0  0  0
    0.0000    0.0000    0.0000 F   0  0  0  0  0  0  0  0  0  0  0  0
  1  2  1  0  0  0  0
  1  7  1  0  0  0  0
  2  3  1  0  0  0  0
  2  8  2  0  0  0  0
  3  4  1  0  0  0  0
  3 11  2  0  0  0  0
  4  5  1  0  0  0  0
  4 16  1  0  0  0  0
  5  6  1  0  0  0  0
  5 12  2  0  0  0  0
  6  7  1  0  0  0  0
  6 15  2  0  0  0  0
  8  9  1  0  0  0  0
  9 10  2  0  0  0  0
 10 11  1  0  0  0  0
 12 13  1  0  0  0  0
 13 14  2  0  0  0  0
 14 15  1  0  0  0  0
 16 17  1  0  0  0  0
 17 18  2  0  0  0  0
 17 19  1  0  0  0  0
 19 20  1  0  0  0  0
 20 21  1  0  0  0  0
 21 22  1  0  0  0  0
 22 25  1  0  0  0  0
 22 27  1  0  0  0  0
 23 24  1  0  0  0  0
 23 26  1  0  0  0  0
 23 28  1  0  0  0  0
 24 27  1  0  0  0  0
 25 26  1  0  0  0  0
 28 29  2  0  0  0  0
 28 30  1  0  0  0  0
 29 31  1  0  0  0  0
 30 32  2  0  0  0  0
 31 33  2  0  0  0  0
 32 33  1  0  0  0  0
 33 34  1  0  0  0  0
M  END
> <ID>
13800

> <Formula>
C28H30FN3OS

> <FW>
475.6207

> <DSSTox_CID>
28737

> <DSSTox_RID>
83006

> <DSSTox_GSID>
48811

> <DSSTox_FileID_Sort>
7683

> <TS_ChemName>
Monatepil

> <TS_ChemName_Synonyms>


> <TS_CASRN>
103377-41-9

> <CASRN_ChemName_Relationship>
primary

> <TS_Description>
single chemical compound

> <ChemNote>


> <STRUCTURE_Shown>
tested chemical

> <STRUCTURE_Formula>
C28H30FN3OS

> <STRUCTURE_MW>
475.6207

> <STRUCTURE_ChemType>
defined organic

> <STRUCTURE_DefinedOrganicForm>
parent

> <STRUCTURE_IUPAC>
N-(6,11-dihydrodibenzo[b,e]thiepin-11-yl)-4-[4-(4-fluorophenyl)piperazin-1-yl]butanamide

> <STRUCTURE_SMILES>
Fc1ccc(cc1)N2CCN(CC2)CCCC(=O)NC3c5ccccc5SCc4ccccc34

> <STRUCTURE_SMILES_Desalt>
Fc1ccc(cc1)N2CCN(CC2)CCCC(=O)NC3c5ccccc5SCc4ccccc34

> <Substance_modify_yyyymmdd>
20111204

$$$$
