103420-77-5
ChemmineR-0915142007XD

 31 35  0  0  1  0  0  0  0  0  1 V2000
    3.3363   -4.2896    0.0000 C   0  0  0  0  0  0  0  0  0  0  0  0
    2.3058   -3.4523    0.0000 C   0  0  0  0  0  0  0  0  0  0  0  0
    3.0143   -5.5649    0.0000 C   0  0  0  0  0  0  0  0  0  0  0  0
    4.6245   -3.9804    0.0000 N   0  0  0  0  0  0  0  0  0  0  0  0
    2.3058   -2.1255    0.0000 C   0  0  0  0  0  0  0  0  0  0  0  0
    1.1465   -4.1092    0.0000 C   0  0  0  0  0  0  0  0  0  0  0  0
    4.0062   -6.4794    0.0000 C   0  0  0  0  0  0  0  0  0  0  0  0
    1.7519   -5.9642    0.0000 C   0  0  0  0  0  0  0  0  0  0  0  0
    5.2042   -2.7824    0.0000 C   0  0  0  0  0  0  0  0  0  0  0  0
    3.3363   -1.3010    0.0000 N   0  0  0  0  0  0  0  0  0  0  0  0
    1.1465   -1.4556    0.0000 C   0  0  0  0  0  0  0  0  0  0  0  0
    0.0000   -3.4523    0.0000 C   0  0  0  0  0  0  0  0  0  0  0  0
    3.7228   -7.7547    0.0000 C   0  0  0  0  0  0  0  0  0  0  0  0
    1.4814   -7.2652    0.0000 C   0  0  0  0  0  0  0  0  0  0  0  0
    4.6245   -1.5844    0.0000 C   0  0  0  0  0  0  0  0  0  0  0  0
    6.5310   -2.7824    0.0000 N   0  0  0  0  0  0  0  0  0  0  0  0
    3.0143    0.0000    0.0000 C   0  0  0  0  0  0  0  0  0  0  0  0
    0.0000   -2.1255    0.0000 C   0  0  0  0  0  0  0  0  0  0  0  0
    2.4475   -8.1541    0.0000 C   0  0  0  0  0  0  0  0  0  0  0  0
    5.4618   -0.5281    0.0000 O   0  0  0  0  0  0  0  0  0  0  0  0
    7.2137   -3.9289    0.0000 C   0  0  0  0  0  0  0  0  0  0  0  0
    8.5405   -3.9289    0.0000 C   0  0  0  0  0  0  0  0  0  0  0  0
    6.5310   -5.1011    0.0000 O   0  0  0  0  0  0  0  0  0  0  0  0
    9.3005   -2.8597    0.0000 C   0  0  0  0  0  0  0  0  0  0  0  0
    9.3005   -5.0238    0.0000 N   0  0  0  0  0  0  0  0  0  0  0  0
   10.5758   -3.2848    0.0000 C   0  0  0  0  0  0  0  0  0  0  0  0
   10.5758   -4.6116    0.0000 C   0  0  0  0  0  0  0  0  0  0  0  0
   11.7094   -2.5892    0.0000 C   0  0  0  0  0  0  0  0  0  0  0  0
   11.7094   -5.2557    0.0000 C   0  0  0  0  0  0  0  0  0  0  0  0
   12.8816   -3.2848    0.0000 C   0  0  0  0  0  0  0  0  0  0  0  0
   12.8816   -4.6116    0.0000 C   0  0  0  0  0  0  0  0  0  0  0  0
  1  2  1  0  0  0  0
  1  3  1  0  0  0  0
  1  4  2  0  0  0  0
  2  5  1  0  0  0  0
  2  6  2  0  0  0  0
  3  7  1  0  0  0  0
  3  8  2  0  0  0  0
  4  9  1  0  0  0  0
  5 10  1  0  0  0  0
  5 11  2  0  0  0  0
  6 12  1  0  0  0  0
  7 13  2  0  0  0  0
  8 14  1  0  0  0  0
  9 15  1  0  0  0  0
  9 16  1  1  0  0  0
 10 17  1  0  0  0  0
 10 15  1  0  0  0  0
 11 18  1  0  0  0  0
 12 18  2  0  0  0  0
 13 19  1  0  0  0  0
 14 19  2  0  0  0  0
 15 20  2  0  0  0  0
 16 21  1  0  0  0  0
 21 22  1  0  0  0  0
 21 23  2  0  0  0  0
 22 24  2  0  0  0  0
 22 25  1  0  0  0  0
 24 26  1  0  0  0  0
 25 27  1  0  0  0  0
 26 28  1  0  0  0  0
 26 27  2  0  0  0  0
 27 29  1  0  0  0  0
 28 30  2  0  0  0  0
 29 31  2  0  0  0  0
 30 31  1  0  0  0  0
M  END
> <ID>
11399

> <Formula>
C25H20N4O2

> <FW>
408.4519

> <DSSTox_CID>
26092

> <DSSTox_RID>
81331

> <DSSTox_GSID>
46092

> <DSSTox_FileID_Sort>
6012

> <TS_ChemName>
Devazepide

> <TS_ChemName_Synonyms>


> <TS_CASRN>
103420-77-5

> <CASRN_ChemName_Relationship>
primary

> <TS_Description>
single chemical compound

> <ChemNote>
stereochem; tautomers

> <STRUCTURE_Shown>
tested chemical

> <STRUCTURE_Formula>
C25H20N4O2

> <STRUCTURE_MW>
408.4519

> <STRUCTURE_ChemType>
defined organic

> <STRUCTURE_DefinedOrganicForm>
parent

> <STRUCTURE_IUPAC>
N-[(3S)-1-methyl-2-oxo-5-phenyl-2,3-dihydro-1H-1,4-benzodiazepin-3-yl]-1H-indole-2-carboxamide

> <STRUCTURE_SMILES>
O=C(N[C@H]2N=C(c1ccccc1N(C)C2=O)c3ccccc3)c4cc5ccccc5n4

> <STRUCTURE_SMILES_Desalt>
O=C(N[C@H]2N=C(c1ccccc1N(C)C2=O)c3ccccc3)c4cc5ccccc5n4

> <Substance_modify_yyyymmdd>
20110819

$$$$
