10347-81-6
ChemmineR-0915142007XD

 22 24  0  0  0  0  0  0  0  0  1 V2000
    3.5839   -2.0586    0.0000 C    0  0  0  0  0  0  0  0  0  0  0  0
    2.3920   -2.7588    0.0000 C    0  0  0  0  0  0  0  0  0  0  0  0
    4.7507   -2.7588    0.0000 C    0  0  0  0  0  0  0  0  0  0  0  0
    3.5839   -4.8174    0.0000 C    0  0  0  0  0  0  0  0  0  0  0  0
    4.7507   -4.1173    0.0000 C    0  0  0  0  0  0  0  0  0  0  0  0
    2.3920   -4.1173    0.0000 C    0  0  0  0  0  0  0  0  0  0  0  0
    3.0421   -3.0588    0.0000 C    0  0  0  0  0  0  0  0  0  0  0  0
    3.0421   -3.8673    0.0000 C    0  0  0  0  0  0  0  0  0  0  0  0
    3.5839   -0.7001    0.0000 C    0  0  0  0  0  0  0  0  0  0  0  0
    7.1427    0.0000    0.0000 N    0  0  0  0  0  0  0  0  0  0  0  0
    1.1918   -2.0586    0.0000 C    0  0  0  0  0  0  0  0  0  0  0  0
    5.9426   -2.0586    0.0000 C    0  0  0  0  0  0  0  0  0  0  0  0
    5.9426   -4.8174    0.0000 C    0  0  0  0  0  0  0  0  0  0  0  0
    1.1918   -4.8174    0.0000 C    0  0  0  0  0  0  0  0  0  0  0  0
    5.9426   -0.7001    0.0000 C    0  0  0  0  0  0  0  0  0  0  0  0
    8.3346   -0.7001    0.0000 C    0  0  0  0  0  0  0  0  0  0  0  0
    4.7507    0.0000    0.0000 C    0  0  0  0  0  0  0  0  0  0  0  0
    0.0000   -2.7588    0.0000 C    0  0  0  0  0  0  0  0  0  0  0  0
    0.0000   -4.1173    0.0000 C    0  0  0  0  0  0  0  0  0  0  0  0
    7.1427   -4.1173    0.0000 C    0  0  0  0  0  0  0  0  0  0  0  0
    7.1427   -2.7588    0.0000 C    0  0  0  0  0  0  0  0  0  0  0  0
    1.1085   -0.3834    0.0000 Cl   0  0  0  0  0  0  0  0  0  0  0  0
  1  2  1  0  0  0  0
  1  3  1  0  0  0  0
  1  7  1  0  0  0  0
  1  9  1  0  0  0  0
  2  6  2  0  0  0  0
  2 11  1  0  0  0  0
  3  5  2  0  0  0  0
  3 12  1  0  0  0  0
  4  8  1  0  0  0  0
  4  5  1  0  0  0  0
  4  6  1  0  0  0  0
  5 13  1  0  0  0  0
  6 14  1  0  0  0  0
  7  8  1  0  0  0  0
  9 17  1  0  0  0  0
 10 15  1  0  0  0  0
 10 16  1  0  0  0  0
 11 18  2  0  0  0  0
 12 21  2  0  0  0  0
 13 20  2  0  0  0  0
 14 19  2  0  0  0  0
 15 17  1  0  0  0  0
 18 19  1  0  0  0  0
 20 21  1  0  0  0  0
M  END
> <ID>
10161

> <Formula>
C20H24ClN

> <FW>
313.8643 (277.4033+36.4609)

> <DSSTox_CID>
24507

> <DSSTox_RID>
80277

> <DSSTox_GSID>
44507

> <DSSTox_FileID_Sort>
4959

> <TS_ChemName>
Maprotiline hydrochloride

> <TS_ChemName_Synonyms>
Maprotiline hydrochloride (3-(9,10-Ethanoanthracen-9(10H)-yl)-N-methylpropan-1-amine hydrochloride) (9,10-Ethanoanthracene-9(10H)-propanamine, N-methyl-, hydrochloride)

> <TS_CASRN>
10347-81-6

> <CASRN_ChemName_Relationship>
primary

> <TS_Description>
single chemical compound

> <ChemNote>
parent [10262-69-8]

> <STRUCTURE_Shown>
tested chemical

> <STRUCTURE_Formula>
C20H24ClN

> <STRUCTURE_MW>
313.8643

> <STRUCTURE_ChemType>
defined organic

> <STRUCTURE_DefinedOrganicForm>
complex

> <STRUCTURE_IUPAC>
3-(9,10-ethanoanthracen-9(10H)-yl)-N-methylpropan-1-amine hydrochloride (1:1)

> <STRUCTURE_SMILES>
Cl.CNCCCC24CCC(c1ccccc12)c3ccccc34

> <STRUCTURE_SMILES_Desalt>
CNCCCC24CCC(c1ccccc12)c3ccccc34

> <Substance_modify_yyyymmdd>
20091116

$$$$
