103475-41-8
ChemmineR-0915142007XD

 27 29  0  0  0  0  0  0  0  0  1 V2000
    8.8749  -12.2413    0.0000 C    0  0  0  0  0  0  0  0  0  0  0  0
    7.5406  -12.2413    0.0000 O    0  0  0  0  0  0  0  0  0  0  0  0
    6.8796  -11.0906    0.0000 C    0  0  0  0  0  0  0  0  0  0  0  0
    7.5406   -9.9399    0.0000 C    0  0  0  0  0  0  0  0  0  0  0  0
    6.8796   -8.7892    0.0000 C    0  0  0  0  0  0  0  0  0  0  0  0
    5.5453   -8.7892    0.0000 C    0  0  0  0  0  0  0  0  0  0  0  0
    4.8843   -9.9399    0.0000 C    0  0  0  0  0  0  0  0  0  0  0  0
    5.5453  -11.0906    0.0000 C    0  0  0  0  0  0  0  0  0  0  0  0
    4.8843   -7.6385    0.0000 N    0  0  0  0  0  0  0  0  0  0  0  0
    5.4229   -6.4144    0.0000 N    0  0  0  0  0  0  0  0  0  0  0  0
    4.4313   -5.5330    0.0000 C    0  0  0  0  0  0  0  0  0  0  0  0
    4.5782   -4.2110    0.0000 C    0  0  0  0  0  0  0  0  0  0  0  0
    3.5010   -3.4276    0.0000 C    0  0  0  0  0  0  0  0  0  0  0  0
    3.6357   -2.1055    0.0000 C    0  0  0  0  0  0  0  0  0  0  0  0
    4.8475   -1.5669    0.0000 O    0  0  0  0  0  0  0  0  0  0  0  0
    2.5584   -1.3221    0.0000 N    0  0  0  0  0  0  0  0  0  0  0  0
    2.7053    0.0000    0.0000 C    0  0  0  0  0  0  0  0  0  0  0  0
    1.3465   -1.8607    0.0000 O    0  0  0  0  0  0  0  0  0  0  0  0
    3.2807   -6.1941    0.0000 C    0  0  0  0  0  0  0  0  0  0  0  0
    3.5622   -7.4916    0.0000 C    0  0  0  0  0  0  0  0  0  0  0  0
    2.6686   -8.4832    0.0000 C    0  0  0  0  0  0  0  0  0  0  0  0
    1.3710   -8.2016    0.0000 C    0  0  0  0  0  0  0  0  0  0  0  0
    0.4774   -9.1932    0.0000 C    0  0  0  0  0  0  0  0  0  0  0  0
    0.8936  -10.4540    0.0000 C    0  0  0  0  0  0  0  0  0  0  0  0
    0.0000  -11.4456    0.0000 Cl   0  0  0  0  0  0  0  0  0  0  0  0
    2.1912  -10.7356    0.0000 C    0  0  0  0  0  0  0  0  0  0  0  0
    3.0848   -9.7440    0.0000 C    0  0  0  0  0  0  0  0  0  0  0  0
  1  2  1  0  0  0  0
  2  3  1  0  0  0  0
  3  4  2  0  0  0  0
  3  8  1  0  0  0  0
  4  5  1  0  0  0  0
  5  6  2  0  0  0  0
  6  7  1  0  0  0  0
  6  9  1  0  0  0  0
  7  8  2  0  0  0  0
  9 10  1  0  0  0  0
  9 20  1  0  0  0  0
 10 11  2  0  0  0  0
 11 12  1  0  0  0  0
 11 19  1  0  0  0  0
 12 13  1  0  0  0  0
 13 14  1  0  0  0  0
 14 15  2  0  0  0  0
 14 16  1  0  0  0  0
 16 17  1  0  0  0  0
 16 18  1  0  0  0  0
 19 20  2  0  0  0  0
 20 21  1  0  0  0  0
 21 22  2  0  0  0  0
 21 27  1  0  0  0  0
 22 23  1  0  0  0  0
 23 24  2  0  0  0  0
 24 25  1  0  0  0  0
 24 26  1  0  0  0  0
 26 27  2  0  0  0  0
M  END
> <ID>
16016

> <Formula>
C20H20ClN3O3

> <FW>
385.8441

> <DSSTox_CID>
31399

> <DSSTox_RID>
97285

> <DSSTox_GSID>
57610

> <DSSTox_FileID_Sort>
8352

> <TS_ChemName>
Tepoxalin

> <TS_ChemName_Synonyms>


> <TS_CASRN>
103475-41-8

> <CASRN_ChemName_Relationship>
primary

> <TS_Description>
single chemical compound

> <ChemNote>


> <STRUCTURE_Shown>
tested chemical

> <STRUCTURE_Formula>
C20H20ClN3O3

> <STRUCTURE_MW>
385.8441

> <STRUCTURE_ChemType>
defined organic

> <STRUCTURE_DefinedOrganicForm>
parent

> <STRUCTURE_IUPAC>
3-[5-(4-chlorophenyl)-1-(4-methoxyphenyl)-1H-pyrazol-3-yl]-N-hydroxy-N-methylpropanamide

> <STRUCTURE_SMILES>
CN(O)C(=O)CCc2cc(c1ccc(Cl)cc1)n(n2)c3ccc(OC)cc3

> <STRUCTURE_SMILES_Desalt>
CN(O)C(=O)CCc2cc(c1ccc(Cl)cc1)n(n2)c3ccc(OC)cc3

> <Substance_modify_yyyymmdd>
20131121

$$$$
