103597-45-1
ChemmineR-0915142007XD

 49 54  0  0  0  0  0  0  0  0  1 V2000
    6.7296   -0.6460    0.0000 O   0  0  0  0  0  0  0  0  0  0  0  0
    6.7296   -1.9561    0.0000 C   0  0  0  0  0  0  0  0  0  0  0  0
    5.5990   -2.6021    0.0000 C   0  0  0  0  0  0  0  0  0  0  0  0
    7.8422   -2.6021    0.0000 C   0  0  0  0  0  0  0  0  0  0  0  0
    4.4864   -1.9561    0.0000 N   0  0  0  0  0  0  0  0  0  0  0  0
    5.5990   -3.8763    0.0000 C   0  0  0  0  0  0  0  0  0  0  0  0
    8.9728   -1.9561    0.0000 C   0  0  0  0  0  0  0  0  0  0  0  0
    7.8422   -3.8763    0.0000 C   0  0  0  0  0  0  0  0  0  0  0  0
    3.3558   -2.6021    0.0000 N   0  0  0  0  0  0  0  0  0  0  0  0
    4.4864   -0.6460    0.0000 N   0  0  0  0  0  0  0  0  0  0  0  0
    6.7296   -4.5223    0.0000 C   0  0  0  0  0  0  0  0  0  0  0  0
   10.1034   -2.6021    0.0000 C   0  0  0  0  0  0  0  0  0  0  0  0
    2.2432   -1.9561    0.0000 C   0  0  0  0  0  0  0  0  0  0  0  0
    2.2432   -0.6460    0.0000 C   0  0  0  0  0  0  0  0  0  0  0  0
    6.7296   -5.8144    0.0000 C   0  0  0  0  0  0  0  0  0  0  0  0
   11.2160   -1.9561    0.0000 C   0  0  0  0  0  0  0  0  0  0  0  0
   10.1034   -3.8763    0.0000 C   0  0  0  0  0  0  0  0  0  0  0  0
    1.1126   -2.6021    0.0000 C   0  0  0  0  0  0  0  0  0  0  0  0
    1.1126    0.0000    0.0000 C   0  0  0  0  0  0  0  0  0  0  0  0
    6.7296   -7.1065    0.0000 C   0  0  0  0  0  0  0  0  0  0  0  0
    5.4375   -5.8144    0.0000 C   0  0  0  0  0  0  0  0  0  0  0  0
    8.0217   -5.8144    0.0000 C   0  0  0  0  0  0  0  0  0  0  0  0
   11.2160   -0.6460    0.0000 O   0  0  0  0  0  0  0  0  0  0  0  0
   12.3466   -2.6021    0.0000 C   0  0  0  0  0  0  0  0  0  0  0  0
   11.2160   -4.5223    0.0000 C   0  0  0  0  0  0  0  0  0  0  0  0
    0.0000   -1.9561    0.0000 C   0  0  0  0  0  0  0  0  0  0  0  0
    0.0000   -0.6460    0.0000 C   0  0  0  0  0  0  0  0  0  0  0  0
    5.5990   -7.7705    0.0000 C   0  0  0  0  0  0  0  0  0  0  0  0
   12.3466   -3.8763    0.0000 C   0  0  0  0  0  0  0  0  0  0  0  0
   13.4592   -1.9561    0.0000 N   0  0  0  0  0  0  0  0  0  0  0  0
   11.2160   -5.8144    0.0000 C   0  0  0  0  0  0  0  0  0  0  0  0
    6.2451   -8.8831    0.0000 C   0  0  0  0  0  0  0  0  0  0  0  0
    4.9709   -6.6399    0.0000 C   0  0  0  0  0  0  0  0  0  0  0  0
    4.4864   -8.4165    0.0000 C   0  0  0  0  0  0  0  0  0  0  0  0
   14.5898   -2.6021    0.0000 N   0  0  0  0  0  0  0  0  0  0  0  0
   13.4592   -0.6460    0.0000 N   0  0  0  0  0  0  0  0  0  0  0  0
   11.2160   -7.1065    0.0000 C   0  0  0  0  0  0  0  0  0  0  0  0
   12.5081   -5.8144    0.0000 C   0  0  0  0  0  0  0  0  0  0  0  0
    9.9239   -5.8144    0.0000 C   0  0  0  0  0  0  0  0  0  0  0  0
   15.7024   -1.9561    0.0000 C   0  0  0  0  0  0  0  0  0  0  0  0
   15.7024   -0.6460    0.0000 C   0  0  0  0  0  0  0  0  0  0  0  0
   12.3466   -7.7705    0.0000 C   0  0  0  0  0  0  0  0  0  0  0  0
   16.8330   -2.6021    0.0000 C   0  0  0  0  0  0  0  0  0  0  0  0
   16.8330    0.0000    0.0000 C   0  0  0  0  0  0  0  0  0  0  0  0
   12.9747   -6.6399    0.0000 C   0  0  0  0  0  0  0  0  0  0  0  0
   11.7006   -8.8831    0.0000 C   0  0  0  0  0  0  0  0  0  0  0  0
   13.4592   -8.4165    0.0000 C   0  0  0  0  0  0  0  0  0  0  0  0
   17.9456   -1.9561    0.0000 C   0  0  0  0  0  0  0  0  0  0  0  0
   17.9456   -0.6460    0.0000 C   0  0  0  0  0  0  0  0  0  0  0  0
  1  2  1  0  0  0  0
  2  3  1  0  0  0  0
  2  4  2  0  0  0  0
  3  5  1  0  0  0  0
  3  6  2  0  0  0  0
  4  7  1  0  0  0  0
  4  8  1  0  0  0  0
  5  9  1  0  0  0  0
  5 10  1  0  0  0  0
  6 11  1  0  0  0  0
  7 12  1  0  0  0  0
  8 11  2  0  0  0  0
  9 13  2  0  0  0  0
 10 14  2  0  0  0  0
 11 15  1  0  0  0  0
 12 16  2  0  0  0  0
 12 17  1  0  0  0  0
 13 14  1  0  0  0  0
 13 18  1  0  0  0  0
 14 19  1  0  0  0  0
 15 20  1  0  0  0  0
 15 21  1  0  0  0  0
 15 22  1  0  0  0  0
 16 23  1  0  0  0  0
 16 24  1  0  0  0  0
 17 25  2  0  0  0  0
 18 26  2  0  0  0  0
 19 27  2  0  0  0  0
 20 28  1  0  0  0  0
 24 29  2  0  0  0  0
 24 30  1  0  0  0  0
 25 29  1  0  0  0  0
 25 31  1  0  0  0  0
 26 27  1  0  0  0  0
 28 32  1  0  0  0  0
 28 33  1  0  0  0  0
 28 34  1  0  0  0  0
 30 35  1  0  0  0  0
 30 36  1  0  0  0  0
 31 37  1  0  0  0  0
 31 38  1  0  0  0  0
 31 39  1  0  0  0  0
 35 40  2  0  0  0  0
 36 41  2  0  0  0  0
 37 42  1  0  0  0  0
 40 41  1  0  0  0  0
 40 43  1  0  0  0  0
 41 44  1  0  0  0  0
 42 45  1  0  0  0  0
 42 46  1  0  0  0  0
 42 47  1  0  0  0  0
 43 48  2  0  0  0  0
 44 49  2  0  0  0  0
 48 49  1  0  0  0  0
M  END
> <ID>
11901

> <Formula>
C41H50N6O2

> <FW>
658.8747

> <DSSTox_CID>
26703

> <DSSTox_RID>
81837

> <DSSTox_GSID>
46703

> <DSSTox_FileID_Sort>
6518

> <TS_ChemName>
Bisoctrizole

> <TS_ChemName_Synonyms>


> <TS_CASRN>
103597-45-1

> <CASRN_ChemName_Relationship>
primary

> <TS_Description>
single chemical compound

> <ChemNote>


> <STRUCTURE_Shown>
tested chemical

> <STRUCTURE_Formula>
C41H50N6O2

> <STRUCTURE_MW>
658.8747

> <STRUCTURE_ChemType>
defined organic

> <STRUCTURE_DefinedOrganicForm>
parent

> <STRUCTURE_IUPAC>
2,2'-methanediylbis[6-(2H-benzotriazol-2-yl)-4-(2,4,4-trimethylpentan-2-yl)phenol]

> <STRUCTURE_SMILES>
CC(C)(C)CC(C)(C)c4cc(Cc1cc(cc(c1O)n2nc3ccccc3n2)C(C)(C)CC(C)(C)C)c(O)c(c4)n5nc6ccccc6n5

> <STRUCTURE_SMILES_Desalt>
CC(C)(C)CC(C)(C)c4cc(Cc1cc(cc(c1O)n2nc3ccccc3n2)C(C)(C)CC(C)(C)C)c(O)c(c4)n5nc6ccccc6n5

> <Substance_modify_yyyymmdd>
20110805

$$$$
