103639-04-9
ChemmineR-0915142007XD

 25 25  0  0  0  0  0  0  0  0  1 V2000
    3.9161   -3.0140    0.0000 C    0  0  0  0  0  0  0  0  0  0  0  0
    3.9161   -1.6874    0.0000 C    0  0  0  0  0  0  0  0  0  0  0  0
    2.6426   -1.2629    0.0000 N    0  0  0  0  0  0  0  0  0  0  0  0
    2.6426   -3.4173    0.0000 C    0  0  0  0  0  0  0  0  0  0  0  0
    5.0517   -3.6720    0.0000 C    0  0  0  0  0  0  0  0  0  0  0  0
    1.8572   -2.3454    0.0000 C    0  0  0  0  0  0  0  0  0  0  0  0
    8.5114   -3.0140    0.0000 N    0  0  0  0  0  0  0  0  0  0  0  0
    6.2085   -3.0140    0.0000 C    0  0  0  0  0  0  0  0  0  0  0  0
    8.6600   -1.6874    0.0000 C    0  0  0  0  0  0  0  0  0  0  0  0
    9.9548   -1.4115    0.0000 N    0  0  0  0  0  0  0  0  0  0  0  0
    7.3547   -3.6720    0.0000 C    0  0  0  0  0  0  0  0  0  0  0  0
    5.0517   -1.0082    0.0000 C    0  0  0  0  0  0  0  0  0  0  0  0
   10.6128   -2.5683    0.0000 C    0  0  0  0  0  0  0  0  0  0  0  0
    9.7319   -3.5447    0.0000 C    0  0  0  0  0  0  0  0  0  0  0  0
    6.2085   -1.6874    0.0000 C    0  0  0  0  0  0  0  0  0  0  0  0
    5.0517   -4.9986    0.0000 O    0  0  0  0  0  0  0  0  0  0  0  0
    2.2287    0.0000    0.0000 C    0  0  0  0  0  0  0  0  0  0  0  0
    2.1013   -4.6378    0.0000 C    0  0  0  0  0  0  0  0  0  0  0  0
    0.5306   -2.4834    0.0000 C    0  0  0  0  0  0  0  0  0  0  0  0
    7.6624   -0.7853    0.0000 C    0  0  0  0  0  0  0  0  0  0  0  0
    0.7747   -4.7757    0.0000 C    0  0  0  0  0  0  0  0  0  0  0  0
    0.0000   -3.7039    0.0000 C    0  0  0  0  0  0  0  0  0  0  0  0
    5.6884   -6.0917    0.0000 Cl   0  0  0  0  0  0  0  0  0  0  0  0
    2.7912   -5.9113    0.0000 O    0  0  0  0  0  0  0  0  0  0  0  0
    7.5669   -5.9644    0.0000 O    0  0  0  0  0  0  0  0  0  0  0  0
  1  2  2  0  0  0  0
  1  4  1  0  0  0  0
  1  5  1  0  0  0  0
  2  3  1  0  0  0  0
  2 12  1  0  0  0  0
  3 17  1  0  0  0  0
  3  6  1  0  0  0  0
  4  6  2  0  0  0  0
  4 18  1  0  0  0  0
  5  8  1  0  0  0  0
  5 16  2  0  0  0  0
  6 19  1  0  0  0  0
  7 11  1  0  0  0  0
  7  9  1  0  0  0  0
  7 14  1  0  0  0  0
  8 11  1  0  0  0  0
  8 15  1  0  0  0  0
  9 10  2  0  0  0  0
  9 20  1  0  0  0  0
 10 13  1  0  0  0  0
 12 15  1  0  0  0  0
 13 14  2  0  0  0  0
 18 21  2  0  0  0  0
 19 22  2  0  0  0  0
 21 22  1  0  0  0  0
M  END
> <ID>
13846

> <Formula>
C18H24ClN3O3

> <FW>
365.8545 (293.3630+36.4609+18.0153+18.0153)

> <DSSTox_CID>
28783

> <DSSTox_RID>
83052

> <DSSTox_GSID>
48857

> <DSSTox_FileID_Sort>
7729

> <TS_ChemName>
Ondansetron hydrochloride dihydrate

> <TS_ChemName_Synonyms>
Ondansetron Hydrochloride

> <TS_CASRN>
103639-04-9

> <CASRN_ChemName_Relationship>
primary

> <TS_Description>
single chemical compound

> <ChemNote>


> <STRUCTURE_Shown>
tested chemical

> <STRUCTURE_Formula>
C18H24ClN3O3

> <STRUCTURE_MW>
365.8545

> <STRUCTURE_ChemType>
defined organic

> <STRUCTURE_DefinedOrganicForm>
complex

> <STRUCTURE_IUPAC>
9-methyl-3-[(2-methyl-1H-imidazol-1-yl)methyl]-1,2,3,9-tetrahydro-4H-carbazol-4-one hydrochloride dihydrate

> <STRUCTURE_SMILES>
Cl.O.O.O=C1C(CCc3c1c2ccccc2n3C)Cn4ccnc4C

> <STRUCTURE_SMILES_Desalt>
O=C1C(CCc3c1c2ccccc2n3C)Cn4ccnc4C

> <Substance_modify_yyyymmdd>
20111204

$$$$
