10361-37-2
ChemmineR-0915142007XD

  3  2  0  0  0  0  0  0  0  0  1 V2000
    1.1456    0.0000    0.0000 Ba   0  0  0  0  0  0  0  0  0  0  0  0
    0.0000   -0.6638    0.0000 Cl   0  0  0  0  0  0  0  0  0  0  0  0
    2.3050   -0.6638    0.0000 Cl   0  0  0  0  0  0  0  0  0  0  0  0
  1  2  1  0  0  0  0
  1  3  1  0  0  0  0
M  END
> <ID>
10162

> <Formula>
BaCl2

> <FW>
208.233

> <DSSTox_CID>
24508

> <DSSTox_RID>
80278

> <DSSTox_GSID>
44508

> <DSSTox_FileID_Sort>
4960

> <TS_ChemName>
Barium chloride

> <TS_ChemName_Synonyms>
Barium chloride (BaCl2)

> <TS_CASRN>
10361-37-2

> <CASRN_ChemName_Relationship>
primary

> <TS_Description>
single chemical compound

> <ChemNote>
dihydrate [10326-27-9]

> <STRUCTURE_Shown>
tested chemical

> <STRUCTURE_Formula>
BaCl2

> <STRUCTURE_MW>
208.233

> <STRUCTURE_ChemType>
inorganic

> <STRUCTURE_DefinedOrganicForm>


> <STRUCTURE_IUPAC>
barium dichloride

> <STRUCTURE_SMILES>
Cl[Ba]Cl

> <STRUCTURE_SMILES_Desalt>
Cl[Ba]Cl

> <Substance_modify_yyyymmdd>
20091116

$$$$
