10361-91-8
ChemmineR-0915142007XD

  4  3  0  0  0  0  0  0  0  0  1 V2000
    1.1655   -1.3184    0.0000 Yb   0  0  0  0  0  0  0  0  0  0  0  0
    2.3170   -1.9834    0.0000 Cl   0  0  0  0  0  0  0  0  0  0  0  0
    0.0000   -1.9834    0.0000 Cl   0  0  0  0  0  0  0  0  0  0  0  0
    1.1655    0.0000    0.0000 Cl   0  0  0  0  0  0  0  0  0  0  0  0
  1  2  1  0  0  0  0
  1  3  1  0  0  0  0
  1  4  1  0  0  0  0
M  END
> <ID>
12267

> <Formula>
Cl3Yb

> <FW>
279.399

> <DSSTox_CID>
27117

> <DSSTox_RID>
82126

> <DSSTox_GSID>
47117

> <DSSTox_FileID_Sort>
6807

> <TS_ChemName>
Ytterbium(III) chloride

> <TS_ChemName_Synonyms>


> <TS_CASRN>
10361-91-8

> <CASRN_ChemName_Relationship>
primary

> <TS_Description>
single chemical compound

> <ChemNote>


> <STRUCTURE_Shown>
tested chemical

> <STRUCTURE_Formula>
Cl3Yb

> <STRUCTURE_MW>
279.399

> <STRUCTURE_ChemType>
inorganic

> <STRUCTURE_DefinedOrganicForm>


> <STRUCTURE_IUPAC>
ytterbium(3+) trichloride

> <STRUCTURE_SMILES>
Cl[Yb](Cl)Cl

> <STRUCTURE_SMILES_Desalt>
Cl[Yb](Cl)Cl

> <Substance_modify_yyyymmdd>
20100429

$$$$
