103628-46-2
ChemmineR-0915142007XD

 20 21  0  0  0  0  0  0  0  0  1 V2000
    8.4602   -2.1445    0.0000 C   0  0  0  0  0  0  0  0  0  0  0  0
    7.7886   -3.2875    0.0000 C   0  0  0  0  0  0  0  0  0  0  0  0
    8.4602   -4.4422    0.0000 C   0  0  0  0  0  0  0  0  0  0  0  0
    9.7917   -4.4422    0.0000 S   0  0  0  0  0  0  0  0  0  0  0  0
    9.7917   -5.7737    0.0000 O   0  0  0  0  0  0  0  0  0  0  0  0
    9.7917   -3.1107    0.0000 O   0  0  0  0  0  0  0  0  0  0  0  0
   11.1231   -4.4422    0.0000 N   0  0  0  0  0  0  0  0  0  0  0  0
   11.7830   -3.2875    0.0000 C   0  0  0  0  0  0  0  0  0  0  0  0
    6.4689   -3.2875    0.0000 C   0  0  0  0  0  0  0  0  0  0  0  0
    5.7972   -2.1445    0.0000 C   0  0  0  0  0  0  0  0  0  0  0  0
    6.4689   -0.9898    0.0000 C   0  0  0  0  0  0  0  0  0  0  0  0
    7.7886   -0.9898    0.0000 C   0  0  0  0  0  0  0  0  0  0  0  0
    5.5734    0.0000    0.0000 N   0  0  0  0  0  0  0  0  0  0  0  0
    4.3597   -0.5420    0.0000 C   0  0  0  0  0  0  0  0  0  0  0  0
    4.5011   -1.8617    0.0000 C   0  0  0  0  0  0  0  0  0  0  0  0
    3.5113   -2.7572    0.0000 C   0  0  0  0  0  0  0  0  0  0  0  0
    2.2270   -2.4037    0.0000 C   0  0  0  0  0  0  0  0  0  0  0  0
    1.2843   -3.3464    0.0000 N   0  0  0  0  0  0  0  0  0  0  0  0
    1.6261   -4.6307    0.0000 C   0  0  0  0  0  0  0  0  0  0  0  0
    0.0000   -3.0047    0.0000 C   0  0  0  0  0  0  0  0  0  0  0  0
  1  2  2  0  0  0  0
  1 12  1  0  0  0  0
  2  3  1  0  0  0  0
  2  9  1  0  0  0  0
  3  4  1  0  0  0  0
  4  5  2  0  0  0  0
  4  6  2  0  0  0  0
  4  7  1  0  0  0  0
  7  8  1  0  0  0  0
  9 10  2  0  0  0  0
 10 11  1  0  0  0  0
 10 15  1  0  0  0  0
 11 12  2  0  0  0  0
 11 13  1  0  0  0  0
 13 14  1  0  0  0  0
 14 15  2  0  0  0  0
 15 16  1  0  0  0  0
 16 17  1  0  0  0  0
 17 18  1  0  0  0  0
 18 19  1  0  0  0  0
 18 20  1  0  0  0  0
M  END
> <ID>
3244

> <Formula>
C14H21N3O2S

> <FW>
295.4004

> <DSSTox_CID>
3628

> <DSSTox_RID>
77118

> <DSSTox_GSID>
23628

> <DSSTox_FileID_Sort>
1801

> <TS_ChemName>
Sumatriptan

> <TS_ChemName_Synonyms>


> <TS_CASRN>
103628-46-2

> <CASRN_ChemName_Relationship>
primary

> <TS_Description>
single chemical compound

> <ChemNote>


> <STRUCTURE_Shown>
tested chemical

> <STRUCTURE_Formula>
C14H21N3O2S

> <STRUCTURE_MW>
295.4004

> <STRUCTURE_ChemType>
defined organic

> <STRUCTURE_DefinedOrganicForm>
parent

> <STRUCTURE_IUPAC>
1-{3-[2-(dimethylamino)ethyl]-1H-indol-5-yl}-N-methylmethanesulfonamide

> <STRUCTURE_SMILES>
CNS(=O)(=O)Cc1cc2c(cc1)ncc2CCN(C)C

> <STRUCTURE_SMILES_Desalt>
CNS(=O)(=O)Cc1cc2c(cc1)ncc2CCN(C)C

> <Substance_modify_yyyymmdd>
20080429

$$$$
