103764-33-6
ChemmineR-0915142007XD

 14 14  0  0  0  0  0  0  0  0  1 V2000
    5.7525   -3.3329    0.0000 C   0  0  0  0  0  0  0  0  0  0  0  0
    6.9077   -3.9885    0.0000 O   0  0  0  0  0  0  0  0  0  0  0  0
    4.5973   -3.9885    0.0000 C   0  0  0  0  0  0  0  0  0  0  0  0
    3.4421   -3.3329    0.0000 C   0  0  0  0  0  0  0  0  0  0  0  0
    2.2948   -3.9885    0.0000 O   0  0  0  0  0  0  0  0  0  0  0  0
    1.1552   -3.3329    0.0000 C   0  0  0  0  0  0  0  0  0  0  0  0
    0.0000   -3.9885    0.0000 O   0  0  0  0  0  0  0  0  0  0  0  0
    1.1552   -1.9826    0.0000 C   0  0  0  0  0  0  0  0  0  0  0  0
    2.2948   -1.3269    0.0000 C   0  0  0  0  0  0  0  0  0  0  0  0
    2.2948    0.0000    0.0000 C   0  0  0  0  0  0  0  0  0  0  0  0
    3.4421   -1.9826    0.0000 C   0  0  0  0  0  0  0  0  0  0  0  0
    4.5973   -1.3269    0.0000 C   0  0  0  0  0  0  0  0  0  0  0  0
    5.7525   -1.9826    0.0000 C   0  0  0  0  0  0  0  0  0  0  0  0
    7.8053   -2.1621    0.0000 O   0  0  0  0  0  0  0  0  0  0  0  0
  1  2  1  0  0  0  0
  1  3  2  0  0  0  0
  1 13  1  0  0  0  0
  3  4  1  0  0  0  0
  4  5  1  0  0  0  0
  4 11  2  0  0  0  0
  5  6  1  0  0  0  0
  6  7  2  0  0  0  0
  6  8  1  0  0  0  0
  8  9  2  0  0  0  0
  9 10  1  0  0  0  0
  9 11  1  0  0  0  0
 11 12  1  0  0  0  0
 12 13  2  0  0  0  0
M  END
> <ID>
12133

> <Formula>
C10H10O4

> <FW>
194.1840 (176.1687+18.0153)

> <DSSTox_CID>
26976

> <DSSTox_RID>
82031

> <DSSTox_GSID>
46976

> <DSSTox_FileID_Sort>
6712

> <TS_ChemName>
4-Methylumbelliferone hydrate

> <TS_ChemName_Synonyms>
4-Methylumbelliferone monohydrate

> <TS_CASRN>
103764-33-6

> <CASRN_ChemName_Relationship>
primary

> <TS_Description>
single chemical compound

> <ChemNote>
parent [90-33-5]

> <STRUCTURE_Shown>
tested chemical

> <STRUCTURE_Formula>
C10H10O4

> <STRUCTURE_MW>
194.184

> <STRUCTURE_ChemType>
defined organic

> <STRUCTURE_DefinedOrganicForm>
complex

> <STRUCTURE_IUPAC>
7-hydroxy-4-methyl-2H-chromen-2-one hydrate (1:1)

> <STRUCTURE_SMILES>
O.Oc1ccc2c(c1)OC(=O)C=C2C

> <STRUCTURE_SMILES_Desalt>
Oc1ccc2c(c1)OC(=O)C=C2C

> <Substance_modify_yyyymmdd>
20100205

$$$$
