10373-78-1
ChemmineR-0915142007XD

 12 13  0  0  0  0  0  0  0  0  1 V2000
    2.2428   -2.6050    0.0000 C   0  0  0  0  0  0  0  0  0  0  0  0
    1.1235   -1.9630    0.0000 C   0  0  0  0  0  0  0  0  0  0  0  0
    2.9918   -1.2922    0.0000 C   0  0  0  0  0  0  0  0  0  0  0  0
    1.1235   -0.6543    0.0000 C   0  0  0  0  0  0  0  0  0  0  0  0
    2.2428    0.0000    0.0000 C   0  0  0  0  0  0  0  0  0  0  0  0
    3.3663   -1.9630    0.0000 C   0  0  0  0  0  0  0  0  0  0  0  0
    3.3663   -0.6543    0.0000 C   0  0  0  0  0  0  0  0  0  0  0  0
    0.0000   -2.6050    0.0000 O   0  0  0  0  0  0  0  0  0  0  0  0
    0.0000    0.0000    0.0000 O   0  0  0  0  0  0  0  0  0  0  0  0
    2.2428   -3.8972    0.0000 C   0  0  0  0  0  0  0  0  0  0  0  0
    4.1153   -1.9630    0.0000 C   0  0  0  0  0  0  0  0  0  0  0  0
    4.1153   -0.6543    0.0000 C   0  0  0  0  0  0  0  0  0  0  0  0
  1  2  1  0  0  0  0
  1  3  1  0  0  0  0
  1  6  1  0  0  0  0
  1 10  1  0  0  0  0
  2  4  1  0  0  0  0
  2  8  2  0  0  0  0
  3  5  1  0  0  0  0
  3 11  1  0  0  0  0
  3 12  1  0  0  0  0
  4  9  2  0  0  0  0
  4  5  1  0  0  0  0
  5  7  1  0  0  0  0
  6  7  1  0  0  0  0
M  END
> <ID>
14258

> <Formula>
C10H14O2

> <FW>
166.217

> <DSSTox_CID>
29353

> <DSSTox_RID>
83469

> <DSSTox_GSID>
49394

> <DSSTox_FileID_Sort>
8144

> <TS_ChemName>
(+)Camphorquinone

> <TS_ChemName_Synonyms>


> <TS_CASRN>
10373-78-1

> <CASRN_ChemName_Relationship>
primary

> <TS_Description>
single chemical compound

> <ChemNote>
CASRN for anhydrous salt; stereochem

> <STRUCTURE_Shown>
tested chemical

> <STRUCTURE_Formula>
C10H14O2

> <STRUCTURE_MW>
166.217

> <STRUCTURE_ChemType>
defined organic

> <STRUCTURE_DefinedOrganicForm>
parent

> <STRUCTURE_IUPAC>
1,7,7-trimethylbicyclo[2.2.1]heptane-2,3-dione

> <STRUCTURE_SMILES>
CC2(C)C1CCC2(C)C(=O)C1=O

> <STRUCTURE_SMILES_Desalt>
CC2(C)C1CCC2(C)C(=O)C1=O

> <Substance_modify_yyyymmdd>
20111204

$$$$
