10377-48-7
ChemmineR-0915142007XD

  7  4  0  0  0  0  0  0  0  0  2 V2000
    0.0000   -2.6436    0.0000 Li   0  3  0  0  0  0  0  0  0  0  0  0
    1.6333   -1.3293    0.0000 S    0  0  0  0  0  0  0  0  0  0  0  0
    2.9655   -1.3293    0.0000 O    0  0  0  0  0  0  0  0  0  0  0  0
    1.6333   -2.6585    0.0000 O    0  0  0  0  0  0  0  0  0  0  0  0
    1.6333    0.0000    0.0000 O    0  5  0  0  0  0  0  0  0  0  0  0
    0.3040   -1.3293    0.0000 O    0  5  0  0  0  0  0  0  0  0  0  0
    2.9804   -0.1907    0.0000 Li   0  3  0  0  0  0  0  0  0  0  0  0
  2  3  2  0  0  0  0
  2  4  2  0  0  0  0
  2  5  1  0  0  0  0
  2  6  1  0  0  0  0
M  END
> <ID>
13546

> <Formula>
Li2O4S

> <FW>
109.9446 (6.9405+96.0637+6.9405)

> <DSSTox_CID>
28472

> <DSSTox_RID>
83276

> <DSSTox_GSID>
49201

> <DSSTox_FileID_Sort>
7951

> <TS_ChemName>
Lithium sulfate

> <TS_ChemName_Synonyms>


> <TS_CASRN>
10377-48-7

> <CASRN_ChemName_Relationship>
primary

> <TS_Description>
single chemical compound

> <ChemNote>


> <STRUCTURE_Shown>
tested chemical

> <STRUCTURE_Formula>
Li2O4S

> <STRUCTURE_MW>
109.9446

> <STRUCTURE_ChemType>
inorganic

> <STRUCTURE_DefinedOrganicForm>


> <STRUCTURE_IUPAC>
dilithium sulfate

> <STRUCTURE_SMILES>
[Li+].[Li+].[O-]S([O-])(=O)=O

> <STRUCTURE_SMILES_Desalt>
O=S(=O)(O)O

> <Substance_modify_yyyymmdd>
20111204

$$$$
