103725-47-9
ChemmineR-0915142007XD

 25 25  0  0  0  0  0  0  0  0  1 V2000
    2.2811   -2.0236    0.0000 C   0  0  0  0  0  0  0  0  0  0  0  0
    2.2811   -3.3481    0.0000 C   0  0  0  0  0  0  0  0  0  0  0  0
    1.1406   -1.3613    0.0000 C   0  0  0  0  0  0  0  0  0  0  0  0
    1.1406   -4.0104    0.0000 C   0  0  0  0  0  0  0  0  0  0  0  0
    0.0000   -2.0236    0.0000 C   0  0  0  0  0  0  0  0  0  0  0  0
    0.0000   -3.3481    0.0000 C   0  0  0  0  0  0  0  0  0  0  0  0
    3.4401   -1.3613    0.0000 C   0  0  0  0  0  0  0  0  0  0  0  0
    3.4401    0.0000    0.0000 O   0  0  0  0  0  0  0  0  0  0  0  0
    4.5807   -2.0236    0.0000 S   0  0  0  0  0  0  0  0  0  0  0  0
    5.7397   -1.3613    0.0000 C   0  0  0  0  0  0  0  0  0  0  0  0
    6.8802   -2.0236    0.0000 C   0  0  0  0  0  0  0  0  0  0  0  0
    6.8802   -3.3481    0.0000 O   0  0  0  0  0  0  0  0  0  0  0  0
    8.0392   -1.3613    0.0000 N   0  0  0  0  0  0  0  0  0  0  0  0
    9.1798   -2.0236    0.0000 C   0  0  0  0  0  0  0  0  0  0  0  0
   10.3571   -1.3613    0.0000 C   0  0  0  0  0  0  0  0  0  0  0  0
   10.3571    0.0000    0.0000 O   0  0  0  0  0  0  0  0  0  0  0  0
   11.4977   -2.0236    0.0000 N   0  0  0  0  0  0  0  0  0  0  0  0
   12.6567   -1.3613    0.0000 C   0  0  0  0  0  0  0  0  0  0  0  0
   13.7973   -2.0236    0.0000 C   0  0  0  0  0  0  0  0  0  0  0  0
   13.7973   -3.3481    0.0000 O   0  0  0  0  0  0  0  0  0  0  0  0
   14.9562   -1.3613    0.0000 N   0  0  0  0  0  0  0  0  0  0  0  0
   16.0968   -2.0236    0.0000 C   0  0  0  0  0  0  0  0  0  0  0  0
   17.2558   -1.3613    0.0000 C   0  0  0  0  0  0  0  0  0  0  0  0
   17.2558    0.0000    0.0000 O   0  0  0  0  0  0  0  0  0  0  0  0
   18.3963   -2.0236    0.0000 O   0  0  0  0  0  0  0  0  0  0  0  0
  1  2  1  0  0  0  0
  1  3  2  0  0  0  0
  1  7  1  0  0  0  0
  2  4  2  0  0  0  0
  3  5  1  0  0  0  0
  4  6  1  0  0  0  0
  5  6  2  0  0  0  0
  7  8  2  0  0  0  0
  7  9  1  0  0  0  0
  9 10  1  0  0  0  0
 10 11  1  0  0  0  0
 11 12  2  0  0  0  0
 11 13  1  0  0  0  0
 13 14  1  0  0  0  0
 14 15  1  0  0  0  0
 15 16  2  0  0  0  0
 15 17  1  0  0  0  0
 17 18  1  0  0  0  0
 18 19  1  0  0  0  0
 19 20  2  0  0  0  0
 19 21  1  0  0  0  0
 21 22  1  0  0  0  0
 22 23  1  0  0  0  0
 23 24  2  0  0  0  0
 23 25  1  0  0  0  0
M  END
> <ID>
13777

> <Formula>
C15H17N3O6S

> <FW>
367.377

> <DSSTox_CID>
28714

> <DSSTox_RID>
82983

> <DSSTox_GSID>
48788

> <DSSTox_FileID_Sort>
7660

> <TS_ChemName>
Betiatide

> <TS_ChemName_Synonyms>
BENZOYLMERCAPTOACETYLGLYCYLGLYCYLGLYCINE (Betiatide)

> <TS_CASRN>
103725-47-9

> <CASRN_ChemName_Relationship>
primary

> <TS_Description>
single chemical compound

> <ChemNote>


> <STRUCTURE_Shown>
tested chemical

> <STRUCTURE_Formula>
C15H17N3O6S

> <STRUCTURE_MW>
367.377

> <STRUCTURE_ChemType>
defined organic

> <STRUCTURE_DefinedOrganicForm>
parent

> <STRUCTURE_IUPAC>
N-[(benzoylsulfanyl)acetyl]glycylglycylglycine

> <STRUCTURE_SMILES>
O=C(O)CNC(=O)CNC(=O)CNC(=O)CSC(=O)c1ccccc1

> <STRUCTURE_SMILES_Desalt>
O=C(O)CNC(=O)CNC(=O)CNC(=O)CSC(=O)c1ccccc1

> <Substance_modify_yyyymmdd>
20111204

$$$$
