103766-25-2
ChemmineR-0915142007XD

  9  9  0  0  0  0  0  0  0  0  1 V2000
    4.6099   -2.6553    0.0000 O    0  0  0  0  0  0  0  0  0  0  0  0
    3.4574   -2.0007    0.0000 C    0  0  0  0  0  0  0  0  0  0  0  0
    2.3049   -2.6553    0.0000 C    0  0  0  0  0  0  0  0  0  0  0  0
    1.1525   -2.0007    0.0000 C    0  0  0  0  0  0  0  0  0  0  0  0
    1.1525   -0.6546    0.0000 C    0  0  0  0  0  0  0  0  0  0  0  0
    0.0000    0.0000    0.0000 Cl   0  0  0  0  0  0  0  0  0  0  0  0
    2.3049    0.0000    0.0000 C    0  0  0  0  0  0  0  0  0  0  0  0
    3.4574   -0.6546    0.0000 N    0  0  0  0  0  0  0  0  0  0  0  0
    0.0000   -2.6553    0.0000 O    0  0  0  0  0  0  0  0  0  0  0  0
  1  2  2  0  0  0  0
  2  3  1  0  0  0  0
  2  8  1  0  0  0  0
  3  4  2  0  0  0  0
  4  5  1  0  0  0  0
  4  9  1  0  0  0  0
  5  6  1  0  0  0  0
  5  7  2  0  0  0  0
  7  8  1  0  0  0  0
M  END
> <ID>
11978

> <Formula>
C5H4ClNO2

> <FW>
145.5438

> <DSSTox_CID>
26799

> <DSSTox_RID>
81914

> <DSSTox_GSID>
46799

> <DSSTox_FileID_Sort>
6595

> <TS_ChemName>
Gimeracil

> <TS_ChemName_Synonyms>


> <TS_CASRN>
103766-25-2

> <CASRN_ChemName_Relationship>
primary

> <TS_Description>
single chemical compound

> <ChemNote>
tautomers

> <STRUCTURE_Shown>
tested chemical

> <STRUCTURE_Formula>
C5H4ClNO2

> <STRUCTURE_MW>
145.5438

> <STRUCTURE_ChemType>
defined organic

> <STRUCTURE_DefinedOrganicForm>
parent

> <STRUCTURE_IUPAC>
5-chloro-4-hydroxypyridin-2(1H)-one

> <STRUCTURE_SMILES>
ClC1=CNC(=O)C=C1O

> <STRUCTURE_SMILES_Desalt>
ClC1=CNC(=O)C=C1O

> <Substance_modify_yyyymmdd>
20110802

$$$$
