103775-14-0
ChemmineR-0915142007XD

 37 39  0  0  1  0  0  0  0  0  1 V2000
    2.6696  -13.0227    0.0000 C   0  0  0  0  0  0  0  0  0  0  0  0
    2.0055  -11.8637    0.0000 O   0  0  0  0  0  0  0  0  0  0  0  0
    2.6696  -10.7046    0.0000 C   0  0  0  0  0  0  0  0  0  0  0  0
    3.9980  -10.7046    0.0000 C   0  0  0  0  0  0  0  0  0  0  0  0
    4.6751   -9.5717    0.0000 C   0  0  0  0  0  0  0  0  0  0  0  0
    3.9980   -8.4127    0.0000 C   0  0  0  0  0  0  0  0  0  0  0  0
    4.6751   -7.2536    0.0000 C   0  0  0  0  0  0  0  0  0  0  0  0
    5.9904   -7.2536    0.0000 N   0  0  0  0  0  0  0  0  0  0  0  0
    6.6416   -8.4127    0.0000 C   0  0  0  0  0  0  0  0  0  0  0  0
    7.8006   -7.7615    0.0000 H   0  0  0  0  0  0  0  0  0  0  0  0
    6.0035   -9.5586    0.0000 C   0  0  0  0  0  0  0  0  0  0  0  0
    7.8006   -9.0898    0.0000 C   0  0  0  0  0  0  0  0  0  0  0  0
    8.9596   -8.4127    0.0000 O   0  0  0  0  0  0  0  0  0  0  0  0
    7.8006  -10.4181    0.0000 O   0  0  0  0  0  0  0  0  0  0  0  0
    6.6416   -6.1076    0.0000 C   0  0  0  0  0  0  0  0  0  0  0  0
    7.9829   -6.1076    0.0000 O   0  0  0  0  0  0  0  0  0  0  0  0
    5.9904   -4.9616    0.0000 C   0  0  0  0  0  0  0  0  0  0  0  0
    4.8314   -5.6258    0.0000 H   0  0  0  0  0  0  0  0  0  0  0  0
    7.1495   -4.2845    0.0000 C   0  0  0  0  0  0  0  0  0  0  0  0
    5.3263   -3.8026    0.0000 N   0  0  0  0  0  0  0  0  0  0  0  0
    5.9904   -2.6436    0.0000 C   0  0  0  0  0  0  0  0  0  0  0  0
    7.1495   -3.3208    0.0000 H   0  0  0  0  0  0  0  0  0  0  0  0
    4.8314   -1.9925    0.0000 C   0  0  0  0  0  0  0  0  0  0  0  0
    3.6984   -2.6436    0.0000 C   0  0  0  0  0  0  0  0  0  0  0  0
    2.5394   -1.9925    0.0000 C   0  0  0  0  0  0  0  0  0  0  0  0
    2.5394   -0.6642    0.0000 C   0  0  0  0  0  0  0  0  0  0  0  0
    1.3804    0.0000    0.0000 C   0  0  0  0  0  0  0  0  0  0  0  0
    0.2344   -0.6642    0.0000 C   0  0  0  0  0  0  0  0  0  0  0  0
    0.2344   -1.9925    0.0000 C   0  0  0  0  0  0  0  0  0  0  0  0
    1.3934   -2.6436    0.0000 C   0  0  0  0  0  0  0  0  0  0  0  0
    6.6676   -1.4976    0.0000 C   0  0  0  0  0  0  0  0  0  0  0  0
    7.9959   -1.4976    0.0000 O   0  0  0  0  0  0  0  0  0  0  0  0
    5.9904   -0.3516    0.0000 O   0  0  0  0  0  0  0  0  0  0  0  0
    2.6696   -8.4127    0.0000 C   0  0  0  0  0  0  0  0  0  0  0  0
    2.0055   -9.5717    0.0000 C   0  0  0  0  0  0  0  0  0  0  0  0
    0.6772   -9.5717    0.0000 O   0  0  0  0  0  0  0  0  0  0  0  0
    0.0000   -8.4127    0.0000 C   0  0  0  0  0  0  0  0  0  0  0  0
  1  2  1  0  0  0  0
  2  3  1  0  0  0  0
  3  4  2  0  0  0  0
  3 35  1  0  0  0  0
  4  5  1  0  0  0  0
  5  6  2  0  0  0  0
  5 11  1  0  0  0  0
  6  7  1  0  0  0  0
  6 34  1  0  0  0  0
  7  8  1  0  0  0  0
  8  9  1  0  0  0  0
  8 15  1  0  0  0  0
  9 10  1  1  0  0  0
  9 11  1  0  0  0  0
  9 12  1  0  0  0  0
 12 13  1  0  0  0  0
 12 14  2  0  0  0  0
 15 16  2  0  0  0  0
 15 17  1  0  0  0  0
 17 18  1  6  0  0  0
 17 19  1  0  0  0  0
 17 20  1  0  0  0  0
 20 21  1  0  0  0  0
 21 22  1  6  0  0  0
 21 23  1  0  0  0  0
 21 31  1  0  0  0  0
 23 24  1  0  0  0  0
 24 25  1  0  0  0  0
 25 26  2  0  0  0  0
 25 30  1  0  0  0  0
 26 27  1  0  0  0  0
 27 28  2  0  0  0  0
 28 29  1  0  0  0  0
 29 30  2  0  0  0  0
 31 32  1  0  0  0  0
 31 33  2  0  0  0  0
 34 35  2  0  0  0  0
 35 36  1  0  0  0  0
 36 37  1  0  0  0  0
M  END
> <ID>
16017

> <Formula>
C25H30N2O7

> <FW>
470.5149

> <DSSTox_CID>
31400

> <DSSTox_RID>
97286

> <DSSTox_GSID>
57611

> <DSSTox_FileID_Sort>
8353

> <TS_ChemName>
Moexiprilat

> <TS_ChemName_Synonyms>


> <TS_CASRN>
103775-14-0

> <CASRN_ChemName_Relationship>
primary

> <TS_Description>
single chemical compound

> <ChemNote>


> <STRUCTURE_Shown>
tested chemical

> <STRUCTURE_Formula>
C25H30N2O7

> <STRUCTURE_MW>
470.5149

> <STRUCTURE_ChemType>
defined organic

> <STRUCTURE_DefinedOrganicForm>
parent

> <STRUCTURE_IUPAC>
(3S)-2-{N-[(1S)-1-carboxy-3-phenylpropyl]-L-alanyl}-6,7-dimethoxy-1,2,3,4-tetrahydroisoquinoline-3-carboxylic acid

> <STRUCTURE_SMILES>
O=C(O)[C@H](CCc1ccccc1)N[C@@H](C)C(=O)N2Cc3cc(OC)c(OC)cc3C[C@H]2C(=O)O

> <STRUCTURE_SMILES_Desalt>
O=C(O)[C@H](CCc1ccccc1)N[C@@H](C)C(=O)N2Cc3cc(OC)c(OC)cc3C[C@H]2C(=O)O

> <Substance_modify_yyyymmdd>
20131018

$$$$
