1038-59-1
ChemmineR-0915142007XD

 22 23  0  0  0  0  0  0  0  0  1 V2000
    0.0000   -1.3846    0.0000 C   0  0  0  0  0  0  0  0  0  0  0  0
    1.1318   -2.0468    0.0000 C   0  0  0  0  0  0  0  0  0  0  0  0
    2.2997   -1.3846    0.0000 C   0  0  0  0  0  0  0  0  0  0  0  0
    3.4435   -2.0468    0.0000 C   0  0  0  0  0  0  0  0  0  0  0  0
    3.4435   -3.3833    0.0000 C   0  0  0  0  0  0  0  0  0  0  0  0
    2.2997   -4.0575    0.0000 C   0  0  0  0  0  0  0  0  0  0  0  0
    1.1318   -3.3833    0.0000 C   0  0  0  0  0  0  0  0  0  0  0  0
    4.5993   -4.0575    0.0000 S   0  0  0  0  0  0  0  0  0  0  0  0
    3.9371   -5.1893    0.0000 O   0  0  0  0  0  0  0  0  0  0  0  0
    5.7431   -4.7077    0.0000 O   0  0  0  0  0  0  0  0  0  0  0  0
    5.2736   -2.8896    0.0000 N   0  0  0  0  0  0  0  0  0  0  0  0
    6.5980   -2.8896    0.0000 C   0  0  0  0  0  0  0  0  0  0  0  0
    7.2482   -4.0575    0.0000 O   0  0  0  0  0  0  0  0  0  0  0  0
    7.2482   -1.7458    0.0000 N   0  0  0  0  0  0  0  0  0  0  0  0
    8.5846   -1.7458    0.0000 C   0  0  0  0  0  0  0  0  0  0  0  0
    9.0783   -0.5177    0.0000 C   0  0  0  0  0  0  0  0  0  0  0  0
   10.3064    0.0000    0.0000 C   0  0  0  0  0  0  0  0  0  0  0  0
   11.5465   -0.5177    0.0000 C   0  0  0  0  0  0  0  0  0  0  0  0
   12.0401   -1.7458    0.0000 C   0  0  0  0  0  0  0  0  0  0  0  0
   11.5465   -2.9739    0.0000 C   0  0  0  0  0  0  0  0  0  0  0  0
   10.3064   -3.4796    0.0000 C   0  0  0  0  0  0  0  0  0  0  0  0
    9.0783   -2.9739    0.0000 C   0  0  0  0  0  0  0  0  0  0  0  0
  1  2  1  0  0  0  0
  2  3  2  0  0  0  0
  2  7  1  0  0  0  0
  3  4  1  0  0  0  0
  4  5  2  0  0  0  0
  5  6  1  0  0  0  0
  5  8  1  0  0  0  0
  6  7  2  0  0  0  0
  8  9  2  0  0  0  0
  8 10  2  0  0  0  0
  8 11  1  0  0  0  0
 11 12  1  0  0  0  0
 12 13  2  0  0  0  0
 12 14  1  0  0  0  0
 14 15  1  0  0  0  0
 15 16  1  0  0  0  0
 15 22  1  0  0  0  0
 16 17  1  0  0  0  0
 17 18  1  0  0  0  0
 18 19  1  0  0  0  0
 19 20  1  0  0  0  0
 20 21  1  0  0  0  0
 21 22  1  0  0  0  0
M  END
> <ID>
11641

> <Formula>
C16H24N2O3S

> <FW>
324.4384

> <DSSTox_CID>
26394

> <DSSTox_RID>
81574

> <DSSTox_GSID>
46394

> <DSSTox_FileID_Sort>
6255

> <TS_ChemName>
Glyoctamide

> <TS_ChemName_Synonyms>


> <TS_CASRN>
1038-59-1

> <CASRN_ChemName_Relationship>
primary

> <TS_Description>
single chemical compound

> <ChemNote>


> <STRUCTURE_Shown>
tested chemical

> <STRUCTURE_Formula>
C16H24N2O3S

> <STRUCTURE_MW>
324.4384

> <STRUCTURE_ChemType>
defined organic

> <STRUCTURE_DefinedOrganicForm>
parent

> <STRUCTURE_IUPAC>
N-(cyclooctylcarbamoyl)-4-methylbenzenesulfonamide

> <STRUCTURE_SMILES>
Cc1ccc(cc1)S(=O)(=O)NC(=O)NC2CCCCCCC2

> <STRUCTURE_SMILES_Desalt>
Cc1ccc(cc1)S(=O)(=O)NC(=O)NC2CCCCCCC2

> <Substance_modify_yyyymmdd>
20110814

$$$$
