103878-83-7
ChemmineR-0915142007XD

 14 13  0  0  0  0  0  0  0  0  1 V2000
    1.9944   -2.3019    0.0000 C    0  0  0  0  0  0  0  0  0  0  0  0
    1.3234   -1.1463    0.0000 C    0  0  0  0  0  0  0  0  0  0  0  0
    1.9944    0.0000    0.0000 C    0  0  0  0  0  0  0  0  0  0  0  0
    3.3177    0.0000    0.0000 C    0  0  0  0  0  0  0  0  0  0  0  0
    3.9701   -1.1463    0.0000 C    0  0  0  0  0  0  0  0  0  0  0  0
    3.3177   -2.3019    0.0000 N    0  0  0  0  0  0  0  0  0  0  0  0
    0.0000   -1.1463    0.0000 Cl   0  0  0  0  0  0  0  0  0  0  0  0
    5.3121   -1.1463    0.0000 C    0  0  0  0  0  0  0  0  0  0  0  0
    5.9831   -2.3019    0.0000 N    0  0  0  0  0  0  0  0  0  0  0  0
    5.9831    0.0000    0.0000 O    0  0  0  0  0  0  0  0  0  0  0  0
    7.3251   -2.3019    0.0000 C    0  0  0  0  0  0  0  0  0  0  0  0
    7.9774   -3.4482    0.0000 C    0  0  0  0  0  0  0  0  0  0  0  0
    9.3194   -3.4482    0.0000 N    0  0  0  0  0  0  0  0  0  0  0  0
    8.3782   -0.8667    0.0000 Cl   0  0  0  0  0  0  0  0  0  0  0  0
  1  2  2  0  0  0  0
  1  6  1  0  0  0  0
  2  7  1  0  0  0  0
  2  3  1  0  0  0  0
  3  4  2  0  0  0  0
  4  5  1  0  0  0  0
  5  8  1  0  0  0  0
  5  6  2  0  0  0  0
  8  9  1  0  0  0  0
  8 10  2  0  0  0  0
  9 11  1  0  0  0  0
 11 12  1  0  0  0  0
 12 13  1  0  0  0  0
M  END
> <ID>
11932

> <Formula>
C8H11Cl2N3O

> <FW>
236.0984 (199.6375+36.4609)

> <DSSTox_CID>
26739

> <DSSTox_RID>
81868

> <DSSTox_GSID>
46739

> <DSSTox_FileID_Sort>
6549

> <TS_ChemName>
Lazabemide hydrochloride

> <TS_ChemName_Synonyms>


> <TS_CASRN>
103878-83-7

> <CASRN_ChemName_Relationship>
primary

> <TS_Description>
single chemical compound

> <ChemNote>
parent [103878-84-8]

> <STRUCTURE_Shown>
tested chemical

> <STRUCTURE_Formula>
C8H11Cl2N3O

> <STRUCTURE_MW>
236.0984

> <STRUCTURE_ChemType>
defined organic

> <STRUCTURE_DefinedOrganicForm>
complex

> <STRUCTURE_IUPAC>
N-(2-aminoethyl)-5-chloropyridine-2-carboxamide hydrochloride (1:1)

> <STRUCTURE_SMILES>
Cl.Clc1cnc(cc1)C(=O)NCCN

> <STRUCTURE_SMILES_Desalt>
Clc1cnc(cc1)C(=O)NCCN

> <Substance_modify_yyyymmdd>
20110803

$$$$
