103890-78-4
ChemmineR-0915142007XD

 33 34  0  0  0  0  0  0  0  0  1 V2000
    4.5096   -5.6167    0.0000 C   0  0  0  0  0  0  0  0  0  0  0  0
    4.5096   -6.9129    0.0000 C   0  0  0  0  0  0  0  0  0  0  0  0
    5.6437   -7.5744    0.0000 N   0  0  0  0  0  0  0  0  0  0  0  0
    6.7508   -6.9129    0.0000 C   0  0  0  0  0  0  0  0  0  0  0  0
    6.7508   -5.6167    0.0000 C   0  0  0  0  0  0  0  0  0  0  0  0
    5.6437   -4.9551    0.0000 C   0  0  0  0  0  0  0  0  0  0  0  0
    7.8580   -4.9551    0.0000 C   0  0  0  0  0  0  0  0  0  0  0  0
    8.9921   -5.6032    0.0000 O   0  0  0  0  0  0  0  0  0  0  0  0
    7.8580   -3.6725    0.0000 O   0  0  0  0  0  0  0  0  0  0  0  0
   10.0993   -4.9551    0.0000 C   0  0  0  0  0  0  0  0  0  0  0  0
   11.2334   -5.6032    0.0000 C   0  0  0  0  0  0  0  0  0  0  0  0
    7.8580   -7.5744    0.0000 C   0  0  0  0  0  0  0  0  0  0  0  0
    3.3889   -4.9551    0.0000 C   0  0  0  0  0  0  0  0  0  0  0  0
    2.2548   -5.6032    0.0000 O   0  0  0  0  0  0  0  0  0  0  0  0
    3.3889   -3.6860    0.0000 O   0  0  0  0  0  0  0  0  0  0  0  0
    1.1476   -4.9551    0.0000 C   0  0  0  0  0  0  0  0  0  0  0  0
    0.0000   -5.6032    0.0000 C   0  0  0  0  0  0  0  0  0  0  0  0
    3.3889   -7.5744    0.0000 C   0  0  0  0  0  0  0  0  0  0  0  0
    4.4961   -0.6481    0.0000 C   0  0  0  0  0  0  0  0  0  0  0  0
    4.4961   -1.9847    0.0000 C   0  0  0  0  0  0  0  0  0  0  0  0
    5.6437   -2.6598    0.0000 C   0  0  0  0  0  0  0  0  0  0  0  0
    6.7778   -1.9847    0.0000 C   0  0  0  0  0  0  0  0  0  0  0  0
    6.7778   -0.6481    0.0000 C   0  0  0  0  0  0  0  0  0  0  0  0
    5.6437    0.0000    0.0000 C   0  0  0  0  0  0  0  0  0  0  0  0
    7.8850   -2.6463    0.0000 C   0  0  0  0  0  0  0  0  0  0  0  0
    9.0056   -1.9847    0.0000 C   0  0  0  0  0  0  0  0  0  0  0  0
   10.1128   -2.6463    0.0000 C   0  0  0  0  0  0  0  0  0  0  0  0
   11.2469   -1.9712    0.0000 O   0  0  0  0  0  0  0  0  0  0  0  0
   10.1128   -3.9290    0.0000 O   0  0  0  0  0  0  0  0  0  0  0  0
   12.3675   -2.6193    0.0000 C   0  0  0  0  0  0  0  0  0  0  0  0
   11.7465   -3.7265    0.0000 C   0  0  0  0  0  0  0  0  0  0  0  0
   13.5017   -3.2539    0.0000 C   0  0  0  0  0  0  0  0  0  0  0  0
   13.0156   -1.4987    0.0000 C   0  0  0  0  0  0  0  0  0  0  0  0
  1  6  1  0  0  0  0
  1 13  1  0  0  0  0
  1  2  2  0  0  0  0
  2 18  1  0  0  0  0
  2  3  1  0  0  0  0
  3  4  1  0  0  0  0
  4  5  2  0  0  0  0
  4 12  1  0  0  0  0
  5  6  1  0  0  0  0
  5  7  1  0  0  0  0
  6 21  1  0  0  0  0
  7  8  1  0  0  0  0
  7  9  2  0  0  0  0
  8 10  1  0  0  0  0
 10 11  1  0  0  0  0
 13 14  1  0  0  0  0
 13 15  2  0  0  0  0
 14 16  1  0  0  0  0
 16 17  1  0  0  0  0
 19 20  2  0  0  0  0
 19 24  1  0  0  0  0
 20 21  1  0  0  0  0
 21 22  2  0  0  0  0
 22 23  1  0  0  0  0
 22 25  1  0  0  0  0
 23 24  2  0  0  0  0
 25 26  2  0  0  0  0
 26 27  1  0  0  0  0
 27 28  1  0  0  0  0
 27 29  2  0  0  0  0
 28 30  1  0  0  0  0
 30 31  1  0  0  0  0
 30 32  1  0  0  0  0
 30 33  1  0  0  0  0
M  END
> <ID>
11673

> <Formula>
C26H33NO6

> <FW>
455.5433

> <DSSTox_CID>
26429

> <DSSTox_RID>
81607

> <DSSTox_GSID>
46429

> <DSSTox_FileID_Sort>
6288

> <TS_ChemName>
Lacidipine

> <TS_ChemName_Synonyms>


> <TS_CASRN>
103890-78-4

> <CASRN_ChemName_Relationship>
primary

> <TS_Description>
single chemical compound

> <ChemNote>
stereochem; tautomers

> <STRUCTURE_Shown>
tested chemical

> <STRUCTURE_Formula>
C26H33NO6

> <STRUCTURE_MW>
455.5433

> <STRUCTURE_ChemType>
defined organic

> <STRUCTURE_DefinedOrganicForm>
parent

> <STRUCTURE_IUPAC>
diethyl 4-{2-[(1E)-3-tert-butoxy-3-oxoprop-1-en-1-yl]phenyl}-2,6-dimethyl-1,4-dihydropyridine-3,5-dicarboxylate

> <STRUCTURE_SMILES>
CC=1NC(C)=C(C(C=1C(=O)OCC)c2ccccc2/C=C/C(=O)OC(C)(C)C)C(=O)OCC

> <STRUCTURE_SMILES_Desalt>
CC=1NC(C)=C(C(C=1C(=O)OCC)c2ccccc2/C=C/C(=O)OC(C)(C)C)C(=O)OCC

> <Substance_modify_yyyymmdd>
20110813

$$$$
