10381-75-6
ChemmineR-0915142007XD

 14 15  0  0  0  0  0  0  0  0  1 V2000
    3.4251   -1.9757    0.0000 C    0  0  0  0  0  0  0  0  0  0  0  0
    3.4251   -3.3499    0.0000 C    0  0  0  0  0  0  0  0  0  0  0  0
    4.7103   -3.7191    0.0000 N    0  0  0  0  0  0  0  0  0  0  0  0
    4.7103   -1.6066    0.0000 N    0  0  0  0  0  0  0  0  0  0  0  0
    5.5102   -2.6594    0.0000 C    0  0  0  0  0  0  0  0  0  0  0  0
    2.2560   -1.3331    0.0000 N    0  0  0  0  0  0  0  0  0  0  0  0
    1.1554   -3.3499    0.0000 N    0  0  0  0  0  0  0  0  0  0  0  0
    1.1554   -1.9757    0.0000 C    0  0  0  0  0  0  0  0  0  0  0  0
    2.2560   -3.9925    0.0000 C    0  0  0  0  0  0  0  0  0  0  0  0
    0.0000   -1.2989    0.0000 O    0  0  0  0  0  0  0  0  0  0  0  0
    2.2560   -5.3188    0.0000 O    0  0  0  0  0  0  0  0  0  0  0  0
    6.8365   -2.6594    0.0000 Br   0  0  0  0  0  0  0  0  0  0  0  0
    0.0000   -4.0199    0.0000 C    0  0  0  0  0  0  0  0  0  0  0  0
    2.2560    0.0000    0.0000 C    0  0  0  0  0  0  0  0  0  0  0  0
  1  2  2  0  0  0  0
  1  4  1  0  0  0  0
  1  6  1  0  0  0  0
  2  3  1  0  0  0  0
  2  9  1  0  0  0  0
  3  5  1  0  0  0  0
  4  5  2  0  0  0  0
  5 12  1  0  0  0  0
  6  8  1  0  0  0  0
  6 14  1  0  0  0  0
  7  8  1  0  0  0  0
  7  9  1  0  0  0  0
  7 13  1  0  0  0  0
  8 10  2  0  0  0  0
  9 11  2  0  0  0  0
M  END
> <ID>
10419

> <Formula>
C7H7BrN4O2

> <FW>
259.0601

> <DSSTox_CID>
24768

> <DSSTox_RID>
80459

> <DSSTox_GSID>
44768

> <DSSTox_FileID_Sort>
5141

> <TS_ChemName>
8-Bromotheophylline

> <TS_ChemName_Synonyms>
8-Bromo-1,3-dimethyl-3,7-dihydro-1H-purine-2,6-dione (1H-Purine-2,6-dione, 8-bromo-3,7-dihydro-1,3-dimethyl-)

> <TS_CASRN>
10381-75-6

> <CASRN_ChemName_Relationship>
primary

> <TS_Description>
single chemical compound

> <ChemNote>
tautomers

> <STRUCTURE_Shown>
tested chemical

> <STRUCTURE_Formula>
C7H7BrN4O2

> <STRUCTURE_MW>
259.0601

> <STRUCTURE_ChemType>
defined organic

> <STRUCTURE_DefinedOrganicForm>
parent

> <STRUCTURE_IUPAC>
8-bromo-1,3-dimethyl-3,7-dihydro-1H-purine-2,6-dione

> <STRUCTURE_SMILES>
O=C2c1nc(Br)nc1N(C)C(=O)N2C

> <STRUCTURE_SMILES_Desalt>
O=C2c1nc(Br)nc1N(C)C(=O)N2C

> <Substance_modify_yyyymmdd>
20091116

$$$$
