10397-75-8
ChemmineR-0915142007XD

 42 43  0  0  0  0  0  0  0  0  1 V2000
    1.9924   -3.4463    0.0000 C   0  0  0  0  0  0  0  0  0  0  0  0
    0.6641   -3.4463    0.0000 I   0  0  0  0  0  0  0  0  0  0  0  0
    2.6565   -2.2975    0.0000 C   0  0  0  0  0  0  0  0  0  0  0  0
    1.9924   -1.1488    0.0000 C   0  0  0  0  0  0  0  0  0  0  0  0
    2.6565    0.0000    0.0000 O   0  0  0  0  0  0  0  0  0  0  0  0
    0.6641   -1.1488    0.0000 N   0  0  0  0  0  0  0  0  0  0  0  0
    0.0000   -2.2975    0.0000 C   0  0  0  0  0  0  0  0  0  0  0  0
    3.9847   -2.2975    0.0000 C   0  0  0  0  0  0  0  0  0  0  0  0
    4.6489   -1.1488    0.0000 I   0  0  0  0  0  0  0  0  0  0  0  0
    4.6489   -3.4463    0.0000 C   0  0  0  0  0  0  0  0  0  0  0  0
    5.9771   -3.4463    0.0000 N   0  0  0  0  0  0  0  0  0  0  0  0
    6.6412   -4.5950    0.0000 C   0  0  0  0  0  0  0  0  0  0  0  0
    5.9771   -5.7617    0.0000 O   0  0  0  0  0  0  0  0  0  0  0  0
    7.9695   -4.5950    0.0000 C   0  0  0  0  0  0  0  0  0  0  0  0
    8.6336   -5.7617    0.0000 C   0  0  0  0  0  0  0  0  0  0  0  0
    9.9798   -5.7617    0.0000 C   0  0  0  0  0  0  0  0  0  0  0  0
   10.6439   -6.9105    0.0000 C   0  0  0  0  0  0  0  0  0  0  0  0
   11.9722   -6.9105    0.0000 C   0  0  0  0  0  0  0  0  0  0  0  0
   12.6363   -8.0592    0.0000 O   0  0  0  0  0  0  0  0  0  0  0  0
   12.6363   -5.7617    0.0000 N   0  0  0  0  0  0  0  0  0  0  0  0
   13.9646   -5.7617    0.0000 C   0  0  0  0  0  0  0  0  0  0  0  0
   14.6287   -4.5950    0.0000 C   0  0  0  0  0  0  0  0  0  0  0  0
   13.9646   -3.4463    0.0000 I   0  0  0  0  0  0  0  0  0  0  0  0
   15.9569   -4.5950    0.0000 C   0  0  0  0  0  0  0  0  0  0  0  0
   16.6211   -3.4463    0.0000 C   0  0  0  0  0  0  0  0  0  0  0  0
   17.9493   -3.4463    0.0000 O   0  0  0  0  0  0  0  0  0  0  0  0
   15.9569   -2.2975    0.0000 N   0  0  0  0  0  0  0  0  0  0  0  0
   14.6287   -2.2975    0.0000 C   0  0  0  0  0  0  0  0  0  0  0  0
   16.6211   -5.7617    0.0000 C   0  0  0  0  0  0  0  0  0  0  0  0
   17.9493   -5.7617    0.0000 I   0  0  0  0  0  0  0  0  0  0  0  0
   15.9569   -6.9105    0.0000 C   0  0  0  0  0  0  0  0  0  0  0  0
   16.6211   -8.0592    0.0000 C   0  0  0  0  0  0  0  0  0  0  0  0
   17.9493   -8.0592    0.0000 O   0  0  0  0  0  0  0  0  0  0  0  0
   15.9569   -9.2080    0.0000 O   0  0  0  0  0  0  0  0  0  0  0  0
   14.6287   -6.9105    0.0000 C   0  0  0  0  0  0  0  0  0  0  0  0
   13.9646   -8.0592    0.0000 I   0  0  0  0  0  0  0  0  0  0  0  0
    3.9847   -4.5950    0.0000 C   0  0  0  0  0  0  0  0  0  0  0  0
    4.6489   -5.7617    0.0000 I   0  0  0  0  0  0  0  0  0  0  0  0
    2.6565   -4.5950    0.0000 C   0  0  0  0  0  0  0  0  0  0  0  0
    1.9924   -5.7617    0.0000 C   0  0  0  0  0  0  0  0  0  0  0  0
    2.6565   -6.9105    0.0000 O   0  0  0  0  0  0  0  0  0  0  0  0
    0.6641   -5.7617    0.0000 O   0  0  0  0  0  0  0  0  0  0  0  0
  1  2  1  0  0  0  0
  1  3  2  0  0  0  0
  1 39  1  0  0  0  0
  3  4  1  0  0  0  0
  3  8  1  0  0  0  0
  4  5  2  0  0  0  0
  4  6  1  0  0  0  0
  6  7  1  0  0  0  0
  8  9  1  0  0  0  0
  8 10  2  0  0  0  0
 10 11  1  0  0  0  0
 10 37  1  0  0  0  0
 11 12  1  0  0  0  0
 12 13  2  0  0  0  0
 12 14  1  0  0  0  0
 14 15  1  0  0  0  0
 15 16  1  0  0  0  0
 16 17  1  0  0  0  0
 17 18  1  0  0  0  0
 18 19  2  0  0  0  0
 18 20  1  0  0  0  0
 20 21  1  0  0  0  0
 21 22  2  0  0  0  0
 21 35  1  0  0  0  0
 22 23  1  0  0  0  0
 22 24  1  0  0  0  0
 24 25  1  0  0  0  0
 24 29  2  0  0  0  0
 25 26  2  0  0  0  0
 25 27  1  0  0  0  0
 27 28  1  0  0  0  0
 29 30  1  0  0  0  0
 29 31  1  0  0  0  0
 31 32  1  0  0  0  0
 31 35  2  0  0  0  0
 32 33  1  0  0  0  0
 32 34  2  0  0  0  0
 35 36  1  0  0  0  0
 37 38  1  0  0  0  0
 37 39  2  0  0  0  0
 39 40  1  0  0  0  0
 40 41  1  0  0  0  0
 40 42  2  0  0  0  0
M  END
> <ID>
2826

> <Formula>
C24H20I6N4O8

> <FW>
1253.8644

> <DSSTox_CID>
3148

> <DSSTox_RID>
97546

> <DSSTox_GSID>
23148

> <DSSTox_FileID_Sort>
8321

> <TS_ChemName>
Iocarmic acid

> <TS_ChemName_Synonyms>


> <TS_CASRN>
10397-75-8

> <CASRN_ChemName_Relationship>
primary

> <TS_Description>
single chemical compound

> <ChemNote>


> <STRUCTURE_Shown>
tested chemical

> <STRUCTURE_Formula>
C24H20I6N4O8

> <STRUCTURE_MW>
1253.8644

> <STRUCTURE_ChemType>
defined organic

> <STRUCTURE_DefinedOrganicForm>
parent

> <STRUCTURE_IUPAC>
3,3'-[(1,6-dioxohexane-1,6-diyl)diimino]bis[2,4,6-triiodo-5-(methylcarbamoyl)benzoic acid]

> <STRUCTURE_SMILES>
O=C(Nc1c(I)c(c(I)c(c1I)C(=O)O)C(=O)NC)CCCCC(=O)Nc2c(I)c(C(=O)NC)c(I)c(C(=O)O)c2I

> <STRUCTURE_SMILES_Desalt>
O=C(Nc1c(I)c(c(I)c(c1I)C(=O)O)C(=O)NC)CCCCC(=O)Nc2c(I)c(C(=O)NC)c(I)c(C(=O)O)c2I

> <Substance_modify_yyyymmdd>
20080429

$$$$
