103909-75-7
ChemmineR-0915142007XD

 32 34  0  0  1  0  0  0  0  0  1 V2000
    4.5130   -3.0873    0.0000 C   0  0  0  0  0  0  0  0  0  0  0  0
    4.5130   -4.3895    0.0000 C   0  0  0  0  0  0  0  0  0  0  0  0
    2.2790   -8.2738    0.0000 C   0  0  0  0  0  0  0  0  0  0  0  0
    5.6469   -2.4249    0.0000 C   0  0  0  0  0  0  0  0  0  0  0  0
    2.2790   -6.9716    0.0000 C   0  0  0  0  0  0  0  0  0  0  0  0
    3.3904   -8.9137    0.0000 C   0  0  0  0  0  0  0  0  0  0  0  0
    3.3904   -5.0631    0.0000 C   0  0  0  0  0  0  0  0  0  0  0  0
    3.3904   -6.3317    0.0000 C   0  0  0  0  0  0  0  0  0  0  0  0
    6.7471   -0.4827    0.0000 O   0  0  0  0  0  0  0  0  0  0  0  0
    7.8697   -1.1226    0.0000 C   0  0  0  0  0  0  0  0  0  0  0  0
    6.7695   -4.3895    0.0000 C   0  0  0  0  0  0  0  0  0  0  0  0
    6.7695   -3.0873    0.0000 C   0  0  0  0  0  0  0  0  0  0  0  0
    1.1563   -8.9137    0.0000 C   0  0  0  0  0  0  0  0  0  0  0  0
    5.6469   -1.1226    0.0000 C   0  0  0  0  0  0  0  0  0  0  0  0
    3.3904  -10.1935    0.0000 C   0  0  0  0  0  0  0  0  0  0  0  0
    4.5130   -8.2738    0.0000 C   0  0  0  0  0  0  0  0  0  0  0  0
    8.9474   -0.4827    0.0000 C   0  0  0  0  0  0  0  0  0  0  0  0
    3.3904   -2.4249    0.0000 C   0  0  0  0  0  0  0  0  0  0  0  0
    4.5130   -1.7850    0.0000 C   0  0  0  0  0  0  0  0  0  0  0  0
    1.1563  -10.1935    0.0000 C   0  0  0  0  0  0  0  0  0  0  0  0
    2.2790  -10.8447    0.0000 C   0  0  0  0  0  0  0  0  0  0  0  0
   10.0925   -1.1226    0.0000 C   0  0  0  0  0  0  0  0  0  0  0  0
    2.2790   -4.3895    0.0000 C   0  0  0  0  0  0  0  0  0  0  0  0
    0.0000  -10.8784    0.0000 O   0  0  0  0  0  0  0  0  0  0  0  0
    2.2790   -3.0873    0.0000 C   0  0  0  0  0  0  0  0  0  0  0  0
    4.4793   -0.4827    0.0000 C   0  0  0  0  0  0  0  0  0  0  0  0
    9.4526   -2.2565    0.0000 C   0  0  0  0  0  0  0  0  0  0  0  0
   10.7212    0.0000    0.0000 C   0  0  0  0  0  0  0  0  0  0  0  0
    4.5130   -5.7479    0.0000 H   0  0  0  0  0  0  0  0  0  0  0  0
    5.6469   -3.7945    0.0000 H   0  0  0  0  0  0  0  0  0  0  0  0
   11.2264   -1.7738    0.0000 O   0  0  0  0  0  0  0  0  0  0  0  0
    4.5355  -10.8784    0.0000 O   0  0  0  0  0  0  0  0  0  0  0  0
  1  2  1  0  0  0  0
  1  4  1  0  0  0  0
  1 18  1  0  0  0  0
  1 19  1  1  0  0  0
  2  7  1  0  0  0  0
  2 11  1  0  0  0  0
  2 29  1  6  0  0  0
  3  5  2  0  0  0  0
  3  6  1  0  0  0  0
  3 13  1  0  0  0  0
  4 12  1  0  0  0  0
  4 14  1  0  0  0  0
  4 30  1  6  0  0  0
  5  8  1  0  0  0  0
  6 15  1  0  0  0  0
  6 16  2  0  0  0  0
  7  8  2  0  0  0  0
  7 23  1  0  0  0  0
  9 14  1  0  0  0  0
  9 10  1  0  0  0  0
 10 17  1  0  0  0  0
 11 12  1  0  0  0  0
 13 20  1  0  0  0  0
 14 26  1  6  0  0  0
 15 21  1  0  0  0  0
 15 32  1  1  0  0  0
 17 22  1  0  0  0  0
 18 25  1  0  0  0  0
 20 21  1  0  0  0  0
 20 24  1  6  0  0  0
 22 27  1  0  0  0  0
 22 28  1  0  0  0  0
 22 31  1  0  0  0  0
 23 25  1  0  0  0  0
M  END
> <ID>
13644

> <Formula>
C26H42O4

> <FW>
418.6093

> <DSSTox_CID>
28574

> <DSSTox_RID>
82846

> <DSSTox_GSID>
48648

> <DSSTox_FileID_Sort>
7523

> <TS_ChemName>
Maxacalcitol

> <TS_ChemName_Synonyms>


> <TS_CASRN>
103909-75-7

> <CASRN_ChemName_Relationship>
primary

> <TS_Description>
single chemical compound

> <ChemNote>
stereochem

> <STRUCTURE_Shown>
tested chemical

> <STRUCTURE_Formula>
C26H42O4

> <STRUCTURE_MW>
418.6093

> <STRUCTURE_ChemType>
defined organic

> <STRUCTURE_DefinedOrganicForm>
parent

> <STRUCTURE_IUPAC>
(1S,3R,5Z,7E,9xi,20S)-20-(3-hydroxy-3-methylbutoxy)-9,10-secopregna-5,7,10-triene-1,3-diol

> <STRUCTURE_SMILES>
C=C1C(/C[C@@H](O)C[C@@H]1O)=C\C=C2/CCC[C@]3(C)[C@H](CC[C@@H]23)[C@H](C)OCCC(C)(C)O

> <STRUCTURE_SMILES_Desalt>
C=C1C(/C[C@@H](O)C[C@@H]1O)=C\C=C2/CCC[C@]3(C)[C@H](CC[C@@H]23)[C@H](C)OCCC(C)(C)O

> <Substance_modify_yyyymmdd>
20111016

$$$$
