103922-33-4
ChemmineR-0915142007XD

 26 28  0  0  0  0  0  0  0  0  1 V2000
    4.1733   -9.9184    0.0000 C   0  0  0  0  0  0  0  0  0  0  0  0
    2.9002   -9.5531    0.0000 C   0  0  0  0  0  0  0  0  0  0  0  0
    3.2655   -8.2801    0.0000 C   0  0  0  0  0  0  0  0  0  0  0  0
    4.5386   -8.6343    0.0000 C   0  0  0  0  0  0  0  0  0  0  0  0
    4.8264  -11.0696    0.0000 O   0  0  0  0  0  0  0  0  0  0  0  0
    1.7379  -10.2062    0.0000 O   0  0  0  0  0  0  0  0  0  0  0  0
    2.6124   -7.1178    0.0000 N   0  0  0  0  0  0  0  0  0  0  0  0
    5.7341   -7.9591    0.0000 N   0  0  0  0  0  0  0  0  0  0  0  0
    5.7230   -6.6861    0.0000 C   0  0  0  0  0  0  0  0  0  0  0  0
    6.9075   -6.0219    0.0000 C   0  0  0  0  0  0  0  0  0  0  0  0
    6.9075   -4.6935    0.0000 C   0  0  0  0  0  0  0  0  0  0  0  0
    5.7784   -4.0183    0.0000 C   0  0  0  0  0  0  0  0  0  0  0  0
    5.7784   -2.6899    0.0000 O   0  0  0  0  0  0  0  0  0  0  0  0
    4.6493   -0.6863    0.0000 N   0  0  0  0  0  0  0  0  0  0  0  0
    4.6493   -2.0036    0.0000 C   0  0  0  0  0  0  0  0  0  0  0  0
    3.5201    0.0000    0.0000 C   0  0  0  0  0  0  0  0  0  0  0  0
    2.3246   -0.6642    0.0000 C   0  0  0  0  0  0  0  0  0  0  0  0
    3.4537   -2.6789    0.0000 C   0  0  0  0  0  0  0  0  0  0  0  0
    2.3578   -1.9704    0.0000 C   0  0  0  0  0  0  0  0  0  0  0  0
    1.1623   -2.6456    0.0000 C   0  0  0  0  0  0  0  0  0  0  0  0
    1.1623   -3.9629    0.0000 N   0  0  0  0  0  0  0  0  0  0  0  0
    2.2914   -4.6493    0.0000 C   0  0  0  0  0  0  0  0  0  0  0  0
    0.0000   -4.6160    0.0000 C   0  0  0  0  0  0  0  0  0  0  0  0
    0.0000   -5.9444    0.0000 C   0  0  0  0  0  0  0  0  0  0  0  0
    2.2914   -5.9776    0.0000 C   0  0  0  0  0  0  0  0  0  0  0  0
    1.1291   -6.6307    0.0000 C   0  0  0  0  0  0  0  0  0  0  0  0
  1  2  1  0  0  0  0
  1  4  1  0  0  0  0
  1  5  2  0  0  0  0
  2  3  1  0  0  0  0
  2  6  2  0  0  0  0
  3  4  2  0  0  0  0
  3  7  1  0  0  0  0
  4  8  1  0  0  0  0
  8  9  1  0  0  0  0
  9 10  1  0  0  0  0
 10 11  2  0  0  0  0
 11 12  1  0  0  0  0
 12 13  1  0  0  0  0
 13 15  1  0  0  0  0
 14 15  2  0  0  0  0
 14 16  1  0  0  0  0
 15 18  1  0  0  0  0
 16 17  2  0  0  0  0
 17 19  1  0  0  0  0
 18 19  2  0  0  0  0
 19 20  1  0  0  0  0
 20 21  1  0  0  0  0
 21 22  1  0  0  0  0
 21 23  1  0  0  0  0
 22 25  1  0  0  0  0
 23 24  1  0  0  0  0
 24 26  1  0  0  0  0
 25 26  1  0  0  0  0
M  END
> <ID>
13791

> <Formula>
C19H24N4O3

> <FW>
356.4189

> <DSSTox_CID>
28728

> <DSSTox_RID>
82997

> <DSSTox_GSID>
48802

> <DSSTox_FileID_Sort>
7674

> <TS_ChemName>
Pibutidine

> <TS_ChemName_Synonyms>


> <TS_CASRN>
103922-33-4

> <CASRN_ChemName_Relationship>
primary

> <TS_Description>
single chemical compound

> <ChemNote>
stereochem

> <STRUCTURE_Shown>
tested chemical

> <STRUCTURE_Formula>
C19H24N4O3

> <STRUCTURE_MW>
356.4189

> <STRUCTURE_ChemType>
defined organic

> <STRUCTURE_DefinedOrganicForm>
parent

> <STRUCTURE_IUPAC>
3-amino-4-{[(2Z)-4-{[4-(piperidin-1-ylmethyl)pyridin-2-yl]oxy}but-2-en-1-yl]amino}cyclobut-3-ene-1,2-dione

> <STRUCTURE_SMILES>
NC=3C(=O)C(=O)C=3NC\C=C/COc2cc(CN1CCCCC1)ccn2

> <STRUCTURE_SMILES_Desalt>
NC=3C(=O)C(=O)C=3NC\C=C/COc2cc(CN1CCCCC1)ccn2

> <Substance_modify_yyyymmdd>
20111204

$$$$
