104-12-1
ChemmineR-0915142007XD

 10 10  0  0  0  0  0  0  0  0  1 V2000
    5.7555   -0.6633    0.0000 C    0  0  0  0  0  0  0  0  0  0  0  0
    4.6086    0.0000    0.0000 N    0  0  0  0  0  0  0  0  0  0  0  0
    6.9094   -1.3335    0.0000 O    0  0  0  0  0  0  0  0  0  0  0  0
    2.3008   -2.6601    0.0000 C    0  0  0  0  0  0  0  0  0  0  0  0
    1.1539   -1.9968    0.0000 C    0  0  0  0  0  0  0  0  0  0  0  0
    1.1539   -0.6633    0.0000 C    0  0  0  0  0  0  0  0  0  0  0  0
    2.3008    0.0000    0.0000 C    0  0  0  0  0  0  0  0  0  0  0  0
    3.4547   -0.6633    0.0000 C    0  0  0  0  0  0  0  0  0  0  0  0
    3.4547   -1.9968    0.0000 C    0  0  0  0  0  0  0  0  0  0  0  0
    0.0000   -2.6601    0.0000 Cl   0  0  0  0  0  0  0  0  0  0  0  0
  1  2  2  0  0  0  0
  1  3  2  0  0  0  0
  2  8  1  0  0  0  0
  4  9  2  0  0  0  0
  4  5  1  0  0  0  0
  5  6  2  0  0  0  0
  5 10  1  0  0  0  0
  6  7  1  0  0  0  0
  7  8  2  0  0  0  0
  8  9  1  0  0  0  0
M  END
> <ID>
7927

> <Formula>
C7H4ClNO

> <FW>
153.5658

> <DSSTox_CID>
20732

> <DSSTox_RID>
79577

> <DSSTox_GSID>
40732

> <DSSTox_FileID_Sort>
4259

> <TS_ChemName>
4-Chlorophenyl isocyanate

> <TS_ChemName_Synonyms>


> <TS_CASRN>
104-12-1

> <CASRN_ChemName_Relationship>
primary

> <TS_Description>
single chemical compound

> <ChemNote>


> <STRUCTURE_Shown>
tested chemical

> <STRUCTURE_Formula>
C7H4ClNO

> <STRUCTURE_MW>
153.5658

> <STRUCTURE_ChemType>
defined organic

> <STRUCTURE_DefinedOrganicForm>
parent

> <STRUCTURE_IUPAC>
1-chloro-4-isocyanatobenzene

> <STRUCTURE_SMILES>
Clc1ccc(/N=C=O)cc1

> <STRUCTURE_SMILES_Desalt>
Clc1ccc(/N=C=O)cc1

> <Substance_modify_yyyymmdd>
20080429

$$$$
