104-29-0
ChemmineR-0915142007XD

 13 13  0  0  0  0  0  0  0  0  1 V2000
    4.5926   -1.3188    0.0000 O    0  0  0  0  0  0  0  0  0  0  0  0
    5.7362   -1.9643    0.0000 C    0  0  0  0  0  0  0  0  0  0  0  0
    8.0325   -3.3200    0.0000 C    0  0  0  0  0  0  0  0  0  0  0  0
    2.3240   -1.3188    0.0000 C    0  0  0  0  0  0  0  0  0  0  0  0
    3.4307   -2.0012    0.0000 C    0  0  0  0  0  0  0  0  0  0  0  0
    9.2222   -4.0024    0.0000 Cl   0  0  0  0  0  0  0  0  0  0  0  0
    6.8982   -1.3280    0.0000 C    0  0  0  0  0  0  0  0  0  0  0  0
    5.7362   -3.3200    0.0000 C    0  0  0  0  0  0  0  0  0  0  0  0
    8.0325   -2.0012    0.0000 C    0  0  0  0  0  0  0  0  0  0  0  0
    6.8982   -3.9840    0.0000 C    0  0  0  0  0  0  0  0  0  0  0  0
    2.3240    0.0000    0.0000 O    0  0  0  0  0  0  0  0  0  0  0  0
    0.0000   -1.3003    0.0000 O    0  0  0  0  0  0  0  0  0  0  0  0
    1.1436   -1.9643    0.0000 C    0  0  0  0  0  0  0  0  0  0  0  0
  1  2  1  0  0  0  0
  1  5  1  0  0  0  0
  2  7  2  0  0  0  0
  2  8  1  0  0  0  0
  3 10  1  0  0  0  0
  3  6  1  0  0  0  0
  3  9  2  0  0  0  0
  4  5  1  0  0  0  0
  4 11  1  0  0  0  0
  4 13  1  0  0  0  0
  7  9  1  0  0  0  0
  8 10  2  0  0  0  0
 12 13  1  0  0  0  0
M  END
> <ID>
14012

> <Formula>
C9H11ClO3

> <FW>
202.6348

> <DSSTox_CID>
28954

> <DSSTox_RID>
83219

> <DSSTox_GSID>
49028

> <DSSTox_FileID_Sort>
7895

> <TS_ChemName>
1,2-Propanediol, 3-(4-chlorophenoxy)-

> <TS_ChemName_Synonyms>
3-(4-CHLOROPHENOXY)-1,2-PROPANEDIOL

> <TS_CASRN>
104-29-0

> <CASRN_ChemName_Relationship>
primary

> <TS_Description>
single chemical compound

> <ChemNote>


> <STRUCTURE_Shown>
tested chemical

> <STRUCTURE_Formula>
C9H11ClO3

> <STRUCTURE_MW>
202.6348

> <STRUCTURE_ChemType>
defined organic

> <STRUCTURE_DefinedOrganicForm>
parent

> <STRUCTURE_IUPAC>
3-(4-chlorophenoxy)propane-1,2-diol

> <STRUCTURE_SMILES>
Clc1ccc(OCC(O)CO)cc1

> <STRUCTURE_SMILES_Desalt>
Clc1ccc(OCC(O)CO)cc1

> <Substance_modify_yyyymmdd>
20111204

$$$$
