104-38-1
ChemmineR-0915142007XD

 14 14  0  0  0  0  0  0  0  0  1 V2000
    0.6697   -3.4652    0.0000 C   0  0  0  0  0  0  0  0  0  0  0  0
    1.9984   -3.4652    0.0000 C   0  0  0  0  0  0  0  0  0  0  0  0
    0.0000   -4.6132    0.0000 O   0  0  0  0  0  0  0  0  0  0  0  0
    9.9705   -1.1586    0.0000 C   0  0  0  0  0  0  0  0  0  0  0  0
    8.6418   -1.1586    0.0000 C   0  0  0  0  0  0  0  0  0  0  0  0
   10.6295    0.0000    0.0000 O   0  0  0  0  0  0  0  0  0  0  0  0
    6.6435   -2.3066    0.0000 C   0  0  0  0  0  0  0  0  0  0  0  0
    5.9844   -3.4652    0.0000 C   0  0  0  0  0  0  0  0  0  0  0  0
    4.6557   -3.4652    0.0000 C   0  0  0  0  0  0  0  0  0  0  0  0
    3.9861   -2.3066    0.0000 C   0  0  0  0  0  0  0  0  0  0  0  0
    4.6557   -1.1586    0.0000 C   0  0  0  0  0  0  0  0  0  0  0  0
    5.9844   -1.1586    0.0000 C   0  0  0  0  0  0  0  0  0  0  0  0
    7.9722   -2.3066    0.0000 O   0  0  0  0  0  0  0  0  0  0  0  0
    2.6574   -2.3066    0.0000 O   0  0  0  0  0  0  0  0  0  0  0  0
  1  2  1  0  0  0  0
  1  3  1  0  0  0  0
  2 14  1  0  0  0  0
  4  5  1  0  0  0  0
  4  6  1  0  0  0  0
  5 13  1  0  0  0  0
  7 12  2  0  0  0  0
  7  8  1  0  0  0  0
  7 13  1  0  0  0  0
  8  9  2  0  0  0  0
  9 10  1  0  0  0  0
 10 11  2  0  0  0  0
 10 14  1  0  0  0  0
 11 12  1  0  0  0  0
M  END
> <ID>
4769

> <Formula>
C10H14O4

> <FW>
198.2158

> <DSSTox_CID>
6702

> <DSSTox_RID>
78189

> <DSSTox_GSID>
26702

> <DSSTox_FileID_Sort>
2872

> <TS_ChemName>
2,2'-[1,4-Phenylenebis(oxy)]diethanol

> <TS_ChemName_Synonyms>


> <TS_CASRN>
104-38-1

> <CASRN_ChemName_Relationship>
primary

> <TS_Description>
single chemical compound

> <ChemNote>


> <STRUCTURE_Shown>
tested chemical

> <STRUCTURE_Formula>
C10H14O4

> <STRUCTURE_MW>
198.2158

> <STRUCTURE_ChemType>
defined organic

> <STRUCTURE_DefinedOrganicForm>
parent

> <STRUCTURE_IUPAC>
2,2'-[benzene-1,4-diylbis(oxy)]diethanol

> <STRUCTURE_SMILES>
OCCOc1ccc(OCCO)cc1

> <STRUCTURE_SMILES_Desalt>
OCCOc1ccc(OCCO)cc1

> <Substance_modify_yyyymmdd>
20080429

$$$$
