104-61-0
ChemmineR-0915142007XD

 11 11  0  0  0  0  0  0  0  0  1 V2000
    2.3475    0.0000    0.0000 O   0  0  0  0  0  0  0  0  0  0  0  0
    3.4245   -0.7733    0.0000 C   0  0  0  0  0  0  0  0  0  0  0  0
    1.2704   -0.7733    0.0000 C   0  0  0  0  0  0  0  0  0  0  0  0
    3.0195   -2.0437    0.0000 C   0  0  0  0  0  0  0  0  0  0  0  0
    1.6846   -2.0437    0.0000 C   0  0  0  0  0  0  0  0  0  0  0  0
    0.0000   -0.3682    0.0000 O   0  0  0  0  0  0  0  0  0  0  0  0
    4.6949   -0.3682    0.0000 C   0  0  0  0  0  0  0  0  0  0  0  0
    5.6891   -1.2520    0.0000 C   0  0  0  0  0  0  0  0  0  0  0  0
    6.9595   -0.8561    0.0000 C   0  0  0  0  0  0  0  0  0  0  0  0
    7.9537   -1.7399    0.0000 C   0  0  0  0  0  0  0  0  0  0  0  0
    9.2057   -1.3348    0.0000 C   0  0  0  0  0  0  0  0  0  0  0  0
  1  2  1  0  0  0  0
  1  3  1  0  0  0  0
  2  4  1  0  0  0  0
  2  7  1  0  0  0  0
  3  5  1  0  0  0  0
  3  6  2  0  0  0  0
  4  5  1  0  0  0  0
  7  8  1  0  0  0  0
  8  9  1  0  0  0  0
  9 10  1  0  0  0  0
 10 11  1  0  0  0  0
M  END
> <ID>
6689

> <Formula>
C9H16O2

> <FW>
156.2221

> <DSSTox_CID>
14229

> <DSSTox_RID>
79128

> <DSSTox_GSID>
34229

> <DSSTox_FileID_Sort>
3810

> <TS_ChemName>
gamma-Nonanolactone

> <TS_ChemName_Synonyms>
Dihydro-5-pentyl-2(3H)-furanone; gamma-Nonanoic lactone

> <TS_CASRN>
104-61-0

> <CASRN_ChemName_Relationship>
primary

> <TS_Description>
single chemical compound

> <ChemNote>


> <STRUCTURE_Shown>
tested chemical

> <STRUCTURE_Formula>
C9H16O2

> <STRUCTURE_MW>
156.2221

> <STRUCTURE_ChemType>
defined organic

> <STRUCTURE_DefinedOrganicForm>
parent

> <STRUCTURE_IUPAC>
5-pentyldihydrofuran-2(3H)-one

> <STRUCTURE_SMILES>
O=C1CCC(CCCCC)O1

> <STRUCTURE_SMILES_Desalt>
O=C1CCC(CCCCC)O1

> <Substance_modify_yyyymmdd>
20130926

$$$$
