104-98-3
ChemmineR-0915142007XD

 10 10  0  0  0  0  0  0  0  0  1 V2000
    1.2727    0.0000    0.0000 N   0  0  0  0  0  0  0  0  0  0  0  0
    2.0569   -1.0616    0.0000 C   0  0  0  0  0  0  0  0  0  0  0  0
    0.0000   -1.7372    0.0000 N   0  0  0  0  0  0  0  0  0  0  0  0
    0.0000   -0.4102    0.0000 C   0  0  0  0  0  0  0  0  0  0  0  0
    3.3778   -1.0616    0.0000 C   0  0  0  0  0  0  0  0  0  0  0  0
    5.3623   -2.2197    0.0000 C   0  0  0  0  0  0  0  0  0  0  0  0
    4.0353   -2.2197    0.0000 C   0  0  0  0  0  0  0  0  0  0  0  0
    1.2727   -2.1473    0.0000 C   0  0  0  0  0  0  0  0  0  0  0  0
    6.0319   -3.3597    0.0000 O   0  0  0  0  0  0  0  0  0  0  0  0
    6.0319   -1.0616    0.0000 O   0  0  0  0  0  0  0  0  0  0  0  0
  1  2  1  0  0  0  0
  1  4  2  0  0  0  0
  2  5  1  0  0  0  0
  2  8  2  0  0  0  0
  3  4  1  0  0  0  0
  3  8  1  0  0  0  0
  5  7  2  0  0  0  0
  6  7  1  0  0  0  0
  6  9  2  0  0  0  0
  6 10  1  0  0  0  0
M  END
> <ID>
8141

> <Formula>
C6H6N2O2

> <FW>
138.124

> <DSSTox_CID>
21148

> <DSSTox_RID>
79635

> <DSSTox_GSID>
41148

> <DSSTox_FileID_Sort>
4317

> <TS_ChemName>
Urocanic acid

> <TS_ChemName_Synonyms>


> <TS_CASRN>
104-98-3

> <CASRN_ChemName_Relationship>
primary

> <TS_Description>
single chemical compound

> <ChemNote>
stereochem; tautomers

> <STRUCTURE_Shown>
tested chemical

> <STRUCTURE_Formula>
C6H6N2O2

> <STRUCTURE_MW>
138.124

> <STRUCTURE_ChemType>
defined organic

> <STRUCTURE_DefinedOrganicForm>
parent

> <STRUCTURE_IUPAC>
(2E)-3-(1H-imidazol-4-yl)prop-2-enoic acid

> <STRUCTURE_SMILES>
OC(=O)/C=C/c1cncn1

> <STRUCTURE_SMILES_Desalt>
OC(=O)/C=C/c1cncn1

> <Substance_modify_yyyymmdd>
20080429

$$$$
