104-85-8
ChemmineR-0915142007XD

  9  9  0  0  0  0  0  0  0  0  1 V2000
    0.0000   -1.1509    0.0000 N   0  0  0  0  0  0  0  0  0  0  0  0
    1.3305   -1.1509    0.0000 C   0  0  0  0  0  0  0  0  0  0  0  0
    2.6611   -1.1509    0.0000 C   0  0  0  0  0  0  0  0  0  0  0  0
    3.3263    0.0000    0.0000 C   0  0  0  0  0  0  0  0  0  0  0  0
    4.6568    0.0000    0.0000 C   0  0  0  0  0  0  0  0  0  0  0  0
    5.3221   -1.1509    0.0000 C   0  0  0  0  0  0  0  0  0  0  0  0
    4.6568   -2.3018    0.0000 C   0  0  0  0  0  0  0  0  0  0  0  0
    6.6526   -1.1509    0.0000 C   0  0  0  0  0  0  0  0  0  0  0  0
    3.3263   -2.3018    0.0000 C   0  0  0  0  0  0  0  0  0  0  0  0
  1  2  3  0  0  0  0
  2  3  1  0  0  0  0
  3  4  2  0  0  0  0
  3  9  1  0  0  0  0
  4  5  1  0  0  0  0
  5  6  2  0  0  0  0
  6  7  1  0  0  0  0
  6  8  1  0  0  0  0
  7  9  2  0  0  0  0
M  END
> <ID>
4575

> <Formula>
C8H7N

> <FW>
117.1479

> <DSSTox_CID>
6169

> <DSSTox_RID>
78043

> <DSSTox_GSID>
26169

> <DSSTox_FileID_Sort>
2726

> <TS_ChemName>
4-Methylbenzonitrile

> <TS_ChemName_Synonyms>
4-Methylbenzonitrile (p-Tolunitrile)

> <TS_CASRN>
104-85-8

> <CASRN_ChemName_Relationship>
primary

> <TS_Description>
single chemical compound

> <ChemNote>


> <STRUCTURE_Shown>
tested chemical

> <STRUCTURE_Formula>
C8H7N

> <STRUCTURE_MW>
117.1479

> <STRUCTURE_ChemType>
defined organic

> <STRUCTURE_DefinedOrganicForm>
parent

> <STRUCTURE_IUPAC>
4-methylbenzonitrile

> <STRUCTURE_SMILES>
N#Cc1ccc(C)cc1

> <STRUCTURE_SMILES_Desalt>
N#Cc1ccc(C)cc1

> <Substance_modify_yyyymmdd>
20080429

$$$$
