104-27-8
ChemmineR-0915142007XD

 14 14  0  0  0  0  0  0  0  0  1 V2000
    5.7953   -1.3190    0.0000 C   0  0  0  0  0  0  0  0  0  0  0  0
    6.9689   -1.9525    0.0000 C   0  0  0  0  0  0  0  0  0  0  0  0
    8.0802   -1.3190    0.0000 C   0  0  0  0  0  0  0  0  0  0  0  0
    9.2538   -1.9525    0.0000 C   0  0  0  0  0  0  0  0  0  0  0  0
   10.3859   -1.3190    0.0000 C   0  0  0  0  0  0  0  0  0  0  0  0
    8.0802    0.0000    0.0000 O   0  0  0  0  0  0  0  0  0  0  0  0
    2.3472   -1.9422    0.0000 C   0  0  0  0  0  0  0  0  0  0  0  0
    2.3368   -3.2819    0.0000 C   0  0  0  0  0  0  0  0  0  0  0  0
    3.4793   -3.9674    0.0000 C   0  0  0  0  0  0  0  0  0  0  0  0
    4.6632   -3.2923    0.0000 C   0  0  0  0  0  0  0  0  0  0  0  0
    4.6632   -1.9525    0.0000 C   0  0  0  0  0  0  0  0  0  0  0  0
    3.5104   -1.2671    0.0000 C   0  0  0  0  0  0  0  0  0  0  0  0
    1.1632   -3.9466    0.0000 O   0  0  0  0  0  0  0  0  0  0  0  0
    0.0000   -3.2612    0.0000 C   0  0  0  0  0  0  0  0  0  0  0  0
  1  2  2  3  0  0  0
  1 11  1  0  0  0  0
  2  3  1  0  0  0  0
  3  4  1  0  0  0  0
  3  6  2  0  0  0  0
  4  5  1  0  0  0  0
  7 12  2  0  0  0  0
  7  8  1  0  0  0  0
  8  9  2  0  0  0  0
  8 13  1  0  0  0  0
  9 10  1  0  0  0  0
 10 11  2  0  0  0  0
 11 12  1  0  0  0  0
 13 14  1  0  0  0  0
M  END
> <ID>
12554

> <Formula>
C12H14O2

> <FW>
190.2384

> <DSSTox_CID>
27412

> <DSSTox_RID>
82326

> <DSSTox_GSID>
47412

> <DSSTox_FileID_Sort>
7007

> <TS_ChemName>
1-(4-Methoxyphenyl)-1-pentene-3-one

> <TS_ChemName_Synonyms>


> <TS_CASRN>
104-27-8

> <CASRN_ChemName_Relationship>
primary

> <TS_Description>
single chemical compound

> <ChemNote>
mixture of Z,E isomers

> <STRUCTURE_Shown>
tested chemical

> <STRUCTURE_Formula>
C12H14O2

> <STRUCTURE_MW>
190.2384

> <STRUCTURE_ChemType>
defined organic

> <STRUCTURE_DefinedOrganicForm>
parent

> <STRUCTURE_IUPAC>
1-(4-methoxyphenyl)pent-1-en-3-one

> <STRUCTURE_SMILES>
COc1ccc(C=CC(=O)CC)cc1

> <STRUCTURE_SMILES_Desalt>
COc1ccc(C=CC(=O)CC)cc1

> <Substance_modify_yyyymmdd>
20100618

$$$$
