104-14-3
ChemmineR-0915142007XD

 11 11  0  0  0  0  0  0  0  0  1 V2000
    2.3092   -2.0153    0.0000 C   0  0  0  0  0  0  0  0  0  0  0  0
    3.4489   -2.6751    0.0000 C   0  0  0  0  0  0  0  0  0  0  0  0
    1.1456   -2.6571    0.0000 C   0  0  0  0  0  0  0  0  0  0  0  0
    2.3092   -0.6718    0.0000 C   0  0  0  0  0  0  0  0  0  0  0  0
    2.3092   -4.6605    0.0000 C   0  0  0  0  0  0  0  0  0  0  0  0
    3.4489   -4.0127    0.0000 C   0  0  0  0  0  0  0  0  0  0  0  0
    1.1456   -3.9827    0.0000 C   0  0  0  0  0  0  0  0  0  0  0  0
    0.0000   -0.6718    0.0000 N   0  0  0  0  0  0  0  0  0  0  0  0
    3.4489    0.0000    0.0000 O   0  0  0  0  0  0  0  0  0  0  0  0
    2.3092   -5.9980    0.0000 O   0  0  0  0  0  0  0  0  0  0  0  0
    1.1456   -0.0120    0.0000 C   0  0  0  0  0  0  0  0  0  0  0  0
  1  2  1  0  0  0  0
  1  3  2  0  0  0  0
  1  4  1  0  0  0  0
  2  6  2  0  0  0  0
  3  7  1  0  0  0  0
  4  9  1  0  0  0  0
  4 11  1  0  0  0  0
  5  7  2  0  0  0  0
  5 10  1  0  0  0  0
  5  6  1  0  0  0  0
  8 11  1  0  0  0  0
M  END
> <ID>
9704

> <Formula>
C8H11NO2

> <FW>
153.1784

> <DSSTox_CID>
23873

> <DSSTox_RID>
80078

> <DSSTox_GSID>
43873

> <DSSTox_FileID_Sort>
4760

> <TS_ChemName>
Octopamine

> <TS_ChemName_Synonyms>


> <TS_CASRN>
104-14-3

> <CASRN_ChemName_Relationship>
primary

> <TS_Description>
single chemical compound

> <ChemNote>


> <STRUCTURE_Shown>
tested chemical

> <STRUCTURE_Formula>
C8H11NO2

> <STRUCTURE_MW>
153.1784

> <STRUCTURE_ChemType>
defined organic

> <STRUCTURE_DefinedOrganicForm>
parent

> <STRUCTURE_IUPAC>
4-(2-amino-1-hydroxyethyl)phenol

> <STRUCTURE_SMILES>
OC(CN)c1ccc(O)cc1

> <STRUCTURE_SMILES_Desalt>
OC(CN)c1ccc(O)cc1

> <Substance_modify_yyyymmdd>
20081229

$$$$
