104-15-4
ChemmineR-0915142007XD

 11 11  0  0  0  0  0  0  0  0  1 V2000
    3.9913   -1.3304    0.0000 C   0  0  0  0  0  0  0  0  0  0  0  0
    3.3327   -2.4812    0.0000 C   0  0  0  0  0  0  0  0  0  0  0  0
    2.0023   -2.4812    0.0000 C   0  0  0  0  0  0  0  0  0  0  0  0
    1.3304   -1.3304    0.0000 C   0  0  0  0  0  0  0  0  0  0  0  0
    2.0023   -0.1796    0.0000 C   0  0  0  0  0  0  0  0  0  0  0  0
    3.3327   -0.1796    0.0000 C   0  0  0  0  0  0  0  0  0  0  0  0
    5.3217   -1.3304    0.0000 S   0  0  0  0  0  0  0  0  0  0  0  0
    5.3217   -2.6609    0.0000 O   0  0  0  0  0  0  0  0  0  0  0  0
    5.3217    0.0000    0.0000 O   0  0  0  0  0  0  0  0  0  0  0  0
    6.6521   -1.3304    0.0000 O   0  0  0  0  0  0  0  0  0  0  0  0
    0.0000   -1.3304    0.0000 C   0  0  0  0  0  0  0  0  0  0  0  0
  1  2  2  0  0  0  0
  1  6  1  0  0  0  0
  1  7  1  0  0  0  0
  2  3  1  0  0  0  0
  3  4  2  0  0  0  0
  4  5  1  0  0  0  0
  4 11  1  0  0  0  0
  5  6  2  0  0  0  0
  7  8  2  0  0  0  0
  7  9  1  0  0  0  0
  7 10  2  0  0  0  0
M  END
> <ID>
4768

> <Formula>
C7H8O3S

> <FW>
172.2016

> <DSSTox_CID>
6701

> <DSSTox_RID>
78188

> <DSSTox_GSID>
26701

> <DSSTox_FileID_Sort>
2871

> <TS_ChemName>
4-Methylbenzenesulfonic acid

> <TS_ChemName_Synonyms>
4-Methylbenzenesulfonic acid (Benzenesulfonic acid, 4-methyl-)

> <TS_CASRN>
104-15-4

> <CASRN_ChemName_Relationship>
primary

> <TS_Description>
single chemical compound

> <ChemNote>


> <STRUCTURE_Shown>
tested chemical

> <STRUCTURE_Formula>
C7H8O3S

> <STRUCTURE_MW>
172.2016

> <STRUCTURE_ChemType>
defined organic

> <STRUCTURE_DefinedOrganicForm>
parent

> <STRUCTURE_IUPAC>
4-methylbenzenesulfonic acid

> <STRUCTURE_SMILES>
Cc1ccc(cc1)S(O)(=O)=O

> <STRUCTURE_SMILES_Desalt>
Cc1ccc(cc1)S(O)(=O)=O

> <Substance_modify_yyyymmdd>
20080429

$$$$
