104-50-7
ChemmineR-0915142007XD

 10 10  0  0  0  0  0  0  0  0  1 V2000
    2.3482    0.0000    0.0000 O   0  0  0  0  0  0  0  0  0  0  0  0
    3.3970   -0.7827    0.0000 C   0  0  0  0  0  0  0  0  0  0  0  0
    1.3150   -0.7827    0.0000 C   0  0  0  0  0  0  0  0  0  0  0  0
    3.0057   -2.0821    0.0000 C   0  0  0  0  0  0  0  0  0  0  0  0
    1.7063   -2.0821    0.0000 C   0  0  0  0  0  0  0  0  0  0  0  0
    0.0000   -0.3914    0.0000 O   0  0  0  0  0  0  0  0  0  0  0  0
    4.6964   -0.3914    0.0000 C   0  0  0  0  0  0  0  0  0  0  0  0
    5.6122   -1.3072    0.0000 C   0  0  0  0  0  0  0  0  0  0  0  0
    6.9115   -0.9158    0.0000 C   0  0  0  0  0  0  0  0  0  0  0  0
    7.8273   -1.8394    0.0000 C   0  0  0  0  0  0  0  0  0  0  0  0
  1  2  1  0  0  0  0
  1  3  1  0  0  0  0
  2  4  1  0  0  0  0
  2  7  1  0  0  0  0
  3  5  1  0  0  0  0
  3  6  2  0  0  0  0
  4  5  1  0  0  0  0
  7  8  1  0  0  0  0
  8  9  1  0  0  0  0
  9 10  1  0  0  0  0
M  END
> <ID>
12731

> <Formula>
C8H14O2

> <FW>
142.1956

> <DSSTox_CID>
27609

> <DSSTox_RID>
82451

> <DSSTox_GSID>
47609

> <DSSTox_FileID_Sort>
7132

> <TS_ChemName>
4-Octanolide

> <TS_ChemName_Synonyms>
4-Octanolide (gamma-Octanoic lactone)

> <TS_CASRN>
104-50-7

> <CASRN_ChemName_Relationship>
primary

> <TS_Description>
single chemical compound

> <ChemNote>


> <STRUCTURE_Shown>
tested chemical

> <STRUCTURE_Formula>
C8H14O2

> <STRUCTURE_MW>
142.1956

> <STRUCTURE_ChemType>
defined organic

> <STRUCTURE_DefinedOrganicForm>
parent

> <STRUCTURE_IUPAC>
5-butyldihydrofuran-2(3H)-one

> <STRUCTURE_SMILES>
CCCCC1CCC(=O)O1

> <STRUCTURE_SMILES_Desalt>
CCCCC1CCC(=O)O1

> <Substance_modify_yyyymmdd>
20101021

$$$$
