104-31-4
ChemmineR-0915142007XD

 42 42  0  0  0  0  0  0  0  0  1 V2000
   35.6844   -4.6562    0.0000 C   0  0  0  0  0  0  0  0  0  0  0  0
   36.8191   -3.9910    0.0000 N   0  0  0  0  0  0  0  0  0  0  0  0
   36.8191   -2.6607    0.0000 C   0  0  0  0  0  0  0  0  0  0  0  0
   37.9929   -1.9955    0.0000 C   0  0  0  0  0  0  0  0  0  0  0  0
   37.9929   -0.6652    0.0000 C   0  0  0  0  0  0  0  0  0  0  0  0
   39.1276    0.0000    0.0000 C   0  0  0  0  0  0  0  0  0  0  0  0
   35.6844   -5.9865    0.0000 C   0  0  0  0  0  0  0  0  0  0  0  0
   34.5106   -6.6517    0.0000 C   0  0  0  0  0  0  0  0  0  0  0  0
   33.3759   -5.9865    0.0000 C   0  0  0  0  0  0  0  0  0  0  0  0
   32.2412   -6.6517    0.0000 C   0  0  0  0  0  0  0  0  0  0  0  0
   31.0674   -5.9865    0.0000 O   0  0  0  0  0  0  0  0  0  0  0  0
   32.2412   -7.9820    0.0000 O   0  0  0  0  0  0  0  0  0  0  0  0
   31.0674   -8.6472    0.0000 C   0  0  0  0  0  0  0  0  0  0  0  0
   29.9326   -7.9820    0.0000 C   0  0  0  0  0  0  0  0  0  0  0  0
   28.7588   -8.6472    0.0000 O   0  0  0  0  0  0  0  0  0  0  0  0
   27.6241   -7.9820    0.0000 C   0  0  0  0  0  0  0  0  0  0  0  0
   26.4503   -8.6472    0.0000 C   0  0  0  0  0  0  0  0  0  0  0  0
   25.3156   -7.9820    0.0000 O   0  0  0  0  0  0  0  0  0  0  0  0
   24.1809   -8.6472    0.0000 C   0  0  0  0  0  0  0  0  0  0  0  0
   23.0071   -7.9820    0.0000 C   0  0  0  0  0  0  0  0  0  0  0  0
   21.8724   -8.6472    0.0000 O   0  0  0  0  0  0  0  0  0  0  0  0
   20.6985   -7.9820    0.0000 C   0  0  0  0  0  0  0  0  0  0  0  0
   19.5638   -8.6472    0.0000 C   0  0  0  0  0  0  0  0  0  0  0  0
   18.4291   -7.9820    0.0000 O   0  0  0  0  0  0  0  0  0  0  0  0
   17.2553   -8.6472    0.0000 C   0  0  0  0  0  0  0  0  0  0  0  0
   16.1206   -7.9820    0.0000 C   0  0  0  0  0  0  0  0  0  0  0  0
   14.9468   -8.6472    0.0000 O   0  0  0  0  0  0  0  0  0  0  0  0
   13.8121   -7.9820    0.0000 C   0  0  0  0  0  0  0  0  0  0  0  0
   12.6774   -8.6472    0.0000 C   0  0  0  0  0  0  0  0  0  0  0  0
   11.5035   -7.9820    0.0000 O   0  0  0  0  0  0  0  0  0  0  0  0
   10.3688   -8.6472    0.0000 C   0  0  0  0  0  0  0  0  0  0  0  0
    9.1950   -7.9820    0.0000 C   0  0  0  0  0  0  0  0  0  0  0  0
    8.0603   -8.6472    0.0000 O   0  0  0  0  0  0  0  0  0  0  0  0
    6.8865   -7.9820    0.0000 C   0  0  0  0  0  0  0  0  0  0  0  0
    5.7518   -8.6472    0.0000 C   0  0  0  0  0  0  0  0  0  0  0  0
    4.6171   -7.9820    0.0000 O   0  0  0  0  0  0  0  0  0  0  0  0
    3.4432   -8.6472    0.0000 C   0  0  0  0  0  0  0  0  0  0  0  0
    2.3085   -7.9820    0.0000 C   0  0  0  0  0  0  0  0  0  0  0  0
    1.1347   -8.6472    0.0000 O   0  0  0  0  0  0  0  0  0  0  0  0
    0.0000   -7.9820    0.0000 C   0  0  0  0  0  0  0  0  0  0  0  0
   33.3759   -4.6562    0.0000 C   0  0  0  0  0  0  0  0  0  0  0  0
   34.5106   -3.9910    0.0000 C   0  0  0  0  0  0  0  0  0  0  0  0
  1  2  1  0  0  0  0
  1  7  2  0  0  0  0
  1 42  1  0  0  0  0
  2  3  1  0  0  0  0
  3  4  1  0  0  0  0
  4  5  1  0  0  0  0
  5  6  1  0  0  0  0
  7  8  1  0  0  0  0
  8  9  2  0  0  0  0
  9 10  1  0  0  0  0
  9 41  1  0  0  0  0
 10 11  2  0  0  0  0
 10 12  1  0  0  0  0
 12 13  1  0  0  0  0
 13 14  1  0  0  0  0
 14 15  1  0  0  0  0
 15 16  1  0  0  0  0
 16 17  1  0  0  0  0
 17 18  1  0  0  0  0
 18 19  1  0  0  0  0
 19 20  1  0  0  0  0
 20 21  1  0  0  0  0
 21 22  1  0  0  0  0
 22 23  1  0  0  0  0
 23 24  1  0  0  0  0
 24 25  1  0  0  0  0
 25 26  1  0  0  0  0
 26 27  1  0  0  0  0
 27 28  1  0  0  0  0
 28 29  1  0  0  0  0
 29 30  1  0  0  0  0
 30 31  1  0  0  0  0
 31 32  1  0  0  0  0
 32 33  1  0  0  0  0
 33 34  1  0  0  0  0
 34 35  1  0  0  0  0
 35 36  1  0  0  0  0
 36 37  1  0  0  0  0
 37 38  1  0  0  0  0
 38 39  1  0  0  0  0
 39 40  1  0  0  0  0
 41 42  2  0  0  0  0
M  END
> <ID>
2403

> <Formula>
C30H53NO11

> <FW>
603.7419

> <DSSTox_CID>
2655

> <DSSTox_RID>
76676

> <DSSTox_GSID>
22655

> <DSSTox_FileID_Sort>
1360

> <TS_ChemName>
Benzonatate

> <TS_ChemName_Synonyms>


> <TS_CASRN>
104-31-4

> <CASRN_ChemName_Relationship>
primary

> <TS_Description>
single chemical compound

> <ChemNote>


> <STRUCTURE_Shown>
tested chemical

> <STRUCTURE_Formula>
C30H53NO11

> <STRUCTURE_MW>
603.7419

> <STRUCTURE_ChemType>
defined organic

> <STRUCTURE_DefinedOrganicForm>
parent

> <STRUCTURE_IUPAC>
2,5,8,11,14,17,20,23,26-nonaoxaoctacosan-28-yl 4-(butylamino)benzoate

> <STRUCTURE_SMILES>
O=C(OCCOCCOCCOCCOCCOCCOCCOCCOCCOC)c1ccc(NCCCC)cc1

> <STRUCTURE_SMILES_Desalt>
O=C(OCCOCCOCCOCCOCCOCCOCCOCCOCCOC)c1ccc(NCCCC)cc1

> <Substance_modify_yyyymmdd>
20080429

$$$$
