104-55-2
ChemmineR-0915142007XD

 10 10  0  0  0  0  0  0  0  0  1 V2000
    6.9142   -2.0051    0.0000 O   0  0  0  0  0  0  0  0  0  0  0  0
    5.7596   -2.6620    0.0000 C   0  0  0  0  0  0  0  0  0  0  0  0
    4.6049   -2.0051    0.0000 C   0  0  0  0  0  0  0  0  0  0  0  0
    3.4502   -2.6620    0.0000 C   0  0  0  0  0  0  0  0  0  0  0  0
    2.2955   -2.0051    0.0000 C   0  0  0  0  0  0  0  0  0  0  0  0
    2.2955   -0.6569    0.0000 C   0  0  0  0  0  0  0  0  0  0  0  0
    1.1547    0.0000    0.0000 C   0  0  0  0  0  0  0  0  0  0  0  0
    0.0000   -0.6569    0.0000 C   0  0  0  0  0  0  0  0  0  0  0  0
    0.0000   -2.0051    0.0000 C   0  0  0  0  0  0  0  0  0  0  0  0
    1.1547   -2.6620    0.0000 C   0  0  0  0  0  0  0  0  0  0  0  0
  1  2  2  0  0  0  0
  2  3  1  0  0  0  0
  3  4  2  3  0  0  0
  4  5  1  0  0  0  0
  5  6  2  0  0  0  0
  5 10  1  0  0  0  0
  6  7  1  0  0  0  0
  7  8  2  0  0  0  0
  8  9  1  0  0  0  0
  9 10  2  0  0  0  0
M  END
> <ID>
3875

> <Formula>
C9H8O

> <FW>
132.1592

> <DSSTox_CID>
4835

> <DSSTox_RID>
83510

> <DSSTox_GSID>
24835

> <DSSTox_FileID_Sort>
8184

> <TS_ChemName>
3-Phenylprop-2-enal

> <TS_ChemName_Synonyms>


> <TS_CASRN>
104-55-2

> <CASRN_ChemName_Relationship>
primary

> <TS_Description>
mixture of Z,E isomers

> <ChemNote>
mixture of Z,E isomers

> <STRUCTURE_Shown>
representative isomer in mixture

> <STRUCTURE_Formula>
C9H8O

> <STRUCTURE_MW>
132.1592

> <STRUCTURE_ChemType>
defined organic

> <STRUCTURE_DefinedOrganicForm>
parent

> <STRUCTURE_IUPAC>
3-phenylprop-2-enal

> <STRUCTURE_SMILES>
O=CC=Cc1ccccc1

> <STRUCTURE_SMILES_Desalt>
O=CC=Cc1ccccc1

> <Substance_modify_yyyymmdd>
20110423

$$$$
