104-46-1
ChemmineR-0915142007XD

 11 11  0  0  0  0  0  0  0  0  1 V2000
    0.6703    0.0000    0.0000 C   0  0  0  0  0  0  0  0  0  0  0  0
    0.0000   -1.1680    0.0000 C   0  0  0  0  0  0  0  0  0  0  0  0
    0.6703   -2.3228    0.0000 C   0  0  0  0  0  0  0  0  0  0  0  0
    1.9976   -2.3228    0.0000 C   0  0  0  0  0  0  0  0  0  0  0  0
    2.6546   -1.1680    0.0000 C   0  0  0  0  0  0  0  0  0  0  0  0
    3.9819   -1.1680    0.0000 C   0  0  0  0  0  0  0  0  0  0  0  0
    4.6522   -2.3228    0.0000 C   0  0  0  0  0  0  0  0  0  0  0  0
    3.9819   -3.4709    0.0000 C   0  0  0  0  0  0  0  0  0  0  0  0
    2.6546   -3.4709    0.0000 C   0  0  0  0  0  0  0  0  0  0  0  0
    5.9795   -2.3228    0.0000 O   0  0  0  0  0  0  0  0  0  0  0  0
    6.6365   -3.4709    0.0000 C   0  0  0  0  0  0  0  0  0  0  0  0
  1  2  1  0  0  0  0
  2  3  2  3  0  0  0
  3  4  1  0  0  0  0
  4  5  2  0  0  0  0
  4  9  1  0  0  0  0
  5  6  1  0  0  0  0
  6  7  2  0  0  0  0
  7  8  1  0  0  0  0
  7 10  1  0  0  0  0
  8  9  2  0  0  0  0
 10 11  1  0  0  0  0
M  END
> <ID>
84

> <Formula>
C10H12O

> <FW>
148.2017

> <DSSTox_CID>
86

> <DSSTox_RID>
75355

> <DSSTox_GSID>
20086

> <DSSTox_FileID_Sort>
39

> <TS_ChemName>
Anethole

> <TS_ChemName_Synonyms>
Benzene, 1-methoxy-4-(1-propenyl)-

> <TS_CASRN>
104-46-1

> <CASRN_ChemName_Relationship>
primary

> <TS_Description>
mixture of Z,E isomers

> <ChemNote>
mixture of Z [25679-28-1], E [4180-23-8] isomers

> <STRUCTURE_Shown>
representative isomer in mixture

> <STRUCTURE_Formula>
C10H12O

> <STRUCTURE_MW>
148.2017

> <STRUCTURE_ChemType>
defined organic

> <STRUCTURE_DefinedOrganicForm>
parent

> <STRUCTURE_IUPAC>
1-methoxy-4-(prop-1-en-1-yl)benzene

> <STRUCTURE_SMILES>
COc1ccc(C=CC)cc1

> <STRUCTURE_SMILES_Desalt>
COc1ccc(C=CC)cc1

> <Substance_modify_yyyymmdd>
20130925

$$$$
