104-66-5
ChemmineR-0915142007XD

 16 17  0  0  0  0  0  0  0  0  1 V2000
    2.6627   -1.1503    0.0000 C   0  0  0  0  0  0  0  0  0  0  0  0
    2.0024   -2.3113    0.0000 C   0  0  0  0  0  0  0  0  0  0  0  0
    0.6710   -2.3113    0.0000 C   0  0  0  0  0  0  0  0  0  0  0  0
    0.0000   -1.1503    0.0000 C   0  0  0  0  0  0  0  0  0  0  0  0
    0.6710    0.0000    0.0000 C   0  0  0  0  0  0  0  0  0  0  0  0
    2.0024    0.0000    0.0000 C   0  0  0  0  0  0  0  0  0  0  0  0
    7.9882   -3.4509    0.0000 C   0  0  0  0  0  0  0  0  0  0  0  0
    8.6592   -2.3113    0.0000 C   0  0  0  0  0  0  0  0  0  0  0  0
    9.9906   -2.3113    0.0000 C   0  0  0  0  0  0  0  0  0  0  0  0
   10.6509   -3.4509    0.0000 C   0  0  0  0  0  0  0  0  0  0  0  0
    9.9906   -4.6012    0.0000 C   0  0  0  0  0  0  0  0  0  0  0  0
    8.6592   -4.6012    0.0000 C   0  0  0  0  0  0  0  0  0  0  0  0
    5.9965   -2.3113    0.0000 C   0  0  0  0  0  0  0  0  0  0  0  0
    4.6651   -2.3113    0.0000 C   0  0  0  0  0  0  0  0  0  0  0  0
    6.6568   -3.4509    0.0000 O   0  0  0  0  0  0  0  0  0  0  0  0
    3.9941   -1.1503    0.0000 O   0  0  0  0  0  0  0  0  0  0  0  0
  1  2  2  0  0  0  0
  1  6  1  0  0  0  0
  1 16  1  0  0  0  0
  2  3  1  0  0  0  0
  3  4  2  0  0  0  0
  4  5  1  0  0  0  0
  5  6  2  0  0  0  0
  7  8  2  0  0  0  0
  7 12  1  0  0  0  0
  7 15  1  0  0  0  0
  8  9  1  0  0  0  0
  9 10  2  0  0  0  0
 10 11  1  0  0  0  0
 11 12  2  0  0  0  0
 13 14  1  0  0  0  0
 13 15  1  0  0  0  0
 14 16  1  0  0  0  0
M  END
> <ID>
4770

> <Formula>
C14H14O2

> <FW>
214.2598

> <DSSTox_CID>
6706

> <DSSTox_RID>
78190

> <DSSTox_GSID>
26706

> <DSSTox_FileID_Sort>
2873

> <TS_ChemName>
1,2-Diphenoxyethane

> <TS_ChemName_Synonyms>
Benzene, 1,1'-[1,2-ethanediylbis(oxy)]bis-

> <TS_CASRN>
104-66-5

> <CASRN_ChemName_Relationship>
primary

> <TS_Description>
single chemical compound

> <ChemNote>


> <STRUCTURE_Shown>
tested chemical

> <STRUCTURE_Formula>
C14H14O2

> <STRUCTURE_MW>
214.2598

> <STRUCTURE_ChemType>
defined organic

> <STRUCTURE_DefinedOrganicForm>
parent

> <STRUCTURE_IUPAC>
1,1'-[ethane-1,2-diylbis(oxy)]dibenzene

> <STRUCTURE_SMILES>
C(COc1ccccc1)Oc2ccccc2

> <STRUCTURE_SMILES_Desalt>
C(COc1ccccc1)Oc2ccccc2

> <Substance_modify_yyyymmdd>
20080429

$$$$
