104-13-2
ChemmineR-0915142007XD

 11 11  0  0  0  0  0  0  0  0  1 V2000
    8.0641    0.0000    0.0000 N   0  0  0  0  0  0  0  0  0  0  0  0
    6.9109   -0.6693    0.0000 C   0  0  0  0  0  0  0  0  0  0  0  0
    6.9109   -1.9999    0.0000 C   0  0  0  0  0  0  0  0  0  0  0  0
    5.7578   -2.6612    0.0000 C   0  0  0  0  0  0  0  0  0  0  0  0
    4.6046   -1.9999    0.0000 C   0  0  0  0  0  0  0  0  0  0  0  0
    3.4595   -2.6612    0.0000 C   0  0  0  0  0  0  0  0  0  0  0  0
    2.3063   -1.9999    0.0000 C   0  0  0  0  0  0  0  0  0  0  0  0
    1.1532   -2.6612    0.0000 C   0  0  0  0  0  0  0  0  0  0  0  0
    0.0000   -1.9999    0.0000 C   0  0  0  0  0  0  0  0  0  0  0  0
    4.6046   -0.6693    0.0000 C   0  0  0  0  0  0  0  0  0  0  0  0
    5.7578    0.0000    0.0000 C   0  0  0  0  0  0  0  0  0  0  0  0
  1  2  1  0  0  0  0
  2  3  2  0  0  0  0
  2 11  1  0  0  0  0
  3  4  1  0  0  0  0
  4  5  2  0  0  0  0
  5  6  1  0  0  0  0
  5 10  1  0  0  0  0
  6  7  1  0  0  0  0
  7  8  1  0  0  0  0
  8  9  1  0  0  0  0
 10 11  2  0  0  0  0
M  END
> <ID>
1742

> <Formula>
C10H15N

> <FW>
149.2328

> <DSSTox_CID>
1856

> <DSSTox_RID>
76368

> <DSSTox_GSID>
21856

> <DSSTox_FileID_Sort>
1052

> <TS_ChemName>
4-Butylaniline

> <TS_ChemName_Synonyms>


> <TS_CASRN>
104-13-2

> <CASRN_ChemName_Relationship>
primary

> <TS_Description>
single chemical compound

> <ChemNote>


> <STRUCTURE_Shown>
tested chemical

> <STRUCTURE_Formula>
C10H15N

> <STRUCTURE_MW>
149.2328

> <STRUCTURE_ChemType>
defined organic

> <STRUCTURE_DefinedOrganicForm>
parent

> <STRUCTURE_IUPAC>
4-butylaniline

> <STRUCTURE_SMILES>
Nc1ccc(CCCC)cc1

> <STRUCTURE_SMILES_Desalt>
Nc1ccc(CCCC)cc1

> <Substance_modify_yyyymmdd>
20080429

$$$$
