104-40-5
ChemmineR-0915142007XD

 16 16  0  0  0  0  0  0  0  0  1 V2000
    0.0000   -2.6554    0.0000 C   0  0  0  0  0  0  0  0  0  0  0  0
    1.1479   -1.9916    0.0000 C   0  0  0  0  0  0  0  0  0  0  0  0
    2.3097   -2.6554    0.0000 C   0  0  0  0  0  0  0  0  0  0  0  0
    3.4576   -1.9916    0.0000 C   0  0  0  0  0  0  0  0  0  0  0  0
    4.6055   -2.6554    0.0000 C   0  0  0  0  0  0  0  0  0  0  0  0
    5.7672   -1.9916    0.0000 C   0  0  0  0  0  0  0  0  0  0  0  0
    6.9151   -2.6554    0.0000 C   0  0  0  0  0  0  0  0  0  0  0  0
    8.0630   -1.9916    0.0000 C   0  0  0  0  0  0  0  0  0  0  0  0
    9.2248   -2.6554    0.0000 C   0  0  0  0  0  0  0  0  0  0  0  0
   10.3727   -1.9916    0.0000 C   0  0  0  0  0  0  0  0  0  0  0  0
   10.3727   -0.6639    0.0000 C   0  0  0  0  0  0  0  0  0  0  0  0
   11.5206    0.0000    0.0000 C   0  0  0  0  0  0  0  0  0  0  0  0
   12.6823   -0.6639    0.0000 C   0  0  0  0  0  0  0  0  0  0  0  0
   13.8302    0.0000    0.0000 O   0  0  0  0  0  0  0  0  0  0  0  0
   12.6823   -1.9916    0.0000 C   0  0  0  0  0  0  0  0  0  0  0  0
   11.5206   -2.6554    0.0000 C   0  0  0  0  0  0  0  0  0  0  0  0
  1  2  1  0  0  0  0
  2  3  1  0  0  0  0
  3  4  1  0  0  0  0
  4  5  1  0  0  0  0
  5  6  1  0  0  0  0
  6  7  1  0  0  0  0
  7  8  1  0  0  0  0
  8  9  1  0  0  0  0
  9 10  1  0  0  0  0
 10 11  2  0  0  0  0
 10 16  1  0  0  0  0
 11 12  1  0  0  0  0
 12 13  2  0  0  0  0
 13 14  1  0  0  0  0
 13 15  1  0  0  0  0
 15 16  2  0  0  0  0
M  END
> <ID>
1743

> <Formula>
C15H24O

> <FW>
220.3505

> <DSSTox_CID>
1857

> <DSSTox_RID>
79098

> <DSSTox_GSID>
33836

> <DSSTox_FileID_Sort>
3780

> <TS_ChemName>
4-Nonylphenol

> <TS_ChemName_Synonyms>
4-Nonylphenol (4-NP) (para-nonylphenol) (PPT)

> <TS_CASRN>
104-40-5

> <CASRN_ChemName_Relationship>
primary

> <TS_Description>
single chemical compound

> <ChemNote>


> <STRUCTURE_Shown>
tested chemical

> <STRUCTURE_Formula>
C15H24O

> <STRUCTURE_MW>
220.3505

> <STRUCTURE_ChemType>
defined organic

> <STRUCTURE_DefinedOrganicForm>
parent

> <STRUCTURE_IUPAC>
4-nonylphenol

> <STRUCTURE_SMILES>
Oc1ccc(CCCCCCCCC)cc1

> <STRUCTURE_SMILES_Desalt>
Oc1ccc(CCCCCCCCC)cc1

> <Substance_modify_yyyymmdd>
20080429

$$$$
