104-67-6
ChemmineR-0915142007XD

 13 13  0  0  0  0  0  0  0  0  1 V2000
    9.9799   -1.0749    0.0000 C   0  0  0  0  0  0  0  0  0  0  0  0
    9.2105   -2.1499    0.0000 O   0  0  0  0  0  0  0  0  0  0  0  0
   11.3151   -1.0749    0.0000 O   0  0  0  0  0  0  0  0  0  0  0  0
    9.2105    0.0000    0.0000 C   0  0  0  0  0  0  0  0  0  0  0  0
    7.9545   -1.7312    0.0000 C   0  0  0  0  0  0  0  0  0  0  0  0
    7.9545   -0.3960    0.0000 C   0  0  0  0  0  0  0  0  0  0  0  0
    6.8796   -2.5119    0.0000 C   0  0  0  0  0  0  0  0  0  0  0  0
    5.6575   -1.9688    0.0000 C   0  0  0  0  0  0  0  0  0  0  0  0
    1.0749   -2.4554    0.0000 C   0  0  0  0  0  0  0  0  0  0  0  0
    2.2970   -2.9985    0.0000 C   0  0  0  0  0  0  0  0  0  0  0  0
    4.5826   -2.7609    0.0000 C   0  0  0  0  0  0  0  0  0  0  0  0
    3.3606   -2.2064    0.0000 C   0  0  0  0  0  0  0  0  0  0  0  0
    0.0000   -3.2361    0.0000 C   0  0  0  0  0  0  0  0  0  0  0  0
  1  2  1  0  0  0  0
  1  3  2  0  0  0  0
  1  4  1  0  0  0  0
  2  5  1  0  0  0  0
  4  6  1  0  0  0  0
  5  7  1  0  0  0  0
  5  6  1  0  0  0  0
  7  8  1  0  0  0  0
  8 11  1  0  0  0  0
  9 10  1  0  0  0  0
  9 13  1  0  0  0  0
 10 12  1  0  0  0  0
 11 12  1  0  0  0  0
M  END
> <ID>
6718

> <Formula>
C11H20O2

> <FW>
184.2753

> <DSSTox_CID>
14287

> <DSSTox_RID>
79139

> <DSSTox_GSID>
34287

> <DSSTox_FileID_Sort>
3821

> <TS_ChemName>
5-Heptyldihydro-2(3H)-furanone

> <TS_ChemName_Synonyms>
5-Heptyldihydro-2(3H)-furanone (Undecanoic gamma-lactone)

> <TS_CASRN>
104-67-6

> <CASRN_ChemName_Relationship>
primary

> <TS_Description>
single chemical compound

> <ChemNote>


> <STRUCTURE_Shown>
tested chemical

> <STRUCTURE_Formula>
C11H20O2

> <STRUCTURE_MW>
184.2753

> <STRUCTURE_ChemType>
defined organic

> <STRUCTURE_DefinedOrganicForm>
parent

> <STRUCTURE_IUPAC>
5-heptyldihydrofuran-2(3H)-one

> <STRUCTURE_SMILES>
O=C1CCC(CCCCCCC)O1

> <STRUCTURE_SMILES_Desalt>
O=C1CCC(CCCCCCC)O1

> <Substance_modify_yyyymmdd>
20080429

$$$$
