104-43-8
ChemmineR-0915142007XD

 19 19  0  0  0  0  0  0  0  0  1 V2000
   13.2985   -2.3049    0.0000 C   0  0  0  0  0  0  0  0  0  0  0  0
   13.9691   -3.4504    0.0000 C   0  0  0  0  0  0  0  0  0  0  0  0
   13.2985   -4.6098    0.0000 C   0  0  0  0  0  0  0  0  0  0  0  0
   11.9715   -4.6098    0.0000 C   0  0  0  0  0  0  0  0  0  0  0  0
   11.3149   -3.4504    0.0000 C   0  0  0  0  0  0  0  0  0  0  0  0
   11.9715   -2.3049    0.0000 C   0  0  0  0  0  0  0  0  0  0  0  0
   11.3149   -5.7553    0.0000 C   0  0  0  0  0  0  0  0  0  0  0  0
    9.9739   -5.7553    0.0000 C   0  0  0  0  0  0  0  0  0  0  0  0
    9.3174   -4.6098    0.0000 C   0  0  0  0  0  0  0  0  0  0  0  0
    7.9763   -4.6098    0.0000 C   0  0  0  0  0  0  0  0  0  0  0  0
    7.3198   -3.4504    0.0000 C   0  0  0  0  0  0  0  0  0  0  0  0
    5.9927   -3.4504    0.0000 C   0  0  0  0  0  0  0  0  0  0  0  0
    5.3222   -2.3049    0.0000 C   0  0  0  0  0  0  0  0  0  0  0  0
    3.9952   -2.3049    0.0000 C   0  0  0  0  0  0  0  0  0  0  0  0
    3.3246   -1.1455    0.0000 C   0  0  0  0  0  0  0  0  0  0  0  0
    1.9976   -1.1455    0.0000 C   0  0  0  0  0  0  0  0  0  0  0  0
    1.3271    0.0000    0.0000 C   0  0  0  0  0  0  0  0  0  0  0  0
    0.0000    0.0000    0.0000 C   0  0  0  0  0  0  0  0  0  0  0  0
   13.9691   -1.1455    0.0000 O   0  0  0  0  0  0  0  0  0  0  0  0
  1  2  2  0  0  0  0
  1  6  1  0  0  0  0
  1 19  1  0  0  0  0
  2  3  1  0  0  0  0
  3  4  2  0  0  0  0
  4  5  1  0  0  0  0
  4  7  1  0  0  0  0
  5  6  2  0  0  0  0
  7  8  1  0  0  0  0
  8  9  1  0  0  0  0
  9 10  1  0  0  0  0
 10 11  1  0  0  0  0
 11 12  1  0  0  0  0
 12 13  1  0  0  0  0
 13 14  1  0  0  0  0
 14 15  1  0  0  0  0
 15 16  1  0  0  0  0
 16 17  1  0  0  0  0
 17 18  1  0  0  0  0
M  END
> <ID>
2277

> <Formula>
C18H30O

> <FW>
262.4302

> <DSSTox_CID>
2508

> <DSSTox_RID>
76604

> <DSSTox_GSID>
22508

> <DSSTox_FileID_Sort>
1288

> <TS_ChemName>
4-Dodecylphenol

> <TS_ChemName_Synonyms>


> <TS_CASRN>
104-43-8

> <CASRN_ChemName_Relationship>
primary

> <TS_Description>
single chemical compound

> <ChemNote>


> <STRUCTURE_Shown>
tested chemical

> <STRUCTURE_Formula>
C18H30O

> <STRUCTURE_MW>
262.4302

> <STRUCTURE_ChemType>
defined organic

> <STRUCTURE_DefinedOrganicForm>
parent

> <STRUCTURE_IUPAC>
4-dodecylphenol

> <STRUCTURE_SMILES>
Oc1ccc(CCCCCCCCCCCC)cc1

> <STRUCTURE_SMILES_Desalt>
Oc1ccc(CCCCCCCCCCCC)cc1

> <Substance_modify_yyyymmdd>
20080429

$$$$
