104-32-5
ChemmineR-0915142007XD

 23 24  0  0  0  0  0  0  0  0  1 V2000
   15.0084   -2.6922    0.0000 C   0  0  0  0  0  0  0  0  0  0  0  0
    1.1768   -2.8534    0.0000 C   0  0  0  0  0  0  0  0  0  0  0  0
   13.8154   -1.9828    0.0000 C   0  0  0  0  0  0  0  0  0  0  0  0
    2.3053   -2.1441    0.0000 C   0  0  0  0  0  0  0  0  0  0  0  0
   15.0084   -3.9818    0.0000 N   0  0  0  0  0  0  0  0  0  0  0  0
    0.0000   -2.1441    0.0000 N   0  0  0  0  0  0  0  0  0  0  0  0
   13.8154   -0.7093    0.0000 C   0  0  0  0  0  0  0  0  0  0  0  0
    2.3053   -0.8060    0.0000 C   0  0  0  0  0  0  0  0  0  0  0  0
   12.6870   -2.6922    0.0000 C   0  0  0  0  0  0  0  0  0  0  0  0
    3.4821   -2.7405    0.0000 C   0  0  0  0  0  0  0  0  0  0  0  0
   16.1207   -1.9828    0.0000 N   0  0  0  0  0  0  0  0  0  0  0  0
    1.1768   -4.1914    0.0000 N   0  0  0  0  0  0  0  0  0  0  0  0
    4.6266   -0.8060    0.0000 C   0  0  0  0  0  0  0  0  0  0  0  0
   11.5424   -0.7093    0.0000 C   0  0  0  0  0  0  0  0  0  0  0  0
    4.6266   -2.0957    0.0000 C   0  0  0  0  0  0  0  0  0  0  0  0
   11.5424   -1.9828    0.0000 C   0  0  0  0  0  0  0  0  0  0  0  0
    3.4821   -0.1612    0.0000 C   0  0  0  0  0  0  0  0  0  0  0  0
   12.6870    0.0000    0.0000 C   0  0  0  0  0  0  0  0  0  0  0  0
    8.0604   -0.0484    0.0000 C   0  0  0  0  0  0  0  0  0  0  0  0
   10.3817    0.0000    0.0000 O   0  0  0  0  0  0  0  0  0  0  0  0
    5.7390   -0.1128    0.0000 O   0  0  0  0  0  0  0  0  0  0  0  0
    6.9319   -0.7577    0.0000 C   0  0  0  0  0  0  0  0  0  0  0  0
    9.2372   -0.7093    0.0000 C   0  0  0  0  0  0  0  0  0  0  0  0
  1  3  1  0  0  0  0
  1  5  2  0  0  0  0
  1 11  1  0  0  0  0
  2  4  1  0  0  0  0
  2  6  2  0  0  0  0
  2 12  1  0  0  0  0
  3  7  2  0  0  0  0
  3  9  1  0  0  0  0
  4  8  1  0  0  0  0
  4 10  2  0  0  0  0
  7 18  1  0  0  0  0
  8 17  2  0  0  0  0
  9 16  2  0  0  0  0
 10 15  1  0  0  0  0
 13 21  1  0  0  0  0
 13 15  2  0  0  0  0
 13 17  1  0  0  0  0
 14 16  1  0  0  0  0
 14 20  1  0  0  0  0
 14 18  2  0  0  0  0
 19 23  1  0  0  0  0
 19 22  1  0  0  0  0
 20 23  1  0  0  0  0
 21 22  1  0  0  0  0
M  END
> <ID>
13668

> <Formula>
C17H20N4O2

> <FW>
312.3663

> <DSSTox_CID>
28600

> <DSSTox_RID>
82870

> <DSSTox_GSID>
48674

> <DSSTox_FileID_Sort>
7547

> <TS_ChemName>
Propamidine

> <TS_ChemName_Synonyms>


> <TS_CASRN>
104-32-5

> <CASRN_ChemName_Relationship>
primary

> <TS_Description>
single chemical compound

> <ChemNote>


> <STRUCTURE_Shown>
tested chemical

> <STRUCTURE_Formula>
C17H20N4O2

> <STRUCTURE_MW>
312.3663

> <STRUCTURE_ChemType>
defined organic

> <STRUCTURE_DefinedOrganicForm>
parent

> <STRUCTURE_IUPAC>
4,4'-[propane-1,3-diylbis(oxy)]dibenzenecarboximidamide

> <STRUCTURE_SMILES>
N=C(N)c1ccc(cc1)OCCCOc2ccc(cc2)C(=N)N

> <STRUCTURE_SMILES_Desalt>
N=C(N)c1ccc(cc1)OCCCOc2ccc(cc2)C(=N)N

> <Substance_modify_yyyymmdd>
20111204

$$$$
