104-53-0
ChemmineR-0915142007XD

 10 10  0  0  0  0  0  0  0  0  1 V2000
    5.7690    0.0000    0.0000 C   0  0  0  0  0  0  0  0  0  0  0  0
    4.6193   -0.6579    0.0000 C   0  0  0  0  0  0  0  0  0  0  0  0
    3.4628    0.0000    0.0000 C   0  0  0  0  0  0  0  0  0  0  0  0
    6.9255   -0.6579    0.0000 O   0  0  0  0  0  0  0  0  0  0  0  0
    1.1566   -2.6594    0.0000 C   0  0  0  0  0  0  0  0  0  0  0  0
    0.0000   -1.9876    0.0000 C   0  0  0  0  0  0  0  0  0  0  0  0
    0.0000   -0.6579    0.0000 C   0  0  0  0  0  0  0  0  0  0  0  0
    1.1566    0.0000    0.0000 C   0  0  0  0  0  0  0  0  0  0  0  0
    2.3062   -0.6579    0.0000 C   0  0  0  0  0  0  0  0  0  0  0  0
    2.3062   -1.9876    0.0000 C   0  0  0  0  0  0  0  0  0  0  0  0
  1  2  1  0  0  0  0
  1  4  2  0  0  0  0
  2  3  1  0  0  0  0
  3  9  1  0  0  0  0
  5 10  2  0  0  0  0
  5  6  1  0  0  0  0
  6  7  2  0  0  0  0
  7  8  1  0  0  0  0
  8  9  2  0  0  0  0
  9 10  1  0  0  0  0
M  END
> <ID>
12732

> <Formula>
C9H10O

> <FW>
134.1751

> <DSSTox_CID>
27610

> <DSSTox_RID>
82452

> <DSSTox_GSID>
47610

> <DSSTox_FileID_Sort>
7133

> <TS_ChemName>
3-Phenylpropanal

> <TS_ChemName_Synonyms>
3-Phenylpropanal (Hydrocinnamaldehyde)

> <TS_CASRN>
104-53-0

> <CASRN_ChemName_Relationship>
primary

> <TS_Description>
single chemical compound

> <ChemNote>


> <STRUCTURE_Shown>
tested chemical

> <STRUCTURE_Formula>
C9H10O

> <STRUCTURE_MW>
134.1751

> <STRUCTURE_ChemType>
defined organic

> <STRUCTURE_DefinedOrganicForm>
parent

> <STRUCTURE_IUPAC>
3-phenylpropanal

> <STRUCTURE_SMILES>
O=CCCc1ccccc1

> <STRUCTURE_SMILES_Desalt>
O=CCCc1ccccc1

> <Substance_modify_yyyymmdd>
20101021

$$$$
