104-28-9
ChemmineR-0915142007XD

 18 18  0  0  0  0  0  0  0  0  1 V2000
    8.0484   -1.3039    0.0000 C   0  0  0  0  0  0  0  0  0  0  0  0
    6.9094   -1.9934    0.0000 C   0  0  0  0  0  0  0  0  0  0  0  0
    5.7403   -1.3039    0.0000 C   0  0  0  0  0  0  0  0  0  0  0  0
    8.0484    0.0000    0.0000 O   0  0  0  0  0  0  0  0  0  0  0  0
    9.2175   -1.9934    0.0000 O   0  0  0  0  0  0  0  0  0  0  0  0
    4.6013   -1.9934    0.0000 C   0  0  0  0  0  0  0  0  0  0  0  0
    3.4472   -1.3039    0.0000 C   0  0  0  0  0  0  0  0  0  0  0  0
    4.6013   -3.2973    0.0000 C   0  0  0  0  0  0  0  0  0  0  0  0
    2.3231   -1.9934    0.0000 C   0  0  0  0  0  0  0  0  0  0  0  0
    3.4472   -3.9568    0.0000 C   0  0  0  0  0  0  0  0  0  0  0  0
    2.3231   -3.2973    0.0000 C   0  0  0  0  0  0  0  0  0  0  0  0
   10.3566   -1.3039    0.0000 C   0  0  0  0  0  0  0  0  0  0  0  0
    1.1690   -3.9568    0.0000 O   0  0  0  0  0  0  0  0  0  0  0  0
    0.0000   -3.2973    0.0000 C   0  0  0  0  0  0  0  0  0  0  0  0
   11.5256   -1.9634    0.0000 C   0  0  0  0  0  0  0  0  0  0  0  0
   12.6797   -1.2740    0.0000 O   0  0  0  0  0  0  0  0  0  0  0  0
   13.8487   -1.9334    0.0000 C   0  0  0  0  0  0  0  0  0  0  0  0
   14.9878   -1.2590    0.0000 C   0  0  0  0  0  0  0  0  0  0  0  0
  1  2  1  0  0  0  0
  1  4  2  0  0  0  0
  1  5  1  0  0  0  0
  2  3  2  3  0  0  0
  3  6  1  0  0  0  0
  5 12  1  0  0  0  0
  6  7  2  0  0  0  0
  6  8  1  0  0  0  0
  7  9  1  0  0  0  0
  8 10  2  0  0  0  0
  9 11  2  0  0  0  0
 10 11  1  0  0  0  0
 11 13  1  0  0  0  0
 12 15  1  0  0  0  0
 13 14  1  0  0  0  0
 15 16  1  0  0  0  0
 16 17  1  0  0  0  0
 17 18  1  0  0  0  0
M  END
> <ID>
4110

> <Formula>
C14H18O4

> <FW>
250.2903

> <DSSTox_CID>
5264

> <DSSTox_RID>
97554

> <DSSTox_GSID>
25264

> <DSSTox_FileID_Sort>
8329

> <TS_ChemName>
2-Ethoxylethyl-p-methoxycinnamate

> <TS_ChemName_Synonyms>
2-Ethoxyethyl p-methoxycinnamate

> <TS_CASRN>
104-28-9

> <CASRN_ChemName_Relationship>
primary

> <TS_Description>
mixture of Z,E isomers

> <ChemNote>
Mixture of Z,E isomers

> <STRUCTURE_Shown>
representative isomer in mixture

> <STRUCTURE_Formula>
C14H18O4

> <STRUCTURE_MW>
250.2903

> <STRUCTURE_ChemType>
defined organic

> <STRUCTURE_DefinedOrganicForm>
parent

> <STRUCTURE_IUPAC>
2-ethoxyethyl 3-(4-methoxyphenyl)prop-2-enoate

> <STRUCTURE_SMILES>
COc1ccc(C=CC(=O)OCCOCC)cc1

> <STRUCTURE_SMILES_Desalt>
COc1ccc(C=CC(=O)OCCOCC)cc1

> <Substance_modify_yyyymmdd>
20110518

$$$$
