104-63-2
ChemmineR-0915142007XD

 11 11  0  0  0  0  0  0  0  0  1 V2000
    1.3201   -3.4307    0.0000 C   0  0  0  0  0  0  0  0  0  0  0  0
    1.9841   -2.3794    0.0000 C   0  0  0  0  0  0  0  0  0  0  0  0
    0.0000   -3.4307    0.0000 O   0  0  0  0  0  0  0  0  0  0  0  0
    3.3043   -2.3794    0.0000 N   0  0  0  0  0  0  0  0  0  0  0  0
    3.9525   -1.1936    0.0000 C   0  0  0  0  0  0  0  0  0  0  0  0
    7.2409    0.0000    0.0000 C   0  0  0  0  0  0  0  0  0  0  0  0
    7.9049   -1.1936    0.0000 C   0  0  0  0  0  0  0  0  0  0  0  0
    7.2409   -2.3794    0.0000 C   0  0  0  0  0  0  0  0  0  0  0  0
    5.9208   -2.3794    0.0000 C   0  0  0  0  0  0  0  0  0  0  0  0
    5.2726   -1.1936    0.0000 C   0  0  0  0  0  0  0  0  0  0  0  0
    5.9208    0.0000    0.0000 C   0  0  0  0  0  0  0  0  0  0  0  0
  1  2  1  0  0  0  0
  1  3  1  0  0  0  0
  2  4  1  0  0  0  0
  4  5  1  0  0  0  0
  5 10  1  0  0  0  0
  6 11  2  0  0  0  0
  6  7  1  0  0  0  0
  7  8  2  0  0  0  0
  8  9  1  0  0  0  0
  9 10  2  0  0  0  0
 10 11  1  0  0  0  0
M  END
> <ID>
10014

> <Formula>
C9H13NO

> <FW>
151.2056

> <DSSTox_CID>
24356

> <DSSTox_RID>
80165

> <DSSTox_GSID>
44356

> <DSSTox_FileID_Sort>
4847

> <TS_ChemName>
N-Benzylethanolamine

> <TS_ChemName_Synonyms>
Ethanol, 2-[(phenylmethyl)amino]-

> <TS_CASRN>
104-63-2

> <CASRN_ChemName_Relationship>
primary

> <TS_Description>
single chemical compound

> <ChemNote>


> <STRUCTURE_Shown>
tested chemical

> <STRUCTURE_Formula>
C9H13NO

> <STRUCTURE_MW>
151.2056

> <STRUCTURE_ChemType>
defined organic

> <STRUCTURE_DefinedOrganicForm>
parent

> <STRUCTURE_IUPAC>
2-(benzylamino)ethanol

> <STRUCTURE_SMILES>
OCCNCc1ccccc1

> <STRUCTURE_SMILES_Desalt>
OCCNCc1ccccc1

> <Substance_modify_yyyymmdd>
20091116

$$$$
