104-54-1
ChemmineR-0915142007XD

 10 10  0  0  0  0  0  0  0  0  1 V2000
    5.7484    0.0000    0.0000 C   0  0  0  0  0  0  0  0  0  0  0  0
    4.5877   -0.6840    0.0000 C   0  0  0  0  0  0  0  0  0  0  0  0
    3.4476   -0.0138    0.0000 C   0  0  0  0  0  0  0  0  0  0  0  0
    6.9091   -0.6840    0.0000 O   0  0  0  0  0  0  0  0  0  0  0  0
    1.1469   -2.6669    0.0000 C   0  0  0  0  0  0  0  0  0  0  0  0
    0.0000   -2.0175    0.0000 C   0  0  0  0  0  0  0  0  0  0  0  0
    0.0000   -0.6840    0.0000 C   0  0  0  0  0  0  0  0  0  0  0  0
    1.1607   -0.0138    0.0000 C   0  0  0  0  0  0  0  0  0  0  0  0
    2.3215   -0.6840    0.0000 C   0  0  0  0  0  0  0  0  0  0  0  0
    2.3007   -1.9829    0.0000 C   0  0  0  0  0  0  0  0  0  0  0  0
  1  2  1  0  0  0  0
  1  4  1  0  0  0  0
  2  3  2  3  0  0  0
  3  9  1  0  0  0  0
  5 10  2  0  0  0  0
  5  6  1  0  0  0  0
  6  7  2  0  0  0  0
  7  8  1  0  0  0  0
  8  9  2  0  0  0  0
  9 10  1  0  0  0  0
M  END
> <ID>
8457

> <Formula>
C9H10O

> <FW>
134.1751

> <DSSTox_CID>
21491

> <DSSTox_RID>
79750

> <DSSTox_GSID>
41491

> <DSSTox_FileID_Sort>
4432

> <TS_ChemName>
3-Phenyl-2-propen-1-ol

> <TS_ChemName_Synonyms>
3-Phenyl-2-propen-1-ol (Cinnamyl alcohol)

> <TS_CASRN>
104-54-1

> <CASRN_ChemName_Relationship>
primary

> <TS_Description>
mixture of Z,E isomers

> <ChemNote>
mixture of Z- [4510-34-3],E- [4407-36-7] isomers

> <STRUCTURE_Shown>
representative isomer in mixture

> <STRUCTURE_Formula>
C9H10O

> <STRUCTURE_MW>
134.1751

> <STRUCTURE_ChemType>
defined organic

> <STRUCTURE_DefinedOrganicForm>
parent

> <STRUCTURE_IUPAC>
3-phenylprop-2-en-1-ol

> <STRUCTURE_SMILES>
OCC=Cc1ccccc1

> <STRUCTURE_SMILES_Desalt>
OCC=Cc1ccccc1

> <Substance_modify_yyyymmdd>
20080825

$$$$
