104-88-1
ChemmineR-0915142007XD

  9  9  0  0  0  0  0  0  0  0  1 V2000
    5.9806   -1.1542    0.0000 Cl   0  0  0  0  0  0  0  0  0  0  0  0
    4.6529   -1.1542    0.0000 C    0  0  0  0  0  0  0  0  0  0  0  0
    3.9890   -2.3025    0.0000 C    0  0  0  0  0  0  0  0  0  0  0  0
    2.6554   -2.3025    0.0000 C    0  0  0  0  0  0  0  0  0  0  0  0
    1.9915   -1.1542    0.0000 C    0  0  0  0  0  0  0  0  0  0  0  0
    0.6638   -1.1542    0.0000 C    0  0  0  0  0  0  0  0  0  0  0  0
    0.0000    0.0000    0.0000 O    0  0  0  0  0  0  0  0  0  0  0  0
    3.9890    0.0000    0.0000 C    0  0  0  0  0  0  0  0  0  0  0  0
    2.6554    0.0000    0.0000 C    0  0  0  0  0  0  0  0  0  0  0  0
  1  2  1  0  0  0  0
  2  3  2  0  0  0  0
  2  8  1  0  0  0  0
  3  4  1  0  0  0  0
  4  5  2  0  0  0  0
  5  6  1  0  0  0  0
  5  9  1  0  0  0  0
  6  7  2  0  0  0  0
  8  9  2  0  0  0  0
M  END
> <ID>
1745

> <Formula>
C7H5ClO

> <FW>
140.567

> <DSSTox_CID>
1860

> <DSSTox_RID>
76369

> <DSSTox_GSID>
21860

> <DSSTox_FileID_Sort>
1053

> <TS_ChemName>
4-Chlorobenzaldehyde

> <TS_ChemName_Synonyms>


> <TS_CASRN>
104-88-1

> <CASRN_ChemName_Relationship>
primary

> <TS_Description>
single chemical compound

> <ChemNote>


> <STRUCTURE_Shown>
tested chemical

> <STRUCTURE_Formula>
C7H5ClO

> <STRUCTURE_MW>
140.567

> <STRUCTURE_ChemType>
defined organic

> <STRUCTURE_DefinedOrganicForm>
parent

> <STRUCTURE_IUPAC>
4-chlorobenzaldehyde

> <STRUCTURE_SMILES>
O=Cc1ccc(Cl)cc1

> <STRUCTURE_SMILES_Desalt>
O=Cc1ccc(Cl)cc1

> <Substance_modify_yyyymmdd>
20080429

$$$$
