104054-27-5
ChemmineR-0915142007XD

 16 18  0  0  0  0  0  0  0  0  1 V2000
    5.4854   -3.9805    0.0000 N   0  0  0  0  0  0  0  0  0  0  0  0
    5.4854   -2.6637    0.0000 C   0  0  0  0  0  0  0  0  0  0  0  0
    6.7495   -2.2348    0.0000 C   0  0  0  0  0  0  0  0  0  0  0  0
    7.5246   -3.3259    0.0000 N   0  0  0  0  0  0  0  0  0  0  0  0
    6.7495   -4.4019    0.0000 C   0  0  0  0  0  0  0  0  0  0  0  0
    3.5516   -0.9105    0.0000 C   0  0  0  0  0  0  0  0  0  0  0  0
    4.3417   -1.9714    0.0000 C   0  0  0  0  0  0  0  0  0  0  0  0
    3.5516   -3.0700    0.0000 C   0  0  0  0  0  0  0  0  0  0  0  0
    2.3025   -1.3319    0.0000 C   0  0  0  0  0  0  0  0  0  0  0  0
    2.3025   -2.6637    0.0000 C   0  0  0  0  0  0  0  0  0  0  0  0
    1.1437   -3.3259    0.0000 C   0  0  0  0  0  0  0  0  0  0  0  0
    0.0000   -2.6637    0.0000 C   0  0  0  0  0  0  0  0  0  0  0  0
    0.0000   -1.3319    0.0000 C   0  0  0  0  0  0  0  0  0  0  0  0
    1.1437   -0.6546    0.0000 C   0  0  0  0  0  0  0  0  0  0  0  0
    5.5005   -1.3319    0.0000 C   0  0  0  0  0  0  0  0  0  0  0  0
    5.5005    0.0000    0.0000 C   0  0  0  0  0  0  0  0  0  0  0  0
  1  5  1  0  0  0  0
  1  2  1  0  0  0  0
  2  3  2  0  0  0  0
  2  7  1  0  0  0  0
  3  4  1  0  0  0  0
  4  5  2  0  0  0  0
  6  9  1  0  0  0  0
  6  7  1  0  0  0  0
  7 15  1  0  0  0  0
  7  8  1  0  0  0  0
  8 10  1  0  0  0  0
  9 10  2  0  0  0  0
  9 14  1  0  0  0  0
 10 11  1  0  0  0  0
 11 12  2  0  0  0  0
 12 13  1  0  0  0  0
 13 14  2  0  0  0  0
 15 16  1  0  0  0  0
M  END
> <ID>
14068

> <Formula>
C14H16N2

> <FW>
212.2902

> <DSSTox_CID>
29061

> <DSSTox_RID>
83274

> <DSSTox_GSID>
49135

> <DSSTox_FileID_Sort>
7949

> <TS_ChemName>
Atipamezole

> <TS_ChemName_Synonyms>


> <TS_CASRN>
104054-27-5

> <CASRN_ChemName_Relationship>
primary

> <TS_Description>
single chemical compound

> <ChemNote>
tautomers

> <STRUCTURE_Shown>
tested chemical

> <STRUCTURE_Formula>
C14H16N2

> <STRUCTURE_MW>
212.2902

> <STRUCTURE_ChemType>
defined organic

> <STRUCTURE_DefinedOrganicForm>
parent

> <STRUCTURE_IUPAC>
5-(2-ethyl-2,3-dihydro-1H-inden-2-yl)-1H-imidazole

> <STRUCTURE_SMILES>
CCC1(Cc2ccccc2C1)c3cncn3

> <STRUCTURE_SMILES_Desalt>
CCC1(Cc2ccccc2C1)c3cncn3

> <Substance_modify_yyyymmdd>
20111014

$$$$
