10402-33-2
ChemmineR-0915142007XD

 21 22  0  0  0  0  0  0  0  0  1 V2000
    2.3069   -2.6645    0.0000 C   0  0  0  0  0  0  0  0  0  0  0  0
    2.3069   -3.9909    0.0000 C   0  0  0  0  0  0  0  0  0  0  0  0
    1.1535   -1.9839    0.0000 C   0  0  0  0  0  0  0  0  0  0  0  0
    1.1535   -4.6484    0.0000 C   0  0  0  0  0  0  0  0  0  0  0  0
    0.0000   -2.6645    0.0000 C   0  0  0  0  0  0  0  0  0  0  0  0
    0.0000   -3.9909    0.0000 C   0  0  0  0  0  0  0  0  0  0  0  0
    3.4604   -4.6484    0.0000 C   0  0  0  0  0  0  0  0  0  0  0  0
    4.6253   -3.9909    0.0000 C   0  0  0  0  0  0  0  0  0  0  0  0
    5.7788   -4.6484    0.0000 O   0  0  0  0  0  0  0  0  0  0  0  0
    6.9092   -3.9909    0.0000 C   0  0  0  0  0  0  0  0  0  0  0  0
    6.9092   -2.6645    0.0000 C   0  0  0  0  0  0  0  0  0  0  0  0
    8.0742   -4.6484    0.0000 C   0  0  0  0  0  0  0  0  0  0  0  0
    8.0742   -1.9839    0.0000 C   0  0  0  0  0  0  0  0  0  0  0  0
    9.2276   -3.9909    0.0000 C   0  0  0  0  0  0  0  0  0  0  0  0
    9.2276   -2.6645    0.0000 C   0  0  0  0  0  0  0  0  0  0  0  0
    4.6253   -2.6645    0.0000 O   0  0  0  0  0  0  0  0  0  0  0  0
    5.7788   -1.9839    0.0000 O   0  0  0  0  0  0  0  0  0  0  0  0
    5.7788   -0.6575    0.0000 C   0  0  0  0  0  0  0  0  0  0  0  0
   10.3811   -1.9839    0.0000 C   0  0  0  0  0  0  0  0  0  0  0  0
   10.3811   -0.6575    0.0000 C   0  0  0  0  0  0  0  0  0  0  0  0
   11.5345    0.0000    0.0000 C   0  0  0  0  0  0  0  0  0  0  0  0
  1  2  1  0  0  0  0
  1  3  2  0  0  0  0
  2  4  2  0  0  0  0
  2  7  1  0  0  0  0
  3  5  1  0  0  0  0
  4  6  1  0  0  0  0
  5  6  2  0  0  0  0
  7  8  1  0  0  0  0
  8  9  1  0  0  0  0
  8 16  2  0  0  0  0
  9 10  1  0  0  0  0
 10 11  1  0  0  0  0
 10 12  2  0  0  0  0
 11 13  2  0  0  0  0
 11 17  1  0  0  0  0
 12 14  1  0  0  0  0
 13 15  1  0  0  0  0
 14 15  2  0  0  0  0
 15 19  1  0  0  0  0
 17 18  1  0  0  0  0
 19 20  1  0  0  0  0
 20 21  2  0  0  0  0
M  END
> <ID>
12548

> <Formula>
C18H18O3

> <FW>
282.3337

> <DSSTox_CID>
27406

> <DSSTox_RID>
82322

> <DSSTox_GSID>
47406

> <DSSTox_FileID_Sort>
7003

> <TS_ChemName>
Eugenyl phenylacetate

> <TS_ChemName_Synonyms>


> <TS_CASRN>
10402-33-2

> <CASRN_ChemName_Relationship>
primary

> <TS_Description>
single chemical compound

> <ChemNote>


> <STRUCTURE_Shown>
tested chemical

> <STRUCTURE_Formula>
C18H18O3

> <STRUCTURE_MW>
282.3337

> <STRUCTURE_ChemType>
defined organic

> <STRUCTURE_DefinedOrganicForm>
parent

> <STRUCTURE_IUPAC>
2-methoxy-4-(prop-2-en-1-yl)phenyl phenylacetate

> <STRUCTURE_SMILES>
COc2cc(ccc2OC(=O)Cc1ccccc1)CC=C

> <STRUCTURE_SMILES_Desalt>
COc2cc(ccc2OC(=O)Cc1ccccc1)CC=C

> <Substance_modify_yyyymmdd>
20100617

$$$$
