10402-53-6
ChemmineR-0915142007XD

 30 30  0  0  0  0  0  0  0  0  1 V2000
    2.3088   -2.0090    0.0000 C    0  0  0  0  0  0  0  0  0  0  0  0
    2.3088   -3.3283    0.0000 C    0  0  0  0  0  0  0  0  0  0  0  0
    1.1544   -1.3343    0.0000 C    0  0  0  0  0  0  0  0  0  0  0  0
    1.1544   -3.9880    0.0000 C    0  0  0  0  0  0  0  0  0  0  0  0
    0.0000   -2.0090    0.0000 C    0  0  0  0  0  0  0  0  0  0  0  0
    0.0000   -3.3283    0.0000 C    0  0  0  0  0  0  0  0  0  0  0  0
    3.4633   -1.3343    0.0000 C    0  0  0  0  0  0  0  0  0  0  0  0
    4.6177   -1.9940    0.0000 C    0  0  0  0  0  0  0  0  0  0  0  0
    3.4633    0.0000    0.0000 O    0  0  0  0  0  0  0  0  0  0  0  0
    4.6177   -3.3133    0.0000 C    0  0  0  0  0  0  0  0  0  0  0  0
    5.7721   -1.3343    0.0000 C    0  0  0  0  0  0  0  0  0  0  0  0
    6.9115   -1.9940    0.0000 N    0  0  0  0  0  0  0  0  0  0  0  0
    8.0660   -1.3343    0.0000 C    0  0  0  0  0  0  0  0  0  0  0  0
    6.9115   -3.3283    0.0000 C    0  0  0  0  0  0  0  0  0  0  0  0
    9.2204   -2.0090    0.0000 C    0  0  0  0  0  0  0  0  0  0  0  0
    8.0660   -3.9880    0.0000 C    0  0  0  0  0  0  0  0  0  0  0  0
    9.2204   -3.3283    0.0000 N    0  0  0  0  0  0  0  0  0  0  0  0
   10.3748   -3.9880    0.0000 C    0  0  0  0  0  0  0  0  0  0  0  0
   11.5292   -3.3283    0.0000 C    0  0  0  0  0  0  0  0  0  0  0  0
   12.6836   -3.9880    0.0000 C    0  0  0  0  0  0  0  0  0  0  0  0
   11.5292   -2.0090    0.0000 O    0  0  0  0  0  0  0  0  0  0  0  0
   12.6836   -1.3343    0.0000 C    0  0  0  0  0  0  0  0  0  0  0  0
   12.6836    0.0000    0.0000 C    0  0  0  0  0  0  0  0  0  0  0  0
   14.9925   -3.9880    0.0000 C    0  0  0  0  0  0  0  0  0  0  0  0
   14.9925   -5.3223    0.0000 C    0  0  0  0  0  0  0  0  0  0  0  0
   13.8381   -3.3283    0.0000 C    0  0  0  0  0  0  0  0  0  0  0  0
   13.8381   -5.9970    0.0000 C    0  0  0  0  0  0  0  0  0  0  0  0
   12.6836   -5.3223    0.0000 C    0  0  0  0  0  0  0  0  0  0  0  0
    7.1214   -5.0075    0.0000 Cl   0  0  0  0  0  0  0  0  0  0  0  0
    2.9085   -4.9475    0.0000 Cl   0  0  0  0  0  0  0  0  0  0  0  0
  1  2  1  0  0  0  0
  1  3  2  0  0  0  0
  1  7  1  0  0  0  0
  2  4  2  0  0  0  0
  3  5  1  0  0  0  0
  4  6  1  0  0  0  0
  5  6  2  0  0  0  0
  7  8  1  0  0  0  0
  7  9  2  0  0  0  0
  8 10  1  0  0  0  0
  8 11  1  0  0  0  0
 11 12  1  0  0  0  0
 12 13  1  0  0  0  0
 12 14  1  0  0  0  0
 13 15  1  0  0  0  0
 14 16  1  0  0  0  0
 15 17  1  0  0  0  0
 16 17  1  0  0  0  0
 17 18  1  0  0  0  0
 18 19  1  0  0  0  0
 19 20  1  0  0  0  0
 19 21  1  0  0  0  0
 20 26  1  0  0  0  0
 20 28  2  0  0  0  0
 21 22  1  0  0  0  0
 22 23  1  0  0  0  0
 24 25  1  0  0  0  0
 24 26  2  0  0  0  0
 25 27  2  0  0  0  0
 27 28  1  0  0  0  0
M  END
> <ID>
11844

> <Formula>
C24H34Cl2N2O2

> <FW>
453.4450 (380.5231+36.4609+36.4609)

> <DSSTox_CID>
26631

> <DSSTox_RID>
81779

> <DSSTox_GSID>
46631

> <DSSTox_FileID_Sort>
6460

> <TS_ChemName>
Eprazinone dihydrochloride

> <TS_ChemName_Synonyms>


> <TS_CASRN>
10402-53-6

> <CASRN_ChemName_Relationship>
primary

> <TS_Description>
single chemical compound

> <ChemNote>
parent [10402-90-1]

> <STRUCTURE_Shown>
tested chemical

> <STRUCTURE_Formula>
C24H34Cl2N2O2

> <STRUCTURE_MW>
453.445

> <STRUCTURE_ChemType>
defined organic

> <STRUCTURE_DefinedOrganicForm>
complex

> <STRUCTURE_IUPAC>
3-[4-(2-ethoxy-2-phenylethyl)piperazin-1-yl]-2-methyl-1-phenylpropan-1-one dihydrochloride

> <STRUCTURE_SMILES>
Cl.Cl.O=C(c1ccccc1)C(C)CN3CCN(CC(OCC)c2ccccc2)CC3

> <STRUCTURE_SMILES_Desalt>
O=C(c1ccccc1)C(C)CN3CCN(CC(OCC)c2ccccc2)CC3

> <Substance_modify_yyyymmdd>
20110809

$$$$
