104098-48-8
ChemmineR-0915142007XD

 20 21  0  0  0  0  0  0  0  0  1 V2000
    2.1020   -2.7932    0.0000 C   0  0  0  0  0  0  0  0  0  0  0  0
    3.3613   -2.3861    0.0000 N   0  0  0  0  0  0  0  0  0  0  0  0
    2.1020   -4.1188    0.0000 C   0  0  0  0  0  0  0  0  0  0  0  0
    4.1472   -3.4655    0.0000 C   0  0  0  0  0  0  0  0  0  0  0  0
    3.3613   -4.5354    0.0000 N   0  0  0  0  0  0  0  0  0  0  0  0
    7.4611   -2.3103    0.0000 C   0  0  0  0  0  0  0  0  0  0  0  0
    8.1429   -3.4655    0.0000 C   0  0  0  0  0  0  0  0  0  0  0  0
    6.1356   -2.3103    0.0000 C   0  0  0  0  0  0  0  0  0  0  0  0
    7.4611   -4.6206    0.0000 C   0  0  0  0  0  0  0  0  0  0  0  0
    5.4822   -3.4655    0.0000 C   0  0  0  0  0  0  0  0  0  0  0  0
    6.1356   -4.6206    0.0000 N   0  0  0  0  0  0  0  0  0  0  0  0
    9.4685   -3.4655    0.0000 C   0  0  0  0  0  0  0  0  0  0  0  0
    5.4822   -1.1552    0.0000 C   0  0  0  0  0  0  0  0  0  0  0  0
    6.1356    0.0000    0.0000 O   0  0  0  0  0  0  0  0  0  0  0  0
    4.1472   -1.1552    0.0000 O   0  0  0  0  0  0  0  0  0  0  0  0
    1.0226   -2.0263    0.0000 O   0  0  0  0  0  0  0  0  0  0  0  0
    0.7859   -4.2608    0.0000 C   0  0  0  0  0  0  0  0  0  0  0  0
    1.5528   -5.3402    0.0000 C   0  0  0  0  0  0  0  0  0  0  0  0
    0.0000   -3.1909    0.0000 C   0  0  0  0  0  0  0  0  0  0  0  0
    0.2367   -5.4822    0.0000 C   0  0  0  0  0  0  0  0  0  0  0  0
  1  2  1  0  0  0  0
  1  3  1  0  0  0  0
  1 16  2  0  0  0  0
  2  4  2  0  0  0  0
  3  5  1  0  0  0  0
  3 17  1  0  0  0  0
  3 18  1  0  0  0  0
  4  5  1  0  0  0  0
  4 10  1  0  0  0  0
  6  7  1  0  0  0  0
  6  8  2  0  0  0  0
  7  9  2  0  0  0  0
  7 12  1  0  0  0  0
  8 10  1  0  0  0  0
  8 13  1  0  0  0  0
  9 11  1  0  0  0  0
 10 11  2  0  0  0  0
 13 14  2  0  0  0  0
 13 15  1  0  0  0  0
 17 19  1  0  0  0  0
 17 20  1  0  0  0  0
M  END
> <ID>
6709

> <Formula>
C14H17N3O3

> <FW>
275.3031

> <DSSTox_CID>
14270

> <DSSTox_RID>
79136

> <DSSTox_GSID>
34270

> <DSSTox_FileID_Sort>
3818

> <TS_ChemName>
Imazapic

> <TS_ChemName_Synonyms>
Imazapic (3-Pyridinecarboxylic acid, 2-(4,5-dihydro-4-methyl-4-(1-methylethyl)-5-oxo-1H-imidazol-2-yl)-5-methyl-, (.+-.)-)

> <TS_CASRN>
104098-48-8

> <CASRN_ChemName_Relationship>
primary

> <TS_Description>
single chemical compound

> <ChemNote>
mixture of (R,S) isomers; structure shown without stereochem; tautomers

> <STRUCTURE_Shown>
tested chemical

> <STRUCTURE_Formula>
C14H17N3O3

> <STRUCTURE_MW>
275.3031

> <STRUCTURE_ChemType>
defined organic

> <STRUCTURE_DefinedOrganicForm>
parent

> <STRUCTURE_IUPAC>
5-methyl-2-[5-methyl-4-oxo-5-(propan-2-yl)-4,5-dihydro-1H-imidazol-2-yl]pyridine-3-carboxylic acid

> <STRUCTURE_SMILES>
O=C1N=C(NC1(C)C(C)C)c2ncc(C)cc2C(=O)O

> <STRUCTURE_SMILES_Desalt>
O=C1N=C(NC1(C)C(C)C)c2ncc(C)cc2C(=O)O

> <Substance_modify_yyyymmdd>
20080429

$$$$
