104076-39-3
ChemmineR-0915142007XD

 43 44  0  0  0  0  0  0  0  0  1 V2000
    9.9588   -4.8329    0.0000 O   0  0  0  0  0  0  0  0  0  0  0  0
   10.6361   -5.9863    0.0000 C   0  0  0  0  0  0  0  0  0  0  0  0
   11.9542   -5.9863    0.0000 O   0  0  0  0  0  0  0  0  0  0  0  0
    9.9588   -7.1396    0.0000 C   0  0  0  0  0  0  0  0  0  0  0  0
    8.6407   -7.1396    0.0000 C   0  0  0  0  0  0  0  0  0  0  0  0
    7.9817   -5.9863    0.0000 C   0  0  0  0  0  0  0  0  0  0  0  0
    6.6453   -5.9863    0.0000 O   0  0  0  0  0  0  0  0  0  0  0  0
    8.6407   -4.8329    0.0000 O   0  0  0  0  0  0  0  0  0  0  0  0
    3.3135   -4.8329    0.0000 O   0  0  0  0  0  0  0  0  0  0  0  0
    3.9908   -5.9863    0.0000 C   0  0  0  0  0  0  0  0  0  0  0  0
    5.3089   -5.9863    0.0000 O   0  0  0  0  0  0  0  0  0  0  0  0
    3.3135   -7.1396    0.0000 C   0  0  0  0  0  0  0  0  0  0  0  0
    1.9954   -7.1396    0.0000 C   0  0  0  0  0  0  0  0  0  0  0  0
    1.3364   -5.9863    0.0000 C   0  0  0  0  0  0  0  0  0  0  0  0
    0.0000   -5.9863    0.0000 O   0  0  0  0  0  0  0  0  0  0  0  0
    1.9954   -4.8329    0.0000 O   0  0  0  0  0  0  0  0  0  0  0  0
    0.4027   -1.4279    0.0000 C   0  0  0  0  0  0  0  0  0  0  0  0
    1.5561   -0.7689    0.0000 C   0  0  0  0  0  0  0  0  0  0  0  0
    2.7094   -1.4279    0.0000 C   0  0  0  0  0  0  0  0  0  0  0  0
    2.7094   -2.7460    0.0000 N   0  0  0  0  0  0  0  0  0  0  0  0
    1.5561   -3.4233    0.0000 C   0  0  0  0  0  0  0  0  0  0  0  0
    0.4027   -2.7460    0.0000 C   0  0  0  0  0  0  0  0  0  0  0  0
    3.8444   -3.4233    0.0000 C   0  0  0  0  0  0  0  0  0  0  0  0
    4.9977   -2.7460    0.0000 C   0  0  0  0  0  0  0  0  0  0  0  0
    4.9977   -1.4279    0.0000 C   0  0  0  0  0  0  0  0  0  0  0  0
    6.1510   -0.7689    0.0000 C   0  0  0  0  0  0  0  0  0  0  0  0
    7.3043   -1.4279    0.0000 C   0  0  0  0  0  0  0  0  0  0  0  0
    7.3043   -2.7460    0.0000 C   0  0  0  0  0  0  0  0  0  0  0  0
    6.1510   -3.4233    0.0000 C   0  0  0  0  0  0  0  0  0  0  0  0
    8.4577   -3.4233    0.0000 O   0  0  0  0  0  0  0  0  0  0  0  0
    9.6110   -2.7460    0.0000 C   0  0  0  0  0  0  0  0  0  0  0  0
   10.7643   -3.4233    0.0000 C   0  0  0  0  0  0  0  0  0  0  0  0
   11.8993   -2.7460    0.0000 C   0  0  0  0  0  0  0  0  0  0  0  0
   13.0526   -3.4233    0.0000 N   0  0  0  0  0  0  0  0  0  0  0  0
   14.2059   -2.7460    0.0000 C   0  0  0  0  0  0  0  0  0  0  0  0
   14.3524   -1.4279    0.0000 N   0  0  0  0  0  0  0  0  0  0  0  0
   15.6522   -1.1533    0.0000 C   0  0  0  0  0  0  0  0  0  0  0  0
   16.3112    0.0000    0.0000 C   0  0  0  0  0  0  0  0  0  0  0  0
   17.6476    0.0000    0.0000 C   0  0  0  0  0  0  0  0  0  0  0  0
   18.3066   -1.1533    0.0000 C   0  0  0  0  0  0  0  0  0  0  0  0
   17.6476   -2.3066    0.0000 C   0  0  0  0  0  0  0  0  0  0  0  0
   16.3112   -2.3066    0.0000 C   0  0  0  0  0  0  0  0  0  0  0  0
   15.4325   -3.2952    0.0000 S   0  0  0  0  0  0  0  0  0  0  0  0
  1  2  1  0  0  0  0
  2  3  2  0  0  0  0
  2  4  1  0  0  0  0
  4  5  2  0  0  0  0
  5  6  1  0  0  0  0
  6  7  1  0  0  0  0
  6  8  2  0  0  0  0
  9 10  1  0  0  0  0
 10 11  2  0  0  0  0
 10 12  1  0  0  0  0
 12 13  2  0  0  0  0
 13 14  1  0  0  0  0
 14 15  1  0  0  0  0
 14 16  2  0  0  0  0
 17 18  1  0  0  0  0
 17 22  1  0  0  0  0
 18 19  1  0  0  0  0
 19 20  1  0  0  0  0
 20 21  1  0  0  0  0
 20 23  1  0  0  0  0
 21 22  1  0  0  0  0
 23 24  1  0  0  0  0
 24 25  2  0  0  0  0
 24 29  1  0  0  0  0
 25 26  1  0  0  0  0
 26 27  2  0  0  0  0
 27 28  1  0  0  0  0
 28 29  2  0  0  0  0
 28 30  1  0  0  0  0
 30 31  1  0  0  0  0
 31 32  1  0  0  0  0
 32 33  1  0  0  0  0
 33 34  1  0  0  0  0
 34 35  1  0  0  0  0
 35 36  2  0  0  0  0
 35 43  1  0  0  0  0
 36 37  1  0  0  0  0
 37 38  2  0  0  0  0
 37 42  1  0  0  0  0
 38 39  1  0  0  0  0
 39 40  2  0  0  0  0
 40 41  1  0  0  0  0
 41 42  2  0  0  0  0
 42 43  1  0  0  0  0
M  END
> <ID>
11216

> <Formula>
C30H35N3O9S

> <FW>
613.6786 (116.0722+116.0722+381.5343)

> <DSSTox_CID>
25811

> <DSSTox_RID>
81148

> <DSSTox_GSID>
45811

> <DSSTox_FileID_Sort>
5829

> <TS_ChemName>
Zolantidine dimaleate

> <TS_ChemName_Synonyms>


> <TS_CASRN>
104076-39-3

> <CASRN_ChemName_Relationship>
primary

> <TS_Description>
single chemical compound

> <ChemNote>
parent [104076-38-2]

> <STRUCTURE_Shown>
tested chemical

> <STRUCTURE_Formula>
C30H35N3O9S

> <STRUCTURE_MW>
613.6786

> <STRUCTURE_ChemType>
defined organic

> <STRUCTURE_DefinedOrganicForm>
complex

> <STRUCTURE_IUPAC>
N-{3-[3-(piperidin-1-ylmethyl)phenoxy]propyl}-1,3-benzothiazol-2-amine (2Z)-but-2-enedioate (1:2)

> <STRUCTURE_SMILES>
O=C(O)/C=C\C(=O)O.O=C(O)/C=C\C(=O)O.c1cccc2sc(nc12)NCCCOc4cc(CN3CCCCC3)ccc4

> <STRUCTURE_SMILES_Desalt>
c1cccc2sc(nc12)NCCCOc4cc(CN3CCCCC3)ccc4

> <Substance_modify_yyyymmdd>
20110909

$$$$
