10417-94-4
ChemmineR-0915142007XD

 22 21  0  0  0  0  0  0  0  0  1 V2000
    5.9867   -1.1375    0.0000 C   0  0  0  0  0  0  0  0  0  0  0  0
    4.6596   -1.1375    0.0000 C   0  0  0  0  0  0  0  0  0  0  0  0
    3.9911    0.0000    0.0000 C   0  0  0  0  0  0  0  0  0  0  0  0
    2.6541    0.0000    0.0000 C   0  0  0  0  0  0  0  0  0  0  0  0
    2.0055   -1.1375    0.0000 C   0  0  0  0  0  0  0  0  0  0  0  0
    0.6785   -1.1375    0.0000 C   0  0  0  0  0  0  0  0  0  0  0  0
    0.0000   -2.2949    0.0000 C   0  0  0  0  0  0  0  0  0  0  0  0
    0.6785   -3.4423    0.0000 C   0  0  0  0  0  0  0  0  0  0  0  0
    0.0000   -4.5998    0.0000 C   0  0  0  0  0  0  0  0  0  0  0  0
    0.6785   -5.7472    0.0000 C   0  0  0  0  0  0  0  0  0  0  0  0
    2.0055   -5.7472    0.0000 C   0  0  0  0  0  0  0  0  0  0  0  0
    2.6541   -6.9046    0.0000 C   0  0  0  0  0  0  0  0  0  0  0  0
    3.9911   -6.9046    0.0000 C   0  0  0  0  0  0  0  0  0  0  0  0
    4.6596   -5.7472    0.0000 C   0  0  0  0  0  0  0  0  0  0  0  0
    5.9867   -5.7472    0.0000 C   0  0  0  0  0  0  0  0  0  0  0  0
    6.6452   -4.5998    0.0000 C   0  0  0  0  0  0  0  0  0  0  0  0
    5.9867   -3.4423    0.0000 C   0  0  0  0  0  0  0  0  0  0  0  0
    6.6452   -2.2949    0.0000 C   0  0  0  0  0  0  0  0  0  0  0  0
    7.9722   -2.2949    0.0000 C   0  0  0  0  0  0  0  0  0  0  0  0
    8.6507   -3.4423    0.0000 C   0  0  0  0  0  0  0  0  0  0  0  0
    7.9722   -4.5998    0.0000 O   0  0  0  0  0  0  0  0  0  0  0  0
    9.9778   -3.4423    0.0000 O   0  0  0  0  0  0  0  0  0  0  0  0
  1  2  1  0  0  0  0
  2  3  1  0  0  0  0
  3  4  2  0  0  0  0
  4  5  1  0  0  0  0
  5  6  1  0  0  0  0
  6  7  2  0  0  0  0
  7  8  1  0  0  0  0
  8  9  1  0  0  0  0
  9 10  2  0  0  0  0
 10 11  1  0  0  0  0
 11 12  1  0  0  0  0
 12 13  2  0  0  0  0
 13 14  1  0  0  0  0
 14 15  1  0  0  0  0
 15 16  2  0  0  0  0
 16 17  1  0  0  0  0
 17 18  1  0  0  0  0
 18 19  1  0  0  0  0
 19 20  1  0  0  0  0
 20 21  2  0  0  0  0
 20 22  1  0  0  0  0
M  END
> <ID>
8048

> <Formula>
C20H30O2

> <FW>
302.451

> <DSSTox_CID>
21023

> <DSSTox_RID>
79612

> <DSSTox_GSID>
41023

> <DSSTox_FileID_Sort>
4294

> <TS_ChemName>
Eicosapentaenoic acid

> <TS_ChemName_Synonyms>
Eicosapentaenoic acid (EPA)

> <TS_CASRN>
10417-94-4

> <CASRN_ChemName_Relationship>
primary

> <TS_Description>
single chemical compound

> <ChemNote>
stereochem

> <STRUCTURE_Shown>
tested chemical

> <STRUCTURE_Formula>
C20H30O2

> <STRUCTURE_MW>
302.451

> <STRUCTURE_ChemType>
defined organic

> <STRUCTURE_DefinedOrganicForm>
parent

> <STRUCTURE_IUPAC>
(5Z,8Z,11Z,14Z,17Z)-icosa-5,8,11,14,17-pentaenoic acid

> <STRUCTURE_SMILES>
O=C(O)CCC/C=C\C/C=C\C/C=C\C/C=C\C/C=C\CC

> <STRUCTURE_SMILES_Desalt>
O=C(O)CCC/C=C\C/C=C\C/C=C\C/C=C\C/C=C\CC

> <Substance_modify_yyyymmdd>
20080429

$$$$
