10418-03-8
ChemmineR-0915142007XD

 28 32  0  0  1  0  0  0  0  0  1 V2000
    4.3496   -3.7682    0.0000 C   0  0  0  0  0  0  0  0  0  0  0  0
    7.7960   -1.7440    0.0000 C   0  0  0  0  0  0  0  0  0  0  0  0
    5.4914   -3.1142    0.0000 C   0  0  0  0  0  0  0  0  0  0  0  0
    2.0035   -3.7682    0.0000 C   0  0  0  0  0  0  0  0  0  0  0  0
    7.7960   -3.0727    0.0000 C   0  0  0  0  0  0  0  0  0  0  0  0
    6.6333   -3.7682    0.0000 C   0  0  0  0  0  0  0  0  0  0  0  0
    3.2077   -3.1142    0.0000 C   0  0  0  0  0  0  0  0  0  0  0  0
    2.0035   -5.1177    0.0000 C   0  0  0  0  0  0  0  0  0  0  0  0
    0.7474   -5.5122    0.0000 N   0  0  0  0  0  0  0  0  0  0  0  0
    4.3496   -5.1177    0.0000 C   0  0  0  0  0  0  0  0  0  0  0  0
    9.0728   -1.3495    0.0000 C   0  0  0  0  0  0  0  0  0  0  0  0
    0.0000   -4.4430    0.0000 N   0  0  0  0  0  0  0  0  0  0  0  0
    6.6126   -1.0900    0.0000 C   0  0  0  0  0  0  0  0  0  0  0  0
    5.4914   -1.7647    0.0000 C   0  0  0  0  0  0  0  0  0  0  0  0
    3.2077   -5.7717    0.0000 C   0  0  0  0  0  0  0  0  0  0  0  0
    9.0728   -3.4880    0.0000 C   0  0  0  0  0  0  0  0  0  0  0  0
    6.6333   -5.1177    0.0000 C   0  0  0  0  0  0  0  0  0  0  0  0
    0.7474   -3.3530    0.0000 C   0  0  0  0  0  0  0  0  0  0  0  0
    5.4914   -5.7717    0.0000 C   0  0  0  0  0  0  0  0  0  0  0  0
    9.8202   -2.3980    0.0000 C   0  0  0  0  0  0  0  0  0  0  0  0
    4.3496   -2.3980    0.0000 C   0  0  0  0  0  0  0  0  0  0  0  0
    9.0728    0.0000    0.0000 O   0  0  0  0  0  0  0  0  0  0  0  0
    7.7752   -0.4671    0.0000 C   0  0  0  0  0  0  0  0  0  0  0  0
   10.3808   -1.2042    0.0000 C   0  0  0  0  0  0  0  0  0  0  0  0
    4.3496   -6.4465    0.0000 H   0  0  0  0  0  0  0  0  0  0  0  0
    6.6333   -2.4395    0.0000 H   0  0  0  0  0  0  0  0  0  0  0  0
    5.4914   -4.4430    0.0000 H   0  0  0  0  0  0  0  0  0  0  0  0
    7.7960   -4.4015    0.0000 H   0  0  0  0  0  0  0  0  0  0  0  0
  1  3  1  0  0  0  0
  1  7  1  0  0  0  0
  1 10  1  0  0  0  0
  1 21  1  1  0  0  0
  2 13  1  0  0  0  0
  2 11  1  0  0  0  0
  2 23  1  1  0  0  0
  2  5  1  0  0  0  0
  3  6  1  0  0  0  0
  3 14  1  0  0  0  0
  3 27  1  6  0  0  0
  4  7  1  0  0  0  0
  4 18  2  0  0  0  0
  4  8  1  0  0  0  0
  5  6  1  0  0  0  0
  5 16  1  0  0  0  0
  5 28  1  6  0  0  0
  6 17  1  0  0  0  0
  6 26  1  1  0  0  0
  8 15  1  0  0  0  0
  8  9  2  0  0  0  0
  9 12  1  0  0  0  0
 10 15  1  0  0  0  0
 10 19  1  0  0  0  0
 10 25  1  6  0  0  0
 11 22  1  1  0  0  0
 11 24  1  6  0  0  0
 11 20  1  0  0  0  0
 12 18  1  0  0  0  0
 13 14  1  0  0  0  0
 16 20  1  0  0  0  0
 17 19  1  0  0  0  0
M  END
> <ID>
9863

> <Formula>
C21H32N2O

> <FW>
328.4916

> <DSSTox_CID>
24128

> <DSSTox_RID>
97564

> <DSSTox_GSID>
44128

> <DSSTox_FileID_Sort>
8339

> <TS_ChemName>
Stanozolol

> <TS_ChemName_Synonyms>


> <TS_CASRN>
10418-03-8

> <CASRN_ChemName_Relationship>
primary

> <TS_Description>
single chemical compound

> <ChemNote>
stereochem

> <STRUCTURE_Shown>
tested chemical

> <STRUCTURE_Formula>
C21H32N2O

> <STRUCTURE_MW>
328.4916

> <STRUCTURE_ChemType>
defined organic

> <STRUCTURE_DefinedOrganicForm>
parent

> <STRUCTURE_IUPAC>
(1S,3aS,3bR,5aS,10aS,10bS,12aS)-1,10a,12a-trimethyl-1,2,3,3a,3b,4,5,5a,6,8,10,10a,10b,11,12,12a-hexadecahydrocyclopenta[5,6]naphtho[1,2-f]indazol-1-ol

> <STRUCTURE_SMILES>
C[C@]2(O)CC[C@H]1[C@@H]3CC[C@H]4Cc5nncc5C[C@]4(C)[C@H]3CC[C@@]12C

> <STRUCTURE_SMILES_Desalt>
C[C@]2(O)CC[C@H]1[C@@H]3CC[C@H]4Cc5nncc5C[C@]4(C)[C@H]3CC[C@@]12C

> <Substance_modify_yyyymmdd>
20090220

$$$$
