104206-82-8
ChemmineR-0915142007XD

 23 24  0  0  0  0  0  0  0  0  2 V2000
    2.3265   -1.7911    0.0000 C   0  0  0  0  0  0  0  0  0  0  0  0
    2.3081   -3.1390    0.0000 C   0  0  0  0  0  0  0  0  0  0  0  0
    1.1540   -3.7945    0.0000 C   0  0  0  0  0  0  0  0  0  0  0  0
    0.0000   -3.1205    0.0000 C   0  0  0  0  0  0  0  0  0  0  0  0
    0.0185   -1.8095    0.0000 C   0  0  0  0  0  0  0  0  0  0  0  0
    1.1725   -1.1356    0.0000 C   0  0  0  0  0  0  0  0  0  0  0  0
    3.4621   -1.1356    0.0000 O   0  0  0  0  0  0  0  0  0  0  0  0
    1.1540   -5.1239    0.0000 O   0  0  0  0  0  0  0  0  0  0  0  0
    3.4621   -3.7945    0.0000 C   0  0  0  0  0  0  0  0  0  0  0  0
    3.4621   -5.1424    0.0000 O   0  0  0  0  0  0  0  0  0  0  0  0
    4.6161   -3.1390    0.0000 C   0  0  0  0  0  0  0  0  0  0  0  0
    5.7517   -3.8314    0.0000 C   0  0  0  0  0  0  0  0  0  0  0  0
    4.6161   -1.8095    0.0000 C   0  0  0  0  0  0  0  0  0  0  0  0
    6.9242   -3.1574    0.0000 C   0  0  0  0  0  0  0  0  0  0  0  0
    5.7702   -1.1540    0.0000 C   0  0  0  0  0  0  0  0  0  0  0  0
    6.9242   -1.8280    0.0000 C   0  0  0  0  0  0  0  0  0  0  0  0
    8.0782   -1.1725    0.0000 S   0  0  0  0  0  0  0  0  0  0  0  0
    7.4043    0.0000    0.0000 O   0  0  0  0  0  0  0  0  0  0  0  0
    8.7337   -2.3081    0.0000 O   0  0  0  0  0  0  0  0  0  0  0  0
    9.2323   -0.4985    0.0000 C   0  0  0  0  0  0  0  0  0  0  0  0
    5.7517   -5.1424    0.0000 N   0  3  0  0  0  0  0  0  0  0  0  0
    4.6161   -5.7979    0.0000 O   0  5  0  0  0  0  0  0  0  0  0  0
    6.9057   -5.8163    0.0000 O   0  0  0  0  0  0  0  0  0  0  0  0
  1  2  1  0  0  0  0
  1  6  1  0  0  0  0
  1  7  2  0  0  0  0
  2  3  1  0  0  0  0
  2  9  1  0  0  0  0
  3  4  1  0  0  0  0
  3  8  2  0  0  0  0
  4  5  1  0  0  0  0
  5  6  1  0  0  0  0
  9 10  2  0  0  0  0
  9 11  1  0  0  0  0
 11 12  2  0  0  0  0
 11 13  1  0  0  0  0
 12 14  1  0  0  0  0
 12 21  1  0  0  0  0
 13 15  2  0  0  0  0
 14 16  2  0  0  0  0
 15 16  1  0  0  0  0
 16 17  1  0  0  0  0
 17 18  2  0  0  0  0
 17 19  2  0  0  0  0
 17 20  1  0  0  0  0
 21 22  1  0  0  0  0
 21 23  2  0  0  0  0
M  END
> <ID>
6458

> <Formula>
C14H13NO7S

> <FW>
339.3205

> <DSSTox_CID>
12424

> <DSSTox_RID>
78945

> <DSSTox_GSID>
32424

> <DSSTox_FileID_Sort>
3627

> <TS_ChemName>
Mesotrione

> <TS_ChemName_Synonyms>
Mesotrione (AMBA) (2-{4-(methylsulfonyl)-2-nitrobenzoyl}- 1,3-cyclohexanedione)

> <TS_CASRN>
104206-82-8

> <CASRN_ChemName_Relationship>
primary

> <TS_Description>
single chemical compound

> <ChemNote>
tautomers

> <STRUCTURE_Shown>
tested chemical

> <STRUCTURE_Formula>
C14H13NO7S

> <STRUCTURE_MW>
339.3205

> <STRUCTURE_ChemType>
defined organic

> <STRUCTURE_DefinedOrganicForm>
parent

> <STRUCTURE_IUPAC>
2-[4-(methylsulfonyl)-2-nitrobenzoyl]cyclohexane-1,3-dione

> <STRUCTURE_SMILES>
O=C2CCCC(=O)C2C(=O)c1ccc(cc1[N+]([O-])=O)S(C)(=O)=O

> <STRUCTURE_SMILES_Desalt>
O=C2CCCC(=O)C2C(=O)c1ccc(cc1[N+]([O-])=O)S(C)(=O)=O

> <Substance_modify_yyyymmdd>
20080429

$$$$
