10420-33-4
ChemmineR-0915142007XD

 13 12  0  0  0  0  0  0  0  0  1 V2000
    2.2815   -1.3335    0.0000 C   0  0  0  0  0  0  0  0  0  0  0  0
    3.4543   -2.0003    0.0000 C   0  0  0  0  0  0  0  0  0  0  0  0
    4.5790   -1.3335    0.0000 C   0  0  0  0  0  0  0  0  0  0  0  0
    5.7679   -2.0003    0.0000 C   0  0  0  0  0  0  0  0  0  0  0  0
    2.2815    0.0000    0.0000 O   0  0  0  0  0  0  0  0  0  0  0  0
    1.1407   -2.0003    0.0000 O   0  0  0  0  0  0  0  0  0  0  0  0
    5.7679   -3.3258    0.0000 O   0  0  0  0  0  0  0  0  0  0  0  0
    6.8926   -1.3335    0.0000 O   0  0  0  0  0  0  0  0  0  0  0  0
    3.4543   -3.3258    0.0000 C   0  0  0  0  0  0  0  0  0  0  0  0
    4.6111   -4.0086    0.0000 O   0  0  0  0  0  0  0  0  0  0  0  0
    2.2815   -4.0086    0.0000 C   0  0  0  0  0  0  0  0  0  0  0  0
    0.0000   -1.3496    0.0000 C   0  0  0  0  0  0  0  0  0  0  0  0
    8.0333   -1.9842    0.0000 C   0  0  0  0  0  0  0  0  0  0  0  0
  1  2  1  0  0  0  0
  1  6  1  0  0  0  0
  1  5  2  0  0  0  0
  2  3  1  0  0  0  0
  2  9  1  0  0  0  0
  3  4  1  0  0  0  0
  4  8  1  0  0  0  0
  4  7  2  0  0  0  0
  6 12  1  0  0  0  0
  8 13  1  0  0  0  0
  9 10  2  0  0  0  0
  9 11  1  0  0  0  0
M  END
> <ID>
8648

> <Formula>
C8H12O5

> <FW>
188.1779

> <DSSTox_CID>
21692

> <DSSTox_RID>
79822

> <DSSTox_GSID>
41692

> <DSSTox_FileID_Sort>
4504

> <TS_ChemName>
Dimethyl acetylsuccinate

> <TS_ChemName_Synonyms>
Butanedioic acid, acetyl-, dimethyl ester

> <TS_CASRN>
10420-33-4

> <CASRN_ChemName_Relationship>
primary

> <TS_Description>
single chemical compound

> <ChemNote>
tautomers

> <STRUCTURE_Shown>
tested chemical

> <STRUCTURE_Formula>
C8H12O5

> <STRUCTURE_MW>
188.1779

> <STRUCTURE_ChemType>
defined organic

> <STRUCTURE_DefinedOrganicForm>
parent

> <STRUCTURE_IUPAC>
dimethyl 2-acetylbutanedioate

> <STRUCTURE_SMILES>
COC(=O)CC(C(=O)OC)C(C)=O

> <STRUCTURE_SMILES_Desalt>
COC(=O)CC(C(=O)OC)C(C)=O

> <Substance_modify_yyyymmdd>
20080825

$$$$
