10433-59-7
ChemmineR-0915142007XD

 16 15  0  0  0  0  0  0  0  0  2 V2000
    3.4619   -3.3674    0.0000 C    0  0  0  0  0  0  0  0  0  0  0  0
    2.2922   -4.0054    0.0000 C    0  0  0  0  0  0  0  0  0  0  0  0
    9.2396   -1.3469    0.0000 C    0  0  0  0  0  0  0  0  0  0  0  0
    3.4619   -2.0204    0.0000 C    0  0  0  0  0  0  0  0  0  0  0  0
   10.3738   -1.9850    0.0000 O    0  5  0  0  0  0  0  0  0  0  0  0
    2.2922   -1.3588    0.0000 C    0  0  0  0  0  0  0  0  0  0  0  0
    1.1579   -3.3437    0.0000 C    0  0  0  0  0  0  0  0  0  0  0  0
    4.5962   -4.0527    0.0000 Cl   0  0  0  0  0  0  0  0  0  0  0  0
    9.2396    0.0000    0.0000 O    0  0  0  0  0  0  0  0  0  0  0  0
    1.1579   -2.0204    0.0000 C    0  0  0  0  0  0  0  0  0  0  0  0
    0.0000   -4.0172    0.0000 Cl   0  0  0  0  0  0  0  0  0  0  0  0
    4.5962   -1.3469    0.0000 O    0  0  0  0  0  0  0  0  0  0  0  0
    8.0817   -1.9968    0.0000 C    0  0  0  0  0  0  0  0  0  0  0  0
    5.7541   -2.0204    0.0000 C    0  0  0  0  0  0  0  0  0  0  0  0
    6.9120   -1.3469    0.0000 C    0  0  0  0  0  0  0  0  0  0  0  0
   11.8153   -1.8196    0.0000 Na   0  3  0  0  0  0  0  0  0  0  0  0
  1  2  2  0  0  0  0
  1  4  1  0  0  0  0
  1  8  1  0  0  0  0
  2  7  1  0  0  0  0
  3 13  1  0  0  0  0
  3  5  1  0  0  0  0
  3  9  2  0  0  0  0
  4  6  2  0  0  0  0
  4 12  1  0  0  0  0
  6 10  1  0  0  0  0
  7 11  1  0  0  0  0
  7 10  2  0  0  0  0
 12 14  1  0  0  0  0
 13 15  1  0  0  0  0
 14 15  1  0  0  0  0
M  END
> <ID>
8322

> <Formula>
C10H9Cl2NaO3

> <FW>
271.0724 (248.0832+22.9892)

> <DSSTox_CID>
21356

> <DSSTox_RID>
79695

> <DSSTox_GSID>
41356

> <DSSTox_FileID_Sort>
4377

> <TS_ChemName>
2,4-DB-sodium

> <TS_ChemName_Synonyms>


> <TS_CASRN>
10433-59-7

> <CASRN_ChemName_Relationship>
primary

> <TS_Description>
single chemical compound

> <ChemNote>
parent [94-82-6]

> <STRUCTURE_Shown>
tested chemical

> <STRUCTURE_Formula>
C10H9Cl2NaO3

> <STRUCTURE_MW>
271.0724

> <STRUCTURE_ChemType>
defined organic

> <STRUCTURE_DefinedOrganicForm>
salt

> <STRUCTURE_IUPAC>
sodium 4-(2,4-dichlorophenoxy)butanoate

> <STRUCTURE_SMILES>
[Na+].Clc1cc(Cl)ccc1OCCCC([O-])=O

> <STRUCTURE_SMILES_Desalt>
Clc1cc(Cl)ccc1OCCCC(=O)O

> <Substance_modify_yyyymmdd>
20080825

$$$$
