104376-79-6
ChemmineR-0915142007XD

 43 41  0  0  1  0  0  0  0  0  2 V2000
   13.8902   -0.1738    0.0000 Na   0  3  0  0  0  0  0  0  0  0  0  0
    7.0972   -5.2287    0.0000 N    0  0  0  0  0  0  0  0  0  0  0  0
    5.5763   -5.2287    0.0000 C    0  0  0  0  0  0  0  0  0  0  0  0
    5.5763   -3.8238    0.0000 C    0  0  0  0  0  0  0  0  0  0  0  0
    7.0972   -3.8238    0.0000 C    0  0  0  0  0  0  0  0  0  0  0  0
   10.6747   -3.1720    0.0000 N    0  0  0  0  0  0  0  0  0  0  0  0
   11.8334   -3.8672    0.0000 C    0  0  0  0  0  0  0  0  0  0  0  0
    8.2414   -5.8950    0.0000 C    0  0  0  0  0  0  0  0  0  0  0  0
   11.8334   -1.1442    0.0000 C    0  0  0  0  0  0  0  0  0  0  0  0
   13.0356   -1.8540    0.0000 N    0  0  0  0  0  0  0  0  0  0  0  0
    2.2595   -4.9825    0.0000 C    0  0  0  0  0  0  0  0  0  0  0  0
   10.6747   -1.7815    0.0000 C    0  0  0  0  0  0  0  0  0  0  0  0
    2.2595   -3.6645    0.0000 C    0  0  0  0  0  0  0  0  0  0  0  0
   13.0356   -3.1865    0.0000 N    0  0  0  0  0  0  0  0  0  0  0  0
    1.1008   -5.6343    0.0000 N    0  0  0  0  0  0  0  0  0  0  0  0
    4.4321   -3.8238    0.0000 N    0  0  0  0  0  0  0  0  0  0  0  0
    3.3313   -3.0416    0.0000 C    0  0  0  0  0  0  0  0  0  0  0  0
    8.2414   -3.1285    0.0000 S    0  0  0  0  0  0  0  0  0  0  0  0
    9.4581   -5.2287    0.0000 C    0  0  0  0  0  0  0  0  0  0  0  0
    1.5353   -7.0827    0.0000 C    0  0  0  0  0  0  0  0  0  0  0  0
    3.3313   -5.8226    0.0000 C    0  0  0  0  0  0  0  0  0  0  0  0
    2.8244   -7.0827    0.0000 S    0  0  0  0  0  0  0  0  0  0  0  0
    8.2414   -7.2275    0.0000 C    0  0  0  0  0  0  0  0  0  0  0  0
   11.8334   -5.1563    0.0000 S    0  0  0  0  0  0  0  0  0  0  0  0
    9.4581   -3.8238    0.0000 C    0  0  0  0  0  0  0  0  0  0  0  0
    1.0718   -3.0561    0.0000 N    0  0  0  0  0  0  0  0  0  0  0  0
    4.7508   -6.1847    0.0000 O    0  0  0  0  0  0  0  0  0  0  0  0
   10.6747   -5.8226    0.0000 C    0  0  0  0  0  0  0  0  0  0  0  0
    3.3313   -1.6367    0.0000 O    0  0  0  0  0  0  0  0  0  0  0  0
    9.7622   -1.1877    0.0000 O    0  0  0  0  0  0  0  0  0  0  0  0
    9.3856   -7.9083    0.0000 O    0  0  0  0  0  0  0  0  0  0  0  0
   11.8334    0.0000    0.0000 O    0  5  0  0  0  0  0  0  0  0  0  0
    0.6807   -8.1255    0.0000 N    0  0  0  0  0  0  0  0  0  0  0  0
    7.1841   -7.9083    0.0000 O    0  5  0  0  0  0  0  0  0  0  0  0
   13.9626   -3.8672    0.0000 C    0  0  0  0  0  0  0  0  0  0  0  0
    1.0718   -1.4919    0.0000 O    0  0  0  0  0  0  0  0  0  0  0  0
    0.0000   -0.6807    0.0000 C    0  0  0  0  0  0  0  0  0  0  0  0
    7.0972   -2.7375    0.0000 H    0  0  0  0  0  0  0  0  0  0  0  0
    5.5763   -2.7085    0.0000 H    0  0  0  0  0  0  0  0  0  0  0  0
    8.1111   -8.8642    0.0000 Na   0  3  0  0  0  0  0  0  0  0  0  0
   12.7604   -6.3875    0.0000 O    0  0  0  0  0  0  0  0  0  0  0  0
   12.5576   -8.6470    0.0000 O    0  0  0  0  0  0  0  0  0  0  0  0
   14.4840   -7.4882    0.0000 O    0  0  0  0  0  0  0  0  0  0  0  0
  2  3  1  0  0  0  0
  2  5  1  0  0  0  0
  2  8  1  0  0  0  0
  3 27  2  0  0  0  0
  3  4  1  0  0  0  0
  4  5  1  0  0  0  0
  4 16  1  1  0  0  0
  4 39  1  6  0  0  0
  5 18  1  0  0  0  0
  5 38  1  6  0  0  0
  6  7  2  0  0  0  0
  6 12  1  0  0  0  0
  7 24  1  0  0  0  0
  7 14  1  0  0  0  0
  8 19  2  0  0  0  0
  8 23  1  0  0  0  0
  9 10  2  0  0  0  0
  9 32  1  0  0  0  0
  9 12  1  0  0  0  0
 10 14  1  0  0  0  0
 11 13  1  0  0  0  0
 11 15  1  0  0  0  0
 11 21  2  0  0  0  0
 12 30  2  0  0  0  0
 13 17  1  0  0  0  0
 13 26  2  0  0  0  0
 14 35  1  0  0  0  0
 15 20  2  0  0  0  0
 16 17  1  0  0  0  0
 17 29  2  0  0  0  0
 18 25  1  0  0  0  0
 19 25  1  0  0  0  0
 19 28  1  0  0  0  0
 20 33  1  0  0  0  0
 20 22  1  0  0  0  0
 21 22  1  0  0  0  0
 23 31  2  0  0  0  0
 23 34  1  0  0  0  0
 24 28  1  0  0  0  0
 26 36  1  0  0  0  0
 36 37  1  0  0  0  0
M  END
> <ID>
11269

> <Formula>
C18H22N8Na2O10S3

> <FW>
652.5894 (22.9892+552.5651+22.9892+18.0153+18.0153+18.0153)

> <DSSTox_CID>
25887

> <DSSTox_RID>
81201

> <DSSTox_GSID>
45887

> <DSSTox_FileID_Sort>
5882

> <TS_ChemName>
Ceftriaxone disodium trihydrate

> <TS_ChemName_Synonyms>


> <TS_CASRN>
104376-79-6

> <CASRN_ChemName_Relationship>
primary

> <TS_Description>
single chemical compound

> <ChemNote>
stereochem; parent [73384-59-5]

> <STRUCTURE_Shown>
tested chemical

> <STRUCTURE_Formula>
C18H22N8Na2O10S3

> <STRUCTURE_MW>
652.5894

> <STRUCTURE_ChemType>
defined organic

> <STRUCTURE_DefinedOrganicForm>
salt complex

> <STRUCTURE_IUPAC>
sodium (6R,7R)-7-{[(2Z)-2-(2-amino-1,3-thiazol-4-yl)-2-(methoxyimino)acetyl]amino}-3-{[(2-methyl-6-oxido-5-oxo-2,5-dihydro-1,2,4-triazin-3-yl)sulfanyl]methyl}-8-oxo-5-thia-1-azabicyclo[4.2.0]oct-2-ene-2-carboxylate hydrate (2:1:3)

> <STRUCTURE_SMILES>
[Na+].[Na+].O.O.O.Nc1scc(n1)\C(=N\OC)C(=O)N[C@@H]4C(=O)N3C(=C(CSC2=NC(=O)C([O-])=NN2C)CS[C@@H]34)C([O-])=O

> <STRUCTURE_SMILES_Desalt>
Nc1scc(n1)\C(=N\OC)C(=O)N[C@@H]4C(=O)N3C(=C(CSC2=NC(=O)C(O)=NN2C)CS[C@@H]34)C(=O)O

> <Substance_modify_yyyymmdd>
20110922

$$$$
