104344-23-2
ChemmineR-0915142007XD

 54 53  0  0  0  0  0  0  0  0  1 V2000
   16.6739   -3.9852    0.0000 O   0  0  0  0  0  0  0  0  0  0  0  0
   15.5460   -3.3085    0.0000 C   0  0  0  0  0  0  0  0  0  0  0  0
   15.5460   -2.0114    0.0000 O   0  0  0  0  0  0  0  0  0  0  0  0
   14.4181   -3.9852    0.0000 C   0  0  0  0  0  0  0  0  0  0  0  0
   13.2714   -3.3085    0.0000 C   0  0  0  0  0  0  0  0  0  0  0  0
   12.1436   -3.9852    0.0000 C   0  0  0  0  0  0  0  0  0  0  0  0
   10.9969   -3.3085    0.0000 O   0  0  0  0  0  0  0  0  0  0  0  0
   12.1436   -5.2823    0.0000 O   0  0  0  0  0  0  0  0  0  0  0  0
    2.6693   -2.6693    0.0000 N   0  0  0  0  0  0  0  0  0  0  0  0
    7.2561   -2.6693    0.0000 O   0  0  0  0  0  0  0  0  0  0  0  0
    4.9627   -2.6693    0.0000 C   0  0  0  0  0  0  0  0  0  0  0  0
    8.4027   -1.9926    0.0000 C   0  0  0  0  0  0  0  0  0  0  0  0
    3.8160   -1.9926    0.0000 C   0  0  0  0  0  0  0  0  0  0  0  0
    6.1094   -1.9926    0.0000 C   0  0  0  0  0  0  0  0  0  0  0  0
   10.7149   -0.6767    0.0000 C   0  0  0  0  0  0  0  0  0  0  0  0
    8.4027   -0.6767    0.0000 C   0  0  0  0  0  0  0  0  0  0  0  0
    9.5682   -2.6693    0.0000 C   0  0  0  0  0  0  0  0  0  0  0  0
    9.5682    0.0000    0.0000 C   0  0  0  0  0  0  0  0  0  0  0  0
   10.7149   -1.9926    0.0000 C   0  0  0  0  0  0  0  0  0  0  0  0
    4.9627   -3.9852    0.0000 O   0  0  0  0  0  0  0  0  0  0  0  0
   16.4859    0.0000    0.0000 O   0  0  0  0  0  0  0  0  0  0  0  0
    1.5038   -1.9926    0.0000 C   0  0  0  0  0  0  0  0  0  0  0  0
   13.0083   -0.6767    0.0000 O   0  0  0  0  0  0  0  0  0  0  0  0
   11.8804    0.0000    0.0000 C   0  0  0  0  0  0  0  0  0  0  0  0
   17.6326   -0.6767    0.0000 C   0  0  0  0  0  0  0  0  0  0  0  0
   15.3204   -0.6767    0.0000 C   0  0  0  0  0  0  0  0  0  0  0  0
   14.1737    0.0000    0.0000 C   0  0  0  0  0  0  0  0  0  0  0  0
    1.5038   -0.6767    0.0000 C   0  0  0  0  0  0  0  0  0  0  0  0
    0.3572   -2.6693    0.0000 C   0  0  0  0  0  0  0  0  0  0  0  0
   18.7981    0.0000    0.0000 C   0  0  0  0  0  0  0  0  0  0  0  0
   17.6326   -1.9926    0.0000 C   0  0  0  0  0  0  0  0  0  0  0  0
    2.3122   -9.0231    0.0000 N   0  0  0  0  0  0  0  0  0  0  0  0
    6.9177   -9.0231    0.0000 O   0  0  0  0  0  0  0  0  0  0  0  0
    4.6243   -9.0231    0.0000 C   0  0  0  0  0  0  0  0  0  0  0  0
    8.0644   -8.3463    0.0000 C   0  0  0  0  0  0  0  0  0  0  0  0
    3.4588   -8.3463    0.0000 C   0  0  0  0  0  0  0  0  0  0  0  0
    5.7522   -8.3463    0.0000 C   0  0  0  0  0  0  0  0  0  0  0  0
   10.3765   -7.0305    0.0000 C   0  0  0  0  0  0  0  0  0  0  0  0
    8.0644   -7.0305    0.0000 C   0  0  0  0  0  0  0  0  0  0  0  0
    9.2299   -9.0231    0.0000 C   0  0  0  0  0  0  0  0  0  0  0  0
    9.2299   -6.3537    0.0000 C   0  0  0  0  0  0  0  0  0  0  0  0
   10.3765   -8.3463    0.0000 C   0  0  0  0  0  0  0  0  0  0  0  0
    4.6243  -10.3389    0.0000 O   0  0  0  0  0  0  0  0  0  0  0  0
   16.1287   -6.3537    0.0000 O   0  0  0  0  0  0  0  0  0  0  0  0
    1.1467   -8.3463    0.0000 C   0  0  0  0  0  0  0  0  0  0  0  0
   12.6699   -7.0305    0.0000 O   0  0  0  0  0  0  0  0  0  0  0  0
   11.5420   -6.3537    0.0000 C   0  0  0  0  0  0  0  0  0  0  0  0
   17.2754   -7.0305    0.0000 C   0  0  0  0  0  0  0  0  0  0  0  0
   14.9821   -7.0305    0.0000 C   0  0  0  0  0  0  0  0  0  0  0  0
   13.8354   -6.3537    0.0000 C   0  0  0  0  0  0  0  0  0  0  0  0
    1.1467   -7.0305    0.0000 C   0  0  0  0  0  0  0  0  0  0  0  0
    0.0000   -9.0231    0.0000 C   0  0  0  0  0  0  0  0  0  0  0  0
   18.4409   -6.3537    0.0000 C   0  0  0  0  0  0  0  0  0  0  0  0
   17.2754   -8.3463    0.0000 C   0  0  0  0  0  0  0  0  0  0  0  0
  1  2  1  0  0  0  0
  2  3  2  0  0  0  0
  2  4  1  0  0  0  0
  4  5  2  0  0  0  0
  5  6  1  0  0  0  0
  6  7  1  0  0  0  0
  6  8  2  0  0  0  0
  9 13  1  0  0  0  0
  9 22  1  0  0  0  0
 10 14  1  0  0  0  0
 10 12  1  0  0  0  0
 11 13  1  0  0  0  0
 11 14  1  0  0  0  0
 11 20  1  0  0  0  0
 12 16  1  0  0  0  0
 12 17  2  0  0  0  0
 15 19  2  0  0  0  0
 15 24  1  0  0  0  0
 15 18  1  0  0  0  0
 16 18  2  0  0  0  0
 17 19  1  0  0  0  0
 21 26  1  0  0  0  0
 21 25  1  0  0  0  0
 22 28  1  0  0  0  0
 22 29  1  0  0  0  0
 23 24  1  0  0  0  0
 23 27  1  0  0  0  0
 25 30  1  0  0  0  0
 25 31  1  0  0  0  0
 26 27  1  0  0  0  0
 32 36  1  0  0  0  0
 32 45  1  0  0  0  0
 33 37  1  0  0  0  0
 33 35  1  0  0  0  0
 34 36  1  0  0  0  0
 34 37  1  0  0  0  0
 34 43  1  0  0  0  0
 35 39  1  0  0  0  0
 35 40  2  0  0  0  0
 38 42  2  0  0  0  0
 38 47  1  0  0  0  0
 38 41  1  0  0  0  0
 39 41  2  0  0  0  0
 40 42  1  0  0  0  0
 44 49  1  0  0  0  0
 44 48  1  0  0  0  0
 45 51  1  0  0  0  0
 45 52  1  0  0  0  0
 46 47  1  0  0  0  0
 46 50  1  0  0  0  0
 48 53  1  0  0  0  0
 48 54  1  0  0  0  0
 49 50  1  0  0  0  0
M  END
> <ID>
11202

> <Formula>
C40H66N2O12

> <FW>
766.9582 (116.0722+325.4430+325.4430)

> <DSSTox_CID>
25794

> <DSSTox_RID>
81134

> <DSSTox_GSID>
45794

> <DSSTox_FileID_Sort>
5815

> <TS_ChemName>
Bisoprolol fumarate

> <TS_ChemName_Synonyms>


> <TS_CASRN>
104344-23-2

> <CASRN_ChemName_Relationship>
primary

> <TS_Description>
single chemical compound

> <ChemNote>
parent [66722-44-9]

> <STRUCTURE_Shown>
tested chemical

> <STRUCTURE_Formula>
C40H66N2O12

> <STRUCTURE_MW>
766.9582

> <STRUCTURE_ChemType>
defined organic

> <STRUCTURE_DefinedOrganicForm>
complex

> <STRUCTURE_IUPAC>
1-(propan-2-ylamino)-3-(4-{[2-(propan-2-yloxy)ethoxy]methyl}phenoxy)propan-2-ol (2E)-but-2-enedioate (2:1)

> <STRUCTURE_SMILES>
O=C(O)/C=C/C(=O)O.CC(C)NCC(O)COc1ccc(COCCOC(C)C)cc1.CC(C)NCC(O)COc1ccc(cc1)COCCOC(C)C

> <STRUCTURE_SMILES_Desalt>
CC(C)NCC(O)COc1ccc(cc1)COCCOC(C)C

> <Substance_modify_yyyymmdd>
20110902

$$$$
