10447-39-9
ChemmineR-0915142007XD

 22 25  0  0  0  0  0  0  0  0  1 V2000
    1.2056   -1.3868    0.0000 N   0  0  0  0  0  0  0  0  0  0  0  0
    2.4112   -2.0881    0.0000 C   0  0  0  0  0  0  0  0  0  0  0  0
    1.2056    0.0000    0.0000 C   0  0  0  0  0  0  0  0  0  0  0  0
    0.0000   -2.0881    0.0000 C   0  0  0  0  0  0  0  0  0  0  0  0
    1.6390   -2.1748    0.0000 C   0  0  0  0  0  0  0  0  0  0  0  0
    2.8446   -2.8761    0.0000 C   0  0  0  0  0  0  0  0  0  0  0  0
    1.6390   -0.7880    0.0000 C   0  0  0  0  0  0  0  0  0  0  0  0
    0.4334   -2.8761    0.0000 C   0  0  0  0  0  0  0  0  0  0  0  0
    3.8138   -3.8611    0.0000 C   0  0  0  0  0  0  0  0  0  0  0  0
    3.4435   -5.2007    0.0000 C   0  0  0  0  0  0  0  0  0  0  0  0
    4.4206   -6.2093    0.0000 C   0  0  0  0  0  0  0  0  0  0  0  0
    2.0881   -5.5552    0.0000 C   0  0  0  0  0  0  0  0  0  0  0  0
    4.0344   -7.5252    0.0000 C   0  0  0  0  0  0  0  0  0  0  0  0
    1.7257   -6.8948    0.0000 C   0  0  0  0  0  0  0  0  0  0  0  0
    2.6949   -7.8798    0.0000 C   0  0  0  0  0  0  0  0  0  0  0  0
    5.1534   -3.5301    0.0000 C   0  0  0  0  0  0  0  0  0  0  0  0
    5.5395   -2.1906    0.0000 C   0  0  0  0  0  0  0  0  0  0  0  0
    6.1226   -4.5151    0.0000 C   0  0  0  0  0  0  0  0  0  0  0  0
    6.8791   -1.8439    0.0000 C   0  0  0  0  0  0  0  0  0  0  0  0
    7.4779   -4.1684    0.0000 C   0  0  0  0  0  0  0  0  0  0  0  0
    7.8483   -2.8288    0.0000 C   0  0  0  0  0  0  0  0  0  0  0  0
    2.4743   -4.2157    0.0000 O   0  0  0  0  0  0  0  0  0  0  0  0
  1  2  1  0  0  0  0
  1  3  1  0  0  0  0
  1  4  1  0  0  0  0
  2  6  1  0  0  0  0
  3  7  1  0  0  0  0
  4  8  1  0  0  0  0
  5  6  1  0  0  0  0
  5  7  1  0  0  0  0
  5  8  1  0  0  0  0
  6  9  1  0  0  0  0
  9 10  1  0  0  0  0
  9 16  1  0  0  0  0
  9 22  1  0  0  0  0
 10 11  1  0  0  0  0
 10 12  2  0  0  0  0
 11 13  2  0  0  0  0
 12 14  1  0  0  0  0
 13 15  1  0  0  0  0
 14 15  2  0  0  0  0
 16 17  1  0  0  0  0
 16 18  2  0  0  0  0
 17 19  2  0  0  0  0
 18 20  1  0  0  0  0
 19 21  1  0  0  0  0
 20 21  2  0  0  0  0
M  END
> <ID>
11485

> <Formula>
C20H23NO

> <FW>
293.4027

> <DSSTox_CID>
26187

> <DSSTox_RID>
81418

> <DSSTox_GSID>
46187

> <DSSTox_FileID_Sort>
6099

> <TS_ChemName>
Quifenadine

> <TS_ChemName_Synonyms>


> <TS_CASRN>
10447-39-9

> <CASRN_ChemName_Relationship>
primary

> <TS_Description>
single chemical compound

> <ChemNote>


> <STRUCTURE_Shown>
tested chemical

> <STRUCTURE_Formula>
C20H23NO

> <STRUCTURE_MW>
293.4027

> <STRUCTURE_ChemType>
defined organic

> <STRUCTURE_DefinedOrganicForm>
parent

> <STRUCTURE_IUPAC>
1-azabicyclo[2.2.2]oct-3-yl(diphenyl)methanol

> <STRUCTURE_SMILES>
OC(C2CN1CCC2CC1)(c3ccccc3)c4ccccc4

> <STRUCTURE_SMILES_Desalt>
OC(C2CN1CCC2CC1)(c3ccccc3)c4ccccc4

> <Substance_modify_yyyymmdd>
20110818

$$$$
