10457-90-6
ChemmineR-0915142007XD

 26 28  0  0  0  0  0  0  0  0  1 V2000
   15.0032   -0.7041    0.0000 C    0  0  0  0  0  0  0  0  0  0  0  0
   15.4558   -1.9445    0.0000 C    0  0  0  0  0  0  0  0  0  0  0  0
   16.7634   -2.1792    0.0000 Br   0  0  0  0  0  0  0  0  0  0  0  0
   14.6009   -2.9671    0.0000 C    0  0  0  0  0  0  0  0  0  0  0  0
   13.2933   -2.7324    0.0000 C    0  0  0  0  0  0  0  0  0  0  0  0
   12.8407   -1.4919    0.0000 C    0  0  0  0  0  0  0  0  0  0  0  0
   11.5164   -1.2573    0.0000 C    0  0  0  0  0  0  0  0  0  0  0  0
   11.9690    0.0000    0.0000 O    0  0  0  0  0  0  0  0  0  0  0  0
   11.5164   -2.5816    0.0000 C    0  0  0  0  0  0  0  0  0  0  0  0
   10.3765   -3.2521    0.0000 C    0  0  0  0  0  0  0  0  0  0  0  0
    9.2198   -2.5816    0.0000 N    0  0  0  0  0  0  0  0  0  0  0  0
    8.0632   -3.2521    0.0000 C    0  0  0  0  0  0  0  0  0  0  0  0
    6.9065   -2.5816    0.0000 C    0  0  0  0  0  0  0  0  0  0  0  0
    5.7666   -3.2521    0.0000 C    0  0  0  0  0  0  0  0  0  0  0  0
    4.6099   -2.5816    0.0000 C    0  0  0  0  0  0  0  0  0  0  0  0
    4.6099   -1.2573    0.0000 O    0  0  0  0  0  0  0  0  0  0  0  0
    3.4533   -3.2521    0.0000 C    0  0  0  0  0  0  0  0  0  0  0  0
    3.4533   -4.5764    0.0000 C    0  0  0  0  0  0  0  0  0  0  0  0
    2.2966   -5.2469    0.0000 C    0  0  0  0  0  0  0  0  0  0  0  0
    1.1567   -4.5764    0.0000 C    0  0  0  0  0  0  0  0  0  0  0  0
    0.0000   -5.2469    0.0000 F    0  0  0  0  0  0  0  0  0  0  0  0
    1.1567   -3.2521    0.0000 C    0  0  0  0  0  0  0  0  0  0  0  0
    2.2966   -2.5816    0.0000 C    0  0  0  0  0  0  0  0  0  0  0  0
    9.2198   -1.2573    0.0000 C    0  0  0  0  0  0  0  0  0  0  0  0
   10.3765   -0.5867    0.0000 C    0  0  0  0  0  0  0  0  0  0  0  0
   13.6957   -0.4694    0.0000 C    0  0  0  0  0  0  0  0  0  0  0  0
  1  2  2  0  0  0  0
  1 26  1  0  0  0  0
  2  3  1  0  0  0  0
  2  4  1  0  0  0  0
  4  5  2  0  0  0  0
  5  6  1  0  0  0  0
  6  7  1  0  0  0  0
  6 26  2  0  0  0  0
  7  8  1  0  0  0  0
  7  9  1  0  0  0  0
  7 25  1  0  0  0  0
  9 10  1  0  0  0  0
 10 11  1  0  0  0  0
 11 12  1  0  0  0  0
 11 24  1  0  0  0  0
 12 13  1  0  0  0  0
 13 14  1  0  0  0  0
 14 15  1  0  0  0  0
 15 16  2  0  0  0  0
 15 17  1  0  0  0  0
 17 18  2  0  0  0  0
 17 23  1  0  0  0  0
 18 19  1  0  0  0  0
 19 20  2  0  0  0  0
 20 21  1  0  0  0  0
 20 22  1  0  0  0  0
 22 23  2  0  0  0  0
 24 25  1  0  0  0  0
M  END
> <ID>
2435

> <Formula>
C21H23BrFNO2

> <FW>
420.3152

> <DSSTox_CID>
2690

> <DSSTox_RID>
76693

> <DSSTox_GSID>
22690

> <DSSTox_FileID_Sort>
1377

> <TS_ChemName>
Bromperidol

> <TS_ChemName_Synonyms>


> <TS_CASRN>
10457-90-6

> <CASRN_ChemName_Relationship>
primary

> <TS_Description>
single chemical compound

> <ChemNote>


> <STRUCTURE_Shown>
tested chemical

> <STRUCTURE_Formula>
C21H23BrFNO2

> <STRUCTURE_MW>
420.3152

> <STRUCTURE_ChemType>
defined organic

> <STRUCTURE_DefinedOrganicForm>
parent

> <STRUCTURE_IUPAC>
4-[4-(4-bromophenyl)-4-hydroxypiperidin-1-yl]-1-(4-fluorophenyl)butan-1-one

> <STRUCTURE_SMILES>
Fc1ccc(cc1)C(=O)CCCN2CCC(O)(CC2)c3ccc(Br)cc3

> <STRUCTURE_SMILES_Desalt>
Fc1ccc(cc1)C(=O)CCCN2CCC(O)(CC2)c3ccc(Br)cc3

> <Substance_modify_yyyymmdd>
20080429

$$$$
