104653-34-1
ChemmineR-0915142007XD

 35 40  0  0  0  0  0  0  0  0  1 V2000
    0.0000   -3.4507    0.0000 S    0  0  0  0  0  0  0  0  0  0  0  0
    0.6706   -2.3051    0.0000 C    0  0  0  0  0  0  0  0  0  0  0  0
    1.9978   -2.3051    0.0000 C    0  0  0  0  0  0  0  0  0  0  0  0
    2.6544   -3.4507    0.0000 C    0  0  0  0  0  0  0  0  0  0  0  0
    1.9978   -4.6102    0.0000 C    0  0  0  0  0  0  0  0  0  0  0  0
    0.6706   -4.6102    0.0000 C    0  0  0  0  0  0  0  0  0  0  0  0
    0.0000   -1.1456    0.0000 C    0  0  0  0  0  0  0  0  0  0  0  0
    0.6706    0.0000    0.0000 C    0  0  0  0  0  0  0  0  0  0  0  0
    1.9978    0.0000    0.0000 C    0  0  0  0  0  0  0  0  0  0  0  0
    2.6544   -1.1456    0.0000 C    0  0  0  0  0  0  0  0  0  0  0  0
    0.0000   -5.7418    0.0000 O    0  0  0  0  0  0  0  0  0  0  0  0
    1.9978   -6.9014    0.0000 C    0  0  0  0  0  0  0  0  0  0  0  0
    2.6544   -8.0469    0.0000 C    0  0  0  0  0  0  0  0  0  0  0  0
    0.6706   -6.9014    0.0000 C    0  0  0  0  0  0  0  0  0  0  0  0
    1.9978   -9.2065    0.0000 C    0  0  0  0  0  0  0  0  0  0  0  0
    3.9955   -8.0469    0.0000 C    0  0  0  0  0  0  0  0  0  0  0  0
    2.6544   -5.7418    0.0000 C    0  0  0  0  0  0  0  0  0  0  0  0
    3.9955   -5.7418    0.0000 C    0  0  0  0  0  0  0  0  0  0  0  0
    4.6661   -6.9014    0.0000 C    0  0  0  0  0  0  0  0  0  0  0  0
    0.6706   -9.2065    0.0000 C    0  0  0  0  0  0  0  0  0  0  0  0
    0.0000   -8.0469    0.0000 C    0  0  0  0  0  0  0  0  0  0  0  0
    8.6477   -6.9014    0.0000 C    0  0  0  0  0  0  0  0  0  0  0  0
    7.9771   -8.0469    0.0000 C    0  0  0  0  0  0  0  0  0  0  0  0
    7.9771   -5.7418    0.0000 C    0  0  0  0  0  0  0  0  0  0  0  0
    6.6499   -8.0469    0.0000 C    0  0  0  0  0  0  0  0  0  0  0  0
    6.6499   -5.7418    0.0000 C    0  0  0  0  0  0  0  0  0  0  0  0
    5.9933   -6.9014    0.0000 C    0  0  0  0  0  0  0  0  0  0  0  0
    9.9749   -6.9014    0.0000 C    0  0  0  0  0  0  0  0  0  0  0  0
   10.6315   -5.7418    0.0000 C    0  0  0  0  0  0  0  0  0  0  0  0
   10.6315   -8.0469    0.0000 C    0  0  0  0  0  0  0  0  0  0  0  0
   11.9726   -5.7418    0.0000 C    0  0  0  0  0  0  0  0  0  0  0  0
   11.9726   -8.0469    0.0000 C    0  0  0  0  0  0  0  0  0  0  0  0
   12.6432   -6.9014    0.0000 C    0  0  0  0  0  0  0  0  0  0  0  0
   13.9704   -6.9014    0.0000 Br   0  0  0  0  0  0  0  0  0  0  0  0
    3.9955   -3.4507    0.0000 O    0  0  0  0  0  0  0  0  0  0  0  0
  1  2  1  0  0  0  0
  1  6  1  0  0  0  0
  2  3  1  0  0  0  0
  2  7  2  0  0  0  0
  3  4  1  0  0  0  0
  3 10  2  0  0  0  0
  4  5  2  0  0  0  0
  4 35  1  0  0  0  0
  5  6  1  0  0  0  0
  5 17  1  0  0  0  0
  6 11  2  0  0  0  0
  7  8  1  0  0  0  0
  8  9  2  0  0  0  0
  9 10  1  0  0  0  0
 12 13  2  0  0  0  0
 12 14  1  0  0  0  0
 12 17  1  0  0  0  0
 13 15  1  0  0  0  0
 13 16  1  0  0  0  0
 14 21  2  0  0  0  0
 15 20  2  0  0  0  0
 16 19  1  0  0  0  0
 17 18  1  0  0  0  0
 18 19  1  0  0  0  0
 19 27  1  0  0  0  0
 20 21  1  0  0  0  0
 22 28  1  0  0  0  0
 22 23  2  0  0  0  0
 22 24  1  0  0  0  0
 23 25  1  0  0  0  0
 24 26  2  0  0  0  0
 25 27  2  0  0  0  0
 26 27  1  0  0  0  0
 28 29  2  0  0  0  0
 28 30  1  0  0  0  0
 29 31  1  0  0  0  0
 30 32  2  0  0  0  0
 31 33  2  0  0  0  0
 32 33  1  0  0  0  0
 33 34  1  0  0  0  0
M  END
> <ID>
6438

> <Formula>
C31H23BrO2S

> <FW>
539.4821

> <DSSTox_CID>
12374

> <DSSTox_RID>
97556

> <DSSTox_GSID>
32374

> <DSSTox_FileID_Sort>
8331

> <TS_ChemName>
Difethialone

> <TS_ChemName_Synonyms>


> <TS_CASRN>
104653-34-1

> <CASRN_ChemName_Relationship>
primary

> <TS_Description>
single chemical compound

> <ChemNote>
mixture of stereoisomers (1RS,3RS):(1RS,3SR) approx 0-15 to 85-100; structure shown without stereochem, tautomers

> <STRUCTURE_Shown>
tested chemical

> <STRUCTURE_Formula>
C31H23BrO2S

> <STRUCTURE_MW>
539.4821

> <STRUCTURE_ChemType>
defined organic

> <STRUCTURE_DefinedOrganicForm>
parent

> <STRUCTURE_IUPAC>
3-[3-(4'-bromobiphenyl-4-yl)-1,2,3,4-tetrahydronaphthalen-1-yl]-4-hydroxy-2H-thiochromen-2-one

> <STRUCTURE_SMILES>
Brc1ccc(cc1)c2ccc(cc2)C4Cc3ccccc3C(C4)C5=C(O)c6ccccc6SC5=O

> <STRUCTURE_SMILES_Desalt>
Brc1ccc(cc1)c2ccc(cc2)C4Cc3ccccc3C(C4)C5=C(O)c6ccccc6SC5=O

> <Substance_modify_yyyymmdd>
20080429

$$$$
