104795-68-8
ChemmineR-0915142007XD

 24 25  0  0  0  0  0  0  0  0  2 V2000
    4.6077   -3.9460    0.0000 C    0  0  0  0  0  0  0  0  0  0  0  0
    5.8830   -3.5250    0.0000 C    0  0  0  0  0  0  0  0  0  0  0  0
    4.6077   -5.2694    0.0000 C    0  0  0  0  0  0  0  0  0  0  0  0
    3.4648   -3.2723    0.0000 C    0  0  0  0  0  0  0  0  0  0  0  0
    6.6529   -4.5957    0.0000 C    0  0  0  0  0  0  0  0  0  0  0  0
    6.2800   -2.2617    0.0000 O    0  0  0  0  0  0  0  0  0  0  0  0
    5.8830   -5.6784    0.0000 S    0  0  0  0  0  0  0  0  0  0  0  0
    3.4648   -5.9311    0.0000 C    0  0  0  0  0  0  0  0  0  0  0  0
    2.3099   -3.9460    0.0000 C    0  0  0  0  0  0  0  0  0  0  0  0
    7.9763   -4.5957    0.0000 C    0  0  0  0  0  0  0  0  0  0  0  0
    5.4017   -1.2752    0.0000 C    0  0  0  0  0  0  0  0  0  0  0  0
    2.3099   -5.2694    0.0000 C    0  0  0  0  0  0  0  0  0  0  0  0
    1.1549   -3.2723    0.0000 O    0  0  0  0  0  0  0  0  0  0  0  0
    8.6500   -3.4528    0.0000 N    0  0  0  0  0  0  0  0  0  0  0  0
    8.6500   -5.7506    0.0000 O    0  0  0  0  0  0  0  0  0  0  0  0
    4.1024   -1.5519    0.0000 C    0  0  0  0  0  0  0  0  0  0  0  0
    5.7987    0.0000    0.0000 C    0  0  0  0  0  0  0  0  0  0  0  0
    0.0000   -3.9460    0.0000 C    0  0  0  0  0  0  0  0  0  0  0  0
    9.9854   -3.4528    0.0000 C    0  0  0  0  0  0  0  0  0  0  0  0
   10.7674   -2.3700    0.0000 N    0  5  0  0  0  0  0  0  0  0  0  0
   10.7674   -4.5235    0.0000 N    0  0  0  0  0  0  0  0  0  0  0  0
   12.0306   -2.7911    0.0000 N    0  0  0  0  0  0  0  0  0  0  0  0
   12.0306   -4.1265    0.0000 N    0  0  0  0  0  0  0  0  0  0  0  0
    8.6620   -0.9504    0.0000 Na   0  3  0  0  0  0  0  0  0  0  0  0
  1  2  1  0  0  0  0
  1  3  2  0  0  0  0
  1  4  1  0  0  0  0
  2  5  2  0  0  0  0
  2  6  1  0  0  0  0
  3  7  1  0  0  0  0
  3  8  1  0  0  0  0
  4  9  2  0  0  0  0
  5 10  1  0  0  0  0
  5  7  1  0  0  0  0
  6 11  1  0  0  0  0
  8 12  2  0  0  0  0
  9 13  1  0  0  0  0
  9 12  1  0  0  0  0
 10 14  1  0  0  0  0
 10 15  2  0  0  0  0
 11 16  1  0  0  0  0
 11 17  1  0  0  0  0
 13 18  1  0  0  0  0
 14 19  1  0  0  0  0
 19 20  1  0  0  0  0
 19 21  2  0  0  0  0
 20 22  1  0  0  0  0
 21 23  1  0  0  0  0
 22 23  2  0  0  0  0
M  END
> <ID>
12410

> <Formula>
C14H14N5NaO3S

> <FW>
355.3474 (332.3582+22.9892)

> <DSSTox_CID>
27268

> <DSSTox_RID>
82225

> <DSSTox_GSID>
47268

> <DSSTox_FileID_Sort>
6906

> <TS_ChemName>
PharmaCode_0119307

> <TS_ChemName_Synonyms>
sodium 5-({[5-methoxy-3-(propan-2-yloxy)-1-benzothiophen-2-yl]carbonyl}amino)tetrazol-1-ide

> <TS_CASRN>
104795-68-8

> <CASRN_ChemName_Relationship>
primary

> <TS_Description>
single chemical compound

> <ChemNote>
tautomers

> <STRUCTURE_Shown>
tested chemical

> <STRUCTURE_Formula>
C14H14N5NaO3S

> <STRUCTURE_MW>
355.3474

> <STRUCTURE_ChemType>
defined organic

> <STRUCTURE_DefinedOrganicForm>
salt

> <STRUCTURE_IUPAC>
sodium 5-({[5-methoxy-3-(propan-2-yloxy)-1-benzothiophen-2-yl]carbonyl}amino)tetrazol-1-ide

> <STRUCTURE_SMILES>
[Na+].CC(C)Oc1c3cc(ccc3sc1C(=O)Nc2[n-]nnn2)OC

> <STRUCTURE_SMILES_Desalt>
CC(C)Oc1c3cc(ccc3sc1C(=O)Nc2nnnn2)OC

> <Substance_modify_yyyymmdd>
20130910

$$$$
