104757-53-1
ChemmineR-0915142007XD

 37 39  0  0  1  0  0  0  0  0  2 V2000
    8.0371   -5.3137    0.0000 C    0  0  0  0  0  0  0  0  0  0  0  0
    9.1176   -6.0981    0.0000 C    0  0  0  0  0  0  0  0  0  0  0  0
   10.1833   -5.2841    0.0000 N    0  0  0  0  0  0  0  0  0  0  0  0
    9.7837   -4.0408    0.0000 C    0  0  0  0  0  0  0  0  0  0  0  0
    8.4515   -4.0408    0.0000 C    0  0  0  0  0  0  0  0  0  0  0  0
    1.1397   -1.3321    0.0000 N    0  3  0  0  0  0  0  0  0  0  0  0
    2.2942   -1.9982    0.0000 C    0  0  0  0  0  0  0  0  0  0  0  0
    1.1397    0.0000    0.0000 O    0  0  0  0  0  0  0  0  0  0  0  0
    0.0000   -1.9982    0.0000 O    0  5  0  0  0  0  0  0  0  0  0  0
    2.2942   -3.3303    0.0000 C    0  0  0  0  0  0  0  0  0  0  0  0
    3.4339   -3.9816    0.0000 C    0  0  0  0  0  0  0  0  0  0  0  0
    4.6032   -3.3303    0.0000 C    0  0  0  0  0  0  0  0  0  0  0  0
    4.6032   -1.9982    0.0000 C    0  0  0  0  0  0  0  0  0  0  0  0
    3.4339   -1.3321    0.0000 C    0  0  0  0  0  0  0  0  0  0  0  0
    3.4339   -5.3137    0.0000 C    0  0  0  0  0  0  0  0  0  0  0  0
    2.2942   -5.9945    0.0000 C    0  0  0  0  0  0  0  0  0  0  0  0
    2.2942   -7.3266    0.0000 C    0  0  0  0  0  0  0  0  0  0  0  0
    3.4339   -7.9631    0.0000 N    0  0  0  0  0  0  0  0  0  0  0  0
    4.6032   -7.3266    0.0000 C    0  0  0  0  0  0  0  0  0  0  0  0
    4.6032   -5.9945    0.0000 C    0  0  0  0  0  0  0  0  0  0  0  0
    1.1397   -7.9631    0.0000 C    0  0  0  0  0  0  0  0  0  0  0  0
    5.7429   -7.9631    0.0000 C    0  0  0  0  0  0  0  0  0  0  0  0
    1.1397   -5.3137    0.0000 C    0  0  0  0  0  0  0  0  0  0  0  0
    1.1397   -3.9816    0.0000 O    0  0  0  0  0  0  0  0  0  0  0  0
    0.0000   -5.9945    0.0000 O    0  0  0  0  0  0  0  0  0  0  0  0
    5.7429   -5.3137    0.0000 C    0  0  0  0  0  0  0  0  0  0  0  0
    5.7429   -3.9816    0.0000 O    0  0  0  0  0  0  0  0  0  0  0  0
    6.8974   -5.9945    0.0000 O    0  0  0  0  0  0  0  0  0  0  0  0
   11.3378   -6.0389    0.0000 C    0  0  0  0  0  0  0  0  0  0  0  0
   12.5071   -5.3581    0.0000 C    0  0  0  0  0  0  0  0  0  0  0  0
   13.6468   -6.0389    0.0000 C    0  0  0  0  0  0  0  0  0  0  0  0
   14.8013   -5.3581    0.0000 C    0  0  0  0  0  0  0  0  0  0  0  0
   14.8013   -4.0408    0.0000 C    0  0  0  0  0  0  0  0  0  0  0  0
   13.6468   -3.3895    0.0000 C    0  0  0  0  0  0  0  0  0  0  0  0
   12.5071   -4.0408    0.0000 C    0  0  0  0  0  0  0  0  0  0  0  0
    0.0000   -3.3303    0.0000 C    0  0  0  0  0  0  0  0  0  0  0  0
    8.5404   -1.8058    0.0000 Cl   0  0  0  0  0  0  0  0  0  0  0  0
  1  5  1  0  0  0  0
  1  2  1  0  0  0  0
  1 28  1  1  0  0  0
  2  3  1  0  0  0  0
  3 29  1  0  0  0  0
  3  4  1  0  0  0  0
  4  5  1  0  0  0  0
  6  7  1  0  0  0  0
  6  8  2  0  0  0  0
  6  9  1  0  0  0  0
  7 14  2  0  0  0  0
  7 10  1  0  0  0  0
 10 11  2  0  0  0  0
 11 12  1  0  0  0  0
 15 11  1  6  0  0  0
 12 13  2  0  0  0  0
 13 14  1  0  0  0  0
 15 20  1  0  0  0  0
 15 16  1  0  0  0  0
 16 17  2  0  0  0  0
 16 23  1  0  0  0  0
 17 18  1  0  0  0  0
 17 21  1  0  0  0  0
 18 19  1  0  0  0  0
 19 20  2  0  0  0  0
 19 22  1  0  0  0  0
 20 26  1  0  0  0  0
 23 24  1  0  0  0  0
 23 25  2  0  0  0  0
 24 36  1  0  0  0  0
 26 27  2  0  0  0  0
 26 28  1  0  0  0  0
 29 30  1  0  0  0  0
 30 31  2  0  0  0  0
 30 35  1  0  0  0  0
 31 32  1  0  0  0  0
 32 33  2  0  0  0  0
 33 34  1  0  0  0  0
 34 35  2  0  0  0  0
M  END
> <ID>
13649

> <Formula>
C27H30ClN3O6

> <FW>
527.9966 (491.5357+36.4609)

> <DSSTox_CID>
28580

> <DSSTox_RID>
82851

> <DSSTox_GSID>
48654

> <DSSTox_FileID_Sort>
7528

> <TS_ChemName>
Barnidipine hydrochloride

> <TS_ChemName_Synonyms>


> <TS_CASRN>
104757-53-1

> <CASRN_ChemName_Relationship>
primary

> <TS_Description>
single chemical compound

> <ChemNote>


> <STRUCTURE_Shown>
tested chemical

> <STRUCTURE_Formula>
C27H30ClN3O6

> <STRUCTURE_MW>
527.9966

> <STRUCTURE_ChemType>
defined organic

> <STRUCTURE_DefinedOrganicForm>
complex

> <STRUCTURE_IUPAC>
(3S)-1-benzylpyrrolidin-3-yl methyl (4S)-2,6-dimethyl-4-(3-nitrophenyl)-1,4-dihydropyridine-3,5-dicarboxylate hydrochloride (1:1)

> <STRUCTURE_SMILES>
Cl.[O-][N+](=O)c1cccc(c1)[C@H]2C(C(=O)OC)=C(C)NC(C)=C2C(=O)O[C@H]4CCN(Cc3ccccc3)C4

> <STRUCTURE_SMILES_Desalt>
[O-][N+](=O)c1cccc(c1)[C@H]2C(C(=O)OC)=C(C)NC(C)=C2C(=O)O[C@H]4CCN(Cc3ccccc3)C4

> <Substance_modify_yyyymmdd>
20111204

$$$$
