104987-11-3
ChemmineR-0915142007XD

 57 60  0  0  1  0  0  0  0  0  1 V2000
    4.4456   -0.6328    0.0000 C   0  0  0  0  0  0  0  0  0  0  0  0
    4.4456   -1.9470    0.0000 C   0  0  0  0  0  0  0  0  0  0  0  0
    3.3423    0.0000    0.0000 C   0  0  0  0  0  0  0  0  0  0  0  0
    3.3423   -2.5798    0.0000 C   0  0  0  0  0  0  0  0  0  0  0  0
    2.2228   -0.6328    0.0000 C   0  0  0  0  0  0  0  0  0  0  0  0
    2.2228   -1.9470    0.0000 C   0  0  0  0  0  0  0  0  0  0  0  0
    1.1033    0.0000    0.0000 O   0  0  0  0  0  0  0  0  0  0  0  0
    1.1033   -2.5798    0.0000 O   0  0  0  0  0  0  0  0  0  0  0  0
    0.0000   -1.9308    0.0000 C   0  0  0  0  0  0  0  0  0  0  0  0
    5.5814   -2.5798    0.0000 C   0  0  0  0  0  0  0  0  0  0  0  0
    5.5814   -3.8777    0.0000 C   0  0  0  0  0  0  0  0  0  0  0  0
    6.6684   -4.5430    0.0000 C   0  0  0  0  0  0  0  0  0  0  0  0
    4.4456   -4.5430    0.0000 C   0  0  0  0  0  0  0  0  0  0  0  0
    6.6684   -5.8734    0.0000 O   0  0  0  0  0  0  0  0  0  0  0  0
    7.8366   -3.8777    0.0000 C   0  0  0  0  0  0  0  0  0  0  0  0
    8.9237   -4.5430    0.0000 C   0  0  0  0  0  0  0  0  0  0  0  0
    7.8366   -2.5798    0.0000 C   0  0  0  0  0  0  0  0  0  0  0  0
    6.0357   -6.9929    0.0000 C   0  0  0  0  0  0  0  0  0  0  0  0
    6.6684   -8.1287    0.0000 O   0  0  0  0  0  0  0  0  0  0  0  0
    4.7539   -6.9929    0.0000 C   0  0  0  0  0  0  0  0  0  0  0  0
    4.1049   -8.1287    0.0000 N   0  0  0  0  0  0  0  0  0  0  0  0
    4.1049   -5.8734    0.0000 C   0  0  0  0  0  0  0  0  0  0  0  0
    2.8231   -8.1287    0.0000 C   0  0  0  0  0  0  0  0  0  0  0  0
    2.8231   -5.8734    0.0000 C   0  0  0  0  0  0  0  0  0  0  0  0
    2.1904   -6.9929    0.0000 C   0  0  0  0  0  0  0  0  0  0  0  0
    4.7539   -9.2320    0.0000 C   0  0  0  0  0  0  0  0  0  0  0  0
    3.2288  -10.1243    0.0000 C   0  0  0  0  0  0  0  0  0  0  0  0
    6.0357   -9.2320    0.0000 O   0  0  0  0  0  0  0  0  0  0  0  0
    1.9470  -10.1243    0.0000 O   0  0  0  0  0  0  0  0  0  0  0  0
    3.2288  -11.6981    0.0000 C   0  0  0  0  0  0  0  0  0  0  0  0
    4.3807  -12.3471    0.0000 O   0  0  0  0  0  0  0  0  0  0  0  0
    2.1579  -12.3471    0.0000 C   0  0  0  0  0  0  0  0  0  0  0  0
    4.3807  -13.6451    0.0000 C   0  0  0  0  0  0  0  0  0  0  0  0
    2.1579  -13.6451    0.0000 C   0  0  0  0  0  0  0  0  0  0  0  0
    3.2288  -14.2941    0.0000 C   0  0  0  0  0  0  0  0  0  0  0  0
    3.2288  -15.6083    0.0000 O   0  0  0  0  0  0  0  0  0  0  0  0
    1.0222  -11.6981    0.0000 C   0  0  0  0  0  0  0  0  0  0  0  0
    5.6300  -14.2130    0.0000 C   0  0  0  0  0  0  0  0  0  0  0  0
    5.6300  -15.5272    0.0000 O   0  0  0  0  0  0  0  0  0  0  0  0
    6.9280  -13.4180    0.0000 C   0  0  0  0  0  0  0  0  0  0  0  0
    6.7496  -16.1275    0.0000 C   0  0  0  0  0  0  0  0  0  0  0  0
    6.9280  -12.1362    0.0000 C   0  0  0  0  0  0  0  0  0  0  0  0
    5.8247  -11.5034    0.0000 C   0  0  0  0  0  0  0  0  0  0  0  0
    8.0475  -11.5034    0.0000 C   0  0  0  0  0  0  0  0  0  0  0  0
    8.7939  -10.3028    0.0000 C   0  0  0  0  0  0  0  0  0  0  0  0
    2.1255  -16.2249    0.0000 C   0  0  0  0  0  0  0  0  0  0  0  0
    8.9237   -5.8085    0.0000 C   0  0  0  0  0  0  0  0  0  0  0  0
   10.0270   -3.8777    0.0000 O   0  0  0  0  0  0  0  0  0  0  0  0
   10.0270   -6.4575    0.0000 C   0  0  0  0  0  0  0  0  0  0  0  0
   10.0270   -7.7393    0.0000 C   0  0  0  0  0  0  0  0  0  0  0  0
   11.1465   -5.8085    0.0000 O   0  0  0  0  0  0  0  0  0  0  0  0
    4.2671  -10.9680    0.0000 O   0  0  0  0  0  0  0  0  0  0  0  0
    8.7939   -8.7128    0.0000 C   0  0  0  0  0  0  0  0  0  0  0  0
   11.3899   -8.6316    0.0000 C   0  0  0  0  0  0  0  0  0  0  0  0
   12.5094   -7.9664    0.0000 C   0  0  0  0  0  0  0  0  0  0  0  0
   12.5094   -6.6847    0.0000 C   0  0  0  0  0  0  0  0  0  0  0  0
   10.1406  -11.0654    0.0000 C   0  0  0  0  0  0  0  0  0  0  0  0
  1  2  1  0  0  0  0
  1  3  1  0  0  0  0
  2  4  1  0  0  0  0
  2 10  1  1  0  0  0
  3  5  1  0  0  0  0
  4  6  1  0  0  0  0
  5  6  1  0  0  0  0
  5  7  1  6  0  0  0
  6  8  1  1  0  0  0
  8  9  1  0  0  0  0
 10 11  2  0  0  0  0
 11 12  1  0  0  0  0
 11 13  1  0  0  0  0
 12 14  1  6  0  0  0
 12 15  1  0  0  0  0
 14 18  1  0  0  0  0
 15 16  1  0  0  0  0
 15 17  1  6  0  0  0
 16 47  1  0  0  0  0
 16 48  1  1  0  0  0
 18 19  2  0  0  0  0
 20 18  1  1  0  0  0
 20 21  1  0  0  0  0
 20 22  1  0  0  0  0
 21 23  1  0  0  0  0
 21 26  1  0  0  0  0
 22 24  1  0  0  0  0
 23 25  1  0  0  0  0
 24 25  1  0  0  0  0
 26 27  1  0  0  0  0
 26 28  2  0  0  0  0
 27 29  2  0  0  0  0
 27 30  1  0  0  0  0
 30 31  1  0  0  0  0
 30 32  1  0  0  0  0
 30 52  1  1  0  0  0
 33 31  1  6  0  0  0
 32 34  1  0  0  0  0
 32 37  1  1  0  0  0
 33 35  1  0  0  0  0
 33 38  1  0  0  0  0
 34 35  1  0  0  0  0
 35 36  1  1  0  0  0
 36 46  1  0  0  0  0
 38 39  1  6  0  0  0
 38 40  1  0  0  0  0
 39 41  1  0  0  0  0
 40 42  1  0  0  0  0
 42 43  1  1  0  0  0
 42 44  1  0  0  0  0
 44 45  1  0  0  0  0
 45 53  2  0  0  0  0
 45 57  1  0  0  0  0
 47 49  1  0  0  0  0
 49 50  1  0  0  0  0
 49 51  2  0  0  0  0
 50 53  1  0  0  0  0
 50 54  1  6  0  0  0
 54 55  1  0  0  0  0
 55 56  2  0  0  0  0
M  END
> <ID>
11624

> <Formula>
C44H69NO12

> <FW>
804.0182

> <DSSTox_CID>
26354

> <DSSTox_RID>
81557

> <DSSTox_GSID>
46354

> <DSSTox_FileID_Sort>
6238

> <TS_ChemName>
Tacrolimus

> <TS_ChemName_Synonyms>
(Fujimycin) (FK506)

> <TS_CASRN>
104987-11-3

> <CASRN_ChemName_Relationship>
primary

> <TS_Description>
single chemical compound

> <ChemNote>
stereochem

> <STRUCTURE_Shown>
tested chemical

> <STRUCTURE_Formula>
C44H69NO12

> <STRUCTURE_MW>
804.0182

> <STRUCTURE_ChemType>
defined organic

> <STRUCTURE_DefinedOrganicForm>
parent

> <STRUCTURE_IUPAC>
(3S,4R,5S,8R,9E,12S,14S,15R,16S,18R,19R,26aS)-5,19-dihydroxy-3-{(1E)-1-[(1R,3R,4R)-4-hydroxy-3-methoxycyclohexyl]prop-1-en-2-yl}-14,16-dimethoxy-4,10,12,18-tetramethyl-8-(prop-2-en-1-yl)-5,6,8,11,12,13,14,15,16,17,18,19,24,25,26,26a-hexadecahydro-3H-15,19

> <STRUCTURE_SMILES>
O[C@@H]1CC[C@H](C[C@H]1OC)\C=C(/C)[C@H]2OC(=O)[C@@H]4CCCCN4C(=O)C(=O)[C@]3(O)O[C@H]([C@H](C[C@@H](C)CC(C)=C[C@@H](CC=C)C(=O)C[C@H](O)[C@H]2C)OC)[C@H](C[C@H]3C)OC

> <STRUCTURE_SMILES_Desalt>
O[C@@H]1CC[C@H](C[C@H]1OC)\C=C(/C)[C@H]2OC(=O)[C@@H]4CCCCN4C(=O)C(=O)[C@]3(O)O[C@H]([C@H](C[C@@H](C)CC(C)=C[C@@H](CC=C)C(=O)C[C@H](O)[C@H]2C)OC)[C@H](C[C@H]3C)OC

> <Substance_modify_yyyymmdd>
20110814

$$$$
