104931-87-5
ChemmineR-0915142007XD

 43 44  0  0  1  0  0  0  0  0  1 V2000
    6.7901   -6.7476    0.0000 C   0  0  0  0  0  0  0  0  0  0  0  0
    6.7901   -8.0518    0.0000 C   0  0  0  0  0  0  0  0  0  0  0  0
    5.6703   -6.0814    0.0000 C   0  0  0  0  0  0  0  0  0  0  0  0
    5.6703   -8.7039    0.0000 C   0  0  0  0  0  0  0  0  0  0  0  0
    4.5504   -6.7476    0.0000 C   0  0  0  0  0  0  0  0  0  0  0  0
    4.5504   -8.0518    0.0000 C   0  0  0  0  0  0  0  0  0  0  0  0
    7.9525   -6.0814    0.0000 N   0  0  0  0  0  0  0  0  0  0  0  0
    5.6703  -10.0222    0.0000 N   0  0  0  0  0  0  0  0  0  0  0  0
    5.6703   -3.9408    0.0000 O   0  0  0  0  0  0  0  0  0  0  0  0
    3.4022   -6.0814    0.0000 O   0  0  0  0  0  0  0  0  0  0  0  0
    3.4022   -8.7039    0.0000 O   0  0  0  0  0  0  0  0  0  0  0  0
    6.7901   -3.2746    0.0000 C   0  0  0  0  0  0  0  0  0  0  0  0
    6.7901   -1.9421    0.0000 C   0  0  0  0  0  0  0  0  0  0  0  0
    7.9525   -3.9408    0.0000 O   0  0  0  0  0  0  0  0  0  0  0  0
    7.9525   -1.3183    0.0000 C   0  0  0  0  0  0  0  0  0  0  0  0
    9.0724   -3.2746    0.0000 C   0  0  0  0  0  0  0  0  0  0  0  0
    9.0724   -1.9421    0.0000 C   0  0  0  0  0  0  0  0  0  0  0  0
   10.2207   -3.9408    0.0000 C   0  0  0  0  0  0  0  0  0  0  0  0
   11.3405   -3.2746    0.0000 O   0  0  0  0  0  0  0  0  0  0  0  0
   10.2207   -1.3183    0.0000 O   0  0  0  0  0  0  0  0  0  0  0  0
    7.9525    0.0000    0.0000 N   0  0  0  0  0  0  0  0  0  0  0  0
    5.6703   -1.3183    0.0000 O   0  0  0  0  0  0  0  0  0  0  0  0
    9.0724   -6.7193    0.0000 C   0  0  0  0  0  0  0  0  0  0  0  0
   10.2207   -6.0814    0.0000 C   0  0  0  0  0  0  0  0  0  0  0  0
    9.0724   -8.0518    0.0000 O   0  0  0  0  0  0  0  0  0  0  0  0
   11.3405   -6.7193    0.0000 C   0  0  0  0  0  0  0  0  0  0  0  0
   12.5029   -6.0814    0.0000 C   0  0  0  0  0  0  0  0  0  0  0  0
   13.6228   -6.7193    0.0000 N   0  0  0  0  0  0  0  0  0  0  0  0
   10.2207   -4.7772    0.0000 O   0  0  0  0  0  0  0  0  0  0  0  0
    2.2823   -8.0518    0.0000 C   0  0  0  0  0  0  0  0  0  0  0  0
    1.1199   -8.7039    0.0000 C   0  0  0  0  0  0  0  0  0  0  0  0
    2.2823   -6.7193    0.0000 O   0  0  0  0  0  0  0  0  0  0  0  0
    0.0000   -8.0518    0.0000 C   0  0  0  0  0  0  0  0  0  0  0  0
    1.1199   -6.0814    0.0000 C   0  0  0  0  0  0  0  0  0  0  0  0
    0.0000   -6.7193    0.0000 C   0  0  0  0  0  0  0  0  0  0  0  0
    1.1199   -4.7772    0.0000 C   0  0  0  0  0  0  0  0  0  0  0  0
    0.0000   -4.1109    0.0000 N   0  0  0  0  0  0  0  0  0  0  0  0
    1.1199  -10.0222    0.0000 N   0  0  0  0  0  0  0  0  0  0  0  0
   12.8573   -9.2567    0.0000 S   0  0  0  0  0  0  0  0  0  0  0  0
   14.1757   -9.2567    0.0000 O   0  0  0  0  0  0  0  0  0  0  0  0
   11.5532   -9.2567    0.0000 O   0  0  0  0  0  0  0  0  0  0  0  0
   12.8573  -10.5750    0.0000 O   0  0  0  0  0  0  0  0  0  0  0  0
   12.8573   -7.9525    0.0000 O   0  0  0  0  0  0  0  0  0  0  0  0
  1  2  1  0  0  0  0
  1  3  1  0  0  0  0
  1  7  1  6  0  0  0
  2  4  1  0  0  0  0
  3  5  1  0  0  0  0
  3  9  1  1  0  0  0
  4  6  1  0  0  0  0
  4  8  1  6  0  0  0
  5  6  1  0  0  0  0
  5 10  1  6  0  0  0
  6 11  1  1  0  0  0
  7 23  1  0  0  0  0
 12  9  1  6  0  0  0
 30 11  1  6  0  0  0
 12 13  1  0  0  0  0
 12 14  1  0  0  0  0
 13 15  1  0  0  0  0
 13 22  1  6  0  0  0
 14 16  1  0  0  0  0
 15 17  1  0  0  0  0
 15 21  1  1  0  0  0
 16 17  1  0  0  0  0
 16 18  1  1  0  0  0
 17 20  1  6  0  0  0
 18 19  1  0  0  0  0
 23 24  1  0  0  0  0
 23 25  2  0  0  0  0
 24 26  1  0  0  0  0
 24 29  1  1  0  0  0
 26 27  1  0  0  0  0
 27 28  1  0  0  0  0
 30 31  1  0  0  0  0
 30 32  1  0  0  0  0
 31 33  1  0  0  0  0
 31 38  1  6  0  0  0
 32 34  1  0  0  0  0
 33 35  1  0  0  0  0
 34 35  1  0  0  0  0
 34 36  1  1  0  0  0
 36 37  1  0  0  0  0
 39 40  2  0  0  0  0
 39 41  2  0  0  0  0
 39 42  1  0  0  0  0
 39 43  1  0  0  0  0
M  END
> <ID>
11892

> <Formula>
C22H46N6O14S

> <FW>
650.6974 (552.6190+98.0785)

> <DSSTox_CID>
26694

> <DSSTox_RID>
81828

> <DSSTox_GSID>
46694

> <DSSTox_FileID_Sort>
6509

> <TS_ChemName>
Arbekacin sulfate

> <TS_ChemName_Synonyms>


> <TS_CASRN>
104931-87-5

> <CASRN_ChemName_Relationship>
primary

> <TS_Description>
single chemical compound

> <ChemNote>
stereochem; parent [51025-85-5]

> <STRUCTURE_Shown>
tested chemical

> <STRUCTURE_Formula>
C22H46N6O14S

> <STRUCTURE_MW>
650.6974

> <STRUCTURE_ChemType>
defined organic

> <STRUCTURE_DefinedOrganicForm>
complex

> <STRUCTURE_IUPAC>
(2S)-4-amino-N-{(1R,2S,3S,4R,5S)-5-amino-2-[(3-amino-3-deoxy-alpha-D-glucopyranosyl)oxy]-4-[(2,6-diamino-2,3,4,6-tetradeoxy-alpha-D-erythro-hexopyranosyl)oxy]-3-hydroxycyclohexyl}-2-hydroxybutanamide sulfate (1:1)

> <STRUCTURE_SMILES>
O=S(=O)(O)O.NCC[C@H](O)C(=O)N[C@@H]3C[C@H](N)[C@@H](O[C@H]1O[C@H](CN)CC[C@H]1N)[C@H](O)[C@H]3O[C@H]2O[C@H](CO)[C@@H](O)[C@H](N)[C@H]2O

> <STRUCTURE_SMILES_Desalt>
NCC[C@H](O)C(=O)N[C@@H]3C[C@H](N)[C@@H](O[C@H]1O[C@H](CN)CC[C@H]1N)[C@H](O)[C@H]3O[C@H]2O[C@H](CO)[C@@H](O)[C@H](N)[C@H]2O

> <Substance_modify_yyyymmdd>
20110805

$$$$
