105-76-0
ChemmineR-0915142007XD

 16 15  0  0  0  0  0  0  0  0  1 V2000
    7.9790   -2.3139    0.0000 C   0  0  0  0  0  0  0  0  0  0  0  0
    5.3193   -2.3139    0.0000 C   0  0  0  0  0  0  0  0  0  0  0  0
    5.9710   -1.1570    0.0000 C   0  0  0  0  0  0  0  0  0  0  0  0
    7.3008   -1.1570    0.0000 C   0  0  0  0  0  0  0  0  0  0  0  0
    7.3008   -3.4576    0.0000 O   0  0  0  0  0  0  0  0  0  0  0  0
    5.9710   -3.4576    0.0000 O   0  0  0  0  0  0  0  0  0  0  0  0
    9.3089   -2.3139    0.0000 O   0  0  0  0  0  0  0  0  0  0  0  0
    3.9895   -2.3139    0.0000 O   0  0  0  0  0  0  0  0  0  0  0  0
    9.9605   -1.1570    0.0000 C   0  0  0  0  0  0  0  0  0  0  0  0
   11.2903   -1.1570    0.0000 C   0  0  0  0  0  0  0  0  0  0  0  0
   11.9685    0.0000    0.0000 C   0  0  0  0  0  0  0  0  0  0  0  0
   13.2984    0.0000    0.0000 C   0  0  0  0  0  0  0  0  0  0  0  0
    3.3379   -3.4576    0.0000 C   0  0  0  0  0  0  0  0  0  0  0  0
    2.0081   -3.4576    0.0000 C   0  0  0  0  0  0  0  0  0  0  0  0
    1.3298   -4.6145    0.0000 C   0  0  0  0  0  0  0  0  0  0  0  0
    0.0000   -4.6145    0.0000 C   0  0  0  0  0  0  0  0  0  0  0  0
  1  4  1  0  0  0  0
  1  5  2  0  0  0  0
  1  7  1  0  0  0  0
  2  3  1  0  0  0  0
  2  6  2  0  0  0  0
  2  8  1  0  0  0  0
  3  4  2  0  0  0  0
  7  9  1  0  0  0  0
  8 13  1  0  0  0  0
  9 10  1  0  0  0  0
 10 11  1  0  0  0  0
 11 12  1  0  0  0  0
 13 14  1  0  0  0  0
 14 15  1  0  0  0  0
 15 16  1  0  0  0  0
M  END
> <ID>
4782

> <Formula>
C12H20O4

> <FW>
228.2848

> <DSSTox_CID>
6724

> <DSSTox_RID>
78199

> <DSSTox_GSID>
26724

> <DSSTox_FileID_Sort>
2882

> <TS_ChemName>
Dibutyl maleate

> <TS_ChemName_Synonyms>
Dibutyl (2Z)-but-2-enedioate

> <TS_CASRN>
105-76-0

> <CASRN_ChemName_Relationship>
primary

> <TS_Description>
single chemical compound

> <ChemNote>
stereochem

> <STRUCTURE_Shown>
tested chemical

> <STRUCTURE_Formula>
C12H20O4

> <STRUCTURE_MW>
228.2848

> <STRUCTURE_ChemType>
defined organic

> <STRUCTURE_DefinedOrganicForm>
parent

> <STRUCTURE_IUPAC>
dibutyl (2Z)-but-2-enedioate

> <STRUCTURE_SMILES>
O=C(\C=C/C(=O)OCCCC)OCCCC

> <STRUCTURE_SMILES_Desalt>
O=C(\C=C/C(=O)OCCCC)OCCCC

> <Substance_modify_yyyymmdd>
20080429

$$$$
