105-21-5
ChemmineR-0915142007XD

  9  9  0  0  0  0  0  0  0  0  1 V2000
    2.3549    0.0000    0.0000 O   0  0  0  0  0  0  0  0  0  0  0  0
    3.4316   -0.7711    0.0000 C   0  0  0  0  0  0  0  0  0  0  0  0
    1.2643   -0.7850    0.0000 C   0  0  0  0  0  0  0  0  0  0  0  0
    3.0148   -2.0353    0.0000 C   0  0  0  0  0  0  0  0  0  0  0  0
    1.6811   -2.0353    0.0000 C   0  0  0  0  0  0  0  0  0  0  0  0
    0.0000   -0.3682    0.0000 O   0  0  0  0  0  0  0  0  0  0  0  0
    4.6819   -0.3682    0.0000 C   0  0  0  0  0  0  0  0  0  0  0  0
    5.6822   -1.2643    0.0000 C   0  0  0  0  0  0  0  0  0  0  0  0
    6.9465   -0.8475    0.0000 C   0  0  0  0  0  0  0  0  0  0  0  0
  1  2  1  0  0  0  0
  1  3  1  0  0  0  0
  2  4  1  0  0  0  0
  2  7  1  0  0  0  0
  3  5  1  0  0  0  0
  3  6  2  0  0  0  0
  4  5  1  0  0  0  0
  7  8  1  0  0  0  0
  8  9  1  0  0  0  0
M  END
> <ID>
12733

> <Formula>
C7H12O2

> <FW>
128.169

> <DSSTox_CID>
27611

> <DSSTox_RID>
82453

> <DSSTox_GSID>
47611

> <DSSTox_FileID_Sort>
7134

> <TS_ChemName>
1,4-Heptanolide

> <TS_ChemName_Synonyms>
1,4-Heptanolide ((+/-)-4-Heptanolide)

> <TS_CASRN>
105-21-5

> <CASRN_ChemName_Relationship>
primary

> <TS_Description>
single chemical compound

> <ChemNote>


> <STRUCTURE_Shown>
tested chemical

> <STRUCTURE_Formula>
C7H12O2

> <STRUCTURE_MW>
128.169

> <STRUCTURE_ChemType>
defined organic

> <STRUCTURE_DefinedOrganicForm>
parent

> <STRUCTURE_IUPAC>
5-propyldihydrofuran-2(3H)-one

> <STRUCTURE_SMILES>
O=C1CCC(CCC)O1

> <STRUCTURE_SMILES_Desalt>
O=C1CCC(CCC)O1

> <Substance_modify_yyyymmdd>
20101021

$$$$
