105-54-4
ChemmineR-0915142007XD

  8  7  0  0  0  0  0  0  0  0  1 V2000
    3.4558   -1.3339    0.0000 C   0  0  0  0  0  0  0  0  0  0  0  0
    3.4558    0.0000    0.0000 O   0  0  0  0  0  0  0  0  0  0  0  0
    4.6100   -1.9974    0.0000 O   0  0  0  0  0  0  0  0  0  0  0  0
    2.3015   -1.9974    0.0000 C   0  0  0  0  0  0  0  0  0  0  0  0
    1.1542   -1.3339    0.0000 C   0  0  0  0  0  0  0  0  0  0  0  0
    0.0000   -1.9974    0.0000 C   0  0  0  0  0  0  0  0  0  0  0  0
    5.7573   -1.3339    0.0000 C   0  0  0  0  0  0  0  0  0  0  0  0
    6.9115   -1.9974    0.0000 C   0  0  0  0  0  0  0  0  0  0  0  0
  1  2  2  0  0  0  0
  1  3  1  0  0  0  0
  1  4  1  0  0  0  0
  3  7  1  0  0  0  0
  4  5  1  0  0  0  0
  5  6  1  0  0  0  0
  7  8  1  0  0  0  0
M  END
> <ID>
7571

> <Formula>
C6H12O2

> <FW>
116.1583

> <DSSTox_CID>
20111

> <DSSTox_RID>
79440

> <DSSTox_GSID>
40111

> <DSSTox_FileID_Sort>
4122

> <TS_ChemName>
Ethyl butyrate

> <TS_ChemName_Synonyms>


> <TS_CASRN>
105-54-4

> <CASRN_ChemName_Relationship>
primary

> <TS_Description>
single chemical compound

> <ChemNote>


> <STRUCTURE_Shown>
tested chemical

> <STRUCTURE_Formula>
C6H12O2

> <STRUCTURE_MW>
116.1583

> <STRUCTURE_ChemType>
defined organic

> <STRUCTURE_DefinedOrganicForm>
parent

> <STRUCTURE_IUPAC>
ethyl butanoate

> <STRUCTURE_SMILES>
CCCC(=O)OCC

> <STRUCTURE_SMILES_Desalt>
CCCC(=O)OCC

> <Substance_modify_yyyymmdd>
20080429

$$$$
