105-56-6
ChemmineR-0915142007XD

  8  7  0  0  0  0  0  0  0  0  1 V2000
    2.3109   -2.6509    0.0000 C   0  0  0  0  0  0  0  0  0  0  0  0
    2.3109   -3.9821    0.0000 O   0  0  0  0  0  0  0  0  0  0  0  0
    3.4519   -1.9939    0.0000 O   0  0  0  0  0  0  0  0  0  0  0  0
    1.1583   -1.9939    0.0000 C   0  0  0  0  0  0  0  0  0  0  0  0
    1.1583   -0.6570    0.0000 C   0  0  0  0  0  0  0  0  0  0  0  0
    0.0000    0.0000    0.0000 N   0  0  0  0  0  0  0  0  0  0  0  0
    4.6045   -2.6509    0.0000 C   0  0  0  0  0  0  0  0  0  0  0  0
    5.7628   -1.9766    0.0000 C   0  0  0  0  0  0  0  0  0  0  0  0
  1  2  2  0  0  0  0
  1  3  1  0  0  0  0
  1  4  1  0  0  0  0
  3  7  1  0  0  0  0
  4  5  1  0  0  0  0
  5  6  3  0  0  0  0
  7  8  1  0  0  0  0
M  END
> <ID>
4779

> <Formula>
C5H7NO2

> <FW>
113.1146

> <DSSTox_CID>
6718

> <DSSTox_RID>
78198

> <DSSTox_GSID>
26718

> <DSSTox_FileID_Sort>
2881

> <TS_ChemName>
Ethyl cyanoacetate

> <TS_ChemName_Synonyms>
Ethyl cyanoacetate (Acetic acid, cyano-, ethyl ester)

> <TS_CASRN>
105-56-6

> <CASRN_ChemName_Relationship>
primary

> <TS_Description>
single chemical compound

> <ChemNote>


> <STRUCTURE_Shown>
tested chemical

> <STRUCTURE_Formula>
C5H7NO2

> <STRUCTURE_MW>
113.1146

> <STRUCTURE_ChemType>
defined organic

> <STRUCTURE_DefinedOrganicForm>
parent

> <STRUCTURE_IUPAC>
ethyl cyanoacetate

> <STRUCTURE_SMILES>
N#CCC(=O)OCC

> <STRUCTURE_SMILES_Desalt>
N#CCC(=O)OCC

> <Substance_modify_yyyymmdd>
20080429

$$$$
