105-37-3
ChemmineR-0915142007XD

  7  6  0  0  0  0  0  0  0  0  1 V2000
    2.3087   -1.3242    0.0000 C   0  0  0  0  0  0  0  0  0  0  0  0
    2.3087    0.0000    0.0000 O   0  0  0  0  0  0  0  0  0  0  0  0
    3.4487   -1.9921    0.0000 O   0  0  0  0  0  0  0  0  0  0  0  0
    1.1572   -1.9921    0.0000 C   0  0  0  0  0  0  0  0  0  0  0  0
    0.0000   -1.3242    0.0000 C   0  0  0  0  0  0  0  0  0  0  0  0
    4.6002   -1.3242    0.0000 C   0  0  0  0  0  0  0  0  0  0  0  0
    5.7574   -1.9921    0.0000 C   0  0  0  0  0  0  0  0  0  0  0  0
  1  2  2  0  0  0  0
  1  3  1  0  0  0  0
  1  4  1  0  0  0  0
  3  6  1  0  0  0  0
  4  5  1  0  0  0  0
  6  7  1  0  0  0  0
M  END
> <ID>
7570

> <Formula>
C5H10O2

> <FW>
102.1317

> <DSSTox_CID>
20110

> <DSSTox_RID>
79439

> <DSSTox_GSID>
40110

> <DSSTox_FileID_Sort>
4121

> <TS_ChemName>
Ethyl propionate

> <TS_ChemName_Synonyms>
Ethyl propionate (Propanoic acid, Ethyl ester)

> <TS_CASRN>
105-37-3

> <CASRN_ChemName_Relationship>
primary

> <TS_Description>
single chemical compound

> <ChemNote>


> <STRUCTURE_Shown>
tested chemical

> <STRUCTURE_Formula>
C5H10O2

> <STRUCTURE_MW>
102.1317

> <STRUCTURE_ChemType>
defined organic

> <STRUCTURE_DefinedOrganicForm>
parent

> <STRUCTURE_IUPAC>
ethyl propanoate

> <STRUCTURE_SMILES>
CCC(=O)OCC

> <STRUCTURE_SMILES_Desalt>
CCC(=O)OCC

> <Substance_modify_yyyymmdd>
20080429

$$$$
