105-86-2
ChemmineR-0915142007XD

 13 12  0  0  0  0  0  0  0  0  1 V2000
   10.3631   -0.6794    0.0000 C   0  0  0  0  0  0  0  0  0  0  0  0
   11.5145   -0.0230    0.0000 O   0  0  0  0  0  0  0  0  0  0  0  0
    9.2116   -0.0230    0.0000 O   0  0  0  0  0  0  0  0  0  0  0  0
    8.0602   -0.6794    0.0000 C   0  0  0  0  0  0  0  0  0  0  0  0
    6.8972   -0.0230    0.0000 C   0  0  0  0  0  0  0  0  0  0  0  0
    5.7458   -0.6794    0.0000 C   0  0  0  0  0  0  0  0  0  0  0  0
    4.6173    0.0000    0.0000 C   0  0  0  0  0  0  0  0  0  0  0  0
    3.4544   -0.6794    0.0000 C   0  0  0  0  0  0  0  0  0  0  0  0
    2.3029    0.0000    0.0000 C   0  0  0  0  0  0  0  0  0  0  0  0
    1.1515   -0.6794    0.0000 C   0  0  0  0  0  0  0  0  0  0  0  0
    0.0000    0.0000    0.0000 C   0  0  0  0  0  0  0  0  0  0  0  0
    5.7458   -2.0035    0.0000 C   0  0  0  0  0  0  0  0  0  0  0  0
    1.1515   -2.0035    0.0000 C   0  0  0  0  0  0  0  0  0  0  0  0
  1  2  2  0  0  0  0
  1  3  1  0  0  0  0
  3  4  1  0  0  0  0
  4  5  1  0  0  0  0
  5  6  2  0  0  0  0
  6  7  1  0  0  0  0
  6 12  1  0  0  0  0
  7  8  1  0  0  0  0
  8  9  1  0  0  0  0
  9 10  2  0  0  0  0
 10 11  1  0  0  0  0
 10 13  1  0  0  0  0
M  END
> <ID>
12736

> <Formula>
C11H18O2

> <FW>
182.2594

> <DSSTox_CID>
27614

> <DSSTox_RID>
82454

> <DSSTox_GSID>
47614

> <DSSTox_FileID_Sort>
7135

> <TS_ChemName>
(2E)-3,7-Dimethylocta-2,6-dien-1-yl formate

> <TS_ChemName_Synonyms>
Geranyl formate

> <TS_CASRN>
105-86-2

> <CASRN_ChemName_Relationship>
primary

> <TS_Description>
single chemical compound

> <ChemNote>
stereochem

> <STRUCTURE_Shown>
tested chemical

> <STRUCTURE_Formula>
C11H18O2

> <STRUCTURE_MW>
182.2594

> <STRUCTURE_ChemType>
defined organic

> <STRUCTURE_DefinedOrganicForm>
parent

> <STRUCTURE_IUPAC>
(2E)-3,7-dimethylocta-2,6-dien-1-yl formate

> <STRUCTURE_SMILES>
C\C(C)=C\CCC(\C)=C\COC=O

> <STRUCTURE_SMILES_Desalt>
C\C(C)=C\CCC(\C)=C\COC=O

> <Substance_modify_yyyymmdd>
20101021

$$$$
