105-16-8
ChemmineR-0915142007XD

 13 12  0  0  0  0  0  0  0  0  1 V2000
    5.7556   -1.9992    0.0000 C   0  0  0  0  0  0  0  0  0  0  0  0
    6.9084   -2.6682    0.0000 C   0  0  0  0  0  0  0  0  0  0  0  0
    8.0611   -1.9992    0.0000 C   0  0  0  0  0  0  0  0  0  0  0  0
    5.7556   -0.6691    0.0000 O   0  0  0  0  0  0  0  0  0  0  0  0
    4.6029   -2.6521    0.0000 O   0  0  0  0  0  0  0  0  0  0  0  0
    6.9084   -3.9983    0.0000 C   0  0  0  0  0  0  0  0  0  0  0  0
    3.4582   -1.9992    0.0000 C   0  0  0  0  0  0  0  0  0  0  0  0
    2.3055   -2.6682    0.0000 C   0  0  0  0  0  0  0  0  0  0  0  0
    1.1527   -1.9992    0.0000 N   0  0  0  0  0  0  0  0  0  0  0  0
    1.1527   -0.6691    0.0000 C   0  0  0  0  0  0  0  0  0  0  0  0
    0.0000    0.0000    0.0000 C   0  0  0  0  0  0  0  0  0  0  0  0
    0.0000   -2.6682    0.0000 C   0  0  0  0  0  0  0  0  0  0  0  0
    0.0000   -3.9983    0.0000 C   0  0  0  0  0  0  0  0  0  0  0  0
  1  2  1  0  0  0  0
  1  5  1  0  0  0  0
  1  4  2  0  0  0  0
  2  3  2  0  0  0  0
  2  6  1  0  0  0  0
  5  7  1  0  0  0  0
  7  8  1  0  0  0  0
  8  9  1  0  0  0  0
  9 10  1  0  0  0  0
  9 12  1  0  0  0  0
 10 11  1  0  0  0  0
 12 13  1  0  0  0  0
M  END
> <ID>
4774

> <Formula>
C10H19NO2

> <FW>
185.2634

> <DSSTox_CID>
6713

> <DSSTox_RID>
78194

> <DSSTox_GSID>
26713

> <DSSTox_FileID_Sort>
2877

> <TS_ChemName>
2-(Diethylamino)ethyl methacrylate

> <TS_ChemName_Synonyms>
2-(Diethylamino)ethyl methacrylate (2-Propenoic acid, 2-methyl-, 2-(diethylamino)ethyl ester)

> <TS_CASRN>
105-16-8

> <CASRN_ChemName_Relationship>
primary

> <TS_Description>
single chemical compound

> <ChemNote>


> <STRUCTURE_Shown>
tested chemical

> <STRUCTURE_Formula>
C10H19NO2

> <STRUCTURE_MW>
185.2634

> <STRUCTURE_ChemType>
defined organic

> <STRUCTURE_DefinedOrganicForm>
parent

> <STRUCTURE_IUPAC>
2-(diethylamino)ethyl 2-methylprop-2-enoate

> <STRUCTURE_SMILES>
O=C(OCCN(CC)CC)C(=C)C

> <STRUCTURE_SMILES_Desalt>
O=C(OCCN(CC)CC)C(=C)C

> <Substance_modify_yyyymmdd>
20080429

$$$$
