105-59-9
ChemmineR-0915142007XD

  8  7  0  0  0  0  0  0  0  0  1 V2000
    3.4577   -1.3312    0.0000 N   0  0  0  0  0  0  0  0  0  0  0  0
    3.4577    0.0000    0.0000 C   0  0  0  0  0  0  0  0  0  0  0  0
    4.6103   -1.9939    0.0000 C   0  0  0  0  0  0  0  0  0  0  0  0
    5.7628   -1.3312    0.0000 C   0  0  0  0  0  0  0  0  0  0  0  0
    5.7628    0.0000    0.0000 O   0  0  0  0  0  0  0  0  0  0  0  0
    2.3051   -1.9939    0.0000 C   0  0  0  0  0  0  0  0  0  0  0  0
    1.1526   -1.3312    0.0000 C   0  0  0  0  0  0  0  0  0  0  0  0
    0.0000   -1.9939    0.0000 O   0  0  0  0  0  0  0  0  0  0  0  0
  1  2  1  0  0  0  0
  1  3  1  0  0  0  0
  1  6  1  0  0  0  0
  3  4  1  0  0  0  0
  4  5  1  0  0  0  0
  6  7  1  0  0  0  0
  7  8  1  0  0  0  0
M  END
> <ID>
4287

> <Formula>
C5H13NO2

> <FW>
119.1622

> <DSSTox_CID>
5591

> <DSSTox_RID>
77844

> <DSSTox_GSID>
25591

> <DSSTox_FileID_Sort>
2527

> <TS_ChemName>
N-Methyldiethanolamine

> <TS_ChemName_Synonyms>
N-Methyldiethanolamine (Ethanol, 2,2'-(methylimino)bis-)

> <TS_CASRN>
105-59-9

> <CASRN_ChemName_Relationship>
primary

> <TS_Description>
single chemical compound

> <ChemNote>


> <STRUCTURE_Shown>
tested chemical

> <STRUCTURE_Formula>
C5H13NO2

> <STRUCTURE_MW>
119.1622

> <STRUCTURE_ChemType>
defined organic

> <STRUCTURE_DefinedOrganicForm>
parent

> <STRUCTURE_IUPAC>
2,2'-(methylimino)diethanol

> <STRUCTURE_SMILES>
OCCN(C)CCO

> <STRUCTURE_SMILES_Desalt>
OCCN(C)CCO

> <Substance_modify_yyyymmdd>
20080429

$$$$
