105-39-5
ChemmineR-0915142007XD

  7  6  0  0  0  0  0  0  0  0  1 V2000
    1.1524   -2.0018    0.0000 C    0  0  0  0  0  0  0  0  0  0  0  0
    1.1524   -3.3287    0.0000 O    0  0  0  0  0  0  0  0  0  0  0  0
    2.3048   -1.3269    0.0000 O    0  0  0  0  0  0  0  0  0  0  0  0
    0.0000   -1.3269    0.0000 C    0  0  0  0  0  0  0  0  0  0  0  0
    0.0000    0.0000    0.0000 Cl   0  0  0  0  0  0  0  0  0  0  0  0
    3.4389   -2.0018    0.0000 C    0  0  0  0  0  0  0  0  0  0  0  0
    4.5913   -1.3269    0.0000 C    0  0  0  0  0  0  0  0  0  0  0  0
  1  2  2  0  0  0  0
  1  3  1  0  0  0  0
  1  4  1  0  0  0  0
  3  6  1  0  0  0  0
  4  5  1  0  0  0  0
  6  7  1  0  0  0  0
M  END
> <ID>
4776

> <Formula>
C4H7ClO2

> <FW>
122.5502

> <DSSTox_CID>
6715

> <DSSTox_RID>
78196

> <DSSTox_GSID>
26715

> <DSSTox_FileID_Sort>
2879

> <TS_ChemName>
Ethyl chloroacetate

> <TS_ChemName_Synonyms>


> <TS_CASRN>
105-39-5

> <CASRN_ChemName_Relationship>
primary

> <TS_Description>
single chemical compound

> <ChemNote>


> <STRUCTURE_Shown>
tested chemical

> <STRUCTURE_Formula>
C4H7ClO2

> <STRUCTURE_MW>
122.5502

> <STRUCTURE_ChemType>
defined organic

> <STRUCTURE_DefinedOrganicForm>
parent

> <STRUCTURE_IUPAC>
ethyl chloroacetate

> <STRUCTURE_SMILES>
ClCC(=O)OCC

> <STRUCTURE_SMILES_Desalt>
ClCC(=O)OCC

> <Substance_modify_yyyymmdd>
20080429

$$$$
