105-06-6
ChemmineR-0915142007XD

 10 10  0  0  0  0  0  0  0  0  1 V2000
    4.6448   -1.1562    0.0000 C   0  0  0  0  0  0  0  0  0  0  0  0
    3.9869   -2.3058    0.0000 C   0  0  0  0  0  0  0  0  0  0  0  0
    2.6579   -2.3058    0.0000 C   0  0  0  0  0  0  0  0  0  0  0  0
    1.9868   -1.1562    0.0000 C   0  0  0  0  0  0  0  0  0  0  0  0
    2.6579    0.0000    0.0000 C   0  0  0  0  0  0  0  0  0  0  0  0
    3.9869    0.0000    0.0000 C   0  0  0  0  0  0  0  0  0  0  0  0
    5.9737   -1.1562    0.0000 C   0  0  0  0  0  0  0  0  0  0  0  0
    6.6449    0.0000    0.0000 C   0  0  0  0  0  0  0  0  0  0  0  0
    0.6578   -1.1562    0.0000 C   0  0  0  0  0  0  0  0  0  0  0  0
    0.0000   -2.3058    0.0000 C   0  0  0  0  0  0  0  0  0  0  0  0
  1  2  2  0  0  0  0
  1  6  1  0  0  0  0
  1  7  1  0  0  0  0
  2  3  1  0  0  0  0
  3  4  2  0  0  0  0
  4  5  1  0  0  0  0
  4  9  1  0  0  0  0
  5  6  2  0  0  0  0
  7  8  2  0  0  0  0
  9 10  2  0  0  0  0
M  END
> <ID>
6648

> <Formula>
C10H10

> <FW>
130.1864

> <DSSTox_CID>
13863

> <DSSTox_RID>
79099

> <DSSTox_GSID>
33863

> <DSSTox_FileID_Sort>
3781

> <TS_ChemName>
1,4-Divinylbenzene

> <TS_ChemName_Synonyms>
1,4-Divinylbenzene (p-Divinylbenzene)

> <TS_CASRN>
105-06-6

> <CASRN_ChemName_Relationship>
primary

> <TS_Description>
single chemical compound

> <ChemNote>


> <STRUCTURE_Shown>
tested chemical

> <STRUCTURE_Formula>
C10H10

> <STRUCTURE_MW>
130.1864

> <STRUCTURE_ChemType>
defined organic

> <STRUCTURE_DefinedOrganicForm>
parent

> <STRUCTURE_IUPAC>
1,4-diethenylbenzene

> <STRUCTURE_SMILES>
C=Cc1ccc(C=C)cc1

> <STRUCTURE_SMILES_Desalt>
C=Cc1ccc(C=C)cc1

> <Substance_modify_yyyymmdd>
20080429

$$$$
