105-30-6
ChemmineR-0915142007XD

  7  6  0  0  0  0  0  0  0  0  1 V2000
    1.1569    0.0000    0.0000 C   0  0  0  0  0  0  0  0  0  0  0  0
    2.3138   -0.6536    0.0000 C   0  0  0  0  0  0  0  0  0  0  0  0
    3.4706    0.0000    0.0000 C   0  0  0  0  0  0  0  0  0  0  0  0
    4.6275   -0.6536    0.0000 C   0  0  0  0  0  0  0  0  0  0  0  0
    5.7844    0.0000    0.0000 C   0  0  0  0  0  0  0  0  0  0  0  0
    0.0000   -0.6536    0.0000 O   0  0  0  0  0  0  0  0  0  0  0  0
    2.3138   -1.9898    0.0000 C   0  0  0  0  0  0  0  0  0  0  0  0
  1  2  1  0  0  0  0
  1  6  1  0  0  0  0
  2  3  1  0  0  0  0
  2  7  1  0  0  0  0
  3  4  1  0  0  0  0
  4  5  1  0  0  0  0
M  END
> <ID>
4775

> <Formula>
C6H14O

> <FW>
102.1748

> <DSSTox_CID>
6714

> <DSSTox_RID>
78195

> <DSSTox_GSID>
26714

> <DSSTox_FileID_Sort>
2878

> <TS_ChemName>
2-Methyl-1-pentanol

> <TS_ChemName_Synonyms>


> <TS_CASRN>
105-30-6

> <CASRN_ChemName_Relationship>
primary

> <TS_Description>
single chemical compound

> <ChemNote>


> <STRUCTURE_Shown>
tested chemical

> <STRUCTURE_Formula>
C6H14O

> <STRUCTURE_MW>
102.1748

> <STRUCTURE_ChemType>
defined organic

> <STRUCTURE_DefinedOrganicForm>
parent

> <STRUCTURE_IUPAC>
2-methylpentan-1-ol

> <STRUCTURE_SMILES>
CC(CCC)CO

> <STRUCTURE_SMILES_Desalt>
CC(CCC)CO

> <Substance_modify_yyyymmdd>
20080429

$$$$
