105-85-1
ChemmineR-0915142007XD

 13 12  0  0  0  0  0  0  0  0  1 V2000
    3.4634   -1.3578    0.0000 C   0  0  0  0  0  0  0  0  0  0  0  0
    4.6026   -2.0136    0.0000 C   0  0  0  0  0  0  0  0  0  0  0  0
    5.7532   -1.3578    0.0000 C   0  0  0  0  0  0  0  0  0  0  0  0
    6.9038   -2.0136    0.0000 C   0  0  0  0  0  0  0  0  0  0  0  0
    8.0430   -1.3578    0.0000 C   0  0  0  0  0  0  0  0  0  0  0  0
    9.2166   -2.0136    0.0000 C   0  0  0  0  0  0  0  0  0  0  0  0
   10.3558   -1.3578    0.0000 C   0  0  0  0  0  0  0  0  0  0  0  0
   11.5064   -2.0136    0.0000 C   0  0  0  0  0  0  0  0  0  0  0  0
    2.2898   -2.0136    0.0000 O   0  0  0  0  0  0  0  0  0  0  0  0
    5.7532    0.0000    0.0000 C   0  0  0  0  0  0  0  0  0  0  0  0
   10.3558    0.0000    0.0000 C   0  0  0  0  0  0  0  0  0  0  0  0
    1.1506   -1.3578    0.0000 C   0  0  0  0  0  0  0  0  0  0  0  0
    0.0000   -2.0136    0.0000 O   0  0  0  0  0  0  0  0  0  0  0  0
  1  2  1  0  0  0  0
  1  9  1  0  0  0  0
  2  3  1  0  0  0  0
  3  4  1  0  0  0  0
  3 10  1  0  0  0  0
  4  5  1  0  0  0  0
  5  6  1  0  0  0  0
  6  7  2  0  0  0  0
  7  8  1  0  0  0  0
  7 11  1  0  0  0  0
  9 12  1  0  0  0  0
 12 13  2  0  0  0  0
M  END
> <ID>
10423

> <Formula>
C11H20O2

> <FW>
184.2753

> <DSSTox_CID>
24772

> <DSSTox_RID>
80463

> <DSSTox_GSID>
44772

> <DSSTox_FileID_Sort>
5145

> <TS_ChemName>
3,7-Dimethyloct-6-en-1-yl formate

> <TS_ChemName_Synonyms>
3,7-Dimethyloct-6-en-1-yl formate (6-Octen-1-ol, 3,7-dimethyl-, formate) (Citronellyl formate)

> <TS_CASRN>
105-85-1

> <CASRN_ChemName_Relationship>
primary

> <TS_Description>
single chemical compound

> <ChemNote>


> <STRUCTURE_Shown>
tested chemical

> <STRUCTURE_Formula>
C11H20O2

> <STRUCTURE_MW>
184.2753

> <STRUCTURE_ChemType>
defined organic

> <STRUCTURE_DefinedOrganicForm>
parent

> <STRUCTURE_IUPAC>
3,7-dimethyloct-6-en-1-yl formate

> <STRUCTURE_SMILES>
C\C(C)=C\CCC(C)CCOC=O

> <STRUCTURE_SMILES_Desalt>
C\C(C)=C\CCC(C)CCOC=O

> <Substance_modify_yyyymmdd>
20091116

$$$$
