105-55-5
ChemmineR-0915142007XD

  8  7  0  0  0  0  0  0  0  0  1 V2000
    3.4577    0.0000    0.0000 S   0  0  0  0  0  0  0  0  0  0  0  0
    3.4577   -1.3312    0.0000 C   0  0  0  0  0  0  0  0  0  0  0  0
    4.6103   -1.9939    0.0000 N   0  0  0  0  0  0  0  0  0  0  0  0
    5.7628   -1.3312    0.0000 C   0  0  0  0  0  0  0  0  0  0  0  0
    5.7628    0.0000    0.0000 C   0  0  0  0  0  0  0  0  0  0  0  0
    2.3051   -1.9939    0.0000 N   0  0  0  0  0  0  0  0  0  0  0  0
    1.1526   -1.3312    0.0000 C   0  0  0  0  0  0  0  0  0  0  0  0
    0.0000   -1.9939    0.0000 C   0  0  0  0  0  0  0  0  0  0  0  0
  1  2  2  0  0  0  0
  2  3  1  0  0  0  0
  2  6  1  0  0  0  0
  3  4  1  0  0  0  0
  4  5  1  0  0  0  0
  6  7  1  0  0  0  0
  7  8  1  0  0  0  0
M  END
> <ID>
450

> <Formula>
C5H12N2S

> <FW>
132.2272

> <DSSTox_CID>
466

> <DSSTox_RID>
75609

> <DSSTox_GSID>
20466

> <DSSTox_FileID_Sort>
293

> <TS_ChemName>
N,N'-Diethylthiourea

> <TS_ChemName_Synonyms>


> <TS_CASRN>
105-55-5

> <CASRN_ChemName_Relationship>
primary

> <TS_Description>
single chemical compound

> <ChemNote>


> <STRUCTURE_Shown>
tested chemical

> <STRUCTURE_Formula>
C5H12N2S

> <STRUCTURE_MW>
132.2272

> <STRUCTURE_ChemType>
defined organic

> <STRUCTURE_DefinedOrganicForm>
parent

> <STRUCTURE_IUPAC>
1,3-diethylthiourea

> <STRUCTURE_SMILES>
CCNC(=S)NCC

> <STRUCTURE_SMILES_Desalt>
CCNC(=S)NCC

> <Substance_modify_yyyymmdd>
20080429

$$$$
