105-34-0
ChemmineR-0915142007XD

  7  6  0  0  0  0  0  0  0  0  1 V2000
    3.4607   -1.3266    0.0000 C   0  0  0  0  0  0  0  0  0  0  0  0
    3.4607    0.0000    0.0000 O   0  0  0  0  0  0  0  0  0  0  0  0
    4.6142   -1.9841    0.0000 O   0  0  0  0  0  0  0  0  0  0  0  0
    2.3071   -1.9841    0.0000 C   0  0  0  0  0  0  0  0  0  0  0  0
    1.1536   -1.3093    0.0000 C   0  0  0  0  0  0  0  0  0  0  0  0
    0.0000   -0.6402    0.0000 N   0  0  0  0  0  0  0  0  0  0  0  0
    5.7678   -1.3266    0.0000 C   0  0  0  0  0  0  0  0  0  0  0  0
  1  2  2  0  0  0  0
  1  3  1  0  0  0  0
  1  4  1  0  0  0  0
  3  7  1  0  0  0  0
  4  5  1  0  0  0  0
  5  6  3  0  0  0  0
M  END
> <ID>
6639

> <Formula>
C4H5NO2

> <FW>
99.088

> <DSSTox_CID>
13649

> <DSSTox_RID>
79088

> <DSSTox_GSID>
33649

> <DSSTox_FileID_Sort>
3770

> <TS_ChemName>
Methyl cyanoacetate

> <TS_ChemName_Synonyms>


> <TS_CASRN>
105-34-0

> <CASRN_ChemName_Relationship>
primary

> <TS_Description>
single chemical compound

> <ChemNote>


> <STRUCTURE_Shown>
tested chemical

> <STRUCTURE_Formula>
C4H5NO2

> <STRUCTURE_MW>
99.088

> <STRUCTURE_ChemType>
defined organic

> <STRUCTURE_DefinedOrganicForm>
parent

> <STRUCTURE_IUPAC>
methyl cyanoacetate

> <STRUCTURE_SMILES>
N#CCC(=O)OC

> <STRUCTURE_SMILES_Desalt>
N#CCC(=O)OC

> <Substance_modify_yyyymmdd>
20080429

$$$$
