105-45-3
ChemmineR-0915142007XD

  8  7  0  0  0  0  0  0  0  0  1 V2000
    2.2736   -1.3229    0.0000 C   0  0  0  0  0  0  0  0  0  0  0  0
    3.4362   -2.0044    0.0000 C   0  0  0  0  0  0  0  0  0  0  0  0
    4.5644   -1.3229    0.0000 C   0  0  0  0  0  0  0  0  0  0  0  0
    5.7270   -2.0044    0.0000 C   0  0  0  0  0  0  0  0  0  0  0  0
    2.2736    0.0000    0.0000 O   0  0  0  0  0  0  0  0  0  0  0  0
    1.1454   -2.0044    0.0000 O   0  0  0  0  0  0  0  0  0  0  0  0
    4.5644    0.0000    0.0000 O   0  0  0  0  0  0  0  0  0  0  0  0
    0.0000   -1.3229    0.0000 C   0  0  0  0  0  0  0  0  0  0  0  0
  1  2  1  0  0  0  0
  1  6  1  0  0  0  0
  1  5  2  0  0  0  0
  2  3  1  0  0  0  0
  3  4  1  0  0  0  0
  3  7  2  0  0  0  0
  6  8  1  0  0  0  0
M  END
> <ID>
4777

> <Formula>
C5H8O3

> <FW>
116.1152

> <DSSTox_CID>
6716

> <DSSTox_RID>
78197

> <DSSTox_GSID>
26716

> <DSSTox_FileID_Sort>
2880

> <TS_ChemName>
Methyl acetoacetate

> <TS_ChemName_Synonyms>
Methyl acetoacetate (Butanoic acid, 3-oxo-, methyl ester)

> <TS_CASRN>
105-45-3

> <CASRN_ChemName_Relationship>
primary

> <TS_Description>
single chemical compound

> <ChemNote>
tautomers

> <STRUCTURE_Shown>
tested chemical

> <STRUCTURE_Formula>
C5H8O3

> <STRUCTURE_MW>
116.1152

> <STRUCTURE_ChemType>
defined organic

> <STRUCTURE_DefinedOrganicForm>
parent

> <STRUCTURE_IUPAC>
methyl 3-oxobutanoate

> <STRUCTURE_SMILES>
CC(=O)CC(=O)OC

> <STRUCTURE_SMILES_Desalt>
CC(=O)CC(=O)OC

> <Substance_modify_yyyymmdd>
20080429

$$$$
