105-36-2
ChemmineR-0915142007XD

  7  6  0  0  0  0  0  0  0  0  1 V2000
    2.6592    0.0000    0.0000 O    0  0  0  0  0  0  0  0  0  0  0  0
    1.9979   -1.1550    0.0000 C    0  0  0  0  0  0  0  0  0  0  0  0
    2.6592   -2.3053    0.0000 O    0  0  0  0  0  0  0  0  0  0  0  0
    3.9912   -2.3053    0.0000 C    0  0  0  0  0  0  0  0  0  0  0  0
    4.6571   -1.1550    0.0000 C    0  0  0  0  0  0  0  0  0  0  0  0
    0.6660   -1.1550    0.0000 C    0  0  0  0  0  0  0  0  0  0  0  0
    0.0000   -2.3053    0.0000 Br   0  0  0  0  0  0  0  0  0  0  0  0
  1  2  2  0  0  0  0
  2  3  1  0  0  0  0
  2  6  1  0  0  0  0
  3  4  1  0  0  0  0
  4  5  1  0  0  0  0
  6  7  1  0  0  0  0
M  END
> <ID>
562

> <Formula>
C4H7BrO2

> <FW>
167.0012

> <DSSTox_CID>
587

> <DSSTox_RID>
75675

> <DSSTox_GSID>
20587

> <DSSTox_FileID_Sort>
359

> <TS_ChemName>
Ethyl bromoacetate

> <TS_ChemName_Synonyms>


> <TS_CASRN>
105-36-2

> <CASRN_ChemName_Relationship>
primary

> <TS_Description>
single chemical compound

> <ChemNote>


> <STRUCTURE_Shown>
tested chemical

> <STRUCTURE_Formula>
C4H7BrO2

> <STRUCTURE_MW>
167.0012

> <STRUCTURE_ChemType>
defined organic

> <STRUCTURE_DefinedOrganicForm>
parent

> <STRUCTURE_IUPAC>
ethyl bromoacetate

> <STRUCTURE_SMILES>
BrCC(=O)OCC

> <STRUCTURE_SMILES_Desalt>
BrCC(=O)OCC

> <Substance_modify_yyyymmdd>
20080429

$$$$
