105-13-5
ChemmineR-0915142007XD

 10 10  0  0  0  0  0  0  0  0  1 V2000
    4.6428   -1.1557    0.0000 C   0  0  0  0  0  0  0  0  0  0  0  0
    1.9860   -1.1557    0.0000 C   0  0  0  0  0  0  0  0  0  0  0  0
    3.9852   -2.3048    0.0000 C   0  0  0  0  0  0  0  0  0  0  0  0
    3.9852    0.0000    0.0000 C   0  0  0  0  0  0  0  0  0  0  0  0
    2.6568   -2.3048    0.0000 C   0  0  0  0  0  0  0  0  0  0  0  0
    2.6568    0.0000    0.0000 C   0  0  0  0  0  0  0  0  0  0  0  0
    5.9712   -1.1557    0.0000 O   0  0  0  0  0  0  0  0  0  0  0  0
    0.0000    0.0000    0.0000 O   0  0  0  0  0  0  0  0  0  0  0  0
    0.6576   -1.1557    0.0000 C   0  0  0  0  0  0  0  0  0  0  0  0
    6.6420    0.0000    0.0000 C   0  0  0  0  0  0  0  0  0  0  0  0
  1  3  2  0  0  0  0
  1  4  1  0  0  0  0
  1  7  1  0  0  0  0
  2  6  1  0  0  0  0
  2  9  1  0  0  0  0
  2  5  2  0  0  0  0
  3  5  1  0  0  0  0
  4  6  2  0  0  0  0
  7 10  1  0  0  0  0
  8  9  1  0  0  0  0
M  END
> <ID>
10015

> <Formula>
C8H10O2

> <FW>
138.1638

> <DSSTox_CID>
24357

> <DSSTox_RID>
80166

> <DSSTox_GSID>
44357

> <DSSTox_FileID_Sort>
4848

> <TS_ChemName>
(4-Methoxyphenyl)methanol

> <TS_ChemName_Synonyms>
(4-Methoxyphenyl)methanol (Benzenemethanol, 4-methoxy-)

> <TS_CASRN>
105-13-5

> <CASRN_ChemName_Relationship>
primary

> <TS_Description>
single chemical compound

> <ChemNote>


> <STRUCTURE_Shown>
tested chemical

> <STRUCTURE_Formula>
C8H10O2

> <STRUCTURE_MW>
138.1638

> <STRUCTURE_ChemType>
defined organic

> <STRUCTURE_DefinedOrganicForm>
parent

> <STRUCTURE_IUPAC>
(4-methoxyphenyl)methanol

> <STRUCTURE_SMILES>
COc1ccc(CO)cc1

> <STRUCTURE_SMILES_Desalt>
COc1ccc(CO)cc1

> <Substance_modify_yyyymmdd>
20091116

$$$$
