105-87-3
ChemmineR-0915142007XD

 14 13  0  0  0  0  0  0  0  0  1 V2000
   10.3669    0.0000    0.0000 O   0  0  0  0  0  0  0  0  0  0  0  0
   10.3669   -1.3247    0.0000 C   0  0  0  0  0  0  0  0  0  0  0  0
    9.2150   -1.9927    0.0000 O   0  0  0  0  0  0  0  0  0  0  0  0
    8.0631   -1.3247    0.0000 C   0  0  0  0  0  0  0  0  0  0  0  0
    6.9113   -1.9927    0.0000 C   0  0  0  0  0  0  0  0  0  0  0  0
    5.7594   -1.3247    0.0000 C   0  0  0  0  0  0  0  0  0  0  0  0
    4.6075   -1.9927    0.0000 C   0  0  0  0  0  0  0  0  0  0  0  0
    3.4556   -1.3247    0.0000 C   0  0  0  0  0  0  0  0  0  0  0  0
    2.3038   -1.9927    0.0000 C   0  0  0  0  0  0  0  0  0  0  0  0
    1.1519   -1.3247    0.0000 C   0  0  0  0  0  0  0  0  0  0  0  0
    0.0000   -1.9927    0.0000 C   0  0  0  0  0  0  0  0  0  0  0  0
    1.1519    0.0000    0.0000 C   0  0  0  0  0  0  0  0  0  0  0  0
    5.7594    0.0000    0.0000 C   0  0  0  0  0  0  0  0  0  0  0  0
   11.5188   -1.9927    0.0000 C   0  0  0  0  0  0  0  0  0  0  0  0
  1  2  2  0  0  0  0
  2  3  1  0  0  0  0
  2 14  1  0  0  0  0
  3  4  1  0  0  0  0
  4  5  1  0  0  0  0
  5  6  2  0  0  0  0
  6  7  1  0  0  0  0
  6 13  1  0  0  0  0
  7  8  1  0  0  0  0
  8  9  1  0  0  0  0
  9 10  2  0  0  0  0
 10 11  1  0  0  0  0
 10 12  1  0  0  0  0
M  END
> <ID>
629

> <Formula>
C12H20O2

> <FW>
196.286

> <DSSTox_CID>
654

> <DSSTox_RID>
75714

> <DSSTox_GSID>
20654

> <DSSTox_FileID_Sort>
398

> <TS_ChemName>
Geranyl acetate

> <TS_ChemName_Synonyms>
Geranyl acetate (trans-Geraniol acetate)

> <TS_CASRN>
105-87-3

> <CASRN_ChemName_Relationship>
primary

> <TS_Description>
single chemical compound

> <ChemNote>
stereochem

> <STRUCTURE_Shown>
tested chemical

> <STRUCTURE_Formula>
C12H20O2

> <STRUCTURE_MW>
196.286

> <STRUCTURE_ChemType>
defined organic

> <STRUCTURE_DefinedOrganicForm>
parent

> <STRUCTURE_IUPAC>
(2E)-3,7-dimethylocta-2,6-dien-1-yl acetate

> <STRUCTURE_SMILES>
C\C(C)=C\CCC(\C)=C\COC(C)=O

> <STRUCTURE_SMILES_Desalt>
C\C(C)=C\CCC(\C)=C\COC(C)=O

> <Substance_modify_yyyymmdd>
20080429

$$$$
