1050-79-9
ChemmineR-0915142007XD

 31 32  0  0  0  0  0  0  0  0  1 V2000
   11.5252   -1.1626    0.0000 C   0  0  0  0  0  0  0  0  0  0  0  0
    9.2168   -2.4938    0.0000 N   0  0  0  0  0  0  0  0  0  0  0  0
   11.5252   -2.4938    0.0000 C   0  0  0  0  0  0  0  0  0  0  0  0
   10.3794   -0.5055    0.0000 C   0  0  0  0  0  0  0  0  0  0  0  0
   12.8563   -1.1626    0.0000 C   0  0  0  0  0  0  0  0  0  0  0  0
    4.6168   -2.4938    0.0000 C   0  0  0  0  0  0  0  0  0  0  0  0
    3.4542   -3.1677    0.0000 C   0  0  0  0  0  0  0  0  0  0  0  0
    4.6168   -1.1626    0.0000 O   0  0  0  0  0  0  0  0  0  0  0  0
    9.2168   -1.1626    0.0000 C   0  0  0  0  0  0  0  0  0  0  0  0
   10.3626   -3.1509    0.0000 C   0  0  0  0  0  0  0  0  0  0  0  0
   13.5135    0.0000    0.0000 C   0  0  0  0  0  0  0  0  0  0  0  0
   13.5303   -2.3084    0.0000 C   0  0  0  0  0  0  0  0  0  0  0  0
    2.3084   -2.4938    0.0000 C   0  0  0  0  0  0  0  0  0  0  0  0
    3.4542   -4.4820    0.0000 C   0  0  0  0  0  0  0  0  0  0  0  0
   12.1992   -0.0168    0.0000 O   0  0  0  0  0  0  0  0  0  0  0  0
    1.1458   -4.4989    0.0000 C   0  0  0  0  0  0  0  0  0  0  0  0
    1.1458   -3.1677    0.0000 C   0  0  0  0  0  0  0  0  0  0  0  0
    2.3084   -5.1560    0.0000 C   0  0  0  0  0  0  0  0  0  0  0  0
   14.8446    0.0000    0.0000 C   0  0  0  0  0  0  0  0  0  0  0  0
   14.8614   -2.3084    0.0000 C   0  0  0  0  0  0  0  0  0  0  0  0
   15.5186   -1.1626    0.0000 C   0  0  0  0  0  0  0  0  0  0  0  0
    0.0000   -5.1560    0.0000 F   0  0  0  0  0  0  0  0  0  0  0  0
    8.0710   -3.1509    0.0000 C   0  0  0  0  0  0  0  0  0  0  0  0
    6.9252   -2.4938    0.0000 C   0  0  0  0  0  0  0  0  0  0  0  0
    5.7626   -3.1509    0.0000 C   0  0  0  0  0  0  0  0  0  0  0  0
   16.8497   -1.1626    0.0000 C   0  0  0  0  0  0  0  0  0  0  0  0
   13.1933   -4.6000    0.0000 S   0  0  0  0  0  0  0  0  0  0  0  0
   14.5244   -4.6000    0.0000 O   0  0  0  0  0  0  0  0  0  0  0  0
   11.8622   -4.6000    0.0000 O   0  0  0  0  0  0  0  0  0  0  0  0
   13.1933   -5.9311    0.0000 O   0  0  0  0  0  0  0  0  0  0  0  0
   13.1933   -3.2688    0.0000 O   0  0  0  0  0  0  0  0  0  0  0  0
  1  3  1  0  0  0  0
  1  4  1  0  0  0  0
  1  5  1  0  0  0  0
  1 15  1  0  0  0  0
  2  9  1  0  0  0  0
  2 23  1  0  0  0  0
  2 10  1  0  0  0  0
  3 10  1  0  0  0  0
  4  9  1  0  0  0  0
  5 11  1  0  0  0  0
  5 12  2  0  0  0  0
  6 25  1  0  0  0  0
  6  7  1  0  0  0  0
  6  8  2  0  0  0  0
  7 13  1  0  0  0  0
  7 14  2  0  0  0  0
 11 19  2  0  0  0  0
 12 20  1  0  0  0  0
 13 17  2  0  0  0  0
 14 18  1  0  0  0  0
 16 18  2  0  0  0  0
 16 22  1  0  0  0  0
 16 17  1  0  0  0  0
 19 21  1  0  0  0  0
 20 21  2  0  0  0  0
 21 26  1  0  0  0  0
 23 24  1  0  0  0  0
 24 25  1  0  0  0  0
 27 28  2  0  0  0  0
 27 29  2  0  0  0  0
 27 30  1  0  0  0  0
 27 31  1  0  0  0  0
M  END
> <ID>
14046

> <Formula>
C22H28FNO6S

> <FW>
453.5242 (355.4457+98.0785)

> <DSSTox_CID>
28988

> <DSSTox_RID>
83253

> <DSSTox_GSID>
49062

> <DSSTox_FileID_Sort>
7928

> <TS_ChemName>
Moperone

> <TS_ChemName_Synonyms>


> <TS_CASRN>
1050-79-9

> <CASRN_ChemName_Relationship>
primary

> <TS_Description>
single chemical compound

> <ChemNote>


> <STRUCTURE_Shown>
tested chemical

> <STRUCTURE_Formula>
C22H28FNO6S

> <STRUCTURE_MW>
453.5242

> <STRUCTURE_ChemType>
defined organic

> <STRUCTURE_DefinedOrganicForm>
complex

> <STRUCTURE_IUPAC>
1-(4-fluorophenyl)-4-[4-hydroxy-4-(4-methylphenyl)piperidin-1-yl]butan-1-one sulfate (1:1)

> <STRUCTURE_SMILES>
O=S(=O)(O)O.Fc1ccc(cc1)C(=O)CCCN2CCC(O)(CC2)c3ccc(C)cc3

> <STRUCTURE_SMILES_Desalt>
Fc1ccc(cc1)C(=O)CCCN2CCC(O)(CC2)c3ccc(C)cc3

> <Substance_modify_yyyymmdd>
20111204

$$$$
