1050-48-2
ChemmineR-0915142007XD

 27 28  0  0  0  0  0  0  0  0  2 V2000
    5.4600  -11.3043    0.0000 C    0  0  0  0  0  0  0  0  0  0  0  0
    4.9287  -10.0948    0.0000 C    0  0  0  0  0  0  0  0  0  0  0  0
    5.6974   -9.0095    0.0000 N    0  3  0  0  0  0  0  0  0  0  0  0
    6.2287  -10.2304    0.0000 C    0  0  0  0  0  0  0  0  0  0  0  0
    7.5626  -10.3774    0.0000 C    0  0  0  0  0  0  0  0  0  0  0  0
    6.8391   -8.3539    0.0000 C    0  0  0  0  0  0  0  0  0  0  0  0
    6.5678   -7.0539    0.0000 C    0  0  0  0  0  0  0  0  0  0  0  0
    5.2452   -6.9069    0.0000 C    0  0  0  0  0  0  0  0  0  0  0  0
    4.7026   -8.1278    0.0000 C    0  0  0  0  0  0  0  0  0  0  0  0
    4.5896   -5.7539    0.0000 O    0  0  0  0  0  0  0  0  0  0  0  0
    5.2452   -4.5896    0.0000 C    0  0  0  0  0  0  0  0  0  0  0  0
    6.5791   -4.5896    0.0000 O    0  0  0  0  0  0  0  0  0  0  0  0
    4.5896   -3.4478    0.0000 C    0  0  0  0  0  0  0  0  0  0  0  0
    3.4365   -4.1148    0.0000 O    0  0  0  0  0  0  0  0  0  0  0  0
    3.9226   -2.2948    0.0000 C    0  0  0  0  0  0  0  0  0  0  0  0
    4.5896   -1.1417    0.0000 C    0  0  0  0  0  0  0  0  0  0  0  0
    3.9226    0.0000    0.0000 C    0  0  0  0  0  0  0  0  0  0  0  0
    2.6000    0.0000    0.0000 C    0  0  0  0  0  0  0  0  0  0  0  0
    1.9217   -1.1417    0.0000 C    0  0  0  0  0  0  0  0  0  0  0  0
    2.6000   -2.2948    0.0000 C    0  0  0  0  0  0  0  0  0  0  0  0
    5.7313   -2.7922    0.0000 C    0  0  0  0  0  0  0  0  0  0  0  0
    6.8843   -3.4478    0.0000 C    0  0  0  0  0  0  0  0  0  0  0  0
    8.0487   -2.7922    0.0000 C    0  0  0  0  0  0  0  0  0  0  0  0
    8.0487   -1.4470    0.0000 C    0  0  0  0  0  0  0  0  0  0  0  0
    6.8843   -0.7913    0.0000 C    0  0  0  0  0  0  0  0  0  0  0  0
    5.7313   -1.4470    0.0000 C    0  0  0  0  0  0  0  0  0  0  0  0
    0.0000   -7.0539    0.0000 Br   0  5  0  0  0  0  0  0  0  0  0  0
  1  2  1  0  0  0  0
  2  3  1  0  0  0  0
  3  4  1  0  0  0  0
  3  6  1  0  0  0  0
  3  9  1  0  0  0  0
  4  5  1  0  0  0  0
  6  7  1  0  0  0  0
  7  8  1  0  0  0  0
  8  9  1  0  0  0  0
  8 10  1  0  0  0  0
 10 11  1  0  0  0  0
 11 12  2  0  0  0  0
 11 13  1  0  0  0  0
 13 14  1  0  0  0  0
 13 15  1  0  0  0  0
 13 21  1  0  0  0  0
 15 16  2  0  0  0  0
 15 20  1  0  0  0  0
 16 17  1  0  0  0  0
 17 18  2  0  0  0  0
 18 19  1  0  0  0  0
 19 20  2  0  0  0  0
 21 22  2  0  0  0  0
 21 26  1  0  0  0  0
 22 23  1  0  0  0  0
 23 24  2  0  0  0  0
 24 25  1  0  0  0  0
 25 26  2  0  0  0  0
M  END
> <ID>
16018

> <Formula>
C22H28BrNO3

> <FW>
434.3666 (354.4621+79.9045)

> <DSSTox_CID>
31401

> <DSSTox_RID>
97287

> <DSSTox_GSID>
57612

> <DSSTox_FileID_Sort>
8354

> <TS_ChemName>
Benzilonium bromide

> <TS_ChemName_Synonyms>


> <TS_CASRN>
1050-48-2

> <CASRN_ChemName_Relationship>
primary

> <TS_Description>
single chemical compound

> <ChemNote>


> <STRUCTURE_Shown>
tested chemical

> <STRUCTURE_Formula>
C22H28BrNO3

> <STRUCTURE_MW>
434.3666

> <STRUCTURE_ChemType>
defined organic

> <STRUCTURE_DefinedOrganicForm>
salt

> <STRUCTURE_IUPAC>
1,1-diethyl-3-[2-hydroxy(diphenyl)acetoxy]pyrrolidinium bromide

> <STRUCTURE_SMILES>
[Br-].O=C(OC1CC[N+](CC)(CC)C1)C(O)(c2ccccc2)c3ccccc3

> <STRUCTURE_SMILES_Desalt>
O=C(OC1CC[N+](CC)(CC)C1)C(O)(c2ccccc2)c3ccccc3

> <Substance_modify_yyyymmdd>
20131018

$$$$
