105219-56-5
ChemmineR-0915142007XD

 31 35  0  0  0  0  0  0  0  0  1 V2000
    4.2417   -2.2196    0.0000 N    0  0  0  0  0  0  0  0  0  0  0  0
    5.8571   -5.2528    0.0000 C    0  0  0  0  0  0  0  0  0  0  0  0
    4.6252   -5.6828    0.0000 C    0  0  0  0  0  0  0  0  0  0  0  0
    3.8117   -4.6252    0.0000 C    0  0  0  0  0  0  0  0  0  0  0  0
    4.6020   -3.4980    0.0000 C    0  0  0  0  0  0  0  0  0  0  0  0
    5.8571   -3.9280    0.0000 S    0  0  0  0  0  0  0  0  0  0  0  0
   10.4591   -5.2528    0.0000 C    0  0  0  0  0  0  0  0  0  0  0  0
   11.6212   -5.9268    0.0000 O    0  0  0  0  0  0  0  0  0  0  0  0
   11.6212   -7.2516    0.0000 C    0  0  0  0  0  0  0  0  0  0  0  0
   10.4591   -7.9024    0.0000 C    0  0  0  0  0  0  0  0  0  0  0  0
    9.3202   -7.2516    0.0000 N    0  0  0  0  0  0  0  0  0  0  0  0
    9.3202   -5.9268    0.0000 C    0  0  0  0  0  0  0  0  0  0  0  0
    8.1581   -7.9024    0.0000 C    0  0  0  0  0  0  0  0  0  0  0  0
    7.0192   -7.2516    0.0000 C    0  0  0  0  0  0  0  0  0  0  0  0
    7.0192   -5.9268    0.0000 C    0  0  0  0  0  0  0  0  0  0  0  0
    8.1581   -9.2272    0.0000 O    0  0  0  0  0  0  0  0  0  0  0  0
    2.4869   -4.6252    0.0000 C    0  0  0  0  0  0  0  0  0  0  0  0
    1.5921   -3.6723    0.0000 N    0  0  0  0  0  0  0  0  0  0  0  0
    1.9756   -5.8919    0.0000 C    0  0  0  0  0  0  0  0  0  0  0  0
    2.6612   -7.0192    0.0000 C    0  0  0  0  0  0  0  0  0  0  0  0
    2.0221   -8.1581    0.0000 C    0  0  0  0  0  0  0  0  0  0  0  0
    0.6740   -8.2045    0.0000 C    0  0  0  0  0  0  0  0  0  0  0  0
    0.0000   -7.0540    0.0000 C    0  0  0  0  0  0  0  0  0  0  0  0
    0.6740   -5.8919    0.0000 C    0  0  0  0  0  0  0  0  0  0  0  0
    3.9861   -7.0076    0.0000 Cl   0  0  0  0  0  0  0  0  0  0  0  0
    1.8361   -2.3591    0.0000 C    0  0  0  0  0  0  0  0  0  0  0  0
    3.0331   -1.7199    0.0000 C    0  0  0  0  0  0  0  0  0  0  0  0
    5.0552   -1.0575    0.0000 C    0  0  0  0  0  0  0  0  0  0  0  0
    3.0331   -0.3951    0.0000 N    0  0  0  0  0  0  0  0  0  0  0  0
    4.2650    0.0000    0.0000 N    0  0  0  0  0  0  0  0  0  0  0  0
    6.3800   -1.0575    0.0000 C    0  0  0  0  0  0  0  0  0  0  0  0
  1  5  1  0  0  0  0
  1 27  1  0  0  0  0
  1 28  1  0  0  0  0
  2  6  1  0  0  0  0
  2  3  2  0  0  0  0
  2 15  1  0  0  0  0
  3  4  1  0  0  0  0
  4  5  2  0  0  0  0
  4 17  1  0  0  0  0
  5  6  1  0  0  0  0
  7 12  1  0  0  0  0
  7  8  1  0  0  0  0
  8  9  1  0  0  0  0
  9 10  1  0  0  0  0
 10 11  1  0  0  0  0
 11 12  1  0  0  0  0
 11 13  1  0  0  0  0
 13 16  2  0  0  0  0
 13 14  1  0  0  0  0
 14 15  1  0  0  0  0
 17 18  2  0  0  0  0
 17 19  1  0  0  0  0
 18 26  1  0  0  0  0
 19 20  2  0  0  0  0
 19 24  1  0  0  0  0
 20 21  1  0  0  0  0
 20 25  1  0  0  0  0
 21 22  2  0  0  0  0
 22 23  1  0  0  0  0
 23 24  2  0  0  0  0
 26 27  1  0  0  0  0
 27 29  2  0  0  0  0
 28 30  2  0  0  0  0
 28 31  1  0  0  0  0
 29 30  1  0  0  0  0
M  END
> <ID>
13962

> <Formula>
C22H22ClN5O2S

> <FW>
455.9604

> <DSSTox_CID>
28900

> <DSSTox_RID>
83168

> <DSSTox_GSID>
48974

> <DSSTox_FileID_Sort>
7845

> <TS_ChemName>
Apafant

> <TS_ChemName_Synonyms>


> <TS_CASRN>
105219-56-5

> <CASRN_ChemName_Relationship>
primary

> <TS_Description>
single chemical compound

> <ChemNote>


> <STRUCTURE_Shown>
tested chemical

> <STRUCTURE_Formula>
C22H22ClN5O2S

> <STRUCTURE_MW>
455.9604

> <STRUCTURE_ChemType>
defined organic

> <STRUCTURE_DefinedOrganicForm>
parent

> <STRUCTURE_IUPAC>
3-[4-(2-chlorophenyl)-9-methyl-6H-thieno[3,2-f][1,2,4]triazolo[4,3-a][1,4]diazepin-2-yl]-1-(morpholin-4-yl)propan-1-one

> <STRUCTURE_SMILES>
Clc1ccccc1C4=NCc2nnc(C)n2c3sc(cc34)CCC(=O)N5CCOCC5

> <STRUCTURE_SMILES_Desalt>
Clc1ccccc1C4=NCc2nnc(C)n2c3sc(cc34)CCC(=O)N5CCOCC5

> <Substance_modify_yyyymmdd>
20111204

$$$$
