10539-19-2
ChemmineR-0915142007XD

 23 25  0  0  0  0  0  0  0  0  1 V2000
    0.0000   -1.9897    0.0000 C   0  0  0  0  0  0  0  0  0  0  0  0
    1.1515   -1.3265    0.0000 C   0  0  0  0  0  0  0  0  0  0  0  0
    2.3029   -1.9897    0.0000 C   0  0  0  0  0  0  0  0  0  0  0  0
    2.3029   -3.3254    0.0000 N   0  0  0  0  0  0  0  0  0  0  0  0
    3.4544   -3.9886    0.0000 C   0  0  0  0  0  0  0  0  0  0  0  0
    4.6058   -3.3254    0.0000 C   0  0  0  0  0  0  0  0  0  0  0  0
    5.7573   -3.9886    0.0000 C   0  0  0  0  0  0  0  0  0  0  0  0
    6.9087   -3.3254    0.0000 C   0  0  0  0  0  0  0  0  0  0  0  0
    8.0602   -3.9886    0.0000 O   0  0  0  0  0  0  0  0  0  0  0  0
    9.2117   -3.3254    0.0000 C   0  0  0  0  0  0  0  0  0  0  0  0
    6.9087   -1.9897    0.0000 C   0  0  0  0  0  0  0  0  0  0  0  0
    5.7573   -1.3265    0.0000 C   0  0  0  0  0  0  0  0  0  0  0  0
    4.6058   -1.9897    0.0000 C   0  0  0  0  0  0  0  0  0  0  0  0
    3.4544   -1.3265    0.0000 C   0  0  0  0  0  0  0  0  0  0  0  0
    8.0602   -1.3265    0.0000 O   0  0  0  0  0  0  0  0  0  0  0  0
    8.0602    0.0000    0.0000 C   0  0  0  0  0  0  0  0  0  0  0  0
    3.4544   -5.3151    0.0000 C   0  0  0  0  0  0  0  0  0  0  0  0
    4.6058   -5.9784    0.0000 C   0  0  0  0  0  0  0  0  0  0  0  0
    4.6058   -7.3141    0.0000 C   0  0  0  0  0  0  0  0  0  0  0  0
    5.7573   -7.9773    0.0000 C   0  0  0  0  0  0  0  0  0  0  0  0
    6.9087   -7.3141    0.0000 C   0  0  0  0  0  0  0  0  0  0  0  0
    6.9087   -5.9784    0.0000 C   0  0  0  0  0  0  0  0  0  0  0  0
    5.7573   -5.3151    0.0000 C   0  0  0  0  0  0  0  0  0  0  0  0
  1  2  1  0  0  0  0
  2  3  1  0  0  0  0
  3  4  2  0  0  0  0
  3 14  1  0  0  0  0
  4  5  1  0  0  0  0
  5  6  2  0  0  0  0
  5 17  1  0  0  0  0
  6  7  1  0  0  0  0
  6 13  1  0  0  0  0
  7  8  2  0  0  0  0
  8  9  1  0  0  0  0
  8 11  1  0  0  0  0
  9 10  1  0  0  0  0
 11 12  2  0  0  0  0
 11 15  1  0  0  0  0
 12 13  1  0  0  0  0
 13 14  2  0  0  0  0
 15 16  1  0  0  0  0
 17 18  1  0  0  0  0
 18 19  2  0  0  0  0
 18 23  1  0  0  0  0
 19 20  1  0  0  0  0
 20 21  2  0  0  0  0
 21 22  1  0  0  0  0
 22 23  2  0  0  0  0
M  END
> <ID>
16019

> <Formula>
C20H21NO2

> <FW>
307.3862

> <DSSTox_CID>
31402

> <DSSTox_RID>
97288

> <DSSTox_GSID>
57613

> <DSSTox_FileID_Sort>
8355

> <TS_ChemName>
Moxaverine

> <TS_ChemName_Synonyms>


> <TS_CASRN>
10539-19-2

> <CASRN_ChemName_Relationship>
primary

> <TS_Description>
single chemical compound

> <ChemNote>


> <STRUCTURE_Shown>
tested chemical

> <STRUCTURE_Formula>
C20H21NO2

> <STRUCTURE_MW>
307.3862

> <STRUCTURE_ChemType>
defined organic

> <STRUCTURE_DefinedOrganicForm>
parent

> <STRUCTURE_IUPAC>
1-benzyl-3-ethyl-6,7-dimethoxyisoquinoline

> <STRUCTURE_SMILES>
COc1cc3c(cc1OC)cc(CC)nc3Cc2ccccc2

> <STRUCTURE_SMILES_Desalt>
COc1cc3c(cc1OC)cc(CC)nc3Cc2ccccc2

> <Substance_modify_yyyymmdd>
20131018

$$$$
