1054-88-2
ChemmineR-0915142007XD

 28 32  0  0  0  0  0  0  0  0  1 V2000
   10.5435   -0.0336    0.0000 O   0  0  0  0  0  0  0  0  0  0  0  0
   10.3194   -1.3558    0.0000 C   0  0  0  0  0  0  0  0  0  0  0  0
   11.2046   -2.3530    0.0000 N   0  0  0  0  0  0  0  0  0  0  0  0
   10.5435   -3.4958    0.0000 C   0  0  0  0  0  0  0  0  0  0  0  0
    9.2214   -3.2269    0.0000 N   0  0  0  0  0  0  0  0  0  0  0  0
    8.2017   -4.0785    0.0000 C   0  0  0  0  0  0  0  0  0  0  0  0
    8.4370   -5.4006    0.0000 C   0  0  0  0  0  0  0  0  0  0  0  0
    7.4174   -6.2521    0.0000 C   0  0  0  0  0  0  0  0  0  0  0  0
    6.1625   -5.8040    0.0000 C   0  0  0  0  0  0  0  0  0  0  0  0
    5.9160   -4.4818    0.0000 C   0  0  0  0  0  0  0  0  0  0  0  0
    6.9468   -3.6191    0.0000 C   0  0  0  0  0  0  0  0  0  0  0  0
    9.2662   -1.9944    0.0000 C   0  0  0  0  0  0  0  0  0  0  0  0
    8.1233   -2.6779    0.0000 C   0  0  0  0  0  0  0  0  0  0  0  0
    6.9692   -1.9944    0.0000 C   0  0  0  0  0  0  0  0  0  0  0  0
    6.9692   -0.6611    0.0000 N   0  0  0  0  0  0  0  0  0  0  0  0
    8.1233    0.0000    0.0000 C   0  0  0  0  0  0  0  0  0  0  0  0
    9.2662   -0.6611    0.0000 C   0  0  0  0  0  0  0  0  0  0  0  0
    5.8040    0.0000    0.0000 C   0  0  0  0  0  0  0  0  0  0  0  0
    4.6387   -0.6611    0.0000 C   0  0  0  0  0  0  0  0  0  0  0  0
    4.6387   -1.9944    0.0000 C   0  0  0  0  0  0  0  0  0  0  0  0
    3.4846   -2.6779    0.0000 O   0  0  0  0  0  0  0  0  0  0  0  0
    2.3193   -1.9944    0.0000 C   0  0  0  0  0  0  0  0  0  0  0  0
    2.3193   -0.6611    0.0000 C   0  0  0  0  0  0  0  0  0  0  0  0
    3.4846    0.0000    0.0000 O   0  0  0  0  0  0  0  0  0  0  0  0
    1.1653    0.0000    0.0000 C   0  0  0  0  0  0  0  0  0  0  0  0
    0.0000   -0.6611    0.0000 C   0  0  0  0  0  0  0  0  0  0  0  0
    0.0000   -1.9944    0.0000 C   0  0  0  0  0  0  0  0  0  0  0  0
    1.1653   -2.6779    0.0000 C   0  0  0  0  0  0  0  0  0  0  0  0
  1  2  2  0  0  0  0
  2  3  1  0  0  0  0
  2 12  1  0  0  0  0
  3  4  1  0  0  0  0
  4  5  1  0  0  0  0
  5  6  1  0  0  0  0
  5 12  1  0  0  0  0
  6  7  2  0  0  0  0
  6 11  1  0  0  0  0
  7  8  1  0  0  0  0
  8  9  2  0  0  0  0
  9 10  1  0  0  0  0
 10 11  2  0  0  0  0
 12 13  1  0  0  0  0
 12 17  1  0  0  0  0
 13 14  1  0  0  0  0
 14 15  1  0  0  0  0
 15 16  1  0  0  0  0
 15 18  1  0  0  0  0
 16 17  1  0  0  0  0
 18 19  1  0  0  0  0
 19 20  1  0  0  0  0
 19 24  1  0  0  0  0
 20 21  1  0  0  0  0
 21 22  1  0  0  0  0
 22 23  2  0  0  0  0
 22 28  1  0  0  0  0
 23 24  1  0  0  0  0
 23 25  1  0  0  0  0
 25 26  2  0  0  0  0
 26 27  1  0  0  0  0
 27 28  2  0  0  0  0
M  END
> <ID>
10814

> <Formula>
C22H25N3O3

> <FW>
379.4522

> <DSSTox_CID>
25198

> <DSSTox_RID>
80744

> <DSSTox_GSID>
45198

> <DSSTox_FileID_Sort>
5425

> <TS_ChemName>
Spiroxatrine

> <TS_ChemName_Synonyms>


> <TS_CASRN>
1054-88-2

> <CASRN_ChemName_Relationship>
primary

> <TS_Description>
single chemical compound

> <ChemNote>


> <STRUCTURE_Shown>
tested chemical

> <STRUCTURE_Formula>
C22H25N3O3

> <STRUCTURE_MW>
379.4522

> <STRUCTURE_ChemType>
defined organic

> <STRUCTURE_DefinedOrganicForm>
parent

> <STRUCTURE_IUPAC>
8-(2,3-dihydro-1,4-benzodioxin-2-ylmethyl)-1-phenyl-1,3,8-triazaspiro[4.5]decan-4-one

> <STRUCTURE_SMILES>
O=C5NCN(c1ccccc1)C25CCN(CC2)CC3COc4ccccc4O3

> <STRUCTURE_SMILES_Desalt>
O=C5NCN(c1ccccc1)C25CCN(CC2)CC3COc4ccccc4O3

> <Substance_modify_yyyymmdd>
20100107

$$$$
