105431-72-9
ChemmineR-0915142007XD

 30 34  0  0  0  0  0  0  0  0  1 V2000
    2.2233   -4.5636    0.0000 C   0  0  0  0  0  0  0  0  0  0  0  0
    2.2233   -5.8605    0.0000 C   0  0  0  0  0  0  0  0  0  0  0  0
    1.1116   -3.9005    0.0000 C   0  0  0  0  0  0  0  0  0  0  0  0
    1.1116   -6.5041    0.0000 C   0  0  0  0  0  0  0  0  0  0  0  0
    0.0000   -4.5636    0.0000 C   0  0  0  0  0  0  0  0  0  0  0  0
    0.0000   -5.8605    0.0000 C   0  0  0  0  0  0  0  0  0  0  0  0
    4.4953   -4.5636    0.0000 C   0  0  0  0  0  0  0  0  0  0  0  0
    4.4953   -5.8605    0.0000 C   0  0  0  0  0  0  0  0  0  0  0  0
    3.3739   -3.9005    0.0000 N   0  0  0  0  0  0  0  0  0  0  0  0
    3.3739   -2.6036    0.0000 C   0  0  0  0  0  0  0  0  0  0  0  0
    2.2233   -1.9600    0.0000 C   0  0  0  0  0  0  0  0  0  0  0  0
    4.4953   -1.9405    0.0000 C   0  0  0  0  0  0  0  0  0  0  0  0
    2.2233   -0.6436    0.0000 C   0  0  0  0  0  0  0  0  0  0  0  0
    4.4953   -0.6436    0.0000 C   0  0  0  0  0  0  0  0  0  0  0  0
    3.3739    0.0000    0.0000 C   0  0  0  0  0  0  0  0  0  0  0  0
    5.6265   -3.9005    0.0000 O   0  0  0  0  0  0  0  0  0  0  0  0
    5.7825   -5.8605    0.0000 C   0  0  0  0  0  0  0  0  0  0  0  0
    4.4953   -7.1672    0.0000 C   0  0  0  0  0  0  0  0  0  0  0  0
    6.4261   -7.0112    0.0000 C   0  0  0  0  0  0  0  0  0  0  0  0
    5.7728   -8.1228    0.0000 C   0  0  0  0  0  0  0  0  0  0  0  0
    7.7328   -7.0112    0.0000 C   0  0  0  0  0  0  0  0  0  0  0  0
    6.4163   -9.2540    0.0000 C   0  0  0  0  0  0  0  0  0  0  0  0
    8.3764   -8.1326    0.0000 C   0  0  0  0  0  0  0  0  0  0  0  0
    7.7133   -9.2540    0.0000 N   0  0  0  0  0  0  0  0  0  0  0  0
    3.3544   -7.8108    0.0000 C   0  0  0  0  0  0  0  0  0  0  0  0
    3.3544   -9.1077    0.0000 C   0  0  0  0  0  0  0  0  0  0  0  0
    2.2233   -7.1477    0.0000 C   0  0  0  0  0  0  0  0  0  0  0  0
    2.2135   -9.7513    0.0000 C   0  0  0  0  0  0  0  0  0  0  0  0
    1.1019   -7.7913    0.0000 C   0  0  0  0  0  0  0  0  0  0  0  0
    1.1019   -9.0882    0.0000 N   0  0  0  0  0  0  0  0  0  0  0  0
  1  3  2  0  0  0  0
  1  9  1  0  0  0  0
  1  2  1  0  0  0  0
  2  4  2  0  0  0  0
  2  8  1  0  0  0  0
  3  5  1  0  0  0  0
  4  6  1  0  0  0  0
  5  6  2  0  0  0  0
  7  8  1  0  0  0  0
  7  9  1  0  0  0  0
  7 16  2  0  0  0  0
  8 17  1  0  0  0  0
  8 18  1  0  0  0  0
  9 10  1  0  0  0  0
 10 11  1  0  0  0  0
 10 12  2  0  0  0  0
 11 13  2  0  0  0  0
 12 14  1  0  0  0  0
 13 15  1  0  0  0  0
 14 15  2  0  0  0  0
 17 19  1  0  0  0  0
 18 25  1  0  0  0  0
 19 20  1  0  0  0  0
 19 21  2  0  0  0  0
 20 22  2  0  0  0  0
 21 23  1  0  0  0  0
 22 24  1  0  0  0  0
 23 24  2  0  0  0  0
 25 26  1  0  0  0  0
 25 27  2  0  0  0  0
 26 28  2  0  0  0  0
 27 29  1  0  0  0  0
 28 30  1  0  0  0  0
 29 30  2  0  0  0  0
M  END
> <ID>
10782

> <Formula>
C26H21N3O

> <FW>
391.4644

> <DSSTox_CID>
25163

> <DSSTox_RID>
80713

> <DSSTox_GSID>
45163

> <DSSTox_FileID_Sort>
5394

> <TS_ChemName>
Linopirdine

> <TS_ChemName_Synonyms>


> <TS_CASRN>
105431-72-9

> <CASRN_ChemName_Relationship>
primary

> <TS_Description>
single chemical compound

> <ChemNote>


> <STRUCTURE_Shown>
tested chemical

> <STRUCTURE_Formula>
C26H21N3O

> <STRUCTURE_MW>
391.4644

> <STRUCTURE_ChemType>
defined organic

> <STRUCTURE_DefinedOrganicForm>
parent

> <STRUCTURE_IUPAC>
1-phenyl-3,3-bis(pyridin-4-ylmethyl)-1,3-dihydro-2H-indol-2-one

> <STRUCTURE_SMILES>
O=C4N(c1ccccc1C4(Cc2ccncc2)Cc3ccncc3)c5ccccc5

> <STRUCTURE_SMILES_Desalt>
O=C4N(c1ccccc1C4(Cc2ccncc2)Cc3ccncc3)c5ccccc5

> <Substance_modify_yyyymmdd>
20100107

$$$$
