10540-29-1
ChemmineR-0915142007XD

 28 30  0  0  0  0  0  0  0  0  1 V2000
    3.9865   -4.6137    0.0000 C   0  0  0  0  0  0  0  0  0  0  0  0
    2.6576   -4.6137    0.0000 C   0  0  0  0  0  0  0  0  0  0  0  0
    4.6562   -3.4549    0.0000 C   0  0  0  0  0  0  0  0  0  0  0  0
    4.6562   -5.7618    0.0000 C   0  0  0  0  0  0  0  0  0  0  0  0
    1.9985   -3.4549    0.0000 C   0  0  0  0  0  0  0  0  0  0  0  0
    3.9865   -2.3068    0.0000 C   0  0  0  0  0  0  0  0  0  0  0  0
    5.9850   -3.4549    0.0000 C   0  0  0  0  0  0  0  0  0  0  0  0
    9.9715   -1.1481    0.0000 N   0  0  0  0  0  0  0  0  0  0  0  0
    5.9850   -1.1481    0.0000 C   0  0  0  0  0  0  0  0  0  0  0  0
    4.6562   -1.1481    0.0000 C   0  0  0  0  0  0  0  0  0  0  0  0
    6.6441   -2.3068    0.0000 C   0  0  0  0  0  0  0  0  0  0  0  0
    1.9985   -5.7618    0.0000 C   0  0  0  0  0  0  0  0  0  0  0  0
    6.6441    0.0000    0.0000 O   0  0  0  0  0  0  0  0  0  0  0  0
    7.9729    0.0000    0.0000 C   0  0  0  0  0  0  0  0  0  0  0  0
    8.6426   -1.1481    0.0000 C   0  0  0  0  0  0  0  0  0  0  0  0
    0.6697   -3.4549    0.0000 C   0  0  0  0  0  0  0  0  0  0  0  0
    2.6576   -2.3068    0.0000 C   0  0  0  0  0  0  0  0  0  0  0  0
    5.9850   -5.7618    0.0000 C   0  0  0  0  0  0  0  0  0  0  0  0
    3.9865   -6.9205    0.0000 C   0  0  0  0  0  0  0  0  0  0  0  0
   10.6306   -2.3068    0.0000 C   0  0  0  0  0  0  0  0  0  0  0  0
   10.6306    0.0000    0.0000 C   0  0  0  0  0  0  0  0  0  0  0  0
    2.6576   -6.9205    0.0000 C   0  0  0  0  0  0  0  0  0  0  0  0
    4.6562   -8.0686    0.0000 C   0  0  0  0  0  0  0  0  0  0  0  0
    0.0000   -2.3068    0.0000 C   0  0  0  0  0  0  0  0  0  0  0  0
    1.9985   -1.1481    0.0000 C   0  0  0  0  0  0  0  0  0  0  0  0
    6.6441   -6.9205    0.0000 C   0  0  0  0  0  0  0  0  0  0  0  0
    0.6697   -1.1481    0.0000 C   0  0  0  0  0  0  0  0  0  0  0  0
    5.9850   -8.0686    0.0000 C   0  0  0  0  0  0  0  0  0  0  0  0
  1  2  2  0  0  0  0
  1  3  1  0  0  0  0
  1  4  1  0  0  0  0
  2  5  1  0  0  0  0
  2 12  1  0  0  0  0
  3  6  1  0  0  0  0
  3  7  2  0  0  0  0
  4 18  2  0  0  0  0
  4 19  1  0  0  0  0
  5 16  1  0  0  0  0
  5 17  2  0  0  0  0
  6 10  2  0  0  0  0
  7 11  1  0  0  0  0
  8 15  1  0  0  0  0
  8 20  1  0  0  0  0
  8 21  1  0  0  0  0
  9 11  2  0  0  0  0
  9 13  1  0  0  0  0
  9 10  1  0  0  0  0
 12 22  1  0  0  0  0
 13 14  1  0  0  0  0
 14 15  1  0  0  0  0
 16 24  2  0  0  0  0
 17 25  1  0  0  0  0
 18 26  1  0  0  0  0
 19 23  2  0  0  0  0
 23 28  1  0  0  0  0
 24 27  1  0  0  0  0
 25 27  2  0  0  0  0
 26 28  2  0  0  0  0
M  END
> <ID>
6674

> <Formula>
C26H29NO

> <FW>
371.5146

> <DSSTox_CID>
14187

> <DSSTox_RID>
79121

> <DSSTox_GSID>
34187

> <DSSTox_FileID_Sort>
3803

> <TS_ChemName>
Tamoxifen

> <TS_ChemName_Synonyms>
Tamoxifen (OHT) (TAM)

> <TS_CASRN>
10540-29-1

> <CASRN_ChemName_Relationship>
primary

> <TS_Description>
single chemical compound

> <ChemNote>
stereochem

> <STRUCTURE_Shown>
tested chemical

> <STRUCTURE_Formula>
C26H29NO

> <STRUCTURE_MW>
371.5146

> <STRUCTURE_ChemType>
defined organic

> <STRUCTURE_DefinedOrganicForm>
parent

> <STRUCTURE_IUPAC>
2-{4-[(1Z)-1,2-diphenylbut-1-en-1-yl]phenoxy}-N,N-dimethylethanamine

> <STRUCTURE_SMILES>
CN(C)CCOc1ccc(cc1)/C(c2ccccc2)=C(/CC)c3ccccc3

> <STRUCTURE_SMILES_Desalt>
CN(C)CCOc1ccc(cc1)/C(c2ccccc2)=C(/CC)c3ccccc3

> <Substance_modify_yyyymmdd>
20080429

$$$$
