10552-74-6
ChemmineR-0915142007XD

 21 21  0  0  0  0  0  0  0  0  2 V2000
    4.6338   -4.0098    0.0000 C   0  0  0  0  0  0  0  0  0  0  0  0
    4.6338   -2.6693    0.0000 C   0  0  0  0  0  0  0  0  0  0  0  0
    5.7894   -1.9991    0.0000 C   0  0  0  0  0  0  0  0  0  0  0  0
    6.9218   -2.6693    0.0000 C   0  0  0  0  0  0  0  0  0  0  0  0
    6.9218   -4.0098    0.0000 C   0  0  0  0  0  0  0  0  0  0  0  0
    5.7894   -4.6685    0.0000 C   0  0  0  0  0  0  0  0  0  0  0  0
    3.4667   -4.6685    0.0000 C   0  0  0  0  0  0  0  0  0  0  0  0
    3.4667   -5.9974    0.0000 O   0  0  0  0  0  0  0  0  0  0  0  0
    2.3111   -4.0098    0.0000 O   0  0  0  0  0  0  0  0  0  0  0  0
    8.0889   -4.6685    0.0000 C   0  0  0  0  0  0  0  0  0  0  0  0
    8.0889   -5.9974    0.0000 O   0  0  0  0  0  0  0  0  0  0  0  0
    9.2445   -4.0098    0.0000 O   0  0  0  0  0  0  0  0  0  0  0  0
    5.7894   -0.6587    0.0000 N   0  3  0  0  0  0  0  0  0  0  0  0
    6.9218    0.0000    0.0000 O   0  5  0  0  0  0  0  0  0  0  0  0
    4.6338    0.0000    0.0000 O   0  0  0  0  0  0  0  0  0  0  0  0
    1.1556   -4.6685    0.0000 C   0  0  0  0  0  0  0  0  0  0  0  0
    1.1556   -5.9974    0.0000 C   0  0  0  0  0  0  0  0  0  0  0  0
    0.0000   -4.0098    0.0000 C   0  0  0  0  0  0  0  0  0  0  0  0
   10.4001   -4.6685    0.0000 C   0  0  0  0  0  0  0  0  0  0  0  0
   11.5556   -4.0098    0.0000 C   0  0  0  0  0  0  0  0  0  0  0  0
   10.4001   -5.9974    0.0000 C   0  0  0  0  0  0  0  0  0  0  0  0
  1  2  1  0  0  0  0
  1  6  2  0  0  0  0
  1  7  1  0  0  0  0
  2  3  2  0  0  0  0
  3  4  1  0  0  0  0
  3 13  1  0  0  0  0
  4  5  2  0  0  0  0
  5  6  1  0  0  0  0
  5 10  1  0  0  0  0
  7  8  2  0  0  0  0
  7  9  1  0  0  0  0
  9 16  1  0  0  0  0
 10 11  2  0  0  0  0
 10 12  1  0  0  0  0
 12 19  1  0  0  0  0
 13 14  1  0  0  0  0
 13 15  2  0  0  0  0
 16 17  1  0  0  0  0
 16 18  1  0  0  0  0
 19 20  1  0  0  0  0
 19 21  1  0  0  0  0
M  END
> <ID>
7348

> <Formula>
C14H17NO6

> <FW>
295.2879

> <DSSTox_CID>
17579

> <DSSTox_RID>
79342

> <DSSTox_GSID>
37579

> <DSSTox_FileID_Sort>
4024

> <TS_ChemName>
Nitrothal-isopropyl

> <TS_ChemName_Synonyms>


> <TS_CASRN>
10552-74-6

> <CASRN_ChemName_Relationship>
primary

> <TS_Description>
single chemical compound

> <ChemNote>


> <STRUCTURE_Shown>
tested chemical

> <STRUCTURE_Formula>
C14H17NO6

> <STRUCTURE_MW>
295.2879

> <STRUCTURE_ChemType>
defined organic

> <STRUCTURE_DefinedOrganicForm>
parent

> <STRUCTURE_IUPAC>
dipropan-2-yl 5-nitrobenzene-1,3-dicarboxylate

> <STRUCTURE_SMILES>
O=[N+]([O-])c1cc(cc(c1)C(=O)OC(C)C)C(=O)OC(C)C

> <STRUCTURE_SMILES_Desalt>
O=[N+]([O-])c1cc(cc(c1)C(=O)OC(C)C)C(=O)OC(C)C

> <Substance_modify_yyyymmdd>
20080429

$$$$
