105512-06-9
ChemmineR-0915142007XD

 24 25  0  0  1  0  0  0  0  0  1 V2000
   10.3661   -2.0044    0.0000 C    0  0  0  0  0  0  0  0  0  0  0  0
   10.3661   -0.6731    0.0000 C    0  0  0  0  0  0  0  0  0  0  0  0
   11.5179    0.0000    0.0000 C    0  0  0  0  0  0  0  0  0  0  0  0
    9.2143   -2.6626    0.0000 O    0  0  0  0  0  0  0  0  0  0  0  0
   11.5179   -2.6626    0.0000 O    0  0  0  0  0  0  0  0  0  0  0  0
    9.2143    0.0000    0.0000 O    0  0  0  0  0  0  0  0  0  0  0  0
    8.0625   -0.6731    0.0000 C    0  0  0  0  0  0  0  0  0  0  0  0
    8.0625   -2.0044    0.0000 C    0  0  0  0  0  0  0  0  0  0  0  0
    6.8958    0.0000    0.0000 C    0  0  0  0  0  0  0  0  0  0  0  0
    6.8958   -2.6626    0.0000 C    0  0  0  0  0  0  0  0  0  0  0  0
    5.7440   -0.6731    0.0000 C    0  0  0  0  0  0  0  0  0  0  0  0
    5.7440   -2.0044    0.0000 C    0  0  0  0  0  0  0  0  0  0  0  0
    4.5922   -2.6626    0.0000 O    0  0  0  0  0  0  0  0  0  0  0  0
    2.3036   -2.6626    0.0000 N    0  0  0  0  0  0  0  0  0  0  0  0
    1.1518   -2.0044    0.0000 C    0  0  0  0  0  0  0  0  0  0  0  0
    3.4404   -2.0044    0.0000 C    0  0  0  0  0  0  0  0  0  0  0  0
    3.4404   -0.6731    0.0000 C    0  0  0  0  0  0  0  0  0  0  0  0
    1.1518   -0.6731    0.0000 C    0  0  0  0  0  0  0  0  0  0  0  0
    2.3036    0.0000    0.0000 C    0  0  0  0  0  0  0  0  0  0  0  0
    0.0000    0.0000    0.0000 Cl   0  0  0  0  0  0  0  0  0  0  0  0
    4.5922    0.0000    0.0000 F    0  0  0  0  0  0  0  0  0  0  0  0
   12.6548   -2.0044    0.0000 C    0  0  0  0  0  0  0  0  0  0  0  0
   13.8066   -2.6626    0.0000 C    0  0  0  0  0  0  0  0  0  0  0  0
   14.9583   -3.3357    0.0000 C    0  0  0  0  0  0  0  0  0  0  0  0
  1  2  1  0  0  0  0
  1  5  1  0  0  0  0
  1  4  2  0  0  0  0
  2  3  1  6  0  0  0
  2  6  1  0  0  0  0
  5 22  1  0  0  0  0
  6  7  1  0  0  0  0
  7  8  2  0  0  0  0
  7  9  1  0  0  0  0
  8 10  1  0  0  0  0
  9 11  2  0  0  0  0
 10 12  2  0  0  0  0
 11 12  1  0  0  0  0
 12 13  1  0  0  0  0
 13 16  1  0  0  0  0
 14 15  1  0  0  0  0
 14 16  2  0  0  0  0
 15 18  2  0  0  0  0
 16 17  1  0  0  0  0
 17 19  2  0  0  0  0
 17 21  1  0  0  0  0
 18 19  1  0  0  0  0
 18 20  1  0  0  0  0
 22 23  1  0  0  0  0
 23 24  3  0  0  0  0
M  END
> <ID>
6428

> <Formula>
C17H13ClFNO4

> <FW>
349.7408

> <DSSTox_CID>
12354

> <DSSTox_RID>
78921

> <DSSTox_GSID>
32354

> <DSSTox_FileID_Sort>
3603

> <TS_ChemName>
Clodinafop-propargyl

> <TS_ChemName_Synonyms>
Clodinafop-propargyl (2R); Clodinafop-propargyl (CGA-184927) (Propanoic acid, 2-{4{(5-chloro-3-fluoro-2-pyridinyl)oxy}phenoxy}-)

> <TS_CASRN>
105512-06-9

> <CASRN_ChemName_Relationship>
primary

> <TS_Description>
single chemical compound

> <ChemNote>
stereochem, commonly used pesticide formulations 95% (2R); 5% (2S), structure shown (2R); CASRN for (2R) [105512-06-9]; CASRN for a mixture of stereoisomers [105511-96-4]

> <STRUCTURE_Shown>
tested chemical

> <STRUCTURE_Formula>
C17H13ClFNO4

> <STRUCTURE_MW>
349.7408

> <STRUCTURE_ChemType>
defined organic

> <STRUCTURE_DefinedOrganicForm>
parent

> <STRUCTURE_IUPAC>
prop-2-yn-1-yl (2R)-2-{4-[(5-chloro-3-fluoropyridin-2-yl)oxy]phenoxy}propanoate

> <STRUCTURE_SMILES>
O=C(OCC#C)[C@@H](C)Oc1ccc(cc1)Oc2ncc(Cl)cc2F

> <STRUCTURE_SMILES_Desalt>
O=C(OCC#C)[C@@H](C)Oc1ccc(cc1)Oc2ncc(Cl)cc2F

> <Substance_modify_yyyymmdd>
20080429

$$$$
