1055-55-6
ChemmineR-0915142007XD

 29 29  0  0  0  0  0  0  0  0  1 V2000
    3.4598   -2.5949    0.0000 C    0  0  0  0  0  0  0  0  0  0  0  0
    3.4598   -3.9129    0.0000 C    0  0  0  0  0  0  0  0  0  0  0  0
    2.2962   -4.5719    0.0000 C    0  0  0  0  0  0  0  0  0  0  0  0
    2.2962   -5.9208    0.0000 C    0  0  0  0  0  0  0  0  0  0  0  0
    4.6131   -4.5719    0.0000 C    0  0  0  0  0  0  0  0  0  0  0  0
    2.2962   -1.9358    0.0000 N    0  0  0  0  0  0  0  0  0  0  0  0
    4.6131   -1.9358    0.0000 N    0  0  0  0  0  0  0  0  0  0  0  0
    3.4598   -6.5901    0.0000 C    0  0  0  0  0  0  0  0  0  0  0  0
    4.6131   -5.9208    0.0000 C    0  0  0  0  0  0  0  0  0  0  0  0
    3.4598   -7.9081    0.0000 O    0  0  0  0  0  0  0  0  0  0  0  0
    1.1739   -3.9129    0.0000 C    0  0  0  0  0  0  0  0  0  0  0  0
    1.1739   -6.5901    0.0000 C    0  0  0  0  0  0  0  0  0  0  0  0
    5.7561   -2.5949    0.0000 C    0  0  0  0  0  0  0  0  0  0  0  0
    4.6131   -0.6281    0.0000 C    0  0  0  0  0  0  0  0  0  0  0  0
    4.6131   -8.5980    0.0000 C    0  0  0  0  0  0  0  0  0  0  0  0
    6.8990   -1.9564    0.0000 C    0  0  0  0  0  0  0  0  0  0  0  0
    5.8075    0.0000    0.0000 C    0  0  0  0  0  0  0  0  0  0  0  0
    5.7252   -7.9184    0.0000 C    0  0  0  0  0  0  0  0  0  0  0  0
    8.0420   -2.6257    0.0000 C    0  0  0  0  0  0  0  0  0  0  0  0
    6.8990   -0.7105    0.0000 C    0  0  0  0  0  0  0  0  0  0  0  0
    9.1438   -8.6289    0.0000 C    0  0  0  0  0  0  0  0  0  0  0  0
    8.0420   -7.9184    0.0000 C    0  0  0  0  0  0  0  0  0  0  0  0
    6.8578   -8.5980    0.0000 C    0  0  0  0  0  0  0  0  0  0  0  0
    0.0000   -4.5719    0.0000 C    0  0  0  0  0  0  0  0  0  0  0  0
    0.0000   -5.9208    0.0000 C    0  0  0  0  0  0  0  0  0  0  0  0
   10.2971   -7.9905    0.0000 C    0  0  0  0  0  0  0  0  0  0  0  0
    9.2056   -1.9873    0.0000 C    0  0  0  0  0  0  0  0  0  0  0  0
    8.0729    0.0000    0.0000 C    0  0  0  0  0  0  0  0  0  0  0  0
    7.0741   -5.4780    0.0000 Cl   0  0  0  0  0  0  0  0  0  0  0  0
  1  2  1  0  0  0  0
  1  6  2  0  0  0  0
  1  7  1  0  0  0  0
  2  3  1  0  0  0  0
  2  5  2  0  0  0  0
  3  4  2  0  0  0  0
  3 11  1  0  0  0  0
  4 12  1  0  0  0  0
  4  8  1  0  0  0  0
  5  9  1  0  0  0  0
  7 13  1  0  0  0  0
  7 14  1  0  0  0  0
  8  9  2  0  0  0  0
  8 10  1  0  0  0  0
 10 15  1  0  0  0  0
 11 24  2  0  0  0  0
 12 25  2  0  0  0  0
 13 16  1  0  0  0  0
 14 17  1  0  0  0  0
 15 18  1  0  0  0  0
 16 19  1  0  0  0  0
 17 20  1  0  0  0  0
 18 23  1  0  0  0  0
 19 27  1  0  0  0  0
 20 28  1  0  0  0  0
 21 22  1  0  0  0  0
 21 26  1  0  0  0  0
 22 23  1  0  0  0  0
 24 25  1  0  0  0  0
M  END
> <ID>
12012

> <Formula>
C25H39ClN2O

> <FW>
419.0430 (382.5820+36.4609)

> <DSSTox_CID>
26837

> <DSSTox_RID>
81949

> <DSSTox_GSID>
46837

> <DSSTox_FileID_Sort>
6630

> <TS_ChemName>
Bunamidine hydrochloride

> <TS_ChemName_Synonyms>


> <TS_CASRN>
1055-55-6

> <CASRN_ChemName_Relationship>
primary

> <TS_Description>
single chemical compound

> <ChemNote>
parent [3748-77-4]

> <STRUCTURE_Shown>
tested chemical

> <STRUCTURE_Formula>
C25H39ClN2O

> <STRUCTURE_MW>
419.043

> <STRUCTURE_ChemType>
defined organic

> <STRUCTURE_DefinedOrganicForm>
complex

> <STRUCTURE_IUPAC>
N,N-dibutyl-4-(hexyloxy)naphthalene-1-carboximidamide hydrochloride (1:1)

> <STRUCTURE_SMILES>
Cl.CCCCN(CCCC)C(=N)c1ccc(OCCCCCC)c2ccccc12

> <STRUCTURE_SMILES_Desalt>
CCCCN(CCCC)C(=N)c1ccc(OCCCCCC)c2ccccc12

> <Substance_modify_yyyymmdd>
20110731

$$$$
