10563-29-8
ChemmineR-0915142007XD

 11 10  0  0  0  0  0  0  0  0  1 V2000
    2.3197   -1.9972    0.0000 C   0  0  0  0  0  0  0  0  0  0  0  0
    3.4744   -1.3419    0.0000 C   0  0  0  0  0  0  0  0  0  0  0  0
    4.6290   -1.9972    0.0000 C   0  0  0  0  0  0  0  0  0  0  0  0
    1.1547   -1.3419    0.0000 N   0  0  0  0  0  0  0  0  0  0  0  0
    5.7837   -1.3419    0.0000 N   0  0  0  0  0  0  0  0  0  0  0  0
    6.9487   -1.9972    0.0000 C   0  0  0  0  0  0  0  0  0  0  0  0
    8.0826   -1.3419    0.0000 C   0  0  0  0  0  0  0  0  0  0  0  0
    9.2476   -1.9972    0.0000 C   0  0  0  0  0  0  0  0  0  0  0  0
   10.4023   -1.3419    0.0000 N   0  0  0  0  0  0  0  0  0  0  0  0
    0.0000   -1.9972    0.0000 C   0  0  0  0  0  0  0  0  0  0  0  0
    1.1547    0.0000    0.0000 C   0  0  0  0  0  0  0  0  0  0  0  0
  1  2  1  0  0  0  0
  1  4  1  0  0  0  0
  2  3  1  0  0  0  0
  3  5  1  0  0  0  0
  4 10  1  0  0  0  0
  4 11  1  0  0  0  0
  5  6  1  0  0  0  0
  6  7  1  0  0  0  0
  7  8  1  0  0  0  0
  8  9  1  0  0  0  0
M  END
> <ID>
6625

> <Formula>
C8H21N3

> <FW>
159.2724

> <DSSTox_CID>
13445

> <DSSTox_RID>
79074

> <DSSTox_GSID>
33445

> <DSSTox_FileID_Sort>
3756

> <TS_ChemName>
Dimethyldipropylenetriamine

> <TS_ChemName_Synonyms>


> <TS_CASRN>
10563-29-8

> <CASRN_ChemName_Relationship>
primary

> <TS_Description>
single chemical compound

> <ChemNote>


> <STRUCTURE_Shown>
tested chemical

> <STRUCTURE_Formula>
C8H21N3

> <STRUCTURE_MW>
159.2724

> <STRUCTURE_ChemType>
defined organic

> <STRUCTURE_DefinedOrganicForm>
parent

> <STRUCTURE_IUPAC>
N'-(3-aminopropyl)-N,N-dimethylpropane-1,3-diamine

> <STRUCTURE_SMILES>
CN(C)CCCNCCCN

> <STRUCTURE_SMILES_Desalt>
CN(C)CCCNCCCN

> <Substance_modify_yyyymmdd>
20080429

$$$$
