10563-70-9
ChemmineR-0915142007XD

 23 24  0  0  0  0  0  0  0  0  1 V2000
    3.4704   -3.3084    0.0000 C    0  0  0  0  0  0  0  0  0  0  0  0
    3.4704   -5.9687    0.0000 C    0  0  0  0  0  0  0  0  0  0  0  0
    4.6215   -3.9820    0.0000 C    0  0  0  0  0  0  0  0  0  0  0  0
    2.3107   -3.9820    0.0000 C    0  0  0  0  0  0  0  0  0  0  0  0
    2.3107   -5.3121    0.0000 C    0  0  0  0  0  0  0  0  0  0  0  0
    4.6215   -5.3121    0.0000 C    0  0  0  0  0  0  0  0  0  0  0  0
    3.4704   -1.9697    0.0000 C    0  0  0  0  0  0  0  0  0  0  0  0
    6.9237   -1.3302    0.0000 N    0  0  0  0  0  0  0  0  0  0  0  0
    2.8138   -7.1283    0.0000 C    0  0  0  0  0  0  0  0  0  0  0  0
    4.1269   -7.1283    0.0000 C    0  0  0  0  0  0  0  0  0  0  0  0
    4.6215   -1.3302    0.0000 C    0  0  0  0  0  0  0  0  0  0  0  0
    5.7811   -3.3084    0.0000 C    0  0  0  0  0  0  0  0  0  0  0  0
    1.1682   -3.3084    0.0000 C    0  0  0  0  0  0  0  0  0  0  0  0
    5.7811   -5.9687    0.0000 C    0  0  0  0  0  0  0  0  0  0  0  0
    1.1682   -5.9687    0.0000 C    0  0  0  0  0  0  0  0  0  0  0  0
    5.7811   -1.9697    0.0000 C    0  0  0  0  0  0  0  0  0  0  0  0
    8.0919   -1.9697    0.0000 C    0  0  0  0  0  0  0  0  0  0  0  0
    6.9237    0.0000    0.0000 C    0  0  0  0  0  0  0  0  0  0  0  0
    0.0000   -5.3121    0.0000 C    0  0  0  0  0  0  0  0  0  0  0  0
    6.9237   -3.9820    0.0000 C    0  0  0  0  0  0  0  0  0  0  0  0
    6.9237   -5.3121    0.0000 C    0  0  0  0  0  0  0  0  0  0  0  0
    0.0000   -3.9820    0.0000 C    0  0  0  0  0  0  0  0  0  0  0  0
    8.5267   -3.4022    0.0000 Cl   0  0  0  0  0  0  0  0  0  0  0  0
  1  3  1  0  0  0  0
  1  4  1  0  0  0  0
  1  7  2  0  0  0  0
  2  5  1  0  0  0  0
  2  9  1  0  0  0  0
  2 10  1  0  0  0  0
  2  6  1  0  0  0  0
  3  6  2  0  0  0  0
  3 12  1  0  0  0  0
  4  5  2  0  0  0  0
  4 13  1  0  0  0  0
  5 15  1  0  0  0  0
  6 14  1  0  0  0  0
  7 11  1  0  0  0  0
  8 16  1  0  0  0  0
  8 17  1  0  0  0  0
  8 18  1  0  0  0  0
 11 16  1  0  0  0  0
 12 20  2  0  0  0  0
 13 22  2  0  0  0  0
 14 21  2  0  0  0  0
 15 19  2  0  0  0  0
 19 22  1  0  0  0  0
 20 21  1  0  0  0  0
M  END
> <ID>
12010

> <Formula>
C21H26ClN

> <FW>
327.8908 (291.4299+36.4609)

> <DSSTox_CID>
26835

> <DSSTox_RID>
81947

> <DSSTox_GSID>
46835

> <DSSTox_FileID_Sort>
6628

> <TS_ChemName>
Melitracen hydrochloride

> <TS_ChemName_Synonyms>


> <TS_CASRN>
10563-70-9

> <CASRN_ChemName_Relationship>
primary

> <TS_Description>
single chemical compound

> <ChemNote>
parent [5118-29-6]

> <STRUCTURE_Shown>
tested chemical

> <STRUCTURE_Formula>
C21H26ClN

> <STRUCTURE_MW>
327.8908

> <STRUCTURE_ChemType>
defined organic

> <STRUCTURE_DefinedOrganicForm>
complex

> <STRUCTURE_IUPAC>
3-(10,10-dimethylanthracen-9(10H)-ylidene)-N,N-dimethylpropan-1-amine hydrochloride (1:1)

> <STRUCTURE_SMILES>
Cl.CN(C)CC\C=C2/c1ccccc1C(C)(C)c3ccccc23

> <STRUCTURE_SMILES_Desalt>
CN(C)CC\C=C2/c1ccccc1C(C)(C)c3ccccc23

> <Substance_modify_yyyymmdd>
20110731

$$$$
