105613-48-7
ChemmineR-0915142007XD

 21 20  0  0  1  0  0  0  0  0  1 V2000
    0.0000   -3.6315    0.0000 C   0  0  0  0  0  0  0  0  0  0  0  0
    1.3349   -3.6315    0.0000 C   0  0  0  0  0  0  0  0  0  0  0  0
    1.3349   -4.9664    0.0000 H   0  0  0  0  0  0  0  0  0  0  0  0
    2.6586   -3.6315    0.0000 N   0  0  0  0  0  0  0  0  0  0  0  0
    3.3260   -2.4775    0.0000 C   0  0  0  0  0  0  0  0  0  0  0  0
    4.6610   -2.4775    0.0000 C   0  0  0  0  0  0  0  0  0  0  0  0
    4.6610   -3.8125    0.0000 C   0  0  0  0  0  0  0  0  0  0  0  0
    4.6610   -1.1539    0.0000 C   0  0  0  0  0  0  0  0  0  0  0  0
    5.9846   -2.4775    0.0000 C   0  0  0  0  0  0  0  0  0  0  0  0
    6.6520   -1.3349    0.0000 N   0  0  0  0  0  0  0  0  0  0  0  0
    7.9870   -1.3349    0.0000 C   0  0  0  0  0  0  0  0  0  0  0  0
    7.9870   -2.6586    0.0000 H   0  0  0  0  0  0  0  0  0  0  0  0
    7.9870    0.0000    0.0000 C   0  0  0  0  0  0  0  0  0  0  0  0
    9.3219   -1.3349    0.0000 C   0  0  0  0  0  0  0  0  0  0  0  0
    9.9781   -2.4775    0.0000 C   0  0  0  0  0  0  0  0  0  0  0  0
    9.9781   -0.1810    0.0000 N   0  0  0  0  0  0  0  0  0  0  0  0
   11.3130   -0.1810    0.0000 O   0  0  0  0  0  0  0  0  0  0  0  0
    1.3349   -2.3078    0.0000 C   0  0  0  0  0  0  0  0  0  0  0  0
    2.4889   -1.6404    0.0000 C   0  0  0  0  0  0  0  0  0  0  0  0
    0.1810   -1.6404    0.0000 N   0  0  0  0  0  0  0  0  0  0  0  0
    0.1810   -0.3055    0.0000 O   0  0  0  0  0  0  0  0  0  0  0  0
  1  2  1  0  0  0  0
  2  3  1  1  0  0  0
  2  4  1  0  0  0  0
  2 18  1  0  0  0  0
  4  5  1  0  0  0  0
  5  6  1  0  0  0  0
  6  7  1  0  0  0  0
  6  8  1  0  0  0  0
  6  9  1  0  0  0  0
  9 10  1  0  0  0  0
 10 11  1  0  0  0  0
 11 12  1  1  0  0  0
 11 13  1  0  0  0  0
 11 14  1  0  0  0  0
 14 15  1  0  0  0  0
 14 16  2  0  0  0  0
 16 17  1  0  0  0  0
 18 19  1  0  0  0  0
 18 20  2  0  0  0  0
 20 21  1  0  0  0  0
M  END
> <ID>
16020

> <Formula>
C13H28N4O2

> <FW>
272.387

> <DSSTox_CID>
31403

> <DSSTox_RID>
97289

> <DSSTox_GSID>
57614

> <DSSTox_FileID_Sort>
8356

> <TS_ChemName>
Exametazime

> <TS_ChemName_Synonyms>


> <TS_CASRN>
105613-48-7

> <CASRN_ChemName_Relationship>
primary

> <TS_Description>
single chemical compound

> <ChemNote>


> <STRUCTURE_Shown>
tested chemical

> <STRUCTURE_Formula>
C13H28N4O2

> <STRUCTURE_MW>
272.387

> <STRUCTURE_ChemType>
defined organic

> <STRUCTURE_DefinedOrganicForm>
parent

> <STRUCTURE_IUPAC>
N,N'-bis[(2R,3E)-3-(hydroxyimino)butan-2-yl]-2,2-dimethylpropane-1,3-diamine

> <STRUCTURE_SMILES>
C/C(=N\O)[C@@H](C)NCC(C)(C)CN[C@H](C)C(\C)=N\O

> <STRUCTURE_SMILES_Desalt>
C/C(=N\O)[C@@H](C)NCC(C)(C)CN[C@H](C)C(\C)=N\O

> <Substance_modify_yyyymmdd>
20131018

$$$$
