105624-86-0
ChemmineR-0915142007XD

 24 26  0  0  0  0  0  0  0  0  1 V2000
    5.3081   -3.3525    0.0000 N   0  0  0  0  0  0  0  0  0  0  0  0
    4.5528   -2.3074    0.0000 C   0  0  0  0  0  0  0  0  0  0  0  0
    4.5528   -4.3665    0.0000 C   0  0  0  0  0  0  0  0  0  0  0  0
    8.4123   -4.4286    0.0000 C   0  0  0  0  0  0  0  0  0  0  0  0
    9.6953   -4.4286    0.0000 C   0  0  0  0  0  0  0  0  0  0  0  0
    7.7811   -3.3214    0.0000 C   0  0  0  0  0  0  0  0  0  0  0  0
    3.3318   -4.0044    0.0000 C   0  0  0  0  0  0  0  0  0  0  0  0
    3.3318   -2.7110    0.0000 C   0  0  0  0  0  0  0  0  0  0  0  0
   10.3472   -3.3214    0.0000 C   0  0  0  0  0  0  0  0  0  0  0  0
    4.9770   -5.5978    0.0000 O   0  0  0  0  0  0  0  0  0  0  0  0
    4.9770   -1.1071    0.0000 O   0  0  0  0  0  0  0  0  0  0  0  0
    8.4226   -2.2143    0.0000 C   0  0  0  0  0  0  0  0  0  0  0  0
    9.7160   -2.2143    0.0000 C   0  0  0  0  0  0  0  0  0  0  0  0
    2.2350   -4.6148    0.0000 C   0  0  0  0  0  0  0  0  0  0  0  0
    2.2350   -2.0798    0.0000 C   0  0  0  0  0  0  0  0  0  0  0  0
    1.1175   -2.7110    0.0000 C   0  0  0  0  0  0  0  0  0  0  0  0
    1.1175   -4.0044    0.0000 C   0  0  0  0  0  0  0  0  0  0  0  0
    7.7914   -1.1071    0.0000 C   0  0  0  0  0  0  0  0  0  0  0  0
    8.4537    0.0000    0.0000 C   0  0  0  0  0  0  0  0  0  0  0  0
    6.5084   -1.0865    0.0000 C   0  0  0  0  0  0  0  0  0  0  0  0
    7.7604   -5.5461    0.0000 C   0  0  0  0  0  0  0  0  0  0  0  0
    6.4256   -5.5771    0.0000 C   0  0  0  0  0  0  0  0  0  0  0  0
    8.4123   -6.6636    0.0000 C   0  0  0  0  0  0  0  0  0  0  0  0
    0.0000   -2.0591    0.0000 O   0  0  0  0  0  0  0  0  0  0  0  0
  1  2  1  0  0  0  0
  1  3  1  0  0  0  0
  1  6  1  0  0  0  0
  2  8  1  0  0  0  0
  2 11  2  0  0  0  0
  3  7  1  0  0  0  0
  3 10  2  0  0  0  0
  4  6  2  0  0  0  0
  4  5  1  0  0  0  0
  4 21  1  0  0  0  0
  5  9  2  0  0  0  0
  6 12  1  0  0  0  0
  7 14  1  0  0  0  0
  7  8  2  0  0  0  0
  8 15  1  0  0  0  0
  9 13  1  0  0  0  0
 12 13  2  0  0  0  0
 12 18  1  0  0  0  0
 14 17  2  0  0  0  0
 15 16  2  0  0  0  0
 16 17  1  0  0  0  0
 16 24  1  0  0  0  0
 18 19  1  0  0  0  0
 18 20  1  0  0  0  0
 21 22  1  0  0  0  0
 21 23  1  0  0  0  0
M  END
> <ID>
12127

> <Formula>
C20H21NO3

> <FW>
323.3856

> <DSSTox_CID>
26970

> <DSSTox_RID>
82029

> <DSSTox_GSID>
46970

> <DSSTox_FileID_Sort>
6710

> <TS_ChemName>
5HPP-33

> <TS_ChemName_Synonyms>


> <TS_CASRN>
105624-86-0

> <CASRN_ChemName_Relationship>
primary

> <TS_Description>
single chemical compound

> <ChemNote>


> <STRUCTURE_Shown>
tested chemical

> <STRUCTURE_Formula>
C20H21NO3

> <STRUCTURE_MW>
323.3856

> <STRUCTURE_ChemType>
defined organic

> <STRUCTURE_DefinedOrganicForm>
parent

> <STRUCTURE_IUPAC>
2-[2,6-di(propan-2-yl)phenyl]-5-hydroxy-1H-isoindole-1,3(2H)-dione

> <STRUCTURE_SMILES>
CC(C)c1cccc(C(C)C)c1N3C(=O)c2ccc(O)cc2C3=O

> <STRUCTURE_SMILES_Desalt>
CC(C)c1cccc(C(C)C)c1N3C(=O)c2ccc(O)cc2C3=O

> <Substance_modify_yyyymmdd>
20100119

$$$$
