105628-07-7
ChemmineR-0915142007XD

 21 22  0  0  0  0  0  0  0  0  1 V2000
    0.0000   -2.1669    0.0000 C    0  0  0  0  0  0  0  0  0  0  0  0
    0.0000   -0.8328    0.0000 N    0  0  0  0  0  0  0  0  0  0  0  0
    1.0565    0.0000    0.0000 C    0  0  0  0  0  0  0  0  0  0  0  0
    2.3289   -0.3007    0.0000 C    0  0  0  0  0  0  0  0  0  0  0  0
    2.9227   -1.4960    0.0000 N    0  0  0  0  0  0  0  0  0  0  0  0
    2.3289   -2.6990    0.0000 C    0  0  0  0  0  0  0  0  0  0  0  0
    1.0565   -2.9998    0.0000 C    0  0  0  0  0  0  0  0  0  0  0  0
    4.2491   -5.4752    0.0000 C    0  0  0  0  0  0  0  0  0  0  0  0
    3.0846   -4.8197    0.0000 C    0  0  0  0  0  0  0  0  0  0  0  0
    3.0846   -3.4933    0.0000 C    0  0  0  0  0  0  0  0  0  0  0  0
    4.2491   -2.8378    0.0000 C    0  0  0  0  0  0  0  0  0  0  0  0
    5.4135   -4.8197    0.0000 C    0  0  0  0  0  0  0  0  0  0  0  0
    5.4135   -3.4933    0.0000 C    0  0  0  0  0  0  0  0  0  0  0  0
    6.5625   -2.8378    0.0000 C    0  0  0  0  0  0  0  0  0  0  0  0
    7.7115   -3.4933    0.0000 C    0  0  0  0  0  0  0  0  0  0  0  0
    7.7115   -4.8197    0.0000 N    0  0  0  0  0  0  0  0  0  0  0  0
    6.5625   -5.4752    0.0000 C    0  0  0  0  0  0  0  0  0  0  0  0
    4.2491   -1.4960    0.0000 S    0  0  0  0  0  0  0  0  0  0  0  0
    4.2491   -0.1774    0.0000 O    0  0  0  0  0  0  0  0  0  0  0  0
    5.5909   -1.4960    0.0000 O    0  0  0  0  0  0  0  0  0  0  0  0
    0.2699   -4.3570    0.0000 Cl   0  0  0  0  0  0  0  0  0  0  0  0
  1  7  1  0  0  0  0
  1  2  1  0  0  0  0
  2  3  1  0  0  0  0
  3  4  1  0  0  0  0
  4  5  1  0  0  0  0
  5  6  1  0  0  0  0
  5 18  1  0  0  0  0
  6  7  1  0  0  0  0
  8 12  1  0  0  0  0
  8  9  2  0  0  0  0
  9 10  1  0  0  0  0
 10 11  2  0  0  0  0
 11 18  1  0  0  0  0
 11 13  1  0  0  0  0
 12 13  2  0  0  0  0
 12 17  1  0  0  0  0
 13 14  1  0  0  0  0
 14 15  2  0  0  0  0
 15 16  1  0  0  0  0
 16 17  2  0  0  0  0
 18 19  2  0  0  0  0
 18 20  2  0  0  0  0
M  END
> <ID>
11072

> <Formula>
C14H18ClN3O2S

> <FW>
327.8296 (291.3687+36.4609)

> <DSSTox_CID>
25615

> <DSSTox_RID>
81004

> <DSSTox_GSID>
45615

> <DSSTox_FileID_Sort>
5685

> <TS_ChemName>
Fasudil hydrochloride

> <TS_ChemName_Synonyms>


> <TS_CASRN>
105628-07-7

> <CASRN_ChemName_Relationship>
primary

> <TS_Description>
single chemical compound

> <ChemNote>
parent [103745-39-7]

> <STRUCTURE_Shown>
tested chemical

> <STRUCTURE_Formula>
C14H18ClN3O2S

> <STRUCTURE_MW>
327.8296

> <STRUCTURE_ChemType>
defined organic

> <STRUCTURE_DefinedOrganicForm>
complex

> <STRUCTURE_IUPAC>
5-(1,4-diazepan-1-ylsulfonyl)isoquinoline hydrochloride (1:1)

> <STRUCTURE_SMILES>
Cl.O=S(=O)(c2cccc1cnccc12)N3CCCNCC3

> <STRUCTURE_SMILES_Desalt>
O=S(=O)(c2cccc1cnccc12)N3CCCNCC3

> <Substance_modify_yyyymmdd>
20100107

$$$$
