105816-04-4
ChemmineR-0915142007XD

 23 24  0  0  1  0  0  0  0  0  1 V2000
    8.0535   -2.6718    0.0000 C   0  0  0  0  0  0  0  0  0  0  0  0
    6.9138   -2.0134    0.0000 C   0  0  0  0  0  0  0  0  0  0  0  0
    8.0535   -4.0014    0.0000 C   0  0  0  0  0  0  0  0  0  0  0  0
    9.2184   -2.0134    0.0000 C   0  0  0  0  0  0  0  0  0  0  0  0
    5.7615   -2.6718    0.0000 N   0  0  0  0  0  0  0  0  0  0  0  0
    6.9138   -0.6838    0.0000 O   0  0  0  0  0  0  0  0  0  0  0  0
    9.2184   -4.6599    0.0000 C   0  0  0  0  0  0  0  0  0  0  0  0
   10.3707   -2.6718    0.0000 C   0  0  0  0  0  0  0  0  0  0  0  0
    4.6092   -2.0134    0.0000 C   0  0  0  0  0  0  0  0  0  0  0  0
   10.3707   -4.0014    0.0000 C   0  0  0  0  0  0  0  0  0  0  0  0
    3.4569   -2.6718    0.0000 C   0  0  0  0  0  0  0  0  0  0  0  0
    4.6092   -0.6838    0.0000 C   0  0  0  0  0  0  0  0  0  0  0  0
   11.5104   -4.6599    0.0000 C   0  0  0  0  0  0  0  0  0  0  0  0
    2.3046   -2.0134    0.0000 C   0  0  0  0  0  0  0  0  0  0  0  0
    5.7615    0.0000    0.0000 O   0  0  0  0  0  0  0  0  0  0  0  0
    3.4569    0.0000    0.0000 O   0  0  0  0  0  0  0  0  0  0  0  0
   11.5104   -5.9894    0.0000 C   0  0  0  0  0  0  0  0  0  0  0  0
   12.6627   -4.0014    0.0000 C   0  0  0  0  0  0  0  0  0  0  0  0
    1.1650   -2.6718    0.0000 C   0  0  0  0  0  0  0  0  0  0  0  0
    2.3046   -0.6838    0.0000 C   0  0  0  0  0  0  0  0  0  0  0  0
    0.0000   -2.0134    0.0000 C   0  0  0  0  0  0  0  0  0  0  0  0
    1.1650    0.0000    0.0000 C   0  0  0  0  0  0  0  0  0  0  0  0
    0.0000   -0.6838    0.0000 C   0  0  0  0  0  0  0  0  0  0  0  0
  1  2  1  1  0  0  0
  1  3  1  0  0  0  0
  1  4  1  0  0  0  0
  2  5  1  0  0  0  0
  2  6  2  0  0  0  0
  3  7  1  0  0  0  0
  4  8  1  0  0  0  0
  5  9  1  0  0  0  0
  7 10  1  0  0  0  0
  8 10  1  0  0  0  0
  9 11  1  0  0  0  0
  9 12  1  6  0  0  0
 10 13  1  6  0  0  0
 11 14  1  0  0  0  0
 12 15  1  0  0  0  0
 12 16  2  0  0  0  0
 13 17  1  0  0  0  0
 13 18  1  0  0  0  0
 14 19  2  0  0  0  0
 14 20  1  0  0  0  0
 19 21  1  0  0  0  0
 20 22  2  0  0  0  0
 21 23  2  0  0  0  0
 22 23  1  0  0  0  0
M  END
> <ID>
7885

> <Formula>
C19H27NO3

> <FW>
317.4226

> <DSSTox_CID>
20687

> <DSSTox_RID>
79543

> <DSSTox_GSID>
40687

> <DSSTox_FileID_Sort>
4225

> <TS_ChemName>
Nateglinide

> <TS_ChemName_Synonyms>


> <TS_CASRN>
105816-04-4

> <CASRN_ChemName_Relationship>
primary

> <TS_Description>
single chemical compound

> <ChemNote>
stereochem

> <STRUCTURE_Shown>
tested chemical

> <STRUCTURE_Formula>
C19H27NO3

> <STRUCTURE_MW>
317.4226

> <STRUCTURE_ChemType>
defined organic

> <STRUCTURE_DefinedOrganicForm>
parent

> <STRUCTURE_IUPAC>
N-{[trans-4-(propan-2-yl)cyclohexyl]carbonyl}-D-phenylalanine

> <STRUCTURE_SMILES>
CC(C)[C@@H]1CC[C@H](CC1)C(=O)N[C@H](Cc2ccccc2)C(=O)O

> <STRUCTURE_SMILES_Desalt>
CC(C)[C@@H]1CC[C@H](CC1)C(=O)N[C@H](Cc2ccccc2)C(=O)O

> <Substance_modify_yyyymmdd>
20080429

$$$$
