10592-13-9
ChemmineR-0915142007XD

 35 37  0  0  1  0  0  0  0  0  1 V2000
    6.9438   -2.0369    0.0000 C    0  0  0  0  0  0  0  0  0  0  0  0
    4.6524   -2.0369    0.0000 C    0  0  0  0  0  0  0  0  0  0  0  0
    6.9438   -3.3678    0.0000 C    0  0  0  0  0  0  0  0  0  0  0  0
    9.2469   -2.0369    0.0000 C    0  0  0  0  0  0  0  0  0  0  0  0
    5.7981   -1.3540    0.0000 C    0  0  0  0  0  0  0  0  0  0  0  0
    8.0780   -1.3540    0.0000 C    0  0  0  0  0  0  0  0  0  0  0  0
    9.2469   -3.3678    0.0000 C    0  0  0  0  0  0  0  0  0  0  0  0
    3.4835   -1.3540    0.0000 C    0  0  0  0  0  0  0  0  0  0  0  0
    4.6524   -3.3678    0.0000 C    0  0  0  0  0  0  0  0  0  0  0  0
    8.0780   -4.0159    0.0000 C    0  0  0  0  0  0  0  0  0  0  0  0
    2.3030   -2.0369    0.0000 C    0  0  0  0  0  0  0  0  0  0  0  0
    5.7981   -4.0159    0.0000 C    0  0  0  0  0  0  0  0  0  0  0  0
    2.3030   -3.3678    0.0000 C    0  0  0  0  0  0  0  0  0  0  0  0
    3.4835   -4.0159    0.0000 C    0  0  0  0  0  0  0  0  0  0  0  0
   10.4505   -1.3540    0.0000 C    0  0  0  0  0  0  0  0  0  0  0  0
    8.0780   -5.3699    0.0000 N    0  0  0  0  0  0  0  0  0  0  0  0
    8.0780   -0.0347    0.0000 O    0  0  0  0  0  0  0  0  0  0  0  0
    3.4835   -0.0347    0.0000 O    0  0  0  0  0  0  0  0  0  0  0  0
    1.1573   -1.3540    0.0000 C    0  0  0  0  0  0  0  0  0  0  0  0
    6.9438   -0.6712    0.0000 O    0  0  0  0  0  0  0  0  0  0  0  0
   10.4505    0.0000    0.0000 O    0  0  0  0  0  0  0  0  0  0  0  0
    5.7981   -0.0347    0.0000 O    0  0  0  0  0  0  0  0  0  0  0  0
   10.4505   -4.0159    0.0000 O    0  0  0  0  0  0  0  0  0  0  0  0
    5.7981   -5.3236    0.0000 O    0  0  0  0  0  0  0  0  0  0  0  0
   11.5731   -2.0021    0.0000 N    0  0  0  0  0  0  0  0  0  0  0  0
    1.1573   -4.0159    0.0000 C    0  0  0  0  0  0  0  0  0  0  0  0
    3.4835   -5.2195    0.0000 C    0  0  0  0  0  0  0  0  0  0  0  0
    1.1573   -0.0347    0.0000 O    0  0  0  0  0  0  0  0  0  0  0  0
    0.0000   -3.3678    0.0000 C    0  0  0  0  0  0  0  0  0  0  0  0
    0.0000   -2.0369    0.0000 C    0  0  0  0  0  0  0  0  0  0  0  0
    9.2469   -6.0411    0.0000 C    0  0  0  0  0  0  0  0  0  0  0  0
    6.9438   -6.0411    0.0000 C    0  0  0  0  0  0  0  0  0  0  0  0
    4.6292   -4.6755    0.0000 H    0  0  0  0  0  0  0  0  0  0  0  0
    6.9438   -4.6987    0.0000 H    0  0  0  0  0  0  0  0  0  0  0  0
    2.1294   -6.5851    0.0000 Cl   0  0  0  0  0  0  0  0  0  0  0  0
  1  3  1  0  0  0  0
  1  5  1  0  0  0  0
  1  6  1  0  0  0  0
  1 20  1  1  0  0  0
  2  5  2  0  0  0  0
  2  8  1  0  0  0  0
  2  9  1  0  0  0  0
  3 10  1  0  0  0  0
  3 12  1  0  0  0  0
  3 34  1  1  0  0  0
  4  6  1  0  0  0  0
  4  7  2  0  0  0  0
  4 15  1  0  0  0  0
  5 22  1  0  0  0  0
  6 17  2  0  0  0  0
  7 23  1  0  0  0  0
  7 10  1  0  0  0  0
  8 11  1  0  0  0  0
  8 18  2  0  0  0  0
  9 14  1  0  0  0  0
  9 33  1  1  0  0  0
  9 12  1  0  0  0  0
 10 16  1  1  0  0  0
 11 19  1  0  0  0  0
 11 13  2  0  0  0  0
 12 24  1  1  0  0  0
 13 14  1  0  0  0  0
 13 26  1  0  0  0  0
 14 27  1  1  0  0  0
 15 21  2  0  0  0  0
 15 25  1  0  0  0  0
 16 31  1  0  0  0  0
 16 32  1  0  0  0  0
 19 28  1  0  0  0  0
 19 30  2  0  0  0  0
 26 29  2  0  0  0  0
 29 30  1  0  0  0  0
M  END
> <ID>
10926

> <Formula>
C22H25ClN2O8

> <FW>
480.8955 (444.4346+36.4609)

> <DSSTox_CID>
25405

> <DSSTox_RID>
80856

> <DSSTox_GSID>
45405

> <DSSTox_FileID_Sort>
5537

> <TS_ChemName>
Doxycycline hydrochloride

> <TS_ChemName_Synonyms>


> <TS_CASRN>
10592-13-9

> <CASRN_ChemName_Relationship>
primary

> <TS_Description>
single chemical compound

> <ChemNote>
stereochem; parent [564-25-0]

> <STRUCTURE_Shown>
tested chemical

> <STRUCTURE_Formula>
C22H25ClN2O8

> <STRUCTURE_MW>
480.8955

> <STRUCTURE_ChemType>
defined organic

> <STRUCTURE_DefinedOrganicForm>
complex

> <STRUCTURE_IUPAC>
(4S,4aR,5S,5aR,6R,12aS)-4-(dimethylamino)-3,5,10,12,12a-pentahydroxy-6-methyl-1,11-dioxo-1,4,4a,5,5a,6,11,12a-octahydrotetracene-2-carboxamide hydrochloride (1:1)

> <STRUCTURE_SMILES>
Cl.NC(=O)C=3C(=O)[C@@]4(O)C(O)=C2C(=O)c1c(O)cccc1[C@H](C)[C@H]2[C@H](O)[C@H]4[C@@H](C=3O)N(C)C

> <STRUCTURE_SMILES_Desalt>
NC(=O)C=3C(=O)[C@@]4(O)C(O)=C2C(=O)c1c(O)cccc1[C@H](C)[C@H]2[C@H](O)[C@H]4[C@@H](C=3O)N(C)C

> <Substance_modify_yyyymmdd>
20100107

$$$$
