10599-70-9
ChemmineR-0915142007XD

 10 10  0  0  0  0  0  0  0  0  1 V2000
    2.3423    0.0000    0.0000 O   0  0  0  0  0  0  0  0  0  0  0  0
    1.2683   -0.7876    0.0000 C   0  0  0  0  0  0  0  0  0  0  0  0
    3.4163   -0.7876    0.0000 C   0  0  0  0  0  0  0  0  0  0  0  0
    1.6826   -2.0559    0.0000 C   0  0  0  0  0  0  0  0  0  0  0  0
    3.0123   -2.0559    0.0000 C   0  0  0  0  0  0  0  0  0  0  0  0
    3.7845   -3.1299    0.0000 C   0  0  0  0  0  0  0  0  0  0  0  0
    3.2527   -4.3471    0.0000 O   0  0  0  0  0  0  0  0  0  0  0  0
    5.1142   -3.0021    0.0000 C   0  0  0  0  0  0  0  0  0  0  0  0
    4.6795   -0.3887    0.0000 C   0  0  0  0  0  0  0  0  0  0  0  0
    0.0000   -0.3887    0.0000 C   0  0  0  0  0  0  0  0  0  0  0  0
  1  2  1  0  0  0  0
  1  3  1  0  0  0  0
  2  4  2  0  0  0  0
  2 10  1  0  0  0  0
  3  5  2  0  0  0  0
  3  9  1  0  0  0  0
  4  5  1  0  0  0  0
  5  6  1  0  0  0  0
  6  7  2  0  0  0  0
  6  8  1  0  0  0  0
M  END
> <ID>
6267

> <Formula>
C8H10O2

> <FW>
138.1638

> <DSSTox_CID>
10317

> <DSSTox_RID>
78843

> <DSSTox_GSID>
30317

> <DSSTox_FileID_Sort>
3525

> <TS_ChemName>
3-Acetyl-2,5-dimethylfuran

> <TS_ChemName_Synonyms>


> <TS_CASRN>
10599-70-9

> <CASRN_ChemName_Relationship>
primary

> <TS_Description>
single chemical compound

> <ChemNote>


> <STRUCTURE_Shown>
tested chemical

> <STRUCTURE_Formula>
C8H10O2

> <STRUCTURE_MW>
138.1638

> <STRUCTURE_ChemType>
defined organic

> <STRUCTURE_DefinedOrganicForm>
parent

> <STRUCTURE_IUPAC>
1-(2,5-dimethylfuran-3-yl)ethanone

> <STRUCTURE_SMILES>
Cc1cc(C(=O)C)c(C)o1

> <STRUCTURE_SMILES_Desalt>
Cc1cc(C(=O)C)c(C)o1

> <Substance_modify_yyyymmdd>
20080429

$$$$
