10595-72-9
ChemmineR-0915142007XD

 37 36  0  0  0  0  0  0  0  0  1 V2000
   14.5242   -1.1337    0.0000 C   0  0  0  0  0  0  0  0  0  0  0  0
   13.3598   -0.5209    0.0000 C   0  0  0  0  0  0  0  0  0  0  0  0
   12.2261   -1.2257    0.0000 C   0  0  0  0  0  0  0  0  0  0  0  0
   14.5548   -2.4820    0.0000 O   0  0  0  0  0  0  0  0  0  0  0  0
   15.6273   -0.4596    0.0000 O   0  0  0  0  0  0  0  0  0  0  0  0
    7.5992   -1.3789    0.0000 C   0  0  0  0  0  0  0  0  0  0  0  0
    8.7329   -0.6741    0.0000 C   0  0  0  0  0  0  0  0  0  0  0  0
    9.8973   -1.2870    0.0000 C   0  0  0  0  0  0  0  0  0  0  0  0
    6.4348   -0.7354    0.0000 O   0  0  0  0  0  0  0  0  0  0  0  0
    7.6298   -2.6965    0.0000 O   0  0  0  0  0  0  0  0  0  0  0  0
   11.0310   -0.5822    0.0000 S   0  0  0  0  0  0  0  0  0  0  0  0
    6.5267   -3.4012    0.0000 C   0  0  0  0  0  0  0  0  0  0  0  0
    6.5573   -4.7188    0.0000 C   0  0  0  0  0  0  0  0  0  0  0  0
    5.4236   -5.4236    0.0000 C   0  0  0  0  0  0  0  0  0  0  0  0
    5.4849   -6.7718    0.0000 C   0  0  0  0  0  0  0  0  0  0  0  0
    4.3511   -7.4766    0.0000 C   0  0  0  0  0  0  0  0  0  0  0  0
    4.3818   -8.7942    0.0000 C   0  0  0  0  0  0  0  0  0  0  0  0
    3.2480   -9.4989    0.0000 C   0  0  0  0  0  0  0  0  0  0  0  0
    3.3093  -10.8165    0.0000 C   0  0  0  0  0  0  0  0  0  0  0  0
    2.1756  -11.5213    0.0000 C   0  0  0  0  0  0  0  0  0  0  0  0
    2.2062  -12.8695    0.0000 C   0  0  0  0  0  0  0  0  0  0  0  0
    1.1031  -13.5743    0.0000 C   0  0  0  0  0  0  0  0  0  0  0  0
    1.1337  -14.8919    0.0000 C   0  0  0  0  0  0  0  0  0  0  0  0
    0.0000  -15.5967    0.0000 C   0  0  0  0  0  0  0  0  0  0  0  0
   16.8223   -1.0725    0.0000 C   0  0  0  0  0  0  0  0  0  0  0  0
   17.9561   -0.3677    0.0000 C   0  0  0  0  0  0  0  0  0  0  0  0
   19.1205   -1.0112    0.0000 C   0  0  0  0  0  0  0  0  0  0  0  0
   20.2542   -0.3064    0.0000 C   0  0  0  0  0  0  0  0  0  0  0  0
   21.4186   -0.9193    0.0000 C   0  0  0  0  0  0  0  0  0  0  0  0
   22.5523   -0.2145    0.0000 C   0  0  0  0  0  0  0  0  0  0  0  0
   23.7167   -0.8580    0.0000 C   0  0  0  0  0  0  0  0  0  0  0  0
   24.8505   -0.1532    0.0000 C   0  0  0  0  0  0  0  0  0  0  0  0
   26.0148   -0.7660    0.0000 C   0  0  0  0  0  0  0  0  0  0  0  0
   27.1792   -0.0613    0.0000 C   0  0  0  0  0  0  0  0  0  0  0  0
   28.3436   -0.7048    0.0000 C   0  0  0  0  0  0  0  0  0  0  0  0
   29.4467    0.0000    0.0000 C   0  0  0  0  0  0  0  0  0  0  0  0
   30.6418   -0.6435    0.0000 C   0  0  0  0  0  0  0  0  0  0  0  0
  1  2  1  0  0  0  0
  1  5  1  0  0  0  0
  1  4  2  0  0  0  0
  2  3  1  0  0  0  0
  3 11  1  0  0  0  0
  5 25  1  0  0  0  0
  6  7  1  0  0  0  0
  6 10  1  0  0  0  0
  6  9  2  0  0  0  0
  7  8  1  0  0  0  0
  8 11  1  0  0  0  0
 10 12  1  0  0  0  0
 12 13  1  0  0  0  0
 13 14  1  0  0  0  0
 14 15  1  0  0  0  0
 15 16  1  0  0  0  0
 16 17  1  0  0  0  0
 17 18  1  0  0  0  0
 18 19  1  0  0  0  0
 19 20  1  0  0  0  0
 20 21  1  0  0  0  0
 21 22  1  0  0  0  0
 22 23  1  0  0  0  0
 23 24  1  0  0  0  0
 25 26  1  0  0  0  0
 26 27  1  0  0  0  0
 27 28  1  0  0  0  0
 28 29  1  0  0  0  0
 29 30  1  0  0  0  0
 30 31  1  0  0  0  0
 31 32  1  0  0  0  0
 32 33  1  0  0  0  0
 33 34  1  0  0  0  0
 34 35  1  0  0  0  0
 35 36  1  0  0  0  0
 36 37  1  0  0  0  0
M  END
> <ID>
5346

> <Formula>
C32H62O4S

> <FW>
542.8973

> <DSSTox_CID>
7728

> <DSSTox_RID>
78550

> <DSSTox_GSID>
27728

> <DSSTox_FileID_Sort>
3233

> <TS_ChemName>
Propanoic acid, 3,3'-thiobis-, ditridecyl ester

> <TS_ChemName_Synonyms>


> <TS_CASRN>
10595-72-9

> <CASRN_ChemName_Relationship>
primary

> <TS_Description>
single chemical compound

> <ChemNote>


> <STRUCTURE_Shown>
tested chemical

> <STRUCTURE_Formula>
C32H62O4S

> <STRUCTURE_MW>
542.8973

> <STRUCTURE_ChemType>
defined organic

> <STRUCTURE_DefinedOrganicForm>
parent

> <STRUCTURE_IUPAC>
ditridecyl 3,3'-sulfanediyldipropanoate

> <STRUCTURE_SMILES>
O=C(OCCCCCCCCCCCCC)CCSCCC(=O)OCCCCCCCCCCCCC

> <STRUCTURE_SMILES_Desalt>
O=C(OCCCCCCCCCCCCC)CCSCCC(=O)OCCCCCCCCCCCCC

> <Substance_modify_yyyymmdd>
20080429

$$$$
