106-71-8
ChemmineR-0915142007XD

  9  8  0  0  0  0  0  0  0  0  1 V2000
    5.7289   -1.3319    0.0000 C   0  0  0  0  0  0  0  0  0  0  0  0
    6.8843   -2.0059    0.0000 C   0  0  0  0  0  0  0  0  0  0  0  0
    8.0237   -1.3319    0.0000 C   0  0  0  0  0  0  0  0  0  0  0  0
    5.7289    0.0000    0.0000 O   0  0  0  0  0  0  0  0  0  0  0  0
    4.6056   -2.0059    0.0000 O   0  0  0  0  0  0  0  0  0  0  0  0
    3.4502   -1.3319    0.0000 C   0  0  0  0  0  0  0  0  0  0  0  0
    2.2948   -2.0059    0.0000 C   0  0  0  0  0  0  0  0  0  0  0  0
    1.1394   -1.3319    0.0000 C   0  0  0  0  0  0  0  0  0  0  0  0
    0.0000   -2.0059    0.0000 N   0  0  0  0  0  0  0  0  0  0  0  0
  1  2  1  0  0  0  0
  1  5  1  0  0  0  0
  1  4  2  0  0  0  0
  2  3  2  0  0  0  0
  5  6  1  0  0  0  0
  6  7  1  0  0  0  0
  7  8  1  0  0  0  0
  8  9  3  0  0  0  0
M  END
> <ID>
10427

> <Formula>
C6H7NO2

> <FW>
125.1253

> <DSSTox_CID>
24776

> <DSSTox_RID>
80466

> <DSSTox_GSID>
44776

> <DSSTox_FileID_Sort>
5148

> <TS_ChemName>
2-Cyanoethyl prop-2-enoate

> <TS_ChemName_Synonyms>
2-Cyanoethyl prop-2-enoate (2-Propenoic acid, 2-cyanoethyl ester)

> <TS_CASRN>
106-71-8

> <CASRN_ChemName_Relationship>
primary

> <TS_Description>
single chemical compound

> <ChemNote>


> <STRUCTURE_Shown>
tested chemical

> <STRUCTURE_Formula>
C6H7NO2

> <STRUCTURE_MW>
125.1253

> <STRUCTURE_ChemType>
defined organic

> <STRUCTURE_DefinedOrganicForm>
parent

> <STRUCTURE_IUPAC>
2-cyanoethyl prop-2-enoate

> <STRUCTURE_SMILES>
C=CC(=O)OCCC#N

> <STRUCTURE_SMILES_Desalt>
C=CC(=O)OCCC#N

> <Substance_modify_yyyymmdd>
20091116

$$$$
