106-19-4
ChemmineR-0915142007XD

 16 15  0  0  0  0  0  0  0  0  1 V2000
    4.5824   -1.3285    0.0000 C   0  0  0  0  0  0  0  0  0  0  0  0
    5.7318   -2.0002    0.0000 C   0  0  0  0  0  0  0  0  0  0  0  0
    6.8811   -1.3285    0.0000 C   0  0  0  0  0  0  0  0  0  0  0  0
    8.0454   -2.0002    0.0000 C   0  0  0  0  0  0  0  0  0  0  0  0
    9.1947   -1.3285    0.0000 C   0  0  0  0  0  0  0  0  0  0  0  0
   10.3441   -2.0002    0.0000 C   0  0  0  0  0  0  0  0  0  0  0  0
    4.5824    0.0000    0.0000 O   0  0  0  0  0  0  0  0  0  0  0  0
    3.4331   -2.0002    0.0000 O   0  0  0  0  0  0  0  0  0  0  0  0
   10.3441   -3.3286    0.0000 O   0  0  0  0  0  0  0  0  0  0  0  0
   11.4934   -1.3285    0.0000 O   0  0  0  0  0  0  0  0  0  0  0  0
    2.2987   -1.3285    0.0000 C   0  0  0  0  0  0  0  0  0  0  0  0
    1.1493   -2.0002    0.0000 C   0  0  0  0  0  0  0  0  0  0  0  0
    0.0000   -1.3285    0.0000 C   0  0  0  0  0  0  0  0  0  0  0  0
   12.6278   -2.0002    0.0000 C   0  0  0  0  0  0  0  0  0  0  0  0
   13.7772   -1.3285    0.0000 C   0  0  0  0  0  0  0  0  0  0  0  0
   14.9265   -2.0002    0.0000 C   0  0  0  0  0  0  0  0  0  0  0  0
  1  2  1  0  0  0  0
  1  8  1  0  0  0  0
  1  7  2  0  0  0  0
  2  3  1  0  0  0  0
  3  4  1  0  0  0  0
  4  5  1  0  0  0  0
  5  6  1  0  0  0  0
  6 10  1  0  0  0  0
  6  9  2  0  0  0  0
  8 11  1  0  0  0  0
 10 14  1  0  0  0  0
 11 12  1  0  0  0  0
 12 13  1  0  0  0  0
 14 15  1  0  0  0  0
 15 16  1  0  0  0  0
M  END
> <ID>
10165

> <Formula>
C12H22O4

> <FW>
230.3007

> <DSSTox_CID>
24511

> <DSSTox_RID>
80280

> <DSSTox_GSID>
44511

> <DSSTox_FileID_Sort>
4962

> <TS_ChemName>
Dipropyl hexanedioate

> <TS_ChemName_Synonyms>
Dipropyl hexanedioate (Hexanedioic acid, dipropyl ester)

> <TS_CASRN>
106-19-4

> <CASRN_ChemName_Relationship>
primary

> <TS_Description>
single chemical compound

> <ChemNote>


> <STRUCTURE_Shown>
tested chemical

> <STRUCTURE_Formula>
C12H22O4

> <STRUCTURE_MW>
230.3007

> <STRUCTURE_ChemType>
defined organic

> <STRUCTURE_DefinedOrganicForm>
parent

> <STRUCTURE_IUPAC>
dipropyl hexanedioate

> <STRUCTURE_SMILES>
O=C(CCCCC(=O)OCCC)OCCC

> <STRUCTURE_SMILES_Desalt>
O=C(CCCCC(=O)OCCC)OCCC

> <Substance_modify_yyyymmdd>
20091116

$$$$
