106-21-8
ChemmineR-0915142007XD

 11 10  0  0  0  0  0  0  0  0  1 V2000
    1.1561   -1.3318    0.0000 C   0  0  0  0  0  0  0  0  0  0  0  0
    2.3122   -1.9885    0.0000 C   0  0  0  0  0  0  0  0  0  0  0  0
    3.4682   -1.3318    0.0000 C   0  0  0  0  0  0  0  0  0  0  0  0
    4.6243   -1.9885    0.0000 C   0  0  0  0  0  0  0  0  0  0  0  0
    5.7804   -1.3318    0.0000 C   0  0  0  0  0  0  0  0  0  0  0  0
    6.9365   -1.9885    0.0000 C   0  0  0  0  0  0  0  0  0  0  0  0
    8.0925   -1.3318    0.0000 C   0  0  0  0  0  0  0  0  0  0  0  0
    9.2486   -1.9885    0.0000 C   0  0  0  0  0  0  0  0  0  0  0  0
    0.0000   -1.9885    0.0000 O   0  0  0  0  0  0  0  0  0  0  0  0
    3.4682    0.0000    0.0000 C   0  0  0  0  0  0  0  0  0  0  0  0
    8.0925    0.0000    0.0000 C   0  0  0  0  0  0  0  0  0  0  0  0
  1  2  1  0  0  0  0
  1  9  1  0  0  0  0
  2  3  1  0  0  0  0
  3  4  1  0  0  0  0
  3 10  1  0  0  0  0
  4  5  1  0  0  0  0
  5  6  1  0  0  0  0
  6  7  1  0  0  0  0
  7  8  1  0  0  0  0
  7 11  1  0  0  0  0
M  END
> <ID>
10018

> <Formula>
C10H22O

> <FW>
158.2811

> <DSSTox_CID>
24360

> <DSSTox_RID>
80168

> <DSSTox_GSID>
44360

> <DSSTox_FileID_Sort>
4850

> <TS_ChemName>
3,7-Dimethyloctan-1-ol

> <TS_ChemName_Synonyms>
1-Octanol, 3,7-dimethyl-

> <TS_CASRN>
106-21-8

> <CASRN_ChemName_Relationship>
primary

> <TS_Description>
single chemical compound

> <ChemNote>
racemic mixture

> <STRUCTURE_Shown>
tested chemical

> <STRUCTURE_Formula>
C10H22O

> <STRUCTURE_MW>
158.2811

> <STRUCTURE_ChemType>
defined organic

> <STRUCTURE_DefinedOrganicForm>
parent

> <STRUCTURE_IUPAC>
3,7-dimethyloctan-1-ol

> <STRUCTURE_SMILES>
CC(C)CCCC(C)CCO

> <STRUCTURE_SMILES_Desalt>
CC(C)CCCC(C)CCO

> <Substance_modify_yyyymmdd>
20091116

$$$$
