106-75-2
ChemmineR-0915142007XD

 13 12  0  0  0  0  0  0  0  0  1 V2000
    3.4669   -1.3290    0.0000 C    0  0  0  0  0  0  0  0  0  0  0  0
    4.6341   -1.9877    0.0000 C    0  0  0  0  0  0  0  0  0  0  0  0
    2.3113   -1.9877    0.0000 O    0  0  0  0  0  0  0  0  0  0  0  0
    5.7898   -1.3290    0.0000 O    0  0  0  0  0  0  0  0  0  0  0  0
    6.9454   -1.9877    0.0000 C    0  0  0  0  0  0  0  0  0  0  0  0
    8.0895   -1.3290    0.0000 C    0  0  0  0  0  0  0  0  0  0  0  0
    9.2452   -1.9877    0.0000 O    0  0  0  0  0  0  0  0  0  0  0  0
    1.1556   -1.3290    0.0000 C    0  0  0  0  0  0  0  0  0  0  0  0
    1.1556    0.0000    0.0000 Cl   0  0  0  0  0  0  0  0  0  0  0  0
    0.0000   -1.9877    0.0000 O    0  0  0  0  0  0  0  0  0  0  0  0
   10.4008   -1.3290    0.0000 C    0  0  0  0  0  0  0  0  0  0  0  0
   11.5565   -1.9877    0.0000 Cl   0  0  0  0  0  0  0  0  0  0  0  0
   10.4008    0.0000    0.0000 O    0  0  0  0  0  0  0  0  0  0  0  0
  1  2  1  0  0  0  0
  1  3  1  0  0  0  0
  2  4  1  0  0  0  0
  3  8  1  0  0  0  0
  4  5  1  0  0  0  0
  5  6  1  0  0  0  0
  6  7  1  0  0  0  0
  7 11  1  0  0  0  0
  8 10  2  0  0  0  0
  8  9  1  0  0  0  0
 11 13  2  0  0  0  0
 11 12  1  0  0  0  0
M  END
> <ID>
4788

> <Formula>
C6H8Cl2O5

> <FW>
231.0307

> <DSSTox_CID>
6739

> <DSSTox_RID>
78205

> <DSSTox_GSID>
26739

> <DSSTox_FileID_Sort>
2888

> <TS_ChemName>
Carbonochloridic acid, oxydi-2,1-ethanediyl ester

> <TS_ChemName_Synonyms>


> <TS_CASRN>
106-75-2

> <CASRN_ChemName_Relationship>
primary

> <TS_Description>
single chemical compound

> <ChemNote>


> <STRUCTURE_Shown>
tested chemical

> <STRUCTURE_Formula>
C6H8Cl2O5

> <STRUCTURE_MW>
231.0307

> <STRUCTURE_ChemType>
defined organic

> <STRUCTURE_DefinedOrganicForm>
parent

> <STRUCTURE_IUPAC>
oxydiethane-2,1-diyl dicarbonochloridate

> <STRUCTURE_SMILES>
O=C(Cl)OCCOCCOC(Cl)=O

> <STRUCTURE_SMILES_Desalt>
O=C(Cl)OCCOCCOC(Cl)=O

> <Substance_modify_yyyymmdd>
20080429

$$$$
