106-20-7
ChemmineR-0915142007XD

 17 16  0  0  0  0  0  0  0  0  1 V2000
    4.6055   -3.9953    0.0000 N   0  0  0  0  0  0  0  0  0  0  0  0
    3.4541   -3.3275    0.0000 C   0  0  0  0  0  0  0  0  0  0  0  0
    3.4541   -2.0034    0.0000 C   0  0  0  0  0  0  0  0  0  0  0  0
    2.3027   -1.3356    0.0000 C   0  0  0  0  0  0  0  0  0  0  0  0
    1.1514   -2.0034    0.0000 C   0  0  0  0  0  0  0  0  0  0  0  0
    1.1514   -3.3275    0.0000 C   0  0  0  0  0  0  0  0  0  0  0  0
    0.0000   -3.9953    0.0000 C   0  0  0  0  0  0  0  0  0  0  0  0
    4.6055   -1.3356    0.0000 C   0  0  0  0  0  0  0  0  0  0  0  0
    4.6055    0.0000    0.0000 C   0  0  0  0  0  0  0  0  0  0  0  0
    5.7568   -3.3275    0.0000 C   0  0  0  0  0  0  0  0  0  0  0  0
    6.9082   -3.9953    0.0000 C   0  0  0  0  0  0  0  0  0  0  0  0
    8.0596   -3.3275    0.0000 C   0  0  0  0  0  0  0  0  0  0  0  0
    9.2110   -3.9953    0.0000 C   0  0  0  0  0  0  0  0  0  0  0  0
   10.3623   -3.3275    0.0000 C   0  0  0  0  0  0  0  0  0  0  0  0
   11.5137   -3.9953    0.0000 C   0  0  0  0  0  0  0  0  0  0  0  0
    6.9082   -5.3193    0.0000 C   0  0  0  0  0  0  0  0  0  0  0  0
    8.0596   -5.9871    0.0000 C   0  0  0  0  0  0  0  0  0  0  0  0
  1  2  1  0  0  0  0
  1 10  1  0  0  0  0
  2  3  1  0  0  0  0
  3  4  1  0  0  0  0
  3  8  1  0  0  0  0
  4  5  1  0  0  0  0
  5  6  1  0  0  0  0
  6  7  1  0  0  0  0
  8  9  1  0  0  0  0
 10 11  1  0  0  0  0
 11 12  1  0  0  0  0
 11 16  1  0  0  0  0
 12 13  1  0  0  0  0
 13 14  1  0  0  0  0
 14 15  1  0  0  0  0
 16 17  1  0  0  0  0
M  END
> <ID>
3991

> <Formula>
C16H35N

> <FW>
241.4558

> <DSSTox_CID>
5053

> <DSSTox_RID>
77643

> <DSSTox_GSID>
25053

> <DSSTox_FileID_Sort>
2326

> <TS_ChemName>
2,2'-Diethylhexylamine

> <TS_ChemName_Synonyms>


> <TS_CASRN>
106-20-7

> <CASRN_ChemName_Relationship>
primary

> <TS_Description>
single chemical compound

> <ChemNote>


> <STRUCTURE_Shown>
tested chemical

> <STRUCTURE_Formula>
C16H35N

> <STRUCTURE_MW>
241.4558

> <STRUCTURE_ChemType>
defined organic

> <STRUCTURE_DefinedOrganicForm>
parent

> <STRUCTURE_IUPAC>
2-ethyl-N-(2-ethylhexyl)hexan-1-amine

> <STRUCTURE_SMILES>
CCCCC(CNCC(CC)CCCC)CC

> <STRUCTURE_SMILES_Desalt>
CCCCC(CNCC(CC)CCCC)CC

> <Substance_modify_yyyymmdd>
20080429

$$$$
