106-72-9
ChemmineR-0915142007XD

 10  9  0  0  0  0  0  0  0  0  1 V2000
    1.1511   -2.0043    0.0000 C   0  0  0  0  0  0  0  0  0  0  0  0
    2.3102   -1.3282    0.0000 C   0  0  0  0  0  0  0  0  0  0  0  0
    3.4613   -2.0043    0.0000 C   0  0  0  0  0  0  0  0  0  0  0  0
    4.6043   -1.3282    0.0000 C   0  0  0  0  0  0  0  0  0  0  0  0
    5.7553   -2.0043    0.0000 C   0  0  0  0  0  0  0  0  0  0  0  0
    6.8984   -1.3282    0.0000 C   0  0  0  0  0  0  0  0  0  0  0  0
    8.0494   -1.9882    0.0000 C   0  0  0  0  0  0  0  0  0  0  0  0
    0.0000   -1.3282    0.0000 O   0  0  0  0  0  0  0  0  0  0  0  0
    2.3102   -0.0161    0.0000 C   0  0  0  0  0  0  0  0  0  0  0  0
    6.8984    0.0000    0.0000 C   0  0  0  0  0  0  0  0  0  0  0  0
  1  2  1  0  0  0  0
  1  8  2  0  0  0  0
  2  3  1  0  0  0  0
  2  9  1  0  0  0  0
  3  4  1  0  0  0  0
  4  5  1  0  0  0  0
  5  6  2  0  0  0  0
  6  7  1  0  0  0  0
  6 10  1  0  0  0  0
M  END
> <ID>
10404

> <Formula>
C9H16O

> <FW>
140.2227

> <DSSTox_CID>
24753

> <DSSTox_RID>
80446

> <DSSTox_GSID>
44753

> <DSSTox_FileID_Sort>
5128

> <TS_ChemName>
2,6-Dimethylhept-5-enal

> <TS_ChemName_Synonyms>
2,6-Dimethylhept-5-enal (5-Heptenal, 2,6-dimethyl-)

> <TS_CASRN>
106-72-9

> <CASRN_ChemName_Relationship>
primary

> <TS_Description>
single chemical compound

> <ChemNote>


> <STRUCTURE_Shown>
tested chemical

> <STRUCTURE_Formula>
C9H16O

> <STRUCTURE_MW>
140.2227

> <STRUCTURE_ChemType>
defined organic

> <STRUCTURE_DefinedOrganicForm>
parent

> <STRUCTURE_IUPAC>
2,6-dimethylhept-5-enal

> <STRUCTURE_SMILES>
CC(CC\C=C(\C)C)C=O

> <STRUCTURE_SMILES_Desalt>
CC(CC\C=C(\C)C)C=O

> <Substance_modify_yyyymmdd>
20091116

$$$$
