106-92-3
ChemmineR-0915142007XD

  8  8  0  0  0  0  0  0  0  0  1 V2000
    0.0000   -1.8149    0.0000 C   0  0  0  0  0  0  0  0  0  0  0  0
    1.1485   -1.1485    0.0000 C   0  0  0  0  0  0  0  0  0  0  0  0
    2.3041   -1.8149    0.0000 C   0  0  0  0  0  0  0  0  0  0  0  0
    3.4526   -1.1485    0.0000 O   0  0  0  0  0  0  0  0  0  0  0  0
    4.6082   -1.8149    0.0000 C   0  0  0  0  0  0  0  0  0  0  0  0
    5.7567   -1.1485    0.0000 C   0  0  0  0  0  0  0  0  0  0  0  0
    6.4231    0.0000    0.0000 C   0  0  0  0  0  0  0  0  0  0  0  0
    7.0895   -1.1485    0.0000 O   0  0  0  0  0  0  0  0  0  0  0  0
  1  2  2  0  0  0  0
  2  3  1  0  0  0  0
  3  4  1  0  0  0  0
  4  5  1  0  0  0  0
  5  6  1  0  0  0  0
  6  7  1  0  0  0  0
  6  8  1  0  0  0  0
  7  8  1  0  0  0  0
M  END
> <ID>
45

> <Formula>
C6H10O2

> <FW>
114.1424

> <DSSTox_CID>
46

> <DSSTox_RID>
79427

> <DSSTox_GSID>
39232

> <DSSTox_FileID_Sort>
4109

> <TS_ChemName>
Allyl glycidyl ether

> <TS_ChemName_Synonyms>
Allyl glycidyl ether (Oxirane, [(2-propenyloxy)methyl]-)

> <TS_CASRN>
106-92-3

> <CASRN_ChemName_Relationship>
primary

> <TS_Description>
single chemical compound

> <ChemNote>


> <STRUCTURE_Shown>
tested chemical

> <STRUCTURE_Formula>
C6H10O2

> <STRUCTURE_MW>
114.1424

> <STRUCTURE_ChemType>
defined organic

> <STRUCTURE_DefinedOrganicForm>
parent

> <STRUCTURE_IUPAC>
2-[(prop-2-en-1-yloxy)methyl]oxirane

> <STRUCTURE_SMILES>
C=CCOCC1CO1

> <STRUCTURE_SMILES_Desalt>
C=CCOCC1CO1

> <Substance_modify_yyyymmdd>
20080429

$$$$
