106-29-6
ChemmineR-0915142007XD

 16 15  0  0  0  0  0  0  0  0  1 V2000
   10.3904   -1.3300    0.0000 C   0  0  0  0  0  0  0  0  0  0  0  0
   11.5541   -1.9950    0.0000 C   0  0  0  0  0  0  0  0  0  0  0  0
   12.6901   -1.3300    0.0000 C   0  0  0  0  0  0  0  0  0  0  0  0
   13.8538   -1.9950    0.0000 C   0  0  0  0  0  0  0  0  0  0  0  0
   10.3904   -0.0139    0.0000 O   0  0  0  0  0  0  0  0  0  0  0  0
    9.2405   -1.9950    0.0000 O   0  0  0  0  0  0  0  0  0  0  0  0
    8.0768   -1.3300    0.0000 C   0  0  0  0  0  0  0  0  0  0  0  0
    6.9408   -1.9950    0.0000 C   0  0  0  0  0  0  0  0  0  0  0  0
    5.7770   -1.3300    0.0000 C   0  0  0  0  0  0  0  0  0  0  0  0
    4.6133   -1.9950    0.0000 C   0  0  0  0  0  0  0  0  0  0  0  0
    3.4635   -1.3300    0.0000 C   0  0  0  0  0  0  0  0  0  0  0  0
    2.3136   -1.9950    0.0000 C   0  0  0  0  0  0  0  0  0  0  0  0
    1.1637   -1.3300    0.0000 C   0  0  0  0  0  0  0  0  0  0  0  0
    0.0000   -1.9950    0.0000 C   0  0  0  0  0  0  0  0  0  0  0  0
    5.7770   -0.0139    0.0000 C   0  0  0  0  0  0  0  0  0  0  0  0
    1.1637    0.0000    0.0000 C   0  0  0  0  0  0  0  0  0  0  0  0
  1  2  1  0  0  0  0
  1  6  1  0  0  0  0
  1  5  2  0  0  0  0
  2  3  1  0  0  0  0
  3  4  1  0  0  0  0
  6  7  1  0  0  0  0
  7  8  1  0  0  0  0
  8  9  2  0  0  0  0
  9 10  1  0  0  0  0
  9 15  1  0  0  0  0
 10 11  1  0  0  0  0
 11 12  1  0  0  0  0
 12 13  2  0  0  0  0
 13 14  1  0  0  0  0
 13 16  1  0  0  0  0
M  END
> <ID>
12300

> <Formula>
C14H24O2

> <FW>
224.3392

> <DSSTox_CID>
27152

> <DSSTox_RID>
82155

> <DSSTox_GSID>
47152

> <DSSTox_FileID_Sort>
6836

> <TS_ChemName>
Geranyl butyrate

> <TS_ChemName_Synonyms>


> <TS_CASRN>
106-29-6

> <CASRN_ChemName_Relationship>
primary

> <TS_Description>
single chemical compound

> <ChemNote>
stereochem

> <STRUCTURE_Shown>
tested chemical

> <STRUCTURE_Formula>
C14H24O2

> <STRUCTURE_MW>
224.3392

> <STRUCTURE_ChemType>
defined organic

> <STRUCTURE_DefinedOrganicForm>
parent

> <STRUCTURE_IUPAC>
(2E)-3,7-dimethylocta-2,6-dien-1-yl butanoate

> <STRUCTURE_SMILES>
C\C(C)=C\CCC(\C)=C\COC(=O)CCC

> <STRUCTURE_SMILES_Desalt>
C\C(C)=C\CCC(\C)=C\COC(=O)CCC

> <Substance_modify_yyyymmdd>
20100502

$$$$
