106-02-5
ChemmineR-0915142007XD

 17 17  0  0  0  0  0  0  0  0  1 V2000
    3.1751   -1.2866    0.0000 C   0  0  0  0  0  0  0  0  0  0  0  0
    4.2811   -1.9186    0.0000 O   0  0  0  0  0  0  0  0  0  0  0  0
    3.1751    0.0000    0.0000 O   0  0  0  0  0  0  0  0  0  0  0  0
    2.0540   -1.9562    0.0000 C   0  0  0  0  0  0  0  0  0  0  0  0
    4.2811   -3.2428    0.0000 C   0  0  0  0  0  0  0  0  0  0  0  0
    2.0540   -3.2428    0.0000 C   0  0  0  0  0  0  0  0  0  0  0  0
    5.6806   -3.2428    0.0000 C   0  0  0  0  0  0  0  0  0  0  0  0
    4.2811   -6.8694    0.0000 C   0  0  0  0  0  0  0  0  0  0  0  0
    3.1751   -7.5240    0.0000 C   0  0  0  0  0  0  0  0  0  0  0  0
    2.0540   -6.8920    0.0000 C   0  0  0  0  0  0  0  0  0  0  0  0
    0.6997   -5.5677    0.0000 C   0  0  0  0  0  0  0  0  0  0  0  0
    0.0000   -4.4166    0.0000 C   0  0  0  0  0  0  0  0  0  0  0  0
    0.6997   -3.2428    0.0000 C   0  0  0  0  0  0  0  0  0  0  0  0
    2.0540   -5.5677    0.0000 C   0  0  0  0  0  0  0  0  0  0  0  0
    6.3803   -4.4166    0.0000 C   0  0  0  0  0  0  0  0  0  0  0  0
    5.6806   -5.5677    0.0000 C   0  0  0  0  0  0  0  0  0  0  0  0
    4.2811   -5.5677    0.0000 C   0  0  0  0  0  0  0  0  0  0  0  0
  1  2  1  0  0  0  0
  1  3  2  0  0  0  0
  1  4  1  0  0  0  0
  2  5  1  0  0  0  0
  4  6  1  0  0  0  0
  5  7  1  0  0  0  0
  6 13  1  0  0  0  0
  7 15  1  0  0  0  0
  8 17  1  0  0  0  0
  8  9  1  0  0  0  0
  9 10  1  0  0  0  0
 10 14  1  0  0  0  0
 11 12  1  0  0  0  0
 11 14  1  0  0  0  0
 12 13  1  0  0  0  0
 15 16  1  0  0  0  0
 16 17  1  0  0  0  0
M  END
> <ID>
10017

> <Formula>
C15H28O2

> <FW>
240.3816

> <DSSTox_CID>
24359

> <DSSTox_RID>
80167

> <DSSTox_GSID>
44359

> <DSSTox_FileID_Sort>
4849

> <TS_ChemName>
Pentadecan-15-olide

> <TS_ChemName_Synonyms>


> <TS_CASRN>
106-02-5

> <CASRN_ChemName_Relationship>
primary

> <TS_Description>
single chemical compound

> <ChemNote>


> <STRUCTURE_Shown>
tested chemical

> <STRUCTURE_Formula>
C15H28O2

> <STRUCTURE_MW>
240.3816

> <STRUCTURE_ChemType>
defined organic

> <STRUCTURE_DefinedOrganicForm>
parent

> <STRUCTURE_IUPAC>
oxacyclohexadecan-2-one

> <STRUCTURE_SMILES>
O=C1CCCCCCCCCCCCCCO1

> <STRUCTURE_SMILES_Desalt>
O=C1CCCCCCCCCCCCCCO1

> <Substance_modify_yyyymmdd>
20091116

$$$$
