106-14-9
ChemmineR-0915142007XD

 21 20  0  0  0  0  0  0  0  0  1 V2000
    1.1472   -1.2906    0.0000 C   0  0  0  0  0  0  0  0  0  0  0  0
    2.3148   -1.9870    0.0000 C   0  0  0  0  0  0  0  0  0  0  0  0
    3.4005   -1.2906    0.0000 C   0  0  0  0  0  0  0  0  0  0  0  0
    4.5682   -1.9870    0.0000 C   0  0  0  0  0  0  0  0  0  0  0  0
    5.7358   -1.2906    0.0000 C   0  0  0  0  0  0  0  0  0  0  0  0
    6.9034   -1.9870    0.0000 C   0  0  0  0  0  0  0  0  0  0  0  0
    7.9891   -1.2906    0.0000 C   0  0  0  0  0  0  0  0  0  0  0  0
    9.1568   -1.9870    0.0000 C   0  0  0  0  0  0  0  0  0  0  0  0
   10.3039   -1.2906    0.0000 C   0  0  0  0  0  0  0  0  0  0  0  0
   11.4101   -1.9870    0.0000 C   0  0  0  0  0  0  0  0  0  0  0  0
   12.5573   -1.2906    0.0000 C   0  0  0  0  0  0  0  0  0  0  0  0
   13.6430   -1.9870    0.0000 C   0  0  0  0  0  0  0  0  0  0  0  0
   14.8106   -1.2906    0.0000 C   0  0  0  0  0  0  0  0  0  0  0  0
   15.9783   -1.9870    0.0000 C   0  0  0  0  0  0  0  0  0  0  0  0
   17.0845   -1.2906    0.0000 C   0  0  0  0  0  0  0  0  0  0  0  0
   18.2316   -1.9870    0.0000 C   0  0  0  0  0  0  0  0  0  0  0  0
   19.3993   -1.2906    0.0000 C   0  0  0  0  0  0  0  0  0  0  0  0
   20.4850   -1.9870    0.0000 C   0  0  0  0  0  0  0  0  0  0  0  0
    1.1472    0.0000    0.0000 O   0  0  0  0  0  0  0  0  0  0  0  0
    0.0000   -1.9870    0.0000 O   0  0  0  0  0  0  0  0  0  0  0  0
   13.6430   -3.2776    0.0000 O   0  0  0  0  0  0  0  0  0  0  0  0
  1  2  1  0  0  0  0
  1 20  1  0  0  0  0
  1 19  2  0  0  0  0
  2  3  1  0  0  0  0
  3  4  1  0  0  0  0
  4  5  1  0  0  0  0
  5  6  1  0  0  0  0
  6  7  1  0  0  0  0
  7  8  1  0  0  0  0
  8  9  1  0  0  0  0
  9 10  1  0  0  0  0
 10 11  1  0  0  0  0
 11 12  1  0  0  0  0
 12 13  1  0  0  0  0
 12 21  1  0  0  0  0
 13 14  1  0  0  0  0
 14 15  1  0  0  0  0
 15 16  1  0  0  0  0
 16 17  1  0  0  0  0
 17 18  1  0  0  0  0
M  END
> <ID>
4783

> <Formula>
C18H36O3

> <FW>
300.4766

> <DSSTox_CID>
6725

> <DSSTox_RID>
78200

> <DSSTox_GSID>
26725

> <DSSTox_FileID_Sort>
2883

> <TS_ChemName>
12-Hydroxyoctadecanoic acid

> <TS_ChemName_Synonyms>


> <TS_CASRN>
106-14-9

> <CASRN_ChemName_Relationship>
primary

> <TS_Description>
single chemical compound

> <ChemNote>


> <STRUCTURE_Shown>
tested chemical

> <STRUCTURE_Formula>
C18H36O3

> <STRUCTURE_MW>
300.4766

> <STRUCTURE_ChemType>
defined organic

> <STRUCTURE_DefinedOrganicForm>
parent

> <STRUCTURE_IUPAC>
12-hydroxyoctadecanoic acid

> <STRUCTURE_SMILES>
O=C(O)CCCCCCCCCCC(O)CCCCCC

> <STRUCTURE_SMILES_Desalt>
O=C(O)CCCCCCCCCCC(O)CCCCCC

> <Substance_modify_yyyymmdd>
20080429

$$$$
