106-91-2
ChemmineR-0915142007XD

 10 10  0  0  0  0  0  0  0  0  1 V2000
    3.9924   -2.3036    0.0000 C   0  0  0  0  0  0  0  0  0  0  0  0
    3.3259   -1.1518    0.0000 O   0  0  0  0  0  0  0  0  0  0  0  0
    1.9930   -1.1518    0.0000 C   0  0  0  0  0  0  0  0  0  0  0  0
    1.3330    0.0000    0.0000 O   0  0  0  0  0  0  0  0  0  0  0  0
    1.3330   -2.3036    0.0000 C   0  0  0  0  0  0  0  0  0  0  0  0
    0.0000   -2.3036    0.0000 C   0  0  0  0  0  0  0  0  0  0  0  0
    1.9930   -3.4554    0.0000 C   0  0  0  0  0  0  0  0  0  0  0  0
    5.3189   -2.3036    0.0000 C   0  0  0  0  0  0  0  0  0  0  0  0
    6.4707   -1.6371    0.0000 C   0  0  0  0  0  0  0  0  0  0  0  0
    6.4707   -2.9701    0.0000 O   0  0  0  0  0  0  0  0  0  0  0  0
  1  2  1  0  0  0  0
  1  8  1  0  0  0  0
  2  3  1  0  0  0  0
  3  4  2  0  0  0  0
  3  5  1  0  0  0  0
  5  6  1  0  0  0  0
  5  7  2  0  0  0  0
  8  9  1  0  0  0  0
  8 10  1  0  0  0  0
  9 10  1  0  0  0  0
M  END
> <ID>
4160

> <Formula>
C7H10O3

> <FW>
142.1525

> <DSSTox_CID>
5361

> <DSSTox_RID>
77762

> <DSSTox_GSID>
25361

> <DSSTox_FileID_Sort>
2445

> <TS_ChemName>
Glycidyl methacrylate

> <TS_ChemName_Synonyms>
Glycidyl methacrylate (2-Propenoic acid, 2-methyl-, oxiranylmethyl ester)

> <TS_CASRN>
106-91-2

> <CASRN_ChemName_Relationship>
primary

> <TS_Description>
single chemical compound

> <ChemNote>


> <STRUCTURE_Shown>
tested chemical

> <STRUCTURE_Formula>
C7H10O3

> <STRUCTURE_MW>
142.1525

> <STRUCTURE_ChemType>
defined organic

> <STRUCTURE_DefinedOrganicForm>
parent

> <STRUCTURE_IUPAC>
oxiran-2-ylmethyl 2-methylprop-2-enoate

> <STRUCTURE_SMILES>
CC(=C)C(=O)OCC1CO1

> <STRUCTURE_SMILES_Desalt>
CC(=C)C(=O)OCC1CO1

> <Substance_modify_yyyymmdd>
20080429

$$$$
