106-50-3
ChemmineR-0915142007XD

  8  8  0  0  0  0  0  0  0  0  1 V2000
    0.0000   -1.1545    0.0000 N   0  0  0  0  0  0  0  0  0  0  0  0
    1.3300   -1.1545    0.0000 C   0  0  0  0  0  0  0  0  0  0  0  0
    1.9950    0.0000    0.0000 C   0  0  0  0  0  0  0  0  0  0  0  0
    3.3250    0.0000    0.0000 C   0  0  0  0  0  0  0  0  0  0  0  0
    3.9900   -1.1545    0.0000 C   0  0  0  0  0  0  0  0  0  0  0  0
    3.3250   -2.3036    0.0000 C   0  0  0  0  0  0  0  0  0  0  0  0
    1.9950   -2.3036    0.0000 C   0  0  0  0  0  0  0  0  0  0  0  0
    5.3201   -1.1545    0.0000 N   0  0  0  0  0  0  0  0  0  0  0  0
  1  2  1  0  0  0  0
  2  3  2  0  0  0  0
  2  7  1  0  0  0  0
  3  4  1  0  0  0  0
  4  5  2  0  0  0  0
  5  6  1  0  0  0  0
  5  8  1  0  0  0  0
  6  7  2  0  0  0  0
M  END
> <ID>
1094

> <Formula>
C6H8N2

> <FW>
108.1411

> <DSSTox_CID>
1138

> <DSSTox_RID>
75969

> <DSSTox_GSID>
21138

> <DSSTox_FileID_Sort>
653

> <TS_ChemName>
1,4-Benzenediamine

> <TS_ChemName_Synonyms>
1,4-Benzenediamine (p-Phenylenediamine)

> <TS_CASRN>
106-50-3

> <CASRN_ChemName_Relationship>
primary

> <TS_Description>
single chemical compound

> <ChemNote>


> <STRUCTURE_Shown>
tested chemical

> <STRUCTURE_Formula>
C6H8N2

> <STRUCTURE_MW>
108.1411

> <STRUCTURE_ChemType>
defined organic

> <STRUCTURE_DefinedOrganicForm>
parent

> <STRUCTURE_IUPAC>
benzene-1,4-diamine

> <STRUCTURE_SMILES>
Nc1ccc(N)cc1

> <STRUCTURE_SMILES_Desalt>
Nc1ccc(N)cc1

> <Substance_modify_yyyymmdd>
20080429

$$$$
