106-43-4
ChemmineR-0915142007XD

  8  8  0  0  0  0  0  0  0  0  1 V2000
    0.0000   -1.1545    0.0000 C    0  0  0  0  0  0  0  0  0  0  0  0
    1.3300   -1.1545    0.0000 C    0  0  0  0  0  0  0  0  0  0  0  0
    1.9950    0.0000    0.0000 C    0  0  0  0  0  0  0  0  0  0  0  0
    3.3250    0.0000    0.0000 C    0  0  0  0  0  0  0  0  0  0  0  0
    3.9900   -1.1545    0.0000 C    0  0  0  0  0  0  0  0  0  0  0  0
    5.3201   -1.1545    0.0000 Cl   0  0  0  0  0  0  0  0  0  0  0  0
    3.3250   -2.3036    0.0000 C    0  0  0  0  0  0  0  0  0  0  0  0
    1.9950   -2.3036    0.0000 C    0  0  0  0  0  0  0  0  0  0  0  0
  1  2  1  0  0  0  0
  2  3  2  0  0  0  0
  2  8  1  0  0  0  0
  3  4  1  0  0  0  0
  4  5  2  0  0  0  0
  5  6  1  0  0  0  0
  5  7  1  0  0  0  0
  7  8  2  0  0  0  0
M  END
> <ID>
3864

> <Formula>
C7H7Cl

> <FW>
126.5835

> <DSSTox_CID>
4814

> <DSSTox_RID>
77540

> <DSSTox_GSID>
24814

> <DSSTox_FileID_Sort>
2223

> <TS_ChemName>
4-Chlorotoluene

> <TS_ChemName_Synonyms>
4-Chlorotoluene (p-Chlorotoluene) (Benzene, 1-chloro-4-methyl-)

> <TS_CASRN>
106-43-4

> <CASRN_ChemName_Relationship>
primary

> <TS_Description>
single chemical compound

> <ChemNote>


> <STRUCTURE_Shown>
tested chemical

> <STRUCTURE_Formula>
C7H7Cl

> <STRUCTURE_MW>
126.5835

> <STRUCTURE_ChemType>
defined organic

> <STRUCTURE_DefinedOrganicForm>
parent

> <STRUCTURE_IUPAC>
1-chloro-4-methylbenzene

> <STRUCTURE_SMILES>
Cc1ccc(Cl)cc1

> <STRUCTURE_SMILES_Desalt>
Cc1ccc(Cl)cc1

> <Substance_modify_yyyymmdd>
20080429

$$$$
