106-79-6
ChemmineR-0915142007XD

 16 15  0  0  0  0  0  0  0  0  1 V2000
    2.2747   -1.2934    0.0000 C   0  0  0  0  0  0  0  0  0  0  0  0
    3.4640   -1.9922    0.0000 C   0  0  0  0  0  0  0  0  0  0  0  0
    4.5493   -1.2934    0.0000 C   0  0  0  0  0  0  0  0  0  0  0  0
    5.7387   -1.9922    0.0000 C   0  0  0  0  0  0  0  0  0  0  0  0
    6.8835   -1.2934    0.0000 C   0  0  0  0  0  0  0  0  0  0  0  0
    8.0282   -1.9922    0.0000 C   0  0  0  0  0  0  0  0  0  0  0  0
    9.1730   -1.2934    0.0000 C   0  0  0  0  0  0  0  0  0  0  0  0
   10.3178   -1.9922    0.0000 C   0  0  0  0  0  0  0  0  0  0  0  0
   11.4625   -1.2934    0.0000 C   0  0  0  0  0  0  0  0  0  0  0  0
   12.5924   -1.9922    0.0000 C   0  0  0  0  0  0  0  0  0  0  0  0
    2.2747    0.0000    0.0000 O   0  0  0  0  0  0  0  0  0  0  0  0
    1.1448   -1.9922    0.0000 O   0  0  0  0  0  0  0  0  0  0  0  0
   12.5924   -3.2856    0.0000 O   0  0  0  0  0  0  0  0  0  0  0  0
   13.7223   -1.3529    0.0000 O   0  0  0  0  0  0  0  0  0  0  0  0
    0.0000   -1.2934    0.0000 C   0  0  0  0  0  0  0  0  0  0  0  0
   14.8671   -1.9922    0.0000 C   0  0  0  0  0  0  0  0  0  0  0  0
  1  2  1  0  0  0  0
  1 12  1  0  0  0  0
  1 11  2  0  0  0  0
  2  3  1  0  0  0  0
  3  4  1  0  0  0  0
  4  5  1  0  0  0  0
  5  6  1  0  0  0  0
  6  7  1  0  0  0  0
  7  8  1  0  0  0  0
  8  9  1  0  0  0  0
  9 10  1  0  0  0  0
 10 14  1  0  0  0  0
 10 13  2  0  0  0  0
 12 15  1  0  0  0  0
 14 16  1  0  0  0  0
M  END
> <ID>
4789

> <Formula>
C12H22O4

> <FW>
230.3007

> <DSSTox_CID>
6740

> <DSSTox_RID>
78206

> <DSSTox_GSID>
26740

> <DSSTox_FileID_Sort>
2889

> <TS_ChemName>
Dimethyl decanedioate

> <TS_ChemName_Synonyms>
Decanedioic acid, dimethyl ester

> <TS_CASRN>
106-79-6

> <CASRN_ChemName_Relationship>
primary

> <TS_Description>
single chemical compound

> <ChemNote>


> <STRUCTURE_Shown>
tested chemical

> <STRUCTURE_Formula>
C12H22O4

> <STRUCTURE_MW>
230.3007

> <STRUCTURE_ChemType>
defined organic

> <STRUCTURE_DefinedOrganicForm>
parent

> <STRUCTURE_IUPAC>
dimethyl decanedioate

> <STRUCTURE_SMILES>
O=C(CCCCCCCCC(=O)OC)OC

> <STRUCTURE_SMILES_Desalt>
O=C(CCCCCCCCC(=O)OC)OC

> <Substance_modify_yyyymmdd>
20080429

$$$$
