106-30-9
ChemmineR-0915142007XD

 11 10  0  0  0  0  0  0  0  0  1 V2000
    6.9092   -1.3279    0.0000 C   0  0  0  0  0  0  0  0  0  0  0  0
    5.7577   -1.9918    0.0000 C   0  0  0  0  0  0  0  0  0  0  0  0
    4.6165   -1.3279    0.0000 C   0  0  0  0  0  0  0  0  0  0  0  0
    3.4650   -1.9918    0.0000 C   0  0  0  0  0  0  0  0  0  0  0  0
    2.3134   -1.3279    0.0000 C   0  0  0  0  0  0  0  0  0  0  0  0
    1.1515   -1.9918    0.0000 C   0  0  0  0  0  0  0  0  0  0  0  0
    0.0000   -1.3279    0.0000 C   0  0  0  0  0  0  0  0  0  0  0  0
    6.9092    0.0000    0.0000 O   0  0  0  0  0  0  0  0  0  0  0  0
    8.0607   -1.9918    0.0000 O   0  0  0  0  0  0  0  0  0  0  0  0
    9.2226   -1.3279    0.0000 C   0  0  0  0  0  0  0  0  0  0  0  0
   10.3742   -1.9918    0.0000 C   0  0  0  0  0  0  0  0  0  0  0  0
  1  2  1  0  0  0  0
  1  9  1  0  0  0  0
  1  8  2  0  0  0  0
  2  3  1  0  0  0  0
  3  4  1  0  0  0  0
  4  5  1  0  0  0  0
  5  6  1  0  0  0  0
  6  7  1  0  0  0  0
  9 10  1  0  0  0  0
 10 11  1  0  0  0  0
M  END
> <ID>
7572

> <Formula>
C9H18O2

> <FW>
158.238

> <DSSTox_CID>
20112

> <DSSTox_RID>
79441

> <DSSTox_GSID>
40112

> <DSSTox_FileID_Sort>
4123

> <TS_ChemName>
Ethyl heptanoate

> <TS_ChemName_Synonyms>


> <TS_CASRN>
106-30-9

> <CASRN_ChemName_Relationship>
primary

> <TS_Description>
single chemical compound

> <ChemNote>


> <STRUCTURE_Shown>
tested chemical

> <STRUCTURE_Formula>
C9H18O2

> <STRUCTURE_MW>
158.238

> <STRUCTURE_ChemType>
defined organic

> <STRUCTURE_DefinedOrganicForm>
parent

> <STRUCTURE_IUPAC>
ethyl heptanoate

> <STRUCTURE_SMILES>
O=C(CCCCCC)OCC

> <STRUCTURE_SMILES_Desalt>
O=C(CCCCCC)OCC

> <Substance_modify_yyyymmdd>
20080429

$$$$
