106-24-1
ChemmineR-0915142007XD

 11 10  0  0  0  0  0  0  0  0  1 V2000
    1.1516   -1.3280    0.0000 C   0  0  0  0  0  0  0  0  0  0  0  0
    2.3310   -1.9781    0.0000 C   0  0  0  0  0  0  0  0  0  0  0  0
    3.4640   -1.3280    0.0000 C   0  0  0  0  0  0  0  0  0  0  0  0
    4.6155   -1.9781    0.0000 C   0  0  0  0  0  0  0  0  0  0  0  0
    5.7949   -1.3280    0.0000 C   0  0  0  0  0  0  0  0  0  0  0  0
    6.9558   -1.9781    0.0000 C   0  0  0  0  0  0  0  0  0  0  0  0
    8.1074   -1.3280    0.0000 C   0  0  0  0  0  0  0  0  0  0  0  0
    9.2868   -1.9781    0.0000 C   0  0  0  0  0  0  0  0  0  0  0  0
    0.0000   -1.9781    0.0000 O   0  0  0  0  0  0  0  0  0  0  0  0
    3.4640    0.0000    0.0000 C   0  0  0  0  0  0  0  0  0  0  0  0
    8.1074    0.0000    0.0000 C   0  0  0  0  0  0  0  0  0  0  0  0
  1  2  1  0  0  0  0
  1  9  1  0  0  0  0
  2  3  2  0  0  0  0
  3  4  1  0  0  0  0
  3 10  1  0  0  0  0
  4  5  1  0  0  0  0
  5  6  1  0  0  0  0
  6  7  2  0  0  0  0
  7  8  1  0  0  0  0
  7 11  1  0  0  0  0
M  END
> <ID>
4785

> <Formula>
C10H18O

> <FW>
154.2493

> <DSSTox_CID>
6727

> <DSSTox_RID>
78202

> <DSSTox_GSID>
26727

> <DSSTox_FileID_Sort>
2885

> <TS_ChemName>
Geraniol

> <TS_ChemName_Synonyms>
(2E)-3,7-dimethylocta-2,6-dien-1-ol (Geraniol) (trans-Geraniol )

> <TS_CASRN>
106-24-1

> <CASRN_ChemName_Relationship>
primary

> <TS_Description>
single chemical compound

> <ChemNote>
stereochem

> <STRUCTURE_Shown>
tested chemical

> <STRUCTURE_Formula>
C10H18O

> <STRUCTURE_MW>
154.2493

> <STRUCTURE_ChemType>
defined organic

> <STRUCTURE_DefinedOrganicForm>
parent

> <STRUCTURE_IUPAC>
(2E)-3,7-dimethylocta-2,6-dien-1-ol

> <STRUCTURE_SMILES>
C\C(C)=C\CCC(\C)=C\CO

> <STRUCTURE_SMILES_Desalt>
C\C(C)=C\CCC(\C)=C\CO

> <Substance_modify_yyyymmdd>
20080429

$$$$
