106-40-1
ChemmineR-0915142007XD

  8  8  0  0  0  0  0  0  0  0  1 V2000
    0.0000   -1.1545    0.0000 N    0  0  0  0  0  0  0  0  0  0  0  0
    1.3300   -1.1545    0.0000 C    0  0  0  0  0  0  0  0  0  0  0  0
    1.9950    0.0000    0.0000 C    0  0  0  0  0  0  0  0  0  0  0  0
    3.3250    0.0000    0.0000 C    0  0  0  0  0  0  0  0  0  0  0  0
    3.9900   -1.1545    0.0000 C    0  0  0  0  0  0  0  0  0  0  0  0
    5.3201   -1.1545    0.0000 Br   0  0  0  0  0  0  0  0  0  0  0  0
    3.3250   -2.3036    0.0000 C    0  0  0  0  0  0  0  0  0  0  0  0
    1.9950   -2.3036    0.0000 C    0  0  0  0  0  0  0  0  0  0  0  0
  1  2  1  0  0  0  0
  2  3  2  0  0  0  0
  2  8  1  0  0  0  0
  3  4  1  0  0  0  0
  4  5  2  0  0  0  0
  5  6  1  0  0  0  0
  5  7  1  0  0  0  0
  7  8  2  0  0  0  0
M  END
> <ID>
1752

> <Formula>
C6H6BrN

> <FW>
172.0225

> <DSSTox_CID>
1867

> <DSSTox_RID>
76373

> <DSSTox_GSID>
21867

> <DSSTox_FileID_Sort>
1057

> <TS_ChemName>
4-Bromoaniline

> <TS_ChemName_Synonyms>
4-Bromoaniline (p-Bromoaniline) (4-Bromo-phenylamine)

> <TS_CASRN>
106-40-1

> <CASRN_ChemName_Relationship>
primary

> <TS_Description>
single chemical compound

> <ChemNote>


> <STRUCTURE_Shown>
tested chemical

> <STRUCTURE_Formula>
C6H6BrN

> <STRUCTURE_MW>
172.0225

> <STRUCTURE_ChemType>
defined organic

> <STRUCTURE_DefinedOrganicForm>
parent

> <STRUCTURE_IUPAC>
4-bromoaniline

> <STRUCTURE_SMILES>
Nc1ccc(Br)cc1

> <STRUCTURE_SMILES_Desalt>
Nc1ccc(Br)cc1

> <Substance_modify_yyyymmdd>
20080429

$$$$
