106-38-7
ChemmineR-0915142007XD

  8  8  0  0  0  0  0  0  0  0  1 V2000
    1.3300   -1.1545    0.0000 C    0  0  0  0  0  0  0  0  0  0  0  0
    1.9950    0.0000    0.0000 C    0  0  0  0  0  0  0  0  0  0  0  0
    3.3250    0.0000    0.0000 C    0  0  0  0  0  0  0  0  0  0  0  0
    3.9900   -1.1545    0.0000 C    0  0  0  0  0  0  0  0  0  0  0  0
    3.3250   -2.3036    0.0000 C    0  0  0  0  0  0  0  0  0  0  0  0
    5.3201   -1.1545    0.0000 Br   0  0  0  0  0  0  0  0  0  0  0  0
    1.9950   -2.3036    0.0000 C    0  0  0  0  0  0  0  0  0  0  0  0
    0.0000   -1.1545    0.0000 C    0  0  0  0  0  0  0  0  0  0  0  0
  1  2  2  0  0  0  0
  1  7  1  0  0  0  0
  1  8  1  0  0  0  0
  2  3  1  0  0  0  0
  3  4  2  0  0  0  0
  4  5  1  0  0  0  0
  4  6  1  0  0  0  0
  5  7  2  0  0  0  0
M  END
> <ID>
3796

> <Formula>
C7H7Br

> <FW>
171.0345

> <DSSTox_CID>
4661

> <DSSTox_RID>
77489

> <DSSTox_GSID>
24661

> <DSSTox_FileID_Sort>
2172

> <TS_ChemName>
4-Bromotoluene

> <TS_ChemName_Synonyms>
4-Bromotoluene (p-Bromotoluene)

> <TS_CASRN>
106-38-7

> <CASRN_ChemName_Relationship>
primary

> <TS_Description>
single chemical compound

> <ChemNote>


> <STRUCTURE_Shown>
tested chemical

> <STRUCTURE_Formula>
C7H7Br

> <STRUCTURE_MW>
171.0345

> <STRUCTURE_ChemType>
defined organic

> <STRUCTURE_DefinedOrganicForm>
parent

> <STRUCTURE_IUPAC>
1-bromo-4-methylbenzene

> <STRUCTURE_SMILES>
Cc1ccc(Br)cc1

> <STRUCTURE_SMILES_Desalt>
Cc1ccc(Br)cc1

> <Substance_modify_yyyymmdd>
20080429

$$$$
