106-45-6
ChemmineR-0915142007XD

  8  8  0  0  0  0  0  0  0  0  1 V2000
    2.3069   -2.0039    0.0000 C   0  0  0  0  0  0  0  0  0  0  0  0
    2.3069   -3.3328    0.0000 C   0  0  0  0  0  0  0  0  0  0  0  0
    1.1534   -1.3288    0.0000 C   0  0  0  0  0  0  0  0  0  0  0  0
    1.1534   -3.9865    0.0000 C   0  0  0  0  0  0  0  0  0  0  0  0
    0.0000   -2.0039    0.0000 C   0  0  0  0  0  0  0  0  0  0  0  0
    0.0000   -3.3328    0.0000 C   0  0  0  0  0  0  0  0  0  0  0  0
    1.1534    0.0000    0.0000 C   0  0  0  0  0  0  0  0  0  0  0  0
    1.1534   -5.3154    0.0000 S   0  0  0  0  0  0  0  0  0  0  0  0
  1  2  1  0  0  0  0
  1  3  2  0  0  0  0
  2  4  2  0  0  0  0
  3  5  1  0  0  0  0
  3  7  1  0  0  0  0
  4  6  1  0  0  0  0
  4  8  1  0  0  0  0
  5  6  2  0  0  0  0
M  END
> <ID>
13250

> <Formula>
C7H8S

> <FW>
124.2034

> <DSSTox_CID>
28163

> <DSSTox_RID>
82724

> <DSSTox_GSID>
48188

> <DSSTox_FileID_Sort>
7401

> <TS_ChemName>
4-Thiocresol

> <TS_ChemName_Synonyms>
4-Thiocresol (p-toluene_thiol)

> <TS_CASRN>
106-45-6

> <CASRN_ChemName_Relationship>
primary

> <TS_Description>
single chemical compound

> <ChemNote>


> <STRUCTURE_Shown>
tested chemical

> <STRUCTURE_Formula>
C7H8S

> <STRUCTURE_MW>
124.2034

> <STRUCTURE_ChemType>
defined organic

> <STRUCTURE_DefinedOrganicForm>
parent

> <STRUCTURE_IUPAC>
4-methylbenzenethiol

> <STRUCTURE_SMILES>
Cc1ccc(S)cc1

> <STRUCTURE_SMILES_Desalt>
Cc1ccc(S)cc1

> <Substance_modify_yyyymmdd>
20110630

$$$$
