106-94-5
ChemmineR-0915142007XD

  4  3  0  0  0  0  0  0  0  0  1 V2000
    0.0000    0.0000    0.0000 Br   0  0  0  0  0  0  0  0  0  0  0  0
    1.1513   -0.6638    0.0000 C    0  0  0  0  0  0  0  0  0  0  0  0
    2.3061    0.0000    0.0000 C    0  0  0  0  0  0  0  0  0  0  0  0
    3.4575   -0.6638    0.0000 C    0  0  0  0  0  0  0  0  0  0  0  0
  1  2  1  0  0  0  0
  2  3  1  0  0  0  0
  3  4  1  0  0  0  0
M  END
> <ID>
1758

> <Formula>
C3H7Br

> <FW>
122.9917

> <DSSTox_CID>
1874

> <DSSTox_RID>
76379

> <DSSTox_GSID>
21874

> <DSSTox_FileID_Sort>
1063

> <TS_ChemName>
1-Bromopropane

> <TS_ChemName_Synonyms>


> <TS_CASRN>
106-94-5

> <CASRN_ChemName_Relationship>
primary

> <TS_Description>
single chemical compound

> <ChemNote>


> <STRUCTURE_Shown>
tested chemical

> <STRUCTURE_Formula>
C3H7Br

> <STRUCTURE_MW>
122.9917

> <STRUCTURE_ChemType>
defined organic

> <STRUCTURE_DefinedOrganicForm>
parent

> <STRUCTURE_IUPAC>
1-bromopropane

> <STRUCTURE_SMILES>
BrCCC

> <STRUCTURE_SMILES_Desalt>
BrCCC

> <Substance_modify_yyyymmdd>
20080429

$$$$
