106-65-0
ChemmineR-0915142007XD

 10  9  0  0  0  0  0  0  0  0  1 V2000
    1.1523   -1.3309    0.0000 C   0  0  0  0  0  0  0  0  0  0  0  0
    1.1523    0.0000    0.0000 O   0  0  0  0  0  0  0  0  0  0  0  0
    0.0000   -1.9935    0.0000 O   0  0  0  0  0  0  0  0  0  0  0  0
    0.0000   -3.3245    0.0000 C   0  0  0  0  0  0  0  0  0  0  0  0
    2.3047   -1.9935    0.0000 C   0  0  0  0  0  0  0  0  0  0  0  0
    3.4570   -1.3309    0.0000 C   0  0  0  0  0  0  0  0  0  0  0  0
    4.6093   -1.9935    0.0000 C   0  0  0  0  0  0  0  0  0  0  0  0
    4.6093   -3.3245    0.0000 O   0  0  0  0  0  0  0  0  0  0  0  0
    5.7617   -1.3309    0.0000 O   0  0  0  0  0  0  0  0  0  0  0  0
    5.7617    0.0000    0.0000 C   0  0  0  0  0  0  0  0  0  0  0  0
  1  2  2  0  0  0  0
  1  3  1  0  0  0  0
  1  5  1  0  0  0  0
  3  4  1  0  0  0  0
  5  6  1  0  0  0  0
  6  7  1  0  0  0  0
  7  8  2  0  0  0  0
  7  9  1  0  0  0  0
  9 10  1  0  0  0  0
M  END
> <ID>
4048

> <Formula>
C6H10O4

> <FW>
146.1412

> <DSSTox_CID>
5152

> <DSSTox_RID>
77690

> <DSSTox_GSID>
25152

> <DSSTox_FileID_Sort>
2373

> <TS_ChemName>
Dimethyl succinate

> <TS_ChemName_Synonyms>
Dimethyl butanedioate (Dimethyl succinate) (Butanedioic acid, dimethyl ester)

> <TS_CASRN>
106-65-0

> <CASRN_ChemName_Relationship>
primary

> <TS_Description>
single chemical compound

> <ChemNote>


> <STRUCTURE_Shown>
tested chemical

> <STRUCTURE_Formula>
C6H10O4

> <STRUCTURE_MW>
146.1412

> <STRUCTURE_ChemType>
defined organic

> <STRUCTURE_DefinedOrganicForm>
parent

> <STRUCTURE_IUPAC>
dimethyl butanedioate

> <STRUCTURE_SMILES>
COC(=O)CCC(=O)OC

> <STRUCTURE_SMILES_Desalt>
COC(=O)CCC(=O)OC

> <Substance_modify_yyyymmdd>
20080429

$$$$
