106-93-4
ChemmineR-0915142007XD

  4  3  0  0  0  0  0  0  0  0  1 V2000
    0.0000    0.0000    0.0000 Br   0  0  0  0  0  0  0  0  0  0  0  0
    1.1513   -0.6638    0.0000 C    0  0  0  0  0  0  0  0  0  0  0  0
    2.3061    0.0000    0.0000 C    0  0  0  0  0  0  0  0  0  0  0  0
    3.4575   -0.6638    0.0000 Br   0  0  0  0  0  0  0  0  0  0  0  0
  1  2  1  0  0  0  0
  2  3  1  0  0  0  0
  3  4  1  0  0  0  0
M  END
> <ID>
400

> <Formula>
C2H4Br2

> <FW>
187.8612

> <DSSTox_CID>
415

> <DSSTox_RID>
75571

> <DSSTox_GSID>
20415

> <DSSTox_FileID_Sort>
255

> <TS_ChemName>
1,2-Dibromoethane

> <TS_ChemName_Synonyms>
Ethylene dibromide (EDB)

> <TS_CASRN>
106-93-4

> <CASRN_ChemName_Relationship>
primary

> <TS_Description>
single chemical compound

> <ChemNote>


> <STRUCTURE_Shown>
tested chemical

> <STRUCTURE_Formula>
C2H4Br2

> <STRUCTURE_MW>
187.8612

> <STRUCTURE_ChemType>
defined organic

> <STRUCTURE_DefinedOrganicForm>
parent

> <STRUCTURE_IUPAC>
1,2-dibromoethane

> <STRUCTURE_SMILES>
BrCCBr

> <STRUCTURE_SMILES_Desalt>
BrCCBr

> <Substance_modify_yyyymmdd>
20080429

$$$$
