106-31-0
ChemmineR-0915142007XD

 11 10  0  0  0  0  0  0  0  0  1 V2000
    5.6995   -1.3082    0.0000 C   0  0  0  0  0  0  0  0  0  0  0  0
    6.8705   -1.9944    0.0000 C   0  0  0  0  0  0  0  0  0  0  0  0
    7.9958   -1.3082    0.0000 C   0  0  0  0  0  0  0  0  0  0  0  0
    9.1485   -1.9944    0.0000 C   0  0  0  0  0  0  0  0  0  0  0  0
    5.6995    0.0000    0.0000 O   0  0  0  0  0  0  0  0  0  0  0  0
    4.5742   -1.9944    0.0000 O   0  0  0  0  0  0  0  0  0  0  0  0
    3.4215   -1.3082    0.0000 C   0  0  0  0  0  0  0  0  0  0  0  0
    2.2780   -1.9944    0.0000 C   0  0  0  0  0  0  0  0  0  0  0  0
    1.1253   -1.3082    0.0000 C   0  0  0  0  0  0  0  0  0  0  0  0
    0.0000   -2.0218    0.0000 C   0  0  0  0  0  0  0  0  0  0  0  0
    3.4215    0.0000    0.0000 O   0  0  0  0  0  0  0  0  0  0  0  0
  1  2  1  0  0  0  0
  1  6  1  0  0  0  0
  1  5  2  0  0  0  0
  2  3  1  0  0  0  0
  3  4  1  0  0  0  0
  6  7  1  0  0  0  0
  7  8  1  0  0  0  0
  7 11  2  0  0  0  0
  8  9  1  0  0  0  0
  9 10  1  0  0  0  0
M  END
> <ID>
4787

> <Formula>
C8H14O3

> <FW>
158.195

> <DSSTox_CID>
6729

> <DSSTox_RID>
78204

> <DSSTox_GSID>
26729

> <DSSTox_FileID_Sort>
2887

> <TS_ChemName>
Butanoic anhydride

> <TS_ChemName_Synonyms>
Butanoic acid, anhydride;Butyric anhydride

> <TS_CASRN>
106-31-0

> <CASRN_ChemName_Relationship>
primary

> <TS_Description>
single chemical compound

> <ChemNote>


> <STRUCTURE_Shown>
tested chemical

> <STRUCTURE_Formula>
C8H14O3

> <STRUCTURE_MW>
158.195

> <STRUCTURE_ChemType>
defined organic

> <STRUCTURE_DefinedOrganicForm>
parent

> <STRUCTURE_IUPAC>
butanoic anhydride

> <STRUCTURE_SMILES>
CCCC(=O)OC(=O)CCC

> <STRUCTURE_SMILES_Desalt>
CCCC(=O)OC(=O)CCC

> <Substance_modify_yyyymmdd>
20080429

$$$$
