106017-08-7
ChemmineR-0915142007XD

 26 28  0  0  0  0  0  0  0  0  1 V2000
   12.4571   -3.4631    0.0000 C    0  0  0  0  0  0  0  0  0  0  0  0
   11.1242   -3.4631    0.0000 N    0  0  0  0  0  0  0  0  0  0  0  0
   10.4515   -4.6091    0.0000 C    0  0  0  0  0  0  0  0  0  0  0  0
    9.1311   -4.6091    0.0000 C    0  0  0  0  0  0  0  0  0  0  0  0
    8.4708   -3.4631    0.0000 N    0  0  0  0  0  0  0  0  0  0  0  0
    9.1311   -2.3046    0.0000 C    0  0  0  0  0  0  0  0  0  0  0  0
   10.4515   -2.3046    0.0000 C    0  0  0  0  0  0  0  0  0  0  0  0
    7.1379   -3.4631    0.0000 C    0  0  0  0  0  0  0  0  0  0  0  0
    6.4652   -4.6091    0.0000 C    0  0  0  0  0  0  0  0  0  0  0  0
    7.1379   -5.7676    0.0000 F    0  0  0  0  0  0  0  0  0  0  0  0
    5.1448   -4.6091    0.0000 C    0  0  0  0  0  0  0  0  0  0  0  0
    4.4721   -3.4631    0.0000 C    0  0  0  0  0  0  0  0  0  0  0  0
    3.1392   -3.4631    0.0000 C    0  0  0  0  0  0  0  0  0  0  0  0
    2.4790   -4.6091    0.0000 O    0  0  0  0  0  0  0  0  0  0  0  0
    2.4790   -2.3046    0.0000 C    0  0  0  0  0  0  0  0  0  0  0  0
    3.1392   -1.1585    0.0000 C    0  0  0  0  0  0  0  0  0  0  0  0
    4.4721   -1.1585    0.0000 N    0  0  0  0  0  0  0  0  0  0  0  0
    5.1448    0.0000    0.0000 C    0  0  0  0  0  0  0  0  0  0  0  0
    6.4652    0.0000    0.0000 C    0  0  0  0  0  0  0  0  0  0  0  0
    7.1379   -1.1585    0.0000 S    0  0  0  0  0  0  0  0  0  0  0  0
    6.4652   -2.3046    0.0000 C    0  0  0  0  0  0  0  0  0  0  0  0
    5.1448   -2.3046    0.0000 C    0  0  0  0  0  0  0  0  0  0  0  0
    1.1585   -2.3046    0.0000 C    0  0  0  0  0  0  0  0  0  0  0  0
    0.4858   -3.4631    0.0000 O    0  0  0  0  0  0  0  0  0  0  0  0
    0.4858   -1.1585    0.0000 O    0  0  0  0  0  0  0  0  0  0  0  0
    0.0000   -5.3690    0.0000 Cl   0  0  0  0  0  0  0  0  0  0  0  0
  1  2  1  0  0  0  0
  2  3  1  0  0  0  0
  2  7  1  0  0  0  0
  3  4  1  0  0  0  0
  4  5  1  0  0  0  0
  5  6  1  0  0  0  0
  5  8  1  0  0  0  0
  6  7  1  0  0  0  0
  8  9  2  0  0  0  0
  8 21  1  0  0  0  0
  9 10  1  0  0  0  0
  9 11  1  0  0  0  0
 11 12  2  0  0  0  0
 12 13  1  0  0  0  0
 12 22  1  0  0  0  0
 13 14  2  0  0  0  0
 13 15  1  0  0  0  0
 15 16  2  0  0  0  0
 15 23  1  0  0  0  0
 16 17  1  0  0  0  0
 17 18  1  0  0  0  0
 17 22  1  0  0  0  0
 18 19  1  0  0  0  0
 19 20  1  0  0  0  0
 20 21  1  0  0  0  0
 21 22  2  0  0  0  0
 23 24  1  0  0  0  0
 23 25  2  0  0  0  0
M  END
> <ID>
11150

> <Formula>
C17H19ClFN3O3S

> <FW>
399.8675 (363.4065+36.4609)

> <DSSTox_CID>
25709

> <DSSTox_RID>
81081

> <DSSTox_GSID>
45709

> <DSSTox_FileID_Sort>
5762

> <TS_ChemName>
Rufloxacin hydrochloride

> <TS_ChemName_Synonyms>


> <TS_CASRN>
106017-08-7

> <CASRN_ChemName_Relationship>
primary

> <TS_Description>
single chemical compound

> <ChemNote>


> <STRUCTURE_Shown>
tested chemical

> <STRUCTURE_Formula>
C17H19ClFN3O3S

> <STRUCTURE_MW>
399.8675

> <STRUCTURE_ChemType>
defined organic

> <STRUCTURE_DefinedOrganicForm>
complex

> <STRUCTURE_IUPAC>
9-fluoro-10-(4-methylpiperazin-1-yl)-7-oxo-2,3-dihydro-7H-[1,4]thiazino[2,3,4-ij]quinoline-6-carboxylic acid hydrochloride (1:1)

> <STRUCTURE_SMILES>
Cl.CN1CCN(CC1)c4c(F)cc2c3N(C=C(C2=O)C(=O)O)CCSc34

> <STRUCTURE_SMILES_Desalt>
CN1CCN(CC1)c4c(F)cc2c3N(C=C(C2=O)C(=O)O)CCSc34

> <Substance_modify_yyyymmdd>
20110819

$$$$
