106133-22-6
ChemmineR-0915142007XD

 29 28  0  0  0  0  0  0  0  0  1 V2000
    5.7525   -6.8527    0.0000 C   0  0  0  0  0  0  0  0  0  0  0  0
    4.6163   -6.1830    0.0000 N   0  0  0  0  0  0  0  0  0  0  0  0
    6.9006   -6.1830    0.0000 C   0  0  0  0  0  0  0  0  0  0  0  0
    4.6163   -4.8555    0.0000 C   0  0  0  0  0  0  0  0  0  0  0  0
    6.9006   -4.8555    0.0000 N   0  0  0  0  0  0  0  0  0  0  0  0
    5.7525   -4.1977    0.0000 C   0  0  0  0  0  0  0  0  0  0  0  0
    3.4563   -6.8527    0.0000 C   0  0  0  0  0  0  0  0  0  0  0  0
    2.3082   -6.1830    0.0000 C   0  0  0  0  0  0  0  0  0  0  0  0
    1.1481   -6.8527    0.0000 C   0  0  0  0  0  0  0  0  0  0  0  0
    2.3082   -4.8555    0.0000 C   0  0  0  0  0  0  0  0  0  0  0  0
    0.0000   -6.1830    0.0000 C   0  0  0  0  0  0  0  0  0  0  0  0
    1.1481   -4.1977    0.0000 C   0  0  0  0  0  0  0  0  0  0  0  0
    0.0000   -4.8555    0.0000 C   0  0  0  0  0  0  0  0  0  0  0  0
    1.7819   -1.3634    0.0000 C   0  0  0  0  0  0  0  0  0  0  0  0
    2.9420   -1.9972    0.0000 C   0  0  0  0  0  0  0  0  0  0  0  0
    4.1140   -1.3634    0.0000 C   0  0  0  0  0  0  0  0  0  0  0  0
    5.2621   -1.9972    0.0000 C   0  0  0  0  0  0  0  0  0  0  0  0
    1.7819    0.0000    0.0000 O   0  0  0  0  0  0  0  0  0  0  0  0
    0.6458   -1.9972    0.0000 O   0  0  0  0  0  0  0  0  0  0  0  0
    5.2621   -3.3606    0.0000 O   0  0  0  0  0  0  0  0  0  0  0  0
    6.4341   -1.3634    0.0000 O   0  0  0  0  0  0  0  0  0  0  0  0
    1.7819   -9.9622    0.0000 C   0  0  0  0  0  0  0  0  0  0  0  0
    2.9420  -10.5960    0.0000 C   0  0  0  0  0  0  0  0  0  0  0  0
    4.1140   -9.9622    0.0000 C   0  0  0  0  0  0  0  0  0  0  0  0
    5.2621  -10.5960    0.0000 C   0  0  0  0  0  0  0  0  0  0  0  0
    1.7819   -8.5988    0.0000 O   0  0  0  0  0  0  0  0  0  0  0  0
    0.6458  -10.5960    0.0000 O   0  0  0  0  0  0  0  0  0  0  0  0
    5.2621  -11.9594    0.0000 O   0  0  0  0  0  0  0  0  0  0  0  0
    6.4341   -9.9622    0.0000 O   0  0  0  0  0  0  0  0  0  0  0  0
  1  2  1  0  0  0  0
  1  3  1  0  0  0  0
  2  4  1  0  0  0  0
  2  7  1  0  0  0  0
  3  5  1  0  0  0  0
  4  6  1  0  0  0  0
  5  6  1  0  0  0  0
  7  8  1  0  0  0  0
  8  9  1  0  0  0  0
  8 10  2  0  0  0  0
  9 11  2  0  0  0  0
 10 12  1  0  0  0  0
 11 13  1  0  0  0  0
 12 13  2  0  0  0  0
 14 15  1  0  0  0  0
 14 19  1  0  0  0  0
 14 18  2  0  0  0  0
 15 16  2  0  0  0  0
 16 17  1  0  0  0  0
 17 21  1  0  0  0  0
 17 20  2  0  0  0  0
 22 23  1  0  0  0  0
 22 27  1  0  0  0  0
 22 26  2  0  0  0  0
 23 24  2  0  0  0  0
 24 25  1  0  0  0  0
 25 29  1  0  0  0  0
 25 28  2  0  0  0  0
M  END
> <ID>
13891

> <Formula>
C19H24N2O8

> <FW>
408.4025 (176.2581+116.0722+116.0722)

> <DSSTox_CID>
28828

> <DSSTox_RID>
83097

> <DSSTox_GSID>
48902

> <DSSTox_FileID_Sort>
7774

> <TS_ChemName>
1-Benzylpiperazine difumarate

> <TS_ChemName_Synonyms>


> <TS_CASRN>
106133-22-6

> <CASRN_ChemName_Relationship>
primary

> <TS_Description>
single chemical compound

> <ChemNote>


> <STRUCTURE_Shown>
tested chemical

> <STRUCTURE_Formula>
C19H24N2O8

> <STRUCTURE_MW>
408.4025

> <STRUCTURE_ChemType>
defined organic

> <STRUCTURE_DefinedOrganicForm>
complex

> <STRUCTURE_IUPAC>
1-benzylpiperazine (2E)-but-2-enedioate (1:2)

> <STRUCTURE_SMILES>
O=C(O)/C=C/C(=O)O.O=C(O)/C=C/C(=O)O.c1ccccc1CN2CCNCC2

> <STRUCTURE_SMILES_Desalt>
c1ccccc1CN2CCNCC2

> <Substance_modify_yyyymmdd>
20111204

$$$$
