106134-32-1
ChemmineR-0915142007XD

 25 24  0  0  0  0  0  0  0  0  1 V2000
    4.3678   -0.3831    0.0000 O    0  0  0  0  0  0  0  0  0  0  0  0
    4.9261   -1.1385    0.0000 C    0  0  0  0  0  0  0  0  0  0  0  0
    6.2835   -1.1385    0.0000 C    0  0  0  0  0  0  0  0  0  0  0  0
    6.9403   -2.2988    0.0000 C    0  0  0  0  0  0  0  0  0  0  0  0
    4.2693   -2.2988    0.0000 N    0  0  0  0  0  0  0  0  0  0  0  0
    2.6710   -2.2988    0.0000 C    0  0  0  0  0  0  0  0  0  0  0  0
    1.9923   -3.4592    0.0000 C    0  0  0  0  0  0  0  0  0  0  0  0
    0.6568   -3.4592    0.0000 C    0  0  0  0  0  0  0  0  0  0  0  0
    0.0000   -2.2988    0.0000 C    0  0  0  0  0  0  0  0  0  0  0  0
    0.6568   -1.1385    0.0000 C    0  0  0  0  0  0  0  0  0  0  0  0
    1.9923   -1.1385    0.0000 C    0  0  0  0  0  0  0  0  0  0  0  0
    2.6710   -4.6196    0.0000 C    0  0  0  0  0  0  0  0  0  0  0  0
    2.6710    0.0000    0.0000 C    0  0  0  0  0  0  0  0  0  0  0  0
    4.9261   -3.4592    0.0000 C    0  0  0  0  0  0  0  0  0  0  0  0
    6.2835   -3.4592    0.0000 C    0  0  0  0  0  0  0  0  0  0  0  0
    6.9403   -4.6196    0.0000 C    0  0  0  0  0  0  0  0  0  0  0  0
    8.9545   -5.7580    0.0000 C    0  0  0  0  0  0  0  0  0  0  0  0
    8.2758   -4.6196    0.0000 C    0  0  0  0  0  0  0  0  0  0  0  0
    8.9545   -3.4592    0.0000 C    0  0  0  0  0  0  0  0  0  0  0  0
   10.2900   -3.4592    0.0000 C    0  0  0  0  0  0  0  0  0  0  0  0
   10.9468   -4.6196    0.0000 C    0  0  0  0  0  0  0  0  0  0  0  0
   10.2900   -5.7580    0.0000 N    0  0  0  0  0  0  0  0  0  0  0  0
    6.9403    0.0000    0.0000 N    0  0  0  0  0  0  0  0  0  0  0  0
    4.7181   -5.5172    0.0000 Cl   0  0  0  0  0  0  0  0  0  0  0  0
    6.5681   -5.6157    0.0000 Cl   0  0  0  0  0  0  0  0  0  0  0  0
  1  2  2  0  0  0  0
  2  3  1  0  0  0  0
  2  5  1  0  0  0  0
  3  4  1  0  0  0  0
  3 23  1  0  0  0  0
  5  6  1  0  0  0  0
  5 14  1  0  0  0  0
  6  7  1  0  0  0  0
  6 11  2  0  0  0  0
  7  8  2  0  0  0  0
  7 12  1  0  0  0  0
  8  9  1  0  0  0  0
  9 10  2  0  0  0  0
 10 11  1  0  0  0  0
 11 13  1  0  0  0  0
 14 15  1  0  0  0  0
 15 16  1  0  0  0  0
 16 18  1  0  0  0  0
 17 18  1  0  0  0  0
 17 22  2  0  0  0  0
 18 19  2  0  0  0  0
 19 20  1  0  0  0  0
 20 21  2  0  0  0  0
 21 22  1  0  0  0  0
M  END
> <ID>
13764

> <Formula>
C19H27Cl2N3O

> <FW>
384.3432 (311.4213+36.4609+36.4609)

> <DSSTox_CID>
28701

> <DSSTox_RID>
82970

> <DSSTox_GSID>
48775

> <DSSTox_FileID_Sort>
7647

> <TS_ChemName>
Ro 22-9194

> <TS_ChemName_Synonyms>


> <TS_CASRN>
106134-32-1

> <CASRN_ChemName_Relationship>
primary

> <TS_Description>
single chemical compound

> <ChemNote>
stereochem; parent [106134-32-1]

> <STRUCTURE_Shown>
tested chemical

> <STRUCTURE_Formula>
C19H27Cl2N3O

> <STRUCTURE_MW>
384.3432

> <STRUCTURE_ChemType>
defined organic

> <STRUCTURE_DefinedOrganicForm>
complex

> <STRUCTURE_IUPAC>
N-(2,6-dimethylphenyl)-N-[3-(pyridin-3-yl)propyl]alaninamide dihydrochloride

> <STRUCTURE_SMILES>
Cl.Cl.CC(N)C(=O)N(CCCc1cccnc1)c2c(C)cccc2C

> <STRUCTURE_SMILES_Desalt>
CC(N)C(=O)N(CCCc1cccnc1)c2c(C)cccc2C

> <Substance_modify_yyyymmdd>
20111204

$$$$
