1061517-62-1
ChemmineR-0915142007XD

 43 47  0  0  0  0  0  0  0  0  2 V2000
    0.0000   -5.2370    0.0000 C    0  0  0  0  0  0  0  0  0  0  0  0
    0.7982   -4.1857    0.0000 C    0  0  0  0  0  0  0  0  0  0  0  0
    2.1026   -4.3025    0.0000 O    0  0  0  0  0  0  0  0  0  0  0  0
    2.9008   -3.2318    0.0000 C    0  0  0  0  0  0  0  0  0  0  0  0
    2.3751   -2.0052    0.0000 C    0  0  0  0  0  0  0  0  0  0  0  0
    3.1344   -0.9345    0.0000 C    0  0  0  0  0  0  0  0  0  0  0  0
    4.4583   -1.0708    0.0000 C    0  0  0  0  0  0  0  0  0  0  0  0
    4.9839   -2.2973    0.0000 C    0  0  0  0  0  0  0  0  0  0  0  0
    4.2246   -3.3680    0.0000 C    0  0  0  0  0  0  0  0  0  0  0  0
    6.3272   -2.4141    0.0000 N    0  0  0  0  0  0  0  0  0  0  0  0
    7.2228   -1.4407    0.0000 C    0  0  0  0  0  0  0  0  0  0  0  0
    8.4298   -1.9858    0.0000 C    0  0  0  0  0  0  0  0  0  0  0  0
    8.2741   -3.3096    0.0000 N    0  0  0  0  0  0  0  0  0  0  0  0
    7.0086   -3.5822    0.0000 C    0  0  0  0  0  0  0  0  0  0  0  0
    6.4635   -4.7892    0.0000 C    0  0  0  0  0  0  0  0  0  0  0  0
    7.2228   -5.8600    0.0000 C    0  0  0  0  0  0  0  0  0  0  0  0
    6.6971   -7.0865    0.0000 C    0  0  0  0  0  0  0  0  0  0  0  0
    5.3538   -7.2228    0.0000 C    0  0  0  0  0  0  0  0  0  0  0  0
    4.8087   -8.4298    0.0000 C    0  0  0  0  0  0  0  0  0  0  0  0
    4.5751   -6.1520    0.0000 C    0  0  0  0  0  0  0  0  0  0  0  0
    5.1202   -4.9450    0.0000 C    0  0  0  0  0  0  0  0  0  0  0  0
    9.5590   -1.3044    0.0000 C    0  0  0  0  0  0  0  0  0  0  0  0
    9.5590    0.0000    0.0000 O    0  0  0  0  0  0  0  0  0  0  0  0
   10.7271   -1.9858    0.0000 N    0  0  0  0  0  0  0  0  0  0  0  0
   11.8757   -1.3044    0.0000 C    0  0  0  0  0  0  0  0  0  0  0  0
   13.0244   -1.9858    0.0000 C    0  0  0  0  0  0  0  0  0  0  0  0
   13.0244   -3.3096    0.0000 N    0  0  0  0  0  0  0  0  0  0  0  0
   11.8757   -3.9910    0.0000 C    0  0  0  0  0  0  0  0  0  0  0  0
   10.7271   -3.3291    0.0000 C    0  0  0  0  0  0  0  0  0  0  0  0
   14.1925   -3.9910    0.0000 C    0  0  0  0  0  0  0  0  0  0  0  0
   15.3217   -3.3096    0.0000 C    0  0  0  0  0  0  0  0  0  0  0  0
   16.4898   -3.9910    0.0000 C    0  0  0  0  0  0  0  0  0  0  0  0
   17.6579   -3.3096    0.0000 C    0  0  0  0  0  0  0  0  0  0  0  0
   18.7676   -3.9910    0.0000 O    0  0  0  0  0  0  0  0  0  0  0  0
   17.6579   -1.9663    0.0000 O    0  5  0  0  0  0  0  0  0  0  0  0
   16.4898   -5.3149    0.0000 C    0  0  0  0  0  0  0  0  0  0  0  0
   17.6384   -5.9573    0.0000 C    0  0  0  0  0  0  0  0  0  0  0  0
   17.6384   -7.3007    0.0000 C    0  0  0  0  0  0  0  0  0  0  0  0
   16.4703   -7.9821    0.0000 C    0  0  0  0  0  0  0  0  0  0  0  0
   15.3217   -7.3007    0.0000 C    0  0  0  0  0  0  0  0  0  0  0  0
   15.3217   -5.9573    0.0000 C    0  0  0  0  0  0  0  0  0  0  0  0
   14.1925   -5.3149    0.0000 C    0  0  0  0  0  0  0  0  0  0  0  0
   19.4684   -2.3362    0.0000 Na   0  3  0  0  0  0  0  0  0  0  0  0
  1  2  1  0  0  0  0
  2  3  1  0  0  0  0
  3  4  1  0  0  0  0
  4  5  1  0  0  0  0
  4  9  2  0  0  0  0
  5  6  2  0  0  0  0
  6  7  1  0  0  0  0
  7  8  2  0  0  0  0
  8  9  1  0  0  0  0
  8 10  1  0  0  0  0
 10 11  1  0  0  0  0
 10 14  1  0  0  0  0
 11 12  2  0  0  0  0
 12 13  1  0  0  0  0
 12 22  1  0  0  0  0
 13 14  2  0  0  0  0
 14 15  1  0  0  0  0
 15 16  1  0  0  0  0
 15 21  2  0  0  0  0
 16 17  2  0  0  0  0
 17 18  1  0  0  0  0
 18 19  1  0  0  0  0
 18 20  2  0  0  0  0
 20 21  1  0  0  0  0
 22 23  2  0  0  0  0
 22 24  1  0  0  0  0
 24 25  1  0  0  0  0
 24 29  1  0  0  0  0
 25 26  1  0  0  0  0
 26 27  1  0  0  0  0
 27 28  1  0  0  0  0
 27 30  1  0  0  0  0
 28 29  1  0  0  0  0
 30 31  1  0  0  0  0
 30 42  2  0  0  0  0
 31 32  2  0  0  0  0
 32 33  1  0  0  0  0
 32 36  1  0  0  0  0
 33 34  2  0  0  0  0
 33 35  1  0  0  0  0
 36 37  2  0  0  0  0
 36 41  1  0  0  0  0
 37 38  1  0  0  0  0
 38 39  2  0  0  0  0
 39 40  1  0  0  0  0
 40 41  2  0  0  0  0
 41 42  1  0  0  0  0
M  END
> <ID>
12479

> <Formula>
C34H31N4NaO4

> <FW>
582.6241 (559.6349+22.9892)

> <DSSTox_CID>
27337

> <DSSTox_RID>
82279

> <DSSTox_GSID>
47337

> <DSSTox_FileID_Sort>
6960

> <TS_ChemName>
PharmaGSID_47337

> <TS_ChemName_Synonyms>
sodium 3-(4-{[1-(3-ethoxyphenyl)-2-(4-methylphenyl)-1H-imidazol-4-yl]carbonyl}piperazin-1-yl)naphthalene-1-carboxylate

> <TS_CASRN>
1061517-62-1

> <CASRN_ChemName_Relationship>
primary

> <TS_Description>
single chemical compound

> <ChemNote>


> <STRUCTURE_Shown>
tested chemical

> <STRUCTURE_Formula>
C34H31N4NaO4

> <STRUCTURE_MW>
582.6241

> <STRUCTURE_ChemType>
defined organic

> <STRUCTURE_DefinedOrganicForm>
salt

> <STRUCTURE_IUPAC>
sodium 3-(4-{[1-(3-ethoxyphenyl)-2-(4-methylphenyl)-1H-imidazol-4-yl]carbonyl}piperazin-1-yl)naphthalene-1-carboxylate

> <STRUCTURE_SMILES>
[Na+].O=C(c2cn(c1cccc(OCC)c1)c(n2)c3ccc(C)cc3)N4CCN(CC4)c6cc5ccccc5c(c6)C([O-])=O

> <STRUCTURE_SMILES_Desalt>
O=C(c2cn(c1cccc(OCC)c1)c(n2)c3ccc(C)cc3)N4CCN(CC4)c6cc5ccccc5c(c6)C(=O)O

> <Substance_modify_yyyymmdd>
20130910

$$$$
