1062243-51-9
ChemmineR-0915142007XD

 39 43  0  0  0  0  0  0  0  0  1 V2000
   12.1699   -1.9745    0.0000 C   0  0  0  0  0  0  0  0  0  0  0  0
   12.1699   -0.6462    0.0000 O   0  0  0  0  0  0  0  0  0  0  0  0
   10.9852   -2.6386    0.0000 C   0  0  0  0  0  0  0  0  0  0  0  0
   11.0032   -3.9669    0.0000 C   0  0  0  0  0  0  0  0  0  0  0  0
    9.8544   -1.9565    0.0000 C   0  0  0  0  0  0  0  0  0  0  0  0
    9.8544   -4.6310    0.0000 C   0  0  0  0  0  0  0  0  0  0  0  0
    8.6876   -2.6386    0.0000 C   0  0  0  0  0  0  0  0  0  0  0  0
    8.6876   -3.9489    0.0000 C   0  0  0  0  0  0  0  0  0  0  0  0
   13.3007   -2.6566    0.0000 N   0  0  0  0  0  0  0  0  0  0  0  0
    7.5568   -4.6310    0.0000 N   0  0  0  0  0  0  0  0  0  0  0  0
    3.0873   -4.8285    0.0000 N   0  0  0  0  0  0  0  0  0  0  0  0
    4.1105   -4.0028    0.0000 C   0  0  0  0  0  0  0  0  0  0  0  0
    4.1105   -2.6745    0.0000 C   0  0  0  0  0  0  0  0  0  0  0  0
    3.0514   -1.8488    0.0000 N   0  0  0  0  0  0  0  0  0  0  0  0
    1.7591   -2.1540    0.0000 C   0  0  0  0  0  0  0  0  0  0  0  0
    1.2026   -3.3566    0.0000 C   0  0  0  0  0  0  0  0  0  0  0  0
    1.7950   -4.5413    0.0000 C   0  0  0  0  0  0  0  0  0  0  0  0
    6.4080   -2.6566    0.0000 N   0  0  0  0  0  0  0  0  0  0  0  0
    5.2593   -4.6490    0.0000 N   0  0  0  0  0  0  0  0  0  0  0  0
    6.4080   -3.9848    0.0000 C   0  0  0  0  0  0  0  0  0  0  0  0
    5.2413   -1.9924    0.0000 C   0  0  0  0  0  0  0  0  0  0  0  0
    3.3745   -6.1029    0.0000 C   0  0  0  0  0  0  0  0  0  0  0  0
    2.5130   -7.1260    0.0000 C   0  0  0  0  0  0  0  0  0  0  0  0
    3.1950   -8.2569    0.0000 C   0  0  0  0  0  0  0  0  0  0  0  0
    4.5054   -7.9517    0.0000 C   0  0  0  0  0  0  0  0  0  0  0  0
    4.6131   -6.6414    0.0000 C   0  0  0  0  0  0  0  0  0  0  0  0
    0.0179   -3.9310    0.0000 F   0  0  0  0  0  0  0  0  0  0  0  0
    0.0000   -2.7822    0.0000 F   0  0  0  0  0  0  0  0  0  0  0  0
    3.3386   -0.5564    0.0000 C   0  0  0  0  0  0  0  0  0  0  0  0
    0.9334   -1.1129    0.0000 O   0  0  0  0  0  0  0  0  0  0  0  0
    9.8544   -5.9593    0.0000 O   0  0  0  0  0  0  0  0  0  0  0  0
   11.0032   -6.6234    0.0000 C   0  0  0  0  0  0  0  0  0  0  0  0
   16.7829   -0.6641    0.0000 N   0  0  0  0  0  0  0  0  0  0  0  0
   16.7829   -1.9924    0.0000 C   0  0  0  0  0  0  0  0  0  0  0  0
   15.6342    0.0000    0.0000 C   0  0  0  0  0  0  0  0  0  0  0  0
   15.6162   -2.6745    0.0000 C   0  0  0  0  0  0  0  0  0  0  0  0
   14.4674   -0.6462    0.0000 C   0  0  0  0  0  0  0  0  0  0  0  0
   14.4674   -1.9924    0.0000 C   0  0  0  0  0  0  0  0  0  0  0  0
   17.9497   -0.0179    0.0000 C   0  0  0  0  0  0  0  0  0  0  0  0
  1  2  2  0  0  0  0
  1  3  1  0  0  0  0
  1  9  1  0  0  0  0
  3  4  2  0  0  0  0
  3  5  1  0  0  0  0
  4  6  1  0  0  0  0
  5  7  2  0  0  0  0
  6  8  2  0  0  0  0
  6 31  1  0  0  0  0
  7  8  1  0  0  0  0
  8 10  1  0  0  0  0
  9 38  1  0  0  0  0
 10 20  1  0  0  0  0
 11 12  1  0  0  0  0
 11 17  1  0  0  0  0
 11 22  1  0  0  0  0
 12 13  2  0  0  0  0
 12 19  1  0  0  0  0
 13 14  1  0  0  0  0
 13 21  1  0  0  0  0
 14 15  1  0  0  0  0
 14 29  1  0  0  0  0
 15 16  1  0  0  0  0
 15 30  2  0  0  0  0
 16 17  1  0  0  0  0
 16 27  1  0  0  0  0
 16 28  1  0  0  0  0
 18 20  1  0  0  0  0
 18 21  2  0  0  0  0
 19 20  2  0  0  0  0
 22 23  1  0  0  0  0
 22 26  1  0  0  0  0
 23 24  1  0  0  0  0
 24 25  1  0  0  0  0
 25 26  1  0  0  0  0
 31 32  1  0  0  0  0
 33 34  1  0  0  0  0
 33 35  1  0  0  0  0
 33 39  1  0  0  0  0
 34 36  1  0  0  0  0
 35 37  1  0  0  0  0
 36 38  1  0  0  0  0
 37 38  1  0  0  0  0
M  END
> <ID>
13559

> <Formula>
C27H35F2N7O3

> <FW>
543.6087

> <DSSTox_CID>
28485

> <DSSTox_RID>
82762

> <DSSTox_GSID>
48511

> <DSSTox_FileID_Sort>
7439

> <TS_ChemName>
PharmaGSID_48511

> <TS_ChemName_Synonyms>
4-[(9-Cyclopentyl-7,7-difluoro-5-methyl-6-oxo-6,7,8,9-tetrahydro-5H-pyrimido[4,5-b][1,4]diazepin-2-yl)amino]-3-methoxy-N-(1-methylpiperidin-4-yl)benzamide

> <TS_CASRN>
1062243-51-9

> <CASRN_ChemName_Relationship>
primary

> <TS_Description>
single chemical compound

> <ChemNote>


> <STRUCTURE_Shown>
tested chemical

> <STRUCTURE_Formula>
C27H35F2N7O3

> <STRUCTURE_MW>
543.6087

> <STRUCTURE_ChemType>
defined organic

> <STRUCTURE_DefinedOrganicForm>
parent

> <STRUCTURE_IUPAC>
4-[(9-cyclopentyl-7,7-difluoro-5-methyl-6-oxo-6,7,8,9-tetrahydro-5H-pyrimido[4,5-b][1,4]diazepin-2-yl)amino]-3-methoxy-N-(1-methylpiperidin-4-yl)benzamide

> <STRUCTURE_SMILES>
CN5CCC(NC(=O)c4ccc(Nc1nc2N(CC(F)(F)C(=O)N(C)c2cn1)C3CCCC3)c(OC)c4)CC5

> <STRUCTURE_SMILES_Desalt>
CN5CCC(NC(=O)c4ccc(Nc1nc2N(CC(F)(F)C(=O)N(C)c2cn1)C3CCCC3)c(OC)c4)CC5

> <Substance_modify_yyyymmdd>
20130910

$$$$
