106266-06-2
ChemmineR-0915142007XD

 30 34  0  0  0  0  0  0  0  0  1 V2000
   11.5290   -4.6385    0.0000 C   0  0  0  0  0  0  0  0  0  0  0  0
   12.8063   -4.3528    0.0000 C   0  0  0  0  0  0  0  0  0  0  0  0
   10.3694   -3.9663    0.0000 C   0  0  0  0  0  0  0  0  0  0  0  0
   11.3778   -5.9830    0.0000 N   0  0  0  0  0  0  0  0  0  0  0  0
   13.4786   -5.5124    0.0000 C   0  0  0  0  0  0  0  0  0  0  0  0
   13.4786   -3.1932    0.0000 C   0  0  0  0  0  0  0  0  0  0  0  0
    9.2098   -4.6385    0.0000 C   0  0  0  0  0  0  0  0  0  0  0  0
   10.3694   -2.6386    0.0000 C   0  0  0  0  0  0  0  0  0  0  0  0
   12.5878   -6.5040    0.0000 O   0  0  0  0  0  0  0  0  0  0  0  0
   14.8062   -5.5124    0.0000 C   0  0  0  0  0  0  0  0  0  0  0  0
   14.8062   -3.1932    0.0000 C   0  0  0  0  0  0  0  0  0  0  0  0
    8.0502   -3.9663    0.0000 C   0  0  0  0  0  0  0  0  0  0  0  0
    9.2098   -1.9831    0.0000 C   0  0  0  0  0  0  0  0  0  0  0  0
   15.4785   -4.3528    0.0000 C   0  0  0  0  0  0  0  0  0  0  0  0
    8.0502   -2.6386    0.0000 N   0  0  0  0  0  0  0  0  0  0  0  0
   16.8062   -4.3528    0.0000 F   0  0  0  0  0  0  0  0  0  0  0  0
    6.8905   -1.9831    0.0000 C   0  0  0  0  0  0  0  0  0  0  0  0
    5.7813   -2.6386    0.0000 C   0  0  0  0  0  0  0  0  0  0  0  0
    4.6049   -1.9831    0.0000 C   0  0  0  0  0  0  0  0  0  0  0  0
    3.4453   -2.6386    0.0000 C   0  0  0  0  0  0  0  0  0  0  0  0
    4.6049   -0.6554    0.0000 C   0  0  0  0  0  0  0  0  0  0  0  0
    2.2856   -1.9831    0.0000 N   0  0  0  0  0  0  0  0  0  0  0  0
    3.4453   -3.9663    0.0000 O   0  0  0  0  0  0  0  0  0  0  0  0
    3.4453    0.0000    0.0000 N   0  0  0  0  0  0  0  0  0  0  0  0
    5.7813    0.0000    0.0000 C   0  0  0  0  0  0  0  0  0  0  0  0
    2.2856   -0.6554    0.0000 C   0  0  0  0  0  0  0  0  0  0  0  0
    1.1596   -2.6386    0.0000 C   0  0  0  0  0  0  0  0  0  0  0  0
    1.1596    0.0000    0.0000 C   0  0  0  0  0  0  0  0  0  0  0  0
    0.0000   -1.9831    0.0000 C   0  0  0  0  0  0  0  0  0  0  0  0
    0.0000   -0.6554    0.0000 C   0  0  0  0  0  0  0  0  0  0  0  0
  1  2  1  0  0  0  0
  1  3  1  0  0  0  0
  1  4  2  0  0  0  0
  2  5  2  0  0  0  0
  2  6  1  0  0  0  0
  3  7  1  0  0  0  0
  3  8  1  0  0  0  0
  4  9  1  0  0  0  0
  5 10  1  0  0  0  0
  5  9  1  0  0  0  0
  6 11  2  0  0  0  0
  7 12  1  0  0  0  0
  8 13  1  0  0  0  0
 10 14  2  0  0  0  0
 11 14  1  0  0  0  0
 12 15  1  0  0  0  0
 13 15  1  0  0  0  0
 14 16  1  0  0  0  0
 15 17  1  0  0  0  0
 17 18  1  0  0  0  0
 18 19  1  0  0  0  0
 19 20  1  0  0  0  0
 19 21  2  0  0  0  0
 20 22  1  0  0  0  0
 20 23  2  0  0  0  0
 21 24  1  0  0  0  0
 21 25  1  0  0  0  0
 22 26  1  0  0  0  0
 22 27  1  0  0  0  0
 24 26  2  0  0  0  0
 26 28  1  0  0  0  0
 27 29  1  0  0  0  0
 28 30  1  0  0  0  0
 29 30  1  0  0  0  0
M  END
> <ID>
10810

> <Formula>
C23H27FN4O2

> <FW>
410.4845

> <DSSTox_CID>
25193

> <DSSTox_RID>
80740

> <DSSTox_GSID>
45193

> <DSSTox_FileID_Sort>
5421

> <TS_ChemName>
Risperidone

> <TS_ChemName_Synonyms>


> <TS_CASRN>
106266-06-2

> <CASRN_ChemName_Relationship>
primary

> <TS_Description>
single chemical compound

> <ChemNote>


> <STRUCTURE_Shown>
tested chemical

> <STRUCTURE_Formula>
C23H27FN4O2

> <STRUCTURE_MW>
410.4845

> <STRUCTURE_ChemType>
defined organic

> <STRUCTURE_DefinedOrganicForm>
parent

> <STRUCTURE_IUPAC>
3-{2-[4-(6-fluoro-1,2-benzoxazol-3-yl)piperidin-1-yl]ethyl}-2-methyl-6,7,8,9-tetrahydro-4H-pyrido[1,2-a]pyrimidin-4-one

> <STRUCTURE_SMILES>
CC=5N=C1CCCCN1C(=O)C=5CCN2CCC(CC2)c4noc3cc(F)ccc34

> <STRUCTURE_SMILES_Desalt>
CC=5N=C1CCCCN1C(=O)C=5CCN2CCC(CC2)c4noc3cc(F)ccc34

> <Substance_modify_yyyymmdd>
20100107

$$$$
