106308-44-5
ChemmineR-0915142007XD

 17 18  0  0  0  0  0  0  0  0  1 V2000
    0.0000   -2.5478    0.0000 N   0  0  0  0  0  0  0  0  0  0  0  0
    1.2156   -2.0066    0.0000 C   0  0  0  0  0  0  0  0  0  0  0  0
    1.3572   -0.6827    0.0000 O   0  0  0  0  0  0  0  0  0  0  0  0
    2.2897   -2.7893    0.0000 C   0  0  0  0  0  0  0  0  0  0  0  0
    3.5553   -2.3813    0.0000 C   0  0  0  0  0  0  0  0  0  0  0  0
    4.3379   -3.4553    0.0000 N   0  0  0  0  0  0  0  0  0  0  0  0
    5.6701   -3.4553    0.0000 C   0  0  0  0  0  0  0  0  0  0  0  0
    6.3279   -2.2980    0.0000 C   0  0  0  0  0  0  0  0  0  0  0  0
    5.6701   -1.1490    0.0000 C   0  0  0  0  0  0  0  0  0  0  0  0
    4.3379   -1.1490    0.0000 F   0  0  0  0  0  0  0  0  0  0  0  0
    6.3279    0.0000    0.0000 C   0  0  0  0  0  0  0  0  0  0  0  0
    7.6601    0.0000    0.0000 C   0  0  0  0  0  0  0  0  0  0  0  0
    8.3261   -1.1490    0.0000 C   0  0  0  0  0  0  0  0  0  0  0  0
    7.6601   -2.2980    0.0000 C   0  0  0  0  0  0  0  0  0  0  0  0
    8.3261   -3.4553    0.0000 F   0  0  0  0  0  0  0  0  0  0  0  0
    3.5553   -4.5294    0.0000 N   0  0  0  0  0  0  0  0  0  0  0  0
    2.2897   -4.1214    0.0000 N   0  0  0  0  0  0  0  0  0  0  0  0
  1  2  1  0  0  0  0
  2  3  2  0  0  0  0
  2  4  1  0  0  0  0
  4  5  2  0  0  0  0
  4 17  1  0  0  0  0
  5  6  1  0  0  0  0
  6  7  1  0  0  0  0
  6 16  1  0  0  0  0
  7  8  1  0  0  0  0
  8  9  2  0  0  0  0
  8 14  1  0  0  0  0
  9 10  1  0  0  0  0
  9 11  1  0  0  0  0
 11 12  2  0  0  0  0
 12 13  1  0  0  0  0
 13 14  2  0  0  0  0
 14 15  1  0  0  0  0
 16 17  2  0  0  0  0
M  END
> <ID>
11741

> <Formula>
C10H8F2N4O

> <FW>
238.1935

> <DSSTox_CID>
26506

> <DSSTox_RID>
81675

> <DSSTox_GSID>
46506

> <DSSTox_FileID_Sort>
6356

> <TS_ChemName>
Rufinamide

> <TS_ChemName_Synonyms>


> <TS_CASRN>
106308-44-5

> <CASRN_ChemName_Relationship>
primary

> <TS_Description>
single chemical compound

> <ChemNote>


> <STRUCTURE_Shown>
tested chemical

> <STRUCTURE_Formula>
C10H8F2N4O

> <STRUCTURE_MW>
238.1935

> <STRUCTURE_ChemType>
defined organic

> <STRUCTURE_DefinedOrganicForm>
parent

> <STRUCTURE_IUPAC>
1-(2,6-difluorobenzyl)-1H-1,2,3-triazole-4-carboxamide

> <STRUCTURE_SMILES>
NC(=O)c2cn(Cc1c(F)cccc1F)nn2

> <STRUCTURE_SMILES_Desalt>
NC(=O)c2cn(Cc1c(F)cccc1F)nn2

> <Substance_modify_yyyymmdd>
20110812

$$$$
