106463-17-6
ChemmineR-0915142007XD

 29 29  0  0  1  0  0  0  0  0  1 V2000
   10.2362   -3.9450    0.0000 Cl   0  0  0  0  0  0  0  0  0  0  0  0
    4.5876   -2.6599    0.0000 C    0  0  0  0  0  0  0  0  0  0  0  0
    4.5876   -3.9899    0.0000 C    0  0  0  0  0  0  0  0  0  0  0  0
    3.4370   -1.9725    0.0000 C    0  0  0  0  0  0  0  0  0  0  0  0
    3.4370   -4.6324    0.0000 C    0  0  0  0  0  0  0  0  0  0  0  0
    2.3013   -2.6599    0.0000 C    0  0  0  0  0  0  0  0  0  0  0  0
    2.3013   -3.9899    0.0000 C    0  0  0  0  0  0  0  0  0  0  0  0
   14.9433   -1.9725    0.0000 C    0  0  0  0  0  0  0  0  0  0  0  0
   13.7777   -2.6599    0.0000 C    0  0  0  0  0  0  0  0  0  0  0  0
   12.6420   -1.9725    0.0000 C    0  0  0  0  0  0  0  0  0  0  0  0
   11.4914   -2.6599    0.0000 O    0  0  0  0  0  0  0  0  0  0  0  0
   10.3557   -1.9725    0.0000 C    0  0  0  0  0  0  0  0  0  0  0  0
    9.1901   -2.6599    0.0000 C    0  0  0  0  0  0  0  0  0  0  0  0
    8.0545   -1.9725    0.0000 N    0  0  0  0  0  0  0  0  0  0  0  0
    6.8739   -2.6599    0.0000 C    0  0  0  0  0  0  0  0  0  0  0  0
    5.7382   -1.9725    0.0000 C    0  0  0  0  0  0  0  0  0  0  0  0
    6.8739   -3.9899    0.0000 C    0  0  0  0  0  0  0  0  0  0  0  0
    1.1357   -4.6324    0.0000 O    0  0  0  0  0  0  0  0  0  0  0  0
   14.9433   -0.6426    0.0000 C    0  0  0  0  0  0  0  0  0  0  0  0
   13.7777    0.0000    0.0000 C    0  0  0  0  0  0  0  0  0  0  0  0
   12.6420   -0.6426    0.0000 C    0  0  0  0  0  0  0  0  0  0  0  0
   11.4914    0.0000    0.0000 O    0  0  0  0  0  0  0  0  0  0  0  0
   10.3557   -0.6426    0.0000 C    0  0  0  0  0  0  0  0  0  0  0  0
    9.1901    0.0000    0.0000 C    0  0  0  0  0  0  0  0  0  0  0  0
    1.1357   -1.9725    0.0000 S    0  0  0  0  0  0  0  0  0  0  0  0
    0.0000   -2.6599    0.0000 N    0  0  0  0  0  0  0  0  0  0  0  0
    0.0000   -3.9600    0.0000 C    0  0  0  0  0  0  0  0  0  0  0  0
    1.8231   -0.8368    0.0000 O    0  0  0  0  0  0  0  0  0  0  0  0
    0.4931   -0.8219    0.0000 O    0  0  0  0  0  0  0  0  0  0  0  0
  2  3  1  0  0  0  0
  2  4  2  0  0  0  0
  2 16  1  0  0  0  0
  3  5  2  0  0  0  0
  4  6  1  0  0  0  0
  5  7  1  0  0  0  0
  6  7  2  0  0  0  0
  6 25  1  0  0  0  0
  7 18  1  0  0  0  0
  8 19  1  0  0  0  0
  8  9  2  0  0  0  0
  9 10  1  0  0  0  0
 10 11  1  0  0  0  0
 10 21  2  0  0  0  0
 11 12  1  0  0  0  0
 12 13  1  0  0  0  0
 13 14  1  0  0  0  0
 14 15  1  0  0  0  0
 15 16  1  0  0  0  0
 15 17  1  6  0  0  0
 18 27  1  0  0  0  0
 19 20  2  0  0  0  0
 20 21  1  0  0  0  0
 21 22  1  0  0  0  0
 22 23  1  0  0  0  0
 23 24  1  0  0  0  0
 25 26  1  0  0  0  0
 25 28  2  0  0  0  0
 25 29  2  0  0  0  0
M  END
> <ID>
11842

> <Formula>
C20H29ClN2O5S

> <FW>
444.9727 (36.4609+408.5117)

> <DSSTox_CID>
26628

> <DSSTox_RID>
81777

> <DSSTox_GSID>
46628

> <DSSTox_FileID_Sort>
6458

> <TS_ChemName>
Tamsulosin hydrochloride

> <TS_ChemName_Synonyms>


> <TS_CASRN>
106463-17-6

> <CASRN_ChemName_Relationship>
primary

> <TS_Description>
single chemical compound

> <ChemNote>
stereochem; parent [106133-20-4]

> <STRUCTURE_Shown>
tested chemical

> <STRUCTURE_Formula>
C20H29ClN2O5S

> <STRUCTURE_MW>
444.9727

> <STRUCTURE_ChemType>
defined organic

> <STRUCTURE_DefinedOrganicForm>
complex

> <STRUCTURE_IUPAC>
5-[(2R)-2-{[2-(2-ethoxyphenoxy)ethyl]amino}propyl]-2-methoxybenzenesulfonamide hydrochloride (1:1)

> <STRUCTURE_SMILES>
Cl.O=S(N)(=O)c1cc(ccc1OC)C[C@@H](C)NCCOc2ccccc2OCC

> <STRUCTURE_SMILES_Desalt>
O=S(N)(=O)c1cc(ccc1OC)C[C@@H](C)NCCOc2ccccc2OCC

> <Substance_modify_yyyymmdd>
20110809

$$$$
