106516-24-9
ChemmineR-0915142007XD

 31 35  0  0  0  0  0  0  0  0  1 V2000
    4.7015   -5.6933    0.0000 C    0  0  0  0  0  0  0  0  0  0  0  0
    3.4392   -6.1055    0.0000 C    0  0  0  0  0  0  0  0  0  0  0  0
    5.0493   -4.4439    0.0000 C    0  0  0  0  0  0  0  0  0  0  0  0
    5.5130   -6.7753    0.0000 C    0  0  0  0  0  0  0  0  0  0  0  0
    3.4392   -7.4580    0.0000 C    0  0  0  0  0  0  0  0  0  0  0  0
    2.3057   -5.4486    0.0000 C    0  0  0  0  0  0  0  0  0  0  0  0
    4.1863   -3.4521    0.0000 C    0  0  0  0  0  0  0  0  0  0  0  0
    6.3502   -4.1605    0.0000 C    0  0  0  0  0  0  0  0  0  0  0  0
    4.7015   -7.8959    0.0000 N    0  0  0  0  0  0  0  0  0  0  0  0
    2.3057   -8.1149    0.0000 C    0  0  0  0  0  0  0  0  0  0  0  0
    1.1464   -6.1184    0.0000 C    0  0  0  0  0  0  0  0  0  0  0  0
    4.5598   -2.1897    0.0000 C    0  0  0  0  0  0  0  0  0  0  0  0
    6.6594   -2.8982    0.0000 C    0  0  0  0  0  0  0  0  0  0  0  0
    5.1266   -9.1067    0.0000 C    0  0  0  0  0  0  0  0  0  0  0  0
    1.1464   -7.4451    0.0000 C    0  0  0  0  0  0  0  0  0  0  0  0
    0.0000   -5.4615    0.0000 Cl   0  0  0  0  0  0  0  0  0  0  0  0
    5.8479   -1.8677    0.0000 N    0  0  0  0  0  0  0  0  0  0  0  0
    4.2507  -10.0986    0.0000 C    0  0  0  0  0  0  0  0  0  0  0  0
    6.4404   -9.3644    0.0000 C    0  0  0  0  0  0  0  0  0  0  0  0
    6.3116   -0.6440    0.0000 C    0  0  0  0  0  0  0  0  0  0  0  0
    4.6629  -11.3609    0.0000 C    0  0  0  0  0  0  0  0  0  0  0  0
    6.8526  -10.6267    0.0000 C    0  0  0  0  0  0  0  0  0  0  0  0
    7.6126   -0.3864    0.0000 C    0  0  0  0  0  0  0  0  0  0  0  0
    5.9767  -11.6185    0.0000 C    0  0  0  0  0  0  0  0  0  0  0  0
    8.5400   -1.2881    0.0000 N    0  0  0  0  0  0  0  0  0  0  0  0
    6.3889  -12.8808    0.0000 F    0  0  0  0  0  0  0  0  0  0  0  0
    9.8667   -1.1464    0.0000 C    0  0  0  0  0  0  0  0  0  0  0  0
    8.3210   -2.6406    0.0000 C    0  0  0  0  0  0  0  0  0  0  0  0
   10.4850   -2.3701    0.0000 N    0  0  0  0  0  0  0  0  0  0  0  0
   10.4979    0.0000    0.0000 O    0  0  0  0  0  0  0  0  0  0  0  0
    9.5060   -3.3361    0.0000 C    0  0  0  0  0  0  0  0  0  0  0  0
  1  2  1  0  0  0  0
  1  3  1  0  0  0  0
  1  4  2  0  0  0  0
  2  5  2  0  0  0  0
  2  6  1  0  0  0  0
  3  7  1  0  0  0  0
  3  8  1  0  0  0  0
  4  9  1  0  0  0  0
  5 10  1  0  0  0  0
  5  9  1  0  0  0  0
  6 11  2  0  0  0  0
  7 12  1  0  0  0  0
  8 13  1  0  0  0  0
  9 14  1  0  0  0  0
 10 15  2  0  0  0  0
 11 16  1  0  0  0  0
 11 15  1  0  0  0  0
 12 17  1  0  0  0  0
 13 17  1  0  0  0  0
 14 18  1  0  0  0  0
 14 19  2  0  0  0  0
 17 20  1  0  0  0  0
 18 21  2  0  0  0  0
 19 22  1  0  0  0  0
 20 23  1  0  0  0  0
 21 24  1  0  0  0  0
 22 24  2  0  0  0  0
 23 25  1  0  0  0  0
 24 26  1  0  0  0  0
 25 27  1  0  0  0  0
 25 28  1  0  0  0  0
 27 29  1  0  0  0  0
 27 30  2  0  0  0  0
 28 31  1  0  0  0  0
 29 31  1  0  0  0  0
M  END
> <ID>
13955

> <Formula>
C24H26ClFN4O

> <FW>
440.9408

> <DSSTox_CID>
28893

> <DSSTox_RID>
83161

> <DSSTox_GSID>
48967

> <DSSTox_FileID_Sort>
7838

> <TS_ChemName>
Sertindole

> <TS_ChemName_Synonyms>


> <TS_CASRN>
106516-24-9

> <CASRN_ChemName_Relationship>
primary

> <TS_Description>
single chemical compound

> <ChemNote>


> <STRUCTURE_Shown>
tested chemical

> <STRUCTURE_Formula>
C24H26ClFN4O

> <STRUCTURE_MW>
440.9408

> <STRUCTURE_ChemType>
defined organic

> <STRUCTURE_DefinedOrganicForm>
parent

> <STRUCTURE_IUPAC>
1-(2-{4-[5-chloro-1-(4-fluorophenyl)-1H-indol-3-yl]piperidin-1-yl}ethyl)imidazolidin-2-one

> <STRUCTURE_SMILES>
Fc1ccc(cc1)n5cc(C3CCN(CCN2CCNC2=O)CC3)c4cc(Cl)ccc45

> <STRUCTURE_SMILES_Desalt>
Fc1ccc(cc1)n5cc(C3CCN(CCN2CCNC2=O)CC3)c4cc(Cl)ccc45

> <Substance_modify_yyyymmdd>
20111204

$$$$
