106560-14-9
ChemmineR-0915142007XD

 21 23  0  0  1  0  0  0  0  0  1 V2000
    5.7300   -1.9398    0.0000 C   0  0  0  0  0  0  0  0  0  0  0  0
    5.7300   -3.2270    0.0000 C   0  0  0  0  0  0  0  0  0  0  0  0
    4.6215   -1.2872    0.0000 S   0  0  0  0  0  0  0  0  0  0  0  0
    3.5220   -1.9398    0.0000 C   0  0  0  0  0  0  0  0  0  0  0  0
    3.5220   -3.2270    0.0000 N   0  0  0  0  0  0  0  0  0  0  0  0
    2.2169   -3.2270    0.0000 C   0  0  0  0  0  0  0  0  0  0  0  0
    2.2169   -1.9398    0.0000 C   0  0  0  0  0  0  0  0  0  0  0  0
    6.8563   -1.2872    0.0000 C   0  0  0  0  0  0  0  0  0  0  0  0
    7.8843   -2.0471    0.0000 O   0  0  0  0  0  0  0  0  0  0  0  0
    7.2497   -0.0447    0.0000 C   0  0  0  0  0  0  0  0  0  0  0  0
    8.9392   -1.2872    0.0000 C   0  0  0  0  0  0  0  0  0  0  0  0
    8.5369   -0.0447    0.0000 C   0  0  0  0  0  0  0  0  0  0  0  0
    6.8563   -3.8617    0.0000 C   0  0  0  0  0  0  0  0  0  0  0  0
    7.9648   -3.2270    0.0000 O   0  0  0  0  0  0  0  0  0  0  0  0
    6.8563   -5.1490    0.0000 O   0  0  0  0  0  0  0  0  0  0  0  0
    1.3051   -4.1210    0.0000 O   0  0  0  0  0  0  0  0  0  0  0  0
    1.0995   -1.2872    0.0000 C   0  0  0  0  0  0  0  0  0  0  0  0
    1.0995    0.0000    0.0000 O   0  0  0  0  0  0  0  0  0  0  0  0
    0.0000   -1.9398    0.0000 C   0  0  0  0  0  0  0  0  0  0  0  0
    2.2169   -0.6526    0.0000 H   0  0  0  0  0  0  0  0  0  0  0  0
    3.5220   -0.6526    0.0000 H   0  0  0  0  0  0  0  0  0  0  0  0
  1  2  2  0  0  0  0
  1  3  1  0  0  0  0
  8  1  1  1  0  0  0
  2  5  1  0  0  0  0
  2 13  1  0  0  0  0
  3  4  1  0  0  0  0
  4  7  1  0  0  0  0
  4  5  1  0  0  0  0
  4 21  1  6  0  0  0
  5  6  1  0  0  0  0
  6  7  1  0  0  0  0
  6 16  2  0  0  0  0
  7 17  1  0  0  0  0
  7 20  1  1  0  0  0
  8  9  1  0  0  0  0
  8 10  1  0  0  0  0
  9 11  1  0  0  0  0
 10 12  1  0  0  0  0
 11 12  1  0  0  0  0
 13 14  2  0  0  0  0
 13 15  1  0  0  0  0
 17 18  1  1  0  0  0
 17 19  1  0  0  0  0
M  END
> <ID>
11674

> <Formula>
C12H15NO5S

> <FW>
285.3162

> <DSSTox_CID>
26430

> <DSSTox_RID>
81608

> <DSSTox_GSID>
46430

> <DSSTox_FileID_Sort>
6289

> <TS_ChemName>
Fropenem

> <TS_ChemName_Synonyms>


> <TS_CASRN>
106560-14-9

> <CASRN_ChemName_Relationship>
primary

> <TS_Description>
single chemical compound

> <ChemNote>
stereochem

> <STRUCTURE_Shown>
tested chemical

> <STRUCTURE_Formula>
C12H15NO5S

> <STRUCTURE_MW>
285.3162

> <STRUCTURE_ChemType>
defined organic

> <STRUCTURE_DefinedOrganicForm>
parent

> <STRUCTURE_IUPAC>
(5R,6S)-6-[(1R)-1-hydroxyethyl]-7-oxo-3-[(2R)-tetrahydrofuran-2-yl]-4-thia-1-azabicyclo[3.2.0]hept-2-ene-2-carboxylic acid

> <STRUCTURE_SMILES>
O=C2N1C(=C(S[C@@H]1[C@H]2[C@@H](C)O)[C@H]3CCCO3)C(=O)O

> <STRUCTURE_SMILES_Desalt>
O=C2N1C(=C(S[C@@H]1[C@H]2[C@@H](C)O)[C@H]3CCCO3)C(=O)O

> <Substance_modify_yyyymmdd>
20110813

$$$$
