106685-40-9
ChemmineR-0915142007XD

 31 36  0  0  0  0  0  0  0  0  1 V2000
    3.4133   -7.2268    0.0000 C   0  0  0  0  0  0  0  0  0  0  0  0
    3.4133   -5.8764    0.0000 C   0  0  0  0  0  0  0  0  0  0  0  0
    2.2756   -7.8519    0.0000 C   0  0  0  0  0  0  0  0  0  0  0  0
    4.5261   -7.9144    0.0000 C   0  0  0  0  0  0  0  0  0  0  0  0
    2.6882   -8.3270    0.0000 C   0  0  0  0  0  0  0  0  0  0  0  0
    2.2756   -5.2388    0.0000 C   0  0  0  0  0  0  0  0  0  0  0  0
    4.5511   -5.2388    0.0000 C   0  0  0  0  0  0  0  0  0  0  0  0
    2.2756   -9.1647    0.0000 C   0  0  0  0  0  0  0  0  0  0  0  0
    4.5261   -9.2148    0.0000 C   0  0  0  0  0  0  0  0  0  0  0  0
    2.6882   -9.8899    0.0000 C   0  0  0  0  0  0  0  0  0  0  0  0
    2.2756   -3.9135    0.0000 C   0  0  0  0  0  0  0  0  0  0  0  0
    1.1503   -5.8764    0.0000 O   0  0  0  0  0  0  0  0  0  0  0  0
    4.5511   -3.9135    0.0000 C   0  0  0  0  0  0  0  0  0  0  0  0
    3.3258   -9.5648    0.0000 C   0  0  0  0  0  0  0  0  0  0  0  0
    1.1628  -10.1900    0.0000 C   0  0  0  0  0  0  0  0  0  0  0  0
    3.6634  -10.6026    0.0000 C   0  0  0  0  0  0  0  0  0  0  0  0
    3.4133   -3.2633    0.0000 C   0  0  0  0  0  0  0  0  0  0  0  0
    0.0000   -5.2388    0.0000 C   0  0  0  0  0  0  0  0  0  0  0  0
    5.6889   -3.2633    0.0000 C   0  0  0  0  0  0  0  0  0  0  0  0
    6.8142   -3.9135    0.0000 C   0  0  0  0  0  0  0  0  0  0  0  0
    5.6889   -1.9505    0.0000 C   0  0  0  0  0  0  0  0  0  0  0  0
    7.9520   -3.2633    0.0000 C   0  0  0  0  0  0  0  0  0  0  0  0
    6.8142   -1.2878    0.0000 C   0  0  0  0  0  0  0  0  0  0  0  0
    7.9520   -1.9505    0.0000 C   0  0  0  0  0  0  0  0  0  0  0  0
    9.0897   -3.9135    0.0000 C   0  0  0  0  0  0  0  0  0  0  0  0
    9.0897   -1.2878    0.0000 C   0  0  0  0  0  0  0  0  0  0  0  0
   10.2275   -3.2633    0.0000 C   0  0  0  0  0  0  0  0  0  0  0  0
   10.2275   -1.9505    0.0000 C   0  0  0  0  0  0  0  0  0  0  0  0
   11.3528   -1.2878    0.0000 C   0  0  0  0  0  0  0  0  0  0  0  0
   12.5031   -1.9505    0.0000 O   0  0  0  0  0  0  0  0  0  0  0  0
   11.3528    0.0000    0.0000 O   0  0  0  0  0  0  0  0  0  0  0  0
  1  2  1  0  0  0  0
  1  3  1  0  0  0  0
  1  4  1  0  0  0  0
  1  5  1  0  0  0  0
  2  6  2  0  0  0  0
  2  7  1  0  0  0  0
  3  8  1  0  0  0  0
  4  9  1  0  0  0  0
  5 10  1  0  0  0  0
  6 11  1  0  0  0  0
  6 12  1  0  0  0  0
  7 13  2  0  0  0  0
  8 14  1  0  0  0  0
  8 15  1  0  0  0  0
  9 16  1  0  0  0  0
  9 14  1  0  0  0  0
 10 15  1  0  0  0  0
 10 16  1  0  0  0  0
 11 17  2  0  0  0  0
 12 18  1  0  0  0  0
 13 19  1  0  0  0  0
 13 17  1  0  0  0  0
 19 20  1  0  0  0  0
 19 21  2  0  0  0  0
 20 22  2  0  0  0  0
 21 23  1  0  0  0  0
 22 24  1  0  0  0  0
 22 25  1  0  0  0  0
 23 24  2  0  0  0  0
 24 26  1  0  0  0  0
 25 27  2  0  0  0  0
 26 28  2  0  0  0  0
 27 28  1  0  0  0  0
 28 29  1  0  0  0  0
 29 30  1  0  0  0  0
 29 31  2  0  0  0  0
M  END
> <ID>
11718

> <Formula>
C28H28O3

> <FW>
412.5201

> <DSSTox_CID>
26481

> <DSSTox_RID>
81652

> <DSSTox_GSID>
46481

> <DSSTox_FileID_Sort>
6333

> <TS_ChemName>
Adapalene

> <TS_ChemName_Synonyms>


> <TS_CASRN>
106685-40-9

> <CASRN_ChemName_Relationship>
primary

> <TS_Description>
single chemical compound

> <ChemNote>


> <STRUCTURE_Shown>
tested chemical

> <STRUCTURE_Formula>
C28H28O3

> <STRUCTURE_MW>
412.5201

> <STRUCTURE_ChemType>
defined organic

> <STRUCTURE_DefinedOrganicForm>
parent

> <STRUCTURE_IUPAC>
6-[4-methoxy-3-(tricyclo[3.3.1.1~3,7~]dec-1-yl)phenyl]naphthalene-2-carboxylic acid

> <STRUCTURE_SMILES>
O=C(O)c1ccc2cc(ccc2c1)c3cc(c(OC)cc3)C46CC5CC(CC(C4)C5)C6

> <STRUCTURE_SMILES_Desalt>
O=C(O)c1ccc2cc(ccc2c1)c3cc(c(OC)cc3)C46CC5CC(CC(C4)C5)C6

> <Substance_modify_yyyymmdd>
20110812

$$$$
