1067-33-0
ChemmineR-0915142007XD

 17 16  0  0  0  0  0  0  0  0  1 V2000
    1.6822   -1.9949    0.0000 C    0  0  0  0  0  0  0  0  0  0  0  0
    2.8360   -1.3324    0.0000 C    0  0  0  0  0  0  0  0  0  0  0  0
    2.8360    0.0000    0.0000 O    0  0  0  0  0  0  0  0  0  0  0  0
    3.9897   -1.9949    0.0000 O    0  0  0  0  0  0  0  0  0  0  0  0
    3.9897   -3.3272    0.0000 Sn   0  0  0  0  0  0  0  0  0  0  0  0
    5.3221   -3.3272    0.0000 O    0  0  0  0  0  0  0  0  0  0  0  0
    5.9846   -2.1735    0.0000 C    0  0  0  0  0  0  0  0  0  0  0  0
    5.3221   -1.0272    0.0000 O    0  0  0  0  0  0  0  0  0  0  0  0
    7.3095   -2.1735    0.0000 C    0  0  0  0  0  0  0  0  0  0  0  0
    3.9897   -4.6596    0.0000 C    0  0  0  0  0  0  0  0  0  0  0  0
    5.1434   -5.3221    0.0000 C    0  0  0  0  0  0  0  0  0  0  0  0
    6.2897   -4.6596    0.0000 C    0  0  0  0  0  0  0  0  0  0  0  0
    7.4435   -5.3221    0.0000 C    0  0  0  0  0  0  0  0  0  0  0  0
    2.6573   -3.3272    0.0000 C    0  0  0  0  0  0  0  0  0  0  0  0
    1.9949   -4.4810    0.0000 C    0  0  0  0  0  0  0  0  0  0  0  0
    0.6625   -4.4810    0.0000 C    0  0  0  0  0  0  0  0  0  0  0  0
    0.0000   -3.3272    0.0000 C    0  0  0  0  0  0  0  0  0  0  0  0
  1  2  1  0  0  0  0
  2  3  2  0  0  0  0
  2  4  1  0  0  0  0
  4  5  1  0  0  0  0
  5  6  1  0  0  0  0
  5 10  1  0  0  0  0
  5 14  1  0  0  0  0
  6  7  1  0  0  0  0
  7  8  2  0  0  0  0
  7  9  1  0  0  0  0
 10 11  1  0  0  0  0
 11 12  1  0  0  0  0
 12 13  1  0  0  0  0
 14 15  1  0  0  0  0
 15 16  1  0  0  0  0
 16 17  1  0  0  0  0
M  END
> <ID>
403

> <Formula>
C12H24O4Sn

> <FW>
351.0266

> <DSSTox_CID>
419

> <DSSTox_RID>
75572

> <DSSTox_GSID>
20419

> <DSSTox_FileID_Sort>
256

> <TS_ChemName>
Dibutyltin diacetate

> <TS_ChemName_Synonyms>


> <TS_CASRN>
1067-33-0

> <CASRN_ChemName_Relationship>
primary

> <TS_Description>
single chemical compound

> <ChemNote>


> <STRUCTURE_Shown>
tested chemical

> <STRUCTURE_Formula>
C12H24O4Sn

> <STRUCTURE_MW>
351.0266

> <STRUCTURE_ChemType>
organometallic

> <STRUCTURE_DefinedOrganicForm>


> <STRUCTURE_IUPAC>
bis(acetyloxy)(dibutyl)stannane

> <STRUCTURE_SMILES>
O=C(C)O[Sn](CCCC)(OC(=O)C)CCCC

> <STRUCTURE_SMILES_Desalt>
O=C(C)O[Sn](CCCC)(OC(=O)C)CCCC

> <Substance_modify_yyyymmdd>
20080429

$$$$
