1068967-96-3
ChemmineR-0915142007XD

 27 30  0  0  0  0  0  0  0  0  1 V2000
   10.7467   -2.6593    0.0000 C   0  0  0  0  0  0  0  0  0  0  0  0
   12.0215   -3.0842    0.0000 C   0  0  0  0  0  0  0  0  0  0  0  0
   10.4726   -1.3570    0.0000 C   0  0  0  0  0  0  0  0  0  0  0  0
   12.9948   -2.1795    0.0000 C   0  0  0  0  0  0  0  0  0  0  0  0
   11.4595   -0.4798    0.0000 C   0  0  0  0  0  0  0  0  0  0  0  0
   12.7206   -0.8773    0.0000 C   0  0  0  0  0  0  0  0  0  0  0  0
    9.9791   -3.7559    0.0000 N   0  0  0  0  0  0  0  0  0  0  0  0
   10.7604   -4.8114    0.0000 C   0  0  0  0  0  0  0  0  0  0  0  0
   12.0215   -4.4138    0.0000 C   0  0  0  0  0  0  0  0  0  0  0  0
    8.6495   -3.7422    0.0000 N   0  0  0  0  0  0  0  0  0  0  0  0
   13.7076    0.0000    0.0000 F   0  0  0  0  0  0  0  0  0  0  0  0
   13.1181   -5.1815    0.0000 C   0  0  0  0  0  0  0  0  0  0  0  0
    7.9915   -4.8936    0.0000 C   0  0  0  0  0  0  0  0  0  0  0  0
    6.6482   -4.8936    0.0000 C   0  0  0  0  0  0  0  0  0  0  0  0
    8.6495   -6.0587    0.0000 O   0  0  0  0  0  0  0  0  0  0  0  0
    4.6606   -6.0725    0.0000 N   0  0  0  0  0  0  0  0  0  0  0  0
    5.9902   -6.0725    0.0000 C   0  0  0  0  0  0  0  0  0  0  0  0
    3.9889   -4.9073    0.0000 C   0  0  0  0  0  0  0  0  0  0  0  0
    4.6606   -3.7559    0.0000 N   0  0  0  0  0  0  0  0  0  0  0  0
    5.9902   -3.7559    0.0000 C   0  0  0  0  0  0  0  0  0  0  0  0
    2.6456   -4.9073    0.0000 C   0  0  0  0  0  0  0  0  0  0  0  0
    1.9876   -6.0725    0.0000 N   0  0  0  0  0  0  0  0  0  0  0  0
    1.9876   -3.7696    0.0000 C   0  0  0  0  0  0  0  0  0  0  0  0
    0.6580   -6.0725    0.0000 C   0  0  0  0  0  0  0  0  0  0  0  0
    0.6580   -3.7696    0.0000 C   0  0  0  0  0  0  0  0  0  0  0  0
    0.0000   -4.9347    0.0000 C   0  0  0  0  0  0  0  0  0  0  0  0
    6.6482   -7.2102    0.0000 C   0  0  0  0  0  0  0  0  0  0  0  0
  1  3  2  0  0  0  0
  1  7  1  0  0  0  0
  1  2  1  0  0  0  0
  2  4  2  0  0  0  0
  2  9  1  0  0  0  0
  3  5  1  0  0  0  0
  4  6  1  0  0  0  0
  5  6  2  0  0  0  0
  6 11  1  0  0  0  0
  7  8  1  0  0  0  0
  7 10  1  0  0  0  0
  8  9  2  0  0  0  0
  9 12  1  0  0  0  0
 10 13  1  0  0  0  0
 13 14  1  0  0  0  0
 13 15  2  0  0  0  0
 14 17  2  0  0  0  0
 14 20  1  0  0  0  0
 16 17  1  0  0  0  0
 16 18  2  0  0  0  0
 17 27  1  0  0  0  0
 18 19  1  0  0  0  0
 18 21  1  0  0  0  0
 19 20  2  0  0  0  0
 21 22  1  0  0  0  0
 21 23  2  0  0  0  0
 22 24  2  0  0  0  0
 23 25  1  0  0  0  0
 24 26  1  0  0  0  0
 25 26  2  0  0  0  0
M  END
> <ID>
12533

> <Formula>
C20H16FN5O

> <FW>
361.3723

> <DSSTox_CID>
27391

> <DSSTox_RID>
82315

> <DSSTox_GSID>
47391

> <DSSTox_FileID_Sort>
6996

> <TS_ChemName>
SAR102608

> <TS_ChemName_Synonyms>


> <TS_CASRN>
1068967-96-3

> <CASRN_ChemName_Relationship>
primary

> <TS_Description>
single chemical compound

> <ChemNote>


> <STRUCTURE_Shown>
tested chemical

> <STRUCTURE_Formula>
C20H16FN5O

> <STRUCTURE_MW>
361.3723

> <STRUCTURE_ChemType>
defined organic

> <STRUCTURE_DefinedOrganicForm>
parent

> <STRUCTURE_IUPAC>
N-(5-fluoro-3-methyl-1H-indol-1-yl)-4-methyl-2-(pyridin-2-yl)pyrimidine-5-carboxamide

> <STRUCTURE_SMILES>
Cc1nc(ncc1C(=O)Nn3cc(C)c2cc(F)ccc23)c4ccccn4

> <STRUCTURE_SMILES_Desalt>
Cc1nc(ncc1C(=O)Nn3cc(C)c2cc(F)ccc23)c4ccccn4

> <Substance_modify_yyyymmdd>
20130910

$$$$
