106861-44-3
ChemmineR-0915142007XD

 76 79  0  0  1  0  0  0  0  0  2 V2000
   23.9512   -7.9317    0.0000 Cl   0  5  0  0  0  0  0  0  0  0  0  0
    7.1823   -4.9339    0.0000 Cl   0  5  0  0  0  0  0  0  0  0  0  0
   25.4501   -6.6826    0.0000 N    0  3  0  0  0  0  0  0  0  0  0  0
   26.6056   -6.0268    0.0000 C    0  0  0  0  0  0  0  0  0  0  0  0
   25.4501   -8.0254    0.0000 C    0  0  0  0  0  0  0  0  0  0  0  0
   27.7610   -6.6826    0.0000 C    0  0  0  0  0  0  0  0  0  0  0  0
   26.6056   -8.6812    0.0000 C    0  0  0  0  0  0  0  0  0  0  0  0
   27.7610   -8.0254    0.0000 C    0  0  0  0  0  0  0  0  0  0  0  0
   28.9476   -6.0268    0.0000 C    0  0  0  0  0  0  0  0  0  0  0  0
   28.9476   -8.6812    0.0000 C    0  0  0  0  0  0  0  0  0  0  0  0
   30.1030   -6.6826    0.0000 C    0  0  0  0  0  0  0  0  0  0  0  0
   30.1030   -8.0254    0.0000 C    0  0  0  0  0  0  0  0  0  0  0  0
   31.2272   -6.0268    0.0000 O    0  0  0  0  0  0  0  0  0  0  0  0
   31.2272   -8.6812    0.0000 O    0  0  0  0  0  0  0  0  0  0  0  0
   31.2272   -4.7153    0.0000 C    0  0  0  0  0  0  0  0  0  0  0  0
   31.1959  -10.0552    0.0000 C    0  0  0  0  0  0  0  0  0  0  0  0
   24.2947   -6.0268    0.0000 C    0  0  0  0  0  0  0  0  0  0  0  0
   23.1393   -6.6826    0.0000 C    0  0  0  0  0  0  0  0  0  0  0  0
   22.0152   -6.0268    0.0000 C    0  0  0  0  0  0  0  0  0  0  0  0
   20.8285   -6.6826    0.0000 O    0  0  0  0  0  0  0  0  0  0  0  0
   19.6731   -6.0268    0.0000 C    0  0  0  0  0  0  0  0  0  0  0  0
   18.5177   -6.6826    0.0000 C    0  0  0  0  0  0  0  0  0  0  0  0
   17.3623   -6.0268    0.0000 C    0  0  0  0  0  0  0  0  0  0  0  0
   16.1757   -6.6826    0.0000 C    0  0  0  0  0  0  0  0  0  0  0  0
   24.8881   -5.6833    0.0000 C    0  0  0  0  0  0  0  0  0  0  0  0
   19.6731   -4.6841    0.0000 O    0  0  0  0  0  0  0  0  0  0  0  0
   15.0515   -6.0268    0.0000 C    0  0  0  0  0  0  0  0  0  0  0  0
    3.4974   -6.0268    0.0000 C    0  0  0  0  0  0  0  0  0  0  0  0
    4.6216   -6.6826    0.0000 C    0  0  0  0  0  0  0  0  0  0  0  0
    3.4974   -4.6841    0.0000 C    0  0  0  0  0  0  0  0  0  0  0  0
    2.3108   -6.6826    0.0000 C    0  0  0  0  0  0  0  0  0  0  0  0
    5.7770   -6.0268    0.0000 N    0  3  0  0  0  0  0  0  0  0  0  0
    2.3108   -3.9971    0.0000 C    0  0  0  0  0  0  0  0  0  0  0  0
    4.6216   -3.9971    0.0000 C    0  0  0  0  0  0  0  0  0  0  0  0
    1.1554   -6.0268    0.0000 C    0  0  0  0  0  0  0  0  0  0  0  0
    5.7770   -4.6841    0.0000 C    0  0  0  0  0  0  0  0  0  0  0  0
    6.9324   -6.6826    0.0000 C    0  0  0  0  0  0  0  0  0  0  0  0
    1.1554   -4.6841    0.0000 C    0  0  0  0  0  0  0  0  0  0  0  0
    0.0000   -6.6826    0.0000 O    0  0  0  0  0  0  0  0  0  0  0  0
    8.0878   -6.0268    0.0000 C    0  0  0  0  0  0  0  0  0  0  0  0
    0.0312   -3.9971    0.0000 O    0  0  0  0  0  0  0  0  0  0  0  0
    0.0000   -8.0254    0.0000 C    0  0  0  0  0  0  0  0  0  0  0  0
    9.2745   -6.6826    0.0000 C    0  0  0  0  0  0  0  0  0  0  0  0
    0.0312   -2.6855    0.0000 C    0  0  0  0  0  0  0  0  0  0  0  0
   10.4299   -6.0268    0.0000 O    0  0  0  0  0  0  0  0  0  0  0  0
   11.5853   -6.6826    0.0000 C    0  0  0  0  0  0  0  0  0  0  0  0
   12.7407   -6.0268    0.0000 C    0  0  0  0  0  0  0  0  0  0  0  0
   13.8649   -6.6826    0.0000 C    0  0  0  0  0  0  0  0  0  0  0  0
    6.3703   -7.0261    0.0000 C    0  0  0  0  0  0  0  0  0  0  0  0
   11.5853   -8.0254    0.0000 O    0  0  0  0  0  0  0  0  0  0  0  0
   26.6056   -4.6841    0.0000 C    0  0  0  0  0  0  0  0  0  0  0  0
   25.4501   -3.9971    0.0000 C    0  0  0  0  0  0  0  0  0  0  0  0
   25.4501   -2.6855    0.0000 C    0  0  0  0  0  0  0  0  0  0  0  0
   24.2947   -4.6841    0.0000 C    0  0  0  0  0  0  0  0  0  0  0  0
   24.2947   -2.0298    0.0000 C    0  0  0  0  0  0  0  0  0  0  0  0
   23.1393   -3.9971    0.0000 C    0  0  0  0  0  0  0  0  0  0  0  0
   23.1393   -2.6855    0.0000 C    0  0  0  0  0  0  0  0  0  0  0  0
   24.2947   -0.6870    0.0000 O    0  0  0  0  0  0  0  0  0  0  0  0
   25.4501    0.0000    0.0000 C    0  0  0  0  0  0  0  0  0  0  0  0
   21.9839   -2.0298    0.0000 O    0  0  0  0  0  0  0  0  0  0  0  0
   21.9839   -0.6870    0.0000 C    0  0  0  0  0  0  0  0  0  0  0  0
   21.9839   -4.6841    0.0000 O    0  0  0  0  0  0  0  0  0  0  0  0
   20.8285   -3.9971    0.0000 C    0  0  0  0  0  0  0  0  0  0  0  0
    4.6216   -8.0254    0.0000 C    0  0  0  0  0  0  0  0  0  0  0  0
    5.7770   -8.6812    0.0000 C    0  0  0  0  0  0  0  0  0  0  0  0
    5.7770  -10.0552    0.0000 C    0  0  0  0  0  0  0  0  0  0  0  0
    6.9324   -8.0254    0.0000 C    0  0  0  0  0  0  0  0  0  0  0  0
    6.9324  -10.7109    0.0000 C    0  0  0  0  0  0  0  0  0  0  0  0
    8.0878   -8.6812    0.0000 C    0  0  0  0  0  0  0  0  0  0  0  0
    8.0878  -10.0552    0.0000 C    0  0  0  0  0  0  0  0  0  0  0  0
    6.9324  -12.0225    0.0000 O    0  0  0  0  0  0  0  0  0  0  0  0
    5.7770  -12.7095    0.0000 C    0  0  0  0  0  0  0  0  0  0  0  0
    9.2745  -10.7109    0.0000 O    0  0  0  0  0  0  0  0  0  0  0  0
    9.2745  -12.0225    0.0000 C    0  0  0  0  0  0  0  0  0  0  0  0
    9.2745   -8.0254    0.0000 O    0  0  0  0  0  0  0  0  0  0  0  0
   10.4299   -8.6812    0.0000 C    0  0  0  0  0  0  0  0  0  0  0  0
  3  4  1  0  0  0  0
  3  5  1  0  0  0  0
  3 17  1  0  0  0  0
  3 25  1  0  0  0  0
  4  6  1  0  0  0  0
  4 51  1  6  0  0  0
  5  7  1  0  0  0  0
  6  8  2  0  0  0  0
  6  9  1  0  0  0  0
  7  8  1  0  0  0  0
  8 10  1  0  0  0  0
  9 11  2  0  0  0  0
 10 12  2  0  0  0  0
 11 13  1  0  0  0  0
 11 12  1  0  0  0  0
 12 14  1  0  0  0  0
 13 15  1  0  0  0  0
 14 16  1  0  0  0  0
 17 18  1  0  0  0  0
 18 19  1  0  0  0  0
 19 20  1  0  0  0  0
 20 21  1  0  0  0  0
 21 22  1  0  0  0  0
 21 26  2  0  0  0  0
 22 23  1  0  0  0  0
 23 24  1  0  0  0  0
 24 27  2  0  0  0  0
 27 48  1  0  0  0  0
 28 29  1  0  0  0  0
 28 30  1  0  0  0  0
 28 31  2  0  0  0  0
 29 32  1  0  0  0  0
 29 64  1  6  0  0  0
 30 33  2  0  0  0  0
 30 34  1  0  0  0  0
 31 35  1  0  0  0  0
 32 36  1  0  0  0  0
 32 37  1  0  0  0  0
 32 49  1  0  0  0  0
 33 38  1  0  0  0  0
 34 36  1  0  0  0  0
 35 39  1  0  0  0  0
 35 38  2  0  0  0  0
 37 40  1  0  0  0  0
 38 41  1  0  0  0  0
 39 42  1  0  0  0  0
 40 43  1  0  0  0  0
 41 44  1  0  0  0  0
 43 45  1  0  0  0  0
 45 46  1  0  0  0  0
 46 47  1  0  0  0  0
 46 50  2  0  0  0  0
 47 48  1  0  0  0  0
 51 52  1  0  0  0  0
 52 53  1  0  0  0  0
 52 54  2  0  0  0  0
 53 55  2  0  0  0  0
 54 56  1  0  0  0  0
 55 57  1  0  0  0  0
 55 58  1  0  0  0  0
 56 57  2  0  0  0  0
 56 62  1  0  0  0  0
 57 60  1  0  0  0  0
 58 59  1  0  0  0  0
 60 61  1  0  0  0  0
 62 63  1  0  0  0  0
 64 65  1  0  0  0  0
 65 66  1  0  0  0  0
 65 67  2  0  0  0  0
 66 68  2  0  0  0  0
 67 69  1  0  0  0  0
 68 70  1  0  0  0  0
 68 71  1  0  0  0  0
 69 70  2  0  0  0  0
 69 75  1  0  0  0  0
 70 73  1  0  0  0  0
 71 72  1  0  0  0  0
 73 74  1  0  0  0  0
 75 76  1  0  0  0  0
M  END
> <ID>
11859

> <Formula>
C58H80Cl2N2O14

> <FW>
1100.1668 (35.4535+35.4535+1029.2597)

> <DSSTox_CID>
26649

> <DSSTox_RID>
81794

> <DSSTox_GSID>
46649

> <DSSTox_FileID_Sort>
6475

> <TS_ChemName>
Mivacurium chloride

> <TS_ChemName_Synonyms>


> <TS_CASRN>
106861-44-3

> <CASRN_ChemName_Relationship>
primary

> <TS_Description>
single chemical compound

> <ChemNote>
ammonium; absolute stereochem; parent [133814-19-4]

> <STRUCTURE_Shown>
tested chemical

> <STRUCTURE_Formula>
C58H80Cl2N2O14

> <STRUCTURE_MW>
1100.1668

> <STRUCTURE_ChemType>
defined organic

> <STRUCTURE_DefinedOrganicForm>
salt

> <STRUCTURE_IUPAC>
(1R,1'R)-2,2'-{[(4E)-1,8-dioxooct-4-ene-1,8-diyl]bis(oxypropane-3,1-diyl)}bis[6,7-dimethoxy-2-methyl-1-(3,4,5-trimethoxybenzyl)-1,2,3,4-tetrahydroisoquinolinium] dichloride

> <STRUCTURE_SMILES>
[Cl-].[Cl-].COc1cc(cc(OC)c1OC)C[C@@H]5c6cc(OC)c(OC)cc6CC[N+]5(C)CCCOC(=O)CC\C=C\CCC(=O)OCCC[N+]3(C)CCc4cc(OC)c(OC)cc4[C@H]3Cc2cc(OC)c(OC)c(OC)c2

> <STRUCTURE_SMILES_Desalt>
COc1cc(cc(OC)c1OC)C[C@@H]5c6cc(OC)c(OC)cc6CC[N+]5(C)CCCOC(=O)CC\C=C\CCC(=O)OCCC[N+]3(C)CCc4cc(OC)c(OC)cc4[C@H]3Cc2cc(OC)c(OC)c(OC)c2

> <Substance_modify_yyyymmdd>
20110808

$$$$
