106941-25-7
ChemmineR-0915142007XD

 18 19  0  0  0  0  0  0  0  0  1 V2000
    4.6406   -3.3233    0.0000 C   0  0  0  0  0  0  0  0  0  0  0  0
    4.6406   -2.0127    0.0000 C   0  0  0  0  0  0  0  0  0  0  0  0
    5.8978   -3.7714    0.0000 N   0  0  0  0  0  0  0  0  0  0  0  0
    3.4571   -4.0388    0.0000 N   0  0  0  0  0  0  0  0  0  0  0  0
    5.8978   -1.6316    0.0000 N   0  0  0  0  0  0  0  0  0  0  0  0
    3.4571   -1.3307    0.0000 C   0  0  0  0  0  0  0  0  0  0  0  0
    6.6868   -2.6614    0.0000 C   0  0  0  0  0  0  0  0  0  0  0  0
    5.8978   -5.0686    0.0000 C   0  0  0  0  0  0  0  0  0  0  0  0
    2.3270   -3.3233    0.0000 C   0  0  0  0  0  0  0  0  0  0  0  0
    2.3270   -2.0127    0.0000 N   0  0  0  0  0  0  0  0  0  0  0  0
    3.4571    0.0000    0.0000 N   0  0  0  0  0  0  0  0  0  0  0  0
    4.7677   -5.7373    0.0000 C   0  0  0  0  0  0  0  0  0  0  0  0
    3.6309   -5.0552    0.0000 O   0  0  0  0  0  0  0  0  0  0  0  0
    2.4407   -5.7373    0.0000 C   0  0  0  0  0  0  0  0  0  0  0  0
    1.3173   -5.0552    0.0000 P   0  0  0  0  0  0  0  0  0  0  0  0
    0.0000   -5.3695    0.0000 O   0  0  0  0  0  0  0  0  0  0  0  0
    0.6687   -6.1786    0.0000 O   0  0  0  0  0  0  0  0  0  0  0  0
    1.3173   -3.7246    0.0000 O   0  0  0  0  0  0  0  0  0  0  0  0
  1  2  2  0  0  0  0
  1  3  1  0  0  0  0
  1  4  1  0  0  0  0
  2  5  1  0  0  0  0
  2  6  1  0  0  0  0
  3  7  1  0  0  0  0
  3  8  1  0  0  0  0
  4  9  2  0  0  0  0
  5  7  2  0  0  0  0
  6 10  2  0  0  0  0
  6 11  1  0  0  0  0
  8 12  1  0  0  0  0
  9 10  1  0  0  0  0
 12 13  1  0  0  0  0
 13 14  1  0  0  0  0
 14 15  1  0  0  0  0
 15 16  1  0  0  0  0
 15 17  1  0  0  0  0
 15 18  2  0  0  0  0
M  END
> <ID>
11509

> <Formula>
C8H12N5O4P

> <FW>
273.1857

> <DSSTox_CID>
26214

> <DSSTox_RID>
81442

> <DSSTox_GSID>
46214

> <DSSTox_FileID_Sort>
6123

> <TS_ChemName>
Adefovir

> <TS_ChemName_Synonyms>


> <TS_CASRN>
106941-25-7

> <CASRN_ChemName_Relationship>
primary

> <TS_Description>
single chemical compound

> <ChemNote>


> <STRUCTURE_Shown>
tested chemical

> <STRUCTURE_Formula>
C8H12N5O4P

> <STRUCTURE_MW>
273.1857

> <STRUCTURE_ChemType>
defined organic

> <STRUCTURE_DefinedOrganicForm>
parent

> <STRUCTURE_IUPAC>
{[2-(6-amino-9H-purin-9-yl)ethoxy]methyl}phosphonic acid

> <STRUCTURE_SMILES>
O=P(O)(O)COCCn2cnc1c(N)ncnc12

> <STRUCTURE_SMILES_Desalt>
O=P(O)(O)COCCn2cnc1c(N)ncnc12

> <Substance_modify_yyyymmdd>
20110817

$$$$
