1069-66-5
ChemmineR-0915142007XD

 11  9  0  0  0  0  0  0  0  0  2 V2000
    2.3042    0.0000    0.0000 O    0  0  0  0  0  0  0  0  0  0  0  0
    3.4563   -0.6682    0.0000 C    0  0  0  0  0  0  0  0  0  0  0  0
    3.4563   -1.9989    0.0000 C    0  0  0  0  0  0  0  0  0  0  0  0
    4.6084   -2.6614    0.0000 C    0  0  0  0  0  0  0  0  0  0  0  0
    5.7605   -1.9989    0.0000 C    0  0  0  0  0  0  0  0  0  0  0  0
    5.7605   -0.6682    0.0000 C    0  0  0  0  0  0  0  0  0  0  0  0
    2.3042   -2.6614    0.0000 C    0  0  0  0  0  0  0  0  0  0  0  0
    1.1521   -1.9989    0.0000 C    0  0  0  0  0  0  0  0  0  0  0  0
    0.0000   -2.6614    0.0000 C    0  0  0  0  0  0  0  0  0  0  0  0
    4.6084    0.0000    0.0000 O    0  5  0  0  0  0  0  0  0  0  0  0
    2.9263   -3.9920    0.0000 Na   0  3  0  0  0  0  0  0  0  0  0  0
  1  2  2  0  0  0  0
  2  3  1  0  0  0  0
  2 10  1  0  0  0  0
  3  4  1  0  0  0  0
  3  7  1  0  0  0  0
  4  5  1  0  0  0  0
  5  6  1  0  0  0  0
  7  8  1  0  0  0  0
  8  9  1  0  0  0  0
M  END
> <ID>
7249

> <Formula>
C8H15NaO2

> <FW>
166.1933 (143.2040+22.9892)

> <DSSTox_CID>
17072

> <DSSTox_RID>
79301

> <DSSTox_GSID>
37072

> <DSSTox_FileID_Sort>
3983

> <TS_ChemName>
Sodium valproate

> <TS_ChemName_Synonyms>


> <TS_CASRN>
1069-66-5

> <CASRN_ChemName_Relationship>
primary

> <TS_Description>
single chemical compound

> <ChemNote>
parent [99-66-1]

> <STRUCTURE_Shown>
tested chemical

> <STRUCTURE_Formula>
C8H15NaO2

> <STRUCTURE_MW>
166.1933

> <STRUCTURE_ChemType>
defined organic

> <STRUCTURE_DefinedOrganicForm>
salt

> <STRUCTURE_IUPAC>
sodium 2-propylpentanoate

> <STRUCTURE_SMILES>
[Na+].[O-]C(=O)C(CCC)CCC

> <STRUCTURE_SMILES_Desalt>
CCCC(CCC)C(=O)O

> <Substance_modify_yyyymmdd>
20080429

$$$$
