107-75-5
ChemmineR-0915142007XD

 12 11  0  0  0  0  0  0  0  0  1 V2000
    2.3078   -0.4800    0.0000 C   0  0  0  0  0  0  0  0  0  0  0  0
    1.1539   -1.1539    0.0000 C   0  0  0  0  0  0  0  0  0  0  0  0
    3.4617   -1.1539    0.0000 C   0  0  0  0  0  0  0  0  0  0  0  0
    1.8278   -2.2893    0.0000 C   0  0  0  0  0  0  0  0  0  0  0  0
    0.4985    0.0000    0.0000 C   0  0  0  0  0  0  0  0  0  0  0  0
    0.0000   -1.7908    0.0000 O   0  0  0  0  0  0  0  0  0  0  0  0
    4.6156   -0.4800    0.0000 C   0  0  0  0  0  0  0  0  0  0  0  0
    5.7510   -1.1539    0.0000 C   0  0  0  0  0  0  0  0  0  0  0  0
    6.9049   -0.4800    0.0000 C   0  0  0  0  0  0  0  0  0  0  0  0
    5.7510   -2.4647    0.0000 C   0  0  0  0  0  0  0  0  0  0  0  0
    8.0772   -1.1539    0.0000 C   0  0  0  0  0  0  0  0  0  0  0  0
    9.2311   -0.4800    0.0000 O   0  0  0  0  0  0  0  0  0  0  0  0
  1  2  1  0  0  0  0
  1  3  1  0  0  0  0
  2  4  1  0  0  0  0
  2  5  1  0  0  0  0
  2  6  1  0  0  0  0
  3  7  1  0  0  0  0
  7  8  1  0  0  0  0
  8  9  1  0  0  0  0
  8 10  1  0  0  0  0
  9 11  1  0  0  0  0
 11 12  2  0  0  0  0
M  END
> <ID>
9161

> <Formula>
C10H20O2

> <FW>
172.2646

> <DSSTox_CID>
22232

> <DSSTox_RID>
79966

> <DSSTox_GSID>
42232

> <DSSTox_FileID_Sort>
4648

> <TS_ChemName>
7-Hydroxy-3,7-dimethyloctanal

> <TS_ChemName_Synonyms>


> <TS_CASRN>
107-75-5

> <CASRN_ChemName_Relationship>
primary

> <TS_Description>
single chemical compound

> <ChemNote>


> <STRUCTURE_Shown>
tested chemical

> <STRUCTURE_Formula>
C10H20O2

> <STRUCTURE_MW>
172.2646

> <STRUCTURE_ChemType>
defined organic

> <STRUCTURE_DefinedOrganicForm>
parent

> <STRUCTURE_IUPAC>
7-hydroxy-3,7-dimethyloctanal

> <STRUCTURE_SMILES>
O=CCC(C)CCCC(C)(C)O

> <STRUCTURE_SMILES_Desalt>
O=CCC(C)CCCC(C)(C)O

> <Substance_modify_yyyymmdd>
20080825

$$$$
