107-70-0
ChemmineR-0915142007XD

  9  8  0  0  0  0  0  0  0  0  1 V2000
    3.1449   -1.9949    0.0000 C   0  0  0  0  0  0  0  0  0  0  0  0
    4.3004   -1.3299    0.0000 C   0  0  0  0  0  0  0  0  0  0  0  0
    5.4505   -1.9949    0.0000 C   0  0  0  0  0  0  0  0  0  0  0  0
    4.3004    0.0000    0.0000 O   0  0  0  0  0  0  0  0  0  0  0  0
    1.9949   -1.3299    0.0000 C   0  0  0  0  0  0  0  0  0  0  0  0
    2.6598   -0.1744    0.0000 C   0  0  0  0  0  0  0  0  0  0  0  0
    0.8448   -0.6650    0.0000 C   0  0  0  0  0  0  0  0  0  0  0  0
    1.3299   -2.4800    0.0000 O   0  0  0  0  0  0  0  0  0  0  0  0
    0.0000   -2.4800    0.0000 C   0  0  0  0  0  0  0  0  0  0  0  0
  1  2  1  0  0  0  0
  1  5  1  0  0  0  0
  2  3  1  0  0  0  0
  2  4  2  0  0  0  0
  5  6  1  0  0  0  0
  5  7  1  0  0  0  0
  5  8  1  0  0  0  0
  8  9  1  0  0  0  0
M  END
> <ID>
4264

> <Formula>
C7H14O2

> <FW>
130.1849

> <DSSTox_CID>
5557

> <DSSTox_RID>
77828

> <DSSTox_GSID>
25557

> <DSSTox_FileID_Sort>
2511

> <TS_ChemName>
4-Methoxy-4-methyl-2-pentanone

> <TS_ChemName_Synonyms>
4-Methyl-4-methoxy-2-pentanone

> <TS_CASRN>
107-70-0

> <CASRN_ChemName_Relationship>
primary

> <TS_Description>
single chemical compound

> <ChemNote>


> <STRUCTURE_Shown>
tested chemical

> <STRUCTURE_Formula>
C7H14O2

> <STRUCTURE_MW>
130.1849

> <STRUCTURE_ChemType>
defined organic

> <STRUCTURE_DefinedOrganicForm>
parent

> <STRUCTURE_IUPAC>
4-methoxy-4-methylpentan-2-one

> <STRUCTURE_SMILES>
CC(=O)CC(C)(C)OC

> <STRUCTURE_SMILES_Desalt>
CC(=O)CC(C)(C)OC

> <Substance_modify_yyyymmdd>
20080429

$$$$
