107-04-0
ChemmineR-0915142007XD

  4  3  0  0  0  0  0  0  0  0  1 V2000
    1.1513   -0.6638    0.0000 C    0  0  0  0  0  0  0  0  0  0  0  0
    0.0000    0.0000    0.0000 Br   0  0  0  0  0  0  0  0  0  0  0  0
    2.3061    0.0000    0.0000 C    0  0  0  0  0  0  0  0  0  0  0  0
    3.4575   -0.6638    0.0000 Cl   0  0  0  0  0  0  0  0  0  0  0  0
  1  2  1  0  0  0  0
  1  3  1  0  0  0  0
  3  4  1  0  0  0  0
M  END
> <ID>
3849

> <Formula>
C2H4BrCl

> <FW>
143.4102

> <DSSTox_CID>
4775

> <DSSTox_RID>
77528

> <DSSTox_GSID>
24775

> <DSSTox_FileID_Sort>
2211

> <TS_ChemName>
1-Chloro-2-bromoethane

> <TS_ChemName_Synonyms>


> <TS_CASRN>
107-04-0

> <CASRN_ChemName_Relationship>
primary

> <TS_Description>
single chemical compound

> <ChemNote>


> <STRUCTURE_Shown>
tested chemical

> <STRUCTURE_Formula>
C2H4BrCl

> <STRUCTURE_MW>
143.4102

> <STRUCTURE_ChemType>
defined organic

> <STRUCTURE_DefinedOrganicForm>
parent

> <STRUCTURE_IUPAC>
1-bromo-2-chloroethane

> <STRUCTURE_SMILES>
BrCCCl

> <STRUCTURE_SMILES_Desalt>
BrCCCl

> <Substance_modify_yyyymmdd>
20080429

$$$$
