107-31-3
ChemmineR-0915142007XD

  4  3  0  0  0  0  0  0  0  0  1 V2000
    3.4575    0.0000    0.0000 O   0  0  0  0  0  0  0  0  0  0  0  0
    2.3061   -0.6638    0.0000 C   0  0  0  0  0  0  0  0  0  0  0  0
    1.1513    0.0000    0.0000 O   0  0  0  0  0  0  0  0  0  0  0  0
    0.0000   -0.6638    0.0000 C   0  0  0  0  0  0  0  0  0  0  0  0
  1  2  2  0  0  0  0
  2  3  1  0  0  0  0
  3  4  1  0  0  0  0
M  END
> <ID>
4297

> <Formula>
C2H4O2

> <FW>
60.052

> <DSSTox_CID>
5609

> <DSSTox_RID>
77852

> <DSSTox_GSID>
25609

> <DSSTox_FileID_Sort>
2535

> <TS_ChemName>
Methyl formate

> <TS_ChemName_Synonyms>


> <TS_CASRN>
107-31-3

> <CASRN_ChemName_Relationship>
primary

> <TS_Description>
single chemical compound

> <ChemNote>


> <STRUCTURE_Shown>
tested chemical

> <STRUCTURE_Formula>
C2H4O2

> <STRUCTURE_MW>
60.052

> <STRUCTURE_ChemType>
defined organic

> <STRUCTURE_DefinedOrganicForm>
parent

> <STRUCTURE_IUPAC>
methyl formate

> <STRUCTURE_SMILES>
O=COC

> <STRUCTURE_SMILES_Desalt>
O=COC

> <Substance_modify_yyyymmdd>
20080429

$$$$
