107-46-0
ChemmineR-0915142007XD

  9  8  0  0  0  0  0  0  0  0  1 V2000
    1.1555   -1.3311    0.0000 Si   0  0  0  0  0  0  0  0  0  0  0  0
    2.3110   -1.9874    0.0000 O    0  0  0  0  0  0  0  0  0  0  0  0
    3.4665   -1.3311    0.0000 Si   0  0  0  0  0  0  0  0  0  0  0  0
    1.1555    0.0000    0.0000 C    0  0  0  0  0  0  0  0  0  0  0  0
    0.0000   -1.9874    0.0000 C    0  0  0  0  0  0  0  0  0  0  0  0
    1.1555   -2.6622    0.0000 C    0  0  0  0  0  0  0  0  0  0  0  0
    4.6220   -1.9874    0.0000 C    0  0  0  0  0  0  0  0  0  0  0  0
    3.4665    0.0000    0.0000 C    0  0  0  0  0  0  0  0  0  0  0  0
    3.4665   -2.6622    0.0000 C    0  0  0  0  0  0  0  0  0  0  0  0
  1  2  1  0  0  0  0
  1  4  1  0  0  0  0
  1  5  1  0  0  0  0
  1  6  1  0  0  0  0
  2  3  1  0  0  0  0
  3  7  1  0  0  0  0
  3  8  1  0  0  0  0
  3  9  1  0  0  0  0
M  END
> <ID>
4796

> <Formula>
C6H18OSi2

> <FW>
162.3775

> <DSSTox_CID>
6769

> <DSSTox_RID>
78209

> <DSSTox_GSID>
26769

> <DSSTox_FileID_Sort>
2892

> <TS_ChemName>
Hexamethyldisiloxane

> <TS_ChemName_Synonyms>


> <TS_CASRN>
107-46-0

> <CASRN_ChemName_Relationship>
primary

> <TS_Description>
single chemical compound

> <ChemNote>


> <STRUCTURE_Shown>
tested chemical

> <STRUCTURE_Formula>
C6H18OSi2

> <STRUCTURE_MW>
162.3775

> <STRUCTURE_ChemType>
organometallic

> <STRUCTURE_DefinedOrganicForm>


> <STRUCTURE_IUPAC>
hexamethyldisiloxane

> <STRUCTURE_SMILES>
C[Si](C)(C)O[Si](C)(C)C

> <STRUCTURE_SMILES_Desalt>
C[Si](C)(C)O[Si](C)(C)C

> <Substance_modify_yyyymmdd>
20080429

$$$$
