107-83-5
ChemmineR-0915142007XD

  6  5  0  0  0  0  0  0  0  0  1 V2000
    0.0000    0.0000    0.0000 C   0  0  0  0  0  0  0  0  0  0  0  0
    1.1743   -0.6631    0.0000 C   0  0  0  0  0  0  0  0  0  0  0  0
    2.3026    0.0000    0.0000 C   0  0  0  0  0  0  0  0  0  0  0  0
    3.4630   -0.6631    0.0000 C   0  0  0  0  0  0  0  0  0  0  0  0
    4.6051    0.0000    0.0000 C   0  0  0  0  0  0  0  0  0  0  0  0
    1.1743   -1.9986    0.0000 C   0  0  0  0  0  0  0  0  0  0  0  0
  1  2  1  0  0  0  0
  2  3  1  0  0  0  0
  2  6  1  0  0  0  0
  3  4  1  0  0  0  0
  4  5  1  0  0  0  0
M  END
> <ID>
5810

> <Formula>
C6H14

> <FW>
86.1754

> <DSSTox_CID>
9143

> <DSSTox_RID>
78680

> <DSSTox_GSID>
29143

> <DSSTox_FileID_Sort>
3362

> <TS_ChemName>
2-Methylpentane

> <TS_ChemName_Synonyms>


> <TS_CASRN>
107-83-5

> <CASRN_ChemName_Relationship>
primary

> <TS_Description>
single chemical compound

> <ChemNote>


> <STRUCTURE_Shown>
tested chemical

> <STRUCTURE_Formula>
C6H14

> <STRUCTURE_MW>
86.1754

> <STRUCTURE_ChemType>
defined organic

> <STRUCTURE_DefinedOrganicForm>
parent

> <STRUCTURE_IUPAC>
2-methylpentane

> <STRUCTURE_SMILES>
CC(C)CCC

> <STRUCTURE_SMILES_Desalt>
CC(C)CCC

> <Substance_modify_yyyymmdd>
20080429

$$$$
