107-54-0
ChemmineR-0915142007XD

  9  8  0  0  0  0  0  0  0  0  1 V2000
    0.0000   -1.3335    0.0000 C   0  0  0  0  0  0  0  0  0  0  0  0
    1.3335   -1.3335    0.0000 C   0  0  0  0  0  0  0  0  0  0  0  0
    2.6610   -1.3335    0.0000 C   0  0  0  0  0  0  0  0  0  0  0  0
    3.9945   -1.3335    0.0000 C   0  0  0  0  0  0  0  0  0  0  0  0
    4.6464   -2.4876    0.0000 C   0  0  0  0  0  0  0  0  0  0  0  0
    5.9799   -2.4876    0.0000 C   0  0  0  0  0  0  0  0  0  0  0  0
    2.6610   -2.6610    0.0000 O   0  0  0  0  0  0  0  0  0  0  0  0
    2.6610    0.0000    0.0000 C   0  0  0  0  0  0  0  0  0  0  0  0
    3.9945   -3.6417    0.0000 C   0  0  0  0  0  0  0  0  0  0  0  0
  1  2  3  0  0  0  0
  2  3  1  0  0  0  0
  3  4  1  0  0  0  0
  3  7  1  0  0  0  0
  3  8  1  0  0  0  0
  4  5  1  0  0  0  0
  5  6  1  0  0  0  0
  5  9  1  0  0  0  0
M  END
> <ID>
8438

> <Formula>
C8H14O

> <FW>
126.1962

> <DSSTox_CID>
21472

> <DSSTox_RID>
79746

> <DSSTox_GSID>
41472

> <DSSTox_FileID_Sort>
4428

> <TS_ChemName>
3,5-Dimethyl-1-hexyn-3-ol

> <TS_ChemName_Synonyms>


> <TS_CASRN>
107-54-0

> <CASRN_ChemName_Relationship>
primary

> <TS_Description>
single chemical compound

> <ChemNote>


> <STRUCTURE_Shown>
tested chemical

> <STRUCTURE_Formula>
C8H14O

> <STRUCTURE_MW>
126.1962

> <STRUCTURE_ChemType>
defined organic

> <STRUCTURE_DefinedOrganicForm>
parent

> <STRUCTURE_IUPAC>
3,5-dimethylhex-1-yn-3-ol

> <STRUCTURE_SMILES>
CC(C)CC(C)(O)C#C

> <STRUCTURE_SMILES_Desalt>
CC(C)CC(C)(O)C#C

> <Substance_modify_yyyymmdd>
20080825

$$$$
