107-49-3
ChemmineR-0915142007XD

 17 16  0  0  0  0  0  0  0  0  1 V2000
    2.7658   -3.3097    0.0000 O   0  0  0  0  0  0  0  0  0  0  0  0
    1.3265   -3.3097    0.0000 P   0  0  0  0  0  0  0  0  0  0  0  0
    4.1056   -3.3097    0.0000 P   0  0  0  0  0  0  0  0  0  0  0  0
    0.0000   -3.3097    0.0000 O   0  0  0  0  0  0  0  0  0  0  0  0
    5.4322   -3.3097    0.0000 O   0  0  0  0  0  0  0  0  0  0  0  0
    1.3265   -1.9832    0.0000 O   0  0  0  0  0  0  0  0  0  0  0  0
    4.1056   -4.6363    0.0000 O   0  0  0  0  0  0  0  0  0  0  0  0
    4.1056   -1.9832    0.0000 O   0  0  0  0  0  0  0  0  0  0  0  0
    1.3265   -4.6363    0.0000 O   0  0  0  0  0  0  0  0  0  0  0  0
    2.4740   -5.2929    0.0000 C   0  0  0  0  0  0  0  0  0  0  0  0
    0.1791   -1.3265    0.0000 C   0  0  0  0  0  0  0  0  0  0  0  0
    2.9715   -1.3265    0.0000 C   0  0  0  0  0  0  0  0  0  0  0  0
    5.2398   -5.2730    0.0000 C   0  0  0  0  0  0  0  0  0  0  0  0
    2.9715   -0.0332    0.0000 C   0  0  0  0  0  0  0  0  0  0  0  0
    0.1791    0.0000    0.0000 C   0  0  0  0  0  0  0  0  0  0  0  0
    5.2398   -6.5995    0.0000 C   0  0  0  0  0  0  0  0  0  0  0  0
    2.4740   -6.6327    0.0000 C   0  0  0  0  0  0  0  0  0  0  0  0
  1  2  1  0  0  0  0
  1  3  1  0  0  0  0
  2  4  2  0  0  0  0
  2  6  1  0  0  0  0
  2  9  1  0  0  0  0
  3  5  2  0  0  0  0
  3  7  1  0  0  0  0
  3  8  1  0  0  0  0
  6 11  1  0  0  0  0
  7 13  1  0  0  0  0
  8 12  1  0  0  0  0
  9 10  1  0  0  0  0
 10 17  1  0  0  0  0
 11 15  1  0  0  0  0
 12 14  1  0  0  0  0
 13 16  1  0  0  0  0
M  END
> <ID>
6964

> <Formula>
C8H20O7P2

> <FW>
290.1877

> <DSSTox_CID>
14957

> <DSSTox_RID>
79227

> <DSSTox_GSID>
34957

> <DSSTox_FileID_Sort>
3909

> <TS_ChemName>
Tetraethyl pyrophosphate

> <TS_ChemName_Synonyms>
Tetraethyl pyrophosphate (TEPP)

> <TS_CASRN>
107-49-3

> <CASRN_ChemName_Relationship>
primary

> <TS_Description>
single chemical compound

> <ChemNote>


> <STRUCTURE_Shown>
tested chemical

> <STRUCTURE_Formula>
C8H20O7P2

> <STRUCTURE_MW>
290.1877

> <STRUCTURE_ChemType>
defined organic

> <STRUCTURE_DefinedOrganicForm>
parent

> <STRUCTURE_IUPAC>
tetraethyl diphosphate

> <STRUCTURE_SMILES>
CCOP(=O)(OP(=O)(OCC)OCC)OCC

> <STRUCTURE_SMILES_Desalt>
CCOP(=O)(OP(=O)(OCC)OCC)OCC

> <Substance_modify_yyyymmdd>
20080429

$$$$
