107-05-1
ChemmineR-0915142007XD

  4  3  0  0  0  0  0  0  0  0  1 V2000
    0.0000    0.0000    0.0000 C    0  0  0  0  0  0  0  0  0  0  0  0
    1.1513   -0.6638    0.0000 C    0  0  0  0  0  0  0  0  0  0  0  0
    2.3061    0.0000    0.0000 C    0  0  0  0  0  0  0  0  0  0  0  0
    3.4575   -0.6638    0.0000 Cl   0  0  0  0  0  0  0  0  0  0  0  0
  1  2  2  0  0  0  0
  2  3  1  0  0  0  0
  3  4  1  0  0  0  0
M  END
> <ID>
44

> <Formula>
C3H5Cl

> <FW>
76.5248

> <DSSTox_CID>
45

> <DSSTox_RID>
79426

> <DSSTox_GSID>
39231

> <DSSTox_FileID_Sort>
4108

> <TS_ChemName>
Allyl chloride

> <TS_ChemName_Synonyms>
Allyl chloride (3-Chloropropene)

> <TS_CASRN>
107-05-1

> <CASRN_ChemName_Relationship>
primary

> <TS_Description>
single chemical compound

> <ChemNote>


> <STRUCTURE_Shown>
tested chemical

> <STRUCTURE_Formula>
C3H5Cl

> <STRUCTURE_MW>
76.5248

> <STRUCTURE_ChemType>
defined organic

> <STRUCTURE_DefinedOrganicForm>
parent

> <STRUCTURE_IUPAC>
3-chloroprop-1-ene

> <STRUCTURE_SMILES>
C=CCCl

> <STRUCTURE_SMILES_Desalt>
C=CCCl

> <Substance_modify_yyyymmdd>
20080429

$$$$
