107-66-4
ChemmineR-0915142007XD

 13 12  0  0  0  0  0  0  0  0  1 V2000
    5.7810   -1.1562    0.0000 P   0  0  0  0  0  0  0  0  0  0  0  0
    5.1220   -2.3008    0.0000 O   0  0  0  0  0  0  0  0  0  0  0  0
    6.9256   -1.8152    0.0000 O   0  0  0  0  0  0  0  0  0  0  0  0
    4.6363   -0.4972    0.0000 O   0  0  0  0  0  0  0  0  0  0  0  0
    6.4400    0.0000    0.0000 O   0  0  0  0  0  0  0  0  0  0  0  0
    8.0934   -1.1562    0.0000 C   0  0  0  0  0  0  0  0  0  0  0  0
    9.2496   -1.8152    0.0000 C   0  0  0  0  0  0  0  0  0  0  0  0
   10.4058   -1.1562    0.0000 C   0  0  0  0  0  0  0  0  0  0  0  0
   11.5620   -1.8152    0.0000 C   0  0  0  0  0  0  0  0  0  0  0  0
    3.4686   -1.1562    0.0000 C   0  0  0  0  0  0  0  0  0  0  0  0
    2.3124   -0.4972    0.0000 C   0  0  0  0  0  0  0  0  0  0  0  0
    1.1562   -1.1562    0.0000 C   0  0  0  0  0  0  0  0  0  0  0  0
    0.0000   -0.4972    0.0000 C   0  0  0  0  0  0  0  0  0  0  0  0
  1  2  2  0  0  0  0
  1  3  1  0  0  0  0
  1  4  1  0  0  0  0
  1  5  1  0  0  0  0
  3  6  1  0  0  0  0
  4 10  1  0  0  0  0
  6  7  1  0  0  0  0
  7  8  1  0  0  0  0
  8  9  1  0  0  0  0
 10 11  1  0  0  0  0
 11 12  1  0  0  0  0
 12 13  1  0  0  0  0
M  END
> <ID>
7924

> <Formula>
C8H19O4P

> <FW>
210.2078

> <DSSTox_CID>
20728

> <DSSTox_RID>
79575

> <DSSTox_GSID>
40728

> <DSSTox_FileID_Sort>
4257

> <TS_ChemName>
Phosphoric acid, dibutyl ester

> <TS_ChemName_Synonyms>


> <TS_CASRN>
107-66-4

> <CASRN_ChemName_Relationship>
primary

> <TS_Description>
single chemical compound

> <ChemNote>


> <STRUCTURE_Shown>
tested chemical

> <STRUCTURE_Formula>
C8H19O4P

> <STRUCTURE_MW>
210.2078

> <STRUCTURE_ChemType>
defined organic

> <STRUCTURE_DefinedOrganicForm>
parent

> <STRUCTURE_IUPAC>
dibutyl hydrogen phosphate

> <STRUCTURE_SMILES>
CCCCOP(O)(=O)OCCCC

> <STRUCTURE_SMILES_Desalt>
CCCCOP(O)(=O)OCCCC

> <Substance_modify_yyyymmdd>
20080429

$$$$
