107-58-4
ChemmineR-0915142007XD

  9  8  0  0  0  0  0  0  0  0  1 V2000
    2.3123   -1.3262    0.0000 C   0  0  0  0  0  0  0  0  0  0  0  0
    2.3123    0.0000    0.0000 O   0  0  0  0  0  0  0  0  0  0  0  0
    1.1590   -1.9951    0.0000 C   0  0  0  0  0  0  0  0  0  0  0  0
    0.0000   -1.3262    0.0000 C   0  0  0  0  0  0  0  0  0  0  0  0
    3.4540   -1.9951    0.0000 N   0  0  0  0  0  0  0  0  0  0  0  0
    4.6072   -1.3262    0.0000 C   0  0  0  0  0  0  0  0  0  0  0  0
    5.2761   -2.4737    0.0000 C   0  0  0  0  0  0  0  0  0  0  0  0
    3.9441   -0.1788    0.0000 C   0  0  0  0  0  0  0  0  0  0  0  0
    5.7663   -0.6689    0.0000 C   0  0  0  0  0  0  0  0  0  0  0  0
  1  2  2  0  0  0  0
  1  3  1  0  0  0  0
  1  5  1  0  0  0  0
  3  4  2  0  0  0  0
  5  6  1  0  0  0  0
  6  7  1  0  0  0  0
  6  8  1  0  0  0  0
  6  9  1  0  0  0  0
M  END
> <ID>
7573

> <Formula>
C7H13NO

> <FW>
127.1842

> <DSSTox_CID>
20114

> <DSSTox_RID>
79442

> <DSSTox_GSID>
40114

> <DSSTox_FileID_Sort>
4124

> <TS_ChemName>
tert-Butylacrylamide

> <TS_ChemName_Synonyms>
N-tert-Butylacrylamide (2-Propenamide, N-(1,1-dimethylethyl)-)

> <TS_CASRN>
107-58-4

> <CASRN_ChemName_Relationship>
primary

> <TS_Description>
single chemical compound

> <ChemNote>


> <STRUCTURE_Shown>
tested chemical

> <STRUCTURE_Formula>
C7H13NO

> <STRUCTURE_MW>
127.1842

> <STRUCTURE_ChemType>
defined organic

> <STRUCTURE_DefinedOrganicForm>
parent

> <STRUCTURE_IUPAC>
N-tert-butylprop-2-enamide

> <STRUCTURE_SMILES>
CC(C)(C)NC(=O)C=C

> <STRUCTURE_SMILES_Desalt>
CC(C)(C)NC(=O)C=C

> <Substance_modify_yyyymmdd>
20080429

$$$$
