107-41-5
ChemmineR-0915142007XD

  8  7  0  0  0  0  0  0  0  0  1 V2000
    1.1342   -2.4475    0.0000 O   0  0  0  0  0  0  0  0  0  0  0  0
    1.1526   -1.1204    0.0000 C   0  0  0  0  0  0  0  0  0  0  0  0
    2.3052   -0.4638    0.0000 C   0  0  0  0  0  0  0  0  0  0  0  0
    0.0000   -0.4316    0.0000 C   0  0  0  0  0  0  0  0  0  0  0  0
    3.4394   -1.1342    0.0000 C   0  0  0  0  0  0  0  0  0  0  0  0
    4.1282    0.0000    0.0000 C   0  0  0  0  0  0  0  0  0  0  0  0
    2.7689   -2.2868    0.0000 C   0  0  0  0  0  0  0  0  0  0  0  0
    4.5919   -1.8092    0.0000 O   0  0  0  0  0  0  0  0  0  0  0  0
  1  2  1  0  0  0  0
  2  3  1  0  0  0  0
  2  4  1  0  0  0  0
  3  5  1  0  0  0  0
  5  6  1  0  0  0  0
  5  7  1  0  0  0  0
  5  8  1  0  0  0  0
M  END
> <ID>
1764

> <Formula>
C6H14O2

> <FW>
118.1742

> <DSSTox_CID>
1885

> <DSSTox_RID>
76384

> <DSSTox_GSID>
21885

> <DSSTox_FileID_Sort>
1068

> <TS_ChemName>
2-Methyl-2,4-pentanediol

> <TS_ChemName_Synonyms>
Hexylene glycol

> <TS_CASRN>
107-41-5

> <CASRN_ChemName_Relationship>
primary

> <TS_Description>
single chemical compound

> <ChemNote>


> <STRUCTURE_Shown>
tested chemical

> <STRUCTURE_Formula>
C6H14O2

> <STRUCTURE_MW>
118.1742

> <STRUCTURE_ChemType>
defined organic

> <STRUCTURE_DefinedOrganicForm>
parent

> <STRUCTURE_IUPAC>
2-methylpentane-2,4-diol

> <STRUCTURE_SMILES>
CC(O)CC(C)(C)O

> <STRUCTURE_SMILES_Desalt>
CC(O)CC(C)(C)O

> <Substance_modify_yyyymmdd>
20080429

$$$$
