107-94-8
ChemmineR-0915142007XD

  6  5  0  0  0  0  0  0  0  0  1 V2000
    3.4563    0.0000    0.0000 O    0  0  0  0  0  0  0  0  0  0  0  0
    3.4563   -1.3318    0.0000 C    0  0  0  0  0  0  0  0  0  0  0  0
    4.6084   -1.9954    0.0000 O    0  0  0  0  0  0  0  0  0  0  0  0
    2.3042   -1.9954    0.0000 C    0  0  0  0  0  0  0  0  0  0  0  0
    1.1521   -1.3318    0.0000 C    0  0  0  0  0  0  0  0  0  0  0  0
    0.0000   -1.9954    0.0000 Cl   0  0  0  0  0  0  0  0  0  0  0  0
  1  2  2  0  0  0  0
  2  3  1  0  0  0  0
  2  4  1  0  0  0  0
  4  5  1  0  0  0  0
  5  6  1  0  0  0  0
M  END
> <ID>
1485

> <Formula>
C3H5ClO2

> <FW>
108.5236

> <DSSTox_CID>
1546

> <DSSTox_RID>
76204

> <DSSTox_GSID>
21546

> <DSSTox_FileID_Sort>
888

> <TS_ChemName>
3-Chloropropanoic acid

> <TS_ChemName_Synonyms>


> <TS_CASRN>
107-94-8

> <CASRN_ChemName_Relationship>
primary

> <TS_Description>
single chemical compound

> <ChemNote>


> <STRUCTURE_Shown>
tested chemical

> <STRUCTURE_Formula>
C3H5ClO2

> <STRUCTURE_MW>
108.5236

> <STRUCTURE_ChemType>
defined organic

> <STRUCTURE_DefinedOrganicForm>
parent

> <STRUCTURE_IUPAC>
3-chloropropanoic acid

> <STRUCTURE_SMILES>
ClCCC(=O)O

> <STRUCTURE_SMILES_Desalt>
ClCCC(=O)O

> <Substance_modify_yyyymmdd>
20080429

$$$$
