107-87-9
ChemmineR-0915142007XD

  6  5  0  0  0  0  0  0  0  0  1 V2000
    0.0000    0.0000    0.0000 C   0  0  0  0  0  0  0  0  0  0  0  0
    0.0000   -1.3307    0.0000 C   0  0  0  0  0  0  0  0  0  0  0  0
    1.1509   -1.9943    0.0000 C   0  0  0  0  0  0  0  0  0  0  0  0
    2.3053   -1.3307    0.0000 C   0  0  0  0  0  0  0  0  0  0  0  0
    2.3053    0.0000    0.0000 O   0  0  0  0  0  0  0  0  0  0  0  0
    3.4563   -1.9943    0.0000 C   0  0  0  0  0  0  0  0  0  0  0  0
  1  2  1  0  0  0  0
  2  3  1  0  0  0  0
  3  4  1  0  0  0  0
  4  5  2  0  0  0  0
  4  6  1  0  0  0  0
M  END
> <ID>
1767

> <Formula>
C5H10O

> <FW>
86.1323

> <DSSTox_CID>
1888

> <DSSTox_RID>
76386

> <DSSTox_GSID>
21888

> <DSSTox_FileID_Sort>
1070

> <TS_ChemName>
2-Pentanone

> <TS_ChemName_Synonyms>


> <TS_CASRN>
107-87-9

> <CASRN_ChemName_Relationship>
primary

> <TS_Description>
single chemical compound

> <ChemNote>


> <STRUCTURE_Shown>
tested chemical

> <STRUCTURE_Formula>
C5H10O

> <STRUCTURE_MW>
86.1323

> <STRUCTURE_ChemType>
defined organic

> <STRUCTURE_DefinedOrganicForm>
parent

> <STRUCTURE_IUPAC>
pentan-2-one

> <STRUCTURE_SMILES>
CC(=O)CCC

> <STRUCTURE_SMILES_Desalt>
CC(=O)CCC

> <Substance_modify_yyyymmdd>
20080429

$$$$
