107-22-2
ChemmineR-0915142007XD

  4  3  0  0  0  0  0  0  0  0  1 V2000
    0.0000    0.0000    0.0000 O   0  0  0  0  0  0  0  0  0  0  0  0
    1.1513   -0.6638    0.0000 C   0  0  0  0  0  0  0  0  0  0  0  0
    2.3061    0.0000    0.0000 C   0  0  0  0  0  0  0  0  0  0  0  0
    3.4575   -0.6638    0.0000 O   0  0  0  0  0  0  0  0  0  0  0  0
  1  2  2  0  0  0  0
  2  3  1  0  0  0  0
  3  4  2  0  0  0  0
M  END
> <ID>
4162

> <Formula>
C2H2O2

> <FW>
58.0361

> <DSSTox_CID>
5364

> <DSSTox_RID>
77764

> <DSSTox_GSID>
25364

> <DSSTox_FileID_Sort>
2447

> <TS_ChemName>
Glyoxal

> <TS_ChemName_Synonyms>
Glyoxal (Ethanedial)

> <TS_CASRN>
107-22-2

> <CASRN_ChemName_Relationship>
primary

> <TS_Description>
single chemical compound

> <ChemNote>


> <STRUCTURE_Shown>
tested chemical

> <STRUCTURE_Formula>
C2H2O2

> <STRUCTURE_MW>
58.0361

> <STRUCTURE_ChemType>
defined organic

> <STRUCTURE_DefinedOrganicForm>
parent

> <STRUCTURE_IUPAC>
ethanedial

> <STRUCTURE_SMILES>
O=CC=O

> <STRUCTURE_SMILES_Desalt>
O=CC=O

> <Substance_modify_yyyymmdd>
20080429

$$$$
