107-20-0
ChemmineR-0915142007XD

  4  3  0  0  0  0  0  0  0  0  1 V2000
    0.0000    0.0000    0.0000 O    0  0  0  0  0  0  0  0  0  0  0  0
    1.1513   -0.6638    0.0000 C    0  0  0  0  0  0  0  0  0  0  0  0
    2.3061    0.0000    0.0000 C    0  0  0  0  0  0  0  0  0  0  0  0
    3.4575   -0.6638    0.0000 Cl   0  0  0  0  0  0  0  0  0  0  0  0
  1  2  2  0  0  0  0
  2  3  1  0  0  0  0
  3  4  1  0  0  0  0
M  END
> <ID>
283

> <Formula>
C2H3ClO

> <FW>
78.4976

> <DSSTox_CID>
292

> <DSSTox_RID>
75492

> <DSSTox_GSID>
20292

> <DSSTox_FileID_Sort>
176

> <TS_ChemName>
Chloroacetaldehyde

> <TS_ChemName_Synonyms>
Chloroacetaldehyde (CAA) (Acetaldehyde, chloro-)

> <TS_CASRN>
107-20-0

> <CASRN_ChemName_Relationship>
primary

> <TS_Description>
single chemical compound

> <ChemNote>


> <STRUCTURE_Shown>
tested chemical

> <STRUCTURE_Formula>
C2H3ClO

> <STRUCTURE_MW>
78.4976

> <STRUCTURE_ChemType>
defined organic

> <STRUCTURE_DefinedOrganicForm>
parent

> <STRUCTURE_IUPAC>
chloroacetaldehyde

> <STRUCTURE_SMILES>
ClCC=O

> <STRUCTURE_SMILES_Desalt>
ClCC=O

> <Substance_modify_yyyymmdd>
20080429

$$$$
