107-14-2
ChemmineR-0915142007XD

  4  3  0  0  0  0  0  0  0  0  1 V2000
    0.0000   -1.1508    0.0000 N    0  0  0  0  0  0  0  0  0  0  0  0
    1.3304   -1.1508    0.0000 C    0  0  0  0  0  0  0  0  0  0  0  0
    2.6608   -1.1508    0.0000 C    0  0  0  0  0  0  0  0  0  0  0  0
    3.3260    0.0000    0.0000 Cl   0  0  0  0  0  0  0  0  0  0  0  0
  1  2  3  0  0  0  0
  2  3  1  0  0  0  0
  3  4  1  0  0  0  0
M  END
> <ID>
1463

> <Formula>
C2H2ClN

> <FW>
75.497

> <DSSTox_CID>
1524

> <DSSTox_RID>
76198

> <DSSTox_GSID>
21524

> <DSSTox_FileID_Sort>
882

> <TS_ChemName>
Chloroacetonitrile

> <TS_ChemName_Synonyms>


> <TS_CASRN>
107-14-2

> <CASRN_ChemName_Relationship>
primary

> <TS_Description>
single chemical compound

> <ChemNote>


> <STRUCTURE_Shown>
tested chemical

> <STRUCTURE_Formula>
C2H2ClN

> <STRUCTURE_MW>
75.497

> <STRUCTURE_ChemType>
defined organic

> <STRUCTURE_DefinedOrganicForm>
parent

> <STRUCTURE_IUPAC>
chloroacetonitrile

> <STRUCTURE_SMILES>
ClCC#N

> <STRUCTURE_SMILES_Desalt>
ClCC#N

> <Substance_modify_yyyymmdd>
20080429

$$$$
