107-98-2
ChemmineR-0915142007XD

  6  5  0  0  0  0  0  0  0  0  1 V2000
    3.4587    0.0000    0.0000 O   0  0  0  0  0  0  0  0  0  0  0  0
    0.0000   -1.9922    0.0000 C   0  0  0  0  0  0  0  0  0  0  0  0
    1.1529   -1.3281    0.0000 O   0  0  0  0  0  0  0  0  0  0  0  0
    2.3104   -1.9922    0.0000 C   0  0  0  0  0  0  0  0  0  0  0  0
    3.4587   -1.3281    0.0000 C   0  0  0  0  0  0  0  0  0  0  0  0
    4.6116   -1.9922    0.0000 C   0  0  0  0  0  0  0  0  0  0  0  0
  1  5  1  0  0  0  0
  2  3  1  0  0  0  0
  3  4  1  0  0  0  0
  4  5  1  0  0  0  0
  5  6  1  0  0  0  0
M  END
> <ID>
3601

> <Formula>
C4H10O2

> <FW>
90.121

> <DSSTox_CID>
4284

> <DSSTox_RID>
77354

> <DSSTox_GSID>
24284

> <DSSTox_FileID_Sort>
2037

> <TS_ChemName>
1-Methoxy-2-propanol

> <TS_ChemName_Synonyms>
Propylene glycol monomethyl ether, alpha; PGME

> <TS_CASRN>
107-98-2

> <CASRN_ChemName_Relationship>
primary

> <TS_Description>
single chemical compound

> <ChemNote>


> <STRUCTURE_Shown>
tested chemical

> <STRUCTURE_Formula>
C4H10O2

> <STRUCTURE_MW>
90.121

> <STRUCTURE_ChemType>
defined organic

> <STRUCTURE_DefinedOrganicForm>
parent

> <STRUCTURE_IUPAC>
1-methoxypropan-2-ol

> <STRUCTURE_SMILES>
CC(O)COC

> <STRUCTURE_SMILES_Desalt>
CC(O)COC

> <Substance_modify_yyyymmdd>
20080429

$$$$
