107-74-4
ChemmineR-0915142007XD

 12 11  0  0  0  0  0  0  0  0  1 V2000
    1.1331   -1.3174    0.0000 C   0  0  0  0  0  0  0  0  0  0  0  0
    2.2939   -1.9899    0.0000 C   0  0  0  0  0  0  0  0  0  0  0  0
    3.4455   -1.3174    0.0000 C   0  0  0  0  0  0  0  0  0  0  0  0
    4.5786   -1.9899    0.0000 C   0  0  0  0  0  0  0  0  0  0  0  0
    5.7394   -1.3174    0.0000 C   0  0  0  0  0  0  0  0  0  0  0  0
    6.9186   -1.9899    0.0000 C   0  0  0  0  0  0  0  0  0  0  0  0
    8.0517   -1.3174    0.0000 C   0  0  0  0  0  0  0  0  0  0  0  0
    9.2125   -1.9899    0.0000 C   0  0  0  0  0  0  0  0  0  0  0  0
    0.0000   -1.9899    0.0000 O   0  0  0  0  0  0  0  0  0  0  0  0
    8.0517    0.0000    0.0000 O   0  0  0  0  0  0  0  0  0  0  0  0
    3.4455    0.0000    0.0000 C   0  0  0  0  0  0  0  0  0  0  0  0
    8.0517   -2.6440    0.0000 C   0  0  0  0  0  0  0  0  0  0  0  0
  1  2  1  0  0  0  0
  1  9  1  0  0  0  0
  2  3  1  0  0  0  0
  3  4  1  0  0  0  0
  3 11  1  0  0  0  0
  4  5  1  0  0  0  0
  5  6  1  0  0  0  0
  6  7  1  0  0  0  0
  7  8  1  0  0  0  0
  7 10  1  0  0  0  0
  7 12  1  0  0  0  0
M  END
> <ID>
10167

> <Formula>
C10H22O2

> <FW>
174.2805

> <DSSTox_CID>
24513

> <DSSTox_RID>
80281

> <DSSTox_GSID>
44513

> <DSSTox_FileID_Sort>
4963

> <TS_ChemName>
3,7-Dimethyloctane-1,7-diol

> <TS_ChemName_Synonyms>
3,7-Dimethyloctane-1,7-diol (1,7-Octanediol, 3,7-dimethyl-)

> <TS_CASRN>
107-74-4

> <CASRN_ChemName_Relationship>
primary

> <TS_Description>
single chemical compound

> <ChemNote>


> <STRUCTURE_Shown>
tested chemical

> <STRUCTURE_Formula>
C10H22O2

> <STRUCTURE_MW>
174.2805

> <STRUCTURE_ChemType>
defined organic

> <STRUCTURE_DefinedOrganicForm>
parent

> <STRUCTURE_IUPAC>
3,7-dimethyloctane-1,7-diol

> <STRUCTURE_SMILES>
OCCC(C)CCCC(C)(C)O

> <STRUCTURE_SMILES_Desalt>
OCCC(C)CCCC(C)(C)O

> <Substance_modify_yyyymmdd>
20091116

$$$$
