107-88-0
ChemmineR-0915142007XD

  6  5  0  0  0  0  0  0  0  0  1 V2000
    1.1691   -1.3355    0.0000 C   0  0  0  0  0  0  0  0  0  0  0  0
    2.3244   -1.9917    0.0000 C   0  0  0  0  0  0  0  0  0  0  0  0
    3.4797   -1.3355    0.0000 C   0  0  0  0  0  0  0  0  0  0  0  0
    4.6211   -1.9917    0.0000 C   0  0  0  0  0  0  0  0  0  0  0  0
    0.0000   -1.9917    0.0000 O   0  0  0  0  0  0  0  0  0  0  0  0
    3.4797    0.0000    0.0000 O   0  0  0  0  0  0  0  0  0  0  0  0
  1  2  1  0  0  0  0
  1  5  1  0  0  0  0
  2  3  1  0  0  0  0
  3  4  1  0  0  0  0
  3  6  1  0  0  0  0
M  END
> <ID>
4799

> <Formula>
C4H10O2

> <FW>
90.121

> <DSSTox_CID>
6773

> <DSSTox_RID>
78210

> <DSSTox_GSID>
26773

> <DSSTox_FileID_Sort>
2893

> <TS_ChemName>
1,3-Butanediol

> <TS_ChemName_Synonyms>
1,3-Butylene glycol

> <TS_CASRN>
107-88-0

> <CASRN_ChemName_Relationship>
primary

> <TS_Description>
single chemical compound

> <ChemNote>


> <STRUCTURE_Shown>
tested chemical

> <STRUCTURE_Formula>
C4H10O2

> <STRUCTURE_MW>
90.121

> <STRUCTURE_ChemType>
defined organic

> <STRUCTURE_DefinedOrganicForm>
parent

> <STRUCTURE_IUPAC>
butane-1,3-diol

> <STRUCTURE_SMILES>
CC(O)CCO

> <STRUCTURE_SMILES_Desalt>
CC(O)CCO

> <Substance_modify_yyyymmdd>
20080429

$$$$
