107-12-0
ChemmineR-0915142007XD

  4  3  0  0  0  0  0  0  0  0  1 V2000
    0.0000    0.0000    0.0000 C   0  0  0  0  0  0  0  0  0  0  0  0
    0.6652   -1.1508    0.0000 C   0  0  0  0  0  0  0  0  0  0  0  0
    1.9956   -1.1508    0.0000 C   0  0  0  0  0  0  0  0  0  0  0  0
    3.3260   -1.1508    0.0000 N   0  0  0  0  0  0  0  0  0  0  0  0
  1  2  1  0  0  0  0
  2  3  1  0  0  0  0
  3  4  3  0  0  0  0
M  END
> <ID>
1761

> <Formula>
C3H5N

> <FW>
55.0785

> <DSSTox_CID>
1879

> <DSSTox_RID>
76381

> <DSSTox_GSID>
21879

> <DSSTox_FileID_Sort>
1065

> <TS_ChemName>
Propionitrile

> <TS_ChemName_Synonyms>


> <TS_CASRN>
107-12-0

> <CASRN_ChemName_Relationship>
primary

> <TS_Description>
single chemical compound

> <ChemNote>


> <STRUCTURE_Shown>
tested chemical

> <STRUCTURE_Formula>
C3H5N

> <STRUCTURE_MW>
55.0785

> <STRUCTURE_ChemType>
defined organic

> <STRUCTURE_DefinedOrganicForm>
parent

> <STRUCTURE_IUPAC>
propanenitrile

> <STRUCTURE_SMILES>
CCC#N

> <STRUCTURE_SMILES_Desalt>
CCC#N

> <Substance_modify_yyyymmdd>
20080429

$$$$
