107-51-7
ChemmineR-0915142007XD

 13 12  0  0  0  0  0  0  0  0  1 V2000
    1.1720   -1.3374    0.0000 Si   0  0  0  0  0  0  0  0  0  0  0  0
    2.3233   -1.9993    0.0000 O    0  0  0  0  0  0  0  0  0  0  0  0
    3.4470   -1.3374    0.0000 Si   0  0  0  0  0  0  0  0  0  0  0  0
    4.5983   -1.9993    0.0000 O    0  0  0  0  0  0  0  0  0  0  0  0
    5.7427   -1.3374    0.0000 Si   0  0  0  0  0  0  0  0  0  0  0  0
    0.0000   -1.9993    0.0000 C    0  0  0  0  0  0  0  0  0  0  0  0
    1.1720    0.0000    0.0000 C    0  0  0  0  0  0  0  0  0  0  0  0
    1.1720   -2.6680    0.0000 C    0  0  0  0  0  0  0  0  0  0  0  0
    3.4470    0.0000    0.0000 C    0  0  0  0  0  0  0  0  0  0  0  0
    3.4470   -2.6680    0.0000 C    0  0  0  0  0  0  0  0  0  0  0  0
    6.8940   -1.9993    0.0000 C    0  0  0  0  0  0  0  0  0  0  0  0
    5.7427    0.0000    0.0000 C    0  0  0  0  0  0  0  0  0  0  0  0
    5.7427   -2.6680    0.0000 C    0  0  0  0  0  0  0  0  0  0  0  0
  1  2  1  0  0  0  0
  1  6  1  0  0  0  0
  1  7  1  0  0  0  0
  1  8  1  0  0  0  0
  2  3  1  0  0  0  0
  3  4  1  0  0  0  0
  3  9  1  0  0  0  0
  3 10  1  0  0  0  0
  4  5  1  0  0  0  0
  5 11  1  0  0  0  0
  5 12  1  0  0  0  0
  5 13  1  0  0  0  0
M  END
> <ID>
7906

> <Formula>
C8H24O2Si3

> <FW>
236.5315

> <DSSTox_CID>
20710

> <DSSTox_RID>
79558

> <DSSTox_GSID>
40710

> <DSSTox_FileID_Sort>
4240

> <TS_ChemName>
Octamethyltrisiloxane

> <TS_ChemName_Synonyms>
Trisiloxane, octamethyl-

> <TS_CASRN>
107-51-7

> <CASRN_ChemName_Relationship>
primary

> <TS_Description>
single chemical compound

> <ChemNote>


> <STRUCTURE_Shown>
tested chemical

> <STRUCTURE_Formula>
C8H24O2Si3

> <STRUCTURE_MW>
236.5315

> <STRUCTURE_ChemType>
organometallic

> <STRUCTURE_DefinedOrganicForm>


> <STRUCTURE_IUPAC>
octamethyltrisiloxane

> <STRUCTURE_SMILES>
C[Si](C)(O[Si](C)(C)C)O[Si](C)(C)C

> <STRUCTURE_SMILES_Desalt>
C[Si](C)(O[Si](C)(C)C)O[Si](C)(C)C

> <Substance_modify_yyyymmdd>
20080429

$$$$
