107-35-7
ChemmineR-0915142007XD

  7  6  0  0  0  0  0  0  0  0  1 V2000
    3.4571   -1.1709    0.0000 S   0  0  0  0  0  0  0  0  0  0  0  0
    2.3140   -1.8466    0.0000 C   0  0  0  0  0  0  0  0  0  0  0  0
    2.8138    0.0000    0.0000 O   0  0  0  0  0  0  0  0  0  0  0  0
    4.0819   -2.3140    0.0000 O   0  0  0  0  0  0  0  0  0  0  0  0
    4.6280   -0.5322    0.0000 O   0  0  0  0  0  0  0  0  0  0  0  0
    0.0000   -1.8466    0.0000 N   0  0  0  0  0  0  0  0  0  0  0  0
    1.1570   -1.1709    0.0000 C   0  0  0  0  0  0  0  0  0  0  0  0
  1  2  1  0  0  0  0
  1  3  2  0  0  0  0
  1  4  2  0  0  0  0
  1  5  1  0  0  0  0
  2  7  1  0  0  0  0
  6  7  1  0  0  0  0
M  END
> <ID>
1252

> <Formula>
C2H7NO3S

> <FW>
125.1469

> <DSSTox_CID>
1304

> <DSSTox_RID>
76069

> <DSSTox_GSID>
21304

> <DSSTox_FileID_Sort>
753

> <TS_ChemName>
l-Taurine

> <TS_ChemName_Synonyms>
Taurine

> <TS_CASRN>
107-35-7

> <CASRN_ChemName_Relationship>
primary

> <TS_Description>
single chemical compound

> <ChemNote>


> <STRUCTURE_Shown>
tested chemical

> <STRUCTURE_Formula>
C2H7NO3S

> <STRUCTURE_MW>
125.1469

> <STRUCTURE_ChemType>
defined organic

> <STRUCTURE_DefinedOrganicForm>
parent

> <STRUCTURE_IUPAC>
2-aminoethanesulfonic acid

> <STRUCTURE_SMILES>
NCCS(=O)(=O)O

> <STRUCTURE_SMILES_Desalt>
NCCS(=O)(=O)O

> <Substance_modify_yyyymmdd>
20080429

$$$$
