107-07-3
ChemmineR-0915142007XD

  4  3  0  0  0  0  0  0  0  0  1 V2000
    0.0000    0.0000    0.0000 Cl   0  0  0  0  0  0  0  0  0  0  0  0
    1.1513   -0.6638    0.0000 C    0  0  0  0  0  0  0  0  0  0  0  0
    2.3061    0.0000    0.0000 C    0  0  0  0  0  0  0  0  0  0  0  0
    3.4575   -0.6638    0.0000 O    0  0  0  0  0  0  0  0  0  0  0  0
  1  2  1  0  0  0  0
  2  3  1  0  0  0  0
  3  4  1  0  0  0  0
M  END
> <ID>
1759

> <Formula>
C2H5ClO

> <FW>
80.5135

> <DSSTox_CID>
1877

> <DSSTox_RID>
76380

> <DSSTox_GSID>
21877

> <DSSTox_FileID_Sort>
1064

> <TS_ChemName>
2-Chloroethanol

> <TS_ChemName_Synonyms>
Ethylene chlorohydrin

> <TS_CASRN>
107-07-3

> <CASRN_ChemName_Relationship>
primary

> <TS_Description>
single chemical compound

> <ChemNote>


> <STRUCTURE_Shown>
tested chemical

> <STRUCTURE_Formula>
C2H5ClO

> <STRUCTURE_MW>
80.5135

> <STRUCTURE_ChemType>
defined organic

> <STRUCTURE_DefinedOrganicForm>
parent

> <STRUCTURE_IUPAC>
2-chloroethanol

> <STRUCTURE_SMILES>
ClCCO

> <STRUCTURE_SMILES_Desalt>
ClCCO

> <Substance_modify_yyyymmdd>
20080429

$$$$
