1070-11-7
ChemmineR-0915142007XD

 16 13  0  0  1  0  0  0  0  0  1 V2000
    6.9319   -2.0083    0.0000 N    0  0  0  0  0  0  0  0  0  0  0  0
    3.4428   -2.6469    0.0000 N    0  0  0  0  0  0  0  0  0  0  0  0
    9.2548   -4.6829    0.0000 O    0  0  0  0  0  0  0  0  0  0  0  0
    3.4428    0.0000    0.0000 O    0  0  0  0  0  0  0  0  0  0  0  0
    2.3230   -1.9990    0.0000 C    0  0  0  0  0  0  0  0  0  0  0  0
    8.0610   -2.6654    0.0000 C    0  0  0  0  0  0  0  0  0  0  0  0
    4.6182   -2.0083    0.0000 C    0  0  0  0  0  0  0  0  0  0  0  0
    5.7380   -2.6654    0.0000 C    0  0  0  0  0  0  0  0  0  0  0  0
    2.3230   -0.6756    0.0000 C    0  0  0  0  0  0  0  0  0  0  0  0
    8.0610   -4.0073    0.0000 C    0  0  0  0  0  0  0  0  0  0  0  0
    1.1476   -2.6469    0.0000 C    0  0  0  0  0  0  0  0  0  0  0  0
    9.2548   -2.0083    0.0000 C    0  0  0  0  0  0  0  0  0  0  0  0
    9.2548   -0.6849    0.0000 C    0  0  0  0  0  0  0  0  0  0  0  0
    0.0000   -1.9990    0.0000 C    0  0  0  0  0  0  0  0  0  0  0  0
    0.2406   -4.2017    0.0000 Cl   0  0  0  0  0  0  0  0  0  0  0  0
    4.4701   -4.4701    0.0000 Cl   0  0  0  0  0  0  0  0  0  0  0  0
  1  6  1  0  0  0  0
  1  8  1  0  0  0  0
  2  7  1  0  0  0  0
  2  5  1  0  0  0  0
  3 10  1  0  0  0  0
  4  9  1  0  0  0  0
  5  9  1  1  0  0  0
  5 11  1  0  0  0  0
  6 10  1  1  0  0  0
  6 12  1  0  0  0  0
  7  8  1  0  0  0  0
 11 14  1  0  0  0  0
 12 13  1  0  0  0  0
M  END
> <ID>
10883

> <Formula>
C10H26Cl2N2O2

> <FW>
277.2316 (204.3098+36.4609+36.4609)

> <DSSTox_CID>
25345

> <DSSTox_RID>
80813

> <DSSTox_GSID>
45345

> <DSSTox_FileID_Sort>
5494

> <TS_ChemName>
Ethambutol dihydrochloride

> <TS_ChemName_Synonyms>


> <TS_CASRN>
1070-11-7

> <CASRN_ChemName_Relationship>
primary

> <TS_Description>
single chemical compound

> <ChemNote>
parent [74-55-5]

> <STRUCTURE_Shown>
tested chemical

> <STRUCTURE_Formula>
C10H26Cl2N2O2

> <STRUCTURE_MW>
277.2316

> <STRUCTURE_ChemType>
defined organic

> <STRUCTURE_DefinedOrganicForm>
complex

> <STRUCTURE_IUPAC>
(2S,2'S)-2,2'-(ethane-1,2-diyldiimino)dibutan-1-ol dihydrochloride

> <STRUCTURE_SMILES>
Cl.Cl.CC[C@@H](CO)NCCN[C@H](CO)CC

> <STRUCTURE_SMILES_Desalt>
CC[C@@H](CO)NCCN[C@H](CO)CC

> <Substance_modify_yyyymmdd>
20100107

$$$$
