1070-70-8
ChemmineR-0915142007XD

 14 13  0  0  0  0  0  0  0  0  1 V2000
    4.6155   -1.3060    0.0000 C   0  0  0  0  0  0  0  0  0  0  0  0
    5.7440   -1.9781    0.0000 C   0  0  0  0  0  0  0  0  0  0  0  0
    6.9359   -1.3060    0.0000 C   0  0  0  0  0  0  0  0  0  0  0  0
    8.0644   -1.9781    0.0000 C   0  0  0  0  0  0  0  0  0  0  0  0
    3.4616   -1.9781    0.0000 O   0  0  0  0  0  0  0  0  0  0  0  0
    9.2183   -1.3060    0.0000 O   0  0  0  0  0  0  0  0  0  0  0  0
    2.2824   -1.3060    0.0000 C   0  0  0  0  0  0  0  0  0  0  0  0
    2.2824    0.0000    0.0000 O   0  0  0  0  0  0  0  0  0  0  0  0
    1.1539   -1.9781    0.0000 C   0  0  0  0  0  0  0  0  0  0  0  0
    0.0000   -1.3060    0.0000 C   0  0  0  0  0  0  0  0  0  0  0  0
   10.3975   -1.9781    0.0000 C   0  0  0  0  0  0  0  0  0  0  0  0
   10.3975   -3.2841    0.0000 O   0  0  0  0  0  0  0  0  0  0  0  0
   11.5260   -1.3060    0.0000 C   0  0  0  0  0  0  0  0  0  0  0  0
   12.6799   -1.9781    0.0000 C   0  0  0  0  0  0  0  0  0  0  0  0
  1  2  1  0  0  0  0
  1  5  1  0  0  0  0
  2  3  1  0  0  0  0
  3  4  1  0  0  0  0
  4  6  1  0  0  0  0
  5  7  1  0  0  0  0
  6 11  1  0  0  0  0
  7  8  2  0  0  0  0
  7  9  1  0  0  0  0
  9 10  2  0  0  0  0
 11 12  2  0  0  0  0
 11 13  1  0  0  0  0
 13 14  2  0  0  0  0
M  END
> <ID>
10430

> <Formula>
C10H14O4

> <FW>
198.2158

> <DSSTox_CID>
24779

> <DSSTox_RID>
80468

> <DSSTox_GSID>
44779

> <DSSTox_FileID_Sort>
5150

> <TS_ChemName>
1,4-Butanediol diacrylate

> <TS_ChemName_Synonyms>
1,4-Butanediol diacrylate (Butane-1,4-diyl bisprop-2-enoate) (2-Propenoic acid, 1,4-butanediyl ester)

> <TS_CASRN>
1070-70-8

> <CASRN_ChemName_Relationship>
primary

> <TS_Description>
single chemical compound

> <ChemNote>


> <STRUCTURE_Shown>
tested chemical

> <STRUCTURE_Formula>
C10H14O4

> <STRUCTURE_MW>
198.2158

> <STRUCTURE_ChemType>
defined organic

> <STRUCTURE_DefinedOrganicForm>
parent

> <STRUCTURE_IUPAC>
butane-1,4-diyl bisprop-2-enoate

> <STRUCTURE_SMILES>
O=C(OCCCCOC(=O)C=C)C=C

> <STRUCTURE_SMILES_Desalt>
O=C(OCCCCOC(=O)C=C)C=C

> <Substance_modify_yyyymmdd>
20091116

$$$$
