107097-80-3
ChemmineR-0915142007XD

 30 30  0  0  0  0  0  0  0  0  1 V2000
    0.0000   -4.6034    0.0000 C    0  0  0  0  0  0  0  0  0  0  0  0
    0.6635   -5.7646    0.0000 C    0  0  0  0  0  0  0  0  0  0  0  0
    1.9906   -5.7646    0.0000 C    0  0  0  0  0  0  0  0  0  0  0  0
    2.6542   -6.9120    0.0000 C    0  0  0  0  0  0  0  0  0  0  0  0
    3.9951   -6.9120    0.0000 C    0  0  0  0  0  0  0  0  0  0  0  0
    4.6587   -8.0594    0.0000 N    0  0  0  0  0  0  0  0  0  0  0  0
    3.9951   -9.2206    0.0000 C    0  0  0  0  0  0  0  0  0  0  0  0
    4.6587  -10.3680    0.0000 C    0  0  0  0  0  0  0  0  0  0  0  0
    3.9951  -11.5153    0.0000 C    0  0  0  0  0  0  0  0  0  0  0  0
    4.6587  -12.6765    0.0000 O    0  0  0  0  0  0  0  0  0  0  0  0
    3.9951  -13.8239    0.0000 C    0  0  0  0  0  0  0  0  0  0  0  0
    5.9858   -8.0594    0.0000 C    0  0  0  0  0  0  0  0  0  0  0  0
    6.6493   -9.2206    0.0000 O    0  0  0  0  0  0  0  0  0  0  0  0
    6.6493   -6.9120    0.0000 C    0  0  0  0  0  0  0  0  0  0  0  0
    7.9764   -6.9120    0.0000 C    0  0  0  0  0  0  0  0  0  0  0  0
    8.6400   -5.7646    0.0000 C    0  0  0  0  0  0  0  0  0  0  0  0
    9.9809   -5.7646    0.0000 C    0  0  0  0  0  0  0  0  0  0  0  0
   10.6444   -6.9120    0.0000 O    0  0  0  0  0  0  0  0  0  0  0  0
   10.6444   -4.6034    0.0000 O    0  0  0  0  0  0  0  0  0  0  0  0
    5.9858   -5.7646    0.0000 N    0  0  0  0  0  0  0  0  0  0  0  0
    6.6493   -4.6034    0.0000 C    0  0  0  0  0  0  0  0  0  0  0  0
    7.9764   -4.6034    0.0000 O    0  0  0  0  0  0  0  0  0  0  0  0
    5.9858   -3.4560    0.0000 C    0  0  0  0  0  0  0  0  0  0  0  0
    6.6493   -2.3086    0.0000 C    0  0  0  0  0  0  0  0  0  0  0  0
    5.9858   -1.1474    0.0000 C    0  0  0  0  0  0  0  0  0  0  0  0
    4.6587   -1.1474    0.0000 C    0  0  0  0  0  0  0  0  0  0  0  0
    3.9951    0.0000    0.0000 Cl   0  0  0  0  0  0  0  0  0  0  0  0
    3.9951   -2.3086    0.0000 C    0  0  0  0  0  0  0  0  0  0  0  0
    4.6587   -3.4560    0.0000 C    0  0  0  0  0  0  0  0  0  0  0  0
    6.6493    0.0000    0.0000 Cl   0  0  0  0  0  0  0  0  0  0  0  0
  1  2  1  0  0  0  0
  2  3  1  0  0  0  0
  3  4  1  0  0  0  0
  4  5  1  0  0  0  0
  5  6  1  0  0  0  0
  6  7  1  0  0  0  0
  6 12  1  0  0  0  0
  7  8  1  0  0  0  0
  8  9  1  0  0  0  0
  9 10  1  0  0  0  0
 10 11  1  0  0  0  0
 12 13  2  0  0  0  0
 12 14  1  0  0  0  0
 14 15  1  0  0  0  0
 14 20  1  0  0  0  0
 15 16  1  0  0  0  0
 16 17  1  0  0  0  0
 17 18  1  0  0  0  0
 17 19  2  0  0  0  0
 20 21  1  0  0  0  0
 21 22  2  0  0  0  0
 21 23  1  0  0  0  0
 23 24  2  0  0  0  0
 23 29  1  0  0  0  0
 24 25  1  0  0  0  0
 25 26  2  0  0  0  0
 25 30  1  0  0  0  0
 26 27  1  0  0  0  0
 26 28  1  0  0  0  0
 28 29  2  0  0  0  0
M  END
> <ID>
16021

> <Formula>
C21H30Cl2N2O5

> <FW>
461.3793

> <DSSTox_CID>
31404

> <DSSTox_RID>
97290

> <DSSTox_GSID>
57615

> <DSSTox_FileID_Sort>
8357

> <TS_ChemName>
Loxiglumide

> <TS_ChemName_Synonyms>


> <TS_CASRN>
107097-80-3

> <CASRN_ChemName_Relationship>
primary

> <TS_Description>
single chemical compound

> <ChemNote>


> <STRUCTURE_Shown>
tested chemical

> <STRUCTURE_Formula>
C21H30Cl2N2O5

> <STRUCTURE_MW>
461.3793

> <STRUCTURE_ChemType>
defined organic

> <STRUCTURE_DefinedOrganicForm>
parent

> <STRUCTURE_IUPAC>
N~2~-(3,4-dichlorobenzoyl)-N-(3-methoxypropyl)-N-pentyl-alpha-glutamine

> <STRUCTURE_SMILES>
Clc1ccc(cc1Cl)C(=O)NC(CCC(=O)O)C(=O)N(CCCCC)CCCOC

> <STRUCTURE_SMILES_Desalt>
Clc1ccc(cc1Cl)C(=O)NC(CCC(=O)O)C(=O)N(CCCCC)CCCOC

> <Substance_modify_yyyymmdd>
20131018

$$$$
