107007-99-8
ChemmineR-0915142007XD

 24 26  0  0  1  0  0  0  0  0  1 V2000
    3.2211   -3.1045    0.0000 C    0  0  0  0  0  0  0  0  0  0  0  0
    3.9120   -2.1354    0.0000 N    0  0  0  0  0  0  0  0  0  0  0  0
    3.2211   -1.1664    0.0000 N    0  0  0  0  0  0  0  0  0  0  0  0
    2.0906   -2.7456    0.0000 C    0  0  0  0  0  0  0  0  0  0  0  0
    3.6249   -4.2619    0.0000 C    0  0  0  0  0  0  0  0  0  0  0  0
    2.0906   -1.5343    0.0000 C    0  0  0  0  0  0  0  0  0  0  0  0
    4.8003   -4.4862    0.0000 N    0  0  0  0  0  0  0  0  0  0  0  0
    2.8532   -5.1681    0.0000 O    0  0  0  0  0  0  0  0  0  0  0  0
    3.6249    0.0000    0.0000 C    0  0  0  0  0  0  0  0  0  0  0  0
    1.0498   -3.3378    0.0000 C    0  0  0  0  0  0  0  0  0  0  0  0
    1.0498   -0.9242    0.0000 C    0  0  0  0  0  0  0  0  0  0  0  0
    0.0000   -2.7276    0.0000 C    0  0  0  0  0  0  0  0  0  0  0  0
    0.0000   -1.5343    0.0000 C    0  0  0  0  0  0  0  0  0  0  0  0
    5.7155   -3.4903    0.0000 C    0  0  0  0  0  0  0  0  0  0  0  0
    5.1681   -2.2521    0.0000 C    0  0  0  0  0  0  0  0  0  0  0  0
    6.9806   -3.9658    0.0000 C    0  0  0  0  0  0  0  0  0  0  0  0
    8.2098   -3.3916    0.0000 C    0  0  0  0  0  0  0  0  0  0  0  0
    5.6078   -0.9690    0.0000 C    0  0  0  0  0  0  0  0  0  0  0  0
    8.6853   -2.1265    0.0000 C    0  0  0  0  0  0  0  0  0  0  0  0
    6.8639   -0.4217    0.0000 C    0  0  0  0  0  0  0  0  0  0  0  0
    8.1380   -0.8972    0.0000 C    0  0  0  0  0  0  0  0  0  0  0  0
    7.4741   -1.6778    0.0000 N    0  0  0  0  0  0  0  0  0  0  0  0
    8.9725   -0.9152    0.0000 C    0  0  0  0  0  0  0  0  0  0  0  0
    4.4144   -5.8590    0.0000 Cl   0  0  0  0  0  0  0  0  0  0  0  0
  1  2  2  0  0  0  0
  1  4  1  0  0  0  0
  1  5  1  0  0  0  0
  2  3  1  0  0  0  0
  3  9  1  0  0  0  0
  3  6  1  0  0  0  0
  4  6  2  0  0  0  0
  4 10  1  0  0  0  0
  5  7  1  0  0  0  0
  5  8  2  0  0  0  0
  6 11  1  0  0  0  0
 14  7  1  6  0  0  0
 10 12  2  0  0  0  0
 11 13  2  0  0  0  0
 12 13  1  0  0  0  0
 14 15  1  0  0  0  0
 14 16  1  0  0  0  0
 15 18  1  0  0  0  0
 16 17  1  0  0  0  0
 17 19  1  0  0  0  0
 17 22  1  1  0  0  0
 18 20  1  0  0  0  0
 18 22  1  1  0  0  0
 19 21  1  0  0  0  0
 20 21  1  0  0  0  0
 22 23  1  0  0  0  0
M  END
> <ID>
14041

> <Formula>
C18H25ClN4O

> <FW>
348.8703 (312.4094+36.4609)

> <DSSTox_CID>
28983

> <DSSTox_RID>
83248

> <DSSTox_GSID>
49057

> <DSSTox_FileID_Sort>
7923

> <TS_ChemName>
Granisetron hydrochloride

> <TS_ChemName_Synonyms>


> <TS_CASRN>
107007-99-8

> <CASRN_ChemName_Relationship>
primary

> <TS_Description>
single chemical compound

> <ChemNote>


> <STRUCTURE_Shown>
tested chemical

> <STRUCTURE_Formula>
C18H25ClN4O

> <STRUCTURE_MW>
348.8703

> <STRUCTURE_ChemType>
defined organic

> <STRUCTURE_DefinedOrganicForm>
complex

> <STRUCTURE_IUPAC>
1-methyl-N-[(3-endo)-9-methyl-9-azabicyclo[3.3.1]non-3-yl]-1H-indazole-3-carboxamide hydrochloride (1:1)

> <STRUCTURE_SMILES>
Cl.CN4[C@@H]1CCC[C@H]4C[C@H](C1)NC(=O)c3nn(C)c2ccccc23

> <STRUCTURE_SMILES_Desalt>
CN4[C@@H]1CCC[C@H]4C[C@H](C1)NC(=O)c3nn(C)c2ccccc23

> <Substance_modify_yyyymmdd>
20111204

$$$$
