107071-66-9
ChemmineR-0915142007XD

 36 39  0  0  0  0  0  0  0  0  1 V2000
    4.5762   -9.8921    0.0000 C   0  0  0  0  0  0  0  0  0  0  0  0
    5.7632  -10.5974    0.0000 C   0  0  0  0  0  0  0  0  0  0  0  0
    6.8986   -9.8921    0.0000 C   0  0  0  0  0  0  0  0  0  0  0  0
    8.0341  -10.5974    0.0000 C   0  0  0  0  0  0  0  0  0  0  0  0
    9.1867   -9.8921    0.0000 C   0  0  0  0  0  0  0  0  0  0  0  0
   10.3910  -10.5974    0.0000 C   0  0  0  0  0  0  0  0  0  0  0  0
   11.5092   -9.8921    0.0000 C   0  0  0  0  0  0  0  0  0  0  0  0
   12.6446  -10.5974    0.0000 C   0  0  0  0  0  0  0  0  0  0  0  0
   13.7801   -9.8921    0.0000 C   0  0  0  0  0  0  0  0  0  0  0  0
    3.4407  -10.5974    0.0000 O   0  0  0  0  0  0  0  0  0  0  0  0
    4.5762   -8.5846    0.0000 N   0  0  0  0  0  0  0  0  0  0  0  0
    3.4407   -7.9481    0.0000 C   0  0  0  0  0  0  0  0  0  0  0  0
    5.6944   -7.9481    0.0000 C   0  0  0  0  0  0  0  0  0  0  0  0
    3.4407   -6.6234    0.0000 C   0  0  0  0  0  0  0  0  0  0  0  0
    5.6944   -6.6234    0.0000 C   0  0  0  0  0  0  0  0  0  0  0  0
    4.5762   -5.9869    0.0000 C   0  0  0  0  0  0  0  0  0  0  0  0
    4.5762   -4.6622    0.0000 C   0  0  0  0  0  0  0  0  0  0  0  0
    3.4407   -3.9568    0.0000 C   0  0  0  0  0  0  0  0  0  0  0  0
    4.5762   -0.6193    0.0000 C   0  0  0  0  0  0  0  0  0  0  0  0
    3.4407    0.0000    0.0000 C   0  0  0  0  0  0  0  0  0  0  0  0
    2.2881   -0.6193    0.0000 C   0  0  0  0  0  0  0  0  0  0  0  0
    2.2881   -1.9612    0.0000 C   0  0  0  0  0  0  0  0  0  0  0  0
    3.4407   -2.6494    0.0000 C   0  0  0  0  0  0  0  0  0  0  0  0
    4.5762   -1.9612    0.0000 C   0  0  0  0  0  0  0  0  0  0  0  0
    0.0000   -4.7138    0.0000 C   0  0  0  0  0  0  0  0  0  0  0  0
    0.0000   -6.0385    0.0000 C   0  0  0  0  0  0  0  0  0  0  0  0
    1.1526   -6.7266    0.0000 C   0  0  0  0  0  0  0  0  0  0  0  0
    2.3053   -6.0385    0.0000 C   0  0  0  0  0  0  0  0  0  0  0  0
    2.3053   -4.7138    0.0000 C   0  0  0  0  0  0  0  0  0  0  0  0
    1.1526   -4.0600    0.0000 C   0  0  0  0  0  0  0  0  0  0  0  0
   17.2036  -10.5974    0.0000 N   0  0  0  0  0  0  0  0  0  0  0  0
   17.2036  -11.9221    0.0000 C   0  0  0  0  0  0  0  0  0  0  0  0
   16.0682   -9.8921    0.0000 C   0  0  0  0  0  0  0  0  0  0  0  0
   14.9327  -10.5974    0.0000 C   0  0  0  0  0  0  0  0  0  0  0  0
   16.0682  -12.6102    0.0000 C   0  0  0  0  0  0  0  0  0  0  0  0
   14.9327  -11.9221    0.0000 C   0  0  0  0  0  0  0  0  0  0  0  0
  1  2  1  0  0  0  0
  1 10  2  0  0  0  0
  1 11  1  0  0  0  0
  2  3  1  0  0  0  0
  3  4  1  0  0  0  0
  4  5  1  0  0  0  0
  5  6  1  0  0  0  0
  6  7  1  0  0  0  0
  7  8  1  0  0  0  0
  8  9  1  0  0  0  0
  9 34  1  0  0  0  0
 11 12  1  0  0  0  0
 11 13  1  0  0  0  0
 12 14  1  0  0  0  0
 13 15  1  0  0  0  0
 14 16  1  0  0  0  0
 15 16  1  0  0  0  0
 16 17  1  0  0  0  0
 17 18  2  0  0  0  0
 18 23  1  0  0  0  0
 18 29  1  0  0  0  0
 19 24  2  0  0  0  0
 19 20  1  0  0  0  0
 20 21  2  0  0  0  0
 21 22  1  0  0  0  0
 22 23  2  0  0  0  0
 23 24  1  0  0  0  0
 25 30  2  0  0  0  0
 25 26  1  0  0  0  0
 26 27  2  0  0  0  0
 27 28  1  0  0  0  0
 28 29  2  0  0  0  0
 29 30  1  0  0  0  0
 31 32  2  0  0  0  0
 31 33  1  0  0  0  0
 32 35  1  0  0  0  0
 33 34  2  0  0  0  0
 34 36  1  0  0  0  0
 35 36  2  0  0  0  0
M  END
> <ID>
13560

> <Formula>
C33H40N2O

> <FW>
480.6835

> <DSSTox_CID>
28486

> <DSSTox_RID>
82763

> <DSSTox_GSID>
48512

> <DSSTox_FileID_Sort>
7440

> <TS_ChemName>
PharmaGSID_48512

> <TS_ChemName_Synonyms>
1-[4-(2,2-Diphenylethenyl)piperidin-1-yl]-9-(pyridin-3-yl)nonan-1-one

> <TS_CASRN>
107071-66-9

> <CASRN_ChemName_Relationship>
primary

> <TS_Description>
single chemical compound

> <ChemNote>


> <STRUCTURE_Shown>
tested chemical

> <STRUCTURE_Formula>
C33H40N2O

> <STRUCTURE_MW>
480.6835

> <STRUCTURE_ChemType>
defined organic

> <STRUCTURE_DefinedOrganicForm>
parent

> <STRUCTURE_IUPAC>
1-[4-(2,2-diphenylethenyl)piperidin-1-yl]-9-(pyridin-3-yl)nonan-1-one

> <STRUCTURE_SMILES>
O=C(CCCCCCCCc1cccnc1)N4CCC(\C=C(/c2ccccc2)c3ccccc3)CC4

> <STRUCTURE_SMILES_Desalt>
O=C(CCCCCCCCc1cccnc1)N4CCC(\C=C(/c2ccccc2)c3ccccc3)CC4

> <Substance_modify_yyyymmdd>
20130910

$$$$
