1072-83-9
ChemmineR-0915142007XD

  8  8  0  0  0  0  0  0  0  0  1 V2000
    1.0736   -0.9284    0.0000 N   0  0  0  0  0  0  0  0  0  0  0  0
    0.0000   -1.6941    0.0000 C   0  0  0  0  0  0  0  0  0  0  0  0
    2.1605   -1.6941    0.0000 C   0  0  0  0  0  0  0  0  0  0  0  0
    0.4180   -2.9745    0.0000 C   0  0  0  0  0  0  0  0  0  0  0  0
    1.7425   -2.9745    0.0000 C   0  0  0  0  0  0  0  0  0  0  0  0
    3.4101   -1.2937    0.0000 C   0  0  0  0  0  0  0  0  0  0  0  0
    4.4002   -2.1913    0.0000 O   0  0  0  0  0  0  0  0  0  0  0  0
    3.6961    0.0000    0.0000 C   0  0  0  0  0  0  0  0  0  0  0  0
  1  2  1  0  0  0  0
  1  3  1  0  0  0  0
  2  4  2  0  0  0  0
  3  5  2  0  0  0  0
  3  6  1  0  0  0  0
  4  5  1  0  0  0  0
  6  7  2  0  0  0  0
  6  8  1  0  0  0  0
M  END
> <ID>
12235

> <Formula>
C6H7NO

> <FW>
109.1259

> <DSSTox_CID>
27084

> <DSSTox_RID>
82096

> <DSSTox_GSID>
47084

> <DSSTox_FileID_Sort>
6777

> <TS_ChemName>
2-Acetylpyrrole

> <TS_ChemName_Synonyms>


> <TS_CASRN>
1072-83-9

> <CASRN_ChemName_Relationship>
primary

> <TS_Description>
single chemical compound

> <ChemNote>


> <STRUCTURE_Shown>
tested chemical

> <STRUCTURE_Formula>
C6H7NO

> <STRUCTURE_MW>
109.1259

> <STRUCTURE_ChemType>
defined organic

> <STRUCTURE_DefinedOrganicForm>
parent

> <STRUCTURE_IUPAC>
1-(1H-pyrrol-2-yl)ethanone

> <STRUCTURE_SMILES>
CC(=O)c1cccn1

> <STRUCTURE_SMILES_Desalt>
CC(=O)c1cccn1

> <Substance_modify_yyyymmdd>
20100429

$$$$
