1072-15-7
ChemmineR-0915142007XD

 15 13  0  0  0  0  0  0  0  0  2 V2000
    2.5268   -1.1511    0.0000 S    0  0  0  0  0  0  0  0  0  0  0  0
    1.3757   -1.8249    0.0000 O    0  0  0  0  0  0  0  0  0  0  0  0
    3.1865   -2.3022    0.0000 O    0  0  0  0  0  0  0  0  0  0  0  0
    1.8530    0.0000    0.0000 O    0  5  0  0  0  0  0  0  0  0  0  0
    3.6638   -0.4913    0.0000 O    0  0  0  0  0  0  0  0  0  0  0  0
    4.8289   -1.1511    0.0000 C    0  0  0  0  0  0  0  0  0  0  0  0
    5.9800   -0.4773    0.0000 C    0  0  0  0  0  0  0  0  0  0  0  0
    7.1311   -1.1511    0.0000 C    0  0  0  0  0  0  0  0  0  0  0  0
    8.2821   -0.4913    0.0000 C    0  0  0  0  0  0  0  0  0  0  0  0
    9.4332   -1.1511    0.0000 C    0  0  0  0  0  0  0  0  0  0  0  0
   10.5983   -0.4773    0.0000 C    0  0  0  0  0  0  0  0  0  0  0  0
   11.7494   -1.1511    0.0000 C    0  0  0  0  0  0  0  0  0  0  0  0
   12.8865   -0.4913    0.0000 C    0  0  0  0  0  0  0  0  0  0  0  0
   14.0375   -1.1511    0.0000 C    0  0  0  0  0  0  0  0  0  0  0  0
    0.0000   -0.4913    0.0000 Na   0  3  0  0  0  0  0  0  0  0  0  0
  1  2  2  0  0  0  0
  1  3  2  0  0  0  0
  1  4  1  0  0  0  0
  1  5  1  0  0  0  0
  5  6  1  0  0  0  0
  6  7  1  0  0  0  0
  7  8  1  0  0  0  0
  8  9  1  0  0  0  0
  9 10  1  0  0  0  0
 10 11  1  0  0  0  0
 11 12  1  0  0  0  0
 12 13  1  0  0  0  0
 13 14  1  0  0  0  0
M  END
> <ID>
12619

> <Formula>
C9H19NaO4S

> <FW>
246.2995 (223.3103+22.9892)

> <DSSTox_CID>
27487

> <DSSTox_RID>
82377

> <DSSTox_GSID>
47487

> <DSSTox_FileID_Sort>
7058

> <TS_ChemName>
Sulfuric acid, monononyl ester, sodium salt

> <TS_ChemName_Synonyms>


> <TS_CASRN>
1072-15-7

> <CASRN_ChemName_Relationship>
primary

> <TS_Description>
single chemical compound

> <ChemNote>
parent [63283-24-9]

> <STRUCTURE_Shown>
tested chemical

> <STRUCTURE_Formula>
C9H19NaO4S

> <STRUCTURE_MW>
246.2995

> <STRUCTURE_ChemType>
defined organic

> <STRUCTURE_DefinedOrganicForm>
salt

> <STRUCTURE_IUPAC>
sodium nonyl sulfate

> <STRUCTURE_SMILES>
[Na+].[O-]S(=O)(=O)OCCCCCCCCC

> <STRUCTURE_SMILES_Desalt>
OS(=O)(=O)OCCCCCCCCC

> <Substance_modify_yyyymmdd>
20100704

$$$$
