1072-71-5
ChemmineR-0915142007XD

  7  7  0  0  0  0  0  0  0  0  1 V2000
    2.3352    0.0000    0.0000 S   0  0  0  0  0  0  0  0  0  0  0  0
    3.4256   -0.7768    0.0000 C   0  0  0  0  0  0  0  0  0  0  0  0
    3.0278   -2.0544    0.0000 N   0  0  0  0  0  0  0  0  0  0  0  0
    1.6941   -2.0497    0.0000 N   0  0  0  0  0  0  0  0  0  0  0  0
    1.2729   -0.8096    0.0000 C   0  0  0  0  0  0  0  0  0  0  0  0
    4.6798   -0.3510    0.0000 S   0  0  0  0  0  0  0  0  0  0  0  0
    0.0000   -0.4259    0.0000 S   0  0  0  0  0  0  0  0  0  0  0  0
  1  2  1  0  0  0  0
  1  5  1  0  0  0  0
  2  3  2  0  0  0  0
  2  6  1  0  0  0  0
  3  4  1  0  0  0  0
  4  5  2  0  0  0  0
  5  7  1  0  0  0  0
M  END
> <ID>
7574

> <Formula>
C2H2N2S3

> <FW>
150.2457

> <DSSTox_CID>
20115

> <DSSTox_RID>
79443

> <DSSTox_GSID>
40115

> <DSSTox_FileID_Sort>
4125

> <TS_ChemName>
2,5-Dimercapto-1,3,4-thiadiazole

> <TS_ChemName_Synonyms>


> <TS_CASRN>
1072-71-5

> <CASRN_ChemName_Relationship>
primary

> <TS_Description>
single chemical compound

> <ChemNote>
tautomers

> <STRUCTURE_Shown>
tested chemical

> <STRUCTURE_Formula>
C2H2N2S3

> <STRUCTURE_MW>
150.2457

> <STRUCTURE_ChemType>
defined organic

> <STRUCTURE_DefinedOrganicForm>
parent

> <STRUCTURE_IUPAC>
1,3,4-thiadiazole-2,5-dithiol

> <STRUCTURE_SMILES>
Sc1nnc(S)s1

> <STRUCTURE_SMILES_Desalt>
Sc1nnc(S)s1

> <Substance_modify_yyyymmdd>
20080429

$$$$
