1074-82-4
ChemmineR-0915142007XD

 12 12  0  0  0  0  0  0  0  0  2 V2000
    2.2855   -1.6355    0.0000 C   0  0  0  0  0  0  0  0  0  0  0  0
    2.2855   -3.0334    0.0000 C   0  0  0  0  0  0  0  0  0  0  0  0
    4.3334   -2.3344    0.0000 N   0  5  0  0  0  0  0  0  0  0  0  0
    3.5436   -1.2721    0.0000 C   0  0  0  0  0  0  0  0  0  0  0  0
    3.5436   -3.3968    0.0000 C   0  0  0  0  0  0  0  0  0  0  0  0
    1.1113   -0.9995    0.0000 C   0  0  0  0  0  0  0  0  0  0  0  0
    1.1113   -3.6694    0.0000 C   0  0  0  0  0  0  0  0  0  0  0  0
    0.0000   -3.0334    0.0000 C   0  0  0  0  0  0  0  0  0  0  0  0
    0.0000   -1.6355    0.0000 C   0  0  0  0  0  0  0  0  0  0  0  0
    3.9420   -4.6689    0.0000 O   0  0  0  0  0  0  0  0  0  0  0  0
    3.9420    0.0000    0.0000 O   0  0  0  0  0  0  0  0  0  0  0  0
    6.9893   -2.3344    0.0000 K   0  3  0  0  0  0  0  0  0  0  0  0
  1  2  2  0  0  0  0
  1  4  1  0  0  0  0
  1  6  1  0  0  0  0
  2  5  1  0  0  0  0
  2  7  1  0  0  0  0
  3  4  1  0  0  0  0
  3  5  1  0  0  0  0
  4 11  2  0  0  0  0
  5 10  2  0  0  0  0
  6  9  2  0  0  0  0
  7  8  2  0  0  0  0
  8  9  1  0  0  0  0
M  END
> <ID>
5106

> <Formula>
C8H4KNO2

> <FW>
185.2212 (146.1234+39.0978)

> <DSSTox_CID>
7358

> <DSSTox_RID>
78422

> <DSSTox_GSID>
27358

> <DSSTox_FileID_Sort>
3105

> <TS_ChemName>
Potassium 1,3-dioxo-1,3-dihydroisoindol-2-ide

> <TS_ChemName_Synonyms>
Potassium 1,3-dioxo-1,3-dihydroisoindol-2-ide (1H-Isoindole-1,3(2H)-dione, potassium salt)

> <TS_CASRN>
1074-82-4

> <CASRN_ChemName_Relationship>
primary

> <TS_Description>
single chemical compound

> <ChemNote>
parent [85-41-6]

> <STRUCTURE_Shown>
tested chemical

> <STRUCTURE_Formula>
C8H4KNO2

> <STRUCTURE_MW>
185.2212

> <STRUCTURE_ChemType>
defined organic

> <STRUCTURE_DefinedOrganicForm>
salt

> <STRUCTURE_IUPAC>
potassium 1,3-dioxo-1,3-dihydroisoindol-2-ide

> <STRUCTURE_SMILES>
[K+].O=C1[N-]C(=O)c2ccccc12

> <STRUCTURE_SMILES_Desalt>
O=C1NC(=O)c2ccccc12

> <Substance_modify_yyyymmdd>
20080429

$$$$
