1074-12-0
ChemmineR-0915142007XD

 10 10  0  0  0  0  0  0  0  0  1 V2000
    2.3076   -1.3326    0.0000 C   0  0  0  0  0  0  0  0  0  0  0  0
    2.3076    0.0000    0.0000 O   0  0  0  0  0  0  0  0  0  0  0  0
    1.1538   -1.9903    0.0000 C   0  0  0  0  0  0  0  0  0  0  0  0
    0.0000   -1.3326    0.0000 O   0  0  0  0  0  0  0  0  0  0  0  0
    3.4613   -1.9903    0.0000 C   0  0  0  0  0  0  0  0  0  0  0  0
    4.6151   -1.3326    0.0000 C   0  0  0  0  0  0  0  0  0  0  0  0
    5.7689   -1.9903    0.0000 C   0  0  0  0  0  0  0  0  0  0  0  0
    5.7689   -3.3171    0.0000 C   0  0  0  0  0  0  0  0  0  0  0  0
    4.6151   -3.9921    0.0000 C   0  0  0  0  0  0  0  0  0  0  0  0
    3.4613   -3.3171    0.0000 C   0  0  0  0  0  0  0  0  0  0  0  0
  1  2  2  0  0  0  0
  1  3  1  0  0  0  0
  1  5  1  0  0  0  0
  3  4  2  0  0  0  0
  5  6  2  0  0  0  0
  5 10  1  0  0  0  0
  6  7  1  0  0  0  0
  7  8  2  0  0  0  0
  8  9  1  0  0  0  0
  9 10  2  0  0  0  0
M  END
> <ID>
4454

> <Formula>
C8H6O2

> <FW>
134.132

> <DSSTox_CID>
5888

> <DSSTox_RID>
77960

> <DSSTox_GSID>
25888

> <DSSTox_FileID_Sort>
2643

> <TS_ChemName>
Phenylglyoxal

> <TS_ChemName_Synonyms>


> <TS_CASRN>
1074-12-0

> <CASRN_ChemName_Relationship>
primary

> <TS_Description>
single chemical compound

> <ChemNote>


> <STRUCTURE_Shown>
tested chemical

> <STRUCTURE_Formula>
C8H6O2

> <STRUCTURE_MW>
134.132

> <STRUCTURE_ChemType>
defined organic

> <STRUCTURE_DefinedOrganicForm>
parent

> <STRUCTURE_IUPAC>
oxo(phenyl)acetaldehyde

> <STRUCTURE_SMILES>
O=C(C=O)c1ccccc1

> <STRUCTURE_SMILES_Desalt>
O=C(C=O)c1ccccc1

> <Substance_modify_yyyymmdd>
20080429

$$$$
