107534-96-3
ChemmineR-0915142007XD

 21 22  0  0  0  0  0  0  0  0  1 V2000
    5.3192   -1.1377    0.0000 C    0  0  0  0  0  0  0  0  0  0  0  0
    5.9879   -2.2954    0.0000 C    0  0  0  0  0  0  0  0  0  0  0  0
    7.3252   -2.2954    0.0000 C    0  0  0  0  0  0  0  0  0  0  0  0
    8.6525   -2.2954    0.0000 C    0  0  0  0  0  0  0  0  0  0  0  0
    8.6525   -0.9680    0.0000 C    0  0  0  0  0  0  0  0  0  0  0  0
    7.3252   -0.9680    0.0000 O    0  0  0  0  0  0  0  0  0  0  0  0
    3.9919   -1.1377    0.0000 C    0  0  0  0  0  0  0  0  0  0  0  0
    3.3333   -2.2954    0.0000 C    0  0  0  0  0  0  0  0  0  0  0  0
    3.3333    0.0000    0.0000 C    0  0  0  0  0  0  0  0  0  0  0  0
    2.0059   -2.2954    0.0000 C    0  0  0  0  0  0  0  0  0  0  0  0
    2.0059    0.0000    0.0000 C    0  0  0  0  0  0  0  0  0  0  0  0
    1.3273   -1.1377    0.0000 C    0  0  0  0  0  0  0  0  0  0  0  0
    0.0000   -1.1377    0.0000 Cl   0  0  0  0  0  0  0  0  0  0  0  0
    8.6525   -3.6227    0.0000 C    0  0  0  0  0  0  0  0  0  0  0  0
    9.9798   -2.2954    0.0000 C    0  0  0  0  0  0  0  0  0  0  0  0
    7.3252   -3.6227    0.0000 C    0  0  0  0  0  0  0  0  0  0  0  0
    6.1675   -4.2913    0.0000 N    0  0  0  0  0  0  0  0  0  0  0  0
    6.0278   -5.6087    0.0000 N    0  0  0  0  0  0  0  0  0  0  0  0
    4.7304   -5.8981    0.0000 C    0  0  0  0  0  0  0  0  0  0  0  0
    4.0518   -4.7404    0.0000 N    0  0  0  0  0  0  0  0  0  0  0  0
    4.9500   -3.7524    0.0000 C    0  0  0  0  0  0  0  0  0  0  0  0
  1  2  1  0  0  0  0
  1  7  1  0  0  0  0
  2  3  1  0  0  0  0
  3  4  1  0  0  0  0
  3  6  1  0  0  0  0
  3 16  1  0  0  0  0
  4  5  1  0  0  0  0
  4 14  1  0  0  0  0
  4 15  1  0  0  0  0
  7  8  2  0  0  0  0
  7  9  1  0  0  0  0
  8 10  1  0  0  0  0
  9 11  2  0  0  0  0
 10 12  2  0  0  0  0
 11 12  1  0  0  0  0
 12 13  1  0  0  0  0
 16 17  1  0  0  0  0
 17 18  1  0  0  0  0
 17 21  1  0  0  0  0
 18 19  2  0  0  0  0
 19 20  1  0  0  0  0
 20 21  2  0  0  0  0
M  END
> <ID>
6394

> <Formula>
C16H22ClN3O

> <FW>
307.8184

> <DSSTox_CID>
12113

> <DSSTox_RID>
78905

> <DSSTox_GSID>
32113

> <DSSTox_FileID_Sort>
3587

> <TS_ChemName>
Tebuconazole

> <TS_ChemName_Synonyms>
Tebuconazole (+-); 1H-1,2,4-Triazole-1-ethanol, .alpha.-(2-(4-chlorophenyl)ethyl)-.alpha.

> <TS_CASRN>
107534-96-3

> <CASRN_ChemName_Relationship>
primary

> <TS_Description>
single chemical compound

> <ChemNote>
mixture of (R,S) isomers; structure shown without stereochem

> <STRUCTURE_Shown>
tested chemical

> <STRUCTURE_Formula>
C16H22ClN3O

> <STRUCTURE_MW>
307.8184

> <STRUCTURE_ChemType>
defined organic

> <STRUCTURE_DefinedOrganicForm>
parent

> <STRUCTURE_IUPAC>
1-(4-chlorophenyl)-4,4-dimethyl-3-(1H-1,2,4-triazol-1-ylmethyl)pentan-3-ol

> <STRUCTURE_SMILES>
OC(Cn1cncn1)(CCc2ccc(Cl)cc2)C(C)(C)C

> <STRUCTURE_SMILES_Desalt>
OC(Cn1cncn1)(CCc2ccc(Cl)cc2)C(C)(C)C

> <Substance_modify_yyyymmdd>
20080429

$$$$
