1076-56-8
ChemmineR-0915142007XD

 12 12  0  0  0  0  0  0  0  0  1 V2000
    3.4866   -2.7325    0.0000 C   0  0  0  0  0  0  0  0  0  0  0  0
    3.4866   -4.0900    0.0000 C   0  0  0  0  0  0  0  0  0  0  0  0
    2.2683   -4.6817    0.0000 C   0  0  0  0  0  0  0  0  0  0  0  0
    1.1835   -3.9972    0.0000 C   0  0  0  0  0  0  0  0  0  0  0  0
    1.1835   -2.6512    0.0000 C   0  0  0  0  0  0  0  0  0  0  0  0
    2.3960   -2.0421    0.0000 C   0  0  0  0  0  0  0  0  0  0  0  0
    4.6643   -2.1059    0.0000 C   0  0  0  0  0  0  0  0  0  0  0  0
    4.6817   -0.7658    0.0000 C   0  0  0  0  0  0  0  0  0  0  0  0
    5.8014   -2.7789    0.0000 C   0  0  0  0  0  0  0  0  0  0  0  0
    2.4424   -0.7194    0.0000 O   0  0  0  0  0  0  0  0  0  0  0  0
    1.3401    0.0000    0.0000 C   0  0  0  0  0  0  0  0  0  0  0  0
    0.0000   -4.6179    0.0000 C   0  0  0  0  0  0  0  0  0  0  0  0
  1  2  2  0  0  0  0
  1  6  1  0  0  0  0
  1  7  1  0  0  0  0
  2  3  1  0  0  0  0
  3  4  2  0  0  0  0
  4  5  1  0  0  0  0
  4 12  1  0  0  0  0
  5  6  2  0  0  0  0
  6 10  1  0  0  0  0
  7  8  1  0  0  0  0
  7  9  1  0  0  0  0
 10 11  1  0  0  0  0
M  END
> <ID>
12739

> <Formula>
C11H16O

> <FW>
164.2441

> <DSSTox_CID>
27617

> <DSSTox_RID>
82455

> <DSSTox_GSID>
47617

> <DSSTox_FileID_Sort>
7136

> <TS_ChemName>
2-Methoxy-4-methyl-1-(propan-2-yl)benzene

> <TS_ChemName_Synonyms>
2-Methoxy-4-methyl-1-(propan-2-yl)benzene (methyl 5-methyl-2-(propan-2-yl)phenyl ether) (1-Isopropyl-2-methoxy-4-methylbenzene)

> <TS_CASRN>
1076-56-8

> <CASRN_ChemName_Relationship>
primary

> <TS_Description>
single chemical compound

> <ChemNote>


> <STRUCTURE_Shown>
tested chemical

> <STRUCTURE_Formula>
C11H16O

> <STRUCTURE_MW>
164.2441

> <STRUCTURE_ChemType>
defined organic

> <STRUCTURE_DefinedOrganicForm>
parent

> <STRUCTURE_IUPAC>
2-methoxy-4-methyl-1-(propan-2-yl)benzene

> <STRUCTURE_SMILES>
COc1cc(C)ccc1C(C)C

> <STRUCTURE_SMILES_Desalt>
COc1cc(C)ccc1C(C)C

> <Substance_modify_yyyymmdd>
20101021

$$$$
