1076-97-7
ChemmineR-0915142007XD

 12 12  0  0  0  0  0  0  0  0  1 V2000
    1.9924   -1.1461    0.0000 C   0  0  0  0  0  0  0  0  0  0  0  0
    2.6654    0.0000    0.0000 C   0  0  0  0  0  0  0  0  0  0  0  0
    3.9981    0.0000    0.0000 C   0  0  0  0  0  0  0  0  0  0  0  0
    4.6578   -1.1461    0.0000 C   0  0  0  0  0  0  0  0  0  0  0  0
    3.9981   -2.2989    0.0000 C   0  0  0  0  0  0  0  0  0  0  0  0
    2.6654   -2.2989    0.0000 C   0  0  0  0  0  0  0  0  0  0  0  0
    0.6597   -1.1461    0.0000 C   0  0  0  0  0  0  0  0  0  0  0  0
    0.0000    0.0000    0.0000 O   0  0  0  0  0  0  0  0  0  0  0  0
    0.0000   -2.2989    0.0000 O   0  0  0  0  0  0  0  0  0  0  0  0
    5.9905   -1.1461    0.0000 C   0  0  0  0  0  0  0  0  0  0  0  0
    6.6635   -2.2989    0.0000 O   0  0  0  0  0  0  0  0  0  0  0  0
    6.6635    0.0000    0.0000 O   0  0  0  0  0  0  0  0  0  0  0  0
  1  2  1  0  0  0  0
  1  6  1  0  0  0  0
  1  7  1  0  0  0  0
  2  3  1  0  0  0  0
  3  4  1  0  0  0  0
  4  5  1  0  0  0  0
  4 10  1  0  0  0  0
  5  6  1  0  0  0  0
  7  8  2  0  0  0  0
  7  9  1  0  0  0  0
 10 11  2  0  0  0  0
 10 12  1  0  0  0  0
M  END
> <ID>
7494

> <Formula>
C8H12O4

> <FW>
172.1785

> <DSSTox_CID>
18788

> <DSSTox_RID>
79393

> <DSSTox_GSID>
38788

> <DSSTox_FileID_Sort>
4075

> <TS_ChemName>
1,4-Cyclohexanedicarboxylic acid

> <TS_ChemName_Synonyms>


> <TS_CASRN>
1076-97-7

> <CASRN_ChemName_Relationship>
primary

> <TS_Description>
single chemical compound

> <ChemNote>
mixture of cis, trans isomers; structure shown without stereochem

> <STRUCTURE_Shown>
tested chemical

> <STRUCTURE_Formula>
C8H12O4

> <STRUCTURE_MW>
172.1785

> <STRUCTURE_ChemType>
defined organic

> <STRUCTURE_DefinedOrganicForm>
parent

> <STRUCTURE_IUPAC>
cyclohexane-1,4-dicarboxylic acid

> <STRUCTURE_SMILES>
OC(=O)C1CCC(CC1)C(=O)O

> <STRUCTURE_SMILES_Desalt>
OC(=O)C1CCC(CC1)C(=O)O

> <Substance_modify_yyyymmdd>
20080429

$$$$
