107667-60-7
ChemmineR-0915142007XD

 17 18  0  0  1  0  0  0  0  0  1 V2000
    4.4492   -3.5867    0.0000 C    0  0  0  0  0  0  0  0  0  0  0  0
    5.5170   -4.3670    0.0000 C    0  0  0  0  0  0  0  0  0  0  0  0
    4.8462   -2.3067    0.0000 N    0  0  0  0  0  0  0  0  0  0  0  0
    6.5916   -3.5867    0.0000 O    0  0  0  0  0  0  0  0  0  0  0  0
    6.1741   -2.3067    0.0000 Zn   0  0  0  0  0  0  0  0  0  0  0  0
    4.1891   -1.1705    0.0000 C    0  0  0  0  0  0  0  0  0  0  0  0
    4.8462    0.0000    0.0000 C    0  0  0  0  0  0  0  0  0  0  0  0
    6.8449   -1.1705    0.0000 N    0  0  0  0  0  0  0  0  0  0  0  0
    6.1741    0.0000    0.0000 C    0  0  0  0  0  0  0  0  0  0  0  0
    3.2924   -4.2370    0.0000 C    0  0  0  0  0  0  0  0  0  0  0  0
    2.1424   -3.5867    0.0000 C    0  0  0  0  0  0  0  0  0  0  0  0
    0.0000   -3.5867    0.0000 C    0  0  0  0  0  0  0  0  0  0  0  0
    1.0746   -4.3670    0.0000 N    0  0  0  0  0  0  0  0  0  0  0  0
    0.4175   -2.3341    0.0000 N    0  0  0  0  0  0  0  0  0  0  0  0
    1.7454   -2.3067    0.0000 C    0  0  0  0  0  0  0  0  0  0  0  0
    2.8611   -1.1705    0.0000 O    0  0  0  0  0  0  0  0  0  0  0  0
    5.5170   -5.6949    0.0000 O    0  0  0  0  0  0  0  0  0  0  0  0
  1  2  1  0  0  0  0
  1  3  1  0  0  0  0
  1 10  1  6  0  0  0
  2  4  1  0  0  0  0
  2 17  2  0  0  0  0
  3  6  1  0  0  0  0
  3  5  1  0  0  0  0
  4  5  1  0  0  0  0
  6  7  1  0  0  0  0
  6 16  2  0  0  0  0
  7  9  1  0  0  0  0
  8  9  1  0  0  0  0
 10 11  1  0  0  0  0
 11 13  1  0  0  0  0
 11 15  2  0  0  0  0
 12 13  1  0  0  0  0
 12 14  2  0  0  0  0
 14 15  1  0  0  0  0
M  END
> <ID>
13612

> <Formula>
C9H12N4O3Zn

> <FW>
289.6256

> <DSSTox_CID>
28541

> <DSSTox_RID>
82813

> <DSSTox_GSID>
48615

> <DSSTox_FileID_Sort>
7490

> <TS_ChemName>
Polaprezinc

> <TS_ChemName_Synonyms>


> <TS_CASRN>
107667-60-7

> <CASRN_ChemName_Relationship>
primary

> <TS_Description>
single chemical compound

> <ChemNote>
stereochem

> <STRUCTURE_Shown>
tested chemical

> <STRUCTURE_Formula>
C9H12N4O3Zn

> <STRUCTURE_MW>
289.6256

> <STRUCTURE_ChemType>
organometallic

> <STRUCTURE_DefinedOrganicForm>


> <STRUCTURE_IUPAC>
[beta-alanyl-L-histidinato(2-)-kappa~2~N,O]zinc

> <STRUCTURE_SMILES>
O=C2O[Zn]N([C@H]2Cc1ncnc1)C(=O)CCN

> <STRUCTURE_SMILES_Desalt>
O=C2O[Zn]N([C@H]2Cc1ncnc1)C(=O)CCN

> <Substance_modify_yyyymmdd>
20111015

$$$$
