107793-72-6
ChemmineR-0915142007XD

 32 32  0  0  0  0  0  0  0  0  1 V2000
    6.9411   -4.0027    0.0000 C   0  0  0  0  0  0  0  0  0  0  0  0
    8.0954   -4.6474    0.0000 C   0  0  0  0  0  0  0  0  0  0  0  0
    5.7867   -4.6474    0.0000 C   0  0  0  0  0  0  0  0  0  0  0  0
    6.9411   -2.6385    0.0000 N   0  0  0  0  0  0  0  0  0  0  0  0
    8.0954   -5.9966    0.0000 C   0  0  0  0  0  0  0  0  0  0  0  0
    9.2498   -4.0027    0.0000 I   0  0  0  0  0  0  0  0  0  0  0  0
    5.7867   -5.9966    0.0000 C   0  0  0  0  0  0  0  0  0  0  0  0
    4.6474   -4.0027    0.0000 I   0  0  0  0  0  0  0  0  0  0  0  0
    5.7867   -1.9939    0.0000 C   0  0  0  0  0  0  0  0  0  0  0  0
    8.0954   -1.9939    0.0000 C   0  0  0  0  0  0  0  0  0  0  0  0
    6.9411   -6.6562    0.0000 C   0  0  0  0  0  0  0  0  0  0  0  0
    9.2498   -6.6562    0.0000 C   0  0  0  0  0  0  0  0  0  0  0  0
    4.6474   -6.6562    0.0000 C   0  0  0  0  0  0  0  0  0  0  0  0
    5.7867   -0.6596    0.0000 C   0  0  0  0  0  0  0  0  0  0  0  0
    9.2498   -2.6385    0.0000 C   0  0  0  0  0  0  0  0  0  0  0  0
    8.0954   -0.6596    0.0000 O   0  0  0  0  0  0  0  0  0  0  0  0
    6.9411   -7.9905    0.0000 I   0  0  0  0  0  0  0  0  0  0  0  0
   10.3891   -5.9966    0.0000 N   0  0  0  0  0  0  0  0  0  0  0  0
    9.2498   -7.9905    0.0000 O   0  0  0  0  0  0  0  0  0  0  0  0
    3.5080   -5.9966    0.0000 N   0  0  0  0  0  0  0  0  0  0  0  0
    4.6474   -7.9905    0.0000 O   0  0  0  0  0  0  0  0  0  0  0  0
    4.6474    0.0000    0.0000 C   0  0  0  0  0  0  0  0  0  0  0  0
    6.9411    0.0000    0.0000 O   0  0  0  0  0  0  0  0  0  0  0  0
   11.6035   -6.6562    0.0000 C   0  0  0  0  0  0  0  0  0  0  0  0
    2.3387   -6.6562    0.0000 C   0  0  0  0  0  0  0  0  0  0  0  0
    3.5080   -0.6596    0.0000 O   0  0  0  0  0  0  0  0  0  0  0  0
   12.6978   -5.9966    0.0000 C   0  0  0  0  0  0  0  0  0  0  0  0
    1.1993   -5.9966    0.0000 C   0  0  0  0  0  0  0  0  0  0  0  0
   13.8972   -6.6562    0.0000 C   0  0  0  0  0  0  0  0  0  0  0  0
   12.6978   -4.6474    0.0000 O   0  0  0  0  0  0  0  0  0  0  0  0
    0.0000   -6.6562    0.0000 O   0  0  0  0  0  0  0  0  0  0  0  0
   14.9915   -5.9966    0.0000 O   0  0  0  0  0  0  0  0  0  0  0  0
  1  2  1  0  0  0  0
  1  3  2  0  0  0  0
  1  4  1  0  0  0  0
  2  5  2  0  0  0  0
  2  6  1  0  0  0  0
  3  7  1  0  0  0  0
  3  8  1  0  0  0  0
  4  9  1  0  0  0  0
  4 10  1  0  0  0  0
  5 11  1  0  0  0  0
  5 12  1  0  0  0  0
  7 13  1  0  0  0  0
  7 11  2  0  0  0  0
  9 14  1  0  0  0  0
 10 15  1  0  0  0  0
 10 16  2  0  0  0  0
 11 17  1  0  0  0  0
 12 18  1  0  0  0  0
 12 19  2  0  0  0  0
 13 20  1  0  0  0  0
 13 21  2  0  0  0  0
 14 22  1  0  0  0  0
 14 23  1  0  0  0  0
 18 24  1  0  0  0  0
 20 25  1  0  0  0  0
 22 26  1  0  0  0  0
 24 27  1  0  0  0  0
 25 28  1  0  0  0  0
 27 29  1  0  0  0  0
 27 30  1  0  0  0  0
 28 31  1  0  0  0  0
 29 32  1  0  0  0  0
M  END
> <ID>
13709

> <Formula>
C18H24I3N3O8

> <FW>
791.1119

> <DSSTox_CID>
28643

> <DSSTox_RID>
82913

> <DSSTox_GSID>
48717

> <DSSTox_FileID_Sort>
7590

> <TS_ChemName>
Ioxilan

> <TS_ChemName_Synonyms>


> <TS_CASRN>
107793-72-6

> <CASRN_ChemName_Relationship>
primary

> <TS_Description>
single chemical compound

> <ChemNote>


> <STRUCTURE_Shown>
tested chemical

> <STRUCTURE_Formula>
C18H24I3N3O8

> <STRUCTURE_MW>
791.1119

> <STRUCTURE_ChemType>
defined organic

> <STRUCTURE_DefinedOrganicForm>
parent

> <STRUCTURE_IUPAC>
5-[acetyl(2,3-dihydroxypropyl)amino]-N-(2,3-dihydroxypropyl)-N'-(2-hydroxyethyl)-2,4,6-triiodobenzene-1,3-dicarboxamide

> <STRUCTURE_SMILES>
OCC(O)CNC(=O)c1c(I)c(N(CC(O)CO)C(C)=O)c(I)c(c1I)C(=O)NCCO

> <STRUCTURE_SMILES_Desalt>
OCC(O)CNC(=O)c1c(I)c(N(CC(O)CO)C(C)=O)c(I)c(c1I)C(=O)NCCO

> <Substance_modify_yyyymmdd>
20111204

$$$$
