107724-20-9
ChemmineR-0915142007XD

 32 37  0  0  1  0  0  0  0  0  1 V2000
    3.4499   -4.9434    0.0000 C   0  0  0  0  0  0  0  0  0  0  0  0
    3.4499   -6.2687    0.0000 C   0  0  0  0  0  0  0  0  0  0  0  0
    2.3034   -4.2492    0.0000 C   0  0  0  0  0  0  0  0  0  0  0  0
    2.3034   -6.9208    0.0000 C   0  0  0  0  0  0  0  0  0  0  0  0
    1.1465   -4.9434    0.0000 C   0  0  0  0  0  0  0  0  0  0  0  0
    1.1465   -6.2687    0.0000 C   0  0  0  0  0  0  0  0  0  0  0  0
    4.6068   -4.2492    0.0000 C   0  0  0  0  0  0  0  0  0  0  0  0
    5.7743   -4.9434    0.0000 C   0  0  0  0  0  0  0  0  0  0  0  0
    4.6068   -6.9208    0.0000 C   0  0  0  0  0  0  0  0  0  0  0  0
    5.7743   -6.2687    0.0000 C   0  0  0  0  0  0  0  0  0  0  0  0
    4.6068   -2.9240    0.0000 C   0  0  0  0  0  0  0  0  0  0  0  0
    5.7743   -2.2719    0.0000 C   0  0  0  0  0  0  0  0  0  0  0  0
    6.9208   -4.2492    0.0000 C   0  0  0  0  0  0  0  0  0  0  0  0
    6.9208   -2.9240    0.0000 C   0  0  0  0  0  0  0  0  0  0  0  0
    8.1724   -4.6805    0.0000 C   0  0  0  0  0  0  0  0  0  0  0  0
    8.9507   -3.6076    0.0000 C   0  0  0  0  0  0  0  0  0  0  0  0
    8.1724   -2.5138    0.0000 C   0  0  0  0  0  0  0  0  0  0  0  0
    7.4046   -1.4410    0.0000 C   0  0  0  0  0  0  0  0  0  0  0  0
    9.4346   -2.1141    0.0000 O   0  0  0  0  0  0  0  0  0  0  0  0
    8.1724   -0.3681    0.0000 C   0  0  0  0  0  0  0  0  0  0  0  0
    9.4346   -0.7783    0.0000 C   0  0  0  0  0  0  0  0  0  0  0  0
   10.5179    0.0000    0.0000 O   0  0  0  0  0  0  0  0  0  0  0  0
    6.8366   -1.5987    0.0000 C   0  0  0  0  0  0  0  0  0  0  0  0
    6.9208   -6.9208    0.0000 C   0  0  0  0  0  0  0  0  0  0  0  0
    8.0567   -6.2687    0.0000 O   0  0  0  0  0  0  0  0  0  0  0  0
    6.9208   -8.2460    0.0000 O   0  0  0  0  0  0  0  0  0  0  0  0
    8.0567   -8.9192    0.0000 C   0  0  0  0  0  0  0  0  0  0  0  0
    0.0000   -6.9208    0.0000 O   0  0  0  0  0  0  0  0  0  0  0  0
    3.4499   -3.6076    0.0000 C   0  0  0  0  0  0  0  0  0  0  0  0
    5.7743   -3.5761    0.0000 O   0  0  0  0  0  0  0  0  0  0  0  0
    4.6068   -5.6060    0.0000 H   0  0  0  0  0  0  0  0  0  0  0  0
    6.9208   -5.5745    0.0000 H   0  0  0  0  0  0  0  0  0  0  0  0
  1  3  1  0  0  0  0
  1  7  1  0  0  0  0
  1  2  1  0  0  0  0
  1 29  1  1  0  0  0
  2  4  2  0  0  0  0
  2  9  1  0  0  0  0
  3  5  1  0  0  0  0
  4  6  1  0  0  0  0
  5  6  1  0  0  0  0
  6 28  2  0  0  0  0
  7 11  1  0  0  0  0
  7  8  1  0  0  0  0
  7 30  1  6  0  0  0
  8 10  1  0  0  0  0
  8 13  1  0  0  0  0
  8 31  1  1  0  0  0
  9 10  1  0  0  0  0
 10 24  1  6  0  0  0
 11 12  1  0  0  0  0
 11 30  1  6  0  0  0
 12 14  1  0  0  0  0
 13 15  1  0  0  0  0
 13 14  1  0  0  0  0
 13 32  1  6  0  0  0
 14 17  1  0  0  0  0
 14 23  1  1  0  0  0
 15 16  1  0  0  0  0
 16 17  1  0  0  0  0
 17 18  1  6  0  0  0
 17 19  1  0  0  0  0
 18 20  1  0  0  0  0
 19 21  1  0  0  0  0
 20 21  1  0  0  0  0
 21 22  2  0  0  0  0
 24 25  2  0  0  0  0
 24 26  1  0  0  0  0
 26 27  1  0  0  0  0
M  END
> <ID>
11401

> <Formula>
C24H30O6

> <FW>
414.4914

> <DSSTox_CID>
26094

> <DSSTox_RID>
81333

> <DSSTox_GSID>
46094

> <DSSTox_FileID_Sort>
6014

> <TS_ChemName>
Eplerenone

> <TS_ChemName_Synonyms>


> <TS_CASRN>
107724-20-9

> <CASRN_ChemName_Relationship>
primary

> <TS_Description>
single chemical compound

> <ChemNote>
stereochem

> <STRUCTURE_Shown>
tested chemical

> <STRUCTURE_Formula>
C24H30O6

> <STRUCTURE_MW>
414.4914

> <STRUCTURE_ChemType>
defined organic

> <STRUCTURE_DefinedOrganicForm>
parent

> <STRUCTURE_IUPAC>
methyl (4aS,4bR,5aR,6aS,7R,9aS,9bR,10R)-4a,6a-dimethyl-2,5'-dioxo-2,4,4',4a,5',5a,6,6a,8,9,9a,9b,10,11-tetradecahydro-3H,3'H-spiro[cyclopenta[7,8]phenanthro[4b,5-b]oxirene-7,2'-furan]-10-carboxylate

> <STRUCTURE_SMILES>
O=C(OC)[C@@H]4CC1=CC(=O)CC[C@]1(C)[C@@]65O[C@@H]6C[C@@]3(C)[C@@H](CC[C@]23CCC(=O)O2)[C@H]45

> <STRUCTURE_SMILES_Desalt>
O=C(OC)[C@@H]4CC1=CC(=O)CC[C@]1(C)[C@@]65O[C@@H]6C[C@@]3(C)[C@@H](CC[C@]23CCC(=O)O2)[C@H]45

> <Substance_modify_yyyymmdd>
20110819

$$$$
