107868-30-4
ChemmineR-0915142007XD

 25 28  0  0  1  0  0  0  0  0  1 V2000
    4.5117   -3.2535    0.0000 C   0  0  0  0  0  0  0  0  0  0  0  0
    3.4062   -3.8916    0.0000 C   0  0  0  0  0  0  0  0  0  0  0  0
    5.6351   -3.8916    0.0000 C   0  0  0  0  0  0  0  0  0  0  0  0
    6.7406   -3.2535    0.0000 C   0  0  0  0  0  0  0  0  0  0  0  0
    6.7406   -1.9503    0.0000 C   0  0  0  0  0  0  0  0  0  0  0  0
    4.5117   -1.9503    0.0000 C   0  0  0  0  0  0  0  0  0  0  0  0
    5.6351   -5.1947    0.0000 C   0  0  0  0  0  0  0  0  0  0  0  0
    3.4062   -5.1947    0.0000 C   0  0  0  0  0  0  0  0  0  0  0  0
    5.6351   -1.3301    0.0000 C   0  0  0  0  0  0  0  0  0  0  0  0
    4.5117   -5.8239    0.0000 C   0  0  0  0  0  0  0  0  0  0  0  0
    3.4062   -2.6243    0.0000 C   0  0  0  0  0  0  0  0  0  0  0  0
    2.2918   -3.2535    0.0000 C   0  0  0  0  0  0  0  0  0  0  0  0
    7.8460   -1.3301    0.0000 C   0  0  0  0  0  0  0  0  0  0  0  0
    8.9874   -3.2535    0.0000 C   0  0  0  0  0  0  0  0  0  0  0  0
    6.7765   -0.6741    0.0000 C   0  0  0  0  0  0  0  0  0  0  0  0
    8.9874   -1.9503    0.0000 C   0  0  0  0  0  0  0  0  0  0  0  0
    2.2918   -5.8239    0.0000 C   0  0  0  0  0  0  0  0  0  0  0  0
    1.1414   -3.9275    0.0000 C   0  0  0  0  0  0  0  0  0  0  0  0
    1.1414   -5.1947    0.0000 C   0  0  0  0  0  0  0  0  0  0  0  0
    5.6351   -2.5794    0.0000 H   0  0  0  0  0  0  0  0  0  0  0  0
    4.5117   -4.6016    0.0000 H   0  0  0  0  0  0  0  0  0  0  0  0
    6.7406   -4.5656    0.0000 H   0  0  0  0  0  0  0  0  0  0  0  0
    0.0000   -5.8239    0.0000 O   0  0  0  0  0  0  0  0  0  0  0  0
    7.8460    0.0000    0.0000 O   0  0  0  0  0  0  0  0  0  0  0  0
    4.5117   -7.1540    0.0000 C   0  0  0  0  0  0  0  0  0  0  0  0
  1  6  1  0  0  0  0
  1  2  1  0  0  0  0
  1 21  1  6  0  0  0
  1  3  1  0  0  0  0
  2  8  1  0  0  0  0
  2 11  1  1  0  0  0
  2 12  1  0  0  0  0
  3  4  1  0  0  0  0
  3  7  1  0  0  0  0
  3 20  1  1  0  0  0
  4 14  1  0  0  0  0
  4  5  1  0  0  0  0
  4 22  1  6  0  0  0
  5  9  1  0  0  0  0
  5 13  1  0  0  0  0
  5 15  1  1  0  0  0
  6  9  1  0  0  0  0
  7 10  1  0  0  0  0
  8 17  2  0  0  0  0
  8 10  1  0  0  0  0
 10 25  2  0  0  0  0
 12 18  2  0  0  0  0
 13 16  1  0  0  0  0
 13 24  2  0  0  0  0
 14 16  1  0  0  0  0
 17 19  1  0  0  0  0
 18 19  1  0  0  0  0
 19 23  2  0  0  0  0
M  END
> <ID>
2730

> <Formula>
C20H24O2

> <FW>
296.4034

> <DSSTox_CID>
3037

> <DSSTox_RID>
76844

> <DSSTox_GSID>
23037

> <DSSTox_FileID_Sort>
1528

> <TS_ChemName>
Exemestane

> <TS_ChemName_Synonyms>


> <TS_CASRN>
107868-30-4

> <CASRN_ChemName_Relationship>
primary

> <TS_Description>
single chemical compound

> <ChemNote>
stereochem

> <STRUCTURE_Shown>
tested chemical

> <STRUCTURE_Formula>
C20H24O2

> <STRUCTURE_MW>
296.4034

> <STRUCTURE_ChemType>
defined organic

> <STRUCTURE_DefinedOrganicForm>
parent

> <STRUCTURE_IUPAC>
6-methylideneandrosta-1,4-diene-3,17-dione

> <STRUCTURE_SMILES>
O=C3C=C4C(=C)C[C@@H]1[C@H](CC[C@]2(C)C(=O)CC[C@@H]12)[C@@]4(C)C=C3

> <STRUCTURE_SMILES_Desalt>
O=C3C=C4C(=C)C[C@@H]1[C@H](CC[C@]2(C)C(=O)CC[C@@H]12)[C@@]4(C)C=C3

> <Substance_modify_yyyymmdd>
20080429

$$$$
