108-22-5
ChemmineR-0915142007XD

  7  6  0  0  0  0  0  0  0  0  1 V2000
    1.1505   -0.6719    0.0000 C   0  0  0  0  0  0  0  0  0  0  0  0
    1.1505   -1.9973    0.0000 O   0  0  0  0  0  0  0  0  0  0  0  0
    2.3010    0.0000    0.0000 O   0  0  0  0  0  0  0  0  0  0  0  0
    0.0000    0.0000    0.0000 C   0  0  0  0  0  0  0  0  0  0  0  0
    3.4515   -0.6719    0.0000 C   0  0  0  0  0  0  0  0  0  0  0  0
    3.4515   -1.9973    0.0000 C   0  0  0  0  0  0  0  0  0  0  0  0
    4.6020    0.0000    0.0000 C   0  0  0  0  0  0  0  0  0  0  0  0
  1  2  2  0  0  0  0
  1  3  1  0  0  0  0
  1  4  1  0  0  0  0
  3  5  1  0  0  0  0
  5  6  2  0  0  0  0
  5  7  1  0  0  0  0
M  END
> <ID>
6336

> <Formula>
C5H8O2

> <FW>
100.1158

> <DSSTox_CID>
11492

> <DSSTox_RID>
78880

> <DSSTox_GSID>
31492

> <DSSTox_FileID_Sort>
3562

> <TS_ChemName>
Isopropenyl acetate

> <TS_ChemName_Synonyms>


> <TS_CASRN>
108-22-5

> <CASRN_ChemName_Relationship>
primary

> <TS_Description>
single chemical compound

> <ChemNote>


> <STRUCTURE_Shown>
tested chemical

> <STRUCTURE_Formula>
C5H8O2

> <STRUCTURE_MW>
100.1158

> <STRUCTURE_ChemType>
defined organic

> <STRUCTURE_DefinedOrganicForm>
parent

> <STRUCTURE_IUPAC>
prop-1-en-2-yl acetate

> <STRUCTURE_SMILES>
C=C(C)OC(C)=O

> <STRUCTURE_SMILES_Desalt>
C=C(C)OC(C)=O

> <Substance_modify_yyyymmdd>
20080429

$$$$
