108-90-7
ChemmineR-0915142007XD

  7  7  0  0  0  0  0  0  0  0  1 V2000
    0.0000   -1.1496    0.0000 Cl   0  0  0  0  0  0  0  0  0  0  0  0
    1.3292   -1.1496    0.0000 C    0  0  0  0  0  0  0  0  0  0  0  0
    1.9958    0.0000    0.0000 C    0  0  0  0  0  0  0  0  0  0  0  0
    3.3250    0.0000    0.0000 C    0  0  0  0  0  0  0  0  0  0  0  0
    3.9916   -1.1496    0.0000 C    0  0  0  0  0  0  0  0  0  0  0  0
    3.3250   -2.3032    0.0000 C    0  0  0  0  0  0  0  0  0  0  0  0
    1.9958   -2.3032    0.0000 C    0  0  0  0  0  0  0  0  0  0  0  0
  1  2  1  0  0  0  0
  2  3  2  0  0  0  0
  2  7  1  0  0  0  0
  3  4  1  0  0  0  0
  4  5  2  0  0  0  0
  5  6  1  0  0  0  0
  6  7  2  0  0  0  0
M  END
> <ID>
289

> <Formula>
C6H5Cl

> <FW>
112.5569

> <DSSTox_CID>
298

> <DSSTox_RID>
75497

> <DSSTox_GSID>
20298

> <DSSTox_FileID_Sort>
181

> <TS_ChemName>
Chlorobenzene

> <TS_ChemName_Synonyms>
Chlorobenzene (Monochlorobenzene) (Benzene, chloro-)

> <TS_CASRN>
108-90-7

> <CASRN_ChemName_Relationship>
primary

> <TS_Description>
single chemical compound

> <ChemNote>


> <STRUCTURE_Shown>
tested chemical

> <STRUCTURE_Formula>
C6H5Cl

> <STRUCTURE_MW>
112.5569

> <STRUCTURE_ChemType>
defined organic

> <STRUCTURE_DefinedOrganicForm>
parent

> <STRUCTURE_IUPAC>
chlorobenzene

> <STRUCTURE_SMILES>
Clc1ccccc1

> <STRUCTURE_SMILES_Desalt>
Clc1ccccc1

> <Substance_modify_yyyymmdd>
20080429

$$$$
