108-91-8
ChemmineR-0915142007XD

  7  7  0  0  0  0  0  0  0  0  1 V2000
    0.0000   -1.1527    0.0000 N   0  0  0  0  0  0  0  0  0  0  0  0
    3.3305   -2.3054    0.0000 C   0  0  0  0  0  0  0  0  0  0  0  0
    2.0023   -2.3054    0.0000 C   0  0  0  0  0  0  0  0  0  0  0  0
    3.9886   -1.1527    0.0000 C   0  0  0  0  0  0  0  0  0  0  0  0
    1.3282   -1.1527    0.0000 C   0  0  0  0  0  0  0  0  0  0  0  0
    3.3305    0.0000    0.0000 C   0  0  0  0  0  0  0  0  0  0  0  0
    2.0023    0.0000    0.0000 C   0  0  0  0  0  0  0  0  0  0  0  0
  1  5  1  0  0  0  0
  2  3  1  0  0  0  0
  2  4  1  0  0  0  0
  3  5  1  0  0  0  0
  4  6  1  0  0  0  0
  5  7  1  0  0  0  0
  6  7  1  0  0  0  0
M  END
> <ID>
3459

> <Formula>
C6H13N

> <FW>
99.1741

> <DSSTox_CID>
3996

> <DSSTox_RID>
77250

> <DSSTox_GSID>
23996

> <DSSTox_FileID_Sort>
1933

> <TS_ChemName>
Cyclohexylamine

> <TS_ChemName_Synonyms>
Cyclohexylamine (Cyclohexanamine)

> <TS_CASRN>
108-91-8

> <CASRN_ChemName_Relationship>
primary

> <TS_Description>
single chemical compound

> <ChemNote>


> <STRUCTURE_Shown>
tested chemical

> <STRUCTURE_Formula>
C6H13N

> <STRUCTURE_MW>
99.1741

> <STRUCTURE_ChemType>
defined organic

> <STRUCTURE_DefinedOrganicForm>
parent

> <STRUCTURE_IUPAC>
cyclohexanamine

> <STRUCTURE_SMILES>
NC1CCCCC1

> <STRUCTURE_SMILES_Desalt>
NC1CCCCC1

> <Substance_modify_yyyymmdd>
20080429

$$$$
