108-67-8
ChemmineR-0915142007XD

  9  9  0  0  0  0  0  0  0  0  1 V2000
    2.2915   -1.3344    0.0000 C   0  0  0  0  0  0  0  0  0  0  0  0
    3.4465   -1.9878    0.0000 C   0  0  0  0  0  0  0  0  0  0  0  0
    3.4465   -3.3223    0.0000 C   0  0  0  0  0  0  0  0  0  0  0  0
    2.2915   -3.9941    0.0000 C   0  0  0  0  0  0  0  0  0  0  0  0
    1.1550   -3.3223    0.0000 C   0  0  0  0  0  0  0  0  0  0  0  0
    1.1550   -1.9878    0.0000 C   0  0  0  0  0  0  0  0  0  0  0  0
    2.2915    0.0000    0.0000 C   0  0  0  0  0  0  0  0  0  0  0  0
    0.0000   -3.9941    0.0000 C   0  0  0  0  0  0  0  0  0  0  0  0
    4.6015   -3.9941    0.0000 C   0  0  0  0  0  0  0  0  0  0  0  0
  1  2  2  0  0  0  0
  1  6  1  0  0  0  0
  1  7  1  0  0  0  0
  2  3  1  0  0  0  0
  3  4  2  0  0  0  0
  3  9  1  0  0  0  0
  4  5  1  0  0  0  0
  5  6  2  0  0  0  0
  5  8  1  0  0  0  0
M  END
> <ID>
4808

> <Formula>
C9H12

> <FW>
120.1916

> <DSSTox_CID>
6797

> <DSSTox_RID>
78217

> <DSSTox_GSID>
26797

> <DSSTox_FileID_Sort>
2900

> <TS_ChemName>
1,3,5-Trimethylbenzene

> <TS_ChemName_Synonyms>


> <TS_CASRN>
108-67-8

> <CASRN_ChemName_Relationship>
primary

> <TS_Description>
single chemical compound

> <ChemNote>


> <STRUCTURE_Shown>
tested chemical

> <STRUCTURE_Formula>
C9H12

> <STRUCTURE_MW>
120.1916

> <STRUCTURE_ChemType>
defined organic

> <STRUCTURE_DefinedOrganicForm>
parent

> <STRUCTURE_IUPAC>
1,3,5-trimethylbenzene

> <STRUCTURE_SMILES>
Cc1cc(C)cc(C)c1

> <STRUCTURE_SMILES_Desalt>
Cc1cc(C)cc(C)c1

> <Substance_modify_yyyymmdd>
20080429

$$$$
