108-38-3
ChemmineR-0915142007XD

  8  8  0  0  0  0  0  0  0  0  1 V2000
    0.0000   -1.9784    0.0000 C   0  0  0  0  0  0  0  0  0  0  0  0
    0.0000   -3.3173    0.0000 C   0  0  0  0  0  0  0  0  0  0  0  0
    1.1591   -3.9768    0.0000 C   0  0  0  0  0  0  0  0  0  0  0  0
    2.2982   -3.3173    0.0000 C   0  0  0  0  0  0  0  0  0  0  0  0
    2.2982   -1.9784    0.0000 C   0  0  0  0  0  0  0  0  0  0  0  0
    1.1391   -1.3189    0.0000 C   0  0  0  0  0  0  0  0  0  0  0  0
    1.1591    0.0000    0.0000 C   0  0  0  0  0  0  0  0  0  0  0  0
    3.4572   -3.9968    0.0000 C   0  0  0  0  0  0  0  0  0  0  0  0
  1  6  1  0  0  0  0
  1  2  2  0  0  0  0
  2  3  1  0  0  0  0
  3  4  2  0  0  0  0
  4  5  1  0  0  0  0
  4  8  1  0  0  0  0
  5  6  2  0  0  0  0
  6  7  1  0  0  0  0
M  END
> <ID>
1388

> <Formula>
C8H10

> <FW>
106.165

> <DSSTox_CID>
1446

> <DSSTox_RID>
78091

> <DSSTox_GSID>
26298

> <DSSTox_FileID_Sort>
2774

> <TS_ChemName>
1,3-Dimethylbenzene

> <TS_ChemName_Synonyms>
1,3-Dimethylbenzene (m-Xylene)

> <TS_CASRN>
108-38-3

> <CASRN_ChemName_Relationship>
primary

> <TS_Description>
single chemical compound

> <ChemNote>


> <STRUCTURE_Shown>
tested chemical

> <STRUCTURE_Formula>
C8H10

> <STRUCTURE_MW>
106.165

> <STRUCTURE_ChemType>
defined organic

> <STRUCTURE_DefinedOrganicForm>
parent

> <STRUCTURE_IUPAC>
1,3-dimethylbenzene

> <STRUCTURE_SMILES>
Cc1cccc(C)c1

> <STRUCTURE_SMILES_Desalt>
Cc1cccc(C)c1

> <Substance_modify_yyyymmdd>
20080429

$$$$
