108-59-8
ChemmineR-0915142007XD

  9  8  0  0  0  0  0  0  0  0  1 V2000
    2.3121   -1.3360    0.0000 C   0  0  0  0  0  0  0  0  0  0  0  0
    3.4681   -1.9936    0.0000 C   0  0  0  0  0  0  0  0  0  0  0  0
    4.6103   -1.3360    0.0000 C   0  0  0  0  0  0  0  0  0  0  0  0
    2.3121    0.0000    0.0000 O   0  0  0  0  0  0  0  0  0  0  0  0
    1.1560   -1.9936    0.0000 O   0  0  0  0  0  0  0  0  0  0  0  0
    4.6103    0.0000    0.0000 O   0  0  0  0  0  0  0  0  0  0  0  0
    5.7663   -1.9936    0.0000 O   0  0  0  0  0  0  0  0  0  0  0  0
    0.0000   -1.3360    0.0000 C   0  0  0  0  0  0  0  0  0  0  0  0
    6.9224   -1.3360    0.0000 C   0  0  0  0  0  0  0  0  0  0  0  0
  1  2  1  0  0  0  0
  1  5  1  0  0  0  0
  1  4  2  0  0  0  0
  2  3  1  0  0  0  0
  3  7  1  0  0  0  0
  3  6  2  0  0  0  0
  5  8  1  0  0  0  0
  7  9  1  0  0  0  0
M  END
> <ID>
5811

> <Formula>
C5H8O4

> <FW>
132.1146

> <DSSTox_CID>
9145

> <DSSTox_RID>
78681

> <DSSTox_GSID>
29145

> <DSSTox_FileID_Sort>
3363

> <TS_ChemName>
Dimethyl malonate

> <TS_ChemName_Synonyms>
Dimethyl malonate (Propanedioic acid, dimethyl ester) (1,3-Dimethyl propanedioate)

> <TS_CASRN>
108-59-8

> <CASRN_ChemName_Relationship>
primary

> <TS_Description>
single chemical compound

> <ChemNote>


> <STRUCTURE_Shown>
tested chemical

> <STRUCTURE_Formula>
C5H8O4

> <STRUCTURE_MW>
132.1146

> <STRUCTURE_ChemType>
defined organic

> <STRUCTURE_DefinedOrganicForm>
parent

> <STRUCTURE_IUPAC>
dimethyl propanedioate

> <STRUCTURE_SMILES>
O=C(OC)CC(=O)OC

> <STRUCTURE_SMILES_Desalt>
O=C(OC)CC(=O)OC

> <Substance_modify_yyyymmdd>
20080429

$$$$
