108-21-4
ChemmineR-0915142007XD

  7  6  0  0  0  0  0  0  0  0  1 V2000
    2.3037   -1.9950    0.0000 O   0  0  0  0  0  0  0  0  0  0  0  0
    3.4555   -1.3315    0.0000 C   0  0  0  0  0  0  0  0  0  0  0  0
    3.4555    0.0000    0.0000 C   0  0  0  0  0  0  0  0  0  0  0  0
    4.6073   -1.9950    0.0000 C   0  0  0  0  0  0  0  0  0  0  0  0
    1.1518   -1.3315    0.0000 C   0  0  0  0  0  0  0  0  0  0  0  0
    0.0000   -1.9950    0.0000 C   0  0  0  0  0  0  0  0  0  0  0  0
    1.1518    0.0000    0.0000 O   0  0  0  0  0  0  0  0  0  0  0  0
  1  2  1  0  0  0  0
  1  5  1  0  0  0  0
  2  3  1  0  0  0  0
  2  4  1  0  0  0  0
  5  6  1  0  0  0  0
  5  7  2  0  0  0  0
M  END
> <ID>
4218

> <Formula>
C5H10O2

> <FW>
102.1317

> <DSSTox_CID>
5478

> <DSSTox_RID>
77801

> <DSSTox_GSID>
25478

> <DSSTox_FileID_Sort>
2484

> <TS_ChemName>
Isopropyl acetate

> <TS_ChemName_Synonyms>
Isopropyl acetate (Acetic acid, 1-methylethyl ester)

> <TS_CASRN>
108-21-4

> <CASRN_ChemName_Relationship>
primary

> <TS_Description>
single chemical compound

> <ChemNote>


> <STRUCTURE_Shown>
tested chemical

> <STRUCTURE_Formula>
C5H10O2

> <STRUCTURE_MW>
102.1317

> <STRUCTURE_ChemType>
defined organic

> <STRUCTURE_DefinedOrganicForm>
parent

> <STRUCTURE_IUPAC>
propan-2-yl acetate

> <STRUCTURE_SMILES>
CC(=O)OC(C)C

> <STRUCTURE_SMILES_Desalt>
CC(=O)OC(C)C

> <Substance_modify_yyyymmdd>
20080429

$$$$
