108-39-4
ChemmineR-0915142007XD

  8  8  0  0  0  0  0  0  0  0  1 V2000
    2.2879   -1.9949    0.0000 C   0  0  0  0  0  0  0  0  0  0  0  0
    1.1319   -1.3326    0.0000 C   0  0  0  0  0  0  0  0  0  0  0  0
    2.2879   -3.3275    0.0000 C   0  0  0  0  0  0  0  0  0  0  0  0
    1.1319    0.0000    0.0000 O   0  0  0  0  0  0  0  0  0  0  0  0
    0.0000   -3.3275    0.0000 C   0  0  0  0  0  0  0  0  0  0  0  0
    0.0000   -1.9949    0.0000 C   0  0  0  0  0  0  0  0  0  0  0  0
    1.1319   -3.9898    0.0000 C   0  0  0  0  0  0  0  0  0  0  0  0
    3.4559   -4.0139    0.0000 C   0  0  0  0  0  0  0  0  0  0  0  0
  1  2  1  0  0  0  0
  1  3  2  0  0  0  0
  2  4  1  0  0  0  0
  2  6  2  0  0  0  0
  3  7  1  0  0  0  0
  3  8  1  0  0  0  0
  5  7  2  0  0  0  0
  5  6  1  0  0  0  0
M  END
> <ID>
3558

> <Formula>
C7H8O

> <FW>
108.1378

> <DSSTox_CID>
4200

> <DSSTox_RID>
77325

> <DSSTox_GSID>
24200

> <DSSTox_FileID_Sort>
2008

> <TS_ChemName>
m-Cresol

> <TS_ChemName_Synonyms>
3-Methylphenol

> <TS_CASRN>
108-39-4

> <CASRN_ChemName_Relationship>
primary

> <TS_Description>
single chemical compound

> <ChemNote>


> <STRUCTURE_Shown>
tested chemical

> <STRUCTURE_Formula>
C7H8O

> <STRUCTURE_MW>
108.1378

> <STRUCTURE_ChemType>
defined organic

> <STRUCTURE_DefinedOrganicForm>
parent

> <STRUCTURE_IUPAC>
3-methylphenol

> <STRUCTURE_SMILES>
Cc1cc(O)ccc1

> <STRUCTURE_SMILES_Desalt>
Cc1cc(O)ccc1

> <Substance_modify_yyyymmdd>
20080429

$$$$
