108-29-2
ChemmineR-0915142007XD

  7  7  0  0  0  0  0  0  0  0  1 V2000
    2.3397    0.0000    0.0000 O   0  0  0  0  0  0  0  0  0  0  0  0
    3.3551   -0.7721    0.0000 C   0  0  0  0  0  0  0  0  0  0  0  0
    1.3055   -0.7721    0.0000 C   0  0  0  0  0  0  0  0  0  0  0  0
    2.9854   -2.0636    0.0000 C   0  0  0  0  0  0  0  0  0  0  0  0
    1.6799   -2.0636    0.0000 C   0  0  0  0  0  0  0  0  0  0  0  0
    0.0000   -0.3697    0.0000 O   0  0  0  0  0  0  0  0  0  0  0  0
    4.6794   -0.3697    0.0000 C   0  0  0  0  0  0  0  0  0  0  0  0
  1  2  1  0  0  0  0
  1  3  1  0  0  0  0
  2  4  1  0  0  0  0
  2  7  1  0  0  0  0
  3  5  1  0  0  0  0
  3  6  2  0  0  0  0
  4  5  1  0  0  0  0
M  END
> <ID>
12740

> <Formula>
C5H8O2

> <FW>
100.1158

> <DSSTox_CID>
27618

> <DSSTox_RID>
82456

> <DSSTox_GSID>
47618

> <DSSTox_FileID_Sort>
7137

> <TS_ChemName>
4-Pentanolide

> <TS_ChemName_Synonyms>
4-Pentanolide (gamma-Valerolactone)

> <TS_CASRN>
108-29-2

> <CASRN_ChemName_Relationship>
primary

> <TS_Description>
single chemical compound

> <ChemNote>


> <STRUCTURE_Shown>
tested chemical

> <STRUCTURE_Formula>
C5H8O2

> <STRUCTURE_MW>
100.1158

> <STRUCTURE_ChemType>
defined organic

> <STRUCTURE_DefinedOrganicForm>
parent

> <STRUCTURE_IUPAC>
5-methyldihydrofuran-2(3H)-one

> <STRUCTURE_SMILES>
O=C1CCC(C)O1

> <STRUCTURE_SMILES_Desalt>
O=C1CCC(C)O1

> <Substance_modify_yyyymmdd>
20101021

$$$$
