108-64-5
ChemmineR-0915142007XD

  9  8  0  0  0  0  0  0  0  0  1 V2000
    3.4612   -0.6576    0.0000 C   0  0  0  0  0  0  0  0  0  0  0  0
    3.4612   -1.9936    0.0000 O   0  0  0  0  0  0  0  0  0  0  0  0
    4.6034    0.0000    0.0000 O   0  0  0  0  0  0  0  0  0  0  0  0
    2.3051    0.0000    0.0000 C   0  0  0  0  0  0  0  0  0  0  0  0
    1.1422   -0.6576    0.0000 C   0  0  0  0  0  0  0  0  0  0  0  0
    1.1422   -1.9936    0.0000 C   0  0  0  0  0  0  0  0  0  0  0  0
    0.0000    0.0000    0.0000 C   0  0  0  0  0  0  0  0  0  0  0  0
    5.7663   -0.6576    0.0000 C   0  0  0  0  0  0  0  0  0  0  0  0
    6.9224    0.0000    0.0000 C   0  0  0  0  0  0  0  0  0  0  0  0
  1  2  2  0  0  0  0
  1  3  1  0  0  0  0
  1  4  1  0  0  0  0
  3  8  1  0  0  0  0
  4  5  1  0  0  0  0
  5  6  1  0  0  0  0
  5  7  1  0  0  0  0
  8  9  1  0  0  0  0
M  END
> <ID>
12211

> <Formula>
C7H14O2

> <FW>
130.1849

> <DSSTox_CID>
27057

> <DSSTox_RID>
82074

> <DSSTox_GSID>
47057

> <DSSTox_FileID_Sort>
6755

> <TS_ChemName>
Ethyl isovalerate

> <TS_ChemName_Synonyms>


> <TS_CASRN>
108-64-5

> <CASRN_ChemName_Relationship>
primary

> <TS_Description>
single chemical compound

> <ChemNote>


> <STRUCTURE_Shown>
tested chemical

> <STRUCTURE_Formula>
C7H14O2

> <STRUCTURE_MW>
130.1849

> <STRUCTURE_ChemType>
defined organic

> <STRUCTURE_DefinedOrganicForm>
parent

> <STRUCTURE_IUPAC>
ethyl 3-methylbutanoate

> <STRUCTURE_SMILES>
CC(C)CC(=O)OCC

> <STRUCTURE_SMILES_Desalt>
CC(C)CC(=O)OCC

> <Substance_modify_yyyymmdd>
20100429

$$$$
