108-24-7
ChemmineR-0915142007XD

  7  6  0  0  0  0  0  0  0  0  1 V2000
    3.4555    0.0000    0.0000 O   0  0  0  0  0  0  0  0  0  0  0  0
    3.4555   -1.3315    0.0000 C   0  0  0  0  0  0  0  0  0  0  0  0
    2.3037   -1.9950    0.0000 O   0  0  0  0  0  0  0  0  0  0  0  0
    1.1518   -1.3315    0.0000 C   0  0  0  0  0  0  0  0  0  0  0  0
    1.1518    0.0000    0.0000 O   0  0  0  0  0  0  0  0  0  0  0  0
    0.0000   -1.9950    0.0000 C   0  0  0  0  0  0  0  0  0  0  0  0
    4.6073   -1.9950    0.0000 C   0  0  0  0  0  0  0  0  0  0  0  0
  1  2  2  0  0  0  0
  2  3  1  0  0  0  0
  2  7  1  0  0  0  0
  3  4  1  0  0  0  0
  4  5  2  0  0  0  0
  4  6  1  0  0  0  0
M  END
> <ID>
3656

> <Formula>
C4H6O3

> <FW>
102.0886

> <DSSTox_CID>
4395

> <DSSTox_RID>
77387

> <DSSTox_GSID>
24395

> <DSSTox_FileID_Sort>
2070

> <TS_ChemName>
Acetic anhydride

> <TS_ChemName_Synonyms>


> <TS_CASRN>
108-24-7

> <CASRN_ChemName_Relationship>
primary

> <TS_Description>
single chemical compound

> <ChemNote>


> <STRUCTURE_Shown>
tested chemical

> <STRUCTURE_Formula>
C4H6O3

> <STRUCTURE_MW>
102.0886

> <STRUCTURE_ChemType>
defined organic

> <STRUCTURE_DefinedOrganicForm>
parent

> <STRUCTURE_IUPAC>
acetic anhydride

> <STRUCTURE_SMILES>
CC(=O)OC(C)=O

> <STRUCTURE_SMILES_Desalt>
CC(=O)OC(C)=O

> <Substance_modify_yyyymmdd>
20080429

$$$$
