108-32-7
ChemmineR-0915142007XD

  7  7  0  0  0  0  0  0  0  0  1 V2000
    0.0000   -2.1140    0.0000 O   0  0  0  0  0  0  0  0  0  0  0  0
    1.0726   -1.3129    0.0000 C   0  0  0  0  0  0  0  0  0  0  0  0
    2.1764   -2.1140    0.0000 O   0  0  0  0  0  0  0  0  0  0  0  0
    1.7446   -3.3602    0.0000 C   0  0  0  0  0  0  0  0  0  0  0  0
    0.4184   -3.3602    0.0000 C   0  0  0  0  0  0  0  0  0  0  0  0
    1.0726    0.0000    0.0000 O   0  0  0  0  0  0  0  0  0  0  0  0
    2.5146   -4.4506    0.0000 C   0  0  0  0  0  0  0  0  0  0  0  0
  1  2  1  0  0  0  0
  1  5  1  0  0  0  0
  2  3  1  0  0  0  0
  2  6  2  0  0  0  0
  3  4  1  0  0  0  0
  4  5  1  0  0  0  0
  4  7  1  0  0  0  0
M  END
> <ID>
4804

> <Formula>
C4H6O3

> <FW>
102.0886

> <DSSTox_CID>
6789

> <DSSTox_RID>
78214

> <DSSTox_GSID>
26789

> <DSSTox_FileID_Sort>
2897

> <TS_ChemName>
Propylene carbonate

> <TS_ChemName_Synonyms>
1,3-Dioxolan-2-one, 4-methyl-

> <TS_CASRN>
108-32-7

> <CASRN_ChemName_Relationship>
primary

> <TS_Description>
single chemical compound

> <ChemNote>


> <STRUCTURE_Shown>
tested chemical

> <STRUCTURE_Formula>
C4H6O3

> <STRUCTURE_MW>
102.0886

> <STRUCTURE_ChemType>
defined organic

> <STRUCTURE_DefinedOrganicForm>
parent

> <STRUCTURE_IUPAC>
4-methyl-1,3-dioxolan-2-one

> <STRUCTURE_SMILES>
O=C1OCC(C)O1

> <STRUCTURE_SMILES_Desalt>
O=C1OCC(C)O1

> <Substance_modify_yyyymmdd>
20080429

$$$$
