108-86-1
ChemmineR-0915142007XD

  7  7  0  0  0  0  0  0  0  0  1 V2000
    1.3292   -1.1496    0.0000 C    0  0  0  0  0  0  0  0  0  0  0  0
    1.9958    0.0000    0.0000 C    0  0  0  0  0  0  0  0  0  0  0  0
    3.3250    0.0000    0.0000 C    0  0  0  0  0  0  0  0  0  0  0  0
    3.9916   -1.1496    0.0000 C    0  0  0  0  0  0  0  0  0  0  0  0
    3.3250   -2.3032    0.0000 C    0  0  0  0  0  0  0  0  0  0  0  0
    1.9958   -2.3032    0.0000 C    0  0  0  0  0  0  0  0  0  0  0  0
    0.0000   -1.1496    0.0000 Br   0  0  0  0  0  0  0  0  0  0  0  0
  1  2  2  0  0  0  0
  1  6  1  0  0  0  0
  1  7  1  0  0  0  0
  2  3  1  0  0  0  0
  3  4  2  0  0  0  0
  4  5  1  0  0  0  0
  5  6  2  0  0  0  0
M  END
> <ID>
3779

> <Formula>
C6H5Br

> <FW>
157.0079

> <DSSTox_CID>
4637

> <DSSTox_RID>
77476

> <DSSTox_GSID>
24637

> <DSSTox_FileID_Sort>
2159

> <TS_ChemName>
Bromobenzene

> <TS_ChemName_Synonyms>


> <TS_CASRN>
108-86-1

> <CASRN_ChemName_Relationship>
primary

> <TS_Description>
single chemical compound

> <ChemNote>


> <STRUCTURE_Shown>
tested chemical

> <STRUCTURE_Formula>
C6H5Br

> <STRUCTURE_MW>
157.0079

> <STRUCTURE_ChemType>
defined organic

> <STRUCTURE_DefinedOrganicForm>
parent

> <STRUCTURE_IUPAC>
bromobenzene

> <STRUCTURE_SMILES>
Brc1ccccc1

> <STRUCTURE_SMILES_Desalt>
Brc1ccccc1

> <Substance_modify_yyyymmdd>
20080429

$$$$
