108-78-1
ChemmineR-0915142007XD

  9  9  0  0  0  0  0  0  0  0  1 V2000
    0.0000   -2.3037    0.0000 N   0  0  0  0  0  0  0  0  0  0  0  0
    1.3315   -2.3037    0.0000 C   0  0  0  0  0  0  0  0  0  0  0  0
    1.9950   -1.1518    0.0000 N   0  0  0  0  0  0  0  0  0  0  0  0
    3.3265   -1.1518    0.0000 C   0  0  0  0  0  0  0  0  0  0  0  0
    3.9899   -2.3037    0.0000 N   0  0  0  0  0  0  0  0  0  0  0  0
    3.3265   -3.4555    0.0000 C   0  0  0  0  0  0  0  0  0  0  0  0
    1.9950   -3.4555    0.0000 N   0  0  0  0  0  0  0  0  0  0  0  0
    3.9899   -4.6073    0.0000 N   0  0  0  0  0  0  0  0  0  0  0  0
    3.9899    0.0000    0.0000 N   0  0  0  0  0  0  0  0  0  0  0  0
  1  2  1  0  0  0  0
  2  3  2  0  0  0  0
  2  7  1  0  0  0  0
  3  4  1  0  0  0  0
  4  5  2  0  0  0  0
  4  9  1  0  0  0  0
  5  6  1  0  0  0  0
  6  7  2  0  0  0  0
  6  8  1  0  0  0  0
M  END
> <ID>
768

> <Formula>
C3H6N6

> <FW>
126.1199

> <DSSTox_CID>
802

> <DSSTox_RID>
75795

> <DSSTox_GSID>
20802

> <DSSTox_FileID_Sort>
479

> <TS_ChemName>
Melamine

> <TS_ChemName_Synonyms>
Melamine (1,3,5-Triazine-2,4,6-triamine)

> <TS_CASRN>
108-78-1

> <CASRN_ChemName_Relationship>
primary

> <TS_Description>
single chemical compound

> <ChemNote>


> <STRUCTURE_Shown>
tested chemical

> <STRUCTURE_Formula>
C3H6N6

> <STRUCTURE_MW>
126.1199

> <STRUCTURE_ChemType>
defined organic

> <STRUCTURE_DefinedOrganicForm>
parent

> <STRUCTURE_IUPAC>
1,3,5-triazine-2,4,6-triamine

> <STRUCTURE_SMILES>
Nc1nc(N)nc(N)n1

> <STRUCTURE_SMILES_Desalt>
Nc1nc(N)nc(N)n1

> <Substance_modify_yyyymmdd>
20080429

$$$$
