108-80-5
ChemmineR-0915142007XD

  9  9  0  0  0  0  0  0  0  0  1 V2000
    1.9950   -3.4555    0.0000 N   0  0  0  0  0  0  0  0  0  0  0  0
    1.3315   -2.3037    0.0000 C   0  0  0  0  0  0  0  0  0  0  0  0
    1.9950   -1.1518    0.0000 N   0  0  0  0  0  0  0  0  0  0  0  0
    3.3265   -1.1518    0.0000 C   0  0  0  0  0  0  0  0  0  0  0  0
    3.9899   -2.3037    0.0000 N   0  0  0  0  0  0  0  0  0  0  0  0
    3.9899    0.0000    0.0000 O   0  0  0  0  0  0  0  0  0  0  0  0
    0.0000   -2.3037    0.0000 O   0  0  0  0  0  0  0  0  0  0  0  0
    3.3265   -3.4555    0.0000 C   0  0  0  0  0  0  0  0  0  0  0  0
    3.9899   -4.6073    0.0000 O   0  0  0  0  0  0  0  0  0  0  0  0
  1  2  2  0  0  0  0
  1  8  1  0  0  0  0
  2  3  1  0  0  0  0
  2  7  1  0  0  0  0
  3  4  2  0  0  0  0
  4  5  1  0  0  0  0
  4  6  1  0  0  0  0
  5  8  2  0  0  0  0
  8  9  1  0  0  0  0
M  END
> <ID>
3891

> <Formula>
C3H3N3O3

> <FW>
129.0742

> <DSSTox_CID>
4873

> <DSSTox_RID>
77560

> <DSSTox_GSID>
24873

> <DSSTox_FileID_Sort>
2243

> <TS_ChemName>
Cyanuric acid

> <TS_ChemName_Synonyms>
Cyanuric acid (Isocyanuric acid) (1,3,5-Triazine-2,4,6(1H,3H,5H)-trione) (s-Triazinetriol)

> <TS_CASRN>
108-80-5

> <CASRN_ChemName_Relationship>
primary

> <TS_Description>
single chemical compound

> <ChemNote>
tautomers

> <STRUCTURE_Shown>
tested chemical

> <STRUCTURE_Formula>
C3H3N3O3

> <STRUCTURE_MW>
129.0742

> <STRUCTURE_ChemType>
defined organic

> <STRUCTURE_DefinedOrganicForm>
parent

> <STRUCTURE_IUPAC>
1,3,5-triazine-2,4,6-triol

> <STRUCTURE_SMILES>
Oc1nc(O)nc(O)n1

> <STRUCTURE_SMILES_Desalt>
Oc1nc(O)nc(O)n1

> <Substance_modify_yyyymmdd>
20080429

$$$$
