108-18-9
ChemmineR-0915142007XD

  7  6  0  0  0  0  0  0  0  0  1 V2000
    2.3037   -1.9950    0.0000 N   0  0  0  0  0  0  0  0  0  0  0  0
    3.4555   -1.3315    0.0000 C   0  0  0  0  0  0  0  0  0  0  0  0
    3.4555    0.0000    0.0000 C   0  0  0  0  0  0  0  0  0  0  0  0
    4.6073   -1.9950    0.0000 C   0  0  0  0  0  0  0  0  0  0  0  0
    1.1518   -1.3315    0.0000 C   0  0  0  0  0  0  0  0  0  0  0  0
    0.0000   -1.9950    0.0000 C   0  0  0  0  0  0  0  0  0  0  0  0
    1.1518    0.0000    0.0000 C   0  0  0  0  0  0  0  0  0  0  0  0
  1  2  1  0  0  0  0
  1  5  1  0  0  0  0
  2  3  1  0  0  0  0
  2  4  1  0  0  0  0
  5  6  1  0  0  0  0
  5  7  1  0  0  0  0
M  END
> <ID>
4009

> <Formula>
C6H15N

> <FW>
101.19

> <DSSTox_CID>
5085

> <DSSTox_RID>
77658

> <DSSTox_GSID>
25085

> <DSSTox_FileID_Sort>
2341

> <TS_ChemName>
Diisopropylamine

> <TS_ChemName_Synonyms>
Diisopropylamine (2-Propanamine, N-(1-methylethyl)-)

> <TS_CASRN>
108-18-9

> <CASRN_ChemName_Relationship>
primary

> <TS_Description>
single chemical compound

> <ChemNote>


> <STRUCTURE_Shown>
tested chemical

> <STRUCTURE_Formula>
C6H15N

> <STRUCTURE_MW>
101.19

> <STRUCTURE_ChemType>
defined organic

> <STRUCTURE_DefinedOrganicForm>
parent

> <STRUCTURE_IUPAC>
N-(propan-2-yl)propan-2-amine

> <STRUCTURE_SMILES>
CC(C)NC(C)C

> <STRUCTURE_SMILES_Desalt>
CC(C)NC(C)C

> <Substance_modify_yyyymmdd>
20080429

$$$$
