108-19-0
ChemmineR-0915142007XD

  7  6  0  0  0  0  0  0  0  0  1 V2000
    2.3090   -1.9903    0.0000 N   0  0  0  0  0  0  0  0  0  0  0  0
    1.1545   -1.3346    0.0000 C   0  0  0  0  0  0  0  0  0  0  0  0
    3.4634   -1.3346    0.0000 C   0  0  0  0  0  0  0  0  0  0  0  0
    1.1545    0.0000    0.0000 O   0  0  0  0  0  0  0  0  0  0  0  0
    3.4634    0.0000    0.0000 O   0  0  0  0  0  0  0  0  0  0  0  0
    0.0000   -1.9903    0.0000 N   0  0  0  0  0  0  0  0  0  0  0  0
    4.6179   -1.9903    0.0000 N   0  0  0  0  0  0  0  0  0  0  0  0
  1  2  1  0  0  0  0
  1  3  1  0  0  0  0
  2  4  2  0  0  0  0
  2  6  1  0  0  0  0
  3  5  2  0  0  0  0
  3  7  1  0  0  0  0
M  END
> <ID>
4802

> <Formula>
C2H5N3O2

> <FW>
103.08

> <DSSTox_CID>
6783

> <DSSTox_RID>
78213

> <DSSTox_GSID>
26783

> <DSSTox_FileID_Sort>
2896

> <TS_ChemName>
Imidodicarbonic diamide

> <TS_ChemName_Synonyms>
Imidodicarbonic diamide (Biuret) (Carbamylurea)

> <TS_CASRN>
108-19-0

> <CASRN_ChemName_Relationship>
primary

> <TS_Description>
single chemical compound

> <ChemNote>


> <STRUCTURE_Shown>
tested chemical

> <STRUCTURE_Formula>
C2H5N3O2

> <STRUCTURE_MW>
103.08

> <STRUCTURE_ChemType>
defined organic

> <STRUCTURE_DefinedOrganicForm>
parent

> <STRUCTURE_IUPAC>
dicarbonimidic diamide

> <STRUCTURE_SMILES>
NC(=O)NC(N)=O

> <STRUCTURE_SMILES_Desalt>
NC(=O)NC(N)=O

> <Substance_modify_yyyymmdd>
20080429

$$$$
