108-70-3
ChemmineR-0915142007XD

  9  9  0  0  0  0  0  0  0  0  1 V2000
    1.3315   -2.3037    0.0000 C    0  0  0  0  0  0  0  0  0  0  0  0
    1.9950   -1.1518    0.0000 C    0  0  0  0  0  0  0  0  0  0  0  0
    3.3265   -1.1518    0.0000 C    0  0  0  0  0  0  0  0  0  0  0  0
    3.9899   -2.3037    0.0000 C    0  0  0  0  0  0  0  0  0  0  0  0
    3.3265   -3.4555    0.0000 C    0  0  0  0  0  0  0  0  0  0  0  0
    3.9899   -4.6073    0.0000 Cl   0  0  0  0  0  0  0  0  0  0  0  0
    3.9899    0.0000    0.0000 Cl   0  0  0  0  0  0  0  0  0  0  0  0
    1.9950   -3.4555    0.0000 C    0  0  0  0  0  0  0  0  0  0  0  0
    0.0000   -2.3037    0.0000 Cl   0  0  0  0  0  0  0  0  0  0  0  0
  1  2  2  0  0  0  0
  1  8  1  0  0  0  0
  1  9  1  0  0  0  0
  2  3  1  0  0  0  0
  3  4  2  0  0  0  0
  3  7  1  0  0  0  0
  4  5  1  0  0  0  0
  5  6  1  0  0  0  0
  5  8  2  0  0  0  0
M  END
> <ID>
4587

> <Formula>
C6H3Cl3

> <FW>
181.447

> <DSSTox_CID>
6195

> <DSSTox_RID>
78053

> <DSSTox_GSID>
26195

> <DSSTox_FileID_Sort>
2736

> <TS_ChemName>
1,3,5-Trichlorobenzene

> <TS_ChemName_Synonyms>


> <TS_CASRN>
108-70-3

> <CASRN_ChemName_Relationship>
primary

> <TS_Description>
single chemical compound

> <ChemNote>


> <STRUCTURE_Shown>
tested chemical

> <STRUCTURE_Formula>
C6H3Cl3

> <STRUCTURE_MW>
181.447

> <STRUCTURE_ChemType>
defined organic

> <STRUCTURE_DefinedOrganicForm>
parent

> <STRUCTURE_IUPAC>
1,3,5-trichlorobenzene

> <STRUCTURE_SMILES>
Clc1cc(Cl)cc(Cl)c1

> <STRUCTURE_SMILES_Desalt>
Clc1cc(Cl)cc(Cl)c1

> <Substance_modify_yyyymmdd>
20080429

$$$$
