108-09-8
ChemmineR-0915142007XD

  7  6  0  0  0  0  0  0  0  0  1 V2000
    4.6073   -1.9950    0.0000 N   0  0  0  0  0  0  0  0  0  0  0  0
    3.4555   -1.3315    0.0000 C   0  0  0  0  0  0  0  0  0  0  0  0
    2.3037   -1.9950    0.0000 C   0  0  0  0  0  0  0  0  0  0  0  0
    1.1518   -1.3315    0.0000 C   0  0  0  0  0  0  0  0  0  0  0  0
    0.0000   -1.9950    0.0000 C   0  0  0  0  0  0  0  0  0  0  0  0
    1.1518    0.0000    0.0000 C   0  0  0  0  0  0  0  0  0  0  0  0
    3.4555    0.0000    0.0000 C   0  0  0  0  0  0  0  0  0  0  0  0
  1  2  1  0  0  0  0
  2  3  1  0  0  0  0
  2  7  1  0  0  0  0
  3  4  1  0  0  0  0
  4  5  1  0  0  0  0
  4  6  1  0  0  0  0
M  END
> <ID>
4024

> <Formula>
C6H15N

> <FW>
101.19

> <DSSTox_CID>
5113

> <DSSTox_RID>
77671

> <DSSTox_GSID>
25113

> <DSSTox_FileID_Sort>
2354

> <TS_ChemName>
1,3-Dimethylbutylamine

> <TS_ChemName_Synonyms>


> <TS_CASRN>
108-09-8

> <CASRN_ChemName_Relationship>
primary

> <TS_Description>
single chemical compound

> <ChemNote>


> <STRUCTURE_Shown>
tested chemical

> <STRUCTURE_Formula>
C6H15N

> <STRUCTURE_MW>
101.19

> <STRUCTURE_ChemType>
defined organic

> <STRUCTURE_DefinedOrganicForm>
parent

> <STRUCTURE_IUPAC>
4-methylpentan-2-amine

> <STRUCTURE_SMILES>
CC(C)CC(C)N

> <STRUCTURE_SMILES_Desalt>
CC(C)CC(C)N

> <Substance_modify_yyyymmdd>
20080429

$$$$
