108-77-0
ChemmineR-0915142007XD

  9  9  0  0  0  0  0  0  0  0  1 V2000
    3.4465   -1.9878    0.0000 N    0  0  0  0  0  0  0  0  0  0  0  0
    3.4465   -3.3223    0.0000 C    0  0  0  0  0  0  0  0  0  0  0  0
    2.3099   -3.9941    0.0000 N    0  0  0  0  0  0  0  0  0  0  0  0
    1.1550   -3.3223    0.0000 C    0  0  0  0  0  0  0  0  0  0  0  0
    1.1550   -1.9878    0.0000 N    0  0  0  0  0  0  0  0  0  0  0  0
    2.3099   -1.3344    0.0000 C    0  0  0  0  0  0  0  0  0  0  0  0
    4.6015   -3.9941    0.0000 Cl   0  0  0  0  0  0  0  0  0  0  0  0
    0.0000   -3.9941    0.0000 Cl   0  0  0  0  0  0  0  0  0  0  0  0
    2.3099    0.0000    0.0000 Cl   0  0  0  0  0  0  0  0  0  0  0  0
  1  2  2  0  0  0  0
  1  6  1  0  0  0  0
  2  3  1  0  0  0  0
  2  7  1  0  0  0  0
  3  4  2  0  0  0  0
  4  5  1  0  0  0  0
  4  8  1  0  0  0  0
  5  6  2  0  0  0  0
  6  9  1  0  0  0  0
M  END
> <ID>
4809

> <Formula>
C3Cl3N3

> <FW>
184.4112

> <DSSTox_CID>
6799

> <DSSTox_RID>
78218

> <DSSTox_GSID>
26799

> <DSSTox_FileID_Sort>
2901

> <TS_ChemName>
2,4,6-Trichloro-s-triazine

> <TS_ChemName_Synonyms>
2,4,6-Trichloro-s-triazine (1,3,5-Triazine, 2,4,6-trichloro-) (Cyanuric chloride)

> <TS_CASRN>
108-77-0

> <CASRN_ChemName_Relationship>
primary

> <TS_Description>
single chemical compound

> <ChemNote>


> <STRUCTURE_Shown>
tested chemical

> <STRUCTURE_Formula>
C3Cl3N3

> <STRUCTURE_MW>
184.4112

> <STRUCTURE_ChemType>
defined organic

> <STRUCTURE_DefinedOrganicForm>
parent

> <STRUCTURE_IUPAC>
2,4,6-trichloro-1,3,5-triazine

> <STRUCTURE_SMILES>
Clc1nc(Cl)nc(Cl)n1

> <STRUCTURE_SMILES_Desalt>
Clc1nc(Cl)nc(Cl)n1

> <Substance_modify_yyyymmdd>
20080429

$$$$
