108-46-3
ChemmineR-0915142007XD

  8  8  0  0  0  0  0  0  0  0  1 V2000
    4.6080   -2.6588    0.0000 O   0  0  0  0  0  0  0  0  0  0  0  0
    3.4560   -1.9953    0.0000 C   0  0  0  0  0  0  0  0  0  0  0  0
    2.3040   -2.6588    0.0000 C   0  0  0  0  0  0  0  0  0  0  0  0
    1.1520   -1.9953    0.0000 C   0  0  0  0  0  0  0  0  0  0  0  0
    1.1520   -0.6635    0.0000 C   0  0  0  0  0  0  0  0  0  0  0  0
    2.3040    0.0000    0.0000 C   0  0  0  0  0  0  0  0  0  0  0  0
    3.4560   -0.6635    0.0000 C   0  0  0  0  0  0  0  0  0  0  0  0
    0.0000   -2.6588    0.0000 O   0  0  0  0  0  0  0  0  0  0  0  0
  1  2  1  0  0  0  0
  2  3  2  0  0  0  0
  2  7  1  0  0  0  0
  3  4  1  0  0  0  0
  4  5  2  0  0  0  0
  4  8  1  0  0  0  0
  5  6  1  0  0  0  0
  6  7  2  0  0  0  0
M  END
> <ID>
1191

> <Formula>
C6H6O2

> <FW>
110.1106

> <DSSTox_CID>
1238

> <DSSTox_RID>
76030

> <DSSTox_GSID>
21238

> <DSSTox_FileID_Sort>
714

> <TS_ChemName>
Resorcinol

> <TS_ChemName_Synonyms>
Resorcinol (1,3-Benzenediol)

> <TS_CASRN>
108-46-3

> <CASRN_ChemName_Relationship>
primary

> <TS_Description>
single chemical compound

> <ChemNote>


> <STRUCTURE_Shown>
tested chemical

> <STRUCTURE_Formula>
C6H6O2

> <STRUCTURE_MW>
110.1106

> <STRUCTURE_ChemType>
defined organic

> <STRUCTURE_DefinedOrganicForm>
parent

> <STRUCTURE_IUPAC>
benzene-1,3-diol

> <STRUCTURE_SMILES>
Oc1cccc(O)c1

> <STRUCTURE_SMILES_Desalt>
Oc1cccc(O)c1

> <Substance_modify_yyyymmdd>
20080429

$$$$
