108-83-8
ChemmineR-0915142007XD

 10  9  0  0  0  0  0  0  0  0  1 V2000
    3.4535    0.0000    0.0000 O   0  0  0  0  0  0  0  0  0  0  0  0
    3.4535   -1.3330    0.0000 C   0  0  0  0  0  0  0  0  0  0  0  0
    4.6070   -1.9961    0.0000 C   0  0  0  0  0  0  0  0  0  0  0  0
    5.7535   -1.3330    0.0000 C   0  0  0  0  0  0  0  0  0  0  0  0
    5.7535    0.0000    0.0000 C   0  0  0  0  0  0  0  0  0  0  0  0
    6.9070   -1.9961    0.0000 C   0  0  0  0  0  0  0  0  0  0  0  0
    2.3000   -1.9961    0.0000 C   0  0  0  0  0  0  0  0  0  0  0  0
    1.1535   -1.3330    0.0000 C   0  0  0  0  0  0  0  0  0  0  0  0
    0.0000   -1.9961    0.0000 C   0  0  0  0  0  0  0  0  0  0  0  0
    1.1535    0.0000    0.0000 C   0  0  0  0  0  0  0  0  0  0  0  0
  1  2  2  0  0  0  0
  2  3  1  0  0  0  0
  2  7  1  0  0  0  0
  3  4  1  0  0  0  0
  4  5  1  0  0  0  0
  4  6  1  0  0  0  0
  7  8  1  0  0  0  0
  8  9  1  0  0  0  0
  8 10  1  0  0  0  0
M  END
> <ID>
4007

> <Formula>
C9H18O

> <FW>
142.2386

> <DSSTox_CID>
5080

> <DSSTox_RID>
77656

> <DSSTox_GSID>
25080

> <DSSTox_FileID_Sort>
2339

> <TS_ChemName>
Diisobutyl ketone

> <TS_ChemName_Synonyms>
Diisobutylketone (4-Heptanone, 2,6-dimethyl-)

> <TS_CASRN>
108-83-8

> <CASRN_ChemName_Relationship>
primary

> <TS_Description>
single chemical compound

> <ChemNote>


> <STRUCTURE_Shown>
tested chemical

> <STRUCTURE_Formula>
C9H18O

> <STRUCTURE_MW>
142.2386

> <STRUCTURE_ChemType>
defined organic

> <STRUCTURE_DefinedOrganicForm>
parent

> <STRUCTURE_IUPAC>
2,6-dimethylheptan-4-one

> <STRUCTURE_SMILES>
CC(C)CC(=O)CC(C)C

> <STRUCTURE_SMILES_Desalt>
CC(C)CC(=O)CC(C)C

> <Substance_modify_yyyymmdd>
20080429

$$$$
