108050-54-0
ChemmineR-0915142007XD

 61 64  0  0  1  0  0  0  0  0  1 V2000
    9.2103   -7.9656    0.0000 O   0  0  0  0  0  0  0  0  0  0  0  0
   10.3719   -7.3018    0.0000 C   0  0  0  0  0  0  0  0  0  0  0  0
    8.0694   -7.3018    0.0000 C   0  0  0  0  0  0  0  0  0  0  0  0
   10.3719   -5.9742    0.0000 O   0  0  0  0  0  0  0  0  0  0  0  0
    8.0694   -5.9742    0.0000 C   0  0  0  0  0  0  0  0  0  0  0  0
    9.2103   -5.3104    0.0000 C   0  0  0  0  0  0  0  0  0  0  0  0
   11.5336   -5.3104    0.0000 C   0  0  0  0  0  0  0  0  0  0  0  0
    9.2103   -3.9828    0.0000 C   0  0  0  0  0  0  0  0  0  0  0  0
   10.3719   -3.3190    0.0000 C   0  0  0  0  0  0  0  0  0  0  0  0
   11.5336   -7.9656    0.0000 C   0  0  0  0  0  0  0  0  0  0  0  0
   12.6745   -7.3018    0.0000 C   0  0  0  0  0  0  0  0  0  0  0  0
   12.6745   -5.9742    0.0000 C   0  0  0  0  0  0  0  0  0  0  0  0
   12.6745   -3.3190    0.0000 C   0  0  0  0  0  0  0  0  0  0  0  0
   12.6745   -1.9914    0.0000 C   0  0  0  0  0  0  0  0  0  0  0  0
   10.3719   -1.9914    0.0000 C   0  0  0  0  0  0  0  0  0  0  0  0
   11.5336   -1.3276    0.0000 C   0  0  0  0  0  0  0  0  0  0  0  0
   13.8361   -5.3104    0.0000 C   0  0  0  0  0  0  0  0  0  0  0  0
   13.8361   -3.9828    0.0000 C   0  0  0  0  0  0  0  0  0  0  0  0
   11.5336    0.0000    0.0000 O   0  0  0  0  0  0  0  0  0  0  0  0
    8.0694   -3.3190    0.0000 C   0  0  0  0  0  0  0  0  0  0  0  0
    6.9077   -5.3104    0.0000 C   0  0  0  0  0  0  0  0  0  0  0  0
    6.9077   -7.9656    0.0000 C   0  0  0  0  0  0  0  0  0  0  0  0
    6.9077   -9.3140    0.0000 C   0  0  0  0  0  0  0  0  0  0  0  0
   13.8361   -7.9656    0.0000 O   0  0  0  0  0  0  0  0  0  0  0  0
   14.9771   -5.9742    0.0000 O   0  0  0  0  0  0  0  0  0  0  0  0
   14.9771   -3.3190    0.0000 C   0  0  0  0  0  0  0  0  0  0  0  0
   13.8361   -1.3276    0.0000 C   0  0  0  0  0  0  0  0  0  0  0  0
   16.1387   -3.9828    0.0000 C   0  0  0  0  0  0  0  0  0  0  0  0
   17.3004   -3.3190    0.0000 N   0  0  0  0  0  0  0  0  0  0  0  0
   17.3004   -1.9707    0.0000 C   0  0  0  0  0  0  0  0  0  0  0  0
   18.4620   -3.9828    0.0000 C   0  0  0  0  0  0  0  0  0  0  0  0
   18.4620   -1.3276    0.0000 C   0  0  0  0  0  0  0  0  0  0  0  0
   19.5822   -3.3190    0.0000 C   0  0  0  0  0  0  0  0  0  0  0  0
   19.5822   -1.9707    0.0000 C   0  0  0  0  0  0  0  0  0  0  0  0
    5.7668   -5.9742    0.0000 O   0  0  0  0  0  0  0  0  0  0  0  0
   18.4620    0.0000    0.0000 C   0  0  0  0  0  0  0  0  0  0  0  0
   20.7438   -3.9828    0.0000 C   0  0  0  0  0  0  0  0  0  0  0  0
   16.9685   -7.1359    0.0000 C   0  0  0  0  0  0  0  0  0  0  0  0
   17.6323   -8.2768    0.0000 C   0  0  0  0  0  0  0  0  0  0  0  0
   15.6409   -7.1359    0.0000 C   0  0  0  0  0  0  0  0  0  0  0  0
   16.9685   -9.4384    0.0000 C   0  0  0  0  0  0  0  0  0  0  0  0
   14.9771   -8.2768    0.0000 O   0  0  0  0  0  0  0  0  0  0  0  0
   15.6409   -9.4384    0.0000 C   0  0  0  0  0  0  0  0  0  0  0  0
   17.6323  -10.5794    0.0000 O   0  0  0  0  0  0  0  0  0  0  0  0
   17.6323   -5.9742    0.0000 O   0  0  0  0  0  0  0  0  0  0  0  0
   18.9599   -8.2768    0.0000 N   0  0  0  0  0  0  0  0  0  0  0  0
   14.9771  -10.5794    0.0000 C   0  0  0  0  0  0  0  0  0  0  0  0
   19.6444   -9.4384    0.0000 C   0  0  0  0  0  0  0  0  0  0  0  0
   19.6444   -7.1359    0.0000 C   0  0  0  0  0  0  0  0  0  0  0  0
    4.6051   -5.3104    0.0000 C   0  0  0  0  0  0  0  0  0  0  0  0
    3.4435   -5.9742    0.0000 C   0  0  0  0  0  0  0  0  0  0  0  0
    4.6051   -3.9828    0.0000 O   0  0  0  0  0  0  0  0  0  0  0  0
    2.2818   -5.3104    0.0000 C   0  0  0  0  0  0  0  0  0  0  0  0
    3.4435   -3.3190    0.0000 C   0  0  0  0  0  0  0  0  0  0  0  0
    2.2818   -3.9828    0.0000 C   0  0  0  0  0  0  0  0  0  0  0  0
    3.4435   -7.3018    0.0000 O   0  0  0  0  0  0  0  0  0  0  0  0
    1.1617   -5.9742    0.0000 O   0  0  0  0  0  0  0  0  0  0  0  0
    1.1617   -3.3190    0.0000 O   0  0  0  0  0  0  0  0  0  0  0  0
    3.4435   -1.9707    0.0000 C   0  0  0  0  0  0  0  0  0  0  0  0
    0.0000   -5.3104    0.0000 C   0  0  0  0  0  0  0  0  0  0  0  0
    2.2818   -7.9656    0.0000 C   0  0  0  0  0  0  0  0  0  0  0  0
  1  2  1  0  0  0  0
  1  3  1  0  0  0  0
  2 10  1  0  0  0  0
  2  4  2  0  0  0  0
  3  5  1  0  0  0  0
  3 22  1  6  0  0  0
  5  6  1  0  0  0  0
  5 21  1  1  0  0  0
  6  8  2  0  0  0  0
 12  7  1  6  0  0  0
  8  9  1  0  0  0  0
  8 20  1  0  0  0  0
  9 15  2  0  0  0  0
 10 11  1  0  0  0  0
 11 12  1  0  0  0  0
 11 24  1  6  0  0  0
 12 17  1  0  0  0  0
 13 14  1  0  0  0  0
 13 18  1  0  0  0  0
 14 16  1  0  0  0  0
 14 27  1  6  0  0  0
 15 16  1  0  0  0  0
 16 19  2  0  0  0  0
 17 18  1  0  0  0  0
 17 25  1  6  0  0  0
 18 26  1  6  0  0  0
 21 35  1  0  0  0  0
 22 23  1  0  0  0  0
 40 25  1  1  0  0  0
 26 28  1  0  0  0  0
 28 29  1  0  0  0  0
 29 30  1  0  0  0  0
 29 31  1  0  0  0  0
 30 32  1  0  0  0  0
 31 33  1  0  0  0  0
 32 34  1  0  0  0  0
 32 36  1  6  0  0  0
 33 34  1  0  0  0  0
 33 37  1  6  0  0  0
 50 35  1  1  0  0  0
 38 39  1  0  0  0  0
 38 40  1  0  0  0  0
 38 45  1  6  0  0  0
 39 41  1  0  0  0  0
 39 46  1  1  0  0  0
 40 42  1  0  0  0  0
 41 43  1  0  0  0  0
 41 44  1  6  0  0  0
 42 43  1  0  0  0  0
 43 47  1  1  0  0  0
 46 48  1  0  0  0  0
 46 49  1  0  0  0  0
 50 51  1  0  0  0  0
 50 52  1  0  0  0  0
 51 53  1  0  0  0  0
 51 56  1  6  0  0  0
 52 54  1  0  0  0  0
 53 55  1  0  0  0  0
 53 57  1  6  0  0  0
 54 55  1  0  0  0  0
 54 59  1  1  0  0  0
 55 58  1  6  0  0  0
 56 61  1  0  0  0  0
 57 60  1  0  0  0  0
M  END
> <ID>
11355

> <Formula>
C46H80N2O13

> <FW>
869.133

> <DSSTox_CID>
26011

> <DSSTox_RID>
81287

> <DSSTox_GSID>
46011

> <DSSTox_FileID_Sort>
5968

> <TS_ChemName>
Tilmicosin

> <TS_ChemName_Synonyms>


> <TS_CASRN>
108050-54-0

> <CASRN_ChemName_Relationship>
primary

> <TS_Description>
single chemical compound

> <ChemNote>
stereochem

> <STRUCTURE_Shown>
tested chemical

> <STRUCTURE_Formula>
C46H80N2O13

> <STRUCTURE_MW>
869.133

> <STRUCTURE_ChemType>
defined organic

> <STRUCTURE_DefinedOrganicForm>
parent

> <STRUCTURE_IUPAC>
[(2R,3R,4E,6E,9R,11R,12S,13S,14R)-12-{[3,6-dideoxy-3-(dimethylamino)-beta-D-glucopyranosyl]oxy}-11-{2-[(3R,5S)-3,5-dimethylpiperidin-1-yl]ethyl}-2-ethyl-14-hydroxy-5,9,13-trimethyl-8,16-dioxooxacyclohexadeca-4,6-dien-3-yl]methyl 6-deoxy-2,3-di-O-methyl-be

> <STRUCTURE_SMILES>
CN(C)[C@@H]1[C@@H](O)[C@@H](O[C@H](C)[C@H]1O)O[C@H]4[C@@H](CCN2C[C@@H](C)C[C@@H](C)C2)C[C@@H](C)C(=O)C=CC(C)=C[C@H](CO[C@@H]3O[C@H](C)[C@@H](O)[C@@H](OC)[C@H]3OC)[C@@H](CC)OC(=O)C[C@@H](O)[C@@H]4C

> <STRUCTURE_SMILES_Desalt>
CN(C)[C@@H]1[C@@H](O)[C@@H](O[C@H](C)[C@H]1O)O[C@H]4[C@@H](CCN2C[C@@H](C)C[C@@H](C)C2)C[C@@H](C)C(=O)C=CC(C)=C[C@H](CO[C@@H]3O[C@H](C)[C@@H](O)[C@@H](OC)[C@H]3OC)[C@@H](CC)OC(=O)C[C@@H](O)[C@@H]4C

> <Substance_modify_yyyymmdd>
20110824

$$$$
