108032-11-7
ChemmineR-0915142007XD

 26 27  0  0  1  0  0  0  0  0  1 V2000
    4.6779   -4.6779    0.0000 C   0  0  0  0  0  0  0  0  0  0  0  0
    7.0262   -4.6779    0.0000 C   0  0  0  0  0  0  0  0  0  0  0  0
    5.8474   -3.9949    0.0000 C   0  0  0  0  0  0  0  0  0  0  0  0
    4.6779   -5.9971    0.0000 C   0  0  0  0  0  0  0  0  0  0  0  0
    7.0262   -5.9971    0.0000 O   0  0  0  0  0  0  0  0  0  0  0  0
    5.8474   -6.6707    0.0000 C   0  0  0  0  0  0  0  0  0  0  0  0
    3.5084   -3.9949    0.0000 C   0  0  0  0  0  0  0  0  0  0  0  0
    5.8474   -2.6570    0.0000 O   0  0  0  0  0  0  0  0  0  0  0  0
    8.1957   -3.9949    0.0000 C   0  0  0  0  0  0  0  0  0  0  0  0
    2.3296   -4.6779    0.0000 C   0  0  0  0  0  0  0  0  0  0  0  0
    8.1957   -2.6570    0.0000 C   0  0  0  0  0  0  0  0  0  0  0  0
    7.0262   -1.9928    0.0000 C   0  0  0  0  0  0  0  0  0  0  0  0
    3.5084   -6.6707    0.0000 C   0  0  0  0  0  0  0  0  0  0  0  0
    2.3296   -5.9971    0.0000 C   0  0  0  0  0  0  0  0  0  0  0  0
    5.8474   -7.9898    0.0000 O   0  0  0  0  0  0  0  0  0  0  0  0
    3.5084   -2.6758    0.0000 O   0  0  0  0  0  0  0  0  0  0  0  0
    9.3558   -4.6498    0.0000 O   0  0  0  0  0  0  0  0  0  0  0  0
    9.3558   -1.9928    0.0000 O   0  0  0  0  0  0  0  0  0  0  0  0
    1.1601   -3.9949    0.0000 O   0  0  0  0  0  0  0  0  0  0  0  0
    1.1601   -6.6707    0.0000 O   0  0  0  0  0  0  0  0  0  0  0  0
    7.0262   -0.6736    0.0000 C   0  0  0  0  0  0  0  0  0  0  0  0
    8.1489    0.0000    0.0000 O   0  0  0  0  0  0  0  0  0  0  0  0
    0.0000   -4.6685    0.0000 C   0  0  0  0  0  0  0  0  0  0  0  0
    7.0075   -3.5084    0.0000 H   0  0  0  0  0  0  0  0  0  0  0  0
    5.8474   -5.2205    0.0000 H   0  0  0  0  0  0  0  0  0  0  0  0
    3.9575   -7.7746    0.0000 O   0  0  0  0  0  0  0  0  0  0  0  0
  1  3  1  0  0  0  0
  1  4  2  0  0  0  0
  1  7  1  0  0  0  0
  2  3  1  0  0  0  0
  2  9  1  0  0  0  0
  2  5  1  0  0  0  0
  2 24  1  6  0  0  0
  3  8  1  0  0  0  0
  3 25  1  1  0  0  0
  4  6  1  0  0  0  0
  4 13  1  0  0  0  0
  5  6  1  0  0  0  0
  6 15  2  0  0  0  0
  7 10  2  0  0  0  0
  7 16  1  0  0  0  0
  8 12  1  0  0  0  0
  9 17  1  6  0  0  0
  9 11  1  0  0  0  0
 10 14  1  0  0  0  0
 10 19  1  0  0  0  0
 11 12  1  0  0  0  0
 11 18  1  1  0  0  0
 12 21  1  6  0  0  0
 13 14  2  0  0  0  0
 14 20  1  0  0  0  0
 19 23  1  0  0  0  0
 21 22  1  0  0  0  0
M  END
> <ID>
11017

> <Formula>
C14H18O10

> <FW>
346.2867 (328.2714+18.0153)

> <DSSTox_CID>
25550

> <DSSTox_RID>
80949

> <DSSTox_GSID>
45550

> <DSSTox_FileID_Sort>
5630

> <TS_ChemName>
Bergenin monohydrate

> <TS_ChemName_Synonyms>


> <TS_CASRN>
108032-11-7

> <CASRN_ChemName_Relationship>
primary

> <TS_Description>
single chemical compound

> <ChemNote>
stereochem; parent [477-90-7]

> <STRUCTURE_Shown>
tested chemical

> <STRUCTURE_Formula>
C14H18O10

> <STRUCTURE_MW>
346.2867

> <STRUCTURE_ChemType>
defined organic

> <STRUCTURE_DefinedOrganicForm>
complex

> <STRUCTURE_IUPAC>
(2R,3S,4S,4aR,10bS)-3,4,8,10-tetrahydroxy-2-(hydroxymethyl)-9-methoxy-3,4,4a,10b-tetrahydropyrano[3,2-c]isochromen-6(2H)-one hydrate (1:1)

> <STRUCTURE_SMILES>
O.Oc1c2c(cc(O)c1OC)C(=O)O[C@@H]3[C@@H](O)[C@H](O)[C@@H](CO)O[C@@H]23

> <STRUCTURE_SMILES_Desalt>
Oc1c2c(cc(O)c1OC)C(=O)O[C@@H]3[C@@H](O)[C@H](O)[C@@H](CO)O[C@@H]23

> <Substance_modify_yyyymmdd>
20100107

$$$$
