108171-26-2
ChemmineR-0915142007XD

 16 15  0  0  0  0  0  0  0  0  1 V2000
    0.0000   -1.9991    0.0000 C    0  0  0  0  0  0  0  0  0  0  0  0
    1.1498   -1.3362    0.0000 C    0  0  0  0  0  0  0  0  0  0  0  0
    2.2995   -1.9991    0.0000 C    0  0  0  0  0  0  0  0  0  0  0  0
    3.4493   -1.3362    0.0000 C    0  0  0  0  0  0  0  0  0  0  0  0
    4.5990   -1.9991    0.0000 C    0  0  0  0  0  0  0  0  0  0  0  0
    5.7591   -1.3362    0.0000 C    0  0  0  0  0  0  0  0  0  0  0  0
    6.9089   -1.9991    0.0000 C    0  0  0  0  0  0  0  0  0  0  0  0
    8.0586   -1.3362    0.0000 C    0  0  0  0  0  0  0  0  0  0  0  0
    9.2084   -1.9991    0.0000 C    0  0  0  0  0  0  0  0  0  0  0  0
   10.3581   -1.3362    0.0000 C    0  0  0  0  0  0  0  0  0  0  0  0
    1.1498    0.0000    0.0000 Cl   0  0  0  0  0  0  0  0  0  0  0  0
    3.4493    0.0000    0.0000 Cl   0  0  0  0  0  0  0  0  0  0  0  0
    5.7591    0.0000    0.0000 Cl   0  0  0  0  0  0  0  0  0  0  0  0
    8.0586    0.0000    0.0000 Cl   0  0  0  0  0  0  0  0  0  0  0  0
    2.2995   -3.3250    0.0000 Cl   0  0  0  0  0  0  0  0  0  0  0  0
    6.9089   -3.3250    0.0000 Cl   0  0  0  0  0  0  0  0  0  0  0  0
  1  2  1  0  0  0  0
  2  3  1  0  0  0  0
  2 11  1  0  0  0  0
  3  4  1  0  0  0  0
  3 15  1  0  0  0  0
  4  5  1  0  0  0  0
  4 12  1  0  0  0  0
  5  6  1  0  0  0  0
  6  7  1  0  0  0  0
  6 13  1  0  0  0  0
  7  8  1  0  0  0  0
  7 16  1  0  0  0  0
  8  9  1  0  0  0  0
  8 14  1  0  0  0  0
  9 10  1  0  0  0  0
M  END
> <ID>
3869

> <Formula>
C10H16Cl6

> <FW>
348.952

> <DSSTox_CID>
4824

> <DSSTox_RID>
77544

> <DSSTox_GSID>
24824

> <DSSTox_FileID_Sort>
2227

> <TS_ChemName>
Chlorinated paraffins: C12, 60% chlorine

> <TS_ChemName_Synonyms>


> <TS_CASRN>
108171-26-2

> <CASRN_ChemName_Relationship>
primary

> <TS_Description>
mixture or formulation

> <ChemNote>
mixture of chlorinated alkanes C10-12 with 60% chlorine; structure shown 2,3,4,6,7,8-hexachlorodecane

> <STRUCTURE_Shown>
representative component

> <STRUCTURE_Formula>
C10H16Cl6

> <STRUCTURE_MW>
348.952

> <STRUCTURE_ChemType>
defined organic

> <STRUCTURE_DefinedOrganicForm>
parent

> <STRUCTURE_IUPAC>
2,3,4,6,7,8-hexachlorodecane

> <STRUCTURE_SMILES>
ClC(CC(Cl)C(Cl)C(Cl)CC)C(Cl)C(C)Cl

> <STRUCTURE_SMILES_Desalt>
ClC(CC(Cl)C(Cl)C(Cl)CC)C(Cl)C(C)Cl

> <Substance_modify_yyyymmdd>
20080429

$$$$
