1081-50-1
ChemmineR-0915142007XD

 15 15  0  0  0  0  0  0  0  0  1 V2000
    2.6590   -8.0577    0.0000 C   0  0  0  0  0  0  0  0  0  0  0  0
    1.9902   -6.9054    0.0000 C   0  0  0  0  0  0  0  0  0  0  0  0
    2.6590   -5.7532    0.0000 N   0  0  0  0  0  0  0  0  0  0  0  0
    1.9902   -4.6009    0.0000 N   0  0  0  0  0  0  0  0  0  0  0  0
    2.6590   -3.4567    0.0000 C   0  0  0  0  0  0  0  0  0  0  0  0
    3.9886   -3.4567    0.0000 O   0  0  0  0  0  0  0  0  0  0  0  0
    1.9902   -2.3045    0.0000 C   0  0  0  0  0  0  0  0  0  0  0  0
    2.6590   -1.1522    0.0000 C   0  0  0  0  0  0  0  0  0  0  0  0
    1.9902    0.0000    0.0000 C   0  0  0  0  0  0  0  0  0  0  0  0
    0.6607    0.0000    0.0000 N   0  0  0  0  0  0  0  0  0  0  0  0
    0.0000   -1.1522    0.0000 C   0  0  0  0  0  0  0  0  0  0  0  0
    0.6607   -2.3045    0.0000 C   0  0  0  0  0  0  0  0  0  0  0  0
    0.6607   -6.9054    0.0000 C   0  0  0  0  0  0  0  0  0  0  0  0
    0.0000   -5.7532    0.0000 O   0  0  0  0  0  0  0  0  0  0  0  0
    0.0000   -8.0577    0.0000 O   0  0  0  0  0  0  0  0  0  0  0  0
  1  2  1  0  0  0  0
  2  3  2  0  0  0  0
  2 13  1  0  0  0  0
  3  4  1  0  0  0  0
  4  5  1  0  0  0  0
  5  6  2  0  0  0  0
  5  7  1  0  0  0  0
  7  8  2  0  0  0  0
  7 12  1  0  0  0  0
  8  9  1  0  0  0  0
  9 10  2  0  0  0  0
 10 11  1  0  0  0  0
 11 12  2  0  0  0  0
 13 14  1  0  0  0  0
 13 15  2  0  0  0  0
M  END
> <ID>
16024

> <Formula>
C9H9N3O3

> <FW>
207.1861

> <DSSTox_CID>
31407

> <DSSTox_RID>
97293

> <DSSTox_GSID>
57618

> <DSSTox_FileID_Sort>
8360

> <TS_ChemName>
Isoniazid pyruvate

> <TS_ChemName_Synonyms>


> <TS_CASRN>
1081-50-1

> <CASRN_ChemName_Relationship>
primary

> <TS_Description>
single chemical compound

> <ChemNote>


> <STRUCTURE_Shown>
tested chemical

> <STRUCTURE_Formula>
C9H9N3O3

> <STRUCTURE_MW>
207.1861

> <STRUCTURE_ChemType>
defined organic

> <STRUCTURE_DefinedOrganicForm>
parent

> <STRUCTURE_IUPAC>
(2Z)-2-(isonicotinoylhydrazono)propanoic acid

> <STRUCTURE_SMILES>
O=C(N\N=C(\C)C(=O)O)c1ccncc1

> <STRUCTURE_SMILES_Desalt>
O=C(N\N=C(\C)C(=O)O)c1ccncc1

> <Substance_modify_yyyymmdd>
20131018

$$$$
