108203-70-9
ChemmineR-0915142007XD

 12 11  0  0  0  0  0  0  0  0  2 V2000
    6.6232   -1.0601    0.0000 N   0  3  0  0  0  0  0  0  0  0  0  0
    4.5937   -1.7396    0.0000 N   0  0  0  0  0  0  0  0  0  0  0  0
    5.8440   -2.1745    0.0000 C   0  0  0  0  0  0  0  0  0  0  0  0
    5.8440    0.0000    0.0000 C   0  0  0  0  0  0  0  0  0  0  0  0
    4.5937   -0.4258    0.0000 C   0  0  0  0  0  0  0  0  0  0  0  0
    3.4973   -2.5369    0.0000 C   0  0  0  0  0  0  0  0  0  0  0  0
    2.2832   -1.9661    0.0000 C   0  0  0  0  0  0  0  0  0  0  0  0
    1.2232   -2.7453    0.0000 C   0  0  0  0  0  0  0  0  0  0  0  0
    0.0000   -2.2017    0.0000 C   0  0  0  0  0  0  0  0  0  0  0  0
    6.2699   -3.4067    0.0000 C   0  0  0  0  0  0  0  0  0  0  0  0
    7.9642   -1.0601    0.0000 C   0  0  0  0  0  0  0  0  0  0  0  0
    9.0605   -3.3886    0.0000 I   0  5  0  0  0  0  0  0  0  0  0  0
  1  3  2  0  0  0  0
  1  4  1  0  0  0  0
  1 11  1  0  0  0  0
  2  3  1  0  0  0  0
  2  5  1  0  0  0  0
  2  6  1  0  0  0  0
  3 10  1  0  0  0  0
  4  5  2  0  0  0  0
  6  7  1  0  0  0  0
  7  8  1  0  0  0  0
  8  9  1  0  0  0  0
M  END
> <ID>
12983

> <Formula>
C9H17IN2

> <FW>
280.1492 (153.2441+126.9050)

> <DSSTox_CID>
27884

> <DSSTox_RID>
82637

> <DSSTox_GSID>
47908

> <DSSTox_FileID_Sort>
7314

> <TS_ChemName>
1-Butyl-2,3-dimethylimidazolium iodide

> <TS_ChemName_Synonyms>


> <TS_CASRN>
108203-70-9

> <CASRN_ChemName_Relationship>
primary

> <TS_Description>
single chemical compound

> <ChemNote>
ammonium; parent [108203-89-0]

> <STRUCTURE_Shown>
tested chemical

> <STRUCTURE_Formula>
C9H17IN2

> <STRUCTURE_MW>
280.1492

> <STRUCTURE_ChemType>
defined organic

> <STRUCTURE_DefinedOrganicForm>
salt

> <STRUCTURE_IUPAC>
1-butyl-2,3-dimethyl-1H-imidazol-3-ium iodide

> <STRUCTURE_SMILES>
[I-].CCCCn1cc[n+](C)c1C

> <STRUCTURE_SMILES_Desalt>
CCCCn1cc[n+](C)c1C

> <Substance_modify_yyyymmdd>
20110419

$$$$
