108319-06-8
ChemmineR-0915142007XD

 30 33  0  0  0  0  0  0  0  0  1 V2000
    8.0567   -5.3020    0.0000 N   0  0  0  0  0  0  0  0  0  0  0  0
    9.1978   -7.2845    0.0000 C   0  0  0  0  0  0  0  0  0  0  0  0
    6.8926   -5.9705    0.0000 C   0  0  0  0  0  0  0  0  0  0  0  0
    6.8926   -7.2845    0.0000 C   0  0  0  0  0  0  0  0  0  0  0  0
    9.1978   -5.9705    0.0000 C   0  0  0  0  0  0  0  0  0  0  0  0
    8.0567   -7.9760    0.0000 C   0  0  0  0  0  0  0  0  0  0  0  0
    3.4578   -5.3020    0.0000 N   0  0  0  0  0  0  0  0  0  0  0  0
    8.0567   -3.9650    0.0000 C   0  0  0  0  0  0  0  0  0  0  0  0
    4.6104   -5.9705    0.0000 C   0  0  0  0  0  0  0  0  0  0  0  0
    5.7515   -5.3020    0.0000 C   0  0  0  0  0  0  0  0  0  0  0  0
    5.7515   -7.9760    0.0000 C   0  0  0  0  0  0  0  0  0  0  0  0
   10.3619   -7.9414    0.0000 C   0  0  0  0  0  0  0  0  0  0  0  0
    4.6104   -7.2845    0.0000 C   0  0  0  0  0  0  0  0  0  0  0  0
    9.1978   -3.3195    0.0000 C   0  0  0  0  0  0  0  0  0  0  0  0
    9.1978   -1.9710    0.0000 C   0  0  0  0  0  0  0  0  0  0  0  0
    6.8926   -3.3195    0.0000 C   0  0  0  0  0  0  0  0  0  0  0  0
    2.3052   -5.9590    0.0000 C   0  0  0  0  0  0  0  0  0  0  0  0
    8.0567   -9.2900    0.0000 O   0  0  0  0  0  0  0  0  0  0  0  0
    1.1411   -3.9534    0.0000 N   0  0  0  0  0  0  0  0  0  0  0  0
   11.5260   -7.3306    0.0000 O   0  0  0  0  0  0  0  0  0  0  0  0
    8.0567   -1.3140    0.0000 C   0  0  0  0  0  0  0  0  0  0  0  0
    3.4578   -7.9414    0.0000 F   0  0  0  0  0  0  0  0  0  0  0  0
   10.3273   -3.9765    0.0000 F   0  0  0  0  0  0  0  0  0  0  0  0
    1.1411   -5.3020    0.0000 C   0  0  0  0  0  0  0  0  0  0  0  0
   10.3619   -9.3015    0.0000 O   0  0  0  0  0  0  0  0  0  0  0  0
    3.4578   -3.9534    0.0000 C   0  0  0  0  0  0  0  0  0  0  0  0
    6.8926   -1.9710    0.0000 C   0  0  0  0  0  0  0  0  0  0  0  0
    2.3052   -3.2964    0.0000 C   0  0  0  0  0  0  0  0  0  0  0  0
    8.0567    0.0000    0.0000 F   0  0  0  0  0  0  0  0  0  0  0  0
    0.0000   -5.9705    0.0000 C   0  0  0  0  0  0  0  0  0  0  0  0
  1  3  1  0  0  0  0
  1  5  1  0  0  0  0
  1  8  1  0  0  0  0
  2  5  2  0  0  0  0
  2  6  1  0  0  0  0
  2 12  1  0  0  0  0
  3  4  2  0  0  0  0
  3 10  1  0  0  0  0
  4 11  1  0  0  0  0
  4  6  1  0  0  0  0
  6 18  2  0  0  0  0
  7  9  1  0  0  0  0
  7 17  1  0  0  0  0
  7 26  1  0  0  0  0
  8 14  1  0  0  0  0
  8 16  2  0  0  0  0
  9 10  2  0  0  0  0
  9 13  1  0  0  0  0
 11 13  2  0  0  0  0
 12 20  2  0  0  0  0
 12 25  1  0  0  0  0
 13 22  1  0  0  0  0
 14 15  2  0  0  0  0
 14 23  1  0  0  0  0
 15 21  1  0  0  0  0
 16 27  1  0  0  0  0
 17 24  1  0  0  0  0
 19 28  1  0  0  0  0
 19 24  1  0  0  0  0
 21 27  2  0  0  0  0
 21 29  1  0  0  0  0
 24 30  1  0  0  0  0
 26 28  1  0  0  0  0
M  END
> <ID>
9867

> <Formula>
C21H18F3N3O3

> <FW>
417.3811

> <DSSTox_CID>
24132

> <DSSTox_RID>
80107

> <DSSTox_GSID>
44132

> <DSSTox_FileID_Sort>
4789

> <TS_ChemName>
Temafloxacin

> <TS_ChemName_Synonyms>


> <TS_CASRN>
108319-06-8

> <CASRN_ChemName_Relationship>
primary

> <TS_Description>
single chemical compound

> <ChemNote>


> <STRUCTURE_Shown>
tested chemical

> <STRUCTURE_Formula>
C21H18F3N3O3

> <STRUCTURE_MW>
417.3811

> <STRUCTURE_ChemType>
defined organic

> <STRUCTURE_DefinedOrganicForm>
parent

> <STRUCTURE_IUPAC>
1-(2,4-difluorophenyl)-6-fluoro-7-(3-methylpiperazin-1-yl)-4-oxo-1,4-dihydroquinoline-3-carboxylic acid

> <STRUCTURE_SMILES>
Fc1ccc(c(F)c1)N2C=C(C(=O)O)C(=O)c3cc(F)c(cc23)N4CC(C)NCC4

> <STRUCTURE_SMILES_Desalt>
Fc1ccc(c(F)c1)N2C=C(C(=O)O)C(=O)c3cc(F)c(cc23)N4CC(C)NCC4

> <Substance_modify_yyyymmdd>
20090220

$$$$
