1083-27-8
ChemmineR-0915142007XD

 16 16  0  0  0  0  0  0  0  0  1 V2000
    4.6184   -1.3068    0.0000 C   0  0  0  0  0  0  0  0  0  0  0  0
    4.6184    0.0000    0.0000 O   0  0  0  0  0  0  0  0  0  0  0  0
    3.4638   -1.9793    0.0000 C   0  0  0  0  0  0  0  0  0  0  0  0
    5.7476   -1.9793    0.0000 O   0  0  0  0  0  0  0  0  0  0  0  0
    2.3346   -1.3068    0.0000 C   0  0  0  0  0  0  0  0  0  0  0  0
    3.4638   -3.2862    0.0000 C   0  0  0  0  0  0  0  0  0  0  0  0
    1.1546   -1.9793    0.0000 C   0  0  0  0  0  0  0  0  0  0  0  0
    2.3346   -3.9586    0.0000 C   0  0  0  0  0  0  0  0  0  0  0  0
    1.1546   -3.2862    0.0000 C   0  0  0  0  0  0  0  0  0  0  0  0
    0.0000   -3.9586    0.0000 O   0  0  0  0  0  0  0  0  0  0  0  0
    6.8895   -1.3068    0.0000 C   0  0  0  0  0  0  0  0  0  0  0  0
    8.0695   -1.9793    0.0000 C   0  0  0  0  0  0  0  0  0  0  0  0
    9.2241   -1.3068    0.0000 C   0  0  0  0  0  0  0  0  0  0  0  0
   10.3533   -1.9793    0.0000 C   0  0  0  0  0  0  0  0  0  0  0  0
   11.5333   -1.3068    0.0000 C   0  0  0  0  0  0  0  0  0  0  0  0
   12.6879   -1.9793    0.0000 C   0  0  0  0  0  0  0  0  0  0  0  0
  1  2  2  0  0  0  0
  1  3  1  0  0  0  0
  1  4  1  0  0  0  0
  3  5  2  0  0  0  0
  3  6  1  0  0  0  0
  4 11  1  0  0  0  0
  5  7  1  0  0  0  0
  6  8  2  0  0  0  0
  7  9  2  0  0  0  0
  8  9  1  0  0  0  0
  9 10  1  0  0  0  0
 11 12  1  0  0  0  0
 12 13  1  0  0  0  0
 13 14  1  0  0  0  0
 14 15  1  0  0  0  0
 15 16  1  0  0  0  0
M  END
> <ID>
10168

> <Formula>
C13H18O3

> <FW>
222.2802

> <DSSTox_CID>
24514

> <DSSTox_RID>
80282

> <DSSTox_GSID>
44514

> <DSSTox_FileID_Sort>
4964

> <TS_ChemName>
Hexylparaben

> <TS_ChemName_Synonyms>
Hexyl 4-hydroxybenzoate (Hexyl p-hydroxybenzoate)

> <TS_CASRN>
1083-27-8

> <CASRN_ChemName_Relationship>
primary

> <TS_Description>
single chemical compound

> <ChemNote>


> <STRUCTURE_Shown>
tested chemical

> <STRUCTURE_Formula>
C13H18O3

> <STRUCTURE_MW>
222.2802

> <STRUCTURE_ChemType>
defined organic

> <STRUCTURE_DefinedOrganicForm>
parent

> <STRUCTURE_IUPAC>
hexyl 4-hydroxybenzoate

> <STRUCTURE_SMILES>
Oc1ccc(cc1)C(=O)OCCCCCC

> <STRUCTURE_SMILES_Desalt>
Oc1ccc(cc1)C(=O)OCCCCCC

> <Substance_modify_yyyymmdd>
20091116

$$$$
