108419-33-6
ChemmineR-0915142007XD

 13 12  0  0  0  0  0  0  0  0  1 V2000
    1.1494   -1.3241    0.0000 C   0  0  0  0  0  0  0  0  0  0  0  0
    1.1494    0.0000    0.0000 O   0  0  0  0  0  0  0  0  0  0  0  0
    2.2988   -1.9954    0.0000 O   0  0  0  0  0  0  0  0  0  0  0  0
    0.0000   -1.9954    0.0000 C   0  0  0  0  0  0  0  0  0  0  0  0
    3.4574   -1.3241    0.0000 C   0  0  0  0  0  0  0  0  0  0  0  0
    4.5884   -1.9954    0.0000 C   0  0  0  0  0  0  0  0  0  0  0  0
    5.7379   -1.3241    0.0000 C   0  0  0  0  0  0  0  0  0  0  0  0
    6.8965   -1.9954    0.0000 C   0  0  0  0  0  0  0  0  0  0  0  0
    8.0459   -1.3241    0.0000 C   0  0  0  0  0  0  0  0  0  0  0  0
    6.8965   -3.3287    0.0000 C   0  0  0  0  0  0  0  0  0  0  0  0
    5.7379   -3.9816    0.0000 C   0  0  0  0  0  0  0  0  0  0  0  0
    5.7379    0.0000    0.0000 C   0  0  0  0  0  0  0  0  0  0  0  0
    9.1953   -1.9954    0.0000 C   0  0  0  0  0  0  0  0  0  0  0  0
  1  2  2  0  0  0  0
  1  3  1  0  0  0  0
  1  4  1  0  0  0  0
  3  5  1  0  0  0  0
  5  6  1  0  0  0  0
  6  7  1  0  0  0  0
  7  8  1  0  0  0  0
  7 12  1  0  0  0  0
  8  9  1  0  0  0  0
  8 10  1  0  0  0  0
  9 13  1  0  0  0  0
 10 11  1  0  0  0  0
M  END
> <ID>
6232

> <Formula>
C11H22O2

> <FW>
186.2912

> <DSSTox_CID>
9848

> <DSSTox_RID>
78824

> <DSSTox_GSID>
29848

> <DSSTox_FileID_Sort>
3506

> <TS_ChemName>
Acetic acid, C8-10-branched alkyl esters, C9-rich

> <TS_ChemName_Synonyms>


> <TS_CASRN>
108419-33-6

> <CASRN_ChemName_Relationship>
primary

> <TS_Description>
mixture or formulation

> <ChemNote>
mixture of alkyl acetates; structure shown C9, branched

> <STRUCTURE_Shown>
representative component

> <STRUCTURE_Formula>
C11H22O2

> <STRUCTURE_MW>
186.2912

> <STRUCTURE_ChemType>
defined organic

> <STRUCTURE_DefinedOrganicForm>
parent

> <STRUCTURE_IUPAC>
4-ethyl-3-methylhexyl acetate

> <STRUCTURE_SMILES>
O=C(C)OCCC(C)C(CC)CC

> <STRUCTURE_SMILES_Desalt>
O=C(C)OCCC(C)C(CC)CC

> <Substance_modify_yyyymmdd>
20080429

$$$$
