108612-45-9
ChemmineR-0915142007XD

 32 36  0  0  0  0  0  0  0  0  1 V2000
    4.6066   -3.9924    0.0000 N   0  0  0  0  0  0  0  0  0  0  0  0
    5.3677   -5.0739    0.0000 C   0  0  0  0  0  0  0  0  0  0  0  0
    4.6066   -6.1555    0.0000 N   0  0  0  0  0  0  0  0  0  0  0  0
    3.3515   -4.3929    0.0000 C   0  0  0  0  0  0  0  0  0  0  0  0
    3.3515   -5.7282    0.0000 C   0  0  0  0  0  0  0  0  0  0  0  0
    2.1764   -6.4092    0.0000 C   0  0  0  0  0  0  0  0  0  0  0  0
    1.0415   -5.7282    0.0000 C   0  0  0  0  0  0  0  0  0  0  0  0
    1.0415   -4.3929    0.0000 C   0  0  0  0  0  0  0  0  0  0  0  0
    2.1764   -3.7520    0.0000 C   0  0  0  0  0  0  0  0  0  0  0  0
    6.7029   -5.0739    0.0000 N   0  0  0  0  0  0  0  0  0  0  0  0
    7.3705   -3.9123    0.0000 C   0  0  0  0  0  0  0  0  0  0  0  0
    8.7058   -3.9123    0.0000 C   0  0  0  0  0  0  0  0  0  0  0  0
    9.3600   -5.0739    0.0000 C   0  0  0  0  0  0  0  0  0  0  0  0
    8.7058   -6.2222    0.0000 C   0  0  0  0  0  0  0  0  0  0  0  0
    7.3705   -6.2222    0.0000 C   0  0  0  0  0  0  0  0  0  0  0  0
   10.6953   -5.0739    0.0000 N   0  0  0  0  0  0  0  0  0  0  0  0
   11.3629   -6.2222    0.0000 C   0  0  0  0  0  0  0  0  0  0  0  0
   11.3629   -3.9123    0.0000 C   0  0  0  0  0  0  0  0  0  0  0  0
   12.6981   -3.9123    0.0000 N   0  0  0  0  0  0  0  0  0  0  0  0
   13.3524   -2.7639    0.0000 C   0  0  0  0  0  0  0  0  0  0  0  0
   12.6981   -1.6156    0.0000 C   0  0  0  0  0  0  0  0  0  0  0  0
   11.3629   -1.6156    0.0000 C   0  0  0  0  0  0  0  0  0  0  0  0
   10.6953   -2.7639    0.0000 N   0  0  0  0  0  0  0  0  0  0  0  0
   10.6953   -0.4673    0.0000 O   0  0  0  0  0  0  0  0  0  0  0  0
    4.6066   -2.6571    0.0000 C   0  0  0  0  0  0  0  0  0  0  0  0
    3.4449   -2.0029    0.0000 C   0  0  0  0  0  0  0  0  0  0  0  0
    2.2966   -2.6571    0.0000 C   0  0  0  0  0  0  0  0  0  0  0  0
    1.1483   -2.0029    0.0000 C   0  0  0  0  0  0  0  0  0  0  0  0
    1.1483   -0.6676    0.0000 C   0  0  0  0  0  0  0  0  0  0  0  0
    2.3100    0.0000    0.0000 C   0  0  0  0  0  0  0  0  0  0  0  0
    3.4449   -0.6676    0.0000 C   0  0  0  0  0  0  0  0  0  0  0  0
    0.0000    0.0000    0.0000 F   0  0  0  0  0  0  0  0  0  0  0  0
  1 25  1  0  0  0  0
  1  2  1  0  0  0  0
  1  4  1  0  0  0  0
  2 10  1  0  0  0  0
  2  3  2  0  0  0  0
  3  5  1  0  0  0  0
  4  5  2  0  0  0  0
  4  9  1  0  0  0  0
  5  6  1  0  0  0  0
  6  7  2  0  0  0  0
  7  8  1  0  0  0  0
  8  9  2  0  0  0  0
 10 11  1  0  0  0  0
 10 15  1  0  0  0  0
 11 12  1  0  0  0  0
 12 13  1  0  0  0  0
 13 14  1  0  0  0  0
 13 16  1  0  0  0  0
 14 15  1  0  0  0  0
 16 17  1  0  0  0  0
 16 18  1  0  0  0  0
 18 19  2  0  0  0  0
 18 23  1  0  0  0  0
 19 20  1  0  0  0  0
 20 21  2  0  0  0  0
 21 22  1  0  0  0  0
 22 23  1  0  0  0  0
 22 24  2  0  0  0  0
 25 26  1  0  0  0  0
 26 27  2  0  0  0  0
 26 31  1  0  0  0  0
 27 28  1  0  0  0  0
 28 29  2  0  0  0  0
 29 30  1  0  0  0  0
 29 32  1  0  0  0  0
 30 31  2  0  0  0  0
M  END
> <ID>
11980

> <Formula>
C24H25FN6O

> <FW>
432.4933

> <DSSTox_CID>
26801

> <DSSTox_RID>
81916

> <DSSTox_GSID>
46801

> <DSSTox_FileID_Sort>
6597

> <TS_ChemName>
Mizolastine

> <TS_ChemName_Synonyms>


> <TS_CASRN>
108612-45-9

> <CASRN_ChemName_Relationship>
primary

> <TS_Description>
single chemical compound

> <ChemNote>
tautomers

> <STRUCTURE_Shown>
tested chemical

> <STRUCTURE_Formula>
C24H25FN6O

> <STRUCTURE_MW>
432.4933

> <STRUCTURE_ChemType>
defined organic

> <STRUCTURE_DefinedOrganicForm>
parent

> <STRUCTURE_IUPAC>
2-[{1-[1-(4-fluorobenzyl)-1H-benzimidazol-2-yl]piperidin-4-yl}(methyl)amino]pyrimidin-4(3H)-one

> <STRUCTURE_SMILES>
O=C1C=CN=C(N1)N(C)C2CCN(CC2)c4nc5ccccc5n4Cc3ccc(F)cc3

> <STRUCTURE_SMILES_Desalt>
O=C1C=CN=C(N1)N(C)C2CCN(CC2)c4nc5ccccc5n4Cc3ccc(F)cc3

> <Substance_modify_yyyymmdd>
20110801

$$$$
