1088-11-5
ChemmineR-0915142007XD

 19 21  0  0  0  0  0  0  0  0  1 V2000
    3.4899   -3.0193    0.0000 C    0  0  0  0  0  0  0  0  0  0  0  0
    5.8504   -3.5683    0.0000 N    0  0  0  0  0  0  0  0  0  0  0  0
    4.5486   -3.8428    0.0000 C    0  0  0  0  0  0  0  0  0  0  0  0
    4.5486   -0.8705    0.0000 N    0  0  0  0  0  0  0  0  0  0  0  0
    3.4899   -1.6861    0.0000 C    0  0  0  0  0  0  0  0  0  0  0  0
    5.8504   -1.1372    0.0000 C    0  0  0  0  0  0  0  0  0  0  0  0
    2.3135   -3.6781    0.0000 C    0  0  0  0  0  0  0  0  0  0  0  0
    6.3994   -2.3919    0.0000 C    0  0  0  0  0  0  0  0  0  0  0  0
    4.5486   -5.1760    0.0000 C    0  0  0  0  0  0  0  0  0  0  0  0
    2.3135   -1.0117    0.0000 C    0  0  0  0  0  0  0  0  0  0  0  0
    6.4778    0.0000    0.0000 O    0  0  0  0  0  0  0  0  0  0  0  0
    1.1764   -3.0193    0.0000 C    0  0  0  0  0  0  0  0  0  0  0  0
    1.1764   -1.6861    0.0000 C    0  0  0  0  0  0  0  0  0  0  0  0
    0.0000   -3.6467    0.0000 Cl   0  0  0  0  0  0  0  0  0  0  0  0
    3.3722   -5.8504    0.0000 C    0  0  0  0  0  0  0  0  0  0  0  0
    5.6544   -5.8504    0.0000 C    0  0  0  0  0  0  0  0  0  0  0  0
    5.6544   -7.1837    0.0000 C    0  0  0  0  0  0  0  0  0  0  0  0
    3.3722   -7.1837    0.0000 C    0  0  0  0  0  0  0  0  0  0  0  0
    4.5486   -7.8424    0.0000 C    0  0  0  0  0  0  0  0  0  0  0  0
  1  3  1  0  0  0  0
  1  5  2  0  0  0  0
  1  7  1  0  0  0  0
  2  3  2  0  0  0  0
  2  8  1  0  0  0  0
  3  9  1  0  0  0  0
  4  5  1  0  0  0  0
  4  6  1  0  0  0  0
  5 10  1  0  0  0  0
  6 11  2  0  0  0  0
  6  8  1  0  0  0  0
  7 12  2  0  0  0  0
  9 15  1  0  0  0  0
  9 16  2  0  0  0  0
 10 13  2  0  0  0  0
 12 13  1  0  0  0  0
 12 14  1  0  0  0  0
 15 18  2  0  0  0  0
 16 17  1  0  0  0  0
 17 19  2  0  0  0  0
 18 19  1  0  0  0  0
M  END
> <ID>
13985

> <Formula>
C15H11ClN2O

> <FW>
270.7136

> <DSSTox_CID>
28926

> <DSSTox_RID>
83192

> <DSSTox_GSID>
49000

> <DSSTox_FileID_Sort>
7868

> <TS_ChemName>
Desmethyldiazepam

> <TS_ChemName_Synonyms>


> <TS_CASRN>
1088-11-5

> <CASRN_ChemName_Relationship>
primary

> <TS_Description>
single chemical compound

> <ChemNote>


> <STRUCTURE_Shown>
tested chemical

> <STRUCTURE_Formula>
C15H11ClN2O

> <STRUCTURE_MW>
270.7136

> <STRUCTURE_ChemType>
defined organic

> <STRUCTURE_DefinedOrganicForm>
parent

> <STRUCTURE_IUPAC>
7-chloro-5-phenyl-1,3-dihydro-2H-1,4-benzodiazepin-2-one

> <STRUCTURE_SMILES>
Clc1ccc2NC(=O)CN=C(c2c1)c3ccccc3

> <STRUCTURE_SMILES_Desalt>
Clc1ccc2NC(=O)CN=C(c2c1)c3ccccc3

> <Substance_modify_yyyymmdd>
20111204

$$$$
