108852-90-0
ChemmineR-0915142007XD

 46 51  0  0  1  0  0  0  0  0  1 V2000
    8.5581  -16.4579    0.0000 C   0  0  0  0  0  0  0  0  0  0  0  0
    9.5785  -15.6021    0.0000 O   0  0  0  0  0  0  0  0  0  0  0  0
    9.3481  -14.2855    0.0000 C   0  0  0  0  0  0  0  0  0  0  0  0
    9.8089  -13.0347    0.0000 C   0  0  0  0  0  0  0  0  0  0  0  0
    8.9696  -12.0143    0.0000 N   0  0  0  0  0  0  0  0  0  0  0  0
    7.6529  -12.2611    0.0000 C   0  0  0  0  0  0  0  0  0  0  0  0
    7.1921  -13.5119    0.0000 C   0  0  0  0  0  0  0  0  0  0  0  0
    8.0479  -14.5159    0.0000 O   0  0  0  0  0  0  0  0  0  0  0  0
    9.4139  -10.7635    0.0000 C   0  0  0  0  0  0  0  0  0  0  0  0
    8.1631  -10.3191    0.0000 C   0  0  0  0  0  0  0  0  0  0  0  0
    7.9327   -9.0025    0.0000 C   0  0  0  0  0  0  0  0  0  0  0  0
    8.9696   -8.1631    0.0000 O   0  0  0  0  0  0  0  0  0  0  0  0
   10.2204   -8.5910    0.0000 C   0  0  0  0  0  0  0  0  0  0  0  0
   11.5205   -8.3771    0.0000 C   0  0  0  0  0  0  0  0  0  0  0  0
   10.4343   -9.9077    0.0000 C   0  0  0  0  0  0  0  0  0  0  0  0
   11.7345   -9.6937    0.0000 O   0  0  0  0  0  0  0  0  0  0  0  0
    7.0769   -7.9821    0.0000 O   0  0  0  0  0  0  0  0  0  0  0  0
    5.7603   -7.9821    0.0000 C   0  0  0  0  0  0  0  0  0  0  0  0
    5.7603   -9.2987    0.0000 C   0  0  0  0  0  0  0  0  0  0  0  0
    4.6082   -9.9735    0.0000 C   0  0  0  0  0  0  0  0  0  0  0  0
    5.2830  -11.1256    0.0000 O   0  0  0  0  0  0  0  0  0  0  0  0
    3.4726   -9.2987    0.0000 C   0  0  0  0  0  0  0  0  0  0  0  0
    3.4726   -7.9821    0.0000 C   0  0  0  0  0  0  0  0  0  0  0  0
    2.3041   -7.3238    0.0000 C   0  0  0  0  0  0  0  0  0  0  0  0
    1.1521   -7.9821    0.0000 O   0  0  0  0  0  0  0  0  0  0  0  0
    2.3041   -6.0071    0.0000 C   0  0  0  0  0  0  0  0  0  0  0  0
    3.4726   -5.3324    0.0000 C   0  0  0  0  0  0  0  0  0  0  0  0
    4.6082   -6.0071    0.0000 C   0  0  0  0  0  0  0  0  0  0  0  0
    4.6082   -7.3238    0.0000 C   0  0  0  0  0  0  0  0  0  0  0  0
    5.7603   -5.3324    0.0000 O   0  0  0  0  0  0  0  0  0  0  0  0
    3.4726   -3.9993    0.0000 C   0  0  0  0  0  0  0  0  0  0  0  0
    4.6247   -3.3410    0.0000 O   0  0  0  0  0  0  0  0  0  0  0  0
    2.3041   -3.3410    0.0000 C   0  0  0  0  0  0  0  0  0  0  0  0
    2.3041   -2.0079    0.0000 C   0  0  0  0  0  0  0  0  0  0  0  0
    3.4726   -1.3331    0.0000 O   0  0  0  0  0  0  0  0  0  0  0  0
    3.4726    0.0000    0.0000 C   0  0  0  0  0  0  0  0  0  0  0  0
    1.1521   -1.3331    0.0000 C   0  0  0  0  0  0  0  0  0  0  0  0
    0.0000   -2.0079    0.0000 C   0  0  0  0  0  0  0  0  0  0  0  0
    0.0000   -3.3410    0.0000 C   0  0  0  0  0  0  0  0  0  0  0  0
    1.1521   -3.9993    0.0000 C   0  0  0  0  0  0  0  0  0  0  0  0
    1.1521   -5.3324    0.0000 C   0  0  0  0  0  0  0  0  0  0  0  0
    0.0000   -6.0071    0.0000 O   0  0  0  0  0  0  0  0  0  0  0  0
    3.9499  -11.1256    0.0000 C   0  0  0  0  0  0  0  0  0  0  0  0
    4.6082  -12.2941    0.0000 O   0  0  0  0  0  0  0  0  0  0  0  0
    2.6168  -11.1256    0.0000 C   0  0  0  0  0  0  0  0  0  0  0  0
    1.9420  -12.2941    0.0000 O   0  0  0  0  0  0  0  0  0  0  0  0
  1  2  1  0  0  0  0
  2  3  1  0  0  0  0
  3  4  1  0  0  0  0
  3  8  1  0  0  0  0
  4  5  1  0  0  0  0
  5  6  1  0  0  0  0
  5  9  1  0  0  0  0
  6  7  1  0  0  0  0
  7  8  1  0  0  0  0
  9 10  1  0  0  0  0
  9 15  1  0  0  0  0
 10 11  1  0  0  0  0
 11 12  1  0  0  0  0
 11 17  1  0  0  0  0
 12 13  1  0  0  0  0
 13 14  1  0  0  0  0
 13 15  1  0  0  0  0
 15 16  1  0  0  0  0
 17 18  1  0  0  0  0
 18 19  1  0  0  0  0
 18 29  1  0  0  0  0
 19 20  1  0  0  0  0
 20 21  1  1  0  0  0
 20 22  1  0  0  0  0
 20 43  1  0  0  0  0
 22 23  1  0  0  0  0
 23 24  2  0  0  0  0
 23 29  1  0  0  0  0
 24 25  1  0  0  0  0
 24 26  1  0  0  0  0
 26 27  2  0  0  0  0
 26 41  1  0  0  0  0
 27 28  1  0  0  0  0
 27 31  1  0  0  0  0
 28 29  2  0  0  0  0
 28 30  1  0  0  0  0
 31 32  2  0  0  0  0
 31 33  1  0  0  0  0
 33 34  2  0  0  0  0
 33 40  1  0  0  0  0
 34 35  1  0  0  0  0
 34 37  1  0  0  0  0
 35 36  1  0  0  0  0
 37 38  2  0  0  0  0
 38 39  1  0  0  0  0
 39 40  2  0  0  0  0
 40 41  1  0  0  0  0
 41 42  2  0  0  0  0
 43 44  2  0  0  0  0
 43 45  1  0  0  0  0
 45 46  1  0  0  0  0
M  END
> <ID>
16025

> <Formula>
C32H37NO13

> <FW>
643.6351

> <DSSTox_CID>
31408

> <DSSTox_RID>
97294

> <DSSTox_GSID>
57619

> <DSSTox_FileID_Sort>
8361

> <TS_ChemName>
Nemorubicin

> <TS_ChemName_Synonyms>


> <TS_CASRN>
108852-90-0

> <CASRN_ChemName_Relationship>
primary

> <TS_Description>
single chemical compound

> <ChemNote>


> <STRUCTURE_Shown>
tested chemical

> <STRUCTURE_Formula>
C32H37NO13

> <STRUCTURE_MW>
643.6351

> <STRUCTURE_ChemType>
defined organic

> <STRUCTURE_DefinedOrganicForm>
parent

> <STRUCTURE_IUPAC>
(3S)-3-glycoloyl-3,5,12-trihydroxy-10-methoxy-6,11-dioxo-1,2,3,4,6,11-hexahydrotetracen-1-yl 2,3,6-trideoxy-3-(2-methoxymorpholin-4-yl)hexopyranoside

> <STRUCTURE_SMILES>
COC1CN(CCO1)C6CC(OC5C[C@@](O)(Cc4c5c(O)c3C(=O)c2c(OC)cccc2C(=O)c3c4O)C(=O)CO)OC(C)C6O

> <STRUCTURE_SMILES_Desalt>
COC1CN(CCO1)C6CC(OC5C[C@@](O)(Cc4c5c(O)c3C(=O)c2c(OC)cccc2C(=O)c3c4O)C(=O)CO)OC(C)C6O

> <Substance_modify_yyyymmdd>
20131018

$$$$
