108929-04-0
ChemmineR-0915142007XD

 20 22  0  0  0  0  0  0  0  0  1 V2000
    0.0000   -3.5987    0.0000 C    0  0  0  0  0  0  0  0  0  0  0  0
    0.3067   -4.8930    0.0000 C    0  0  0  0  0  0  0  0  0  0  0  0
    1.5711   -5.2970    0.0000 C    0  0  0  0  0  0  0  0  0  0  0  0
    2.5363   -4.3842    0.0000 C    0  0  0  0  0  0  0  0  0  0  0  0
    2.2669   -3.0824    0.0000 C    0  0  0  0  0  0  0  0  0  0  0  0
    0.9801   -2.6934    0.0000 C    0  0  0  0  0  0  0  0  0  0  0  0
    5.2372   -3.0824    0.0000 C    0  0  0  0  0  0  0  0  0  0  0  0
    3.0824   -2.0350    0.0000 C    0  0  0  0  0  0  0  0  0  0  0  0
    4.3992   -2.0350    0.0000 N    0  0  0  0  0  0  0  0  0  0  0  0
    4.8331   -0.7706    0.0000 C    0  0  0  0  0  0  0  0  0  0  0  0
    3.7408    0.0000    0.0000 N    0  0  0  0  0  0  0  0  0  0  0  0
    2.6784   -0.7706    0.0000 C    0  0  0  0  0  0  0  0  0  0  0  0
    6.0826   -0.3816    0.0000 N    0  0  0  0  0  0  0  0  0  0  0  0
    4.9454   -4.3842    0.0000 C    0  0  0  0  0  0  0  0  0  0  0  0
    5.9255   -5.2970    0.0000 C    0  0  0  0  0  0  0  0  0  0  0  0
    7.1899   -4.8930    0.0000 C    0  0  0  0  0  0  0  0  0  0  0  0
    7.4817   -3.5987    0.0000 C    0  0  0  0  0  0  0  0  0  0  0  0
    6.5165   -2.6934    0.0000 C    0  0  0  0  0  0  0  0  0  0  0  0
    3.7408   -4.9603    0.0000 C    0  0  0  0  0  0  0  0  0  0  0  0
    7.4368   -1.5412    0.0000 Cl   0  0  0  0  0  0  0  0  0  0  0  0
  1  6  1  0  0  0  0
  1  2  2  0  0  0  0
  2  3  1  0  0  0  0
  3  4  2  0  0  0  0
  4  5  1  0  0  0  0
  4 19  1  0  0  0  0
  5  6  2  0  0  0  0
  5  8  1  0  0  0  0
  7 14  1  0  0  0  0
  7  9  1  0  0  0  0
  7 18  2  0  0  0  0
  8 12  1  0  0  0  0
  8  9  1  0  0  0  0
  9 10  1  0  0  0  0
 10 11  2  0  0  0  0
 10 13  1  0  0  0  0
 11 12  1  0  0  0  0
 14 15  2  0  0  0  0
 14 19  1  0  0  0  0
 15 16  1  0  0  0  0
 16 17  2  0  0  0  0
 17 18  1  0  0  0  0
M  END
> <ID>
11737

> <Formula>
C16H16ClN3

> <FW>
285.7713 (249.3104+36.4609)

> <DSSTox_CID>
26502

> <DSSTox_RID>
81671

> <DSSTox_GSID>
46502

> <DSSTox_FileID_Sort>
6352

> <TS_ChemName>
Epinastine hydrochloride

> <TS_ChemName_Synonyms>


> <TS_CASRN>
108929-04-0

> <CASRN_ChemName_Relationship>
primary

> <TS_Description>
single chemical compound

> <ChemNote>
tautomers; parent [80012-43-7]

> <STRUCTURE_Shown>
tested chemical

> <STRUCTURE_Formula>
C16H16ClN3

> <STRUCTURE_MW>
285.7713

> <STRUCTURE_ChemType>
defined organic

> <STRUCTURE_DefinedOrganicForm>
complex

> <STRUCTURE_IUPAC>
9,13b-dihydro-1H-dibenzo[c,f]imidazo[1,5-a]azepin-3-amine hydrochloride (1:1)

> <STRUCTURE_SMILES>
Cl.NC2=NCC3c4ccccc4Cc1ccccc1N23

> <STRUCTURE_SMILES_Desalt>
NC2=NCC3c4ccccc4Cc1ccccc1N23

> <Substance_modify_yyyymmdd>
20110812

$$$$
