109-42-2
ChemmineR-0915142007XD

 17 16  0  0  0  0  0  0  0  0  1 V2000
    5.7971   -1.3927    0.0000 C   0  0  0  0  0  0  0  0  0  0  0  0
    6.9634   -2.0194    0.0000 C   0  0  0  0  0  0  0  0  0  0  0  0
    8.1298   -1.3927    0.0000 C   0  0  0  0  0  0  0  0  0  0  0  0
    9.2788   -2.0194    0.0000 C   0  0  0  0  0  0  0  0  0  0  0  0
   10.4452   -1.3927    0.0000 C   0  0  0  0  0  0  0  0  0  0  0  0
   11.6115   -2.0194    0.0000 C   0  0  0  0  0  0  0  0  0  0  0  0
   12.7779   -1.3927    0.0000 C   0  0  0  0  0  0  0  0  0  0  0  0
   13.9269   -2.0716    0.0000 C   0  0  0  0  0  0  0  0  0  0  0  0
   15.0933   -1.3927    0.0000 C   0  0  0  0  0  0  0  0  0  0  0  0
   16.2596   -2.0716    0.0000 C   0  0  0  0  0  0  0  0  0  0  0  0
   17.4086   -1.3927    0.0000 C   0  0  0  0  0  0  0  0  0  0  0  0
    4.6307   -2.0194    0.0000 O   0  0  0  0  0  0  0  0  0  0  0  0
    5.7971    0.0000    0.0000 O   0  0  0  0  0  0  0  0  0  0  0  0
    3.4817   -1.3927    0.0000 C   0  0  0  0  0  0  0  0  0  0  0  0
    2.3153   -2.0194    0.0000 C   0  0  0  0  0  0  0  0  0  0  0  0
    1.1490   -1.3927    0.0000 C   0  0  0  0  0  0  0  0  0  0  0  0
    0.0000   -2.0194    0.0000 C   0  0  0  0  0  0  0  0  0  0  0  0
  1 12  1  0  0  0  0
  1  2  1  0  0  0  0
  1 13  2  0  0  0  0
  2  3  1  0  0  0  0
  3  4  1  0  0  0  0
  4  5  1  0  0  0  0
  5  6  1  0  0  0  0
  6  7  1  0  0  0  0
  7  8  1  0  0  0  0
  8  9  1  0  0  0  0
  9 10  1  0  0  0  0
 10 11  2  0  0  0  0
 12 14  1  0  0  0  0
 14 15  1  0  0  0  0
 15 16  1  0  0  0  0
 16 17  1  0  0  0  0
M  END
> <ID>
12746

> <Formula>
C15H28O2

> <FW>
240.3816

> <DSSTox_CID>
27624

> <DSSTox_RID>
82459

> <DSSTox_GSID>
47624

> <DSSTox_FileID_Sort>
7140

> <TS_ChemName>
Butyl undec-10-enoate

> <TS_ChemName_Synonyms>


> <TS_CASRN>
109-42-2

> <CASRN_ChemName_Relationship>
primary

> <TS_Description>
single chemical compound

> <ChemNote>


> <STRUCTURE_Shown>
tested chemical

> <STRUCTURE_Formula>
C15H28O2

> <STRUCTURE_MW>
240.3816

> <STRUCTURE_ChemType>
defined organic

> <STRUCTURE_DefinedOrganicForm>
parent

> <STRUCTURE_IUPAC>
butyl undec-10-enoate

> <STRUCTURE_SMILES>
O=C(CCCCCCCCC=C)OCCCC

> <STRUCTURE_SMILES_Desalt>
O=C(CCCCCCCCC=C)OCCCC

> <Substance_modify_yyyymmdd>
20101021

$$$$
