109-55-7
ChemmineR-0915142007XD

  7  6  0  0  0  0  0  0  0  0  1 V2000
    4.6110   -1.3314    0.0000 N   0  0  0  0  0  0  0  0  0  0  0  0
    3.4582   -1.9942    0.0000 C   0  0  0  0  0  0  0  0  0  0  0  0
    2.3055   -1.3314    0.0000 C   0  0  0  0  0  0  0  0  0  0  0  0
    1.1527   -1.9942    0.0000 C   0  0  0  0  0  0  0  0  0  0  0  0
    0.0000   -1.3314    0.0000 N   0  0  0  0  0  0  0  0  0  0  0  0
    4.6110    0.0000    0.0000 C   0  0  0  0  0  0  0  0  0  0  0  0
    5.7637   -1.9942    0.0000 C   0  0  0  0  0  0  0  0  0  0  0  0
  1  2  1  0  0  0  0
  1  6  1  0  0  0  0
  1  7  1  0  0  0  0
  2  3  1  0  0  0  0
  3  4  1  0  0  0  0
  4  5  1  0  0  0  0
M  END
> <ID>
4018

> <Formula>
C5H14N2

> <FW>
102.1781

> <DSSTox_CID>
5102

> <DSSTox_RID>
77667

> <DSSTox_GSID>
25102

> <DSSTox_FileID_Sort>
2350

> <TS_ChemName>
3-(Dimethylamino)propylamine

> <TS_ChemName_Synonyms>
3-(Dimethylamino)propylamine (1,3-Propanediamine, N,N-dimethyl-)

> <TS_CASRN>
109-55-7

> <CASRN_ChemName_Relationship>
primary

> <TS_Description>
single chemical compound

> <ChemNote>


> <STRUCTURE_Shown>
tested chemical

> <STRUCTURE_Formula>
C5H14N2

> <STRUCTURE_MW>
102.1781

> <STRUCTURE_ChemType>
defined organic

> <STRUCTURE_DefinedOrganicForm>
parent

> <STRUCTURE_IUPAC>
N,N-dimethylpropane-1,3-diamine

> <STRUCTURE_SMILES>
NCCCN(C)C

> <STRUCTURE_SMILES_Desalt>
NCCCN(C)C

> <Substance_modify_yyyymmdd>
20080429

$$$$
