109-99-9
ChemmineR-0915142007XD

  5  5  0  0  0  0  0  0  0  0  1 V2000
    1.0798    0.0000    0.0000 O   0  0  0  0  0  0  0  0  0  0  0  0
    0.0000   -0.7451    0.0000 C   0  0  0  0  0  0  0  0  0  0  0  0
    2.1597   -0.7451    0.0000 C   0  0  0  0  0  0  0  0  0  0  0  0
    0.4298   -2.0323    0.0000 C   0  0  0  0  0  0  0  0  0  0  0  0
    1.7472   -2.0323    0.0000 C   0  0  0  0  0  0  0  0  0  0  0  0
  1  2  1  0  0  0  0
  1  3  1  0  0  0  0
  2  4  1  0  0  0  0
  3  5  1  0  0  0  0
  4  5  1  0  0  0  0
M  END
> <ID>
1275

> <Formula>
C4H8O

> <FW>
72.1057

> <DSSTox_CID>
1328

> <DSSTox_RID>
76084

> <DSSTox_GSID>
21328

> <DSSTox_FileID_Sort>
768

> <TS_ChemName>
Tetrahydrofuran

> <TS_ChemName_Synonyms>


> <TS_CASRN>
109-99-9

> <CASRN_ChemName_Relationship>
primary

> <TS_Description>
single chemical compound

> <ChemNote>


> <STRUCTURE_Shown>
tested chemical

> <STRUCTURE_Formula>
C4H8O

> <STRUCTURE_MW>
72.1057

> <STRUCTURE_ChemType>
defined organic

> <STRUCTURE_DefinedOrganicForm>
parent

> <STRUCTURE_IUPAC>
tetrahydrofuran

> <STRUCTURE_SMILES>
C1CCCO1

> <STRUCTURE_SMILES_Desalt>
C1CCCO1

> <Substance_modify_yyyymmdd>
20080429

$$$$
