109-59-1
ChemmineR-0915142007XD

  7  6  0  0  0  0  0  0  0  0  1 V2000
    4.6052   -1.9942    0.0000 C   0  0  0  0  0  0  0  0  0  0  0  0
    3.4467   -1.3314    0.0000 C   0  0  0  0  0  0  0  0  0  0  0  0
    5.7637   -1.3314    0.0000 O   0  0  0  0  0  0  0  0  0  0  0  0
    2.3170   -1.9942    0.0000 O   0  0  0  0  0  0  0  0  0  0  0  0
    1.1585   -1.3314    0.0000 C   0  0  0  0  0  0  0  0  0  0  0  0
    1.1585    0.0000    0.0000 C   0  0  0  0  0  0  0  0  0  0  0  0
    0.0000   -1.9942    0.0000 C   0  0  0  0  0  0  0  0  0  0  0  0
  1  2  1  0  0  0  0
  1  3  1  0  0  0  0
  2  4  1  0  0  0  0
  4  5  1  0  0  0  0
  5  6  1  0  0  0  0
  5  7  1  0  0  0  0
M  END
> <ID>
12603

> <Formula>
C5H12O2

> <FW>
104.1476

> <DSSTox_CID>
27466

> <DSSTox_RID>
82366

> <DSSTox_GSID>
47466

> <DSSTox_FileID_Sort>
7047

> <TS_ChemName>
Ethanol, 2-(1-methylethoxy)-

> <TS_ChemName_Synonyms>


> <TS_CASRN>
109-59-1

> <CASRN_ChemName_Relationship>
primary

> <TS_Description>
single chemical compound

> <ChemNote>


> <STRUCTURE_Shown>
tested chemical

> <STRUCTURE_Formula>
C5H12O2

> <STRUCTURE_MW>
104.1476

> <STRUCTURE_ChemType>
defined organic

> <STRUCTURE_DefinedOrganicForm>
parent

> <STRUCTURE_IUPAC>
2-(propan-2-yloxy)ethanol

> <STRUCTURE_SMILES>
CC(C)OCCO

> <STRUCTURE_SMILES_Desalt>
CC(C)OCCO

> <Substance_modify_yyyymmdd>
20100621

$$$$
