109-86-4
ChemmineR-0915142007XD

  5  4  0  0  0  0  0  0  0  0  1 V2000
    3.9893   -2.3058    0.0000 C   0  0  0  0  0  0  0  0  0  0  0  0
    2.6609   -2.3058    0.0000 O   0  0  0  0  0  0  0  0  0  0  0  0
    1.9867   -1.1529    0.0000 C   0  0  0  0  0  0  0  0  0  0  0  0
    0.6582   -1.1529    0.0000 C   0  0  0  0  0  0  0  0  0  0  0  0
    0.0000    0.0000    0.0000 O   0  0  0  0  0  0  0  0  0  0  0  0
  1  2  1  0  0  0  0
  2  3  1  0  0  0  0
  3  4  1  0  0  0  0
  4  5  1  0  0  0  0
M  END
> <ID>
3549

> <Formula>
C3H8O2

> <FW>
76.0944

> <DSSTox_CID>
4182

> <DSSTox_RID>
77319

> <DSSTox_GSID>
24182

> <DSSTox_FileID_Sort>
2002

> <TS_ChemName>
2-Methoxyethanol

> <TS_ChemName_Synonyms>
2-Methoxyethanol (Ethylene glycol monomethyl ether) (EGMME) (Methyl cellosolve)

> <TS_CASRN>
109-86-4

> <CASRN_ChemName_Relationship>
primary

> <TS_Description>
single chemical compound

> <ChemNote>


> <STRUCTURE_Shown>
tested chemical

> <STRUCTURE_Formula>
C3H8O2

> <STRUCTURE_MW>
76.0944

> <STRUCTURE_ChemType>
defined organic

> <STRUCTURE_DefinedOrganicForm>
parent

> <STRUCTURE_IUPAC>
2-methoxyethanol

> <STRUCTURE_SMILES>
OCCOC

> <STRUCTURE_SMILES_Desalt>
OCCOC

> <Substance_modify_yyyymmdd>
20080429

$$$$
