109-52-4_1
ChemmineR-0915142007XD

 19 18  0  0  0  0  0  0  0  0  2 V2000
   10.1051   -6.4672    0.0000 C   0  0  0  0  0  0  0  0  0  0  0  0
    6.6491   -3.1528    0.0000 C   0  0  0  0  0  0  0  0  0  0  0  0
    8.9531   -5.8104    0.0000 C   0  0  0  0  0  0  0  0  0  0  0  0
    8.9531   -4.4765    0.0000 C   0  0  0  0  0  0  0  0  0  0  0  0
    9.1249   -0.1718    0.0000 C   0  0  0  0  0  0  0  0  0  0  0  0
    7.8011   -0.1718    0.0000 C   0  0  0  0  0  0  0  0  0  0  0  0
    9.7817   -1.3238    0.0000 C   0  0  0  0  0  0  0  0  0  0  0  0
    7.8011   -3.8096    0.0000 C   0  0  0  0  0  0  0  0  0  0  0  0
    7.1241   -1.3238    0.0000 C   0  0  0  0  0  0  0  0  0  0  0  0
    9.1249   -2.4757    0.0000 C   0  0  0  0  0  0  0  0  0  0  0  0
    7.8011   -2.4757    0.0000 N   0  3  0  0  0  0  0  0  0  0  0  0
    1.3339   -1.3238    0.0000 C   0  0  0  0  0  0  0  0  0  0  0  0
    0.0000   -1.3238    0.0000 F   0  0  0  0  0  0  0  0  0  0  0  0
    1.3339   -2.6576    0.0000 F   0  0  0  0  0  0  0  0  0  0  0  0
    1.3339    0.0000    0.0000 F   0  0  0  0  0  0  0  0  0  0  0  0
    2.6576   -2.6576    0.0000 O   0  5  0  0  0  0  0  0  0  0  0  0
    2.6576    0.0000    0.0000 O   0  0  0  0  0  0  0  0  0  0  0  0
    3.9915   -1.3238    0.0000 O   0  0  0  0  0  0  0  0  0  0  0  0
    2.6576   -1.3238    0.0000 S   0  0  0  0  0  0  0  0  0  0  0  0
  1  3  1  0  0  0  0
  2 11  1  0  0  0  0
  3  4  1  0  0  0  0
  4  8  1  0  0  0  0
  5  6  1  0  0  0  0
  5  7  1  0  0  0  0
  6  9  1  0  0  0  0
  7 10  1  0  0  0  0
  8 11  1  0  0  0  0
  9 11  1  0  0  0  0
 10 11  1  0  0  0  0
 12 13  1  0  0  0  0
 12 14  1  0  0  0  0
 12 15  1  0  0  0  0
 12 19  1  0  0  0  0
 16 19  1  0  0  0  0
 17 19  2  0  0  0  0
 18 19  2  0  0  0  0
M  END
> <ID>
14248

> <Formula>
C11H22F3NO3S

> <FW>
305.3575 (156.2878+149.0697)

> <DSSTox_CID>
29343

> <DSSTox_RID>
83459

> <DSSTox_GSID>
49384

> <DSSTox_FileID_Sort>
8134

> <TS_ChemName>
1-Butyl-1-methylpiperidinium trifluoromethanesulfonate

> <TS_ChemName_Synonyms>


> <TS_CASRN>
109-52-4_1

> <CASRN_ChemName_Relationship>
CAS for parent

> <TS_Description>
single chemical compound

> <ChemNote>
parent [109-52-4]

> <STRUCTURE_Shown>
tested chemical

> <STRUCTURE_Formula>
C11H22F3NO3S

> <STRUCTURE_MW>
305.3575

> <STRUCTURE_ChemType>
defined organic

> <STRUCTURE_DefinedOrganicForm>
complex

> <STRUCTURE_IUPAC>
1-butyl-1-methylpiperidinium trifluoromethanesulfonate

> <STRUCTURE_SMILES>
FC(F)(F)S([O-])(=O)=O.C[N+]1(CCCC)CCCCC1

> <STRUCTURE_SMILES_Desalt>
C[N+]1(CCCC)CCCCC1

> <Substance_modify_yyyymmdd>
20130911

$$$$
