109-31-9
ChemmineR-0915142007XD

 25 24  0  0  0  0  0  0  0  0  1 V2000
    8.0359   -1.3099    0.0000 C   0  0  0  0  0  0  0  0  0  0  0  0
   17.1801   -1.3099    0.0000 C   0  0  0  0  0  0  0  0  0  0  0  0
    8.0359    0.0000    0.0000 O   0  0  0  0  0  0  0  0  0  0  0  0
   17.1801    0.0000    0.0000 O   0  0  0  0  0  0  0  0  0  0  0  0
    6.8771   -1.9901    0.0000 O   0  0  0  0  0  0  0  0  0  0  0  0
   18.3389   -1.9901    0.0000 O   0  0  0  0  0  0  0  0  0  0  0  0
   16.0214   -1.9901    0.0000 C   0  0  0  0  0  0  0  0  0  0  0  0
    9.1695   -1.9901    0.0000 C   0  0  0  0  0  0  0  0  0  0  0  0
   10.3282   -1.3099    0.0000 C   0  0  0  0  0  0  0  0  0  0  0  0
   14.8878   -1.3099    0.0000 C   0  0  0  0  0  0  0  0  0  0  0  0
   13.7290   -1.9901    0.0000 C   0  0  0  0  0  0  0  0  0  0  0  0
   11.4618   -1.9901    0.0000 C   0  0  0  0  0  0  0  0  0  0  0  0
   12.5954   -1.3099    0.0000 C   0  0  0  0  0  0  0  0  0  0  0  0
    5.7183   -1.3099    0.0000 C   0  0  0  0  0  0  0  0  0  0  0  0
    4.5847   -1.9901    0.0000 C   0  0  0  0  0  0  0  0  0  0  0  0
    3.4260   -1.3099    0.0000 C   0  0  0  0  0  0  0  0  0  0  0  0
    2.2924   -1.9901    0.0000 C   0  0  0  0  0  0  0  0  0  0  0  0
    1.1336   -1.3099    0.0000 C   0  0  0  0  0  0  0  0  0  0  0  0
    0.0000   -1.9901    0.0000 C   0  0  0  0  0  0  0  0  0  0  0  0
   19.4725   -1.3099    0.0000 C   0  0  0  0  0  0  0  0  0  0  0  0
   20.6061   -1.9901    0.0000 C   0  0  0  0  0  0  0  0  0  0  0  0
   21.7649   -1.3099    0.0000 C   0  0  0  0  0  0  0  0  0  0  0  0
   22.8985   -1.9901    0.0000 C   0  0  0  0  0  0  0  0  0  0  0  0
   24.0572   -1.3099    0.0000 C   0  0  0  0  0  0  0  0  0  0  0  0
   25.1908   -1.9901    0.0000 C   0  0  0  0  0  0  0  0  0  0  0  0
  1  3  2  0  0  0  0
  1  5  1  0  0  0  0
  1  8  1  0  0  0  0
  2  7  1  0  0  0  0
  2  4  2  0  0  0  0
  2  6  1  0  0  0  0
  5 14  1  0  0  0  0
  6 20  1  0  0  0  0
  7 10  1  0  0  0  0
  8  9  1  0  0  0  0
  9 12  1  0  0  0  0
 10 11  1  0  0  0  0
 11 13  1  0  0  0  0
 12 13  1  0  0  0  0
 14 15  1  0  0  0  0
 15 16  1  0  0  0  0
 16 17  1  0  0  0  0
 17 18  1  0  0  0  0
 18 19  1  0  0  0  0
 20 21  1  0  0  0  0
 21 22  1  0  0  0  0
 22 23  1  0  0  0  0
 23 24  1  0  0  0  0
 24 25  1  0  0  0  0
M  END
> <ID>
12745

> <Formula>
C21H40O4

> <FW>
356.5399

> <DSSTox_CID>
27623

> <DSSTox_RID>
82458

> <DSSTox_GSID>
47623

> <DSSTox_FileID_Sort>
7139

> <TS_ChemName>
Dihexyl nonanedioate

> <TS_ChemName_Synonyms>


> <TS_CASRN>
109-31-9

> <CASRN_ChemName_Relationship>
primary

> <TS_Description>
single chemical compound

> <ChemNote>


> <STRUCTURE_Shown>
tested chemical

> <STRUCTURE_Formula>
C21H40O4

> <STRUCTURE_MW>
356.5399

> <STRUCTURE_ChemType>
defined organic

> <STRUCTURE_DefinedOrganicForm>
parent

> <STRUCTURE_IUPAC>
dihexyl nonanedioate

> <STRUCTURE_SMILES>
O=C(CCCCCCCC(=O)OCCCCCC)OCCCCCC

> <STRUCTURE_SMILES_Desalt>
O=C(CCCCCCCC(=O)OCCCCCC)OCCCCCC

> <Substance_modify_yyyymmdd>
20101021

$$$$
