109-95-5
ChemmineR-0915142007XD

  5  4  0  0  0  0  0  0  0  0  1 V2000
    4.6099   -0.6638    0.0000 C   0  0  0  0  0  0  0  0  0  0  0  0
    3.4575    0.0000    0.0000 C   0  0  0  0  0  0  0  0  0  0  0  0
    2.3050   -0.6638    0.0000 O   0  0  0  0  0  0  0  0  0  0  0  0
    1.1525    0.0000    0.0000 N   0  0  0  0  0  0  0  0  0  0  0  0
    0.0000   -0.6638    0.0000 O   0  0  0  0  0  0  0  0  0  0  0  0
  1  2  1  0  0  0  0
  2  3  1  0  0  0  0
  3  4  1  0  0  0  0
  4  5  2  0  0  0  0
M  END
> <ID>
11799

> <Formula>
C2H5NO2

> <FW>
75.0666

> <DSSTox_CID>
26574

> <DSSTox_RID>
81733

> <DSSTox_GSID>
46574

> <DSSTox_FileID_Sort>
6414

> <TS_ChemName>
Ethyl nitrite

> <TS_ChemName_Synonyms>


> <TS_CASRN>
109-95-5

> <CASRN_ChemName_Relationship>
primary

> <TS_Description>
single chemical compound

> <ChemNote>


> <STRUCTURE_Shown>
tested chemical

> <STRUCTURE_Formula>
C2H5NO2

> <STRUCTURE_MW>
75.0666

> <STRUCTURE_ChemType>
defined organic

> <STRUCTURE_DefinedOrganicForm>
parent

> <STRUCTURE_IUPAC>
ethyl nitrite

> <STRUCTURE_SMILES>
CCON=O

> <STRUCTURE_SMILES_Desalt>
CCON=O

> <Substance_modify_yyyymmdd>
20110810

$$$$
