109-79-5
ChemmineR-0915142007XD

  5  4  0  0  0  0  0  0  0  0  1 V2000
    1.1557    0.0000    0.0000 C   0  0  0  0  0  0  0  0  0  0  0  0
    2.3067   -0.6741    0.0000 C   0  0  0  0  0  0  0  0  0  0  0  0
    3.4486    0.0000    0.0000 C   0  0  0  0  0  0  0  0  0  0  0  0
    4.5859   -0.6741    0.0000 C   0  0  0  0  0  0  0  0  0  0  0  0
    0.0000   -0.6741    0.0000 S   0  0  0  0  0  0  0  0  0  0  0  0
  1  2  1  0  0  0  0
  1  5  1  0  0  0  0
  2  3  1  0  0  0  0
  3  4  1  0  0  0  0
M  END
> <ID>
4814

> <Formula>
C4H10S

> <FW>
90.1872

> <DSSTox_CID>
6824

> <DSSTox_RID>
78221

> <DSSTox_GSID>
26824

> <DSSTox_FileID_Sort>
2904

> <TS_ChemName>
1-Butanethiol

> <TS_ChemName_Synonyms>
Butyl mercaptan

> <TS_CASRN>
109-79-5

> <CASRN_ChemName_Relationship>
primary

> <TS_Description>
single chemical compound

> <ChemNote>


> <STRUCTURE_Shown>
tested chemical

> <STRUCTURE_Formula>
C4H10S

> <STRUCTURE_MW>
90.1872

> <STRUCTURE_ChemType>
defined organic

> <STRUCTURE_DefinedOrganicForm>
parent

> <STRUCTURE_IUPAC>
butane-1-thiol

> <STRUCTURE_SMILES>
CCCCS

> <STRUCTURE_SMILES_Desalt>
CCCCS

> <Substance_modify_yyyymmdd>
20080429

$$$$
