109-43-3
ChemmineR-0915142007XD

 22 21  0  0  0  0  0  0  0  0  1 V2000
   14.9067   -1.3076    0.0000 C   0  0  0  0  0  0  0  0  0  0  0  0
   16.0617   -1.9832    0.0000 C   0  0  0  0  0  0  0  0  0  0  0  0
   13.7734   -1.9832    0.0000 C   0  0  0  0  0  0  0  0  0  0  0  0
   17.1950   -1.3076    0.0000 O   0  0  0  0  0  0  0  0  0  0  0  0
   16.0617   -3.3126    0.0000 O   0  0  0  0  0  0  0  0  0  0  0  0
   12.6184   -1.3076    0.0000 C   0  0  0  0  0  0  0  0  0  0  0  0
   18.3500   -1.9832    0.0000 C   0  0  0  0  0  0  0  0  0  0  0  0
   11.4851   -1.9832    0.0000 C   0  0  0  0  0  0  0  0  0  0  0  0
   19.5051   -1.3076    0.0000 C   0  0  0  0  0  0  0  0  0  0  0  0
   10.3083   -1.3076    0.0000 C   0  0  0  0  0  0  0  0  0  0  0  0
   20.6601   -1.9832    0.0000 C   0  0  0  0  0  0  0  0  0  0  0  0
    9.1750   -1.9832    0.0000 C   0  0  0  0  0  0  0  0  0  0  0  0
   21.7934   -1.3076    0.0000 C   0  0  0  0  0  0  0  0  0  0  0  0
    8.0200   -1.3076    0.0000 C   0  0  0  0  0  0  0  0  0  0  0  0
    6.8867   -1.9832    0.0000 C   0  0  0  0  0  0  0  0  0  0  0  0
    5.7317   -1.3076    0.0000 C   0  0  0  0  0  0  0  0  0  0  0  0
    4.5984   -1.9832    0.0000 O   0  0  0  0  0  0  0  0  0  0  0  0
    5.7317    0.0000    0.0000 O   0  0  0  0  0  0  0  0  0  0  0  0
    3.4434   -1.3076    0.0000 C   0  0  0  0  0  0  0  0  0  0  0  0
    2.2883   -1.9832    0.0000 C   0  0  0  0  0  0  0  0  0  0  0  0
    1.1333   -1.3076    0.0000 C   0  0  0  0  0  0  0  0  0  0  0  0
    0.0000   -1.9832    0.0000 C   0  0  0  0  0  0  0  0  0  0  0  0
  1  2  1  0  0  0  0
  1  3  1  0  0  0  0
  2  4  1  0  0  0  0
  2  5  2  0  0  0  0
  3  6  1  0  0  0  0
  4  7  1  0  0  0  0
  6  8  1  0  0  0  0
  7  9  1  0  0  0  0
  8 10  1  0  0  0  0
  9 11  1  0  0  0  0
 10 12  1  0  0  0  0
 11 13  1  0  0  0  0
 12 14  1  0  0  0  0
 14 15  1  0  0  0  0
 15 16  1  0  0  0  0
 16 17  1  0  0  0  0
 16 18  2  0  0  0  0
 17 19  1  0  0  0  0
 19 20  1  0  0  0  0
 20 21  1  0  0  0  0
 21 22  1  0  0  0  0
M  END
> <ID>
8796

> <Formula>
C18H34O4

> <FW>
314.4602

> <DSSTox_CID>
21847

> <DSSTox_RID>
79856

> <DSSTox_GSID>
41847

> <DSSTox_FileID_Sort>
4538

> <TS_ChemName>
Dibutyl decanedioate

> <TS_ChemName_Synonyms>
Dibutyl decanedioate (Dibutyl sebacate)

> <TS_CASRN>
109-43-3

> <CASRN_ChemName_Relationship>
primary

> <TS_Description>
single chemical compound

> <ChemNote>


> <STRUCTURE_Shown>
tested chemical

> <STRUCTURE_Formula>
C18H34O4

> <STRUCTURE_MW>
314.4602

> <STRUCTURE_ChemType>
defined organic

> <STRUCTURE_DefinedOrganicForm>
parent

> <STRUCTURE_IUPAC>
dibutyl decanedioate

> <STRUCTURE_SMILES>
O=C(CCCCCCCCC(=O)OCCCC)OCCCC

> <STRUCTURE_SMILES_Desalt>
O=C(CCCCCCCCC(=O)OCCCC)OCCCC

> <Substance_modify_yyyymmdd>
20080825

$$$$
