109-57-9
ChemmineR-0915142007XD

  7  6  0  0  0  0  0  0  0  0  1 V2000
    5.7637   -1.9942    0.0000 N   0  0  0  0  0  0  0  0  0  0  0  0
    4.6110   -1.3314    0.0000 C   0  0  0  0  0  0  0  0  0  0  0  0
    4.6110    0.0000    0.0000 S   0  0  0  0  0  0  0  0  0  0  0  0
    3.4582   -1.9942    0.0000 N   0  0  0  0  0  0  0  0  0  0  0  0
    2.3055   -1.3314    0.0000 C   0  0  0  0  0  0  0  0  0  0  0  0
    1.1527   -1.9942    0.0000 C   0  0  0  0  0  0  0  0  0  0  0  0
    0.0000   -1.3314    0.0000 C   0  0  0  0  0  0  0  0  0  0  0  0
  1  2  1  0  0  0  0
  2  3  2  0  0  0  0
  2  4  1  0  0  0  0
  4  5  1  0  0  0  0
  5  6  1  0  0  0  0
  6  7  2  0  0  0  0
M  END
> <ID>
3678

> <Formula>
C4H8N2S

> <FW>
116.1847

> <DSSTox_CID>
4449

> <DSSTox_RID>
77401

> <DSSTox_GSID>
24449

> <DSSTox_FileID_Sort>
2084

> <TS_ChemName>
Allylthiourea

> <TS_ChemName_Synonyms>


> <TS_CASRN>
109-57-9

> <CASRN_ChemName_Relationship>
primary

> <TS_Description>
single chemical compound

> <ChemNote>


> <STRUCTURE_Shown>
tested chemical

> <STRUCTURE_Formula>
C4H8N2S

> <STRUCTURE_MW>
116.1847

> <STRUCTURE_ChemType>
defined organic

> <STRUCTURE_DefinedOrganicForm>
parent

> <STRUCTURE_IUPAC>
1-prop-2-en-1-ylthiourea

> <STRUCTURE_SMILES>
NC(=S)NCC=C

> <STRUCTURE_SMILES_Desalt>
NC(=S)NCC=C

> <Substance_modify_yyyymmdd>
20080429

$$$$
