1092351-67-1
ChemmineR-0915142007XD

 23 26  0  0  0  0  0  0  0  0  1 V2000
    1.1543   -5.3186    0.0000 N   0  0  0  0  0  0  0  0  0  0  0  0
    1.1543   -6.6540    0.0000 C   0  0  0  0  0  0  0  0  0  0  0  0
    0.0000   -7.3103    0.0000 N   0  0  0  0  0  0  0  0  0  0  0  0
    0.0000   -8.6343    0.0000 C   0  0  0  0  0  0  0  0  0  0  0  0
    1.1543   -9.3133    0.0000 N   0  0  0  0  0  0  0  0  0  0  0  0
    2.2972   -8.6343    0.0000 C   0  0  0  0  0  0  0  0  0  0  0  0
    2.2972   -7.3103    0.0000 C   0  0  0  0  0  0  0  0  0  0  0  0
    3.5533   -6.9029    0.0000 C   0  0  0  0  0  0  0  0  0  0  0  0
    3.9720   -5.6468    0.0000 C   0  0  0  0  0  0  0  0  0  0  0  0
    3.1912   -4.5718    0.0000 C   0  0  0  0  0  0  0  0  0  0  0  0
    3.9720   -3.4967    0.0000 C   0  0  0  0  0  0  0  0  0  0  0  0
    5.2394   -3.8928    0.0000 C   0  0  0  0  0  0  0  0  0  0  0  0
    6.2353   -3.0101    0.0000 C   0  0  0  0  0  0  0  0  0  0  0  0
    5.9410   -1.6974    0.0000 C   0  0  0  0  0  0  0  0  0  0  0  0
    4.6849   -1.3014    0.0000 C   0  0  0  0  0  0  0  0  0  0  0  0
    4.4133    0.0000    0.0000 O   0  0  0  0  0  0  0  0  0  0  0  0
    3.7004   -2.1840    0.0000 C   0  0  0  0  0  0  0  0  0  0  0  0
    5.2394   -5.2281    0.0000 N   0  0  0  0  0  0  0  0  0  0  0  0
    4.3454   -7.9780    0.0000 N   0  0  0  0  0  0  0  0  0  0  0  0
    3.5533   -9.0530    0.0000 N   0  0  0  0  0  0  0  0  0  0  0  0
    3.9720  -10.3204    0.0000 C   0  0  0  0  0  0  0  0  0  0  0  0
    3.0780  -11.3163    0.0000 C   0  0  0  0  0  0  0  0  0  0  0  0
    5.2734  -10.5920    0.0000 C   0  0  0  0  0  0  0  0  0  0  0  0
  1  2  1  0  0  0  0
  2  3  2  0  0  0  0
  2  7  1  0  0  0  0
  3  4  1  0  0  0  0
  4  5  2  0  0  0  0
  5  6  1  0  0  0  0
  6  7  2  0  0  0  0
  6 20  1  0  0  0  0
  7  8  1  0  0  0  0
  8  9  1  0  0  0  0
  8 19  2  0  0  0  0
  9 10  2  0  0  0  0
  9 18  1  0  0  0  0
 10 11  1  0  0  0  0
 11 12  2  0  0  0  0
 11 17  1  0  0  0  0
 12 13  1  0  0  0  0
 12 18  1  0  0  0  0
 13 14  2  0  0  0  0
 14 15  1  0  0  0  0
 15 16  1  0  0  0  0
 15 17  2  0  0  0  0
 19 20  1  0  0  0  0
 20 21  1  0  0  0  0
 21 22  1  0  0  0  0
 21 23  1  0  0  0  0
M  END
> <ID>
13678

> <Formula>
C16H16N6O

> <FW>
308.3378

> <DSSTox_CID>
28611

> <DSSTox_RID>
82881

> <DSSTox_GSID>
48685

> <DSSTox_FileID_Sort>
7558

> <TS_ChemName>
PP242

> <TS_ChemName_Synonyms>


> <TS_CASRN>
1092351-67-1

> <CASRN_ChemName_Relationship>
primary

> <TS_Description>
single chemical compound

> <ChemNote>


> <STRUCTURE_Shown>
tested chemical

> <STRUCTURE_Formula>
C16H16N6O

> <STRUCTURE_MW>
308.3378

> <STRUCTURE_ChemType>
defined organic

> <STRUCTURE_DefinedOrganicForm>
parent

> <STRUCTURE_IUPAC>
2-[4-amino-1-(propan-2-yl)-1H-pyrazolo[3,4-d]pyrimidin-3-yl]-1H-indol-5-ol

> <STRUCTURE_SMILES>
Oc1cc2cc(nc2cc1)c4nn(c3ncnc(N)c34)C(C)C

> <STRUCTURE_SMILES_Desalt>
Oc1cc2cc(nc2cc1)c4nn(c3ncnc(N)c34)C(C)C

> <Substance_modify_yyyymmdd>
20111204

$$$$
