109293-98-3
ChemmineR-0915142007XD

 25 25  0  0  0  0  0  0  0  0  2 V2000
    1.1528   -3.9905    0.0000 N    0  0  0  0  0  0  0  0  0  0  0  0
    0.0000   -3.3191    0.0000 C    0  0  0  0  0  0  0  0  0  0  0  0
    2.2930   -3.3191    0.0000 C    0  0  0  0  0  0  0  0  0  0  0  0
    2.2930   -1.9889    0.0000 C    0  0  0  0  0  0  0  0  0  0  0  0
    0.0000   -1.9889    0.0000 C    0  0  0  0  0  0  0  0  0  0  0  0
    1.1528   -1.3302    0.0000 C    0  0  0  0  0  0  0  0  0  0  0  0
    3.4458   -1.3302    0.0000 C    0  0  0  0  0  0  0  0  0  0  0  0
    3.4458    0.0000    0.0000 O    0  0  0  0  0  0  0  0  0  0  0  0
    4.5986   -1.9889    0.0000 O    0  5  0  0  0  0  0  0  0  0  0  0
    3.4458   -3.9905    0.0000 C    0  0  0  0  0  0  0  0  0  0  0  0
    3.4458   -5.3207    0.0000 C    0  0  0  0  0  0  0  0  0  0  0  0
    4.5986   -3.3191    0.0000 N    0  0  0  0  0  0  0  0  0  0  0  0
    5.7514   -3.9905    0.0000 N    0  0  0  0  0  0  0  0  0  0  0  0
    6.9169   -3.3191    0.0000 C    0  0  0  0  0  0  0  0  0  0  0  0
    6.9169   -1.9889    0.0000 O    0  0  0  0  0  0  0  0  0  0  0  0
    8.0697   -3.9905    0.0000 N    0  0  0  0  0  0  0  0  0  0  0  0
    9.2225   -3.3191    0.0000 C    0  0  0  0  0  0  0  0  0  0  0  0
    9.2225   -1.9889    0.0000 C    0  0  0  0  0  0  0  0  0  0  0  0
   10.3753   -3.9905    0.0000 C    0  0  0  0  0  0  0  0  0  0  0  0
   10.3753   -1.3302    0.0000 C    0  0  0  0  0  0  0  0  0  0  0  0
   11.5155   -3.3191    0.0000 C    0  0  0  0  0  0  0  0  0  0  0  0
   11.5155   -1.9889    0.0000 C    0  0  0  0  0  0  0  0  0  0  0  0
   10.3753    0.0000    0.0000 F    0  0  0  0  0  0  0  0  0  0  0  0
   12.6683   -3.9905    0.0000 F    0  0  0  0  0  0  0  0  0  0  0  0
    6.1061   -0.1394    0.0000 Na   0  3  0  0  0  0  0  0  0  0  0  0
  1  2  1  0  0  0  0
  1  3  2  0  0  0  0
  2  5  2  0  0  0  0
  3  4  1  0  0  0  0
  3 10  1  0  0  0  0
  4  6  2  0  0  0  0
  4  7  1  0  0  0  0
  5  6  1  0  0  0  0
  7  8  2  0  0  0  0
  7  9  1  0  0  0  0
 10 11  1  0  0  0  0
 10 12  2  0  0  0  0
 12 13  1  0  0  0  0
 13 14  1  0  0  0  0
 14 15  2  0  0  0  0
 14 16  1  0  0  0  0
 16 17  1  0  0  0  0
 17 18  2  0  0  0  0
 17 19  1  0  0  0  0
 18 20  1  0  0  0  0
 19 21  2  0  0  0  0
 20 22  2  0  0  0  0
 20 23  1  0  0  0  0
 21 22  1  0  0  0  0
 21 24  1  0  0  0  0
M  END
> <ID>
6439

> <Formula>
C15H11F2N4NaO3

> <FW>
356.2594 (333.2702+22.9892)

> <DSSTox_CID>
12375

> <DSSTox_RID>
78929

> <DSSTox_GSID>
32375

> <DSSTox_FileID_Sort>
3611

> <TS_ChemName>
Diflufenzopyr-sodium

> <TS_ChemName_Synonyms>
Diflufenzopyr-sodium (3-Pyridinecarboxylic acid, 2-{1-{{{(3,5-difluorophenyl)amino}carbonyl}hydrozono}ethyl}-, monosodium salt)

> <TS_CASRN>
109293-98-3

> <CASRN_ChemName_Relationship>
primary

> <TS_Description>
single chemical compound

> <ChemNote>
parent [109293-97-2]

> <STRUCTURE_Shown>
tested chemical

> <STRUCTURE_Formula>
C15H11F2N4NaO3

> <STRUCTURE_MW>
356.2594

> <STRUCTURE_ChemType>
defined organic

> <STRUCTURE_DefinedOrganicForm>
salt

> <STRUCTURE_IUPAC>
sodium 2-[(1E)-1-{2-[(3,5-difluorophenyl)carbamoyl]hydrazinylidene}ethyl]pyridine-3-carboxylate

> <STRUCTURE_SMILES>
[Na+].Fc1cc(cc(F)c1)NC(=O)N\N=C(/C)c2ncccc2C([O-])=O

> <STRUCTURE_SMILES_Desalt>
Fc1cc(cc(F)c1)NC(=O)N\N=C(/C)c2ncccc2C(=O)O

> <Substance_modify_yyyymmdd>
20080429

$$$$
