1093-58-9
ChemmineR-0915142007XD

 25 28  0  0  1  0  0  0  0  0  1 V2000
    3.5018   -3.7099    0.0000 C    0  0  0  0  0  0  0  0  0  0  0  0
    3.5018   -5.0582    0.0000 C    0  0  0  0  0  0  0  0  0  0  0  0
    6.9855   -1.6830    0.0000 C    0  0  0  0  0  0  0  0  0  0  0  0
    2.3345   -5.7187    0.0000 C    0  0  0  0  0  0  0  0  0  0  0  0
    4.6419   -3.0494    0.0000 C    0  0  0  0  0  0  0  0  0  0  0  0
    6.9855   -3.0494    0.0000 C    0  0  0  0  0  0  0  0  0  0  0  0
    5.8092   -3.7099    0.0000 C    0  0  0  0  0  0  0  0  0  0  0  0
    4.6419   -5.7187    0.0000 C    0  0  0  0  0  0  0  0  0  0  0  0
    1.1492   -5.0582    0.0000 C    0  0  0  0  0  0  0  0  0  0  0  0
    5.8092   -1.0225    0.0000 C    0  0  0  0  0  0  0  0  0  0  0  0
    2.3345   -3.0494    0.0000 C    0  0  0  0  0  0  0  0  0  0  0  0
    4.6419   -1.6830    0.0000 C    0  0  0  0  0  0  0  0  0  0  0  0
    5.8092   -5.0582    0.0000 C    0  0  0  0  0  0  0  0  0  0  0  0
    8.2885   -3.4656    0.0000 C    0  0  0  0  0  0  0  0  0  0  0  0
    8.2885   -1.2759    0.0000 C    0  0  0  0  0  0  0  0  0  0  0  0
    1.1492   -3.7099    0.0000 C    0  0  0  0  0  0  0  0  0  0  0  0
    9.0486   -2.3436    0.0000 C    0  0  0  0  0  0  0  0  0  0  0  0
    0.0000   -5.7187    0.0000 O    0  0  0  0  0  0  0  0  0  0  0  0
    2.3345   -7.0669    0.0000 Cl   0  0  0  0  0  0  0  0  0  0  0  0
    3.5018   -2.5788    0.0000 C    0  0  0  0  0  0  0  0  0  0  0  0
    6.9855   -0.5158    0.0000 C    0  0  0  0  0  0  0  0  0  0  0  0
    8.7228    0.0000    0.0000 O    0  0  0  0  0  0  0  0  0  0  0  0
    5.8092   -2.3798    0.0000 H    0  0  0  0  0  0  0  0  0  0  0  0
    4.6419   -4.3795    0.0000 H    0  0  0  0  0  0  0  0  0  0  0  0
    6.9855   -4.3795    0.0000 H    0  0  0  0  0  0  0  0  0  0  0  0
  1  2  1  0  0  0  0
  1  5  1  0  0  0  0
  1 11  1  0  0  0  0
  1 20  1  1  0  0  0
  2  4  2  0  0  0  0
  2  8  1  0  0  0  0
  3 10  1  0  0  0  0
  3 15  1  0  0  0  0
  3 21  1  1  0  0  0
  3  6  1  0  0  0  0
  4 19  1  0  0  0  0
  4  9  1  0  0  0  0
  5  7  1  0  0  0  0
  5 12  1  0  0  0  0
  5 24  1  6  0  0  0
  6  7  1  0  0  0  0
  6 14  1  0  0  0  0
  6 25  1  6  0  0  0
  7 13  1  0  0  0  0
  7 23  1  1  0  0  0
  8 13  1  0  0  0  0
  9 16  1  0  0  0  0
  9 18  2  0  0  0  0
 10 12  1  0  0  0  0
 11 16  1  0  0  0  0
 14 17  1  0  0  0  0
 15 22  1  1  0  0  0
 15 17  1  0  0  0  0
M  END
> <ID>
11490

> <Formula>
C19H27ClO2

> <FW>
322.8695

> <DSSTox_CID>
26192

> <DSSTox_RID>
81423

> <DSSTox_GSID>
46192

> <DSSTox_FileID_Sort>
6104

> <TS_ChemName>
Clostebol

> <TS_ChemName_Synonyms>


> <TS_CASRN>
1093-58-9

> <CASRN_ChemName_Relationship>
primary

> <TS_Description>
single chemical compound

> <ChemNote>
stereochem

> <STRUCTURE_Shown>
tested chemical

> <STRUCTURE_Formula>
C19H27ClO2

> <STRUCTURE_MW>
322.8695

> <STRUCTURE_ChemType>
defined organic

> <STRUCTURE_DefinedOrganicForm>
parent

> <STRUCTURE_IUPAC>
(17beta)-4-chloro-17-hydroxyandrost-4-en-3-one

> <STRUCTURE_SMILES>
ClC=4C(=O)CC[C@@]3(C)C=4CC[C@@H]1[C@@H]3CC[C@]2(C)[C@@H](O)CC[C@@H]12

> <STRUCTURE_SMILES_Desalt>
ClC=4C(=O)CC[C@@]3(C)C=4CC[C@@H]1[C@@H]3CC[C@]2(C)[C@@H](O)CC[C@@H]12

> <Substance_modify_yyyymmdd>
20110818

$$$$
