1094-08-2
ChemmineR-0915142007XD

 23 24  0  0  0  0  0  0  0  0  1 V2000
    3.4581   -5.3180    0.0000 N    0  0  0  0  0  0  0  0  0  0  0  0
    3.4581   -7.9817    0.0000 S    0  0  0  0  0  0  0  0  0  0  0  0
    4.6171   -6.0003    0.0000 C    0  0  0  0  0  0  0  0  0  0  0  0
    2.3085   -6.0003    0.0000 C    0  0  0  0  0  0  0  0  0  0  0  0
    3.4581   -3.9909    0.0000 C    0  0  0  0  0  0  0  0  0  0  0  0
    2.3085   -7.3088    0.0000 C    0  0  0  0  0  0  0  0  0  0  0  0
    4.6171   -7.3088    0.0000 C    0  0  0  0  0  0  0  0  0  0  0  0
    2.3085   -3.3179    0.0000 C    0  0  0  0  0  0  0  0  0  0  0  0
    2.3085   -1.9908    0.0000 N    0  0  0  0  0  0  0  0  0  0  0  0
    1.1496   -5.3180    0.0000 C    0  0  0  0  0  0  0  0  0  0  0  0
    5.7573   -5.3180    0.0000 C    0  0  0  0  0  0  0  0  0  0  0  0
    1.1496   -7.9817    0.0000 C    0  0  0  0  0  0  0  0  0  0  0  0
    5.7573   -7.9817    0.0000 C    0  0  0  0  0  0  0  0  0  0  0  0
    3.4581   -1.3178    0.0000 C    0  0  0  0  0  0  0  0  0  0  0  0
    1.1496   -1.3178    0.0000 C    0  0  0  0  0  0  0  0  0  0  0  0
    1.1496   -3.9909    0.0000 C    0  0  0  0  0  0  0  0  0  0  0  0
    4.6171   -1.9908    0.0000 C    0  0  0  0  0  0  0  0  0  0  0  0
    1.1496    0.0000    0.0000 C    0  0  0  0  0  0  0  0  0  0  0  0
    0.0000   -6.0003    0.0000 C    0  0  0  0  0  0  0  0  0  0  0  0
    6.9069   -6.0003    0.0000 C    0  0  0  0  0  0  0  0  0  0  0  0
    0.0000   -7.3088    0.0000 C    0  0  0  0  0  0  0  0  0  0  0  0
    6.9069   -7.3088    0.0000 C    0  0  0  0  0  0  0  0  0  0  0  0
    2.4394   -9.3463    0.0000 Cl   0  0  0  0  0  0  0  0  0  0  0  0
  1  3  1  0  0  0  0
  1  4  1  0  0  0  0
  1  5  1  0  0  0  0
  2  6  1  0  0  0  0
  2  7  1  0  0  0  0
  3  7  2  0  0  0  0
  3 11  1  0  0  0  0
  4  6  2  0  0  0  0
  4 10  1  0  0  0  0
  5  8  1  0  0  0  0
  6 12  1  0  0  0  0
  7 13  1  0  0  0  0
  8  9  1  0  0  0  0
  8 16  1  0  0  0  0
  9 14  1  0  0  0  0
  9 15  1  0  0  0  0
 10 19  2  0  0  0  0
 11 20  2  0  0  0  0
 12 21  2  0  0  0  0
 13 22  2  0  0  0  0
 14 17  1  0  0  0  0
 15 18  1  0  0  0  0
 19 21  1  0  0  0  0
 20 22  1  0  0  0  0
M  END
> <ID>
10885

> <Formula>
C19H25ClN2S

> <FW>
348.9332 (312.4723+36.4609)

> <DSSTox_CID>
25347

> <DSSTox_RID>
80815

> <DSSTox_GSID>
45347

> <DSSTox_FileID_Sort>
5496

> <TS_ChemName>
Ethopropazine hydrochloride

> <TS_ChemName_Synonyms>


> <TS_CASRN>
1094-08-2

> <CASRN_ChemName_Relationship>
primary

> <TS_Description>
single chemical compound

> <ChemNote>
parent [522-00-9]

> <STRUCTURE_Shown>
tested chemical

> <STRUCTURE_Formula>
C19H25ClN2S

> <STRUCTURE_MW>
348.9332

> <STRUCTURE_ChemType>
defined organic

> <STRUCTURE_DefinedOrganicForm>
complex

> <STRUCTURE_IUPAC>
N,N-diethyl-1-(10H-phenothiazin-10-yl)propan-2-amine hydrochloride (1:1)

> <STRUCTURE_SMILES>
Cl.CCN(CC)C(C)CN1c3ccccc3Sc2ccccc12

> <STRUCTURE_SMILES_Desalt>
CCN(CC)C(C)CN1c3ccccc3Sc2ccccc12

> <Substance_modify_yyyymmdd>
20100107

$$$$
