109543-76-2
ChemmineR-0915142007XD

 21 22  0  0  0  0  0  0  0  0  1 V2000
    9.7622   -0.3149    0.0000 C    0  0  0  0  0  0  0  0  0  0  0  0
    9.1193   -1.4565    0.0000 C    0  0  0  0  0  0  0  0  0  0  0  0
    9.7622   -2.5980    0.0000 C    0  0  0  0  0  0  0  0  0  0  0  0
   11.1006   -2.5980    0.0000 C    0  0  0  0  0  0  0  0  0  0  0  0
   11.7829   -1.4565    0.0000 C    0  0  0  0  0  0  0  0  0  0  0  0
   11.1006   -0.3149    0.0000 C    0  0  0  0  0  0  0  0  0  0  0  0
    0.0000   -3.0441    0.0000 O    0  0  0  0  0  0  0  0  0  0  0  0
    1.1415   -3.7264    0.0000 C    0  0  0  0  0  0  0  0  0  0  0  0
    2.3093   -3.0441    0.0000 C    0  0  0  0  0  0  0  0  0  0  0  0
    2.9654   -4.2250    0.0000 C    0  0  0  0  0  0  0  0  0  0  0  0
    1.6270   -1.9026    0.0000 C    0  0  0  0  0  0  0  0  0  0  0  0
    1.1415   -5.0648    0.0000 O    0  0  0  0  0  0  0  0  0  0  0  0
    3.4509   -2.3881    0.0000 O    0  0  0  0  0  0  0  0  0  0  0  0
    4.6580   -2.8867    0.0000 C    0  0  0  0  0  0  0  0  0  0  0  0
    5.7209   -2.1256    0.0000 C    0  0  0  0  0  0  0  0  0  0  0  0
    7.0067   -2.5324    0.0000 O    0  0  0  0  0  0  0  0  0  0  0  0
    7.7809   -1.4565    0.0000 C    0  0  0  0  0  0  0  0  0  0  0  0
    7.0067   -0.3936    0.0000 N    0  0  0  0  0  0  0  0  0  0  0  0
    5.7209   -0.7873    0.0000 C    0  0  0  0  0  0  0  0  0  0  0  0
    4.6580    0.0000    0.0000 C    0  0  0  0  0  0  0  0  0  0  0  0
   13.1212   -1.4565    0.0000 Cl   0  0  0  0  0  0  0  0  0  0  0  0
  1  6  1  0  0  0  0
  1  2  2  0  0  0  0
  2  3  1  0  0  0  0
  2 17  1  0  0  0  0
  3  4  2  0  0  0  0
  4  5  1  0  0  0  0
  5  6  2  0  0  0  0
  5 21  1  0  0  0  0
  7  8  1  0  0  0  0
  8 12  2  0  0  0  0
  8  9  1  0  0  0  0
  9 13  1  0  0  0  0
  9 10  1  0  0  0  0
  9 11  1  0  0  0  0
 13 14  1  0  0  0  0
 14 15  1  0  0  0  0
 15 19  2  0  0  0  0
 15 16  1  0  0  0  0
 16 17  1  0  0  0  0
 17 18  2  0  0  0  0
 18 19  1  0  0  0  0
 19 20  1  0  0  0  0
M  END
> <ID>
11511

> <Formula>
C15H16ClNO4

> <FW>
309.7448

> <DSSTox_CID>
26216

> <DSSTox_RID>
81444

> <DSSTox_GSID>
46216

> <DSSTox_FileID_Sort>
6125

> <TS_ChemName>
Romazarit

> <TS_ChemName_Synonyms>


> <TS_CASRN>
109543-76-2

> <CASRN_ChemName_Relationship>
primary

> <TS_Description>
single chemical compound

> <ChemNote>


> <STRUCTURE_Shown>
tested chemical

> <STRUCTURE_Formula>
C15H16ClNO4

> <STRUCTURE_MW>
309.7448

> <STRUCTURE_ChemType>
defined organic

> <STRUCTURE_DefinedOrganicForm>
parent

> <STRUCTURE_IUPAC>
2-{[2-(4-chlorophenyl)-4-methyl-1,3-oxazol-5-yl]methoxy}-2-methylpropanoic acid

> <STRUCTURE_SMILES>
O=C(O)C(C)(C)OCc1oc(nc1C)c2ccc(Cl)cc2

> <STRUCTURE_SMILES_Desalt>
O=C(O)C(C)(C)OCc1oc(nc1C)c2ccc(Cl)cc2

> <Substance_modify_yyyymmdd>
20110819

$$$$
