109732-56-1
ChemmineR-0915142007XD

 19 19  0  0  0  0  0  0  0  0  2 V2000
    3.4540   -2.6613    0.0000 O   0  0  0  0  0  0  0  0  0  0  0  0
    4.6092   -1.9932    0.0000 C   0  0  0  0  0  0  0  0  0  0  0  0
    5.7530   -2.6500    0.0000 C   0  0  0  0  0  0  0  0  0  0  0  0
    7.5649   -3.1370    0.0000 C   0  0  0  0  0  0  0  0  0  0  0  0
    6.2286   -0.8380    0.0000 C   0  0  0  0  0  0  0  0  0  0  0  0
    6.9081   -1.9932    0.0000 N   0  3  0  0  0  0  0  0  0  0  0  0
   10.4301   -1.4609    0.0000 S   0  0  0  0  0  0  0  0  0  0  0  0
   11.3247   -2.4461    0.0000 C   0  0  0  0  0  0  0  0  0  0  0  0
   10.6453   -3.6013    0.0000 C   0  0  0  0  0  0  0  0  0  0  0  0
    9.3542   -3.3295    0.0000 C   0  0  0  0  0  0  0  0  0  0  0  0
    9.2183   -1.9932    0.0000 C   0  0  0  0  0  0  0  0  0  0  0  0
    8.0632   -1.3363    0.0000 C   0  0  0  0  0  0  0  0  0  0  0  0
    2.2989   -1.9932    0.0000 C   0  0  0  0  0  0  0  0  0  0  0  0
    1.1438   -2.6613    0.0000 C   0  0  0  0  0  0  0  0  0  0  0  0
    2.2989   -0.6568    0.0000 C   0  0  0  0  0  0  0  0  0  0  0  0
    0.0000   -1.9932    0.0000 C   0  0  0  0  0  0  0  0  0  0  0  0
    1.1438    0.0000    0.0000 C   0  0  0  0  0  0  0  0  0  0  0  0
    0.0000   -0.6568    0.0000 C   0  0  0  0  0  0  0  0  0  0  0  0
    5.4132   -3.8391    0.0000 I   0  5  0  0  0  0  0  0  0  0  0  0
  1  2  1  0  0  0  0
  1 13  1  0  0  0  0
  2  3  1  0  0  0  0
  3  6  1  0  0  0  0
  4  6  1  0  0  0  0
  5  6  1  0  0  0  0
  6 12  1  0  0  0  0
  7  8  1  0  0  0  0
  7 11  1  0  0  0  0
  8  9  2  0  0  0  0
  9 10  1  0  0  0  0
 10 11  2  0  0  0  0
 11 12  1  0  0  0  0
 13 14  1  0  0  0  0
 13 15  2  0  0  0  0
 14 16  2  0  0  0  0
 15 17  1  0  0  0  0
 16 18  1  0  0  0  0
 17 18  2  0  0  0  0
M  END
> <ID>
14039

> <Formula>
C15H20INOS

> <FW>
389.2949 (262.3899+126.9050)

> <DSSTox_CID>
28981

> <DSSTox_RID>
83246

> <DSSTox_GSID>
49055

> <DSSTox_FileID_Sort>
7921

> <TS_ChemName>
Dimethyl(2-phenoxyethyl)-2-thenylammonium iodide

> <TS_ChemName_Synonyms>


> <TS_CASRN>
109732-56-1

> <CASRN_ChemName_Relationship>
primary

> <TS_Description>
single chemical compound

> <ChemNote>


> <STRUCTURE_Shown>
tested chemical

> <STRUCTURE_Formula>
C15H20INOS

> <STRUCTURE_MW>
389.2949

> <STRUCTURE_ChemType>
defined organic

> <STRUCTURE_DefinedOrganicForm>
salt

> <STRUCTURE_IUPAC>
N,N-dimethyl-2-phenoxy-N-(thiophen-2-ylmethyl)ethanaminium iodide

> <STRUCTURE_SMILES>
[I-].C[N+](C)(Cc1cccs1)CCOc2ccccc2

> <STRUCTURE_SMILES_Desalt>
C[N+](C)(Cc1cccs1)CCOc2ccccc2

> <Substance_modify_yyyymmdd>
20111204

$$$$
