109826-26-8
ChemmineR-0915142007XD

 32 37  0  0  0  0  0  0  0  0  1 V2000
    4.8230   -3.1199    0.0000 C   0  0  0  0  0  0  0  0  0  0  0  0
    3.6495   -2.5618    0.0000 N   0  0  0  0  0  0  0  0  0  0  0  0
    5.1235   -4.4366    0.0000 C   0  0  0  0  0  0  0  0  0  0  0  0
    5.7819   -2.1610    0.0000 C   0  0  0  0  0  0  0  0  0  0  0  0
    2.4187   -3.1199    0.0000 C   0  0  0  0  0  0  0  0  0  0  0  0
    3.8212   -1.2022    0.0000 C   0  0  0  0  0  0  0  0  0  0  0  0
    6.2971   -5.0949    0.0000 C   0  0  0  0  0  0  0  0  0  0  0  0
    4.2935   -5.4384    0.0000 O   0  0  0  0  0  0  0  0  0  0  0  0
    6.2971   -3.7353    0.0000 C   0  0  0  0  0  0  0  0  0  0  0  0
    5.1235   -1.0018    0.0000 C   0  0  0  0  0  0  0  0  0  0  0  0
    2.1754   -4.4366    0.0000 C   0  0  0  0  0  0  0  0  0  0  0  0
    1.5027   -2.2183    0.0000 C   0  0  0  0  0  0  0  0  0  0  0  0
    7.5422   -4.3507    0.0000 N   0  0  0  0  0  0  0  0  0  0  0  0
    2.9911   -5.4384    0.0000 C   0  0  0  0  0  0  0  0  0  0  0  0
    0.9446   -4.8230    0.0000 C   0  0  0  0  0  0  0  0  0  0  0  0
    0.2576   -2.6047    0.0000 C   0  0  0  0  0  0  0  0  0  0  0  0
    8.7014   -4.9947    0.0000 C   0  0  0  0  0  0  0  0  0  0  0  0
    7.5422   -3.0054    0.0000 C   0  0  0  0  0  0  0  0  0  0  0  0
    0.0000   -3.9071    0.0000 C   0  0  0  0  0  0  0  0  0  0  0  0
    9.8750   -4.3507    0.0000 C   0  0  0  0  0  0  0  0  0  0  0  0
    8.7014   -2.3900    0.0000 C   0  0  0  0  0  0  0  0  0  0  0  0
    9.8750   -3.0054    0.0000 C   0  0  0  0  0  0  0  0  0  0  0  0
   11.0056   -2.3471    0.0000 N   0  0  0  0  0  0  0  0  0  0  0  0
   11.9931   -3.2630    0.0000 C   0  0  0  0  0  0  0  0  0  0  0  0
   11.5065   -1.1306    0.0000 C   0  0  0  0  0  0  0  0  0  0  0  0
   13.1380   -2.5618    0.0000 C   0  0  0  0  0  0  0  0  0  0  0  0
   11.9931   -4.5511    0.0000 C   0  0  0  0  0  0  0  0  0  0  0  0
   12.8804   -1.2594    0.0000 N   0  0  0  0  0  0  0  0  0  0  0  0
   10.9197    0.0000    0.0000 O   0  0  0  0  0  0  0  0  0  0  0  0
   14.3116   -3.2630    0.0000 C   0  0  0  0  0  0  0  0  0  0  0  0
   13.1380   -5.2237    0.0000 C   0  0  0  0  0  0  0  0  0  0  0  0
   14.3116   -4.5511    0.0000 C   0  0  0  0  0  0  0  0  0  0  0  0
  1  2  1  0  0  0  0
  1  3  1  0  0  0  0
  1  4  2  0  0  0  0
  2  5  1  0  0  0  0
  2  6  1  0  0  0  0
  3  7  1  0  0  0  0
  3  8  1  0  0  0  0
  3  9  1  0  0  0  0
  4 10  1  0  0  0  0
  5 11  2  0  0  0  0
  5 12  1  0  0  0  0
  6 10  2  0  0  0  0
  7 13  1  0  0  0  0
  8 14  1  0  0  0  0
 11 15  1  0  0  0  0
 11 14  1  0  0  0  0
 12 16  2  0  0  0  0
 13 17  1  0  0  0  0
 13 18  1  0  0  0  0
 15 19  2  0  0  0  0
 16 19  1  0  0  0  0
 17 20  1  0  0  0  0
 18 21  1  0  0  0  0
 20 22  1  0  0  0  0
 21 22  1  0  0  0  0
 22 23  1  0  0  0  0
 23 24  1  0  0  0  0
 23 25  1  0  0  0  0
 24 26  2  0  0  0  0
 24 27  1  0  0  0  0
 25 28  1  0  0  0  0
 25 29  2  0  0  0  0
 26 30  1  0  0  0  0
 26 28  1  0  0  0  0
 27 31  2  0  0  0  0
 30 32  2  0  0  0  0
 31 32  1  0  0  0  0
M  END
> <ID>
11398

> <Formula>
C26H28N4O2

> <FW>
428.5261

> <DSSTox_CID>
26091

> <DSSTox_RID>
81330

> <DSSTox_GSID>
46091

> <DSSTox_FileID_Sort>
6011

> <TS_ChemName>
Zaldaride

> <TS_ChemName_Synonyms>


> <TS_CASRN>
109826-26-8

> <CASRN_ChemName_Relationship>
primary

> <TS_Description>
single chemical compound

> <ChemNote>


> <STRUCTURE_Shown>
tested chemical

> <STRUCTURE_Formula>
C26H28N4O2

> <STRUCTURE_MW>
428.5261

> <STRUCTURE_ChemType>
defined organic

> <STRUCTURE_DefinedOrganicForm>
parent

> <STRUCTURE_IUPAC>
1-{1-[(4-methyl-4H,6H-pyrrolo[1,2-a][4,1]benzoxazepin-4-yl)methyl]piperidin-4-yl}-1,3-dihydro-2H-benzimidazol-2-one

> <STRUCTURE_SMILES>
O=C2Nc1ccccc1N2C3CCN(CC3)CC5(C)OCc6ccccc6n4cccc45

> <STRUCTURE_SMILES_Desalt>
O=C2Nc1ccccc1N2C3CCN(CC3)CC5(C)OCc6ccccc6n4cccc45

> <Substance_modify_yyyymmdd>
20110819

$$$$
