1098-60-8
ChemmineR-0915142007XD

 25 26  0  0  0  0  0  0  0  0  1 V2000
    5.1808   -7.3153    0.0000 Cl   0  0  0  0  0  0  0  0  0  0  0  0
    9.2115    0.0000    0.0000 C    0  0  0  0  0  0  0  0  0  0  0  0
    9.2115   -1.3367    0.0000 N    0  0  0  0  0  0  0  0  0  0  0  0
   10.3616   -1.9998    0.0000 C    0  0  0  0  0  0  0  0  0  0  0  0
    8.0614   -1.9998    0.0000 C    0  0  0  0  0  0  0  0  0  0  0  0
    6.9112   -1.3367    0.0000 C    0  0  0  0  0  0  0  0  0  0  0  0
    5.7611   -1.9998    0.0000 C    0  0  0  0  0  0  0  0  0  0  0  0
    5.7611   -3.3261    0.0000 N    0  0  0  0  0  0  0  0  0  0  0  0
    6.9112   -3.9892    0.0000 C    0  0  0  0  0  0  0  0  0  0  0  0
    8.0614   -3.3261    0.0000 C    0  0  0  0  0  0  0  0  0  0  0  0
    9.2115   -3.9892    0.0000 C    0  0  0  0  0  0  0  0  0  0  0  0
    9.2115   -5.3259    0.0000 C    0  0  0  0  0  0  0  0  0  0  0  0
    8.0614   -5.9890    0.0000 C    0  0  0  0  0  0  0  0  0  0  0  0
    6.9112   -5.3259    0.0000 C    0  0  0  0  0  0  0  0  0  0  0  0
    5.7611   -5.9890    0.0000 S    0  0  0  0  0  0  0  0  0  0  0  0
    4.6006   -5.3259    0.0000 C    0  0  0  0  0  0  0  0  0  0  0  0
    3.4504   -5.9890    0.0000 C    0  0  0  0  0  0  0  0  0  0  0  0
    2.3003   -5.3259    0.0000 C    0  0  0  0  0  0  0  0  0  0  0  0
    2.3003   -3.9892    0.0000 C    0  0  0  0  0  0  0  0  0  0  0  0
    3.4504   -3.3261    0.0000 C    0  0  0  0  0  0  0  0  0  0  0  0
    4.6006   -3.9892    0.0000 C    0  0  0  0  0  0  0  0  0  0  0  0
    1.1501   -3.3261    0.0000 C    0  0  0  0  0  0  0  0  0  0  0  0
    0.4870   -4.4762    0.0000 F    0  0  0  0  0  0  0  0  0  0  0  0
    0.0000   -2.6629    0.0000 F    0  0  0  0  0  0  0  0  0  0  0  0
    1.8133   -2.1759    0.0000 F    0  0  0  0  0  0  0  0  0  0  0  0
  2  3  1  0  0  0  0
  3  4  1  0  0  0  0
  3  5  1  0  0  0  0
  5  6  1  0  0  0  0
  6  7  1  0  0  0  0
  7  8  1  0  0  0  0
  8  9  1  0  0  0  0
  8 21  1  0  0  0  0
  9 10  2  0  0  0  0
  9 14  1  0  0  0  0
 10 11  1  0  0  0  0
 11 12  2  0  0  0  0
 12 13  1  0  0  0  0
 13 14  2  0  0  0  0
 14 15  1  0  0  0  0
 15 16  1  0  0  0  0
 16 17  2  0  0  0  0
 16 21  1  0  0  0  0
 17 18  1  0  0  0  0
 18 19  2  0  0  0  0
 19 20  1  0  0  0  0
 19 22  1  0  0  0  0
 20 21  2  0  0  0  0
 22 23  1  0  0  0  0
 22 24  1  0  0  0  0
 22 25  1  0  0  0  0
M  END
> <ID>
11210

> <Formula>
C18H20ClF3N2S

> <FW>
388.8780 (36.4609+352.4171)

> <DSSTox_CID>
25804

> <DSSTox_RID>
81142

> <DSSTox_GSID>
45804

> <DSSTox_FileID_Sort>
5823

> <TS_ChemName>
Triflupromazine hydrochloride

> <TS_ChemName_Synonyms>


> <TS_CASRN>
1098-60-8

> <CASRN_ChemName_Relationship>
primary

> <TS_Description>
single chemical compound

> <ChemNote>
parent [146-54-3]

> <STRUCTURE_Shown>
tested chemical

> <STRUCTURE_Formula>
C18H20ClF3N2S

> <STRUCTURE_MW>
388.878

> <STRUCTURE_ChemType>
defined organic

> <STRUCTURE_DefinedOrganicForm>
complex

> <STRUCTURE_IUPAC>
N,N-dimethyl-3-[2-(trifluoromethyl)-10H-phenothiazin-10-yl]propan-1-amine hydrochloride (1:1)

> <STRUCTURE_SMILES>
Cl.FC(F)(F)c1cc2N(CCCN(C)C)c3ccccc3Sc2cc1

> <STRUCTURE_SMILES_Desalt>
FC(F)(F)c1cc2N(CCCN(C)C)c3ccccc3Sc2cc1

> <Substance_modify_yyyymmdd>
20110909

$$$$
