110-94-1
ChemmineR-0915142007XD

  9  8  0  0  0  0  0  0  0  0  1 V2000
    6.9090   -1.9967    0.0000 O   0  0  0  0  0  0  0  0  0  0  0  0
    5.7552   -1.3334    0.0000 C   0  0  0  0  0  0  0  0  0  0  0  0
    4.6083   -1.9967    0.0000 C   0  0  0  0  0  0  0  0  0  0  0  0
    3.4545   -1.3334    0.0000 C   0  0  0  0  0  0  0  0  0  0  0  0
    2.3007   -1.9967    0.0000 C   0  0  0  0  0  0  0  0  0  0  0  0
    1.1538   -1.3334    0.0000 C   0  0  0  0  0  0  0  0  0  0  0  0
    0.0000   -1.9967    0.0000 O   0  0  0  0  0  0  0  0  0  0  0  0
    1.1538    0.0000    0.0000 O   0  0  0  0  0  0  0  0  0  0  0  0
    5.7552    0.0000    0.0000 O   0  0  0  0  0  0  0  0  0  0  0  0
  1  2  1  0  0  0  0
  2  3  1  0  0  0  0
  2  9  2  0  0  0  0
  3  4  1  0  0  0  0
  4  5  1  0  0  0  0
  5  6  1  0  0  0  0
  6  7  1  0  0  0  0
  6  8  2  0  0  0  0
M  END
> <ID>
1591

> <Formula>
C5H8O4

> <FW>
132.1146

> <DSSTox_CID>
1654

> <DSSTox_RID>
76266

> <DSSTox_GSID>
21654

> <DSSTox_FileID_Sort>
950

> <TS_ChemName>
Pentanedioic acid

> <TS_ChemName_Synonyms>
Pentanedioic acid (Glutaric acid)

> <TS_CASRN>
110-94-1

> <CASRN_ChemName_Relationship>
primary

> <TS_Description>
single chemical compound

> <ChemNote>


> <STRUCTURE_Shown>
tested chemical

> <STRUCTURE_Formula>
C5H8O4

> <STRUCTURE_MW>
132.1146

> <STRUCTURE_ChemType>
defined organic

> <STRUCTURE_DefinedOrganicForm>
parent

> <STRUCTURE_IUPAC>
pentanedioic acid

> <STRUCTURE_SMILES>
O=C(O)CCCC(=O)O

> <STRUCTURE_SMILES_Desalt>
O=C(O)CCCC(=O)O

> <Substance_modify_yyyymmdd>
20080429

$$$$
