110-25-8
ChemmineR-0915142007XD

 25 24  0  0  0  0  0  0  0  0  1 V2000
    4.6189   -1.9974    0.0000 C   0  0  0  0  0  0  0  0  0  0  0  0
    4.6189   -3.3428    0.0000 O   0  0  0  0  0  0  0  0  0  0  0  0
   13.8705   -3.3567    0.0000 C   0  0  0  0  0  0  0  0  0  0  0  0
   13.8567   -2.0251    0.0000 C   0  0  0  0  0  0  0  0  0  0  0  0
    5.7701   -1.3593    0.0000 C   0  0  0  0  0  0  0  0  0  0  0  0
   12.7054   -1.3732    0.0000 C   0  0  0  0  0  0  0  0  0  0  0  0
   12.7470   -4.0641    0.0000 C   0  0  0  0  0  0  0  0  0  0  0  0
    6.9214   -2.0112    0.0000 C   0  0  0  0  0  0  0  0  0  0  0  0
   11.5680   -2.0251    0.0000 C   0  0  0  0  0  0  0  0  0  0  0  0
   12.7609   -5.3956    0.0000 C   0  0  0  0  0  0  0  0  0  0  0  0
    9.4181  -10.1394    0.0000 C   0  0  0  0  0  0  0  0  0  0  0  0
   10.5555   -9.4458    0.0000 C   0  0  0  0  0  0  0  0  0  0  0  0
   10.5139   -8.1143    0.0000 C   0  0  0  0  0  0  0  0  0  0  0  0
   10.4029   -1.3593    0.0000 C   0  0  0  0  0  0  0  0  0  0  0  0
    9.2516   -2.0112    0.0000 C   0  0  0  0  0  0  0  0  0  0  0  0
   11.6513   -7.4207    0.0000 C   0  0  0  0  0  0  0  0  0  0  0  0
   11.6374   -6.0892    0.0000 C   0  0  0  0  0  0  0  0  0  0  0  0
    8.1004   -1.3593    0.0000 C   0  0  0  0  0  0  0  0  0  0  0  0
    9.4458  -11.4709    0.0000 C   0  0  0  0  0  0  0  0  0  0  0  0
    1.1513   -1.3316    0.0000 C   0  0  0  0  0  0  0  0  0  0  0  0
    1.1513    0.0000    0.0000 O   0  0  0  0  0  0  0  0  0  0  0  0
    0.0000   -1.9974    0.0000 O   0  0  0  0  0  0  0  0  0  0  0  0
    3.4676   -1.3316    0.0000 N   0  0  0  0  0  0  0  0  0  0  0  0
    2.3025   -1.9974    0.0000 C   0  0  0  0  0  0  0  0  0  0  0  0
    3.4676    0.0000    0.0000 C   0  0  0  0  0  0  0  0  0  0  0  0
  1  2  2  0  0  0  0
  1  5  1  0  0  0  0
  1 23  1  0  0  0  0
  3  4  2  0  0  0  0
  3  7  1  0  0  0  0
  4  6  1  0  0  0  0
  5  8  1  0  0  0  0
  6  9  1  0  0  0  0
  7 10  1  0  0  0  0
  8 18  1  0  0  0  0
  9 14  1  0  0  0  0
 10 17  1  0  0  0  0
 11 12  1  0  0  0  0
 11 19  1  0  0  0  0
 12 13  1  0  0  0  0
 13 16  1  0  0  0  0
 14 15  1  0  0  0  0
 15 18  1  0  0  0  0
 16 17  1  0  0  0  0
 20 21  2  0  0  0  0
 20 22  1  0  0  0  0
 20 24  1  0  0  0  0
 23 24  1  0  0  0  0
 23 25  1  0  0  0  0
M  END
> <ID>
9172

> <Formula>
C21H39NO3

> <FW>
353.5393

> <DSSTox_CID>
22243

> <DSSTox_RID>
79969

> <DSSTox_GSID>
42243

> <DSSTox_FileID_Sort>
4651

> <TS_ChemName>
Oleyl sarcosine

> <TS_ChemName_Synonyms>


> <TS_CASRN>
110-25-8

> <CASRN_ChemName_Relationship>
primary

> <TS_Description>
single chemical compound

> <ChemNote>
stereochem

> <STRUCTURE_Shown>
tested chemical

> <STRUCTURE_Formula>
C21H39NO3

> <STRUCTURE_MW>
353.5393

> <STRUCTURE_ChemType>
defined organic

> <STRUCTURE_DefinedOrganicForm>
parent

> <STRUCTURE_IUPAC>
N-methyl-N-[(9Z)-octadec-9-enoyl]glycine

> <STRUCTURE_SMILES>
O=C(CCCCCCC/C=C\CCCCCCCC)N(C)CC(=O)O

> <STRUCTURE_SMILES_Desalt>
O=C(CCCCCCC/C=C\CCCCCCCC)N(C)CC(=O)O

> <Substance_modify_yyyymmdd>
20080825

$$$$
