110-02-1
ChemmineR-0915142007XD

  5  5  0  0  0  0  0  0  0  0  1 V2000
    1.7409    0.0000    0.0000 C   0  0  0  0  0  0  0  0  0  0  0  0
    2.1519   -1.2653    0.0000 C   0  0  0  0  0  0  0  0  0  0  0  0
    1.0760   -2.0465    0.0000 S   0  0  0  0  0  0  0  0  0  0  0  0
    0.0000   -1.2653    0.0000 C   0  0  0  0  0  0  0  0  0  0  0  0
    0.4110    0.0000    0.0000 C   0  0  0  0  0  0  0  0  0  0  0  0
  1  2  2  0  0  0  0
  1  5  1  0  0  0  0
  2  3  1  0  0  0  0
  3  4  1  0  0  0  0
  4  5  2  0  0  0  0
M  END
> <ID>
4567

> <Formula>
C4H4S

> <FW>
84.1396

> <DSSTox_CID>
6145

> <DSSTox_RID>
78034

> <DSSTox_GSID>
26145

> <DSSTox_FileID_Sort>
2717

> <TS_ChemName>
Thiophene

> <TS_ChemName_Synonyms>


> <TS_CASRN>
110-02-1

> <CASRN_ChemName_Relationship>
primary

> <TS_Description>
single chemical compound

> <ChemNote>


> <STRUCTURE_Shown>
tested chemical

> <STRUCTURE_Formula>
C4H4S

> <STRUCTURE_MW>
84.1396

> <STRUCTURE_ChemType>
defined organic

> <STRUCTURE_DefinedOrganicForm>
parent

> <STRUCTURE_IUPAC>
thiophene

> <STRUCTURE_SMILES>
c1cccs1

> <STRUCTURE_SMILES_Desalt>
c1cccs1

> <Substance_modify_yyyymmdd>
20080429

$$$$
