110-80-5
ChemmineR-0915142007XD

  6  5  0  0  0  0  0  0  0  0  1 V2000
    0.0000   -0.6630    0.0000 O   0  0  0  0  0  0  0  0  0  0  0  0
    3.4532    0.0000    0.0000 O   0  0  0  0  0  0  0  0  0  0  0  0
    1.1530    0.0000    0.0000 C   0  0  0  0  0  0  0  0  0  0  0  0
    2.3117   -0.6630    0.0000 C   0  0  0  0  0  0  0  0  0  0  0  0
    4.6119   -0.6630    0.0000 C   0  0  0  0  0  0  0  0  0  0  0  0
    5.7649    0.0000    0.0000 C   0  0  0  0  0  0  0  0  0  0  0  0
  1  3  1  0  0  0  0
  2  4  1  0  0  0  0
  2  5  1  0  0  0  0
  3  4  1  0  0  0  0
  5  6  1  0  0  0  0
M  END
> <ID>
3497

> <Formula>
C4H10O2

> <FW>
90.121

> <DSSTox_CID>
4087

> <DSSTox_RID>
77284

> <DSSTox_GSID>
24087

> <DSSTox_FileID_Sort>
1967

> <TS_ChemName>
2-Ethoxyethanol

> <TS_ChemName_Synonyms>
2-Ethoxyethanol (Ethylene glycol monoethyl ether) (EGMEE)

> <TS_CASRN>
110-80-5

> <CASRN_ChemName_Relationship>
primary

> <TS_Description>
single chemical compound

> <ChemNote>


> <STRUCTURE_Shown>
tested chemical

> <STRUCTURE_Formula>
C4H10O2

> <STRUCTURE_MW>
90.121

> <STRUCTURE_ChemType>
defined organic

> <STRUCTURE_DefinedOrganicForm>
parent

> <STRUCTURE_IUPAC>
2-ethoxyethanol

> <STRUCTURE_SMILES>
CCOCCO

> <STRUCTURE_SMILES_Desalt>
CCOCCO

> <Substance_modify_yyyymmdd>
20080429

$$$$
