110-43-0
ChemmineR-0915142007XD

  8  7  0  0  0  0  0  0  0  0  1 V2000
    0.0000   -1.9974    0.0000 C   0  0  0  0  0  0  0  0  0  0  0  0
    1.1542   -1.3339    0.0000 C   0  0  0  0  0  0  0  0  0  0  0  0
    2.3015   -1.9974    0.0000 C   0  0  0  0  0  0  0  0  0  0  0  0
    3.4558   -1.3339    0.0000 C   0  0  0  0  0  0  0  0  0  0  0  0
    4.6100   -1.9974    0.0000 C   0  0  0  0  0  0  0  0  0  0  0  0
    5.7573   -1.3339    0.0000 C   0  0  0  0  0  0  0  0  0  0  0  0
    5.7573    0.0000    0.0000 O   0  0  0  0  0  0  0  0  0  0  0  0
    6.9115   -1.9974    0.0000 C   0  0  0  0  0  0  0  0  0  0  0  0
  1  2  1  0  0  0  0
  2  3  1  0  0  0  0
  3  4  1  0  0  0  0
  4  5  1  0  0  0  0
  5  6  1  0  0  0  0
  6  7  2  0  0  0  0
  6  8  1  0  0  0  0
M  END
> <ID>
1789

> <Formula>
C7H14O

> <FW>
114.1855

> <DSSTox_CID>
1916

> <DSSTox_RID>
76400

> <DSSTox_GSID>
21916

> <DSSTox_FileID_Sort>
1084

> <TS_ChemName>
2-Heptanone

> <TS_ChemName_Synonyms>


> <TS_CASRN>
110-43-0

> <CASRN_ChemName_Relationship>
primary

> <TS_Description>
single chemical compound

> <ChemNote>


> <STRUCTURE_Shown>
tested chemical

> <STRUCTURE_Formula>
C7H14O

> <STRUCTURE_MW>
114.1855

> <STRUCTURE_ChemType>
defined organic

> <STRUCTURE_DefinedOrganicForm>
parent

> <STRUCTURE_IUPAC>
heptan-2-one

> <STRUCTURE_SMILES>
CC(=O)CCCCC

> <STRUCTURE_SMILES_Desalt>
CC(=O)CCCCC

> <Substance_modify_yyyymmdd>
20080429

$$$$
