110-33-8
ChemmineR-0915142007XD

 22 21  0  0  0  0  0  0  0  0  1 V2000
    8.0200   -1.3076    0.0000 C   0  0  0  0  0  0  0  0  0  0  0  0
    9.1750   -1.9832    0.0000 C   0  0  0  0  0  0  0  0  0  0  0  0
   10.3301   -1.3076    0.0000 C   0  0  0  0  0  0  0  0  0  0  0  0
   11.4633   -1.9832    0.0000 C   0  0  0  0  0  0  0  0  0  0  0  0
   12.6184   -1.3076    0.0000 C   0  0  0  0  0  0  0  0  0  0  0  0
   13.7735   -1.9832    0.0000 C   0  0  0  0  0  0  0  0  0  0  0  0
    8.0200    0.0000    0.0000 O   0  0  0  0  0  0  0  0  0  0  0  0
    6.8867   -1.9832    0.0000 O   0  0  0  0  0  0  0  0  0  0  0  0
   13.7735   -3.3126    0.0000 O   0  0  0  0  0  0  0  0  0  0  0  0
   14.9067   -1.3076    0.0000 O   0  0  0  0  0  0  0  0  0  0  0  0
    5.7535   -1.3076    0.0000 C   0  0  0  0  0  0  0  0  0  0  0  0
    4.5984   -1.9832    0.0000 C   0  0  0  0  0  0  0  0  0  0  0  0
    3.4434   -1.3076    0.0000 C   0  0  0  0  0  0  0  0  0  0  0  0
    2.2883   -1.9832    0.0000 C   0  0  0  0  0  0  0  0  0  0  0  0
    1.1551   -1.3076    0.0000 C   0  0  0  0  0  0  0  0  0  0  0  0
    0.0000   -1.9832    0.0000 C   0  0  0  0  0  0  0  0  0  0  0  0
   16.0400   -1.9832    0.0000 C   0  0  0  0  0  0  0  0  0  0  0  0
   17.1950   -1.3076    0.0000 C   0  0  0  0  0  0  0  0  0  0  0  0
   18.3501   -1.9832    0.0000 C   0  0  0  0  0  0  0  0  0  0  0  0
   19.5051   -1.3076    0.0000 C   0  0  0  0  0  0  0  0  0  0  0  0
   20.6384   -1.9832    0.0000 C   0  0  0  0  0  0  0  0  0  0  0  0
   21.7934   -1.3076    0.0000 C   0  0  0  0  0  0  0  0  0  0  0  0
  1  2  1  0  0  0  0
  1  8  1  0  0  0  0
  1  7  2  0  0  0  0
  2  3  1  0  0  0  0
  3  4  1  0  0  0  0
  4  5  1  0  0  0  0
  5  6  1  0  0  0  0
  6 10  1  0  0  0  0
  6  9  2  0  0  0  0
  8 11  1  0  0  0  0
 10 17  1  0  0  0  0
 11 12  1  0  0  0  0
 12 13  1  0  0  0  0
 13 14  1  0  0  0  0
 14 15  1  0  0  0  0
 15 16  1  0  0  0  0
 17 18  1  0  0  0  0
 18 19  1  0  0  0  0
 19 20  1  0  0  0  0
 20 21  1  0  0  0  0
 21 22  1  0  0  0  0
M  END
> <ID>
4820

> <Formula>
C18H34O4

> <FW>
314.4602

> <DSSTox_CID>
6841

> <DSSTox_RID>
78225

> <DSSTox_GSID>
26841

> <DSSTox_FileID_Sort>
2908

> <TS_ChemName>
Dihexyl hexanedioate

> <TS_ChemName_Synonyms>
Hexanedioic acid, dihexyl ester

> <TS_CASRN>
110-33-8

> <CASRN_ChemName_Relationship>
primary

> <TS_Description>
single chemical compound

> <ChemNote>


> <STRUCTURE_Shown>
tested chemical

> <STRUCTURE_Formula>
C18H34O4

> <STRUCTURE_MW>
314.4602

> <STRUCTURE_ChemType>
defined organic

> <STRUCTURE_DefinedOrganicForm>
parent

> <STRUCTURE_IUPAC>
dihexyl hexanedioate

> <STRUCTURE_SMILES>
O=C(CCCCC(=O)OCCCCCC)OCCCCCC

> <STRUCTURE_SMILES_Desalt>
O=C(CCCCC(=O)OCCCCCC)OCCCCCC

> <Substance_modify_yyyymmdd>
20080429

$$$$
