110-64-5
ChemmineR-0915142007XD

  6  5  0  0  0  0  0  0  0  0  1 V2000
    1.1745    0.0000    0.0000 C   0  0  0  0  0  0  0  0  0  0  0  0
    2.3141   -0.6454    0.0000 C   0  0  0  0  0  0  0  0  0  0  0  0
    3.4712    0.0000    0.0000 C   0  0  0  0  0  0  0  0  0  0  0  0
    4.6283   -0.6454    0.0000 C   0  0  0  0  0  0  0  0  0  0  0  0
    0.0000   -0.6454    0.0000 O   0  0  0  0  0  0  0  0  0  0  0  0
    5.8144    0.0000    0.0000 O   0  0  0  0  0  0  0  0  0  0  0  0
  1  2  1  0  0  0  0
  1  5  1  0  0  0  0
  2  3  2  0  0  0  0
  3  4  1  0  0  0  0
  4  6  1  0  0  0  0
M  END
> <ID>
4822

> <Formula>
C4H8O2

> <FW>
88.1051

> <DSSTox_CID>
6849

> <DSSTox_RID>
78227

> <DSSTox_GSID>
26849

> <DSSTox_FileID_Sort>
2910

> <TS_ChemName>
2-Butene-1,4-diol

> <TS_ChemName_Synonyms>


> <TS_CASRN>
110-64-5

> <CASRN_ChemName_Relationship>
primary

> <TS_Description>
mixture or formulation

> <ChemNote>
mixture of Z [6117-80-2], E [821-11-4] isomers; structure shown E; stereochem

> <STRUCTURE_Shown>
representative isomer in mixture

> <STRUCTURE_Formula>
C4H8O2

> <STRUCTURE_MW>
88.1051

> <STRUCTURE_ChemType>
defined organic

> <STRUCTURE_DefinedOrganicForm>
parent

> <STRUCTURE_IUPAC>
(2E)-but-2-ene-1,4-diol

> <STRUCTURE_SMILES>
OC\C=C\CO

> <STRUCTURE_SMILES_Desalt>
OC\C=C\CO

> <Substance_modify_yyyymmdd>
20080429

$$$$
