110-91-8
ChemmineR-0915142007XD

  6  6  0  0  0  0  0  0  0  0  1 V2000
    2.3036   -1.9950    0.0000 C   0  0  0  0  0  0  0  0  0  0  0  0
    1.1518   -2.6600    0.0000 C   0  0  0  0  0  0  0  0  0  0  0  0
    0.0000   -1.9950    0.0000 O   0  0  0  0  0  0  0  0  0  0  0  0
    0.0000   -0.6650    0.0000 C   0  0  0  0  0  0  0  0  0  0  0  0
    1.1518    0.0000    0.0000 C   0  0  0  0  0  0  0  0  0  0  0  0
    2.3036   -0.6650    0.0000 N   0  0  0  0  0  0  0  0  0  0  0  0
  1  2  1  0  0  0  0
  1  6  1  0  0  0  0
  2  3  1  0  0  0  0
  3  4  1  0  0  0  0
  4  5  1  0  0  0  0
  5  6  1  0  0  0  0
M  END
> <ID>
4348

> <Formula>
C4H9NO

> <FW>
87.1204

> <DSSTox_CID>
5688

> <DSSTox_RID>
77880

> <DSSTox_GSID>
25688

> <DSSTox_FileID_Sort>
2563

> <TS_ChemName>
Morpholine

> <TS_ChemName_Synonyms>


> <TS_CASRN>
110-91-8

> <CASRN_ChemName_Relationship>
primary

> <TS_Description>
single chemical compound

> <ChemNote>


> <STRUCTURE_Shown>
tested chemical

> <STRUCTURE_Formula>
C4H9NO

> <STRUCTURE_MW>
87.1204

> <STRUCTURE_ChemType>
defined organic

> <STRUCTURE_DefinedOrganicForm>
parent

> <STRUCTURE_IUPAC>
morpholine

> <STRUCTURE_SMILES>
C1CNCCO1

> <STRUCTURE_SMILES_Desalt>
C1CNCCO1

> <Substance_modify_yyyymmdd>
20080429

$$$$
