110-15-6
ChemmineR-0915142007XD

  8  7  0  0  0  0  0  0  0  0  1 V2000
    4.6103   -1.3312    0.0000 C   0  0  0  0  0  0  0  0  0  0  0  0
    5.7628   -1.9939    0.0000 O   0  0  0  0  0  0  0  0  0  0  0  0
    4.6103    0.0000    0.0000 O   0  0  0  0  0  0  0  0  0  0  0  0
    3.4577   -1.9939    0.0000 C   0  0  0  0  0  0  0  0  0  0  0  0
    2.3051   -1.3312    0.0000 C   0  0  0  0  0  0  0  0  0  0  0  0
    1.1526   -1.9939    0.0000 C   0  0  0  0  0  0  0  0  0  0  0  0
    0.0000   -1.3312    0.0000 O   0  0  0  0  0  0  0  0  0  0  0  0
    1.1526   -3.3252    0.0000 O   0  0  0  0  0  0  0  0  0  0  0  0
  1  2  1  0  0  0  0
  1  3  2  0  0  0  0
  1  4  1  0  0  0  0
  4  5  1  0  0  0  0
  5  6  1  0  0  0  0
  6  7  1  0  0  0  0
  6  8  2  0  0  0  0
M  END
> <ID>
3221

> <Formula>
C4H6O4

> <FW>
118.088

> <DSSTox_CID>
3602

> <DSSTox_RID>
77102

> <DSSTox_GSID>
23602

> <DSSTox_FileID_Sort>
1785

> <TS_ChemName>
Butanedioic acid

> <TS_ChemName_Synonyms>
Butanedioic acid (Succinic acid)

> <TS_CASRN>
110-15-6

> <CASRN_ChemName_Relationship>
primary

> <TS_Description>
single chemical compound

> <ChemNote>


> <STRUCTURE_Shown>
tested chemical

> <STRUCTURE_Formula>
C4H6O4

> <STRUCTURE_MW>
118.088

> <STRUCTURE_ChemType>
defined organic

> <STRUCTURE_DefinedOrganicForm>
parent

> <STRUCTURE_IUPAC>
butanedioic acid

> <STRUCTURE_SMILES>
O=C(O)CCC(=O)O

> <STRUCTURE_SMILES_Desalt>
O=C(O)CCC(=O)O

> <Substance_modify_yyyymmdd>
20080429

$$$$
