110-85-0
ChemmineR-0915142007XD

  6  6  0  0  0  0  0  0  0  0  1 V2000
    2.3036   -1.9950    0.0000 C   0  0  0  0  0  0  0  0  0  0  0  0
    1.1518   -2.6600    0.0000 C   0  0  0  0  0  0  0  0  0  0  0  0
    0.0000   -1.9950    0.0000 N   0  0  0  0  0  0  0  0  0  0  0  0
    0.0000   -0.6650    0.0000 C   0  0  0  0  0  0  0  0  0  0  0  0
    1.1518    0.0000    0.0000 C   0  0  0  0  0  0  0  0  0  0  0  0
    2.3036   -0.6650    0.0000 N   0  0  0  0  0  0  0  0  0  0  0  0
  1  2  1  0  0  0  0
  1  6  1  0  0  0  0
  2  3  1  0  0  0  0
  3  4  1  0  0  0  0
  4  5  1  0  0  0  0
  5  6  1  0  0  0  0
M  END
> <ID>
1120

> <Formula>
C4H10N2

> <FW>
86.1356

> <DSSTox_CID>
1164

> <DSSTox_RID>
75986

> <DSSTox_GSID>
21164

> <DSSTox_FileID_Sort>
670

> <TS_ChemName>
Piperazine

> <TS_ChemName_Synonyms>


> <TS_CASRN>
110-85-0

> <CASRN_ChemName_Relationship>
primary

> <TS_Description>
single chemical compound

> <ChemNote>


> <STRUCTURE_Shown>
tested chemical

> <STRUCTURE_Formula>
C4H10N2

> <STRUCTURE_MW>
86.1356

> <STRUCTURE_ChemType>
defined organic

> <STRUCTURE_DefinedOrganicForm>
parent

> <STRUCTURE_IUPAC>
piperazine

> <STRUCTURE_SMILES>
C1CNCCN1

> <STRUCTURE_SMILES_Desalt>
C1CNCCN1

> <Substance_modify_yyyymmdd>
20080429

$$$$
