110-69-0
ChemmineR-0915142007XD

  6  5  0  0  0  0  0  0  0  0  1 V2000
    4.6247   -0.6902    0.0000 N   0  0  0  0  0  0  0  0  0  0  0  0
    5.7521    0.0000    0.0000 O   0  0  0  0  0  0  0  0  0  0  0  0
    3.4685   -1.3517    0.0000 C   0  0  0  0  0  0  0  0  0  0  0  0
    2.3123   -0.6902    0.0000 C   0  0  0  0  0  0  0  0  0  0  0  0
    1.1562   -1.3517    0.0000 C   0  0  0  0  0  0  0  0  0  0  0  0
    0.0000   -0.6902    0.0000 C   0  0  0  0  0  0  0  0  0  0  0  0
  1  2  1  0  0  0  0
  1  3  2  0  0  0  0
  3  4  1  0  0  0  0
  4  5  1  0  0  0  0
  5  6  1  0  0  0  0
M  END
> <ID>
3798

> <Formula>
C4H9NO

> <FW>
87.1204

> <DSSTox_CID>
4664

> <DSSTox_RID>
77491

> <DSSTox_GSID>
24664

> <DSSTox_FileID_Sort>
2174

> <TS_ChemName>
Butanal oxime

> <TS_ChemName_Synonyms>
Butyraldoxime

> <TS_CASRN>
110-69-0

> <CASRN_ChemName_Relationship>
primary

> <TS_Description>
single chemical compound

> <ChemNote>


> <STRUCTURE_Shown>
tested chemical

> <STRUCTURE_Formula>
C4H9NO

> <STRUCTURE_MW>
87.1204

> <STRUCTURE_ChemType>
defined organic

> <STRUCTURE_DefinedOrganicForm>
parent

> <STRUCTURE_IUPAC>
N-hydroxybutan-1-imine

> <STRUCTURE_SMILES>
CCC\C=N/O

> <STRUCTURE_SMILES_Desalt>
CCC\C=N/O

> <Substance_modify_yyyymmdd>
20131003

$$$$
