110-59-8
ChemmineR-0915142007XD

  6  5  0  0  0  0  0  0  0  0  1 V2000
    5.7624    0.0000    0.0000 N   0  0  0  0  0  0  0  0  0  0  0  0
    4.6099   -0.6684    0.0000 C   0  0  0  0  0  0  0  0  0  0  0  0
    3.4575   -1.3311    0.0000 C   0  0  0  0  0  0  0  0  0  0  0  0
    2.3050   -0.6684    0.0000 C   0  0  0  0  0  0  0  0  0  0  0  0
    1.1525   -1.3311    0.0000 C   0  0  0  0  0  0  0  0  0  0  0  0
    0.0000   -0.6684    0.0000 C   0  0  0  0  0  0  0  0  0  0  0  0
  1  2  3  0  0  0  0
  2  3  1  0  0  0  0
  3  4  1  0  0  0  0
  4  5  1  0  0  0  0
  5  6  1  0  0  0  0
M  END
> <ID>
4631

> <Formula>
C5H9N

> <FW>
83.1317

> <DSSTox_CID>
6275

> <DSSTox_RID>
78085

> <DSSTox_GSID>
26275

> <DSSTox_FileID_Sort>
2768

> <TS_ChemName>
Valeronitrile

> <TS_ChemName_Synonyms>
Pentanenitrile (Valeronitrile)

> <TS_CASRN>
110-59-8

> <CASRN_ChemName_Relationship>
primary

> <TS_Description>
single chemical compound

> <ChemNote>


> <STRUCTURE_Shown>
tested chemical

> <STRUCTURE_Formula>
C5H9N

> <STRUCTURE_MW>
83.1317

> <STRUCTURE_ChemType>
defined organic

> <STRUCTURE_DefinedOrganicForm>
parent

> <STRUCTURE_IUPAC>
pentanenitrile

> <STRUCTURE_SMILES>
CCCCC#N

> <STRUCTURE_SMILES_Desalt>
CCCCC#N

> <Substance_modify_yyyymmdd>
20080429

$$$$
