110-12-3
ChemmineR-0915142007XD

  8  7  0  0  0  0  0  0  0  0  1 V2000
    5.7628   -1.9939    0.0000 C   0  0  0  0  0  0  0  0  0  0  0  0
    4.6103   -1.3312    0.0000 C   0  0  0  0  0  0  0  0  0  0  0  0
    4.6103    0.0000    0.0000 O   0  0  0  0  0  0  0  0  0  0  0  0
    3.4577   -1.9939    0.0000 C   0  0  0  0  0  0  0  0  0  0  0  0
    2.3051   -1.3312    0.0000 C   0  0  0  0  0  0  0  0  0  0  0  0
    1.1526   -1.9939    0.0000 C   0  0  0  0  0  0  0  0  0  0  0  0
    1.1526   -3.3252    0.0000 C   0  0  0  0  0  0  0  0  0  0  0  0
    0.0000   -1.3312    0.0000 C   0  0  0  0  0  0  0  0  0  0  0  0
  1  2  1  0  0  0  0
  2  3  2  0  0  0  0
  2  4  1  0  0  0  0
  4  5  1  0  0  0  0
  5  6  1  0  0  0  0
  6  7  1  0  0  0  0
  6  8  1  0  0  0  0
M  END
> <ID>
1787

> <Formula>
C7H14O

> <FW>
114.1855

> <DSSTox_CID>
1914

> <DSSTox_RID>
76398

> <DSSTox_GSID>
21914

> <DSSTox_FileID_Sort>
1082

> <TS_ChemName>
5-Methyl-2-hexanone

> <TS_ChemName_Synonyms>
5-Methyl-2-hexanone (Methyl isoamyl ketone)

> <TS_CASRN>
110-12-3

> <CASRN_ChemName_Relationship>
primary

> <TS_Description>
single chemical compound

> <ChemNote>


> <STRUCTURE_Shown>
tested chemical

> <STRUCTURE_Formula>
C7H14O

> <STRUCTURE_MW>
114.1855

> <STRUCTURE_ChemType>
defined organic

> <STRUCTURE_DefinedOrganicForm>
parent

> <STRUCTURE_IUPAC>
5-methylhexan-2-one

> <STRUCTURE_SMILES>
CC(C)CCC(C)=O

> <STRUCTURE_SMILES_Desalt>
CC(C)CCC(C)=O

> <Substance_modify_yyyymmdd>
20080429

$$$$
