110-95-2
ChemmineR-0915142007XD

  9  8  0  0  0  0  0  0  0  0  1 V2000
    2.2982   -1.9936    0.0000 C   0  0  0  0  0  0  0  0  0  0  0  0
    3.4543   -1.3360    0.0000 C   0  0  0  0  0  0  0  0  0  0  0  0
    4.6103   -1.9936    0.0000 C   0  0  0  0  0  0  0  0  0  0  0  0
    1.1422   -1.3360    0.0000 N   0  0  0  0  0  0  0  0  0  0  0  0
    5.7663   -1.3360    0.0000 N   0  0  0  0  0  0  0  0  0  0  0  0
    0.0000   -1.9936    0.0000 C   0  0  0  0  0  0  0  0  0  0  0  0
    1.1422    0.0000    0.0000 C   0  0  0  0  0  0  0  0  0  0  0  0
    6.9224   -1.9936    0.0000 C   0  0  0  0  0  0  0  0  0  0  0  0
    5.7663    0.0000    0.0000 C   0  0  0  0  0  0  0  0  0  0  0  0
  1  2  1  0  0  0  0
  1  4  1  0  0  0  0
  2  3  1  0  0  0  0
  3  5  1  0  0  0  0
  4  6  1  0  0  0  0
  4  7  1  0  0  0  0
  5  8  1  0  0  0  0
  5  9  1  0  0  0  0
M  END
> <ID>
12606

> <Formula>
C7H18N2

> <FW>
130.2312

> <DSSTox_CID>
27469

> <DSSTox_RID>
82369

> <DSSTox_GSID>
47469

> <DSSTox_FileID_Sort>
7050

> <TS_ChemName>
1,3-Propanediamine, N,N,N',N'-tetramethyl-

> <TS_ChemName_Synonyms>


> <TS_CASRN>
110-95-2

> <CASRN_ChemName_Relationship>
primary

> <TS_Description>
single chemical compound

> <ChemNote>


> <STRUCTURE_Shown>
tested chemical

> <STRUCTURE_Formula>
C7H18N2

> <STRUCTURE_MW>
130.2312

> <STRUCTURE_ChemType>
defined organic

> <STRUCTURE_DefinedOrganicForm>
parent

> <STRUCTURE_IUPAC>
N,N,N',N'-tetramethylpropane-1,3-diamine

> <STRUCTURE_SMILES>
CN(C)CCCN(C)C

> <STRUCTURE_SMILES_Desalt>
CN(C)CCCN(C)C

> <Substance_modify_yyyymmdd>
20100621

$$$$
