110-98-5
ChemmineR-0915142007XD

  9  8  0  0  0  0  0  0  0  0  1 V2000
    2.3031    0.0000    0.0000 C   0  0  0  0  0  0  0  0  0  0  0  0
    1.1515   -0.6689    0.0000 C   0  0  0  0  0  0  0  0  0  0  0  0
    1.1515   -1.9997    0.0000 C   0  0  0  0  0  0  0  0  0  0  0  0
    0.0000    0.0000    0.0000 O   0  0  0  0  0  0  0  0  0  0  0  0
    4.6062    0.0000    0.0000 C   0  0  0  0  0  0  0  0  0  0  0  0
    5.7440   -0.6689    0.0000 C   0  0  0  0  0  0  0  0  0  0  0  0
    6.8955    0.0000    0.0000 C   0  0  0  0  0  0  0  0  0  0  0  0
    5.7440   -1.9997    0.0000 O   0  0  0  0  0  0  0  0  0  0  0  0
    3.4546   -0.6689    0.0000 O   0  0  0  0  0  0  0  0  0  0  0  0
  1  2  1  0  0  0  0
  1  9  1  0  0  0  0
  2  3  1  0  0  0  0
  2  4  1  0  0  0  0
  5  6  1  0  0  0  0
  5  9  1  0  0  0  0
  6  7  1  0  0  0  0
  6  8  1  0  0  0  0
M  END
> <ID>
4824

> <Formula>
C6H14O3

> <FW>
134.1736

> <DSSTox_CID>
6863

> <DSSTox_RID>
78229

> <DSSTox_GSID>
26863

> <DSSTox_FileID_Sort>
2912

> <TS_ChemName>
1,1'-Oxybis-2-propanol

> <TS_ChemName_Synonyms>


> <TS_CASRN>
110-98-5

> <CASRN_ChemName_Relationship>
primary

> <TS_Description>
single chemical compound

> <ChemNote>


> <STRUCTURE_Shown>
tested chemical

> <STRUCTURE_Formula>
C6H14O3

> <STRUCTURE_MW>
134.1736

> <STRUCTURE_ChemType>
defined organic

> <STRUCTURE_DefinedOrganicForm>
parent

> <STRUCTURE_IUPAC>
1,1'-oxydipropan-2-ol

> <STRUCTURE_SMILES>
CC(O)COCC(C)O

> <STRUCTURE_SMILES_Desalt>
CC(O)COCC(C)O

> <Substance_modify_yyyymmdd>
20080429

$$$$
