110-54-3
ChemmineR-0915142007XD

  6  5  0  0  0  0  0  0  0  0  1 V2000
    0.0000   -0.6630    0.0000 C   0  0  0  0  0  0  0  0  0  0  0  0
    1.1530    0.0000    0.0000 C   0  0  0  0  0  0  0  0  0  0  0  0
    2.3060   -0.6630    0.0000 C   0  0  0  0  0  0  0  0  0  0  0  0
    3.4590    0.0000    0.0000 C   0  0  0  0  0  0  0  0  0  0  0  0
    4.6119   -0.6630    0.0000 C   0  0  0  0  0  0  0  0  0  0  0  0
    5.7649    0.0000    0.0000 C   0  0  0  0  0  0  0  0  0  0  0  0
  1  2  1  0  0  0  0
  2  3  1  0  0  0  0
  3  4  1  0  0  0  0
  4  5  1  0  0  0  0
  5  6  1  0  0  0  0
M  END
> <ID>
1790

> <Formula>
C6H14

> <FW>
86.1754

> <DSSTox_CID>
1917

> <DSSTox_RID>
76401

> <DSSTox_GSID>
21917

> <DSSTox_FileID_Sort>
1085

> <TS_ChemName>
Hexane

> <TS_ChemName_Synonyms>


> <TS_CASRN>
110-54-3

> <CASRN_ChemName_Relationship>
primary

> <TS_Description>
single chemical compound

> <ChemNote>


> <STRUCTURE_Shown>
tested chemical

> <STRUCTURE_Formula>
C6H14

> <STRUCTURE_MW>
86.1754

> <STRUCTURE_ChemType>
defined organic

> <STRUCTURE_DefinedOrganicForm>
parent

> <STRUCTURE_IUPAC>
hexane

> <STRUCTURE_SMILES>
CCCCCC

> <STRUCTURE_SMILES_Desalt>
CCCCCC

> <Substance_modify_yyyymmdd>
20080429

$$$$
