110-19-0
ChemmineR-0915142007XD

  8  7  0  0  0  0  0  0  0  0  1 V2000
    1.1508   -1.9966    0.0000 C   0  0  0  0  0  0  0  0  0  0  0  0
    1.1508   -3.3258    0.0000 O   0  0  0  0  0  0  0  0  0  0  0  0
    2.3016   -1.3292    0.0000 O   0  0  0  0  0  0  0  0  0  0  0  0
    0.0000   -1.3292    0.0000 C   0  0  0  0  0  0  0  0  0  0  0  0
    3.4524   -1.9966    0.0000 C   0  0  0  0  0  0  0  0  0  0  0  0
    4.6031   -1.3292    0.0000 C   0  0  0  0  0  0  0  0  0  0  0  0
    4.6031    0.0000    0.0000 C   0  0  0  0  0  0  0  0  0  0  0  0
    5.7539   -1.9966    0.0000 C   0  0  0  0  0  0  0  0  0  0  0  0
  1  2  2  0  0  0  0
  1  3  1  0  0  0  0
  1  4  1  0  0  0  0
  3  5  1  0  0  0  0
  5  6  1  0  0  0  0
  6  7  1  0  0  0  0
  6  8  1  0  0  0  0
M  END
> <ID>
4816

> <Formula>
C6H12O2

> <FW>
116.1583

> <DSSTox_CID>
6837

> <DSSTox_RID>
78223

> <DSSTox_GSID>
26837

> <DSSTox_FileID_Sort>
2906

> <TS_ChemName>
Isobutyl acetate

> <TS_ChemName_Synonyms>
Isobutyl acetate (Acetic acid, 2-methylpropyl ester)

> <TS_CASRN>
110-19-0

> <CASRN_ChemName_Relationship>
primary

> <TS_Description>
single chemical compound

> <ChemNote>


> <STRUCTURE_Shown>
tested chemical

> <STRUCTURE_Formula>
C6H12O2

> <STRUCTURE_MW>
116.1583

> <STRUCTURE_ChemType>
defined organic

> <STRUCTURE_DefinedOrganicForm>
parent

> <STRUCTURE_IUPAC>
2-methylpropyl acetate

> <STRUCTURE_SMILES>
CC(=O)OCC(C)C

> <STRUCTURE_SMILES_Desalt>
CC(=O)OCC(C)C

> <Substance_modify_yyyymmdd>
20080429

$$$$
