11006-34-1
ChemmineR-0915142007XD

 48 48  0  0  0  0  0  0  0  0  3 V2000
    7.3272   -8.1795    0.0000 C    0  0  0  0  0  0  0  0  0  0  0  0
    7.5048   -5.8594    0.0000 C    0  0  0  0  0  0  0  0  0  0  0  0
    8.1321   -7.0549    0.0000 C    0  0  0  0  0  0  0  0  0  0  0  0
    7.6468   -9.4697    0.0000 C    0  0  0  0  0  0  0  0  0  0  0  0
    5.9423   -8.0729    0.0000 N    0  5  0  0  0  0  0  0  0  0  0  0
    6.1080   -5.7410    0.0000 N    0  0  0  0  0  0  0  0  0  0  0  0
    5.4688   -9.3040    0.0000 C    0  0  0  0  0  0  0  0  0  0  0  0
    2.0478   -5.4451    0.0000 C    0  0  0  0  0  0  0  0  0  0  0  0
    1.8703   -7.7652    0.0000 C    0  0  0  0  0  0  0  0  0  0  0  0
    3.5985   -9.1620    0.0000 C    0  0  0  0  0  0  0  0  0  0  0  0
    3.9536   -4.2732    0.0000 C    0  0  0  0  0  0  0  0  0  0  0  0
    5.8476   -4.4153    0.0000 C    0  0  0  0  0  0  0  0  0  0  0  0
    6.4986  -10.2155    0.0000 C    0  0  0  0  0  0  0  0  0  0  0  0
    3.4446   -5.5516    0.0000 N    0  5  0  0  0  0  0  0  0  0  0  0
    3.2789   -7.8835    0.0000 N    0  0  0  0  0  0  0  0  0  0  0  0
    1.7401   -4.1548    0.0000 C    0  0  0  0  0  0  0  0  0  0  0  0
    4.5336   -9.6710    0.0000 C    0  0  0  0  0  0  0  0  0  0  0  0
    1.2666   -6.5696    0.0000 C    0  0  0  0  0  0  0  0  0  0  0  0
    4.9598   -3.8707    0.0000 C    0  0  0  0  0  0  0  0  0  0  0  0
    2.9238   -3.4446    0.0000 C    0  0  0  0  0  0  0  0  0  0  0  0
    1.3849   -8.9962    0.0000 C    0  0  0  0  0  0  0  0  0  0  0  0
    2.4266   -9.8959    0.0000 C    0  0  0  0  0  0  0  0  0  0  0  0
    8.0138   -4.5810    0.0000 C    0  0  0  0  0  0  0  0  0  0  0  0
    8.8660  -10.0024    0.0000 C    0  0  0  0  0  0  0  0  0  0  0  0
    6.9721   -3.7642    0.0000 C    0  0  0  0  0  0  0  0  0  0  0  0
    9.4342   -7.1615    0.0000 C    0  0  0  0  0  0  0  0  0  0  0  0
    8.9015   -3.4920    0.0000 C    0  0  0  0  0  0  0  0  0  0  0  0
   10.1918   -6.0369    0.0000 C    0  0  0  0  0  0  0  0  0  0  0  0
    0.4616   -3.6577    0.0000 C    0  0  0  0  0  0  0  0  0  0  0  0
    9.2922   -1.3139    0.0000 C    0  0  0  0  0  0  0  0  0  0  0  0
    9.0909  -11.3163    0.0000 O    0  0  0  0  0  0  0  0  0  0  0  0
   11.5294   -6.1435    0.0000 O    0  0  0  0  0  0  0  0  0  0  0  0
    8.8187    0.0000    0.0000 O    0  0  0  0  0  0  0  0  0  0  0  0
    8.4044   -2.2964    0.0000 C    0  0  0  0  0  0  0  0  0  0  0  0
    9.9550   -9.1738    0.0000 O    0  5  0  0  0  0  0  0  0  0  0  0
    9.5999   -4.8414    0.0000 O    0  5  0  0  0  0  0  0  0  0  0  0
    2.3319  -11.2453    0.0000 C    0  0  0  0  0  0  0  0  0  0  0  0
   10.6416   -1.4086    0.0000 O    0  5  0  0  0  0  0  0  0  0  0  0
    6.4039  -11.5767    0.0000 C    0  0  0  0  0  0  0  0  0  0  0  0
    0.0000   -9.4105    0.0000 C    0  0  0  0  0  0  0  0  0  0  0  0
    1.1600  -11.8372    0.0000 C    0  0  0  0  0  0  0  0  0  0  0  0
    3.0066   -2.1070    0.0000 C    0  0  0  0  0  0  0  0  0  0  0  0
    0.2486   -2.3201    0.0000 C    0  0  0  0  0  0  0  0  0  0  0  0
    7.0786   -2.4029    0.0000 C    0  0  0  0  0  0  0  0  0  0  0  0
    4.4863   -6.6998    0.0000 Cu   0  2  0  0  0  0  0  0  0  0  0  0
   10.4049   -0.2131    0.0000 Na   0  3  0  0  0  0  0  0  0  0  0  0
   11.1861   -4.7585    0.0000 Na   0  3  0  0  0  0  0  0  0  0  0  0
   10.2983  -10.5706    0.0000 Na   0  3  0  0  0  0  0  0  0  0  0  0
  1  3  2  0  0  0  0
  1  4  1  0  0  0  0
  1  5  1  0  0  0  0
  2  3  1  0  0  0  0
  2  6  2  0  0  0  0
  2 23  1  0  0  0  0
  3 26  1  0  0  0  0
  4 13  2  0  0  0  0
  4 24  1  0  0  0  0
  5  7  1  0  0  0  0
  6 12  1  0  0  0  0
  7 17  2  0  0  0  0
  7 13  1  0  0  0  0
  8 18  1  0  0  0  0
  8 14  1  0  0  0  0
  8 16  2  0  0  0  0
  9 15  1  0  0  0  0
  9 18  2  0  0  0  0
  9 21  1  0  0  0  0
 10 17  1  0  0  0  0
 10 15  2  0  0  0  0
 10 22  1  0  0  0  0
 11 19  1  0  0  0  0
 11 14  1  0  0  0  0
 11 20  2  0  0  0  0
 12 19  2  0  0  0  0
 12 25  1  0  0  0  0
 13 39  1  0  0  0  0
 16 20  1  0  0  0  0
 16 29  1  0  0  0  0
 20 42  1  0  0  0  0
 21 22  2  0  0  0  0
 21 40  1  0  0  0  0
 22 37  1  0  0  0  0
 23 25  1  0  0  0  0
 23 27  1  0  0  0  0
 24 31  2  0  0  0  0
 24 35  1  0  0  0  0
 25 44  1  0  0  0  0
 26 28  1  0  0  0  0
 27 34  1  0  0  0  0
 28 32  2  0  0  0  0
 28 36  1  0  0  0  0
 29 43  2  0  0  0  0
 30 34  1  0  0  0  0
 30 33  2  0  0  0  0
 30 38  1  0  0  0  0
 37 41  1  0  0  0  0
M  END
> <ID>
11320

> <Formula>
C34H31CuN4Na3O6

> <FW>
724.1484 (591.6359+63.5449+22.9892+22.9892+22.9892)

> <DSSTox_CID>
25956

> <DSSTox_RID>
81252

> <DSSTox_GSID>
45956

> <DSSTox_FileID_Sort>
5933

> <TS_ChemName>
Chlorophyllide Cu complex Na salt

> <TS_ChemName_Synonyms>


> <TS_CASRN>
11006-34-1

> <CASRN_ChemName_Relationship>
primary

> <TS_Description>
single chemical compound

> <ChemNote>
tautomers; parent [744956-10-3]

> <STRUCTURE_Shown>
tested chemical

> <STRUCTURE_Formula>
C34H31CuN4Na3O6

> <STRUCTURE_MW>
724.1484

> <STRUCTURE_ChemType>
organometallic

> <STRUCTURE_DefinedOrganicForm>


> <STRUCTURE_IUPAC>
copper(2+) sodium 3-(2-carboxylatoethyl)-5-(carboxylatomethyl)-17-ethenyl-12-ethyl-2,8,13,18-tetramethyl-2H,3H-porphine-22,24-diide-7-carboxylate (1:3:1)

> <STRUCTURE_SMILES>
[Cu+2].[Na+].[Na+].[Na+].[O-]C(=O)c1c(C)c2[n-]c1c(CC([O-])=O)c5nc(cc4[n-]c(cc3nc(c2)C(CC)=C3C)c(C=C)c4C)C(C)C5CCC([O-])=O

> <STRUCTURE_SMILES_Desalt>
O=C(O)c5c2nc(cc4nc(cc3nc(cc1nc(C(CCC(=O)O)C1C)c2CC(=O)O)c(C)c3C=C)C(C)=C4CC)c5C

> <Substance_modify_yyyymmdd>
20110930

$$$$
