11013-97-1
ChemmineR-0915142007XD

 44 48  0  0  1  0  0  0  0  0  1 V2000
   13.9010   -5.9606    0.0000 C   0  0  0  0  0  0  0  0  0  0  0  0
   15.0681   -6.6275    0.0000 C   0  0  0  0  0  0  0  0  0  0  0  0
   13.9010   -4.6684    0.0000 C   0  0  0  0  0  0  0  0  0  0  0  0
   15.0681   -4.0223    0.0000 O   0  0  0  0  0  0  0  0  0  0  0  0
   12.7756   -6.6275    0.0000 C   0  0  0  0  0  0  0  0  0  0  0  0
   16.2144   -4.6684    0.0000 C   0  0  0  0  0  0  0  0  0  0  0  0
   16.2144   -5.9606    0.0000 C   0  0  0  0  0  0  0  0  0  0  0  0
   11.6294   -4.6684    0.0000 C   0  0  0  0  0  0  0  0  0  0  0  0
   12.7756   -4.0223    0.0000 C   0  0  0  0  0  0  0  0  0  0  0  0
   10.3580   -3.9390    0.0000 O   0  0  0  0  0  0  0  0  0  0  0  0
   11.6294   -5.9606    0.0000 C   0  0  0  0  0  0  0  0  0  0  0  0
   17.3815   -4.0223    0.0000 C   0  0  0  0  0  0  0  0  0  0  0  0
   17.3815   -2.7093    0.0000 C   0  0  0  0  0  0  0  0  0  0  0  0
   18.5069   -2.0216    0.0000 C   0  0  0  0  0  0  0  0  0  0  0  0
   15.0681   -7.9822    0.0000 O   0  0  0  0  0  0  0  0  0  0  0  0
   19.6740   -2.7093    0.0000 C   0  0  0  0  0  0  0  0  0  0  0  0
   18.5069   -4.6684    0.0000 C   0  0  0  0  0  0  0  0  0  0  0  0
   19.6740   -4.0223    0.0000 C   0  0  0  0  0  0  0  0  0  0  0  0
   12.7756   -7.9822    0.0000 O   0  0  0  0  0  0  0  0  0  0  0  0
   18.5069   -0.6669    0.0000 O   0  0  0  0  0  0  0  0  0  0  0  0
   20.8411   -2.0216    0.0000 O   0  0  0  0  0  0  0  0  0  0  0  0
   20.8411   -0.6669    0.0000 C   0  0  0  0  0  0  0  0  0  0  0  0
    9.2118   -4.6059    0.0000 C   0  0  0  0  0  0  0  0  0  0  0  0
    9.2118   -5.9189    0.0000 C   0  0  0  0  0  0  0  0  0  0  0  0
    8.0447   -3.9390    0.0000 O   0  0  0  0  0  0  0  0  0  0  0  0
    8.0447   -6.5858    0.0000 C   0  0  0  0  0  0  0  0  0  0  0  0
    6.8984   -4.6059    0.0000 C   0  0  0  0  0  0  0  0  0  0  0  0
    6.8984   -5.9189    0.0000 C   0  0  0  0  0  0  0  0  0  0  0  0
   10.3580   -6.5858    0.0000 O   0  0  0  0  0  0  0  0  0  0  0  0
    8.0447   -7.9196    0.0000 O   0  0  0  0  0  0  0  0  0  0  0  0
    5.7313   -6.5858    0.0000 O   0  0  0  0  0  0  0  0  0  0  0  0
    5.7313   -3.9390    0.0000 C   0  0  0  0  0  0  0  0  0  0  0  0
    4.5850   -4.6059    0.0000 O   0  0  0  0  0  0  0  0  0  0  0  0
    3.4388   -3.9390    0.0000 C   0  0  0  0  0  0  0  0  0  0  0  0
    2.2925   -4.6059    0.0000 C   0  0  0  0  0  0  0  0  0  0  0  0
    3.4388   -2.6051    0.0000 O   0  0  0  0  0  0  0  0  0  0  0  0
    1.1463   -3.9390    0.0000 C   0  0  0  0  0  0  0  0  0  0  0  0
    2.2925   -1.9382    0.0000 C   0  0  0  0  0  0  0  0  0  0  0  0
    1.1463   -2.6051    0.0000 C   0  0  0  0  0  0  0  0  0  0  0  0
    2.2925   -5.9189    0.0000 O   0  0  0  0  0  0  0  0  0  0  0  0
    0.0000   -4.6059    0.0000 O   0  0  0  0  0  0  0  0  0  0  0  0
    0.0000   -1.9382    0.0000 O   0  0  0  0  0  0  0  0  0  0  0  0
    2.2925   -0.6044    0.0000 C   0  0  0  0  0  0  0  0  0  0  0  0
   19.6532    0.0000    0.0000 C   0  0  0  0  0  0  0  0  0  0  0  0
  1  2  1  0  0  0  0
  1  3  2  0  0  0  0
  1  5  1  0  0  0  0
  2  7  1  0  0  0  0
  2 15  2  0  0  0  0
  3  4  1  0  0  0  0
  3  9  1  0  0  0  0
  4  6  1  0  0  0  0
  5 11  2  0  0  0  0
  5 19  1  0  0  0  0
  6 12  1  6  0  0  0
  6  7  1  0  0  0  0
  8 11  1  0  0  0  0
  8 10  1  0  0  0  0
  8  9  2  0  0  0  0
 23 10  1  1  0  0  0
 12 13  2  0  0  0  0
 12 17  1  0  0  0  0
 13 14  1  0  0  0  0
 14 20  1  0  0  0  0
 14 16  2  0  0  0  0
 16 18  1  0  0  0  0
 16 21  1  0  0  0  0
 17 18  2  0  0  0  0
 20 44  1  0  0  0  0
 21 22  1  0  0  0  0
 23 24  1  0  0  0  0
 23 25  1  0  0  0  0
 24 26  1  0  0  0  0
 24 29  1  6  0  0  0
 25 27  1  0  0  0  0
 26 28  1  0  0  0  0
 26 30  1  1  0  0  0
 27 28  1  0  0  0  0
 27 32  1  1  0  0  0
 28 31  1  6  0  0  0
 32 33  1  0  0  0  0
 34 33  1  1  0  0  0
 34 35  1  0  0  0  0
 34 36  1  0  0  0  0
 35 37  1  0  0  0  0
 35 40  1  6  0  0  0
 36 38  1  0  0  0  0
 37 39  1  0  0  0  0
 37 41  1  6  0  0  0
 38 39  1  0  0  0  0
 38 43  1  6  0  0  0
 39 42  1  1  0  0  0
M  END
> <ID>
807

> <Formula>
C29H36O15

> <FW>
624.5871

> <DSSTox_CID>
841

> <DSSTox_RID>
75821

> <DSSTox_GSID>
20841

> <DSSTox_FileID_Sort>
505

> <TS_ChemName>
Methyl hesperidin

> <TS_ChemName_Synonyms>


> <TS_CASRN>
11013-97-1

> <CASRN_ChemName_Relationship>
primary

> <TS_Description>
single chemical compound

> <ChemNote>
absolute stereochem

> <STRUCTURE_Shown>
tested chemical

> <STRUCTURE_Formula>
C29H36O15

> <STRUCTURE_MW>
624.5871

> <STRUCTURE_ChemType>
defined organic

> <STRUCTURE_DefinedOrganicForm>
parent

> <STRUCTURE_IUPAC>
(2S)-2-(3,4-dimethoxyphenyl)-5-hydroxy-4-oxo-3,4-dihydro-2H-chromen-7-yl 6-O-(6-deoxy-alpha-L-mannopyranosyl)-beta-D-glucopyranoside

> <STRUCTURE_SMILES>
COc1ccc(cc1OC)[C@@H]2CC(=O)c3c(O)cc(cc3O2)O[C@@H]5O[C@H](CO[C@@H]4O[C@@H](C)[C@H](O)[C@@H](O)[C@H]4O)[C@@H](O)[C@H](O)[C@H]5O

> <STRUCTURE_SMILES_Desalt>
COc1ccc(cc1OC)[C@@H]2CC(=O)c3c(O)cc(cc3O2)O[C@@H]5O[C@H](CO[C@@H]4O[C@@H](C)[C@H](O)[C@@H](O)[C@H]4O)[C@@H](O)[C@H](O)[C@H]5O

> <Substance_modify_yyyymmdd>
20080429

$$$$
