110235-47-7
ChemmineR-0915142007XD

 17 18  0  0  0  0  0  0  0  0  1 V2000
    4.6015   -1.3266    0.0000 N   0  0  0  0  0  0  0  0  0  0  0  0
    5.7622   -3.3268    0.0000 N   0  0  0  0  0  0  0  0  0  0  0  0
    5.7622   -1.9795    0.0000 C   0  0  0  0  0  0  0  0  0  0  0  0
    3.4511   -3.3268    0.0000 C   0  0  0  0  0  0  0  0  0  0  0  0
    3.4511   -1.9795    0.0000 C   0  0  0  0  0  0  0  0  0  0  0  0
    4.6015   -3.9797    0.0000 C   0  0  0  0  0  0  0  0  0  0  0  0
    6.9126   -1.3266    0.0000 N   0  0  0  0  0  0  0  0  0  0  0  0
    4.6015   -5.3062    0.0000 C   0  0  0  0  0  0  0  0  0  0  0  0
    8.0630   -1.9795    0.0000 C   0  0  0  0  0  0  0  0  0  0  0  0
    9.1926   -1.3266    0.0000 C   0  0  0  0  0  0  0  0  0  0  0  0
    8.0630   -3.3268    0.0000 C   0  0  0  0  0  0  0  0  0  0  0  0
   10.3637   -1.9795    0.0000 C   0  0  0  0  0  0  0  0  0  0  0  0
    9.1926   -3.9797    0.0000 C   0  0  0  0  0  0  0  0  0  0  0  0
   10.3637   -3.3268    0.0000 C   0  0  0  0  0  0  0  0  0  0  0  0
    2.3008   -1.3266    0.0000 C   0  0  0  0  0  0  0  0  0  0  0  0
    1.1504   -0.6529    0.0000 C   0  0  0  0  0  0  0  0  0  0  0  0
    0.0000    0.0000    0.0000 C   0  0  0  0  0  0  0  0  0  0  0  0
  1  3  2  0  0  0  0
  1  5  1  0  0  0  0
  2  3  1  0  0  0  0
  2  6  2  0  0  0  0
  3  7  1  0  0  0  0
  4  5  2  0  0  0  0
  4  6  1  0  0  0  0
  5 15  1  0  0  0  0
  6  8  1  0  0  0  0
  7  9  1  0  0  0  0
  9 10  2  0  0  0  0
  9 11  1  0  0  0  0
 10 12  1  0  0  0  0
 11 13  2  0  0  0  0
 12 14  2  0  0  0  0
 13 14  1  0  0  0  0
 15 16  3  0  0  0  0
 16 17  1  0  0  0  0
M  END
> <ID>
9052

> <Formula>
C14H13N3

> <FW>
223.2731

> <DSSTox_CID>
22121

> <DSSTox_RID>
79928

> <DSSTox_GSID>
42121

> <DSSTox_FileID_Sort>
4610

> <TS_ChemName>
Mepanipyrim

> <TS_ChemName_Synonyms>


> <TS_CASRN>
110235-47-7

> <CASRN_ChemName_Relationship>
primary

> <TS_Description>
single chemical compound

> <ChemNote>


> <STRUCTURE_Shown>
tested chemical

> <STRUCTURE_Formula>
C14H13N3

> <STRUCTURE_MW>
223.2731

> <STRUCTURE_ChemType>
defined organic

> <STRUCTURE_DefinedOrganicForm>
parent

> <STRUCTURE_IUPAC>
4-methyl-N-phenyl-6-(prop-1-yn-1-yl)pyrimidin-2-amine

> <STRUCTURE_SMILES>
Cc2cc(nc(Nc1ccccc1)n2)C#CC

> <STRUCTURE_SMILES_Desalt>
Cc2cc(nc(Nc1ccccc1)n2)C#CC

> <Substance_modify_yyyymmdd>
20080825

$$$$
