11024-24-1
ChemmineR-0915142007XD

 92102  0  0  1  0  0  0  0  0  1 V2000
   12.5609   -6.1512    0.0000 C   0  0  0  0  0  0  0  0  0  0  0  0
   12.5609   -7.4435    0.0000 C   0  0  0  0  0  0  0  0  0  0  0  0
   13.6723   -8.1155    0.0000 C   0  0  0  0  0  0  0  0  0  0  0  0
   13.6723   -5.5051    0.0000 C   0  0  0  0  0  0  0  0  0  0  0  0
   14.7836   -7.4435    0.0000 C   0  0  0  0  0  0  0  0  0  0  0  0
   15.9208   -8.0896    0.0000 C   0  0  0  0  0  0  0  0  0  0  0  0
   17.0322   -7.2626    0.0000 C   0  0  0  0  0  0  0  0  0  0  0  0
   14.7836   -6.1512    0.0000 C   0  0  0  0  0  0  0  0  0  0  0  0
   17.0063   -6.1512    0.0000 C   0  0  0  0  0  0  0  0  0  0  0  0
   17.0063   -3.5150    0.0000 C   0  0  0  0  0  0  0  0  0  0  0  0
   15.9208   -4.1094    0.0000 C   0  0  0  0  0  0  0  0  0  0  0  0
   15.8691   -5.5051    0.0000 C   0  0  0  0  0  0  0  0  0  0  0  0
   18.1435   -4.1870    0.0000 C   0  0  0  0  0  0  0  0  0  0  0  0
   18.1435   -5.4792    0.0000 C   0  0  0  0  0  0  0  0  0  0  0  0
   20.4179   -5.4792    0.0000 C   0  0  0  0  0  0  0  0  0  0  0  0
   11.4495   -8.0896    0.0000 O   0  0  0  0  0  0  0  0  0  0  0  0
   21.3484   -6.3838    0.0000 O   0  0  0  0  0  0  0  0  0  0  0  0
   19.2807   -3.5150    0.0000 C   0  0  0  0  0  0  0  0  0  0  0  0
   19.3066   -2.1969    0.0000 C   0  0  0  0  0  0  0  0  0  0  0  0
   20.4179   -4.1870    0.0000 C   0  0  0  0  0  0  0  0  0  0  0  0
   19.2807   -4.6263    0.0000 H   0  0  0  0  0  0  0  0  0  0  0  0
   20.4179   -2.8947    0.0000 H   0  0  0  0  0  0  0  0  0  0  0  0
   14.7836   -8.7099    0.0000 H   0  0  0  0  0  0  0  0  0  0  0  0
   15.8691   -6.7715    0.0000 H   0  0  0  0  0  0  0  0  0  0  0  0
   11.4495   -5.5051    0.0000 O   0  0  0  0  0  0  0  0  0  0  0  0
   22.3046   -1.1630    0.0000 O   0  0  0  0  0  0  0  0  0  0  0  0
   21.5551   -2.1969    0.0000 C   0  0  0  0  0  0  0  0  0  0  0  0
   22.5373   -1.8867    0.0000 C   0  0  0  0  0  0  0  0  0  0  0  0
   23.9846   -2.3261    0.0000 C   0  0  0  0  0  0  0  0  0  0  0  0
   24.6049   -1.1889    0.0000 C   0  0  0  0  0  0  0  0  0  0  0  0
   23.4935   -1.5766    0.0000 C   0  0  0  0  0  0  0  0  0  0  0  0
   24.6049    0.0000    0.0000 H   0  0  0  0  0  0  0  0  0  0  0  0
   21.5293   -3.5408    0.0000 O   0  0  0  0  0  0  0  0  0  0  0  0
   17.0063   -4.8590    0.0000 H   0  0  0  0  0  0  0  0  0  0  0  0
   18.1435   -6.7457    0.0000 H   0  0  0  0  0  0  0  0  0  0  0  0
    1.1114  -15.6882    0.0000 C   0  0  0  0  0  0  0  0  0  0  0  0
    1.1114  -16.9546    0.0000 C   0  0  0  0  0  0  0  0  0  0  0  0
    2.2227  -17.6266    0.0000 C   0  0  0  0  0  0  0  0  0  0  0  0
    3.3599  -16.9546    0.0000 C   0  0  0  0  0  0  0  0  0  0  0  0
    3.3599  -15.6882    0.0000 C   0  0  0  0  0  0  0  0  0  0  0  0
    2.2227  -15.0421    0.0000 O   0  0  0  0  0  0  0  0  0  0  0  0
    2.2227  -18.8930    0.0000 O   0  0  0  0  0  0  0  0  0  0  0  0
    0.0000  -17.6008    0.0000 O   0  0  0  0  0  0  0  0  0  0  0  0
    4.4713  -17.6008    0.0000 O   0  0  0  0  0  0  0  0  0  0  0  0
    3.6701  -11.2945    0.0000 C   0  0  0  0  0  0  0  0  0  0  0  0
    3.6701  -12.6126    0.0000 C   0  0  0  0  0  0  0  0  0  0  0  0
    4.7556  -13.2329    0.0000 C   0  0  0  0  0  0  0  0  0  0  0  0
    5.8669  -12.6126    0.0000 C   0  0  0  0  0  0  0  0  0  0  0  0
    5.8669  -11.2945    0.0000 C   0  0  0  0  0  0  0  0  0  0  0  0
    4.7556  -10.6742    0.0000 O   0  0  0  0  0  0  0  0  0  0  0  0
    2.5587  -10.6742    0.0000 C   0  0  0  0  0  0  0  0  0  0  0  0
    4.7297  -14.5252    0.0000 O   0  0  0  0  0  0  0  0  0  0  0  0
    2.5587   -9.3819    0.0000 O   0  0  0  0  0  0  0  0  0  0  0  0
    2.5587  -13.2070    0.0000 O   0  0  0  0  0  0  0  0  0  0  0  0
    8.0896   -8.7099    0.0000 C   0  0  0  0  0  0  0  0  0  0  0  0
    8.0896  -10.0280    0.0000 C   0  0  0  0  0  0  0  0  0  0  0  0
    9.2010  -10.6742    0.0000 C   0  0  0  0  0  0  0  0  0  0  0  0
   10.3382  -10.0280    0.0000 C   0  0  0  0  0  0  0  0  0  0  0  0
   10.3382   -8.7099    0.0000 C   0  0  0  0  0  0  0  0  0  0  0  0
    9.2010   -8.0896    0.0000 O   0  0  0  0  0  0  0  0  0  0  0  0
    6.9783   -8.0896    0.0000 C   0  0  0  0  0  0  0  0  0  0  0  0
    9.2010  -11.9665    0.0000 O   0  0  0  0  0  0  0  0  0  0  0  0
    6.9783  -10.6742    0.0000 O   0  0  0  0  0  0  0  0  0  0  0  0
   11.4495  -10.6742    0.0000 O   0  0  0  0  0  0  0  0  0  0  0  0
    6.9783   -6.7974    0.0000 O   0  0  0  0  0  0  0  0  0  0  0  0
   15.5848  -16.3085    0.0000 C   0  0  0  0  0  0  0  0  0  0  0  0
   16.6962  -15.6882    0.0000 C   0  0  0  0  0  0  0  0  0  0  0  0
   16.7220  -14.3701    0.0000 C   0  0  0  0  0  0  0  0  0  0  0  0
   15.5848  -13.7498    0.0000 C   0  0  0  0  0  0  0  0  0  0  0  0
   14.4735  -14.3701    0.0000 C   0  0  0  0  0  0  0  0  0  0  0  0
   14.4735  -15.6882    0.0000 O   0  0  0  0  0  0  0  0  0  0  0  0
   15.5848  -17.6008    0.0000 C   0  0  0  0  0  0  0  0  0  0  0  0
   17.8075  -13.7756    0.0000 O   0  0  0  0  0  0  0  0  0  0  0  0
   17.7817  -16.3085    0.0000 O   0  0  0  0  0  0  0  0  0  0  0  0
   15.5848  -12.4575    0.0000 O   0  0  0  0  0  0  0  0  0  0  0  0
   14.4735  -18.2211    0.0000 O   0  0  0  0  0  0  0  0  0  0  0  0
    9.9764  -16.6186    0.0000 C   0  0  0  0  0  0  0  0  0  0  0  0
   11.1136  -15.9984    0.0000 C   0  0  0  0  0  0  0  0  0  0  0  0
   11.1136  -14.6802    0.0000 C   0  0  0  0  0  0  0  0  0  0  0  0
    9.9764  -14.0341    0.0000 C   0  0  0  0  0  0  0  0  0  0  0  0
    8.8650  -14.6802    0.0000 C   0  0  0  0  0  0  0  0  0  0  0  0
    8.8650  -15.9725    0.0000 O   0  0  0  0  0  0  0  0  0  0  0  0
    9.9764  -17.8851    0.0000 C   0  0  0  0  0  0  0  0  0  0  0  0
   12.6643  -13.8015    0.0000 O   0  0  0  0  0  0  0  0  0  0  0  0
    6.8749  -13.7756    0.0000 O   0  0  0  0  0  0  0  0  0  0  0  0
   12.1991  -16.6186    0.0000 O   0  0  0  0  0  0  0  0  0  0  0  0
    9.9764  -12.7677    0.0000 O   0  0  0  0  0  0  0  0  0  0  0  0
    8.8650  -18.5312    0.0000 O   0  0  0  0  0  0  0  0  0  0  0  0
   14.7836   -4.8590    0.0000 C   0  0  0  0  0  0  0  0  0  0  0  0
   18.1435   -2.8947    0.0000 C   0  0  0  0  0  0  0  0  0  0  0  0
   18.4020   -1.2923    0.0000 C   0  0  0  0  0  0  0  0  0  0  0  0
   25.8455   -1.5249    0.0000 C   0  0  0  0  0  0  0  0  0  0  0  0
  1  4  1  0  0  0  0
  1  2  1  0  0  0  0
  1 25  1  6  0  0  0
  2  3  1  0  0  0  0
  2 16  1  1  0  0  0
  3  5  1  0  0  0  0
  4  8  1  0  0  0  0
  5  8  1  0  0  0  0
  5  6  1  0  0  0  0
  5 23  1  6  0  0  0
  6  7  1  0  0  0  0
  7  9  1  0  0  0  0
  8 12  1  0  0  0  0
  8 89  1  1  0  0  0
  9 12  1  0  0  0  0
  9 14  1  0  0  0  0
  9 34  1  1  0  0  0
 10 13  1  0  0  0  0
 10 11  1  0  0  0  0
 11 12  1  0  0  0  0
 12 24  1  6  0  0  0
 13 14  1  0  0  0  0
 13 18  1  0  0  0  0
 13 90  1  1  0  0  0
 14 15  1  0  0  0  0
 14 35  1  6  0  0  0
 15 20  1  0  0  0  0
 15 17  1  1  0  0  0
 59 16  1  1  0  0  0
 18 19  1  0  0  0  0
 18 20  1  0  0  0  0
 18 21  1  6  0  0  0
 19 91  1  6  0  0  0
 19 27  1  0  0  0  0
 20 22  1  6  0  0  0
 20 33  1  0  0  0  0
 27 26  1  6  0  0  0
 26 31  1  0  0  0  0
 27 28  1  0  0  0  0
 27 33  1  0  0  0  0
 28 29  1  0  0  0  0
 29 30  1  0  0  0  0
 30 31  1  0  0  0  0
 30 92  1  6  0  0  0
 30 32  1  0  0  0  0
 36 41  1  0  0  0  0
 36 37  1  0  0  0  0
 37 38  1  0  0  0  0
 37 43  1  6  0  0  0
 38 39  1  0  0  0  0
 38 42  1  1  0  0  0
 39 40  1  0  0  0  0
 39 44  1  6  0  0  0
 40 41  1  0  0  0  0
 40 52  1  1  0  0  0
 45 50  1  0  0  0  0
 45 46  1  0  0  0  0
 45 51  1  1  0  0  0
 46 47  1  0  0  0  0
 46 54  1  6  0  0  0
 47 48  1  0  0  0  0
 47 52  1  1  0  0  0
 48 49  1  0  0  0  0
 48 85  1  6  0  0  0
 49 50  1  0  0  0  0
 49 63  1  1  0  0  0
 51 53  1  0  0  0  0
 55 60  1  0  0  0  0
 55 56  1  0  0  0  0
 55 61  1  1  0  0  0
 56 57  1  0  0  0  0
 56 63  1  1  0  0  0
 57 58  1  0  0  0  0
 57 62  1  1  0  0  0
 58 59  1  0  0  0  0
 58 64  1  6  0  0  0
 59 60  1  0  0  0  0
 61 65  1  0  0  0  0
 66 71  1  0  0  0  0
 66 67  1  0  0  0  0
 66 72  1  1  0  0  0
 67 68  1  0  0  0  0
 67 74  1  6  0  0  0
 68 69  1  0  0  0  0
 68 73  1  1  0  0  0
 69 70  1  0  0  0  0
 69 75  1  6  0  0  0
 70 71  1  0  0  0  0
 70 84  1  1  0  0  0
 72 76  1  0  0  0  0
 77 82  1  0  0  0  0
 77 78  1  0  0  0  0
 77 83  1  1  0  0  0
 78 79  1  0  0  0  0
 78 86  1  6  0  0  0
 79 80  1  0  0  0  0
 79 84  1  1  0  0  0
 80 81  1  0  0  0  0
 80 87  1  6  0  0  0
 81 82  1  0  0  0  0
 81 85  1  1  0  0  0
 83 88  1  0  0  0  0
M  END
> <ID>
3998

> <Formula>
C56H92O29

> <FW>
1229.3123

> <DSSTox_CID>
5065

> <DSSTox_RID>
77648

> <DSSTox_GSID>
25065

> <DSSTox_FileID_Sort>
2331

> <TS_ChemName>
Digitonin

> <TS_ChemName_Synonyms>


> <TS_CASRN>
11024-24-1

> <CASRN_ChemName_Relationship>
primary

> <TS_Description>
single chemical compound

> <ChemNote>
stereochem

> <STRUCTURE_Shown>
tested chemical

> <STRUCTURE_Formula>
C56H92O29

> <STRUCTURE_MW>
1229.3123

> <STRUCTURE_ChemType>
defined organic

> <STRUCTURE_DefinedOrganicForm>
parent

> <STRUCTURE_IUPAC>
(2alpha,3beta,5alpha,15beta,25R)-2,15-dihydroxyspirostan-3-yl beta-D-glucopyranosyl-(1->3)-beta-D-glucopyranosyl-(1->2)-[beta-D-xylopyranosyl-(1->3)]-beta-D-glucopyranosyl-(1->4)-beta-D-galactopyranoside

> <STRUCTURE_SMILES>
C[C@H]9[C@@H]%10[C@@]%11(C)CC[C@H]7[C@@H](CC[C@H]6C[C@@H](O[C@@H]5O[C@H](CO)[C@H](O[C@@H]4O[C@H](CO)[C@@H](O)[C@H](O[C@@H]1OC[C@@H](O)[C@H](O)[C@H]1O)[C@H]4O[C@@H]3O[C@H](CO)[C@@H](O)[C@H](O[C@@H]2O[C@H](CO)[C@@H](O)[C@H](O)[C@H]2O)[C@H]3O)[C@H](O)[C@H]5O

> <STRUCTURE_SMILES_Desalt>
C[C@H]9[C@@H]%10[C@@]%11(C)CC[C@H]7[C@@H](CC[C@H]6C[C@@H](O[C@@H]5O[C@H](CO)[C@H](O[C@@H]4O[C@H](CO)[C@@H](O)[C@H](O[C@@H]1OC[C@@H](O)[C@H](O)[C@H]1O)[C@H]4O[C@@H]3O[C@H](CO)[C@@H](O)[C@H](O[C@@H]2O[C@H](CO)[C@@H](O)[C@H](O)[C@H]2O)[C@H]3O)[C@H](O)[C@H]5O

> <Substance_modify_yyyymmdd>
20080429

$$$$
