110221-44-8
ChemmineR-0915142007XD

 33 34  0  0  1  0  0  0  0  0  1 V2000
   10.7431   -4.0617    0.0000 S    0  0  0  0  0  0  0  0  0  0  0  0
    9.9620   -2.9802    0.0000 C    0  0  0  0  0  0  0  0  0  0  0  0
   10.7431   -1.9107    0.0000 C    0  0  0  0  0  0  0  0  0  0  0  0
   12.0169   -2.3193    0.0000 C    0  0  0  0  0  0  0  0  0  0  0  0
   12.0169   -3.6531    0.0000 C    0  0  0  0  0  0  0  0  0  0  0  0
    6.6454   -4.2420    0.0000 N    0  0  0  0  0  0  0  0  0  0  0  0
    5.7321   -3.3287    0.0000 C    0  0  0  0  0  0  0  0  0  0  0  0
    5.7321   -1.9948    0.0000 C    0  0  0  0  0  0  0  0  0  0  0  0
    7.9792   -4.0377    0.0000 C    0  0  0  0  0  0  0  0  0  0  0  0
    8.6281   -2.9802    0.0000 C    0  0  0  0  0  0  0  0  0  0  0  0
    8.1475   -1.6463    0.0000 S    0  0  0  0  0  0  0  0  0  0  0  0
    6.8737   -1.2618    0.0000 C    0  0  0  0  0  0  0  0  0  0  0  0
    2.3193   -5.3355    0.0000 C    0  0  0  0  0  0  0  0  0  0  0  0
    2.3193   -4.0016    0.0000 C    0  0  0  0  0  0  0  0  0  0  0  0
    3.4489   -3.3287    0.0000 C    0  0  0  0  0  0  0  0  0  0  0  0
    3.4489   -1.9948    0.0000 C    0  0  0  0  0  0  0  0  0  0  0  0
    4.6265   -1.3339    0.0000 N    0  0  0  0  0  0  0  0  0  0  0  0
    3.4489   -6.0085    0.0000 C    0  0  0  0  0  0  0  0  0  0  0  0
    3.4489   -7.3303    0.0000 C    0  0  0  0  0  0  0  0  0  0  0  0
    2.4635   -8.0033    0.0000 C    0  0  0  0  0  0  0  0  0  0  0  0
    1.1777   -7.3303    0.0000 C    0  0  0  0  0  0  0  0  0  0  0  0
    1.1777   -6.0085    0.0000 C    0  0  0  0  0  0  0  0  0  0  0  0
    4.4463   -3.8094    0.0000 O    0  0  0  0  0  0  0  0  0  0  0  0
    6.2608   -5.5158    0.0000 C    0  0  0  0  0  0  0  0  0  0  0  0
    6.9217   -6.6694    0.0000 C    0  0  0  0  0  0  0  0  0  0  0  0
    6.2608   -7.8230    0.0000 O    0  0  0  0  0  0  0  0  0  0  0  0
    8.2556   -6.6694    0.0000 O    0  0  0  0  0  0  0  0  0  0  0  0
    2.3193   -1.3339    0.0000 C    0  0  0  0  0  0  0  0  0  0  0  0
    2.3193    0.0000    0.0000 O    0  0  0  0  0  0  0  0  0  0  0  0
    1.1777   -1.9948    0.0000 O    0  0  0  0  0  0  0  0  0  0  0  0
    1.1777   -3.3287    0.0000 C    0  0  0  0  0  0  0  0  0  0  0  0
    0.0000   -4.0016    0.0000 C    0  0  0  0  0  0  0  0  0  0  0  0
   10.3586   -6.0926    0.0000 Cl   0  0  0  0  0  0  0  0  0  0  0  0
  1  5  1  0  0  0  0
  1  2  1  0  0  0  0
 10  2  1  6  0  0  0
  2  3  2  0  0  0  0
  3  4  1  0  0  0  0
  4  5  2  0  0  0  0
  6  7  1  0  0  0  0
  6  9  1  0  0  0  0
  6 24  1  0  0  0  0
  7  8  1  0  0  0  0
  7 23  2  0  0  0  0
  8 17  1  1  0  0  0
  8 12  1  0  0  0  0
  9 10  1  0  0  0  0
 10 11  1  0  0  0  0
 11 12  1  0  0  0  0
 13 18  2  0  0  0  0
 13 22  1  0  0  0  0
 13 14  1  0  0  0  0
 14 15  1  0  0  0  0
 15 16  1  0  0  0  0
 16 17  1  0  0  0  0
 16 28  1  1  0  0  0
 18 19  1  0  0  0  0
 19 20  2  0  0  0  0
 20 21  1  0  0  0  0
 21 22  2  0  0  0  0
 24 25  1  0  0  0  0
 25 26  1  0  0  0  0
 25 27  2  0  0  0  0
 28 29  2  0  0  0  0
 28 30  1  0  0  0  0
 30 31  1  0  0  0  0
 31 32  1  0  0  0  0
M  END
> <ID>
12074

> <Formula>
C23H29ClN2O5S2

> <FW>
513.0698 (476.6088+36.4609)

> <DSSTox_CID>
26914

> <DSSTox_RID>
82012

> <DSSTox_GSID>
46914

> <DSSTox_FileID_Sort>
6693

> <TS_ChemName>
Temocapril hydrochloride

> <TS_ChemName_Synonyms>


> <TS_CASRN>
110221-44-8

> <CASRN_ChemName_Relationship>
primary

> <TS_Description>
single chemical compound

> <ChemNote>
stereochem; parent [111902-57-9]

> <STRUCTURE_Shown>
tested chemical

> <STRUCTURE_Formula>
C23H29ClN2O5S2

> <STRUCTURE_MW>
513.0698

> <STRUCTURE_ChemType>
defined organic

> <STRUCTURE_DefinedOrganicForm>
complex

> <STRUCTURE_IUPAC>
[(2S,6R)-6-{[(2S)-1-ethoxy-1-oxo-4-phenylbutan-2-yl]amino}-5-oxo-2-(thiophen-2-yl)-1,4-thiazepan-4-yl]acetic acid hydrochloride (1:1)

> <STRUCTURE_SMILES>
Cl.O=C(OCC)[C@@H](N[C@H]1CS[C@@H](CN(CC(=O)O)C1=O)c2cccs2)CCc3ccccc3

> <STRUCTURE_SMILES_Desalt>
O=C(OCC)[C@@H](N[C@H]1CS[C@@H](CN(CC(=O)O)C1=O)c2cccs2)CCc3ccccc3

> <Substance_modify_yyyymmdd>
20100107

$$$$
