110347-85-8
ChemmineR-0915142007XD

 14 14  0  0  1  0  0  0  0  0  1 V2000
    5.7640   -2.6745    0.0000 N   0  0  0  0  0  0  0  0  0  0  0  0
    5.7640   -4.0002    0.0000 C   0  0  0  0  0  0  0  0  0  0  0  0
    4.6112   -2.0001    0.0000 C   0  0  0  0  0  0  0  0  0  0  0  0
    4.6112   -4.6573    0.0000 C   0  0  0  0  0  0  0  0  0  0  0  0
    3.4584   -2.6745    0.0000 C   0  0  0  0  0  0  0  0  0  0  0  0
    3.4584   -4.0002    0.0000 C   0  0  0  0  0  0  0  0  0  0  0  0
    4.6112   -0.6686    0.0000 C   0  0  0  0  0  0  0  0  0  0  0  0
    5.7640    0.0000    0.0000 O   0  0  0  0  0  0  0  0  0  0  0  0
    3.4584   -0.0173    0.0000 O   0  0  0  0  0  0  0  0  0  0  0  0
    2.3056   -4.6573    0.0000 C   0  0  0  0  0  0  0  0  0  0  0  0
    1.1528   -3.9829    0.0000 P   0  0  0  0  0  0  0  0  0  0  0  0
    0.0000   -4.6573    0.0000 O   0  0  0  0  0  0  0  0  0  0  0  0
    1.1528   -2.6572    0.0000 O   0  0  0  0  0  0  0  0  0  0  0  0
    1.1528   -5.3144    0.0000 O   0  0  0  0  0  0  0  0  0  0  0  0
  1  2  1  0  0  0  0
  1  3  1  0  0  0  0
  2  4  1  0  0  0  0
  3  5  1  0  0  0  0
  3  7  1  1  0  0  0
  4  6  1  0  0  0  0
  5  6  1  0  0  0  0
  6 10  1  1  0  0  0
  7  8  2  0  0  0  0
  7  9  1  0  0  0  0
 10 11  1  0  0  0  0
 11 12  1  0  0  0  0
 11 13  1  0  0  0  0
 11 14  2  0  0  0  0
M  END
> <ID>
11117

> <Formula>
C7H14NO5P

> <FW>
223.1635

> <DSSTox_CID>
25675

> <DSSTox_RID>
81049

> <DSSTox_GSID>
45675

> <DSSTox_FileID_Sort>
5730

> <TS_ChemName>
Selfotel

> <TS_ChemName_Synonyms>


> <TS_CASRN>
110347-85-8

> <CASRN_ChemName_Relationship>
primary

> <TS_Description>
single chemical compound

> <ChemNote>


> <STRUCTURE_Shown>
tested chemical

> <STRUCTURE_Formula>
C7H14NO5P

> <STRUCTURE_MW>
223.1635

> <STRUCTURE_ChemType>
defined organic

> <STRUCTURE_DefinedOrganicForm>
parent

> <STRUCTURE_IUPAC>
(2S,4R)-4-(phosphonomethyl)piperidine-2-carboxylic acid

> <STRUCTURE_SMILES>
OP(=O)(O)C[C@H]1C[C@H](NCC1)C(=O)O

> <STRUCTURE_SMILES_Desalt>
OP(=O)(O)C[C@H]1C[C@H](NCC1)C(=O)O

> <Substance_modify_yyyymmdd>
20100107

$$$$
