110488-70-5
ChemmineR-0915142007XD

 27 29  0  0  0  0  0  0  0  0  1 V2000
    6.9188   -1.9936    0.0000 N    0  0  0  0  0  0  0  0  0  0  0  0
    9.2109   -0.6716    0.0000 O    0  0  0  0  0  0  0  0  0  0  0  0
    6.9188   -0.6716    0.0000 C    0  0  0  0  0  0  0  0  0  0  0  0
    8.0489   -2.6439    0.0000 C    0  0  0  0  0  0  0  0  0  0  0  0
    8.0489    0.0000    0.0000 C    0  0  0  0  0  0  0  0  0  0  0  0
    5.7568   -2.6439    0.0000 C    0  0  0  0  0  0  0  0  0  0  0  0
    5.7568   -3.9978    0.0000 C    0  0  0  0  0  0  0  0  0  0  0  0
    4.5841   -4.6481    0.0000 C    0  0  0  0  0  0  0  0  0  0  0  0
    3.4434   -3.9978    0.0000 C    0  0  0  0  0  0  0  0  0  0  0  0
    2.2921   -4.6481    0.0000 C    0  0  0  0  0  0  0  0  0  0  0  0
    3.4434   -2.6439    0.0000 C    0  0  0  0  0  0  0  0  0  0  0  0
    1.1514   -3.9978    0.0000 C    0  0  0  0  0  0  0  0  0  0  0  0
    2.2921   -1.9936    0.0000 C    0  0  0  0  0  0  0  0  0  0  0  0
    1.1514   -2.6439    0.0000 C    0  0  0  0  0  0  0  0  0  0  0  0
    0.0000   -1.9936    0.0000 Cl   0  0  0  0  0  0  0  0  0  0  0  0
    4.5841   -5.9807    0.0000 C    0  0  0  0  0  0  0  0  0  0  0  0
    5.7568   -6.6630    0.0000 C    0  0  0  0  0  0  0  0  0  0  0  0
    3.4434   -6.6630    0.0000 C    0  0  0  0  0  0  0  0  0  0  0  0
    5.7568   -7.9849    0.0000 C    0  0  0  0  0  0  0  0  0  0  0  0
    3.4434   -7.9849    0.0000 C    0  0  0  0  0  0  0  0  0  0  0  0
    4.5841   -8.6565    0.0000 C    0  0  0  0  0  0  0  0  0  0  0  0
    6.9188   -8.6565    0.0000 O    0  0  0  0  0  0  0  0  0  0  0  0
    6.9188   -9.9785    0.0000 C    0  0  0  0  0  0  0  0  0  0  0  0
    4.5841   -9.9785    0.0000 O    0  0  0  0  0  0  0  0  0  0  0  0
    3.4434  -10.6608    0.0000 C    0  0  0  0  0  0  0  0  0  0  0  0
    4.5841   -1.9936    0.0000 O    0  0  0  0  0  0  0  0  0  0  0  0
    9.2109   -1.9936    0.0000 C    0  0  0  0  0  0  0  0  0  0  0  0
  1  3  1  0  0  0  0
  1  4  1  0  0  0  0
  1  6  1  0  0  0  0
  2  5  1  0  0  0  0
  2 27  1  0  0  0  0
  3  5  1  0  0  0  0
  4 27  1  0  0  0  0
  6  7  1  0  0  0  0
  6 26  2  0  0  0  0
  7  8  2  3  0  0  0
  8  9  1  0  0  0  0
  8 16  1  0  0  0  0
  9 10  2  0  0  0  0
  9 11  1  0  0  0  0
 10 12  1  0  0  0  0
 11 13  2  0  0  0  0
 12 14  2  0  0  0  0
 13 14  1  0  0  0  0
 14 15  1  0  0  0  0
 16 17  2  0  0  0  0
 16 18  1  0  0  0  0
 17 19  1  0  0  0  0
 18 20  2  0  0  0  0
 19 21  2  0  0  0  0
 19 22  1  0  0  0  0
 20 21  1  0  0  0  0
 21 24  1  0  0  0  0
 22 23  1  0  0  0  0
 24 25  1  0  0  0  0
M  END
> <ID>
6823

> <Formula>
C21H22ClNO4

> <FW>
387.8567

> <DSSTox_CID>
14545

> <DSSTox_RID>
79165

> <DSSTox_GSID>
34545

> <DSSTox_FileID_Sort>
3847

> <TS_ChemName>
Dimethomorph

> <TS_ChemName_Synonyms>
Dimethomorph (Morpholine, 3-(3-(4-chlorophenyl)-3-(3,4-dimethoxyphenyl)-1-oxo-2-propenyl)-)

> <TS_CASRN>
110488-70-5

> <CASRN_ChemName_Relationship>
primary

> <TS_Description>
mixture of Z,E isomers

> <ChemNote>
mixture of Z,E isomers

> <STRUCTURE_Shown>
representative isomer in mixture

> <STRUCTURE_Formula>
C21H22ClNO4

> <STRUCTURE_MW>
387.8567

> <STRUCTURE_ChemType>
defined organic

> <STRUCTURE_DefinedOrganicForm>
parent

> <STRUCTURE_IUPAC>
3-(4-chlorophenyl)-3-(3,4-dimethoxyphenyl)-1-(morpholin-4-yl)prop-2-en-1-one

> <STRUCTURE_SMILES>
O=C(C=C(c1ccc(Cl)cc1)c2ccc(OC)c(OC)c2)N3CCOCC3

> <STRUCTURE_SMILES_Desalt>
O=C(C=C(c1ccc(Cl)cc1)c2ccc(OC)c(OC)c2)N3CCOCC3

> <Substance_modify_yyyymmdd>
20110425

$$$$
