1104-22-9
ChemmineR-0915142007XD

 30 31  0  0  0  0  0  0  0  0  1 V2000
   11.5262   -2.6599    0.0000 C    0  0  0  0  0  0  0  0  0  0  0  0
   11.5262   -3.9898    0.0000 C    0  0  0  0  0  0  0  0  0  0  0  0
   12.6661   -4.6611    0.0000 C    0  0  0  0  0  0  0  0  0  0  0  0
   12.6661   -5.9911    0.0000 C    0  0  0  0  0  0  0  0  0  0  0  0
   11.5262   -6.6497    0.0000 C    0  0  0  0  0  0  0  0  0  0  0  0
   10.3736   -5.9911    0.0000 C    0  0  0  0  0  0  0  0  0  0  0  0
   10.3736   -4.6611    0.0000 C    0  0  0  0  0  0  0  0  0  0  0  0
    9.2210   -6.6497    0.0000 C    0  0  0  0  0  0  0  0  0  0  0  0
    8.0683   -5.9911    0.0000 N    0  0  0  0  0  0  0  0  0  0  0  0
    6.9157   -6.6497    0.0000 C    0  0  0  0  0  0  0  0  0  0  0  0
    5.7758   -5.9911    0.0000 C    0  0  0  0  0  0  0  0  0  0  0  0
    5.7758   -4.6611    0.0000 N    0  0  0  0  0  0  0  0  0  0  0  0
    6.9157   -3.9898    0.0000 C    0  0  0  0  0  0  0  0  0  0  0  0
    8.0683   -4.6611    0.0000 C    0  0  0  0  0  0  0  0  0  0  0  0
    4.6231   -3.9898    0.0000 C    0  0  0  0  0  0  0  0  0  0  0  0
    4.6231   -2.6599    0.0000 C    0  0  0  0  0  0  0  0  0  0  0  0
    3.4579   -2.0013    0.0000 C    0  0  0  0  0  0  0  0  0  0  0  0
    3.4579   -0.6713    0.0000 C    0  0  0  0  0  0  0  0  0  0  0  0
    4.6231    0.0000    0.0000 C    0  0  0  0  0  0  0  0  0  0  0  0
    5.7758   -0.6713    0.0000 C    0  0  0  0  0  0  0  0  0  0  0  0
    5.7758   -2.0013    0.0000 C    0  0  0  0  0  0  0  0  0  0  0  0
    3.4579   -4.6611    0.0000 C    0  0  0  0  0  0  0  0  0  0  0  0
    3.4579   -5.9911    0.0000 C    0  0  0  0  0  0  0  0  0  0  0  0
    2.3052   -6.6497    0.0000 C    0  0  0  0  0  0  0  0  0  0  0  0
    1.1526   -5.9911    0.0000 C    0  0  0  0  0  0  0  0  0  0  0  0
    0.0000   -6.6497    0.0000 Cl   0  0  0  0  0  0  0  0  0  0  0  0
    1.1526   -4.6611    0.0000 C    0  0  0  0  0  0  0  0  0  0  0  0
    2.3052   -3.9898    0.0000 C    0  0  0  0  0  0  0  0  0  0  0  0
    3.8758   -8.0303    0.0000 Cl   0  0  0  0  0  0  0  0  0  0  0  0
    8.4357   -7.8657    0.0000 Cl   0  0  0  0  0  0  0  0  0  0  0  0
  1  2  1  0  0  0  0
  2  3  2  0  0  0  0
  2  7  1  0  0  0  0
  3  4  1  0  0  0  0
  4  5  2  0  0  0  0
  5  6  1  0  0  0  0
  6  7  2  0  0  0  0
  6  8  1  0  0  0  0
  8  9  1  0  0  0  0
  9 10  1  0  0  0  0
  9 14  1  0  0  0  0
 10 11  1  0  0  0  0
 11 12  1  0  0  0  0
 12 13  1  0  0  0  0
 12 15  1  0  0  0  0
 13 14  1  0  0  0  0
 15 16  1  0  0  0  0
 15 22  1  0  0  0  0
 16 17  2  0  0  0  0
 16 21  1  0  0  0  0
 17 18  1  0  0  0  0
 18 19  2  0  0  0  0
 19 20  1  0  0  0  0
 20 21  2  0  0  0  0
 22 23  2  0  0  0  0
 22 28  1  0  0  0  0
 23 24  1  0  0  0  0
 24 25  2  0  0  0  0
 25 26  1  0  0  0  0
 25 27  1  0  0  0  0
 27 28  2  0  0  0  0
M  END
> <ID>
10886

> <Formula>
C25H29Cl3N2

> <FW>
463.8702 (390.9483+36.4609+36.4609)

> <DSSTox_CID>
25348

> <DSSTox_RID>
80816

> <DSSTox_GSID>
45348

> <DSSTox_FileID_Sort>
5497

> <TS_ChemName>
Meclozine dihydrochloride

> <TS_ChemName_Synonyms>


> <TS_CASRN>
1104-22-9

> <CASRN_ChemName_Relationship>
primary

> <TS_Description>
single chemical compound

> <ChemNote>
parent [569-65-3]

> <STRUCTURE_Shown>
tested chemical

> <STRUCTURE_Formula>
C25H29Cl3N2

> <STRUCTURE_MW>
463.8702

> <STRUCTURE_ChemType>
defined organic

> <STRUCTURE_DefinedOrganicForm>
complex

> <STRUCTURE_IUPAC>
1-[(4-chlorophenyl)(phenyl)methyl]-4-(3-methylbenzyl)piperazine dihydrochloride

> <STRUCTURE_SMILES>
Cl.Cl.Cc1cccc(c1)CN2CCN(CC2)C(c3ccc(Cl)cc3)c4ccccc4

> <STRUCTURE_SMILES_Desalt>
Cc1cccc(c1)CN2CCN(CC2)C(c3ccc(Cl)cc3)c4ccccc4

> <Substance_modify_yyyymmdd>
20100107

$$$$
