11042-64-1
ChemmineR-0915142007XD

 47 52  0  0  1  0  0  0  0  0  1 V2000
   12.9765   -3.7458    0.0000 C   0  0  0  0  0  0  0  0  0  0  0  0
   11.7725   -4.4370    0.0000 C   0  0  0  0  0  0  0  0  0  0  0  0
   15.2730   -3.7458    0.0000 C   0  0  0  0  0  0  0  0  0  0  0  0
   15.2730   -2.4526    0.0000 C   0  0  0  0  0  0  0  0  0  0  0  0
   11.7725   -3.1215    0.0000 C   0  0  0  0  0  0  0  0  0  0  0  0
   14.1136   -4.4593    0.0000 C   0  0  0  0  0  0  0  0  0  0  0  0
   11.7725   -5.7748    0.0000 C   0  0  0  0  0  0  0  0  0  0  0  0
   10.6131   -6.4659    0.0000 C   0  0  0  0  0  0  0  0  0  0  0  0
   16.5662   -2.0290    0.0000 C   0  0  0  0  0  0  0  0  0  0  0  0
   12.9765   -2.4526    0.0000 C   0  0  0  0  0  0  0  0  0  0  0  0
    9.4537   -5.7748    0.0000 C   0  0  0  0  0  0  0  0  0  0  0  0
   10.6131   -3.7458    0.0000 C   0  0  0  0  0  0  0  0  0  0  0  0
   14.1136   -1.7837    0.0000 C   0  0  0  0  0  0  0  0  0  0  0  0
   16.5662   -4.1694    0.0000 C   0  0  0  0  0  0  0  0  0  0  0  0
   14.1136   -5.7748    0.0000 C   0  0  0  0  0  0  0  0  0  0  0  0
   12.9765   -6.4659    0.0000 C   0  0  0  0  0  0  0  0  0  0  0  0
    7.1125   -5.7525    0.0000 C   0  0  0  0  0  0  0  0  0  0  0  0
   17.3020   -3.0546    0.0000 C   0  0  0  0  0  0  0  0  0  0  0  0
    8.2719   -6.4659    0.0000 O   0  0  0  0  0  0  0  0  0  0  0  0
    5.9531   -6.4659    0.0000 C   0  0  0  0  0  0  0  0  0  0  0  0
    1.3601   -6.4436    0.0000 C   0  0  0  0  0  0  0  0  0  0  0  0
    4.8383   -5.7748    0.0000 C   0  0  0  0  0  0  0  0  0  0  0  0
    9.4537   -4.4370    0.0000 C   0  0  0  0  0  0  0  0  0  0  0  0
    1.3601   -7.7814    0.0000 C   0  0  0  0  0  0  0  0  0  0  0  0
    2.4749   -5.7748    0.0000 C   0  0  0  0  0  0  0  0  0  0  0  0
    7.1125   -4.4816    0.0000 O   0  0  0  0  0  0  0  0  0  0  0  0
   21.1592   -0.7135    0.0000 C   0  0  0  0  0  0  0  0  0  0  0  0
   19.9775   -0.0223    0.0000 C   0  0  0  0  0  0  0  0  0  0  0  0
    3.6566   -6.4659    0.0000 C   0  0  0  0  0  0  0  0  0  0  0  0
    2.4526   -8.4057    0.0000 C   0  0  0  0  0  0  0  0  0  0  0  0
   16.5662   -0.6466    0.0000 C   0  0  0  0  0  0  0  0  0  0  0  0
   15.2730   -5.1059    0.0000 C   0  0  0  0  0  0  0  0  0  0  0  0
   15.2730   -1.1148    0.0000 C   0  0  0  0  0  0  0  0  0  0  0  0
    3.6566   -7.7814    0.0000 C   0  0  0  0  0  0  0  0  0  0  0  0
    0.1784   -5.7525    0.0000 O   0  0  0  0  0  0  0  0  0  0  0  0
   11.0813   -7.4470    0.0000 C   0  0  0  0  0  0  0  0  0  0  0  0
   10.2563   -7.4693    0.0000 C   0  0  0  0  0  0  0  0  0  0  0  0
    0.0000   -8.5618    0.0000 O   0  0  0  0  0  0  0  0  0  0  0  0
   18.8404   -0.6912    0.0000 C   0  0  0  0  0  0  0  0  0  0  0  0
   17.6810    0.0000    0.0000 C   0  0  0  0  0  0  0  0  0  0  0  0
   21.1369   -2.0290    0.0000 C   0  0  0  0  0  0  0  0  0  0  0  0
   22.2964   -0.0446    0.0000 C   0  0  0  0  0  0  0  0  0  0  0  0
   15.4068    0.0000    0.0000 C   0  0  0  0  0  0  0  0  0  0  0  0
    0.1784   -4.1917    0.0000 C   0  0  0  0  0  0  0  0  0  0  0  0
   11.7948   -6.8227    0.0000 H   0  0  0  0  0  0  0  0  0  0  0  0
   14.1136   -3.1215    0.0000 H   0  0  0  0  0  0  0  0  0  0  0  0
   16.5662   -3.3667    0.0000 H   0  0  0  0  0  0  0  0  0  0  0  0
  1  2  1  0  0  0  0
  1  5  1  1  0  0  0
  1  6  1  0  0  0  0
  1 10  1  0  0  0  0
  2  7  1  0  0  0  0
  2 12  1  0  0  0  0
  2  5  1  1  0  0  0
  3  6  1  0  0  0  0
  3 14  1  0  0  0  0
  3 32  1  6  0  0  0
  3  4  1  0  0  0  0
  4 13  1  0  0  0  0
  4  9  1  0  0  0  0
  4 33  1  1  0  0  0
  6 15  1  0  0  0  0
  6 46  1  1  0  0  0
  7  8  1  0  0  0  0
  7 16  1  0  0  0  0
  7 45  1  6  0  0  0
  8 36  1  0  0  0  0
  8 37  1  0  0  0  0
  8 11  1  0  0  0  0
  9 31  1  0  0  0  0
  9 18  1  0  0  0  0
  9 47  1  6  0  0  0
 10 13  1  0  0  0  0
 11 23  1  0  0  0  0
 11 19  1  1  0  0  0
 12 23  1  0  0  0  0
 14 18  1  0  0  0  0
 15 16  1  0  0  0  0
 17 19  1  0  0  0  0
 17 20  1  0  0  0  0
 17 26  2  0  0  0  0
 20 22  2  0  0  0  0
 21 25  2  0  0  0  0
 21 35  1  0  0  0  0
 21 24  1  0  0  0  0
 22 29  1  0  0  0  0
 24 30  2  0  0  0  0
 24 38  1  0  0  0  0
 25 29  1  0  0  0  0
 27 28  2  0  0  0  0
 27 41  1  0  0  0  0
 27 42  1  0  0  0  0
 28 39  1  0  0  0  0
 29 34  2  0  0  0  0
 30 34  1  0  0  0  0
 31 40  1  0  0  0  0
 31 43  1  6  0  0  0
 35 44  1  0  0  0  0
 39 40  1  0  0  0  0
M  END
> <ID>
1044

> <Formula>
C40H58O4

> <FW>
602.8861

> <DSSTox_CID>
1084

> <DSSTox_RID>
75932

> <DSSTox_GSID>
21084

> <DSSTox_FileID_Sort>
616

> <TS_ChemName>
gamma-Oryzanol

> <TS_ChemName_Synonyms>


> <TS_CASRN>
11042-64-1

> <CASRN_ChemName_Relationship>
primary

> <TS_Description>
mixture or formulation

> <ChemNote>
mixture of ferulic acid esters of sterols and triterpene alcohols (Merck); structure shown believed to be active ingredient; stereochem

> <STRUCTURE_Shown>
representative component

> <STRUCTURE_Formula>
C40H58O4

> <STRUCTURE_MW>
602.8861

> <STRUCTURE_ChemType>
defined organic

> <STRUCTURE_DefinedOrganicForm>
parent

> <STRUCTURE_IUPAC>
(3beta,9beta)-9,19-cyclolanost-24-en-3-yl (2E)-3-(4-hydroxy-3-methoxyphenyl)prop-2-enoate

> <STRUCTURE_SMILES>
Oc1ccc(cc1OC)/C=C/C(=O)O[C@H]4CC[C@]63C[C@@]56CC[C@]2(C)[C@H](CC[C@@]2(C)[C@@H]5CC[C@H]3C4(C)C)[C@H](C)CC\C=C(/C)C

> <STRUCTURE_SMILES_Desalt>
Oc1ccc(cc1OC)/C=C/C(=O)O[C@H]4CC[C@]63C[C@@]56CC[C@]2(C)[C@H](CC[C@@]2(C)[C@@H]5CC[C@H]3C4(C)C)[C@H](C)CC\C=C(/C)C

> <Substance_modify_yyyymmdd>
20080429

$$$$
