11052-19-0
ChemmineR-0915142007XD

 61 66  0  0  1  0  0  0  0  0  2 V2000
   12.5864   -4.8149    0.0000 C    0  0  0  0  0  0  0  0  0  0  0  0
   11.4883   -6.8085    0.0000 C    0  0  0  0  0  0  0  0  0  0  0  0
   12.5864   -6.1496    0.0000 C    0  0  0  0  0  0  0  0  0  0  0  0
    9.1906   -6.8085    0.0000 C    0  0  0  0  0  0  0  0  0  0  0  0
   10.3732   -6.1496    0.0000 C    0  0  0  0  0  0  0  0  0  0  0  0
   11.4883   -4.1392    0.0000 C    0  0  0  0  0  0  0  0  0  0  0  0
   10.3732   -4.8149    0.0000 C    0  0  0  0  0  0  0  0  0  0  0  0
    9.1906   -8.1432    0.0000 C    0  0  0  0  0  0  0  0  0  0  0  0
   13.7859   -4.1392    0.0000 C    0  0  0  0  0  0  0  0  0  0  0  0
    8.0756   -8.7345    0.0000 C    0  0  0  0  0  0  0  0  0  0  0  0
   14.8841   -2.2132    0.0000 C    0  0  0  0  0  0  0  0  0  0  0  0
   13.7859   -2.8890    0.0000 C    0  0  0  0  0  0  0  0  0  0  0  0
   14.8841   -4.8149    0.0000 C    0  0  0  0  0  0  0  0  0  0  0  0
    4.5953   -9.5623    0.0000 O    0  0  0  0  0  0  0  0  0  0  0  0
    6.9774   -8.1432    0.0000 C    0  0  0  0  0  0  0  0  0  0  0  0
   11.4883   -8.1432    0.0000 C    0  0  0  0  0  0  0  0  0  0  0  0
   15.6274   -1.0306    0.0000 C    0  0  0  0  0  0  0  0  0  0  0  0
    8.0756   -6.1496    0.0000 C    0  0  0  0  0  0  0  0  0  0  0  0
   13.7859   -6.8085    0.0000 C    0  0  0  0  0  0  0  0  0  0  0  0
   10.3732   -8.7345    0.0000 C    0  0  0  0  0  0  0  0  0  0  0  0
    9.1906   -4.2236    0.0000 O    0  0  0  0  0  0  0  0  0  0  0  0
   14.8841   -6.1496    0.0000 C    0  0  0  0  0  0  0  0  0  0  0  0
    6.9774   -6.8085    0.0000 C    0  0  0  0  0  0  0  0  0  0  0  0
   15.9991   -2.8890    0.0000 C    0  0  0  0  0  0  0  0  0  0  0  0
   15.9991   -4.1392    0.0000 C    0  0  0  0  0  0  0  0  0  0  0  0
   15.0361    0.0000    0.0000 O    0  0  0  0  0  0  0  0  0  0  0  0
   11.4883   -5.6259    0.0000 C    0  0  0  0  0  0  0  0  0  0  0  0
    9.1906   -5.4738    0.0000 C    0  0  0  0  0  0  0  0  0  0  0  0
   12.6709   -7.3153    0.0000 C    0  0  0  0  0  0  0  0  0  0  0  0
   16.8945   -1.0306    0.0000 O    0  0  0  0  0  0  0  0  0  0  0  0
    7.6363   -9.9171    0.0000 C    0  0  0  0  0  0  0  0  0  0  0  0
    8.5317   -9.8495    0.0000 C    0  0  0  0  0  0  0  0  0  0  0  0
   14.0731   -1.0306    0.0000 C    0  0  0  0  0  0  0  0  0  0  0  0
   14.8841   -3.4803    0.0000 C    0  0  0  0  0  0  0  0  0  0  0  0
   10.2888   -7.2646    0.0000 H    0  0  0  0  0  0  0  0  0  0  0  0
   13.7859   -5.4738    0.0000 H    0  0  0  0  0  0  0  0  0  0  0  0
    4.5953  -10.8125    0.0000 C    0  0  0  0  0  0  0  0  0  0  0  0
    3.4803  -11.4883    0.0000 C    0  0  0  0  0  0  0  0  0  0  0  0
    5.7779  -11.4883    0.0000 O    0  0  0  0  0  0  0  0  0  0  0  0
    3.4803  -12.8230    0.0000 C    0  0  0  0  0  0  0  0  0  0  0  0
    5.7779  -12.8230    0.0000 C    0  0  0  0  0  0  0  0  0  0  0  0
    4.5953  -13.4818    0.0000 C    0  0  0  0  0  0  0  0  0  0  0  0
    2.2977  -13.4818    0.0000 O    0  0  0  0  0  0  0  0  0  0  0  0
    4.5953  -14.7996    0.0000 O    0  0  0  0  0  0  0  0  0  0  0  0
    6.8930  -13.4818    0.0000 C    0  0  0  0  0  0  0  0  0  0  0  0
    6.8930  -14.7996    0.0000 O    0  5  0  0  0  0  0  0  0  0  0  0
    8.0756  -12.8230    0.0000 O    0  0  0  0  0  0  0  0  0  0  0  0
    2.2977  -10.8125    0.0000 O    0  0  0  0  0  0  0  0  0  0  0  0
    2.2977   -9.4778    0.0000 C    0  0  0  0  0  0  0  0  0  0  0  0
    1.1319   -8.8189    0.0000 C    0  0  0  0  0  0  0  0  0  0  0  0
    3.4127   -8.8189    0.0000 O    0  0  0  0  0  0  0  0  0  0  0  0
    1.1319   -7.4843    0.0000 C    0  0  0  0  0  0  0  0  0  0  0  0
    3.4127   -7.4843    0.0000 C    0  0  0  0  0  0  0  0  0  0  0  0
    2.2977   -6.8085    0.0000 C    0  0  0  0  0  0  0  0  0  0  0  0
    0.0000   -9.4778    0.0000 O    0  0  0  0  0  0  0  0  0  0  0  0
    0.0000   -6.8085    0.0000 O    0  0  0  0  0  0  0  0  0  0  0  0
    2.2977   -5.4738    0.0000 O    0  0  0  0  0  0  0  0  0  0  0  0
    4.5953   -6.8085    0.0000 C    0  0  0  0  0  0  0  0  0  0  0  0
    4.5953   -5.4738    0.0000 O    0  0  0  0  0  0  0  0  0  0  0  0
    5.7779   -7.4843    0.0000 O    0  0  0  0  0  0  0  0  0  0  0  0
    8.3459  -15.2727    0.0000 Na   0  3  0  0  0  0  0  0  0  0  0  0
  1  3  1  0  0  0  0
  1  6  2  0  0  0  0
  1  9  1  0  0  0  0
  2  3  1  0  0  0  0
  2 16  1  0  0  0  0
  2 27  1  1  0  0  0
  2  5  1  0  0  0  0
  3 19  1  0  0  0  0
  3 29  1  6  0  0  0
  4  5  1  0  0  0  0
  4  8  1  0  0  0  0
  4 18  1  0  0  0  0
  4 28  1  1  0  0  0
  5  7  1  0  0  0  0
  5 35  1  6  0  0  0
  6  7  1  0  0  0  0
  7 21  2  0  0  0  0
  8 10  1  0  0  0  0
  8 20  1  0  0  0  0
  9 12  1  0  0  0  0
  9 13  1  0  0  0  0
  9 36  1  1  0  0  0
 10 31  1  0  0  0  0
 10 32  1  0  0  0  0
 10 15  1  0  0  0  0
 11 12  1  0  0  0  0
 11 17  1  1  0  0  0
 11 33  1  6  0  0  0
 11 24  1  0  0  0  0
 13 22  1  0  0  0  0
 13 25  1  0  0  0  0
 13 34  1  1  0  0  0
 15 14  1  1  0  0  0
 37 14  1  1  0  0  0
 15 23  1  0  0  0  0
 16 20  1  0  0  0  0
 17 26  2  0  0  0  0
 17 30  1  0  0  0  0
 18 23  1  0  0  0  0
 19 22  1  0  0  0  0
 24 25  1  0  0  0  0
 37 38  1  0  0  0  0
 37 39  1  0  0  0  0
 38 40  1  0  0  0  0
 38 48  1  1  0  0  0
 39 41  1  0  0  0  0
 40 42  1  0  0  0  0
 40 43  1  6  0  0  0
 41 42  1  0  0  0  0
 41 45  1  6  0  0  0
 42 44  1  1  0  0  0
 45 46  1  0  0  0  0
 45 47  2  0  0  0  0
 49 48  1  1  0  0  0
 49 50  1  0  0  0  0
 49 51  1  0  0  0  0
 50 52  1  0  0  0  0
 50 55  1  6  0  0  0
 51 53  1  0  0  0  0
 52 54  1  0  0  0  0
 52 56  1  1  0  0  0
 53 54  1  0  0  0  0
 53 58  1  1  0  0  0
 54 57  1  6  0  0  0
 58 59  1  0  0  0  0
 58 60  2  0  0  0  0
M  END
> <ID>
14009

> <Formula>
C42H61NaO16

> <FW>
844.9139 (821.9247+22.9892)

> <DSSTox_CID>
28951

> <DSSTox_RID>
83216

> <DSSTox_GSID>
49025

> <DSSTox_FileID_Sort>
7892

> <TS_ChemName>
Glycyrrhizic acid, monosodium salt

> <TS_ChemName_Synonyms>


> <TS_CASRN>
11052-19-0

> <CASRN_ChemName_Relationship>
primary

> <TS_Description>
single chemical compound

> <ChemNote>


> <STRUCTURE_Shown>
tested chemical

> <STRUCTURE_Formula>
C42H61NaO16

> <STRUCTURE_MW>
844.9139

> <STRUCTURE_ChemType>
defined organic

> <STRUCTURE_DefinedOrganicForm>
salt

> <STRUCTURE_IUPAC>
sodium (3beta,5xi)-30-hydroxy-11,30-dioxoolean-12-en-3-yl 2-O-beta-D-glucopyranuronosyl-alpha-D-glucopyranosiduronate

> <STRUCTURE_SMILES>
[Na+].O=C(O)[C@H]7O[C@@H](O[C@@H]6[C@@H](O)[C@H](O)[C@H](O[C@@H]6O[C@H]5CC[C@@]2(C)C(CC[C@@]1(C)[C@]3(C)CC[C@@]4(C)CC[C@@](C)(C[C@H]4C3=CC(=O)[C@@H]12)C(=O)O)C5(C)C)C([O-])=O)[C@H](O)[C@@H](O)[C@@H]7O

> <STRUCTURE_SMILES_Desalt>
O=C(O)[C@H]7O[C@@H](O[C@@H]6[C@@H](O)[C@H](O)[C@H](O[C@@H]6O[C@H]5CC[C@@]2(C)C(CC[C@@]1(C)[C@]3(C)CC[C@@]4(C)CC[C@@](C)(C[C@H]4C3=CC(=O)[C@@H]12)C(=O)O)C5(C)C)C(=O)O)[C@H](O)[C@@H](O)[C@@H]7O

> <Substance_modify_yyyymmdd>
20111204

$$$$
