11070-44-3
ChemmineR-0915142007XD

 12 13  0  0  0  0  0  0  0  0  1 V2000
    2.3106   -1.6847    0.0000 C   0  0  0  0  0  0  0  0  0  0  0  0
    2.3106   -3.0212    0.0000 C   0  0  0  0  0  0  0  0  0  0  0  0
    1.1577   -1.0259    0.0000 C   0  0  0  0  0  0  0  0  0  0  0  0
    1.1577   -3.6800    0.0000 C   0  0  0  0  0  0  0  0  0  0  0  0
    0.0000   -1.6847    0.0000 C   0  0  0  0  0  0  0  0  0  0  0  0
    0.0000   -3.0212    0.0000 C   0  0  0  0  0  0  0  0  0  0  0  0
    3.5812   -1.2706    0.0000 C   0  0  0  0  0  0  0  0  0  0  0  0
    4.3671   -2.3624    0.0000 O   0  0  0  0  0  0  0  0  0  0  0  0
    3.5812   -3.4353    0.0000 C   0  0  0  0  0  0  0  0  0  0  0  0
    3.9812    0.0000    0.0000 O   0  0  0  0  0  0  0  0  0  0  0  0
    3.9812   -4.7059    0.0000 O   0  0  0  0  0  0  0  0  0  0  0  0
    2.0894   -4.2871    0.0000 C   0  0  0  0  0  0  0  0  0  0  0  0
  1  3  2  0  0  0  0
  1  7  1  0  0  0  0
  1  2  1  0  0  0  0
  2  4  1  0  0  0  0
  2  9  1  0  0  0  0
  2 12  1  0  0  0  0
  3  5  1  0  0  0  0
  4  6  1  0  0  0  0
  5  6  1  0  0  0  0
  7  8  1  0  0  0  0
  7 10  2  0  0  0  0
  8  9  1  0  0  0  0
  9 11  2  0  0  0  0
M  END
> <ID>
5347

> <Formula>
C9H10O3

> <FW>
166.1739

> <DSSTox_CID>
7729

> <DSSTox_RID>
78551

> <DSSTox_GSID>
27729

> <DSSTox_FileID_Sort>
3234

> <TS_ChemName>
1,3-Isobenzofurandione, tetrahydromethyl-

> <TS_ChemName_Synonyms>


> <TS_CASRN>
11070-44-3

> <CASRN_ChemName_Relationship>
primary

> <TS_Description>
mixture or formulation

> <ChemNote>
positions of both, double bond and methyl group are variable; structure shown 3a-methyl-3a,4,5,6-tetrahydro-2-benzofuran-1,3-dione [26590-20-5]

> <STRUCTURE_Shown>
representative isomer in mixture

> <STRUCTURE_Formula>
C9H10O3

> <STRUCTURE_MW>
166.1739

> <STRUCTURE_ChemType>
defined organic

> <STRUCTURE_DefinedOrganicForm>
parent

> <STRUCTURE_IUPAC>
3a-methyl-3a,4,5,6-tetrahydro-2-benzofuran-1,3-dione

> <STRUCTURE_SMILES>
O=C1OC(=O)C2(C)CCCC=C12

> <STRUCTURE_SMILES_Desalt>
O=C1OC(=O)C2(C)CCCC=C12

> <Substance_modify_yyyymmdd>
20080429

$$$$
