110816-79-0
ChemmineR-0915142007XD

 48 51  0  0  1  0  0  0  0  0  1 V2000
   19.2889   -4.6100    0.0000 C   0  0  0  0  0  0  0  0  0  0  0  0
   18.6138   -3.4527    0.0000 C   0  0  0  0  0  0  0  0  0  0  0  0
   17.2828   -3.4527    0.0000 O   0  0  0  0  0  0  0  0  0  0  0  0
   16.6270   -2.2954    0.0000 C   0  0  0  0  0  0  0  0  0  0  0  0
   17.2828   -1.1380    0.0000 O   0  0  0  0  0  0  0  0  0  0  0  0
   15.2961   -2.2954    0.0000 C   0  0  0  0  0  0  0  0  0  0  0  0
   14.6210   -3.4527    0.0000 C   0  0  0  0  0  0  0  0  0  0  0  0
   13.2900   -3.4527    0.0000 C   0  0  0  0  0  0  0  0  0  0  0  0
   12.6342   -4.6100    0.0000 O   0  0  0  0  0  0  0  0  0  0  0  0
   12.6342   -2.2954    0.0000 C   0  0  0  0  0  0  0  0  0  0  0  0
   11.3033   -2.2954    0.0000 C   0  0  0  0  0  0  0  0  0  0  0  0
   10.6282   -3.4527    0.0000 O   0  0  0  0  0  0  0  0  0  0  0  0
    9.3165   -3.4720    0.0000 C   0  0  0  0  0  0  0  0  0  0  0  0
    8.6414   -4.6100    0.0000 C   0  0  0  0  0  0  0  0  0  0  0  0
    9.2972   -5.7674    0.0000 C   0  0  0  0  0  0  0  0  0  0  0  0
    8.6414   -6.9054    0.0000 O   0  0  0  0  0  0  0  0  0  0  0  0
    9.3165   -8.0628    0.0000 C   0  0  0  0  0  0  0  0  0  0  0  0
    8.6414   -9.2008    0.0000 C   0  0  0  0  0  0  0  0  0  0  0  0
    7.3105   -9.2008    0.0000 C   0  0  0  0  0  0  0  0  0  0  0  0
    6.6547   -8.0628    0.0000 O   0  0  0  0  0  0  0  0  0  0  0  0
    6.6354  -10.3581    0.0000 C   0  0  0  0  0  0  0  0  0  0  0  0
    7.3105  -11.5155    0.0000 C   0  0  0  0  0  0  0  0  0  0  0  0
    8.6414  -11.5155    0.0000 O   0  0  0  0  0  0  0  0  0  0  0  0
    9.3165  -10.3581    0.0000 C   0  0  0  0  0  0  0  0  0  0  0  0
   10.6475  -10.3581    0.0000 C   0  0  0  0  0  0  0  0  0  0  0  0
   11.3033   -9.2008    0.0000 C   0  0  0  0  0  0  0  0  0  0  0  0
   10.6475   -8.0628    0.0000 C   0  0  0  0  0  0  0  0  0  0  0  0
    6.6354  -12.6535    0.0000 C   0  0  0  0  0  0  0  0  0  0  0  0
    5.3044  -12.6535    0.0000 O   0  0  0  0  0  0  0  0  0  0  0  0
    7.3105  -13.8108    0.0000 O   0  0  0  0  0  0  0  0  0  0  0  0
    6.6354  -14.9682    0.0000 C   0  0  0  0  0  0  0  0  0  0  0  0
    7.3105  -16.1255    0.0000 C   0  0  0  0  0  0  0  0  0  0  0  0
    7.3105   -4.6100    0.0000 O   0  0  0  0  0  0  0  0  0  0  0  0
    6.6547   -5.7674    0.0000 C   0  0  0  0  0  0  0  0  0  0  0  0
    7.3105   -6.9054    0.0000 O   0  0  0  0  0  0  0  0  0  0  0  0
    5.3237   -5.7674    0.0000 C   0  0  0  0  0  0  0  0  0  0  0  0
    5.3237   -7.0983    0.0000 H   0  0  0  0  0  0  0  0  0  0  0  0
    5.3044   -4.4364    0.0000 N   0  0  0  0  0  0  0  0  0  0  0  0
    3.9928   -5.7674    0.0000 C   0  0  0  0  0  0  0  0  0  0  0  0
    3.3177   -4.6100    0.0000 C   0  0  0  0  0  0  0  0  0  0  0  0
    1.9868   -4.6100    0.0000 C   0  0  0  0  0  0  0  0  0  0  0  0
    1.3309   -3.4527    0.0000 C   0  0  0  0  0  0  0  0  0  0  0  0
    0.0000   -3.4527    0.0000 N   0  0  0  0  0  0  0  0  0  0  0  0
   10.6475   -1.1573    0.0000 C   0  0  0  0  0  0  0  0  0  0  0  0
   11.3226    0.0000    0.0000 C   0  0  0  0  0  0  0  0  0  0  0  0
   12.6342    0.0000    0.0000 C   0  0  0  0  0  0  0  0  0  0  0  0
   13.2900   -1.1380    0.0000 C   0  0  0  0  0  0  0  0  0  0  0  0
   14.6210   -1.1380    0.0000 O   0  0  0  0  0  0  0  0  0  0  0  0
  1  2  1  0  0  0  0
  2  3  1  0  0  0  0
  3  4  1  0  0  0  0
  4  5  2  0  0  0  0
  4  6  1  0  0  0  0
  6  7  2  0  0  0  0
  6 48  1  0  0  0  0
  7  8  1  0  0  0  0
  8  9  2  0  0  0  0
  8 10  1  0  0  0  0
 10 11  2  0  0  0  0
 10 47  1  0  0  0  0
 11 12  1  0  0  0  0
 11 44  1  0  0  0  0
 12 13  1  0  0  0  0
 13 14  1  0  0  0  0
 14 15  1  0  0  0  0
 14 33  1  0  0  0  0
 15 16  1  0  0  0  0
 16 17  1  0  0  0  0
 17 18  2  0  0  0  0
 17 27  1  0  0  0  0
 18 19  1  0  0  0  0
 18 24  1  0  0  0  0
 19 20  2  0  0  0  0
 19 21  1  0  0  0  0
 21 22  2  0  0  0  0
 22 23  1  0  0  0  0
 22 28  1  0  0  0  0
 23 24  1  0  0  0  0
 24 25  2  0  0  0  0
 25 26  1  0  0  0  0
 26 27  2  0  0  0  0
 28 29  2  0  0  0  0
 28 30  1  0  0  0  0
 30 31  1  0  0  0  0
 31 32  1  0  0  0  0
 33 34  1  0  0  0  0
 34 35  2  0  0  0  0
 34 36  1  0  0  0  0
 36 37  1  1  0  0  0
 36 38  1  0  0  0  0
 36 39  1  0  0  0  0
 39 40  1  0  0  0  0
 40 41  1  0  0  0  0
 41 42  1  0  0  0  0
 42 43  1  0  0  0  0
 44 45  2  0  0  0  0
 45 46  1  0  0  0  0
 46 47  2  0  0  0  0
 47 48  1  0  0  0  0
M  END
> <ID>
16026

> <Formula>
C33H36N2O12

> <FW>
652.6451

> <DSSTox_CID>
31409

> <DSSTox_RID>
97295

> <DSSTox_GSID>
57620

> <DSSTox_FileID_Sort>
8362

> <TS_ChemName>
Cromoglicate lisetil

> <TS_ChemName_Synonyms>


> <TS_CASRN>
110816-79-0

> <CASRN_ChemName_Relationship>
primary

> <TS_Description>
single chemical compound

> <ChemNote>


> <STRUCTURE_Shown>
tested chemical

> <STRUCTURE_Formula>
C33H36N2O12

> <STRUCTURE_MW>
652.6451

> <STRUCTURE_ChemType>
defined organic

> <STRUCTURE_DefinedOrganicForm>
parent

> <STRUCTURE_IUPAC>
diethyl 5,5'-{[2-(L-lysyloxy)propane-1,3-diyl]bis(oxy)}bis(4-oxo-4H-chromene-2-carboxylate)

> <STRUCTURE_SMILES>
O=C(OCC)C=4Oc3cccc(OCC(OC(=O)[C@@H](N)CCCCN)COc1cccc2OC(=CC(=O)c12)C(=O)OCC)c3C(=O)C=4

> <STRUCTURE_SMILES_Desalt>
O=C(OCC)C=4Oc3cccc(OCC(OC(=O)[C@@H](N)CCCCN)COc1cccc2OC(=CC(=O)c12)C(=O)OCC)c3C(=O)C=4

> <Substance_modify_yyyymmdd>
20131018

$$$$
