1109-28-0
ChemmineR-0915142007XD

 34 36  0  0  1  0  0  0  0  0  1 V2000
    5.7678   -5.9754    0.0000 O   0  0  0  0  0  0  0  0  0  0  0  0
    5.7678   -7.3020    0.0000 C   0  0  0  0  0  0  0  0  0  0  0  0
    4.6142   -7.9711    0.0000 C   0  0  0  0  0  0  0  0  0  0  0  0
    3.4722   -7.3020    0.0000 C   0  0  0  0  0  0  0  0  0  0  0  0
    3.4722   -5.9754    0.0000 C   0  0  0  0  0  0  0  0  0  0  0  0
    4.6142   -5.3179    0.0000 C   0  0  0  0  0  0  0  0  0  0  0  0
    6.9214   -7.9711    0.0000 O   0  0  0  0  0  0  0  0  0  0  0  0
    8.0634   -7.3020    0.0000 C   0  0  0  0  0  0  0  0  0  0  0  0
    9.2170   -7.9711    0.0000 C   0  0  0  0  0  0  0  0  0  0  0  0
   10.3705   -7.3020    0.0000 C   0  0  0  0  0  0  0  0  0  0  0  0
   10.3705   -5.9754    0.0000 C   0  0  0  0  0  0  0  0  0  0  0  0
    9.2170   -5.3179    0.0000 O   0  0  0  0  0  0  0  0  0  0  0  0
    8.0634   -5.9754    0.0000 C   0  0  0  0  0  0  0  0  0  0  0  0
    4.6142   -9.2977    0.0000 O   0  0  0  0  0  0  0  0  0  0  0  0
    2.3187   -7.9711    0.0000 O   0  0  0  0  0  0  0  0  0  0  0  0
    2.3187   -5.3179    0.0000 O   0  0  0  0  0  0  0  0  0  0  0  0
    2.3187   -3.9798    0.0000 C   0  0  0  0  0  0  0  0  0  0  0  0
    3.4722   -3.3107    0.0000 O   0  0  0  0  0  0  0  0  0  0  0  0
    3.4722   -1.9841    0.0000 C   0  0  0  0  0  0  0  0  0  0  0  0
    2.3187   -1.3266    0.0000 C   0  0  0  0  0  0  0  0  0  0  0  0
    1.1651   -1.9841    0.0000 C   0  0  0  0  0  0  0  0  0  0  0  0
    1.1651   -3.3107    0.0000 C   0  0  0  0  0  0  0  0  0  0  0  0
    4.6142   -3.9798    0.0000 C   0  0  0  0  0  0  0  0  0  0  0  0
    5.7678   -3.3107    0.0000 O   0  0  0  0  0  0  0  0  0  0  0  0
    9.2170   -9.2977    0.0000 O   0  0  0  0  0  0  0  0  0  0  0  0
   11.5356   -7.9711    0.0000 O   0  0  0  0  0  0  0  0  0  0  0  0
   11.5356   -5.3179    0.0000 O   0  0  0  0  0  0  0  0  0  0  0  0
    6.9214   -5.3179    0.0000 C   0  0  0  0  0  0  0  0  0  0  0  0
    6.9214   -3.9798    0.0000 O   0  0  0  0  0  0  0  0  0  0  0  0
    4.6142   -1.3266    0.0000 C   0  0  0  0  0  0  0  0  0  0  0  0
    5.7678   -1.9841    0.0000 O   0  0  0  0  0  0  0  0  0  0  0  0
    2.3187    0.0000    0.0000 O   0  0  0  0  0  0  0  0  0  0  0  0
    0.0000   -1.3266    0.0000 O   0  0  0  0  0  0  0  0  0  0  0  0
    0.0000   -3.9798    0.0000 O   0  0  0  0  0  0  0  0  0  0  0  0
  1  6  1  0  0  0  0
  1  2  1  0  0  0  0
  2  3  1  0  0  0  0
  2  7  1  6  0  0  0
  3  4  1  0  0  0  0
  3 14  1  6  0  0  0
  4  5  1  0  0  0  0
  4 15  1  1  0  0  0
  5  6  1  0  0  0  0
  5 16  1  6  0  0  0
  6 23  1  1  0  0  0
  8  7  1  6  0  0  0
  8 13  1  0  0  0  0
  8  9  1  0  0  0  0
  9 10  1  0  0  0  0
  9 25  1  1  0  0  0
 10 11  1  0  0  0  0
 10 26  1  6  0  0  0
 11 12  1  0  0  0  0
 11 27  1  6  0  0  0
 12 13  1  0  0  0  0
 13 28  1  1  0  0  0
 17 16  1  6  0  0  0
 17 22  1  0  0  0  0
 17 18  1  0  0  0  0
 18 19  1  0  0  0  0
 19 20  1  0  0  0  0
 19 30  1  1  0  0  0
 20 21  1  0  0  0  0
 20 32  1  6  0  0  0
 21 22  1  0  0  0  0
 21 33  1  1  0  0  0
 22 34  1  6  0  0  0
 23 24  1  0  0  0  0
 28 29  1  0  0  0  0
 30 31  1  0  0  0  0
M  END
> <ID>
13951

> <Formula>
C18H32O16

> <FW>
504.4371

> <DSSTox_CID>
28889

> <DSSTox_RID>
83157

> <DSSTox_GSID>
48963

> <DSSTox_FileID_Sort>
7834

> <TS_ChemName>
Maltotriose

> <TS_ChemName_Synonyms>


> <TS_CASRN>
1109-28-0

> <CASRN_ChemName_Relationship>
primary

> <TS_Description>
single chemical compound

> <ChemNote>


> <STRUCTURE_Shown>
tested chemical

> <STRUCTURE_Formula>
C18H32O16

> <STRUCTURE_MW>
504.4371

> <STRUCTURE_ChemType>
defined organic

> <STRUCTURE_DefinedOrganicForm>
parent

> <STRUCTURE_IUPAC>
alpha-D-glucopyranosyl-(1->4)-alpha-D-glucopyranosyl-(1->4)-alpha-D-glucopyranose

> <STRUCTURE_SMILES>
O[C@@H]3[C@@H](O)[C@H](O)[C@@H](CO)O[C@@H]3O[C@@H]2[C@@H](CO)O[C@H](O[C@@H]1[C@@H](CO)O[C@H](O)[C@H](O)[C@H]1O)[C@H](O)[C@H]2O

> <STRUCTURE_SMILES_Desalt>
O[C@@H]3[C@@H](O)[C@H](O)[C@@H](CO)O[C@@H]3O[C@@H]2[C@@H](CO)O[C@H](O[C@@H]1[C@@H](CO)O[C@H](O)[C@H](O)[C@H]1O)[C@H](O)[C@H]2O

> <Substance_modify_yyyymmdd>
20111204

$$$$
