11096-82-5
ChemmineR-0915142007XD

 18 19  0  0  0  0  0  0  0  0  1 V2000
    3.9941   -2.3090    0.0000 C    0  0  0  0  0  0  0  0  0  0  0  0
    5.3162   -2.3090    0.0000 C    0  0  0  0  0  0  0  0  0  0  0  0
    3.3238   -3.4541    0.0000 C    0  0  0  0  0  0  0  0  0  0  0  0
    3.3238   -1.1545    0.0000 C    0  0  0  0  0  0  0  0  0  0  0  0
    5.9865   -1.1545    0.0000 C    0  0  0  0  0  0  0  0  0  0  0  0
    5.9865   -3.4541    0.0000 C    0  0  0  0  0  0  0  0  0  0  0  0
    1.9924   -3.4541    0.0000 C    0  0  0  0  0  0  0  0  0  0  0  0
    7.3179   -1.1545    0.0000 C    0  0  0  0  0  0  0  0  0  0  0  0
    7.3179   -3.4541    0.0000 C    0  0  0  0  0  0  0  0  0  0  0  0
    1.9924   -1.1545    0.0000 C    0  0  0  0  0  0  0  0  0  0  0  0
    1.3314   -2.3090    0.0000 C    0  0  0  0  0  0  0  0  0  0  0  0
    7.9789   -2.3090    0.0000 C    0  0  0  0  0  0  0  0  0  0  0  0
    3.9941   -4.6086    0.0000 Cl   0  0  0  0  0  0  0  0  0  0  0  0
    5.3162    0.0000    0.0000 Cl   0  0  0  0  0  0  0  0  0  0  0  0
    1.3314   -4.6086    0.0000 Cl   0  0  0  0  0  0  0  0  0  0  0  0
    7.9789    0.0000    0.0000 Cl   0  0  0  0  0  0  0  0  0  0  0  0
    0.0000   -2.3090    0.0000 Cl   0  0  0  0  0  0  0  0  0  0  0  0
    9.3103   -2.3090    0.0000 Cl   0  0  0  0  0  0  0  0  0  0  0  0
  1  2  1  0  0  0  0
  1  3  2  0  0  0  0
  1  4  1  0  0  0  0
  2  5  2  0  0  0  0
  2  6  1  0  0  0  0
  3  7  1  0  0  0  0
  3 13  1  0  0  0  0
  4 10  2  0  0  0  0
  5  8  1  0  0  0  0
  5 14  1  0  0  0  0
  6  9  2  0  0  0  0
  7 11  2  0  0  0  0
  7 15  1  0  0  0  0
  8 12  2  0  0  0  0
  8 16  1  0  0  0  0
  9 12  1  0  0  0  0
 10 11  1  0  0  0  0
 11 17  1  0  0  0  0
 12 18  1  0  0  0  0
M  END
> <ID>
99

> <Formula>
C12H4Cl6

> <FW>
360.8782

> <DSSTox_CID>
101

> <DSSTox_RID>
75367

> <DSSTox_GSID>
20101

> <DSSTox_FileID_Sort>
51

> <TS_ChemName>
Aroclor 1260

> <TS_ChemName_Synonyms>


> <TS_CASRN>
11096-82-5

> <CASRN_ChemName_Relationship>
primary

> <TS_Description>
mixture or formulation

> <ChemNote>
mixture of chlorobiphenyls containing 60% Cl; structure shown 2,2',3,3',4,4'-hexachlorobiphenyl [38380-07-3]

> <STRUCTURE_Shown>
representative component

> <STRUCTURE_Formula>
C12H4Cl6

> <STRUCTURE_MW>
360.8782

> <STRUCTURE_ChemType>
defined organic

> <STRUCTURE_DefinedOrganicForm>
parent

> <STRUCTURE_IUPAC>
2,2',3,3',4,4'-hexachlorobiphenyl

> <STRUCTURE_SMILES>
Clc2ccc(c1ccc(Cl)c(Cl)c1Cl)c(Cl)c2Cl

> <STRUCTURE_SMILES_Desalt>
Clc2ccc(c1ccc(Cl)c(Cl)c1Cl)c(Cl)c2Cl

> <Substance_modify_yyyymmdd>
20080429

$$$$
