111-55-7
ChemmineR-0915142007XD

 10  9  0  0  0  0  0  0  0  0  1 V2000
    3.4464   -1.9936    0.0000 C   0  0  0  0  0  0  0  0  0  0  0  0
    4.6087   -1.3318    0.0000 C   0  0  0  0  0  0  0  0  0  0  0  0
    2.2922   -1.3318    0.0000 O   0  0  0  0  0  0  0  0  0  0  0  0
    5.7629   -1.9936    0.0000 O   0  0  0  0  0  0  0  0  0  0  0  0
    1.1542   -1.9936    0.0000 C   0  0  0  0  0  0  0  0  0  0  0  0
    1.1542   -3.3254    0.0000 O   0  0  0  0  0  0  0  0  0  0  0  0
    0.0000   -1.3318    0.0000 C   0  0  0  0  0  0  0  0  0  0  0  0
    6.9171   -1.3318    0.0000 C   0  0  0  0  0  0  0  0  0  0  0  0
    6.9171    0.0000    0.0000 O   0  0  0  0  0  0  0  0  0  0  0  0
    8.0713   -1.9936    0.0000 C   0  0  0  0  0  0  0  0  0  0  0  0
  1  2  1  0  0  0  0
  1  3  1  0  0  0  0
  2  4  1  0  0  0  0
  3  5  1  0  0  0  0
  4  8  1  0  0  0  0
  5  6  2  0  0  0  0
  5  7  1  0  0  0  0
  8  9  2  0  0  0  0
  8 10  1  0  0  0  0
M  END
> <ID>
4830

> <Formula>
C6H10O4

> <FW>
146.1412

> <DSSTox_CID>
6880

> <DSSTox_RID>
78235

> <DSSTox_GSID>
26880

> <DSSTox_FileID_Sort>
2918

> <TS_ChemName>
1,2-Ethanediol diacetate

> <TS_ChemName_Synonyms>
1,2-Ethanediol, diacetate

> <TS_CASRN>
111-55-7

> <CASRN_ChemName_Relationship>
primary

> <TS_Description>
single chemical compound

> <ChemNote>


> <STRUCTURE_Shown>
tested chemical

> <STRUCTURE_Formula>
C6H10O4

> <STRUCTURE_MW>
146.1412

> <STRUCTURE_ChemType>
defined organic

> <STRUCTURE_DefinedOrganicForm>
parent

> <STRUCTURE_IUPAC>
ethane-1,2-diyl diacetate

> <STRUCTURE_SMILES>
CC(=O)OCCOC(=O)C

> <STRUCTURE_SMILES_Desalt>
CC(=O)OCCOC(=O)C

> <Substance_modify_yyyymmdd>
20080429

$$$$
