111-18-2
ChemmineR-0915142007XD

 12 11  0  0  0  0  0  0  0  0  1 V2000
    2.2841   -1.3332    0.0000 C   0  0  0  0  0  0  0  0  0  0  0  0
    3.4416   -2.0050    0.0000 C   0  0  0  0  0  0  0  0  0  0  0  0
    4.5888   -1.3332    0.0000 C   0  0  0  0  0  0  0  0  0  0  0  0
    5.7464   -2.0050    0.0000 C   0  0  0  0  0  0  0  0  0  0  0  0
    6.8936   -1.3332    0.0000 C   0  0  0  0  0  0  0  0  0  0  0  0
    8.0511   -2.0050    0.0000 C   0  0  0  0  0  0  0  0  0  0  0  0
    1.1369   -2.0050    0.0000 N   0  0  0  0  0  0  0  0  0  0  0  0
    0.0000   -1.3332    0.0000 C   0  0  0  0  0  0  0  0  0  0  0  0
    1.1369   -3.3279    0.0000 C   0  0  0  0  0  0  0  0  0  0  0  0
    9.1983   -1.3332    0.0000 N   0  0  0  0  0  0  0  0  0  0  0  0
   10.3352   -2.0050    0.0000 C   0  0  0  0  0  0  0  0  0  0  0  0
    9.1983    0.0000    0.0000 C   0  0  0  0  0  0  0  0  0  0  0  0
  1  2  1  0  0  0  0
  1  7  1  0  0  0  0
  2  3  1  0  0  0  0
  3  4  1  0  0  0  0
  4  5  1  0  0  0  0
  5  6  1  0  0  0  0
  6 10  1  0  0  0  0
  7  8  1  0  0  0  0
  7  9  1  0  0  0  0
 10 11  1  0  0  0  0
 10 12  1  0  0  0  0
M  END
> <ID>
6643

> <Formula>
C10H24N2

> <FW>
172.311

> <DSSTox_CID>
13701

> <DSSTox_RID>
79092

> <DSSTox_GSID>
33701

> <DSSTox_FileID_Sort>
3774

> <TS_ChemName>
N,N,N',N`-Tetramethylhexanediamine

> <TS_ChemName_Synonyms>


> <TS_CASRN>
111-18-2

> <CASRN_ChemName_Relationship>
primary

> <TS_Description>
single chemical compound

> <ChemNote>


> <STRUCTURE_Shown>
tested chemical

> <STRUCTURE_Formula>
C10H24N2

> <STRUCTURE_MW>
172.311

> <STRUCTURE_ChemType>
defined organic

> <STRUCTURE_DefinedOrganicForm>
parent

> <STRUCTURE_IUPAC>
N,N,N',N'-tetramethylhexane-1,6-diamine

> <STRUCTURE_SMILES>
CN(C)CCCCCCN(C)C

> <STRUCTURE_SMILES_Desalt>
CN(C)CCCCCCN(C)C

> <Substance_modify_yyyymmdd>
20080429

$$$$
