111-82-0
ChemmineR-0915142007XD

 15 14  0  0  0  0  0  0  0  0  1 V2000
    1.1588   -0.6621    0.0000 C   0  0  0  0  0  0  0  0  0  0  0  0
    2.2899    0.0000    0.0000 C   0  0  0  0  0  0  0  0  0  0  0  0
    3.4349   -0.6621    0.0000 C   0  0  0  0  0  0  0  0  0  0  0  0
    4.5936    0.0000    0.0000 C   0  0  0  0  0  0  0  0  0  0  0  0
    5.7386   -0.6621    0.0000 C   0  0  0  0  0  0  0  0  0  0  0  0
    6.8973    0.0000    0.0000 C   0  0  0  0  0  0  0  0  0  0  0  0
    8.0561   -0.6621    0.0000 C   0  0  0  0  0  0  0  0  0  0  0  0
    9.2011    0.0000    0.0000 C   0  0  0  0  0  0  0  0  0  0  0  0
   10.3598   -0.6759    0.0000 C   0  0  0  0  0  0  0  0  0  0  0  0
   11.5048    0.0000    0.0000 C   0  0  0  0  0  0  0  0  0  0  0  0
   12.6359   -0.6759    0.0000 C   0  0  0  0  0  0  0  0  0  0  0  0
   13.7947    0.0000    0.0000 C   0  0  0  0  0  0  0  0  0  0  0  0
    0.0000    0.0000    0.0000 O   0  0  0  0  0  0  0  0  0  0  0  0
    1.1588   -2.0002    0.0000 O   0  0  0  0  0  0  0  0  0  0  0  0
    0.0000   -2.6624    0.0000 C   0  0  0  0  0  0  0  0  0  0  0  0
  1  2  1  0  0  0  0
  1 14  1  0  0  0  0
  1 13  2  0  0  0  0
  2  3  1  0  0  0  0
  3  4  1  0  0  0  0
  4  5  1  0  0  0  0
  5  6  1  0  0  0  0
  6  7  1  0  0  0  0
  7  8  1  0  0  0  0
  8  9  1  0  0  0  0
  9 10  1  0  0  0  0
 10 11  1  0  0  0  0
 11 12  1  0  0  0  0
 14 15  1  0  0  0  0
M  END
> <ID>
4834

> <Formula>
C13H26O2

> <FW>
214.3443

> <DSSTox_CID>
6889

> <DSSTox_RID>
78239

> <DSSTox_GSID>
26889

> <DSSTox_FileID_Sort>
2922

> <TS_ChemName>
Methyl dodecanoate

> <TS_ChemName_Synonyms>
Methyl dodecanoate (Methyl laurate)

> <TS_CASRN>
111-82-0

> <CASRN_ChemName_Relationship>
primary

> <TS_Description>
single chemical compound

> <ChemNote>


> <STRUCTURE_Shown>
tested chemical

> <STRUCTURE_Formula>
C13H26O2

> <STRUCTURE_MW>
214.3443

> <STRUCTURE_ChemType>
defined organic

> <STRUCTURE_DefinedOrganicForm>
parent

> <STRUCTURE_IUPAC>
methyl dodecanoate

> <STRUCTURE_SMILES>
O=C(CCCCCCCCCCC)OC

> <STRUCTURE_SMILES_Desalt>
O=C(CCCCCCCCCCC)OC

> <Substance_modify_yyyymmdd>
20080429

$$$$
