111-41-1
ChemmineR-0915142007XD

  7  6  0  0  0  0  0  0  0  0  1 V2000
    3.4575    0.0000    0.0000 N   0  0  0  0  0  0  0  0  0  0  0  0
    2.3027   -0.6638    0.0000 C   0  0  0  0  0  0  0  0  0  0  0  0
    1.1548    0.0000    0.0000 C   0  0  0  0  0  0  0  0  0  0  0  0
    0.0000   -0.6638    0.0000 N   0  0  0  0  0  0  0  0  0  0  0  0
    4.6122   -0.6638    0.0000 C   0  0  0  0  0  0  0  0  0  0  0  0
    5.7601    0.0000    0.0000 C   0  0  0  0  0  0  0  0  0  0  0  0
    6.9149   -0.6638    0.0000 O   0  0  0  0  0  0  0  0  0  0  0  0
  1  2  1  0  0  0  0
  1  5  1  0  0  0  0
  2  3  1  0  0  0  0
  3  4  1  0  0  0  0
  5  6  1  0  0  0  0
  6  7  1  0  0  0  0
M  END
> <ID>
4186

> <Formula>
C4H12N2O

> <FW>
104.1509

> <DSSTox_CID>
5423

> <DSSTox_RID>
77779

> <DSSTox_GSID>
25423

> <DSSTox_FileID_Sort>
2462

> <TS_ChemName>
N-(Hydroxyethyl)ethylenediamine

> <TS_ChemName_Synonyms>
N-(Hydroxyethyl)ethylenediamine (Ethanol, 2-[(2-aminoethyl)amino]-)

> <TS_CASRN>
111-41-1

> <CASRN_ChemName_Relationship>
primary

> <TS_Description>
single chemical compound

> <ChemNote>


> <STRUCTURE_Shown>
tested chemical

> <STRUCTURE_Formula>
C4H12N2O

> <STRUCTURE_MW>
104.1509

> <STRUCTURE_ChemType>
defined organic

> <STRUCTURE_DefinedOrganicForm>
parent

> <STRUCTURE_IUPAC>
2-[(2-aminoethyl)amino]ethanol

> <STRUCTURE_SMILES>
NCCNCCO

> <STRUCTURE_SMILES_Desalt>
NCCNCCO

> <Substance_modify_yyyymmdd>
20080429

$$$$
