111-62-6
ChemmineR-0915142007XD

 22 21  0  0  0  0  0  0  0  0  1 V2000
   14.9732   -3.3238    0.0000 C   0  0  0  0  0  0  0  0  0  0  0  0
   16.1349   -4.0015    0.0000 O   0  0  0  0  0  0  0  0  0  0  0  0
    9.2292  -11.9721    0.0000 C   0  0  0  0  0  0  0  0  0  0  0  0
   10.3747  -11.3106    0.0000 C   0  0  0  0  0  0  0  0  0  0  0  0
   14.9732   -2.0007    0.0000 O   0  0  0  0  0  0  0  0  0  0  0  0
   13.8276   -4.0015    0.0000 C   0  0  0  0  0  0  0  0  0  0  0  0
   10.3747   -9.9875    0.0000 C   0  0  0  0  0  0  0  0  0  0  0  0
    8.0675  -11.3106    0.0000 C   0  0  0  0  0  0  0  0  0  0  0  0
   13.8276   -5.3245    0.0000 C   0  0  0  0  0  0  0  0  0  0  0  0
   11.5365   -9.3098    0.0000 C   0  0  0  0  0  0  0  0  0  0  0  0
    6.9057  -11.9721    0.0000 C   0  0  0  0  0  0  0  0  0  0  0  0
    1.1617  -11.3106    0.0000 C   0  0  0  0  0  0  0  0  0  0  0  0
    2.3073  -11.9721    0.0000 C   0  0  0  0  0  0  0  0  0  0  0  0
   11.5365   -7.9706    0.0000 C   0  0  0  0  0  0  0  0  0  0  0  0
   12.6820   -7.3252    0.0000 C   0  0  0  0  0  0  0  0  0  0  0  0
   12.6820   -5.9860    0.0000 C   0  0  0  0  0  0  0  0  0  0  0  0
    5.7602  -11.3106    0.0000 C   0  0  0  0  0  0  0  0  0  0  0  0
    4.5984  -11.9721    0.0000 C   0  0  0  0  0  0  0  0  0  0  0  0
    3.4529  -11.3106    0.0000 C   0  0  0  0  0  0  0  0  0  0  0  0
    0.0000  -11.9721    0.0000 C   0  0  0  0  0  0  0  0  0  0  0  0
   13.8276   -1.3392    0.0000 C   0  0  0  0  0  0  0  0  0  0  0  0
   13.8276    0.0000    0.0000 C   0  0  0  0  0  0  0  0  0  0  0  0
  1  2  2  0  0  0  0
  1  5  1  0  0  0  0
  1  6  1  0  0  0  0
  3  4  2  0  0  0  0
  3  8  1  0  0  0  0
  4  7  1  0  0  0  0
  5 21  1  0  0  0  0
  6  9  1  0  0  0  0
  7 10  1  0  0  0  0
  8 11  1  0  0  0  0
  9 16  1  0  0  0  0
 10 14  1  0  0  0  0
 11 17  1  0  0  0  0
 12 13  1  0  0  0  0
 12 20  1  0  0  0  0
 13 19  1  0  0  0  0
 14 15  1  0  0  0  0
 15 16  1  0  0  0  0
 17 18  1  0  0  0  0
 18 19  1  0  0  0  0
 21 22  1  0  0  0  0
M  END
> <ID>
12754

> <Formula>
C20H38O2

> <FW>
310.5145

> <DSSTox_CID>
27633

> <DSSTox_RID>
82464

> <DSSTox_GSID>
47633

> <DSSTox_FileID_Sort>
7145

> <TS_ChemName>
Ethyl oleate

> <TS_ChemName_Synonyms>


> <TS_CASRN>
111-62-6

> <CASRN_ChemName_Relationship>
primary

> <TS_Description>
single chemical compound

> <ChemNote>
stereochem

> <STRUCTURE_Shown>
tested chemical

> <STRUCTURE_Formula>
C20H38O2

> <STRUCTURE_MW>
310.5145

> <STRUCTURE_ChemType>
defined organic

> <STRUCTURE_DefinedOrganicForm>
parent

> <STRUCTURE_IUPAC>
ethyl (9Z)-octadec-9-enoate

> <STRUCTURE_SMILES>
O=C(CCCCCCC/C=C\CCCCCCCC)OCC

> <STRUCTURE_SMILES_Desalt>
O=C(CCCCCCC/C=C\CCCCCCCC)OCC

> <Substance_modify_yyyymmdd>
20101214

$$$$
