111-12-6
ChemmineR-0915142007XD

 11 10  0  0  0  0  0  0  0  0  1 V2000
    1.9833   -1.1461    0.0000 C   0  0  0  0  0  0  0  0  0  0  0  0
    3.3188   -1.1461    0.0000 C   0  0  0  0  0  0  0  0  0  0  0  0
    4.6444   -1.1461    0.0000 C   0  0  0  0  0  0  0  0  0  0  0  0
    5.9799   -1.1461    0.0000 C   0  0  0  0  0  0  0  0  0  0  0  0
    6.6476   -2.3023    0.0000 C   0  0  0  0  0  0  0  0  0  0  0  0
    7.9831   -2.3023    0.0000 C   0  0  0  0  0  0  0  0  0  0  0  0
    8.6409   -3.4584    0.0000 C   0  0  0  0  0  0  0  0  0  0  0  0
    9.9665   -3.4584    0.0000 C   0  0  0  0  0  0  0  0  0  0  0  0
    1.3255    0.0000    0.0000 O   0  0  0  0  0  0  0  0  0  0  0  0
    1.3255   -2.3023    0.0000 O   0  0  0  0  0  0  0  0  0  0  0  0
    0.0000   -2.3023    0.0000 C   0  0  0  0  0  0  0  0  0  0  0  0
  1  2  1  0  0  0  0
  1 10  1  0  0  0  0
  1  9  2  0  0  0  0
  2  3  3  0  0  0  0
  3  4  1  0  0  0  0
  4  5  1  0  0  0  0
  5  6  1  0  0  0  0
  6  7  1  0  0  0  0
  7  8  1  0  0  0  0
 10 11  1  0  0  0  0
M  END
> <ID>
12244

> <Formula>
C9H14O2

> <FW>
154.2063

> <DSSTox_CID>
27093

> <DSSTox_RID>
82105

> <DSSTox_GSID>
47093

> <DSSTox_FileID_Sort>
6786

> <TS_ChemName>
Methyl 2-octynoate

> <TS_ChemName_Synonyms>


> <TS_CASRN>
111-12-6

> <CASRN_ChemName_Relationship>
primary

> <TS_Description>
single chemical compound

> <ChemNote>


> <STRUCTURE_Shown>
tested chemical

> <STRUCTURE_Formula>
C9H14O2

> <STRUCTURE_MW>
154.2063

> <STRUCTURE_ChemType>
defined organic

> <STRUCTURE_DefinedOrganicForm>
parent

> <STRUCTURE_IUPAC>
methyl oct-2-ynoate

> <STRUCTURE_SMILES>
O=C(C#CCCCCC)OC

> <STRUCTURE_SMILES_Desalt>
O=C(C#CCCCCC)OC

> <Substance_modify_yyyymmdd>
20100429

$$$$
