111-27-3
ChemmineR-0915142007XD

  7  6  0  0  0  0  0  0  0  0  1 V2000
    0.0000   -0.6638    0.0000 C   0  0  0  0  0  0  0  0  0  0  0  0
    1.1548    0.0000    0.0000 C   0  0  0  0  0  0  0  0  0  0  0  0
    2.3027   -0.6638    0.0000 C   0  0  0  0  0  0  0  0  0  0  0  0
    3.4575    0.0000    0.0000 C   0  0  0  0  0  0  0  0  0  0  0  0
    4.6122   -0.6638    0.0000 C   0  0  0  0  0  0  0  0  0  0  0  0
    5.7601    0.0000    0.0000 C   0  0  0  0  0  0  0  0  0  0  0  0
    6.9149   -0.6638    0.0000 O   0  0  0  0  0  0  0  0  0  0  0  0
  1  2  1  0  0  0  0
  2  3  1  0  0  0  0
  3  4  1  0  0  0  0
  4  5  1  0  0  0  0
  5  6  1  0  0  0  0
  6  7  1  0  0  0  0
M  END
> <ID>
1802

> <Formula>
C6H14O

> <FW>
102.1748

> <DSSTox_CID>
1931

> <DSSTox_RID>
76410

> <DSSTox_GSID>
21931

> <DSSTox_FileID_Sort>
1094

> <TS_ChemName>
1-Hexanol

> <TS_ChemName_Synonyms>
1-Hexanol (hexyl alcohol)

> <TS_CASRN>
111-27-3

> <CASRN_ChemName_Relationship>
primary

> <TS_Description>
single chemical compound

> <ChemNote>


> <STRUCTURE_Shown>
tested chemical

> <STRUCTURE_Formula>
C6H14O

> <STRUCTURE_MW>
102.1748

> <STRUCTURE_ChemType>
defined organic

> <STRUCTURE_DefinedOrganicForm>
parent

> <STRUCTURE_IUPAC>
hexan-1-ol

> <STRUCTURE_SMILES>
CCCCCCO

> <STRUCTURE_SMILES_Desalt>
CCCCCCO

> <Substance_modify_yyyymmdd>
20080429

$$$$
