111-91-1
ChemmineR-0915142007XD

  9  8  0  0  0  0  0  0  0  0  1 V2000
    5.7436    0.0000    0.0000 O    0  0  0  0  0  0  0  0  0  0  0  0
    4.6004   -0.6638    0.0000 C    0  0  0  0  0  0  0  0  0  0  0  0
    3.4756    0.0000    0.0000 O    0  0  0  0  0  0  0  0  0  0  0  0
    6.9513   -0.6638    0.0000 C    0  0  0  0  0  0  0  0  0  0  0  0
    2.2679   -0.6638    0.0000 C    0  0  0  0  0  0  0  0  0  0  0  0
    8.0760    0.0000    0.0000 C    0  0  0  0  0  0  0  0  0  0  0  0
    1.1432    0.0000    0.0000 C    0  0  0  0  0  0  0  0  0  0  0  0
    9.2192   -0.6638    0.0000 Cl   0  0  0  0  0  0  0  0  0  0  0  0
    0.0000   -0.6638    0.0000 Cl   0  0  0  0  0  0  0  0  0  0  0  0
  1  2  1  0  0  0  0
  1  4  1  0  0  0  0
  2  3  1  0  0  0  0
  3  5  1  0  0  0  0
  4  6  1  0  0  0  0
  5  7  1  0  0  0  0
  6  8  1  0  0  0  0
  7  9  1  0  0  0  0
M  END
> <ID>
3425

> <Formula>
C5H10Cl2O2

> <FW>
173.0377

> <DSSTox_CID>
3917

> <DSSTox_RID>
77231

> <DSSTox_GSID>
23917

> <DSSTox_FileID_Sort>
1914

> <TS_ChemName>
Bis(2-chloroethoxy)methane

> <TS_ChemName_Synonyms>
Bis(2-chloroethoxy)methane (Ethane, 1,1'-[methylenebis(oxy)]bis[2-chloro-)

> <TS_CASRN>
111-91-1

> <CASRN_ChemName_Relationship>
primary

> <TS_Description>
single chemical compound

> <ChemNote>


> <STRUCTURE_Shown>
tested chemical

> <STRUCTURE_Formula>
C5H10Cl2O2

> <STRUCTURE_MW>
173.0377

> <STRUCTURE_ChemType>
defined organic

> <STRUCTURE_DefinedOrganicForm>
parent

> <STRUCTURE_IUPAC>
1-chloro-2-[(2-chloroethoxy)methoxy]ethane

> <STRUCTURE_SMILES>
ClCCOCOCCCl

> <STRUCTURE_SMILES_Desalt>
ClCCOCOCCCl

> <Substance_modify_yyyymmdd>
20080429

$$$$
