111-20-6
ChemmineR-0915142007XD

 14 13  0  0  0  0  0  0  0  0  1 V2000
    1.1505   -1.3275    0.0000 C   0  0  0  0  0  0  0  0  0  0  0  0
    2.2884   -1.9976    0.0000 C   0  0  0  0  0  0  0  0  0  0  0  0
    3.4389   -1.3275    0.0000 C   0  0  0  0  0  0  0  0  0  0  0  0
    4.5895   -1.9976    0.0000 C   0  0  0  0  0  0  0  0  0  0  0  0
    5.7400   -1.3275    0.0000 C   0  0  0  0  0  0  0  0  0  0  0  0
    6.9032   -1.9976    0.0000 C   0  0  0  0  0  0  0  0  0  0  0  0
    8.0537   -1.3275    0.0000 C   0  0  0  0  0  0  0  0  0  0  0  0
    9.2042   -1.9976    0.0000 C   0  0  0  0  0  0  0  0  0  0  0  0
   10.3547   -1.3275    0.0000 C   0  0  0  0  0  0  0  0  0  0  0  0
   11.4926   -1.9976    0.0000 C   0  0  0  0  0  0  0  0  0  0  0  0
    1.1505    0.0000    0.0000 O   0  0  0  0  0  0  0  0  0  0  0  0
    0.0000   -1.9976    0.0000 O   0  0  0  0  0  0  0  0  0  0  0  0
   11.4926   -3.3251    0.0000 O   0  0  0  0  0  0  0  0  0  0  0  0
   12.6431   -1.3275    0.0000 O   0  0  0  0  0  0  0  0  0  0  0  0
  1  2  1  0  0  0  0
  1 12  1  0  0  0  0
  1 11  2  0  0  0  0
  2  3  1  0  0  0  0
  3  4  1  0  0  0  0
  4  5  1  0  0  0  0
  5  6  1  0  0  0  0
  6  7  1  0  0  0  0
  7  8  1  0  0  0  0
  8  9  1  0  0  0  0
  9 10  1  0  0  0  0
 10 14  1  0  0  0  0
 10 13  2  0  0  0  0
M  END
> <ID>
4826

> <Formula>
C10H18O4

> <FW>
202.2475

> <DSSTox_CID>
6867

> <DSSTox_RID>
78231

> <DSSTox_GSID>
26867

> <DSSTox_FileID_Sort>
2914

> <TS_ChemName>
Decanedioic acid

> <TS_ChemName_Synonyms>
Decanedioic acid (Sebacic acid)

> <TS_CASRN>
111-20-6

> <CASRN_ChemName_Relationship>
primary

> <TS_Description>
single chemical compound

> <ChemNote>


> <STRUCTURE_Shown>
tested chemical

> <STRUCTURE_Formula>
C10H18O4

> <STRUCTURE_MW>
202.2475

> <STRUCTURE_ChemType>
defined organic

> <STRUCTURE_DefinedOrganicForm>
parent

> <STRUCTURE_IUPAC>
decanedioic acid

> <STRUCTURE_SMILES>
O=C(O)CCCCCCCCC(=O)O

> <STRUCTURE_SMILES_Desalt>
O=C(O)CCCCCCCCC(=O)O

> <Substance_modify_yyyymmdd>
20080429

$$$$
