111-42-2
ChemmineR-0915142007XD

  7  6  0  0  0  0  0  0  0  0  1 V2000
    0.0000   -0.6638    0.0000 O   0  0  0  0  0  0  0  0  0  0  0  0
    1.1548    0.0000    0.0000 C   0  0  0  0  0  0  0  0  0  0  0  0
    2.3027   -0.6638    0.0000 C   0  0  0  0  0  0  0  0  0  0  0  0
    3.4575    0.0000    0.0000 N   0  0  0  0  0  0  0  0  0  0  0  0
    4.6122   -0.6638    0.0000 C   0  0  0  0  0  0  0  0  0  0  0  0
    5.7601    0.0000    0.0000 C   0  0  0  0  0  0  0  0  0  0  0  0
    6.9149   -0.6638    0.0000 O   0  0  0  0  0  0  0  0  0  0  0  0
  1  2  1  0  0  0  0
  2  3  1  0  0  0  0
  3  4  1  0  0  0  0
  4  5  1  0  0  0  0
  5  6  1  0  0  0  0
  6  7  1  0  0  0  0
M  END
> <ID>
1803

> <Formula>
C4H11NO2

> <FW>
105.1356

> <DSSTox_CID>
1932

> <DSSTox_RID>
76411

> <DSSTox_GSID>
21932

> <DSSTox_FileID_Sort>
1095

> <TS_ChemName>
Diethanolamine

> <TS_ChemName_Synonyms>
Diethanolamine (Ethanol, 2,2'-iminobis-) (2,2'-Iminobisethanol) (2-(2-Hydroxy-ethylamino)-ethanol)

> <TS_CASRN>
111-42-2

> <CASRN_ChemName_Relationship>
primary

> <TS_Description>
single chemical compound

> <ChemNote>


> <STRUCTURE_Shown>
tested chemical

> <STRUCTURE_Formula>
C4H11NO2

> <STRUCTURE_MW>
105.1356

> <STRUCTURE_ChemType>
defined organic

> <STRUCTURE_DefinedOrganicForm>
parent

> <STRUCTURE_IUPAC>
2,2'-iminodiethanol

> <STRUCTURE_SMILES>
OCCNCCO

> <STRUCTURE_SMILES_Desalt>
OCCNCCO

> <Substance_modify_yyyymmdd>
20080429

$$$$
