111-96-6
ChemmineR-0915142007XD

  9  8  0  0  0  0  0  0  0  0  1 V2000
    4.6099   -0.6638    0.0000 O   0  0  0  0  0  0  0  0  0  0  0  0
    3.4575    0.0000    0.0000 C   0  0  0  0  0  0  0  0  0  0  0  0
    2.3050   -0.6638    0.0000 C   0  0  0  0  0  0  0  0  0  0  0  0
    1.1525    0.0000    0.0000 O   0  0  0  0  0  0  0  0  0  0  0  0
    0.0000   -0.6638    0.0000 C   0  0  0  0  0  0  0  0  0  0  0  0
    5.7624    0.0000    0.0000 C   0  0  0  0  0  0  0  0  0  0  0  0
    6.9149   -0.6638    0.0000 C   0  0  0  0  0  0  0  0  0  0  0  0
    8.0674    0.0000    0.0000 O   0  0  0  0  0  0  0  0  0  0  0  0
    9.2199   -0.6638    0.0000 C   0  0  0  0  0  0  0  0  0  0  0  0
  1  2  1  0  0  0  0
  1  6  1  0  0  0  0
  2  3  1  0  0  0  0
  3  4  1  0  0  0  0
  4  5  1  0  0  0  0
  6  7  1  0  0  0  0
  7  8  1  0  0  0  0
  8  9  1  0  0  0  0
M  END
> <ID>
3770

> <Formula>
C6H14O3

> <FW>
134.1736

> <DSSTox_CID>
4621

> <DSSTox_RID>
77470

> <DSSTox_GSID>
24621

> <DSSTox_FileID_Sort>
2153

> <TS_ChemName>
Bis(2-methoxyethyl) ether

> <TS_ChemName_Synonyms>
Bis(2-methoxyethyl) ether (Diethylene glycol dimethyl ether) (Ethane, 1,1'-oxybis[2-methoxy-)

> <TS_CASRN>
111-96-6

> <CASRN_ChemName_Relationship>
primary

> <TS_Description>
single chemical compound

> <ChemNote>


> <STRUCTURE_Shown>
tested chemical

> <STRUCTURE_Formula>
C6H14O3

> <STRUCTURE_MW>
134.1736

> <STRUCTURE_ChemType>
defined organic

> <STRUCTURE_DefinedOrganicForm>
parent

> <STRUCTURE_IUPAC>
1-methoxy-2-(2-methoxyethoxy)ethane

> <STRUCTURE_SMILES>
COCCOCCOC

> <STRUCTURE_SMILES_Desalt>
COCCOCCOC

> <Substance_modify_yyyymmdd>
20080429

$$$$
