111-01-3
ChemmineR-0915142007XD

 30 29  0  0  0  0  0  0  0  0  1 V2000
   18.4965   -1.3839    0.0000 C   0  0  0  0  0  0  0  0  0  0  0  0
    8.1172   -2.0226    0.0000 C   0  0  0  0  0  0  0  0  0  0  0  0
    3.4864   -2.0226    0.0000 C   0  0  0  0  0  0  0  0  0  0  0  0
   23.1273   -1.3839    0.0000 C   0  0  0  0  0  0  0  0  0  0  0  0
    2.3154   -1.3839    0.0000 C   0  0  0  0  0  0  0  0  0  0  0  0
   24.2983   -2.0226    0.0000 C   0  0  0  0  0  0  0  0  0  0  0  0
   19.6675   -2.0226    0.0000 C   0  0  0  0  0  0  0  0  0  0  0  0
    6.9462   -1.3839    0.0000 C   0  0  0  0  0  0  0  0  0  0  0  0
    4.6308   -1.3839    0.0000 C   0  0  0  0  0  0  0  0  0  0  0  0
   17.3521   -2.0226    0.0000 C   0  0  0  0  0  0  0  0  0  0  0  0
   21.9829   -2.0226    0.0000 C   0  0  0  0  0  0  0  0  0  0  0  0
    9.2616   -1.3839    0.0000 C   0  0  0  0  0  0  0  0  0  0  0  0
   20.8119   -1.3839    0.0000 C   0  0  0  0  0  0  0  0  0  0  0  0
    5.8018   -2.0226    0.0000 C   0  0  0  0  0  0  0  0  0  0  0  0
   25.4427   -1.3839    0.0000 C   0  0  0  0  0  0  0  0  0  0  0  0
    1.1710   -2.0226    0.0000 C   0  0  0  0  0  0  0  0  0  0  0  0
   16.1811   -1.3839    0.0000 C   0  0  0  0  0  0  0  0  0  0  0  0
   10.4326   -2.0226    0.0000 C   0  0  0  0  0  0  0  0  0  0  0  0
   11.5770   -1.3839    0.0000 C   0  0  0  0  0  0  0  0  0  0  0  0
   15.0367   -2.0226    0.0000 C   0  0  0  0  0  0  0  0  0  0  0  0
   13.8657   -1.3839    0.0000 C   0  0  0  0  0  0  0  0  0  0  0  0
   12.7480   -2.0226    0.0000 C   0  0  0  0  0  0  0  0  0  0  0  0
   26.6137   -2.0226    0.0000 C   0  0  0  0  0  0  0  0  0  0  0  0
    0.0000   -1.3839    0.0000 C   0  0  0  0  0  0  0  0  0  0  0  0
    1.1710   -3.3799    0.0000 C   0  0  0  0  0  0  0  0  0  0  0  0
   25.4427    0.0000    0.0000 C   0  0  0  0  0  0  0  0  0  0  0  0
   10.4326   -3.3799    0.0000 C   0  0  0  0  0  0  0  0  0  0  0  0
   16.1811   -0.0266    0.0000 C   0  0  0  0  0  0  0  0  0  0  0  0
   20.8119   -0.0266    0.0000 C   0  0  0  0  0  0  0  0  0  0  0  0
    5.8018   -3.3799    0.0000 C   0  0  0  0  0  0  0  0  0  0  0  0
  1  7  1  0  0  0  0
  1 10  1  0  0  0  0
  2 12  1  0  0  0  0
  2  8  1  0  0  0  0
  3  9  1  0  0  0  0
  3  5  1  0  0  0  0
  4 11  1  0  0  0  0
  4  6  1  0  0  0  0
  5 16  1  0  0  0  0
  6 15  1  0  0  0  0
  7 13  1  0  0  0  0
  8 14  1  0  0  0  0
  9 14  1  0  0  0  0
 10 17  1  0  0  0  0
 11 13  1  0  0  0  0
 12 18  1  0  0  0  0
 13 29  1  0  0  0  0
 14 30  1  0  0  0  0
 15 23  1  0  0  0  0
 15 26  1  0  0  0  0
 16 24  1  0  0  0  0
 16 25  1  0  0  0  0
 17 20  1  0  0  0  0
 17 28  1  0  0  0  0
 18 19  1  0  0  0  0
 18 27  1  0  0  0  0
 19 22  1  0  0  0  0
 20 21  1  0  0  0  0
 21 22  1  0  0  0  0
M  END
> <ID>
11748

> <Formula>
C30H62

> <FW>
422.8133

> <DSSTox_CID>
26513

> <DSSTox_RID>
81682

> <DSSTox_GSID>
46513

> <DSSTox_FileID_Sort>
6363

> <TS_ChemName>
Squalane

> <TS_ChemName_Synonyms>


> <TS_CASRN>
111-01-3

> <CASRN_ChemName_Relationship>
primary

> <TS_Description>
single chemical compound

> <ChemNote>


> <STRUCTURE_Shown>
tested chemical

> <STRUCTURE_Formula>
C30H62

> <STRUCTURE_MW>
422.8133

> <STRUCTURE_ChemType>
defined organic

> <STRUCTURE_DefinedOrganicForm>
parent

> <STRUCTURE_IUPAC>
2,6,10,15,19,23-hexamethyltetracosane

> <STRUCTURE_SMILES>
CC(C)CCCC(C)CCCC(C)CCCCC(C)CCCC(C)CCCC(C)C

> <STRUCTURE_SMILES_Desalt>
CC(C)CCCC(C)CCCC(C)CCCCC(C)CCCC(C)CCCC(C)C

> <Substance_modify_yyyymmdd>
20110812

$$$$
