111-90-0
ChemmineR-0915142007XD

  9  8  0  0  0  0  0  0  0  0  1 V2000
    0.0000   -0.6638    0.0000 C   0  0  0  0  0  0  0  0  0  0  0  0
    1.1525    0.0000    0.0000 C   0  0  0  0  0  0  0  0  0  0  0  0
    2.3050   -0.6638    0.0000 O   0  0  0  0  0  0  0  0  0  0  0  0
    3.4575    0.0000    0.0000 C   0  0  0  0  0  0  0  0  0  0  0  0
    4.6099   -0.6638    0.0000 C   0  0  0  0  0  0  0  0  0  0  0  0
    5.7624    0.0000    0.0000 O   0  0  0  0  0  0  0  0  0  0  0  0
    6.9149   -0.6638    0.0000 C   0  0  0  0  0  0  0  0  0  0  0  0
    8.0674    0.0000    0.0000 C   0  0  0  0  0  0  0  0  0  0  0  0
    9.2199   -0.6638    0.0000 O   0  0  0  0  0  0  0  0  0  0  0  0
  1  2  1  0  0  0  0
  2  3  1  0  0  0  0
  3  4  1  0  0  0  0
  4  5  1  0  0  0  0
  5  6  1  0  0  0  0
  6  7  1  0  0  0  0
  7  8  1  0  0  0  0
  8  9  1  0  0  0  0
M  END
> <ID>
1810

> <Formula>
C6H14O3

> <FW>
134.1736

> <DSSTox_CID>
1941

> <DSSTox_RID>
76417

> <DSSTox_GSID>
21941

> <DSSTox_FileID_Sort>
1101

> <TS_ChemName>
2-(2-Ethoxyethoxy)ethanol

> <TS_ChemName_Synonyms>
2-(2-ethoxyethoxy)ethanol (Diethylene glycol monoethyl ether)

> <TS_CASRN>
111-90-0

> <CASRN_ChemName_Relationship>
primary

> <TS_Description>
single chemical compound

> <ChemNote>


> <STRUCTURE_Shown>
tested chemical

> <STRUCTURE_Formula>
C6H14O3

> <STRUCTURE_MW>
134.1736

> <STRUCTURE_ChemType>
defined organic

> <STRUCTURE_DefinedOrganicForm>
parent

> <STRUCTURE_IUPAC>
2-(2-ethoxyethoxy)ethanol

> <STRUCTURE_SMILES>
OCCOCCOCC

> <STRUCTURE_SMILES_Desalt>
OCCOCCOCC

> <Substance_modify_yyyymmdd>
20080429

$$$$
