111-29-5
ChemmineR-0915142007XD

  7  6  0  0  0  0  0  0  0  0  1 V2000
    1.1518   -0.6690    0.0000 C   0  0  0  0  0  0  0  0  0  0  0  0
    2.2967    0.0000    0.0000 C   0  0  0  0  0  0  0  0  0  0  0  0
    3.4485   -0.6690    0.0000 C   0  0  0  0  0  0  0  0  0  0  0  0
    4.6003    0.0000    0.0000 C   0  0  0  0  0  0  0  0  0  0  0  0
    5.7452   -0.6690    0.0000 C   0  0  0  0  0  0  0  0  0  0  0  0
    0.0000    0.0000    0.0000 O   0  0  0  0  0  0  0  0  0  0  0  0
    6.8969    0.0000    0.0000 O   0  0  0  0  0  0  0  0  0  0  0  0
  1  2  1  0  0  0  0
  1  6  1  0  0  0  0
  2  3  1  0  0  0  0
  3  4  1  0  0  0  0
  4  5  1  0  0  0  0
  5  7  1  0  0  0  0
M  END
> <ID>
8229

> <Formula>
C5H12O2

> <FW>
104.1476

> <DSSTox_CID>
21256

> <DSSTox_RID>
79666

> <DSSTox_GSID>
41256

> <DSSTox_FileID_Sort>
4348

> <TS_ChemName>
1,5-Pentanediol

> <TS_ChemName_Synonyms>


> <TS_CASRN>
111-29-5

> <CASRN_ChemName_Relationship>
primary

> <TS_Description>
single chemical compound

> <ChemNote>


> <STRUCTURE_Shown>
tested chemical

> <STRUCTURE_Formula>
C5H12O2

> <STRUCTURE_MW>
104.1476

> <STRUCTURE_ChemType>
defined organic

> <STRUCTURE_DefinedOrganicForm>
parent

> <STRUCTURE_IUPAC>
pentane-1,5-diol

> <STRUCTURE_SMILES>
OCCCCCO

> <STRUCTURE_SMILES_Desalt>
OCCCCCO

> <Substance_modify_yyyymmdd>
20080825

$$$$
