111-64-8
ChemmineR-0915142007XD

 10  9  0  0  0  0  0  0  0  0  1 V2000
    8.0667    0.0000    0.0000 O    0  0  0  0  0  0  0  0  0  0  0  0
    6.9132   -0.6695    0.0000 C    0  0  0  0  0  0  0  0  0  0  0  0
    6.9132   -2.0006    0.0000 C    0  0  0  0  0  0  0  0  0  0  0  0
    5.7596   -2.6620    0.0000 C    0  0  0  0  0  0  0  0  0  0  0  0
    4.6061   -2.0006    0.0000 C    0  0  0  0  0  0  0  0  0  0  0  0
    3.4606   -2.6620    0.0000 C    0  0  0  0  0  0  0  0  0  0  0  0
    2.3071   -2.0006    0.0000 C    0  0  0  0  0  0  0  0  0  0  0  0
    1.1535   -2.6620    0.0000 C    0  0  0  0  0  0  0  0  0  0  0  0
    0.0000   -2.0006    0.0000 C    0  0  0  0  0  0  0  0  0  0  0  0
    5.7596    0.0000    0.0000 Cl   0  0  0  0  0  0  0  0  0  0  0  0
  1  2  2  0  0  0  0
  2  3  1  0  0  0  0
  2 10  1  0  0  0  0
  3  4  1  0  0  0  0
  4  5  1  0  0  0  0
  5  6  1  0  0  0  0
  6  7  1  0  0  0  0
  7  8  1  0  0  0  0
  8  9  1  0  0  0  0
M  END
> <ID>
3830

> <Formula>
C8H15ClO

> <FW>
162.6571

> <DSSTox_CID>
4724

> <DSSTox_RID>
77511

> <DSSTox_GSID>
24724

> <DSSTox_FileID_Sort>
2194

> <TS_ChemName>
Caprylyl chloride

> <TS_ChemName_Synonyms>


> <TS_CASRN>
111-64-8

> <CASRN_ChemName_Relationship>
primary

> <TS_Description>
single chemical compound

> <ChemNote>


> <STRUCTURE_Shown>
tested chemical

> <STRUCTURE_Formula>
C8H15ClO

> <STRUCTURE_MW>
162.6571

> <STRUCTURE_ChemType>
defined organic

> <STRUCTURE_DefinedOrganicForm>
parent

> <STRUCTURE_IUPAC>
octanoyl chloride

> <STRUCTURE_SMILES>
ClC(=O)CCCCCCC

> <STRUCTURE_SMILES_Desalt>
ClC(=O)CCCCCCC

> <Substance_modify_yyyymmdd>
20080429

$$$$
