111-02-4
ChemmineR-0915142007XD

 30 29  0  0  0  0  0  0  0  0  1 V2000
    5.5360   -3.8522    0.0000 C   0  0  0  0  0  0  0  0  0  0  0  0
    1.0970   -3.6481    0.0000 C   0  0  0  0  0  0  0  0  0  0  0  0
    9.8984   -2.2195    0.0000 C   0  0  0  0  0  0  0  0  0  0  0  0
    8.8014   -1.5817    0.0000 C   0  0  0  0  0  0  0  0  0  0  0  0
    7.7044   -2.2195    0.0000 C   0  0  0  0  0  0  0  0  0  0  0  0
    6.6074   -1.5817    0.0000 C   0  0  0  0  0  0  0  0  0  0  0  0
    5.5105   -2.2195    0.0000 C   0  0  0  0  0  0  0  0  0  0  0  0
    4.4135   -1.5817    0.0000 C   0  0  0  0  0  0  0  0  0  0  0  0
    3.2910   -2.2195    0.0000 C   0  0  0  0  0  0  0  0  0  0  0  0
    2.1940   -1.5817    0.0000 C   0  0  0  0  0  0  0  0  0  0  0  0
    1.0970   -2.2195    0.0000 C   0  0  0  0  0  0  0  0  0  0  0  0
    0.0000   -1.5817    0.0000 C   0  0  0  0  0  0  0  0  0  0  0  0
   20.8938   -2.2195    0.0000 C   0  0  0  0  0  0  0  0  0  0  0  0
   19.7968   -1.5817    0.0000 C   0  0  0  0  0  0  0  0  0  0  0  0
   18.6998   -2.2195    0.0000 C   0  0  0  0  0  0  0  0  0  0  0  0
   17.6028   -1.5817    0.0000 C   0  0  0  0  0  0  0  0  0  0  0  0
   16.4803   -2.2195    0.0000 C   0  0  0  0  0  0  0  0  0  0  0  0
   15.3833   -1.5817    0.0000 C   0  0  0  0  0  0  0  0  0  0  0  0
   14.2864   -2.2195    0.0000 C   0  0  0  0  0  0  0  0  0  0  0  0
   13.1894   -1.5817    0.0000 C   0  0  0  0  0  0  0  0  0  0  0  0
   12.0924   -2.2195    0.0000 C   0  0  0  0  0  0  0  0  0  0  0  0
   10.9954   -1.5817    0.0000 C   0  0  0  0  0  0  0  0  0  0  0  0
    9.8984   -3.6991    0.0000 C   0  0  0  0  0  0  0  0  0  0  0  0
   15.3833    0.0000    0.0000 C   0  0  0  0  0  0  0  0  0  0  0  0
   19.8478   -0.2041    0.0000 C   0  0  0  0  0  0  0  0  0  0  0  0
   22.2204   -1.5817    0.0000 C   0  0  0  0  0  0  0  0  0  0  0  0
   23.3174   -2.2195    0.0000 C   0  0  0  0  0  0  0  0  0  0  0  0
   24.4144   -1.5817    0.0000 C   0  0  0  0  0  0  0  0  0  0  0  0
   24.3889    0.0000    0.0000 C   0  0  0  0  0  0  0  0  0  0  0  0
   25.5114   -2.3215    0.0000 C   0  0  0  0  0  0  0  0  0  0  0  0
  1  7  1  0  0  0  0
  2 11  1  0  0  0  0
  3  4  1  0  0  0  0
  3 22  2  0  0  0  0
  3 23  1  0  0  0  0
  4  5  1  0  0  0  0
  5  6  1  0  0  0  0
  6  7  2  0  0  0  0
  7  8  1  0  0  0  0
  8  9  1  0  0  0  0
  9 10  1  0  0  0  0
 10 11  2  0  0  0  0
 11 12  1  0  0  0  0
 13 14  1  0  0  0  0
 13 26  1  0  0  0  0
 14 15  2  0  0  0  0
 14 25  1  0  0  0  0
 15 16  1  0  0  0  0
 16 17  1  0  0  0  0
 17 18  1  0  0  0  0
 18 19  2  0  0  0  0
 18 24  1  0  0  0  0
 19 20  1  0  0  0  0
 20 21  1  0  0  0  0
 21 22  1  0  0  0  0
 26 27  1  0  0  0  0
 27 28  2  0  0  0  0
 28 29  1  0  0  0  0
 28 30  1  0  0  0  0
M  END
> <ID>
4513

> <Formula>
C30H50

> <FW>
410.718

> <DSSTox_CID>
6044

> <DSSTox_RID>
77993

> <DSSTox_GSID>
26044

> <DSSTox_FileID_Sort>
2676

> <TS_ChemName>
trans-Squalene

> <TS_ChemName_Synonyms>


> <TS_CASRN>
111-02-4

> <CASRN_ChemName_Relationship>
primary

> <TS_Description>
single chemical compound

> <ChemNote>
stereochem

> <STRUCTURE_Shown>
tested chemical

> <STRUCTURE_Formula>
C30H50

> <STRUCTURE_MW>
410.718

> <STRUCTURE_ChemType>
defined organic

> <STRUCTURE_DefinedOrganicForm>
parent

> <STRUCTURE_IUPAC>
(6E,10E,14E,18E)-2,6,10,15,19,23-hexamethyltetracosa-2,6,10,14,18,22-hexaene

> <STRUCTURE_SMILES>
C\C(C)=C\CCC(\C)=C\CCC(\C)=C\CC\C=C(/C)CC\C=C(/C)CC\C=C(/C)C

> <STRUCTURE_SMILES_Desalt>
C\C(C)=C\CCC(\C)=C\CCC(\C)=C\CC\C=C(/C)CC\C=C(/C)CC\C=C(/C)C

> <Substance_modify_yyyymmdd>
20080429

$$$$
