111-78-4
ChemmineR-0915142007XD

  8  8  0  0  0  0  0  0  0  0  1 V2000
    2.2630    0.0000    0.0000 C   0  0  0  0  0  0  0  0  0  0  0  0
    3.2328   -0.9860    0.0000 C   0  0  0  0  0  0  0  0  0  0  0  0
    3.2328   -2.2630    0.0000 C   0  0  0  0  0  0  0  0  0  0  0  0
    2.2630   -3.2328    0.0000 C   0  0  0  0  0  0  0  0  0  0  0  0
    0.9860   -3.2328    0.0000 C   0  0  0  0  0  0  0  0  0  0  0  0
    0.0000   -2.2630    0.0000 C   0  0  0  0  0  0  0  0  0  0  0  0
    0.0000   -0.9860    0.0000 C   0  0  0  0  0  0  0  0  0  0  0  0
    0.9860    0.0000    0.0000 C   0  0  0  0  0  0  0  0  0  0  0  0
  1  2  2  0  0  0  0
  1  8  1  0  0  0  0
  2  3  1  0  0  0  0
  3  4  1  0  0  0  0
  4  5  1  0  0  0  0
  5  6  2  0  0  0  0
  6  7  1  0  0  0  0
  7  8  1  0  0  0  0
M  END
> <ID>
4833

> <Formula>
C8H12

> <FW>
108.1809

> <DSSTox_CID>
6888

> <DSSTox_RID>
78238

> <DSSTox_GSID>
26888

> <DSSTox_FileID_Sort>
2921

> <TS_ChemName>
1,5-Cyclooctadiene

> <TS_ChemName_Synonyms>


> <TS_CASRN>
111-78-4

> <CASRN_ChemName_Relationship>
primary

> <TS_Description>
single chemical compound

> <ChemNote>


> <STRUCTURE_Shown>
tested chemical

> <STRUCTURE_Formula>
C8H12

> <STRUCTURE_MW>
108.1809

> <STRUCTURE_ChemType>
defined organic

> <STRUCTURE_DefinedOrganicForm>
parent

> <STRUCTURE_IUPAC>
(1Z,5Z)-cycloocta-1,5-diene

> <STRUCTURE_SMILES>
C1=CCCC=CCC1

> <STRUCTURE_SMILES_Desalt>
C1=CCCC=CCC1

> <Substance_modify_yyyymmdd>
20080429

$$$$
