111-25-1
ChemmineR-0915142007XD

  7  6  0  0  0  0  0  0  0  0  1 V2000
    0.0000   -0.6638    0.0000 Br   0  0  0  0  0  0  0  0  0  0  0  0
    1.1548    0.0000    0.0000 C    0  0  0  0  0  0  0  0  0  0  0  0
    2.3027   -0.6638    0.0000 C    0  0  0  0  0  0  0  0  0  0  0  0
    3.4575    0.0000    0.0000 C    0  0  0  0  0  0  0  0  0  0  0  0
    4.6122   -0.6638    0.0000 C    0  0  0  0  0  0  0  0  0  0  0  0
    5.7601    0.0000    0.0000 C    0  0  0  0  0  0  0  0  0  0  0  0
    6.9149   -0.6638    0.0000 C    0  0  0  0  0  0  0  0  0  0  0  0
  1  2  1  0  0  0  0
  2  3  1  0  0  0  0
  3  4  1  0  0  0  0
  4  5  1  0  0  0  0
  5  6  1  0  0  0  0
  6  7  1  0  0  0  0
M  END
> <ID>
1800

> <Formula>
C6H13Br

> <FW>
165.0714

> <DSSTox_CID>
1929

> <DSSTox_RID>
76408

> <DSSTox_GSID>
21929

> <DSSTox_FileID_Sort>
1092

> <TS_ChemName>
1-Bromohexane

> <TS_ChemName_Synonyms>


> <TS_CASRN>
111-25-1

> <CASRN_ChemName_Relationship>
primary

> <TS_Description>
single chemical compound

> <ChemNote>


> <STRUCTURE_Shown>
tested chemical

> <STRUCTURE_Formula>
C6H13Br

> <STRUCTURE_MW>
165.0714

> <STRUCTURE_ChemType>
defined organic

> <STRUCTURE_DefinedOrganicForm>
parent

> <STRUCTURE_IUPAC>
1-bromohexane

> <STRUCTURE_SMILES>
BrCCCCCC

> <STRUCTURE_SMILES_Desalt>
BrCCCCCC

> <Substance_modify_yyyymmdd>
20080429

$$$$
