111-60-4
ChemmineR-0915142007XD

 23 22  0  0  0  0  0  0  0  0  1 V2000
    2.3055   -0.6587    0.0000 C   0  0  0  0  0  0  0  0  0  0  0  0
    3.4692    0.0000    0.0000 C   0  0  0  0  0  0  0  0  0  0  0  0
    4.6330   -0.6587    0.0000 C   0  0  0  0  0  0  0  0  0  0  0  0
    5.7967    0.0000    0.0000 C   0  0  0  0  0  0  0  0  0  0  0  0
    6.9385   -0.6587    0.0000 C   0  0  0  0  0  0  0  0  0  0  0  0
    8.0803    0.0000    0.0000 C   0  0  0  0  0  0  0  0  0  0  0  0
    9.2440   -0.6587    0.0000 C   0  0  0  0  0  0  0  0  0  0  0  0
   10.4077    0.0000    0.0000 C   0  0  0  0  0  0  0  0  0  0  0  0
   11.5495   -0.6587    0.0000 C   0  0  0  0  0  0  0  0  0  0  0  0
   12.7132    0.0000    0.0000 C   0  0  0  0  0  0  0  0  0  0  0  0
   13.8770   -0.6587    0.0000 C   0  0  0  0  0  0  0  0  0  0  0  0
   15.0187    0.0000    0.0000 C   0  0  0  0  0  0  0  0  0  0  0  0
   16.1605   -0.6587    0.0000 C   0  0  0  0  0  0  0  0  0  0  0  0
   17.3242    0.0000    0.0000 C   0  0  0  0  0  0  0  0  0  0  0  0
   18.4880   -0.6587    0.0000 C   0  0  0  0  0  0  0  0  0  0  0  0
   19.6517    0.0000    0.0000 C   0  0  0  0  0  0  0  0  0  0  0  0
   20.7935   -0.6587    0.0000 C   0  0  0  0  0  0  0  0  0  0  0  0
   21.9572    0.0000    0.0000 C   0  0  0  0  0  0  0  0  0  0  0  0
    1.1637    0.0000    0.0000 O   0  0  0  0  0  0  0  0  0  0  0  0
    2.3055   -1.9761    0.0000 O   0  0  0  0  0  0  0  0  0  0  0  0
    1.1637   -2.6568    0.0000 C   0  0  0  0  0  0  0  0  0  0  0  0
    1.1637   -3.9962    0.0000 C   0  0  0  0  0  0  0  0  0  0  0  0
    0.0000   -4.6549    0.0000 O   0  0  0  0  0  0  0  0  0  0  0  0
  1  2  1  0  0  0  0
  1 20  1  0  0  0  0
  1 19  2  0  0  0  0
  2  3  1  0  0  0  0
  3  4  1  0  0  0  0
  4  5  1  0  0  0  0
  5  6  1  0  0  0  0
  6  7  1  0  0  0  0
  7  8  1  0  0  0  0
  8  9  1  0  0  0  0
  9 10  1  0  0  0  0
 10 11  1  0  0  0  0
 11 12  1  0  0  0  0
 12 13  1  0  0  0  0
 13 14  1  0  0  0  0
 14 15  1  0  0  0  0
 15 16  1  0  0  0  0
 16 17  1  0  0  0  0
 17 18  1  0  0  0  0
 20 21  1  0  0  0  0
 21 22  1  0  0  0  0
 22 23  1  0  0  0  0
M  END
> <ID>
4831

> <Formula>
C20H40O3

> <FW>
328.5298

> <DSSTox_CID>
6881

> <DSSTox_RID>
78236

> <DSSTox_GSID>
26881

> <DSSTox_FileID_Sort>
2919

> <TS_ChemName>
2-Hydroxyethyl octadecanoate

> <TS_ChemName_Synonyms>
Octadecanoic acid, 2-hydroxyethyl ester

> <TS_CASRN>
111-60-4

> <CASRN_ChemName_Relationship>
primary

> <TS_Description>
single chemical compound

> <ChemNote>


> <STRUCTURE_Shown>
tested chemical

> <STRUCTURE_Formula>
C20H40O3

> <STRUCTURE_MW>
328.5298

> <STRUCTURE_ChemType>
defined organic

> <STRUCTURE_DefinedOrganicForm>
parent

> <STRUCTURE_IUPAC>
2-hydroxyethyl octadecanoate

> <STRUCTURE_SMILES>
O=C(CCCCCCCCCCCCCCCCC)OCCO

> <STRUCTURE_SMILES_Desalt>
O=C(CCCCCCCCCCCCCCCCC)OCCO

> <Substance_modify_yyyymmdd>
20080429

$$$$
