111-21-7
ChemmineR-0915142007XD

 16 15  0  0  0  0  0  0  0  0  1 V2000
   13.8275    0.0000    0.0000 O   0  0  0  0  0  0  0  0  0  0  0  0
   12.6798   -0.6637    0.0000 C   0  0  0  0  0  0  0  0  0  0  0  0
   12.6798   -1.9912    0.0000 O   0  0  0  0  0  0  0  0  0  0  0  0
   11.5183   -2.6549    0.0000 C   0  0  0  0  0  0  0  0  0  0  0  0
   10.3706   -1.9912    0.0000 C   0  0  0  0  0  0  0  0  0  0  0  0
    9.2229   -2.6549    0.0000 O   0  0  0  0  0  0  0  0  0  0  0  0
    8.0614   -1.9912    0.0000 C   0  0  0  0  0  0  0  0  0  0  0  0
    6.9138   -2.6549    0.0000 C   0  0  0  0  0  0  0  0  0  0  0  0
    5.7661   -1.9912    0.0000 O   0  0  0  0  0  0  0  0  0  0  0  0
    4.6046   -2.6549    0.0000 C   0  0  0  0  0  0  0  0  0  0  0  0
    3.4569   -1.9912    0.0000 C   0  0  0  0  0  0  0  0  0  0  0  0
    2.3092   -2.6549    0.0000 O   0  0  0  0  0  0  0  0  0  0  0  0
    1.1477   -1.9912    0.0000 C   0  0  0  0  0  0  0  0  0  0  0  0
    1.1477   -0.6637    0.0000 O   0  0  0  0  0  0  0  0  0  0  0  0
    0.0000   -2.6549    0.0000 C   0  0  0  0  0  0  0  0  0  0  0  0
   11.5183    0.0000    0.0000 C   0  0  0  0  0  0  0  0  0  0  0  0
  1  2  2  0  0  0  0
  2  3  1  0  0  0  0
  2 16  1  0  0  0  0
  3  4  1  0  0  0  0
  4  5  1  0  0  0  0
  5  6  1  0  0  0  0
  6  7  1  0  0  0  0
  7  8  1  0  0  0  0
  8  9  1  0  0  0  0
  9 10  1  0  0  0  0
 10 11  1  0  0  0  0
 11 12  1  0  0  0  0
 12 13  1  0  0  0  0
 13 14  2  0  0  0  0
 13 15  1  0  0  0  0
M  END
> <ID>
4602

> <Formula>
C10H18O6

> <FW>
234.2463

> <DSSTox_CID>
6223

> <DSSTox_RID>
78065

> <DSSTox_GSID>
26223

> <DSSTox_FileID_Sort>
2748

> <TS_ChemName>
Triethylene glycol diacetate

> <TS_ChemName_Synonyms>
Triethylene glycol diacetate (Ethanol, 2,2'-[1,2-ethanediylbis(oxy)]bis-, diacetate)

> <TS_CASRN>
111-21-7

> <CASRN_ChemName_Relationship>
primary

> <TS_Description>
single chemical compound

> <ChemNote>


> <STRUCTURE_Shown>
tested chemical

> <STRUCTURE_Formula>
C10H18O6

> <STRUCTURE_MW>
234.2463

> <STRUCTURE_ChemType>
defined organic

> <STRUCTURE_DefinedOrganicForm>
parent

> <STRUCTURE_IUPAC>
ethane-1,2-diylbis(oxyethane-2,1-diyl) diacetate

> <STRUCTURE_SMILES>
O=C(C)OCCOCCOCCOC(C)=O

> <STRUCTURE_SMILES_Desalt>
O=C(C)OCCOCCOCCOC(C)=O

> <Substance_modify_yyyymmdd>
20080429

$$$$
