111-86-4
ChemmineR-0915142007XD

  9  8  0  0  0  0  0  0  0  0  1 V2000
    0.0000   -0.6638    0.0000 C   0  0  0  0  0  0  0  0  0  0  0  0
    1.1525    0.0000    0.0000 C   0  0  0  0  0  0  0  0  0  0  0  0
    2.3050   -0.6638    0.0000 C   0  0  0  0  0  0  0  0  0  0  0  0
    3.4575    0.0000    0.0000 C   0  0  0  0  0  0  0  0  0  0  0  0
    4.6099   -0.6638    0.0000 C   0  0  0  0  0  0  0  0  0  0  0  0
    5.7624    0.0000    0.0000 C   0  0  0  0  0  0  0  0  0  0  0  0
    6.9149   -0.6638    0.0000 C   0  0  0  0  0  0  0  0  0  0  0  0
    8.0674    0.0000    0.0000 C   0  0  0  0  0  0  0  0  0  0  0  0
    9.2199   -0.6638    0.0000 N   0  0  0  0  0  0  0  0  0  0  0  0
  1  2  1  0  0  0  0
  2  3  1  0  0  0  0
  3  4  1  0  0  0  0
  4  5  1  0  0  0  0
  5  6  1  0  0  0  0
  6  7  1  0  0  0  0
  7  8  1  0  0  0  0
  8  9  1  0  0  0  0
M  END
> <ID>
1808

> <Formula>
C8H19N

> <FW>
129.2432

> <DSSTox_CID>
1939

> <DSSTox_RID>
76415

> <DSSTox_GSID>
21939

> <DSSTox_FileID_Sort>
1099

> <TS_ChemName>
1-Octanamine

> <TS_ChemName_Synonyms>
1-Octanamine (Octylamine)

> <TS_CASRN>
111-86-4

> <CASRN_ChemName_Relationship>
primary

> <TS_Description>
single chemical compound

> <ChemNote>


> <STRUCTURE_Shown>
tested chemical

> <STRUCTURE_Formula>
C8H19N

> <STRUCTURE_MW>
129.2432

> <STRUCTURE_ChemType>
defined organic

> <STRUCTURE_DefinedOrganicForm>
parent

> <STRUCTURE_IUPAC>
octan-1-amine

> <STRUCTURE_SMILES>
CCCCCCCCN

> <STRUCTURE_SMILES_Desalt>
CCCCCCCCN

> <Substance_modify_yyyymmdd>
20080429

$$$$
