111-40-0
ChemmineR-0915142007XD

  7  6  0  0  0  0  0  0  0  0  1 V2000
    3.4575    0.0000    0.0000 N   0  0  0  0  0  0  0  0  0  0  0  0
    2.3027   -0.6638    0.0000 C   0  0  0  0  0  0  0  0  0  0  0  0
    1.1548    0.0000    0.0000 C   0  0  0  0  0  0  0  0  0  0  0  0
    0.0000   -0.6638    0.0000 N   0  0  0  0  0  0  0  0  0  0  0  0
    4.6122   -0.6638    0.0000 C   0  0  0  0  0  0  0  0  0  0  0  0
    5.7601    0.0000    0.0000 C   0  0  0  0  0  0  0  0  0  0  0  0
    6.9149   -0.6638    0.0000 N   0  0  0  0  0  0  0  0  0  0  0  0
  1  2  1  0  0  0  0
  1  5  1  0  0  0  0
  2  3  1  0  0  0  0
  3  4  1  0  0  0  0
  5  6  1  0  0  0  0
  6  7  1  0  0  0  0
M  END
> <ID>
3989

> <Formula>
C4H13N3

> <FW>
103.1661

> <DSSTox_CID>
5050

> <DSSTox_RID>
77641

> <DSSTox_GSID>
25050

> <DSSTox_FileID_Sort>
2324

> <TS_ChemName>
Diethylenetriamine

> <TS_ChemName_Synonyms>
Diethylenetriamine (1,2-Ethanediamine, N-(2-aminoethyl)-)

> <TS_CASRN>
111-40-0

> <CASRN_ChemName_Relationship>
primary

> <TS_Description>
single chemical compound

> <ChemNote>


> <STRUCTURE_Shown>
tested chemical

> <STRUCTURE_Formula>
C4H13N3

> <STRUCTURE_MW>
103.1661

> <STRUCTURE_ChemType>
defined organic

> <STRUCTURE_DefinedOrganicForm>
parent

> <STRUCTURE_IUPAC>
N-(2-aminoethyl)ethane-1,2-diamine

> <STRUCTURE_SMILES>
NCCNCCN

> <STRUCTURE_SMILES_Desalt>
NCCNCCN

> <Substance_modify_yyyymmdd>
20080429

$$$$
