111011-63-3
ChemmineR-0915142007XD

 45 49  0  0  0  0  0  0  0  0  2 V2000
    5.9301   -2.6686    0.0000 C   0  0  0  0  0  0  0  0  0  0  0  0
    4.7790   -1.9883    0.0000 C   0  0  0  0  0  0  0  0  0  0  0  0
    7.0813   -1.9883    0.0000 C   0  0  0  0  0  0  0  0  0  0  0  0
    5.9301   -3.9941    0.0000 C   0  0  0  0  0  0  0  0  0  0  0  0
    3.6279   -2.6686    0.0000 P   0  0  0  0  0  0  0  0  0  0  0  0
    4.7790   -0.6628    0.0000 C   0  0  0  0  0  0  0  0  0  0  0  0
    7.0813   -0.6628    0.0000 C   0  0  0  0  0  0  0  0  0  0  0  0
    8.2324   -2.6686    0.0000 C   0  0  0  0  0  0  0  0  0  0  0  0
    7.0813   -4.6395    0.0000 C   0  0  0  0  0  0  0  0  0  0  0  0
    4.7790   -4.6395    0.0000 C   0  0  0  0  0  0  0  0  0  0  0  0
    3.6279   -3.9941    0.0000 O   0  0  0  0  0  0  0  0  0  0  0  0
    2.4767   -1.9883    0.0000 O   0  0  0  0  0  0  0  0  0  0  0  0
    4.2906   -1.5000    0.0000 O   0  0  0  0  0  0  0  0  0  0  0  0
    5.9301    0.0000    0.0000 N   0  0  0  0  0  0  0  0  0  0  0  0
    3.6279    0.0000    0.0000 C   0  0  0  0  0  0  0  0  0  0  0  0
    8.2324    0.0000    0.0000 C   0  0  0  0  0  0  0  0  0  0  0  0
    9.3836   -1.9883    0.0000 O   0  0  0  0  0  0  0  0  0  0  0  0
    8.2324   -3.9941    0.0000 O   0  0  0  0  0  0  0  0  0  0  0  0
    7.0813   -5.9825    0.0000 C   0  0  0  0  0  0  0  0  0  0  0  0
    4.7790   -5.9825    0.0000 C   0  0  0  0  0  0  0  0  0  0  0  0
    2.4767   -4.6395    0.0000 C   0  0  0  0  0  0  0  0  0  0  0  0
    1.3256   -2.6686    0.0000 C   0  0  0  0  0  0  0  0  0  0  0  0
   10.5522   -2.6686    0.0000 C   0  0  0  0  0  0  0  0  0  0  0  0
    5.9301   -6.6452    0.0000 C   0  0  0  0  0  0  0  0  0  0  0  0
    8.2324   -6.6452    0.0000 N   0  3  0  0  0  0  0  0  0  0  0  0
    1.3256   -3.9941    0.0000 C   0  0  0  0  0  0  0  0  0  0  0  0
   11.6859   -1.9883    0.0000 C   0  0  0  0  0  0  0  0  0  0  0  0
    9.3836   -5.9825    0.0000 O   0  0  0  0  0  0  0  0  0  0  0  0
    8.2324   -7.9708    0.0000 O   0  5  0  0  0  0  0  0  0  0  0  0
    0.6628   -5.1278    0.0000 C   0  0  0  0  0  0  0  0  0  0  0  0
    0.0000   -3.9941    0.0000 C   0  0  0  0  0  0  0  0  0  0  0  0
   12.8370   -2.6686    0.0000 N   0  0  0  0  0  0  0  0  0  0  0  0
   12.8370   -3.9941    0.0000 C   0  0  0  0  0  0  0  0  0  0  0  0
   13.9882   -1.9883    0.0000 C   0  0  0  0  0  0  0  0  0  0  0  0
   13.9882   -4.6395    0.0000 C   0  0  0  0  0  0  0  0  0  0  0  0
   11.6859   -4.6395    0.0000 C   0  0  0  0  0  0  0  0  0  0  0  0
   15.1393   -2.6686    0.0000 C   0  0  0  0  0  0  0  0  0  0  0  0
   13.9882   -5.9825    0.0000 C   0  0  0  0  0  0  0  0  0  0  0  0
   11.6859   -5.9825    0.0000 C   0  0  0  0  0  0  0  0  0  0  0  0
   16.2904   -1.9883    0.0000 C   0  0  0  0  0  0  0  0  0  0  0  0
   15.1393   -3.9941    0.0000 C   0  0  0  0  0  0  0  0  0  0  0  0
   12.8370   -6.6452    0.0000 C   0  0  0  0  0  0  0  0  0  0  0  0
   17.4416   -2.6686    0.0000 C   0  0  0  0  0  0  0  0  0  0  0  0
   16.2904   -4.6395    0.0000 C   0  0  0  0  0  0  0  0  0  0  0  0
   17.4416   -3.9941    0.0000 C   0  0  0  0  0  0  0  0  0  0  0  0
  1  2  1  0  0  0  0
  1  3  1  0  0  0  0
  1  4  1  0  0  0  0
  2  5  1  0  0  0  0
  2  6  2  0  0  0  0
  3  7  2  0  0  0  0
  3  8  1  0  0  0  0
  4  9  2  0  0  0  0
  4 10  1  0  0  0  0
  5 11  1  0  0  0  0
  5 12  1  0  0  0  0
  5 13  2  0  0  0  0
  6 14  1  0  0  0  0
  6 15  1  0  0  0  0
  7 16  1  0  0  0  0
  7 14  1  0  0  0  0
  8 17  1  0  0  0  0
  8 18  2  0  0  0  0
  9 19  1  0  0  0  0
 10 20  2  0  0  0  0
 11 21  1  0  0  0  0
 12 22  1  0  0  0  0
 17 23  1  0  0  0  0
 19 24  2  0  0  0  0
 19 25  1  0  0  0  0
 20 24  1  0  0  0  0
 21 26  1  0  0  0  0
 22 26  1  0  0  0  0
 23 27  1  0  0  0  0
 25 28  2  0  0  0  0
 25 29  1  0  0  0  0
 26 30  1  0  0  0  0
 26 31  1  0  0  0  0
 27 32  1  0  0  0  0
 32 33  1  0  0  0  0
 32 34  1  0  0  0  0
 33 35  2  0  0  0  0
 33 36  1  0  0  0  0
 34 37  1  0  0  0  0
 35 38  1  0  0  0  0
 36 39  2  0  0  0  0
 37 40  2  0  0  0  0
 37 41  1  0  0  0  0
 38 42  2  0  0  0  0
 39 42  1  0  0  0  0
 40 43  1  0  0  0  0
 41 44  2  0  0  0  0
 43 45  2  0  0  0  0
 44 45  1  0  0  0  0
M  END
> <ID>
9801

> <Formula>
C34H38N3O7P

> <FW>
631.6552

> <DSSTox_CID>
23988

> <DSSTox_RID>
80095

> <DSSTox_GSID>
43988

> <DSSTox_FileID_Sort>
4777

> <TS_ChemName>
Efonidipine

> <TS_ChemName_Synonyms>


> <TS_CASRN>
111011-63-3

> <CASRN_ChemName_Relationship>
primary

> <TS_Description>
single chemical compound

> <ChemNote>


> <STRUCTURE_Shown>
tested chemical

> <STRUCTURE_Formula>
C34H38N3O7P

> <STRUCTURE_MW>
631.6552

> <STRUCTURE_ChemType>
defined organic

> <STRUCTURE_DefinedOrganicForm>
parent

> <STRUCTURE_IUPAC>
2-[benzyl(phenyl)amino]ethyl 5-(5,5-dimethyl-2-oxido-1,3,2-dioxaphosphinan-2-yl)-2,6-dimethyl-4-(3-nitrophenyl)-1,4-dihydropyridine-3-carboxylate

> <STRUCTURE_SMILES>
O=P1(OCC(C)(C)CO1)C=5C(c2cccc(c2)[N+]([O-])=O)C(C(=O)OCCN(Cc3ccccc3)c4ccccc4)=C(C)NC=5C

> <STRUCTURE_SMILES_Desalt>
O=P1(OCC(C)(C)CO1)C=5C(c2cccc(c2)[N+]([O-])=O)C(C(=O)OCCN(Cc3ccccc3)c4ccccc4)=C(C)NC=5C

> <Substance_modify_yyyymmdd>
20090130

$$$$
