1111-78-0
ChemmineR-0915142007XD

  5  3  0  0  0  0  0  0  0  0  2 V2000
    1.1524   -1.3424    0.0000 C   0  0  0  0  0  0  0  0  0  0  0  0
    1.1524    0.0000    0.0000 O   0  0  0  0  0  0  0  0  0  0  0  0
    2.3007   -1.9975    0.0000 O   0  5  0  0  0  0  0  0  0  0  0  0
    0.0000   -1.9975    0.0000 N   0  0  0  0  0  0  0  0  0  0  0  0
    4.0435   -2.2037    0.0000 N   0  3  0  0  0  0  0  0  0  0  0  0
  1  2  2  0  0  0  0
  1  3  1  0  0  0  0
  1  4  1  0  0  0  0
M  END
> <ID>
5108

> <Formula>
CH6N2O2

> <FW>
78.0705 (60.0326+18.0379)

> <DSSTox_CID>
7360

> <DSSTox_RID>
78423

> <DSSTox_GSID>
27360

> <DSSTox_FileID_Sort>
3106

> <TS_ChemName>
Ammonium carbamate

> <TS_ChemName_Synonyms>
Carbamic acid, monoammonium salt

> <TS_CASRN>
1111-78-0

> <CASRN_ChemName_Relationship>
primary

> <TS_Description>
single chemical compound

> <ChemNote>
parent [463-77-4]

> <STRUCTURE_Shown>
tested chemical

> <STRUCTURE_Formula>
CH6N2O2

> <STRUCTURE_MW>
78.0705

> <STRUCTURE_ChemType>
defined organic

> <STRUCTURE_DefinedOrganicForm>
complex

> <STRUCTURE_IUPAC>
ammonium carbamate

> <STRUCTURE_SMILES>
[NH4+].[O-]C(N)=O

> <STRUCTURE_SMILES_Desalt>
NC(=O)O

> <Substance_modify_yyyymmdd>
20080429

$$$$
