11111-34-5
ChemmineR-0915142007XD

 32 31  0  0  0  0  0  0  0  0  1 V2000
    0.0277   -5.0743    0.0000 O   0  0  0  0  0  0  0  0  0  0  0  0
    1.1646   -4.3811    0.0000 C   0  0  0  0  0  0  0  0  0  0  0  0
    2.3430   -5.0327    0.0000 C   0  0  0  0  0  0  0  0  0  0  0  0
    3.4799   -4.3672    0.0000 O   0  0  0  0  0  0  0  0  0  0  0  0
    4.6445   -5.0188    0.0000 C   0  0  0  0  0  0  0  0  0  0  0  0
    5.7813   -4.3395    0.0000 C   0  0  0  0  0  0  0  0  0  0  0  0
    4.6445   -6.3498    0.0000 C   0  0  0  0  0  0  0  0  0  0  0  0
    6.9459   -4.9911    0.0000 N   0  0  0  0  0  0  0  0  0  0  0  0
    8.0967   -4.3117    0.0000 C   0  0  0  0  0  0  0  0  0  0  0  0
    9.2474   -4.9772    0.0000 C   0  0  0  0  0  0  0  0  0  0  0  0
   10.3842   -4.2979    0.0000 O   0  0  0  0  0  0  0  0  0  0  0  0
    9.2612   -6.3082    0.0000 C   0  0  0  0  0  0  0  0  0  0  0  0
   11.5627   -4.9495    0.0000 C   0  0  0  0  0  0  0  0  0  0  0  0
   12.6995   -4.2840    0.0000 C   0  0  0  0  0  0  0  0  0  0  0  0
   13.8641   -4.9218    0.0000 O   0  0  0  0  0  0  0  0  0  0  0  0
    6.9459   -2.5094    0.0000 C   0  0  0  0  0  0  0  0  0  0  0  0
    6.2805   -3.4799    0.0000 C   0  0  0  0  0  0  0  0  0  0  0  0
    0.0000   -1.2894    0.0000 O   0  0  0  0  0  0  0  0  0  0  0  0
    1.1369   -1.9548    0.0000 C   0  0  0  0  0  0  0  0  0  0  0  0
    2.3014   -1.3032    0.0000 C   0  0  0  0  0  0  0  0  0  0  0  0
    3.4522   -1.9687    0.0000 O   0  0  0  0  0  0  0  0  0  0  0  0
    4.6168   -1.3310    0.0000 C   0  0  0  0  0  0  0  0  0  0  0  0
    5.7536   -2.0103    0.0000 C   0  0  0  0  0  0  0  0  0  0  0  0
    4.6168    0.0000    0.0000 C   0  0  0  0  0  0  0  0  0  0  0  0
    6.9043   -1.3448    0.0000 N   0  0  0  0  0  0  0  0  0  0  0  0
    8.0689   -2.0242    0.0000 C   0  0  0  0  0  0  0  0  0  0  0  0
    9.2197   -1.3587    0.0000 C   0  0  0  0  0  0  0  0  0  0  0  0
   10.3565   -2.0380    0.0000 O   0  0  0  0  0  0  0  0  0  0  0  0
    9.2335   -0.0416    0.0000 C   0  0  0  0  0  0  0  0  0  0  0  0
   11.5211   -1.4003    0.0000 C   0  0  0  0  0  0  0  0  0  0  0  0
   12.6580   -2.0658    0.0000 C   0  0  0  0  0  0  0  0  0  0  0  0
   13.8364   -1.4141    0.0000 O   0  0  0  0  0  0  0  0  0  0  0  0
  1  2  1  0  0  0  0
  2  3  1  0  0  0  0
  3  4  1  0  0  0  0
  4  5  1  0  0  0  0
  5  6  1  0  0  0  0
  5  7  1  0  0  0  0
  6  8  1  0  0  0  0
  8  9  1  0  0  0  0
  8 17  1  0  0  0  0
  9 10  1  0  0  0  0
 10 11  1  0  0  0  0
 10 12  1  0  0  0  0
 11 13  1  0  0  0  0
 13 14  1  0  0  0  0
 14 15  1  0  0  0  0
 16 17  1  0  0  0  0
 16 25  1  0  0  0  0
 18 19  1  0  0  0  0
 19 20  1  0  0  0  0
 20 21  1  0  0  0  0
 21 22  1  0  0  0  0
 22 23  1  0  0  0  0
 22 24  1  0  0  0  0
 23 25  1  0  0  0  0
 25 26  1  0  0  0  0
 26 27  1  0  0  0  0
 27 28  1  0  0  0  0
 27 29  1  0  0  0  0
 28 30  1  0  0  0  0
 30 31  1  0  0  0  0
 31 32  1  0  0  0  0
M  END
> <ID>
12751

> <Formula>
C22H48N2O8

> <FW>
468.6251

> <DSSTox_CID>
27630

> <DSSTox_RID>
82462

> <DSSTox_GSID>
47630

> <DSSTox_FileID_Sort>
7143

> <TS_ChemName>
Tetronic 701

> <TS_ChemName_Synonyms>
Tetronic 701 (Ethylenediamine tetrakis(propoxylate-block-ethoxylate) tetrol)

> <TS_CASRN>
11111-34-5

> <CASRN_ChemName_Relationship>
primary

> <TS_Description>
polymer

> <ChemNote>
average molecular weight 3600

> <STRUCTURE_Shown>
monomer of polymer

> <STRUCTURE_Formula>
C22H48N2O8

> <STRUCTURE_MW>
468.6251

> <STRUCTURE_ChemType>
defined organic

> <STRUCTURE_DefinedOrganicForm>
parent

> <STRUCTURE_IUPAC>
6,9-bis[2-(2-hydroxyethoxy)propyl]-4,11-dimethyl-3,12-dioxa-6,9-diazatetradecane-1,14-diol

> <STRUCTURE_SMILES>
OCCOC(C)CN(CCN(CC(C)OCCO)CC(C)OCCO)CC(C)OCCO

> <STRUCTURE_SMILES_Desalt>
OCCOC(C)CN(CCN(CC(C)OCCO)CC(C)OCCO)CC(C)OCCO

> <Substance_modify_yyyymmdd>
20101214

$$$$
