1112-39-6
ChemmineR-0915142007XD

  7  6  0  0  0  0  0  0  0  0  1 V2000
    2.0006   -2.0006    0.0000 Si   0  0  0  0  0  0  0  0  0  0  0  0
    0.6724   -2.0006    0.0000 O    0  0  0  0  0  0  0  0  0  0  0  0
    2.0006   -0.6724    0.0000 O    0  0  0  0  0  0  0  0  0  0  0  0
    2.0006   -3.3287    0.0000 C    0  0  0  0  0  0  0  0  0  0  0  0
    3.3287   -2.0006    0.0000 C    0  0  0  0  0  0  0  0  0  0  0  0
    0.0000   -0.8488    0.0000 C    0  0  0  0  0  0  0  0  0  0  0  0
    3.1523    0.0000    0.0000 C    0  0  0  0  0  0  0  0  0  0  0  0
  1  2  1  0  0  0  0
  1  3  1  0  0  0  0
  1  4  1  0  0  0  0
  1  5  1  0  0  0  0
  2  6  1  0  0  0  0
  3  7  1  0  0  0  0
M  END
> <ID>
9298

> <Formula>
C4H12O2Si

> <FW>
120.2224

> <DSSTox_CID>
22379

> <DSSTox_RID>
80009

> <DSSTox_GSID>
42379

> <DSSTox_FileID_Sort>
4691

> <TS_ChemName>
Dimethoxydimethylsilane

> <TS_ChemName_Synonyms>


> <TS_CASRN>
1112-39-6

> <CASRN_ChemName_Relationship>
primary

> <TS_Description>
single chemical compound

> <ChemNote>


> <STRUCTURE_Shown>
tested chemical

> <STRUCTURE_Formula>
C4H12O2Si

> <STRUCTURE_MW>
120.2224

> <STRUCTURE_ChemType>
organometallic

> <STRUCTURE_DefinedOrganicForm>


> <STRUCTURE_IUPAC>
dimethoxy(dimethyl)silane

> <STRUCTURE_SMILES>
C[Si](C)(OC)OC

> <STRUCTURE_SMILES_Desalt>
C[Si](C)(OC)OC

> <Substance_modify_yyyymmdd>
20080825

$$$$
