11121-32-7
ChemmineR-0915142007XD

 81 84  0  0  1  0  0  0  0  0  1 V2000
    4.6429   -1.3413    0.0000 C   0  0  0  0  0  0  0  0  0  0  0  0
    2.3043   -2.6826    0.0000 C   0  0  0  0  0  0  0  0  0  0  0  0
    3.4392   -3.3360    0.0000 C   0  0  0  0  0  0  0  0  0  0  0  0
    4.6429   -2.6826    0.0000 O   0  0  0  0  0  0  0  0  0  0  0  0
    2.3043   -1.3413    0.0000 C   0  0  0  0  0  0  0  0  0  0  0  0
    3.4392   -0.6878    0.0000 C   0  0  0  0  0  0  0  0  0  0  0  0
   20.6695   -2.6826    0.0000 O   0  0  0  0  0  0  0  0  0  0  0  0
   20.6695   -1.3413    0.0000 C   0  0  0  0  0  0  0  0  0  0  0  0
    1.1693   -3.3704    0.0000 C   0  0  0  0  0  0  0  0  0  0  0  0
   21.8045   -3.3360    0.0000 C   0  0  0  0  0  0  0  0  0  0  0  0
    5.7434   -0.6878    0.0000 C   0  0  0  0  0  0  0  0  0  0  0  0
   28.6484   -3.3704    0.0000 C   0  0  0  0  0  0  0  0  0  0  0  0
    4.6429   -6.6720    0.0000 O   0  0  0  0  0  0  0  0  0  0  0  0
   19.5002   -0.6878    0.0000 C   0  0  0  0  0  0  0  0  0  0  0  0
    3.4392   -4.6773    0.0000 C   0  0  0  0  0  0  0  0  0  0  0  0
   16.0610   -1.3413    0.0000 C   0  0  0  0  0  0  0  0  0  0  0  0
   27.5135   -2.7170    0.0000 C   0  0  0  0  0  0  0  0  0  0  0  0
   29.7834   -2.7170    0.0000 C   0  0  0  0  0  0  0  0  0  0  0  0
    4.6429   -5.3651    0.0000 C   0  0  0  0  0  0  0  0  0  0  0  0
   17.2303   -0.6878    0.0000 C   0  0  0  0  0  0  0  0  0  0  0  0
   14.9261   -0.6878    0.0000 C   0  0  0  0  0  0  0  0  0  0  0  0
    6.9128   -1.3413    0.0000 C   0  0  0  0  0  0  0  0  0  0  0  0
   18.3653   -1.3413    0.0000 C   0  0  0  0  0  0  0  0  0  0  0  0
   21.8045   -0.6534    0.0000 O   0  0  0  0  0  0  0  0  0  0  0  0
   21.8045   -4.6773    0.0000 C   0  0  0  0  0  0  0  0  0  0  0  0
    0.0688   -2.7170    0.0000 O   0  0  0  0  0  0  0  0  0  0  0  0
    8.0477   -0.6878    0.0000 C   0  0  0  0  0  0  0  0  0  0  0  0
   12.6218   -0.6878    0.0000 C   0  0  0  0  0  0  0  0  0  0  0  0
   10.3176   -0.6878    0.0000 C   0  0  0  0  0  0  0  0  0  0  0  0
   28.6484   -4.6773    0.0000 O   0  0  0  0  0  0  0  0  0  0  0  0
   13.7568   -1.3413    0.0000 C   0  0  0  0  0  0  0  0  0  0  0  0
   11.4869   -1.3413    0.0000 C   0  0  0  0  0  0  0  0  0  0  0  0
    9.1826   -1.3413    0.0000 C   0  0  0  0  0  0  0  0  0  0  0  0
   13.7568   -5.3651    0.0000 C   0  0  0  0  0  0  0  0  0  0  0  0
   17.2303   -4.6773    0.0000 C   0  0  0  0  0  0  0  0  0  0  0  0
   18.3653   -5.3651    0.0000 C   0  0  0  0  0  0  0  0  0  0  0  0
   16.0610   -5.3651    0.0000 C   0  0  0  0  0  0  0  0  0  0  0  0
    8.0477   -4.6773    0.0000 C   0  0  0  0  0  0  0  0  0  0  0  0
   11.4869   -5.3651    0.0000 C   0  0  0  0  0  0  0  0  0  0  0  0
   10.3176   -4.6773    0.0000 C   0  0  0  0  0  0  0  0  0  0  0  0
    9.1826   -5.3651    0.0000 C   0  0  0  0  0  0  0  0  0  0  0  0
   12.6218   -4.6773    0.0000 C   0  0  0  0  0  0  0  0  0  0  0  0
   14.9261   -4.6773    0.0000 C   0  0  0  0  0  0  0  0  0  0  0  0
   16.0610   -2.6826    0.0000 O   0  0  0  0  0  0  0  0  0  0  0  0
   19.5002   -4.6773    0.0000 C   0  0  0  0  0  0  0  0  0  0  0  0
    6.9128   -5.3651    0.0000 C   0  0  0  0  0  0  0  0  0  0  0  0
    5.7434   -4.6773    0.0000 C   0  0  0  0  0  0  0  0  0  0  0  0
   20.6695   -5.3651    0.0000 C   0  0  0  0  0  0  0  0  0  0  0  0
    4.6429    0.0000    0.0000 O   0  0  0  0  0  0  0  0  0  0  0  0
   22.9738   -2.6826    0.0000 C   0  0  0  0  0  0  0  0  0  0  0  0
   29.7834   -1.3757    0.0000 C   0  0  0  0  0  0  0  0  0  0  0  0
   30.9527   -3.3704    0.0000 C   0  0  0  0  0  0  0  0  0  0  0  0
   24.1087   -3.3360    0.0000 C   0  0  0  0  0  0  0  0  0  0  0  0
    1.1693   -0.6534    0.0000 O   0  0  0  0  0  0  0  0  0  0  0  0
   32.0876   -1.3757    0.0000 C   0  0  0  0  0  0  0  0  0  0  0  0
    1.1693   -4.6773    0.0000 O   0  0  0  0  0  0  0  0  0  0  0  0
   33.2570   -0.7222    0.0000 N   0  0  0  0  0  0  0  0  0  0  0  0
   32.0876   -2.7170    0.0000 C   0  0  0  0  0  0  0  0  0  0  0  0
   30.9527   -0.7222    0.0000 C   0  0  0  0  0  0  0  0  0  0  0  0
   26.3786   -3.3704    0.0000 C   0  0  0  0  0  0  0  0  0  0  0  0
   25.2093   -2.7170    0.0000 C   0  0  0  0  0  0  0  0  0  0  0  0
   18.3653   -2.6826    0.0000 O   0  0  0  0  0  0  0  0  0  0  0  0
    6.9128   -2.6826    0.0000 O   0  0  0  0  0  0  0  0  0  0  0  0
   11.4869   -2.6826    0.0000 O   0  0  0  0  0  0  0  0  0  0  0  0
   13.7568   -2.6826    0.0000 O   0  0  0  0  0  0  0  0  0  0  0  0
    9.1826   -2.6826    0.0000 O   0  0  0  0  0  0  0  0  0  0  0  0
   26.3786   -4.6773    0.0000 O   0  0  0  0  0  0  0  0  0  0  0  0
   22.9738   -5.3995    0.0000 C   0  0  0  0  0  0  0  0  0  0  0  0
   34.3919   -1.3757    0.0000 C   0  0  0  0  0  0  0  0  0  0  0  0
   22.9738   -1.3413    0.0000 C   0  0  0  0  0  0  0  0  0  0  0  0
    0.0688   -5.3651    0.0000 C   0  0  0  0  0  0  0  0  0  0  0  0
    3.4736   -7.3255    0.0000 C   0  0  0  0  0  0  0  0  0  0  0  0
    3.4736   -8.6668    0.0000 C   0  0  0  0  0  0  0  0  0  0  0  0
    2.3386   -6.6720    0.0000 O   0  0  0  0  0  0  0  0  0  0  0  0
    2.3386   -9.3202    0.0000 C   0  0  0  0  0  0  0  0  0  0  0  0
    1.2037   -7.3255    0.0000 C   0  0  0  0  0  0  0  0  0  0  0  0
    1.2037   -8.6668    0.0000 C   0  0  0  0  0  0  0  0  0  0  0  0
    4.6773   -9.3546    0.0000 O   0  0  0  0  0  0  0  0  0  0  0  0
    2.3386  -10.6959    0.0000 N   0  0  0  0  0  0  0  0  0  0  0  0
    0.0000   -6.6720    0.0000 C   0  0  0  0  0  0  0  0  0  0  0  0
    0.0000   -9.3546    0.0000 O   0  0  0  0  0  0  0  0  0  0  0  0
  1  4  1  0  0  0  0
  1  6  1  0  0  0  0
  1 11  1  0  0  0  0
  1 49  1  0  0  0  0
  2  5  1  0  0  0  0
  2  9  1  0  0  0  0
  2  3  1  0  0  0  0
  3  4  1  0  0  0  0
  3 15  1  0  0  0  0
  5  6  1  0  0  0  0
  5 54  1  0  0  0  0
  7  8  1  0  0  0  0
  7 10  1  0  0  0  0
  8 14  1  0  0  0  0
  8 24  2  0  0  0  0
  9 26  2  0  0  0  0
  9 56  1  0  0  0  0
 10 25  1  0  0  0  0
 10 50  1  0  0  0  0
 11 22  1  0  0  0  0
 12 17  1  0  0  0  0
 12 18  1  0  0  0  0
 12 30  2  0  0  0  0
 13 19  1  0  0  0  0
 72 13  1  1  0  0  0
 14 23  1  0  0  0  0
 15 19  1  0  0  0  0
 16 21  1  0  0  0  0
 16 20  1  0  0  0  0
 16 44  2  0  0  0  0
 17 60  1  0  0  0  0
 18 51  1  0  0  0  0
 18 52  2  0  0  0  0
 19 47  1  0  0  0  0
 20 23  1  0  0  0  0
 21 31  1  0  0  0  0
 22 27  1  0  0  0  0
 22 63  1  0  0  0  0
 23 62  1  0  0  0  0
 25 48  1  0  0  0  0
 25 68  1  0  0  0  0
 27 33  1  0  0  0  0
 28 32  1  0  0  0  0
 28 31  1  0  0  0  0
 29 33  1  0  0  0  0
 29 32  1  0  0  0  0
 31 65  1  0  0  0  0
 32 64  1  0  0  0  0
 33 66  1  0  0  0  0
 34 42  2  0  0  0  0
 34 43  1  0  0  0  0
 35 37  1  0  0  0  0
 35 36  2  0  0  0  0
 36 45  1  0  0  0  0
 37 43  2  0  0  0  0
 38 46  1  0  0  0  0
 38 41  2  0  0  0  0
 39 40  2  0  0  0  0
 39 42  1  0  0  0  0
 40 41  1  0  0  0  0
 45 48  2  0  0  0  0
 46 47  2  0  0  0  0
 50 53  1  0  0  0  0
 50 70  1  0  0  0  0
 51 59  2  0  0  0  0
 52 58  1  0  0  0  0
 53 61  1  0  0  0  0
 55 58  2  0  0  0  0
 55 57  1  0  0  0  0
 55 59  1  0  0  0  0
 56 71  1  0  0  0  0
 57 69  1  0  0  0  0
 60 61  1  0  0  0  0
 60 67  1  0  0  0  0
 72 73  1  0  0  0  0
 72 74  1  0  0  0  0
 73 75  1  0  0  0  0
 73 78  1  1  0  0  0
 74 76  1  0  0  0  0
 75 77  1  0  0  0  0
 75 79  1  1  0  0  0
 76 77  1  0  0  0  0
 76 80  1  1  0  0  0
 77 81  1  6  0  0  0
M  END
> <ID>
11280

> <Formula>
C60H88N2O19

> <FW>
1141.3427

> <DSSTox_CID>
25900

> <DSSTox_RID>
81212

> <DSSTox_GSID>
45900

> <DSSTox_FileID_Sort>
5893

> <TS_ChemName>
Mepartricin

> <TS_ChemName_Synonyms>


> <TS_CASRN>
11121-32-7

> <CASRN_ChemName_Relationship>
primary

> <TS_Description>
mixture or formulation

> <ChemNote>
mixture of mepartricin A and B; structure shown mepartricin A

> <STRUCTURE_Shown>
representative component

> <STRUCTURE_Formula>
C60H88N2O19

> <STRUCTURE_MW>
1141.3427

> <STRUCTURE_ChemType>
defined organic

> <STRUCTURE_DefinedOrganicForm>
parent

> <STRUCTURE_IUPAC>
methyl (19E,21E,23E,25E,27E,29E,31E)-33-[(3-amino-3,6-dideoxy-beta-D-mannopyranosyl)oxy]-1,3,5,7,9,13,37-heptahydroxy-17-{5-hydroxy-7-[4-(methylamino)phenyl]-7-oxoheptan-2-yl}-18-methyl-11,15-dioxo-16,39-dioxabicyclo[33.3.1]nonatriaconta-19,21,23,25,27,29

> <STRUCTURE_SMILES>
CNc1ccc(cc1)C(=O)CC(O)CCC(C)C3OC(=O)CC(O)CC(=O)CC(O)CC(O)CC(O)CC(O)CC4(O)CC(O)C(C(=O)OC)C(CC(O[C@@H]2O[C@H](C)[C@@H](O)[C@H](N)[C@@H]2O)C=CC=CC=CC=CC=CC=CC=CC3C)O4

> <STRUCTURE_SMILES_Desalt>
CNc1ccc(cc1)C(=O)CC(O)CCC(C)C3OC(=O)CC(O)CC(=O)CC(O)CC(O)CC(O)CC(O)CC4(O)CC(O)C(C(=O)OC)C(CC(O[C@@H]2O[C@H](C)[C@@H](O)[C@H](N)[C@@H]2O)C=CC=CC=CC=CC=CC=CC=CC3C)O4

> <Substance_modify_yyyymmdd>
20110922

$$$$
