1113-02-6
ChemmineR-0915142007XD

 12 11  0  0  0  0  0  0  0  0  1 V2000
    1.1519   -2.3037    0.0000 P   0  0  0  0  0  0  0  0  0  0  0  0
    1.8071   -3.4556    0.0000 O   0  0  0  0  0  0  0  0  0  0  0  0
    0.0000   -2.9590    0.0000 O   0  0  0  0  0  0  0  0  0  0  0  0
    0.4828   -1.1519    0.0000 O   0  0  0  0  0  0  0  0  0  0  0  0
    2.3037   -1.6278    0.0000 S   0  0  0  0  0  0  0  0  0  0  0  0
    1.1519    0.0000    0.0000 C   0  0  0  0  0  0  0  0  0  0  0  0
    3.4556   -2.3037    0.0000 C   0  0  0  0  0  0  0  0  0  0  0  0
    4.6075   -1.6278    0.0000 C   0  0  0  0  0  0  0  0  0  0  0  0
    5.7456   -2.3037    0.0000 N   0  0  0  0  0  0  0  0  0  0  0  0
    6.8974   -1.6278    0.0000 C   0  0  0  0  0  0  0  0  0  0  0  0
    4.6075   -0.3035    0.0000 O   0  0  0  0  0  0  0  0  0  0  0  0
    1.1519   -4.6075    0.0000 C   0  0  0  0  0  0  0  0  0  0  0  0
  1  2  1  0  0  0  0
  1  3  2  0  0  0  0
  1  4  1  0  0  0  0
  1  5  1  0  0  0  0
  2 12  1  0  0  0  0
  4  6  1  0  0  0  0
  5  7  1  0  0  0  0
  7  8  1  0  0  0  0
  8  9  1  0  0  0  0
  8 11  2  0  0  0  0
  9 10  1  0  0  0  0
M  END
> <ID>
7349

> <Formula>
C5H12NO4PS

> <FW>
213.1918

> <DSSTox_CID>
17580

> <DSSTox_RID>
79343

> <DSSTox_GSID>
37580

> <DSSTox_FileID_Sort>
4025

> <TS_ChemName>
Omethoate

> <TS_ChemName_Synonyms>
Omethoate (O,O-Dimethyl S-[2-(methylamino)-2-oxoethyl ester phosphorothioic acid)

> <TS_CASRN>
1113-02-6

> <CASRN_ChemName_Relationship>
primary

> <TS_Description>
single chemical compound

> <ChemNote>


> <STRUCTURE_Shown>
tested chemical

> <STRUCTURE_Formula>
C5H12NO4PS

> <STRUCTURE_MW>
213.1918

> <STRUCTURE_ChemType>
defined organic

> <STRUCTURE_DefinedOrganicForm>
parent

> <STRUCTURE_IUPAC>
O,O-dimethyl S-[2-(methylamino)-2-oxoethyl] phosphorothioate

> <STRUCTURE_SMILES>
COP(=O)(OC)SCC(=O)NC

> <STRUCTURE_SMILES_Desalt>
COP(=O)(OC)SCC(=O)NC

> <Substance_modify_yyyymmdd>
20080429

$$$$
