111358-88-4
ChemmineR-0915142007XD

 34 41  0  0  1  0  0  0  0  0  1 V2000
    7.5948   -2.8773    0.0000 C   0  0  0  0  0  0  0  0  0  0  0  0
    6.3036   -3.3246    0.0000 C   0  0  0  0  0  0  0  0  0  0  0  0
    5.1140   -2.7451    0.0000 O   0  0  0  0  0  0  0  0  0  0  0  0
    3.8940   -3.2941    0.0000 C   0  0  0  0  0  0  0  0  0  0  0  0
    4.4735   -2.1148    0.0000 C   0  0  0  0  0  0  0  0  0  0  0  0
    5.7952   -2.1351    0.0000 C   0  0  0  0  0  0  0  0  0  0  0  0
    7.0661   -1.7691    0.0000 O   0  0  0  0  0  0  0  0  0  0  0  0
    5.6021   -0.8134    0.0000 C   0  0  0  0  0  0  0  0  0  0  0  0
    6.6391    0.0000    0.0000 O   0  0  0  0  0  0  0  0  0  0  0  0
    3.5381   -4.5853    0.0000 N   0  0  0  0  0  0  0  0  0  0  0  0
    2.2978   -5.1140    0.0000 C   0  0  0  0  0  0  0  0  0  0  0  0
    2.4299   -6.4459    0.0000 C   0  0  0  0  0  0  0  0  0  0  0  0
    1.3319   -7.1983    0.0000 C   0  0  0  0  0  0  0  0  0  0  0  0
    0.1322   -6.6594    0.0000 C   0  0  0  0  0  0  0  0  0  0  0  0
    0.0000   -5.3174    0.0000 C   0  0  0  0  0  0  0  0  0  0  0  0
    1.0980   -4.5447    0.0000 C   0  0  0  0  0  0  0  0  0  0  0  0
    3.7313   -6.7408    0.0000 C   0  0  0  0  0  0  0  0  0  0  0  0
    4.4227   -5.5817    0.0000 C   0  0  0  0  0  0  0  0  0  0  0  0
    5.7546   -5.6122    0.0000 C   0  0  0  0  0  0  0  0  0  0  0  0
    6.4053   -6.7713    0.0000 C   0  0  0  0  0  0  0  0  0  0  0  0
    5.7241   -7.9100    0.0000 C   0  0  0  0  0  0  0  0  0  0  0  0
    4.3922   -7.9100    0.0000 C   0  0  0  0  0  0  0  0  0  0  0  0
    3.9550   -9.1605    0.0000 C   0  0  0  0  0  0  0  0  0  0  0  0
    2.6841   -9.5672    0.0000 O   0  0  0  0  0  0  0  0  0  0  0  0
    5.0327   -9.9536    0.0000 N   0  0  0  0  0  0  0  0  0  0  0  0
    6.1104   -9.2012    0.0000 C   0  0  0  0  0  0  0  0  0  0  0  0
    7.7168   -6.4968    0.0000 C   0  0  0  0  0  0  0  0  0  0  0  0
    7.8693   -5.1750    0.0000 C   0  0  0  0  0  0  0  0  0  0  0  0
    9.0894   -4.6463    0.0000 C   0  0  0  0  0  0  0  0  0  0  0  0
   10.1671   -5.4495    0.0000 C   0  0  0  0  0  0  0  0  0  0  0  0
   10.0247   -6.7713    0.0000 C   0  0  0  0  0  0  0  0  0  0  0  0
    8.8047   -7.3000    0.0000 C   0  0  0  0  0  0  0  0  0  0  0  0
    6.6594   -4.6260    0.0000 N   0  0  0  0  0  0  0  0  0  0  0  0
    2.8671   -2.6841    0.0000 H   0  0  0  0  0  0  0  0  0  0  0  0
  2  1  1  6  0  0  0
  2  3  1  0  0  0  0
  2  6  1  0  0  0  0
  2 33  1  0  0  0  0
  3  4  1  0  0  0  0
  4  5  1  0  0  0  0
  4 10  1  0  0  0  0
  4 34  1  6  0  0  0
  5  6  1  0  0  0  0
  6  7  1  1  0  0  0
  6  8  1  6  0  0  0
  8  9  1  0  0  0  0
 10 11  1  0  0  0  0
 10 18  1  0  0  0  0
 11 12  2  0  0  0  0
 11 16  1  0  0  0  0
 12 13  1  0  0  0  0
 12 17  1  0  0  0  0
 13 14  2  0  0  0  0
 14 15  1  0  0  0  0
 15 16  2  0  0  0  0
 17 18  2  0  0  0  0
 17 22  1  0  0  0  0
 18 19  1  0  0  0  0
 19 20  2  0  0  0  0
 19 33  1  0  0  0  0
 20 21  1  0  0  0  0
 20 27  1  0  0  0  0
 21 22  2  0  0  0  0
 21 26  1  0  0  0  0
 22 23  1  0  0  0  0
 23 24  2  0  0  0  0
 23 25  1  0  0  0  0
 25 26  1  0  0  0  0
 27 28  2  0  0  0  0
 27 32  1  0  0  0  0
 28 29  1  0  0  0  0
 28 33  1  0  0  0  0
 29 30  2  0  0  0  0
 30 31  1  0  0  0  0
 31 32  2  0  0  0  0
M  END
> <ID>
11961

> <Formula>
C26H21N3O4

> <FW>
439.4626

> <DSSTox_CID>
26778

> <DSSTox_RID>
81897

> <DSSTox_GSID>
46778

> <DSSTox_FileID_Sort>
6578

> <TS_ChemName>
Lestaurtinib

> <TS_ChemName_Synonyms>


> <TS_CASRN>
111358-88-4

> <CASRN_ChemName_Relationship>
primary

> <TS_Description>
single chemical compound

> <ChemNote>
stereochem

> <STRUCTURE_Shown>
tested chemical

> <STRUCTURE_Formula>
C26H21N3O4

> <STRUCTURE_MW>
439.4626

> <STRUCTURE_ChemType>
defined organic

> <STRUCTURE_DefinedOrganicForm>
parent

> <STRUCTURE_IUPAC>
(5S,6S,8R)-6-hydroxy-6-(hydroxymethyl)-5-methyl-5,6,7,8,14,15-hexahydro-13H-5,8-epoxy-4b,8a,14-triazadibenzo[b,h]cycloocta[1,2,3,4-jkl]cyclopenta[e]-as-indacen-13-one

> <STRUCTURE_SMILES>
O=C6NCc5c2c4n(c1ccccc12)[C@@]3(C)O[C@H](C[C@]3(O)CO)n7c4c(c56)c8ccccc78

> <STRUCTURE_SMILES_Desalt>
O=C6NCc5c2c4n(c1ccccc12)[C@@]3(C)O[C@H](C[C@]3(O)CO)n7c4c(c56)c8ccccc78

> <Substance_modify_yyyymmdd>
20110802

$$$$
