111470-99-6
ChemmineR-0915142007XD

 38 39  0  0  0  0  0  0  0  0  1 V2000
   10.0348   -5.2424    0.0000 C    0  0  0  0  0  0  0  0  0  0  0  0
    8.9095   -4.5805    0.0000 C    0  0  0  0  0  0  0  0  0  0  0  0
    7.7975   -5.2424    0.0000 O    0  0  0  0  0  0  0  0  0  0  0  0
    6.6722   -3.2964    0.0000 O    0  0  0  0  0  0  0  0  0  0  0  0
   11.1203   -7.1620    0.0000 N    0  0  0  0  0  0  0  0  0  0  0  0
   10.0348   -6.5266    0.0000 C    0  0  0  0  0  0  0  0  0  0  0  0
    8.9095   -7.1620    0.0000 C    0  0  0  0  0  0  0  0  0  0  0  0
    7.7975   -6.5266    0.0000 O    0  0  0  0  0  0  0  0  0  0  0  0
    6.6722   -7.1620    0.0000 C    0  0  0  0  0  0  0  0  0  0  0  0
    0.0000   -4.5805    0.0000 C    0  0  0  0  0  0  0  0  0  0  0  0
    2.2373   -3.2964    0.0000 O    0  0  0  0  0  0  0  0  0  0  0  0
    1.1120   -5.2424    0.0000 O    0  0  0  0  0  0  0  0  0  0  0  0
    2.2373   -4.5805    0.0000 C    0  0  0  0  0  0  0  0  0  0  0  0
    6.6722   -4.5805    0.0000 C    0  0  0  0  0  0  0  0  0  0  0  0
    2.2373   -7.1620    0.0000 C    0  0  0  0  0  0  0  0  0  0  0  0
    6.7252   -2.6212    0.0000 Cl   0  0  0  0  0  0  0  0  0  0  0  0
    3.3229   -0.6487    0.0000 C    0  0  0  0  0  0  0  0  0  0  0  0
    3.3229   -1.9725    0.0000 C    0  0  0  0  0  0  0  0  0  0  0  0
    4.4614    0.0000    0.0000 C    0  0  0  0  0  0  0  0  0  0  0  0
    4.4614   -2.6212    0.0000 C    0  0  0  0  0  0  0  0  0  0  0  0
    5.5866   -0.6487    0.0000 C    0  0  0  0  0  0  0  0  0  0  0  0
    5.5866   -1.9725    0.0000 C    0  0  0  0  0  0  0  0  0  0  0  0
    5.5734   -5.2424    0.0000 C    0  0  0  0  0  0  0  0  0  0  0  0
    5.5734   -6.5266    0.0000 C    0  0  0  0  0  0  0  0  0  0  0  0
    4.4614   -4.5805    0.0000 C    0  0  0  0  0  0  0  0  0  0  0  0
    4.4614   -7.1620    0.0000 N    0  0  0  0  0  0  0  0  0  0  0  0
    3.3361   -5.2424    0.0000 C    0  0  0  0  0  0  0  0  0  0  0  0
    3.3361   -6.5266    0.0000 C    0  0  0  0  0  0  0  0  0  0  0  0
    9.1081   -1.4562    0.0000 S    0  0  0  0  0  0  0  0  0  0  0  0
    9.1081   -0.0794    0.0000 O    0  0  0  0  0  0  0  0  0  0  0  0
    9.1081   -2.8066    0.0000 O    0  0  0  0  0  0  0  0  0  0  0  0
   10.4849   -1.4562    0.0000 C    0  0  0  0  0  0  0  0  0  0  0  0
    7.7313   -1.4562    0.0000 O    0  0  0  0  0  0  0  0  0  0  0  0
   11.1733   -2.6212    0.0000 C    0  0  0  0  0  0  0  0  0  0  0  0
   11.1733   -0.2648    0.0000 C    0  0  0  0  0  0  0  0  0  0  0  0
   12.5501   -0.2648    0.0000 C    0  0  0  0  0  0  0  0  0  0  0  0
   12.5501   -2.6212    0.0000 C    0  0  0  0  0  0  0  0  0  0  0  0
   13.2385   -1.4562    0.0000 C    0  0  0  0  0  0  0  0  0  0  0  0
  1  2  1  0  0  0  0
  2  3  1  0  0  0  0
  3 14  1  0  0  0  0
  4 14  2  0  0  0  0
  5  6  1  0  0  0  0
  6  7  1  0  0  0  0
  7  8  1  0  0  0  0
  8  9  1  0  0  0  0
  9 24  1  0  0  0  0
 10 12  1  0  0  0  0
 11 13  2  0  0  0  0
 12 13  1  0  0  0  0
 13 27  1  0  0  0  0
 14 23  1  0  0  0  0
 15 28  1  0  0  0  0
 16 22  1  0  0  0  0
 17 18  1  0  0  0  0
 17 19  2  0  0  0  0
 18 20  2  0  0  0  0
 19 21  1  0  0  0  0
 20 22  1  0  0  0  0
 20 25  1  0  0  0  0
 21 22  2  0  0  0  0
 23 24  2  0  0  0  0
 23 25  1  0  0  0  0
 24 26  1  0  0  0  0
 25 27  1  0  0  0  0
 26 28  1  0  0  0  0
 27 28  2  0  0  0  0
 29 30  2  0  0  0  0
 29 31  2  0  0  0  0
 29 32  1  0  0  0  0
 29 33  1  0  0  0  0
 32 34  2  0  0  0  0
 32 35  1  0  0  0  0
 34 37  1  0  0  0  0
 35 36  2  0  0  0  0
 36 38  1  0  0  0  0
 37 38  2  0  0  0  0
M  END
> <ID>
9737

> <Formula>
C26H31ClN2O8S

> <FW>
567.0509 (408.8759+158.1750)

> <DSSTox_CID>
23909

> <DSSTox_RID>
80087

> <DSSTox_GSID>
43909

> <DSSTox_FileID_Sort>
4769

> <TS_ChemName>
Amlodipine besylate

> <TS_ChemName_Synonyms>


> <TS_CASRN>
111470-99-6

> <CASRN_ChemName_Relationship>
primary

> <TS_Description>
single chemical compound

> <ChemNote>
tautomers; parent [88150-42-9]

> <STRUCTURE_Shown>
tested chemical

> <STRUCTURE_Formula>
C26H31ClN2O8S

> <STRUCTURE_MW>
567.0509

> <STRUCTURE_ChemType>
defined organic

> <STRUCTURE_DefinedOrganicForm>
complex

> <STRUCTURE_IUPAC>
3-ethyl 5-methyl 2-[(2-aminoethoxy)methyl]-4-(2-chlorophenyl)-6-methyl-1,4-dihydropyridine-3,5-dicarboxylate benzenesulfonate (1:1)

> <STRUCTURE_SMILES>
O=S(=O)(O)c1ccccc1.O=C(OC)C1=C(C)NC(COCCN)=C(C1c2ccccc2Cl)C(=O)OCC

> <STRUCTURE_SMILES_Desalt>
O=C(OC)C1=C(C)NC(COCCN)=C(C1c2ccccc2Cl)C(=O)OCC

> <Substance_modify_yyyymmdd>
20090108

$$$$
