1115-70-4
ChemmineR-0915142007XD

 10  8  0  0  0  0  0  0  0  0  1 V2000
    2.3025   -1.3215    0.0000 C    0  0  0  0  0  0  0  0  0  0  0  0
    3.4537   -1.9944    0.0000 N    0  0  0  0  0  0  0  0  0  0  0  0
    4.6050   -1.3215    0.0000 C    0  0  0  0  0  0  0  0  0  0  0  0
    2.3025    0.0000    0.0000 N    0  0  0  0  0  0  0  0  0  0  0  0
    1.1512   -1.9944    0.0000 N    0  0  0  0  0  0  0  0  0  0  0  0
    4.6050    0.0000    0.0000 N    0  0  0  0  0  0  0  0  0  0  0  0
    5.7562   -1.9944    0.0000 N    0  0  0  0  0  0  0  0  0  0  0  0
    0.0000   -1.3215    0.0000 C    0  0  0  0  0  0  0  0  0  0  0  0
    1.1512   -3.3240    0.0000 C    0  0  0  0  0  0  0  0  0  0  0  0
    8.1073   -0.5756    0.0000 Cl   0  0  0  0  0  0  0  0  0  0  0  0
  1  2  1  0  0  0  0
  1  4  2  0  0  0  0
  1  5  1  0  0  0  0
  2  3  1  0  0  0  0
  3  6  2  0  0  0  0
  3  7  1  0  0  0  0
  5  8  1  0  0  0  0
  5  9  1  0  0  0  0
M  END
> <ID>
7285

> <Formula>
C4H12ClN5

> <FW>
165.6246 (129.1636+36.4609)

> <DSSTox_CID>
17246

> <DSSTox_RID>
79314

> <DSSTox_GSID>
37246

> <DSSTox_FileID_Sort>
3996

> <TS_ChemName>
Metformin hydrochloride

> <TS_ChemName_Synonyms>


> <TS_CASRN>
1115-70-4

> <CASRN_ChemName_Relationship>
primary

> <TS_Description>
single chemical compound

> <ChemNote>
parent [657-24-9]

> <STRUCTURE_Shown>
tested chemical

> <STRUCTURE_Formula>
C4H12ClN5

> <STRUCTURE_MW>
165.6246

> <STRUCTURE_ChemType>
defined organic

> <STRUCTURE_DefinedOrganicForm>
complex

> <STRUCTURE_IUPAC>
N,N-dimethylimidodicarbonimidic diamide hydrochloride (1:1)

> <STRUCTURE_SMILES>
Cl.N=C(N)NC(=N)N(C)C

> <STRUCTURE_SMILES_Desalt>
N=C(N)NC(=N)N(C)C

> <Substance_modify_yyyymmdd>
20080429

$$$$
