111696-23-2
ChemmineR-0915142007XD

 37 38  0  0  1  0  0  0  0  0  1 V2000
    3.6268   -6.9298    0.0000 Cl   0  0  0  0  0  0  0  0  0  0  0  0
    8.1280   -5.7479    0.0000 N    0  0  0  0  0  0  0  0  0  0  0  0
    9.2938   -6.4117    0.0000 C    0  0  0  0  0  0  0  0  0  0  0  0
   10.4272   -5.7479    0.0000 C    0  0  0  0  0  0  0  0  0  0  0  0
   10.4272   -4.4202    0.0000 C    0  0  0  0  0  0  0  0  0  0  0  0
    9.2938   -3.7564    0.0000 S    0  0  0  0  0  0  0  0  0  0  0  0
    8.1280   -4.4202    0.0000 C    0  0  0  0  0  0  0  0  0  0  0  0
    8.1280   -3.0925    0.0000 H    0  0  0  0  0  0  0  0  0  0  0  0
    6.8003   -4.4202    0.0000 C    0  0  0  0  0  0  0  0  0  0  0  0
    6.8003   -3.0925    0.0000 H    0  0  0  0  0  0  0  0  0  0  0  0
    6.8003   -5.7479    0.0000 C    0  0  0  0  0  0  0  0  0  0  0  0
    5.8774   -6.7032    0.0000 O    0  0  0  0  0  0  0  0  0  0  0  0
    5.4726   -4.4202    0.0000 N    0  0  0  0  0  0  0  0  0  0  0  0
    4.8088   -3.2706    0.0000 C    0  0  0  0  0  0  0  0  0  0  0  0
    5.4726   -2.1049    0.0000 O    0  0  0  0  0  0  0  0  0  0  0  0
    3.4811   -3.2706    0.0000 C    0  0  0  0  0  0  0  0  0  0  0  0
    2.8011   -4.4202    0.0000 N    0  0  0  0  0  0  0  0  0  0  0  0
    1.4734   -4.4202    0.0000 O    0  0  0  0  0  0  0  0  0  0  0  0
    0.8258   -5.5698    0.0000 C    0  0  0  0  0  0  0  0  0  0  0  0
    2.8011   -2.1049    0.0000 C    0  0  0  0  0  0  0  0  0  0  0  0
    1.4896   -1.9753    0.0000 N    0  0  0  0  0  0  0  0  0  0  0  0
    1.2143   -0.6800    0.0000 C    0  0  0  0  0  0  0  0  0  0  0  0
    2.3801    0.0000    0.0000 S    0  0  0  0  0  0  0  0  0  0  0  0
    3.3516   -0.8905    0.0000 C    0  0  0  0  0  0  0  0  0  0  0  0
    0.0000   -0.1295    0.0000 N    0  0  0  0  0  0  0  0  0  0  0  0
   11.5929   -6.4117    0.0000 C    0  0  0  0  0  0  0  0  0  0  0  0
    9.2938   -7.7394    0.0000 C    0  0  0  0  0  0  0  0  0  0  0  0
    8.1280   -8.4032    0.0000 O    0  0  0  0  0  0  0  0  0  0  0  0
   10.4272   -8.4032    0.0000 O    0  0  0  0  0  0  0  0  0  0  0  0
   11.5929   -7.7394    0.0000 C    0  0  0  0  0  0  0  0  0  0  0  0
   12.7425   -8.4032    0.0000 O    0  0  0  0  0  0  0  0  0  0  0  0
   13.8921   -7.7394    0.0000 C    0  0  0  0  0  0  0  0  0  0  0  0
   15.0578   -8.4032    0.0000 C    0  0  0  0  0  0  0  0  0  0  0  0
   16.1912   -7.7394    0.0000 C    0  0  0  0  0  0  0  0  0  0  0  0
   15.0578   -9.7309    0.0000 C    0  0  0  0  0  0  0  0  0  0  0  0
   15.0578   -7.0594    0.0000 C    0  0  0  0  0  0  0  0  0  0  0  0
   13.8921   -6.4117    0.0000 O    0  0  0  0  0  0  0  0  0  0  0  0
  2  3  1  0  0  0  0
  2  7  1  0  0  0  0
  2 11  1  0  0  0  0
  3  4  2  0  0  0  0
  3 27  1  0  0  0  0
  4  5  1  0  0  0  0
  4 26  1  0  0  0  0
  5  6  1  0  0  0  0
  6  7  1  0  0  0  0
  7  8  1  6  0  0  0
  7  9  1  0  0  0  0
  9 10  1  6  0  0  0
  9 11  1  0  0  0  0
  9 13  1  0  0  0  0
 11 12  2  0  0  0  0
 13 14  1  0  0  0  0
 14 15  2  0  0  0  0
 14 16  1  0  0  0  0
 16 17  2  0  0  0  0
 16 20  1  0  0  0  0
 17 18  1  0  0  0  0
 18 19  1  0  0  0  0
 20 21  1  0  0  0  0
 20 24  2  0  0  0  0
 21 22  2  0  0  0  0
 22 23  1  0  0  0  0
 22 25  1  0  0  0  0
 23 24  1  0  0  0  0
 27 28  2  0  0  0  0
 27 29  1  0  0  0  0
 29 30  1  0  0  0  0
 30 31  1  0  0  0  0
 31 32  1  0  0  0  0
 32 33  1  0  0  0  0
 32 37  2  0  0  0  0
 33 34  1  0  0  0  0
 33 35  1  0  0  0  0
 33 36  1  0  0  0  0
M  END
> <ID>
13588

> <Formula>
C20H26ClN5O7S2

> <FW>
548.0327 (36.4609+511.5718)

> <DSSTox_CID>
28516

> <DSSTox_RID>
82788

> <DSSTox_GSID>
48590

> <DSSTox_FileID_Sort>
7465

> <TS_ChemName>
Cefetamet pivoxil HCl

> <TS_ChemName_Synonyms>
Cefetamet pivoxil hydrochloride

> <TS_CASRN>
111696-23-2

> <CASRN_ChemName_Relationship>
primary

> <TS_Description>
single chemical compound

> <ChemNote>
stereochem; parent [65243-33-6]

> <STRUCTURE_Shown>
tested chemical

> <STRUCTURE_Formula>
C20H26ClN5O7S2

> <STRUCTURE_MW>
548.0327

> <STRUCTURE_ChemType>
defined organic

> <STRUCTURE_DefinedOrganicForm>
complex

> <STRUCTURE_IUPAC>
[(2,2-dimethylpropanoyl)oxy]methyl (6R,7R)-7-{[(2E)-2-(2-amino-1,3-thiazol-4-yl)-2-(methoxyimino)acetyl]amino}-3-methyl-8-oxo-5-thia-1-azabicyclo[4.2.0]oct-2-ene-2-carboxylate hydrochloride (1:1)

> <STRUCTURE_SMILES>
Cl.CC=3CS[C@H]2N(C(=O)[C@H]2NC(=O)C(=N\OC)\c1csc(N)n1)C=3C(=O)OCOC(=O)C(C)(C)C

> <STRUCTURE_SMILES_Desalt>
CC=3CS[C@H]2N(C(=O)[C@H]2NC(=O)C(=N\OC)\c1csc(N)n1)C=3C(=O)OCOC(=O)C(C)(C)C

> <Substance_modify_yyyymmdd>
20111014

$$$$
