111686-79-4
ChemmineR-0915142007XD

 21 21  0  0  0  0  0  0  0  0  1 V2000
    5.3188   -1.5081    0.0000 C    0  0  0  0  0  0  0  0  0  0  0  0
    4.6621   -2.6594    0.0000 C    0  0  0  0  0  0  0  0  0  0  0  0
    3.9891   -3.8107    0.0000 C    0  0  0  0  0  0  0  0  0  0  0  0
    2.6594   -3.8107    0.0000 C    0  0  0  0  0  0  0  0  0  0  0  0
    2.0027   -4.9702    0.0000 C    0  0  0  0  0  0  0  0  0  0  0  0
    0.6730   -4.9702    0.0000 C    0  0  0  0  0  0  0  0  0  0  0  0
    0.0000   -3.8107    0.0000 C    0  0  0  0  0  0  0  0  0  0  0  0
    0.6730   -2.6594    0.0000 C    0  0  0  0  0  0  0  0  0  0  0  0
    2.0027   -2.6594    0.0000 C    0  0  0  0  0  0  0  0  0  0  0  0
    3.5107   -1.9864    0.0000 N    0  0  0  0  0  0  0  0  0  0  0  0
    3.5107   -0.6567    0.0000 C    0  0  0  0  0  0  0  0  0  0  0  0
    4.6621    0.0000    0.0000 O    0  0  0  0  0  0  0  0  0  0  0  0
    2.3594    0.0000    0.0000 C    0  0  0  0  0  0  0  0  0  0  0  0
    1.2000   -0.6567    0.0000 N    0  0  0  0  0  0  0  0  0  0  0  0
    5.7972   -3.3161    0.0000 C    0  0  0  0  0  0  0  0  0  0  0  0
    6.9566   -2.6594    0.0000 C    0  0  0  0  0  0  0  0  0  0  0  0
    8.1079   -3.3161    0.0000 C    0  0  0  0  0  0  0  0  0  0  0  0
    8.1079   -4.6459    0.0000 C    0  0  0  0  0  0  0  0  0  0  0  0
    6.9566   -5.3188    0.0000 C    0  0  0  0  0  0  0  0  0  0  0  0
    5.7972   -4.6459    0.0000 C    0  0  0  0  0  0  0  0  0  0  0  0
    3.6729   -5.1404    0.0000 Cl   0  0  0  0  0  0  0  0  0  0  0  0
  1  2  1  0  0  0  0
  2  3  1  0  0  0  0
  2 10  1  0  0  0  0
  2 15  1  0  0  0  0
  3  4  1  0  0  0  0
  4  5  2  0  0  0  0
  4  9  1  0  0  0  0
  5  6  1  0  0  0  0
  6  7  2  0  0  0  0
  7  8  1  0  0  0  0
  8  9  2  0  0  0  0
 10 11  1  0  0  0  0
 11 12  2  0  0  0  0
 11 13  1  0  0  0  0
 13 14  1  0  0  0  0
 15 16  2  0  0  0  0
 15 20  1  0  0  0  0
 16 17  1  0  0  0  0
 17 18  2  0  0  0  0
 18 19  1  0  0  0  0
 19 20  2  0  0  0  0
M  END
> <ID>
11125

> <Formula>
C17H21ClN2O

> <FW>
304.8144 (268.3535+36.4609)

> <DSSTox_CID>
25683

> <DSSTox_RID>
81056

> <DSSTox_GSID>
45683

> <DSSTox_FileID_Sort>
5737

> <TS_ChemName>
Remacemide hydrochloride

> <TS_ChemName_Synonyms>


> <TS_CASRN>
111686-79-4

> <CASRN_ChemName_Relationship>
primary

> <TS_Description>
single chemical compound

> <ChemNote>


> <STRUCTURE_Shown>
tested chemical

> <STRUCTURE_Formula>
C17H21ClN2O

> <STRUCTURE_MW>
304.8144

> <STRUCTURE_ChemType>
defined organic

> <STRUCTURE_DefinedOrganicForm>
complex

> <STRUCTURE_IUPAC>
N-(1,2-diphenylpropan-2-yl)glycinamide hydrochloride (1:1)

> <STRUCTURE_SMILES>
Cl.NCC(=O)NC(C)(Cc1ccccc1)c2ccccc2

> <STRUCTURE_SMILES_Desalt>
NCC(=O)NC(C)(Cc1ccccc1)c2ccccc2

> <Substance_modify_yyyymmdd>
20100107

$$$$
