1117-55-1
ChemmineR-0915142007XD

 16 15  0  0  0  0  0  0  0  0  1 V2000
    7.9227   -1.3231    0.0000 C   0  0  0  0  0  0  0  0  0  0  0  0
    7.9227    0.0000    0.0000 O   0  0  0  0  0  0  0  0  0  0  0  0
    9.0226   -2.0245    0.0000 O   0  0  0  0  0  0  0  0  0  0  0  0
    6.8068   -2.0245    0.0000 C   0  0  0  0  0  0  0  0  0  0  0  0
    5.6750   -1.3231    0.0000 C   0  0  0  0  0  0  0  0  0  0  0  0
    1.0999   -1.3231    0.0000 C   0  0  0  0  0  0  0  0  0  0  0  0
    2.2796   -1.9607    0.0000 C   0  0  0  0  0  0  0  0  0  0  0  0
    4.5751   -2.0245    0.0000 C   0  0  0  0  0  0  0  0  0  0  0  0
    3.3954   -1.3231    0.0000 C   0  0  0  0  0  0  0  0  0  0  0  0
    0.0000   -1.9607    0.0000 C   0  0  0  0  0  0  0  0  0  0  0  0
   10.2022   -1.3231    0.0000 C   0  0  0  0  0  0  0  0  0  0  0  0
   11.3659   -2.0245    0.0000 C   0  0  0  0  0  0  0  0  0  0  0  0
   12.4978   -1.3231    0.0000 C   0  0  0  0  0  0  0  0  0  0  0  0
   13.5977   -2.0245    0.0000 C   0  0  0  0  0  0  0  0  0  0  0  0
   14.7773   -1.3231    0.0000 C   0  0  0  0  0  0  0  0  0  0  0  0
   15.9410   -2.0245    0.0000 C   0  0  0  0  0  0  0  0  0  0  0  0
  1  2  2  0  0  0  0
  1  3  1  0  0  0  0
  1  4  1  0  0  0  0
  3 11  1  0  0  0  0
  4  5  1  0  0  0  0
  5  8  1  0  0  0  0
  6  7  1  0  0  0  0
  6 10  1  0  0  0  0
  7  9  1  0  0  0  0
  8  9  1  0  0  0  0
 11 12  1  0  0  0  0
 12 13  1  0  0  0  0
 13 14  1  0  0  0  0
 14 15  1  0  0  0  0
 15 16  1  0  0  0  0
M  END
> <ID>
12757

> <Formula>
C14H28O2

> <FW>
228.3709

> <DSSTox_CID>
27636

> <DSSTox_RID>
82465

> <DSSTox_GSID>
47636

> <DSSTox_FileID_Sort>
7146

> <TS_ChemName>
Hexyl octanoate

> <TS_ChemName_Synonyms>
Hexyl octanoate (FEMA 2575)

> <TS_CASRN>
1117-55-1

> <CASRN_ChemName_Relationship>
primary

> <TS_Description>
single chemical compound

> <ChemNote>


> <STRUCTURE_Shown>
tested chemical

> <STRUCTURE_Formula>
C14H28O2

> <STRUCTURE_MW>
228.3709

> <STRUCTURE_ChemType>
defined organic

> <STRUCTURE_DefinedOrganicForm>
parent

> <STRUCTURE_IUPAC>
hexyl octanoate

> <STRUCTURE_SMILES>
O=C(CCCCCCC)OCCCCCC

> <STRUCTURE_SMILES_Desalt>
O=C(CCCCCCC)OCCCCCC

> <Substance_modify_yyyymmdd>
20101214

$$$$
