1118-71-4
ChemmineR-0915142007XD

 13 12  0  0  0  0  0  0  0  0  1 V2000
    3.5130   -1.1826    0.0000 C   0  0  0  0  0  0  0  0  0  0  0  0
    2.3443   -1.8434    0.0000 C   0  0  0  0  0  0  0  0  0  0  0  0
    4.6399   -1.8295    0.0000 C   0  0  0  0  0  0  0  0  0  0  0  0
    1.1617   -1.2174    0.0000 C   0  0  0  0  0  0  0  0  0  0  0  0
    5.8086   -1.1478    0.0000 C   0  0  0  0  0  0  0  0  0  0  0  0
    2.3443   -3.1721    0.0000 O   0  0  0  0  0  0  0  0  0  0  0  0
    4.6399   -3.1373    0.0000 O   0  0  0  0  0  0  0  0  0  0  0  0
    0.5148   -2.3443    0.0000 C   0  0  0  0  0  0  0  0  0  0  0  0
    6.4694   -2.2956    0.0000 C   0  0  0  0  0  0  0  0  0  0  0  0
    0.0000   -0.5356    0.0000 C   0  0  0  0  0  0  0  0  0  0  0  0
    1.8087   -0.0209    0.0000 C   0  0  0  0  0  0  0  0  0  0  0  0
    5.1268    0.0000    0.0000 C   0  0  0  0  0  0  0  0  0  0  0  0
    6.9564   -0.4869    0.0000 C   0  0  0  0  0  0  0  0  0  0  0  0
  1  2  1  0  0  0  0
  1  3  1  0  0  0  0
  2  4  1  0  0  0  0
  2  6  2  0  0  0  0
  3  5  1  0  0  0  0
  3  7  2  0  0  0  0
  4  8  1  0  0  0  0
  4 10  1  0  0  0  0
  4 11  1  0  0  0  0
  5  9  1  0  0  0  0
  5 12  1  0  0  0  0
  5 13  1  0  0  0  0
M  END
> <ID>
14260

> <Formula>
C11H20O2

> <FW>
184.2753

> <DSSTox_CID>
29355

> <DSSTox_RID>
83471

> <DSSTox_GSID>
49396

> <DSSTox_FileID_Sort>
8146

> <TS_ChemName>
Dipivaloylmethane

> <TS_ChemName_Synonyms>


> <TS_CASRN>
1118-71-4

> <CASRN_ChemName_Relationship>
primary

> <TS_Description>
single chemical compound

> <ChemNote>


> <STRUCTURE_Shown>
tested chemical

> <STRUCTURE_Formula>
C11H20O2

> <STRUCTURE_MW>
184.2753

> <STRUCTURE_ChemType>
defined organic

> <STRUCTURE_DefinedOrganicForm>
parent

> <STRUCTURE_IUPAC>
2,2,6,6-tetramethylheptane-3,5-dione

> <STRUCTURE_SMILES>
CC(C)(C)C(=O)CC(=O)C(C)(C)C

> <STRUCTURE_SMILES_Desalt>
CC(C)(C)C(=O)CC(=O)C(C)(C)C

> <Substance_modify_yyyymmdd>
20111204

$$$$
