111812-58-9
ChemmineR-0915142007XD

 31 33  0  0  0  0  0  0  0  0  1 V2000
    0.3383   -4.1400    0.0000 C   0  0  0  0  0  0  0  0  0  0  0  0
    1.4176   -4.9294    0.0000 N   0  0  0  0  0  0  0  0  0  0  0  0
    2.6741   -4.5105    0.0000 C   0  0  0  0  0  0  0  0  0  0  0  0
    3.4473   -5.5898    0.0000 C   0  0  0  0  0  0  0  0  0  0  0  0
    2.6741   -6.6691    0.0000 C   0  0  0  0  0  0  0  0  0  0  0  0
    1.4176   -6.2664    0.0000 N   0  0  0  0  0  0  0  0  0  0  0  0
    3.0768   -7.9256    0.0000 C   0  0  0  0  0  0  0  0  0  0  0  0
    4.7844   -5.5898    0.0000 C   0  0  0  0  0  0  0  0  0  0  0  0
    5.4609   -6.7497    0.0000 N   0  0  0  0  0  0  0  0  0  0  0  0
    6.7819   -6.7497    0.0000 O   0  0  0  0  0  0  0  0  0  0  0  0
    7.4424   -7.8934    0.0000 C   0  0  0  0  0  0  0  0  0  0  0  0
    8.7794   -7.8934    0.0000 C   0  0  0  0  0  0  0  0  0  0  0  0
    9.4560   -6.7497    0.0000 C   0  0  0  0  0  0  0  0  0  0  0  0
   10.7769   -6.7497    0.0000 C   0  0  0  0  0  0  0  0  0  0  0  0
   11.4374   -7.8934    0.0000 C   0  0  0  0  0  0  0  0  0  0  0  0
   10.7769   -9.0533    0.0000 C   0  0  0  0  0  0  0  0  0  0  0  0
    9.4560   -9.0533    0.0000 C   0  0  0  0  0  0  0  0  0  0  0  0
   12.7744   -7.8934    0.0000 C   0  0  0  0  0  0  0  0  0  0  0  0
   13.4510   -9.0533    0.0000 O   0  0  0  0  0  0  0  0  0  0  0  0
   13.4510   -6.7497    0.0000 O   0  0  0  0  0  0  0  0  0  0  0  0
   14.7719   -6.7497    0.0000 C   0  0  0  0  0  0  0  0  0  0  0  0
   14.7719   -8.0706    0.0000 C   0  0  0  0  0  0  0  0  0  0  0  0
   14.7719   -5.4126    0.0000 C   0  0  0  0  0  0  0  0  0  0  0  0
   16.1090   -6.7497    0.0000 C   0  0  0  0  0  0  0  0  0  0  0  0
    3.0768   -3.2379    0.0000 O   0  0  0  0  0  0  0  0  0  0  0  0
    2.1908   -2.2553    0.0000 C   0  0  0  0  0  0  0  0  0  0  0  0
    0.9021   -2.5452    0.0000 C   0  0  0  0  0  0  0  0  0  0  0  0
    0.0000   -1.5465    0.0000 C   0  0  0  0  0  0  0  0  0  0  0  0
    0.4188   -0.2739    0.0000 C   0  0  0  0  0  0  0  0  0  0  0  0
    1.7237    0.0000    0.0000 C   0  0  0  0  0  0  0  0  0  0  0  0
    2.5935   -0.9826    0.0000 C   0  0  0  0  0  0  0  0  0  0  0  0
  1  2  1  0  0  0  0
  2  3  1  0  0  0  0
  2  6  1  0  0  0  0
  3  4  2  0  0  0  0
  3 25  1  0  0  0  0
  4  5  1  0  0  0  0
  4  8  1  0  0  0  0
  5  6  2  0  0  0  0
  5  7  1  0  0  0  0
  8  9  2  0  0  0  0
  9 10  1  0  0  0  0
 10 11  1  0  0  0  0
 11 12  1  0  0  0  0
 12 13  1  0  0  0  0
 12 17  2  0  0  0  0
 13 14  2  0  0  0  0
 14 15  1  0  0  0  0
 15 16  2  0  0  0  0
 15 18  1  0  0  0  0
 16 17  1  0  0  0  0
 18 19  2  0  0  0  0
 18 20  1  0  0  0  0
 20 21  1  0  0  0  0
 21 22  1  0  0  0  0
 21 23  1  0  0  0  0
 21 24  1  0  0  0  0
 25 26  1  0  0  0  0
 26 27  1  0  0  0  0
 26 31  2  0  0  0  0
 27 28  2  0  0  0  0
 28 29  1  0  0  0  0
 29 30  2  0  0  0  0
 30 31  1  0  0  0  0
M  END
> <ID>
6512

> <Formula>
C24H27N3O4

> <FW>
421.4889

> <DSSTox_CID>
12550

> <DSSTox_RID>
78979

> <DSSTox_GSID>
32550

> <DSSTox_FileID_Sort>
3661

> <TS_ChemName>
Fenpyroximate (Z,E)

> <TS_ChemName_Synonyms>


> <TS_CASRN>
111812-58-9

> <CASRN_ChemName_Relationship>
primary

> <TS_Description>
mixture or formulation

> <ChemNote>
stereochem

> <STRUCTURE_Shown>
representative isomer in mixture

> <STRUCTURE_Formula>
C24H27N3O4

> <STRUCTURE_MW>
421.4889

> <STRUCTURE_ChemType>
defined organic

> <STRUCTURE_DefinedOrganicForm>
parent

> <STRUCTURE_IUPAC>
tert-butyl 4-[({(E)-[(1,3-dimethyl-5-phenoxy-1H-pyrazol-4-yl)methylidene]amino}oxy)methyl]benzoate

> <STRUCTURE_SMILES>
Cc3nn(C)c(Oc1ccccc1)c3/C=N/OCc2ccc(cc2)C(=O)OC(C)(C)C

> <STRUCTURE_SMILES_Desalt>
Cc3nn(C)c(Oc1ccccc1)c3/C=N/OCc2ccc(cc2)C(=O)OC(C)(C)C

> <Substance_modify_yyyymmdd>
20080429

$$$$
