111974-69-7
ChemmineR-0915142007XD

 27 30  0  0  0  0  0  0  0  0  1 V2000
   10.9031   -3.2437    0.0000 S   0  0  0  0  0  0  0  0  0  0  0  0
    9.9679   -2.3085    0.0000 C   0  0  0  0  0  0  0  0  0  0  0  0
    8.6538   -2.3914    0.0000 C   0  0  0  0  0  0  0  0  0  0  0  0
    7.9080   -3.4923    0.0000 N   0  0  0  0  0  0  0  0  0  0  0  0
    8.2869   -4.7472    0.0000 C   0  0  0  0  0  0  0  0  0  0  0  0
    7.3398   -5.6824    0.0000 N   0  0  0  0  0  0  0  0  0  0  0  0
    7.6002   -6.9373    0.0000 C   0  0  0  0  0  0  0  0  0  0  0  0
    6.6650   -7.8844    0.0000 C   0  0  0  0  0  0  0  0  0  0  0  0
    5.3628   -7.4582    0.0000 N   0  0  0  0  0  0  0  0  0  0  0  0
    4.4157   -8.3934    0.0000 C   0  0  0  0  0  0  0  0  0  0  0  0
    3.1372   -7.9791    0.0000 C   0  0  0  0  0  0  0  0  0  0  0  0
    2.8412   -6.6887    0.0000 O   0  0  0  0  0  0  0  0  0  0  0  0
    1.5627   -6.2980    0.0000 C   0  0  0  0  0  0  0  0  0  0  0  0
    1.2667   -4.9958    0.0000 C   0  0  0  0  0  0  0  0  0  0  0  0
    0.0000   -4.6051    0.0000 O   0  0  0  0  0  0  0  0  0  0  0  0
    5.1023   -6.1915    0.0000 C   0  0  0  0  0  0  0  0  0  0  0  0
    6.0376   -5.2562    0.0000 C   0  0  0  0  0  0  0  0  0  0  0  0
    9.5417   -5.2444    0.0000 C   0  0  0  0  0  0  0  0  0  0  0  0
   10.6900   -4.5814    0.0000 C   0  0  0  0  0  0  0  0  0  0  0  0
   11.8384   -5.2444    0.0000 C   0  0  0  0  0  0  0  0  0  0  0  0
   11.8384   -6.5703    0.0000 C   0  0  0  0  0  0  0  0  0  0  0  0
   10.6900   -7.2332    0.0000 C   0  0  0  0  0  0  0  0  0  0  0  0
    9.5417   -6.5703    0.0000 C   0  0  0  0  0  0  0  0  0  0  0  0
    7.9080   -1.2904    0.0000 C   0  0  0  0  0  0  0  0  0  0  0  0
    8.4881   -0.0947    0.0000 C   0  0  0  0  0  0  0  0  0  0  0  0
    9.8140    0.0000    0.0000 C   0  0  0  0  0  0  0  0  0  0  0  0
   10.5598   -1.0891    0.0000 C   0  0  0  0  0  0  0  0  0  0  0  0
  1  2  1  0  0  0  0
  1 19  1  0  0  0  0
  2  3  2  0  0  0  0
  2 27  1  0  0  0  0
  3  4  1  0  0  0  0
  3 24  1  0  0  0  0
  4  5  2  0  0  0  0
  5  6  1  0  0  0  0
  5 18  1  0  0  0  0
  6  7  1  0  0  0  0
  6 17  1  0  0  0  0
  7  8  1  0  0  0  0
  8  9  1  0  0  0  0
  9 10  1  0  0  0  0
  9 16  1  0  0  0  0
 10 11  1  0  0  0  0
 11 12  1  0  0  0  0
 12 13  1  0  0  0  0
 13 14  1  0  0  0  0
 14 15  1  0  0  0  0
 16 17  1  0  0  0  0
 18 19  2  0  0  0  0
 18 23  1  0  0  0  0
 19 20  1  0  0  0  0
 20 21  2  0  0  0  0
 21 22  1  0  0  0  0
 22 23  2  0  0  0  0
 24 25  2  0  0  0  0
 25 26  1  0  0  0  0
 26 27  2  0  0  0  0
M  END
> <ID>
3173

> <Formula>
C21H25N3O2S

> <FW>
383.5071

> <DSSTox_CID>
3546

> <DSSTox_RID>
77073

> <DSSTox_GSID>
23546

> <DSSTox_FileID_Sort>
1756

> <TS_ChemName>
Quetiapine

> <TS_ChemName_Synonyms>


> <TS_CASRN>
111974-69-7

> <CASRN_ChemName_Relationship>
primary

> <TS_Description>
single chemical compound

> <ChemNote>


> <STRUCTURE_Shown>
tested chemical

> <STRUCTURE_Formula>
C21H25N3O2S

> <STRUCTURE_MW>
383.5071

> <STRUCTURE_ChemType>
defined organic

> <STRUCTURE_DefinedOrganicForm>
parent

> <STRUCTURE_IUPAC>
2-{2-[4-(dibenzo[b,f][1,4]thiazepin-11-yl)piperazin-1-yl]ethoxy}ethanol

> <STRUCTURE_SMILES>
OCCOCCN1CCN(CC1)C3=Nc4ccccc4Sc2ccccc23

> <STRUCTURE_SMILES_Desalt>
OCCOCCN1CCN(CC1)C3=Nc4ccccc4Sc2ccccc23

> <Substance_modify_yyyymmdd>
20080429

$$$$
