111974-72-2
ChemmineR-0915142007XD

 62 67  0  0  0  0  0  0  0  0  1 V2000
   18.5936   -3.5624    0.0000 C   0  0  0  0  0  0  0  0  0  0  0  0
   17.7662   -2.5282    0.0000 C   0  0  0  0  0  0  0  0  0  0  0  0
   17.9961   -4.7806    0.0000 N   0  0  0  0  0  0  0  0  0  0  0  0
   19.9037   -3.5624    0.0000 N   0  0  0  0  0  0  0  0  0  0  0  0
   18.0420   -1.2411    0.0000 C   0  0  0  0  0  0  0  0  0  0  0  0
   16.4792   -2.9189    0.0000 C   0  0  0  0  0  0  0  0  0  0  0  0
   18.6626   -5.9297    0.0000 C   0  0  0  0  0  0  0  0  0  0  0  0
   16.6630   -4.7806    0.0000 C   0  0  0  0  0  0  0  0  0  0  0  0
   20.7311   -2.5282    0.0000 C   0  0  0  0  0  0  0  0  0  0  0  0
   19.2372   -0.6665    0.0000 S   0  0  0  0  0  0  0  0  0  0  0  0
   17.0537   -0.3218    0.0000 C   0  0  0  0  0  0  0  0  0  0  0  0
   15.5139   -2.0225    0.0000 C   0  0  0  0  0  0  0  0  0  0  0  0
   17.9961   -7.0789    0.0000 C   0  0  0  0  0  0  0  0  0  0  0  0
   16.0195   -5.9297    0.0000 C   0  0  0  0  0  0  0  0  0  0  0  0
   20.4323   -1.2411    0.0000 C   0  0  0  0  0  0  0  0  0  0  0  0
   21.9952   -2.9189    0.0000 C   0  0  0  0  0  0  0  0  0  0  0  0
   15.8126   -0.7125    0.0000 C   0  0  0  0  0  0  0  0  0  0  0  0
   16.6630   -7.0789    0.0000 N   0  0  0  0  0  0  0  0  0  0  0  0
   21.4206   -0.3218    0.0000 C   0  0  0  0  0  0  0  0  0  0  0  0
   22.9835   -2.0225    0.0000 C   0  0  0  0  0  0  0  0  0  0  0  0
   16.0195   -8.2281    0.0000 C   0  0  0  0  0  0  0  0  0  0  0  0
   22.6847   -0.7125    0.0000 C   0  0  0  0  0  0  0  0  0  0  0  0
   14.6865   -8.2281    0.0000 C   0  0  0  0  0  0  0  0  0  0  0  0
   14.0199   -7.0789    0.0000 O   0  0  0  0  0  0  0  0  0  0  0  0
   14.6865   -5.9297    0.0000 C   0  0  0  0  0  0  0  0  0  0  0  0
   14.0199   -4.7806    0.0000 C   0  0  0  0  0  0  0  0  0  0  0  0
   14.6865   -3.6314    0.0000 O   0  0  0  0  0  0  0  0  0  0  0  0
   10.6184   -4.4358    0.0000 C   0  0  0  0  0  0  0  0  0  0  0  0
   11.7675   -3.7923    0.0000 C   0  0  0  0  0  0  0  0  0  0  0  0
   11.7675   -2.4592    0.0000 C   0  0  0  0  0  0  0  0  0  0  0  0
   10.6184   -5.7689    0.0000 C   0  0  0  0  0  0  0  0  0  0  0  0
   10.6184   -1.7697    0.0000 O   0  0  0  0  0  0  0  0  0  0  0  0
   11.7675   -6.4354    0.0000 O   0  0  0  0  0  0  0  0  0  0  0  0
   12.9167   -1.7697    0.0000 O   0  0  0  0  0  0  0  0  0  0  0  0
    9.4692   -6.4354    0.0000 O   0  0  0  0  0  0  0  0  0  0  0  0
    4.3898   -4.6656    0.0000 C   0  0  0  0  0  0  0  0  0  0  0  0
    5.2173   -5.6999    0.0000 C   0  0  0  0  0  0  0  0  0  0  0  0
    4.9644   -3.4475    0.0000 N   0  0  0  0  0  0  0  0  0  0  0  0
    3.0568   -4.6656    0.0000 N   0  0  0  0  0  0  0  0  0  0  0  0
    4.9415   -6.9870    0.0000 C   0  0  0  0  0  0  0  0  0  0  0  0
    6.5043   -5.2862    0.0000 C   0  0  0  0  0  0  0  0  0  0  0  0
    4.2979   -2.2983    0.0000 C   0  0  0  0  0  0  0  0  0  0  0  0
    6.2975   -3.4475    0.0000 C   0  0  0  0  0  0  0  0  0  0  0  0
    2.2524   -5.6999    0.0000 C   0  0  0  0  0  0  0  0  0  0  0  0
    3.7463   -7.5616    0.0000 S   0  0  0  0  0  0  0  0  0  0  0  0
    5.9297   -7.9063    0.0000 C   0  0  0  0  0  0  0  0  0  0  0  0
    7.4467   -6.1826    0.0000 C   0  0  0  0  0  0  0  0  0  0  0  0
    4.9644   -1.1492    0.0000 C   0  0  0  0  0  0  0  0  0  0  0  0
    6.9640   -2.2983    0.0000 C   0  0  0  0  0  0  0  0  0  0  0  0
    2.5282   -6.9870    0.0000 C   0  0  0  0  0  0  0  0  0  0  0  0
    0.9653   -5.2862    0.0000 C   0  0  0  0  0  0  0  0  0  0  0  0
    7.1708   -7.5156    0.0000 C   0  0  0  0  0  0  0  0  0  0  0  0
    6.2975   -1.1492    0.0000 N   0  0  0  0  0  0  0  0  0  0  0  0
    1.5629   -7.9063    0.0000 C   0  0  0  0  0  0  0  0  0  0  0  0
    0.0000   -6.1826    0.0000 C   0  0  0  0  0  0  0  0  0  0  0  0
    6.9640    0.0000    0.0000 C   0  0  0  0  0  0  0  0  0  0  0  0
    0.2988   -7.5156    0.0000 C   0  0  0  0  0  0  0  0  0  0  0  0
    8.2970    0.0000    0.0000 C   0  0  0  0  0  0  0  0  0  0  0  0
    8.9636   -1.1492    0.0000 O   0  0  0  0  0  0  0  0  0  0  0  0
    8.2970   -2.2983    0.0000 C   0  0  0  0  0  0  0  0  0  0  0  0
    8.9636   -3.4475    0.0000 C   0  0  0  0  0  0  0  0  0  0  0  0
    8.2970   -4.5967    0.0000 O   0  0  0  0  0  0  0  0  0  0  0  0
  1  2  1  0  0  0  0
  1  3  1  0  0  0  0
  1  4  2  0  0  0  0
  2  5  2  0  0  0  0
  2  6  1  0  0  0  0
  3  7  1  0  0  0  0
  3  8  1  0  0  0  0
  4  9  1  0  0  0  0
  5 10  1  0  0  0  0
  5 11  1  0  0  0  0
  6 12  2  0  0  0  0
  7 13  1  0  0  0  0
  8 14  1  0  0  0  0
  9 15  1  0  0  0  0
  9 16  2  0  0  0  0
 10 15  1  0  0  0  0
 11 17  2  0  0  0  0
 12 17  1  0  0  0  0
 13 18  1  0  0  0  0
 14 18  1  0  0  0  0
 15 19  2  0  0  0  0
 16 20  1  0  0  0  0
 18 21  1  0  0  0  0
 19 22  1  0  0  0  0
 20 22  2  0  0  0  0
 21 23  1  0  0  0  0
 23 24  1  0  0  0  0
 24 25  1  0  0  0  0
 25 26  1  0  0  0  0
 26 27  1  0  0  0  0
 28 29  2  0  0  0  0
 28 31  1  0  0  0  0
 29 30  1  0  0  0  0
 30 32  2  0  0  0  0
 30 34  1  0  0  0  0
 31 33  2  0  0  0  0
 31 35  1  0  0  0  0
 36 37  1  0  0  0  0
 36 38  1  0  0  0  0
 36 39  2  0  0  0  0
 37 40  2  0  0  0  0
 37 41  1  0  0  0  0
 38 42  1  0  0  0  0
 38 43  1  0  0  0  0
 39 44  1  0  0  0  0
 40 45  1  0  0  0  0
 40 46  1  0  0  0  0
 41 47  2  0  0  0  0
 42 48  1  0  0  0  0
 43 49  1  0  0  0  0
 44 50  1  0  0  0  0
 44 51  2  0  0  0  0
 45 50  1  0  0  0  0
 46 52  2  0  0  0  0
 47 52  1  0  0  0  0
 48 53  1  0  0  0  0
 49 53  1  0  0  0  0
 50 54  2  0  0  0  0
 51 55  1  0  0  0  0
 53 56  1  0  0  0  0
 54 57  1  0  0  0  0
 55 57  2  0  0  0  0
 56 58  1  0  0  0  0
 58 59  1  0  0  0  0
 59 60  1  0  0  0  0
 60 61  1  0  0  0  0
 61 62  1  0  0  0  0
M  END
> <ID>
9897

> <Formula>
C46H54N6O8S2

> <FW>
883.0864 (383.5071+116.0722+383.5071)

> <DSSTox_CID>
24201

> <DSSTox_RID>
80114

> <DSSTox_GSID>
44201

> <DSSTox_FileID_Sort>
4796

> <TS_ChemName>
Quetiapine fumarate

> <TS_ChemName_Synonyms>


> <TS_CASRN>
111974-72-2

> <CASRN_ChemName_Relationship>
primary

> <TS_Description>
single chemical compound

> <ChemNote>
parent [111974-69-7]

> <STRUCTURE_Shown>
tested chemical

> <STRUCTURE_Formula>
C46H54N6O8S2

> <STRUCTURE_MW>
883.0864

> <STRUCTURE_ChemType>
defined organic

> <STRUCTURE_DefinedOrganicForm>
complex

> <STRUCTURE_IUPAC>
2-{2-[4-(dibenzo[b,f][1,4]thiazepin-11-yl)piperazin-1-yl]ethoxy}ethanol (2E)-but-2-enedioate (2:1)

> <STRUCTURE_SMILES>
O=C(O)/C=C/C(=O)O.OCCOCCN1CCN(CC1)C3=Nc4ccccc4Sc2ccccc23.OCCOCCN1CCN(CC1)C3=Nc4ccccc4Sc2ccccc23

> <STRUCTURE_SMILES_Desalt>
OCCOCCN1CCN(CC1)C3=Nc4ccccc4Sc2ccccc23

> <Substance_modify_yyyymmdd>
20090302

$$$$
