111991-09-4
ChemmineR-0915142007XD

 28 29  0  0  0  0  0  0  0  0  1 V2000
    5.9858   -4.5900    0.0000 S   0  0  0  0  0  0  0  0  0  0  0  0
    5.3445   -3.4456    0.0000 C   0  0  0  0  0  0  0  0  0  0  0  0
    3.9612   -7.9853    0.0000 C   0  0  0  0  0  0  0  0  0  0  0  0
    6.0361   -2.2887    0.0000 C   0  0  0  0  0  0  0  0  0  0  0  0
    6.6146   -5.7469    0.0000 N   0  0  0  0  0  0  0  0  0  0  0  0
    2.6408   -7.9853    0.0000 N   0  0  0  0  0  0  0  0  0  0  0  0
    4.6528   -9.1296    0.0000 N   0  0  0  0  0  0  0  0  0  0  0  0
    7.3439   -2.2887    0.0000 C   0  0  0  0  0  0  0  0  0  0  0  0
    5.9858   -6.8535    0.0000 C   0  0  0  0  0  0  0  0  0  0  0  0
    4.6528   -6.8535    0.0000 N   0  0  0  0  0  0  0  0  0  0  0  0
    3.9612  -10.2865    0.0000 C   0  0  0  0  0  0  0  0  0  0  0  0
    2.0246   -9.1296    0.0000 C   0  0  0  0  0  0  0  0  0  0  0  0
    2.6408  -10.2865    0.0000 C   0  0  0  0  0  0  0  0  0  0  0  0
    4.8289   -5.2187    0.0000 O   0  0  0  0  0  0  0  0  0  0  0  0
    7.1176   -3.9109    0.0000 O   0  0  0  0  0  0  0  0  0  0  0  0
    4.0115   -3.4456    0.0000 N   0  0  0  0  0  0  0  0  0  0  0  0
    8.0356   -1.1443    0.0000 N   0  0  0  0  0  0  0  0  0  0  0  0
    8.0356   -3.5085    0.0000 O   0  0  0  0  0  0  0  0  0  0  0  0
    6.6146   -8.0356    0.0000 O   0  0  0  0  0  0  0  0  0  0  0  0
    5.3445   -1.1443    0.0000 C   0  0  0  0  0  0  0  0  0  0  0  0
    0.6916   -9.1296    0.0000 O   0  0  0  0  0  0  0  0  0  0  0  0
    4.6528  -11.4309    0.0000 O   0  0  0  0  0  0  0  0  0  0  0  0
    3.3199   -2.2887    0.0000 C   0  0  0  0  0  0  0  0  0  0  0  0
    9.3685   -1.1443    0.0000 C   0  0  0  0  0  0  0  0  0  0  0  0
    7.3439    0.0000    0.0000 C   0  0  0  0  0  0  0  0  0  0  0  0
    0.0000   -7.9853    0.0000 C   0  0  0  0  0  0  0  0  0  0  0  0
    3.9612  -12.5752    0.0000 C   0  0  0  0  0  0  0  0  0  0  0  0
    4.0115   -1.1443    0.0000 C   0  0  0  0  0  0  0  0  0  0  0  0
  1  2  1  0  0  0  0
  1  5  1  0  0  0  0
  1 14  2  0  0  0  0
  1 15  2  0  0  0  0
  2  4  1  0  0  0  0
  2 16  2  0  0  0  0
  3 10  1  0  0  0  0
  3  6  1  0  0  0  0
  3  7  2  0  0  0  0
  4  8  1  0  0  0  0
  4 20  2  0  0  0  0
  5  9  1  0  0  0  0
  6 12  2  0  0  0  0
  7 11  1  0  0  0  0
  8 17  1  0  0  0  0
  8 18  2  0  0  0  0
  9 10  1  0  0  0  0
  9 19  2  0  0  0  0
 11 22  1  0  0  0  0
 11 13  2  0  0  0  0
 12 13  1  0  0  0  0
 12 21  1  0  0  0  0
 16 23  1  0  0  0  0
 17 24  1  0  0  0  0
 17 25  1  0  0  0  0
 20 28  1  0  0  0  0
 21 26  1  0  0  0  0
 22 27  1  0  0  0  0
 23 28  2  0  0  0  0
M  END
> <ID>
6901

> <Formula>
C15H18N6O6S

> <FW>
410.405

> <DSSTox_CID>
14764

> <DSSTox_RID>
79199

> <DSSTox_GSID>
34764

> <DSSTox_FileID_Sort>
3881

> <TS_ChemName>
Nicosulfuron

> <TS_ChemName_Synonyms>


> <TS_CASRN>
111991-09-4

> <CASRN_ChemName_Relationship>
primary

> <TS_Description>
single chemical compound

> <ChemNote>


> <STRUCTURE_Shown>
tested chemical

> <STRUCTURE_Formula>
C15H18N6O6S

> <STRUCTURE_MW>
410.405

> <STRUCTURE_ChemType>
defined organic

> <STRUCTURE_DefinedOrganicForm>
parent

> <STRUCTURE_IUPAC>
2-{[(4,6-dimethoxypyrimidin-2-yl)carbamoyl]sulfamoyl}-N,N-dimethylpyridine-3-carboxamide

> <STRUCTURE_SMILES>
O=S(=O)(NC(=O)Nc1nc(OC)cc(OC)n1)c2ncccc2C(=O)N(C)C

> <STRUCTURE_SMILES_Desalt>
O=S(=O)(NC(=O)Nc1nc(OC)cc(OC)n1)c2ncccc2C(=O)N(C)C

> <Substance_modify_yyyymmdd>
20080429

$$$$
