1119-97-7
ChemmineR-0915142007XD

 19 17  0  0  0  0  0  0  0  0  2 V2000
    9.2048   -1.1519    0.0000 N    0  3  0  0  0  0  0  0  0  0  0  0
    8.0426   -0.4774    0.0000 C    0  0  0  0  0  0  0  0  0  0  0  0
   10.3775   -1.8161    0.0000 C    0  0  0  0  0  0  0  0  0  0  0  0
    8.5510   -2.3142    0.0000 C    0  0  0  0  0  0  0  0  0  0  0  0
    9.8794    0.0000    0.0000 C    0  0  0  0  0  0  0  0  0  0  0  0
    6.8907   -1.1519    0.0000 C    0  0  0  0  0  0  0  0  0  0  0  0
    4.5765   -2.4802    0.0000 C    0  0  0  0  0  0  0  0  0  0  0  0
    3.4453   -3.1340    0.0000 C    0  0  0  0  0  0  0  0  0  0  0  0
    2.2934   -1.1519    0.0000 C    0  0  0  0  0  0  0  0  0  0  0  0
    2.2934   -2.4802    0.0000 C    0  0  0  0  0  0  0  0  0  0  0  0
    1.1519   -3.1340    0.0000 C    0  0  0  0  0  0  0  0  0  0  0  0
    4.5765   -1.1519    0.0000 C    0  0  0  0  0  0  0  0  0  0  0  0
    5.7491   -0.4774    0.0000 C    0  0  0  0  0  0  0  0  0  0  0  0
    1.1519   -0.4774    0.0000 C    0  0  0  0  0  0  0  0  0  0  0  0
    0.0000   -2.4802    0.0000 C    0  0  0  0  0  0  0  0  0  0  0  0
    0.0000   -1.1519    0.0000 C    0  0  0  0  0  0  0  0  0  0  0  0
    3.4453   -0.4774    0.0000 C    0  0  0  0  0  0  0  0  0  0  0  0
    5.7284   -3.1340    0.0000 C    0  0  0  0  0  0  0  0  0  0  0  0
    9.4954   -2.6566    0.0000 Br   0  5  0  0  0  0  0  0  0  0  0  0
  1  2  1  0  0  0  0
  1  3  1  0  0  0  0
  1  4  1  0  0  0  0
  1  5  1  0  0  0  0
  2  6  1  0  0  0  0
  6 13  1  0  0  0  0
  7  8  1  0  0  0  0
  7 18  1  0  0  0  0
  8 10  1  0  0  0  0
  9 17  1  0  0  0  0
  9 14  1  0  0  0  0
 10 11  1  0  0  0  0
 11 15  1  0  0  0  0
 12 13  1  0  0  0  0
 12 17  1  0  0  0  0
 14 16  1  0  0  0  0
 15 16  1  0  0  0  0
M  END
> <ID>
10025

> <Formula>
C17H38BrN

> <FW>
336.3943 (256.4898+79.9045)

> <DSSTox_CID>
24367

> <DSSTox_RID>
80175

> <DSSTox_GSID>
44367

> <DSSTox_FileID_Sort>
4857

> <TS_ChemName>
Tetradonium bromide

> <TS_ChemName_Synonyms>
Tetradonium bromide (1-Tetradecanaminium, N,N,N-trimethyl-, bromide)

> <TS_CASRN>
1119-97-7

> <CASRN_ChemName_Relationship>
primary

> <TS_Description>
single chemical compound

> <ChemNote>
ammonium; parent [10182-92-0]

> <STRUCTURE_Shown>
tested chemical

> <STRUCTURE_Formula>
C17H38BrN

> <STRUCTURE_MW>
336.3943

> <STRUCTURE_ChemType>
defined organic

> <STRUCTURE_DefinedOrganicForm>
salt

> <STRUCTURE_IUPAC>
N,N,N-trimethyltetradecan-1-aminium bromide

> <STRUCTURE_SMILES>
[Br-].C[N+](C)(C)CCCCCCCCCCCCCC

> <STRUCTURE_SMILES_Desalt>
C[N+](C)(C)CCCCCCCCCCCCCC

> <Substance_modify_yyyymmdd>
20091116

$$$$
