1119-94-4
ChemmineR-0915142007XD

 17 15  0  0  0  0  0  0  0  0  2 V2000
    9.1915   -1.1502    0.0000 N    0  3  0  0  0  0  0  0  0  0  0  0
    8.0309   -0.4767    0.0000 C    0  0  0  0  0  0  0  0  0  0  0  0
   10.3624   -1.8134    0.0000 C    0  0  0  0  0  0  0  0  0  0  0  0
    8.5386   -2.3108    0.0000 C    0  0  0  0  0  0  0  0  0  0  0  0
    9.8650    0.0000    0.0000 C    0  0  0  0  0  0  0  0  0  0  0  0
    6.8806   -1.1502    0.0000 C    0  0  0  0  0  0  0  0  0  0  0  0
    3.4403   -3.1295    0.0000 C    0  0  0  0  0  0  0  0  0  0  0  0
    2.2901   -1.1502    0.0000 C    0  0  0  0  0  0  0  0  0  0  0  0
    2.2901   -2.4766    0.0000 C    0  0  0  0  0  0  0  0  0  0  0  0
    1.1502   -3.1295    0.0000 C    0  0  0  0  0  0  0  0  0  0  0  0
    4.5698   -1.1502    0.0000 C    0  0  0  0  0  0  0  0  0  0  0  0
    5.7408   -0.4767    0.0000 C    0  0  0  0  0  0  0  0  0  0  0  0
    1.1502   -0.4767    0.0000 C    0  0  0  0  0  0  0  0  0  0  0  0
    0.0000   -2.4766    0.0000 C    0  0  0  0  0  0  0  0  0  0  0  0
    0.0000   -1.1502    0.0000 C    0  0  0  0  0  0  0  0  0  0  0  0
    3.4403   -0.4767    0.0000 C    0  0  0  0  0  0  0  0  0  0  0  0
    9.4816   -2.6528    0.0000 Br   0  5  0  0  0  0  0  0  0  0  0  0
  1  2  1  0  0  0  0
  1  3  1  0  0  0  0
  1  4  1  0  0  0  0
  1  5  1  0  0  0  0
  2  6  1  0  0  0  0
  6 12  1  0  0  0  0
  7  9  1  0  0  0  0
  8 16  1  0  0  0  0
  8 13  1  0  0  0  0
  9 10  1  0  0  0  0
 10 14  1  0  0  0  0
 11 12  1  0  0  0  0
 11 16  1  0  0  0  0
 13 15  1  0  0  0  0
 14 15  1  0  0  0  0
M  END
> <ID>
10024

> <Formula>
C15H34BrN

> <FW>
308.3412 (228.4366+79.9045)

> <DSSTox_CID>
24366

> <DSSTox_RID>
80174

> <DSSTox_GSID>
44366

> <DSSTox_FileID_Sort>
4856

> <TS_ChemName>
Dodecyltrimethylammonium bromide

> <TS_ChemName_Synonyms>


> <TS_CASRN>
1119-94-4

> <CASRN_ChemName_Relationship>
primary

> <TS_Description>
single chemical compound

> <ChemNote>
ammonium; parent [10182-91-9]

> <STRUCTURE_Shown>
tested chemical

> <STRUCTURE_Formula>
C15H34BrN

> <STRUCTURE_MW>
308.3412

> <STRUCTURE_ChemType>
defined organic

> <STRUCTURE_DefinedOrganicForm>
salt

> <STRUCTURE_IUPAC>
N,N,N-trimethyldodecan-1-aminium bromide

> <STRUCTURE_SMILES>
[Br-].C[N+](C)(C)CCCCCCCCCCCC

> <STRUCTURE_SMILES_Desalt>
C[N+](C)(C)CCCCCCCCCCCC

> <Substance_modify_yyyymmdd>
20091116

$$$$
