112-92-5
ChemmineR-0915142007XD

 19 18  0  0  0  0  0  0  0  0  1 V2000
    1.1617   -0.6638    0.0000 C   0  0  0  0  0  0  0  0  0  0  0  0
    2.3026    0.0000    0.0000 C   0  0  0  0  0  0  0  0  0  0  0  0
    3.4643   -0.6638    0.0000 C   0  0  0  0  0  0  0  0  0  0  0  0
    4.6260    0.0000    0.0000 C   0  0  0  0  0  0  0  0  0  0  0  0
    5.7462   -0.6638    0.0000 C   0  0  0  0  0  0  0  0  0  0  0  0
    6.9079    0.0000    0.0000 C   0  0  0  0  0  0  0  0  0  0  0  0
    8.0696   -0.6638    0.0000 C   0  0  0  0  0  0  0  0  0  0  0  0
    9.2105    0.0000    0.0000 C   0  0  0  0  0  0  0  0  0  0  0  0
   10.3722   -0.6638    0.0000 C   0  0  0  0  0  0  0  0  0  0  0  0
   11.5339    0.0000    0.0000 C   0  0  0  0  0  0  0  0  0  0  0  0
   12.6749   -0.6638    0.0000 C   0  0  0  0  0  0  0  0  0  0  0  0
   13.8366    0.0000    0.0000 C   0  0  0  0  0  0  0  0  0  0  0  0
   14.9983   -0.6638    0.0000 C   0  0  0  0  0  0  0  0  0  0  0  0
   16.1185    0.0000    0.0000 C   0  0  0  0  0  0  0  0  0  0  0  0
   17.2801   -0.6638    0.0000 C   0  0  0  0  0  0  0  0  0  0  0  0
   18.4418    0.0000    0.0000 C   0  0  0  0  0  0  0  0  0  0  0  0
   19.5828   -0.6638    0.0000 C   0  0  0  0  0  0  0  0  0  0  0  0
   20.7445    0.0000    0.0000 C   0  0  0  0  0  0  0  0  0  0  0  0
    0.0000    0.0000    0.0000 O   0  0  0  0  0  0  0  0  0  0  0  0
  1  2  1  0  0  0  0
  1 19  1  0  0  0  0
  2  3  1  0  0  0  0
  3  4  1  0  0  0  0
  4  5  1  0  0  0  0
  5  6  1  0  0  0  0
  6  7  1  0  0  0  0
  7  8  1  0  0  0  0
  8  9  1  0  0  0  0
  9 10  1  0  0  0  0
 10 11  1  0  0  0  0
 11 12  1  0  0  0  0
 12 13  1  0  0  0  0
 13 14  1  0  0  0  0
 14 15  1  0  0  0  0
 15 16  1  0  0  0  0
 16 17  1  0  0  0  0
 17 18  1  0  0  0  0
M  END
> <ID>
4860

> <Formula>
C18H38O

> <FW>
270.4937

> <DSSTox_CID>
6935

> <DSSTox_RID>
78262

> <DSSTox_GSID>
26935

> <DSSTox_FileID_Sort>
2945

> <TS_ChemName>
1-Octadecanol

> <TS_ChemName_Synonyms>


> <TS_CASRN>
112-92-5

> <CASRN_ChemName_Relationship>
primary

> <TS_Description>
single chemical compound

> <ChemNote>


> <STRUCTURE_Shown>
tested chemical

> <STRUCTURE_Formula>
C18H38O

> <STRUCTURE_MW>
270.4937

> <STRUCTURE_ChemType>
defined organic

> <STRUCTURE_DefinedOrganicForm>
parent

> <STRUCTURE_IUPAC>
octadecan-1-ol

> <STRUCTURE_SMILES>
CCCCCCCCCCCCCCCCCCO

> <STRUCTURE_SMILES_Desalt>
CCCCCCCCCCCCCCCCCCO

> <Substance_modify_yyyymmdd>
20080429

$$$$
