112-14-1
ChemmineR-0915142007XD

 12 11  0  0  0  0  0  0  0  0  1 V2000
    1.1510   -1.3237    0.0000 C   0  0  0  0  0  0  0  0  0  0  0  0
    1.1510    0.0000    0.0000 O   0  0  0  0  0  0  0  0  0  0  0  0
    2.3021   -1.9913    0.0000 O   0  0  0  0  0  0  0  0  0  0  0  0
    0.0000   -1.9913    0.0000 C   0  0  0  0  0  0  0  0  0  0  0  0
    3.4531   -1.3237    0.0000 C   0  0  0  0  0  0  0  0  0  0  0  0
    4.6156   -1.9913    0.0000 C   0  0  0  0  0  0  0  0  0  0  0  0
    5.7552   -1.3237    0.0000 C   0  0  0  0  0  0  0  0  0  0  0  0
    6.8947   -1.9913    0.0000 C   0  0  0  0  0  0  0  0  0  0  0  0
    8.0572   -1.3237    0.0000 C   0  0  0  0  0  0  0  0  0  0  0  0
    9.2083   -1.9913    0.0000 C   0  0  0  0  0  0  0  0  0  0  0  0
   10.3593   -1.3237    0.0000 C   0  0  0  0  0  0  0  0  0  0  0  0
   11.5103   -1.9913    0.0000 C   0  0  0  0  0  0  0  0  0  0  0  0
  1  2  2  0  0  0  0
  1  3  1  0  0  0  0
  1  4  1  0  0  0  0
  3  5  1  0  0  0  0
  5  6  1  0  0  0  0
  6  7  1  0  0  0  0
  7  8  1  0  0  0  0
  8  9  1  0  0  0  0
  9 10  1  0  0  0  0
 10 11  1  0  0  0  0
 11 12  1  0  0  0  0
M  END
> <ID>
9898

> <Formula>
C10H20O2

> <FW>
172.2646

> <DSSTox_CID>
24202

> <DSSTox_RID>
80115

> <DSSTox_GSID>
44202

> <DSSTox_FileID_Sort>
4797

> <TS_ChemName>
Octyl acetate

> <TS_ChemName_Synonyms>


> <TS_CASRN>
112-14-1

> <CASRN_ChemName_Relationship>
primary

> <TS_Description>
single chemical compound

> <ChemNote>


> <STRUCTURE_Shown>
tested chemical

> <STRUCTURE_Formula>
C10H20O2

> <STRUCTURE_MW>
172.2646

> <STRUCTURE_ChemType>
defined organic

> <STRUCTURE_DefinedOrganicForm>
parent

> <STRUCTURE_IUPAC>
octyl acetate

> <STRUCTURE_SMILES>
CCCCCCCCOC(C)=O

> <STRUCTURE_SMILES_Desalt>
CCCCCCCCOC(C)=O

> <Substance_modify_yyyymmdd>
20090302

$$$$
