112-73-2
ChemmineR-0915142007XD

 15 14  0  0  0  0  0  0  0  0  1 V2000
   11.5302   -0.6621    0.0000 O   0  0  0  0  0  0  0  0  0  0  0  0
   10.3836    0.0000    0.0000 C   0  0  0  0  0  0  0  0  0  0  0  0
    9.2209   -0.6621    0.0000 C   0  0  0  0  0  0  0  0  0  0  0  0
    8.0743    0.0000    0.0000 O   0  0  0  0  0  0  0  0  0  0  0  0
    6.9278   -0.6621    0.0000 C   0  0  0  0  0  0  0  0  0  0  0  0
    5.7651    0.0000    0.0000 C   0  0  0  0  0  0  0  0  0  0  0  0
    4.6185   -0.6621    0.0000 O   0  0  0  0  0  0  0  0  0  0  0  0
    3.4558    0.0000    0.0000 C   0  0  0  0  0  0  0  0  0  0  0  0
    2.3093   -0.6621    0.0000 C   0  0  0  0  0  0  0  0  0  0  0  0
    1.1466    0.0000    0.0000 C   0  0  0  0  0  0  0  0  0  0  0  0
    0.0000   -0.6621    0.0000 C   0  0  0  0  0  0  0  0  0  0  0  0
   12.6929    0.0000    0.0000 C   0  0  0  0  0  0  0  0  0  0  0  0
   13.8394   -0.6621    0.0000 C   0  0  0  0  0  0  0  0  0  0  0  0
   15.0021    0.0000    0.0000 C   0  0  0  0  0  0  0  0  0  0  0  0
   16.1487   -0.6621    0.0000 C   0  0  0  0  0  0  0  0  0  0  0  0
  1  2  1  0  0  0  0
  1 12  1  0  0  0  0
  2  3  1  0  0  0  0
  3  4  1  0  0  0  0
  4  5  1  0  0  0  0
  5  6  1  0  0  0  0
  6  7  1  0  0  0  0
  7  8  1  0  0  0  0
  8  9  1  0  0  0  0
  9 10  1  0  0  0  0
 10 11  1  0  0  0  0
 12 13  1  0  0  0  0
 13 14  1  0  0  0  0
 14 15  1  0  0  0  0
M  END
> <ID>
3986

> <Formula>
C12H26O3

> <FW>
218.333

> <DSSTox_CID>
5046

> <DSSTox_RID>
77638

> <DSSTox_GSID>
25046

> <DSSTox_FileID_Sort>
2321

> <TS_ChemName>
Diethylene glycol dibutyl ether

> <TS_ChemName_Synonyms>


> <TS_CASRN>
112-73-2

> <CASRN_ChemName_Relationship>
primary

> <TS_Description>
single chemical compound

> <ChemNote>


> <STRUCTURE_Shown>
tested chemical

> <STRUCTURE_Formula>
C12H26O3

> <STRUCTURE_MW>
218.333

> <STRUCTURE_ChemType>
defined organic

> <STRUCTURE_DefinedOrganicForm>
parent

> <STRUCTURE_IUPAC>
1-[2-(2-butoxyethoxy)ethoxy]butane

> <STRUCTURE_SMILES>
CCCCOCCOCCOCCCC

> <STRUCTURE_SMILES_Desalt>
CCCCOCCOCCOCCCC

> <Substance_modify_yyyymmdd>
20080429

$$$$
