112-27-6
ChemmineR-0915142007XD

 10  9  0  0  0  0  0  0  0  0  1 V2000
    0.0000   -0.6638    0.0000 O   0  0  0  0  0  0  0  0  0  0  0  0
    1.1513    0.0000    0.0000 C   0  0  0  0  0  0  0  0  0  0  0  0
    2.3027   -0.6638    0.0000 C   0  0  0  0  0  0  0  0  0  0  0  0
    3.4540    0.0000    0.0000 O   0  0  0  0  0  0  0  0  0  0  0  0
    4.6053   -0.6638    0.0000 C   0  0  0  0  0  0  0  0  0  0  0  0
    5.7670    0.0000    0.0000 C   0  0  0  0  0  0  0  0  0  0  0  0
    6.9184   -0.6638    0.0000 O   0  0  0  0  0  0  0  0  0  0  0  0
    8.0697    0.0000    0.0000 C   0  0  0  0  0  0  0  0  0  0  0  0
    9.2210   -0.6638    0.0000 C   0  0  0  0  0  0  0  0  0  0  0  0
   10.3724    0.0000    0.0000 O   0  0  0  0  0  0  0  0  0  0  0  0
  1  2  1  0  0  0  0
  2  3  1  0  0  0  0
  3  4  1  0  0  0  0
  4  5  1  0  0  0  0
  5  6  1  0  0  0  0
  6  7  1  0  0  0  0
  7  8  1  0  0  0  0
  8  9  1  0  0  0  0
  9 10  1  0  0  0  0
M  END
> <ID>
1338

> <Formula>
C6H14O4

> <FW>
150.173

> <DSSTox_CID>
1393

> <DSSTox_RID>
76135

> <DSSTox_GSID>
21393

> <DSSTox_FileID_Sort>
819

> <TS_ChemName>
Triethylene glycol

> <TS_ChemName_Synonyms>
Triethylene glycol (Ethanol, 2,2'-[1,2-ethanediylbis(oxy)]bis-)

> <TS_CASRN>
112-27-6

> <CASRN_ChemName_Relationship>
primary

> <TS_Description>
single chemical compound

> <ChemNote>


> <STRUCTURE_Shown>
tested chemical

> <STRUCTURE_Formula>
C6H14O4

> <STRUCTURE_MW>
150.173

> <STRUCTURE_ChemType>
defined organic

> <STRUCTURE_DefinedOrganicForm>
parent

> <STRUCTURE_IUPAC>
2,2'-[ethane-1,2-diylbis(oxy)]diethanol

> <STRUCTURE_SMILES>
OCCOCCOCCO

> <STRUCTURE_SMILES_Desalt>
OCCOCCOCCO

> <Substance_modify_yyyymmdd>
20080429

$$$$
