112-03-8
ChemmineR-0915142007XD

 23 21  0  0  0  0  0  0  0  0  2 V2000
    2.3072    0.0000    0.0000 C    0  0  0  0  0  0  0  0  0  0  0  0
    3.4498   -0.6592    0.0000 C    0  0  0  0  0  0  0  0  0  0  0  0
    4.6143    0.0000    0.0000 C    0  0  0  0  0  0  0  0  0  0  0  0
    5.7569   -0.6592    0.0000 C    0  0  0  0  0  0  0  0  0  0  0  0
    6.8995    0.0000    0.0000 C    0  0  0  0  0  0  0  0  0  0  0  0
    8.0641   -0.6592    0.0000 C    0  0  0  0  0  0  0  0  0  0  0  0
    9.2067    0.0000    0.0000 C    0  0  0  0  0  0  0  0  0  0  0  0
   10.3712   -0.6592    0.0000 C    0  0  0  0  0  0  0  0  0  0  0  0
   11.5358    0.0000    0.0000 C    0  0  0  0  0  0  0  0  0  0  0  0
   12.6784   -0.6592    0.0000 C    0  0  0  0  0  0  0  0  0  0  0  0
   13.8430    0.0000    0.0000 C    0  0  0  0  0  0  0  0  0  0  0  0
   14.9856   -0.6592    0.0000 C    0  0  0  0  0  0  0  0  0  0  0  0
   16.1281    0.0000    0.0000 C    0  0  0  0  0  0  0  0  0  0  0  0
   17.3586   -0.6592    0.0000 C    0  0  0  0  0  0  0  0  0  0  0  0
   18.5232    0.0000    0.0000 C    0  0  0  0  0  0  0  0  0  0  0  0
   19.6658   -0.6592    0.0000 C    0  0  0  0  0  0  0  0  0  0  0  0
   20.8304    0.0000    0.0000 C    0  0  0  0  0  0  0  0  0  0  0  0
   21.9729   -0.6592    0.0000 C    0  0  0  0  0  0  0  0  0  0  0  0
    1.1426   -0.6592    0.0000 N    0  3  0  0  0  0  0  0  0  0  0  0
    0.0000    0.0000    0.0000 C    0  0  0  0  0  0  0  0  0  0  0  0
    1.1426   -1.9776    0.0000 C    0  0  0  0  0  0  0  0  0  0  0  0
    0.0000   -1.3184    0.0000 C    0  0  0  0  0  0  0  0  0  0  0  0
    5.4932   -2.3291    0.0000 Cl   0  5  0  0  0  0  0  0  0  0  0  0
  1  2  1  0  0  0  0
  1 19  1  0  0  0  0
  2  3  1  0  0  0  0
  3  4  1  0  0  0  0
  4  5  1  0  0  0  0
  5  6  1  0  0  0  0
  6  7  1  0  0  0  0
  7  8  1  0  0  0  0
  8  9  1  0  0  0  0
  9 10  1  0  0  0  0
 10 11  1  0  0  0  0
 11 12  1  0  0  0  0
 12 13  1  0  0  0  0
 13 14  1  0  0  0  0
 14 15  1  0  0  0  0
 15 16  1  0  0  0  0
 16 17  1  0  0  0  0
 17 18  1  0  0  0  0
 19 20  1  0  0  0  0
 19 21  1  0  0  0  0
 19 22  1  0  0  0  0
M  END
> <ID>
4839

> <Formula>
C21H46ClN

> <FW>
348.0496 (312.5961+35.4535)

> <DSSTox_CID>
6902

> <DSSTox_RID>
78244

> <DSSTox_GSID>
26902

> <DSSTox_FileID_Sort>
2927

> <TS_ChemName>
N,N,N-Trimethyloctadecan-1-aminium chloride

> <TS_ChemName_Synonyms>
N,N,N-Trimethyloctadecan-1-aminium chloride (1-Octadecanaminium, N,N,N-trimethyl-, chloride)

> <TS_CASRN>
112-03-8

> <CASRN_ChemName_Relationship>
primary

> <TS_Description>
single chemical compound

> <ChemNote>
ammonium; parent [15461-40-2]

> <STRUCTURE_Shown>
tested chemical

> <STRUCTURE_Formula>
C21H46ClN

> <STRUCTURE_MW>
348.0496

> <STRUCTURE_ChemType>
defined organic

> <STRUCTURE_DefinedOrganicForm>
salt

> <STRUCTURE_IUPAC>
N,N,N-trimethyloctadecan-1-aminium chloride

> <STRUCTURE_SMILES>
[Cl-].C[N+](C)(C)CCCCCCCCCCCCCCCCCC

> <STRUCTURE_SMILES_Desalt>
C[N+](C)(C)CCCCCCCCCCCCCCCCCC

> <Substance_modify_yyyymmdd>
20080429

$$$$
