112-00-5
ChemmineR-0915142007XD

 17 15  0  0  0  0  0  0  0  0  2 V2000
    2.2829    0.0000    0.0000 C    0  0  0  0  0  0  0  0  0  0  0  0
    3.4694   -0.6458    0.0000 C    0  0  0  0  0  0  0  0  0  0  0  0
    4.6559    0.0000    0.0000 C    0  0  0  0  0  0  0  0  0  0  0  0
    5.7673   -0.6458    0.0000 C    0  0  0  0  0  0  0  0  0  0  0  0
    6.9538    0.0000    0.0000 C    0  0  0  0  0  0  0  0  0  0  0  0
    8.1103   -0.6458    0.0000 C    0  0  0  0  0  0  0  0  0  0  0  0
    9.2367    0.0000    0.0000 C    0  0  0  0  0  0  0  0  0  0  0  0
   10.4232   -0.6458    0.0000 C    0  0  0  0  0  0  0  0  0  0  0  0
   11.5347    0.0000    0.0000 C    0  0  0  0  0  0  0  0  0  0  0  0
   12.7212   -0.6458    0.0000 C    0  0  0  0  0  0  0  0  0  0  0  0
   13.8326    0.0000    0.0000 C    0  0  0  0  0  0  0  0  0  0  0  0
   15.0191   -0.6458    0.0000 C    0  0  0  0  0  0  0  0  0  0  0  0
    1.1715   -0.6458    0.0000 N    0  3  0  0  0  0  0  0  0  0  0  0
    0.0000    0.0000    0.0000 C    0  0  0  0  0  0  0  0  0  0  0  0
    1.1715   -2.0126    0.0000 C    0  0  0  0  0  0  0  0  0  0  0  0
    0.0000   -1.3667    0.0000 C    0  0  0  0  0  0  0  0  0  0  0  0
    4.4456   -2.2679    0.0000 Cl   0  5  0  0  0  0  0  0  0  0  0  0
  1  2  1  0  0  0  0
  1 13  1  0  0  0  0
  2  3  1  0  0  0  0
  3  4  1  0  0  0  0
  4  5  1  0  0  0  0
  5  6  1  0  0  0  0
  6  7  1  0  0  0  0
  7  8  1  0  0  0  0
  8  9  1  0  0  0  0
  9 10  1  0  0  0  0
 10 11  1  0  0  0  0
 11 12  1  0  0  0  0
 13 14  1  0  0  0  0
 13 15  1  0  0  0  0
 13 16  1  0  0  0  0
M  END
> <ID>
4837

> <Formula>
C15H34ClN

> <FW>
263.8902 (228.4366+35.4535)

> <DSSTox_CID>
6900

> <DSSTox_RID>
78242

> <DSSTox_GSID>
26900

> <DSSTox_FileID_Sort>
2925

> <TS_ChemName>
Dodecyltrimethylammonium chloride

> <TS_ChemName_Synonyms>
1-Dodecanaminium, N,N,N-trimethyl-, chloride (Dodecyl trimethyl ammonium chloride)

> <TS_CASRN>
112-00-5

> <CASRN_ChemName_Relationship>
primary

> <TS_Description>
single chemical compound

> <ChemNote>
ammonium; parent [10182-91-9]

> <STRUCTURE_Shown>
tested chemical

> <STRUCTURE_Formula>
C15H34ClN

> <STRUCTURE_MW>
263.8902

> <STRUCTURE_ChemType>
defined organic

> <STRUCTURE_DefinedOrganicForm>
salt

> <STRUCTURE_IUPAC>
N,N,N-trimethyldodecan-1-aminium chloride

> <STRUCTURE_SMILES>
[Cl-].C[N+](C)(C)CCCCCCCCCCCC

> <STRUCTURE_SMILES_Desalt>
C[N+](C)(C)CCCCCCCCCCCC

> <Substance_modify_yyyymmdd>
20080429

$$$$
