112-59-4
ChemmineR-0915142007XD

 13 12  0  0  0  0  0  0  0  0  1 V2000
   12.6159   -0.6741    0.0000 C   0  0  0  0  0  0  0  0  0  0  0  0
   11.4603    0.0000    0.0000 C   0  0  0  0  0  0  0  0  0  0  0  0
   13.7578    0.0000    0.0000 O   0  0  0  0  0  0  0  0  0  0  0  0
   10.3184   -0.6741    0.0000 O   0  0  0  0  0  0  0  0  0  0  0  0
    9.1627    0.0000    0.0000 C   0  0  0  0  0  0  0  0  0  0  0  0
    8.0208   -0.6741    0.0000 C   0  0  0  0  0  0  0  0  0  0  0  0
    6.8652    0.0000    0.0000 O   0  0  0  0  0  0  0  0  0  0  0  0
    5.7233   -0.6741    0.0000 C   0  0  0  0  0  0  0  0  0  0  0  0
    4.5814    0.0000    0.0000 C   0  0  0  0  0  0  0  0  0  0  0  0
    3.4395   -0.6741    0.0000 C   0  0  0  0  0  0  0  0  0  0  0  0
    2.2976    0.0000    0.0000 C   0  0  0  0  0  0  0  0  0  0  0  0
    1.1419   -0.6741    0.0000 C   0  0  0  0  0  0  0  0  0  0  0  0
    0.0000    0.0000    0.0000 C   0  0  0  0  0  0  0  0  0  0  0  0
  1  2  1  0  0  0  0
  1  3  1  0  0  0  0
  2  4  1  0  0  0  0
  4  5  1  0  0  0  0
  5  6  1  0  0  0  0
  6  7  1  0  0  0  0
  7  8  1  0  0  0  0
  8  9  1  0  0  0  0
  9 10  1  0  0  0  0
 10 11  1  0  0  0  0
 11 12  1  0  0  0  0
 12 13  1  0  0  0  0
M  END
> <ID>
4849

> <Formula>
C10H22O3

> <FW>
190.2799

> <DSSTox_CID>
6921

> <DSSTox_RID>
78254

> <DSSTox_GSID>
26921

> <DSSTox_FileID_Sort>
2937

> <TS_ChemName>
2-[2-(Hexyloxy)ethoxy]ethanol

> <TS_ChemName_Synonyms>
2-[2-(Hexyloxy)ethoxy]ethanol (Diethylene glycol monohexyl ether)

> <TS_CASRN>
112-59-4

> <CASRN_ChemName_Relationship>
primary

> <TS_Description>
single chemical compound

> <ChemNote>


> <STRUCTURE_Shown>
tested chemical

> <STRUCTURE_Formula>
C10H22O3

> <STRUCTURE_MW>
190.2799

> <STRUCTURE_ChemType>
defined organic

> <STRUCTURE_DefinedOrganicForm>
parent

> <STRUCTURE_IUPAC>
2-[2-(hexyloxy)ethoxy]ethanol

> <STRUCTURE_SMILES>
OCCOCCOCCCCCC

> <STRUCTURE_SMILES_Desalt>
OCCOCCOCCCCCC

> <Substance_modify_yyyymmdd>
20080429

$$$$
