112-60-7
ChemmineR-0915142007XD

 13 12  0  0  0  0  0  0  0  0  1 V2000
    1.1419    0.0000    0.0000 C   0  0  0  0  0  0  0  0  0  0  0  0
    2.2976   -0.6741    0.0000 C   0  0  0  0  0  0  0  0  0  0  0  0
    0.0000   -0.6741    0.0000 O   0  0  0  0  0  0  0  0  0  0  0  0
   12.6159    0.0000    0.0000 C   0  0  0  0  0  0  0  0  0  0  0  0
   11.4603   -0.6741    0.0000 C   0  0  0  0  0  0  0  0  0  0  0  0
   13.7578   -0.6741    0.0000 O   0  0  0  0  0  0  0  0  0  0  0  0
    6.8652   -0.6741    0.0000 O   0  0  0  0  0  0  0  0  0  0  0  0
    9.1627   -0.6741    0.0000 C   0  0  0  0  0  0  0  0  0  0  0  0
    8.0208    0.0000    0.0000 C   0  0  0  0  0  0  0  0  0  0  0  0
    4.5814   -0.6741    0.0000 C   0  0  0  0  0  0  0  0  0  0  0  0
    5.7233    0.0000    0.0000 C   0  0  0  0  0  0  0  0  0  0  0  0
   10.3184    0.0000    0.0000 O   0  0  0  0  0  0  0  0  0  0  0  0
    3.4395    0.0000    0.0000 O   0  0  0  0  0  0  0  0  0  0  0  0
  1  2  1  0  0  0  0
  1  3  1  0  0  0  0
  2 13  1  0  0  0  0
  4  5  1  0  0  0  0
  4  6  1  0  0  0  0
  5 12  1  0  0  0  0
  7  9  1  0  0  0  0
  7 11  1  0  0  0  0
  8  9  1  0  0  0  0
  8 12  1  0  0  0  0
 10 11  1  0  0  0  0
 10 13  1  0  0  0  0
M  END
> <ID>
4850

> <Formula>
C8H18O5

> <FW>
194.2255

> <DSSTox_CID>
6922

> <DSSTox_RID>
78255

> <DSSTox_GSID>
26922

> <DSSTox_FileID_Sort>
2938

> <TS_ChemName>
Tetraethylene glycol

> <TS_ChemName_Synonyms>
Tetraethylene glycol (Ethanol, 2,2'-[oxybis(2,1-ethanediyloxy)]bis-)

> <TS_CASRN>
112-60-7

> <CASRN_ChemName_Relationship>
primary

> <TS_Description>
single chemical compound

> <ChemNote>


> <STRUCTURE_Shown>
tested chemical

> <STRUCTURE_Formula>
C8H18O5

> <STRUCTURE_MW>
194.2255

> <STRUCTURE_ChemType>
defined organic

> <STRUCTURE_DefinedOrganicForm>
parent

> <STRUCTURE_IUPAC>
2,2'-[oxybis(ethane-2,1-diyloxy)]diethanol

> <STRUCTURE_SMILES>
OCCOCCOCCOCCO

> <STRUCTURE_SMILES_Desalt>
OCCOCCOCCOCCO

> <Substance_modify_yyyymmdd>
20080429

$$$$
