112-06-1
ChemmineR-0915142007XD

 11 10  0  0  0  0  0  0  0  0  1 V2000
    9.2476   -1.3419    0.0000 C   0  0  0  0  0  0  0  0  0  0  0  0
    9.2476    0.0000    0.0000 O   0  0  0  0  0  0  0  0  0  0  0  0
    8.0826   -1.9972    0.0000 O   0  0  0  0  0  0  0  0  0  0  0  0
   10.4023   -1.9972    0.0000 C   0  0  0  0  0  0  0  0  0  0  0  0
    6.9279   -1.3419    0.0000 C   0  0  0  0  0  0  0  0  0  0  0  0
    5.7733   -1.9972    0.0000 C   0  0  0  0  0  0  0  0  0  0  0  0
    4.6186   -1.3419    0.0000 C   0  0  0  0  0  0  0  0  0  0  0  0
    3.4536   -1.9972    0.0000 C   0  0  0  0  0  0  0  0  0  0  0  0
    2.2989   -1.3419    0.0000 C   0  0  0  0  0  0  0  0  0  0  0  0
    1.1547   -1.9972    0.0000 C   0  0  0  0  0  0  0  0  0  0  0  0
    0.0000   -1.3419    0.0000 C   0  0  0  0  0  0  0  0  0  0  0  0
  1  2  2  0  0  0  0
  1  3  1  0  0  0  0
  1  4  1  0  0  0  0
  3  5  1  0  0  0  0
  5  6  1  0  0  0  0
  6  7  1  0  0  0  0
  7  8  1  0  0  0  0
  8  9  1  0  0  0  0
  9 10  1  0  0  0  0
 10 11  1  0  0  0  0
M  END
> <ID>
12274

> <Formula>
C9H18O2

> <FW>
158.238

> <DSSTox_CID>
27124

> <DSSTox_RID>
82131

> <DSSTox_GSID>
47124

> <DSSTox_FileID_Sort>
6812

> <TS_ChemName>
Heptyl acetate

> <TS_ChemName_Synonyms>


> <TS_CASRN>
112-06-1

> <CASRN_ChemName_Relationship>
primary

> <TS_Description>
single chemical compound

> <ChemNote>


> <STRUCTURE_Shown>
tested chemical

> <STRUCTURE_Formula>
C9H18O2

> <STRUCTURE_MW>
158.238

> <STRUCTURE_ChemType>
defined organic

> <STRUCTURE_DefinedOrganicForm>
parent

> <STRUCTURE_IUPAC>
heptyl acetate

> <STRUCTURE_SMILES>
CCCCCCCOC(C)=O

> <STRUCTURE_SMILES_Desalt>
CCCCCCCOC(C)=O

> <Substance_modify_yyyymmdd>
20100429

$$$$
