112-62-9
ChemmineR-0915142007XD

 21 20  0  0  0  0  0  0  0  0  1 V2000
    0.0000   -8.6529    0.0000 C   0  0  0  0  0  0  0  0  0  0  0  0
    2.3017   -9.9855    0.0000 O   0  0  0  0  0  0  0  0  0  0  0  0
    1.1595   -7.9953    0.0000 O   0  0  0  0  0  0  0  0  0  0  0  0
    2.3017   -8.6529    0.0000 C   0  0  0  0  0  0  0  0  0  0  0  0
    3.4612   -7.9953    0.0000 C   0  0  0  0  0  0  0  0  0  0  0  0
    4.6207   -8.6529    0.0000 C   0  0  0  0  0  0  0  0  0  0  0  0
    5.7629   -7.9953    0.0000 C   0  0  0  0  0  0  0  0  0  0  0  0
    6.9223   -8.6529    0.0000 C   0  0  0  0  0  0  0  0  0  0  0  0
    9.2240   -8.6529    0.0000 C   0  0  0  0  0  0  0  0  0  0  0  0
   11.5430   -8.6529    0.0000 C   0  0  0  0  0  0  0  0  0  0  0  0
   12.6852   -7.9953    0.0000 C   0  0  0  0  0  0  0  0  0  0  0  0
   10.3835   -7.9953    0.0000 C   0  0  0  0  0  0  0  0  0  0  0  0
    8.0818   -7.9953    0.0000 C   0  0  0  0  0  0  0  0  0  0  0  0
   12.6852   -6.6628    0.0000 C   0  0  0  0  0  0  0  0  0  0  0  0
   13.8447   -5.9878    0.0000 C   0  0  0  0  0  0  0  0  0  0  0  0
   13.8447   -4.6553    0.0000 C   0  0  0  0  0  0  0  0  0  0  0  0
   15.0042   -3.9977    0.0000 C   0  0  0  0  0  0  0  0  0  0  0  0
   15.0042   -2.6651    0.0000 C   0  0  0  0  0  0  0  0  0  0  0  0
   16.1464   -1.9902    0.0000 C   0  0  0  0  0  0  0  0  0  0  0  0
   16.1464   -0.6576    0.0000 C   0  0  0  0  0  0  0  0  0  0  0  0
   17.3059    0.0000    0.0000 C   0  0  0  0  0  0  0  0  0  0  0  0
  1  3  1  0  0  0  0
  2  4  2  0  0  0  0
  3  4  1  0  0  0  0
  4  5  1  0  0  0  0
  5  6  1  0  0  0  0
  6  7  1  0  0  0  0
  7  8  1  0  0  0  0
  8 13  1  0  0  0  0
  9 12  1  0  0  0  0
  9 13  1  0  0  0  0
 10 11  2  0  0  0  0
 10 12  1  0  0  0  0
 11 14  1  0  0  0  0
 14 15  1  0  0  0  0
 15 16  1  0  0  0  0
 16 17  1  0  0  0  0
 17 18  1  0  0  0  0
 18 19  1  0  0  0  0
 19 20  1  0  0  0  0
 20 21  1  0  0  0  0
M  END
> <ID>
4417

> <Formula>
C19H36O2

> <FW>
296.4879

> <DSSTox_CID>
5811

> <DSSTox_RID>
77931

> <DSSTox_GSID>
25811

> <DSSTox_FileID_Sort>
2614

> <TS_ChemName>
Methyl (9Z)-octadec-9-enoate

> <TS_ChemName_Synonyms>
Methyl (9Z)-octadec-9-enoate  (cis-Methyl oleic acid ester)

> <TS_CASRN>
112-62-9

> <CASRN_ChemName_Relationship>
primary

> <TS_Description>
single chemical compound

> <ChemNote>
stereochem

> <STRUCTURE_Shown>
tested chemical

> <STRUCTURE_Formula>
C19H36O2

> <STRUCTURE_MW>
296.4879

> <STRUCTURE_ChemType>
defined organic

> <STRUCTURE_DefinedOrganicForm>
parent

> <STRUCTURE_IUPAC>
methyl (9Z)-octadec-9-enoate

> <STRUCTURE_SMILES>
O=C(CCCCCCC/C=C\CCCCCCCC)OC

> <STRUCTURE_SMILES_Desalt>
O=C(CCCCCCC/C=C\CCCCCCCC)OC

> <Substance_modify_yyyymmdd>
20080429

$$$$
