112-02-7
ChemmineR-0915142007XD

 21 19  0  0  0  0  0  0  0  0  2 V2000
    2.3012    0.0000    0.0000 C    0  0  0  0  0  0  0  0  0  0  0  0
    3.4854   -0.6703    0.0000 C    0  0  0  0  0  0  0  0  0  0  0  0
    4.6025    0.0000    0.0000 C    0  0  0  0  0  0  0  0  0  0  0  0
    5.8089   -0.6703    0.0000 C    0  0  0  0  0  0  0  0  0  0  0  0
    6.9261    0.0000    0.0000 C    0  0  0  0  0  0  0  0  0  0  0  0
    8.1325   -0.6703    0.0000 C    0  0  0  0  0  0  0  0  0  0  0  0
    9.2273    0.0000    0.0000 C    0  0  0  0  0  0  0  0  0  0  0  0
   10.4338   -0.6703    0.0000 C    0  0  0  0  0  0  0  0  0  0  0  0
   11.5509    0.0000    0.0000 C    0  0  0  0  0  0  0  0  0  0  0  0
   12.7350   -0.6703    0.0000 C    0  0  0  0  0  0  0  0  0  0  0  0
   13.8521    0.0000    0.0000 C    0  0  0  0  0  0  0  0  0  0  0  0
   15.0362   -0.6703    0.0000 C    0  0  0  0  0  0  0  0  0  0  0  0
   16.1533    0.0000    0.0000 C    0  0  0  0  0  0  0  0  0  0  0  0
   17.3598   -0.6703    0.0000 C    0  0  0  0  0  0  0  0  0  0  0  0
   18.5439    0.0000    0.0000 C    0  0  0  0  0  0  0  0  0  0  0  0
   19.6611   -0.6703    0.0000 C    0  0  0  0  0  0  0  0  0  0  0  0
    1.1171   -0.6703    0.0000 N    0  3  0  0  0  0  0  0  0  0  0  0
    0.0000    0.0000    0.0000 C    0  0  0  0  0  0  0  0  0  0  0  0
    1.1171   -1.9438    0.0000 C    0  0  0  0  0  0  0  0  0  0  0  0
    0.0000   -1.2735    0.0000 C    0  0  0  0  0  0  0  0  0  0  0  0
   22.3421   -0.9607    0.0000 Cl   0  5  0  0  0  0  0  0  0  0  0  0
  1  2  1  0  0  0  0
  1 17  1  0  0  0  0
  2  3  1  0  0  0  0
  3  4  1  0  0  0  0
  4  5  1  0  0  0  0
  5  6  1  0  0  0  0
  6  7  1  0  0  0  0
  7  8  1  0  0  0  0
  8  9  1  0  0  0  0
  9 10  1  0  0  0  0
 10 11  1  0  0  0  0
 11 12  1  0  0  0  0
 12 13  1  0  0  0  0
 13 14  1  0  0  0  0
 14 15  1  0  0  0  0
 15 16  1  0  0  0  0
 17 18  1  0  0  0  0
 17 19  1  0  0  0  0
 17 20  1  0  0  0  0
M  END
> <ID>
4838

> <Formula>
C19H42ClN

> <FW>
319.9965 (284.5429+35.4535)

> <DSSTox_CID>
6901

> <DSSTox_RID>
78243

> <DSSTox_GSID>
26901

> <DSSTox_FileID_Sort>
2926

> <TS_ChemName>
1-Hexadecanaminium, N,N,N-trimethyl-, chloride

> <TS_ChemName_Synonyms>
Cetyl trimethyl ammonium chloride

> <TS_CASRN>
112-02-7

> <CASRN_ChemName_Relationship>
primary

> <TS_Description>
single chemical compound

> <ChemNote>
ammonium; parent [6899-10-1]

> <STRUCTURE_Shown>
tested chemical

> <STRUCTURE_Formula>
C19H42ClN

> <STRUCTURE_MW>
319.9965

> <STRUCTURE_ChemType>
defined organic

> <STRUCTURE_DefinedOrganicForm>
salt

> <STRUCTURE_IUPAC>
N,N,N-trimethylhexadecan-1-aminium chloride

> <STRUCTURE_SMILES>
[Cl-].C[N+](C)(C)CCCCCCCCCCCCCCCC

> <STRUCTURE_SMILES_Desalt>
C[N+](C)(C)CCCCCCCCCCCCCCCC

> <Substance_modify_yyyymmdd>
20080429

$$$$
