112-50-5
ChemmineR-0915142007XD

 12 11  0  0  0  0  0  0  0  0  1 V2000
    0.0000   -0.6699    0.0000 O   0  0  0  0  0  0  0  0  0  0  0  0
    1.1501    0.0000    0.0000 C   0  0  0  0  0  0  0  0  0  0  0  0
    2.3003   -0.6699    0.0000 C   0  0  0  0  0  0  0  0  0  0  0  0
    3.4504    0.0000    0.0000 O   0  0  0  0  0  0  0  0  0  0  0  0
    4.6006   -0.6699    0.0000 C   0  0  0  0  0  0  0  0  0  0  0  0
    5.7507    0.0000    0.0000 C   0  0  0  0  0  0  0  0  0  0  0  0
    6.8882   -0.6699    0.0000 O   0  0  0  0  0  0  0  0  0  0  0  0
    8.0383    0.0000    0.0000 C   0  0  0  0  0  0  0  0  0  0  0  0
    9.1885   -0.6699    0.0000 C   0  0  0  0  0  0  0  0  0  0  0  0
   10.3386    0.0000    0.0000 O   0  0  0  0  0  0  0  0  0  0  0  0
   11.4888   -0.6699    0.0000 C   0  0  0  0  0  0  0  0  0  0  0  0
   12.6389    0.0000    0.0000 C   0  0  0  0  0  0  0  0  0  0  0  0
  1  2  1  0  0  0  0
  2  3  1  0  0  0  0
  3  4  1  0  0  0  0
  4  5  1  0  0  0  0
  5  6  1  0  0  0  0
  6  7  1  0  0  0  0
  7  8  1  0  0  0  0
  8  9  1  0  0  0  0
  9 10  1  0  0  0  0
 10 11  1  0  0  0  0
 11 12  1  0  0  0  0
M  END
> <ID>
3645

> <Formula>
C8H18O4

> <FW>
178.2261

> <DSSTox_CID>
4368

> <DSSTox_RID>
77382

> <DSSTox_GSID>
24368

> <DSSTox_FileID_Sort>
2065

> <TS_ChemName>
2-[2-(2-Ethoxyethoxy)ethoxy]ethanol

> <TS_ChemName_Synonyms>
2-[2-(2-Ethoxyethoxy)ethoxy]ethanol (Triethylene glycol monoethyl ether)

> <TS_CASRN>
112-50-5

> <CASRN_ChemName_Relationship>
primary

> <TS_Description>
single chemical compound

> <ChemNote>


> <STRUCTURE_Shown>
tested chemical

> <STRUCTURE_Formula>
C8H18O4

> <STRUCTURE_MW>
178.2261

> <STRUCTURE_ChemType>
defined organic

> <STRUCTURE_DefinedOrganicForm>
parent

> <STRUCTURE_IUPAC>
2-[2-(2-ethoxyethoxy)ethoxy]ethanol

> <STRUCTURE_SMILES>
OCCOCCOCCOCC

> <STRUCTURE_SMILES_Desalt>
OCCOCCOCCOCC

> <Substance_modify_yyyymmdd>
20080429

$$$$
