112-49-2
ChemmineR-0915142007XD

 12 11  0  0  0  0  0  0  0  0  1 V2000
    6.9211   -0.6604    0.0000 C   0  0  0  0  0  0  0  0  0  0  0  0
    8.0767    0.0000    0.0000 O   0  0  0  0  0  0  0  0  0  0  0  0
    9.2324   -0.6604    0.0000 C   0  0  0  0  0  0  0  0  0  0  0  0
   10.3880    0.0000    0.0000 C   0  0  0  0  0  0  0  0  0  0  0  0
   11.5436   -0.6604    0.0000 O   0  0  0  0  0  0  0  0  0  0  0  0
   12.6993    0.0000    0.0000 C   0  0  0  0  0  0  0  0  0  0  0  0
    5.7782    0.0000    0.0000 C   0  0  0  0  0  0  0  0  0  0  0  0
    4.6225   -0.6604    0.0000 O   0  0  0  0  0  0  0  0  0  0  0  0
    3.4669    0.0000    0.0000 C   0  0  0  0  0  0  0  0  0  0  0  0
    2.3113   -0.6604    0.0000 C   0  0  0  0  0  0  0  0  0  0  0  0
    1.1556    0.0000    0.0000 O   0  0  0  0  0  0  0  0  0  0  0  0
    0.0000   -0.6604    0.0000 C   0  0  0  0  0  0  0  0  0  0  0  0
  1  2  1  0  0  0  0
  1  7  1  0  0  0  0
  2  3  1  0  0  0  0
  3  4  1  0  0  0  0
  4  5  1  0  0  0  0
  5  6  1  0  0  0  0
  7  8  1  0  0  0  0
  8  9  1  0  0  0  0
  9 10  1  0  0  0  0
 10 11  1  0  0  0  0
 11 12  1  0  0  0  0
M  END
> <ID>
4603

> <Formula>
C8H18O4

> <FW>
178.2261

> <DSSTox_CID>
6224

> <DSSTox_RID>
78066

> <DSSTox_GSID>
26224

> <DSSTox_FileID_Sort>
2749

> <TS_ChemName>
Triethylene glycol dimethyl ether

> <TS_ChemName_Synonyms>


> <TS_CASRN>
112-49-2

> <CASRN_ChemName_Relationship>
primary

> <TS_Description>
single chemical compound

> <ChemNote>


> <STRUCTURE_Shown>
tested chemical

> <STRUCTURE_Formula>
C8H18O4

> <STRUCTURE_MW>
178.2261

> <STRUCTURE_ChemType>
defined organic

> <STRUCTURE_DefinedOrganicForm>
parent

> <STRUCTURE_IUPAC>
2,5,8,11-tetraoxadodecane

> <STRUCTURE_SMILES>
COCCOCCOCCOC

> <STRUCTURE_SMILES_Desalt>
COCCOCCOCCOC

> <Substance_modify_yyyymmdd>
20080429

$$$$
