112-24-3
ChemmineR-0915142007XD

 10  9  0  0  0  0  0  0  0  0  1 V2000
    0.0000   -0.6638    0.0000 N   0  0  0  0  0  0  0  0  0  0  0  0
    1.1513    0.0000    0.0000 C   0  0  0  0  0  0  0  0  0  0  0  0
    2.3027   -0.6638    0.0000 C   0  0  0  0  0  0  0  0  0  0  0  0
    3.4540    0.0000    0.0000 N   0  0  0  0  0  0  0  0  0  0  0  0
    4.6053   -0.6638    0.0000 C   0  0  0  0  0  0  0  0  0  0  0  0
    5.7670    0.0000    0.0000 C   0  0  0  0  0  0  0  0  0  0  0  0
    6.9184   -0.6638    0.0000 N   0  0  0  0  0  0  0  0  0  0  0  0
    8.0697    0.0000    0.0000 C   0  0  0  0  0  0  0  0  0  0  0  0
    9.2210   -0.6638    0.0000 C   0  0  0  0  0  0  0  0  0  0  0  0
   10.3724    0.0000    0.0000 N   0  0  0  0  0  0  0  0  0  0  0  0
  1  2  1  0  0  0  0
  2  3  1  0  0  0  0
  3  4  1  0  0  0  0
  4  5  1  0  0  0  0
  5  6  1  0  0  0  0
  6  7  1  0  0  0  0
  7  8  1  0  0  0  0
  8  9  1  0  0  0  0
  9 10  1  0  0  0  0
M  END
> <ID>
3307

> <Formula>
C6H18N4

> <FW>
146.2339

> <DSSTox_CID>
3702

> <DSSTox_RID>
77156

> <DSSTox_GSID>
23702

> <DSSTox_FileID_Sort>
1839

> <TS_ChemName>
Triethylenetetramine

> <TS_ChemName_Synonyms>
Triethylenetetramine (Trientine) (1,2-Ethanediamine, N,N'-bis(2-aminoethyl)-)

> <TS_CASRN>
112-24-3

> <CASRN_ChemName_Relationship>
primary

> <TS_Description>
single chemical compound

> <ChemNote>


> <STRUCTURE_Shown>
tested chemical

> <STRUCTURE_Formula>
C6H18N4

> <STRUCTURE_MW>
146.2339

> <STRUCTURE_ChemType>
defined organic

> <STRUCTURE_DefinedOrganicForm>
parent

> <STRUCTURE_IUPAC>
N,N'-bis(2-aminoethyl)ethane-1,2-diamine

> <STRUCTURE_SMILES>
NCCNCCNCCN

> <STRUCTURE_SMILES_Desalt>
NCCNCCNCCN

> <Substance_modify_yyyymmdd>
20080429

$$$$
