112-39-0
ChemmineR-0915142007XD

 19 18  0  0  0  0  0  0  0  0  1 V2000
    2.3097   -1.3029    0.0000 C   0  0  0  0  0  0  0  0  0  0  0  0
    3.4942   -1.9544    0.0000 C   0  0  0  0  0  0  0  0  0  0  0  0
    4.6195   -1.3029    0.0000 C   0  0  0  0  0  0  0  0  0  0  0  0
    5.7842   -1.9544    0.0000 C   0  0  0  0  0  0  0  0  0  0  0  0
    6.9095   -1.3029    0.0000 C   0  0  0  0  0  0  0  0  0  0  0  0
    8.0939   -1.9544    0.0000 C   0  0  0  0  0  0  0  0  0  0  0  0
    9.2784   -1.3029    0.0000 C   0  0  0  0  0  0  0  0  0  0  0  0
   10.3839   -1.9544    0.0000 C   0  0  0  0  0  0  0  0  0  0  0  0
   11.5881   -1.3029    0.0000 C   0  0  0  0  0  0  0  0  0  0  0  0
   12.7529   -1.9544    0.0000 C   0  0  0  0  0  0  0  0  0  0  0  0
   13.8781   -1.3029    0.0000 C   0  0  0  0  0  0  0  0  0  0  0  0
   15.0626   -1.9544    0.0000 C   0  0  0  0  0  0  0  0  0  0  0  0
   16.2471   -1.3029    0.0000 C   0  0  0  0  0  0  0  0  0  0  0  0
   17.3724   -1.9544    0.0000 C   0  0  0  0  0  0  0  0  0  0  0  0
   18.5568   -1.3029    0.0000 C   0  0  0  0  0  0  0  0  0  0  0  0
   19.7413   -1.9544    0.0000 C   0  0  0  0  0  0  0  0  0  0  0  0
    2.3097    0.0000    0.0000 O   0  0  0  0  0  0  0  0  0  0  0  0
    1.1253   -1.9544    0.0000 O   0  0  0  0  0  0  0  0  0  0  0  0
    0.0000   -1.3029    0.0000 C   0  0  0  0  0  0  0  0  0  0  0  0
  1  2  1  0  0  0  0
  1 18  1  0  0  0  0
  1 17  2  0  0  0  0
  2  3  1  0  0  0  0
  3  4  1  0  0  0  0
  4  5  1  0  0  0  0
  5  6  1  0  0  0  0
  6  7  1  0  0  0  0
  7  8  1  0  0  0  0
  8  9  1  0  0  0  0
  9 10  1  0  0  0  0
 10 11  1  0  0  0  0
 11 12  1  0  0  0  0
 12 13  1  0  0  0  0
 13 14  1  0  0  0  0
 14 15  1  0  0  0  0
 15 16  1  0  0  0  0
 18 19  1  0  0  0  0
M  END
> <ID>
5813

> <Formula>
C17H34O2

> <FW>
270.4507

> <DSSTox_CID>
9149

> <DSSTox_RID>
78683

> <DSSTox_GSID>
29149

> <DSSTox_FileID_Sort>
3365

> <TS_ChemName>
Methyl hexadecanoate

> <TS_ChemName_Synonyms>
Hexadecanoic acid, methyl ester

> <TS_CASRN>
112-39-0

> <CASRN_ChemName_Relationship>
primary

> <TS_Description>
single chemical compound

> <ChemNote>


> <STRUCTURE_Shown>
tested chemical

> <STRUCTURE_Formula>
C17H34O2

> <STRUCTURE_MW>
270.4507

> <STRUCTURE_ChemType>
defined organic

> <STRUCTURE_DefinedOrganicForm>
parent

> <STRUCTURE_IUPAC>
methyl hexadecanoate

> <STRUCTURE_SMILES>
O=C(CCCCCCCCCCCCCCC)OC

> <STRUCTURE_SMILES_Desalt>
O=C(CCCCCCCCCCCCCCC)OC

> <Substance_modify_yyyymmdd>
20080429

$$$$
