112-80-1
ChemmineR-0915142007XD

 20 19  0  0  0  0  0  0  0  0  1 V2000
    0.6647   -1.1497    0.0000 C   0  0  0  0  0  0  0  0  0  0  0  0
    0.0000   -2.2995    0.0000 O   0  0  0  0  0  0  0  0  0  0  0  0
    9.9704   -5.7847    0.0000 C   0  0  0  0  0  0  0  0  0  0  0  0
    8.6410   -5.7847    0.0000 C   0  0  0  0  0  0  0  0  0  0  0  0
    0.0000    0.0000    0.0000 O   0  0  0  0  0  0  0  0  0  0  0  0
    1.9941   -1.1497    0.0000 C   0  0  0  0  0  0  0  0  0  0  0  0
    7.9764   -4.6349    0.0000 C   0  0  0  0  0  0  0  0  0  0  0  0
   10.6351   -4.6349    0.0000 C   0  0  0  0  0  0  0  0  0  0  0  0
    2.6588   -2.3175    0.0000 C   0  0  0  0  0  0  0  0  0  0  0  0
    6.6470   -4.6169    0.0000 C   0  0  0  0  0  0  0  0  0  0  0  0
   11.9645   -4.6349    0.0000 C   0  0  0  0  0  0  0  0  0  0  0  0
   16.6354   -1.1857    0.0000 C   0  0  0  0  0  0  0  0  0  0  0  0
   15.9707   -2.3354    0.0000 C   0  0  0  0  0  0  0  0  0  0  0  0
   14.6413   -2.3354    0.0000 C   0  0  0  0  0  0  0  0  0  0  0  0
    5.9823   -3.4672    0.0000 C   0  0  0  0  0  0  0  0  0  0  0  0
    4.6529   -3.4672    0.0000 C   0  0  0  0  0  0  0  0  0  0  0  0
   13.9586   -3.4852    0.0000 C   0  0  0  0  0  0  0  0  0  0  0  0
   12.6292   -3.4852    0.0000 C   0  0  0  0  0  0  0  0  0  0  0  0
    3.9882   -2.3175    0.0000 C   0  0  0  0  0  0  0  0  0  0  0  0
   17.9648   -1.2036    0.0000 C   0  0  0  0  0  0  0  0  0  0  0  0
  1  2  2  0  0  0  0
  1  5  1  0  0  0  0
  1  6  1  0  0  0  0
  3  4  2  0  0  0  0
  3  8  1  0  0  0  0
  4  7  1  0  0  0  0
  6  9  1  0  0  0  0
  7 10  1  0  0  0  0
  8 11  1  0  0  0  0
  9 19  1  0  0  0  0
 10 15  1  0  0  0  0
 11 18  1  0  0  0  0
 12 13  1  0  0  0  0
 12 20  1  0  0  0  0
 13 14  1  0  0  0  0
 14 17  1  0  0  0  0
 15 16  1  0  0  0  0
 16 19  1  0  0  0  0
 17 18  1  0  0  0  0
M  END
> <ID>
4416

> <Formula>
C18H34O2

> <FW>
282.4614

> <DSSTox_CID>
5809

> <DSSTox_RID>
77930

> <DSSTox_GSID>
25809

> <DSSTox_FileID_Sort>
2613

> <TS_ChemName>
Oleic acid

> <TS_ChemName_Synonyms>
Oleic acid (9-Octadecenoic acid (9Z)-) (OA)

> <TS_CASRN>
112-80-1

> <CASRN_ChemName_Relationship>
primary

> <TS_Description>
single chemical compound

> <ChemNote>
stereochem

> <STRUCTURE_Shown>
tested chemical

> <STRUCTURE_Formula>
C18H34O2

> <STRUCTURE_MW>
282.4614

> <STRUCTURE_ChemType>
defined organic

> <STRUCTURE_DefinedOrganicForm>
parent

> <STRUCTURE_IUPAC>
(9Z)-octadec-9-enoic acid

> <STRUCTURE_SMILES>
O=C(O)CCCCCCC/C=C\CCCCCCCC

> <STRUCTURE_SMILES_Desalt>
O=C(O)CCCCCCC/C=C\CCCCCCCC

> <Substance_modify_yyyymmdd>
20080429

$$$$
