112-56-1
ChemmineR-0915142007XD

 13 12  0  0  0  0  0  0  0  0  1 V2000
    0.0000   -1.3277    0.0000 C   0  0  0  0  0  0  0  0  0  0  0  0
    1.1479   -0.6638    0.0000 C   0  0  0  0  0  0  0  0  0  0  0  0
    2.3096   -1.3277    0.0000 C   0  0  0  0  0  0  0  0  0  0  0  0
    3.4575   -0.6638    0.0000 C   0  0  0  0  0  0  0  0  0  0  0  0
    4.6053   -1.3277    0.0000 O   0  0  0  0  0  0  0  0  0  0  0  0
    5.7670   -0.6638    0.0000 C   0  0  0  0  0  0  0  0  0  0  0  0
    6.9149   -1.3277    0.0000 C   0  0  0  0  0  0  0  0  0  0  0  0
    8.0628   -0.6638    0.0000 O   0  0  0  0  0  0  0  0  0  0  0  0
    9.2245   -1.3277    0.0000 C   0  0  0  0  0  0  0  0  0  0  0  0
   10.3724   -0.6638    0.0000 C   0  0  0  0  0  0  0  0  0  0  0  0
   11.5202   -1.3277    0.0000 S   0  0  0  0  0  0  0  0  0  0  0  0
   12.6819   -0.6638    0.0000 C   0  0  0  0  0  0  0  0  0  0  0  0
   13.8298    0.0000    0.0000 N   0  0  0  0  0  0  0  0  0  0  0  0
  1  2  1  0  0  0  0
  2  3  1  0  0  0  0
  3  4  1  0  0  0  0
  4  5  1  0  0  0  0
  5  6  1  0  0  0  0
  6  7  1  0  0  0  0
  7  8  1  0  0  0  0
  8  9  1  0  0  0  0
  9 10  1  0  0  0  0
 10 11  1  0  0  0  0
 11 12  1  0  0  0  0
 12 13  3  0  0  0  0
M  END
> <ID>
3805

> <Formula>
C9H17NO2S

> <FW>
203.3018

> <DSSTox_CID>
4674

> <DSSTox_RID>
77495

> <DSSTox_GSID>
24674

> <DSSTox_FileID_Sort>
2178

> <TS_ChemName>
2-(2-Butoxyethoxy)ethyl thiocyanate

> <TS_ChemName_Synonyms>
Lethane 384

> <TS_CASRN>
112-56-1

> <CASRN_ChemName_Relationship>
primary

> <TS_Description>
single chemical compound

> <ChemNote>


> <STRUCTURE_Shown>
tested chemical

> <STRUCTURE_Formula>
C9H17NO2S

> <STRUCTURE_MW>
203.3018

> <STRUCTURE_ChemType>
defined organic

> <STRUCTURE_DefinedOrganicForm>
parent

> <STRUCTURE_IUPAC>
2-(2-butoxyethoxy)ethyl thiocyanate

> <STRUCTURE_SMILES>
N#CSCCOCCOCCCC

> <STRUCTURE_SMILES_Desalt>
N#CSCCOCCOCCCC

> <Substance_modify_yyyymmdd>
20080429

$$$$
