112-26-5
ChemmineR-0915142007XD

 10  9  0  0  0  0  0  0  0  0  1 V2000
    4.6232    0.0000    0.0000 C    0  0  0  0  0  0  0  0  0  0  0  0
    5.7894   -0.6560    0.0000 C    0  0  0  0  0  0  0  0  0  0  0  0
    3.4674   -0.6560    0.0000 O    0  0  0  0  0  0  0  0  0  0  0  0
    2.3116    0.0000    0.0000 C    0  0  0  0  0  0  0  0  0  0  0  0
    1.1558   -0.6560    0.0000 C    0  0  0  0  0  0  0  0  0  0  0  0
    0.0000    0.0000    0.0000 Cl   0  0  0  0  0  0  0  0  0  0  0  0
    6.9453    0.0000    0.0000 O    0  0  0  0  0  0  0  0  0  0  0  0
    8.1011   -0.6560    0.0000 C    0  0  0  0  0  0  0  0  0  0  0  0
    9.2569    0.0000    0.0000 C    0  0  0  0  0  0  0  0  0  0  0  0
   10.4127   -0.6560    0.0000 Cl   0  0  0  0  0  0  0  0  0  0  0  0
  1  2  1  0  0  0  0
  1  3  1  0  0  0  0
  2  7  1  0  0  0  0
  3  4  1  0  0  0  0
  4  5  1  0  0  0  0
  5  6  1  0  0  0  0
  7  8  1  0  0  0  0
  8  9  1  0  0  0  0
  9 10  1  0  0  0  0
M  END
> <ID>
12156

> <Formula>
C6H12Cl2O2

> <FW>
187.0643

> <DSSTox_CID>
27000

> <DSSTox_RID>
82044

> <DSSTox_GSID>
47000

> <DSSTox_FileID_Sort>
6725

> <TS_ChemName>
1,2-Bis(2-chloroethoxy)ethane

> <TS_ChemName_Synonyms>


> <TS_CASRN>
112-26-5

> <CASRN_ChemName_Relationship>
primary

> <TS_Description>
single chemical compound

> <ChemNote>


> <STRUCTURE_Shown>
tested chemical

> <STRUCTURE_Formula>
C6H12Cl2O2

> <STRUCTURE_MW>
187.0643

> <STRUCTURE_ChemType>
defined organic

> <STRUCTURE_DefinedOrganicForm>
parent

> <STRUCTURE_IUPAC>
1-chloro-2-[2-(2-chloroethoxy)ethoxy]ethane

> <STRUCTURE_SMILES>
ClCCOCCOCCCl

> <STRUCTURE_SMILES_Desalt>
ClCCOCCOCCCl

> <Substance_modify_yyyymmdd>
20100325

$$$$
