112-35-6
ChemmineR-0915142007XD

 11 10  0  0  0  0  0  0  0  0  1 V2000
    1.1390    0.0000    0.0000 C   0  0  0  0  0  0  0  0  0  0  0  0
    2.2895   -0.6673    0.0000 C   0  0  0  0  0  0  0  0  0  0  0  0
    0.0000   -0.6673    0.0000 O   0  0  0  0  0  0  0  0  0  0  0  0
    3.4400    0.0000    0.0000 O   0  0  0  0  0  0  0  0  0  0  0  0
    4.6019   -0.6673    0.0000 C   0  0  0  0  0  0  0  0  0  0  0  0
    5.7524    0.0000    0.0000 C   0  0  0  0  0  0  0  0  0  0  0  0
    6.9029   -0.6673    0.0000 O   0  0  0  0  0  0  0  0  0  0  0  0
    8.0649    0.0000    0.0000 C   0  0  0  0  0  0  0  0  0  0  0  0
    9.2154   -0.6673    0.0000 C   0  0  0  0  0  0  0  0  0  0  0  0
   10.3659    0.0000    0.0000 O   0  0  0  0  0  0  0  0  0  0  0  0
   11.5049   -0.6673    0.0000 C   0  0  0  0  0  0  0  0  0  0  0  0
  1  2  1  0  0  0  0
  1  3  1  0  0  0  0
  2  4  1  0  0  0  0
  4  5  1  0  0  0  0
  5  6  1  0  0  0  0
  6  7  1  0  0  0  0
  7  8  1  0  0  0  0
  8  9  1  0  0  0  0
  9 10  1  0  0  0  0
 10 11  1  0  0  0  0
M  END
> <ID>
4844

> <Formula>
C7H16O4

> <FW>
164.1995

> <DSSTox_CID>
6912

> <DSSTox_RID>
78249

> <DSSTox_GSID>
26912

> <DSSTox_FileID_Sort>
2932

> <TS_ChemName>
2-[2-(2-Methoxyethoxy)ethoxy]ethanol

> <TS_ChemName_Synonyms>
2-[2-(2-Methoxyethoxy)ethoxy]ethanol (Triethylene glycol monomethyl ether)

> <TS_CASRN>
112-35-6

> <CASRN_ChemName_Relationship>
primary

> <TS_Description>
single chemical compound

> <ChemNote>


> <STRUCTURE_Shown>
tested chemical

> <STRUCTURE_Formula>
C7H16O4

> <STRUCTURE_MW>
164.1995

> <STRUCTURE_ChemType>
defined organic

> <STRUCTURE_DefinedOrganicForm>
parent

> <STRUCTURE_IUPAC>
2-[2-(2-methoxyethoxy)ethoxy]ethanol

> <STRUCTURE_SMILES>
OCCOCCOCCOC

> <STRUCTURE_SMILES_Desalt>
OCCOCCOCCOC

> <Substance_modify_yyyymmdd>
20080429

$$$$
