112-18-5
ChemmineR-0915142007XD

 15 14  0  0  0  0  0  0  0  0  1 V2000
    2.2936    0.0000    0.0000 C   0  0  0  0  0  0  0  0  0  0  0  0
    3.5079   -0.6596    0.0000 C   0  0  0  0  0  0  0  0  0  0  0  0
    4.6022    0.0000    0.0000 C   0  0  0  0  0  0  0  0  0  0  0  0
    5.7865   -0.6596    0.0000 C   0  0  0  0  0  0  0  0  0  0  0  0
    6.9408    0.0000    0.0000 C   0  0  0  0  0  0  0  0  0  0  0  0
    8.0951   -0.6596    0.0000 C   0  0  0  0  0  0  0  0  0  0  0  0
    9.2494    0.0000    0.0000 C   0  0  0  0  0  0  0  0  0  0  0  0
   10.3887   -0.6596    0.0000 C   0  0  0  0  0  0  0  0  0  0  0  0
   11.5430    0.0000    0.0000 C   0  0  0  0  0  0  0  0  0  0  0  0
   12.6973   -0.6596    0.0000 C   0  0  0  0  0  0  0  0  0  0  0  0
   13.8516    0.0000    0.0000 C   0  0  0  0  0  0  0  0  0  0  0  0
   14.9909   -0.6596    0.0000 C   0  0  0  0  0  0  0  0  0  0  0  0
    1.1393   -0.6596    0.0000 N   0  0  0  0  0  0  0  0  0  0  0  0
    0.0000    0.0000    0.0000 C   0  0  0  0  0  0  0  0  0  0  0  0
    1.1393   -2.0088    0.0000 C   0  0  0  0  0  0  0  0  0  0  0  0
  1  2  1  0  0  0  0
  1 13  1  0  0  0  0
  2  3  1  0  0  0  0
  3  4  1  0  0  0  0
  4  5  1  0  0  0  0
  5  6  1  0  0  0  0
  6  7  1  0  0  0  0
  7  8  1  0  0  0  0
  8  9  1  0  0  0  0
  9 10  1  0  0  0  0
 10 11  1  0  0  0  0
 11 12  1  0  0  0  0
 13 14  1  0  0  0  0
 13 15  1  0  0  0  0
M  END
> <ID>
4842

> <Formula>
C14H31N

> <FW>
213.4026

> <DSSTox_CID>
6906

> <DSSTox_RID>
78247

> <DSSTox_GSID>
26906

> <DSSTox_FileID_Sort>
2930

> <TS_ChemName>
N,N-Dimethyldodecan-1-amine

> <TS_ChemName_Synonyms>
N,N-Dimethyldodecan-1-amine (Lauryldimethylamine)

> <TS_CASRN>
112-18-5

> <CASRN_ChemName_Relationship>
primary

> <TS_Description>
single chemical compound

> <ChemNote>


> <STRUCTURE_Shown>
tested chemical

> <STRUCTURE_Formula>
C14H31N

> <STRUCTURE_MW>
213.4026

> <STRUCTURE_ChemType>
defined organic

> <STRUCTURE_DefinedOrganicForm>
parent

> <STRUCTURE_IUPAC>
N,N-dimethyldodecan-1-amine

> <STRUCTURE_SMILES>
CN(C)CCCCCCCCCCCC

> <STRUCTURE_SMILES_Desalt>
CN(C)CCCCCCCCCCCC

> <Substance_modify_yyyymmdd>
20080429

$$$$
