112-34-5
ChemmineR-0915142007XD

 11 10  0  0  0  0  0  0  0  0  1 V2000
    0.0000   -0.6673    0.0000 C   0  0  0  0  0  0  0  0  0  0  0  0
    1.1505    0.0000    0.0000 C   0  0  0  0  0  0  0  0  0  0  0  0
    2.3010   -0.6673    0.0000 C   0  0  0  0  0  0  0  0  0  0  0  0
    3.4515    0.0000    0.0000 C   0  0  0  0  0  0  0  0  0  0  0  0
    4.6020   -0.6673    0.0000 O   0  0  0  0  0  0  0  0  0  0  0  0
    5.7525    0.0000    0.0000 C   0  0  0  0  0  0  0  0  0  0  0  0
    6.9029   -0.6673    0.0000 C   0  0  0  0  0  0  0  0  0  0  0  0
    8.0534    0.0000    0.0000 O   0  0  0  0  0  0  0  0  0  0  0  0
    9.2039   -0.6673    0.0000 C   0  0  0  0  0  0  0  0  0  0  0  0
   10.3544    0.0000    0.0000 C   0  0  0  0  0  0  0  0  0  0  0  0
   11.5049   -0.6673    0.0000 O   0  0  0  0  0  0  0  0  0  0  0  0
  1  2  1  0  0  0  0
  2  3  1  0  0  0  0
  3  4  1  0  0  0  0
  4  5  1  0  0  0  0
  5  6  1  0  0  0  0
  6  7  1  0  0  0  0
  7  8  1  0  0  0  0
  8  9  1  0  0  0  0
  9 10  1  0  0  0  0
 10 11  1  0  0  0  0
M  END
> <ID>
1459

> <Formula>
C8H18O3

> <FW>
162.2267

> <DSSTox_CID>
1519

> <DSSTox_RID>
76196

> <DSSTox_GSID>
21519

> <DSSTox_FileID_Sort>
880

> <TS_ChemName>
2-(2-Butoxyethoxy)ethanol

> <TS_ChemName_Synonyms>
Diethylene glycol monobutyl ether

> <TS_CASRN>
112-34-5

> <CASRN_ChemName_Relationship>
primary

> <TS_Description>
single chemical compound

> <ChemNote>


> <STRUCTURE_Shown>
tested chemical

> <STRUCTURE_Formula>
C8H18O3

> <STRUCTURE_MW>
162.2267

> <STRUCTURE_ChemType>
defined organic

> <STRUCTURE_DefinedOrganicForm>
parent

> <STRUCTURE_IUPAC>
2-(2-butoxyethoxy)ethanol

> <STRUCTURE_SMILES>
CCCCOCCOCCO

> <STRUCTURE_SMILES_Desalt>
CCCCOCCOCCO

> <Substance_modify_yyyymmdd>
20080429

$$$$
