112-66-3
ChemmineR-0915142007XD

 16 15  0  0  0  0  0  0  0  0  1 V2000
    1.1630   -1.3246    0.0000 C   0  0  0  0  0  0  0  0  0  0  0  0
    1.1630    0.0000    0.0000 O   0  0  0  0  0  0  0  0  0  0  0  0
    2.3099   -1.9869    0.0000 O   0  0  0  0  0  0  0  0  0  0  0  0
    0.0000   -1.9869    0.0000 C   0  0  0  0  0  0  0  0  0  0  0  0
    3.4568   -1.3246    0.0000 C   0  0  0  0  0  0  0  0  0  0  0  0
    4.6199   -1.9869    0.0000 C   0  0  0  0  0  0  0  0  0  0  0  0
    5.7668   -1.3246    0.0000 C   0  0  0  0  0  0  0  0  0  0  0  0
    6.9298   -1.9869    0.0000 C   0  0  0  0  0  0  0  0  0  0  0  0
    8.0767   -1.3246    0.0000 C   0  0  0  0  0  0  0  0  0  0  0  0
    9.2236   -1.9869    0.0000 C   0  0  0  0  0  0  0  0  0  0  0  0
   10.3866   -1.3246    0.0000 C   0  0  0  0  0  0  0  0  0  0  0  0
   11.5335   -1.9869    0.0000 C   0  0  0  0  0  0  0  0  0  0  0  0
   12.6966   -1.3246    0.0000 C   0  0  0  0  0  0  0  0  0  0  0  0
   13.8435   -1.9869    0.0000 C   0  0  0  0  0  0  0  0  0  0  0  0
   14.9904   -1.3246    0.0000 C   0  0  0  0  0  0  0  0  0  0  0  0
   16.1534   -1.9869    0.0000 C   0  0  0  0  0  0  0  0  0  0  0  0
  1  2  2  0  0  0  0
  1  3  1  0  0  0  0
  1  4  1  0  0  0  0
  3  5  1  0  0  0  0
  5  6  1  0  0  0  0
  6  7  1  0  0  0  0
  7  8  1  0  0  0  0
  8  9  1  0  0  0  0
  9 10  1  0  0  0  0
 10 11  1  0  0  0  0
 11 12  1  0  0  0  0
 12 13  1  0  0  0  0
 13 14  1  0  0  0  0
 14 15  1  0  0  0  0
 15 16  1  0  0  0  0
M  END
> <ID>
12762

> <Formula>
C14H28O2

> <FW>
228.3709

> <DSSTox_CID>
27641

> <DSSTox_RID>
82468

> <DSSTox_GSID>
47641

> <DSSTox_FileID_Sort>
7149

> <TS_ChemName>
Dodecyl acetate

> <TS_ChemName_Synonyms>


> <TS_CASRN>
112-66-3

> <CASRN_ChemName_Relationship>
primary

> <TS_Description>
single chemical compound

> <ChemNote>


> <STRUCTURE_Shown>
tested chemical

> <STRUCTURE_Formula>
C14H28O2

> <STRUCTURE_MW>
228.3709

> <STRUCTURE_ChemType>
defined organic

> <STRUCTURE_DefinedOrganicForm>
parent

> <STRUCTURE_IUPAC>
dodecyl acetate

> <STRUCTURE_SMILES>
CC(=O)OCCCCCCCCCCCC

> <STRUCTURE_SMILES_Desalt>
CC(=O)OCCCCCCCCCCCC

> <Substance_modify_yyyymmdd>
20101214

$$$$
