112-41-4
ChemmineR-0915142007XD

 12 11  0  0  0  0  0  0  0  0  1 V2000
    0.0000   -0.6699    0.0000 C   0  0  0  0  0  0  0  0  0  0  0  0
    1.1501    0.0000    0.0000 C   0  0  0  0  0  0  0  0  0  0  0  0
    2.2876   -0.6699    0.0000 C   0  0  0  0  0  0  0  0  0  0  0  0
    3.4378    0.0000    0.0000 C   0  0  0  0  0  0  0  0  0  0  0  0
    4.5879   -0.6699    0.0000 C   0  0  0  0  0  0  0  0  0  0  0  0
    5.7381    0.0000    0.0000 C   0  0  0  0  0  0  0  0  0  0  0  0
    6.9008   -0.6699    0.0000 C   0  0  0  0  0  0  0  0  0  0  0  0
    8.0510    0.0000    0.0000 C   0  0  0  0  0  0  0  0  0  0  0  0
    9.2011   -0.6699    0.0000 C   0  0  0  0  0  0  0  0  0  0  0  0
   10.3512    0.0000    0.0000 C   0  0  0  0  0  0  0  0  0  0  0  0
   11.4887   -0.6699    0.0000 C   0  0  0  0  0  0  0  0  0  0  0  0
   12.6389    0.0000    0.0000 C   0  0  0  0  0  0  0  0  0  0  0  0
  1  2  2  0  0  0  0
  2  3  1  0  0  0  0
  3  4  1  0  0  0  0
  4  5  1  0  0  0  0
  5  6  1  0  0  0  0
  6  7  1  0  0  0  0
  7  8  1  0  0  0  0
  8  9  1  0  0  0  0
  9 10  1  0  0  0  0
 10 11  1  0  0  0  0
 11 12  1  0  0  0  0
M  END
> <ID>
4846

> <Formula>
C12H24

> <FW>
168.319

> <DSSTox_CID>
6914

> <DSSTox_RID>
78251

> <DSSTox_GSID>
26914

> <DSSTox_FileID_Sort>
2934

> <TS_ChemName>
1-Dodecene

> <TS_ChemName_Synonyms>


> <TS_CASRN>
112-41-4

> <CASRN_ChemName_Relationship>
primary

> <TS_Description>
single chemical compound

> <ChemNote>


> <STRUCTURE_Shown>
tested chemical

> <STRUCTURE_Formula>
C12H24

> <STRUCTURE_MW>
168.319

> <STRUCTURE_ChemType>
defined organic

> <STRUCTURE_DefinedOrganicForm>
parent

> <STRUCTURE_IUPAC>
dodec-1-ene

> <STRUCTURE_SMILES>
CCCCCCCCCCC=C

> <STRUCTURE_SMILES_Desalt>
CCCCCCCCCCC=C

> <Substance_modify_yyyymmdd>
20080429

$$$$
