112-15-2
ChemmineR-0915142007XD

 12 11  0  0  0  0  0  0  0  0  1 V2000
    8.0624   -1.3341    0.0000 C   0  0  0  0  0  0  0  0  0  0  0  0
    6.9008   -2.0012    0.0000 C   0  0  0  0  0  0  0  0  0  0  0  0
    9.2125   -2.0012    0.0000 O   0  0  0  0  0  0  0  0  0  0  0  0
    5.7506   -1.3341    0.0000 O   0  0  0  0  0  0  0  0  0  0  0  0
    4.6005   -2.0012    0.0000 C   0  0  0  0  0  0  0  0  0  0  0  0
    3.4389   -1.3341    0.0000 C   0  0  0  0  0  0  0  0  0  0  0  0
    2.2888   -2.0012    0.0000 O   0  0  0  0  0  0  0  0  0  0  0  0
    1.1386   -1.3341    0.0000 C   0  0  0  0  0  0  0  0  0  0  0  0
    0.0000   -2.0012    0.0000 C   0  0  0  0  0  0  0  0  0  0  0  0
   10.3627   -1.3341    0.0000 C   0  0  0  0  0  0  0  0  0  0  0  0
   10.3627    0.0000    0.0000 O   0  0  0  0  0  0  0  0  0  0  0  0
   11.5013   -2.0012    0.0000 C   0  0  0  0  0  0  0  0  0  0  0  0
  1  2  1  0  0  0  0
  1  3  1  0  0  0  0
  2  4  1  0  0  0  0
  3 10  1  0  0  0  0
  4  5  1  0  0  0  0
  5  6  1  0  0  0  0
  6  7  1  0  0  0  0
  7  8  1  0  0  0  0
  8  9  1  0  0  0  0
 10 11  2  0  0  0  0
 10 12  1  0  0  0  0
M  END
> <ID>
4841

> <Formula>
C8H16O4

> <FW>
176.2102

> <DSSTox_CID>
6905

> <DSSTox_RID>
78246

> <DSSTox_GSID>
26905

> <DSSTox_FileID_Sort>
2929

> <TS_ChemName>
2-(2-Ethoxyethoxy)ethyl acetate

> <TS_ChemName_Synonyms>
2-(2-Ethoxyethoxy)ethyl acetate (Ethanol, 2-(2-ethoxyethoxy)-, acetate) (Diethylene glycol monoethyl ether acetate)

> <TS_CASRN>
112-15-2

> <CASRN_ChemName_Relationship>
primary

> <TS_Description>
single chemical compound

> <ChemNote>


> <STRUCTURE_Shown>
tested chemical

> <STRUCTURE_Formula>
C8H16O4

> <STRUCTURE_MW>
176.2102

> <STRUCTURE_ChemType>
defined organic

> <STRUCTURE_DefinedOrganicForm>
parent

> <STRUCTURE_IUPAC>
2-(2-ethoxyethoxy)ethyl acetate

> <STRUCTURE_SMILES>
CCOCCOCCOC(C)=O

> <STRUCTURE_SMILES_Desalt>
CCOCCOCCOC(C)=O

> <Substance_modify_yyyymmdd>
20080429

$$$$
