112-55-0
ChemmineR-0915142007XD

 13 12  0  0  0  0  0  0  0  0  1 V2000
    6.9149   -0.6638    0.0000 C   0  0  0  0  0  0  0  0  0  0  0  0
    5.7670    0.0000    0.0000 C   0  0  0  0  0  0  0  0  0  0  0  0
    4.6053   -0.6638    0.0000 C   0  0  0  0  0  0  0  0  0  0  0  0
    3.4575    0.0000    0.0000 C   0  0  0  0  0  0  0  0  0  0  0  0
    2.3096   -0.6638    0.0000 C   0  0  0  0  0  0  0  0  0  0  0  0
    1.1479    0.0000    0.0000 C   0  0  0  0  0  0  0  0  0  0  0  0
    0.0000   -0.6638    0.0000 C   0  0  0  0  0  0  0  0  0  0  0  0
    8.0628    0.0000    0.0000 C   0  0  0  0  0  0  0  0  0  0  0  0
    9.2245   -0.6638    0.0000 C   0  0  0  0  0  0  0  0  0  0  0  0
   10.3724    0.0000    0.0000 C   0  0  0  0  0  0  0  0  0  0  0  0
   11.5202   -0.6638    0.0000 C   0  0  0  0  0  0  0  0  0  0  0  0
   12.6819    0.0000    0.0000 C   0  0  0  0  0  0  0  0  0  0  0  0
   13.8298   -0.6638    0.0000 S   0  0  0  0  0  0  0  0  0  0  0  0
  1  2  1  0  0  0  0
  1  8  1  0  0  0  0
  2  3  1  0  0  0  0
  3  4  1  0  0  0  0
  4  5  1  0  0  0  0
  5  6  1  0  0  0  0
  6  7  1  0  0  0  0
  8  9  1  0  0  0  0
  9 10  1  0  0  0  0
 10 11  1  0  0  0  0
 11 12  1  0  0  0  0
 12 13  1  0  0  0  0
M  END
> <ID>
4089

> <Formula>
C12H26S

> <FW>
202.3998

> <DSSTox_CID>
5220

> <DSSTox_RID>
77706

> <DSSTox_GSID>
25220

> <DSSTox_FileID_Sort>
2389

> <TS_ChemName>
1-Dodecanethiol

> <TS_ChemName_Synonyms>
n-Dodecylmercaptan

> <TS_CASRN>
112-55-0

> <CASRN_ChemName_Relationship>
primary

> <TS_Description>
single chemical compound

> <ChemNote>


> <STRUCTURE_Shown>
tested chemical

> <STRUCTURE_Formula>
C12H26S

> <STRUCTURE_MW>
202.3998

> <STRUCTURE_ChemType>
defined organic

> <STRUCTURE_DefinedOrganicForm>
parent

> <STRUCTURE_IUPAC>
dodecane-1-thiol

> <STRUCTURE_SMILES>
CCCCCCCCCCCCS

> <STRUCTURE_SMILES_Desalt>
CCCCCCCCCCCCS

> <Substance_modify_yyyymmdd>
20080429

$$$$
