112-86-7
ChemmineR-0915142007XD

 24 23  0  0  0  0  0  0  0  0  1 V2000
    1.1617   -1.3277    0.0000 C   0  0  0  0  0  0  0  0  0  0  0  0
    2.3027   -1.9916    0.0000 C   0  0  0  0  0  0  0  0  0  0  0  0
    3.4645   -1.3277    0.0000 C   0  0  0  0  0  0  0  0  0  0  0  0
    4.6262   -1.9916    0.0000 C   0  0  0  0  0  0  0  0  0  0  0  0
    5.7672   -1.3277    0.0000 C   0  0  0  0  0  0  0  0  0  0  0  0
    6.9082   -1.9916    0.0000 C   0  0  0  0  0  0  0  0  0  0  0  0
    8.0700   -1.3277    0.0000 C   0  0  0  0  0  0  0  0  0  0  0  0
    9.2110   -1.9916    0.0000 C   0  0  0  0  0  0  0  0  0  0  0  0
   10.3727   -1.3277    0.0000 C   0  0  0  0  0  0  0  0  0  0  0  0
   11.5345   -1.9916    0.0000 C   0  0  0  0  0  0  0  0  0  0  0  0
   12.6755   -1.3277    0.0000 C   0  0  0  0  0  0  0  0  0  0  0  0
   13.8372   -1.9916    0.0000 C   0  0  0  0  0  0  0  0  0  0  0  0
   14.9990   -1.3277    0.0000 C   0  0  0  0  0  0  0  0  0  0  0  0
   16.1192   -1.9916    0.0000 C   0  0  0  0  0  0  0  0  0  0  0  0
   16.1192   -3.3193    0.0000 C   0  0  0  0  0  0  0  0  0  0  0  0
   17.2810   -4.0039    0.0000 C   0  0  0  0  0  0  0  0  0  0  0  0
   17.2810   -5.3316    0.0000 C   0  0  0  0  0  0  0  0  0  0  0  0
   18.4427   -5.9954    0.0000 C   0  0  0  0  0  0  0  0  0  0  0  0
   18.4427   -7.3231    0.0000 C   0  0  0  0  0  0  0  0  0  0  0  0
   19.5837   -7.9870    0.0000 C   0  0  0  0  0  0  0  0  0  0  0  0
   19.5837   -9.3147    0.0000 C   0  0  0  0  0  0  0  0  0  0  0  0
   20.7454   -9.9786    0.0000 C   0  0  0  0  0  0  0  0  0  0  0  0
    1.1617    0.0000    0.0000 O   0  0  0  0  0  0  0  0  0  0  0  0
    0.0000   -1.9916    0.0000 O   0  0  0  0  0  0  0  0  0  0  0  0
  1  2  1  0  0  0  0
  1 24  1  0  0  0  0
  1 23  2  0  0  0  0
  2  3  1  0  0  0  0
  3  4  1  0  0  0  0
  4  5  1  0  0  0  0
  5  6  1  0  0  0  0
  6  7  1  0  0  0  0
  7  8  1  0  0  0  0
  8  9  1  0  0  0  0
  9 10  1  0  0  0  0
 10 11  1  0  0  0  0
 11 12  1  0  0  0  0
 12 13  1  0  0  0  0
 13 14  2  0  0  0  0
 14 15  1  0  0  0  0
 15 16  1  0  0  0  0
 16 17  1  0  0  0  0
 17 18  1  0  0  0  0
 18 19  1  0  0  0  0
 19 20  1  0  0  0  0
 20 21  1  0  0  0  0
 21 22  1  0  0  0  0
M  END
> <ID>
4856

> <Formula>
C22H42O2

> <FW>
338.5677

> <DSSTox_CID>
6931

> <DSSTox_RID>
78259

> <DSSTox_GSID>
26931

> <DSSTox_FileID_Sort>
2942

> <TS_ChemName>
(13Z)-Docos-13-enoic acid

> <TS_ChemName_Synonyms>


> <TS_CASRN>
112-86-7

> <CASRN_ChemName_Relationship>
primary

> <TS_Description>
single chemical compound

> <ChemNote>
stereochem

> <STRUCTURE_Shown>
tested chemical

> <STRUCTURE_Formula>
C22H42O2

> <STRUCTURE_MW>
338.5677

> <STRUCTURE_ChemType>
defined organic

> <STRUCTURE_DefinedOrganicForm>
parent

> <STRUCTURE_IUPAC>
(13Z)-docos-13-enoic acid

> <STRUCTURE_SMILES>
O=C(O)CCCCCCCCCCC/C=C\CCCCCCCC

> <STRUCTURE_SMILES_Desalt>
O=C(O)CCCCCCCCCCC/C=C\CCCCCCCC

> <Substance_modify_yyyymmdd>
20080429

$$$$
