112-38-9
ChemmineR-0915142007XD

 13 12  0  0  0  0  0  0  0  0  1 V2000
    1.1554   -1.3331    0.0000 C   0  0  0  0  0  0  0  0  0  0  0  0
    2.2981   -1.9934    0.0000 C   0  0  0  0  0  0  0  0  0  0  0  0
    3.4535   -1.3331    0.0000 C   0  0  0  0  0  0  0  0  0  0  0  0
    4.6088   -1.9934    0.0000 C   0  0  0  0  0  0  0  0  0  0  0  0
    5.7642   -1.3331    0.0000 C   0  0  0  0  0  0  0  0  0  0  0  0
    6.9323   -1.9934    0.0000 C   0  0  0  0  0  0  0  0  0  0  0  0
    8.0877   -1.3331    0.0000 C   0  0  0  0  0  0  0  0  0  0  0  0
    9.2431   -1.9934    0.0000 C   0  0  0  0  0  0  0  0  0  0  0  0
   10.3984   -1.3331    0.0000 C   0  0  0  0  0  0  0  0  0  0  0  0
   11.5411   -1.9934    0.0000 C   0  0  0  0  0  0  0  0  0  0  0  0
   12.6965   -1.3331    0.0000 C   0  0  0  0  0  0  0  0  0  0  0  0
    1.1554    0.0000    0.0000 O   0  0  0  0  0  0  0  0  0  0  0  0
    0.0000   -1.9934    0.0000 O   0  0  0  0  0  0  0  0  0  0  0  0
  1  2  1  0  0  0  0
  1 13  1  0  0  0  0
  1 12  2  0  0  0  0
  2  3  1  0  0  0  0
  3  4  1  0  0  0  0
  4  5  1  0  0  0  0
  5  6  1  0  0  0  0
  6  7  1  0  0  0  0
  7  8  1  0  0  0  0
  8  9  1  0  0  0  0
  9 10  1  0  0  0  0
 10 11  2  0  0  0  0
M  END
> <ID>
6976

> <Formula>
C11H20O2

> <FW>
184.2753

> <DSSTox_CID>
15001

> <DSSTox_RID>
79235

> <DSSTox_GSID>
35001

> <DSSTox_FileID_Sort>
3917

> <TS_ChemName>
10-Undecenoic acid

> <TS_ChemName_Synonyms>
Undecylenic acid

> <TS_CASRN>
112-38-9

> <CASRN_ChemName_Relationship>
primary

> <TS_Description>
single chemical compound

> <ChemNote>


> <STRUCTURE_Shown>
tested chemical

> <STRUCTURE_Formula>
C11H20O2

> <STRUCTURE_MW>
184.2753

> <STRUCTURE_ChemType>
defined organic

> <STRUCTURE_DefinedOrganicForm>
parent

> <STRUCTURE_IUPAC>
undec-10-enoic acid

> <STRUCTURE_SMILES>
O=C(O)CCCCCCCCC=C

> <STRUCTURE_SMILES_Desalt>
O=C(O)CCCCCCCCC=C

> <Substance_modify_yyyymmdd>
20080429

$$$$
