112-07-2
ChemmineR-0915142007XD

 11 10  0  0  0  0  0  0  0  0  1 V2000
    6.9299   -0.6639    0.0000 C   0  0  0  0  0  0  0  0  0  0  0  0
    5.7680    0.0000    0.0000 C   0  0  0  0  0  0  0  0  0  0  0  0
    8.0607    0.0000    0.0000 O   0  0  0  0  0  0  0  0  0  0  0  0
    4.6165   -0.6639    0.0000 O   0  0  0  0  0  0  0  0  0  0  0  0
    3.4650    0.0000    0.0000 C   0  0  0  0  0  0  0  0  0  0  0  0
    2.3134   -0.6639    0.0000 C   0  0  0  0  0  0  0  0  0  0  0  0
    1.1515    0.0000    0.0000 C   0  0  0  0  0  0  0  0  0  0  0  0
    0.0000   -0.6639    0.0000 C   0  0  0  0  0  0  0  0  0  0  0  0
    9.2226   -0.6639    0.0000 C   0  0  0  0  0  0  0  0  0  0  0  0
   10.3742    0.0000    0.0000 O   0  0  0  0  0  0  0  0  0  0  0  0
    9.2226   -1.9918    0.0000 C   0  0  0  0  0  0  0  0  0  0  0  0
  1  2  1  0  0  0  0
  1  3  1  0  0  0  0
  2  4  1  0  0  0  0
  3  9  1  0  0  0  0
  4  5  1  0  0  0  0
  5  6  1  0  0  0  0
  6  7  1  0  0  0  0
  7  8  1  0  0  0  0
  9 10  2  0  0  0  0
  9 11  1  0  0  0  0
M  END
> <ID>
4840

> <Formula>
C8H16O3

> <FW>
160.2108

> <DSSTox_CID>
6904

> <DSSTox_RID>
78245

> <DSSTox_GSID>
26904

> <DSSTox_FileID_Sort>
2928

> <TS_ChemName>
2-Butoxyethyl acetate

> <TS_ChemName_Synonyms>
2-Butoxyethyl acetate (Ethanol, 2-butoxy-, acetate) (Ethylene glycol monobutyl ether acetate)

> <TS_CASRN>
112-07-2

> <CASRN_ChemName_Relationship>
primary

> <TS_Description>
single chemical compound

> <ChemNote>


> <STRUCTURE_Shown>
tested chemical

> <STRUCTURE_Formula>
C8H16O3

> <STRUCTURE_MW>
160.2108

> <STRUCTURE_ChemType>
defined organic

> <STRUCTURE_DefinedOrganicForm>
parent

> <STRUCTURE_IUPAC>
2-butoxyethyl acetate

> <STRUCTURE_SMILES>
O=C(C)OCCOCCCC

> <STRUCTURE_SMILES_Desalt>
O=C(C)OCCOCCCC

> <Substance_modify_yyyymmdd>
20080429

$$$$
