1120-01-0
ChemmineR-0915142007XD

 22 20  0  0  0  0  0  0  0  0  2 V2000
   19.5285   -1.1351    0.0000 S    0  0  0  0  0  0  0  0  0  0  0  0
   20.6636   -0.4633    0.0000 O    0  0  0  0  0  0  0  0  0  0  0  0
   18.8567    0.0000    0.0000 O    0  0  0  0  0  0  0  0  0  0  0  0
   18.3702   -1.8069    0.0000 O    0  0  0  0  0  0  0  0  0  0  0  0
   20.2003   -2.2934    0.0000 O    0  5  0  0  0  0  0  0  0  0  0  0
   17.2119   -1.1351    0.0000 C    0  0  0  0  0  0  0  0  0  0  0  0
   16.0768   -1.8069    0.0000 C    0  0  0  0  0  0  0  0  0  0  0  0
   14.9417   -1.1351    0.0000 C    0  0  0  0  0  0  0  0  0  0  0  0
   13.7834   -1.8069    0.0000 C    0  0  0  0  0  0  0  0  0  0  0  0
   12.6483   -1.1351    0.0000 C    0  0  0  0  0  0  0  0  0  0  0  0
   11.4901   -1.8069    0.0000 C    0  0  0  0  0  0  0  0  0  0  0  0
   10.3318   -1.1351    0.0000 C    0  0  0  0  0  0  0  0  0  0  0  0
    9.1967   -1.8069    0.0000 C    0  0  0  0  0  0  0  0  0  0  0  0
    8.0384   -1.1351    0.0000 C    0  0  0  0  0  0  0  0  0  0  0  0
    6.8801   -1.8069    0.0000 C    0  0  0  0  0  0  0  0  0  0  0  0
    5.7450   -1.1351    0.0000 C    0  0  0  0  0  0  0  0  0  0  0  0
    4.6099   -1.8069    0.0000 C    0  0  0  0  0  0  0  0  0  0  0  0
    3.4517   -1.1351    0.0000 C    0  0  0  0  0  0  0  0  0  0  0  0
    2.2934   -1.8069    0.0000 C    0  0  0  0  0  0  0  0  0  0  0  0
    1.1583   -1.1351    0.0000 C    0  0  0  0  0  0  0  0  0  0  0  0
    0.0000   -1.8069    0.0000 C    0  0  0  0  0  0  0  0  0  0  0  0
   23.1654   -0.8340    0.0000 Na   0  3  0  0  0  0  0  0  0  0  0  0
  1  2  2  0  0  0  0
  1  3  2  0  0  0  0
  1  4  1  0  0  0  0
  1  5  1  0  0  0  0
  4  6  1  0  0  0  0
  6  7  1  0  0  0  0
  7  8  1  0  0  0  0
  8  9  1  0  0  0  0
  9 10  1  0  0  0  0
 10 11  1  0  0  0  0
 11 12  1  0  0  0  0
 12 13  1  0  0  0  0
 13 14  1  0  0  0  0
 14 15  1  0  0  0  0
 15 16  1  0  0  0  0
 16 17  1  0  0  0  0
 17 18  1  0  0  0  0
 18 19  1  0  0  0  0
 19 20  1  0  0  0  0
 20 21  1  0  0  0  0
M  END
> <ID>
9319

> <Formula>
C16H33NaO4S

> <FW>
344.4856 (321.4964+22.9892)

> <DSSTox_CID>
22400

> <DSSTox_RID>
80014

> <DSSTox_GSID>
42400

> <DSSTox_FileID_Sort>
4696

> <TS_ChemName>
Sodium hexyldecyl sulfate

> <TS_ChemName_Synonyms>


> <TS_CASRN>
1120-01-0

> <CASRN_ChemName_Relationship>
primary

> <TS_Description>
single chemical compound

> <ChemNote>
parent [143-02-2]

> <STRUCTURE_Shown>
tested chemical

> <STRUCTURE_Formula>
C16H33NaO4S

> <STRUCTURE_MW>
344.4856

> <STRUCTURE_ChemType>
defined organic

> <STRUCTURE_DefinedOrganicForm>
salt

> <STRUCTURE_IUPAC>
sodium hexadecyl sulfate

> <STRUCTURE_SMILES>
[Na+].[O-]S(=O)(=O)OCCCCCCCCCCCCCCCC

> <STRUCTURE_SMILES_Desalt>
O=S(=O)(O)OCCCCCCCCCCCCCCCC

> <Substance_modify_yyyymmdd>
20080825

$$$$
