1120-71-4
ChemmineR-0915142007XD

  7  7  0  0  0  0  0  0  0  0  1 V2000
    1.1893   -3.1857    0.0000 O   0  0  0  0  0  0  0  0  0  0  0  0
    1.3310   -1.8647    0.0000 S   0  0  0  0  0  0  0  0  0  0  0  0
    0.0000   -1.8647    0.0000 O   0  0  0  0  0  0  0  0  0  0  0  0
    1.1893   -0.5403    0.0000 C   0  0  0  0  0  0  0  0  0  0  0  0
    2.4049    0.0000    0.0000 C   0  0  0  0  0  0  0  0  0  0  0  0
    3.2944   -0.9883    0.0000 C   0  0  0  0  0  0  0  0  0  0  0  0
    2.6290   -2.1414    0.0000 O   0  0  0  0  0  0  0  0  0  0  0  0
  1  2  2  0  0  0  0
  2  3  2  0  0  0  0
  2  4  1  0  0  0  0
  2  7  1  0  0  0  0
  4  5  1  0  0  0  0
  5  6  1  0  0  0  0
  6  7  1  0  0  0  0
M  END
> <ID>
1149

> <Formula>
C3H6O3S

> <FW>
122.1429

> <DSSTox_CID>
1195

> <DSSTox_RID>
76004

> <DSSTox_GSID>
21195

> <DSSTox_FileID_Sort>
688

> <TS_ChemName>
1,3-Propane sultone

> <TS_ChemName_Synonyms>
1,3-Propane sultone (Propane sultone)

> <TS_CASRN>
1120-71-4

> <CASRN_ChemName_Relationship>
primary

> <TS_Description>
single chemical compound

> <ChemNote>


> <STRUCTURE_Shown>
tested chemical

> <STRUCTURE_Formula>
C3H6O3S

> <STRUCTURE_MW>
122.1429

> <STRUCTURE_ChemType>
defined organic

> <STRUCTURE_DefinedOrganicForm>
parent

> <STRUCTURE_IUPAC>
1,2-oxathiolane 2,2-dioxide

> <STRUCTURE_SMILES>
O=S1(=O)CCCO1

> <STRUCTURE_SMILES_Desalt>
O=S1(=O)CCCO1

> <Substance_modify_yyyymmdd>
20080429

$$$$
