1120-04-3
ChemmineR-0915142007XD

 24 22  0  0  0  0  0  0  0  0  2 V2000
    3.4526   -1.1424    0.0000 S    0  0  0  0  0  0  0  0  0  0  0  0
    2.7925   -2.3102    0.0000 O    0  0  0  0  0  0  0  0  0  0  0  0
    4.1126    0.0000    0.0000 O    0  0  0  0  0  0  0  0  0  0  0  0
    4.6203   -1.8278    0.0000 O    0  0  0  0  0  0  0  0  0  0  0  0
    2.3102   -0.4823    0.0000 O    0  5  0  0  0  0  0  0  0  0  0  0
    5.7627   -1.1424    0.0000 C    0  0  0  0  0  0  0  0  0  0  0  0
    6.9051   -1.8024    0.0000 C    0  0  0  0  0  0  0  0  0  0  0  0
    8.0729   -1.1424    0.0000 C    0  0  0  0  0  0  0  0  0  0  0  0
    9.2407   -1.8024    0.0000 C    0  0  0  0  0  0  0  0  0  0  0  0
   10.3831   -1.1424    0.0000 C    0  0  0  0  0  0  0  0  0  0  0  0
   11.5254   -1.8024    0.0000 C    0  0  0  0  0  0  0  0  0  0  0  0
   12.6932   -1.1424    0.0000 C    0  0  0  0  0  0  0  0  0  0  0  0
   13.8356   -1.8024    0.0000 C    0  0  0  0  0  0  0  0  0  0  0  0
   15.0034   -1.1424    0.0000 C    0  0  0  0  0  0  0  0  0  0  0  0
   16.1458   -1.8024    0.0000 C    0  0  0  0  0  0  0  0  0  0  0  0
   17.2882   -1.1424    0.0000 C    0  0  0  0  0  0  0  0  0  0  0  0
   18.4559   -1.7771    0.0000 C    0  0  0  0  0  0  0  0  0  0  0  0
   19.6237   -1.1170    0.0000 C    0  0  0  0  0  0  0  0  0  0  0  0
   20.7661   -1.7517    0.0000 C    0  0  0  0  0  0  0  0  0  0  0  0
   21.9339   -1.0916    0.0000 C    0  0  0  0  0  0  0  0  0  0  0  0
   23.0763   -1.7517    0.0000 C    0  0  0  0  0  0  0  0  0  0  0  0
   24.2187   -1.0662    0.0000 C    0  0  0  0  0  0  0  0  0  0  0  0
   25.3864   -1.7263    0.0000 C    0  0  0  0  0  0  0  0  0  0  0  0
    0.0000   -0.3554    0.0000 Na   0  3  0  0  0  0  0  0  0  0  0  0
  1  2  2  0  0  0  0
  1  3  2  0  0  0  0
  1  4  1  0  0  0  0
  1  5  1  0  0  0  0
  4  6  1  0  0  0  0
  6  7  1  0  0  0  0
  7  8  1  0  0  0  0
  8  9  1  0  0  0  0
  9 10  1  0  0  0  0
 10 11  1  0  0  0  0
 11 12  1  0  0  0  0
 12 13  1  0  0  0  0
 13 14  1  0  0  0  0
 14 15  1  0  0  0  0
 15 16  1  0  0  0  0
 16 17  1  0  0  0  0
 17 18  1  0  0  0  0
 18 19  1  0  0  0  0
 19 20  1  0  0  0  0
 20 21  1  0  0  0  0
 21 22  1  0  0  0  0
 22 23  1  0  0  0  0
M  END
> <ID>
12253

> <Formula>
C18H37NaO4S

> <FW>
372.5387 (349.5495+22.9892)

> <DSSTox_CID>
27103

> <DSSTox_RID>
82113

> <DSSTox_GSID>
47103

> <DSSTox_FileID_Sort>
6794

> <TS_ChemName>
Octadecyl sulfate sodium salt

> <TS_ChemName_Synonyms>


> <TS_CASRN>
1120-04-3

> <CASRN_ChemName_Relationship>
primary

> <TS_Description>
single chemical compound

> <ChemNote>
parent [143-03-3]

> <STRUCTURE_Shown>
tested chemical

> <STRUCTURE_Formula>
C18H37NaO4S

> <STRUCTURE_MW>
372.5387

> <STRUCTURE_ChemType>
defined organic

> <STRUCTURE_DefinedOrganicForm>
salt

> <STRUCTURE_IUPAC>
sodium octadecyl sulfate

> <STRUCTURE_SMILES>
[Na+].[O-]S(=O)(=O)OCCCCCCCCCCCCCCCCCC

> <STRUCTURE_SMILES_Desalt>
O=S(=O)(O)OCCCCCCCCCCCCCCCCCC

> <Substance_modify_yyyymmdd>
20100429

$$$$
