112108-01-7
ChemmineR-0915142007XD

 22 25  0  0  1  0  0  0  0  0  1 V2000
    3.5273   -2.7235    0.0000 C    0  0  0  0  0  0  0  0  0  0  0  0
    3.8160   -1.4203    0.0000 C    0  0  0  0  0  0  0  0  0  0  0  0
    4.3467   -3.7692    0.0000 C    0  0  0  0  0  0  0  0  0  0  0  0
    5.0178   -0.8506    0.0000 C    0  0  0  0  0  0  0  0  0  0  0  0
    5.6733   -3.7692    0.0000 C    0  0  0  0  0  0  0  0  0  0  0  0
    6.5005   -2.7235    0.0000 N    0  0  0  0  0  0  0  0  0  0  0  0
    6.2117   -1.4203    0.0000 C    0  0  0  0  0  0  0  0  0  0  0  0
    2.2397   -3.1059    0.0000 C    0  0  0  0  0  0  0  0  0  0  0  0
    1.2876   -2.2084    0.0000 C    0  0  0  0  0  0  0  0  0  0  0  0
    2.8484   -0.5150    0.0000 C    0  0  0  0  0  0  0  0  0  0  0  0
    1.5763   -0.9130    0.0000 C    0  0  0  0  0  0  0  0  0  0  0  0
    3.6833   -4.9241    0.0000 C    0  0  0  0  0  0  0  0  0  0  0  0
    4.3467   -6.0713    0.0000 C    0  0  0  0  0  0  0  0  0  0  0  0
    6.3444   -4.9241    0.0000 C    0  0  0  0  0  0  0  0  0  0  0  0
    5.6733   -6.0713    0.0000 C    0  0  0  0  0  0  0  0  0  0  0  0
    2.3489   -4.9241    0.0000 C    0  0  0  0  0  0  0  0  0  0  0  0
    1.6856   -6.0557    0.0000 C    0  0  0  0  0  0  0  0  0  0  0  0
    3.6833   -7.2106    0.0000 C    0  0  0  0  0  0  0  0  0  0  0  0
    2.3489   -7.2106    0.0000 C    0  0  0  0  0  0  0  0  0  0  0  0
    0.5931    0.0000    0.0000 Cl   0  0  0  0  0  0  0  0  0  0  0  0
    0.0000   -2.5908    0.0000 O    0  0  0  0  0  0  0  0  0  0  0  0
    7.8037   -3.0278    0.0000 C    0  0  0  0  0  0  0  0  0  0  0  0
  3  1  1  6  0  0  0
  1  8  1  0  0  0  0
  1  2  2  0  0  0  0
  2  4  1  0  0  0  0
  2 10  1  0  0  0  0
  3 12  1  0  0  0  0
  3  5  1  0  0  0  0
  4  7  1  0  0  0  0
  5  6  1  1  0  0  0
  5 14  1  0  0  0  0
  6  7  1  0  0  0  0
  6 22  1  0  0  0  0
  8  9  2  0  0  0  0
  9 11  1  0  0  0  0
  9 21  1  0  0  0  0
 10 11  2  0  0  0  0
 11 20  1  0  0  0  0
 12 16  2  0  0  0  0
 12 13  1  0  0  0  0
 13 15  1  0  0  0  0
 13 18  2  0  0  0  0
 14 15  1  0  0  0  0
 16 17  1  0  0  0  0
 17 19  2  0  0  0  0
 18 19  1  0  0  0  0
M  END
> <ID>
9646

> <Formula>
C19H20ClNO

> <FW>
313.8212

> <DSSTox_CID>
23814

> <DSSTox_RID>
80075

> <DSSTox_GSID>
43814

> <DSSTox_FileID_Sort>
4757

> <TS_ChemName>
Ecopipam

> <TS_ChemName_Synonyms>
SCH 39166

> <TS_CASRN>
112108-01-7

> <CASRN_ChemName_Relationship>
primary

> <TS_Description>
single chemical compound

> <ChemNote>


> <STRUCTURE_Shown>
tested chemical

> <STRUCTURE_Formula>
C19H20ClNO

> <STRUCTURE_MW>
313.8212

> <STRUCTURE_ChemType>
defined organic

> <STRUCTURE_DefinedOrganicForm>
parent

> <STRUCTURE_IUPAC>
(6aS,13bR)-11-chloro-7-methyl-6,6a,7,8,9,13b-hexahydro-5H-benzo[d]naphtho[2,1-b]azepin-12-ol

> <STRUCTURE_SMILES>
Oc3cc4[C@@H]1[C@H](CCc2ccccc12)N(C)CCc4cc3Cl

> <STRUCTURE_SMILES_Desalt>
Oc3cc4[C@@H]1[C@H](CCc2ccccc12)N(C)CCc4cc3Cl

> <Substance_modify_yyyymmdd>
20081229

$$$$
