112192-04-8
ChemmineR-0915142007XD

 26 29  0  0  0  0  0  0  0  0  1 V2000
    3.4570   -0.9359    0.0000 C   0  0  0  0  0  0  0  0  0  0  0  0
    3.4570   -2.2644    0.0000 C   0  0  0  0  0  0  0  0  0  0  0  0
    2.3248   -0.2566    0.0000 C   0  0  0  0  0  0  0  0  0  0  0  0
    2.3248   -2.8984    0.0000 C   0  0  0  0  0  0  0  0  0  0  0  0
    1.1624   -0.9359    0.0000 C   0  0  0  0  0  0  0  0  0  0  0  0
    1.1624   -2.2644    0.0000 C   0  0  0  0  0  0  0  0  0  0  0  0
    4.7401   -0.5133    0.0000 N   0  0  0  0  0  0  0  0  0  0  0  0
    5.5100   -1.5851    0.0000 C   0  0  0  0  0  0  0  0  0  0  0  0
    4.7401   -2.6569    0.0000 C   0  0  0  0  0  0  0  0  0  0  0  0
    0.0000   -2.8984    0.0000 O   0  0  0  0  0  0  0  0  0  0  0  0
    4.7401   -3.9702    0.0000 C   0  0  0  0  0  0  0  0  0  0  0  0
    5.8723   -4.6646    0.0000 C   0  0  0  0  0  0  0  0  0  0  0  0
    7.0347   -3.9702    0.0000 C   0  0  0  0  0  0  0  0  0  0  0  0
    8.1820   -4.6646    0.0000 C   0  0  0  0  0  0  0  0  0  0  0  0
    9.3444   -3.9702    0.0000 N   0  0  0  0  0  0  0  0  0  0  0  0
   11.6390   -2.6569    0.0000 C   0  0  0  0  0  0  0  0  0  0  0  0
   11.6390   -3.9702    0.0000 C   0  0  0  0  0  0  0  0  0  0  0  0
   10.4766   -2.0078    0.0000 C   0  0  0  0  0  0  0  0  0  0  0  0
   10.4766   -4.6646    0.0000 C   0  0  0  0  0  0  0  0  0  0  0  0
    9.3444   -2.6569    0.0000 C   0  0  0  0  0  0  0  0  0  0  0  0
   12.7712   -2.0078    0.0000 C   0  0  0  0  0  0  0  0  0  0  0  0
   12.7712   -0.6642    0.0000 C   0  0  0  0  0  0  0  0  0  0  0  0
   13.9487   -2.6569    0.0000 C   0  0  0  0  0  0  0  0  0  0  0  0
   13.9487    0.0000    0.0000 C   0  0  0  0  0  0  0  0  0  0  0  0
   15.0960   -2.0078    0.0000 C   0  0  0  0  0  0  0  0  0  0  0  0
   15.0960   -0.6642    0.0000 C   0  0  0  0  0  0  0  0  0  0  0  0
  1  3  2  0  0  0  0
  1  7  1  0  0  0  0
  1  2  1  0  0  0  0
  2  4  2  0  0  0  0
  2  9  1  0  0  0  0
  3  5  1  0  0  0  0
  4  6  1  0  0  0  0
  5  6  2  0  0  0  0
  6 10  1  0  0  0  0
  7  8  1  0  0  0  0
  8  9  2  0  0  0  0
  9 11  1  0  0  0  0
 11 12  1  0  0  0  0
 12 13  1  0  0  0  0
 13 14  1  0  0  0  0
 14 15  1  0  0  0  0
 15 19  1  0  0  0  0
 15 20  1  0  0  0  0
 16 17  1  0  0  0  0
 16 18  2  0  0  0  0
 16 21  1  0  0  0  0
 17 19  1  0  0  0  0
 18 20  1  0  0  0  0
 21 22  1  0  0  0  0
 21 23  2  0  0  0  0
 22 24  2  0  0  0  0
 23 25  1  0  0  0  0
 24 26  1  0  0  0  0
 25 26  2  0  0  0  0
M  END
> <ID>
9725

> <Formula>
C23H26N2O

> <FW>
346.4653

> <DSSTox_CID>
23895

> <DSSTox_RID>
80082

> <DSSTox_GSID>
43895

> <DSSTox_FileID_Sort>
4764

> <TS_ChemName>
Roxindole

> <TS_ChemName_Synonyms>


> <TS_CASRN>
112192-04-8

> <CASRN_ChemName_Relationship>
primary

> <TS_Description>
single chemical compound

> <ChemNote>


> <STRUCTURE_Shown>
tested chemical

> <STRUCTURE_Formula>
C23H26N2O

> <STRUCTURE_MW>
346.4653

> <STRUCTURE_ChemType>
defined organic

> <STRUCTURE_DefinedOrganicForm>
parent

> <STRUCTURE_IUPAC>
3-[4-(4-phenyl-3,6-dihydropyridin-1(2H)-yl)butyl]-1H-indol-5-ol

> <STRUCTURE_SMILES>
Oc3ccc4ncc(CCCCN1CC=C(CC1)c2ccccc2)c4c3

> <STRUCTURE_SMILES_Desalt>
Oc3ccc4ncc(CCCCN1CC=C(CC1)c2ccccc2)c4c3

> <Substance_modify_yyyymmdd>
20081229

$$$$
