1121-76-2
ChemmineR-0915142007XD

  8  8  0  0  0  0  0  0  0  0  2 V2000
    3.9865   -1.1534    0.0000 N    0  3  0  0  0  0  0  0  0  0  0  0
    3.3115   -2.3069    0.0000 C    0  0  0  0  0  0  0  0  0  0  0  0
    3.3115    0.0000    0.0000 C    0  0  0  0  0  0  0  0  0  0  0  0
    1.9826    0.0000    0.0000 C    0  0  0  0  0  0  0  0  0  0  0  0
    1.9826   -2.3069    0.0000 C    0  0  0  0  0  0  0  0  0  0  0  0
    1.3288   -1.1534    0.0000 C    0  0  0  0  0  0  0  0  0  0  0  0
    5.3154   -1.1534    0.0000 O    0  5  0  0  0  0  0  0  0  0  0  0
    0.0000   -1.1534    0.0000 Cl   0  0  0  0  0  0  0  0  0  0  0  0
  1  2  2  0  0  0  0
  1  3  1  0  0  0  0
  1  7  1  0  0  0  0
  2  5  1  0  0  0  0
  3  4  2  0  0  0  0
  4  6  1  0  0  0  0
  5  6  2  0  0  0  0
  6  8  1  0  0  0  0
M  END
> <ID>
8479

> <Formula>
C5H4ClNO

> <FW>
129.5444

> <DSSTox_CID>
21513

> <DSSTox_RID>
79758

> <DSSTox_GSID>
41513

> <DSSTox_FileID_Sort>
4440

> <TS_ChemName>
4-Chloropyridine 1-oxide

> <TS_ChemName_Synonyms>


> <TS_CASRN>
1121-76-2

> <CASRN_ChemName_Relationship>
primary

> <TS_Description>
single chemical compound

> <ChemNote>
ammonium

> <STRUCTURE_Shown>
tested chemical

> <STRUCTURE_Formula>
C5H4ClNO

> <STRUCTURE_MW>
129.5444

> <STRUCTURE_ChemType>
defined organic

> <STRUCTURE_DefinedOrganicForm>
parent

> <STRUCTURE_IUPAC>
4-chloropyridine 1-oxide

> <STRUCTURE_SMILES>
[O-][n+]1ccc(Cl)cc1

> <STRUCTURE_SMILES_Desalt>
O[n+]1ccc(Cl)cc1

> <Substance_modify_yyyymmdd>
20080825

$$$$
