112226-61-6
ChemmineR-0915142007XD

 23 24  0  0  0  0  0  0  0  0  1 V2000
    4.6001   -2.6911    0.0000 C    0  0  0  0  0  0  0  0  0  0  0  0
    4.6001   -1.3340    0.0000 O    0  0  0  0  0  0  0  0  0  0  0  0
    3.4616   -3.3466    0.0000 C    0  0  0  0  0  0  0  0  0  0  0  0
    2.2886   -2.6911    0.0000 C    0  0  0  0  0  0  0  0  0  0  0  0
    3.4616   -4.6806    0.0000 C    0  0  0  0  0  0  0  0  0  0  0  0
    1.1500   -3.3466    0.0000 C    0  0  0  0  0  0  0  0  0  0  0  0
    2.2886   -5.3362    0.0000 C    0  0  0  0  0  0  0  0  0  0  0  0
    1.1500   -4.6806    0.0000 C    0  0  0  0  0  0  0  0  0  0  0  0
    0.0000   -5.3362    0.0000 Cl   0  0  0  0  0  0  0  0  0  0  0  0
    5.7502   -3.3466    0.0000 N    0  0  0  0  0  0  0  0  0  0  0  0
    6.9002   -2.6911    0.0000 N    0  0  0  0  0  0  0  0  0  0  0  0
    8.0387   -3.3466    0.0000 C    0  0  0  0  0  0  0  0  0  0  0  0
    8.0387   -4.6806    0.0000 O    0  0  0  0  0  0  0  0  0  0  0  0
    9.2118   -2.6911    0.0000 C    0  0  0  0  0  0  0  0  0  0  0  0
   10.3503   -3.3466    0.0000 C    0  0  0  0  0  0  0  0  0  0  0  0
    9.2118   -1.3340    0.0000 C    0  0  0  0  0  0  0  0  0  0  0  0
   11.5003   -2.6911    0.0000 C    0  0  0  0  0  0  0  0  0  0  0  0
   10.3503   -0.7015    0.0000 C    0  0  0  0  0  0  0  0  0  0  0  0
   11.5003   -1.3340    0.0000 C    0  0  0  0  0  0  0  0  0  0  0  0
    6.9002   -1.3340    0.0000 C    0  0  0  0  0  0  0  0  0  0  0  0
    5.7157   -0.7015    0.0000 C    0  0  0  0  0  0  0  0  0  0  0  0
    8.0387   -0.7015    0.0000 C    0  0  0  0  0  0  0  0  0  0  0  0
    6.8657    0.0000    0.0000 C    0  0  0  0  0  0  0  0  0  0  0  0
  1  2  2  0  0  0  0
  1  3  1  0  0  0  0
  1 10  1  0  0  0  0
  3  4  2  0  0  0  0
  3  5  1  0  0  0  0
  4  6  1  0  0  0  0
  5  7  2  0  0  0  0
  6  8  2  0  0  0  0
  7  8  1  0  0  0  0
  8  9  1  0  0  0  0
 10 11  1  0  0  0  0
 11 12  1  0  0  0  0
 11 20  1  0  0  0  0
 12 13  2  0  0  0  0
 12 14  1  0  0  0  0
 14 15  2  0  0  0  0
 14 16  1  0  0  0  0
 15 17  1  0  0  0  0
 16 18  2  0  0  0  0
 17 19  2  0  0  0  0
 18 19  1  0  0  0  0
 20 21  1  0  0  0  0
 20 22  1  0  0  0  0
 20 23  1  0  0  0  0
M  END
> <ID>
6544

> <Formula>
C18H19ClN2O2

> <FW>
330.8087

> <DSSTox_CID>
12619

> <DSSTox_RID>
79007

> <DSSTox_GSID>
32619

> <DSSTox_FileID_Sort>
3689

> <TS_ChemName>
Halofenozide

> <TS_ChemName_Synonyms>
Halofenozide (Benzoic acid, 4-chloro-, 2-benzoyl-2-(1,1-dimethylethyl)hydrazide) (RH-70345) (Mach-2)

> <TS_CASRN>
112226-61-6

> <CASRN_ChemName_Relationship>
primary

> <TS_Description>
single chemical compound

> <ChemNote>


> <STRUCTURE_Shown>
tested chemical

> <STRUCTURE_Formula>
C18H19ClN2O2

> <STRUCTURE_MW>
330.8087

> <STRUCTURE_ChemType>
defined organic

> <STRUCTURE_DefinedOrganicForm>
parent

> <STRUCTURE_IUPAC>
N'-benzoyl-N'-tert-butyl-4-chlorobenzohydrazide

> <STRUCTURE_SMILES>
O=C(NN(C(=O)c1ccccc1)C(C)(C)C)c2ccc(Cl)cc2

> <STRUCTURE_SMILES_Desalt>
O=C(NN(C(=O)c1ccccc1)C(C)(C)C)c2ccc(Cl)cc2

> <Substance_modify_yyyymmdd>
20080429

$$$$
