1122-58-3
ChemmineR-0915142007XD

  9  9  0  0  0  0  0  0  0  0  1 V2000
    1.1495   -4.6538    0.0000 N   0  0  0  0  0  0  0  0  0  0  0  0
    0.0000   -3.9837    0.0000 C   0  0  0  0  0  0  0  0  0  0  0  0
    2.3036   -3.9837    0.0000 C   0  0  0  0  0  0  0  0  0  0  0  0
    2.3036   -2.6527    0.0000 C   0  0  0  0  0  0  0  0  0  0  0  0
    0.0000   -2.6527    0.0000 C   0  0  0  0  0  0  0  0  0  0  0  0
    1.1495   -2.0011    0.0000 C   0  0  0  0  0  0  0  0  0  0  0  0
    1.1495   -0.6702    0.0000 N   0  0  0  0  0  0  0  0  0  0  0  0
    2.3036    0.0000    0.0000 C   0  0  0  0  0  0  0  0  0  0  0  0
    0.0000    0.0000    0.0000 C   0  0  0  0  0  0  0  0  0  0  0  0
  1  2  2  0  0  0  0
  1  3  1  0  0  0  0
  2  5  1  0  0  0  0
  3  4  2  0  0  0  0
  4  6  1  0  0  0  0
  5  6  2  0  0  0  0
  6  7  1  0  0  0  0
  7  8  1  0  0  0  0
  7  9  1  0  0  0  0
M  END
> <ID>
10027

> <Formula>
C7H10N2

> <FW>
122.1677

> <DSSTox_CID>
24369

> <DSSTox_RID>
80176

> <DSSTox_GSID>
44369

> <DSSTox_FileID_Sort>
4858

> <TS_ChemName>
N,N-dimethylpyridin-4-amine

> <TS_ChemName_Synonyms>
N,N-dimethylpyridin-4-amine (4-Pyridinamine, N,N-dimethyl-)

> <TS_CASRN>
1122-58-3

> <CASRN_ChemName_Relationship>
primary

> <TS_Description>
single chemical compound

> <ChemNote>


> <STRUCTURE_Shown>
tested chemical

> <STRUCTURE_Formula>
C7H10N2

> <STRUCTURE_MW>
122.1677

> <STRUCTURE_ChemType>
defined organic

> <STRUCTURE_DefinedOrganicForm>
parent

> <STRUCTURE_IUPAC>
N,N-dimethylpyridin-4-amine

> <STRUCTURE_SMILES>
CN(C)c1ccncc1

> <STRUCTURE_SMILES_Desalt>
CN(C)c1ccncc1

> <Substance_modify_yyyymmdd>
20091116

$$$$
