112281-77-3
ChemmineR-0915142007XD

 23 24  0  0  0  0  0  0  0  0  1 V2000
    2.6732   -5.7553    0.0000 N    0  0  0  0  0  0  0  0  0  0  0  0
    1.9051   -6.8525    0.0000 N    0  0  0  0  0  0  0  0  0  0  0  0
    0.6284   -6.4236    0.0000 C    0  0  0  0  0  0  0  0  0  0  0  0
    0.6284   -5.0970    0.0000 N    0  0  0  0  0  0  0  0  0  0  0  0
    1.9051   -4.6980    0.0000 C    0  0  0  0  0  0  0  0  0  0  0  0
    3.9998   -5.7553    0.0000 C    0  0  0  0  0  0  0  0  0  0  0  0
    4.6481   -4.5883    0.0000 C    0  0  0  0  0  0  0  0  0  0  0  0
    3.9998   -3.4612    0.0000 C    0  0  0  0  0  0  0  0  0  0  0  0
    5.9947   -4.5883    0.0000 C    0  0  0  0  0  0  0  0  0  0  0  0
    6.6530   -5.7553    0.0000 C    0  0  0  0  0  0  0  0  0  0  0  0
    6.6530   -3.4512    0.0000 C    0  0  0  0  0  0  0  0  0  0  0  0
    7.9796   -5.7553    0.0000 C    0  0  0  0  0  0  0  0  0  0  0  0
    7.9796   -3.4512    0.0000 C    0  0  0  0  0  0  0  0  0  0  0  0
    8.6479   -4.5883    0.0000 C    0  0  0  0  0  0  0  0  0  0  0  0
    5.9947   -6.9024    0.0000 Cl   0  0  0  0  0  0  0  0  0  0  0  0
    9.9745   -4.5883    0.0000 Cl   0  0  0  0  0  0  0  0  0  0  0  0
    2.6732   -3.4612    0.0000 O    0  0  0  0  0  0  0  0  0  0  0  0
    1.9949   -2.3141    0.0000 C    0  0  0  0  0  0  0  0  0  0  0  0
    1.3266   -1.1471    0.0000 C    0  0  0  0  0  0  0  0  0  0  0  0
    3.1520   -1.6458    0.0000 F    0  0  0  0  0  0  0  0  0  0  0  0
    0.8279   -2.9724    0.0000 F    0  0  0  0  0  0  0  0  0  0  0  0
    1.9949    0.0000    0.0000 F    0  0  0  0  0  0  0  0  0  0  0  0
    0.0000   -1.1471    0.0000 F    0  0  0  0  0  0  0  0  0  0  0  0
  1  2  1  0  0  0  0
  1  5  1  0  0  0  0
  1  6  1  0  0  0  0
  2  3  2  0  0  0  0
  3  4  1  0  0  0  0
  4  5  2  0  0  0  0
  6  7  1  0  0  0  0
  7  8  1  0  0  0  0
  7  9  1  0  0  0  0
  8 17  1  0  0  0  0
  9 10  2  0  0  0  0
  9 11  1  0  0  0  0
 10 12  1  0  0  0  0
 10 15  1  0  0  0  0
 11 13  2  0  0  0  0
 12 14  2  0  0  0  0
 13 14  1  0  0  0  0
 14 16  1  0  0  0  0
 17 18  1  0  0  0  0
 18 19  1  0  0  0  0
 18 20  1  0  0  0  0
 18 21  1  0  0  0  0
 19 22  1  0  0  0  0
 19 23  1  0  0  0  0
M  END
> <ID>
6963

> <Formula>
C13H11Cl2F4N3O

> <FW>
372.1456

> <DSSTox_CID>
14956

> <DSSTox_RID>
79226

> <DSSTox_GSID>
34956

> <DSSTox_FileID_Sort>
3908

> <TS_ChemName>
Tetraconazole

> <TS_ChemName_Synonyms>
Tetraconazole (1H-1,2,4-Triazole, 1-{2-(2,4-dichlorophenyl)-3-(1,1,2,2-tetrafluoroethoxy)propyl}-, (.+-.)-)

> <TS_CASRN>
112281-77-3

> <CASRN_ChemName_Relationship>
primary

> <TS_Description>
single chemical compound

> <ChemNote>
mixture of (R,S) isomers; structure shown without stereochem

> <STRUCTURE_Shown>
tested chemical

> <STRUCTURE_Formula>
C13H11Cl2F4N3O

> <STRUCTURE_MW>
372.1456

> <STRUCTURE_ChemType>
defined organic

> <STRUCTURE_DefinedOrganicForm>
parent

> <STRUCTURE_IUPAC>
1-[2-(2,4-dichlorophenyl)-3-(1,1,2,2-tetrafluoroethoxy)propyl]-1H-1,2,4-triazole

> <STRUCTURE_SMILES>
FC(F)C(F)(F)OCC(Cn1cncn1)c2ccc(Cl)cc2Cl

> <STRUCTURE_SMILES_Desalt>
FC(F)C(F)(F)OCC(Cn1cncn1)c2ccc(Cl)cc2Cl

> <Substance_modify_yyyymmdd>
20080429

$$$$
