112398-08-0
ChemmineR-0915142007XD

 26 30  0  0  1  0  0  0  0  0  1 V2000
    7.3200   -0.9439    0.0000 C   0  0  0  0  0  0  0  0  0  0  0  0
    6.0146   -0.9439    0.0000 C   0  0  0  0  0  0  0  0  0  0  0  0
    6.6773   -2.0584    0.0000 C   0  0  0  0  0  0  0  0  0  0  0  0
    3.2734   -4.0265    0.0000 C   0  0  0  0  0  0  0  0  0  0  0  0
    3.2734   -5.3318    0.0000 C   0  0  0  0  0  0  0  0  0  0  0  0
    4.4181   -5.9644    0.0000 C   0  0  0  0  0  0  0  0  0  0  0  0
    4.4181   -3.3638    0.0000 C   0  0  0  0  0  0  0  0  0  0  0  0
    2.1689   -5.9644    0.0000 F   0  0  0  0  0  0  0  0  0  0  0  0
    5.5427   -4.0265    0.0000 C   0  0  0  0  0  0  0  0  0  0  0  0
    5.5427   -5.3318    0.0000 C   0  0  0  0  0  0  0  0  0  0  0  0
    6.6773   -5.9644    0.0000 C   0  0  0  0  0  0  0  0  0  0  0  0
    7.7919   -5.3318    0.0000 C   0  0  0  0  0  0  0  0  0  0  0  0
    7.7919   -4.0265    0.0000 C   0  0  0  0  0  0  0  0  0  0  0  0
    6.6773   -3.3638    0.0000 N   0  0  0  0  0  0  0  0  0  0  0  0
    6.6773   -7.2698    0.0000 O   0  0  0  0  0  0  0  0  0  0  0  0
    8.9266   -5.9644    0.0000 C   0  0  0  0  0  0  0  0  0  0  0  0
   10.0411   -5.3318    0.0000 O   0  0  0  0  0  0  0  0  0  0  0  0
    8.9266   -7.2698    0.0000 O   0  0  0  0  0  0  0  0  0  0  0  0
    0.3916   -3.0826    0.0000 C   0  0  0  0  0  0  0  0  0  0  0  0
    0.9740   -2.0283    0.0000 N   0  0  0  0  0  0  0  0  0  0  0  0
    1.9982   -1.3053    0.0000 C   0  0  0  0  0  0  0  0  0  0  0  0
    1.6166   -2.4500    0.0000 C   0  0  0  0  0  0  0  0  0  0  0  0
    1.7271    0.0000    0.0000 C   0  0  0  0  0  0  0  0  0  0  0  0
    3.2533   -2.0484    0.0000 C   0  0  0  0  0  0  0  0  0  0  0  0
    2.7814   -3.0525    0.0000 N   0  0  0  0  0  0  0  0  0  0  0  0
    0.0000   -1.1447    0.0000 C   0  0  0  0  0  0  0  0  0  0  0  0
  1  3  1  0  0  0  0
  1  2  1  0  0  0  0
  2  3  1  0  0  0  0
  3 14  1  0  0  0  0
  4  5  1  0  0  0  0
  4  7  2  0  0  0  0
  4 25  1  0  0  0  0
  5  6  2  0  0  0  0
  5  8  1  0  0  0  0
  6 10  1  0  0  0  0
  7  9  1  0  0  0  0
  9 10  2  0  0  0  0
  9 14  1  0  0  0  0
 10 11  1  0  0  0  0
 11 12  1  0  0  0  0
 11 15  2  0  0  0  0
 12 13  2  0  0  0  0
 12 16  1  0  0  0  0
 13 14  1  0  0  0  0
 16 17  2  0  0  0  0
 16 18  1  0  0  0  0
 19 20  1  0  0  0  0
 19 22  1  0  0  0  0
 20 21  1  0  0  0  0
 20 26  1  0  0  0  0
 21 23  1  1  0  0  0
 21 24  1  0  0  0  0
 22 23  1  6  0  0  0
 22 25  1  0  0  0  0
 24 25  1  0  0  0  0
M  END
> <ID>
11675

> <Formula>
C19H20FN3O3

> <FW>
357.3788

> <DSSTox_CID>
26432

> <DSSTox_RID>
81609

> <DSSTox_GSID>
46432

> <DSSTox_FileID_Sort>
6290

> <TS_ChemName>
Danofloxacin

> <TS_ChemName_Synonyms>


> <TS_CASRN>
112398-08-0

> <CASRN_ChemName_Relationship>
primary

> <TS_Description>
single chemical compound

> <ChemNote>
stereochem

> <STRUCTURE_Shown>
tested chemical

> <STRUCTURE_Formula>
C19H20FN3O3

> <STRUCTURE_MW>
357.3788

> <STRUCTURE_ChemType>
defined organic

> <STRUCTURE_DefinedOrganicForm>
parent

> <STRUCTURE_IUPAC>
1-cyclopropyl-6-fluoro-7-[(1S,4S)-5-methyl-2,5-diazabicyclo[2.2.1]hept-2-yl]-4-oxo-1,4-dihydroquinoline-3-carboxylic acid

> <STRUCTURE_SMILES>
CN5C[C@@H]4C[C@H]5CN4c1cc2N(C=C(C(=O)O)C(=O)c2cc1F)C3CC3

> <STRUCTURE_SMILES_Desalt>
CN5C[C@@H]4C[C@H]5CN4c1cc2N(C=C(C(=O)O)C(=O)c2cc1F)C3CC3

> <Substance_modify_yyyymmdd>
20110813

$$$$
