1124-64-7
ChemmineR-0915142007XD

 11 10  0  0  0  0  0  0  0  0  2 V2000
    2.0067   -2.2826    0.0000 N    0  3  0  0  0  0  0  0  0  0  0  0
    0.7034   -2.2826    0.0000 C    0  0  0  0  0  0  0  0  0  0  0  0
    2.7239   -1.1378    0.0000 C    0  0  0  0  0  0  0  0  0  0  0  0
    2.0067    0.0000    0.0000 C    0  0  0  0  0  0  0  0  0  0  0  0
    0.0000   -1.1378    0.0000 C    0  0  0  0  0  0  0  0  0  0  0  0
    0.7034    0.0000    0.0000 C    0  0  0  0  0  0  0  0  0  0  0  0
    2.6550   -3.4549    0.0000 C    0  0  0  0  0  0  0  0  0  0  0  0
    1.9723   -4.6272    0.0000 C    0  0  0  0  0  0  0  0  0  0  0  0
    2.6274   -5.7582    0.0000 C    0  0  0  0  0  0  0  0  0  0  0  0
    1.9723   -6.8960    0.0000 C    0  0  0  0  0  0  0  0  0  0  0  0
    5.3789   -3.4549    0.0000 Cl   0  5  0  0  0  0  0  0  0  0  0  0
  1  2  2  0  0  0  0
  1  3  1  0  0  0  0
  1  7  1  0  0  0  0
  2  5  1  0  0  0  0
  3  4  2  0  0  0  0
  4  6  1  0  0  0  0
  5  6  2  0  0  0  0
  7  8  1  0  0  0  0
  8  9  1  0  0  0  0
  9 10  1  0  0  0  0
M  END
> <ID>
6335

> <Formula>
C9H14ClN

> <FW>
171.6672 (136.2136+35.4535)

> <DSSTox_CID>
11462

> <DSSTox_RID>
78879

> <DSSTox_GSID>
31462

> <DSSTox_FileID_Sort>
3561

> <TS_ChemName>
N-Butylpyridinium chloride

> <TS_ChemName_Synonyms>
Butylpyridinium chloride (Ionic liquid) (n-butylpyridinium chloride)

> <TS_CASRN>
1124-64-7

> <CASRN_ChemName_Relationship>
primary

> <TS_Description>
single chemical compound

> <ChemNote>
ammonium; parent [45806-95-9]

> <STRUCTURE_Shown>
tested chemical

> <STRUCTURE_Formula>
C9H14ClN

> <STRUCTURE_MW>
171.6672

> <STRUCTURE_ChemType>
defined organic

> <STRUCTURE_DefinedOrganicForm>
salt

> <STRUCTURE_IUPAC>
1-butylpyridinium chloride

> <STRUCTURE_SMILES>
[Cl-].CCCC[n+]1ccccc1

> <STRUCTURE_SMILES_Desalt>
CCCC[n+]1ccccc1

> <Substance_modify_yyyymmdd>
20080429

$$$$
