1124-05-6
ChemmineR-0915142007XD

 10 10  0  0  0  0  0  0  0  0  1 V2000
    1.1529   -0.6548    0.0000 C    0  0  0  0  0  0  0  0  0  0  0  0
    2.3058    0.0000    0.0000 C    0  0  0  0  0  0  0  0  0  0  0  0
    3.4586   -0.6548    0.0000 C    0  0  0  0  0  0  0  0  0  0  0  0
    3.4586   -1.9829    0.0000 C    0  0  0  0  0  0  0  0  0  0  0  0
    2.3058   -2.6562    0.0000 C    0  0  0  0  0  0  0  0  0  0  0  0
    1.1529   -1.9829    0.0000 C    0  0  0  0  0  0  0  0  0  0  0  0
    0.0000    0.0000    0.0000 Cl   0  0  0  0  0  0  0  0  0  0  0  0
    4.6115   -2.6562    0.0000 Cl   0  0  0  0  0  0  0  0  0  0  0  0
    0.0000   -2.6562    0.0000 C    0  0  0  0  0  0  0  0  0  0  0  0
    4.6115    0.0000    0.0000 C    0  0  0  0  0  0  0  0  0  0  0  0
  1  2  2  0  0  0  0
  1  6  1  0  0  0  0
  1  7  1  0  0  0  0
  2  3  1  0  0  0  0
  3  4  2  0  0  0  0
  3 10  1  0  0  0  0
  4  5  1  0  0  0  0
  4  8  1  0  0  0  0
  5  6  2  0  0  0  0
  6  9  1  0  0  0  0
M  END
> <ID>
10431

> <Formula>
C8H8Cl2

> <FW>
175.0551

> <DSSTox_CID>
24780

> <DSSTox_RID>
80469

> <DSSTox_GSID>
44780

> <DSSTox_FileID_Sort>
5151

> <TS_ChemName>
1,4-Dichloro-2,5-dimethylbenzene

> <TS_ChemName_Synonyms>
1,4-Dichloro-2,5-dimethylbenzene (Benzene, 1,4-dichloro-2,5-dimethyl-) (2,5-Dichloro-p-xylene)

> <TS_CASRN>
1124-05-6

> <CASRN_ChemName_Relationship>
primary

> <TS_Description>
single chemical compound

> <ChemNote>


> <STRUCTURE_Shown>
tested chemical

> <STRUCTURE_Formula>
C8H8Cl2

> <STRUCTURE_MW>
175.0551

> <STRUCTURE_ChemType>
defined organic

> <STRUCTURE_DefinedOrganicForm>
parent

> <STRUCTURE_IUPAC>
1,4-dichloro-2,5-dimethylbenzene

> <STRUCTURE_SMILES>
Clc1cc(C)c(Cl)cc1C

> <STRUCTURE_SMILES_Desalt>
Clc1cc(C)c(Cl)cc1C

> <Substance_modify_yyyymmdd>
20091116

$$$$
