112400-86-9
ChemmineR-0915142007XD

 12 11  0  0  0  0  0  0  0  0  2 V2000
    1.1561   -3.9867    0.0000 N    0  3  0  0  0  0  0  0  0  0  0  0
    2.3043   -3.3329    0.0000 C    0  0  0  0  0  0  0  0  0  0  0  0
    0.0000   -3.3329    0.0000 C    0  0  0  0  0  0  0  0  0  0  0  0
    0.0000   -2.0013    0.0000 C    0  0  0  0  0  0  0  0  0  0  0  0
    2.3043   -2.0013    0.0000 C    0  0  0  0  0  0  0  0  0  0  0  0
    1.1561   -1.3315    0.0000 C    0  0  0  0  0  0  0  0  0  0  0  0
    1.1561   -5.3182    0.0000 C    0  0  0  0  0  0  0  0  0  0  0  0
    2.3043   -5.9880    0.0000 C    0  0  0  0  0  0  0  0  0  0  0  0
    2.3043   -7.3195    0.0000 C    0  0  0  0  0  0  0  0  0  0  0  0
    3.4604   -7.9733    0.0000 C    0  0  0  0  0  0  0  0  0  0  0  0
    1.1561    0.0000    0.0000 C    0  0  0  0  0  0  0  0  0  0  0  0
    2.8784   -4.6086    0.0000 Cl   0  5  0  0  0  0  0  0  0  0  0  0
  1  2  2  0  0  0  0
  1  3  1  0  0  0  0
  1  7  1  0  0  0  0
  2  5  1  0  0  0  0
  3  4  2  0  0  0  0
  4  6  1  0  0  0  0
  5  6  2  0  0  0  0
  6 11  1  0  0  0  0
  7  8  1  0  0  0  0
  8  9  1  0  0  0  0
  9 10  1  0  0  0  0
M  END
> <ID>
13550

> <Formula>
C10H16ClN

> <FW>
185.6937 (150.2402+35.4535)

> <DSSTox_CID>
28476

> <DSSTox_RID>
83280

> <DSSTox_GSID>
49205

> <DSSTox_FileID_Sort>
7955

> <TS_ChemName>
1-Butyl-4-methylpyridinium chloride

> <TS_ChemName_Synonyms>


> <TS_CASRN>
112400-86-9

> <CASRN_ChemName_Relationship>
primary

> <TS_Description>
mixture or formulation

> <ChemNote>
mixture with PAS (p-aminosalicylate) [65-49-6]

> <STRUCTURE_Shown>
representative component

> <STRUCTURE_Formula>
C10H16ClN

> <STRUCTURE_MW>
185.6937

> <STRUCTURE_ChemType>
defined organic

> <STRUCTURE_DefinedOrganicForm>
salt

> <STRUCTURE_IUPAC>
1-butyl-4-methylpyridinium chloride

> <STRUCTURE_SMILES>
[Cl-].Cc1cc[n+](CCCC)cc1

> <STRUCTURE_SMILES_Desalt>
Cc1cc[n+](CCCC)cc1

> <Substance_modify_yyyymmdd>
20111204

$$$$
