1124-33-0
ChemmineR-0915142007XD

 10 10  0  0  0  0  0  0  0  0  2 V2000
    4.6517   -1.1779    0.0000 N   0  3  0  0  0  0  0  0  0  0  0  0
    3.9940   -2.3258    0.0000 C   0  0  0  0  0  0  0  0  0  0  0  0
    4.0060    0.0000    0.0000 C   0  0  0  0  0  0  0  0  0  0  0  0
    2.6667   -0.0359    0.0000 C   0  0  0  0  0  0  0  0  0  0  0  0
    2.6487   -2.3438    0.0000 C   0  0  0  0  0  0  0  0  0  0  0  0
    2.0030   -1.1779    0.0000 C   0  0  0  0  0  0  0  0  0  0  0  0
    5.9790   -1.1779    0.0000 O   0  5  0  0  0  0  0  0  0  0  0  0
    0.6816   -1.1779    0.0000 N   0  3  0  0  0  0  0  0  0  0  0  0
    0.0000   -2.2780    0.0000 O   0  5  0  0  0  0  0  0  0  0  0  0
    0.0179    0.0000    0.0000 O   0  0  0  0  0  0  0  0  0  0  0  0
  1  2  2  0  0  0  0
  1  3  1  0  0  0  0
  1  7  1  0  0  0  0
  2  5  1  0  0  0  0
  3  4  2  0  0  0  0
  4  6  1  0  0  0  0
  5  6  2  0  0  0  0
  6  8  1  0  0  0  0
  8  9  1  0  0  0  0
  8 10  2  0  0  0  0
M  END
> <ID>
8490

> <Formula>
C5H4N2O3

> <FW>
140.0969

> <DSSTox_CID>
21524

> <DSSTox_RID>
79765

> <DSSTox_GSID>
41524

> <DSSTox_FileID_Sort>
4447

> <TS_ChemName>
4-Nitropyridine-1-oxide

> <TS_ChemName_Synonyms>


> <TS_CASRN>
1124-33-0

> <CASRN_ChemName_Relationship>
primary

> <TS_Description>
single chemical compound

> <ChemNote>
ammonium

> <STRUCTURE_Shown>
tested chemical

> <STRUCTURE_Formula>
C5H4N2O3

> <STRUCTURE_MW>
140.0969

> <STRUCTURE_ChemType>
defined organic

> <STRUCTURE_DefinedOrganicForm>
parent

> <STRUCTURE_IUPAC>
4-nitropyridine 1-oxide

> <STRUCTURE_SMILES>
[O-][n+]1ccc(cc1)[N+](=O)[O-]

> <STRUCTURE_SMILES_Desalt>
O[n+]1ccc(cc1)[N+](=O)[O-]

> <Substance_modify_yyyymmdd>
20080825

$$$$
