1124-11-4
ChemmineR-0915142007XD

 10 10  0  0  0  0  0  0  0  0  1 V2000
    2.2556   -0.0460    0.0000 N   0  0  0  0  0  0  0  0  0  0  0  0
    2.3155   -2.6975    0.0000 N   0  0  0  0  0  0  0  0  0  0  0  0
    3.4525   -0.6767    0.0000 C   0  0  0  0  0  0  0  0  0  0  0  0
    1.1186   -2.0669    0.0000 C   0  0  0  0  0  0  0  0  0  0  0  0
    3.4525   -2.0163    0.0000 C   0  0  0  0  0  0  0  0  0  0  0  0
    1.1370   -0.7273    0.0000 C   0  0  0  0  0  0  0  0  0  0  0  0
    4.6033    0.0000    0.0000 C   0  0  0  0  0  0  0  0  0  0  0  0
    4.6033   -2.6653    0.0000 C   0  0  0  0  0  0  0  0  0  0  0  0
    0.0000   -2.7436    0.0000 C   0  0  0  0  0  0  0  0  0  0  0  0
    0.0000   -0.0644    0.0000 C   0  0  0  0  0  0  0  0  0  0  0  0
  1  3  2  0  0  0  0
  1  6  1  0  0  0  0
  2  4  1  0  0  0  0
  2  5  2  0  0  0  0
  3  5  1  0  0  0  0
  3  7  1  0  0  0  0
  4  6  2  0  0  0  0
  4  9  1  0  0  0  0
  5  8  1  0  0  0  0
  6 10  1  0  0  0  0
M  END
> <ID>
12223

> <Formula>
C8H12N2

> <FW>
136.1943

> <DSSTox_CID>
27070

> <DSSTox_RID>
82085

> <DSSTox_GSID>
47070

> <DSSTox_FileID_Sort>
6766

> <TS_ChemName>
Tetramethylpyrazine

> <TS_ChemName_Synonyms>
2,3,5,6-Tetramethylpyrazine

> <TS_CASRN>
1124-11-4

> <CASRN_ChemName_Relationship>
primary

> <TS_Description>
single chemical compound

> <ChemNote>


> <STRUCTURE_Shown>
tested chemical

> <STRUCTURE_Formula>
C8H12N2

> <STRUCTURE_MW>
136.1943

> <STRUCTURE_ChemType>
defined organic

> <STRUCTURE_DefinedOrganicForm>
parent

> <STRUCTURE_IUPAC>
tetramethylpyrazine

> <STRUCTURE_SMILES>
Cc1nc(C)c(C)nc1C

> <STRUCTURE_SMILES_Desalt>
Cc1nc(C)c(C)nc1C

> <Substance_modify_yyyymmdd>
20100429

$$$$
