112400-85-8
ChemmineR-0915142007XD

 12 11  0  0  0  0  0  0  0  0  2 V2000
    2.3027   -2.6687    0.0000 N    0  3  0  0  0  0  0  0  0  0  0  0
    3.4541   -1.9966    0.0000 C    0  0  0  0  0  0  0  0  0  0  0  0
    1.1514   -1.9966    0.0000 C    0  0  0  0  0  0  0  0  0  0  0  0
    1.1514   -0.6722    0.0000 C    0  0  0  0  0  0  0  0  0  0  0  0
    3.4541   -0.6722    0.0000 C    0  0  0  0  0  0  0  0  0  0  0  0
    2.3027    0.0000    0.0000 C    0  0  0  0  0  0  0  0  0  0  0  0
    2.3027   -3.9998    0.0000 C    0  0  0  0  0  0  0  0  0  0  0  0
    3.4541   -4.6587    0.0000 C    0  0  0  0  0  0  0  0  0  0  0  0
    3.4541   -5.9830    0.0000 C    0  0  0  0  0  0  0  0  0  0  0  0
    4.6054   -6.6552    0.0000 C    0  0  0  0  0  0  0  0  0  0  0  0
    0.0000   -2.6687    0.0000 C    0  0  0  0  0  0  0  0  0  0  0  0
    4.4457   -3.4408    0.0000 Cl   0  5  0  0  0  0  0  0  0  0  0  0
  1  2  2  0  0  0  0
  1  3  1  0  0  0  0
  1  7  1  0  0  0  0
  2  5  1  0  0  0  0
  3  4  2  0  0  0  0
  3 11  1  0  0  0  0
  4  6  1  0  0  0  0
  5  6  2  0  0  0  0
  7  8  1  0  0  0  0
  8  9  1  0  0  0  0
  9 10  1  0  0  0  0
M  END
> <ID>
13549

> <Formula>
C10H16ClN

> <FW>
185.6937 (150.2402+35.4535)

> <DSSTox_CID>
28475

> <DSSTox_RID>
83279

> <DSSTox_GSID>
49204

> <DSSTox_FileID_Sort>
7954

> <TS_ChemName>
1-Butyl-2-methylpyridinium chloride

> <TS_ChemName_Synonyms>


> <TS_CASRN>
112400-85-8

> <CASRN_ChemName_Relationship>
primary

> <TS_Description>
single chemical compound

> <ChemNote>


> <STRUCTURE_Shown>
tested chemical

> <STRUCTURE_Formula>
C10H16ClN

> <STRUCTURE_MW>
185.6937

> <STRUCTURE_ChemType>
defined organic

> <STRUCTURE_DefinedOrganicForm>
salt

> <STRUCTURE_IUPAC>
1-butyl-2-methylpyridinium chloride

> <STRUCTURE_SMILES>
[Cl-].Cc1cccc[n+]1CCCC

> <STRUCTURE_SMILES_Desalt>
Cc1cccc[n+]1CCCC

> <Substance_modify_yyyymmdd>
20111204

$$$$
