112410-23-8
ChemmineR-0915142007XD

 26 27  0  0  0  0  0  0  0  0  1 V2000
    4.5538   -3.9122    0.0000 C   0  0  0  0  0  0  0  0  0  0  0  0
    4.5538   -2.3524    0.0000 O   0  0  0  0  0  0  0  0  0  0  0  0
    3.4216   -4.5790    0.0000 C   0  0  0  0  0  0  0  0  0  0  0  0
    2.2769   -3.9122    0.0000 C   0  0  0  0  0  0  0  0  0  0  0  0
    3.4216   -5.8243    0.0000 C   0  0  0  0  0  0  0  0  0  0  0  0
    1.1699   -4.5790    0.0000 C   0  0  0  0  0  0  0  0  0  0  0  0
    2.2769   -6.4910    0.0000 C   0  0  0  0  0  0  0  0  0  0  0  0
    1.1699   -5.8243    0.0000 C   0  0  0  0  0  0  0  0  0  0  0  0
    0.0000   -3.9122    0.0000 C   0  0  0  0  0  0  0  0  0  0  0  0
    2.2769   -7.8245    0.0000 C   0  0  0  0  0  0  0  0  0  0  0  0
    5.7237   -4.6041    0.0000 N   0  0  0  0  0  0  0  0  0  0  0  0
    6.8936   -3.9626    0.0000 N   0  0  0  0  0  0  0  0  0  0  0  0
    5.7237   -5.9250    0.0000 C   0  0  0  0  0  0  0  0  0  0  0  0
    7.0571   -5.9250    0.0000 C   0  0  0  0  0  0  0  0  0  0  0  0
    4.3903   -5.9250    0.0000 C   0  0  0  0  0  0  0  0  0  0  0  0
    5.7237   -7.2584    0.0000 C   0  0  0  0  0  0  0  0  0  0  0  0
    6.8936   -2.6291    0.0000 C   0  0  0  0  0  0  0  0  0  0  0  0
    5.5727   -1.8366    0.0000 O   0  0  0  0  0  0  0  0  0  0  0  0
    8.0383   -1.9498    0.0000 C   0  0  0  0  0  0  0  0  0  0  0  0
    8.0383   -0.6541    0.0000 C   0  0  0  0  0  0  0  0  0  0  0  0
    9.1328   -2.5788    0.0000 C   0  0  0  0  0  0  0  0  0  0  0  0
    9.1579    0.0000    0.0000 C   0  0  0  0  0  0  0  0  0  0  0  0
   10.2901   -1.9498    0.0000 C   0  0  0  0  0  0  0  0  0  0  0  0
   10.2901   -0.6541    0.0000 C   0  0  0  0  0  0  0  0  0  0  0  0
   11.4348    0.0000    0.0000 C   0  0  0  0  0  0  0  0  0  0  0  0
   12.5796   -0.6541    0.0000 C   0  0  0  0  0  0  0  0  0  0  0  0
  1  2  2  0  0  0  0
  1  3  1  0  0  0  0
  1 11  1  0  0  0  0
  3  4  2  0  0  0  0
  3  5  1  0  0  0  0
  4  6  1  0  0  0  0
  5  7  2  0  0  0  0
  6  8  2  0  0  0  0
  6  9  1  0  0  0  0
  7  8  1  0  0  0  0
  7 10  1  0  0  0  0
 11 12  1  0  0  0  0
 11 13  1  0  0  0  0
 12 17  1  0  0  0  0
 13 14  1  0  0  0  0
 13 15  1  0  0  0  0
 13 16  1  0  0  0  0
 17 18  2  0  0  0  0
 17 19  1  0  0  0  0
 19 20  2  0  0  0  0
 19 21  1  0  0  0  0
 20 22  1  0  0  0  0
 21 23  2  0  0  0  0
 22 24  2  0  0  0  0
 23 24  1  0  0  0  0
 24 25  1  0  0  0  0
 25 26  1  0  0  0  0
M  END
> <ID>
6962

> <Formula>
C22H28N2O2

> <FW>
352.4699

> <DSSTox_CID>
14948

> <DSSTox_RID>
79225

> <DSSTox_GSID>
34948

> <DSSTox_FileID_Sort>
3907

> <TS_ChemName>
Tebufenozide

> <TS_ChemName_Synonyms>


> <TS_CASRN>
112410-23-8

> <CASRN_ChemName_Relationship>
primary

> <TS_Description>
single chemical compound

> <ChemNote>


> <STRUCTURE_Shown>
tested chemical

> <STRUCTURE_Formula>
C22H28N2O2

> <STRUCTURE_MW>
352.4699

> <STRUCTURE_ChemType>
defined organic

> <STRUCTURE_DefinedOrganicForm>
parent

> <STRUCTURE_IUPAC>
N-tert-butyl-N'-(4-ethylbenzoyl)-3,5-dimethylbenzohydrazide

> <STRUCTURE_SMILES>
CCc1ccc(cc1)C(=O)NN(C(=O)c2cc(C)cc(C)c2)C(C)(C)C

> <STRUCTURE_SMILES_Desalt>
CCc1ccc(cc1)C(=O)NN(C(=O)c2cc(C)cc(C)c2)C(C)(C)C

> <Substance_modify_yyyymmdd>
20080429

$$$$
