1124-04-5
ChemmineR-0915142007XD

 10 10  0  0  0  0  0  0  0  0  1 V2000
    2.2982   -1.3437    0.0000 C    0  0  0  0  0  0  0  0  0  0  0  0
    2.2982    0.0000    0.0000 O    0  0  0  0  0  0  0  0  0  0  0  0
    3.4499   -1.9942    0.0000 C    0  0  0  0  0  0  0  0  0  0  0  0
    1.1517   -1.9942    0.0000 C    0  0  0  0  0  0  0  0  0  0  0  0
    1.1517   -3.3379    0.0000 C    0  0  0  0  0  0  0  0  0  0  0  0
    3.4499   -3.3379    0.0000 C    0  0  0  0  0  0  0  0  0  0  0  0
    2.2982   -3.9938    0.0000 C    0  0  0  0  0  0  0  0  0  0  0  0
    4.5963   -1.3437    0.0000 Cl   0  0  0  0  0  0  0  0  0  0  0  0
    2.2982   -5.3321    0.0000 C    0  0  0  0  0  0  0  0  0  0  0  0
    0.0000   -3.9938    0.0000 C    0  0  0  0  0  0  0  0  0  0  0  0
  1  2  1  0  0  0  0
  1  3  2  0  0  0  0
  1  4  1  0  0  0  0
  3  6  1  0  0  0  0
  3  8  1  0  0  0  0
  4  5  2  0  0  0  0
  5  7  1  0  0  0  0
  5 10  1  0  0  0  0
  6  7  2  0  0  0  0
  7  9  1  0  0  0  0
M  END
> <ID>
8370

> <Formula>
C8H9ClO

> <FW>
156.6095

> <DSSTox_CID>
21404

> <DSSTox_RID>
79715

> <DSSTox_GSID>
41404

> <DSSTox_FileID_Sort>
4397

> <TS_ChemName>
2-Chloro-4,5-dimethylphenol

> <TS_ChemName_Synonyms>


> <TS_CASRN>
1124-04-5

> <CASRN_ChemName_Relationship>
primary

> <TS_Description>
single chemical compound

> <ChemNote>


> <STRUCTURE_Shown>
tested chemical

> <STRUCTURE_Formula>
C8H9ClO

> <STRUCTURE_MW>
156.6095

> <STRUCTURE_ChemType>
defined organic

> <STRUCTURE_DefinedOrganicForm>
parent

> <STRUCTURE_IUPAC>
2-chloro-4,5-dimethylphenol

> <STRUCTURE_SMILES>
Cc1cc(O)c(Cl)cc1C

> <STRUCTURE_SMILES_Desalt>
Cc1cc(O)c(Cl)cc1C

> <Substance_modify_yyyymmdd>
20080825

$$$$
