112529-15-4
ChemmineR-0915142007XD

 26 27  0  0  0  0  0  0  0  0  1 V2000
    2.3595   -3.1260    0.0000 C    0  0  0  0  0  0  0  0  0  0  0  0
    2.3595   -4.4485    0.0000 C    0  0  0  0  0  0  0  0  0  0  0  0
    1.2925   -2.3445    0.0000 C    0  0  0  0  0  0  0  0  0  0  0  0
    3.4416   -2.3445    0.0000 S    0  0  0  0  0  0  0  0  0  0  0  0
    3.5168   -5.0948    0.0000 C    0  0  0  0  0  0  0  0  0  0  0  0
    1.6983   -1.0821    0.0000 N    0  0  0  0  0  0  0  0  0  0  0  0
    0.0000   -2.7503    0.0000 O    0  0  0  0  0  0  0  0  0  0  0  0
    3.0358   -1.0821    0.0000 C    0  0  0  0  0  0  0  0  0  0  0  0
    4.6589   -4.4485    0.0000 C    0  0  0  0  0  0  0  0  0  0  0  0
    3.5168   -6.4474    0.0000 C    0  0  0  0  0  0  0  0  0  0  0  0
    3.8023    0.0000    0.0000 O    0  0  0  0  0  0  0  0  0  0  0  0
    5.8011   -5.0948    0.0000 C    0  0  0  0  0  0  0  0  0  0  0  0
    4.6589   -7.1086    0.0000 C    0  0  0  0  0  0  0  0  0  0  0  0
    5.8011   -6.4474    0.0000 C    0  0  0  0  0  0  0  0  0  0  0  0
    6.9584   -7.1086    0.0000 O    0  0  0  0  0  0  0  0  0  0  0  0
    8.1156   -6.4474    0.0000 C    0  0  0  0  0  0  0  0  0  0  0  0
    9.2578   -7.1086    0.0000 C    0  0  0  0  0  0  0  0  0  0  0  0
   10.4150   -6.4474    0.0000 C    0  0  0  0  0  0  0  0  0  0  0  0
   10.4150   -5.0948    0.0000 C    0  0  0  0  0  0  0  0  0  0  0  0
   11.5722   -7.1086    0.0000 N    0  0  0  0  0  0  0  0  0  0  0  0
   11.5722   -4.4485    0.0000 C    0  0  0  0  0  0  0  0  0  0  0  0
   12.7144   -6.4474    0.0000 C    0  0  0  0  0  0  0  0  0  0  0  0
   12.7144   -5.0948    0.0000 C    0  0  0  0  0  0  0  0  0  0  0  0
   13.8716   -4.4485    0.0000 C    0  0  0  0  0  0  0  0  0  0  0  0
   15.0289   -5.0948    0.0000 C    0  0  0  0  0  0  0  0  0  0  0  0
    8.2208   -2.3295    0.0000 Cl   0  0  0  0  0  0  0  0  0  0  0  0
  1  2  1  0  0  0  0
  1  3  1  0  0  0  0
  1  4  1  0  0  0  0
  2  5  1  0  0  0  0
  3  6  1  0  0  0  0
  3  7  2  0  0  0  0
  4  8  1  0  0  0  0
  5  9  1  0  0  0  0
  5 10  2  0  0  0  0
  6  8  1  0  0  0  0
  8 11  2  0  0  0  0
  9 12  2  0  0  0  0
 10 13  1  0  0  0  0
 12 14  1  0  0  0  0
 13 14  2  0  0  0  0
 14 15  1  0  0  0  0
 15 16  1  0  0  0  0
 16 17  1  0  0  0  0
 17 18  1  0  0  0  0
 18 19  1  0  0  0  0
 18 20  2  0  0  0  0
 19 21  2  0  0  0  0
 20 22  1  0  0  0  0
 21 23  1  0  0  0  0
 22 23  2  0  0  0  0
 23 24  1  0  0  0  0
 24 25  1  0  0  0  0
M  END
> <ID>
9899

> <Formula>
C19H21ClN2O3S

> <FW>
392.8996 (356.4387+36.4609)

> <DSSTox_CID>
24203

> <DSSTox_RID>
80116

> <DSSTox_GSID>
44203

> <DSSTox_FileID_Sort>
4798

> <TS_ChemName>
Pioglitazone hydrochloride

> <TS_ChemName_Synonyms>


> <TS_CASRN>
112529-15-4

> <CASRN_ChemName_Relationship>
primary

> <TS_Description>
single chemical compound

> <ChemNote>
parent [111025-46-8]

> <STRUCTURE_Shown>
tested chemical

> <STRUCTURE_Formula>
C19H21ClN2O3S

> <STRUCTURE_MW>
392.8996

> <STRUCTURE_ChemType>
defined organic

> <STRUCTURE_DefinedOrganicForm>
complex

> <STRUCTURE_IUPAC>
5-{4-[2-(5-ethylpyridin-2-yl)ethoxy]benzyl}-1,3-thiazolidine-2,4-dione hydrochloride (1:1)

> <STRUCTURE_SMILES>
Cl.CCc1ccc(nc1)CCOc3ccc(CC2SC(=O)NC2=O)cc3

> <STRUCTURE_SMILES_Desalt>
CCc1ccc(nc1)CCOc3ccc(CC2SC(=O)NC2=O)cc3

> <Substance_modify_yyyymmdd>
20090302

$$$$
