112665-43-7
ChemmineR-0915142007XD

 26 27  0  0  0  0  0  0  0  0  1 V2000
    3.4494   -3.3353    0.0000 C   0  0  0  0  0  0  0  0  0  0  0  0
    4.6034   -3.9947    0.0000 C   0  0  0  0  0  0  0  0  0  0  0  0
    2.3081   -3.9947    0.0000 C   0  0  0  0  0  0  0  0  0  0  0  0
    3.4494   -2.0037    0.0000 C   0  0  0  0  0  0  0  0  0  0  0  0
    4.6034   -5.3263    0.0000 C   0  0  0  0  0  0  0  0  0  0  0  0
    5.7575   -3.3353    0.0000 C   0  0  0  0  0  0  0  0  0  0  0  0
    1.1540   -3.3353    0.0000 C   0  0  0  0  0  0  0  0  0  0  0  0
    2.3081   -5.3263    0.0000 C   0  0  0  0  0  0  0  0  0  0  0  0
    2.3081   -1.3316    0.0000 C   0  0  0  0  0  0  0  0  0  0  0  0
    4.6034   -1.3316    0.0000 O   0  0  0  0  0  0  0  0  0  0  0  0
    5.7575   -5.9984    0.0000 C   0  0  0  0  0  0  0  0  0  0  0  0
    3.4494   -5.9984    0.0000 C   0  0  0  0  0  0  0  0  0  0  0  0
    6.9242   -3.9947    0.0000 C   0  0  0  0  0  0  0  0  0  0  0  0
    1.1540   -2.0037    0.0000 C   0  0  0  0  0  0  0  0  0  0  0  0
    0.0000   -3.9947    0.0000 O   0  0  0  0  0  0  0  0  0  0  0  0
    2.3081    0.0000    0.0000 C   0  0  0  0  0  0  0  0  0  0  0  0
    5.7575   -7.3173    0.0000 C   0  0  0  0  0  0  0  0  0  0  0  0
    3.4494   -7.3173    0.0000 C   0  0  0  0  0  0  0  0  0  0  0  0
    8.0782   -3.3353    0.0000 C   0  0  0  0  0  0  0  0  0  0  0  0
    0.0000   -1.3316    0.0000 C   0  0  0  0  0  0  0  0  0  0  0  0
    4.6034   -7.9894    0.0000 C   0  0  0  0  0  0  0  0  0  0  0  0
    9.2196   -3.9947    0.0000 C   0  0  0  0  0  0  0  0  0  0  0  0
   10.3736   -3.3353    0.0000 C   0  0  0  0  0  0  0  0  0  0  0  0
   11.5276   -3.9947    0.0000 C   0  0  0  0  0  0  0  0  0  0  0  0
   12.6817   -3.3353    0.0000 O   0  0  0  0  0  0  0  0  0  0  0  0
   11.5276   -5.3263    0.0000 O   0  0  0  0  0  0  0  0  0  0  0  0
  1  2  1  0  0  0  0
  1  3  2  0  0  0  0
  1  4  1  0  0  0  0
  2  5  1  0  0  0  0
  2  6  1  0  0  0  0
  3  7  1  0  0  0  0
  3  8  1  0  0  0  0
  4  9  1  0  0  0  0
  4 10  2  0  0  0  0
  5 11  1  0  0  0  0
  5 12  2  0  0  0  0
  6 13  1  0  0  0  0
  7 14  1  0  0  0  0
  7 15  2  0  0  0  0
  9 16  1  0  0  0  0
  9 14  2  0  0  0  0
 11 17  2  0  0  0  0
 12 18  1  0  0  0  0
 13 19  1  0  0  0  0
 14 20  1  0  0  0  0
 17 21  1  0  0  0  0
 18 21  2  0  0  0  0
 19 22  1  0  0  0  0
 22 23  1  0  0  0  0
 23 24  1  0  0  0  0
 24 25  1  0  0  0  0
 24 26  2  0  0  0  0
M  END
> <ID>
1342

> <Formula>
C22H26O4

> <FW>
354.4394

> <DSSTox_CID>
1397

> <DSSTox_RID>
76138

> <DSSTox_GSID>
21397

> <DSSTox_FileID_Sort>
822

> <TS_ChemName>
(+-)-7-(3,5,6-trimethyl-1,4-benzoquinon-2-yl)-7-phenylheptanoic acid

> <TS_ChemName_Synonyms>


> <TS_CASRN>
112665-43-7

> <CASRN_ChemName_Relationship>
primary

> <TS_Description>
single chemical compound

> <ChemNote>


> <STRUCTURE_Shown>
tested chemical

> <STRUCTURE_Formula>
C22H26O4

> <STRUCTURE_MW>
354.4394

> <STRUCTURE_ChemType>
defined organic

> <STRUCTURE_DefinedOrganicForm>
parent

> <STRUCTURE_IUPAC>
7-phenyl-7-(2,4,5-trimethyl-3,6-dioxocyclohexa-1,4-dien-1-yl)heptanoic acid

> <STRUCTURE_SMILES>
O=C2C(C)=C(C)C(=O)C(C)=C2C(CCCCCC(=O)O)c1ccccc1

> <STRUCTURE_SMILES_Desalt>
O=C2C(C)=C(C)C(=O)C(C)=C2C(CCCCCC(=O)O)c1ccccc1

> <Substance_modify_yyyymmdd>
20080429

$$$$
