112733-06-9
ChemmineR-0915142007XD

 26 28  0  0  0  0  0  0  0  0  1 V2000
    3.4514   -4.0055    0.0000 C    0  0  0  0  0  0  0  0  0  0  0  0
    3.4514   -5.3330    0.0000 C    0  0  0  0  0  0  0  0  0  0  0  0
    4.6173   -3.3475    0.0000 N    0  0  0  0  0  0  0  0  0  0  0  0
    2.3202   -3.3475    0.0000 C    0  0  0  0  0  0  0  0  0  0  0  0
    4.6173   -5.9909    0.0000 C    0  0  0  0  0  0  0  0  0  0  0  0
    2.3202   -5.9909    0.0000 C    0  0  0  0  0  0  0  0  0  0  0  0
    5.7716   -4.0055    0.0000 C    0  0  0  0  0  0  0  0  0  0  0  0
    4.6173   -1.9970    0.0000 C    0  0  0  0  0  0  0  0  0  0  0  0
    1.1543   -4.0055    0.0000 C    0  0  0  0  0  0  0  0  0  0  0  0
    5.7716   -5.3330    0.0000 N    0  0  0  0  0  0  0  0  0  0  0  0
    4.6173   -7.3299    0.0000 O    0  0  0  0  0  0  0  0  0  0  0  0
    1.1543   -5.3330    0.0000 C    0  0  0  0  0  0  0  0  0  0  0  0
    6.9259   -3.3475    0.0000 O    0  0  0  0  0  0  0  0  0  0  0  0
    5.7716   -1.3390    0.0000 C    0  0  0  0  0  0  0  0  0  0  0  0
    0.0000   -3.3475    0.0000 Cl   0  0  0  0  0  0  0  0  0  0  0  0
    6.9259   -5.9909    0.0000 C    0  0  0  0  0  0  0  0  0  0  0  0
    6.9259   -1.9970    0.0000 O    0  0  0  0  0  0  0  0  0  0  0  0
    5.7716    0.0000    0.0000 O    0  0  0  0  0  0  0  0  0  0  0  0
    8.0918   -5.3330    0.0000 C    0  0  0  0  0  0  0  0  0  0  0  0
    9.2230   -5.9909    0.0000 C    0  0  0  0  0  0  0  0  0  0  0  0
    8.0918   -4.0055    0.0000 C    0  0  0  0  0  0  0  0  0  0  0  0
   10.3889   -5.3330    0.0000 C    0  0  0  0  0  0  0  0  0  0  0  0
    9.2230   -7.3299    0.0000 F    0  0  0  0  0  0  0  0  0  0  0  0
    9.2230   -3.3475    0.0000 C    0  0  0  0  0  0  0  0  0  0  0  0
   10.3889   -4.0055    0.0000 C    0  0  0  0  0  0  0  0  0  0  0  0
   11.5432   -3.3475    0.0000 Br   0  0  0  0  0  0  0  0  0  0  0  0
  1  2  2  0  0  0  0
  1  3  1  0  0  0  0
  1  4  1  0  0  0  0
  2  5  1  0  0  0  0
  2  6  1  0  0  0  0
  3  7  1  0  0  0  0
  3  8  1  0  0  0  0
  4  9  2  0  0  0  0
  5 10  1  0  0  0  0
  5 11  2  0  0  0  0
  6 12  2  0  0  0  0
  7 13  2  0  0  0  0
  7 10  1  0  0  0  0
  8 14  1  0  0  0  0
  9 15  1  0  0  0  0
  9 12  1  0  0  0  0
 10 16  1  0  0  0  0
 14 17  1  0  0  0  0
 14 18  2  0  0  0  0
 16 19  1  0  0  0  0
 19 20  1  0  0  0  0
 19 21  2  0  0  0  0
 20 22  2  0  0  0  0
 20 23  1  0  0  0  0
 21 24  1  0  0  0  0
 22 25  1  0  0  0  0
 24 25  2  0  0  0  0
 25 26  1  0  0  0  0
M  END
> <ID>
12438

> <Formula>
C17H11BrClFN2O4

> <FW>
441.6356

> <DSSTox_CID>
27296

> <DSSTox_RID>
82249

> <DSSTox_GSID>
47296

> <DSSTox_FileID_Sort>
6930

> <TS_ChemName>
Zenarestat

> <TS_ChemName_Synonyms>
PharmaCode_167868

> <TS_CASRN>
112733-06-9

> <CASRN_ChemName_Relationship>
primary

> <TS_Description>
single chemical compound

> <ChemNote>


> <STRUCTURE_Shown>
tested chemical

> <STRUCTURE_Formula>
C17H11BrClFN2O4

> <STRUCTURE_MW>
441.6356

> <STRUCTURE_ChemType>
defined organic

> <STRUCTURE_DefinedOrganicForm>
parent

> <STRUCTURE_IUPAC>
[3-(4-bromo-2-fluorobenzyl)-7-chloro-2,4-dioxo-3,4-dihydroquinazolin-1(2H)-yl]acetic acid

> <STRUCTURE_SMILES>
Brc3ccc(CN2C(=O)c1ccc(Cl)cc1N(CC(=O)O)C2=O)c(F)c3

> <STRUCTURE_SMILES_Desalt>
Brc3ccc(CN2C(=O)c1ccc(Cl)cc1N(CC(=O)O)C2=O)c(F)c3

> <Substance_modify_yyyymmdd>
20130910

$$$$
