112811-59-3
ChemmineR-0915142007XD

 27 30  0  0  0  0  0  0  0  0  1 V2000
    4.6066   -5.9886    0.0000 C   0  0  0  0  0  0  0  0  0  0  0  0
    5.7583   -5.3207    0.0000 O   0  0  0  0  0  0  0  0  0  0  0  0
    5.7583   -3.9963    0.0000 C   0  0  0  0  0  0  0  0  0  0  0  0
    4.6066   -3.3283    0.0000 C   0  0  0  0  0  0  0  0  0  0  0  0
    3.4550   -3.9963    0.0000 N   0  0  0  0  0  0  0  0  0  0  0  0
    3.4550   -5.3207    0.0000 C   0  0  0  0  0  0  0  0  0  0  0  0
    2.3033   -5.9886    0.0000 C   0  0  0  0  0  0  0  0  0  0  0  0
    1.1517   -5.3207    0.0000 N   0  0  0  0  0  0  0  0  0  0  0  0
    1.1517   -3.9963    0.0000 C   0  0  0  0  0  0  0  0  0  0  0  0
    0.0000   -3.3283    0.0000 C   0  0  0  0  0  0  0  0  0  0  0  0
    2.3033   -3.3283    0.0000 C   0  0  0  0  0  0  0  0  0  0  0  0
    4.6066   -1.9924    0.0000 C   0  0  0  0  0  0  0  0  0  0  0  0
    5.7583   -1.3359    0.0000 C   0  0  0  0  0  0  0  0  0  0  0  0
    6.9100   -1.9924    0.0000 C   0  0  0  0  0  0  0  0  0  0  0  0
    6.9100   -3.3283    0.0000 C   0  0  0  0  0  0  0  0  0  0  0  0
    8.0616   -3.9963    0.0000 N   0  0  0  0  0  0  0  0  0  0  0  0
    9.2133   -3.3283    0.0000 C   0  0  0  0  0  0  0  0  0  0  0  0
    9.2133   -1.9924    0.0000 C   0  0  0  0  0  0  0  0  0  0  0  0
   10.3649   -1.3359    0.0000 C   0  0  0  0  0  0  0  0  0  0  0  0
   11.5166   -1.9924    0.0000 O   0  0  0  0  0  0  0  0  0  0  0  0
   10.3649    0.0000    0.0000 O   0  0  0  0  0  0  0  0  0  0  0  0
    8.0616   -1.3359    0.0000 C   0  0  0  0  0  0  0  0  0  0  0  0
    8.0616    0.0000    0.0000 O   0  0  0  0  0  0  0  0  0  0  0  0
    8.0616   -5.3207    0.0000 C   0  0  0  0  0  0  0  0  0  0  0  0
    8.7296   -6.4723    0.0000 C   0  0  0  0  0  0  0  0  0  0  0  0
    7.3937   -6.4723    0.0000 C   0  0  0  0  0  0  0  0  0  0  0  0
    3.4550   -1.3359    0.0000 F   0  0  0  0  0  0  0  0  0  0  0  0
  1  2  1  0  0  0  0
  2  3  1  0  0  0  0
  3  4  2  0  0  0  0
  3 15  1  0  0  0  0
  4  5  1  0  0  0  0
  4 12  1  0  0  0  0
  5  6  1  0  0  0  0
  5 11  1  0  0  0  0
  6  7  1  0  0  0  0
  7  8  1  0  0  0  0
  8  9  1  0  0  0  0
  9 10  1  0  0  0  0
  9 11  1  0  0  0  0
 12 13  2  0  0  0  0
 12 27  1  0  0  0  0
 13 14  1  0  0  0  0
 14 15  2  0  0  0  0
 14 22  1  0  0  0  0
 15 16  1  0  0  0  0
 16 17  1  0  0  0  0
 16 24  1  0  0  0  0
 17 18  2  0  0  0  0
 18 19  1  0  0  0  0
 18 22  1  0  0  0  0
 19 20  1  0  0  0  0
 19 21  2  0  0  0  0
 22 23  2  0  0  0  0
 24 25  1  0  0  0  0
 24 26  1  0  0  0  0
 25 26  1  0  0  0  0
M  END
> <ID>
11145

> <Formula>
C19H22FN3O4

> <FW>
375.3941

> <DSSTox_CID>
25704

> <DSSTox_RID>
81076

> <DSSTox_GSID>
45704

> <DSSTox_FileID_Sort>
5757

> <TS_ChemName>
Gatifloxacin

> <TS_ChemName_Synonyms>


> <TS_CASRN>
112811-59-3

> <CASRN_ChemName_Relationship>
primary

> <TS_Description>
single chemical compound

> <ChemNote>


> <STRUCTURE_Shown>
tested chemical

> <STRUCTURE_Formula>
C19H22FN3O4

> <STRUCTURE_MW>
375.3941

> <STRUCTURE_ChemType>
defined organic

> <STRUCTURE_DefinedOrganicForm>
parent

> <STRUCTURE_IUPAC>
1-cyclopropyl-6-fluoro-8-methoxy-7-(3-methylpiperazin-1-yl)-4-oxo-1,4-dihydroquinoline-3-carboxylic acid

> <STRUCTURE_SMILES>
CC1CN(CCN1)c2c(F)cc3c(c2OC)N(C=C(C3=O)C(=O)O)C4CC4

> <STRUCTURE_SMILES_Desalt>
CC1CN(CCN1)c2c(F)cc3c(c2OC)N(C=C(C3=O)C(=O)O)C4CC4

> <Substance_modify_yyyymmdd>
20110819

$$$$
