112887-68-0
ChemmineR-0915142007XD

 32 34  0  0  1  0  0  0  0  0  1 V2000
    3.4466   -1.9917    0.0000 C   0  0  0  0  0  0  0  0  0  0  0  0
    3.4466   -3.3253    0.0000 C   0  0  0  0  0  0  0  0  0  0  0  0
    4.5897   -1.3163    0.0000 C   0  0  0  0  0  0  0  0  0  0  0  0
    2.3035   -1.3163    0.0000 C   0  0  0  0  0  0  0  0  0  0  0  0
    4.5897   -3.9835    0.0000 C   0  0  0  0  0  0  0  0  0  0  0  0
    2.3035   -3.9835    0.0000 N   0  0  0  0  0  0  0  0  0  0  0  0
    5.7501   -1.9917    0.0000 C   0  0  0  0  0  0  0  0  0  0  0  0
    1.1431   -1.9917    0.0000 N   0  0  0  0  0  0  0  0  0  0  0  0
    2.3035    0.0000    0.0000 O   0  0  0  0  0  0  0  0  0  0  0  0
    5.7501   -3.3253    0.0000 C   0  0  0  0  0  0  0  0  0  0  0  0
    1.1431   -3.3253    0.0000 C   0  0  0  0  0  0  0  0  0  0  0  0
    6.9105   -1.3163    0.0000 C   0  0  0  0  0  0  0  0  0  0  0  0
    0.0000   -3.9835    0.0000 C   0  0  0  0  0  0  0  0  0  0  0  0
    8.0709   -1.9917    0.0000 N   0  0  0  0  0  0  0  0  0  0  0  0
    9.3352   -1.5934    0.0000 C   0  0  0  0  0  0  0  0  0  0  0  0
    8.0709   -3.3253    0.0000 C   0  0  0  0  0  0  0  0  0  0  0  0
   10.4090   -2.3728    0.0000 S   0  0  0  0  0  0  0  0  0  0  0  0
    9.7509   -0.3291    0.0000 C   0  0  0  0  0  0  0  0  0  0  0  0
   11.4828   -1.5934    0.0000 C   0  0  0  0  0  0  0  0  0  0  0  0
   11.0672   -0.3291    0.0000 C   0  0  0  0  0  0  0  0  0  0  0  0
   12.7125   -2.0610    0.0000 C   0  0  0  0  0  0  0  0  0  0  0  0
   13.8729   -1.4029    0.0000 N   0  0  0  0  0  0  0  0  0  0  0  0
   12.7125   -3.3946    0.0000 O   0  0  0  0  0  0  0  0  0  0  0  0
   15.0160   -2.0610    0.0000 C   0  0  0  0  0  0  0  0  0  0  0  0
   15.0160   -3.3946    0.0000 C   0  0  0  0  0  0  0  0  0  0  0  0
   16.1764   -1.4029    0.0000 C   0  0  0  0  0  0  0  0  0  0  0  0
   16.1764   -4.0528    0.0000 C   0  0  0  0  0  0  0  0  0  0  0  0
   17.3195   -2.0610    0.0000 O   0  0  0  0  0  0  0  0  0  0  0  0
   16.1764   -0.0520    0.0000 O   0  0  0  0  0  0  0  0  0  0  0  0
   16.1764   -5.3864    0.0000 C   0  0  0  0  0  0  0  0  0  0  0  0
   17.3195   -6.0445    0.0000 O   0  0  0  0  0  0  0  0  0  0  0  0
   15.0160   -6.0445    0.0000 O   0  0  0  0  0  0  0  0  0  0  0  0
  1  2  2  0  0  0  0
  1  3  1  0  0  0  0
  1  4  1  0  0  0  0
  2  5  1  0  0  0  0
  2  6  1  0  0  0  0
  3  7  2  0  0  0  0
  4  8  1  0  0  0  0
  4  9  2  0  0  0  0
  5 10  2  0  0  0  0
  6 11  2  0  0  0  0
  7 12  1  0  0  0  0
  7 10  1  0  0  0  0
  8 11  1  0  0  0  0
 11 13  1  0  0  0  0
 12 14  1  0  0  0  0
 14 15  1  0  0  0  0
 14 16  1  0  0  0  0
 15 17  1  0  0  0  0
 15 18  2  0  0  0  0
 17 19  1  0  0  0  0
 18 20  1  0  0  0  0
 19 21  1  0  0  0  0
 19 20  2  0  0  0  0
 21 22  1  0  0  0  0
 21 23  2  0  0  0  0
 22 24  1  0  0  0  0
 24 25  1  6  0  0  0
 24 26  1  0  0  0  0
 25 27  1  0  0  0  0
 26 28  1  0  0  0  0
 26 29  2  0  0  0  0
 27 30  1  0  0  0  0
 30 31  1  0  0  0  0
 30 32  2  0  0  0  0
M  END
> <ID>
11719

> <Formula>
C21H22N4O6S

> <FW>
458.4876

> <DSSTox_CID>
26482

> <DSSTox_RID>
81653

> <DSSTox_GSID>
46482

> <DSSTox_FileID_Sort>
6334

> <TS_ChemName>
Raltitrexed

> <TS_ChemName_Synonyms>


> <TS_CASRN>
112887-68-0

> <CASRN_ChemName_Relationship>
primary

> <TS_Description>
single chemical compound

> <ChemNote>
stereochem; tautomers

> <STRUCTURE_Shown>
tested chemical

> <STRUCTURE_Formula>
C21H22N4O6S

> <STRUCTURE_MW>
458.4876

> <STRUCTURE_ChemType>
defined organic

> <STRUCTURE_DefinedOrganicForm>
parent

> <STRUCTURE_IUPAC>
N-[(5-{methyl[(2-methyl-4-oxo-3,4-dihydroquinazolin-6-yl)methyl]amino}thiophen-2-yl)carbonyl]-L-glutamic acid

> <STRUCTURE_SMILES>
O=C(N[C@@H](CCC(=O)O)C(=O)O)c1ccc(s1)N(C)Cc2ccc3N=C(C)NC(=O)c3c2

> <STRUCTURE_SMILES_Desalt>
O=C(N[C@@H](CCC(=O)O)C(=O)O)c1ccc(s1)N(C)Cc2ccc3N=C(C)NC(=O)c3c2

> <Substance_modify_yyyymmdd>
20110812

$$$$
