112885-42-4
ChemmineR-0915142007XD

 42 43  0  0  0  0  0  0  0  0  1 V2000
    3.4585   -0.6595    0.0000 C    0  0  0  0  0  0  0  0  0  0  0  0
    3.4585   -2.0107    0.0000 C    0  0  0  0  0  0  0  0  0  0  0  0
    2.3003    0.0000    0.0000 C    0  0  0  0  0  0  0  0  0  0  0  0
    2.3003   -2.6702    0.0000 C    0  0  0  0  0  0  0  0  0  0  0  0
    1.1582   -0.6595    0.0000 C    0  0  0  0  0  0  0  0  0  0  0  0
    1.1582   -2.0107    0.0000 C    0  0  0  0  0  0  0  0  0  0  0  0
    5.7426   -0.6595    0.0000 C    0  0  0  0  0  0  0  0  0  0  0  0
    5.7426   -2.0107    0.0000 N    0  0  0  0  0  0  0  0  0  0  0  0
    4.6005   -2.6702    0.0000 C    0  0  0  0  0  0  0  0  0  0  0  0
    6.9008    0.0000    0.0000 C    0  0  0  0  0  0  0  0  0  0  0  0
    8.0268   -0.6595    0.0000 O    0  0  0  0  0  0  0  0  0  0  0  0
    6.9008   -2.6702    0.0000 C    0  0  0  0  0  0  0  0  0  0  0  0
    8.0268   -2.0107    0.0000 C    0  0  0  0  0  0  0  0  0  0  0  0
    9.1850    0.0000    0.0000 C    0  0  0  0  0  0  0  0  0  0  0  0
   10.3271   -0.6595    0.0000 C    0  0  0  0  0  0  0  0  0  0  0  0
    9.1850   -2.6702    0.0000 C    0  0  0  0  0  0  0  0  0  0  0  0
   10.3271   -2.0107    0.0000 N    0  0  0  0  0  0  0  0  0  0  0  0
   11.4853    0.0000    0.0000 O    0  0  0  0  0  0  0  0  0  0  0  0
   12.6113   -0.6595    0.0000 C    0  0  0  0  0  0  0  0  0  0  0  0
   11.4853   -2.6702    0.0000 C    0  0  0  0  0  0  0  0  0  0  0  0
   12.6113   -2.0107    0.0000 C    0  0  0  0  0  0  0  0  0  0  0  0
   13.7856    0.0000    0.0000 C    0  0  0  0  0  0  0  0  0  0  0  0
   14.9277   -0.6595    0.0000 C    0  0  0  0  0  0  0  0  0  0  0  0
   13.7856   -2.6702    0.0000 C    0  0  0  0  0  0  0  0  0  0  0  0
   14.9277   -2.0107    0.0000 C    0  0  0  0  0  0  0  0  0  0  0  0
   16.0858   -2.6702    0.0000 Cl   0  0  0  0  0  0  0  0  0  0  0  0
    0.0000    0.0000    0.0000 F    0  0  0  0  0  0  0  0  0  0  0  0
   16.0858    0.0000    0.0000 N    0  0  0  0  0  0  0  0  0  0  0  0
   11.4853   -3.9732    0.0000 O    0  0  0  0  0  0  0  0  0  0  0  0
    6.6113   -5.5335    0.0000 C    0  0  0  0  0  0  0  0  0  0  0  0
    7.9464   -5.5335    0.0000 C    0  0  0  0  0  0  0  0  0  0  0  0
    5.2601   -5.5335    0.0000 C    0  0  0  0  0  0  0  0  0  0  0  0
    6.6113   -6.8687    0.0000 C    0  0  0  0  0  0  0  0  0  0  0  0
    5.4531   -7.5282    0.0000 O    0  0  0  0  0  0  0  0  0  0  0  0
    4.6005   -4.3914    0.0000 C    0  0  0  0  0  0  0  0  0  0  0  0
    3.2815   -4.3914    0.0000 O    0  0  0  0  0  0  0  0  0  0  0  0
    5.2601   -3.2333    0.0000 O    0  0  0  0  0  0  0  0  0  0  0  0
    8.6059   -4.3753    0.0000 C    0  0  0  0  0  0  0  0  0  0  0  0
    7.9303   -3.2333    0.0000 O    0  0  0  0  0  0  0  0  0  0  0  0
    9.9410   -4.3753    0.0000 O    0  0  0  0  0  0  0  0  0  0  0  0
    6.6113   -4.1984    0.0000 O    0  0  0  0  0  0  0  0  0  0  0  0
    7.7695   -7.5282    0.0000 O    0  0  0  0  0  0  0  0  0  0  0  0
  1  3  2  0  0  0  0
  1  2  1  0  0  0  0
  2  4  2  0  0  0  0
  2  9  1  0  0  0  0
  3  5  1  0  0  0  0
  4  6  1  0  0  0  0
  5  6  2  0  0  0  0
  5 27  1  0  0  0  0
  7 10  1  0  0  0  0
  7  8  1  0  0  0  0
  8  9  1  0  0  0  0
  8 12  1  0  0  0  0
 10 11  1  0  0  0  0
 11 13  1  0  0  0  0
 12 13  1  0  0  0  0
 13 16  1  0  0  0  0
 14 15  1  0  0  0  0
 15 18  1  0  0  0  0
 16 17  1  0  0  0  0
 17 20  1  0  0  0  0
 18 19  1  0  0  0  0
 19 22  1  0  0  0  0
 19 21  2  0  0  0  0
 20 21  1  0  0  0  0
 20 29  2  0  0  0  0
 21 24  1  0  0  0  0
 22 23  2  0  0  0  0
 23 25  1  0  0  0  0
 23 28  1  0  0  0  0
 24 25  2  0  0  0  0
 25 26  1  0  0  0  0
 30 33  1  0  0  0  0
 30 32  1  0  0  0  0
 30 41  1  0  0  0  0
 30 31  1  0  0  0  0
 31 38  1  0  0  0  0
 32 35  1  0  0  0  0
 33 34  1  0  0  0  0
 33 42  2  0  0  0  0
 35 36  1  0  0  0  0
 35 37  2  0  0  0  0
 38 39  2  0  0  0  0
 38 40  1  0  0  0  0
M  END
> <ID>
11503

> <Formula>
C27H33ClFN3O10

> <FW>
614.0164 (421.8929+192.1235)

> <DSSTox_CID>
26207

> <DSSTox_RID>
81436

> <DSSTox_GSID>
46207

> <DSSTox_FileID_Sort>
6117

> <TS_ChemName>
Mosapride citrate

> <TS_ChemName_Synonyms>


> <TS_CASRN>
112885-42-4

> <CASRN_ChemName_Relationship>
primary

> <TS_Description>
single chemical compound

> <ChemNote>
parent [112885-41-3]

> <STRUCTURE_Shown>
tested chemical

> <STRUCTURE_Formula>
C27H33ClFN3O10

> <STRUCTURE_MW>
614.0164

> <STRUCTURE_ChemType>
defined organic

> <STRUCTURE_DefinedOrganicForm>
complex

> <STRUCTURE_IUPAC>
4-amino-5-chloro-2-ethoxy-N-{[4-(4-fluorobenzyl)morpholin-2-yl]methyl}benzamide 2-hydroxypropane-1,2,3-tricarboxylate (1:1)

> <STRUCTURE_SMILES>
O=C(O)C(O)(CC(=O)O)CC(=O)O.Clc1cc(c(OCC)cc1N)C(=O)NCC3CN(Cc2ccc(F)cc2)CCO3

> <STRUCTURE_SMILES_Desalt>
Clc1cc(c(OCC)cc1N)C(=O)NCC3CN(Cc2ccc(F)cc2)CCO3

> <Substance_modify_yyyymmdd>
20110817

$$$$
