112809-51-5
ChemmineR-0915142007XD

 22 24  0  0  0  0  0  0  0  0  1 V2000
    8.0614   -3.3743    0.0000 C   0  0  0  0  0  0  0  0  0  0  0  0
    9.2130   -4.0422    0.0000 C   0  0  0  0  0  0  0  0  0  0  0  0
    9.2130   -5.3781    0.0000 C   0  0  0  0  0  0  0  0  0  0  0  0
   10.3646   -6.0345    0.0000 C   0  0  0  0  0  0  0  0  0  0  0  0
   11.5163   -6.7025    0.0000 N   0  0  0  0  0  0  0  0  0  0  0  0
    8.0614   -6.0345    0.0000 C   0  0  0  0  0  0  0  0  0  0  0  0
    6.9098   -5.3781    0.0000 C   0  0  0  0  0  0  0  0  0  0  0  0
    6.9098   -4.0422    0.0000 C   0  0  0  0  0  0  0  0  0  0  0  0
    5.7581   -3.3743    0.0000 C   0  0  0  0  0  0  0  0  0  0  0  0
    4.6065   -4.0422    0.0000 C   0  0  0  0  0  0  0  0  0  0  0  0
    4.6065   -5.3781    0.0000 C   0  0  0  0  0  0  0  0  0  0  0  0
    3.4549   -6.0345    0.0000 C   0  0  0  0  0  0  0  0  0  0  0  0
    2.3033   -5.3781    0.0000 C   0  0  0  0  0  0  0  0  0  0  0  0
    1.1516   -6.0345    0.0000 C   0  0  0  0  0  0  0  0  0  0  0  0
    0.0000   -6.7025    0.0000 N   0  0  0  0  0  0  0  0  0  0  0  0
    2.3033   -4.0422    0.0000 C   0  0  0  0  0  0  0  0  0  0  0  0
    3.4549   -3.3743    0.0000 C   0  0  0  0  0  0  0  0  0  0  0  0
    5.7581   -2.0499    0.0000 N   0  0  0  0  0  0  0  0  0  0  0  0
    4.6871   -1.2668    0.0000 N   0  0  0  0  0  0  0  0  0  0  0  0
    5.0902    0.0000    0.0000 C   0  0  0  0  0  0  0  0  0  0  0  0
    6.4261    0.0000    0.0000 N   0  0  0  0  0  0  0  0  0  0  0  0
    6.8291   -1.2668    0.0000 C   0  0  0  0  0  0  0  0  0  0  0  0
  1  2  2  0  0  0  0
  1  8  1  0  0  0  0
  2  3  1  0  0  0  0
  3  4  1  0  0  0  0
  3  6  2  0  0  0  0
  4  5  3  0  0  0  0
  6  7  1  0  0  0  0
  7  8  2  0  0  0  0
  8  9  1  0  0  0  0
  9 10  1  0  0  0  0
  9 18  1  0  0  0  0
 10 11  2  0  0  0  0
 10 17  1  0  0  0  0
 11 12  1  0  0  0  0
 12 13  2  0  0  0  0
 13 14  1  0  0  0  0
 13 16  1  0  0  0  0
 14 15  3  0  0  0  0
 16 17  2  0  0  0  0
 18 19  1  0  0  0  0
 18 22  1  0  0  0  0
 19 20  2  0  0  0  0
 20 21  1  0  0  0  0
 21 22  2  0  0  0  0
M  END
> <ID>
2878

> <Formula>
C17H11N5

> <FW>
285.3027

> <DSSTox_CID>
3202

> <DSSTox_RID>
76924

> <DSSTox_GSID>
23202

> <DSSTox_FileID_Sort>
1608

> <TS_ChemName>
Letrozole

> <TS_ChemName_Synonyms>
Letrozole (Femera)

> <TS_CASRN>
112809-51-5

> <CASRN_ChemName_Relationship>
primary

> <TS_Description>
single chemical compound

> <ChemNote>


> <STRUCTURE_Shown>
tested chemical

> <STRUCTURE_Formula>
C17H11N5

> <STRUCTURE_MW>
285.3027

> <STRUCTURE_ChemType>
defined organic

> <STRUCTURE_DefinedOrganicForm>
parent

> <STRUCTURE_IUPAC>
4,4'-(1H-1,2,4-triazol-1-ylmethanediyl)dibenzonitrile

> <STRUCTURE_SMILES>
N#Cc1ccc(cc1)C(c2ccc(C#N)cc2)n3cncn3

> <STRUCTURE_SMILES_Desalt>
N#Cc1ccc(cc1)C(c2ccc(C#N)cc2)n3cncn3

> <Substance_modify_yyyymmdd>
20080429

$$$$
