112984-60-8
ChemmineR-0915142007XD

 24 27  0  0  0  0  0  0  0  0  1 V2000
    7.4798   -6.5586    0.0000 C   0  0  0  0  0  0  0  0  0  0  0  0
    7.1390   -5.2690    0.0000 C   0  0  0  0  0  0  0  0  0  0  0  0
    7.8022   -4.1176    0.0000 S   0  0  0  0  0  0  0  0  0  0  0  0
    6.6507   -3.4543    0.0000 C   0  0  0  0  0  0  0  0  0  0  0  0
    5.9875   -2.3029    0.0000 C   0  0  0  0  0  0  0  0  0  0  0  0
    6.6507   -1.1514    0.0000 C   0  0  0  0  0  0  0  0  0  0  0  0
    7.9772   -1.1514    0.0000 O   0  0  0  0  0  0  0  0  0  0  0  0
    5.9875    0.0000    0.0000 O   0  0  0  0  0  0  0  0  0  0  0  0
    4.6518   -2.3029    0.0000 C   0  0  0  0  0  0  0  0  0  0  0  0
    3.9886   -1.1514    0.0000 O   0  0  0  0  0  0  0  0  0  0  0  0
    3.9886   -3.4543    0.0000 C   0  0  0  0  0  0  0  0  0  0  0  0
    2.6621   -3.4543    0.0000 C   0  0  0  0  0  0  0  0  0  0  0  0
    1.9989   -4.6058    0.0000 C   0  0  0  0  0  0  0  0  0  0  0  0
    2.6621   -5.7572    0.0000 C   0  0  0  0  0  0  0  0  0  0  0  0
    3.9886   -5.7572    0.0000 C   0  0  0  0  0  0  0  0  0  0  0  0
    4.6518   -4.6058    0.0000 C   0  0  0  0  0  0  0  0  0  0  0  0
    5.9875   -4.6058    0.0000 N   0  0  0  0  0  0  0  0  0  0  0  0
    1.9989   -6.9087    0.0000 N   0  0  0  0  0  0  0  0  0  0  0  0
    0.6632   -6.9087    0.0000 C   0  0  0  0  0  0  0  0  0  0  0  0
    0.0000   -8.0601    0.0000 C   0  0  0  0  0  0  0  0  0  0  0  0
    0.6632   -9.2116    0.0000 N   0  0  0  0  0  0  0  0  0  0  0  0
    1.9989   -9.2116    0.0000 C   0  0  0  0  0  0  0  0  0  0  0  0
    2.6621   -8.0601    0.0000 C   0  0  0  0  0  0  0  0  0  0  0  0
    0.6632   -4.6058    0.0000 F   0  0  0  0  0  0  0  0  0  0  0  0
  1  2  1  0  0  0  0
  2  3  1  0  0  0  0
  2 17  1  0  0  0  0
  3  4  1  0  0  0  0
  4  5  2  0  0  0  0
  4 17  1  0  0  0  0
  5  6  1  0  0  0  0
  5  9  1  0  0  0  0
  6  7  1  0  0  0  0
  6  8  2  0  0  0  0
  9 10  2  0  0  0  0
  9 11  1  0  0  0  0
 11 12  2  0  0  0  0
 11 16  1  0  0  0  0
 12 13  1  0  0  0  0
 13 14  2  0  0  0  0
 13 24  1  0  0  0  0
 14 15  1  0  0  0  0
 14 18  1  0  0  0  0
 15 16  2  0  0  0  0
 16 17  1  0  0  0  0
 18 19  1  0  0  0  0
 18 23  1  0  0  0  0
 19 20  1  0  0  0  0
 20 21  1  0  0  0  0
 21 22  1  0  0  0  0
 22 23  1  0  0  0  0
M  END
> <ID>
16027

> <Formula>
C16H16FN3O3S

> <FW>
349.3799

> <DSSTox_CID>
31410

> <DSSTox_RID>
97296

> <DSSTox_GSID>
57621

> <DSSTox_FileID_Sort>
8363

> <TS_ChemName>
Ulifloxacin

> <TS_ChemName_Synonyms>


> <TS_CASRN>
112984-60-8

> <CASRN_ChemName_Relationship>
primary

> <TS_Description>
single chemical compound

> <ChemNote>


> <STRUCTURE_Shown>
tested chemical

> <STRUCTURE_Formula>
C16H16FN3O3S

> <STRUCTURE_MW>
349.3799

> <STRUCTURE_ChemType>
defined organic

> <STRUCTURE_DefinedOrganicForm>
parent

> <STRUCTURE_IUPAC>
6-fluoro-1-methyl-4-oxo-7-(piperazin-1-yl)-4H-[1,3]thiazeto[3,2-a]quinoline-3-carboxylic acid

> <STRUCTURE_SMILES>
O=C(O)C=3C(=O)c1cc(F)c(cc1N2C=3SC2C)N4CCNCC4

> <STRUCTURE_SMILES_Desalt>
O=C(O)C=3C(=O)c1cc(F)c(cc1N2C=3SC2C)N4CCNCC4

> <Substance_modify_yyyymmdd>
20131018

$$$$
