112965-21-6
ChemmineR-0915142007XD

 32 35  0  0  1  0  0  0  0  0  1 V2000
    4.6208   -5.0355    0.0000 C   0  0  0  0  0  0  0  0  0  0  0  0
    4.6208   -3.6848    0.0000 C   0  0  0  0  0  0  0  0  0  0  0  0
    3.4241   -5.6990    0.0000 C   0  0  0  0  0  0  0  0  0  0  0  0
    5.8886   -5.4383    0.0000 C   0  0  0  0  0  0  0  0  0  0  0  0
    5.8886   -3.2701    0.0000 C   0  0  0  0  0  0  0  0  0  0  0  0
    3.4241   -3.0094    0.0000 C   0  0  0  0  0  0  0  0  0  0  0  0
    4.6208   -2.4052    0.0000 C   0  0  0  0  0  0  0  0  0  0  0  0
    3.4241   -7.0023    0.0000 C   0  0  0  0  0  0  0  0  0  0  0  0
    2.2393   -5.0355    0.0000 C   0  0  0  0  0  0  0  0  0  0  0  0
    6.6232   -4.3365    0.0000 C   0  0  0  0  0  0  0  0  0  0  0  0
    5.8886   -2.0142    0.0000 C   0  0  0  0  0  0  0  0  0  0  0  0
    2.2393   -3.6848    0.0000 C   0  0  0  0  0  0  0  0  0  0  0  0
    2.2393   -7.7250    0.0000 C   0  0  0  0  0  0  0  0  0  0  0  0
    7.0260   -1.3625    0.0000 C   0  0  0  0  0  0  0  0  0  0  0  0
    4.6919   -1.3625    0.0000 C   0  0  0  0  0  0  0  0  0  0  0  0
    2.2393   -9.0283    0.0000 C   0  0  0  0  0  0  0  0  0  0  0  0
    8.1634   -2.0142    0.0000 C   0  0  0  0  0  0  0  0  0  0  0  0
    3.4241   -9.6918    0.0000 C   0  0  0  0  0  0  0  0  0  0  0  0
    1.1019   -9.6918    0.0000 C   0  0  0  0  0  0  0  0  0  0  0  0
    9.3601   -1.3625    0.0000 C   0  0  0  0  0  0  0  0  0  0  0  0
    3.4241  -11.0425    0.0000 C   0  0  0  0  0  0  0  0  0  0  0  0
    4.6208   -9.0283    0.0000 C   0  0  0  0  0  0  0  0  0  0  0  0
    1.1019  -11.0425    0.0000 C   0  0  0  0  0  0  0  0  0  0  0  0
   10.5094   -2.0142    0.0000 C   0  0  0  0  0  0  0  0  0  0  0  0
    9.3601    0.0000    0.0000 O   0  0  0  0  0  0  0  0  0  0  0  0
    2.2393  -11.7179    0.0000 C   0  0  0  0  0  0  0  0  0  0  0  0
    4.6208  -11.7179    0.0000 O   0  0  0  0  0  0  0  0  0  0  0  0
    0.0000  -11.7179    0.0000 O   0  0  0  0  0  0  0  0  0  0  0  0
   11.8482   -2.0142    0.0000 C   0  0  0  0  0  0  0  0  0  0  0  0
   11.2084   -3.1042    0.0000 C   0  0  0  0  0  0  0  0  0  0  0  0
    4.5971   -6.3388    0.0000 H   0  0  0  0  0  0  0  0  0  0  0  0
    6.9668   -2.6540    0.0000 H   0  0  0  0  0  0  0  0  0  0  0  0
  1  2  1  0  0  0  0
  1  3  1  0  0  0  0
  1  4  1  0  0  0  0
  1 31  1  6  0  0  0
  2  5  1  0  0  0  0
  2  6  1  0  0  0  0
  2  7  1  1  0  0  0
  3  8  2  0  0  0  0
  3  9  1  0  0  0  0
  4 10  1  0  0  0  0
  5 11  1  0  0  0  0
  5 10  1  0  0  0  0
  5 32  1  6  0  0  0
  6 12  1  0  0  0  0
  8 13  1  0  0  0  0
  9 12  1  0  0  0  0
 11 14  1  0  0  0  0
 11 15  1  6  0  0  0
 13 16  2  0  0  0  0
 14 17  2  0  0  0  0
 16 18  1  0  0  0  0
 16 19  1  0  0  0  0
 17 20  1  0  0  0  0
 18 21  1  0  0  0  0
 18 22  2  0  0  0  0
 19 23  1  0  0  0  0
 20 24  1  0  0  0  0
 20 25  1  1  0  0  0
 21 26  1  0  0  0  0
 21 27  1  1  0  0  0
 23 28  1  6  0  0  0
 23 26  1  0  0  0  0
 24 29  1  0  0  0  0
 24 30  1  0  0  0  0
 29 30  1  0  0  0  0
M  END
> <ID>
11858

> <Formula>
C27H40O3

> <FW>
412.6047

> <DSSTox_CID>
26648

> <DSSTox_RID>
81793

> <DSSTox_GSID>
46648

> <DSSTox_FileID_Sort>
6474

> <TS_ChemName>
Calcipotriene

> <TS_ChemName_Synonyms>


> <TS_CASRN>
112965-21-6

> <CASRN_ChemName_Relationship>
primary

> <TS_Description>
single chemical compound

> <ChemNote>
stereochem

> <STRUCTURE_Shown>
tested chemical

> <STRUCTURE_Formula>
C27H40O3

> <STRUCTURE_MW>
412.6047

> <STRUCTURE_ChemType>
defined organic

> <STRUCTURE_DefinedOrganicForm>
parent

> <STRUCTURE_IUPAC>
(1S,3R,5Z,7E,22E,24S)-26,27-cyclo-9,10-secocholesta-5,7,10,22-tetraene-1,3,24-triol

> <STRUCTURE_SMILES>
C=C1C(/C[C@@H](O)C[C@@H]1O)=C\C=C2/CCC[C@]3(C)[C@H](CC[C@@H]23)[C@H](C)/C=C/[C@@H](O)C4CC4

> <STRUCTURE_SMILES_Desalt>
C=C1C(/C[C@@H](O)C[C@@H]1O)=C\C=C2/CCC[C@]3(C)[C@H](CC[C@@H]23)[C@H](C)/C=C/[C@@H](O)C4CC4

> <Substance_modify_yyyymmdd>
20110808

$$$$
