113-42-8
ChemmineR-0915142007XD

 26 29  0  0  1  0  0  0  0  0  1 V2000
    3.4289   -3.9501    0.0000 C   0  0  0  0  0  0  0  0  0  0  0  0
    3.4289   -6.5926    0.0000 C   0  0  0  0  0  0  0  0  0  0  0  0
    4.5718   -4.6084    0.0000 C   0  0  0  0  0  0  0  0  0  0  0  0
    3.4289   -2.6334    0.0000 C   0  0  0  0  0  0  0  0  0  0  0  0
    2.2768   -4.6084    0.0000 C   0  0  0  0  0  0  0  0  0  0  0  0
    4.5718   -1.9750    0.0000 C   0  0  0  0  0  0  0  0  0  0  0  0
    5.7239   -3.9501    0.0000 N   0  0  0  0  0  0  0  0  0  0  0  0
    2.2768   -5.9342    0.0000 C   0  0  0  0  0  0  0  0  0  0  0  0
    4.5718   -5.9342    0.0000 C   0  0  0  0  0  0  0  0  0  0  0  0
    3.0814   -7.8727    0.0000 C   0  0  0  0  0  0  0  0  0  0  0  0
    1.4904   -7.8727    0.0000 N   0  0  0  0  0  0  0  0  0  0  0  0
    5.7239   -2.6334    0.0000 C   0  0  0  0  0  0  0  0  0  0  0  0
    1.1521   -6.5926    0.0000 C   0  0  0  0  0  0  0  0  0  0  0  0
    1.1521   -3.9501    0.0000 C   0  0  0  0  0  0  0  0  0  0  0  0
    6.8669   -4.6084    0.0000 C   0  0  0  0  0  0  0  0  0  0  0  0
    0.0000   -4.6084    0.0000 C   0  0  0  0  0  0  0  0  0  0  0  0
    0.0000   -5.9342    0.0000 C   0  0  0  0  0  0  0  0  0  0  0  0
    5.7239   -5.2667    0.0000 H   0  0  0  0  0  0  0  0  0  0  0  0
    4.5718   -0.6401    0.0000 C   0  0  0  0  0  0  0  0  0  0  0  0
    5.7239    0.0000    0.0000 N   0  0  0  0  0  0  0  0  0  0  0  0
    3.4289    0.0000    0.0000 O   0  0  0  0  0  0  0  0  0  0  0  0
    6.8669   -0.6401    0.0000 C   0  0  0  0  0  0  0  0  0  0  0  0
    8.0190    0.0000    0.0000 C   0  0  0  0  0  0  0  0  0  0  0  0
    6.8669   -1.9750    0.0000 C   0  0  0  0  0  0  0  0  0  0  0  0
    8.0190   -2.6334    0.0000 O   0  0  0  0  0  0  0  0  0  0  0  0
    9.1436   -0.6401    0.0000 C   0  0  0  0  0  0  0  0  0  0  0  0
  1  3  1  0  0  0  0
  1  4  2  0  0  0  0
  1  5  1  0  0  0  0
  2  8  1  0  0  0  0
  2 10  2  0  0  0  0
  2  9  1  0  0  0  0
  3  7  1  0  0  0  0
  3  9  1  0  0  0  0
  3 18  1  1  0  0  0
  4  6  1  0  0  0  0
  5  8  2  0  0  0  0
  5 14  1  0  0  0  0
  6 12  1  0  0  0  0
  6 19  1  1  0  0  0
  7 15  1  0  0  0  0
  7 12  1  0  0  0  0
  8 13  1  0  0  0  0
 10 11  1  0  0  0  0
 11 13  1  0  0  0  0
 13 17  2  0  0  0  0
 14 16  2  0  0  0  0
 16 17  1  0  0  0  0
 19 20  1  0  0  0  0
 19 21  2  0  0  0  0
 20 22  1  0  0  0  0
 22 23  1  0  0  0  0
 22 24  1  1  0  0  0
 23 26  1  0  0  0  0
 24 25  1  0  0  0  0
M  END
> <ID>
2949

> <Formula>
C20H25N3O2

> <FW>
339.4314

> <DSSTox_CID>
3283

> <DSSTox_RID>
76957

> <DSSTox_GSID>
23283

> <DSSTox_FileID_Sort>
1641

> <TS_ChemName>
Methergine

> <TS_ChemName_Synonyms>


> <TS_CASRN>
113-42-8

> <CASRN_ChemName_Relationship>
primary

> <TS_Description>
single chemical compound

> <ChemNote>
stereochem

> <STRUCTURE_Shown>
tested chemical

> <STRUCTURE_Formula>
C20H25N3O2

> <STRUCTURE_MW>
339.4314

> <STRUCTURE_ChemType>
defined organic

> <STRUCTURE_DefinedOrganicForm>
parent

> <STRUCTURE_IUPAC>
(8beta)-N-[(2S)-1-hydroxybutan-2-yl]-6-methyl-9,10-didehydroergoline-8-carboxamide

> <STRUCTURE_SMILES>
CC[C@@H](CO)NC(=O)[C@@H]2C=C1c3cccc4ncc(C[C@H]1N(C)C2)c34

> <STRUCTURE_SMILES_Desalt>
CC[C@@H](CO)NC(=O)[C@@H]2C=C1c3cccc4ncc(C[C@H]1N(C)C2)c34

> <Substance_modify_yyyymmdd>
20080429

$$$$
