113-38-2
ChemmineR-0915142007XD

 31 34  0  0  1  0  0  0  0  0  1 V2000
   10.2925   -3.4760    0.0000 C   0  0  0  0  0  0  0  0  0  0  0  0
   10.2925   -4.8302    0.0000 C   0  0  0  0  0  0  0  0  0  0  0  0
    9.1790   -5.4773    0.0000 C   0  0  0  0  0  0  0  0  0  0  0  0
    8.0353   -4.8302    0.0000 C   0  0  0  0  0  0  0  0  0  0  0  0
    6.8917   -5.4773    0.0000 C   0  0  0  0  0  0  0  0  0  0  0  0
   11.5866   -3.0697    0.0000 C   0  0  0  0  0  0  0  0  0  0  0  0
    6.8917   -6.8165    0.0000 C   0  0  0  0  0  0  0  0  0  0  0  0
    9.1790   -2.8289    0.0000 C   0  0  0  0  0  0  0  0  0  0  0  0
    8.0353   -3.4760    0.0000 C   0  0  0  0  0  0  0  0  0  0  0  0
   11.5866   -5.2365    0.0000 C   0  0  0  0  0  0  0  0  0  0  0  0
    9.1790   -6.8165    0.0000 C   0  0  0  0  0  0  0  0  0  0  0  0
   11.9928   -1.7906    0.0000 O   0  0  0  0  0  0  0  0  0  0  0  0
    5.7481   -4.8302    0.0000 C   0  0  0  0  0  0  0  0  0  0  0  0
   13.3321   -1.5800    0.0000 C   0  0  0  0  0  0  0  0  0  0  0  0
    2.2872   -6.8165    0.0000 C   0  0  0  0  0  0  0  0  0  0  0  0
    5.7481   -7.4936    0.0000 C   0  0  0  0  0  0  0  0  0  0  0  0
    8.0353   -7.4936    0.0000 C   0  0  0  0  0  0  0  0  0  0  0  0
   12.3540   -4.1531    0.0000 C   0  0  0  0  0  0  0  0  0  0  0  0
    4.6196   -6.8165    0.0000 C   0  0  0  0  0  0  0  0  0  0  0  0
    3.4459   -7.5087    0.0000 O   0  0  0  0  0  0  0  0  0  0  0  0
   14.1898   -2.5430    0.0000 O   0  0  0  0  0  0  0  0  0  0  0  0
    2.2872   -5.5074    0.0000 O   0  0  0  0  0  0  0  0  0  0  0  0
    4.6196   -5.4773    0.0000 C   0  0  0  0  0  0  0  0  0  0  0  0
   10.2925   -2.1367    0.0000 C   0  0  0  0  0  0  0  0  0  0  0  0
   13.7383   -0.2859    0.0000 C   0  0  0  0  0  0  0  0  0  0  0  0
    1.1587   -7.4936    0.0000 C   0  0  0  0  0  0  0  0  0  0  0  0
   15.0475    0.0000    0.0000 C   0  0  0  0  0  0  0  0  0  0  0  0
    0.0000   -6.8165    0.0000 C   0  0  0  0  0  0  0  0  0  0  0  0
   10.2925   -6.1544    0.0000 H   0  0  0  0  0  0  0  0  0  0  0  0
    9.1790   -4.1381    0.0000 H   0  0  0  0  0  0  0  0  0  0  0  0
    8.0353   -6.1544    0.0000 H   0  0  0  0  0  0  0  0  0  0  0  0
  1  2  1  0  0  0  0
  1  6  1  0  0  0  0
  1  8  1  0  0  0  0
  1 24  1  1  0  0  0
  2  3  1  0  0  0  0
  2 10  1  0  0  0  0
  2 29  1  6  0  0  0
  3 11  1  0  0  0  0
  3  4  1  0  0  0  0
  3 30  1  1  0  0  0
  4  9  1  0  0  0  0
  4  5  1  0  0  0  0
  4 31  1  6  0  0  0
  5  7  1  0  0  0  0
  5 13  2  0  0  0  0
  6 12  1  1  0  0  0
  6 18  1  0  0  0  0
  7 16  2  0  0  0  0
  7 17  1  0  0  0  0
  8  9  1  0  0  0  0
 10 18  1  0  0  0  0
 11 17  1  0  0  0  0
 12 14  1  0  0  0  0
 13 23  1  0  0  0  0
 14 21  2  0  0  0  0
 14 25  1  0  0  0  0
 15 20  1  0  0  0  0
 15 22  2  0  0  0  0
 15 26  1  0  0  0  0
 16 19  1  0  0  0  0
 19 23  2  0  0  0  0
 19 20  1  0  0  0  0
 25 27  1  0  0  0  0
 26 28  1  0  0  0  0
M  END
> <ID>
2700

> <Formula>
C24H32O4

> <FW>
384.5085

> <DSSTox_CID>
3000

> <DSSTox_RID>
76825

> <DSSTox_GSID>
23000

> <DSSTox_FileID_Sort>
1509

> <TS_ChemName>
Estradiol dipropionate

> <TS_ChemName_Synonyms>


> <TS_CASRN>
113-38-2

> <CASRN_ChemName_Relationship>
primary

> <TS_Description>
single chemical compound

> <ChemNote>
stereochem

> <STRUCTURE_Shown>
tested chemical

> <STRUCTURE_Formula>
C24H32O4

> <STRUCTURE_MW>
384.5085

> <STRUCTURE_ChemType>
defined organic

> <STRUCTURE_DefinedOrganicForm>
parent

> <STRUCTURE_IUPAC>
(17beta)-estra-1(10),2,4-triene-3,17-diyl dipropanoate

> <STRUCTURE_SMILES>
CCC(=O)Oc3cc4CC[C@@H]1[C@H](CC[C@]2(C)[C@H](CC[C@@H]12)OC(=O)CC)c4cc3

> <STRUCTURE_SMILES_Desalt>
CCC(=O)Oc3cc4CC[C@@H]1[C@H](CC[C@]2(C)[C@H](CC[C@@H]12)OC(=O)CC)c4cc3

> <Substance_modify_yyyymmdd>
20080429

$$$$
