113-18-8
ChemmineR-0915142007XD

  9  8  0  0  0  0  0  0  0  0  1 V2000
    2.6597   -1.9898    0.0000 C    0  0  0  0  0  0  0  0  0  0  0  0
    3.9895   -1.9898    0.0000 O    0  0  0  0  0  0  0  0  0  0  0  0
    2.6597   -3.3196    0.0000 C    0  0  0  0  0  0  0  0  0  0  0  0
    3.8109   -3.9895    0.0000 C    0  0  0  0  0  0  0  0  0  0  0  0
    4.9621   -3.3196    0.0000 Cl   0  0  0  0  0  0  0  0  0  0  0  0
    1.3298   -1.9898    0.0000 C    0  0  0  0  0  0  0  0  0  0  0  0
    0.0000   -1.9898    0.0000 C    0  0  0  0  0  0  0  0  0  0  0  0
    2.6597   -0.6600    0.0000 C    0  0  0  0  0  0  0  0  0  0  0  0
    3.8109    0.0000    0.0000 C    0  0  0  0  0  0  0  0  0  0  0  0
  1  2  1  0  0  0  0
  1  3  1  0  0  0  0
  1  6  1  0  0  0  0
  1  8  1  0  0  0  0
  3  4  2  0  0  0  0
  4  5  1  0  0  0  0
  6  7  3  0  0  0  0
  8  9  1  0  0  0  0
M  END
> <ID>
2709

> <Formula>
C7H9ClO

> <FW>
144.5988

> <DSSTox_CID>
3010

> <DSSTox_RID>
97545

> <DSSTox_GSID>
23010

> <DSSTox_FileID_Sort>
8319

> <TS_ChemName>
Ethchlorvynol

> <TS_ChemName_Synonyms>


> <TS_CASRN>
113-18-8

> <CASRN_ChemName_Relationship>
primary

> <TS_Description>
mixture or formulation

> <ChemNote>
mixture of Z,E isomers; structure shown Z; stereochem

> <STRUCTURE_Shown>
representative isomer in mixture

> <STRUCTURE_Formula>
C7H9ClO

> <STRUCTURE_MW>
144.5988

> <STRUCTURE_ChemType>
defined organic

> <STRUCTURE_DefinedOrganicForm>
parent

> <STRUCTURE_IUPAC>
(1Z)-1-chloro-3-ethylpent-1-en-4-yn-3-ol

> <STRUCTURE_SMILES>
C#CC(O)(/C=C\Cl)CC

> <STRUCTURE_SMILES_Desalt>
C#CC(O)(/C=C\Cl)CC

> <Substance_modify_yyyymmdd>
20080429

$$$$
