113-07-5
ChemmineR-0915142007XD

 29 31  0  0  0  0  0  0  0  0  1 V2000
    8.6324   -2.4664    0.0000 Cl   0  0  0  0  0  0  0  0  0  0  0  0
    3.9582   -3.8189    0.0000 C    0  0  0  0  0  0  0  0  0  0  0  0
    3.9582   -5.1416    0.0000 C    0  0  0  0  0  0  0  0  0  0  0  0
    5.1218   -5.8080    0.0000 C    0  0  0  0  0  0  0  0  0  0  0  0
    5.1218   -7.1307    0.0000 C    0  0  0  0  0  0  0  0  0  0  0  0
    3.9582   -7.8069    0.0000 C    0  0  0  0  0  0  0  0  0  0  0  0
    2.8045   -7.1307    0.0000 C    0  0  0  0  0  0  0  0  0  0  0  0
    2.8045   -5.8080    0.0000 C    0  0  0  0  0  0  0  0  0  0  0  0
    2.6454   -3.9582    0.0000 C    0  0  0  0  0  0  0  0  0  0  0  0
    2.0984   -5.1814    0.0000 C    0  0  0  0  0  0  0  0  0  0  0  0
    0.7857   -5.3107    0.0000 C    0  0  0  0  0  0  0  0  0  0  0  0
    0.0000   -4.2366    0.0000 C    0  0  0  0  0  0  0  0  0  0  0  0
    0.5271   -3.0333    0.0000 C    0  0  0  0  0  0  0  0  0  0  0  0
    1.8597   -2.8841    0.0000 C    0  0  0  0  0  0  0  0  0  0  0  0
    3.6897   -2.5161    0.0000 C    0  0  0  0  0  0  0  0  0  0  0  0
    2.4664   -1.9890    0.0000 O    0  0  0  0  0  0  0  0  0  0  0  0
    4.8433   -1.8597    0.0000 N    0  0  0  0  0  0  0  0  0  0  0  0
    4.9726   -0.5271    0.0000 C    0  0  0  0  0  0  0  0  0  0  0  0
    6.1958    0.0000    0.0000 C    0  0  0  0  0  0  0  0  0  0  0  0
    5.8179   -2.7548    0.0000 C    0  0  0  0  0  0  0  0  0  0  0  0
    5.2908   -3.9582    0.0000 C    0  0  0  0  0  0  0  0  0  0  0  0
    5.9472   -5.1118    0.0000 C    0  0  0  0  0  0  0  0  0  0  0  0
    7.2799   -5.1118    0.0000 C    0  0  0  0  0  0  0  0  0  0  0  0
    7.9362   -6.2555    0.0000 N    0  0  0  0  0  0  0  0  0  0  0  0
    9.2689   -6.2555    0.0000 C    0  0  0  0  0  0  0  0  0  0  0  0
    9.9452   -7.4091    0.0000 C    0  0  0  0  0  0  0  0  0  0  0  0
    9.2689   -8.5628    0.0000 O    0  0  0  0  0  0  0  0  0  0  0  0
    7.9362   -8.5628    0.0000 C    0  0  0  0  0  0  0  0  0  0  0  0
    7.2799   -7.4091    0.0000 C    0  0  0  0  0  0  0  0  0  0  0  0
  2  3  1  0  0  0  0
  2  9  1  0  0  0  0
  2 15  1  0  0  0  0
  2 21  1  0  0  0  0
  3  4  2  0  0  0  0
  3  8  1  0  0  0  0
  4  5  1  0  0  0  0
  5  6  2  0  0  0  0
  6  7  1  0  0  0  0
  7  8  2  0  0  0  0
  9 10  2  0  0  0  0
  9 14  1  0  0  0  0
 10 11  1  0  0  0  0
 11 12  2  0  0  0  0
 12 13  1  0  0  0  0
 13 14  2  0  0  0  0
 15 16  2  0  0  0  0
 15 17  1  0  0  0  0
 17 18  1  0  0  0  0
 17 20  1  0  0  0  0
 18 19  1  0  0  0  0
 20 21  1  0  0  0  0
 21 22  1  0  0  0  0
 22 23  1  0  0  0  0
 23 24  1  0  0  0  0
 24 25  1  0  0  0  0
 24 29  1  0  0  0  0
 25 26  1  0  0  0  0
 26 27  1  0  0  0  0
 27 28  1  0  0  0  0
 28 29  1  0  0  0  0
M  END
> <ID>
12915

> <Formula>
C24H31ClN2O2

> <FW>
414.9681 (36.4609+378.5072)

> <DSSTox_CID>
27815

> <DSSTox_RID>
82579

> <DSSTox_GSID>
47837

> <DSSTox_FileID_Sort>
7256

> <TS_ChemName>
Doxapram hydrochloride

> <TS_ChemName_Synonyms>


> <TS_CASRN>
113-07-5

> <CASRN_ChemName_Relationship>
primary

> <TS_Description>
single chemical compound

> <ChemNote>


> <STRUCTURE_Shown>
tested chemical

> <STRUCTURE_Formula>
C24H31ClN2O2

> <STRUCTURE_MW>
414.9681

> <STRUCTURE_ChemType>
defined organic

> <STRUCTURE_DefinedOrganicForm>
complex

> <STRUCTURE_IUPAC>
1-ethyl-4-[2-(morpholin-4-yl)ethyl]-3,3-diphenylpyrrolidin-2-one hydrochloride (1:1)

> <STRUCTURE_SMILES>
Cl.O=C4N(CC)CC(CCN1CCOCC1)C4(c2ccccc2)c3ccccc3

> <STRUCTURE_SMILES_Desalt>
O=C4N(CC)CC(CCN1CCOCC1)C4(c2ccccc2)c3ccccc3

> <Substance_modify_yyyymmdd>
20110808

$$$$
