113-73-5
ChemmineR-0915142007XD

 82 86  0  0  1  0  0  0  0  0  1 V2000
    5.9270   -5.7226    0.0000 N   0  0  0  0  0  0  0  0  0  0  0  0
   13.8568  -10.1576    0.0000 N   0  0  0  0  0  0  0  0  0  0  0  0
    4.6189   -5.7226    0.0000 C   0  0  0  0  0  0  0  0  0  0  0  0
   14.4700   -8.9722    0.0000 C   0  0  0  0  0  0  0  0  0  0  0  0
    9.8715   -3.3927    0.0000 N   0  0  0  0  0  0  0  0  0  0  0  0
    9.8715  -12.4262    0.0000 N   0  0  0  0  0  0  0  0  0  0  0  0
    8.5839   -3.3927    0.0000 C   0  0  0  0  0  0  0  0  0  0  0  0
   10.5255  -11.3021    0.0000 C   0  0  0  0  0  0  0  0  0  0  0  0
   11.8539   -2.2686    0.0000 C   0  0  0  0  0  0  0  0  0  0  0  0
    7.9503  -11.3021    0.0000 C   0  0  0  0  0  0  0  0  0  0  0  0
    4.6189   -7.9707    0.0000 N   0  0  0  0  0  0  0  0  0  0  0  0
   16.4729   -7.9707    0.0000 N   0  0  0  0  0  0  0  0  0  0  0  0
    3.9445  -11.3021    0.0000 N   0  0  0  0  0  0  0  0  0  0  0  0
   15.7780   -4.5372    0.0000 N   0  0  0  0  0  0  0  0  0  0  0  0
   12.5079   -3.3927    0.0000 N   0  0  0  0  0  0  0  0  0  0  0  0
    6.6219  -11.3021    0.0000 N   0  0  0  0  0  0  0  0  0  0  0  0
   15.7780   -8.9722    0.0000 C   0  0  0  0  0  0  0  0  0  0  0  0
    3.9445   -6.8262    0.0000 C   0  0  0  0  0  0  0  0  0  0  0  0
   15.7780   -6.8262    0.0000 C   0  0  0  0  0  0  0  0  0  0  0  0
    3.9445   -8.9722    0.0000 C   0  0  0  0  0  0  0  0  0  0  0  0
   14.4700   -4.5372    0.0000 C   0  0  0  0  0  0  0  0  0  0  0  0
    4.6189  -12.4262    0.0000 C   0  0  0  0  0  0  0  0  0  0  0  0
    7.9503   -4.5372    0.0000 C   0  0  0  0  0  0  0  0  0  0  0  0
   11.8539  -11.3021    0.0000 C   0  0  0  0  0  0  0  0  0  0  0  0
   10.5255   -2.2686    0.0000 C   0  0  0  0  0  0  0  0  0  0  0  0
    8.5839  -12.4262    0.0000 C   0  0  0  0  0  0  0  0  0  0  0  0
   16.4729   -5.7226    0.0000 C   0  0  0  0  0  0  0  0  0  0  0  0
    4.6189  -10.1576    0.0000 C   0  0  0  0  0  0  0  0  0  0  0  0
   13.8568   -3.3927    0.0000 C   0  0  0  0  0  0  0  0  0  0  0  0
    5.9270  -12.4262    0.0000 C   0  0  0  0  0  0  0  0  0  0  0  0
   13.8568   -7.9707    0.0000 O   0  0  0  0  0  0  0  0  0  0  0  0
    3.9445   -4.5372    0.0000 O   0  0  0  0  0  0  0  0  0  0  0  0
    9.8715  -10.1576    0.0000 O   0  0  0  0  0  0  0  0  0  0  0  0
    7.9094   -2.2686    0.0000 O   0  0  0  0  0  0  0  0  0  0  0  0
    8.5839  -10.1576    0.0000 O   0  0  0  0  0  0  0  0  0  0  0  0
   12.5079   -1.1036    0.0000 O   0  0  0  0  0  0  0  0  0  0  0  0
   16.4729  -10.1576    0.0000 C   0  0  0  0  0  0  0  0  0  0  0  0
    2.6569   -6.8262    0.0000 C   0  0  0  0  0  0  0  0  0  0  0  0
   14.4700   -6.8262    0.0000 O   0  0  0  0  0  0  0  0  0  0  0  0
    2.6569   -8.9722    0.0000 O   0  0  0  0  0  0  0  0  0  0  0  0
    3.9445  -13.5298    0.0000 O   0  0  0  0  0  0  0  0  0  0  0  0
   13.8568   -5.7226    0.0000 O   0  0  0  0  0  0  0  0  0  0  0  0
   17.7809   -5.7226    0.0000 C   0  0  0  0  0  0  0  0  0  0  0  0
    5.9270  -10.1576    0.0000 C   0  0  0  0  0  0  0  0  0  0  0  0
    6.6219   -6.8262    0.0000 C   0  0  0  0  0  0  0  0  0  0  0  0
   14.4700  -11.3021    0.0000 C   0  0  0  0  0  0  0  0  0  0  0  0
    9.8715   -1.1036    0.0000 C   0  0  0  0  0  0  0  0  0  0  0  0
    7.9707  -13.5707    0.0000 C   0  0  0  0  0  0  0  0  0  0  0  0
   17.7809  -10.1576    0.0000 C   0  0  0  0  0  0  0  0  0  0  0  0
    2.0029   -5.7226    0.0000 C   0  0  0  0  0  0  0  0  0  0  0  0
    7.9503  -15.7780    0.0000 N   0  0  0  0  0  0  0  0  0  0  0  0
   15.8189    0.0000    0.0000 N   0  0  0  0  0  0  0  0  0  0  0  0
   12.5079  -12.4262    0.0000 C   0  0  0  0  0  0  0  0  0  0  0  0
    8.5839   -5.7226    0.0000 C   0  0  0  0  0  0  0  0  0  0  0  0
    7.9503   -6.8262    0.0000 C   0  0  0  0  0  0  0  0  0  0  0  0
   13.8568  -12.4262    0.0000 C   0  0  0  0  0  0  0  0  0  0  0  0
   14.4700   -2.2686    0.0000 C   0  0  0  0  0  0  0  0  0  0  0  0
    6.6219  -13.5298    0.0000 C   0  0  0  0  0  0  0  0  0  0  0  0
   18.4758   -4.5372    0.0000 C   0  0  0  0  0  0  0  0  0  0  0  0
    6.6219   -8.9722    0.0000 C   0  0  0  0  0  0  0  0  0  0  0  0
    6.6627  -15.7780    0.0000 C   0  0  0  0  0  0  0  0  0  0  0  0
   16.5138   -1.1036    0.0000 C   0  0  0  0  0  0  0  0  0  0  0  0
   10.4642    0.0000    0.0000 C   0  0  0  0  0  0  0  0  0  0  0  0
    8.6861  -14.6335    0.0000 C   0  0  0  0  0  0  0  0  0  0  0  0
    7.3781  -13.5707    0.0000 C   0  0  0  0  0  0  0  0  0  0  0  0
    8.5839   -1.1036    0.0000 C   0  0  0  0  0  0  0  0  0  0  0  0
   18.4758   -8.9722    0.0000 C   0  0  0  0  0  0  0  0  0  0  0  0
    0.6540   -5.7226    0.0000 C   0  0  0  0  0  0  0  0  0  0  0  0
   18.4758  -11.3021    0.0000 C   0  0  0  0  0  0  0  0  0  0  0  0
    2.6569   -4.5372    0.0000 C   0  0  0  0  0  0  0  0  0  0  0  0
   15.7780   -2.2686    0.0000 C   0  0  0  0  0  0  0  0  0  0  0  0
    5.9270  -14.6948    0.0000 C   0  0  0  0  0  0  0  0  0  0  0  0
   19.8042   -4.5372    0.0000 C   0  0  0  0  0  0  0  0  0  0  0  0
   17.7809   -3.3927    0.0000 C   0  0  0  0  0  0  0  0  0  0  0  0
    6.4583   -7.6846    0.0000 C   0  0  0  0  0  0  0  0  0  0  0  0
    7.9503   -8.9722    0.0000 C   0  0  0  0  0  0  0  0  0  0  0  0
    2.0029   -3.3927    0.0000 C   0  0  0  0  0  0  0  0  0  0  0  0
   19.8042  -11.3021    0.0000 C   0  0  0  0  0  0  0  0  0  0  0  0
   19.8042   -8.9722    0.0000 C   0  0  0  0  0  0  0  0  0  0  0  0
    0.0000   -4.5372    0.0000 C   0  0  0  0  0  0  0  0  0  0  0  0
    0.6540   -3.3927    0.0000 C   0  0  0  0  0  0  0  0  0  0  0  0
   20.4378  -10.1576    0.0000 C   0  0  0  0  0  0  0  0  0  0  0  0
  1  3  1  0  0  0  0
 23  1  1  6  0  0  0
  1 45  1  0  0  0  0
  2  4  1  0  0  0  0
  2 46  1  0  0  0  0
 24  2  1  1  0  0  0
  3 18  1  0  0  0  0
  3 32  2  0  0  0  0
  4 17  1  0  0  0  0
  4 31  2  0  0  0  0
 25  5  1  1  0  0  0
  5  7  1  0  0  0  0
 26  6  1  1  0  0  0
  6  8  1  0  0  0  0
  7 23  1  0  0  0  0
  7 34  2  0  0  0  0
  8 24  1  0  0  0  0
  8 33  2  0  0  0  0
  9 25  1  0  0  0  0
  9 15  1  0  0  0  0
  9 36  2  0  0  0  0
 10 16  1  0  0  0  0
 10 26  1  0  0  0  0
 10 35  2  0  0  0  0
 18 11  1  6  0  0  0
 11 20  1  0  0  0  0
 12 19  1  0  0  0  0
 17 12  1  6  0  0  0
 28 13  1  6  0  0  0
 13 22  1  0  0  0  0
 14 21  1  0  0  0  0
 27 14  1  1  0  0  0
 29 15  1  1  0  0  0
 30 16  1  1  0  0  0
 17 37  1  0  0  0  0
 18 38  1  0  0  0  0
 19 27  1  0  0  0  0
 19 39  2  0  0  0  0
 20 28  1  0  0  0  0
 20 40  2  0  0  0  0
 21 29  1  0  0  0  0
 21 42  2  0  0  0  0
 22 30  1  0  0  0  0
 22 41  2  0  0  0  0
 23 54  1  0  0  0  0
 24 53  1  0  0  0  0
 25 47  1  0  0  0  0
 26 48  1  0  0  0  0
 27 43  1  0  0  0  0
 28 44  1  0  0  0  0
 29 57  1  0  0  0  0
 30 58  1  0  0  0  0
 37 49  1  0  0  0  0
 38 50  1  0  0  0  0
 43 59  1  0  0  0  0
 44 60  1  0  0  0  0
 45 55  1  0  0  0  0
 46 56  1  0  0  0  0
 47 63  1  0  0  0  0
 47 66  1  0  0  0  0
 48 64  1  0  0  0  0
 48 65  1  0  0  0  0
 49 67  2  0  0  0  0
 49 69  1  0  0  0  0
 50 68  2  0  0  0  0
 50 70  1  0  0  0  0
 51 61  1  0  0  0  0
 52 62  1  0  0  0  0
 53 56  1  0  0  0  0
 54 55  1  0  0  0  0
 57 71  1  0  0  0  0
 58 72  1  0  0  0  0
 59 73  1  0  0  0  0
 59 74  1  0  0  0  0
 60 75  1  0  0  0  0
 60 76  1  0  0  0  0
 61 72  1  0  0  0  0
 62 71  1  0  0  0  0
 67 79  1  0  0  0  0
 68 80  1  0  0  0  0
 69 78  2  0  0  0  0
 70 77  2  0  0  0  0
 77 81  1  0  0  0  0
 78 82  1  0  0  0  0
 79 82  2  0  0  0  0
 80 81  2  0  0  0  0
M  END
> <ID>
11352

> <Formula>
C60H92N12O10

> <FW>
1141.4469

> <DSSTox_CID>
26008

> <DSSTox_RID>
81284

> <DSSTox_GSID>
46008

> <DSSTox_FileID_Sort>
5965

> <TS_ChemName>
Gramicidin S

> <TS_ChemName_Synonyms>


> <TS_CASRN>
113-73-5

> <CASRN_ChemName_Relationship>
primary

> <TS_Description>
single chemical compound

> <ChemNote>
stereochem

> <STRUCTURE_Shown>
tested chemical

> <STRUCTURE_Formula>
C60H92N12O10

> <STRUCTURE_MW>
1141.4469

> <STRUCTURE_ChemType>
defined organic

> <STRUCTURE_DefinedOrganicForm>
parent

> <STRUCTURE_IUPAC>
cyclo(L-leucyl-D-phenylalanyl-L-prolyl-L-valyl-L-ornithyl-L-leucyl-D-phenylalanyl-L-prolyl-L-valyl-L-ornithyl)

> <STRUCTURE_SMILES>
CC(C)C[C@@H]5NC(=O)[C@H](CCCN)NC(=O)[C@@H](NC(=O)[C@@H]1CCCN1C(=O)[C@@H](Cc2ccccc2)NC(=O)[C@H](CC(C)C)NC(=O)[C@H](CCCN)NC(=O)[C@@H](NC(=O)[C@@H]3CCCN3C(=O)[C@@H](Cc4ccccc4)NC5=O)C(C)C)C(C)C

> <STRUCTURE_SMILES_Desalt>
CC(C)C[C@@H]5NC(=O)[C@H](CCCN)NC(=O)[C@@H](NC(=O)[C@@H]1CCCN1C(=O)[C@@H](Cc2ccccc2)NC(=O)[C@H](CC(C)C)NC(=O)[C@H](CCCN)NC(=O)[C@@H](NC(=O)[C@@H]3CCCN3C(=O)[C@@H](Cc4ccccc4)NC5=O)C(C)C)C(C)C

> <Substance_modify_yyyymmdd>
20110824

$$$$
