113-48-4
ChemmineR-0915142007XD

 20 22  0  0  0  0  0  0  0  0  1 V2000
    4.1001   -4.4894    0.0000 O   0  0  0  0  0  0  0  0  0  0  0  0
    3.7191   -3.2718    0.0000 C   0  0  0  0  0  0  0  0  0  0  0  0
    2.5015   -2.8908    0.0000 C   0  0  0  0  0  0  0  0  0  0  0  0
    2.5015   -1.6152    0.0000 C   0  0  0  0  0  0  0  0  0  0  0  0
    1.3998   -0.9691    0.0000 C   0  0  0  0  0  0  0  0  0  0  0  0
    0.9360   -0.0497    0.0000 C   0  0  0  0  0  0  0  0  0  0  0  0
    1.3998   -2.2281    0.0000 C   0  0  0  0  0  0  0  0  0  0  0  0
    0.0000   -2.7997    0.0000 C   0  0  0  0  0  0  0  0  0  0  0  0
    0.0000   -1.5241    0.0000 C   0  0  0  0  0  0  0  0  0  0  0  0
    3.7191   -1.2176    0.0000 C   0  0  0  0  0  0  0  0  0  0  0  0
    4.1001    0.0000    0.0000 O   0  0  0  0  0  0  0  0  0  0  0  0
    4.4563   -2.2447    0.0000 N   0  0  0  0  0  0  0  0  0  0  0  0
    5.7319   -2.2447    0.0000 C   0  0  0  0  0  0  0  0  0  0  0  0
    6.3780   -3.3546    0.0000 C   0  0  0  0  0  0  0  0  0  0  0  0
    5.7319   -4.4563    0.0000 C   0  0  0  0  0  0  0  0  0  0  0  0
    6.3780   -5.5662    0.0000 C   0  0  0  0  0  0  0  0  0  0  0  0
    5.7319   -6.6679    0.0000 C   0  0  0  0  0  0  0  0  0  0  0  0
    6.3780   -7.7778    0.0000 C   0  0  0  0  0  0  0  0  0  0  0  0
    7.6535   -3.3546    0.0000 C   0  0  0  0  0  0  0  0  0  0  0  0
    8.2831   -2.2447    0.0000 C   0  0  0  0  0  0  0  0  0  0  0  0
  1  2  2  0  0  0  0
  2  3  1  0  0  0  0
  2 12  1  0  0  0  0
  3  4  1  0  0  0  0
  3  7  1  0  0  0  0
  4  5  1  0  0  0  0
  4 10  1  0  0  0  0
  5  6  1  0  0  0  0
  5  9  1  0  0  0  0
  6  7  1  0  0  0  0
  7  8  1  0  0  0  0
  8  9  2  0  0  0  0
 10 11  2  0  0  0  0
 10 12  1  0  0  0  0
 12 13  1  0  0  0  0
 13 14  1  0  0  0  0
 14 15  1  0  0  0  0
 14 19  1  0  0  0  0
 15 16  1  0  0  0  0
 16 17  1  0  0  0  0
 17 18  1  0  0  0  0
 19 20  1  0  0  0  0
M  END
> <ID>
6521

> <Formula>
C17H25NO2

> <FW>
275.3859

> <DSSTox_CID>
12562

> <DSSTox_RID>
78988

> <DSSTox_GSID>
32562

> <DSSTox_FileID_Sort>
3670

> <TS_ChemName>
MGK-264

> <TS_ChemName_Synonyms>
MGK-264 (MGK) (4,7-Methano-1H-isoindole-1,3(2H)-dione, 2-(2-ethylhexyl)-3a,4,7,7a-tetrahydro-)

> <TS_CASRN>
113-48-4

> <CASRN_ChemName_Relationship>
primary

> <TS_Description>
single chemical compound

> <ChemNote>
stereochem

> <STRUCTURE_Shown>
tested chemical

> <STRUCTURE_Formula>
C17H25NO2

> <STRUCTURE_MW>
275.3859

> <STRUCTURE_ChemType>
defined organic

> <STRUCTURE_DefinedOrganicForm>
parent

> <STRUCTURE_IUPAC>
2-(2-ethylhexyl)-3a,4,7,7a-tetrahydro-1H-4,7-methanoisoindole-1,3(2H)-dione

> <STRUCTURE_SMILES>
CCC(CCCC)CN3C(=O)C2C1CC(C=C1)C2C3=O

> <STRUCTURE_SMILES_Desalt>
CCC(CCCC)CN3C(=O)C2C1CC(C=C1)C2C3=O

> <Substance_modify_yyyymmdd>
20080429

$$$$
