113-98-4
ChemmineR-0915142007XD

 26 27  0  0  1  0  0  0  0  0  2 V2000
    8.5112   -3.9093    0.0000 N   0  0  0  0  0  0  0  0  0  0  0  0
    8.5112   -2.5710    0.0000 C   0  0  0  0  0  0  0  0  0  0  0  0
    7.1847   -3.9093    0.0000 C   0  0  0  0  0  0  0  0  0  0  0  0
    7.1847   -2.5710    0.0000 C   0  0  0  0  0  0  0  0  0  0  0  0
    9.7791   -4.3202    0.0000 C   0  0  0  0  0  0  0  0  0  0  0  0
    9.7791   -2.1484    0.0000 S   0  0  0  0  0  0  0  0  0  0  0  0
   10.5774   -3.2519    0.0000 C   0  0  0  0  0  0  0  0  0  0  0  0
    5.5294   -2.5710    0.0000 N   0  0  0  0  0  0  0  0  0  0  0  0
   10.2017   -5.6115    0.0000 C   0  0  0  0  0  0  0  0  0  0  0  0
    4.4141   -1.9253    0.0000 C   0  0  0  0  0  0  0  0  0  0  0  0
    6.2103   -4.8485    0.0000 O   0  0  0  0  0  0  0  0  0  0  0  0
    9.2978   -6.5977    0.0000 O   0  5  0  0  0  0  0  0  0  0  0  0
   11.5166   -5.8816    0.0000 O   0  0  0  0  0  0  0  0  0  0  0  0
    4.4141   -0.6339    0.0000 O   0  0  0  0  0  0  0  0  0  0  0  0
    3.3106   -2.5710    0.0000 C   0  0  0  0  0  0  0  0  0  0  0  0
   11.7396   -2.5710    0.0000 C   0  0  0  0  0  0  0  0  0  0  0  0
   11.7396   -3.9093    0.0000 C   0  0  0  0  0  0  0  0  0  0  0  0
    2.2188   -1.9253    0.0000 C   0  0  0  0  0  0  0  0  0  0  0  0
    1.1035   -2.5710    0.0000 C   0  0  0  0  0  0  0  0  0  0  0  0
    2.2188   -0.6339    0.0000 C   0  0  0  0  0  0  0  0  0  0  0  0
    1.1035    0.0000    0.0000 C   0  0  0  0  0  0  0  0  0  0  0  0
    0.0000   -1.9253    0.0000 C   0  0  0  0  0  0  0  0  0  0  0  0
    0.0000   -0.6339    0.0000 C   0  0  0  0  0  0  0  0  0  0  0  0
    7.1847   -1.2444    0.0000 H   0  0  0  0  0  0  0  0  0  0  0  0
    8.5112   -1.2444    0.0000 H   0  0  0  0  0  0  0  0  0  0  0  0
    8.1943   -6.5977    0.0000 K   0  3  0  0  0  0  0  0  0  0  0  0
  1  2  1  0  0  0  0
  1  3  1  0  0  0  0
  1  5  1  0  0  0  0
  2  6  1  0  0  0  0
  2  4  1  0  0  0  0
  2 25  1  6  0  0  0
  3  4  1  0  0  0  0
  3 11  2  0  0  0  0
  4  8  1  1  0  0  0
  4 24  1  6  0  0  0
  5  7  1  0  0  0  0
  5  9  1  6  0  0  0
  6  7  1  0  0  0  0
  7 16  1  0  0  0  0
  7 17  1  0  0  0  0
  8 10  1  0  0  0  0
  9 12  1  0  0  0  0
  9 13  2  0  0  0  0
 10 14  2  0  0  0  0
 10 15  1  0  0  0  0
 15 18  1  0  0  0  0
 18 19  2  0  0  0  0
 18 20  1  0  0  0  0
 19 22  1  0  0  0  0
 20 21  2  0  0  0  0
 21 23  1  0  0  0  0
 22 23  2  0  0  0  0
M  END
> <ID>
10742

> <Formula>
C16H17KN2O4S

> <FW>
372.4805 (333.3827+39.0978)

> <DSSTox_CID>
25106

> <DSSTox_RID>
80673

> <DSSTox_GSID>
45106

> <DSSTox_FileID_Sort>
5355

> <TS_ChemName>
Penicillin G potassium

> <TS_ChemName_Synonyms>


> <TS_CASRN>
113-98-4

> <CASRN_ChemName_Relationship>
primary

> <TS_Description>
single chemical compound

> <ChemNote>
stereochem; parent [61-33-6]

> <STRUCTURE_Shown>
tested chemical

> <STRUCTURE_Formula>
C16H17KN2O4S

> <STRUCTURE_MW>
372.4805

> <STRUCTURE_ChemType>
defined organic

> <STRUCTURE_DefinedOrganicForm>
salt

> <STRUCTURE_IUPAC>
potassium (2S,5R,6R)-3,3-dimethyl-7-oxo-6-[(phenylacetyl)amino]-4-thia-1-azabicyclo[3.2.0]heptane-2-carboxylate

> <STRUCTURE_SMILES>
[K+].O=C([O-])[C@@H]2N3C(=O)[C@@H](NC(=O)Cc1ccccc1)[C@H]3SC2(C)C

> <STRUCTURE_SMILES_Desalt>
OC(=O)[C@@H]2N3C(=O)[C@@H](NC(=O)Cc1ccccc1)[C@H]3SC2(C)C

> <Substance_modify_yyyymmdd>
20100107

$$$$
