113-79-1
ChemmineR-0915142007XD

 75 78  0  0  1  0  0  0  0  0  1 V2000
    6.9006  -12.8508    0.0000 N   0  0  0  0  0  0  0  0  0  0  0  0
    8.0369  -12.1483    0.0000 C   0  0  0  0  0  0  0  0  0  0  0  0
    9.1939  -12.7888    0.0000 O   0  0  0  0  0  0  0  0  0  0  0  0
    8.0369  -10.8260    0.0000 C   0  0  0  0  0  0  0  0  0  0  0  0
    9.1319  -10.0409    0.0000 N   0  0  0  0  0  0  0  0  0  0  0  0
    8.6980   -8.7807    0.0000 C   0  0  0  0  0  0  0  0  0  0  0  0
    7.3551   -8.7807    0.0000 C   0  0  0  0  0  0  0  0  0  0  0  0
    6.9419  -10.0409    0.0000 C   0  0  0  0  0  0  0  0  0  0  0  0
   10.2889  -10.6401    0.0000 C   0  0  0  0  0  0  0  0  0  0  0  0
   11.4458   -9.9996    0.0000 C   0  0  0  0  0  0  0  0  0  0  0  0
   10.2889  -12.0037    0.0000 O   0  0  0  0  0  0  0  0  0  0  0  0
   12.5822  -10.6401    0.0000 N   0  0  0  0  0  0  0  0  0  0  0  0
   10.2889   -7.9956    0.0000 S   0  0  0  0  0  0  0  0  0  0  0  0
   11.4458   -8.6774    0.0000 C   0  0  0  0  0  0  0  0  0  0  0  0
   14.8961  -12.0037    0.0000 C   0  0  0  0  0  0  0  0  0  0  0  0
   13.7392   -9.9996    0.0000 C   0  0  0  0  0  0  0  0  0  0  0  0
   13.7392  -12.6441    0.0000 C   0  0  0  0  0  0  0  0  0  0  0  0
   14.8961  -10.6401    0.0000 C   0  0  0  0  0  0  0  0  0  0  0  0
   13.7392   -8.6774    0.0000 O   0  0  0  0  0  0  0  0  0  0  0  0
   12.5822  -12.0037    0.0000 O   0  0  0  0  0  0  0  0  0  0  0  0
   13.7392  -14.0077    0.0000 N   0  0  0  0  0  0  0  0  0  0  0  0
   16.0531   -9.9996    0.0000 N   0  0  0  0  0  0  0  0  0  0  0  0
   16.0531   -8.6774    0.0000 C   0  0  0  0  0  0  0  0  0  0  0  0
   19.5034  -10.6401    0.0000 C   0  0  0  0  0  0  0  0  0  0  0  0
   14.8961   -7.9956    0.0000 O   0  0  0  0  0  0  0  0  0  0  0  0
   17.1894   -7.9956    0.0000 C   0  0  0  0  0  0  0  0  0  0  0  0
   20.6604   -9.9996    0.0000 O   0  0  0  0  0  0  0  0  0  0  0  0
   18.3464   -8.6774    0.0000 C   0  0  0  0  0  0  0  0  0  0  0  0
   18.3464   -9.9996    0.0000 C   0  0  0  0  0  0  0  0  0  0  0  0
   19.5034  -12.0037    0.0000 N   0  0  0  0  0  0  0  0  0  0  0  0
   17.1894   -6.6526    0.0000 N   0  0  0  0  0  0  0  0  0  0  0  0
   16.0531   -6.0122    0.0000 C   0  0  0  0  0  0  0  0  0  0  0  0
   16.0531   -4.6692    0.0000 C   0  0  0  0  0  0  0  0  0  0  0  0
   14.8961   -6.6526    0.0000 O   0  0  0  0  0  0  0  0  0  0  0  0
   17.1894   -4.0081    0.0000 C   0  0  0  0  0  0  0  0  0  0  0  0
   14.8961   -4.0081    0.0000 N   0  0  0  0  0  0  0  0  0  0  0  0
   18.3464   -4.6692    0.0000 C   0  0  0  0  0  0  0  0  0  0  0  0
   19.5034   -4.0081    0.0000 C   0  0  0  0  0  0  0  0  0  0  0  0
   18.3464   -6.0122    0.0000 C   0  0  0  0  0  0  0  0  0  0  0  0
   19.5034   -6.6526    0.0000 C   0  0  0  0  0  0  0  0  0  0  0  0
   20.6604   -4.6692    0.0000 C   0  0  0  0  0  0  0  0  0  0  0  0
   20.6604   -6.0122    0.0000 C   0  0  0  0  0  0  0  0  0  0  0  0
   13.7392   -4.6692    0.0000 C   0  0  0  0  0  0  0  0  0  0  0  0
   13.7392   -6.0122    0.0000 O   0  0  0  0  0  0  0  0  0  0  0  0
   12.5822   -4.0081    0.0000 C   0  0  0  0  0  0  0  0  0  0  0  0
   12.5822   -2.6652    0.0000 C   0  0  0  0  0  0  0  0  0  0  0  0
   11.4458   -4.6692    0.0000 N   0  0  0  0  0  0  0  0  0  0  0  0
   13.7392   -2.0041    0.0000 C   0  0  0  0  0  0  0  0  0  0  0  0
   13.7392   -0.6818    0.0000 C   0  0  0  0  0  0  0  0  0  0  0  0
   14.8961   -2.6652    0.0000 C   0  0  0  0  0  0  0  0  0  0  0  0
   16.0531   -2.0041    0.0000 C   0  0  0  0  0  0  0  0  0  0  0  0
   16.0531   -0.6818    0.0000 C   0  0  0  0  0  0  0  0  0  0  0  0
   14.8961    0.0000    0.0000 C   0  0  0  0  0  0  0  0  0  0  0  0
   17.1894    0.0000    0.0000 O   0  0  0  0  0  0  0  0  0  0  0  0
   10.2889   -4.0081    0.0000 C   0  0  0  0  0  0  0  0  0  0  0  0
    9.1319   -4.6692    0.0000 C   0  0  0  0  0  0  0  0  0  0  0  0
   10.2889   -2.6652    0.0000 O   0  0  0  0  0  0  0  0  0  0  0  0
    7.9749   -4.0081    0.0000 N   0  0  0  0  0  0  0  0  0  0  0  0
   10.2889   -6.6526    0.0000 S   0  0  0  0  0  0  0  0  0  0  0  0
    9.1319   -6.0122    0.0000 C   0  0  0  0  0  0  0  0  0  0  0  0
   11.5078  -14.1524    0.0000 C   0  0  0  0  0  0  0  0  0  0  0  0
   11.5078  -12.8508    0.0000 O   0  0  0  0  0  0  0  0  0  0  0  0
    9.1939  -14.1730    0.0000 N   0  0  0  0  0  0  0  0  0  0  0  0
   10.3508  -14.8135    0.0000 C   0  0  0  0  0  0  0  0  0  0  0  0
   12.6648  -14.8135    0.0000 N   0  0  0  0  0  0  0  0  0  0  0  0
    1.1157  -14.8135    0.0000 C   0  0  0  0  0  0  0  0  0  0  0  0
    8.0575  -14.8135    0.0000 C   0  0  0  0  0  0  0  0  0  0  0  0
    0.0000  -14.1730    0.0000 N   0  0  0  0  0  0  0  0  0  0  0  0
    8.0575  -16.1564    0.0000 O   0  0  0  0  0  0  0  0  0  0  0  0
    2.2726  -14.1730    0.0000 N   0  0  0  0  0  0  0  0  0  0  0  0
    6.9006  -14.1730    0.0000 C   0  0  0  0  0  0  0  0  0  0  0  0
    1.1157  -16.1564    0.0000 N   0  0  0  0  0  0  0  0  0  0  0  0
    3.4296  -14.8135    0.0000 C   0  0  0  0  0  0  0  0  0  0  0  0
    5.7436  -14.8135    0.0000 C   0  0  0  0  0  0  0  0  0  0  0  0
    4.5866  -14.1730    0.0000 C   0  0  0  0  0  0  0  0  0  0  0  0
  1  2  1  0  0  0  0
 71  1  1  6  0  0  0
  2  3  2  0  0  0  0
  2  4  1  0  0  0  0
  4  5  1  6  0  0  0
  4  8  1  0  0  0  0
  5  6  1  0  0  0  0
  5  9  1  0  0  0  0
  6  7  1  0  0  0  0
  7  8  1  0  0  0  0
  9 10  1  0  0  0  0
  9 11  2  0  0  0  0
 10 12  1  6  0  0  0
 10 14  1  0  0  0  0
 12 16  1  0  0  0  0
 13 14  1  0  0  0  0
 13 59  1  0  0  0  0
 15 17  1  0  0  0  0
 15 18  1  0  0  0  0
 16 18  1  0  0  0  0
 16 19  2  0  0  0  0
 17 20  2  0  0  0  0
 17 21  1  0  0  0  0
 18 22  1  1  0  0  0
 22 23  1  0  0  0  0
 23 25  2  0  0  0  0
 23 26  1  0  0  0  0
 24 29  1  0  0  0  0
 24 27  2  0  0  0  0
 24 30  1  0  0  0  0
 26 28  1  0  0  0  0
 26 31  1  1  0  0  0
 28 29  1  0  0  0  0
 31 32  1  0  0  0  0
 32 33  1  0  0  0  0
 32 34  2  0  0  0  0
 33 35  1  0  0  0  0
 33 36  1  1  0  0  0
 35 37  1  0  0  0  0
 36 43  1  0  0  0  0
 37 38  2  0  0  0  0
 37 39  1  0  0  0  0
 38 41  1  0  0  0  0
 39 40  2  0  0  0  0
 40 42  1  0  0  0  0
 41 42  2  0  0  0  0
 43 44  2  0  0  0  0
 43 45  1  0  0  0  0
 45 46  1  0  0  0  0
 45 47  1  1  0  0  0
 46 48  1  0  0  0  0
 47 55  1  0  0  0  0
 48 49  2  0  0  0  0
 48 50  1  0  0  0  0
 49 53  1  0  0  0  0
 50 51  2  0  0  0  0
 51 52  1  0  0  0  0
 52 53  2  0  0  0  0
 52 54  1  0  0  0  0
 55 56  1  0  0  0  0
 55 57  2  0  0  0  0
 56 58  1  6  0  0  0
 56 60  1  0  0  0  0
 59 60  1  0  0  0  0
 61 62  2  0  0  0  0
 61 64  1  0  0  0  0
 61 65  1  0  0  0  0
 63 64  1  0  0  0  0
 63 67  1  0  0  0  0
 66 68  2  0  0  0  0
 66 70  1  0  0  0  0
 66 72  1  0  0  0  0
 67 71  1  0  0  0  0
 67 69  2  0  0  0  0
 70 73  1  0  0  0  0
 71 74  1  0  0  0  0
 73 75  1  0  0  0  0
 74 75  1  0  0  0  0
M  END
> <ID>
13406

> <Formula>
C46H65N15O12S2

> <FW>
1084.2316

> <DSSTox_CID>
28324

> <DSSTox_RID>
82752

> <DSSTox_GSID>
48349

> <DSSTox_FileID_Sort>
7429

> <TS_ChemName>
Argipressin

> <TS_ChemName_Synonyms>


> <TS_CASRN>
113-79-1

> <CASRN_ChemName_Relationship>
primary

> <TS_Description>
single chemical compound

> <ChemNote>
sterochem; tautomers

> <STRUCTURE_Shown>
tested chemical

> <STRUCTURE_Formula>
C46H65N15O12S2

> <STRUCTURE_MW>
1084.2316

> <STRUCTURE_ChemType>
defined organic

> <STRUCTURE_DefinedOrganicForm>
parent

> <STRUCTURE_IUPAC>
1-{[(4R,7S,10S,13S,16S,19R)-19-amino-7-(2-amino-2-oxoethyl)-10-(3-amino-3-oxopropyl)-13-benzyl-16-(4-hydroxybenzyl)-6,9,12,15,18-pentaoxo-1,2-dithia-5,8,11,14,17-pentaazacycloicosan-4-yl]carbonyl}-L-prolyl-L-arginylglycinamide

> <STRUCTURE_SMILES>
NC(=O)CNC(=O)[C@H](CCCNC(=N)N)NC(=O)[C@@H]1CCCN1C(=O)[C@@H]4CSSC[C@H](N)C(=O)N[C@@H](Cc2ccc(O)cc2)C(=O)N[C@@H](Cc3ccccc3)C(=O)N[C@@H](CCC(N)=O)C(=O)N[C@@H](CC(N)=O)C(=O)N4

> <STRUCTURE_SMILES_Desalt>
NC(=O)CNC(=O)[C@H](CCCNC(=N)N)NC(=O)[C@@H]1CCCN1C(=O)[C@@H]4CSSC[C@H](N)C(=O)N[C@@H](Cc2ccc(O)cc2)C(=O)N[C@@H](Cc3ccccc3)C(=O)N[C@@H](CCC(N)=O)C(=O)N[C@@H](CC(N)=O)C(=O)N4

> <Substance_modify_yyyymmdd>
20110809

$$$$
