113-92-8
ChemmineR-0915142007XD

 29 29  0  0  0  0  0  0  0  0  2 V2000
    1.1564    0.0000    0.0000 C    0  0  0  0  0  0  0  0  0  0  0  0
    2.3013   -0.6640    0.0000 N    0  3  0  0  0  0  0  0  0  0  0  0
    2.3013   -1.9921    0.0000 C    0  0  0  0  0  0  0  0  0  0  0  0
    3.4576   -2.6676    0.0000 C    0  0  0  0  0  0  0  0  0  0  0  0
    3.4576   -3.9957    0.0000 C    0  0  0  0  0  0  0  0  0  0  0  0
    4.6140   -4.6598    0.0000 C    0  0  0  0  0  0  0  0  0  0  0  0
    5.7704   -3.9957    0.0000 C    0  0  0  0  0  0  0  0  0  0  0  0
    6.9153   -4.6598    0.0000 C    0  0  0  0  0  0  0  0  0  0  0  0
    6.9153   -5.9879    0.0000 C    0  0  0  0  0  0  0  0  0  0  0  0
    5.7704   -6.6519    0.0000 C    0  0  0  0  0  0  0  0  0  0  0  0
    4.6140   -5.9879    0.0000 C    0  0  0  0  0  0  0  0  0  0  0  0
    8.0716   -6.6519    0.0000 Cl   0  0  0  0  0  0  0  0  0  0  0  0
    2.3013   -4.6598    0.0000 C    0  0  0  0  0  0  0  0  0  0  0  0
    2.3013   -5.9879    0.0000 N    0  0  0  0  0  0  0  0  0  0  0  0
    1.1564   -6.6519    0.0000 C    0  0  0  0  0  0  0  0  0  0  0  0
    0.0000   -5.9879    0.0000 C    0  0  0  0  0  0  0  0  0  0  0  0
    0.0000   -4.6598    0.0000 C    0  0  0  0  0  0  0  0  0  0  0  0
    1.1564   -3.9957    0.0000 C    0  0  0  0  0  0  0  0  0  0  0  0
    3.4576    0.0000    0.0000 C    0  0  0  0  0  0  0  0  0  0  0  0
    2.6676  -10.2928    0.0000 C    0  0  0  0  0  0  0  0  0  0  0  0
    3.3317   -9.1479    0.0000 C    0  0  0  0  0  0  0  0  0  0  0  0
    4.6598   -9.1479    0.0000 C    0  0  0  0  0  0  0  0  0  0  0  0
    5.3238  -10.2928    0.0000 C    0  0  0  0  0  0  0  0  0  0  0  0
    6.6519  -10.2928    0.0000 O    0  0  0  0  0  0  0  0  0  0  0  0
    4.6598  -11.4491    0.0000 O    0  5  0  0  0  0  0  0  0  0  0  0
    5.3238   -7.9915    0.0000 H    0  0  0  0  0  0  0  0  0  0  0  0
    2.6676   -7.9915    0.0000 H    0  0  0  0  0  0  0  0  0  0  0  0
    3.3317  -11.4491    0.0000 O    0  0  0  0  0  0  0  0  0  0  0  0
    1.3281  -10.2928    0.0000 O    0  0  0  0  0  0  0  0  0  0  0  0
  1  2  1  0  0  0  0
  2  3  1  0  0  0  0
  2 19  1  0  0  0  0
  3  4  1  0  0  0  0
  4  5  1  0  0  0  0
  5  6  1  0  0  0  0
  5 13  1  0  0  0  0
  6  7  2  0  0  0  0
  6 11  1  0  0  0  0
  7  8  1  0  0  0  0
  8  9  2  0  0  0  0
  9 10  1  0  0  0  0
  9 12  1  0  0  0  0
 10 11  2  0  0  0  0
 13 14  2  0  0  0  0
 13 18  1  0  0  0  0
 14 15  1  0  0  0  0
 15 16  2  0  0  0  0
 16 17  1  0  0  0  0
 17 18  2  0  0  0  0
 20 21  1  0  0  0  0
 20 28  2  0  0  0  0
 20 29  1  0  0  0  0
 21 22  2  0  0  0  0
 21 27  1  0  0  0  0
 22 23  1  0  0  0  0
 22 26  1  0  0  0  0
 23 24  2  0  0  0  0
 23 25  1  0  0  0  0
M  END
> <ID>
312

> <Formula>
C20H23ClN2O4

> <FW>
390.8606 (275.7959+115.0648)

> <DSSTox_CID>
321

> <DSSTox_RID>
75511

> <DSSTox_GSID>
20321

> <DSSTox_FileID_Sort>
195

> <TS_ChemName>
Chlorpheniramine maleate

> <TS_ChemName_Synonyms>


> <TS_CASRN>
113-92-8

> <CASRN_ChemName_Relationship>
primary

> <TS_Description>
single chemical compound

> <ChemNote>
1:1 mixture of chlorpheniramine [132-22-9] and maleic acid [110-16-7]; ammonium

> <STRUCTURE_Shown>
tested chemical

> <STRUCTURE_Formula>
C20H23ClN2O4

> <STRUCTURE_MW>
390.8606

> <STRUCTURE_ChemType>
defined organic

> <STRUCTURE_DefinedOrganicForm>
complex

> <STRUCTURE_IUPAC>
3-(4-chlorophenyl)-N,N-dimethyl-3-(pyridin-2-yl)propan-1-aminium (2Z)-3-carboxyprop-2-enoate

> <STRUCTURE_SMILES>
[O-]C(=O)\C=C/C(=O)O.Clc1ccc(cc1)C(CC[NH+](C)C)c2ccccn2

> <STRUCTURE_SMILES_Desalt>
Clc1ccc(cc1)C(CCN(C)C)c2ccccn2

> <Substance_modify_yyyymmdd>
20080429

$$$$
