1131-18-6
ChemmineR-0915142007XD

 13 14  0  0  0  0  0  0  0  0  1 V2000
    2.3403   -0.3699    0.0000 N   0  0  0  0  0  0  0  0  0  0  0  0
    3.1227   -1.4227    0.0000 N   0  0  0  0  0  0  0  0  0  0  0  0
    1.0883   -2.0984    0.0000 C   0  0  0  0  0  0  0  0  0  0  0  0
    2.3403   -2.5323    0.0000 C   0  0  0  0  0  0  0  0  0  0  0  0
    1.0883   -0.7825    0.0000 C   0  0  0  0  0  0  0  0  0  0  0  0
    2.7742   -3.8127    0.0000 N   0  0  0  0  0  0  0  0  0  0  0  0
    0.0000    0.0000    0.0000 C   0  0  0  0  0  0  0  0  0  0  0  0
    6.4589   -2.5964    0.0000 C   0  0  0  0  0  0  0  0  0  0  0  0
    7.1133   -1.4227    0.0000 C   0  0  0  0  0  0  0  0  0  0  0  0
    6.4589   -0.2916    0.0000 C   0  0  0  0  0  0  0  0  0  0  0  0
    5.1429   -0.2916    0.0000 C   0  0  0  0  0  0  0  0  0  0  0  0
    4.4529   -1.4227    0.0000 C   0  0  0  0  0  0  0  0  0  0  0  0
    5.1429   -2.5964    0.0000 C   0  0  0  0  0  0  0  0  0  0  0  0
  1  2  1  0  0  0  0
  1  5  2  0  0  0  0
  2  4  1  0  0  0  0
  2 12  1  0  0  0  0
  3  4  2  0  0  0  0
  3  5  1  0  0  0  0
  4  6  1  0  0  0  0
  5  7  1  0  0  0  0
  8 13  2  0  0  0  0
  8  9  1  0  0  0  0
  9 10  2  0  0  0  0
 10 11  1  0  0  0  0
 11 12  2  0  0  0  0
 12 13  1  0  0  0  0
M  END
> <ID>
10171

> <Formula>
C10H11N3

> <FW>
173.2144

> <DSSTox_CID>
24517

> <DSSTox_RID>
80284

> <DSSTox_GSID>
44517

> <DSSTox_FileID_Sort>
4966

> <TS_ChemName>
3-Methyl-1-phenyl-1H-pyrazol-5-amine

> <TS_ChemName_Synonyms>
3-Methyl-1-phenyl-1H-pyrazol-5-amine (1H-Pyrazol-5-amine, 3-methyl-1-phenyl-)

> <TS_CASRN>
1131-18-6

> <CASRN_ChemName_Relationship>
primary

> <TS_Description>
single chemical compound

> <ChemNote>


> <STRUCTURE_Shown>
tested chemical

> <STRUCTURE_Formula>
C10H11N3

> <STRUCTURE_MW>
173.2144

> <STRUCTURE_ChemType>
defined organic

> <STRUCTURE_DefinedOrganicForm>
parent

> <STRUCTURE_IUPAC>
3-methyl-1-phenyl-1H-pyrazol-5-amine

> <STRUCTURE_SMILES>
Nc2cc(C)nn2c1ccccc1

> <STRUCTURE_SMILES_Desalt>
Nc2cc(C)nn2c1ccccc1

> <Substance_modify_yyyymmdd>
20091116

$$$$
