1132-61-2
ChemmineR-0915142007XD

 13 13  0  0  0  0  0  0  0  0  1 V2000
    6.8979   -1.1470    0.0000 S   0  0  0  0  0  0  0  0  0  0  0  0
    2.3020   -1.1631    0.0000 N   0  0  0  0  0  0  0  0  0  0  0  0
    8.0772   -1.8335    0.0000 O   0  0  0  0  0  0  0  0  0  0  0  0
    6.2517   -2.3101    0.0000 O   0  0  0  0  0  0  0  0  0  0  0  0
    7.5845    0.0000    0.0000 O   0  0  0  0  0  0  0  0  0  0  0  0
    0.0000   -2.4958    0.0000 O   0  0  0  0  0  0  0  0  0  0  0  0
    5.7590   -0.4927    0.0000 C   0  0  0  0  0  0  0  0  0  0  0  0
    4.6121   -1.1631    0.0000 C   0  0  0  0  0  0  0  0  0  0  0  0
    3.4490   -0.5089    0.0000 C   0  0  0  0  0  0  0  0  0  0  0  0
    1.1470   -0.5089    0.0000 C   0  0  0  0  0  0  0  0  0  0  0  0
    2.3020   -2.4958    0.0000 C   0  0  0  0  0  0  0  0  0  0  0  0
    0.0000   -1.1631    0.0000 C   0  0  0  0  0  0  0  0  0  0  0  0
    1.1470   -3.1501    0.0000 C   0  0  0  0  0  0  0  0  0  0  0  0
  1  3  1  0  0  0  0
  1  4  2  0  0  0  0
  1  5  2  0  0  0  0
  1  7  1  0  0  0  0
  2  9  1  0  0  0  0
  2 10  1  0  0  0  0
  2 11  1  0  0  0  0
  6 13  1  0  0  0  0
  6 12  1  0  0  0  0
  7  8  1  0  0  0  0
  8  9  1  0  0  0  0
 10 12  1  0  0  0  0
 11 13  1  0  0  0  0
M  END
> <ID>
10029

> <Formula>
C7H15NO4S

> <FW>
209.2633

> <DSSTox_CID>
24371

> <DSSTox_RID>
80178

> <DSSTox_GSID>
44371

> <DSSTox_FileID_Sort>
4860

> <TS_ChemName>
4-Morpholinepropanesulfonic acid

> <TS_ChemName_Synonyms>


> <TS_CASRN>
1132-61-2

> <CASRN_ChemName_Relationship>
primary

> <TS_Description>
single chemical compound

> <ChemNote>


> <STRUCTURE_Shown>
tested chemical

> <STRUCTURE_Formula>
C7H15NO4S

> <STRUCTURE_MW>
209.2633

> <STRUCTURE_ChemType>
defined organic

> <STRUCTURE_DefinedOrganicForm>
parent

> <STRUCTURE_IUPAC>
3-(morpholin-4-yl)propane-1-sulfonic acid

> <STRUCTURE_SMILES>
O=S(=O)(O)CCCN1CCOCC1

> <STRUCTURE_SMILES_Desalt>
O=S(=O)(O)CCCN1CCOCC1

> <Substance_modify_yyyymmdd>
20091116

$$$$
