1134-04-9
ChemmineR-0915142007XD

 14 14  0  0  0  0  0  0  0  0  1 V2000
    3.3236   -3.4499    0.0000 N    0  0  0  0  0  0  0  0  0  0  0  0
    2.6656   -2.3133    0.0000 C    0  0  0  0  0  0  0  0  0  0  0  0
    4.6531   -3.4499    0.0000 C    0  0  0  0  0  0  0  0  0  0  0  0
    5.3178   -2.3133    0.0000 C    0  0  0  0  0  0  0  0  0  0  0  0
    3.3236   -1.1566    0.0000 C    0  0  0  0  0  0  0  0  0  0  0  0
    4.6531   -1.1566    0.0000 C    0  0  0  0  0  0  0  0  0  0  0  0
    5.3311   -4.6066    0.0000 Cl   0  0  0  0  0  0  0  0  0  0  0  0
    6.6473   -2.3133    0.0000 Cl   0  0  0  0  0  0  0  0  0  0  0  0
    5.3178    0.0000    0.0000 Cl   0  0  0  0  0  0  0  0  0  0  0  0
    2.6656    0.0000    0.0000 Cl   0  0  0  0  0  0  0  0  0  0  0  0
    1.3295   -2.3133    0.0000 C    0  0  0  0  0  0  0  0  0  0  0  0
    1.3295   -0.9772    0.0000 Cl   0  0  0  0  0  0  0  0  0  0  0  0
    1.3295   -3.6427    0.0000 Cl   0  0  0  0  0  0  0  0  0  0  0  0
    0.0000   -2.3133    0.0000 Cl   0  0  0  0  0  0  0  0  0  0  0  0
  1  2  2  0  0  0  0
  1  3  1  0  0  0  0
  2  5  1  0  0  0  0
  2 11  1  0  0  0  0
  3  4  2  0  0  0  0
  3  7  1  0  0  0  0
  4  6  1  0  0  0  0
  4  8  1  0  0  0  0
  5  6  2  0  0  0  0
  5 10  1  0  0  0  0
  6  9  1  0  0  0  0
 11 12  1  0  0  0  0
 11 13  1  0  0  0  0
 11 14  1  0  0  0  0
M  END
> <ID>
10432

> <Formula>
C6Cl7N

> <FW>
334.2419

> <DSSTox_CID>
24781

> <DSSTox_RID>
80470

> <DSSTox_GSID>
44781

> <DSSTox_FileID_Sort>
5152

> <TS_ChemName>
2,3,4,5-Tetrachloro-6-(trichloromethyl)pyridine

> <TS_ChemName_Synonyms>
2,3,4,5-Tetrachloro-6-(trichloromethyl)pyridine (Pyridine, 2,3,4,5-tetrachloro-6-(trichloromethyl)-)

> <TS_CASRN>
1134-04-9

> <CASRN_ChemName_Relationship>
primary

> <TS_Description>
single chemical compound

> <ChemNote>


> <STRUCTURE_Shown>
tested chemical

> <STRUCTURE_Formula>
C6Cl7N

> <STRUCTURE_MW>
334.2419

> <STRUCTURE_ChemType>
defined organic

> <STRUCTURE_DefinedOrganicForm>
parent

> <STRUCTURE_IUPAC>
2,3,4,5-tetrachloro-6-(trichloromethyl)pyridine

> <STRUCTURE_SMILES>
Clc1c(Cl)c(nc(Cl)c1Cl)C(Cl)(Cl)Cl

> <STRUCTURE_SMILES_Desalt>
Clc1c(Cl)c(nc(Cl)c1Cl)C(Cl)(Cl)Cl

> <Substance_modify_yyyymmdd>
20091116

$$$$
