1134-47-0
ChemmineR-0915142007XD

 14 14  0  0  0  0  0  0  0  0  1 V2000
    7.3120   -1.1482    0.0000 C    0  0  0  0  0  0  0  0  0  0  0  0
    7.9739    0.0000    0.0000 O    0  0  0  0  0  0  0  0  0  0  0  0
    7.9739   -2.3044    0.0000 O    0  0  0  0  0  0  0  0  0  0  0  0
    5.9804   -1.1482    0.0000 C    0  0  0  0  0  0  0  0  0  0  0  0
    5.3186   -2.3044    0.0000 C    0  0  0  0  0  0  0  0  0  0  0  0
    3.9869   -2.3044    0.0000 C    0  0  0  0  0  0  0  0  0  0  0  0
    3.3251   -3.4527    0.0000 C    0  0  0  0  0  0  0  0  0  0  0  0
    1.9935   -3.4527    0.0000 C    0  0  0  0  0  0  0  0  0  0  0  0
    1.3316   -2.3044    0.0000 C    0  0  0  0  0  0  0  0  0  0  0  0
    0.0000   -2.3044    0.0000 Cl   0  0  0  0  0  0  0  0  0  0  0  0
    1.9935   -1.1482    0.0000 C    0  0  0  0  0  0  0  0  0  0  0  0
    3.3251   -1.1482    0.0000 C    0  0  0  0  0  0  0  0  0  0  0  0
    5.9804   -3.4527    0.0000 C    0  0  0  0  0  0  0  0  0  0  0  0
    7.3120   -3.4527    0.0000 N    0  0  0  0  0  0  0  0  0  0  0  0
  1  2  2  0  0  0  0
  1  3  1  0  0  0  0
  1  4  1  0  0  0  0
  4  5  1  0  0  0  0
  5  6  1  0  0  0  0
  5 13  1  0  0  0  0
  6  7  2  0  0  0  0
  6 12  1  0  0  0  0
  7  8  1  0  0  0  0
  8  9  2  0  0  0  0
  9 10  1  0  0  0  0
  9 11  1  0  0  0  0
 11 12  2  0  0  0  0
 13 14  1  0  0  0  0
M  END
> <ID>
2390

> <Formula>
C10H12ClNO2

> <FW>
213.6608

> <DSSTox_CID>
2641

> <DSSTox_RID>
76670

> <DSSTox_GSID>
22641

> <DSSTox_FileID_Sort>
1354

> <TS_ChemName>
Baclofen

> <TS_ChemName_Synonyms>


> <TS_CASRN>
1134-47-0

> <CASRN_ChemName_Relationship>
primary

> <TS_Description>
single chemical compound

> <ChemNote>


> <STRUCTURE_Shown>
tested chemical

> <STRUCTURE_Formula>
C10H12ClNO2

> <STRUCTURE_MW>
213.6608

> <STRUCTURE_ChemType>
defined organic

> <STRUCTURE_DefinedOrganicForm>
parent

> <STRUCTURE_IUPAC>
4-amino-3-(4-chlorophenyl)butanoic acid

> <STRUCTURE_SMILES>
Clc1ccc(cc1)C(CN)CC(=O)O

> <STRUCTURE_SMILES_Desalt>
Clc1ccc(cc1)C(CN)CC(=O)O

> <Substance_modify_yyyymmdd>
20080429

$$$$
