1135280-78-2
ChemmineR-0915142007XD

 30 32  0  0  0  0  0  0  0  0  1 V2000
    0.0000   -5.9755    0.0000 C    0  0  0  0  0  0  0  0  0  0  0  0
    0.0000   -7.3084    0.0000 C    0  0  0  0  0  0  0  0  0  0  0  0
    1.1532   -5.3165    0.0000 C    0  0  0  0  0  0  0  0  0  0  0  0
    1.1532   -7.9823    0.0000 C    0  0  0  0  0  0  0  0  0  0  0  0
   11.5167   -3.3247    0.0000 C    0  0  0  0  0  0  0  0  0  0  0  0
   12.6698   -1.3329    0.0000 C    0  0  0  0  0  0  0  0  0  0  0  0
   12.6698   -3.9986    0.0000 C    0  0  0  0  0  0  0  0  0  0  0  0
   13.8230   -2.0068    0.0000 C    0  0  0  0  0  0  0  0  0  0  0  0
    8.0572   -1.3329    0.0000 C    0  0  0  0  0  0  0  0  0  0  0  0
    9.2103   -3.3247    0.0000 C    0  0  0  0  0  0  0  0  0  0  0  0
    6.9190   -2.0068    0.0000 C    0  0  0  0  0  0  0  0  0  0  0  0
    8.0572   -3.9986    0.0000 C    0  0  0  0  0  0  0  0  0  0  0  0
    5.7658   -3.9986    0.0000 C    0  0  0  0  0  0  0  0  0  0  0  0
    5.7658   -5.3165    0.0000 C    0  0  0  0  0  0  0  0  0  0  0  0
   11.5167   -2.0068    0.0000 C    0  0  0  0  0  0  0  0  0  0  0  0
    9.2103   -2.0068    0.0000 C    0  0  0  0  0  0  0  0  0  0  0  0
   13.8230   -3.3247    0.0000 C    0  0  0  0  0  0  0  0  0  0  0  0
    2.3063   -5.9755    0.0000 C    0  0  0  0  0  0  0  0  0  0  0  0
    2.3063   -7.3084    0.0000 C    0  0  0  0  0  0  0  0  0  0  0  0
   10.3635   -1.3329    0.0000 C    0  0  0  0  0  0  0  0  0  0  0  0
    3.4595   -5.3165    0.0000 C    0  0  0  0  0  0  0  0  0  0  0  0
    4.6127   -7.3084    0.0000 C    0  0  0  0  0  0  0  0  0  0  0  0
   14.9762   -3.9986    0.0000 F    0  0  0  0  0  0  0  0  0  0  0  0
    3.4595   -7.9823    0.0000 N    0  0  0  0  0  0  0  0  0  0  0  0
    6.9190   -3.3247    0.0000 N    0  0  0  0  0  0  0  0  0  0  0  0
    4.6127   -5.9755    0.0000 N    0  0  0  0  0  0  0  0  0  0  0  0
   10.3635    0.0000    0.0000 O    0  0  0  0  0  0  0  0  0  0  0  0
    3.4595   -3.9986    0.0000 O    0  0  0  0  0  0  0  0  0  0  0  0
    5.7658   -7.9823    0.0000 S    0  0  0  0  0  0  0  0  0  0  0  0
   10.5133   -4.8822    0.0000 Cl   0  0  0  0  0  0  0  0  0  0  0  0
  1  2  2  0  0  0  0
  1  3  1  0  0  0  0
  2  4  1  0  0  0  0
  3 18  2  0  0  0  0
  4 19  2  0  0  0  0
  5  7  1  0  0  0  0
  5 15  2  0  0  0  0
  6  8  2  0  0  0  0
  6 15  1  0  0  0  0
  7 17  2  0  0  0  0
  8 17  1  0  0  0  0
  9 11  1  0  0  0  0
  9 16  1  0  0  0  0
 10 12  1  0  0  0  0
 10 16  1  0  0  0  0
 11 25  1  0  0  0  0
 12 25  1  0  0  0  0
 13 14  1  0  0  0  0
 13 25  1  0  0  0  0
 14 26  1  0  0  0  0
 15 20  1  0  0  0  0
 16 20  1  0  0  0  0
 17 23  1  0  0  0  0
 18 19  1  0  0  0  0
 18 21  1  0  0  0  0
 19 24  1  0  0  0  0
 20 27  2  0  0  0  0
 21 26  1  0  0  0  0
 21 28  2  0  0  0  0
 22 24  1  0  0  0  0
 22 26  1  0  0  0  0
 22 29  2  0  0  0  0
M  END
> <ID>
9464

> <Formula>
C22H23ClFN3O2S

> <FW>
447.9533 (411.4924+36.4609)

> <DSSTox_CID>
22592

> <DSSTox_RID>
80054

> <DSSTox_GSID>
42592

> <DSSTox_FileID_Sort>
4736

> <TS_ChemName>
Altanserin hydrochloride

> <TS_ChemName_Synonyms>


> <TS_CASRN>
1135280-78-2

> <CASRN_ChemName_Relationship>
primary

> <TS_Description>
single chemical compound

> <ChemNote>
parent [76330-71-7]

> <STRUCTURE_Shown>
tested chemical

> <STRUCTURE_Formula>
C22H23ClFN3O2S

> <STRUCTURE_MW>
447.9533

> <STRUCTURE_ChemType>
defined organic

> <STRUCTURE_DefinedOrganicForm>
complex

> <STRUCTURE_IUPAC>
3-{2-[4-(4-fluorobenzoyl)piperidin-1-yl]ethyl}-2-thioxo-2,3-dihydroquinazolin-4(1H)-one hydrochloride (1:1)

> <STRUCTURE_SMILES>
Cl.Fc1ccc(cc1)C(=O)C4CCN(CCN2C(=O)c3ccccc3NC2=S)CC4

> <STRUCTURE_SMILES_Desalt>
Fc1ccc(cc1)C(=O)C4CCN(CCN2C(=O)c3ccccc3NC2=S)CC4

> <Substance_modify_yyyymmdd>
20130911

$$$$
