1135-66-6
ChemmineR-0915142007XD

 16 18  0  0  1  0  0  0  0  0  1 V2000
    0.9319   -3.8804    0.0000 C   0  0  0  0  0  0  0  0  0  0  0  0
    1.7968   -2.8673    0.0000 C   0  0  0  0  0  0  0  0  0  0  0  0
    3.0728   -2.3082    0.0000 C   0  0  0  0  0  0  0  0  0  0  0  0
    2.4133   -3.4838    0.0000 C   0  0  0  0  0  0  0  0  0  0  0  0
    2.5471   -1.1374    0.0000 C   0  0  0  0  0  0  0  0  0  0  0  0
    4.2914   -3.4025    0.0000 C   0  0  0  0  0  0  0  0  0  0  0  0
    3.5507   -4.3917    0.0000 C   0  0  0  0  0  0  0  0  0  0  0  0
    3.2305   -0.9319    0.0000 C   0  0  0  0  0  0  0  0  0  0  0  0
    2.1170   -0.1147    0.0000 C   0  0  0  0  0  0  0  0  0  0  0  0
    0.6834   -2.0358    0.0000 C   0  0  0  0  0  0  0  0  0  0  0  0
    0.8411   -0.6595    0.0000 C   0  0  0  0  0  0  0  0  0  0  0  0
    4.0954   -0.5591    0.0000 C   0  0  0  0  0  0  0  0  0  0  0  0
    3.3356    0.0000    0.0000 C   0  0  0  0  0  0  0  0  0  0  0  0
    0.0000   -3.7084    0.0000 C   0  0  0  0  0  0  0  0  0  0  0  0
    1.2425   -4.7788    0.0000 C   0  0  0  0  0  0  0  0  0  0  0  0
    1.9211   -4.3678    0.0000 H   0  0  0  0  0  0  0  0  0  0  0  0
  1  2  1  0  0  0  0
  1  4  1  0  0  0  0
  1 14  1  0  0  0  0
  1 15  1  0  0  0  0
  2  3  1  0  0  0  0
  2 10  2  0  0  0  0
  3  5  1  1  0  0  0
  3  6  1  0  0  0  0
  3  8  1  0  0  0  0
  4  5  1  0  0  0  0
  4  7  1  0  0  0  0
  4 16  1  1  0  0  0
  6  7  1  0  0  0  0
  8  9  1  0  0  0  0
  8 12  1  0  0  0  0
  8 13  1  0  0  0  0
  9 11  1  0  0  0  0
 10 11  1  0  0  0  0
M  END
> <ID>
10172

> <Formula>
C15H24

> <FW>
204.3511

> <DSSTox_CID>
24518

> <DSSTox_RID>
80285

> <DSSTox_GSID>
44518

> <DSSTox_FileID_Sort>
4967

> <TS_ChemName>
(-)-Isolongifolene

> <TS_ChemName_Synonyms>
Isolongifolene (2H-2,4a-Methanonaphthalene, 1,3,4,5,6,7-hexahydro-1,1,5,5-tetramethyl-, (2S,4aR)-)

> <TS_CASRN>
1135-66-6

> <CASRN_ChemName_Relationship>
primary

> <TS_Description>
single chemical compound

> <ChemNote>
stereochem

> <STRUCTURE_Shown>
tested chemical

> <STRUCTURE_Formula>
C15H24

> <STRUCTURE_MW>
204.3511

> <STRUCTURE_ChemType>
defined organic

> <STRUCTURE_DefinedOrganicForm>
parent

> <STRUCTURE_IUPAC>
(2S,4aR)-1,1,5,5-tetramethyl-1,3,4,5,6,7-hexahydro-2H-2,4a-methanonaphthalene

> <STRUCTURE_SMILES>
CC2(C)C3=CCCC(C)(C)[C@]13C[C@@H]2CC1

> <STRUCTURE_SMILES_Desalt>
CC2(C)C3=CCCC(C)(C)[C@]13C[C@@H]2CC1

> <Substance_modify_yyyymmdd>
20091116

$$$$
