113507-06-5
ChemmineR-0915142007XD

 49 53  0  0  1  0  0  0  0  0  1 V2000
    3.3994   -3.9611    0.0000 C   0  0  0  0  0  0  0  0  0  0  0  0
    2.2466   -3.2960    0.0000 C   0  0  0  0  0  0  0  0  0  0  0  0
    2.2466   -5.9269    0.0000 C   0  0  0  0  0  0  0  0  0  0  0  0
    1.1381   -3.9611    0.0000 C   0  0  0  0  0  0  0  0  0  0  0  0
    1.1381   -5.2617    0.0000 C   0  0  0  0  0  0  0  0  0  0  0  0
    4.5227   -3.2960    0.0000 C   0  0  0  0  0  0  0  0  0  0  0  0
    5.6460   -3.9611    0.0000 C   0  0  0  0  0  0  0  0  0  0  0  0
    5.6460   -5.2765    0.0000 C   0  0  0  0  0  0  0  0  0  0  0  0
    6.7989   -3.2960    0.0000 O   0  0  0  0  0  0  0  0  0  0  0  0
    7.9222   -3.9611    0.0000 C   0  0  0  0  0  0  0  0  0  0  0  0
    6.7989   -5.9269    0.0000 C   0  0  0  0  0  0  0  0  0  0  0  0
    7.9222   -5.2765    0.0000 C   0  0  0  0  0  0  0  0  0  0  0  0
   10.1835   -2.6604    0.0000 C   0  0  0  0  0  0  0  0  0  0  0  0
   10.1835   -3.9611    0.0000 C   0  0  0  0  0  0  0  0  0  0  0  0
    9.0455   -1.9953    0.0000 C   0  0  0  0  0  0  0  0  0  0  0  0
    9.0455   -4.5966    0.0000 O   0  0  0  0  0  0  0  0  0  0  0  0
    7.9222   -2.6604    0.0000 C   0  0  0  0  0  0  0  0  0  0  0  0
   11.3364   -4.5966    0.0000 C   0  0  0  0  0  0  0  0  0  0  0  0
    4.5227   -7.2275    0.0000 O   0  0  0  0  0  0  0  0  0  0  0  0
    6.7989   -7.2275    0.0000 O   0  0  0  0  0  0  0  0  0  0  0  0
    5.6460   -7.8631    0.0000 C   0  0  0  0  0  0  0  0  0  0  0  0
    3.4142   -7.8631    0.0000 C   0  0  0  0  0  0  0  0  0  0  0  0
    3.4142   -9.1637    0.0000 C   0  0  0  0  0  0  0  0  0  0  0  0
    5.6460   -9.1637    0.0000 C   0  0  0  0  0  0  0  0  0  0  0  0
    4.5227   -9.8436    0.0000 C   0  0  0  0  0  0  0  0  0  0  0  0
    2.2466   -7.2275    0.0000 C   0  0  0  0  0  0  0  0  0  0  0  0
    2.2466   -9.8436    0.0000 C   0  0  0  0  0  0  0  0  0  0  0  0
    2.2466  -11.1295    0.0000 O   0  0  0  0  0  0  0  0  0  0  0  0
    4.5227  -11.1295    0.0000 C   0  0  0  0  0  0  0  0  0  0  0  0
    6.7989   -9.8436    0.0000 C   0  0  0  0  0  0  0  0  0  0  0  0
    6.7989  -11.1295    0.0000 C   0  0  0  0  0  0  0  0  0  0  0  0
    5.6460  -11.7798    0.0000 C   0  0  0  0  0  0  0  0  0  0  0  0
    2.2466   -1.9953    0.0000 C   0  0  0  0  0  0  0  0  0  0  0  0
    0.0000   -5.9269    0.0000 C   0  0  0  0  0  0  0  0  0  0  0  0
    4.5227   -8.5282    0.0000 O   0  0  0  0  0  0  0  0  0  0  0  0
    4.5227  -12.4597    0.0000 H   0  0  0  0  0  0  0  0  0  0  0  0
    6.7841   -8.5134    0.0000 H   0  0  0  0  0  0  0  0  0  0  0  0
    7.9222  -11.7798    0.0000 C   0  0  0  0  0  0  0  0  0  0  0  0
    5.6460  -13.0952    0.0000 O   0  0  0  0  0  0  0  0  0  0  0  0
    5.6460   -2.6604    0.0000 H   0  0  0  0  0  0  0  0  0  0  0  0
   11.3216   -1.9953    0.0000 C   0  0  0  0  0  0  0  0  0  0  0  0
    9.0455   -0.6799    0.0000 N   0  0  0  0  0  0  0  0  0  0  0  0
   10.1983    0.0000    0.0000 O   0  0  0  0  0  0  0  0  0  0  0  0
   11.3512   -0.6799    0.0000 C   0  0  0  0  0  0  0  0  0  0  0  0
   11.3364   -5.9269    0.0000 C   0  0  0  0  0  0  0  0  0  0  0  0
   12.4745   -3.9315    0.0000 C   0  0  0  0  0  0  0  0  0  0  0  0
   13.6421   -4.5966    0.0000 C   0  0  0  0  0  0  0  0  0  0  0  0
   14.7802   -3.9315    0.0000 C   0  0  0  0  0  0  0  0  0  0  0  0
   13.6421   -5.9269    0.0000 C   0  0  0  0  0  0  0  0  0  0  0  0
  1  2  2  0  0  0  0
  1  6  1  0  0  0  0
  2  4  1  0  0  0  0
  2 33  1  0  0  0  0
  3  5  1  0  0  0  0
  3 26  2  0  0  0  0
  4  5  1  0  0  0  0
  5 34  1  6  0  0  0
  6  7  1  0  0  0  0
  7  9  1  0  0  0  0
  7  8  1  0  0  0  0
  7 40  1  6  0  0  0
  8 11  1  0  0  0  0
  9 10  1  0  0  0  0
 10 12  1  0  0  0  0
 10 16  1  6  0  0  0
 10 17  1  0  0  0  0
 11 12  1  0  0  0  0
 11 20  1  1  0  0  0
 13 14  1  0  0  0  0
 13 15  1  0  0  0  0
 13 41  1  6  0  0  0
 14 18  1  1  0  0  0
 14 16  1  0  0  0  0
 15 17  1  0  0  0  0
 15 42  2  0  0  0  0
 18 45  1  0  0  0  0
 18 46  2  0  0  0  0
 19 21  2  0  0  0  0
 20 21  1  0  0  0  0
 21 24  1  0  0  0  0
 22 23  2  0  0  0  0
 22 26  1  0  0  0  0
 23 27  1  0  0  0  0
 23 25  1  0  0  0  0
 24 30  1  0  0  0  0
 24 25  1  0  0  0  0
 24 37  1  1  0  0  0
 25 29  1  0  0  0  0
 25 35  1  6  0  0  0
 27 28  1  0  0  0  0
 28 29  1  0  0  0  0
 29 32  1  0  0  0  0
 29 36  1  6  0  0  0
 30 31  2  0  0  0  0
 31 32  1  0  0  0  0
 31 38  1  0  0  0  0
 32 39  1  1  0  0  0
 42 43  1  0  0  0  0
 43 44  1  0  0  0  0
 46 47  1  0  0  0  0
 47 48  1  0  0  0  0
 47 49  1  0  0  0  0
M  END
> <ID>
7347

> <Formula>
C37H53NO8

> <FW>
639.8186

> <DSSTox_CID>
17577

> <DSSTox_RID>
79341

> <DSSTox_GSID>
37577

> <DSSTox_FileID_Sort>
4023

> <TS_ChemName>
Moxidectin

> <TS_ChemName_Synonyms>


> <TS_CASRN>
113507-06-5

> <CASRN_ChemName_Relationship>
primary

> <TS_Description>
single chemical compound

> <ChemNote>
stereochem

> <STRUCTURE_Shown>
tested chemical

> <STRUCTURE_Formula>
C37H53NO8

> <STRUCTURE_MW>
639.8186

> <STRUCTURE_ChemType>
defined organic

> <STRUCTURE_DefinedOrganicForm>
parent

> <STRUCTURE_IUPAC>
(2aE,4E,4'Z,5'S,6R,6'S,8E,11R,13R,15S,17aR,20R,20aR,20bS)-20,20b-dihydroxy-4'-(methoxyimino)-5',6,8,19-tetramethyl-6'-[(2E)-4-methylpent-2-en-2-yl]-3',4',5',6,6',7,10,11,14,15,17a,20,20a,20b-tetradecahydro-2H,17H-spiro[11,15-methanofuro[4,3,2-pq][2,6]benz

> <STRUCTURE_SMILES>
CC(C)\C=C(/C)[C@H]5O[C@]4(O[C@H]1C[C@H](OC(=O)[C@@H]2C=C(C)[C@@H](O)[C@H]3OCC(=CC=C[C@H](C)CC(C)=CC1)[C@@]23O)C4)C\C(=N\OC)[C@@H]5C

> <STRUCTURE_SMILES_Desalt>
CC(C)\C=C(/C)[C@H]5O[C@]4(O[C@H]1C[C@H](OC(=O)[C@@H]2C=C(C)[C@@H](O)[C@H]3OCC(=CC=C[C@H](C)CC(C)=CC1)[C@@]23O)C4)C\C(=N\OC)[C@@H]5C

> <Substance_modify_yyyymmdd>
20080429

$$$$
