113734-18-2
ChemmineR-0915142007XD

 27 28  0  0  0  0  0  0  0  0  1 V2000
    4.7549   -1.9874    0.0000 C   0  0  0  0  0  0  0  0  0  0  0  0
    3.5290   -1.4673    0.0000 N   0  0  0  0  0  0  0  0  0  0  0  0
    4.6063   -3.3247    0.0000 C   0  0  0  0  0  0  0  0  0  0  0  0
    5.9064   -1.3373    0.0000 C   0  0  0  0  0  0  0  0  0  0  0  0
    2.6560   -2.4331    0.0000 C   0  0  0  0  0  0  0  0  0  0  0  0
    3.3061   -3.6033    0.0000 S   0  0  0  0  0  0  0  0  0  0  0  0
    7.0580   -1.9874    0.0000 C   0  0  0  0  0  0  0  0  0  0  0  0
    5.8878    0.0000    0.0000 O   0  0  0  0  0  0  0  0  0  0  0  0
    1.3187   -2.3031    0.0000 C   0  0  0  0  0  0  0  0  0  0  0  0
    8.2096   -1.3373    0.0000 N   0  0  0  0  0  0  0  0  0  0  0  0
    1.4673   -0.9844    0.0000 F   0  0  0  0  0  0  0  0  0  0  0  0
    1.1887   -3.6219    0.0000 F   0  0  0  0  0  0  0  0  0  0  0  0
    0.0000   -2.1731    0.0000 F   0  0  0  0  0  0  0  0  0  0  0  0
    9.3611   -1.9874    0.0000 C   0  0  0  0  0  0  0  0  0  0  0  0
   10.4941   -1.3373    0.0000 C   0  0  0  0  0  0  0  0  0  0  0  0
    9.3611   -3.3247    0.0000 C   0  0  0  0  0  0  0  0  0  0  0  0
   11.6457   -1.9874    0.0000 C   0  0  0  0  0  0  0  0  0  0  0  0
   12.8158   -1.3373    0.0000 C   0  0  0  0  0  0  0  0  0  0  0  0
   11.6457   -3.3247    0.0000 C   0  0  0  0  0  0  0  0  0  0  0  0
   13.9674   -1.9874    0.0000 C   0  0  0  0  0  0  0  0  0  0  0  0
   12.8158   -3.9933    0.0000 C   0  0  0  0  0  0  0  0  0  0  0  0
   13.9674   -3.3247    0.0000 C   0  0  0  0  0  0  0  0  0  0  0  0
   15.1190   -3.9933    0.0000 O   0  0  0  0  0  0  0  0  0  0  0  0
   16.2705   -3.3247    0.0000 C   0  0  0  0  0  0  0  0  0  0  0  0
   17.4407   -3.9748    0.0000 C   0  0  0  0  0  0  0  0  0  0  0  0
   17.4407   -5.3306    0.0000 O   0  0  0  0  0  0  0  0  0  0  0  0
   18.5737   -3.3247    0.0000 O   0  0  0  0  0  0  0  0  0  0  0  0
  1  2  1  0  0  0  0
  1  3  2  0  0  0  0
  1  4  1  0  0  0  0
  2  5  2  0  0  0  0
  3  6  1  0  0  0  0
  4  7  1  0  0  0  0
  4  8  1  0  0  0  0
  5  9  1  0  0  0  0
  5  6  1  0  0  0  0
  7 10  1  0  0  0  0
  9 11  1  0  0  0  0
  9 12  1  0  0  0  0
  9 13  1  0  0  0  0
 10 14  1  0  0  0  0
 14 15  1  0  0  0  0
 14 16  1  0  0  0  0
 15 17  1  0  0  0  0
 17 18  2  0  0  0  0
 17 19  1  0  0  0  0
 18 20  1  0  0  0  0
 19 21  2  0  0  0  0
 20 22  2  0  0  0  0
 21 22  1  0  0  0  0
 22 23  1  0  0  0  0
 23 24  1  0  0  0  0
 24 25  1  0  0  0  0
 25 26  1  0  0  0  0
 25 27  2  0  0  0  0
M  END
> <ID>
12416

> <Formula>
C17H19F3N2O4S

> <FW>
404.404

> <DSSTox_CID>
27274

> <DSSTox_RID>
82229

> <DSSTox_GSID>
47274

> <DSSTox_FileID_Sort>
6910

> <TS_ChemName>
CP-114271

> <TS_ChemName_Synonyms>


> <TS_CASRN>
113734-18-2

> <CASRN_ChemName_Relationship>
primary

> <TS_Description>
single chemical compound

> <ChemNote>


> <STRUCTURE_Shown>
tested chemical

> <STRUCTURE_Formula>
C17H19F3N2O4S

> <STRUCTURE_MW>
404.404

> <STRUCTURE_ChemType>
defined organic

> <STRUCTURE_DefinedOrganicForm>
parent

> <STRUCTURE_IUPAC>
{4-[2-({2-hydroxy-2-[2-(trifluoromethyl)-1,3-thiazol-4-yl]ethyl}amino)propyl]phenoxy}acetic acid

> <STRUCTURE_SMILES>
OC(CNC(C)Cc1ccc(OCC(=O)O)cc1)c2csc(n2)C(F)(F)F

> <STRUCTURE_SMILES_Desalt>
OC(CNC(C)Cc1ccc(OCC(=O)O)cc1)c2csc(n2)C(F)(F)F

> <Substance_modify_yyyymmdd>
20130910

$$$$
