113712-98-4
ChemmineR-0915142007XD

 24 26  0  0  0  0  0  0  0  0  1 V2000
    0.0000   -4.1200    0.0000 C   0  0  0  0  0  0  0  0  0  0  0  0
    1.1452   -4.7904    0.0000 O   0  0  0  0  0  0  0  0  0  0  0  0
    2.3044   -4.1200    0.0000 C   0  0  0  0  0  0  0  0  0  0  0  0
    2.3044   -2.7932    0.0000 C   0  0  0  0  0  0  0  0  0  0  0  0
    3.4496   -2.1368    0.0000 C   0  0  0  0  0  0  0  0  0  0  0  0
    4.6088   -2.7932    0.0000 C   0  0  0  0  0  0  0  0  0  0  0  0
    5.8658   -2.3882    0.0000 N   0  0  0  0  0  0  0  0  0  0  0  0
    6.6479   -3.4636    0.0000 C   0  0  0  0  0  0  0  0  0  0  0  0
    5.8658   -4.5390    0.0000 N   0  0  0  0  0  0  0  0  0  0  0  0
    4.6088   -4.1200    0.0000 C   0  0  0  0  0  0  0  0  0  0  0  0
    3.4496   -4.7904    0.0000 N   0  0  0  0  0  0  0  0  0  0  0  0
    7.9886   -3.4636    0.0000 S   0  0  0  0  0  0  0  0  0  0  0  0
    8.6451   -4.6088    0.0000 O   0  0  0  0  0  0  0  0  0  0  0  0
    8.6451   -2.3044    0.0000 C   0  0  0  0  0  0  0  0  0  0  0  0
    9.9718   -2.3044    0.0000 C   0  0  0  0  0  0  0  0  0  0  0  0
   10.6422   -1.1592    0.0000 C   0  0  0  0  0  0  0  0  0  0  0  0
    9.9718    0.0000    0.0000 C   0  0  0  0  0  0  0  0  0  0  0  0
   11.9690   -1.1592    0.0000 C   0  0  0  0  0  0  0  0  0  0  0  0
   12.6394   -2.3044    0.0000 C   0  0  0  0  0  0  0  0  0  0  0  0
   13.9662   -2.3044    0.0000 C   0  0  0  0  0  0  0  0  0  0  0  0
   11.9690   -3.4636    0.0000 C   0  0  0  0  0  0  0  0  0  0  0  0
   10.6422   -3.4636    0.0000 N   0  0  0  0  0  0  0  0  0  0  0  0
   12.6394    0.0000    0.0000 O   0  0  0  0  0  0  0  0  0  0  0  0
   13.9662    0.0000    0.0000 C   0  0  0  0  0  0  0  0  0  0  0  0
  1  2  1  0  0  0  0
  2  3  1  0  0  0  0
  3  4  2  0  0  0  0
  3 11  1  0  0  0  0
  4  5  1  0  0  0  0
  5  6  2  0  0  0  0
  6  7  1  0  0  0  0
  6 10  1  0  0  0  0
  7  8  1  0  0  0  0
  8  9  2  0  0  0  0
  8 12  1  0  0  0  0
  9 10  1  0  0  0  0
 10 11  2  0  0  0  0
 12 13  2  0  0  0  0
 12 14  1  0  0  0  0
 14 15  1  0  0  0  0
 15 16  2  0  0  0  0
 15 22  1  0  0  0  0
 16 17  1  0  0  0  0
 16 18  1  0  0  0  0
 18 19  2  0  0  0  0
 18 23  1  0  0  0  0
 19 20  1  0  0  0  0
 19 21  1  0  0  0  0
 21 22  2  0  0  0  0
 23 24  1  0  0  0  0
M  END
> <ID>
11885

> <Formula>
C16H18N4O3S

> <FW>
346.4041

> <DSSTox_CID>
26687

> <DSSTox_RID>
81821

> <DSSTox_GSID>
46687

> <DSSTox_FileID_Sort>
6502

> <TS_ChemName>
Tenatoprazole

> <TS_ChemName_Synonyms>


> <TS_CASRN>
113712-98-4

> <CASRN_ChemName_Relationship>
primary

> <TS_Description>
single chemical compound

> <ChemNote>
tautomers

> <STRUCTURE_Shown>
tested chemical

> <STRUCTURE_Formula>
C16H18N4O3S

> <STRUCTURE_MW>
346.4041

> <STRUCTURE_ChemType>
defined organic

> <STRUCTURE_DefinedOrganicForm>
parent

> <STRUCTURE_IUPAC>
5-methoxy-2-{[(4-methoxy-3,5-dimethylpyridin-2-yl)methyl]sulfinyl}-1H-imidazo[4,5-b]pyridine

> <STRUCTURE_SMILES>
Cc3c(OC)c(C)cnc3CS(=O)c1nc2nc(ccc2n1)OC

> <STRUCTURE_SMILES_Desalt>
Cc3c(OC)c(C)cnc3CS(=O)c1nc2nc(ccc2n1)OC

> <Substance_modify_yyyymmdd>
20110805

$$$$
