113981-44-5
ChemmineR-0915142007XD

 38 41  0  0  1  0  0  0  0  0  2 V2000
    6.8306   -5.6697    0.0000 C    0  0  0  0  0  0  0  0  0  0  0  0
    6.8306   -4.3406    0.0000 C    0  0  0  0  0  0  0  0  0  0  0  0
    8.1597   -5.6697    0.0000 N    0  0  0  0  0  0  0  0  0  0  0  0
    8.1597   -4.3406    0.0000 C    0  0  0  0  0  0  0  0  0  0  0  0
    9.3038   -3.6508    0.0000 S    0  0  0  0  0  0  0  0  0  0  0  0
   10.4478   -4.3406    0.0000 C    0  0  0  0  0  0  0  0  0  0  0  0
   10.4478   -5.6697    0.0000 C    0  0  0  0  0  0  0  0  0  0  0  0
    9.3038   -6.3259    0.0000 C    0  0  0  0  0  0  0  0  0  0  0  0
    5.8716   -6.5951    0.0000 O    0  0  0  0  0  0  0  0  0  0  0  0
    9.3038   -7.6550    0.0000 C    0  0  0  0  0  0  0  0  0  0  0  0
   10.4478   -8.3280    0.0000 O    0  5  0  0  0  0  0  0  0  0  0  0
    8.1597   -8.3280    0.0000 O    0  0  0  0  0  0  0  0  0  0  0  0
   11.6087   -6.3259    0.0000 C    0  0  0  0  0  0  0  0  0  0  0  0
    5.7034   -4.3406    0.0000 N    0  0  0  0  0  0  0  0  0  0  0  0
    6.8306   -2.9947    0.0000 H    0  0  0  0  0  0  0  0  0  0  0  0
    8.1597   -2.9947    0.0000 H    0  0  0  0  0  0  0  0  0  0  0  0
    1.2450   -0.7739    0.0000 C    0  0  0  0  0  0  0  0  0  0  0  0
    1.6656   -2.0525    0.0000 N    0  0  0  0  0  0  0  0  0  0  0  0
    2.9947   -2.0525    0.0000 C    0  0  0  0  0  0  0  0  0  0  0  0
    3.4153   -0.7739    0.0000 N    0  0  0  0  0  0  0  0  0  0  0  0
    2.3217    0.0000    0.0000 S    0  0  0  0  0  0  0  0  0  0  0  0
    3.7181   -3.1461    0.0000 C    0  0  0  0  0  0  0  0  0  0  0  0
    5.0472   -3.1461    0.0000 C    0  0  0  0  0  0  0  0  0  0  0  0
    5.7034   -2.0189    0.0000 O    0  0  0  0  0  0  0  0  0  0  0  0
    3.0452   -4.3406    0.0000 N    0  0  0  0  0  0  0  0  0  0  0  0
    0.0000   -0.3701    0.0000 N    0  0  0  0  0  0  0  0  0  0  0  0
    2.1030   -5.2660    0.0000 O    0  0  0  0  0  0  0  0  0  0  0  0
    0.8076   -4.8958    0.0000 C    0  0  0  0  0  0  0  0  0  0  0  0
   14.1659   -6.1072    0.0000 C    0  0  0  0  0  0  0  0  0  0  0  0
   12.9209   -5.7034    0.0000 N    0  3  0  0  0  0  0  0  0  0  0  0
   14.9735   -5.0472    0.0000 N    0  0  0  0  0  0  0  0  0  0  0  0
   14.1659   -3.9537    0.0000 C    0  0  0  0  0  0  0  0  0  0  0  0
   12.9209   -4.3743    0.0000 C    0  0  0  0  0  0  0  0  0  0  0  0
   14.7043   -7.3353    0.0000 C    0  0  0  0  0  0  0  0  0  0  0  0
   16.0334   -7.4699    0.0000 C    0  0  0  0  0  0  0  0  0  0  0  0
   16.3026   -5.1818    0.0000 N    0  0  0  0  0  0  0  0  0  0  0  0
   16.8242   -6.3932    0.0000 C    0  0  0  0  0  0  0  0  0  0  0  0
   10.5319   -1.9180    0.0000 Cl   0  0  0  0  0  0  0  0  0  0  0  0
  1  9  2  0  0  0  0
  1  2  1  0  0  0  0
  1  3  1  0  0  0  0
  2  4  1  0  0  0  0
  2 14  1  1  0  0  0
  2 15  1  6  0  0  0
  3  4  1  0  0  0  0
  3  8  1  0  0  0  0
  4  5  1  0  0  0  0
  4 16  1  6  0  0  0
  5  6  1  0  0  0  0
  6  7  1  0  0  0  0
  7 13  1  0  0  0  0
  7  8  2  0  0  0  0
  8 10  1  0  0  0  0
 10 11  1  0  0  0  0
 10 12  2  0  0  0  0
 13 30  1  0  0  0  0
 14 23  1  0  0  0  0
 17 21  1  0  0  0  0
 17 18  2  0  0  0  0
 17 26  1  0  0  0  0
 18 19  1  0  0  0  0
 19 20  2  0  0  0  0
 19 22  1  0  0  0  0
 20 21  1  0  0  0  0
 22 23  1  0  0  0  0
 22 25  2  0  0  0  0
 23 24  2  0  0  0  0
 25 27  1  0  0  0  0
 27 28  1  0  0  0  0
 29 30  2  0  0  0  0
 29 34  1  0  0  0  0
 29 31  1  0  0  0  0
 30 33  1  0  0  0  0
 31 32  1  0  0  0  0
 31 36  1  0  0  0  0
 32 33  2  0  0  0  0
 34 35  2  0  0  0  0
 35 37  1  0  0  0  0
 36 37  2  0  0  0  0
M  END
> <ID>
13590

> <Formula>
C19H18ClN9O5S2

> <FW>
551.9865 (515.5256+36.4609)

> <DSSTox_CID>
28518

> <DSSTox_RID>
82790

> <DSSTox_GSID>
48592

> <DSSTox_FileID_Sort>
7467

> <TS_ChemName>
Cefozopran hydrochloride

> <TS_ChemName_Synonyms>


> <TS_CASRN>
113981-44-5

> <CASRN_ChemName_Relationship>
primary

> <TS_Description>
single chemical compound

> <ChemNote>
stereochem; parent [113359-04-9]

> <STRUCTURE_Shown>
tested chemical

> <STRUCTURE_Formula>
C19H18ClN9O5S2

> <STRUCTURE_MW>
551.9865

> <STRUCTURE_ChemType>
defined organic

> <STRUCTURE_DefinedOrganicForm>
complex

> <STRUCTURE_IUPAC>
(6R,7R)-7-{[(2E)-2-(5-amino-1,2,4-thiadiazol-3-yl)-2-(methoxyimino)acetyl]amino}-3-(imidazo[1,2-b]pyridazin-1-ium-1-ylmethyl)-8-oxo-5-thia-1-azabicyclo[4.2.0]oct-2-ene-2-carboxylate hydrochloride (1:1)

> <STRUCTURE_SMILES>
Cl.CO\N=C(/c1nc(N)sn1)C(=O)N[C@@H]5C(=O)N4C(C([O-])=O)=C(C[n+]3ccn2ncccc23)CS[C@@H]45

> <STRUCTURE_SMILES_Desalt>
CO\N=C(/c1nc(N)sn1)C(=O)N[C@@H]5C(=O)N4C(C(=O)O)=C(C[n+]3ccn2ncccc23)CS[C@@H]45

> <Substance_modify_yyyymmdd>
20111014

$$$$
