114-49-8
ChemmineR-0915142007XD

 23 25  0  0  1  0  0  0  0  0  1 V2000
    3.2924   -3.9883    0.0000 C    0  0  0  0  0  0  0  0  0  0  0  0
    3.9883   -4.9023    0.0000 C    0  0  0  0  0  0  0  0  0  0  0  0
    3.5521   -3.0328    0.0000 C    0  0  0  0  0  0  0  0  0  0  0  0
    2.4511   -2.3992    0.0000 C    0  0  0  0  0  0  0  0  0  0  0  0
    1.2775   -2.8251    0.0000 C    0  0  0  0  0  0  0  0  0  0  0  0
    0.0000   -2.4511    0.0000 O    0  0  0  0  0  0  0  0  0  0  0  0
    0.8517   -3.8325    0.0000 C    0  0  0  0  0  0  0  0  0  0  0  0
    2.0357   -3.4378    0.0000 C    0  0  0  0  0  0  0  0  0  0  0  0
    2.0357   -1.1633    0.0000 N    0  0  0  0  0  0  0  0  0  0  0  0
    4.0506   -5.9928    0.0000 O    0  0  0  0  0  0  0  0  0  0  0  0
    5.1412   -6.6056    0.0000 C    0  0  0  0  0  0  0  0  0  0  0  0
    5.1412   -7.8728    0.0000 C    0  0  0  0  0  0  0  0  0  0  0  0
    6.2213   -5.9928    0.0000 O    0  0  0  0  0  0  0  0  0  0  0  0
    6.2213   -8.5063    0.0000 C    0  0  0  0  0  0  0  0  0  0  0  0
    6.2213   -9.7630    0.0000 O    0  0  0  0  0  0  0  0  0  0  0  0
    4.0506   -8.5063    0.0000 C    0  0  0  0  0  0  0  0  0  0  0  0
    4.0506   -9.7630    0.0000 C    0  0  0  0  0  0  0  0  0  0  0  0
    2.9601   -7.8728    0.0000 C    0  0  0  0  0  0  0  0  0  0  0  0
    2.9601  -10.3862    0.0000 C    0  0  0  0  0  0  0  0  0  0  0  0
    1.8695   -8.5063    0.0000 C    0  0  0  0  0  0  0  0  0  0  0  0
    1.8695   -9.7630    0.0000 C    0  0  0  0  0  0  0  0  0  0  0  0
    2.4823    0.0000    0.0000 C    0  0  0  0  0  0  0  0  0  0  0  0
    4.5595   -1.7241    0.0000 Br   0  0  0  0  0  0  0  0  0  0  0  0
  1  8  1  0  0  0  0
  1  2  1  0  0  0  0
  2  3  1  0  0  0  0
  2 10  1  6  0  0  0
  3  4  1  0  0  0  0
  4  9  1  1  0  0  0
  4  5  1  0  0  0  0
  5  6  1  1  0  0  0
  5  7  1  0  0  0  0
  7  6  1  1  0  0  0
  7  8  1  0  0  0  0
  8  9  1  6  0  0  0
  9 22  1  0  0  0  0
 10 11  1  0  0  0  0
 11 12  1  0  0  0  0
 11 13  2  0  0  0  0
 12 14  1  0  0  0  0
 12 16  1  6  0  0  0
 14 15  1  0  0  0  0
 16 17  1  0  0  0  0
 16 18  2  0  0  0  0
 17 19  2  0  0  0  0
 18 20  1  0  0  0  0
 19 21  1  0  0  0  0
 20 21  2  0  0  0  0
M  END
> <ID>
6380

> <Formula>
C17H22BrNO4

> <FW>
384.2649 (303.3529+80.9119)

> <DSSTox_CID>
12029

> <DSSTox_RID>
78902

> <DSSTox_GSID>
32029

> <DSSTox_FileID_Sort>
3584

> <TS_ChemName>
Scopolamine hydrobromide

> <TS_ChemName_Synonyms>


> <TS_CASRN>
114-49-8

> <CASRN_ChemName_Relationship>
primary

> <TS_Description>
single chemical compound

> <ChemNote>
stereochem; parent [138-12-5]

> <STRUCTURE_Shown>
tested chemical

> <STRUCTURE_Formula>
C17H22BrNO4

> <STRUCTURE_MW>
384.2649

> <STRUCTURE_ChemType>
defined organic

> <STRUCTURE_DefinedOrganicForm>
complex

> <STRUCTURE_IUPAC>
(1R,2R,4S,5S,7s)-9-methyl-3-oxa-9-azatricyclo[3.3.1.0~2,4~]non-7-yl (2S)-3-hydroxy-2-phenylpropanoate hydrobromide (1:1)

> <STRUCTURE_SMILES>
Br.OC[C@H](c1ccccc1)C(=O)O[C@H]2C[C@@H]3N(C)[C@H](C2)[C@H]4O[C@@H]34

> <STRUCTURE_SMILES_Desalt>
OC[C@H](c1ccccc1)C(=O)O[C@H]2C[C@@H]3N(C)[C@H](C2)[C@H]4O[C@@H]34

> <Substance_modify_yyyymmdd>
20080815

$$$$
