114-85-2
ChemmineR-0915142007XD

 31 30  0  0  0  0  0  0  0  0  1 V2000
    9.0523   -2.6578    0.0000 C   0  0  0  0  0  0  0  0  0  0  0  0
   10.1881   -1.9990    0.0000 N   0  0  0  0  0  0  0  0  0  0  0  0
    7.8824   -1.9990    0.0000 N   0  0  0  0  0  0  0  0  0  0  0  0
    9.0523   -3.9866    0.0000 N   0  0  0  0  0  0  0  0  0  0  0  0
    6.7353   -2.6578    0.0000 C   0  0  0  0  0  0  0  0  0  0  0  0
    5.5881   -1.9990    0.0000 C   0  0  0  0  0  0  0  0  0  0  0  0
   11.3580   -2.6578    0.0000 C   0  0  0  0  0  0  0  0  0  0  0  0
   10.1881   -4.6681    0.0000 C   0  0  0  0  0  0  0  0  0  0  0  0
    4.4296   -2.6578    0.0000 C   0  0  0  0  0  0  0  0  0  0  0  0
    5.5881   -0.6701    0.0000 C   0  0  0  0  0  0  0  0  0  0  0  0
    3.2824   -1.9990    0.0000 C   0  0  0  0  0  0  0  0  0  0  0  0
    4.4296    0.0000    0.0000 C   0  0  0  0  0  0  0  0  0  0  0  0
    3.2824   -0.6701    0.0000 C   0  0  0  0  0  0  0  0  0  0  0  0
    2.3057   -7.2918    0.0000 C   0  0  0  0  0  0  0  0  0  0  0  0
    2.3057   -5.9629    0.0000 N   0  0  0  0  0  0  0  0  0  0  0  0
    3.4528   -7.9506    0.0000 N   0  0  0  0  0  0  0  0  0  0  0  0
    1.1472   -7.9506    0.0000 N   0  0  0  0  0  0  0  0  0  0  0  0
    4.6227   -7.2918    0.0000 C   0  0  0  0  0  0  0  0  0  0  0  0
    5.7585   -7.9506    0.0000 C   0  0  0  0  0  0  0  0  0  0  0  0
    1.1472   -5.2814    0.0000 C   0  0  0  0  0  0  0  0  0  0  0  0
    0.0000   -7.2918    0.0000 C   0  0  0  0  0  0  0  0  0  0  0  0
    6.9284   -7.2918    0.0000 C   0  0  0  0  0  0  0  0  0  0  0  0
    5.7585   -9.2794    0.0000 C   0  0  0  0  0  0  0  0  0  0  0  0
    8.0755   -7.9506    0.0000 C   0  0  0  0  0  0  0  0  0  0  0  0
    6.9284   -9.9496    0.0000 C   0  0  0  0  0  0  0  0  0  0  0  0
    8.0755   -9.2794    0.0000 C   0  0  0  0  0  0  0  0  0  0  0  0
    5.6108   -5.0429    0.0000 S   0  0  0  0  0  0  0  0  0  0  0  0
    5.6108   -3.7141    0.0000 O   0  0  0  0  0  0  0  0  0  0  0  0
    5.6108   -6.3718    0.0000 O   0  0  0  0  0  0  0  0  0  0  0  0
    6.9397   -5.0429    0.0000 O   0  0  0  0  0  0  0  0  0  0  0  0
    4.2819   -5.0429    0.0000 O   0  0  0  0  0  0  0  0  0  0  0  0
  1  2  2  0  0  0  0
  1  3  1  0  0  0  0
  1  4  1  0  0  0  0
  2  7  1  0  0  0  0
  3  5  1  0  0  0  0
  4  8  1  0  0  0  0
  5  6  1  0  0  0  0
  6  9  2  0  0  0  0
  6 10  1  0  0  0  0
  9 11  1  0  0  0  0
 10 12  2  0  0  0  0
 11 13  2  0  0  0  0
 12 13  1  0  0  0  0
 14 15  2  0  0  0  0
 14 16  1  0  0  0  0
 14 17  1  0  0  0  0
 15 20  1  0  0  0  0
 16 18  1  0  0  0  0
 17 21  1  0  0  0  0
 18 19  1  0  0  0  0
 19 22  2  0  0  0  0
 19 23  1  0  0  0  0
 22 24  1  0  0  0  0
 23 25  2  0  0  0  0
 24 26  2  0  0  0  0
 25 26  1  0  0  0  0
 27 28  2  0  0  0  0
 27 29  2  0  0  0  0
 27 30  1  0  0  0  0
 27 31  1  0  0  0  0
M  END
> <ID>
13739

> <Formula>
C20H32N6O4S

> <FW>
452.5709 (177.2462+177.2462+98.0785)

> <DSSTox_CID>
28674

> <DSSTox_RID>
82944

> <DSSTox_GSID>
48748

> <DSSTox_FileID_Sort>
7621

> <TS_ChemName>
Bethanidine sulfate

> <TS_ChemName_Synonyms>
Bethanidine Sulfate (2:1)

> <TS_CASRN>
114-85-2

> <CASRN_ChemName_Relationship>
primary

> <TS_Description>
single chemical compound

> <ChemNote>


> <STRUCTURE_Shown>
tested chemical

> <STRUCTURE_Formula>
C20H32N6O4S

> <STRUCTURE_MW>
452.5709

> <STRUCTURE_ChemType>
defined organic

> <STRUCTURE_DefinedOrganicForm>
salt

> <STRUCTURE_IUPAC>
1-benzyl-2,3-dimethylguanidine sulfate (2:1)

> <STRUCTURE_SMILES>
O=S(=O)(O)O.C\N=C(/NC)NCc1ccccc1.C\N=C(\NCc1ccccc1)NC

> <STRUCTURE_SMILES_Desalt>
C\N=C(\NCc1ccccc1)NC

> <Substance_modify_yyyymmdd>
20111204

$$$$
