114-80-7
ChemmineR-0915142007XD

 17 16  0  0  0  0  0  0  0  0  2 V2000
    4.5970   -1.9930    0.0000 C    0  0  0  0  0  0  0  0  0  0  0  0
    3.4452   -2.6641    0.0000 O    0  0  0  0  0  0  0  0  0  0  0  0
    2.3035   -1.9930    0.0000 C    0  0  0  0  0  0  0  0  0  0  0  0
    2.3035   -0.6610    0.0000 O    0  0  0  0  0  0  0  0  0  0  0  0
    1.1518   -2.6641    0.0000 N    0  0  0  0  0  0  0  0  0  0  0  0
    0.0000   -1.9930    0.0000 C    0  0  0  0  0  0  0  0  0  0  0  0
    1.1518   -3.9861    0.0000 C    0  0  0  0  0  0  0  0  0  0  0  0
    4.5970   -0.6610    0.0000 C    0  0  0  0  0  0  0  0  0  0  0  0
    5.7487    0.0000    0.0000 C    0  0  0  0  0  0  0  0  0  0  0  0
    6.9005   -0.6610    0.0000 C    0  0  0  0  0  0  0  0  0  0  0  0
    6.9005   -1.9930    0.0000 C    0  0  0  0  0  0  0  0  0  0  0  0
    8.0523   -2.6641    0.0000 N    0  3  0  0  0  0  0  0  0  0  0  0
    7.3912   -3.8158    0.0000 C    0  0  0  0  0  0  0  0  0  0  0  0
    8.7133   -1.5123    0.0000 C    0  0  0  0  0  0  0  0  0  0  0  0
    9.2040   -3.3251    0.0000 C    0  0  0  0  0  0  0  0  0  0  0  0
    5.7487   -2.6641    0.0000 C    0  0  0  0  0  0  0  0  0  0  0  0
   10.0152   -2.2134    0.0000 Br   0  5  0  0  0  0  0  0  0  0  0  0
  1  2  1  0  0  0  0
  1  8  2  0  0  0  0
  1 16  1  0  0  0  0
  2  3  1  0  0  0  0
  3  4  2  0  0  0  0
  3  5  1  0  0  0  0
  5  6  1  0  0  0  0
  5  7  1  0  0  0  0
  8  9  1  0  0  0  0
  9 10  2  0  0  0  0
 10 11  1  0  0  0  0
 11 12  1  0  0  0  0
 11 16  2  0  0  0  0
 12 13  1  0  0  0  0
 12 14  1  0  0  0  0
 12 15  1  0  0  0  0
M  END
> <ID>
8087

> <Formula>
C12H19BrN2O2

> <FW>
303.1955 (223.2909+79.9045)

> <DSSTox_CID>
21075

> <DSSTox_RID>
79621

> <DSSTox_GSID>
41075

> <DSSTox_FileID_Sort>
4303

> <TS_ChemName>
Neostigmine bromide

> <TS_ChemName_Synonyms>


> <TS_CASRN>
114-80-7

> <CASRN_ChemName_Relationship>
primary

> <TS_Description>
single chemical compound

> <ChemNote>
ammonium; parent [59-99-4]

> <STRUCTURE_Shown>
tested chemical

> <STRUCTURE_Formula>
C12H19BrN2O2

> <STRUCTURE_MW>
303.1955

> <STRUCTURE_ChemType>
defined organic

> <STRUCTURE_DefinedOrganicForm>
salt

> <STRUCTURE_IUPAC>
3-[(dimethylcarbamoyl)oxy]-N,N,N-trimethylanilinium bromide

> <STRUCTURE_SMILES>
[Br-].O=C(Oc1cccc(c1)[N+](C)(C)C)N(C)C

> <STRUCTURE_SMILES_Desalt>
O=C(Oc1cccc(c1)[N+](C)(C)C)N(C)C

> <Substance_modify_yyyymmdd>
20080429

$$$$
