114-83-0
ChemmineR-0915142007XD

 11 11  0  0  0  0  0  0  0  0  1 V2000
    3.9907   -2.3079    0.0000 C   0  0  0  0  0  0  0  0  0  0  0  0
    2.6605   -2.3079    0.0000 N   0  0  0  0  0  0  0  0  0  0  0  0
    1.9953   -1.1573    0.0000 N   0  0  0  0  0  0  0  0  0  0  0  0
    0.6651   -1.1573    0.0000 C   0  0  0  0  0  0  0  0  0  0  0  0
    0.0000   -2.3079    0.0000 C   0  0  0  0  0  0  0  0  0  0  0  0
    0.0000    0.0000    0.0000 O   0  0  0  0  0  0  0  0  0  0  0  0
    4.6558   -1.1573    0.0000 C   0  0  0  0  0  0  0  0  0  0  0  0
    5.9860   -1.1573    0.0000 C   0  0  0  0  0  0  0  0  0  0  0  0
    6.6511   -2.3079    0.0000 C   0  0  0  0  0  0  0  0  0  0  0  0
    5.9860   -3.4586    0.0000 C   0  0  0  0  0  0  0  0  0  0  0  0
    4.6558   -3.4586    0.0000 C   0  0  0  0  0  0  0  0  0  0  0  0
  1  2  1  0  0  0  0
  1  7  2  0  0  0  0
  1 11  1  0  0  0  0
  2  3  1  0  0  0  0
  3  4  1  0  0  0  0
  4  5  1  0  0  0  0
  4  6  2  0  0  0  0
  7  8  1  0  0  0  0
  8  9  2  0  0  0  0
  9 10  1  0  0  0  0
 10 11  2  0  0  0  0
M  END
> <ID>
15

> <Formula>
C8H10N2O

> <FW>
150.1778

> <DSSTox_CID>
15

> <DSSTox_RID>
75322

> <DSSTox_GSID>
20015

> <DSSTox_FileID_Sort>
6

> <TS_ChemName>
1-Acetyl-2-phenylhydrazine

> <TS_ChemName_Synonyms>
1-Acetyl-2-phenylhydrazide

> <TS_CASRN>
114-83-0

> <CASRN_ChemName_Relationship>
primary

> <TS_Description>
single chemical compound

> <ChemNote>


> <STRUCTURE_Shown>
tested chemical

> <STRUCTURE_Formula>
C8H10N2O

> <STRUCTURE_MW>
150.1778

> <STRUCTURE_ChemType>
defined organic

> <STRUCTURE_DefinedOrganicForm>
parent

> <STRUCTURE_IUPAC>
N'-phenylacetohydrazide

> <STRUCTURE_SMILES>
CC(=O)NNc1ccccc1

> <STRUCTURE_SMILES_Desalt>
CC(=O)NNc1ccccc1

> <Substance_modify_yyyymmdd>
20080429

$$$$
