114-07-8
ChemmineR-0915142007XD

 51 53  0  0  1  0  0  0  0  0  1 V2000
    5.9322   -7.2005    0.0000 C   0  0  0  0  0  0  0  0  0  0  0  0
    3.7230   -7.2005    0.0000 C   0  0  0  0  0  0  0  0  0  0  0  0
    2.5774   -3.9821    0.0000 C   0  0  0  0  0  0  0  0  0  0  0  0
    4.8412   -7.8551    0.0000 C   0  0  0  0  0  0  0  0  0  0  0  0
    7.0095   -5.2913    0.0000 C   0  0  0  0  0  0  0  0  0  0  0  0
    5.9322   -5.9322    0.0000 C   0  0  0  0  0  0  0  0  0  0  0  0
    3.7230   -2.0729    0.0000 C   0  0  0  0  0  0  0  0  0  0  0  0
    3.7230   -5.9322    0.0000 O   0  0  0  0  0  0  0  0  0  0  0  0
    3.7230   -3.3548    0.0000 C   0  0  0  0  0  0  0  0  0  0  0  0
    4.8685   -1.3501    0.0000 C   0  0  0  0  0  0  0  0  0  0  0  0
    8.1823   -5.9731    0.0000 O   0  0  0  0  0  0  0  0  0  0  0  0
    7.0095   -3.9821    0.0000 C   0  0  0  0  0  0  0  0  0  0  0  0
    2.5774   -5.2913    0.0000 C   0  0  0  0  0  0  0  0  0  0  0  0
    7.0368   -7.8960    0.0000 O   0  0  0  0  0  0  0  0  0  0  0  0
    5.9322   -2.0729    0.0000 C   0  0  0  0  0  0  0  0  0  0  0  0
    5.9322   -3.3548    0.0000 C   0  0  0  0  0  0  0  0  0  0  0  0
    2.5774   -7.8960    0.0000 O   0  0  0  0  0  0  0  0  0  0  0  0
    4.8685    0.0000    0.0000 O   0  0  0  0  0  0  0  0  0  0  0  0
    2.5774   -2.6593    0.0000 O   0  0  0  0  0  0  0  0  0  0  0  0
    7.0095   -2.6593    0.0000 O   0  0  0  0  0  0  0  0  0  0  0  0
    4.8412   -3.9957    0.0000 O   0  0  0  0  0  0  0  0  0  0  0  0
    1.4865   -3.2729    0.0000 C   0  0  0  0  0  0  0  0  0  0  0  0
    4.8412   -9.1233    0.0000 C   0  0  0  0  0  0  0  0  0  0  0  0
    5.1276   -5.2776    0.0000 C   0  0  0  0  0  0  0  0  0  0  0  0
    2.5774   -1.4046    0.0000 C   0  0  0  0  0  0  0  0  0  0  0  0
    8.2233   -3.4366    0.0000 C   0  0  0  0  0  0  0  0  0  0  0  0
    1.5001   -5.9731    0.0000 C   0  0  0  0  0  0  0  0  0  0  0  0
    7.0368   -1.4046    0.0000 C   0  0  0  0  0  0  0  0  0  0  0  0
    0.0000   -5.4685    0.0000 C   0  0  0  0  0  0  0  0  0  0  0  0
    8.2369  -11.3053    0.0000 C   0  0  0  0  0  0  0  0  0  0  0  0
    7.0368  -11.9871    0.0000 C   0  0  0  0  0  0  0  0  0  0  0  0
    8.2369   -9.9143    0.0000 C   0  0  0  0  0  0  0  0  0  0  0  0
    5.8777  -11.3053    0.0000 C   0  0  0  0  0  0  0  0  0  0  0  0
    7.0368   -9.2461    0.0000 C   0  0  0  0  0  0  0  0  0  0  0  0
    5.8777   -9.9143    0.0000 O   0  0  0  0  0  0  0  0  0  0  0  0
    9.6006  -11.2916    0.0000 O   0  0  0  0  0  0  0  0  0  0  0  0
    7.0368  -13.3509    0.0000 O   0  0  0  0  0  0  0  0  0  0  0  0
    8.6051  -12.7645    0.0000 C   0  0  0  0  0  0  0  0  0  0  0  0
   10.3234  -12.4508    0.0000 C   0  0  0  0  0  0  0  0  0  0  0  0
    4.6912  -11.9871    0.0000 C   0  0  0  0  0  0  0  0  0  0  0  0
   11.5917   -4.7594    0.0000 C   0  0  0  0  0  0  0  0  0  0  0  0
   12.2735   -5.9731    0.0000 C   0  0  0  0  0  0  0  0  0  0  0  0
   10.2007   -4.7594    0.0000 C   0  0  0  0  0  0  0  0  0  0  0  0
   11.5917   -7.1459    0.0000 C   0  0  0  0  0  0  0  0  0  0  0  0
    9.5324   -5.9731    0.0000 C   0  0  0  0  0  0  0  0  0  0  0  0
   10.2007   -7.1459    0.0000 O   0  0  0  0  0  0  0  0  0  0  0  0
   12.2735   -8.3324    0.0000 C   0  0  0  0  0  0  0  0  0  0  0  0
   10.1325   -3.6139    0.0000 O   0  0  0  0  0  0  0  0  0  0  0  0
   12.2735   -3.6139    0.0000 N   0  0  0  0  0  0  0  0  0  0  0  0
   13.6372   -3.6139    0.0000 C   0  0  0  0  0  0  0  0  0  0  0  0
   11.5917   -2.4138    0.0000 C   0  0  0  0  0  0  0  0  0  0  0  0
  1  6  1  0  0  0  0
  1  4  1  0  0  0  0
  1 14  1  6  0  0  0
  2  4  1  0  0  0  0
  2  8  1  0  0  0  0
  2 17  2  0  0  0  0
  3  9  1  0  0  0  0
  3 19  1  1  0  0  0
  3 22  1  6  0  0  0
  3 13  1  0  0  0  0
  4 23  1  1  0  0  0
  5 11  1  6  0  0  0
  5  6  1  0  0  0  0
  5 12  1  0  0  0  0
  6 24  1  6  0  0  0
  7 10  1  0  0  0  0
  7  9  1  0  0  0  0
  7 25  1  1  0  0  0
  8 13  1  0  0  0  0
  9 21  1  1  0  0  0
 10 15  1  0  0  0  0
 10 18  2  0  0  0  0
 45 11  1  1  0  0  0
 12 16  1  0  0  0  0
 12 20  1  1  0  0  0
 12 26  1  6  0  0  0
 13 27  1  6  0  0  0
 34 14  1  1  0  0  0
 15 16  1  0  0  0  0
 15 28  1  6  0  0  0
 27 29  1  0  0  0  0
 30 31  1  0  0  0  0
 30 32  1  0  0  0  0
 30 36  1  1  0  0  0
 30 38  1  6  0  0  0
 31 33  1  0  0  0  0
 31 37  1  1  0  0  0
 32 34  1  0  0  0  0
 33 35  1  0  0  0  0
 33 40  1  6  0  0  0
 34 35  1  0  0  0  0
 36 39  1  0  0  0  0
 41 42  1  0  0  0  0
 41 43  1  0  0  0  0
 41 49  1  1  0  0  0
 42 44  1  0  0  0  0
 43 45  1  0  0  0  0
 43 48  1  6  0  0  0
 44 46  1  0  0  0  0
 44 47  1  1  0  0  0
 45 46  1  0  0  0  0
 49 50  1  0  0  0  0
 49 51  1  0  0  0  0
M  END
> <ID>
2693

> <Formula>
C37H67NO13

> <FW>
733.9268

> <DSSTox_CID>
2991

> <DSSTox_RID>
76820

> <DSSTox_GSID>
22991

> <DSSTox_FileID_Sort>
1504

> <TS_ChemName>
Erythromycin

> <TS_ChemName_Synonyms>


> <TS_CASRN>
114-07-8

> <CASRN_ChemName_Relationship>
primary

> <TS_Description>
single chemical compound

> <ChemNote>
stereochem

> <STRUCTURE_Shown>
tested chemical

> <STRUCTURE_Formula>
C37H67NO13

> <STRUCTURE_MW>
733.9268

> <STRUCTURE_ChemType>
defined organic

> <STRUCTURE_DefinedOrganicForm>
parent

> <STRUCTURE_IUPAC>
(3R,4S,5S,6R,7R,9R,11R,12R,13S,14R)-6-{[(2S,3R,4S,6R)-4-(dimethylamino)-3-hydroxy-6-methyltetrahydro-2H-pyran-2-yl]oxy}-14-ethyl-7,12,13-trihydroxy-4-{[(2R,4R,5S,6S)-5-hydroxy-4-methoxy-4,6-dimethyltetrahydro-2H-pyran-2-yl]oxy}-3,5,7,9,11,13-hexamethyloxa

> <STRUCTURE_SMILES>
CN(C)[C@H]3C[C@@H](C)O[C@@H](O[C@@H]2[C@@H](C)[C@H](O[C@H]1C[C@@](C)(OC)[C@@H](O)[C@H](C)O1)[C@@H](C)C(=O)O[C@H](CC)[C@@](C)(O)[C@H](O)[C@@H](C)C(=O)[C@H](C)C[C@@]2(C)O)[C@@H]3O

> <STRUCTURE_SMILES_Desalt>
CN(C)[C@H]3C[C@@H](C)O[C@@H](O[C@@H]2[C@@H](C)[C@H](O[C@H]1C[C@@](C)(OC)[C@@H](O)[C@H](C)O1)[C@@H](C)C(=O)O[C@H](CC)[C@@](C)(O)[C@H](O)[C@@H](C)C(=O)[C@H](C)C[C@@]2(C)O)[C@@H]3O

> <Substance_modify_yyyymmdd>
20080429

$$$$
