1141-38-4
ChemmineR-0915142007XD

 16 17  0  0  0  0  0  0  0  0  1 V2000
    4.6123   -1.9833    0.0000 C   0  0  0  0  0  0  0  0  0  0  0  0
    4.6123   -3.3300    0.0000 C   0  0  0  0  0  0  0  0  0  0  0  0
    3.4592   -1.3283    0.0000 C   0  0  0  0  0  0  0  0  0  0  0  0
    3.4592   -3.9850    0.0000 C   0  0  0  0  0  0  0  0  0  0  0  0
    5.7653   -3.9850    0.0000 C   0  0  0  0  0  0  0  0  0  0  0  0
    5.7653   -1.3283    0.0000 C   0  0  0  0  0  0  0  0  0  0  0  0
    6.9184   -1.9833    0.0000 C   0  0  0  0  0  0  0  0  0  0  0  0
    6.9184   -3.3300    0.0000 C   0  0  0  0  0  0  0  0  0  0  0  0
    2.3061   -3.3300    0.0000 C   0  0  0  0  0  0  0  0  0  0  0  0
    2.3061   -1.9833    0.0000 C   0  0  0  0  0  0  0  0  0  0  0  0
    8.0714   -1.3283    0.0000 C   0  0  0  0  0  0  0  0  0  0  0  0
    9.2245   -1.9833    0.0000 O   0  0  0  0  0  0  0  0  0  0  0  0
    8.0714    0.0000    0.0000 O   0  0  0  0  0  0  0  0  0  0  0  0
    1.1531   -3.9850    0.0000 C   0  0  0  0  0  0  0  0  0  0  0  0
    0.0000   -3.3300    0.0000 O   0  0  0  0  0  0  0  0  0  0  0  0
    1.1531   -5.3133    0.0000 O   0  0  0  0  0  0  0  0  0  0  0  0
  1  2  2  0  0  0  0
  1  3  1  0  0  0  0
  1  6  1  0  0  0  0
  2  4  1  0  0  0  0
  2  5  1  0  0  0  0
  3 10  2  0  0  0  0
  4  9  2  0  0  0  0
  5  8  2  0  0  0  0
  6  7  2  0  0  0  0
  7  8  1  0  0  0  0
  7 11  1  0  0  0  0
  9 10  1  0  0  0  0
  9 14  1  0  0  0  0
 11 12  2  0  0  0  0
 11 13  1  0  0  0  0
 14 15  2  0  0  0  0
 14 16  1  0  0  0  0
M  END
> <ID>
5859

> <Formula>
C12H8O4

> <FW>
216.1895

> <DSSTox_CID>
9211

> <DSSTox_RID>
78711

> <DSSTox_GSID>
29211

> <DSSTox_FileID_Sort>
3393

> <TS_ChemName>
2,6-Naphthalenedicarboxylic acid

> <TS_ChemName_Synonyms>


> <TS_CASRN>
1141-38-4

> <CASRN_ChemName_Relationship>
primary

> <TS_Description>
single chemical compound

> <ChemNote>


> <STRUCTURE_Shown>
tested chemical

> <STRUCTURE_Formula>
C12H8O4

> <STRUCTURE_MW>
216.1895

> <STRUCTURE_ChemType>
defined organic

> <STRUCTURE_DefinedOrganicForm>
parent

> <STRUCTURE_IUPAC>
naphthalene-2,6-dicarboxylic acid

> <STRUCTURE_SMILES>
O=C(O)c1ccc2cc(ccc2c1)C(=O)O

> <STRUCTURE_SMILES_Desalt>
O=C(O)c1ccc2cc(ccc2c1)C(=O)O

> <Substance_modify_yyyymmdd>
20080429

$$$$
