1142337-10-7
ChemmineR-0915142007XD

 72 78  0  0  1  0  0  0  0  0  1 V2000
    4.5537   -3.9682    0.0000 C   0  0  0  0  0  0  0  0  0  0  0  0
    4.5537   -5.2692    0.0000 C   0  0  0  0  0  0  0  0  0  0  0  0
    3.4261   -3.2960    0.0000 C   0  0  0  0  0  0  0  0  0  0  0  0
    3.4261   -5.9197    0.0000 O   0  0  0  0  0  0  0  0  0  0  0  0
    2.2985   -3.9682    0.0000 C   0  0  0  0  0  0  0  0  0  0  0  0
    2.2985   -5.2692    0.0000 C   0  0  0  0  0  0  0  0  0  0  0  0
    3.4261   -1.9732    0.0000 O   0  0  0  0  0  0  0  0  0  0  0  0
    1.1493   -3.2960    0.0000 N   0  0  0  0  0  0  0  0  0  0  0  0
    1.1493   -5.9197    0.0000 C   0  0  0  0  0  0  0  0  0  0  0  0
    5.7246   -5.9197    0.0000 O   0  0  0  0  0  0  0  0  0  0  0  0
    6.8522   -5.2692    0.0000 C   0  0  0  0  0  0  0  0  0  0  0  0
    6.8522   -3.9682    0.0000 C   0  0  0  0  0  0  0  0  0  0  0  0
    8.0231   -5.9197    0.0000 C   0  0  0  0  0  0  0  0  0  0  0  0
    8.0231   -3.2960    0.0000 O   0  0  0  0  0  0  0  0  0  0  0  0
    9.1290   -5.2692    0.0000 C   0  0  0  0  0  0  0  0  0  0  0  0
    9.1290   -3.9682    0.0000 C   0  0  0  0  0  0  0  0  0  0  0  0
    1.1493   -1.9732    0.0000 C   0  0  0  0  0  0  0  0  0  0  0  0
    2.2985   -1.3227    0.0000 O   0  0  0  0  0  0  0  0  0  0  0  0
    0.0000   -1.3227    0.0000 C   0  0  0  0  0  0  0  0  0  0  0  0
   10.2782   -3.2960    0.0000 O   0  0  0  0  0  0  0  0  0  0  0  0
    4.5537   -1.3227    0.0000 C   0  0  0  0  0  0  0  0  0  0  0  0
   13.7043   -3.9682    0.0000 C   0  0  0  0  0  0  0  0  0  0  0  0
   12.5551   -3.2960    0.0000 C   0  0  0  0  0  0  0  0  0  0  0  0
   12.5551   -5.9197    0.0000 C   0  0  0  0  0  0  0  0  0  0  0  0
   11.4058   -3.9682    0.0000 C   0  0  0  0  0  0  0  0  0  0  0  0
   11.4058   -5.2692    0.0000 C   0  0  0  0  0  0  0  0  0  0  0  0
   14.8319   -3.2960    0.0000 C   0  0  0  0  0  0  0  0  0  0  0  0
   15.9812   -3.9682    0.0000 C   0  0  0  0  0  0  0  0  0  0  0  0
   15.9812   -5.2692    0.0000 C   0  0  0  0  0  0  0  0  0  0  0  0
   17.1304   -3.2960    0.0000 O   0  0  0  0  0  0  0  0  0  0  0  0
   18.2580   -3.9682    0.0000 C   0  0  0  0  0  0  0  0  0  0  0  0
   17.1304   -5.9197    0.0000 C   0  0  0  0  0  0  0  0  0  0  0  0
   18.2580   -5.2692    0.0000 C   0  0  0  0  0  0  0  0  0  0  0  0
   20.5348   -2.6455    0.0000 C   0  0  0  0  0  0  0  0  0  0  0  0
   20.5348   -3.9682    0.0000 C   0  0  0  0  0  0  0  0  0  0  0  0
   19.4072   -1.9732    0.0000 C   0  0  0  0  0  0  0  0  0  0  0  0
   19.4072   -4.6187    0.0000 C   0  0  0  0  0  0  0  0  0  0  0  0
   18.2580   -2.6455    0.0000 O   0  0  0  0  0  0  0  0  0  0  0  0
   12.5551   -7.2425    0.0000 C   0  0  0  0  0  0  0  0  0  0  0  0
   13.7043   -7.8930    0.0000 C   0  0  0  0  0  0  0  0  0  0  0  0
   17.1304   -7.2425    0.0000 O   0  0  0  0  0  0  0  0  0  0  0  0
   15.9812   -7.8930    0.0000 C   0  0  0  0  0  0  0  0  0  0  0  0
   13.7043   -9.2157    0.0000 C   0  0  0  0  0  0  0  0  0  0  0  0
   15.9812   -9.2157    0.0000 C   0  0  0  0  0  0  0  0  0  0  0  0
   14.8319   -9.8662    0.0000 C   0  0  0  0  0  0  0  0  0  0  0  0
   12.5551   -9.8662    0.0000 C   0  0  0  0  0  0  0  0  0  0  0  0
   12.5551  -11.2107    0.0000 O   0  0  0  0  0  0  0  0  0  0  0  0
   14.8319  -11.2107    0.0000 C   0  0  0  0  0  0  0  0  0  0  0  0
   17.1304   -9.8662    0.0000 C   0  0  0  0  0  0  0  0  0  0  0  0
   17.1304  -11.2107    0.0000 C   0  0  0  0  0  0  0  0  0  0  0  0
   15.9812  -11.8395    0.0000 C   0  0  0  0  0  0  0  0  0  0  0  0
   12.5551   -1.9732    0.0000 C   0  0  0  0  0  0  0  0  0  0  0  0
   10.2782   -5.9197    0.0000 C   0  0  0  0  0  0  0  0  0  0  0  0
   14.8319   -8.5435    0.0000 O   0  0  0  0  0  0  0  0  0  0  0  0
   15.9812  -13.1622    0.0000 O   0  0  0  0  0  0  0  0  0  0  0  0
   18.2580  -11.8395    0.0000 C   0  0  0  0  0  0  0  0  0  0  0  0
   15.9378  -10.5818    0.0000 H   0  0  0  0  0  0  0  0  0  0  0  0
   14.8319   -7.2425    0.0000 O   0  0  0  0  0  0  0  0  0  0  0  0
   15.9812   -2.6455    0.0000 H   0  0  0  0  0  0  0  0  0  0  0  0
   14.8319  -12.4900    0.0000 H   0  0  0  0  0  0  0  0  0  0  0  0
   19.4072   -0.6505    0.0000 C   0  0  0  0  0  0  0  0  0  0  0  0
   20.5348    0.0000    0.0000 C   0  0  0  0  0  0  0  0  0  0  0  0
   18.2580    0.0000    0.0000 C   0  0  0  0  0  0  0  0  0  0  0  0
   21.6841   -1.9949    0.0000 C   0  0  0  0  0  0  0  0  0  0  0  0
    4.5753   -6.5703    0.0000 H   0  0  0  0  0  0  0  0  0  0  0  0
    5.7029   -3.2960    0.0000 C   0  0  0  0  0  0  0  0  0  0  0  0
    8.0014   -7.2425    0.0000 O   0  0  0  0  0  0  0  0  0  0  0  0
    6.8305   -7.8930    0.0000 C   0  0  0  0  0  0  0  0  0  0  0  0
    9.1507   -2.6455    0.0000 H   0  0  0  0  0  0  0  0  0  0  0  0
   17.1304   -4.6187    0.0000 H   0  0  0  0  0  0  0  0  0  0  0  0
   19.4506   -3.2960    0.0000 H   0  0  0  0  0  0  0  0  0  0  0  0
   21.6841   -0.6505    0.0000 C   0  0  0  0  0  0  0  0  0  0  0  0
  1  2  1  0  0  0  0
  1  3  1  0  0  0  0
  2  4  1  0  0  0  0
  2 10  1  0  0  0  0
  2 65  1  1  0  0  0
  3  5  1  0  0  0  0
  3  7  1  1  0  0  0
  4  6  1  0  0  0  0
  5  6  1  0  0  0  0
  5  8  1  1  0  0  0
  6  9  1  1  0  0  0
  7 21  1  0  0  0  0
  8 17  1  0  0  0  0
 11 10  1  1  0  0  0
 11 12  1  0  0  0  0
 11 13  1  0  0  0  0
 12 14  1  0  0  0  0
 12 66  1  6  0  0  0
 13 15  1  0  0  0  0
 13 67  1  6  0  0  0
 14 16  1  0  0  0  0
 15 16  1  0  0  0  0
 16 20  1  0  0  0  0
 16 69  1  6  0  0  0
 17 18  2  0  0  0  0
 17 19  1  0  0  0  0
 25 20  1  6  0  0  0
 22 23  2  0  0  0  0
 22 27  1  0  0  0  0
 23 25  1  0  0  0  0
 23 52  1  0  0  0  0
 24 26  1  0  0  0  0
 24 39  2  0  0  0  0
 25 26  1  0  0  0  0
 26 53  1  6  0  0  0
 27 28  1  0  0  0  0
 28 30  1  0  0  0  0
 28 29  1  0  0  0  0
 28 59  1  6  0  0  0
 29 32  1  0  0  0  0
 31 30  1  1  0  0  0
 31 33  1  6  0  0  0
 31 37  1  0  0  0  0
 31 38  1  0  0  0  0
 32 33  1  0  0  0  0
 32 41  1  0  0  0  0
 32 70  1  6  0  0  0
 34 35  1  0  0  0  0
 34 36  1  0  0  0  0
 34 64  1  1  0  0  0
 35 37  2  0  0  0  0
 36 38  1  0  0  0  0
 36 61  1  0  0  0  0
 36 71  1  1  0  0  0
 39 40  1  0  0  0  0
 40 43  2  0  0  0  0
 41 42  1  0  0  0  0
 42 44  1  0  0  0  0
 42 58  2  0  0  0  0
 43 46  1  0  0  0  0
 43 45  1  0  0  0  0
 44 49  1  0  0  0  0
 44 45  1  0  0  0  0
 44 57  1  1  0  0  0
 45 48  1  0  0  0  0
 45 54  1  6  0  0  0
 46 47  1  0  0  0  0
 47 48  1  0  0  0  0
 48 51  1  0  0  0  0
 48 60  1  6  0  0  0
 49 50  2  0  0  0  0
 50 51  1  0  0  0  0
 50 56  1  0  0  0  0
 51 55  1  1  0  0  0
 61 62  1  0  0  0  0
 61 63  1  0  0  0  0
 62 72  1  0  0  0  0
 67 68  1  0  0  0  0
M  END
> <ID>
13965

> <Formula>
C50H75NO14

> <FW>
914.1288

> <DSSTox_CID>
28903

> <DSSTox_RID>
82879

> <DSSTox_GSID>
48683

> <DSSTox_FileID_Sort>
7556

> <TS_ChemName>
Eprinomectin (B1a, B1b mixture)

> <TS_ChemName_Synonyms>
Eprinomectin B1a and B1b mixture

> <TS_CASRN>
1142337-10-7

> <CASRN_ChemName_Relationship>
primary

> <TS_Description>
mixture or formulation

> <ChemNote>
undefined mixture of Eprinomectin B1a CID [28903] CASRN [133305-88-1] (2-methylbutane side chain) and B1b CID [17695] CASRN [133305-89-2] (isopropyl side chain); structure shown B1a; absolute stereochem

> <STRUCTURE_Shown>
representative component

> <STRUCTURE_Formula>
C50H75NO14

> <STRUCTURE_MW>
914.1288

> <STRUCTURE_ChemType>
defined organic

> <STRUCTURE_DefinedOrganicForm>
parent

> <STRUCTURE_IUPAC>
(2aE,4E,5'S,6S,6'R,7S,8E,11R,13S,15S,17aR,20R,20aR,20bS)-6'-(butan-2-yl)-20,20b-dihydroxy-5',6,8,19-tetramethyl-17-oxo-5',6,6',10,11,14,15,17,17a,20,20a,20b-dodecahydro-2H,7H-spiro[11,15-methanofuro[4,3,2-pq][2,6]benzodioxacyclooctadecine-13,2'-pyran]-7-y

> <STRUCTURE_SMILES>
CC(=O)N[C@H]1[C@@H](OC)C[C@@H](O[C@H]1C)O[C@@H]2[C@@H](OC)C[C@@H](O[C@H]2C)O[C@@H]3C(C)=CC[C@@H]6C[C@H](OC(=O)[C@@H]4C=C(C)[C@@H](O)[C@H]5OCC(=CC=C[C@@H]3C)[C@@]45O)C[C@@]7(O6)C=C[C@H](C)[C@H](O7)C(C)CC

> <STRUCTURE_SMILES_Desalt>
CC(=O)N[C@H]1[C@@H](OC)C[C@@H](O[C@H]1C)O[C@@H]2[C@@H](OC)C[C@@H](O[C@H]2C)O[C@@H]3C(C)=CC[C@@H]6C[C@H](OC(=O)[C@@H]4C=C(C)[C@@H](O)[C@H]5OCC(=CC=C[C@@H]3C)[C@@]45O)C[C@@]7(O6)C=C[C@H](C)[C@H](O7)C(C)CC

> <Substance_modify_yyyymmdd>
20111204

$$$$
