114311-32-9
ChemmineR-0915142007XD

 22 23  0  0  0  0  0  0  0  0  1 V2000
    4.6596   -5.7625    0.0000 C   0  0  0  0  0  0  0  0  0  0  0  0
    5.9739   -5.8912    0.0000 N   0  0  0  0  0  0  0  0  0  0  0  0
    4.1174   -6.9849    0.0000 N   0  0  0  0  0  0  0  0  0  0  0  0
    5.1100   -7.8580    0.0000 C   0  0  0  0  0  0  0  0  0  0  0  0
    4.6596   -3.4557    0.0000 C   0  0  0  0  0  0  0  0  0  0  0  0
    6.2404   -7.2054    0.0000 C   0  0  0  0  0  0  0  0  0  0  0  0
    3.9887   -4.6137    0.0000 C   0  0  0  0  0  0  0  0  0  0  0  0
    2.6561   -4.6137    0.0000 N   0  0  0  0  0  0  0  0  0  0  0  0
    5.9923   -3.4557    0.0000 C   0  0  0  0  0  0  0  0  0  0  0  0
    3.9887   -2.3068    0.0000 C   0  0  0  0  0  0  0  0  0  0  0  0
    4.9629   -9.1906    0.0000 O   0  0  0  0  0  0  0  0  0  0  0  0
    6.6448   -2.3068    0.0000 O   0  0  0  0  0  0  0  0  0  0  0  0
    2.6561   -2.3068    0.0000 C   0  0  0  0  0  0  0  0  0  0  0  0
    2.0036   -3.4557    0.0000 C   0  0  0  0  0  0  0  0  0  0  0  0
    7.5731   -7.0584    0.0000 C   0  0  0  0  0  0  0  0  0  0  0  0
    6.6448   -4.6137    0.0000 O   0  0  0  0  0  0  0  0  0  0  0  0
    7.0308   -8.2807    0.0000 C   0  0  0  0  0  0  0  0  0  0  0  0
    0.6709   -1.1488    0.0000 O   0  0  0  0  0  0  0  0  0  0  0  0
    2.0036   -1.1488    0.0000 C   0  0  0  0  0  0  0  0  0  0  0  0
    8.3543   -8.1337    0.0000 C   0  0  0  0  0  0  0  0  0  0  0  0
    8.1153   -5.8452    0.0000 C   0  0  0  0  0  0  0  0  0  0  0  0
    0.0000    0.0000    0.0000 C   0  0  0  0  0  0  0  0  0  0  0  0
  1  2  2  0  0  0  0
  1  3  1  0  0  0  0
  1  7  1  0  0  0  0
  2  6  1  0  0  0  0
  3  4  1  0  0  0  0
  4 11  2  0  0  0  0
  4  6  1  0  0  0  0
  5  7  1  0  0  0  0
  5  9  1  0  0  0  0
  5 10  2  0  0  0  0
  6 15  1  0  0  0  0
  6 17  1  0  0  0  0
  7  8  2  0  0  0  0
  8 14  1  0  0  0  0
  9 12  2  0  0  0  0
  9 16  1  0  0  0  0
 10 13  1  0  0  0  0
 13 19  1  0  0  0  0
 13 14  2  0  0  0  0
 15 20  1  0  0  0  0
 15 21  1  0  0  0  0
 18 19  1  0  0  0  0
 18 22  1  0  0  0  0
M  END
> <ID>
6860

> <Formula>
C15H19N3O4

> <FW>
305.3291

> <DSSTox_CID>
14664

> <DSSTox_RID>
79185

> <DSSTox_GSID>
34664

> <DSSTox_FileID_Sort>
3867

> <TS_ChemName>
Imazamox

> <TS_ChemName_Synonyms>
Imazamox (3-Pyridinecarboxylic acid, 2-(4,5-dihydro-4-methyl -4-(1-methylethyl)-5-oxo-1H-imidazol-2-yl)-5-(methoxymethyl)-)

> <TS_CASRN>
114311-32-9

> <CASRN_ChemName_Relationship>
primary

> <TS_Description>
single chemical compound

> <ChemNote>
tautomers

> <STRUCTURE_Shown>
tested chemical

> <STRUCTURE_Formula>
C15H19N3O4

> <STRUCTURE_MW>
305.3291

> <STRUCTURE_ChemType>
defined organic

> <STRUCTURE_DefinedOrganicForm>
parent

> <STRUCTURE_IUPAC>
5-(methoxymethyl)-2-[4-methyl-5-oxo-4-(propan-2-yl)-4,5-dihydro-1H-imidazol-2-yl]pyridine-3-carboxylic acid

> <STRUCTURE_SMILES>
CC1(N=C(NC1=O)c2ncc(COC)cc2C(=O)O)C(C)C

> <STRUCTURE_SMILES_Desalt>
CC1(N=C(NC1=O)c2ncc(COC)cc2C(=O)O)C(C)C

> <Substance_modify_yyyymmdd>
20080429

$$$$
