114369-43-6
ChemmineR-0915142007XD

 24 26  0  0  0  0  0  0  0  0  1 V2000
    6.8815   -8.4229    0.0000 Cl   0  0  0  0  0  0  0  0  0  0  0  0
    6.2245   -7.2689    0.0000 C    0  0  0  0  0  0  0  0  0  0  0  0
    6.8815   -6.1150    0.0000 C    0  0  0  0  0  0  0  0  0  0  0  0
    6.2245   -4.9611    0.0000 C    0  0  0  0  0  0  0  0  0  0  0  0
    4.8937   -4.9611    0.0000 C    0  0  0  0  0  0  0  0  0  0  0  0
    4.2199   -6.1150    0.0000 C    0  0  0  0  0  0  0  0  0  0  0  0
    4.8937   -7.2689    0.0000 C    0  0  0  0  0  0  0  0  0  0  0  0
    4.2199   -3.7987    0.0000 C    0  0  0  0  0  0  0  0  0  0  0  0
    2.8890   -3.7987    0.0000 C    0  0  0  0  0  0  0  0  0  0  0  0
    2.2321   -2.6616    0.0000 C    0  0  0  0  0  0  0  0  0  0  0  0
    3.3860   -1.9878    0.0000 C    0  0  0  0  0  0  0  0  0  0  0  0
    4.5231   -2.6616    0.0000 C    0  0  0  0  0  0  0  0  0  0  0  0
    5.6770   -1.9878    0.0000 C    0  0  0  0  0  0  0  0  0  0  0  0
    5.6770   -0.6570    0.0000 C    0  0  0  0  0  0  0  0  0  0  0  0
    4.5231    0.0000    0.0000 C    0  0  0  0  0  0  0  0  0  0  0  0
    3.3860   -0.6570    0.0000 C    0  0  0  0  0  0  0  0  0  0  0  0
    1.5582   -1.5077    0.0000 C    0  0  0  0  0  0  0  0  0  0  0  0
    0.9012   -0.3538    0.0000 N    0  0  0  0  0  0  0  0  0  0  0  0
    1.0781   -3.3186    0.0000 C    0  0  0  0  0  0  0  0  0  0  0  0
    1.0781   -4.6494    0.0000 N    0  0  0  0  0  0  0  0  0  0  0  0
    0.0000   -5.4412    0.0000 N    0  0  0  0  0  0  0  0  0  0  0  0
    0.4043   -6.7046    0.0000 C    0  0  0  0  0  0  0  0  0  0  0  0
    1.7351   -6.7046    0.0000 N    0  0  0  0  0  0  0  0  0  0  0  0
    2.1478   -5.4412    0.0000 C    0  0  0  0  0  0  0  0  0  0  0  0
  1  2  1  0  0  0  0
  2  3  1  0  0  0  0
  2  7  2  0  0  0  0
  3  4  2  0  0  0  0
  4  5  1  0  0  0  0
  5  6  2  0  0  0  0
  5  8  1  0  0  0  0
  6  7  1  0  0  0  0
  8  9  1  0  0  0  0
  9 10  1  0  0  0  0
 10 11  1  0  0  0  0
 10 17  1  0  0  0  0
 10 19  1  0  0  0  0
 11 12  1  0  0  0  0
 11 16  2  0  0  0  0
 12 13  2  0  0  0  0
 13 14  1  0  0  0  0
 14 15  2  0  0  0  0
 15 16  1  0  0  0  0
 17 18  3  0  0  0  0
 19 20  1  0  0  0  0
 20 21  1  0  0  0  0
 20 24  1  0  0  0  0
 21 22  2  0  0  0  0
 22 23  1  0  0  0  0
 23 24  2  0  0  0  0
M  END
> <ID>
6510

> <Formula>
C19H17ClN4

> <FW>
336.8181

> <DSSTox_CID>
12548

> <DSSTox_RID>
78977

> <DSSTox_GSID>
32548

> <DSSTox_FileID_Sort>
3659

> <TS_ChemName>
Fenbuconazole

> <TS_ChemName_Synonyms>


> <TS_CASRN>
114369-43-6

> <CASRN_ChemName_Relationship>
primary

> <TS_Description>
single chemical compound

> <ChemNote>


> <STRUCTURE_Shown>
tested chemical

> <STRUCTURE_Formula>
C19H17ClN4

> <STRUCTURE_MW>
336.8181

> <STRUCTURE_ChemType>
defined organic

> <STRUCTURE_DefinedOrganicForm>
parent

> <STRUCTURE_IUPAC>
4-(4-chlorophenyl)-2-phenyl-2-(1H-1,2,4-triazol-1-ylmethyl)butanenitrile

> <STRUCTURE_SMILES>
Clc3ccc(CCC(Cn1cncn1)(C#N)c2ccccc2)cc3

> <STRUCTURE_SMILES_Desalt>
Clc3ccc(CCC(Cn1cncn1)(C#N)c2ccccc2)cc3

> <Substance_modify_yyyymmdd>
20080429

$$$$
