114417-20-8
ChemmineR-0915142007XD

 27 28  0  0  0  0  0  0  0  0  2 V2000
   11.3854   -6.8882    0.0000 K    0  3  0  0  0  0  0  0  0  0  0  0
    7.9811   -4.6111    0.0000 N    0  0  0  0  0  0  0  0  0  0  0  0
    8.6643   -5.7610    0.0000 O    0  0  0  0  0  0  0  0  0  0  0  0
    9.9850   -5.7610    0.0000 S    0  0  0  0  0  0  0  0  0  0  0  0
    9.9850   -7.0931    0.0000 O    0  5  0  0  0  0  0  0  0  0  0  0
    9.9850   -4.4289    0.0000 O    0  0  0  0  0  0  0  0  0  0  0  0
   11.3171   -5.7610    0.0000 O    0  0  0  0  0  0  0  0  0  0  0  0
    6.6604   -4.6111    0.0000 C    0  0  0  0  0  0  0  0  0  0  0  0
    6.0001   -5.7610    0.0000 C    0  0  0  0  0  0  0  0  0  0  0  0
    4.6680   -5.7610    0.0000 C    0  0  0  0  0  0  0  0  0  0  0  0
    3.9963   -4.6111    0.0000 N    0  0  0  0  0  0  0  0  0  0  0  0
    4.6680   -3.4498    0.0000 C    0  0  0  0  0  0  0  0  0  0  0  0
    3.9963   -2.3112    0.0000 C    0  0  0  0  0  0  0  0  0  0  0  0
    4.6680   -1.1613    0.0000 C    0  0  0  0  0  0  0  0  0  0  0  0
    6.0001   -1.1613    0.0000 C    0  0  0  0  0  0  0  0  0  0  0  0
    6.6604   -2.3112    0.0000 C    0  0  0  0  0  0  0  0  0  0  0  0
    6.0001   -3.4498    0.0000 C    0  0  0  0  0  0  0  0  0  0  0  0
    3.9963    0.0000    0.0000 Cl   0  0  0  0  0  0  0  0  0  0  0  0
    2.6642   -4.6111    0.0000 C    0  0  0  0  0  0  0  0  0  0  0  0
    2.0038   -3.4498    0.0000 C    0  0  0  0  0  0  0  0  0  0  0  0
    0.6717   -3.4498    0.0000 C    0  0  0  0  0  0  0  0  0  0  0  0
    0.0000   -2.3112    0.0000 C    0  0  0  0  0  0  0  0  0  0  0  0
    0.6717   -1.1613    0.0000 C    0  0  0  0  0  0  0  0  0  0  0  0
    2.0038   -1.1613    0.0000 C    0  0  0  0  0  0  0  0  0  0  0  0
    2.6642   -2.3112    0.0000 C    0  0  0  0  0  0  0  0  0  0  0  0
    0.0000   -4.6111    0.0000 C    0  0  0  0  0  0  0  0  0  0  0  0
    2.0038   -5.7610    0.0000 O    0  0  0  0  0  0  0  0  0  0  0  0
  2  3  1  0  0  0  0
  2  8  2  0  0  0  0
  3  4  1  0  0  0  0
  4  5  1  0  0  0  0
  4  6  2  0  0  0  0
  4  7  2  0  0  0  0
  8  9  1  0  0  0  0
  8 17  1  0  0  0  0
  9 10  1  0  0  0  0
 10 11  1  0  0  0  0
 11 12  1  0  0  0  0
 11 19  1  0  0  0  0
 12 13  1  0  0  0  0
 12 17  2  0  0  0  0
 13 14  2  0  0  0  0
 14 15  1  0  0  0  0
 14 18  1  0  0  0  0
 15 16  2  0  0  0  0
 16 17  1  0  0  0  0
 19 20  1  0  0  0  0
 19 27  2  0  0  0  0
 20 21  1  0  0  0  0
 20 25  2  0  0  0  0
 21 22  2  0  0  0  0
 21 26  1  0  0  0  0
 22 23  1  0  0  0  0
 23 24  2  0  0  0  0
 24 25  1  0  0  0  0
M  END
> <ID>
13796

> <Formula>
C17H14ClKN2O5S

> <FW>
432.9198 (39.0978+393.8220)

> <DSSTox_CID>
28733

> <DSSTox_RID>
83002

> <DSSTox_GSID>
48807

> <DSSTox_FileID_Sort>
7679

> <TS_ChemName>
Alilusem potassium

> <TS_ChemName_Synonyms>


> <TS_CASRN>
114417-20-8

> <CASRN_ChemName_Relationship>
primary

> <TS_Description>
single chemical compound

> <ChemNote>


> <STRUCTURE_Shown>
tested chemical

> <STRUCTURE_Formula>
C17H14ClKN2O5S

> <STRUCTURE_MW>
432.9198

> <STRUCTURE_ChemType>
defined organic

> <STRUCTURE_DefinedOrganicForm>
salt

> <STRUCTURE_IUPAC>
potassium [({(E)-[7-chloro-1-(2-methylbenzoyl)-2,3-dihydroquinolin-4(1H)-ylidene]amino}oxy)sulfonyl]oxidanide

> <STRUCTURE_SMILES>
[K+].Cc1ccccc1C(=O)N3CC/C(=N\OS([O-])(=O)=O)c2ccc(Cl)cc23

> <STRUCTURE_SMILES_Desalt>
Cc1ccccc1C(=O)N3CC/C(=N\OS(=O)(=O)O)c2ccc(Cl)cc23

> <Substance_modify_yyyymmdd>
20111204

$$$$
