114569-84-5
ChemmineR-0915142007XD

 19 18  0  0  0  0  0  0  0  0  2 V2000
   15.8597   -1.0585    0.0000 N    0  3  0  0  0  0  0  0  0  0  0  0
   13.7601   -1.7005    0.0000 N    0  0  0  0  0  0  0  0  0  0  0  0
   15.0615   -2.1690    0.0000 C    0  0  0  0  0  0  0  0  0  0  0  0
   15.0615    0.0000    0.0000 C    0  0  0  0  0  0  0  0  0  0  0  0
   13.7601   -0.3991    0.0000 C    0  0  0  0  0  0  0  0  0  0  0  0
   12.7190   -2.4987    0.0000 C    0  0  0  0  0  0  0  0  0  0  0  0
   11.4870   -1.9781    0.0000 C    0  0  0  0  0  0  0  0  0  0  0  0
   10.4285   -2.7416    0.0000 C    0  0  0  0  0  0  0  0  0  0  0  0
    9.1618   -2.1690    0.0000 C    0  0  0  0  0  0  0  0  0  0  0  0
    8.0686   -2.9498    0.0000 C    0  0  0  0  0  0  0  0  0  0  0  0
    6.8193   -2.4293    0.0000 C    0  0  0  0  0  0  0  0  0  0  0  0
    5.7782   -3.2101    0.0000 C    0  0  0  0  0  0  0  0  0  0  0  0
    4.5289   -2.6895    0.0000 C    0  0  0  0  0  0  0  0  0  0  0  0
    3.4183   -3.4010    0.0000 C    0  0  0  0  0  0  0  0  0  0  0  0
    2.2557   -2.8978    0.0000 C    0  0  0  0  0  0  0  0  0  0  0  0
   17.1610   -1.0585    0.0000 C    0  0  0  0  0  0  0  0  0  0  0  0
    1.1973   -3.6613    0.0000 C    0  0  0  0  0  0  0  0  0  0  0  0
    0.0000   -3.1233    0.0000 C    0  0  0  0  0  0  0  0  0  0  0  0
   17.3519   -3.2795    0.0000 Cl   0  5  0  0  0  0  0  0  0  0  0  0
  1  3  2  0  0  0  0
  1  4  1  0  0  0  0
  1 16  1  0  0  0  0
  2  3  1  0  0  0  0
  2  5  1  0  0  0  0
  2  6  1  0  0  0  0
  4  5  2  0  0  0  0
  6  7  1  0  0  0  0
  7  8  1  0  0  0  0
  8  9  1  0  0  0  0
  9 10  1  0  0  0  0
 10 11  1  0  0  0  0
 11 12  1  0  0  0  0
 12 13  1  0  0  0  0
 13 14  1  0  0  0  0
 14 15  1  0  0  0  0
 15 17  1  0  0  0  0
 17 18  1  0  0  0  0
M  END
> <ID>
12993

> <Formula>
C16H31ClN2

> <FW>
286.8837 (251.4302+35.4535)

> <DSSTox_CID>
27894

> <DSSTox_RID>
82647

> <DSSTox_GSID>
47918

> <DSSTox_FileID_Sort>
7324

> <TS_ChemName>
1-Dodecyl-3-methylimidazolium chloride

> <TS_ChemName_Synonyms>


> <TS_CASRN>
114569-84-5

> <CASRN_ChemName_Relationship>
primary

> <TS_Description>
single chemical compound

> <ChemNote>
ammonium; parent [46928-10-3]

> <STRUCTURE_Shown>
tested chemical

> <STRUCTURE_Formula>
C16H31ClN2

> <STRUCTURE_MW>
286.8837

> <STRUCTURE_ChemType>
defined organic

> <STRUCTURE_DefinedOrganicForm>
salt

> <STRUCTURE_IUPAC>
1-dodecyl-3-methyl-1H-imidazol-3-ium chloride

> <STRUCTURE_SMILES>
[Cl-].C[n+]1ccn(CCCCCCCCCCCC)c1

> <STRUCTURE_SMILES_Desalt>
C[n+]1ccn(CCCCCCCCCCCC)c1

> <Substance_modify_yyyymmdd>
20110419

$$$$
