1146-95-8
ChemmineR-0915142007XD

 19 19  0  0  0  0  0  0  0  0  1 V2000
    3.3414   -6.9145    0.0000 C    0  0  0  0  0  0  0  0  0  0  0  0
    3.9968   -5.7555    0.0000 C    0  0  0  0  0  0  0  0  0  0  0  0
    3.3414   -4.6044    0.0000 C    0  0  0  0  0  0  0  0  0  0  0  0
    2.0064   -4.6044    0.0000 C    0  0  0  0  0  0  0  0  0  0  0  0
    1.3349   -5.7555    0.0000 N    0  0  0  0  0  0  0  0  0  0  0  0
    3.9968   -3.4453    0.0000 C    0  0  0  0  0  0  0  0  0  0  0  0
    3.3414   -2.3102    0.0000 C    0  0  0  0  0  0  0  0  0  0  0  0
    3.9968   -1.1511    0.0000 C    0  0  0  0  0  0  0  0  0  0  0  0
    3.3414    0.0000    0.0000 C    0  0  0  0  0  0  0  0  0  0  0  0
    2.0064    0.0000    0.0000 C    0  0  0  0  0  0  0  0  0  0  0  0
    1.3349   -1.1511    0.0000 C    0  0  0  0  0  0  0  0  0  0  0  0
    2.0064   -2.3102    0.0000 C    0  0  0  0  0  0  0  0  0  0  0  0
    5.3318   -3.4453    0.0000 C    0  0  0  0  0  0  0  0  0  0  0  0
    6.0033   -4.6044    0.0000 C    0  0  0  0  0  0  0  0  0  0  0  0
    7.3382   -4.6044    0.0000 C    0  0  0  0  0  0  0  0  0  0  0  0
    7.9937   -3.4453    0.0000 C    0  0  0  0  0  0  0  0  0  0  0  0
    7.3382   -2.3102    0.0000 C    0  0  0  0  0  0  0  0  0  0  0  0
    6.0033   -2.3102    0.0000 C    0  0  0  0  0  0  0  0  0  0  0  0
    0.0000   -1.1511    0.0000 Cl   0  0  0  0  0  0  0  0  0  0  0  0
  1  2  1  0  0  0  0
  2  3  1  0  0  0  0
  3  4  1  0  0  0  0
  3  6  2  0  0  0  0
  4  5  1  0  0  0  0
  6  7  1  0  0  0  0
  6 13  1  0  0  0  0
  7  8  2  0  0  0  0
  7 12  1  0  0  0  0
  8  9  1  0  0  0  0
  9 10  2  0  0  0  0
 10 11  1  0  0  0  0
 11 12  2  0  0  0  0
 13 14  2  0  0  0  0
 13 18  1  0  0  0  0
 14 15  1  0  0  0  0
 15 16  2  0  0  0  0
 16 17  1  0  0  0  0
 17 18  2  0  0  0  0
M  END
> <ID>
16257

> <Formula>
C17H20ClN

> <FW>
273.8004 (237.3395+36.4609)

> <DSSTox_CID>
31411

> <DSSTox_RID>
97297

> <DSSTox_GSID>
57622

> <DSSTox_FileID_Sort>
8364

> <TS_ChemName>
Etifelmine hydrochloride

> <TS_ChemName_Synonyms>


> <TS_CASRN>
1146-95-8

> <CASRN_ChemName_Relationship>
primary

> <TS_Description>
single chemical compound

> <ChemNote>


> <STRUCTURE_Shown>
tested chemical

> <STRUCTURE_Formula>
C17H20ClN

> <STRUCTURE_MW>
273.8004

> <STRUCTURE_ChemType>
defined organic

> <STRUCTURE_DefinedOrganicForm>
complex

> <STRUCTURE_IUPAC>
2-(diphenylmethylene)butan-1-amine hydrochloride (1:1)

> <STRUCTURE_SMILES>
Cl.CCC(\CN)=C(/c1ccccc1)c2ccccc2

> <STRUCTURE_SMILES_Desalt>
CCC(\CN)=C(/c1ccccc1)c2ccccc2

> <Substance_modify_yyyymmdd>
20131018

$$$$
