114651-37-5
ChemmineR-0915142007XD

 12 12  0  0  0  0  0  0  0  0  1 V2000
    6.6504   -2.3060    0.0000 C   0  0  0  0  0  0  0  0  0  0  0  0
    5.9767   -3.4634    0.0000 C   0  0  0  0  0  0  0  0  0  0  0  0
    4.6466   -3.4634    0.0000 C   0  0  0  0  0  0  0  0  0  0  0  0
    3.9902   -2.3060    0.0000 C   0  0  0  0  0  0  0  0  0  0  0  0
    4.6466   -1.1573    0.0000 C   0  0  0  0  0  0  0  0  0  0  0  0
    5.9767   -1.1573    0.0000 C   0  0  0  0  0  0  0  0  0  0  0  0
    7.9805   -2.3060    0.0000 C   0  0  0  0  0  0  0  0  0  0  0  0
    8.6369   -1.1573    0.0000 O   0  0  0  0  0  0  0  0  0  0  0  0
    2.6602   -2.3060    0.0000 C   0  0  0  0  0  0  0  0  0  0  0  0
    1.9865   -1.1573    0.0000 O   0  0  0  0  0  0  0  0  0  0  0  0
    0.6564   -1.1573    0.0000 C   0  0  0  0  0  0  0  0  0  0  0  0
    0.0000    0.0000    0.0000 C   0  0  0  0  0  0  0  0  0  0  0  0
  1  2  1  0  0  0  0
  1  6  1  0  0  0  0
  1  7  1  0  0  0  0
  2  3  1  0  0  0  0
  3  4  1  0  0  0  0
  4  5  1  0  0  0  0
  4  9  1  0  0  0  0
  5  6  1  0  0  0  0
  7  8  1  0  0  0  0
  9 10  1  0  0  0  0
 10 11  1  0  0  0  0
 11 12  2  0  0  0  0
M  END
> <ID>
6056

> <Formula>
C10H18O2

> <FW>
170.2487

> <DSSTox_CID>
9575

> <DSSTox_RID>
78779

> <DSSTox_GSID>
29575

> <DSSTox_FileID_Sort>
3461

> <TS_ChemName>
Cyclohexanemethanol, 4-[(ethenyloxy)methyl]-

> <TS_ChemName_Synonyms>


> <TS_CASRN>
114651-37-5

> <CASRN_ChemName_Relationship>
primary

> <TS_Description>
single chemical compound

> <ChemNote>


> <STRUCTURE_Shown>
tested chemical

> <STRUCTURE_Formula>
C10H18O2

> <STRUCTURE_MW>
170.2487

> <STRUCTURE_ChemType>
defined organic

> <STRUCTURE_DefinedOrganicForm>
parent

> <STRUCTURE_IUPAC>
{4-[(ethenyloxy)methyl]cyclohexyl}methanol

> <STRUCTURE_SMILES>
OCC1CCC(COC=C)CC1

> <STRUCTURE_SMILES_Desalt>
OCC1CCC(COC=C)CC1

> <Substance_modify_yyyymmdd>
20080429

$$$$
