1146-99-2
ChemmineR-0915142007XD

 18 20  0  0  0  0  0  0  0  0  1 V2000
    0.0000   -2.3398    0.0000 Cl   0  0  0  0  0  0  0  0  0  0  0  0
    1.3343   -2.3398    0.0000 C    0  0  0  0  0  0  0  0  0  0  0  0
    1.9917   -1.1892    0.0000 C    0  0  0  0  0  0  0  0  0  0  0  0
    3.3260   -1.1892    0.0000 C    0  0  0  0  0  0  0  0  0  0  0  0
    3.9931   -2.3398    0.0000 C    0  0  0  0  0  0  0  0  0  0  0  0
    3.3260   -3.4904    0.0000 C    0  0  0  0  0  0  0  0  0  0  0  0
    1.9917   -3.4904    0.0000 C    0  0  0  0  0  0  0  0  0  0  0  0
    5.3177   -2.3398    0.0000 C    0  0  0  0  0  0  0  0  0  0  0  0
    6.1009   -1.2666    0.0000 C    0  0  0  0  0  0  0  0  0  0  0  0
    5.6851    0.0000    0.0000 O    0  0  0  0  0  0  0  0  0  0  0  0
    7.3675   -1.6727    0.0000 C    0  0  0  0  0  0  0  0  0  0  0  0
    8.5180   -1.0055    0.0000 C    0  0  0  0  0  0  0  0  0  0  0  0
    9.6686   -1.6727    0.0000 C    0  0  0  0  0  0  0  0  0  0  0  0
    9.6686   -3.0069    0.0000 C    0  0  0  0  0  0  0  0  0  0  0  0
    8.5180   -3.6644    0.0000 C    0  0  0  0  0  0  0  0  0  0  0  0
    7.3675   -3.0069    0.0000 C    0  0  0  0  0  0  0  0  0  0  0  0
    6.1009   -3.4130    0.0000 C    0  0  0  0  0  0  0  0  0  0  0  0
    5.6851   -4.6796    0.0000 O    0  0  0  0  0  0  0  0  0  0  0  0
  1  2  1  0  0  0  0
  2  3  2  0  0  0  0
  2  7  1  0  0  0  0
  3  4  1  0  0  0  0
  4  5  2  0  0  0  0
  5  6  1  0  0  0  0
  5  8  1  0  0  0  0
  6  7  2  0  0  0  0
  8  9  1  0  0  0  0
  8 17  1  0  0  0  0
  9 10  2  0  0  0  0
  9 11  1  0  0  0  0
 11 12  2  0  0  0  0
 11 16  1  0  0  0  0
 12 13  1  0  0  0  0
 13 14  2  0  0  0  0
 14 15  1  0  0  0  0
 15 16  2  0  0  0  0
 16 17  1  0  0  0  0
 17 18  2  0  0  0  0
M  END
> <ID>
11522

> <Formula>
C15H9ClO2

> <FW>
256.6838

> <DSSTox_CID>
26228

> <DSSTox_RID>
81455

> <DSSTox_GSID>
46228

> <DSSTox_FileID_Sort>
6136

> <TS_ChemName>
Clorindione

> <TS_ChemName_Synonyms>


> <TS_CASRN>
1146-99-2

> <CASRN_ChemName_Relationship>
primary

> <TS_Description>
single chemical compound

> <ChemNote>


> <STRUCTURE_Shown>
tested chemical

> <STRUCTURE_Formula>
C15H9ClO2

> <STRUCTURE_MW>
256.6838

> <STRUCTURE_ChemType>
defined organic

> <STRUCTURE_DefinedOrganicForm>
parent

> <STRUCTURE_IUPAC>
2-(4-chlorophenyl)-1H-indene-1,3(2H)-dione

> <STRUCTURE_SMILES>
Clc1ccc(cc1)C3C(=O)c2ccccc2C3=O

> <STRUCTURE_SMILES_Desalt>
Clc1ccc(cc1)C3C(=O)c2ccccc2C3=O

> <Substance_modify_yyyymmdd>
20110817

$$$$
