114856-44-9
ChemmineR-0915142007XD

 34 36  0  0  0  0  0  0  0  0  1 V2000
   18.4300   -1.3122    0.0000 C    0  0  0  0  0  0  0  0  0  0  0  0
   18.4300    0.0000    0.0000 N    0  0  0  0  0  0  0  0  0  0  0  0
   18.4300   -2.6441    0.0000 C    0  0  0  0  0  0  0  0  0  0  0  0
   17.2745   -3.2904    0.0000 C    0  0  0  0  0  0  0  0  0  0  0  0
   19.5856   -3.2904    0.0000 C    0  0  0  0  0  0  0  0  0  0  0  0
   17.2745   -4.6418    0.0000 C    0  0  0  0  0  0  0  0  0  0  0  0
   19.5856   -4.6418    0.0000 C    0  0  0  0  0  0  0  0  0  0  0  0
   18.4300   -5.3077    0.0000 C    0  0  0  0  0  0  0  0  0  0  0  0
   18.4300   -6.6395    0.0000 Cl   0  0  0  0  0  0  0  0  0  0  0  0
   16.1189   -2.6441    0.0000 O    0  0  0  0  0  0  0  0  0  0  0  0
   14.9634   -3.2904    0.0000 C    0  0  0  0  0  0  0  0  0  0  0  0
   13.8274   -2.6636    0.0000 C    0  0  0  0  0  0  0  0  0  0  0  0
   12.6719   -3.3100    0.0000 C    0  0  0  0  0  0  0  0  0  0  0  0
   11.5163   -2.6636    0.0000 N    0  0  0  0  0  0  0  0  0  0  0  0
   10.3608   -3.3100    0.0000 C    0  0  0  0  0  0  0  0  0  0  0  0
    9.2052   -3.9759    0.0000 C    0  0  0  0  0  0  0  0  0  0  0  0
   11.0267   -4.4655    0.0000 C    0  0  0  0  0  0  0  0  0  0  0  0
    9.6949   -2.1544    0.0000 C    0  0  0  0  0  0  0  0  0  0  0  0
    6.9137   -3.9759    0.0000 C    0  0  0  0  0  0  0  0  0  0  0  0
    5.7582   -3.2904    0.0000 C    0  0  0  0  0  0  0  0  0  0  0  0
    4.6026   -3.9759    0.0000 C    0  0  0  0  0  0  0  0  0  0  0  0
    4.6026   -5.3077    0.0000 C    0  0  0  0  0  0  0  0  0  0  0  0
    5.7582   -5.9736    0.0000 C    0  0  0  0  0  0  0  0  0  0  0  0
    6.8941   -5.3077    0.0000 C    0  0  0  0  0  0  0  0  0  0  0  0
    8.0693   -3.2904    0.0000 N    0  0  0  0  0  0  0  0  0  0  0  0
    2.2915   -7.9713    0.0000 N    0  0  0  0  0  0  0  0  0  0  0  0
    3.4471   -7.3054    0.0000 N    0  0  0  0  0  0  0  0  0  0  0  0
    3.4471   -5.9736    0.0000 C    0  0  0  0  0  0  0  0  0  0  0  0
    1.1556   -7.3054    0.0000 C    0  0  0  0  0  0  0  0  0  0  0  0
    2.2915   -5.3077    0.0000 C    0  0  0  0  0  0  0  0  0  0  0  0
    1.1556   -5.9736    0.0000 C    0  0  0  0  0  0  0  0  0  0  0  0
    2.2915   -3.9759    0.0000 C    0  0  0  0  0  0  0  0  0  0  0  0
    0.0000   -7.9713    0.0000 O    0  0  0  0  0  0  0  0  0  0  0  0
   13.8274   -1.3318    0.0000 O    0  0  0  0  0  0  0  0  0  0  0  0
  1  2  3  0  0  0  0
  1  3  1  0  0  0  0
  3  4  2  0  0  0  0
  3  5  1  0  0  0  0
  4  6  1  0  0  0  0
  4 10  1  0  0  0  0
  5  7  2  0  0  0  0
  6  8  2  0  0  0  0
  7  8  1  0  0  0  0
  8  9  1  0  0  0  0
 10 11  1  0  0  0  0
 11 12  1  0  0  0  0
 12 13  1  0  0  0  0
 12 34  1  0  0  0  0
 13 14  1  0  0  0  0
 14 15  1  0  0  0  0
 15 16  1  0  0  0  0
 15 17  1  0  0  0  0
 15 18  1  0  0  0  0
 16 25  1  0  0  0  0
 19 24  2  0  0  0  0
 19 20  1  0  0  0  0
 19 25  1  0  0  0  0
 20 21  2  0  0  0  0
 21 22  1  0  0  0  0
 22 23  2  0  0  0  0
 22 28  1  0  0  0  0
 23 24  1  0  0  0  0
 26 27  1  0  0  0  0
 26 29  1  0  0  0  0
 27 28  2  0  0  0  0
 28 30  1  0  0  0  0
 29 31  1  0  0  0  0
 29 33  2  0  0  0  0
 30 31  1  0  0  0  0
 30 32  1  0  0  0  0
M  END
> <ID>
13736

> <Formula>
C25H30ClN5O3

> <FW>
483.9904

> <DSSTox_CID>
28671

> <DSSTox_RID>
82941

> <DSSTox_GSID>
48745

> <DSSTox_FileID_Sort>
7618

> <TS_ChemName>
Oberadilol

> <TS_ChemName_Synonyms>


> <TS_CASRN>
114856-44-9

> <CASRN_ChemName_Relationship>
primary

> <TS_Description>
single chemical compound

> <ChemNote>


> <STRUCTURE_Shown>
tested chemical

> <STRUCTURE_Formula>
C25H30ClN5O3

> <STRUCTURE_MW>
483.9904

> <STRUCTURE_ChemType>
defined organic

> <STRUCTURE_DefinedOrganicForm>
parent

> <STRUCTURE_IUPAC>
4-chloro-2-{2-hydroxy-3-[(2-methyl-1-{[4-(4-methyl-6-oxo-1,4,5,6-tetrahydropyridazin-3-yl)phenyl]amino}propan-2-yl)amino]propoxy}benzonitrile

> <STRUCTURE_SMILES>
Clc3cc(OCC(O)CNC(C)(C)CNc1ccc(cc1)C2=NNC(=O)CC2C)c(C#N)cc3

> <STRUCTURE_SMILES_Desalt>
Clc3cc(OCC(O)CNC(C)(C)CNc1ccc(cc1)C2=NNC(=O)CC2C)c(C#N)cc3

> <Substance_modify_yyyymmdd>
20100107

$$$$
