114899-77-3
ChemmineR-0915142007XD

 55 63  0  0  1  0  0  0  0  0  1 V2000
    2.4251   -5.6287    0.0000 C   0  0  0  0  0  0  0  0  0  0  0  0
    3.2185   -4.8353    0.0000 C   0  0  0  0  0  0  0  0  0  0  0  0
    2.4251   -6.7365    0.0000 C   0  0  0  0  0  0  0  0  0  0  0  0
    3.2185   -7.5000    0.0000 C   0  0  0  0  0  0  0  0  0  0  0  0
    4.3114   -4.8353    0.0000 C   0  0  0  0  0  0  0  0  0  0  0  0
    4.3114   -7.5000    0.0000 C   0  0  0  0  0  0  0  0  0  0  0  0
    5.0898   -5.6287    0.0000 N   0  0  0  0  0  0  0  0  0  0  0  0
    5.0898   -6.7365    0.0000 C   0  0  0  0  0  0  0  0  0  0  0  0
    1.3623   -7.0060    0.0000 C   0  0  0  0  0  0  0  0  0  0  0  0
    1.0629   -8.0838    0.0000 C   0  0  0  0  0  0  0  0  0  0  0  0
    2.9191   -8.5778    0.0000 C   0  0  0  0  0  0  0  0  0  0  0  0
    1.8563   -8.8622    0.0000 C   0  0  0  0  0  0  0  0  0  0  0  0
    0.0000   -8.3682    0.0000 C   0  0  0  0  0  0  0  0  0  0  0  0
    1.5569   -9.9251    0.0000 O   0  0  0  0  0  0  0  0  0  0  0  0
    0.4940  -10.2245    0.0000 C   0  0  0  0  0  0  0  0  0  0  0  0
    3.3832   -9.4161    0.0000 O   0  0  0  0  0  0  0  0  0  0  0  0
    4.0569   -5.9581    0.0000 N   0  0  0  0  0  0  0  0  0  0  0  0
    4.6257   -3.6227    0.0000 O   0  0  0  0  0  0  0  0  0  0  0  0
    6.0628   -5.0599    0.0000 C   0  0  0  0  0  0  0  0  0  0  0  0
    7.0209   -5.6287    0.0000 C   0  0  0  0  0  0  0  0  0  0  0  0
    6.0628   -7.2754    0.0000 C   0  0  0  0  0  0  0  0  0  0  0  0
    7.0209   -6.7365    0.0000 C   0  0  0  0  0  0  0  0  0  0  0  0
    5.0898   -8.0389    0.0000 H   0  0  0  0  0  0  0  0  0  0  0  0
    2.9191   -6.0329    0.0000 C   0  0  0  0  0  0  0  0  0  0  0  0
    7.9790   -5.0599    0.0000 C   0  0  0  0  0  0  0  0  0  0  0  0
    8.9371   -5.6287    0.0000 C   0  0  0  0  0  0  0  0  0  0  0  0
    7.9790   -7.2754    0.0000 C   0  0  0  0  0  0  0  0  0  0  0  0
    8.9371   -6.7365    0.0000 C   0  0  0  0  0  0  0  0  0  0  0  0
    6.0628   -3.9521    0.0000 C   0  0  0  0  0  0  0  0  0  0  0  0
    7.0209   -3.4132    0.0000 O   0  0  0  0  0  0  0  0  0  0  0  0
    7.0209   -2.3054    0.0000 C   0  0  0  0  0  0  0  0  0  0  0  0
   12.0808   -0.5689    0.0000 C   0  0  0  0  0  0  0  0  0  0  0  0
   12.0808   -1.6766    0.0000 C   0  0  0  0  0  0  0  0  0  0  0  0
   11.1227    0.0000    0.0000 C   0  0  0  0  0  0  0  0  0  0  0  0
   11.1227   -2.2156    0.0000 C   0  0  0  0  0  0  0  0  0  0  0  0
   10.1646   -0.5689    0.0000 C   0  0  0  0  0  0  0  0  0  0  0  0
   10.1646   -1.6766    0.0000 N   0  0  0  0  0  0  0  0  0  0  0  0
   13.0538    0.0000    0.0000 C   0  0  0  0  0  0  0  0  0  0  0  0
   14.0119   -0.5689    0.0000 C   0  0  0  0  0  0  0  0  0  0  0  0
   13.0538   -2.2156    0.0000 C   0  0  0  0  0  0  0  0  0  0  0  0
   14.0119   -1.6766    0.0000 C   0  0  0  0  0  0  0  0  0  0  0  0
   14.9700    0.0000    0.0000 O   0  0  0  0  0  0  0  0  0  0  0  0
   14.9700   -2.2156    0.0000 O   0  0  0  0  0  0  0  0  0  0  0  0
   14.9700   -3.3233    0.0000 C   0  0  0  0  0  0  0  0  0  0  0  0
    6.1976   -1.5419    0.0000 O   0  0  0  0  0  0  0  0  0  0  0  0
    6.0628   -8.3832    0.0000 S   0  0  0  0  0  0  0  0  0  0  0  0
   11.2125   -8.3682    0.0000 C   0  0  0  0  0  0  0  0  0  0  0  0
    8.2036   -3.9820    0.0000 O   0  0  0  0  0  0  0  0  0  0  0  0
    9.3113   -3.8623    0.0000 C   0  0  0  0  0  0  0  0  0  0  0  0
    9.7604   -4.8802    0.0000 O   0  0  0  0  0  0  0  0  0  0  0  0
    9.8952   -7.2754    0.0000 C   0  0  0  0  0  0  0  0  0  0  0  0
    7.9191   -9.3263    0.0000 O   0  0  0  0  0  0  0  0  0  0  0  0
    6.9461   -9.8652    0.0000 C   0  0  0  0  0  0  0  0  0  0  0  0
    6.9311  -10.9730    0.0000 C   0  0  0  0  0  0  0  0  0  0  0  0
    6.0030   -9.2814    0.0000 O   0  0  0  0  0  0  0  0  0  0  0  0
  1  2  1  0  0  0  0
  1  3  1  0  0  0  0
  2  5  1  0  0  0  0
  2 17  1  6  0  0  0
  3  9  1  0  0  0  0
  3  4  2  0  0  0  0
  4  6  1  0  0  0  0
  4 11  1  0  0  0  0
  5  7  1  0  0  0  0
  5 18  1  6  0  0  0
  6  8  1  0  0  0  0
  6 17  1  6  0  0  0
  7 19  1  0  0  0  0
  7  8  1  0  0  0  0
  8 21  1  0  0  0  0
  8 23  1  6  0  0  0
  9 10  2  0  0  0  0
 10 12  1  0  0  0  0
 10 13  1  0  0  0  0
 11 12  2  0  0  0  0
 11 16  1  0  0  0  0
 12 14  1  0  0  0  0
 14 15  1  0  0  0  0
 17 24  1  0  0  0  0
 19 20  1  0  0  0  0
 19 29  1  1  0  0  0
 20 25  1  0  0  0  0
 20 22  2  0  0  0  0
 21 22  1  0  0  0  0
 21 46  1  1  0  0  0
 22 27  1  0  0  0  0
 25 26  2  0  0  0  0
 25 48  1  0  0  0  0
 26 28  1  0  0  0  0
 26 50  1  0  0  0  0
 27 28  2  0  0  0  0
 27 52  1  0  0  0  0
 28 51  1  0  0  0  0
 29 30  1  0  0  0  0
 30 31  1  0  0  0  0
 35 31  1  6  0  0  0
 31 45  2  0  0  0  0
 32 34  1  0  0  0  0
 32 38  1  0  0  0  0
 32 33  2  0  0  0  0
 33 35  1  0  0  0  0
 33 40  1  0  0  0  0
 34 36  1  0  0  0  0
 35 37  1  0  0  0  0
 35 47  1  1  0  0  0
 36 37  1  0  0  0  0
 38 39  2  0  0  0  0
 39 41  1  0  0  0  0
 39 42  1  0  0  0  0
 40 41  2  0  0  0  0
 41 43  1  0  0  0  0
 43 44  1  0  0  0  0
 46 47  1  0  0  0  0
 48 49  1  0  0  0  0
 49 50  1  0  0  0  0
 52 53  1  0  0  0  0
 53 54  1  0  0  0  0
 53 55  2  0  0  0  0
M  END
> <ID>
12047

> <Formula>
C39H43N3O11S

> <FW>
761.8372

> <DSSTox_CID>
26880

> <DSSTox_RID>
81984

> <DSSTox_GSID>
46880

> <DSSTox_FileID_Sort>
6665

> <TS_ChemName>
Trabectedin

> <TS_ChemName_Synonyms>


> <TS_CASRN>
114899-77-3

> <CASRN_ChemName_Relationship>
primary

> <TS_Description>
single chemical compound

> <ChemNote>
absolute stereochem; rotation (-)

> <STRUCTURE_Shown>
tested chemical

> <STRUCTURE_Formula>
C39H43N3O11S

> <STRUCTURE_MW>
761.8372

> <STRUCTURE_ChemType>
defined organic

> <STRUCTURE_DefinedOrganicForm>
parent

> <STRUCTURE_IUPAC>
(6R,6aR,7R,13S,14S,16R,20R)-6',8,14-trihydroxy-7',9-dimethoxy-4,10,23-trimethyl-19-oxo-3',4',6,7,12,13,14,16-octahydro-2'H,6aH-spiro[7,13-epimino-6,16-(epithiopropanooxymethano)[1,3]dioxolo[7,8]isoquinolino[3,2-b][3]benzazocine-20,1'-isoquinolin]-5-yl ace

> <STRUCTURE_SMILES>
CC(=O)Oc1c5c(c2OCOc2c1C)[C@@H]7COC(=O)[C@@]4(NCCc3cc(O)c(cc34)OC)CS[C@H]5[C@H]8[C@H]6c9c(C[C@H](N6C)[C@H](O)N78)cc(C)c(OC)c9O

> <STRUCTURE_SMILES_Desalt>
CC(=O)Oc1c5c(c2OCOc2c1C)[C@@H]7COC(=O)[C@@]4(NCCc3cc(O)c(cc34)OC)CS[C@H]5[C@H]8[C@H]6c9c(C[C@H](N6C)[C@H](O)N78)cc(C)c(OC)c9O

> <Substance_modify_yyyymmdd>
20120228

$$$$
