114977-28-5
ChemmineR-0915142007XD

 59 64  0  0  1  0  0  0  0  0  1 V2000
   14.4243   -4.1792    0.0000 C   0  0  0  0  0  0  0  0  0  0  0  0
   15.6233   -6.2070    0.0000 C   0  0  0  0  0  0  0  0  0  0  0  0
   11.3560   -5.8367    0.0000 C   0  0  0  0  0  0  0  0  0  0  0  0
   14.4243   -5.5193    0.0000 C   0  0  0  0  0  0  0  0  0  0  0  0
   11.3560   -3.5091    0.0000 C   0  0  0  0  0  0  0  0  0  0  0  0
   12.0437   -4.6905    0.0000 C   0  0  0  0  0  0  0  0  0  0  0  0
   13.6836   -2.8919    0.0000 C   0  0  0  0  0  0  0  0  0  0  0  0
   13.0312   -6.9300    0.0000 C   0  0  0  0  0  0  0  0  0  0  0  0
   12.3435   -2.8919    0.0000 C   0  0  0  0  0  0  0  0  0  0  0  0
    9.9982   -3.5091    0.0000 C   0  0  0  0  0  0  0  0  0  0  0  0
   10.0159   -5.8367    0.0000 C   0  0  0  0  0  0  0  0  0  0  0  0
    9.3105   -4.6905    0.0000 C   0  0  0  0  0  0  0  0  0  0  0  0
    6.8066   -4.0205    0.0000 C   0  0  0  0  0  0  0  0  0  0  0  0
   15.6233   -3.4914    0.0000 C   0  0  0  0  0  0  0  0  0  0  0  0
    5.6427   -4.6905    0.0000 C   0  0  0  0  0  0  0  0  0  0  0  0
   16.7872   -5.5193    0.0000 C   0  0  0  0  0  0  0  0  0  0  0  0
    3.2975   -4.7258    0.0000 N   0  0  0  0  0  0  0  0  0  0  0  0
   13.0312   -8.2701    0.0000 O   0  0  0  0  0  0  0  0  0  0  0  0
    4.4437   -4.0205    0.0000 C   0  0  0  0  0  0  0  0  0  0  0  0
    3.2975   -6.0483    0.0000 C   0  0  0  0  0  0  0  0  0  0  0  0
   12.0085   -9.0989    0.0000 C   0  0  0  0  0  0  0  0  0  0  0  0
    7.9527   -4.6905    0.0000 O   0  0  0  0  0  0  0  0  0  0  0  0
   16.3639   -7.2827    0.0000 C   0  0  0  0  0  0  0  0  0  0  0  0
   16.7872   -4.1792    0.0000 C   0  0  0  0  0  0  0  0  0  0  0  0
   15.3236   -7.1416    0.0000 O   0  0  0  0  0  0  0  0  0  0  0  0
   17.6336   -6.4363    0.0000 O   0  0  0  0  0  0  0  0  0  0  0  0
   11.6205   -1.7281    0.0000 O   0  0  0  0  0  0  0  0  0  0  0  0
   14.6006   -7.8822    0.0000 C   0  0  0  0  0  0  0  0  0  0  0  0
   14.3714   -1.8868    0.0000 O   0  0  0  0  0  0  0  0  0  0  0  0
    6.8066   -2.6627    0.0000 O   0  0  0  0  0  0  0  0  0  0  0  0
    4.3731   -6.7889    0.0000 O   0  0  0  0  0  0  0  0  0  0  0  0
   10.8094   -8.4641    0.0000 O   0  0  0  0  0  0  0  0  0  0  0  0
   10.7741   -6.8418    0.0000 O   0  0  0  0  0  0  0  0  0  0  0  0
    2.2924   -6.7184    0.0000 O   0  0  0  0  0  0  0  0  0  0  0  0
   12.0085  -10.3156    0.0000 C   0  0  0  0  0  0  0  0  0  0  0  0
    4.4437   -2.6627    0.0000 C   0  0  0  0  0  0  0  0  0  0  0  0
   13.7542   -7.4414    0.0000 O   0  0  0  0  0  0  0  0  0  0  0  0
   14.7064   -2.6098    0.0000 C   0  0  0  0  0  0  0  0  0  0  0  0
    5.6427   -6.0483    0.0000 O   0  0  0  0  0  0  0  0  0  0  0  0
   16.3110   -2.2218    0.0000 O   0  0  0  0  0  0  0  0  0  0  0  0
   12.6080   -3.7912    0.0000 C   0  0  0  0  0  0  0  0  0  0  0  0
   12.5375   -5.4311    0.0000 C   0  0  0  0  0  0  0  0  0  0  0  0
    9.3105   -2.3453    0.0000 C   0  0  0  0  0  0  0  0  0  0  0  0
   14.6006   -8.8344    0.0000 C   0  0  0  0  0  0  0  0  0  0  0  0
    1.1638   -6.0483    0.0000 C   0  0  0  0  0  0  0  0  0  0  0  0
   10.8623  -10.9857    0.0000 C   0  0  0  0  0  0  0  0  0  0  0  0
   13.1370  -10.9857    0.0000 C   0  0  0  0  0  0  0  0  0  0  0  0
    5.6427   -1.9926    0.0000 C   0  0  0  0  0  0  0  0  0  0  0  0
    3.2975   -1.9926    0.0000 C   0  0  0  0  0  0  0  0  0  0  0  0
    5.6427   -0.6524    0.0000 C   0  0  0  0  0  0  0  0  0  0  0  0
   10.8623  -12.3082    0.0000 C   0  0  0  0  0  0  0  0  0  0  0  0
    3.2975   -0.6524    0.0000 C   0  0  0  0  0  0  0  0  0  0  0  0
   13.1370  -12.3082    0.0000 C   0  0  0  0  0  0  0  0  0  0  0  0
   12.0085  -12.9783    0.0000 C   0  0  0  0  0  0  0  0  0  0  0  0
    4.4437    0.0000    0.0000 C   0  0  0  0  0  0  0  0  0  0  0  0
   15.5175   -4.3731    0.0000 H   0  0  0  0  0  0  0  0  0  0  0  0
    0.0000   -6.7008    0.0000 C   0  0  0  0  0  0  0  0  0  0  0  0
    1.1285   -4.7082    0.0000 C   0  0  0  0  0  0  0  0  0  0  0  0
    1.1462   -7.3885    0.0000 C   0  0  0  0  0  0  0  0  0  0  0  0
  1  4  1  0  0  0  0
  1  7  1  0  0  0  0
  1 14  1  0  0  0  0
  1 38  1  1  0  0  0
  2  4  1  0  0  0  0
  2 23  1  1  0  0  0
  2 25  1  6  0  0  0
  2 16  1  0  0  0  0
  3  8  1  0  0  0  0
  3 11  1  0  0  0  0
  3 33  1  1  0  0  0
  3  6  1  0  0  0  0
  4  8  1  0  0  0  0
  4 56  1  6  0  0  0
  5  9  1  0  0  0  0
  5  6  1  0  0  0  0
  5 10  2  0  0  0  0
  6 41  1  0  0  0  0
  6 42  1  0  0  0  0
  7  9  1  0  0  0  0
  7 29  2  0  0  0  0
  8 18  1  6  0  0  0
  9 27  1  1  0  0  0
 10 12  1  0  0  0  0
 10 43  1  0  0  0  0
 11 12  1  0  0  0  0
 12 22  1  6  0  0  0
 13 22  1  0  0  0  0
 13 15  1  0  0  0  0
 13 30  2  0  0  0  0
 14 24  1  0  0  0  0
 14 40  1  1  0  0  0
 15 19  1  0  0  0  0
 15 39  1  6  0  0  0
 16 24  1  0  0  0  0
 16 26  1  1  0  0  0
 17 19  1  0  0  0  0
 17 20  1  0  0  0  0
 18 21  1  0  0  0  0
 19 36  1  1  0  0  0
 20 31  2  0  0  0  0
 20 34  1  0  0  0  0
 21 32  2  0  0  0  0
 21 35  1  0  0  0  0
 23 26  1  0  0  0  0
 25 28  1  0  0  0  0
 28 37  2  0  0  0  0
 28 44  1  0  0  0  0
 34 45  1  0  0  0  0
 35 46  2  0  0  0  0
 35 47  1  0  0  0  0
 36 48  1  0  0  0  0
 36 49  2  0  0  0  0
 45 57  1  0  0  0  0
 45 58  1  0  0  0  0
 45 59  1  0  0  0  0
 46 51  1  0  0  0  0
 47 53  2  0  0  0  0
 48 50  2  0  0  0  0
 49 52  1  0  0  0  0
 50 55  1  0  0  0  0
 51 54  2  0  0  0  0
 52 55  2  0  0  0  0
 53 54  1  0  0  0  0
M  END
> <ID>
7770

> <Formula>
C43H53NO14

> <FW>
807.8792

> <DSSTox_CID>
20464

> <DSSTox_RID>
79497

> <DSSTox_GSID>
40464

> <DSSTox_FileID_Sort>
4179

> <TS_ChemName>
Docetaxel

> <TS_ChemName_Synonyms>
N-Debenzoyl-N-tert-butoxycarbonyl-10-deacetyltaxol

> <TS_CASRN>
114977-28-5

> <CASRN_ChemName_Relationship>
primary

> <TS_Description>
single chemical compound

> <ChemNote>
stereochem

> <STRUCTURE_Shown>
tested chemical

> <STRUCTURE_Formula>
C43H53NO14

> <STRUCTURE_MW>
807.8792

> <STRUCTURE_ChemType>
defined organic

> <STRUCTURE_DefinedOrganicForm>
parent

> <STRUCTURE_IUPAC>
(2alpha,5beta,7beta,10beta,13alpha)-4-(acetyloxy)-13-({(2R,3S)-3-[(tert-butoxycarbonyl)amino]-2-hydroxy-3-phenylpropanoyl}oxy)-1,7,10-trihydroxy-9-oxo-5,20-epoxytax-11-en-2-yl benzoate

> <STRUCTURE_SMILES>
CC(C)(C)OC(=O)N[C@@H](c1ccccc1)[C@@H](O)C(=O)O[C@H]5C[C@@]6(O)[C@@H](OC(=O)c2ccccc2)[C@H]4[C@@](C)([C@@H](O)C[C@H]3OC[C@]34OC(C)=O)C(=O)[C@H](O)C(=C5C)C6(C)C

> <STRUCTURE_SMILES_Desalt>
CC(C)(C)OC(=O)N[C@@H](c1ccccc1)[C@@H](O)C(=O)O[C@H]5C[C@@]6(O)[C@@H](OC(=O)c2ccccc2)[C@H]4[C@@](C)([C@@H](O)C[C@H]3OC[C@]34OC(C)=O)C(=O)[C@H](O)C(=C5C)C6(C)C

> <Substance_modify_yyyymmdd>
20080429

$$$$
