115-39-9
ChemmineR-0915142007XD

 29 32  0  0  0  0  0  0  0  0  1 V2000
    3.5422   -1.2486    0.0000 S    0  0  0  0  0  0  0  0  0  0  0  0
    3.5422   -3.3828    0.0000 C    0  0  0  0  0  0  0  0  0  0  0  0
    4.3303   -2.2936    0.0000 O    0  0  0  0  0  0  0  0  0  0  0  0
    2.2936   -2.9843    0.0000 C    0  0  0  0  0  0  0  0  0  0  0  0
    2.2936   -1.6294    0.0000 C    0  0  0  0  0  0  0  0  0  0  0  0
    3.5422   -4.6934    0.0000 C    0  0  0  0  0  0  0  0  0  0  0  0
    4.8528   -3.3828    0.0000 C    0  0  0  0  0  0  0  0  0  0  0  0
    7.5272   -3.3828    0.0000 C    0  0  0  0  0  0  0  0  0  0  0  0
    3.5422   -7.3501    0.0000 C    0  0  0  0  0  0  0  0  0  0  0  0
    6.8187   -2.2316    0.0000 C    0  0  0  0  0  0  0  0  0  0  0  0
    2.3910   -6.6859    0.0000 C    0  0  0  0  0  0  0  0  0  0  0  0
    4.6669   -6.6859    0.0000 C    0  0  0  0  0  0  0  0  0  0  0  0
    6.8187   -4.5075    0.0000 C    0  0  0  0  0  0  0  0  0  0  0  0
    4.3303   -0.1594    0.0000 O    0  0  0  0  0  0  0  0  0  0  0  0
    3.0552    0.0000    0.0000 O    0  0  0  0  0  0  0  0  0  0  0  0
    5.5170   -2.2316    0.0000 C    0  0  0  0  0  0  0  0  0  0  0  0
    2.3910   -5.3576    0.0000 C    0  0  0  0  0  0  0  0  0  0  0  0
    5.5170   -4.5075    0.0000 C    0  0  0  0  0  0  0  0  0  0  0  0
    4.6669   -5.3753    0.0000 C    0  0  0  0  0  0  0  0  0  0  0  0
    7.5272   -1.0715    0.0000 Br   0  0  0  0  0  0  0  0  0  0  0  0
    1.1866   -7.3501    0.0000 Br   0  0  0  0  0  0  0  0  0  0  0  0
    5.8358   -7.3855    0.0000 Br   0  0  0  0  0  0  0  0  0  0  0  0
    7.5272   -5.6941    0.0000 Br   0  0  0  0  0  0  0  0  0  0  0  0
    3.5422   -8.6961    0.0000 O    0  0  0  0  0  0  0  0  0  0  0  0
    8.8555   -3.3828    0.0000 O    0  0  0  0  0  0  0  0  0  0  0  0
    1.1689   -3.6485    0.0000 C    0  0  0  0  0  0  0  0  0  0  0  0
    1.1689   -0.9830    0.0000 C    0  0  0  0  0  0  0  0  0  0  0  0
    0.0000   -2.9843    0.0000 C    0  0  0  0  0  0  0  0  0  0  0  0
    0.0000   -1.6294    0.0000 C    0  0  0  0  0  0  0  0  0  0  0  0
  1  3  1  0  0  0  0
  1  5  1  0  0  0  0
  1 14  2  0  0  0  0
  1 15  2  0  0  0  0
  2  3  1  0  0  0  0
  2  6  1  0  0  0  0
  2  7  1  0  0  0  0
  2  4  1  0  0  0  0
  4  5  2  0  0  0  0
  4 26  1  0  0  0  0
  5 27  1  0  0  0  0
  6 17  2  0  0  0  0
  6 19  1  0  0  0  0
  7 16  2  0  0  0  0
  7 18  1  0  0  0  0
  8 13  1  0  0  0  0
  8 25  1  0  0  0  0
  8 10  2  0  0  0  0
  9 12  1  0  0  0  0
  9 24  1  0  0  0  0
  9 11  2  0  0  0  0
 10 16  1  0  0  0  0
 10 20  1  0  0  0  0
 11 17  1  0  0  0  0
 11 21  1  0  0  0  0
 12 19  2  0  0  0  0
 12 22  1  0  0  0  0
 13 18  2  0  0  0  0
 13 23  1  0  0  0  0
 26 28  2  0  0  0  0
 27 29  2  0  0  0  0
 28 29  1  0  0  0  0
M  END
> <ID>
8638

> <Formula>
C19H10Br4O5S

> <FW>
669.9607

> <DSSTox_CID>
21682

> <DSSTox_RID>
79816

> <DSSTox_GSID>
41682

> <DSSTox_FileID_Sort>
4498

> <TS_ChemName>
Bromophenol blue

> <TS_ChemName_Synonyms>


> <TS_CASRN>
115-39-9

> <CASRN_ChemName_Relationship>
primary

> <TS_Description>
single chemical compound

> <ChemNote>


> <STRUCTURE_Shown>
tested chemical

> <STRUCTURE_Formula>
C19H10Br4O5S

> <STRUCTURE_MW>
669.9607

> <STRUCTURE_ChemType>
defined organic

> <STRUCTURE_DefinedOrganicForm>
parent

> <STRUCTURE_IUPAC>
4,4'-(1,1-dioxido-3H-2,1-benzoxathiole-3,3-diyl)bis(2,6-dibromophenol)

> <STRUCTURE_SMILES>
Brc1cc(cc(Br)c1O)C3(OS(=O)(=O)c2ccccc23)c4cc(Br)c(O)c(Br)c4

> <STRUCTURE_SMILES_Desalt>
Brc1cc(cc(Br)c1O)C3(OS(=O)(=O)c2ccccc23)c4cc(Br)c(O)c(Br)c4

> <Substance_modify_yyyymmdd>
20080825

$$$$
