115-93-5
ChemmineR-0915142007XD

 17 17  0  0  0  0  0  0  0  0  1 V2000
    7.9701   -1.3299    0.0000 S   0  0  0  0  0  0  0  0  0  0  0  0
    2.0088   -2.4831    0.0000 P   0  0  0  0  0  0  0  0  0  0  0  0
    6.6402   -1.3299    0.0000 C   0  0  0  0  0  0  0  0  0  0  0  0
    0.8463   -1.8321    0.0000 S   0  0  0  0  0  0  0  0  0  0  0  0
    7.9701    0.0000    0.0000 O   0  0  0  0  0  0  0  0  0  0  0  0
    7.9701   -2.6598    0.0000 O   0  0  0  0  0  0  0  0  0  0  0  0
    2.6598   -1.3299    0.0000 O   0  0  0  0  0  0  0  0  0  0  0  0
    9.3000   -1.3299    0.0000 N   0  0  0  0  0  0  0  0  0  0  0  0
    5.9985   -2.4831    0.0000 C   0  0  0  0  0  0  0  0  0  0  0  0
    5.9985   -0.1767    0.0000 C   0  0  0  0  0  0  0  0  0  0  0  0
    1.3299   -3.6456    0.0000 O   0  0  0  0  0  0  0  0  0  0  0  0
    3.1434   -3.1620    0.0000 O   0  0  0  0  0  0  0  0  0  0  0  0
    3.9897   -1.3299    0.0000 C   0  0  0  0  0  0  0  0  0  0  0  0
    4.6686   -0.1767    0.0000 C   0  0  0  0  0  0  0  0  0  0  0  0
    4.6686   -2.4831    0.0000 C   0  0  0  0  0  0  0  0  0  0  0  0
    0.0000   -3.6456    0.0000 C   0  0  0  0  0  0  0  0  0  0  0  0
    3.1434   -4.4919    0.0000 C   0  0  0  0  0  0  0  0  0  0  0  0
  1  3  1  0  0  0  0
  1  5  2  0  0  0  0
  1  6  2  0  0  0  0
  1  8  1  0  0  0  0
  2  7  1  0  0  0  0
  2  4  2  0  0  0  0
  2 11  1  0  0  0  0
  2 12  1  0  0  0  0
  3  9  1  0  0  0  0
  3 10  2  0  0  0  0
  7 13  1  0  0  0  0
  9 15  2  0  0  0  0
 10 14  1  0  0  0  0
 11 16  1  0  0  0  0
 12 17  1  0  0  0  0
 13 14  2  0  0  0  0
 13 15  1  0  0  0  0
M  END
> <ID>
8777

> <Formula>
C8H12NO5PS2

> <FW>
297.2883

> <DSSTox_CID>
21828

> <DSSTox_RID>
79854

> <DSSTox_GSID>
41828

> <DSSTox_FileID_Sort>
4536

> <TS_ChemName>
Cythioate

> <TS_ChemName_Synonyms>


> <TS_CASRN>
115-93-5

> <CASRN_ChemName_Relationship>
primary

> <TS_Description>
single chemical compound

> <ChemNote>


> <STRUCTURE_Shown>
tested chemical

> <STRUCTURE_Formula>
C8H12NO5PS2

> <STRUCTURE_MW>
297.2883

> <STRUCTURE_ChemType>
defined organic

> <STRUCTURE_DefinedOrganicForm>
parent

> <STRUCTURE_IUPAC>
O,O-dimethyl O-(4-sulfamoylphenyl) phosphorothioate

> <STRUCTURE_SMILES>
O=S(N)(=O)c1ccc(OP(=S)(OC)OC)cc1

> <STRUCTURE_SMILES_Desalt>
O=S(N)(=O)c1ccc(OP(=S)(OC)OC)cc1

> <Substance_modify_yyyymmdd>
20080825

$$$$
