115-27-5
ChemmineR-0915142007XD

 18 20  0  0  0  0  0  0  0  0  1 V2000
    2.1558   -4.0036    0.0000 C    0  0  0  0  0  0  0  0  0  0  0  0
    2.1558   -2.5721    0.0000 C    0  0  0  0  0  0  0  0  0  0  0  0
    0.0000   -2.6577    0.0000 O    0  0  0  0  0  0  0  0  0  0  0  0
    0.9410   -3.7355    0.0000 C    0  0  0  0  0  0  0  0  0  0  0  0
    1.1920   -2.1387    0.0000 C    0  0  0  0  0  0  0  0  0  0  0  0
    3.3820   -3.2964    0.0000 C    0  0  0  0  0  0  0  0  0  0  0  0
    3.3477   -1.8991    0.0000 C    0  0  0  0  0  0  0  0  0  0  0  0
    4.4941   -2.5550    0.0000 C    0  0  0  0  0  0  0  0  0  0  0  0
    4.5112   -3.9865    0.0000 C    0  0  0  0  0  0  0  0  0  0  0  0
    2.5379   -1.0608    0.0000 C    0  0  0  0  0  0  0  0  0  0  0  0
    0.3878   -1.2604    0.0000 O    0  0  0  0  0  0  0  0  0  0  0  0
    0.4391   -4.3914    0.0000 O    0  0  0  0  0  0  0  0  0  0  0  0
    2.9086   -4.5568    0.0000 Cl   0  0  0  0  0  0  0  0  0  0  0  0
    5.7031   -4.6595    0.0000 Cl   0  0  0  0  0  0  0  0  0  0  0  0
    5.6689   -1.8478    0.0000 Cl   0  0  0  0  0  0  0  0  0  0  0  0
    3.3477   -0.5190    0.0000 Cl   0  0  0  0  0  0  0  0  0  0  0  0
    2.6063    0.0000    0.0000 Cl   0  0  0  0  0  0  0  0  0  0  0  0
    1.3630   -1.0266    0.0000 Cl   0  0  0  0  0  0  0  0  0  0  0  0
  1  2  1  0  0  0  0
  1  4  1  0  0  0  0
  1  6  1  0  0  0  0
  2  5  1  0  0  0  0
  2  7  1  0  0  0  0
  3  4  1  0  0  0  0
  3  5  1  0  0  0  0
  4 12  2  0  0  0  0
  5 11  2  0  0  0  0
  6  9  1  0  0  0  0
  6 10  1  0  0  0  0
  6 13  1  0  0  0  0
  7  8  1  0  0  0  0
  7 10  1  0  0  0  0
  7 16  1  0  0  0  0
  8  9  2  0  0  0  0
  8 15  1  0  0  0  0
  9 14  1  0  0  0  0
 10 17  1  0  0  0  0
 10 18  1  0  0  0  0
M  END
> <ID>
4863

> <Formula>
C9H2Cl6O3

> <FW>
370.8284

> <DSSTox_CID>
6941

> <DSSTox_RID>
78263

> <DSSTox_GSID>
26941

> <DSSTox_FileID_Sort>
2946

> <TS_ChemName>
Chlorendic anhydride

> <TS_ChemName_Synonyms>
Chlorendic anhydride (4,7-Methanoisobenzofuran-1,3-dione, 4,5,6,7,8,8-hexachloro-3a,4,7,7a-tetrahydro-)

> <TS_CASRN>
115-27-5

> <CASRN_ChemName_Relationship>
primary

> <TS_Description>
single chemical compound

> <ChemNote>
stereochem

> <STRUCTURE_Shown>
tested chemical

> <STRUCTURE_Formula>
C9H2Cl6O3

> <STRUCTURE_MW>
370.8284

> <STRUCTURE_ChemType>
defined organic

> <STRUCTURE_DefinedOrganicForm>
parent

> <STRUCTURE_IUPAC>
4,5,6,7,8,8-hexachloro-3a,4,7,7a-tetrahydro-4,7-methano-2-benzofuran-1,3-dione

> <STRUCTURE_SMILES>
ClC2=C(Cl)C3(Cl)C1C(C(=O)OC1=O)C2(Cl)C3(Cl)Cl

> <STRUCTURE_SMILES_Desalt>
ClC2=C(Cl)C3(Cl)C1C(C(=O)OC1=O)C2(Cl)C3(Cl)Cl

> <Substance_modify_yyyymmdd>
20080429

$$$$
