115-33-3
ChemmineR-0915142007XD

 30 33  0  0  0  0  0  0  0  0  1 V2000
    0.0000   -4.3744    0.0000 C   0  0  0  0  0  0  0  0  0  0  0  0
    1.1470   -3.7110    0.0000 C   0  0  0  0  0  0  0  0  0  0  0  0
    2.3053   -4.3744    0.0000 C   0  0  0  0  0  0  0  0  0  0  0  0
    2.3053   -5.7014    0.0000 C   0  0  0  0  0  0  0  0  0  0  0  0
    1.1470   -6.3649    0.0000 C   0  0  0  0  0  0  0  0  0  0  0  0
    0.0000   -5.7014    0.0000 C   0  0  0  0  0  0  0  0  0  0  0  0
    1.4282   -7.6693    0.0000 N   0  0  0  0  0  0  0  0  0  0  0  0
    2.7551   -7.8043    0.0000 C   0  0  0  0  0  0  0  0  0  0  0  0
    3.4186   -8.9626    0.0000 O   0  0  0  0  0  0  0  0  0  0  0  0
    3.2949   -6.5898    0.0000 C   0  0  0  0  0  0  0  0  0  0  0  0
    4.0708   -5.5215    0.0000 C   0  0  0  0  0  0  0  0  0  0  0  0
    3.5310   -4.3070    0.0000 C   0  0  0  0  0  0  0  0  0  0  0  0
    4.3182   -3.2274    0.0000 C   0  0  0  0  0  0  0  0  0  0  0  0
    5.6339   -3.3624    0.0000 C   0  0  0  0  0  0  0  0  0  0  0  0
    6.4211   -2.2941    0.0000 O   0  0  0  0  0  0  0  0  0  0  0  0
    5.8701   -1.0796    0.0000 C   0  0  0  0  0  0  0  0  0  0  0  0
    4.5544   -0.9334    0.0000 O   0  0  0  0  0  0  0  0  0  0  0  0
    6.6573    0.0000    0.0000 C   0  0  0  0  0  0  0  0  0  0  0  0
    6.1737   -4.5769    0.0000 C   0  0  0  0  0  0  0  0  0  0  0  0
    5.3978   -5.6564    0.0000 C   0  0  0  0  0  0  0  0  0  0  0  0
    4.4419   -7.2533    0.0000 C   0  0  0  0  0  0  0  0  0  0  0  0
    5.5889   -6.5898    0.0000 C   0  0  0  0  0  0  0  0  0  0  0  0
    6.7472   -7.2533    0.0000 C   0  0  0  0  0  0  0  0  0  0  0  0
    6.7472   -8.5915    0.0000 C   0  0  0  0  0  0  0  0  0  0  0  0
    7.8942   -9.2549    0.0000 O   0  0  0  0  0  0  0  0  0  0  0  0
    7.8942  -10.5819    0.0000 C   0  0  0  0  0  0  0  0  0  0  0  0
    9.0525  -11.2454    0.0000 C   0  0  0  0  0  0  0  0  0  0  0  0
    6.7472  -11.2454    0.0000 O   0  0  0  0  0  0  0  0  0  0  0  0
    5.5889   -9.2549    0.0000 C   0  0  0  0  0  0  0  0  0  0  0  0
    4.4419   -8.5915    0.0000 C   0  0  0  0  0  0  0  0  0  0  0  0
  1  2  2  0  0  0  0
  1  6  1  0  0  0  0
  2  3  1  0  0  0  0
  3  4  2  0  0  0  0
  4  5  1  0  0  0  0
  4 10  1  0  0  0  0
  5  6  2  0  0  0  0
  5  7  1  0  0  0  0
  7  8  1  0  0  0  0
  8  9  2  0  0  0  0
  8 10  1  0  0  0  0
 10 11  1  0  0  0  0
 10 21  1  0  0  0  0
 11 12  2  0  0  0  0
 11 20  1  0  0  0  0
 12 13  1  0  0  0  0
 13 14  2  0  0  0  0
 14 15  1  0  0  0  0
 14 19  1  0  0  0  0
 15 16  1  0  0  0  0
 16 17  2  0  0  0  0
 16 18  1  0  0  0  0
 19 20  2  0  0  0  0
 21 22  2  0  0  0  0
 21 30  1  0  0  0  0
 22 23  1  0  0  0  0
 23 24  2  0  0  0  0
 24 25  1  0  0  0  0
 24 29  1  0  0  0  0
 25 26  1  0  0  0  0
 26 27  1  0  0  0  0
 26 28  2  0  0  0  0
 29 30  2  0  0  0  0
M  END
> <ID>
3058

> <Formula>
C24H19NO5

> <FW>
401.4114

> <DSSTox_CID>
3411

> <DSSTox_RID>
77014

> <DSSTox_GSID>
23411

> <DSSTox_FileID_Sort>
1698

> <TS_ChemName>
Oxyphenisatin acetate

> <TS_ChemName_Synonyms>


> <TS_CASRN>
115-33-3

> <CASRN_ChemName_Relationship>
primary

> <TS_Description>
single chemical compound

> <ChemNote>


> <STRUCTURE_Shown>
tested chemical

> <STRUCTURE_Formula>
C24H19NO5

> <STRUCTURE_MW>
401.4114

> <STRUCTURE_ChemType>
defined organic

> <STRUCTURE_DefinedOrganicForm>
parent

> <STRUCTURE_IUPAC>
(2-oxo-2,3-dihydro-1H-indole-3,3-diyl)dibenzene-4,1-diyl diacetate

> <STRUCTURE_SMILES>
CC(=O)Oc1ccc(cc1)C2(c3ccccc3NC2=O)c4ccc(OC(C)=O)cc4

> <STRUCTURE_SMILES_Desalt>
CC(=O)Oc1ccc(cc1)C2(c3ccccc3NC2=O)c4ccc(OC(C)=O)cc4

> <Substance_modify_yyyymmdd>
20080429

$$$$
