115-37-7
ChemmineR-0915142007XD

 23 27  0  0  1  0  0  0  0  0  1 V2000
    3.9881   -2.2618    0.0000 C   0  0  0  0  0  0  0  0  0  0  0  0
    3.3234   -3.3696    0.0000 C   0  0  0  0  0  0  0  0  0  0  0  0
    5.2806   -2.2618    0.0000 C   0  0  0  0  0  0  0  0  0  0  0  0
    3.3050   -1.1263    0.0000 C   0  0  0  0  0  0  0  0  0  0  0  0
    5.9360   -1.1263    0.0000 C   0  0  0  0  0  0  0  0  0  0  0  0
    4.6436   -0.3416    0.0000 O   0  0  0  0  0  0  0  0  0  0  0  0
    3.9881   -4.5328    0.0000 C   0  0  0  0  0  0  0  0  0  0  0  0
    5.9545   -3.3696    0.0000 C   0  0  0  0  0  0  0  0  0  0  0  0
    2.0033   -3.3696    0.0000 C   0  0  0  0  0  0  0  0  0  0  0  0
    5.2806   -4.5328    0.0000 C   0  0  0  0  0  0  0  0  0  0  0  0
    3.3696   -5.1329    0.0000 N   0  0  0  0  0  0  0  0  0  0  0  0
    1.9848   -1.1263    0.0000 C   0  0  0  0  0  0  0  0  0  0  0  0
    1.3571   -2.2618    0.0000 C   0  0  0  0  0  0  0  0  0  0  0  0
    2.6772   -2.2618    0.0000 C   0  0  0  0  0  0  0  0  0  0  0  0
    7.2469   -1.1263    0.0000 C   0  0  0  0  0  0  0  0  0  0  0  0
    2.6772   -4.7728    0.0000 C   0  0  0  0  0  0  0  0  0  0  0  0
    7.2469   -3.3696    0.0000 C   0  0  0  0  0  0  0  0  0  0  0  0
    7.8932   -2.2618    0.0000 C   0  0  0  0  0  0  0  0  0  0  0  0
    1.3201   -0.0092    0.0000 O   0  0  0  0  0  0  0  0  0  0  0  0
    7.9116    0.0000    0.0000 O   0  0  0  0  0  0  0  0  0  0  0  0
    3.3696   -6.3607    0.0000 C   0  0  0  0  0  0  0  0  0  0  0  0
    0.0000   -0.0092    0.0000 C   0  0  0  0  0  0  0  0  0  0  0  0
    9.2318    0.0000    0.0000 C   0  0  0  0  0  0  0  0  0  0  0  0
  1  2  1  0  0  0  0
  1  3  1  0  0  0  0
  1  4  1  0  0  0  0
  1 14  1  1  0  0  0
  2  7  1  0  0  0  0
  2  9  2  0  0  0  0
  3  5  1  0  0  0  0
  3  8  2  0  0  0  0
  4  6  1  6  0  0  0
  4 12  1  0  0  0  0
  5 15  2  0  0  0  0
  5  6  1  0  0  0  0
  7 11  1  1  0  0  0
  7 10  1  0  0  0  0
  8 10  1  0  0  0  0
  8 17  1  0  0  0  0
  9 13  1  0  0  0  0
 11 16  1  0  0  0  0
 11 21  1  0  0  0  0
 12 13  2  0  0  0  0
 12 19  1  0  0  0  0
 14 16  1  0  0  0  0
 15 20  1  0  0  0  0
 15 18  1  0  0  0  0
 17 18  2  0  0  0  0
 19 22  1  0  0  0  0
 20 23  1  0  0  0  0
M  END
> <ID>
11405

> <Formula>
C19H21NO3

> <FW>
311.3749

> <DSSTox_CID>
26099

> <DSSTox_RID>
81337

> <DSSTox_GSID>
46099

> <DSSTox_FileID_Sort>
6018

> <TS_ChemName>
Thebaine

> <TS_ChemName_Synonyms>


> <TS_CASRN>
115-37-7

> <CASRN_ChemName_Relationship>
primary

> <TS_Description>
single chemical compound

> <ChemNote>
stereochem

> <STRUCTURE_Shown>
tested chemical

> <STRUCTURE_Formula>
C19H21NO3

> <STRUCTURE_MW>
311.3749

> <STRUCTURE_ChemType>
defined organic

> <STRUCTURE_DefinedOrganicForm>
parent

> <STRUCTURE_IUPAC>
(5alpha)-3,6-dimethoxy-17-methyl-6,7,8,14-tetradehydro-4,5-epoxymorphinan

> <STRUCTURE_SMILES>
COC1=CC=C3[C@H]2Cc4ccc(OC)c5O[C@@H]1[C@]3(CCN2C)c45

> <STRUCTURE_SMILES_Desalt>
COC1=CC=C3[C@H]2Cc4ccc(OC)c5O[C@@H]1[C@]3(CCN2C)c45

> <Substance_modify_yyyymmdd>
20110819

$$$$
