115-32-2
ChemmineR-0915142007XD

 20 21  0  0  0  0  0  0  0  0  1 V2000
    0.0000   -5.2475    0.0000 O    0  0  0  0  0  0  0  0  0  0  0  0
    1.3138   -5.2475    0.0000 C    0  0  0  0  0  0  0  0  0  0  0  0
    1.3138   -3.9337    0.0000 C    0  0  0  0  0  0  0  0  0  0  0  0
    0.1731   -3.2807    0.0000 C    0  0  0  0  0  0  0  0  0  0  0  0
    0.1731   -1.9668    0.0000 C    0  0  0  0  0  0  0  0  0  0  0  0
    1.3138   -1.3138    0.0000 C    0  0  0  0  0  0  0  0  0  0  0  0
    2.4467   -1.9668    0.0000 C    0  0  0  0  0  0  0  0  0  0  0  0
    2.4467   -3.2807    0.0000 C    0  0  0  0  0  0  0  0  0  0  0  0
    1.3138    0.0000    0.0000 Cl   0  0  0  0  0  0  0  0  0  0  0  0
    3.0132   -5.2475    0.0000 C    0  0  0  0  0  0  0  0  0  0  0  0
    3.6740   -4.1067    0.0000 C    0  0  0  0  0  0  0  0  0  0  0  0
    4.9800   -4.1067    0.0000 C    0  0  0  0  0  0  0  0  0  0  0  0
    5.6409   -5.2475    0.0000 C    0  0  0  0  0  0  0  0  0  0  0  0
    4.9800   -6.3804    0.0000 C    0  0  0  0  0  0  0  0  0  0  0  0
    3.6740   -6.3804    0.0000 C    0  0  0  0  0  0  0  0  0  0  0  0
    6.9468   -5.2475    0.0000 Cl   0  0  0  0  0  0  0  0  0  0  0  0
    1.3138   -6.5535    0.0000 C    0  0  0  0  0  0  0  0  0  0  0  0
    2.6198   -6.5535    0.0000 Cl   0  0  0  0  0  0  0  0  0  0  0  0
    1.3138   -7.8673    0.0000 Cl   0  0  0  0  0  0  0  0  0  0  0  0
    0.0000   -6.5535    0.0000 Cl   0  0  0  0  0  0  0  0  0  0  0  0
  1  2  1  0  0  0  0
  2  3  1  0  0  0  0
  2 10  1  0  0  0  0
  2 17  1  0  0  0  0
  3  4  2  0  0  0  0
  3  8  1  0  0  0  0
  4  5  1  0  0  0  0
  5  6  2  0  0  0  0
  6  7  1  0  0  0  0
  6  9  1  0  0  0  0
  7  8  2  0  0  0  0
 10 11  2  0  0  0  0
 10 15  1  0  0  0  0
 11 12  1  0  0  0  0
 12 13  2  0  0  0  0
 13 14  1  0  0  0  0
 13 16  1  0  0  0  0
 14 15  2  0  0  0  0
 17 18  1  0  0  0  0
 17 19  1  0  0  0  0
 17 20  1  0  0  0  0
M  END
> <ID>
434

> <Formula>
C14H9Cl5O

> <FW>
370.4857

> <DSSTox_CID>
450

> <DSSTox_RID>
75599

> <DSSTox_GSID>
20450

> <DSSTox_FileID_Sort>
283

> <TS_ChemName>
Dicofol

> <TS_ChemName_Synonyms>
Dicofol (Dicofol, p,p') (Kelthane)

> <TS_CASRN>
115-32-2

> <CASRN_ChemName_Relationship>
primary

> <TS_Description>
single chemical compound

> <ChemNote>


> <STRUCTURE_Shown>
tested chemical

> <STRUCTURE_Formula>
C14H9Cl5O

> <STRUCTURE_MW>
370.4857

> <STRUCTURE_ChemType>
defined organic

> <STRUCTURE_DefinedOrganicForm>
parent

> <STRUCTURE_IUPAC>
2,2,2-trichloro-1,1-bis(4-chlorophenyl)ethanol

> <STRUCTURE_SMILES>
OC(c1ccc(Cl)cc1)(c2ccc(Cl)cc2)C(Cl)(Cl)Cl

> <STRUCTURE_SMILES_Desalt>
OC(c1ccc(Cl)cc1)(c2ccc(Cl)cc2)C(Cl)(Cl)Cl

> <Substance_modify_yyyymmdd>
20080429

$$$$
