115-24-2
ChemmineR-0915142007XD

 13 12  0  0  0  0  0  0  0  0  1 V2000
    3.3307   -1.3230    0.0000 C   0  0  0  0  0  0  0  0  0  0  0  0
    1.9944   -1.3363    0.0000 S   0  0  0  0  0  0  0  0  0  0  0  0
    4.6537   -1.3230    0.0000 S   0  0  0  0  0  0  0  0  0  0  0  0
    1.9944   -2.6593    0.0000 O   0  0  0  0  0  0  0  0  0  0  0  0
    1.9944    0.0000    0.0000 O   0  0  0  0  0  0  0  0  0  0  0  0
    4.6537    0.0000    0.0000 O   0  0  0  0  0  0  0  0  0  0  0  0
    4.6537   -2.6593    0.0000 O   0  0  0  0  0  0  0  0  0  0  0  0
    3.3307   -2.6593    0.0000 C   0  0  0  0  0  0  0  0  0  0  0  0
    3.3174    0.0000    0.0000 C   0  0  0  0  0  0  0  0  0  0  0  0
    0.6582   -1.3363    0.0000 C   0  0  0  0  0  0  0  0  0  0  0  0
    5.9900   -1.3230    0.0000 C   0  0  0  0  0  0  0  0  0  0  0  0
    0.0000   -2.4798    0.0000 C   0  0  0  0  0  0  0  0  0  0  0  0
    6.6481   -0.1662    0.0000 C   0  0  0  0  0  0  0  0  0  0  0  0
  1  2  1  0  0  0  0
  1  3  1  0  0  0  0
  1  8  1  0  0  0  0
  1  9  1  0  0  0  0
  2  4  2  0  0  0  0
  2  5  2  0  0  0  0
  2 10  1  0  0  0  0
  3  6  2  0  0  0  0
  3  7  2  0  0  0  0
  3 11  1  0  0  0  0
 10 12  1  0  0  0  0
 11 13  1  0  0  0  0
M  END
> <ID>
13573

> <Formula>
C7H16O4S2

> <FW>
228.3295

> <DSSTox_CID>
28500

> <DSSTox_RID>
82772

> <DSSTox_GSID>
48574

> <DSSTox_FileID_Sort>
7449

> <TS_ChemName>
Sulfonmethane

> <TS_ChemName_Synonyms>


> <TS_CASRN>
115-24-2

> <CASRN_ChemName_Relationship>
primary

> <TS_Description>
single chemical compound

> <ChemNote>


> <STRUCTURE_Shown>
tested chemical

> <STRUCTURE_Formula>
C7H16O4S2

> <STRUCTURE_MW>
228.3295

> <STRUCTURE_ChemType>
defined organic

> <STRUCTURE_DefinedOrganicForm>
parent

> <STRUCTURE_IUPAC>
2,2-bis(ethylsulfonyl)propane

> <STRUCTURE_SMILES>
CC(C)(S(=O)(=O)CC)S(=O)(=O)CC

> <STRUCTURE_SMILES_Desalt>
CC(C)(S(=O)(=O)CC)S(=O)(=O)CC

> <Substance_modify_yyyymmdd>
20111110

$$$$
