115-70-8
ChemmineR-0915142007XD

  8  7  0  0  0  0  0  0  0  0  1 V2000
    1.3303    0.0000    0.0000 C   0  0  0  0  0  0  0  0  0  0  0  0
    1.9868   -1.1543    0.0000 C   0  0  0  0  0  0  0  0  0  0  0  0
    3.1369   -0.4978    0.0000 C   0  0  0  0  0  0  0  0  0  0  0  0
    0.0000    0.0000    0.0000 O   0  0  0  0  0  0  0  0  0  0  0  0
    4.2912   -1.1543    0.0000 O   0  0  0  0  0  0  0  0  0  0  0  0
    0.8325   -1.8238    0.0000 N   0  0  0  0  0  0  0  0  0  0  0  0
    2.6563   -2.3044    0.0000 C   0  0  0  0  0  0  0  0  0  0  0  0
    1.9868   -3.4587    0.0000 C   0  0  0  0  0  0  0  0  0  0  0  0
  1  2  1  0  0  0  0
  1  4  1  0  0  0  0
  2  3  1  0  0  0  0
  2  6  1  0  0  0  0
  2  7  1  0  0  0  0
  3  5  1  0  0  0  0
  7  8  1  0  0  0  0
M  END
> <ID>
5814

> <Formula>
C5H13NO2

> <FW>
119.1622

> <DSSTox_CID>
9150

> <DSSTox_RID>
78684

> <DSSTox_GSID>
29150

> <DSSTox_FileID_Sort>
3366

> <TS_ChemName>
2-Amino-2-ethyl-1,3-propanediol

> <TS_ChemName_Synonyms>


> <TS_CASRN>
115-70-8

> <CASRN_ChemName_Relationship>
primary

> <TS_Description>
single chemical compound

> <ChemNote>


> <STRUCTURE_Shown>
tested chemical

> <STRUCTURE_Formula>
C5H13NO2

> <STRUCTURE_MW>
119.1622

> <STRUCTURE_ChemType>
defined organic

> <STRUCTURE_DefinedOrganicForm>
parent

> <STRUCTURE_IUPAC>
2-amino-2-ethylpropane-1,3-diol

> <STRUCTURE_SMILES>
CCC(N)(CO)CO

> <STRUCTURE_SMILES_Desalt>
CCC(N)(CO)CO

> <Substance_modify_yyyymmdd>
20080429

$$$$
