115-84-4
ChemmineR-0915142007XD

 11 10  0  0  0  0  0  0  0  0  1 V2000
    4.0119   -0.6606    0.0000 C   0  0  0  0  0  0  0  0  0  0  0  0
    3.9999   -1.9940    0.0000 C   0  0  0  0  0  0  0  0  0  0  0  0
    3.9999   -3.3273    0.0000 C   0  0  0  0  0  0  0  0  0  0  0  0
    2.8588    0.0000    0.0000 O   0  0  0  0  0  0  0  0  0  0  0  0
    5.1531   -3.9999    0.0000 O   0  0  0  0  0  0  0  0  0  0  0  0
    2.6846   -1.9940    0.0000 C   0  0  0  0  0  0  0  0  0  0  0  0
    2.0060   -3.1291    0.0000 C   0  0  0  0  0  0  0  0  0  0  0  0
    0.6727   -3.1471    0.0000 C   0  0  0  0  0  0  0  0  0  0  0  0
    0.0000   -4.2882    0.0000 C   0  0  0  0  0  0  0  0  0  0  0  0
    5.3332   -1.9940    0.0000 C   0  0  0  0  0  0  0  0  0  0  0  0
    6.0059   -0.8348    0.0000 C   0  0  0  0  0  0  0  0  0  0  0  0
  1  2  1  0  0  0  0
  1  4  1  0  0  0  0
  2  3  1  0  0  0  0
  2  6  1  0  0  0  0
  2 10  1  0  0  0  0
  3  5  1  0  0  0  0
  6  7  1  0  0  0  0
  7  8  1  0  0  0  0
  8  9  1  0  0  0  0
 10 11  1  0  0  0  0
M  END
> <ID>
8366

> <Formula>
C9H20O2

> <FW>
160.2539

> <DSSTox_CID>
21400

> <DSSTox_RID>
79713

> <DSSTox_GSID>
41400

> <DSSTox_FileID_Sort>
4395

> <TS_ChemName>
2-Butyl-2-ethyl-1,3-propanediol

> <TS_ChemName_Synonyms>


> <TS_CASRN>
115-84-4

> <CASRN_ChemName_Relationship>
primary

> <TS_Description>
single chemical compound

> <ChemNote>


> <STRUCTURE_Shown>
tested chemical

> <STRUCTURE_Formula>
C9H20O2

> <STRUCTURE_MW>
160.2539

> <STRUCTURE_ChemType>
defined organic

> <STRUCTURE_DefinedOrganicForm>
parent

> <STRUCTURE_IUPAC>
2-butyl-2-ethylpropane-1,3-diol

> <STRUCTURE_SMILES>
CCCCC(CO)(CO)CC

> <STRUCTURE_SMILES_Desalt>
CCCCC(CO)(CO)CC

> <Substance_modify_yyyymmdd>
20080825

$$$$
