115-44-6
ChemmineR-0915142007XD

 16 16  0  0  0  0  0  0  0  0  1 V2000
    3.3342   -2.0060    0.0000 C   0  0  0  0  0  0  0  0  0  0  0  0
    2.0060   -2.0060    0.0000 C   0  0  0  0  0  0  0  0  0  0  0  0
    2.6565   -3.1445    0.0000 C   0  0  0  0  0  0  0  0  0  0  0  0
    3.3342   -0.6709    0.0000 C   0  0  0  0  0  0  0  0  0  0  0  0
    2.1821    0.0000    0.0000 O   0  0  0  0  0  0  0  0  0  0  0  0
    4.4727    0.0000    0.0000 N   0  0  0  0  0  0  0  0  0  0  0  0
    5.6248   -0.6709    0.0000 C   0  0  0  0  0  0  0  0  0  0  0  0
    6.7769    0.0000    0.0000 O   0  0  0  0  0  0  0  0  0  0  0  0
    5.6248   -2.0060    0.0000 N   0  0  0  0  0  0  0  0  0  0  0  0
    4.4727   -2.6633    0.0000 C   0  0  0  0  0  0  0  0  0  0  0  0
    4.4727   -3.9916    0.0000 O   0  0  0  0  0  0  0  0  0  0  0  0
    1.3283   -3.1445    0.0000 C   0  0  0  0  0  0  0  0  0  0  0  0
    1.3283   -0.8539    0.0000 C   0  0  0  0  0  0  0  0  0  0  0  0
    3.3342   -4.2965    0.0000 C   0  0  0  0  0  0  0  0  0  0  0  0
    2.6565   -5.4486    0.0000 C   0  0  0  0  0  0  0  0  0  0  0  0
    0.0000   -0.8539    0.0000 C   0  0  0  0  0  0  0  0  0  0  0  0
  1  2  1  0  0  0  0
  1  3  1  0  0  0  0
  1  4  1  0  0  0  0
  1 10  1  0  0  0  0
  2 13  1  0  0  0  0
  3 12  1  0  0  0  0
  3 14  1  0  0  0  0
  4  5  2  0  0  0  0
  4  6  1  0  0  0  0
  6  7  1  0  0  0  0
  7  8  2  0  0  0  0
  7  9  1  0  0  0  0
  9 10  1  0  0  0  0
 10 11  2  0  0  0  0
 13 16  2  0  0  0  0
 14 15  1  0  0  0  0
M  END
> <ID>
3246

> <Formula>
C11H16N2O3

> <FW>
224.2563

> <DSSTox_CID>
3630

> <DSSTox_RID>
97553

> <DSSTox_GSID>
23630

> <DSSTox_FileID_Sort>
8328

> <TS_ChemName>
Talbutal

> <TS_ChemName_Synonyms>


> <TS_CASRN>
115-44-6

> <CASRN_ChemName_Relationship>
primary

> <TS_Description>
single chemical compound

> <ChemNote>


> <STRUCTURE_Shown>
tested chemical

> <STRUCTURE_Formula>
C11H16N2O3

> <STRUCTURE_MW>
224.2563

> <STRUCTURE_ChemType>
defined organic

> <STRUCTURE_DefinedOrganicForm>
parent

> <STRUCTURE_IUPAC>
5-(butan-2-yl)-5-(prop-2-en-1-yl)pyrimidine-2,4,6(1H,3H,5H)-trione

> <STRUCTURE_SMILES>
O=C1NC(=O)NC(=O)C1(CC=C)C(C)CC

> <STRUCTURE_SMILES_Desalt>
O=C1NC(=O)NC(=O)C1(CC=C)C(C)CC

> <Substance_modify_yyyymmdd>
20080429

$$$$
