115-46-8
ChemmineR-0915142007XD

 20 22  0  0  0  0  0  0  0  0  1 V2000
    5.3258   -3.9924    0.0000 O   0  0  0  0  0  0  0  0  0  0  0  0
    3.9924   -3.9924    0.0000 C   0  0  0  0  0  0  0  0  0  0  0  0
    3.9924   -5.3258    0.0000 C   0  0  0  0  0  0  0  0  0  0  0  0
    5.1422   -5.9886    0.0000 C   0  0  0  0  0  0  0  0  0  0  0  0
    5.1422   -7.3220    0.0000 C   0  0  0  0  0  0  0  0  0  0  0  0
    3.9924   -7.9847    0.0000 N   0  0  0  0  0  0  0  0  0  0  0  0
    2.8426   -7.3220    0.0000 C   0  0  0  0  0  0  0  0  0  0  0  0
    2.8426   -5.9886    0.0000 C   0  0  0  0  0  0  0  0  0  0  0  0
    2.6589   -3.9924    0.0000 C   0  0  0  0  0  0  0  0  0  0  0  0
    1.9962   -5.1422    0.0000 C   0  0  0  0  0  0  0  0  0  0  0  0
    0.6627   -5.1422    0.0000 C   0  0  0  0  0  0  0  0  0  0  0  0
    0.0000   -3.9924    0.0000 C   0  0  0  0  0  0  0  0  0  0  0  0
    0.6627   -2.8426    0.0000 C   0  0  0  0  0  0  0  0  0  0  0  0
    1.9962   -2.8426    0.0000 C   0  0  0  0  0  0  0  0  0  0  0  0
    3.9924   -2.6589    0.0000 C   0  0  0  0  0  0  0  0  0  0  0  0
    2.8426   -1.9962    0.0000 C   0  0  0  0  0  0  0  0  0  0  0  0
    2.8426   -0.6627    0.0000 C   0  0  0  0  0  0  0  0  0  0  0  0
    3.9924    0.0000    0.0000 C   0  0  0  0  0  0  0  0  0  0  0  0
    5.1422   -0.6627    0.0000 C   0  0  0  0  0  0  0  0  0  0  0  0
    5.1422   -1.9962    0.0000 C   0  0  0  0  0  0  0  0  0  0  0  0
  1  2  1  0  0  0  0
  2  3  1  0  0  0  0
  2  9  1  0  0  0  0
  2 15  1  0  0  0  0
  3  4  1  0  0  0  0
  3  8  1  0  0  0  0
  4  5  1  0  0  0  0
  5  6  1  0  0  0  0
  6  7  1  0  0  0  0
  7  8  1  0  0  0  0
  9 10  2  0  0  0  0
  9 14  1  0  0  0  0
 10 11  1  0  0  0  0
 11 12  2  0  0  0  0
 12 13  1  0  0  0  0
 13 14  2  0  0  0  0
 15 16  2  0  0  0  0
 15 20  1  0  0  0  0
 16 17  1  0  0  0  0
 17 18  2  0  0  0  0
 18 19  1  0  0  0  0
 19 20  2  0  0  0  0
M  END
> <ID>
10851

> <Formula>
C18H21NO

> <FW>
267.3654

> <DSSTox_CID>
25280

> <DSSTox_RID>
80781

> <DSSTox_GSID>
45280

> <DSSTox_FileID_Sort>
5462

> <TS_ChemName>
Azacyclonol

> <TS_ChemName_Synonyms>


> <TS_CASRN>
115-46-8

> <CASRN_ChemName_Relationship>
primary

> <TS_Description>
single chemical compound

> <ChemNote>


> <STRUCTURE_Shown>
tested chemical

> <STRUCTURE_Formula>
C18H21NO

> <STRUCTURE_MW>
267.3654

> <STRUCTURE_ChemType>
defined organic

> <STRUCTURE_DefinedOrganicForm>
parent

> <STRUCTURE_IUPAC>
diphenyl(piperidin-4-yl)methanol

> <STRUCTURE_SMILES>
OC(c1ccccc1)(C2CCNCC2)c3ccccc3

> <STRUCTURE_SMILES_Desalt>
OC(c1ccccc1)(C2CCNCC2)c3ccccc3

> <Substance_modify_yyyymmdd>
20100107

$$$$
