115-29-7
ChemmineR-0915142007XD

 19 21  0  0  0  0  0  0  0  0  1 V2000
    1.8131   -4.4750    0.0000 O    0  0  0  0  0  0  0  0  0  0  0  0
    1.2444   -3.4284    0.0000 S    0  0  0  0  0  0  0  0  0  0  0  0
    2.9833   -4.6810    0.0000 C    0  0  0  0  0  0  0  0  0  0  0  0
    1.7059   -2.3405    0.0000 O    0  0  0  0  0  0  0  0  0  0  0  0
    3.8239   -3.9393    0.0000 C    0  0  0  0  0  0  0  0  0  0  0  0
    3.8157   -2.7114    0.0000 C    0  0  0  0  0  0  0  0  0  0  0  0
    2.8515   -2.0191    0.0000 C    0  0  0  0  0  0  0  0  0  0  0  0
    0.0000   -3.2059    0.0000 O    0  0  0  0  0  0  0  0  0  0  0  0
    5.3568   -3.2059    0.0000 C    0  0  0  0  0  0  0  0  0  0  0  0
    5.5052   -1.9037    0.0000 C    0  0  0  0  0  0  0  0  0  0  0  0
    6.9391   -3.8404    0.0000 C    0  0  0  0  0  0  0  0  0  0  0  0
    7.2111   -2.5383    0.0000 C    0  0  0  0  0  0  0  0  0  0  0  0
    4.6316   -0.7500    0.0000 C    0  0  0  0  0  0  0  0  0  0  0  0
    7.4419   -4.5904    0.0000 Cl   0  0  0  0  0  0  0  0  0  0  0  0
    8.2413   -2.1345    0.0000 Cl   0  0  0  0  0  0  0  0  0  0  0  0
    4.9036   -4.0959    0.0000 Cl   0  0  0  0  0  0  0  0  0  0  0  0
    6.3705   -1.3351    0.0000 Cl   0  0  0  0  0  0  0  0  0  0  0  0
    5.1590    0.0000    0.0000 Cl   0  0  0  0  0  0  0  0  0  0  0  0
    3.8734   -0.1236    0.0000 Cl   0  0  0  0  0  0  0  0  0  0  0  0
  1  2  1  0  0  0  0
  1  3  1  0  0  0  0
  2  4  1  0  0  0  0
  2  8  2  0  0  0  0
  3  5  1  0  0  0  0
  4  7  1  0  0  0  0
  5  6  1  0  0  0  0
  5  9  1  0  0  0  0
  6  7  1  0  0  0  0
  6 10  1  0  0  0  0
  9 11  1  0  0  0  0
  9 13  1  0  0  0  0
  9 16  1  0  0  0  0
 10 12  1  0  0  0  0
 10 13  1  0  0  0  0
 10 17  1  0  0  0  0
 11 12  2  0  0  0  0
 11 14  1  0  0  0  0
 12 15  1  0  0  0  0
 13 18  1  0  0  0  0
 13 19  1  0  0  0  0
M  END
> <ID>
536

> <Formula>
C9H6Cl6O3S

> <FW>
406.9251

> <DSSTox_CID>
560

> <DSSTox_RID>
75659

> <DSSTox_GSID>
20560

> <DSSTox_FileID_Sort>
343

> <TS_ChemName>
Endosulfan

> <TS_ChemName_Synonyms>


> <TS_CASRN>
115-29-7

> <CASRN_ChemName_Relationship>
primary

> <TS_Description>
single chemical compound

> <ChemNote>
mixture of alpha- [959-98-8] and beta-endosulfan [33213-65-9]; structure shown without stereochem

> <STRUCTURE_Shown>
tested chemical

> <STRUCTURE_Formula>
C9H6Cl6O3S

> <STRUCTURE_MW>
406.9251

> <STRUCTURE_ChemType>
defined organic

> <STRUCTURE_DefinedOrganicForm>
parent

> <STRUCTURE_IUPAC>
6,7,8,9,10,10-hexachloro-1,5,5a,6,9,9a-hexahydro-6,9-methano-2,4,3-benzodioxathiepine 3-oxide

> <STRUCTURE_SMILES>
ClC2=C(Cl)C3(Cl)C1COS(=O)OCC1C2(Cl)C3(Cl)Cl

> <STRUCTURE_SMILES_Desalt>
ClC2=C(Cl)C3(Cl)C1COS(=O)OCC1C2(Cl)C3(Cl)Cl

> <Substance_modify_yyyymmdd>
20080429

$$$$
