115-86-6
ChemmineR-0915142007XD

 23 25  0  0  0  0  0  0  0  0  1 V2000
    1.9924   -6.9547    0.0000 C   0  0  0  0  0  0  0  0  0  0  0  0
    0.6610   -6.9547    0.0000 C   0  0  0  0  0  0  0  0  0  0  0  0
    0.0000   -5.8002    0.0000 C   0  0  0  0  0  0  0  0  0  0  0  0
    0.6610   -4.6551    0.0000 C   0  0  0  0  0  0  0  0  0  0  0  0
    1.9924   -4.6551    0.0000 C   0  0  0  0  0  0  0  0  0  0  0  0
    2.6627   -5.8002    0.0000 C   0  0  0  0  0  0  0  0  0  0  0  0
    3.9940   -5.8002    0.0000 O   0  0  0  0  0  0  0  0  0  0  0  0
    4.6551   -4.6551    0.0000 P   0  0  0  0  0  0  0  0  0  0  0  0
    5.8095   -5.3161    0.0000 O   0  0  0  0  0  0  0  0  0  0  0  0
    3.5006   -3.9847    0.0000 O   0  0  0  0  0  0  0  0  0  0  0  0
    3.5006   -2.6534    0.0000 C   0  0  0  0  0  0  0  0  0  0  0  0
    2.3555   -1.9924    0.0000 C   0  0  0  0  0  0  0  0  0  0  0  0
    2.3555   -0.6610    0.0000 C   0  0  0  0  0  0  0  0  0  0  0  0
    3.5006    0.0000    0.0000 C   0  0  0  0  0  0  0  0  0  0  0  0
    4.6551   -0.6610    0.0000 C   0  0  0  0  0  0  0  0  0  0  0  0
    4.6551   -1.9924    0.0000 C   0  0  0  0  0  0  0  0  0  0  0  0
    5.3161   -3.5006    0.0000 O   0  0  0  0  0  0  0  0  0  0  0  0
    6.6474   -3.5006    0.0000 C   0  0  0  0  0  0  0  0  0  0  0  0
    7.3178   -2.3462    0.0000 C   0  0  0  0  0  0  0  0  0  0  0  0
    8.6491   -2.3462    0.0000 C   0  0  0  0  0  0  0  0  0  0  0  0
    9.3101   -3.5006    0.0000 C   0  0  0  0  0  0  0  0  0  0  0  0
    8.6491   -4.6551    0.0000 C   0  0  0  0  0  0  0  0  0  0  0  0
    7.3178   -4.6551    0.0000 C   0  0  0  0  0  0  0  0  0  0  0  0
  1  2  2  0  0  0  0
  1  6  1  0  0  0  0
  2  3  1  0  0  0  0
  3  4  2  0  0  0  0
  4  5  1  0  0  0  0
  5  6  2  0  0  0  0
  6  7  1  0  0  0  0
  7  8  1  0  0  0  0
  8  9  2  0  0  0  0
  8 10  1  0  0  0  0
  8 17  1  0  0  0  0
 10 11  1  0  0  0  0
 11 12  2  0  0  0  0
 11 16  1  0  0  0  0
 12 13  1  0  0  0  0
 13 14  2  0  0  0  0
 14 15  1  0  0  0  0
 15 16  2  0  0  0  0
 17 18  1  0  0  0  0
 18 19  2  0  0  0  0
 18 23  1  0  0  0  0
 19 20  1  0  0  0  0
 20 21  2  0  0  0  0
 21 22  1  0  0  0  0
 22 23  2  0  0  0  0
M  END
> <ID>
1818

> <Formula>
C18H15O4P

> <FW>
326.2831

> <DSSTox_CID>
1952

> <DSSTox_RID>
76423

> <DSSTox_GSID>
21952

> <DSSTox_FileID_Sort>
1107

> <TS_ChemName>
Triphenyl phosphate

> <TS_ChemName_Synonyms>


> <TS_CASRN>
115-86-6

> <CASRN_ChemName_Relationship>
primary

> <TS_Description>
single chemical compound

> <ChemNote>


> <STRUCTURE_Shown>
tested chemical

> <STRUCTURE_Formula>
C18H15O4P

> <STRUCTURE_MW>
326.2831

> <STRUCTURE_ChemType>
defined organic

> <STRUCTURE_DefinedOrganicForm>
parent

> <STRUCTURE_IUPAC>
triphenyl phosphate

> <STRUCTURE_SMILES>
O=P(Oc1ccccc1)(Oc2ccccc2)Oc3ccccc3

> <STRUCTURE_SMILES_Desalt>
O=P(Oc1ccccc1)(Oc2ccccc2)Oc3ccccc3

> <Substance_modify_yyyymmdd>
20080429

$$$$
