115-63-9
ChemmineR-0915142007XD

 29 30  0  0  0  0  0  0  0  0  2 V2000
    4.1214   -4.6034    0.0000 O   0  0  0  0  0  0  0  0  0  0  0  0
    3.4525   -3.4525    0.0000 C   0  0  0  0  0  0  0  0  0  0  0  0
    4.6034   -2.7935    0.0000 C   0  0  0  0  0  0  0  0  0  0  0  0
    5.7542   -3.4525    0.0000 N   0  0  0  0  0  0  0  0  0  0  0  0
    6.9051   -2.7935    0.0000 C   0  0  0  0  0  0  0  0  0  0  0  0
    8.0559   -3.4525    0.0000 C   0  0  0  0  0  0  0  0  0  0  0  0
    8.0559   -4.7804    0.0000 N   0  3  0  0  0  0  0  0  0  0  0  0
    9.3740   -4.5542    0.0000 C   0  0  0  0  0  0  0  0  0  0  0  0
    8.5182   -6.0296    0.0000 C   0  0  0  0  0  0  0  0  0  0  0  0
    6.9051   -5.4493    0.0000 C   0  0  0  0  0  0  0  0  0  0  0  0
    5.7542   -4.7804    0.0000 C   0  0  0  0  0  0  0  0  0  0  0  0
    2.3017   -4.1214    0.0000 C   0  0  0  0  0  0  0  0  0  0  0  0
    2.3017   -5.4493    0.0000 C   0  0  0  0  0  0  0  0  0  0  0  0
    1.1508   -6.1182    0.0000 C   0  0  0  0  0  0  0  0  0  0  0  0
    0.0000   -5.4493    0.0000 C   0  0  0  0  0  0  0  0  0  0  0  0
    0.0000   -4.1214    0.0000 C   0  0  0  0  0  0  0  0  0  0  0  0
    1.1508   -3.4525    0.0000 C   0  0  0  0  0  0  0  0  0  0  0  0
    2.7935   -2.3017    0.0000 C   0  0  0  0  0  0  0  0  0  0  0  0
    1.4558   -2.3017    0.0000 C   0  0  0  0  0  0  0  0  0  0  0  0
    0.7967   -1.1508    0.0000 C   0  0  0  0  0  0  0  0  0  0  0  0
    1.4558    0.0000    0.0000 C   0  0  0  0  0  0  0  0  0  0  0  0
    2.7935    0.0000    0.0000 C   0  0  0  0  0  0  0  0  0  0  0  0
    3.4525   -1.1508    0.0000 C   0  0  0  0  0  0  0  0  0  0  0  0
    2.9214   -9.3543    0.0000 O   0  5  0  0  0  0  0  0  0  0  0  0
    4.0722   -8.6854    0.0000 S   0  0  0  0  0  0  0  0  0  0  0  0
    4.7411   -9.8363    0.0000 O   0  0  0  0  0  0  0  0  0  0  0  0
    3.4132   -7.5346    0.0000 O   0  0  0  0  0  0  0  0  0  0  0  0
    5.2231   -8.0166    0.0000 O   0  0  0  0  0  0  0  0  0  0  0  0
    6.3838   -8.6854    0.0000 C   0  0  0  0  0  0  0  0  0  0  0  0
  1  2  1  0  0  0  0
  2  3  1  0  0  0  0
  2 12  1  0  0  0  0
  2 18  1  0  0  0  0
  3  4  1  0  0  0  0
  4  5  1  0  0  0  0
  4 11  1  0  0  0  0
  5  6  1  0  0  0  0
  6  7  1  0  0  0  0
  7  8  1  0  0  0  0
  7  9  1  0  0  0  0
  7 10  1  0  0  0  0
 10 11  1  0  0  0  0
 12 13  2  0  0  0  0
 12 17  1  0  0  0  0
 13 14  1  0  0  0  0
 14 15  2  0  0  0  0
 15 16  1  0  0  0  0
 16 17  2  0  0  0  0
 18 19  1  0  0  0  0
 18 23  1  0  0  0  0
 19 20  1  0  0  0  0
 20 21  1  0  0  0  0
 21 22  1  0  0  0  0
 22 23  1  0  0  0  0
 24 25  1  0  0  0  0
 25 26  2  0  0  0  0
 25 27  2  0  0  0  0
 25 28  1  0  0  0  0
 28 29  1  0  0  0  0
M  END
> <ID>
2805

> <Formula>
C21H36N2O5S

> <FW>
428.5859 (317.4883+111.0977)

> <DSSTox_CID>
3123

> <DSSTox_RID>
76883

> <DSSTox_GSID>
23123

> <DSSTox_FileID_Sort>
1567

> <TS_ChemName>
Hexocyclium

> <TS_ChemName_Synonyms>


> <TS_CASRN>
115-63-9

> <CASRN_ChemName_Relationship>
primary

> <TS_Description>
single chemical compound

> <ChemNote>
ammonium

> <STRUCTURE_Shown>
tested chemical

> <STRUCTURE_Formula>
C21H36N2O5S

> <STRUCTURE_MW>
428.5859

> <STRUCTURE_ChemType>
defined organic

> <STRUCTURE_DefinedOrganicForm>
complex

> <STRUCTURE_IUPAC>
4-(2-cyclohexyl-2-hydroxy-2-phenylethyl)-1,1-dimethylpiperazin-1-ium methyl sulfate

> <STRUCTURE_SMILES>
OC(CN1CC[N+](C)(C)CC1)(c2ccccc2)C3CCCCC3.[O-]S(=O)(=O)OC

> <STRUCTURE_SMILES_Desalt>
OC(CN1CC[N+](C)(C)CC1)(c2ccccc2)C3CCCCC3

> <Substance_modify_yyyymmdd>
20080429

$$$$
