115-95-7
ChemmineR-0915142007XD

 14 13  0  0  0  0  0  0  0  0  1 V2000
    1.5045   -4.2865    0.0000 C   0  0  0  0  0  0  0  0  0  0  0  0
    1.5045   -2.9586    0.0000 C   0  0  0  0  0  0  0  0  0  0  0  0
    2.6560   -2.3030    0.0000 C   0  0  0  0  0  0  0  0  0  0  0  0
    3.7991   -1.6306    0.0000 C   0  0  0  0  0  0  0  0  0  0  0  0
    4.9505   -2.3030    0.0000 C   0  0  0  0  0  0  0  0  0  0  0  0
    6.1020   -1.6306    0.0000 C   0  0  0  0  0  0  0  0  0  0  0  0
    7.2535   -2.3030    0.0000 C   0  0  0  0  0  0  0  0  0  0  0  0
    7.2535   -3.6310    0.0000 C   0  0  0  0  0  0  0  0  0  0  0  0
    2.0004   -1.1515    0.0000 O   0  0  0  0  0  0  0  0  0  0  0  0
    3.3200   -3.4545    0.0000 C   0  0  0  0  0  0  0  0  0  0  0  0
    8.4050   -1.6306    0.0000 C   0  0  0  0  0  0  0  0  0  0  0  0
    0.6724   -1.1515    0.0000 C   0  0  0  0  0  0  0  0  0  0  0  0
    0.0000   -2.3030    0.0000 O   0  0  0  0  0  0  0  0  0  0  0  0
    0.0000    0.0000    0.0000 C   0  0  0  0  0  0  0  0  0  0  0  0
  1  2  2  0  0  0  0
  2  3  1  0  0  0  0
  3  4  1  0  0  0  0
  3  9  1  0  0  0  0
  3 10  1  0  0  0  0
  4  5  1  0  0  0  0
  5  6  1  0  0  0  0
  6  7  2  0  0  0  0
  7  8  1  0  0  0  0
  7 11  1  0  0  0  0
  9 12  1  0  0  0  0
 12 13  2  0  0  0  0
 12 14  1  0  0  0  0
M  END
> <ID>
4866

> <Formula>
C12H20O2

> <FW>
196.286

> <DSSTox_CID>
6946

> <DSSTox_RID>
78265

> <DSSTox_GSID>
26946

> <DSSTox_FileID_Sort>
2948

> <TS_ChemName>
Linalyl acetate

> <TS_ChemName_Synonyms>
1,6-Octadien-3-ol, 3,7-dimethyl-, acetate

> <TS_CASRN>
115-95-7

> <CASRN_ChemName_Relationship>
primary

> <TS_Description>
single chemical compound

> <ChemNote>


> <STRUCTURE_Shown>
tested chemical

> <STRUCTURE_Formula>
C12H20O2

> <STRUCTURE_MW>
196.286

> <STRUCTURE_ChemType>
defined organic

> <STRUCTURE_DefinedOrganicForm>
parent

> <STRUCTURE_IUPAC>
3,7-dimethylocta-1,6-dien-3-yl acetate

> <STRUCTURE_SMILES>
O=C(C)OC(C)(CC\C=C(\C)C)C=C

> <STRUCTURE_SMILES_Desalt>
O=C(C)OC(C)(CC\C=C(\C)C)C=C

> <Substance_modify_yyyymmdd>
20080429

$$$$
