115-77-5
ChemmineR-0915142007XD

  9  8  0  0  0  0  0  0  0  0  1 V2000
    1.6330    0.0000    0.0000 C   0  0  0  0  0  0  0  0  0  0  0  0
    2.3064   -1.1532    0.0000 C   0  0  0  0  0  0  0  0  0  0  0  0
    3.4597   -0.4982    0.0000 C   0  0  0  0  0  0  0  0  0  0  0  0
    0.3045    0.0000    0.0000 O   0  0  0  0  0  0  0  0  0  0  0  0
    4.6129   -1.1532    0.0000 O   0  0  0  0  0  0  0  0  0  0  0  0
    2.9615   -2.3064    0.0000 C   0  0  0  0  0  0  0  0  0  0  0  0
    2.3064   -3.4597    0.0000 O   0  0  0  0  0  0  0  0  0  0  0  0
    1.1532   -1.8267    0.0000 C   0  0  0  0  0  0  0  0  0  0  0  0
    0.0000   -1.1532    0.0000 O   0  0  0  0  0  0  0  0  0  0  0  0
  1  2  1  0  0  0  0
  1  4  1  0  0  0  0
  2  3  1  0  0  0  0
  2  6  1  0  0  0  0
  2  8  1  0  0  0  0
  3  5  1  0  0  0  0
  6  7  1  0  0  0  0
  8  9  1  0  0  0  0
M  END
> <ID>
4864

> <Formula>
C5H12O4

> <FW>
136.1464

> <DSSTox_CID>
6943

> <DSSTox_RID>
78264

> <DSSTox_GSID>
26943

> <DSSTox_FileID_Sort>
2947

> <TS_ChemName>
Pentaerythritol

> <TS_ChemName_Synonyms>
Pentaerythritol (1,3-Propanediol, 2,2-bis(hydroxymethyl)-)

> <TS_CASRN>
115-77-5

> <CASRN_ChemName_Relationship>
primary

> <TS_Description>
single chemical compound

> <ChemNote>


> <STRUCTURE_Shown>
tested chemical

> <STRUCTURE_Formula>
C5H12O4

> <STRUCTURE_MW>
136.1464

> <STRUCTURE_ChemType>
defined organic

> <STRUCTURE_DefinedOrganicForm>
parent

> <STRUCTURE_IUPAC>
2,2-bis(hydroxymethyl)propane-1,3-diol

> <STRUCTURE_SMILES>
OCC(CO)(CO)CO

> <STRUCTURE_SMILES_Desalt>
OCC(CO)(CO)CO

> <Substance_modify_yyyymmdd>
20080429

$$$$
