115-19-5
ChemmineR-0915142007XD

  6  5  0  0  0  0  0  0  0  0  1 V2000
    0.0000   -2.6608    0.0000 C   0  0  0  0  0  0  0  0  0  0  0  0
    1.3284   -2.6608    0.0000 C   0  0  0  0  0  0  0  0  0  0  0  0
    2.6608   -2.6608    0.0000 O   0  0  0  0  0  0  0  0  0  0  0  0
    1.3284   -3.9892    0.0000 C   0  0  0  0  0  0  0  0  0  0  0  0
    1.3284   -1.3284    0.0000 C   0  0  0  0  0  0  0  0  0  0  0  0
    1.3284    0.0000    0.0000 C   0  0  0  0  0  0  0  0  0  0  0  0
  1  2  1  0  0  0  0
  2  3  1  0  0  0  0
  2  4  1  0  0  0  0
  2  5  1  0  0  0  0
  5  6  3  0  0  0  0
M  END
> <ID>
1816

> <Formula>
C5H8O

> <FW>
84.1164

> <DSSTox_CID>
1949

> <DSSTox_RID>
76422

> <DSSTox_GSID>
21949

> <DSSTox_FileID_Sort>
1106

> <TS_ChemName>
2-Methyl-3-butyn-2-ol

> <TS_ChemName_Synonyms>


> <TS_CASRN>
115-19-5

> <CASRN_ChemName_Relationship>
primary

> <TS_Description>
single chemical compound

> <ChemNote>


> <STRUCTURE_Shown>
tested chemical

> <STRUCTURE_Formula>
C5H8O

> <STRUCTURE_MW>
84.1164

> <STRUCTURE_ChemType>
defined organic

> <STRUCTURE_DefinedOrganicForm>
parent

> <STRUCTURE_IUPAC>
2-methylbut-3-yn-2-ol

> <STRUCTURE_SMILES>
C#CC(C)(C)O

> <STRUCTURE_SMILES_Desalt>
C#CC(C)(C)O

> <Substance_modify_yyyymmdd>
20080429

$$$$
