115103-85-0
ChemmineR-0915142007XD

 35 36  0  0  0  0  0  0  0  0  2 V2000
    3.4703   -3.9955    0.0000 C    0  0  0  0  0  0  0  0  0  0  0  0
    3.4703   -5.3274    0.0000 C    0  0  0  0  0  0  0  0  0  0  0  0
    2.3073   -3.3202    0.0000 C    0  0  0  0  0  0  0  0  0  0  0  0
    2.3073   -5.9839    0.0000 C    0  0  0  0  0  0  0  0  0  0  0  0
    1.1630   -3.9955    0.0000 C    0  0  0  0  0  0  0  0  0  0  0  0
    1.1630   -5.3274    0.0000 C    0  0  0  0  0  0  0  0  0  0  0  0
    4.6146   -3.3202    0.0000 C    0  0  0  0  0  0  0  0  0  0  0  0
    5.7776   -3.9955    0.0000 C    0  0  0  0  0  0  0  0  0  0  0  0
    4.6146   -5.9839    0.0000 N    0  0  0  0  0  0  0  0  0  0  0  0
    5.7776   -5.3274    0.0000 C    0  0  0  0  0  0  0  0  0  0  0  0
    6.9406   -5.9839    0.0000 C    0  0  0  0  0  0  0  0  0  0  0  0
    8.0661   -5.3274    0.0000 C    0  0  0  0  0  0  0  0  0  0  0  0
    9.2291   -5.9839    0.0000 C    0  0  0  0  0  0  0  0  0  0  0  0
   10.3734   -5.3274    0.0000 C    0  0  0  0  0  0  0  0  0  0  0  0
    9.2291   -7.3158    0.0000 C    0  0  0  0  0  0  0  0  0  0  0  0
   11.5364   -5.9839    0.0000 C    0  0  0  0  0  0  0  0  0  0  0  0
   10.3734   -7.9911    0.0000 C    0  0  0  0  0  0  0  0  0  0  0  0
   11.5364   -7.3158    0.0000 C    0  0  0  0  0  0  0  0  0  0  0  0
    0.0000   -5.9839    0.0000 Cl   0  0  0  0  0  0  0  0  0  0  0  0
   12.6994   -5.3274    0.0000 C    0  0  0  0  0  0  0  0  0  0  0  0
   13.8437   -5.9839    0.0000 S    0  0  0  0  0  0  0  0  0  0  0  0
   12.6994   -3.9955    0.0000 S    0  0  0  0  0  0  0  0  0  0  0  0
   13.8437   -3.3202    0.0000 C    0  0  0  0  0  0  0  0  0  0  0  0
   15.0067   -5.3274    0.0000 C    0  0  0  0  0  0  0  0  0  0  0  0
   16.1510   -5.9839    0.0000 C    0  0  0  0  0  0  0  0  0  0  0  0
   17.2952   -5.3274    0.0000 C    0  0  0  0  0  0  0  0  0  0  0  0
   18.4583   -5.9839    0.0000 O    0  5  0  0  0  0  0  0  0  0  0  0
   17.2952   -3.9955    0.0000 O    0  0  0  0  0  0  0  0  0  0  0  0
   13.8437   -1.9884    0.0000 C    0  0  0  0  0  0  0  0  0  0  0  0
   15.0067   -1.3318    0.0000 C    0  0  0  0  0  0  0  0  0  0  0  0
   15.0067    0.0000    0.0000 O    0  0  0  0  0  0  0  0  0  0  0  0
   16.1510   -1.9884    0.0000 N    0  0  0  0  0  0  0  0  0  0  0  0
   16.1510   -3.3202    0.0000 C    0  0  0  0  0  0  0  0  0  0  0  0
   17.2952   -1.3318    0.0000 C    0  0  0  0  0  0  0  0  0  0  0  0
   18.7584   -4.7084    0.0000 Na   0  3  0  0  0  0  0  0  0  0  0  0
  1  3  2  0  0  0  0
  1  7  1  0  0  0  0
  1  2  1  0  0  0  0
  2  4  2  0  0  0  0
  2  9  1  0  0  0  0
  3  5  1  0  0  0  0
  4  6  1  0  0  0  0
  5  6  2  0  0  0  0
  6 19  1  0  0  0  0
  7  8  2  0  0  0  0
  8 10  1  0  0  0  0
  9 10  2  0  0  0  0
 10 11  1  0  0  0  0
 11 12  2  0  0  0  0
 12 13  1  0  0  0  0
 13 14  1  0  0  0  0
 13 15  2  0  0  0  0
 14 16  2  0  0  0  0
 15 17  1  0  0  0  0
 16 18  1  0  0  0  0
 16 20  1  0  0  0  0
 17 18  2  0  0  0  0
 20 21  1  0  0  0  0
 20 22  1  0  0  0  0
 21 24  1  0  0  0  0
 22 23  1  0  0  0  0
 23 29  1  0  0  0  0
 24 25  1  0  0  0  0
 25 26  1  0  0  0  0
 26 27  1  0  0  0  0
 26 28  2  0  0  0  0
 29 30  1  0  0  0  0
 30 31  2  0  0  0  0
 30 32  1  0  0  0  0
 32 33  1  0  0  0  0
 32 34  1  0  0  0  0
M  END
> <ID>
11627

> <Formula>
C26H26ClN2NaO3S2

> <FW>
537.0690 (514.0798+22.9892)

> <DSSTox_CID>
26358

> <DSSTox_RID>
81560

> <DSSTox_GSID>
46358

> <DSSTox_FileID_Sort>
6241

> <TS_ChemName>
MK-571 sodium

> <TS_ChemName_Synonyms>


> <TS_CASRN>
115103-85-0

> <CASRN_ChemName_Relationship>
primary

> <TS_Description>
single chemical compound

> <ChemNote>
stereochem; sparent [115104-28-4]

> <STRUCTURE_Shown>
tested chemical

> <STRUCTURE_Formula>
C26H26ClN2NaO3S2

> <STRUCTURE_MW>
537.069

> <STRUCTURE_ChemType>
defined organic

> <STRUCTURE_DefinedOrganicForm>
salt

> <STRUCTURE_IUPAC>
sodium 3-[({3-[(E)-2-(7-chloroquinolin-2-yl)ethenyl]phenyl}{[3-(dimethylamino)-3-oxopropyl]sulfanyl}methyl)sulfanyl]propanoate

> <STRUCTURE_SMILES>
[Na+].CN(C)C(=O)CCSC(SCCC([O-])=O)c1cccc(c1)/C=C/c2ccc3ccc(Cl)cc3n2

> <STRUCTURE_SMILES_Desalt>
CN(C)C(=O)CCSC(SCCC(=O)O)c1cccc(c1)/C=C/c2ccc3ccc(Cl)cc3n2

> <Substance_modify_yyyymmdd>
20110814

$$$$
