115256-11-6
ChemmineR-0915142007XD

 29 30  0  0  0  0  0  0  0  0  1 V2000
    0.0000    0.0000    0.0000 C   0  0  0  0  0  0  0  0  0  0  0  0
    1.1778   -0.6674    0.0000 S   0  0  0  0  0  0  0  0  0  0  0  0
    2.2967    0.0000    0.0000 N   0  0  0  0  0  0  0  0  0  0  0  0
    3.4941   -0.6674    0.0000 C   0  0  0  0  0  0  0  0  0  0  0  0
    3.4941   -1.9826    0.0000 C   0  0  0  0  0  0  0  0  0  0  0  0
    4.6326   -2.6304    0.0000 C   0  0  0  0  0  0  0  0  0  0  0  0
    5.7908   -1.9826    0.0000 C   0  0  0  0  0  0  0  0  0  0  0  0
    5.7908   -0.6674    0.0000 C   0  0  0  0  0  0  0  0  0  0  0  0
    4.6326    0.0000    0.0000 C   0  0  0  0  0  0  0  0  0  0  0  0
    6.9293   -2.6500    0.0000 O   0  0  0  0  0  0  0  0  0  0  0  0
    8.0875   -1.9826    0.0000 C   0  0  0  0  0  0  0  0  0  0  0  0
    9.2456   -2.6304    0.0000 C   0  0  0  0  0  0  0  0  0  0  0  0
   10.4038   -1.9826    0.0000 N   0  0  0  0  0  0  0  0  0  0  0  0
   10.4038   -0.6478    0.0000 C   0  0  0  0  0  0  0  0  0  0  0  0
   11.5423   -2.6304    0.0000 C   0  0  0  0  0  0  0  0  0  0  0  0
   12.7005   -1.9826    0.0000 C   0  0  0  0  0  0  0  0  0  0  0  0
   13.8586   -2.6304    0.0000 C   0  0  0  0  0  0  0  0  0  0  0  0
   13.8586   -3.9652    0.0000 C   0  0  0  0  0  0  0  0  0  0  0  0
   15.0168   -4.6326    0.0000 C   0  0  0  0  0  0  0  0  0  0  0  0
   16.1749   -3.9652    0.0000 C   0  0  0  0  0  0  0  0  0  0  0  0
   16.1749   -2.6304    0.0000 C   0  0  0  0  0  0  0  0  0  0  0  0
   15.0168   -1.9826    0.0000 C   0  0  0  0  0  0  0  0  0  0  0  0
   17.3331   -4.6326    0.0000 N   0  0  0  0  0  0  0  0  0  0  0  0
   18.4912   -3.9652    0.0000 S   0  0  0  0  0  0  0  0  0  0  0  0
   19.6298   -4.6326    0.0000 C   0  0  0  0  0  0  0  0  0  0  0  0
   17.5294   -3.0034    0.0000 O   0  0  0  0  0  0  0  0  0  0  0  0
   19.4138   -3.0034    0.0000 O   0  0  0  0  0  0  0  0  0  0  0  0
    0.2159   -1.6096    0.0000 O   0  0  0  0  0  0  0  0  0  0  0  0
    1.8256   -1.8059    0.0000 O   0  0  0  0  0  0  0  0  0  0  0  0
  1  2  1  0  0  0  0
  2  3  1  0  0  0  0
  2 28  2  0  0  0  0
  2 29  2  0  0  0  0
  3  4  1  0  0  0  0
  4  9  1  0  0  0  0
  4  5  2  0  0  0  0
  5  6  1  0  0  0  0
  6  7  2  0  0  0  0
  7  8  1  0  0  0  0
  7 10  1  0  0  0  0
  8  9  2  0  0  0  0
 10 11  1  0  0  0  0
 11 12  1  0  0  0  0
 12 13  1  0  0  0  0
 13 15  1  0  0  0  0
 13 14  1  0  0  0  0
 15 16  1  0  0  0  0
 16 17  1  0  0  0  0
 17 18  2  0  0  0  0
 17 22  1  0  0  0  0
 18 19  1  0  0  0  0
 19 20  2  0  0  0  0
 20 21  1  0  0  0  0
 20 23  1  0  0  0  0
 21 22  2  0  0  0  0
 23 24  1  0  0  0  0
 24 25  1  0  0  0  0
 24 26  2  0  0  0  0
 24 27  2  0  0  0  0
M  END
> <ID>
11676

> <Formula>
C19H27N3O5S2

> <FW>
441.5648

> <DSSTox_CID>
26433

> <DSSTox_RID>
81610

> <DSSTox_GSID>
46433

> <DSSTox_FileID_Sort>
6291

> <TS_ChemName>
Dofetilide

> <TS_ChemName_Synonyms>


> <TS_CASRN>
115256-11-6

> <CASRN_ChemName_Relationship>
primary

> <TS_Description>
single chemical compound

> <ChemNote>


> <STRUCTURE_Shown>
tested chemical

> <STRUCTURE_Formula>
C19H27N3O5S2

> <STRUCTURE_MW>
441.5648

> <STRUCTURE_ChemType>
defined organic

> <STRUCTURE_DefinedOrganicForm>
parent

> <STRUCTURE_IUPAC>
N-(4-{2-[methyl(2-{4-[(methylsulfonyl)amino]phenoxy}ethyl)amino]ethyl}phenyl)methanesulfonamide

> <STRUCTURE_SMILES>
CS(=O)(=O)Nc1ccc(cc1)CCN(C)CCOc2ccc(cc2)NS(C)(=O)=O

> <STRUCTURE_SMILES_Desalt>
CS(=O)(=O)Nc1ccc(cc1)CCN(C)CCOc2ccc(cc2)NS(C)(=O)=O

> <Substance_modify_yyyymmdd>
20110813

$$$$
