1152-61-0
ChemmineR-0915142007XD

 19 19  0  0  1  0  0  0  0  0  1 V2000
    9.2124   -2.0000    0.0000 C   0  0  0  0  0  0  0  0  0  0  0  0
    8.0518   -3.9896    0.0000 C   0  0  0  0  0  0  0  0  0  0  0  0
    9.2124   -0.6736    0.0000 C   0  0  0  0  0  0  0  0  0  0  0  0
    8.0518   -2.6632    0.0000 C   0  0  0  0  0  0  0  0  0  0  0  0
    9.2124   -4.6632    0.0000 O   0  0  0  0  0  0  0  0  0  0  0  0
   10.3627    0.0000    0.0000 O   0  0  0  0  0  0  0  0  0  0  0  0
    6.9016   -2.0000    0.0000 N   0  0  0  0  0  0  0  0  0  0  0  0
    6.9016   -4.6632    0.0000 O   0  0  0  0  0  0  0  0  0  0  0  0
    8.0518    0.0000    0.0000 O   0  0  0  0  0  0  0  0  0  0  0  0
    5.7513   -2.6632    0.0000 C   0  0  0  0  0  0  0  0  0  0  0  0
    5.7513   -3.9896    0.0000 O   0  0  0  0  0  0  0  0  0  0  0  0
    4.6010   -2.0000    0.0000 O   0  0  0  0  0  0  0  0  0  0  0  0
    3.4404   -2.6632    0.0000 C   0  0  0  0  0  0  0  0  0  0  0  0
    2.2902   -2.0000    0.0000 C   0  0  0  0  0  0  0  0  0  0  0  0
    1.1399   -2.6632    0.0000 C   0  0  0  0  0  0  0  0  0  0  0  0
    2.2902   -0.6736    0.0000 C   0  0  0  0  0  0  0  0  0  0  0  0
    0.0000   -2.0000    0.0000 C   0  0  0  0  0  0  0  0  0  0  0  0
    1.1399    0.0000    0.0000 C   0  0  0  0  0  0  0  0  0  0  0  0
    0.0000   -0.6736    0.0000 C   0  0  0  0  0  0  0  0  0  0  0  0
  1  3  1  0  0  0  0
  1  4  1  0  0  0  0
  2  4  1  0  0  0  0
  2  5  2  0  0  0  0
  2  8  1  0  0  0  0
  3  6  2  0  0  0  0
  3  9  1  0  0  0  0
  4  7  1  1  0  0  0
  7 10  1  0  0  0  0
 10 11  2  0  0  0  0
 10 12  1  0  0  0  0
 12 13  1  0  0  0  0
 13 14  1  0  0  0  0
 14 15  2  0  0  0  0
 14 16  1  0  0  0  0
 15 17  1  0  0  0  0
 16 18  2  0  0  0  0
 17 19  2  0  0  0  0
 18 19  1  0  0  0  0
M  END
> <ID>
5114

> <Formula>
C12H13NO6

> <FW>
267.2347

> <DSSTox_CID>
7368

> <DSSTox_RID>
78427

> <DSSTox_GSID>
27368

> <DSSTox_FileID_Sort>
3110

> <TS_ChemName>
N-[(Benzyloxy)carbonyl]-L-aspartic acid

> <TS_ChemName_Synonyms>


> <TS_CASRN>
1152-61-0

> <CASRN_ChemName_Relationship>
primary

> <TS_Description>
single chemical compound

> <ChemNote>
stereochem

> <STRUCTURE_Shown>
tested chemical

> <STRUCTURE_Formula>
C12H13NO6

> <STRUCTURE_MW>
267.2347

> <STRUCTURE_ChemType>
defined organic

> <STRUCTURE_DefinedOrganicForm>
parent

> <STRUCTURE_IUPAC>
N-[(benzyloxy)carbonyl]-L-aspartic acid

> <STRUCTURE_SMILES>
O=C(O)[C@H](CC(=O)O)NC(=O)OCc1ccccc1

> <STRUCTURE_SMILES_Desalt>
O=C(O)[C@H](CC(=O)O)NC(=O)OCc1ccccc1

> <Substance_modify_yyyymmdd>
20080429

$$$$
