115344-47-3
ChemmineR-0915142007XD

 21 22  0  0  0  0  0  0  0  0  1 V2000
    4.6132   -1.9898    0.0000 C   0  0  0  0  0  0  0  0  0  0  0  0
    3.4599   -2.6615    0.0000 N   0  0  0  0  0  0  0  0  0  0  0  0
    3.4599   -3.9922    0.0000 C   0  0  0  0  0  0  0  0  0  0  0  0
    2.3066   -4.6512    0.0000 N   0  0  0  0  0  0  0  0  0  0  0  0
    1.1533   -3.9922    0.0000 C   0  0  0  0  0  0  0  0  0  0  0  0
    0.0000   -3.3205    0.0000 N   0  0  0  0  0  0  0  0  0  0  0  0
    4.6132   -4.6512    0.0000 N   0  0  0  0  0  0  0  0  0  0  0  0
    5.7665   -3.9922    0.0000 C   0  0  0  0  0  0  0  0  0  0  0  0
    5.7665   -2.6615    0.0000 C   0  0  0  0  0  0  0  0  0  0  0  0
    6.9072   -1.9898    0.0000 C   0  0  0  0  0  0  0  0  0  0  0  0
    8.0605   -2.6615    0.0000 C   0  0  0  0  0  0  0  0  0  0  0  0
    8.0605   -3.9922    0.0000 C   0  0  0  0  0  0  0  0  0  0  0  0
    6.9072   -4.6512    0.0000 C   0  0  0  0  0  0  0  0  0  0  0  0
    9.2138   -1.9898    0.0000 C   0  0  0  0  0  0  0  0  0  0  0  0
    9.2138   -0.6590    0.0000 N   0  0  0  0  0  0  0  0  0  0  0  0
   10.3671    0.0000    0.0000 N   0  0  0  0  0  0  0  0  0  0  0  0
   11.5204   -0.6590    0.0000 C   0  0  0  0  0  0  0  0  0  0  0  0
   12.6737    0.0000    0.0000 O   0  0  0  0  0  0  0  0  0  0  0  0
   11.5204   -1.9898    0.0000 C   0  0  0  0  0  0  0  0  0  0  0  0
   10.3671   -2.6615    0.0000 C   0  0  0  0  0  0  0  0  0  0  0  0
   10.3671   -3.9922    0.0000 C   0  0  0  0  0  0  0  0  0  0  0  0
  1  2  1  0  0  0  0
  2  3  1  0  0  0  0
  3  4  1  0  0  0  0
  3  7  2  0  0  0  0
  4  5  1  0  0  0  0
  5  6  3  0  0  0  0
  7  8  1  0  0  0  0
  8  9  2  0  0  0  0
  8 13  1  0  0  0  0
  9 10  1  0  0  0  0
 10 11  2  0  0  0  0
 11 12  1  0  0  0  0
 11 14  1  0  0  0  0
 12 13  2  0  0  0  0
 14 15  2  0  0  0  0
 14 20  1  0  0  0  0
 15 16  1  0  0  0  0
 16 17  1  0  0  0  0
 17 18  2  0  0  0  0
 17 19  1  0  0  0  0
 19 20  1  0  0  0  0
 20 21  1  0  0  0  0
M  END
> <ID>
10816

> <Formula>
C14H16N6O

> <FW>
284.3164

> <DSSTox_CID>
25202

> <DSSTox_RID>
80746

> <DSSTox_GSID>
45202

> <DSSTox_FileID_Sort>
5427

> <TS_ChemName>
Siguazodan

> <TS_ChemName_Synonyms>


> <TS_CASRN>
115344-47-3

> <CASRN_ChemName_Relationship>
primary

> <TS_Description>
single chemical compound

> <ChemNote>


> <STRUCTURE_Shown>
tested chemical

> <STRUCTURE_Formula>
C14H16N6O

> <STRUCTURE_MW>
284.3164

> <STRUCTURE_ChemType>
defined organic

> <STRUCTURE_DefinedOrganicForm>
parent

> <STRUCTURE_IUPAC>
1-cyano-3-methyl-2-[4-(4-methyl-6-oxo-1,4,5,6-tetrahydropyridazin-3-yl)phenyl]guanidine

> <STRUCTURE_SMILES>
N#CN/C(NC)=N/c1ccc(cc1)C2=NNC(=O)CC2C

> <STRUCTURE_SMILES_Desalt>
N#CN/C(NC)=N/c1ccc(cc1)C2=NNC(=O)CC2C

> <Substance_modify_yyyymmdd>
20100107

$$$$
