1154-59-2
ChemmineR-0915142007XD

 20 21  0  0  0  0  0  0  0  0  1 V2000
    7.3182   -2.3262    0.0000 C    0  0  0  0  0  0  0  0  0  0  0  0
    5.9903   -2.3362    0.0000 C    0  0  0  0  0  0  0  0  0  0  0  0
    7.9871   -1.1781    0.0000 C    0  0  0  0  0  0  0  0  0  0  0  0
    9.3150   -1.1781    0.0000 C    0  0  0  0  0  0  0  0  0  0  0  0
    5.3114   -1.1881    0.0000 N    0  0  0  0  0  0  0  0  0  0  0  0
    9.9739   -2.3262    0.0000 C    0  0  0  0  0  0  0  0  0  0  0  0
    7.9771   -3.4844    0.0000 C    0  0  0  0  0  0  0  0  0  0  0  0
    1.9968   -2.3262    0.0000 C    0  0  0  0  0  0  0  0  0  0  0  0
    3.3146   -2.3262    0.0000 C    0  0  0  0  0  0  0  0  0  0  0  0
    3.9836   -1.1781    0.0000 C    0  0  0  0  0  0  0  0  0  0  0  0
    9.3150   -3.4844    0.0000 C    0  0  0  0  0  0  0  0  0  0  0  0
    5.3613   -3.5143    0.0000 O    0  0  0  0  0  0  0  0  0  0  0  0
    1.3279   -1.1781    0.0000 C    0  0  0  0  0  0  0  0  0  0  0  0
    1.9968   -0.0200    0.0000 C    0  0  0  0  0  0  0  0  0  0  0  0
    9.9839   -0.0300    0.0000 Cl   0  0  0  0  0  0  0  0  0  0  0  0
    7.3581    0.0000    0.0000 O    0  0  0  0  0  0  0  0  0  0  0  0
    1.3378   -3.4844    0.0000 Cl   0  0  0  0  0  0  0  0  0  0  0  0
    3.3246   -0.0200    0.0000 C    0  0  0  0  0  0  0  0  0  0  0  0
    0.0000   -1.1681    0.0000 Cl   0  0  0  0  0  0  0  0  0  0  0  0
    9.9739   -4.6325    0.0000 Cl   0  0  0  0  0  0  0  0  0  0  0  0
  1  2  1  0  0  0  0
  1  3  2  0  0  0  0
  1  7  1  0  0  0  0
  2  5  1  0  0  0  0
  2 12  2  0  0  0  0
  3  4  1  0  0  0  0
  3 16  1  0  0  0  0
  4 15  1  0  0  0  0
  4  6  2  0  0  0  0
  5 10  1  0  0  0  0
  6 11  1  0  0  0  0
  7 11  2  0  0  0  0
  8  9  2  0  0  0  0
  8 17  1  0  0  0  0
  8 13  1  0  0  0  0
  9 10  1  0  0  0  0
 10 18  2  0  0  0  0
 11 20  1  0  0  0  0
 13 14  2  0  0  0  0
 13 19  1  0  0  0  0
 14 18  1  0  0  0  0
M  END
> <ID>
7958

> <Formula>
C13H7Cl4NO2

> <FW>
351.0122

> <DSSTox_CID>
20767

> <DSSTox_RID>
79593

> <DSSTox_GSID>
40767

> <DSSTox_FileID_Sort>
4275

> <TS_ChemName>
3,5-Dichlorosalicyl-3,4-dichloroanilide

> <TS_ChemName_Synonyms>
3,5-Dichlorosalicyl-3,4-dichloroanilide (3,3',4',5-Tetrachlorosalicylanilide)

> <TS_CASRN>
1154-59-2

> <CASRN_ChemName_Relationship>
primary

> <TS_Description>
single chemical compound

> <ChemNote>


> <STRUCTURE_Shown>
tested chemical

> <STRUCTURE_Formula>
C13H7Cl4NO2

> <STRUCTURE_MW>
351.0122

> <STRUCTURE_ChemType>
defined organic

> <STRUCTURE_DefinedOrganicForm>
parent

> <STRUCTURE_IUPAC>
3,5-dichloro-N-(3,4-dichlorophenyl)-2-hydroxybenzamide

> <STRUCTURE_SMILES>
Clc2ccc(NC(=O)c1cc(Cl)cc(Cl)c1O)cc2Cl

> <STRUCTURE_SMILES_Desalt>
Clc2ccc(NC(=O)c1cc(Cl)cc(Cl)c1O)cc2Cl

> <Substance_modify_yyyymmdd>
20080429

$$$$
