115550-35-1
ChemmineR-0915142007XD

 26 29  0  0  0  0  0  0  0  0  1 V2000
    7.3169   -3.4609    0.0000 C   0  0  0  0  0  0  0  0  0  0  0  0
    5.9877   -3.4609    0.0000 C   0  0  0  0  0  0  0  0  0  0  0  0
    7.9875   -2.3112    0.0000 C   0  0  0  0  0  0  0  0  0  0  0  0
    7.9875   -4.6105    0.0000 N   0  0  0  0  0  0  0  0  0  0  0  0
    5.3290   -2.3112    0.0000 C   0  0  0  0  0  0  0  0  0  0  0  0
    5.3290   -4.6105    0.0000 O   0  0  0  0  0  0  0  0  0  0  0  0
    9.3168   -2.3112    0.0000 C   0  0  0  0  0  0  0  0  0  0  0  0
    7.3169   -1.1616    0.0000 C   0  0  0  0  0  0  0  0  0  0  0  0
    9.3168   -4.6105    0.0000 C   0  0  0  0  0  0  0  0  0  0  0  0
    7.3169   -5.7721    0.0000 N   0  0  0  0  0  0  0  0  0  0  0  0
    4.0237   -2.3112    0.0000 N   0  0  0  0  0  0  0  0  0  0  0  0
    5.9877   -1.1616    0.0000 C   0  0  0  0  0  0  0  0  0  0  0  0
    5.9877   -5.7721    0.0000 C   0  0  0  0  0  0  0  0  0  0  0  0
    9.9874   -3.4609    0.0000 C   0  0  0  0  0  0  0  0  0  0  0  0
    9.9874   -1.1616    0.0000 O   0  0  0  0  0  0  0  0  0  0  0  0
    7.9875   -6.9217    0.0000 C   0  0  0  0  0  0  0  0  0  0  0  0
    3.3291   -3.4609    0.0000 C   0  0  0  0  0  0  0  0  0  0  0  0
    3.3291   -1.1616    0.0000 C   0  0  0  0  0  0  0  0  0  0  0  0
    5.3290    0.0000    0.0000 F   0  0  0  0  0  0  0  0  0  0  0  0
   11.3167   -3.4609    0.0000 C   0  0  0  0  0  0  0  0  0  0  0  0
    1.9999   -3.4609    0.0000 C   0  0  0  0  0  0  0  0  0  0  0  0
    1.9999   -1.1616    0.0000 C   0  0  0  0  0  0  0  0  0  0  0  0
   11.9753   -2.3112    0.0000 O   0  0  0  0  0  0  0  0  0  0  0  0
   11.9753   -4.6105    0.0000 O   0  0  0  0  0  0  0  0  0  0  0  0
    1.3293   -2.3112    0.0000 N   0  0  0  0  0  0  0  0  0  0  0  0
    0.0000   -2.3112    0.0000 C   0  0  0  0  0  0  0  0  0  0  0  0
  1  2  1  0  0  0  0
  1  3  2  0  0  0  0
  1  4  1  0  0  0  0
  2  5  2  0  0  0  0
  2  6  1  0  0  0  0
  3  7  1  0  0  0  0
  3  8  1  0  0  0  0
  4  9  1  0  0  0  0
  4 10  1  0  0  0  0
  5 11  1  0  0  0  0
  5 12  1  0  0  0  0
  6 13  1  0  0  0  0
  7 14  1  0  0  0  0
  7 15  2  0  0  0  0
  8 12  2  0  0  0  0
  9 14  2  0  0  0  0
 10 16  1  0  0  0  0
 10 13  1  0  0  0  0
 11 17  1  0  0  0  0
 11 18  1  0  0  0  0
 12 19  1  0  0  0  0
 14 20  1  0  0  0  0
 17 21  1  0  0  0  0
 18 22  1  0  0  0  0
 20 23  1  0  0  0  0
 20 24  2  0  0  0  0
 21 25  1  0  0  0  0
 22 25  1  0  0  0  0
 25 26  1  0  0  0  0
M  END
> <ID>
11820

> <Formula>
C17H19FN4O4

> <FW>
362.3556

> <DSSTox_CID>
26600

> <DSSTox_RID>
81755

> <DSSTox_GSID>
46600

> <DSSTox_FileID_Sort>
6436

> <TS_ChemName>
Marbofloxacin

> <TS_ChemName_Synonyms>


> <TS_CASRN>
115550-35-1

> <CASRN_ChemName_Relationship>
primary

> <TS_Description>
single chemical compound

> <ChemNote>


> <STRUCTURE_Shown>
tested chemical

> <STRUCTURE_Formula>
C17H19FN4O4

> <STRUCTURE_MW>
362.3556

> <STRUCTURE_ChemType>
defined organic

> <STRUCTURE_DefinedOrganicForm>
parent

> <STRUCTURE_IUPAC>
9-fluoro-3-methyl-10-(4-methylpiperazin-1-yl)-7-oxo-2,3-dihydro-7H-[1,3,4]oxadiazino[6,5,4-ij]quinoline-6-carboxylic acid

> <STRUCTURE_SMILES>
CN1CCN(CC1)c4c(F)cc2c3N(C=C(C2=O)C(=O)O)N(C)COc34

> <STRUCTURE_SMILES_Desalt>
CN1CCN(CC1)c4c(F)cc2c3N(C=C(C2=O)C(=O)O)N(C)COc34

> <Substance_modify_yyyymmdd>
20110809

$$$$
