1155-74-4
ChemmineR-0915142007XD

 21 20  0  0  0  0  0  0  0  0  2 V2000
    2.2533   -1.4775    0.0000 N    0  3  0  0  0  0  0  0  0  0  0  0
    2.2533   -2.7704    0.0000 C    0  0  0  0  0  0  0  0  0  0  0  0
    1.1266   -0.8311    0.0000 C    0  0  0  0  0  0  0  0  0  0  0  0
    0.0000   -1.4591    0.0000 C    0  0  0  0  0  0  0  0  0  0  0  0
    1.1266   -3.4168    0.0000 C    0  0  0  0  0  0  0  0  0  0  0  0
    0.0000   -2.7704    0.0000 C    0  0  0  0  0  0  0  0  0  0  0  0
    3.3799   -0.8311    0.0000 C    0  0  0  0  0  0  0  0  0  0  0  0
    4.5804   -1.5884    0.0000 C    0  0  0  0  0  0  0  0  0  0  0  0
    5.6701   -0.9419    0.0000 C    0  0  0  0  0  0  0  0  0  0  0  0
    6.8890   -1.5884    0.0000 C    0  0  0  0  0  0  0  0  0  0  0  0
    8.0157   -0.9419    0.0000 C    0  0  0  0  0  0  0  0  0  0  0  0
    9.1977   -1.6068    0.0000 C    0  0  0  0  0  0  0  0  0  0  0  0
   10.3059   -0.9419    0.0000 C    0  0  0  0  0  0  0  0  0  0  0  0
   11.5248   -1.6068    0.0000 C    0  0  0  0  0  0  0  0  0  0  0  0
   12.7069   -0.9604    0.0000 C    0  0  0  0  0  0  0  0  0  0  0  0
   13.8335   -1.7176    0.0000 C    0  0  0  0  0  0  0  0  0  0  0  0
   14.9417   -0.9789    0.0000 C    0  0  0  0  0  0  0  0  0  0  0  0
   16.1606   -1.7176    0.0000 C    0  0  0  0  0  0  0  0  0  0  0  0
   17.2688   -1.0712    0.0000 C    0  0  0  0  0  0  0  0  0  0  0  0
   18.4693   -1.7176    0.0000 C    0  0  0  0  0  0  0  0  0  0  0  0
    2.0870    0.0000    0.0000 Br   0  5  0  0  0  0  0  0  0  0  0  0
  1  2  2  0  0  0  0
  1  3  1  0  0  0  0
  1  7  1  0  0  0  0
  2  5  1  0  0  0  0
  3  4  2  0  0  0  0
  4  6  1  0  0  0  0
  5  6  2  0  0  0  0
  7  8  1  0  0  0  0
  8  9  1  0  0  0  0
  9 10  1  0  0  0  0
 10 11  1  0  0  0  0
 11 12  1  0  0  0  0
 12 13  1  0  0  0  0
 13 14  1  0  0  0  0
 14 15  1  0  0  0  0
 15 16  1  0  0  0  0
 16 17  1  0  0  0  0
 17 18  1  0  0  0  0
 18 19  1  0  0  0  0
 19 20  1  0  0  0  0
M  END
> <ID>
9368

> <Formula>
C19H34BrN

> <FW>
356.3840 (276.4794+79.9045)

> <DSSTox_CID>
22459

> <DSSTox_RID>
80030

> <DSSTox_GSID>
42459

> <DSSTox_FileID_Sort>
4712

> <TS_ChemName>
Tetradecylpyridinium bromide

> <TS_ChemName_Synonyms>


> <TS_CASRN>
1155-74-4

> <CASRN_ChemName_Relationship>
primary

> <TS_Description>
single chemical compound

> <ChemNote>
ammonium

> <STRUCTURE_Shown>
tested chemical

> <STRUCTURE_Formula>
C19H34BrN

> <STRUCTURE_MW>
356.384

> <STRUCTURE_ChemType>
defined organic

> <STRUCTURE_DefinedOrganicForm>
salt

> <STRUCTURE_IUPAC>
1-tetradecylpyridinium bromide

> <STRUCTURE_SMILES>
[Br-].CCCCCCCCCCCCCC[n+]1ccccc1

> <STRUCTURE_SMILES_Desalt>
CCCCCCCCCCCCCC[n+]1ccccc1

> <Substance_modify_yyyymmdd>
20080825

$$$$
