115626-53-4
ChemmineR-0915142007XD

 25 27  0  0  1  0  0  0  0  0  1 V2000
    3.7800   -4.2976    0.0000 O   0  0  0  0  0  0  0  0  0  0  0  0
    4.4824   -5.4713    0.0000 C   0  0  0  0  0  0  0  0  0  0  0  0
    5.8780   -5.4713    0.0000 C   0  0  0  0  0  0  0  0  0  0  0  0
    6.4325   -6.6820    0.0000 C   0  0  0  0  0  0  0  0  0  0  0  0
    6.8761   -4.5286    0.0000 C   0  0  0  0  0  0  0  0  0  0  0  0
    7.7818   -6.5526    0.0000 N   0  0  0  0  0  0  0  0  0  0  0  0
    8.0591   -5.2033    0.0000 C   0  0  0  0  0  0  0  0  0  0  0  0
    6.8761   -3.1515    0.0000 C   0  0  0  0  0  0  0  0  0  0  0  0
    8.0591   -2.4491    0.0000 C   0  0  0  0  0  0  0  0  0  0  0  0
    9.2421   -4.5286    0.0000 C   0  0  0  0  0  0  0  0  0  0  0  0
    9.2421   -3.1515    0.0000 C   0  0  0  0  0  0  0  0  0  0  0  0
    3.8077   -6.6358    0.0000 O   0  0  0  0  0  0  0  0  0  0  0  0
    2.0148   -2.0887    0.0000 C   0  0  0  0  0  0  0  0  0  0  0  0
    3.7800   -3.4196    0.0000 C   0  0  0  0  0  0  0  0  0  0  0  0
    2.9205   -2.7079    0.0000 C   0  0  0  0  0  0  0  0  0  0  0  0
    1.3309   -2.7079    0.0000 C   0  0  0  0  0  0  0  0  0  0  0  0
    1.0813   -1.3678    0.0000 N   0  0  0  0  0  0  0  0  0  0  0  0
    3.5490   -2.0702    0.0000 C   0  0  0  0  0  0  0  0  0  0  0  0
    0.4621   -3.8724    0.0000 C   0  0  0  0  0  0  0  0  0  0  0  0
    1.4972   -3.2717    0.0000 C   0  0  0  0  0  0  0  0  0  0  0  0
    0.0000   -2.3937    0.0000 H   0  0  0  0  0  0  0  0  0  0  0  0
    2.4491   -0.8041    0.0000 H   0  0  0  0  0  0  0  0  0  0  0  0
    1.0813    0.0000    0.0000 C   0  0  0  0  0  0  0  0  0  0  0  0
    5.8317   -0.9704    0.0000 I   0  0  0  0  0  0  0  0  0  0  0  0
    4.7597   -0.9704    0.0000 C   0  0  0  0  0  0  0  0  0  0  0  0
  1  2  1  0  0  0  0
  1 14  1  6  0  0  0
  2  3  1  0  0  0  0
  2 12  2  0  0  0  0
  3  4  2  0  0  0  0
  3  5  1  0  0  0  0
  4  6  1  0  0  0  0
  5  8  1  0  0  0  0
  5  7  2  0  0  0  0
  6  7  1  0  0  0  0
  7 10  1  0  0  0  0
  8  9  2  0  0  0  0
  9 11  1  0  0  0  0
 10 11  2  0  0  0  0
 13 17  1  0  0  0  0
 13 18  1  0  0  0  0
 13 20  1  0  0  0  0
 13 22  1  6  0  0  0
 14 15  1  0  0  0  0
 14 18  1  0  0  0  0
 15 16  1  0  0  0  0
 16 17  1  0  0  0  0
 16 19  1  0  0  0  0
 16 21  1  1  0  0  0
 17 23  1  0  0  0  0
 19 20  1  0  0  0  0
 24 25  1  0  0  0  0
M  END
> <ID>
11219

> <Formula>
C18H23IN2O2

> <FW>
426.2919 (284.3529+141.9390)

> <DSSTox_CID>
25814

> <DSSTox_RID>
81151

> <DSSTox_GSID>
45814

> <DSSTox_FileID_Sort>
5832

> <TS_ChemName>
Tropisetron methyliodide

> <TS_ChemName_Synonyms>


> <TS_CASRN>
115626-53-4

> <CASRN_ChemName_Relationship>
primary

> <TS_Description>
single chemical compound

> <ChemNote>
stereochem; parent [89565-68-4]

> <STRUCTURE_Shown>
tested chemical

> <STRUCTURE_Formula>
C18H23IN2O2

> <STRUCTURE_MW>
426.2919

> <STRUCTURE_ChemType>
defined organic

> <STRUCTURE_DefinedOrganicForm>
complex

> <STRUCTURE_IUPAC>
(3-endo)-8-methyl-8-azabicyclo[3.2.1]oct-3-yl 1H-indole-3-carboxylate - iodomethane (1:1)

> <STRUCTURE_SMILES>
CN4[C@H]1CC[C@@H]4CC(C1)OC(=O)c3cnc2ccccc23.CI

> <STRUCTURE_SMILES_Desalt>
CN4[C@H]1CC[C@@H]4CC(C1)OC(=O)c3cnc2ccccc23

> <Substance_modify_yyyymmdd>
20110909

$$$$
