115956-13-3
ChemmineR-0915142007XD

 30 33  0  0  1  0  0  0  0  0  1 V2000
    9.1234   -2.1693    0.0000 C   0  0  0  0  0  0  0  0  0  0  0  0
    9.1234   -3.4337    0.0000 N   0  0  0  0  0  0  0  0  0  0  0  0
    8.0077   -1.5247    0.0000 C   0  0  0  0  0  0  0  0  0  0  0  0
    8.0077   -4.0535    0.0000 C   0  0  0  0  0  0  0  0  0  0  0  0
    6.9169   -2.1693    0.0000 C   0  0  0  0  0  0  0  0  0  0  0  0
    6.9169   -3.4337    0.0000 C   0  0  0  0  0  0  0  0  0  0  0  0
   10.2018   -1.5247    0.0000 C   0  0  0  0  0  0  0  0  0  0  0  0
   11.3174   -2.1693    0.0000 C   0  0  0  0  0  0  0  0  0  0  0  0
   10.2018   -4.0535    0.0000 C   0  0  0  0  0  0  0  0  0  0  0  0
   11.3174   -3.4337    0.0000 C   0  0  0  0  0  0  0  0  0  0  0  0
    9.1234   -0.8925    0.0000 H   0  0  0  0  0  0  0  0  0  0  0  0
    8.0077   -2.7891    0.0000 C   0  0  0  0  0  0  0  0  0  0  0  0
   12.3959   -4.0535    0.0000 O   0  0  0  0  0  0  0  0  0  0  0  0
    5.8137   -1.5247    0.0000 O   0  0  0  0  0  0  0  0  0  0  0  0
    4.7228   -2.1693    0.0000 C   0  0  0  0  0  0  0  0  0  0  0  0
    3.6196   -1.5247    0.0000 C   0  0  0  0  0  0  0  0  0  0  0  0
    2.4792   -2.0453    0.0000 C   0  0  0  0  0  0  0  0  0  0  0  0
    3.5080   -0.2603    0.0000 C   0  0  0  0  0  0  0  0  0  0  0  0
    1.6363   -1.0908    0.0000 C   0  0  0  0  0  0  0  0  0  0  0  0
    2.2684    0.0000    0.0000 N   0  0  0  0  0  0  0  0  0  0  0  0
    2.0949   -3.2477    0.0000 C   0  0  0  0  0  0  0  0  0  0  0  0
    0.8553   -3.5080    0.0000 C   0  0  0  0  0  0  0  0  0  0  0  0
    0.3967   -1.3759    0.0000 C   0  0  0  0  0  0  0  0  0  0  0  0
    0.0000   -2.5536    0.0000 C   0  0  0  0  0  0  0  0  0  0  0  0
    4.7228   -3.4337    0.0000 O   0  0  0  0  0  0  0  0  0  0  0  0
    3.5328   -6.1731    0.0000 C   0  0  0  0  0  0  0  0  0  0  0  0
    3.5328   -4.9088    0.0000 S   0  0  0  0  0  0  0  0  0  0  0  0
    2.2684   -4.9088    0.0000 O   0  0  0  0  0  0  0  0  0  0  0  0
    3.5328   -3.6444    0.0000 O   0  0  0  0  0  0  0  0  0  0  0  0
    4.7972   -4.9088    0.0000 O   0  0  0  0  0  0  0  0  0  0  0  0
  1  3  1  0  0  0  0
  1  7  1  0  0  0  0
  1  2  1  0  0  0  0
  1 11  1  1  0  0  0
  2  4  1  0  0  0  0
  2  9  1  0  0  0  0
  3  5  1  0  0  0  0
  4  6  1  0  0  0  0
  4 12  1  6  0  0  0
  5  6  1  0  0  0  0
  5 14  1  6  0  0  0
  7  8  1  0  0  0  0
  8 10  1  0  0  0  0
  8 12  1  6  0  0  0
  9 10  1  0  0  0  0
 10 13  2  0  0  0  0
 14 15  1  0  0  0  0
 15 16  1  0  0  0  0
 15 25  2  0  0  0  0
 16 17  1  0  0  0  0
 16 18  2  0  0  0  0
 17 21  1  0  0  0  0
 17 19  2  0  0  0  0
 18 20  1  0  0  0  0
 19 20  1  0  0  0  0
 19 23  1  0  0  0  0
 21 22  2  0  0  0  0
 22 24  1  0  0  0  0
 23 24  2  0  0  0  0
 26 27  1  0  0  0  0
 27 28  1  0  0  0  0
 27 29  2  0  0  0  0
 27 30  2  0  0  0  0
M  END
> <ID>
12002

> <Formula>
C20H24N2O6S

> <FW>
420.4794 (324.3737+96.1057)

> <DSSTox_CID>
26827

> <DSSTox_RID>
81939

> <DSSTox_GSID>
46827

> <DSSTox_FileID_Sort>
6620

> <TS_ChemName>
Dolasetron mesylate

> <TS_ChemName_Synonyms>


> <TS_CASRN>
115956-13-3

> <CASRN_ChemName_Relationship>
primary

> <TS_Description>
single chemical compound

> <ChemNote>
stereochem; parent [115956-12-2]

> <STRUCTURE_Shown>
tested chemical

> <STRUCTURE_Formula>
C20H24N2O6S

> <STRUCTURE_MW>
420.4794

> <STRUCTURE_ChemType>
defined organic

> <STRUCTURE_DefinedOrganicForm>
complex

> <STRUCTURE_IUPAC>
(2r,6R,8r,9aS)-3-oxooctahydro-2H-2,6-methanoquinolizin-8-yl 1H-indole-3-carboxylate methanesulfonate (1:1)

> <STRUCTURE_SMILES>
CS(=O)(=O)O.O=C(O[C@H]1C[C@H]3C[C@H]2C[C@@H](C1)N3CC2=O)c5cnc4ccccc45

> <STRUCTURE_SMILES_Desalt>
O=C(O[C@H]1C[C@H]3C[C@H]2C[C@@H](C1)N3CC2=O)c5cnc4ccccc45

> <Substance_modify_yyyymmdd>
20120220

$$$$
