115964-29-9
ChemmineR-0915142007XD

 40 43  0  0  0  0  0  0  0  0  1 V2000
    0.0000   -5.0362    0.0000 N   0  0  0  0  0  0  0  0  0  0  0  0
    1.3318   -4.8985    0.0000 C   0  0  0  0  0  0  0  0  0  0  0  0
    1.9900   -3.7504    0.0000 C   0  0  0  0  0  0  0  0  0  0  0  0
    3.2912   -4.0259    0.0000 C   0  0  0  0  0  0  0  0  0  0  0  0
    3.4442   -5.3577    0.0000 N   0  0  0  0  0  0  0  0  0  0  0  0
    2.2349   -5.8935    0.0000 C   0  0  0  0  0  0  0  0  0  0  0  0
    4.5923   -6.0312    0.0000 C   0  0  0  0  0  0  0  0  0  0  0  0
    5.7557   -5.3577    0.0000 N   0  0  0  0  0  0  0  0  0  0  0  0
    6.9038   -6.0312    0.0000 C   0  0  0  0  0  0  0  0  0  0  0  0
    6.9038   -7.3477    0.0000 C   0  0  0  0  0  0  0  0  0  0  0  0
    5.7557   -8.0212    0.0000 C   0  0  0  0  0  0  0  0  0  0  0  0
    4.5923   -7.3477    0.0000 C   0  0  0  0  0  0  0  0  0  0  0  0
    3.4442   -8.0212    0.0000 F   0  0  0  0  0  0  0  0  0  0  0  0
    8.0672   -8.0212    0.0000 C   0  0  0  0  0  0  0  0  0  0  0  0
    8.0672   -9.3530    0.0000 O   0  0  0  0  0  0  0  0  0  0  0  0
    9.2152   -7.3477    0.0000 C   0  0  0  0  0  0  0  0  0  0  0  0
    9.2152   -6.0312    0.0000 C   0  0  0  0  0  0  0  0  0  0  0  0
    8.0672   -5.3577    0.0000 N   0  0  0  0  0  0  0  0  0  0  0  0
    8.0672   -4.0259    0.0000 C   0  0  0  0  0  0  0  0  0  0  0  0
    6.9038   -3.3524    0.0000 C   0  0  0  0  0  0  0  0  0  0  0  0
    6.9038   -2.0053    0.0000 C   0  0  0  0  0  0  0  0  0  0  0  0
    8.0672   -1.3471    0.0000 C   0  0  0  0  0  0  0  0  0  0  0  0
    8.0672    0.0000    0.0000 F   0  0  0  0  0  0  0  0  0  0  0  0
    9.2152   -2.0053    0.0000 C   0  0  0  0  0  0  0  0  0  0  0  0
    9.2152   -3.3524    0.0000 C   0  0  0  0  0  0  0  0  0  0  0  0
   10.3786   -4.0259    0.0000 F   0  0  0  0  0  0  0  0  0  0  0  0
   10.3786   -8.0212    0.0000 C   0  0  0  0  0  0  0  0  0  0  0  0
   11.5267   -7.3477    0.0000 O   0  0  0  0  0  0  0  0  0  0  0  0
   10.3786   -9.3530    0.0000 O   0  0  0  0  0  0  0  0  0  0  0  0
   13.3942   -2.4339    0.0000 C   0  0  0  0  0  0  0  0  0  0  0  0
   14.0984   -3.5514    0.0000 C   0  0  0  0  0  0  0  0  0  0  0  0
   13.3942   -4.6995    0.0000 C   0  0  0  0  0  0  0  0  0  0  0  0
   12.1237   -4.6995    0.0000 C   0  0  0  0  0  0  0  0  0  0  0  0
   11.4196   -3.5514    0.0000 C   0  0  0  0  0  0  0  0  0  0  0  0
   12.1237   -2.4339    0.0000 C   0  0  0  0  0  0  0  0  0  0  0  0
   14.0372   -1.2858    0.0000 S   0  0  0  0  0  0  0  0  0  0  0  0
   15.3077   -1.9900    0.0000 O   0  0  0  0  0  0  0  0  0  0  0  0
   14.6648   -0.1684    0.0000 O   0  0  0  0  0  0  0  0  0  0  0  0
   12.9503   -0.6429    0.0000 O   0  0  0  0  0  0  0  0  0  0  0  0
   11.4655   -5.8169    0.0000 C   0  0  0  0  0  0  0  0  0  0  0  0
  1  2  1  0  0  0  0
  2  3  1  0  0  0  0
  2  6  1  0  0  0  0
  3  4  1  0  0  0  0
  4  5  1  0  0  0  0
  5  6  1  0  0  0  0
  5  7  1  0  0  0  0
  7  8  2  0  0  0  0
  7 12  1  0  0  0  0
  8  9  1  0  0  0  0
  9 10  2  0  0  0  0
  9 18  1  0  0  0  0
 10 11  1  0  0  0  0
 10 14  1  0  0  0  0
 11 12  2  0  0  0  0
 12 13  1  0  0  0  0
 14 15  2  0  0  0  0
 14 16  1  0  0  0  0
 16 17  2  0  0  0  0
 16 27  1  0  0  0  0
 17 18  1  0  0  0  0
 18 19  1  0  0  0  0
 19 20  2  0  0  0  0
 19 25  1  0  0  0  0
 20 21  1  0  0  0  0
 21 22  2  0  0  0  0
 22 23  1  0  0  0  0
 22 24  1  0  0  0  0
 24 25  2  0  0  0  0
 25 26  1  0  0  0  0
 27 28  1  0  0  0  0
 27 29  2  0  0  0  0
 30 31  2  0  0  0  0
 30 35  1  0  0  0  0
 30 36  1  0  0  0  0
 31 32  1  0  0  0  0
 32 33  2  0  0  0  0
 33 34  1  0  0  0  0
 33 40  1  0  0  0  0
 34 35  2  0  0  0  0
 36 37  2  0  0  0  0
 36 38  1  0  0  0  0
 36 39  2  0  0  0  0
M  END
> <ID>
12919

> <Formula>
C26H23F3N4O6S

> <FW>
576.5442 (404.3426+172.2016)

> <DSSTox_CID>
27820

> <DSSTox_RID>
82583

> <DSSTox_GSID>
47842

> <DSSTox_FileID_Sort>
7260

> <TS_ChemName>
Tosufloxacin toluenesulfonic acid

> <TS_ChemName_Synonyms>
Tosufloxacin tosylate

> <TS_CASRN>
115964-29-9

> <CASRN_ChemName_Relationship>
primary

> <TS_Description>
single chemical compound

> <ChemNote>


> <STRUCTURE_Shown>
tested chemical

> <STRUCTURE_Formula>
C26H23F3N4O6S

> <STRUCTURE_MW>
576.5442

> <STRUCTURE_ChemType>
defined organic

> <STRUCTURE_DefinedOrganicForm>
complex

> <STRUCTURE_IUPAC>
7-(3-aminopyrrolidin-1-yl)-1-(2,4-difluorophenyl)-6-fluoro-4-oxo-1,4-dihydro-1,8-naphthyridine-3-carboxylic acid 4-methylbenzenesulfonate (1:1)

> <STRUCTURE_SMILES>
O=S(=O)(O)c1ccc(C)cc1.O=C(O)C2=CN(c1nc(c(F)cc1C2=O)N3CCC(N)C3)c4ccc(F)cc4F

> <STRUCTURE_SMILES_Desalt>
O=C(O)C2=CN(c1nc(c(F)cc1C2=O)N3CCC(N)C3)c4ccc(F)cc4F

> <Substance_modify_yyyymmdd>
20110805

$$$$
