116-52-9
ChemmineR-0915142007XD

 16 15  0  0  0  0  0  0  0  0  1 V2000
    1.1567   -2.0105    0.0000 C    0  0  0  0  0  0  0  0  0  0  0  0
    2.2951   -1.3311    0.0000 C    0  0  0  0  0  0  0  0  0  0  0  0
    0.4774   -0.8538    0.0000 Cl   0  0  0  0  0  0  0  0  0  0  0  0
    1.7993   -3.1488    0.0000 Cl   0  0  0  0  0  0  0  0  0  0  0  0
    0.0000   -2.6715    0.0000 Cl   0  0  0  0  0  0  0  0  0  0  0  0
    3.4518   -2.0105    0.0000 N    0  0  0  0  0  0  0  0  0  0  0  0
    2.2951    0.0000    0.0000 O    0  0  0  0  0  0  0  0  0  0  0  0
    4.5718   -1.3311    0.0000 C    0  0  0  0  0  0  0  0  0  0  0  0
    5.7285   -2.0105    0.0000 N    0  0  0  0  0  0  0  0  0  0  0  0
    4.5718    0.0000    0.0000 O    0  0  0  0  0  0  0  0  0  0  0  0
    6.8669   -1.3311    0.0000 C    0  0  0  0  0  0  0  0  0  0  0  0
    8.0236   -2.0105    0.0000 C    0  0  0  0  0  0  0  0  0  0  0  0
    6.8669    0.0000    0.0000 O    0  0  0  0  0  0  0  0  0  0  0  0
    8.7029   -0.8538    0.0000 Cl   0  0  0  0  0  0  0  0  0  0  0  0
    7.3626   -3.1488    0.0000 Cl   0  0  0  0  0  0  0  0  0  0  0  0
    9.1803   -2.6715    0.0000 Cl   0  0  0  0  0  0  0  0  0  0  0  0
  1  2  1  0  0  0  0
  1  3  1  0  0  0  0
  1  4  1  0  0  0  0
  1  5  1  0  0  0  0
  2  6  1  0  0  0  0
  2  7  1  0  0  0  0
  6  8  1  0  0  0  0
  8  9  1  0  0  0  0
  8 10  2  0  0  0  0
  9 11  1  0  0  0  0
 11 12  1  0  0  0  0
 11 13  1  0  0  0  0
 12 14  1  0  0  0  0
 12 15  1  0  0  0  0
 12 16  1  0  0  0  0
M  END
> <ID>
8801

> <Formula>
C5H6Cl6N2O3

> <FW>
354.8307

> <DSSTox_CID>
21852

> <DSSTox_RID>
79859

> <DSSTox_GSID>
41852

> <DSSTox_FileID_Sort>
4541

> <TS_ChemName>
Dichloralurea

> <TS_ChemName_Synonyms>


> <TS_CASRN>
116-52-9

> <CASRN_ChemName_Relationship>
primary

> <TS_Description>
single chemical compound

> <ChemNote>


> <STRUCTURE_Shown>
tested chemical

> <STRUCTURE_Formula>
C5H6Cl6N2O3

> <STRUCTURE_MW>
354.8307

> <STRUCTURE_ChemType>
defined organic

> <STRUCTURE_DefinedOrganicForm>
parent

> <STRUCTURE_IUPAC>
1,3-bis(2,2,2-trichloro-1-hydroxyethyl)urea

> <STRUCTURE_SMILES>
ClC(Cl)(Cl)C(O)NC(=O)NC(O)C(Cl)(Cl)Cl

> <STRUCTURE_SMILES_Desalt>
ClC(Cl)(Cl)C(O)NC(=O)NC(O)C(Cl)(Cl)Cl

> <Substance_modify_yyyymmdd>
20080825

$$$$
