116-16-5
ChemmineR-0915142007XD

 10  9  0  0  0  0  0  0  0  0  1 V2000
    0.0000   -2.3045    0.0000 O    0  0  0  0  0  0  0  0  0  0  0  0
    1.3320   -2.3045    0.0000 C    0  0  0  0  0  0  0  0  0  0  0  0
    1.9957   -1.1523    0.0000 C    0  0  0  0  0  0  0  0  0  0  0  0
    3.1480   -1.8160    0.0000 Cl   0  0  0  0  0  0  0  0  0  0  0  0
    0.8435   -0.4886    0.0000 Cl   0  0  0  0  0  0  0  0  0  0  0  0
    2.6594    0.0000    0.0000 Cl   0  0  0  0  0  0  0  0  0  0  0  0
    1.9957   -3.4568    0.0000 C    0  0  0  0  0  0  0  0  0  0  0  0
    3.1480   -2.7931    0.0000 Cl   0  0  0  0  0  0  0  0  0  0  0  0
    2.6594   -4.6091    0.0000 Cl   0  0  0  0  0  0  0  0  0  0  0  0
    0.8435   -4.1205    0.0000 Cl   0  0  0  0  0  0  0  0  0  0  0  0
  1  2  2  0  0  0  0
  2  3  1  0  0  0  0
  2  7  1  0  0  0  0
  3  4  1  0  0  0  0
  3  5  1  0  0  0  0
  3  6  1  0  0  0  0
  7  8  1  0  0  0  0
  7  9  1  0  0  0  0
  7 10  1  0  0  0  0
M  END
> <ID>
1538

> <Formula>
C3Cl6O

> <FW>
264.7495

> <DSSTox_CID>
1601

> <DSSTox_RID>
76228

> <DSSTox_GSID>
21601

> <DSSTox_FileID_Sort>
912

> <TS_ChemName>
Hexachloroacetone

> <TS_ChemName_Synonyms>
Hexachloroacetone (Hexachloropropanone)

> <TS_CASRN>
116-16-5

> <CASRN_ChemName_Relationship>
primary

> <TS_Description>
single chemical compound

> <ChemNote>


> <STRUCTURE_Shown>
tested chemical

> <STRUCTURE_Formula>
C3Cl6O

> <STRUCTURE_MW>
264.7495

> <STRUCTURE_ChemType>
defined organic

> <STRUCTURE_DefinedOrganicForm>
parent

> <STRUCTURE_IUPAC>
1,1,1,3,3,3-hexachloropropan-2-one

> <STRUCTURE_SMILES>
ClC(Cl)(Cl)C(=O)C(Cl)(Cl)Cl

> <STRUCTURE_SMILES_Desalt>
ClC(Cl)(Cl)C(=O)C(Cl)(Cl)Cl

> <Substance_modify_yyyymmdd>
20080429

$$$$
