116-43-8
ChemmineR-0915142007XD

 23 24  0  0  0  0  0  0  0  0  1 V2000
    1.1820    0.0000    0.0000 O   0  0  0  0  0  0  0  0  0  0  0  0
    1.1676   -1.3550    0.0000 C   0  0  0  0  0  0  0  0  0  0  0  0
    0.0000   -1.9748    0.0000 O   0  0  0  0  0  0  0  0  0  0  0  0
    2.3063   -2.0181    0.0000 C   0  0  0  0  0  0  0  0  0  0  0  0
    3.4595   -1.3838    0.0000 C   0  0  0  0  0  0  0  0  0  0  0  0
    4.5983   -2.0757    0.0000 C   0  0  0  0  0  0  0  0  0  0  0  0
    4.5694   -3.4019    0.0000 O   0  0  0  0  0  0  0  0  0  0  0  0
    5.7659   -1.4271    0.0000 N   0  0  0  0  0  0  0  0  0  0  0  0
    6.9046   -2.1045    0.0000 C   0  0  0  0  0  0  0  0  0  0  0  0
    8.0722   -1.4271    0.0000 C   0  0  0  0  0  0  0  0  0  0  0  0
    9.2254   -2.1045    0.0000 C   0  0  0  0  0  0  0  0  0  0  0  0
    9.2254   -3.4307    0.0000 C   0  0  0  0  0  0  0  0  0  0  0  0
    8.0722   -4.0938    0.0000 C   0  0  0  0  0  0  0  0  0  0  0  0
    6.9046   -3.4307    0.0000 C   0  0  0  0  0  0  0  0  0  0  0  0
   10.3786   -4.0938    0.0000 S   0  0  0  0  0  0  0  0  0  0  0  0
   11.5317   -4.7568    0.0000 O   0  0  0  0  0  0  0  0  0  0  0  0
    9.7155   -5.2469    0.0000 O   0  0  0  0  0  0  0  0  0  0  0  0
   11.0272   -2.9406    0.0000 N   0  0  0  0  0  0  0  0  0  0  0  0
   12.3822   -2.9406    0.0000 C   0  0  0  0  0  0  0  0  0  0  0  0
   13.1606   -1.8595    0.0000 N   0  0  0  0  0  0  0  0  0  0  0  0
   14.4147   -2.2775    0.0000 C   0  0  0  0  0  0  0  0  0  0  0  0
   14.4147   -3.5893    0.0000 C   0  0  0  0  0  0  0  0  0  0  0  0
   13.1606   -4.0073    0.0000 S   0  0  0  0  0  0  0  0  0  0  0  0
  1  2  1  0  0  0  0
  2  3  2  0  0  0  0
  2  4  1  0  0  0  0
  4  5  1  0  0  0  0
  5  6  1  0  0  0  0
  6  7  2  0  0  0  0
  6  8  1  0  0  0  0
  8  9  1  0  0  0  0
  9 10  2  0  0  0  0
  9 14  1  0  0  0  0
 10 11  1  0  0  0  0
 11 12  2  0  0  0  0
 12 13  1  0  0  0  0
 12 15  1  0  0  0  0
 13 14  2  0  0  0  0
 15 16  2  0  0  0  0
 15 17  2  0  0  0  0
 15 18  1  0  0  0  0
 18 19  1  0  0  0  0
 19 20  2  0  0  0  0
 19 23  1  0  0  0  0
 20 21  1  0  0  0  0
 21 22  2  0  0  0  0
 22 23  1  0  0  0  0
M  END
> <ID>
10852

> <Formula>
C13H13N3O5S2

> <FW>
355.3894

> <DSSTox_CID>
25281

> <DSSTox_RID>
80782

> <DSSTox_GSID>
45281

> <DSSTox_FileID_Sort>
5463

> <TS_ChemName>
Succinylsulfathiazole

> <TS_ChemName_Synonyms>


> <TS_CASRN>
116-43-8

> <CASRN_ChemName_Relationship>
primary

> <TS_Description>
single chemical compound

> <ChemNote>


> <STRUCTURE_Shown>
tested chemical

> <STRUCTURE_Formula>
C13H13N3O5S2

> <STRUCTURE_MW>
355.3894

> <STRUCTURE_ChemType>
defined organic

> <STRUCTURE_DefinedOrganicForm>
parent

> <STRUCTURE_IUPAC>
4-oxo-4-{[4-(1,3-thiazol-2-ylsulfamoyl)phenyl]amino}butanoic acid

> <STRUCTURE_SMILES>
O=S(=O)(Nc1nccs1)c2ccc(NC(=O)CCC(=O)O)cc2

> <STRUCTURE_SMILES_Desalt>
O=S(=O)(Nc1nccs1)c2ccc(NC(=O)CCC(=O)O)cc2

> <Substance_modify_yyyymmdd>
20100107

$$$$
