116-38-1
ChemmineR-0915142007XD

 13 12  0  0  0  0  0  0  0  0  2 V2000
    1.1489   -1.9940    0.0000 C    0  0  0  0  0  0  0  0  0  0  0  0
    0.0000   -2.6609    0.0000 O    0  0  0  0  0  0  0  0  0  0  0  0
    1.1489   -0.6669    0.0000 C    0  0  0  0  0  0  0  0  0  0  0  0
    2.3044    0.0000    0.0000 C    0  0  0  0  0  0  0  0  0  0  0  0
    3.4533   -0.6669    0.0000 C    0  0  0  0  0  0  0  0  0  0  0  0
    3.4533   -1.9940    0.0000 C    0  0  0  0  0  0  0  0  0  0  0  0
    4.6087   -2.6609    0.0000 N    0  3  0  0  0  0  0  0  0  0  0  0
    5.7576   -3.3278    0.0000 C    0  0  0  0  0  0  0  0  0  0  0  0
    3.9419   -3.8164    0.0000 C    0  0  0  0  0  0  0  0  0  0  0  0
    5.2756   -1.5120    0.0000 C    0  0  0  0  0  0  0  0  0  0  0  0
    6.6028   -1.5120    0.0000 C    0  0  0  0  0  0  0  0  0  0  0  0
    2.3044   -2.6609    0.0000 C    0  0  0  0  0  0  0  0  0  0  0  0
    3.3278   -5.1436    0.0000 Cl   0  5  0  0  0  0  0  0  0  0  0  0
  1  2  1  0  0  0  0
  1  3  2  0  0  0  0
  1 12  1  0  0  0  0
  3  4  1  0  0  0  0
  4  5  2  0  0  0  0
  5  6  1  0  0  0  0
  6  7  1  0  0  0  0
  6 12  2  0  0  0  0
  7  8  1  0  0  0  0
  7  9  1  0  0  0  0
  7 10  1  0  0  0  0
 10 11  1  0  0  0  0
M  END
> <ID>
2681

> <Formula>
C10H16ClNO

> <FW>
201.6931 (166.2396+35.4535)

> <DSSTox_CID>
2978

> <DSSTox_RID>
76815

> <DSSTox_GSID>
22978

> <DSSTox_FileID_Sort>
1499

> <TS_ChemName>
Edrophonium chloride

> <TS_ChemName_Synonyms>


> <TS_CASRN>
116-38-1

> <CASRN_ChemName_Relationship>
primary

> <TS_Description>
single chemical compound

> <ChemNote>
ammonium; parent [312-48-1]

> <STRUCTURE_Shown>
tested chemical

> <STRUCTURE_Formula>
C10H16ClNO

> <STRUCTURE_MW>
201.6931

> <STRUCTURE_ChemType>
defined organic

> <STRUCTURE_DefinedOrganicForm>
salt

> <STRUCTURE_IUPAC>
N-ethyl-3-hydroxy-N,N-dimethylanilinium chloride

> <STRUCTURE_SMILES>
[Cl-].C[N+](C)(CC)c1cccc(O)c1

> <STRUCTURE_SMILES_Desalt>
C[N+](C)(CC)c1cccc(O)c1

> <Substance_modify_yyyymmdd>
20080429

$$$$
