116-31-4
ChemmineR-0915142007XD

 21 21  0  0  0  0  0  0  0  0  1 V2000
    2.3004   -1.9973    0.0000 C   0  0  0  0  0  0  0  0  0  0  0  0
    3.4299   -1.3224    0.0000 C   0  0  0  0  0  0  0  0  0  0  0  0
    2.3004   -3.3197    0.0000 C   0  0  0  0  0  0  0  0  0  0  0  0
    1.1433   -1.3224    0.0000 C   0  0  0  0  0  0  0  0  0  0  0  0
    4.5870   -1.9973    0.0000 C   0  0  0  0  0  0  0  0  0  0  0  0
    8.0169   -1.3224    0.0000 C   0  0  0  0  0  0  0  0  0  0  0  0
    5.7303   -1.3224    0.0000 C   0  0  0  0  0  0  0  0  0  0  0  0
   10.3173   -1.3224    0.0000 C   0  0  0  0  0  0  0  0  0  0  0  0
    6.8874   -1.9973    0.0000 C   0  0  0  0  0  0  0  0  0  0  0  0
    9.1878   -1.9973    0.0000 C   0  0  0  0  0  0  0  0  0  0  0  0
   11.4744   -1.9973    0.0000 C   0  0  0  0  0  0  0  0  0  0  0  0
   13.7748   -1.9973    0.0000 O   0  0  0  0  0  0  0  0  0  0  0  0
   12.6177   -1.3224    0.0000 C   0  0  0  0  0  0  0  0  0  0  0  0
    1.1433   -3.9809    0.0000 C   0  0  0  0  0  0  0  0  0  0  0  0
    0.0000   -1.9973    0.0000 C   0  0  0  0  0  0  0  0  0  0  0  0
    3.4299   -3.9809    0.0000 C   0  0  0  0  0  0  0  0  0  0  0  0
    0.0275   -0.6061    0.0000 C   0  0  0  0  0  0  0  0  0  0  0  0
    2.3142   -0.6061    0.0000 C   0  0  0  0  0  0  0  0  0  0  0  0
    0.0000   -3.3197    0.0000 C   0  0  0  0  0  0  0  0  0  0  0  0
    5.7303    0.0000    0.0000 C   0  0  0  0  0  0  0  0  0  0  0  0
   10.3173    0.0000    0.0000 C   0  0  0  0  0  0  0  0  0  0  0  0
  1  2  1  0  0  0  0
  1  3  2  0  0  0  0
  1  4  1  0  0  0  0
  2  5  2  0  0  0  0
  3 14  1  0  0  0  0
  3 16  1  0  0  0  0
  4 15  1  0  0  0  0
  4 17  1  0  0  0  0
  4 18  1  0  0  0  0
  5  7  1  0  0  0  0
  6  9  1  0  0  0  0
  6 10  2  0  0  0  0
  7  9  2  0  0  0  0
  7 20  1  0  0  0  0
  8 10  1  0  0  0  0
  8 11  2  0  0  0  0
  8 21  1  0  0  0  0
 11 13  1  0  0  0  0
 12 13  2  0  0  0  0
 14 19  1  0  0  0  0
 15 19  1  0  0  0  0
M  END
> <ID>
4495

> <Formula>
C20H28O

> <FW>
284.4357

> <DSSTox_CID>
5998

> <DSSTox_RID>
77983

> <DSSTox_GSID>
25998

> <DSSTox_FileID_Sort>
2666

> <TS_ChemName>
Retinal

> <TS_ChemName_Synonyms>
Retinal (trans-Retinal) (Vitamin A aldehyde)

> <TS_CASRN>
116-31-4

> <CASRN_ChemName_Relationship>
primary

> <TS_Description>
single chemical compound

> <ChemNote>
stereochem

> <STRUCTURE_Shown>
tested chemical

> <STRUCTURE_Formula>
C20H28O

> <STRUCTURE_MW>
284.4357

> <STRUCTURE_ChemType>
defined organic

> <STRUCTURE_DefinedOrganicForm>
parent

> <STRUCTURE_IUPAC>
retinal

> <STRUCTURE_SMILES>
CC=1CCCC(C)(C)C=1/C=CC(\C)=C\C=C\C(\C)=C\C=O

> <STRUCTURE_SMILES_Desalt>
CC=1CCCC(C)(C)C=1/C=CC(\C)=C\C=C\C(\C)=C\C=O

> <Substance_modify_yyyymmdd>
20080429

$$$$
