116-26-7
ChemmineR-0915142007XD

 11 11  0  0  0  0  0  0  0  0  1 V2000
    1.3276   -1.9847    0.0000 C   0  0  0  0  0  0  0  0  0  0  0  0
    2.4854   -1.3276    0.0000 C   0  0  0  0  0  0  0  0  0  0  0  0
    1.3276   -3.3168    0.0000 C   0  0  0  0  0  0  0  0  0  0  0  0
    3.6386   -1.9847    0.0000 C   0  0  0  0  0  0  0  0  0  0  0  0
    3.6386   -3.3168    0.0000 C   0  0  0  0  0  0  0  0  0  0  0  0
    0.1743   -1.3276    0.0000 C   0  0  0  0  0  0  0  0  0  0  0  0
    0.1743    0.0000    0.0000 O   0  0  0  0  0  0  0  0  0  0  0  0
    2.4854   -3.9873    0.0000 C   0  0  0  0  0  0  0  0  0  0  0  0
    2.4854    0.0000    0.0000 C   0  0  0  0  0  0  0  0  0  0  0  0
    0.0000   -3.3168    0.0000 C   0  0  0  0  0  0  0  0  0  0  0  0
    0.6750   -4.4701    0.0000 C   0  0  0  0  0  0  0  0  0  0  0  0
  1  2  2  0  0  0  0
  1  3  1  0  0  0  0
  1  6  1  0  0  0  0
  2  4  1  0  0  0  0
  2  9  1  0  0  0  0
  3  8  1  0  0  0  0
  3 10  1  0  0  0  0
  3 11  1  0  0  0  0
  4  5  2  0  0  0  0
  5  8  1  0  0  0  0
  6  7  2  0  0  0  0
M  END
> <ID>
14262

> <Formula>
C10H14O

> <FW>
150.2176

> <DSSTox_CID>
29357

> <DSSTox_RID>
83473

> <DSSTox_GSID>
49398

> <DSSTox_FileID_Sort>
8148

> <TS_ChemName>
2,6,6-Trimethylcyclohexa-1,3-dienylmethanal

> <TS_ChemName_Synonyms>


> <TS_CASRN>
116-26-7

> <CASRN_ChemName_Relationship>
primary

> <TS_Description>
single chemical compound

> <ChemNote>


> <STRUCTURE_Shown>
tested chemical

> <STRUCTURE_Formula>
C10H14O

> <STRUCTURE_MW>
150.2176

> <STRUCTURE_ChemType>
defined organic

> <STRUCTURE_DefinedOrganicForm>
parent

> <STRUCTURE_IUPAC>
2,6,6-trimethylcyclohexa-1,3-diene-1-carbaldehyde

> <STRUCTURE_SMILES>
CC=1C=CCC(C)(C)C=1C=O

> <STRUCTURE_SMILES_Desalt>
CC=1C=CCC(C)(C)C=1C=O

> <Substance_modify_yyyymmdd>
20111204

$$$$
