116-45-0
ChemmineR-0915142007XD

 20 21  0  0  0  0  0  0  0  0  1 V2000
    4.6300   -3.3220    0.0000 S    0  0  0  0  0  0  0  0  0  0  0  0
    6.9139   -3.3116    0.0000 C    0  0  0  0  0  0  0  0  0  0  0  0
    5.7719   -3.9968    0.0000 N    0  0  0  0  0  0  0  0  0  0  0  0
    6.9139   -2.0036    0.0000 N    0  0  0  0  0  0  0  0  0  0  0  0
    8.0766   -3.9656    0.0000 N    0  0  0  0  0  0  0  0  0  0  0  0
    9.2185   -1.9724    0.0000 C    0  0  0  0  0  0  0  0  0  0  0  0
    9.2185   -3.2908    0.0000 C    0  0  0  0  0  0  0  0  0  0  0  0
    8.0766   -1.3288    0.0000 C    0  0  0  0  0  0  0  0  0  0  0  0
    3.4673   -2.6680    0.0000 C    0  0  0  0  0  0  0  0  0  0  0  0
    3.9448   -4.4847    0.0000 O    0  0  0  0  0  0  0  0  0  0  0  0
    5.2736   -2.1593    0.0000 O    0  0  0  0  0  0  0  0  0  0  0  0
    2.3046   -3.3220    0.0000 C    0  0  0  0  0  0  0  0  0  0  0  0
    3.4673   -1.3288    0.0000 C    0  0  0  0  0  0  0  0  0  0  0  0
   10.3604   -1.2769    0.0000 Br   0  0  0  0  0  0  0  0  0  0  0  0
    1.1627   -1.3288    0.0000 C    0  0  0  0  0  0  0  0  0  0  0  0
    0.0000   -0.6644    0.0000 N    0  0  0  0  0  0  0  0  0  0  0  0
    2.3046   -0.6852    0.0000 C    0  0  0  0  0  0  0  0  0  0  0  0
    1.1627   -2.6680    0.0000 C    0  0  0  0  0  0  0  0  0  0  0  0
   10.3812   -3.9656    0.0000 C    0  0  0  0  0  0  0  0  0  0  0  0
    8.0766    0.0000    0.0000 C    0  0  0  0  0  0  0  0  0  0  0  0
  1  3  1  0  0  0  0
  1  9  1  0  0  0  0
  1 10  2  0  0  0  0
  1 11  2  0  0  0  0
  2  3  1  0  0  0  0
  2  4  2  0  0  0  0
  2  5  1  0  0  0  0
  4  8  1  0  0  0  0
  5  7  2  0  0  0  0
  6  7  1  0  0  0  0
  6 14  1  0  0  0  0
  6  8  2  0  0  0  0
  7 19  1  0  0  0  0
  8 20  1  0  0  0  0
  9 12  2  0  0  0  0
  9 13  1  0  0  0  0
 12 18  1  0  0  0  0
 13 17  2  0  0  0  0
 15 17  1  0  0  0  0
 15 16  1  0  0  0  0
 15 18  2  0  0  0  0
M  END
> <ID>
12028

> <Formula>
C12H13BrN4O2S

> <FW>
357.2262

> <DSSTox_CID>
26857

> <DSSTox_RID>
81965

> <DSSTox_GSID>
46857

> <DSSTox_FileID_Sort>
6646

> <TS_ChemName>
Sulfabromomethazine

> <TS_ChemName_Synonyms>


> <TS_CASRN>
116-45-0

> <CASRN_ChemName_Relationship>
primary

> <TS_Description>
single chemical compound

> <ChemNote>


> <STRUCTURE_Shown>
tested chemical

> <STRUCTURE_Formula>
C12H13BrN4O2S

> <STRUCTURE_MW>
357.2262

> <STRUCTURE_ChemType>
defined organic

> <STRUCTURE_DefinedOrganicForm>
parent

> <STRUCTURE_IUPAC>
4-amino-N-(5-bromo-4,6-dimethylpyrimidin-2-yl)benzenesulfonamide

> <STRUCTURE_SMILES>
O=S(=O)(Nc1nc(C)c(Br)c(C)n1)c2ccc(N)cc2

> <STRUCTURE_SMILES_Desalt>
O=S(=O)(Nc1nc(C)c(Br)c(C)n1)c2ccc(N)cc2

> <Substance_modify_yyyymmdd>
20110729

$$$$
