116-66-5
ChemmineR-0915142007XD

 20 21  0  0  0  0  0  0  0  0  2 V2000
    3.4698   -3.9989    0.0000 C   0  0  0  0  0  0  0  0  0  0  0  0
    2.3155   -3.3393    0.0000 C   0  0  0  0  0  0  0  0  0  0  0  0
    4.6036   -3.3393    0.0000 C   0  0  0  0  0  0  0  0  0  0  0  0
    3.4698   -5.3044    0.0000 N   0  3  0  0  0  0  0  0  0  0  0  0
    2.3155   -1.9995    0.0000 C   0  0  0  0  0  0  0  0  0  0  0  0
    1.1681   -1.3261    0.0000 N   0  3  0  0  0  0  0  0  0  0  0  0
    4.6036   -1.9995    0.0000 C   0  0  0  0  0  0  0  0  0  0  0  0
    3.4698   -1.3261    0.0000 C   0  0  0  0  0  0  0  0  0  0  0  0
    5.8609   -3.7378    0.0000 C   0  0  0  0  0  0  0  0  0  0  0  0
    2.3155   -5.9778    0.0000 O   0  5  0  0  0  0  0  0  0  0  0  0
    1.1681    0.0000    0.0000 O   0  5  0  0  0  0  0  0  0  0  0  0
    4.6036   -5.9778    0.0000 O   0  0  0  0  0  0  0  0  0  0  0  0
    0.0000   -1.9995    0.0000 O   0  0  0  0  0  0  0  0  0  0  0  0
    5.8609   -1.6009    0.0000 C   0  0  0  0  0  0  0  0  0  0  0  0
    1.1681   -3.9989    0.0000 C   0  0  0  0  0  0  0  0  0  0  0  0
    5.5930   -5.0364    0.0000 C   0  0  0  0  0  0  0  0  0  0  0  0
    6.8710   -4.6379    0.0000 C   0  0  0  0  0  0  0  0  0  0  0  0
    6.6648   -2.6728    0.0000 C   0  0  0  0  0  0  0  0  0  0  0  0
    5.5930   -0.3023    0.0000 C   0  0  0  0  0  0  0  0  0  0  0  0
    6.8710   -0.7077    0.0000 C   0  0  0  0  0  0  0  0  0  0  0  0
  1  2  1  0  0  0  0
  1  3  2  0  0  0  0
  1  4  1  0  0  0  0
  2  5  2  0  0  0  0
  2 15  1  0  0  0  0
  3  7  1  0  0  0  0
  3  9  1  0  0  0  0
  4 10  1  0  0  0  0
  4 12  2  0  0  0  0
  5  6  1  0  0  0  0
  5  8  1  0  0  0  0
  6 11  1  0  0  0  0
  6 13  2  0  0  0  0
  7  8  2  0  0  0  0
  7 14  1  0  0  0  0
  9 18  1  0  0  0  0
  9 16  1  0  0  0  0
  9 17  1  0  0  0  0
 14 18  1  0  0  0  0
 14 19  1  0  0  0  0
 14 20  1  0  0  0  0
M  END
> <ID>
10173

> <Formula>
C14H18N2O4

> <FW>
278.3037

> <DSSTox_CID>
24519

> <DSSTox_RID>
80286

> <DSSTox_GSID>
44519

> <DSSTox_FileID_Sort>
4968

> <TS_ChemName>
1,1,3,3,5-Pentamethyl-4,6-dinitro-2,3-dihydro-1H-indene

> <TS_ChemName_Synonyms>
1H-Indene, 2,3-dihydro-1,1,3,3,5-pentamethyl-4,6-dinitro-

> <TS_CASRN>
116-66-5

> <CASRN_ChemName_Relationship>
primary

> <TS_Description>
single chemical compound

> <ChemNote>


> <STRUCTURE_Shown>
tested chemical

> <STRUCTURE_Formula>
C14H18N2O4

> <STRUCTURE_MW>
278.3037

> <STRUCTURE_ChemType>
defined organic

> <STRUCTURE_DefinedOrganicForm>
parent

> <STRUCTURE_IUPAC>
1,1,3,3,5-pentamethyl-4,6-dinitro-2,3-dihydro-1H-indene

> <STRUCTURE_SMILES>
[O-][N+](=O)c1cc2c(c(c1C)[N+]([O-])=O)C(C)(C)CC2(C)C

> <STRUCTURE_SMILES_Desalt>
[O-][N+](=O)c1cc2c(c(c1C)[N+]([O-])=O)C(C)(C)CC2(C)C

> <Substance_modify_yyyymmdd>
20091116

$$$$
