116-81-4
ChemmineR-0915142007XD

 22 24  0  0  0  0  0  0  0  0  1 V2000
    3.4594   -1.3284    0.0000 C    0  0  0  0  0  0  0  0  0  0  0  0
    3.4594   -3.9853    0.0000 C    0  0  0  0  0  0  0  0  0  0  0  0
    2.3063   -3.3303    0.0000 C    0  0  0  0  0  0  0  0  0  0  0  0
    4.6126   -2.0019    0.0000 C    0  0  0  0  0  0  0  0  0  0  0  0
    4.6126   -3.3303    0.0000 C    0  0  0  0  0  0  0  0  0  0  0  0
    2.3063   -2.0019    0.0000 C    0  0  0  0  0  0  0  0  0  0  0  0
    1.1531   -3.9853    0.0000 C    0  0  0  0  0  0  0  0  0  0  0  0
    1.1531   -1.3284    0.0000 C    0  0  0  0  0  0  0  0  0  0  0  0
    5.7657   -3.9853    0.0000 C    0  0  0  0  0  0  0  0  0  0  0  0
    5.7657   -1.3284    0.0000 C    0  0  0  0  0  0  0  0  0  0  0  0
    0.0000   -2.0019    0.0000 C    0  0  0  0  0  0  0  0  0  0  0  0
    6.9189   -3.3303    0.0000 C    0  0  0  0  0  0  0  0  0  0  0  0
    6.9189   -1.9834    0.0000 C    0  0  0  0  0  0  0  0  0  0  0  0
    0.0000   -3.3303    0.0000 C    0  0  0  0  0  0  0  0  0  0  0  0
    8.0720   -3.9853    0.0000 S    0  0  0  0  0  0  0  0  0  0  0  0
    7.3986   -5.1384    0.0000 O    0  0  0  0  0  0  0  0  0  0  0  0
    8.7270   -2.8321    0.0000 O    0  0  0  0  0  0  0  0  0  0  0  0
    9.2252   -4.6403    0.0000 O    0  0  0  0  0  0  0  0  0  0  0  0
    5.7657   -5.3137    0.0000 N    0  0  0  0  0  0  0  0  0  0  0  0
    5.7657    0.0000    0.0000 Br   0  0  0  0  0  0  0  0  0  0  0  0
    3.4594   -5.3137    0.0000 O    0  0  0  0  0  0  0  0  0  0  0  0
    3.4594    0.0000    0.0000 O    0  0  0  0  0  0  0  0  0  0  0  0
  1  4  1  0  0  0  0
  1  6  1  0  0  0  0
  1 22  2  0  0  0  0
  2  3  1  0  0  0  0
  2  5  1  0  0  0  0
  2 21  2  0  0  0  0
  3  6  2  0  0  0  0
  3  7  1  0  0  0  0
  4  5  2  0  0  0  0
  4 10  1  0  0  0  0
  5  9  1  0  0  0  0
  6  8  1  0  0  0  0
  7 14  2  0  0  0  0
  8 11  2  0  0  0  0
  9 12  2  0  0  0  0
  9 19  1  0  0  0  0
 10 13  2  0  0  0  0
 10 20  1  0  0  0  0
 11 14  1  0  0  0  0
 12 13  1  0  0  0  0
 12 15  1  0  0  0  0
 15 16  2  0  0  0  0
 15 17  1  0  0  0  0
 15 18  2  0  0  0  0
M  END
> <ID>
10433

> <Formula>
C14H8BrNO5S

> <FW>
382.186

> <DSSTox_CID>
24782

> <DSSTox_RID>
80471

> <DSSTox_GSID>
44782

> <DSSTox_FileID_Sort>
5153

> <TS_ChemName>
1-Amino-4-bromo-9,10-dioxo-9,10-dihydroanthracene-2-sulfonic acid

> <TS_ChemName_Synonyms>
2-Anthracenesulfonic acid, 1-amino-4-bromo-9,10-dihydro-9,10-dioxo-

> <TS_CASRN>
116-81-4

> <CASRN_ChemName_Relationship>
primary

> <TS_Description>
single chemical compound

> <ChemNote>


> <STRUCTURE_Shown>
tested chemical

> <STRUCTURE_Formula>
C14H8BrNO5S

> <STRUCTURE_MW>
382.186

> <STRUCTURE_ChemType>
defined organic

> <STRUCTURE_DefinedOrganicForm>
parent

> <STRUCTURE_IUPAC>
1-amino-4-bromo-9,10-dioxo-9,10-dihydroanthracene-2-sulfonic acid

> <STRUCTURE_SMILES>
O=S(=O)(O)c3cc(Br)c2c(C(=O)c1ccccc1C2=O)c3N

> <STRUCTURE_SMILES_Desalt>
O=S(=O)(O)c3cc(Br)c2c(C(=O)c1ccccc1C2=O)c3N

> <Substance_modify_yyyymmdd>
20091116

$$$$
