116296-31-2
ChemmineR-0915142007XD

 16 15  0  0  0  0  0  0  0  0  1 V2000
    1.1581   -1.3167    0.0000 C   0  0  0  0  0  0  0  0  0  0  0  0
    2.2686   -2.0148    0.0000 C   0  0  0  0  0  0  0  0  0  0  0  0
    3.4267   -1.3167    0.0000 S   0  0  0  0  0  0  0  0  0  0  0  0
    4.5530   -2.0148    0.0000 C   0  0  0  0  0  0  0  0  0  0  0  0
    5.7111   -1.3167    0.0000 C   0  0  0  0  0  0  0  0  0  0  0  0
    6.8216   -2.0148    0.0000 C   0  0  0  0  0  0  0  0  0  0  0  0
    7.9321   -1.3167    0.0000 C   0  0  0  0  0  0  0  0  0  0  0  0
    9.0902   -2.0148    0.0000 C   0  0  0  0  0  0  0  0  0  0  0  0
   10.2166   -1.3167    0.0000 C   0  0  0  0  0  0  0  0  0  0  0  0
   11.3588   -2.0148    0.0000 C   0  0  0  0  0  0  0  0  0  0  0  0
   12.4852   -1.3167    0.0000 C   0  0  0  0  0  0  0  0  0  0  0  0
   13.6433   -2.0148    0.0000 C   0  0  0  0  0  0  0  0  0  0  0  0
   14.7696   -1.3167    0.0000 C   0  0  0  0  0  0  0  0  0  0  0  0
   15.8643   -2.0148    0.0000 C   0  0  0  0  0  0  0  0  0  0  0  0
    1.1581    0.0000    0.0000 O   0  0  0  0  0  0  0  0  0  0  0  0
    0.0000   -2.0148    0.0000 O   0  0  0  0  0  0  0  0  0  0  0  0
  1  2  1  0  0  0  0
  1 16  1  0  0  0  0
  1 15  2  0  0  0  0
  2  3  1  0  0  0  0
  3  4  1  0  0  0  0
  4  5  1  0  0  0  0
  5  6  1  0  0  0  0
  6  7  1  0  0  0  0
  7  8  1  0  0  0  0
  8  9  1  0  0  0  0
  9 10  1  0  0  0  0
 10 11  1  0  0  0  0
 11 12  1  0  0  0  0
 12 13  1  0  0  0  0
 13 14  1  0  0  0  0
M  END
> <ID>
12669

> <Formula>
C13H26O2S

> <FW>
246.4093

> <DSSTox_CID>
27545

> <DSSTox_RID>
82409

> <DSSTox_GSID>
47545

> <DSSTox_FileID_Sort>
7090

> <TS_ChemName>
3-Thiatetradecanoic acid

> <TS_ChemName_Synonyms>


> <TS_CASRN>
116296-31-2

> <CASRN_ChemName_Relationship>
primary

> <TS_Description>
single chemical compound

> <ChemNote>


> <STRUCTURE_Shown>
tested chemical

> <STRUCTURE_Formula>
C13H26O2S

> <STRUCTURE_MW>
246.4093

> <STRUCTURE_ChemType>
defined organic

> <STRUCTURE_DefinedOrganicForm>
parent

> <STRUCTURE_IUPAC>
(undecylsulfanyl)acetic acid

> <STRUCTURE_SMILES>
O=C(O)CSCCCCCCCCCCC

> <STRUCTURE_SMILES_Desalt>
O=C(O)CSCCCCCCCCCCC

> <Substance_modify_yyyymmdd>
20100921

$$$$
