1162-06-7
ChemmineR-0915142007XD

 23 25  0  0  0  0  0  0  0  0  1 V2000
    3.9902   -3.9902    0.0000 Pb   0  0  0  0  0  0  0  0  0  0  0  0
    5.1473   -0.6624    0.0000 C    0  0  0  0  0  0  0  0  0  0  0  0
    3.9902    0.0000    0.0000 C    0  0  0  0  0  0  0  0  0  0  0  0
    2.8490   -0.6624    0.0000 C    0  0  0  0  0  0  0  0  0  0  0  0
    2.8490   -1.9951    0.0000 C    0  0  0  0  0  0  0  0  0  0  0  0
    3.9902   -2.6734    0.0000 C    0  0  0  0  0  0  0  0  0  0  0  0
    5.1473   -1.9951    0.0000 C    0  0  0  0  0  0  0  0  0  0  0  0
    2.8490   -7.3180    0.0000 C    0  0  0  0  0  0  0  0  0  0  0  0
    3.9902   -7.9804    0.0000 C    0  0  0  0  0  0  0  0  0  0  0  0
    5.1473   -7.3180    0.0000 C    0  0  0  0  0  0  0  0  0  0  0  0
    5.1473   -5.9853    0.0000 C    0  0  0  0  0  0  0  0  0  0  0  0
    3.9902   -5.3229    0.0000 C    0  0  0  0  0  0  0  0  0  0  0  0
    2.8490   -5.9853    0.0000 C    0  0  0  0  0  0  0  0  0  0  0  0
    0.6624   -2.8490    0.0000 C    0  0  0  0  0  0  0  0  0  0  0  0
    0.0000   -3.9902    0.0000 C    0  0  0  0  0  0  0  0  0  0  0  0
    0.6624   -5.1314    0.0000 C    0  0  0  0  0  0  0  0  0  0  0  0
    1.9951   -5.1314    0.0000 C    0  0  0  0  0  0  0  0  0  0  0  0
    2.6734   -3.9902    0.0000 C    0  0  0  0  0  0  0  0  0  0  0  0
    1.9951   -2.8490    0.0000 C    0  0  0  0  0  0  0  0  0  0  0  0
    6.4800   -3.2640    0.0000 C    0  0  0  0  0  0  0  0  0  0  0  0
    6.4800   -1.9312    0.0000 O    0  0  0  0  0  0  0  0  0  0  0  0
    5.3229   -3.9902    0.0000 O    0  0  0  0  0  0  0  0  0  0  0  0
    7.6292   -3.9423    0.0000 C    0  0  0  0  0  0  0  0  0  0  0  0
  1  6  1  0  0  0  0
  1 12  1  0  0  0  0
  1 18  1  0  0  0  0
  1 22  1  0  0  0  0
  2  7  2  0  0  0  0
  2  3  1  0  0  0  0
  3  4  2  0  0  0  0
  4  5  1  0  0  0  0
  5  6  2  0  0  0  0
  6  7  1  0  0  0  0
  8 13  2  0  0  0  0
  8  9  1  0  0  0  0
  9 10  2  0  0  0  0
 10 11  1  0  0  0  0
 11 12  2  0  0  0  0
 12 13  1  0  0  0  0
 14 19  2  0  0  0  0
 14 15  1  0  0  0  0
 15 16  2  0  0  0  0
 16 17  1  0  0  0  0
 17 18  2  0  0  0  0
 18 19  1  0  0  0  0
 20 21  2  0  0  0  0
 20 22  1  0  0  0  0
 20 23  1  0  0  0  0
M  END
> <ID>
12627

> <Formula>
C20H18O2Pb

> <FW>
497.5557

> <DSSTox_CID>
27498

> <DSSTox_RID>
82382

> <DSSTox_GSID>
47498

> <DSSTox_FileID_Sort>
7063

> <TS_ChemName>
Triphenyllead acetate

> <TS_ChemName_Synonyms>


> <TS_CASRN>
1162-06-7

> <CASRN_ChemName_Relationship>
primary

> <TS_Description>
single chemical compound

> <ChemNote>


> <STRUCTURE_Shown>
tested chemical

> <STRUCTURE_Formula>
C20H18O2Pb

> <STRUCTURE_MW>
497.5557

> <STRUCTURE_ChemType>
organometallic

> <STRUCTURE_DefinedOrganicForm>


> <STRUCTURE_IUPAC>
(acetyloxy)(triphenyl)plumbane

> <STRUCTURE_SMILES>
CC(=O)O[Pb](c1ccccc1)(c2ccccc2)c3ccccc3

> <STRUCTURE_SMILES_Desalt>
CC(=O)O[Pb](c1ccccc1)(c2ccccc2)c3ccccc3

> <Substance_modify_yyyymmdd>
20100704

$$$$
