116255-48-2
ChemmineR-0915142007XD

 20 22  0  0  0  0  0  0  0  0  1 V2000
    2.9557   -5.3930    0.0000 C    0  0  0  0  0  0  0  0  0  0  0  0
    4.0467   -4.6038    0.0000 C    0  0  0  0  0  0  0  0  0  0  0  0
    3.3735   -6.6619    0.0000 C    0  0  0  0  0  0  0  0  0  0  0  0
    5.1222   -5.3930    0.0000 O    0  0  0  0  0  0  0  0  0  0  0  0
    4.7043   -6.6619    0.0000 C    0  0  0  0  0  0  0  0  0  0  0  0
    2.5843   -7.7374    0.0000 Br   0  0  0  0  0  0  0  0  0  0  0  0
    3.3735   -3.4664    0.0000 C    0  0  0  0  0  0  0  0  0  0  0  0
    4.7043   -3.4509    0.0000 C    0  0  0  0  0  0  0  0  0  0  0  0
    4.0312   -2.3135    0.0000 C    0  0  0  0  0  0  0  0  0  0  0  0
    6.0352   -3.4509    0.0000 C    0  0  0  0  0  0  0  0  0  0  0  0
    4.7043   -1.1374    0.0000 C    0  0  0  0  0  0  0  0  0  0  0  0
    6.6774   -2.3135    0.0000 C    0  0  0  0  0  0  0  0  0  0  0  0
    6.0352   -1.1374    0.0000 C    0  0  0  0  0  0  0  0  0  0  0  0
    6.6774   -4.6038    0.0000 Cl   0  0  0  0  0  0  0  0  0  0  0  0
    6.6774    0.0000    0.0000 Cl   0  0  0  0  0  0  0  0  0  0  0  0
    2.0349   -3.4664    0.0000 N    0  0  0  0  0  0  0  0  0  0  0  0
    1.2535   -4.5419    0.0000 N    0  0  0  0  0  0  0  0  0  0  0  0
    1.2535   -2.3754    0.0000 C    0  0  0  0  0  0  0  0  0  0  0  0
    0.0000   -4.1240    0.0000 C    0  0  0  0  0  0  0  0  0  0  0  0
    0.0000   -2.7932    0.0000 N    0  0  0  0  0  0  0  0  0  0  0  0
  1  2  1  0  0  0  0
  1  3  1  0  0  0  0
  2  4  1  0  0  0  0
  2  7  1  0  0  0  0
  2  8  1  0  0  0  0
  3  5  1  0  0  0  0
  3  6  1  0  0  0  0
  4  5  1  0  0  0  0
  7 16  1  0  0  0  0
  8  9  1  0  0  0  0
  8 10  2  0  0  0  0
  9 11  2  0  0  0  0
 10 12  1  0  0  0  0
 10 14  1  0  0  0  0
 11 13  1  0  0  0  0
 12 13  2  0  0  0  0
 13 15  1  0  0  0  0
 16 17  1  0  0  0  0
 16 18  1  0  0  0  0
 17 19  2  0  0  0  0
 18 20  2  0  0  0  0
 19 20  1  0  0  0  0
M  END
> <ID>
6498

> <Formula>
C13H12BrCl2N3O

> <FW>
377.0639

> <DSSTox_CID>
12531

> <DSSTox_RID>
78969

> <DSSTox_GSID>
32531

> <DSSTox_FileID_Sort>
3651

> <TS_ChemName>
Bromuconazole

> <TS_ChemName_Synonyms>
Bromuconazole (1H-1,2,4-Triazole, 1-((4-bromo-2-(2,4-dichlorophenyl)tetrahydro-2-furanyl)methyl)-)

> <TS_CASRN>
116255-48-2

> <CASRN_ChemName_Relationship>
primary

> <TS_Description>
single chemical compound

> <ChemNote>


> <STRUCTURE_Shown>
tested chemical

> <STRUCTURE_Formula>
C13H12BrCl2N3O

> <STRUCTURE_MW>
377.0639

> <STRUCTURE_ChemType>
defined organic

> <STRUCTURE_DefinedOrganicForm>
parent

> <STRUCTURE_IUPAC>
2,5-anhydro-4-bromo-1,3,4-trideoxy-2-(2,4-dichlorophenyl)-1-(1H-1,2,4-triazol-1-yl)pentitol

> <STRUCTURE_SMILES>
BrC2CC(Cn1cncn1)(OC2)c3ccc(Cl)cc3Cl

> <STRUCTURE_SMILES_Desalt>
BrC2CC(Cn1cncn1)(OC2)c3ccc(Cl)cc3Cl

> <Substance_modify_yyyymmdd>
20080429

$$$$
