116308-55-5
ChemmineR-0915142007XD

 51 56  0  0  0  0  0  0  0  0  2 V2000
   17.9201   -5.7344    0.0000 N   0  0  0  0  0  0  0  0  0  0  0  0
   16.5861   -5.7344    0.0000 C   0  0  0  0  0  0  0  0  0  0  0  0
   18.5772   -4.5995    0.0000 C   0  0  0  0  0  0  0  0  0  0  0  0
   17.9201   -3.4446    0.0000 C   0  0  0  0  0  0  0  0  0  0  0  0
   15.9290   -4.5995    0.0000 C   0  0  0  0  0  0  0  0  0  0  0  0
   16.5861   -3.4446    0.0000 C   0  0  0  0  0  0  0  0  0  0  0  0
   18.5772   -2.3097    0.0000 C   0  0  0  0  0  0  0  0  0  0  0  0
   19.9112   -2.3097    0.0000 O   0  0  0  0  0  0  0  0  0  0  0  0
   17.9201   -1.1549    0.0000 O   0  0  0  0  0  0  0  0  0  0  0  0
   14.5949   -4.5995    0.0000 C   0  0  0  0  0  0  0  0  0  0  0  0
   13.9379   -3.4446    0.0000 O   0  0  0  0  0  0  0  0  0  0  0  0
   13.9379   -5.7344    0.0000 O   0  0  0  0  0  0  0  0  0  0  0  0
   19.9112   -4.5995    0.0000 C   0  0  0  0  0  0  0  0  0  0  0  0
   15.9290   -6.9092    0.0000 C   0  0  0  0  0  0  0  0  0  0  0  0
   15.9290   -2.3097    0.0000 C   0  0  0  0  0  0  0  0  0  0  0  0
   14.5949   -2.3097    0.0000 C   0  0  0  0  0  0  0  0  0  0  0  0
   16.5861   -1.1549    0.0000 C   0  0  0  0  0  0  0  0  0  0  0  0
   13.9379   -1.1549    0.0000 C   0  0  0  0  0  0  0  0  0  0  0  0
   15.9290    0.0000    0.0000 C   0  0  0  0  0  0  0  0  0  0  0  0
   14.5949    0.0000    0.0000 C   0  0  0  0  0  0  0  0  0  0  0  0
   12.6038   -1.1549    0.0000 N   0  3  0  0  0  0  0  0  0  0  0  0
   11.9467   -2.3097    0.0000 O   0  5  0  0  0  0  0  0  0  0  0  0
   11.9467    0.0000    0.0000 O   0  0  0  0  0  0  0  0  0  0  0  0
   18.5772    0.0000    0.0000 C   0  0  0  0  0  0  0  0  0  0  0  0
   12.6038   -5.7344    0.0000 C   0  0  0  0  0  0  0  0  0  0  0  0
   11.9467   -6.9092    0.0000 C   0  0  0  0  0  0  0  0  0  0  0  0
   10.6127   -6.9092    0.0000 C   0  0  0  0  0  0  0  0  0  0  0  0
    9.9556   -8.0641    0.0000 C   0  0  0  0  0  0  0  0  0  0  0  0
    9.9556   -5.7344    0.0000 C   0  0  0  0  0  0  0  0  0  0  0  0
    8.6216   -8.0641    0.0000 C   0  0  0  0  0  0  0  0  0  0  0  0
    8.6216   -5.7344    0.0000 C   0  0  0  0  0  0  0  0  0  0  0  0
    7.9645   -6.9092    0.0000 C   0  0  0  0  0  0  0  0  0  0  0  0
    6.6304   -6.9092    0.0000 N   0  0  0  0  0  0  0  0  0  0  0  0
    3.9822   -6.9092    0.0000 N   0  0  0  0  0  0  0  0  0  0  0  0
    4.6393   -5.7344    0.0000 C   0  0  0  0  0  0  0  0  0  0  0  0
    5.9734   -8.0641    0.0000 C   0  0  0  0  0  0  0  0  0  0  0  0
    4.6393   -8.0641    0.0000 C   0  0  0  0  0  0  0  0  0  0  0  0
    5.9734   -5.7344    0.0000 C   0  0  0  0  0  0  0  0  0  0  0  0
    2.6482   -6.9092    0.0000 C   0  0  0  0  0  0  0  0  0  0  0  0
    1.9911   -5.7344    0.0000 C   0  0  0  0  0  0  0  0  0  0  0  0
    0.6571   -5.7344    0.0000 C   0  0  0  0  0  0  0  0  0  0  0  0
    2.6482   -4.5995    0.0000 C   0  0  0  0  0  0  0  0  0  0  0  0
    0.0000   -4.5995    0.0000 C   0  0  0  0  0  0  0  0  0  0  0  0
    1.9911   -3.4446    0.0000 C   0  0  0  0  0  0  0  0  0  0  0  0
    0.6571   -3.4446    0.0000 C   0  0  0  0  0  0  0  0  0  0  0  0
    1.9911   -8.0641    0.0000 C   0  0  0  0  0  0  0  0  0  0  0  0
    2.6482   -9.1990    0.0000 C   0  0  0  0  0  0  0  0  0  0  0  0
    0.6571   -8.0641    0.0000 C   0  0  0  0  0  0  0  0  0  0  0  0
    1.9911  -10.3538    0.0000 C   0  0  0  0  0  0  0  0  0  0  0  0
    0.0000   -9.1990    0.0000 C   0  0  0  0  0  0  0  0  0  0  0  0
    0.6571  -10.3538    0.0000 C   0  0  0  0  0  0  0  0  0  0  0  0
  1  2  1  0  0  0  0
  1  3  1  0  0  0  0
  2  5  2  0  0  0  0
  2 14  1  0  0  0  0
  3  4  2  0  0  0  0
  3 13  1  0  0  0  0
  4  6  1  0  0  0  0
  4  7  1  0  0  0  0
  5  6  1  0  0  0  0
  5 10  1  0  0  0  0
  6 15  1  0  0  0  0
  7  8  2  0  0  0  0
  7  9  1  0  0  0  0
  9 24  1  0  0  0  0
 10 11  2  0  0  0  0
 10 12  1  0  0  0  0
 12 25  1  0  0  0  0
 15 16  2  0  0  0  0
 15 17  1  0  0  0  0
 16 18  1  0  0  0  0
 17 19  2  0  0  0  0
 18 20  2  0  0  0  0
 18 21  1  0  0  0  0
 19 20  1  0  0  0  0
 21 22  1  0  0  0  0
 21 23  2  0  0  0  0
 25 26  1  0  0  0  0
 26 27  1  0  0  0  0
 27 28  2  0  0  0  0
 27 29  1  0  0  0  0
 28 30  1  0  0  0  0
 29 31  2  0  0  0  0
 30 32  2  0  0  0  0
 31 32  1  0  0  0  0
 32 33  1  0  0  0  0
 33 36  1  0  0  0  0
 33 38  1  0  0  0  0
 34 35  1  0  0  0  0
 34 37  1  0  0  0  0
 34 39  1  0  0  0  0
 35 38  1  0  0  0  0
 36 37  1  0  0  0  0
 39 40  1  0  0  0  0
 39 46  1  0  0  0  0
 40 41  2  0  0  0  0
 40 42  1  0  0  0  0
 41 43  1  0  0  0  0
 42 44  2  0  0  0  0
 43 45  2  0  0  0  0
 44 45  1  0  0  0  0
 46 47  2  0  0  0  0
 46 48  1  0  0  0  0
 47 49  1  0  0  0  0
 48 50  2  0  0  0  0
 49 51  2  0  0  0  0
 50 51  1  0  0  0  0
M  END
> <ID>
9584

> <Formula>
C41H42N4O6

> <FW>
686.7954

> <DSSTox_CID>
23747

> <DSSTox_RID>
97560

> <DSSTox_GSID>
43747

> <DSSTox_FileID_Sort>
8335

> <TS_ChemName>
Watanidipine

> <TS_ChemName_Synonyms>


> <TS_CASRN>
116308-55-5

> <CASRN_ChemName_Relationship>
primary

> <TS_Description>
single chemical compound

> <ChemNote>


> <STRUCTURE_Shown>
tested chemical

> <STRUCTURE_Formula>
C41H42N4O6

> <STRUCTURE_MW>
686.7954

> <STRUCTURE_ChemType>
defined organic

> <STRUCTURE_DefinedOrganicForm>
parent

> <STRUCTURE_IUPAC>
2-{4-[4-(diphenylmethyl)piperazin-1-yl]phenyl}ethyl methyl 2,6-dimethyl-4-(3-nitrophenyl)-1,4-dihydropyridine-3,5-dicarboxylate

> <STRUCTURE_SMILES>
[O-][N+](=O)c1cccc(c1)C2C(C(=O)OC)=C(C)NC(C)=C2C(=O)OCCc3ccc(cc3)N4CCN(CC4)C(c5ccccc5)c6ccccc6

> <STRUCTURE_SMILES_Desalt>
[O-][N+](=O)c1cccc(c1)C2C(C(=O)OC)=C(C)NC(C)=C2C(=O)OCCc3ccc(cc3)N4CCN(CC4)C(c5ccccc5)c6ccccc6

> <Substance_modify_yyyymmdd>
20081229

$$$$
