1163-36-6
ChemmineR-0915142007XD

 24 26  0  0  0  0  0  0  0  0  1 V2000
    3.5827   -3.8854    0.0000 N    0  0  0  0  0  0  0  0  0  0  0  0
    2.3039   -4.3149    0.0000 C    0  0  0  0  0  0  0  0  0  0  0  0
    4.3540   -4.9690    0.0000 C    0  0  0  0  0  0  0  0  0  0  0  0
    3.5827   -2.5675    0.0000 C    0  0  0  0  0  0  0  0  0  0  0  0
    2.3039   -5.6719    0.0000 C    0  0  0  0  0  0  0  0  0  0  0  0
    1.1812   -3.6608    0.0000 C    0  0  0  0  0  0  0  0  0  0  0  0
    3.5827   -6.0624    0.0000 N    0  0  0  0  0  0  0  0  0  0  0  0
    5.7207   -4.9690    0.0000 C    0  0  0  0  0  0  0  0  0  0  0  0
    4.7542   -1.9134    0.0000 C    0  0  0  0  0  0  0  0  0  0  0  0
    1.1812   -6.3259    0.0000 C    0  0  0  0  0  0  0  0  0  0  0  0
    0.0000   -4.3149    0.0000 C    0  0  0  0  0  0  0  0  0  0  0  0
    6.3747   -6.1014    0.0000 N    0  0  0  0  0  0  0  0  0  0  0  0
    5.8866   -2.5675    0.0000 C    0  0  0  0  0  0  0  0  0  0  0  0
    4.7542   -0.6053    0.0000 C    0  0  0  0  0  0  0  0  0  0  0  0
    0.0000   -5.6719    0.0000 C    0  0  0  0  0  0  0  0  0  0  0  0
    5.8085   -7.3607    0.0000 C    0  0  0  0  0  0  0  0  0  0  0  0
    7.6829   -6.2966    0.0000 C    0  0  0  0  0  0  0  0  0  0  0  0
    7.0679   -1.9134    0.0000 C    0  0  0  0  0  0  0  0  0  0  0  0
    5.8866    0.0000    0.0000 C    0  0  0  0  0  0  0  0  0  0  0  0
    6.8336   -8.2393    0.0000 C    0  0  0  0  0  0  0  0  0  0  0  0
    7.9758   -7.6048    0.0000 C    0  0  0  0  0  0  0  0  0  0  0  0
    7.0679   -0.6053    0.0000 C    0  0  0  0  0  0  0  0  0  0  0  0
    8.2100    0.0000    0.0000 Cl   0  0  0  0  0  0  0  0  0  0  0  0
    9.7622   -3.8854    0.0000 Cl   0  0  0  0  0  0  0  0  0  0  0  0
  1  2  1  0  0  0  0
  1  3  1  0  0  0  0
  1  4  1  0  0  0  0
  2  5  2  0  0  0  0
  2  6  1  0  0  0  0
  3  7  2  0  0  0  0
  3  8  1  0  0  0  0
  4  9  1  0  0  0  0
  5 10  1  0  0  0  0
  5  7  1  0  0  0  0
  6 11  2  0  0  0  0
  8 12  1  0  0  0  0
  9 13  2  0  0  0  0
  9 14  1  0  0  0  0
 10 15  2  0  0  0  0
 11 15  1  0  0  0  0
 12 16  1  0  0  0  0
 12 17  1  0  0  0  0
 13 18  1  0  0  0  0
 14 19  2  0  0  0  0
 16 20  1  0  0  0  0
 17 21  1  0  0  0  0
 18 22  2  0  0  0  0
 19 22  1  0  0  0  0
 20 21  1  0  0  0  0
 22 23  1  0  0  0  0
M  END
> <ID>
10763

> <Formula>
C19H21Cl2N3

> <FW>
362.2961 (325.8352+36.4609)

> <DSSTox_CID>
25136

> <DSSTox_RID>
80695

> <DSSTox_GSID>
45136

> <DSSTox_FileID_Sort>
5376

> <TS_ChemName>
Clemizole hydrochloride

> <TS_ChemName_Synonyms>


> <TS_CASRN>
1163-36-6

> <CASRN_ChemName_Relationship>
primary

> <TS_Description>
single chemical compound

> <ChemNote>
parent [442-52-4]

> <STRUCTURE_Shown>
tested chemical

> <STRUCTURE_Formula>
C19H21Cl2N3

> <STRUCTURE_MW>
362.2961

> <STRUCTURE_ChemType>
defined organic

> <STRUCTURE_DefinedOrganicForm>
complex

> <STRUCTURE_IUPAC>
1-(4-chlorobenzyl)-2-(pyrrolidin-1-ylmethyl)-1H-benzimidazole hydrochloride (1:1)

> <STRUCTURE_SMILES>
Cl.Clc1ccc(cc1)Cn3c4ccccc4nc3CN2CCCC2

> <STRUCTURE_SMILES_Desalt>
Clc1ccc(cc1)Cn3c4ccccc4nc3CN2CCCC2

> <Substance_modify_yyyymmdd>
20100107

$$$$
