116649-85-5
ChemmineR-0915142007XD

 29 32  0  0  1  0  0  0  0  0  1 V2000
    3.4552   -6.3723    0.0000 C   0  0  0  0  0  0  0  0  0  0  0  0
    3.4552   -7.7034    0.0000 C   0  0  0  0  0  0  0  0  0  0  0  0
    2.2940   -5.7351    0.0000 C   0  0  0  0  0  0  0  0  0  0  0  0
    2.2940   -8.3831    0.0000 C   0  0  0  0  0  0  0  0  0  0  0  0
    1.1329   -6.3723    0.0000 C   0  0  0  0  0  0  0  0  0  0  0  0
    1.1329   -7.7034    0.0000 C   0  0  0  0  0  0  0  0  0  0  0  0
    0.0000   -8.3831    0.0000 F   0  0  0  0  0  0  0  0  0  0  0  0
    4.5881   -5.7351    0.0000 S   0  0  0  0  0  0  0  0  0  0  0  0
    5.7492   -6.3723    0.0000 N   0  0  0  0  0  0  0  0  0  0  0  0
    3.9225   -4.5597    0.0000 O   0  0  0  0  0  0  0  0  0  0  0  0
    5.2536   -4.5597    0.0000 O   0  0  0  0  0  0  0  0  0  0  0  0
    6.8821   -5.7351    0.0000 C   0  0  0  0  0  0  0  0  0  0  0  0
    6.8821   -4.4040    0.0000 C   0  0  0  0  0  0  0  0  0  0  0  0
    8.0433   -6.3723    0.0000 C   0  0  0  0  0  0  0  0  0  0  0  0
    8.0433   -3.7243    0.0000 C   0  0  0  0  0  0  0  0  0  0  0  0
    9.2044   -5.7351    0.0000 C   0  0  0  0  0  0  0  0  0  0  0  0
    9.2044   -4.4040    0.0000 C   0  0  0  0  0  0  0  0  0  0  0  0
    8.3265   -2.4215    0.0000 C   0  0  0  0  0  0  0  0  0  0  0  0
    9.6292   -2.2940    0.0000 C   0  0  0  0  0  0  0  0  0  0  0  0
   10.1815   -3.4977    0.0000 N   0  0  0  0  0  0  0  0  0  0  0  0
    7.5335   -1.3453    0.0000 C   0  0  0  0  0  0  0  0  0  0  0  0
    8.0857   -0.1416    0.0000 C   0  0  0  0  0  0  0  0  0  0  0  0
   10.1815   -1.0762    0.0000 C   0  0  0  0  0  0  0  0  0  0  0  0
    9.4027    0.0000    0.0000 C   0  0  0  0  0  0  0  0  0  0  0  0
   11.5126   -3.4977    0.0000 C   0  0  0  0  0  0  0  0  0  0  0  0
   12.1640   -4.6730    0.0000 C   0  0  0  0  0  0  0  0  0  0  0  0
   13.5093   -4.6730    0.0000 C   0  0  0  0  0  0  0  0  0  0  0  0
   14.1607   -3.4977    0.0000 O   0  0  0  0  0  0  0  0  0  0  0  0
   14.1607   -5.7917    0.0000 O   0  0  0  0  0  0  0  0  0  0  0  0
  1  2  1  0  0  0  0
  1  3  2  0  0  0  0
  1  8  1  0  0  0  0
  2  4  2  0  0  0  0
  3  5  1  0  0  0  0
  4  6  1  0  0  0  0
  5  6  2  0  0  0  0
  6  7  1  0  0  0  0
  8  9  1  0  0  0  0
  8 10  2  0  0  0  0
  8 11  2  0  0  0  0
 12  9  1  1  0  0  0
 12 13  1  0  0  0  0
 12 14  1  0  0  0  0
 13 15  1  0  0  0  0
 14 16  1  0  0  0  0
 15 18  1  0  0  0  0
 15 17  2  0  0  0  0
 16 17  1  0  0  0  0
 17 20  1  0  0  0  0
 18 21  1  0  0  0  0
 18 19  2  0  0  0  0
 19 20  1  0  0  0  0
 19 23  1  0  0  0  0
 20 25  1  0  0  0  0
 21 22  2  0  0  0  0
 22 24  1  0  0  0  0
 23 24  2  0  0  0  0
 25 26  1  0  0  0  0
 26 27  1  0  0  0  0
 27 28  2  0  0  0  0
 27 29  1  0  0  0  0
M  END
> <ID>
11883

> <Formula>
C21H21FN2O4S

> <FW>
416.4658

> <DSSTox_CID>
26685

> <DSSTox_RID>
81819

> <DSSTox_GSID>
46685

> <DSSTox_FileID_Sort>
6500

> <TS_ChemName>
Ramatroban

> <TS_ChemName_Synonyms>


> <TS_CASRN>
116649-85-5

> <CASRN_ChemName_Relationship>
primary

> <TS_Description>
single chemical compound

> <ChemNote>
stereochem

> <STRUCTURE_Shown>
tested chemical

> <STRUCTURE_Formula>
C21H21FN2O4S

> <STRUCTURE_MW>
416.4658

> <STRUCTURE_ChemType>
defined organic

> <STRUCTURE_DefinedOrganicForm>
parent

> <STRUCTURE_IUPAC>
3-[(3R)-3-{[(4-fluorophenyl)sulfonyl]amino}-1,2,3,4-tetrahydro-9H-carbazol-9-yl]propanoic acid

> <STRUCTURE_SMILES>
Fc1ccc(cc1)S(=O)(=O)N[C@H]3Cc4c2ccccc2n(CCC(=O)O)c4CC3

> <STRUCTURE_SMILES_Desalt>
Fc1ccc(cc1)S(=O)(=O)N[C@H]3Cc4c2ccccc2n(CCC(=O)O)c4CC3

> <Substance_modify_yyyymmdd>
20110805

$$$$
