1166-52-5
ChemmineR-0915142007XD

 24 24  0  0  0  0  0  0  0  0  1 V2000
    4.5848    0.0000    0.0000 O   0  0  0  0  0  0  0  0  0  0  0  0
    4.5848   -1.3072    0.0000 C   0  0  0  0  0  0  0  0  0  0  0  0
    3.4337   -1.9900    0.0000 C   0  0  0  0  0  0  0  0  0  0  0  0
    2.2827   -1.3072    0.0000 C   0  0  0  0  0  0  0  0  0  0  0  0
    1.1316   -1.9900    0.0000 C   0  0  0  0  0  0  0  0  0  0  0  0
    1.1316   -3.3167    0.0000 C   0  0  0  0  0  0  0  0  0  0  0  0
    2.2827   -3.9605    0.0000 C   0  0  0  0  0  0  0  0  0  0  0  0
    3.4337   -3.3167    0.0000 C   0  0  0  0  0  0  0  0  0  0  0  0
    2.2827   -5.2872    0.0000 O   0  0  0  0  0  0  0  0  0  0  0  0
    0.0000   -3.9605    0.0000 O   0  0  0  0  0  0  0  0  0  0  0  0
    0.0000   -1.3072    0.0000 O   0  0  0  0  0  0  0  0  0  0  0  0
    5.7164   -1.9705    0.0000 O   0  0  0  0  0  0  0  0  0  0  0  0
    6.8675   -1.2877    0.0000 C   0  0  0  0  0  0  0  0  0  0  0  0
    8.0186   -1.9705    0.0000 C   0  0  0  0  0  0  0  0  0  0  0  0
    9.1697   -1.2877    0.0000 C   0  0  0  0  0  0  0  0  0  0  0  0
   10.3208   -1.9900    0.0000 C   0  0  0  0  0  0  0  0  0  0  0  0
   11.4718   -1.3072    0.0000 C   0  0  0  0  0  0  0  0  0  0  0  0
   12.6034   -1.9900    0.0000 C   0  0  0  0  0  0  0  0  0  0  0  0
   13.7545   -1.3072    0.0000 C   0  0  0  0  0  0  0  0  0  0  0  0
   14.9251   -1.9705    0.0000 C   0  0  0  0  0  0  0  0  0  0  0  0
   16.0762   -1.2877    0.0000 C   0  0  0  0  0  0  0  0  0  0  0  0
   17.2078   -1.9900    0.0000 C   0  0  0  0  0  0  0  0  0  0  0  0
   18.3784   -1.3072    0.0000 C   0  0  0  0  0  0  0  0  0  0  0  0
   19.5099   -1.9705    0.0000 C   0  0  0  0  0  0  0  0  0  0  0  0
  1  2  2  0  0  0  0
  2  3  1  0  0  0  0
  2 12  1  0  0  0  0
  3  4  2  0  0  0  0
  3  8  1  0  0  0  0
  4  5  1  0  0  0  0
  5  6  2  0  0  0  0
  5 11  1  0  0  0  0
  6  7  1  0  0  0  0
  6 10  1  0  0  0  0
  7  8  2  0  0  0  0
  7  9  1  0  0  0  0
 12 13  1  0  0  0  0
 13 14  1  0  0  0  0
 14 15  1  0  0  0  0
 15 16  1  0  0  0  0
 16 17  1  0  0  0  0
 17 18  1  0  0  0  0
 18 19  1  0  0  0  0
 19 20  1  0  0  0  0
 20 21  1  0  0  0  0
 21 22  1  0  0  0  0
 22 23  1  0  0  0  0
 23 24  1  0  0  0  0
M  END
> <ID>
13251

> <Formula>
C19H30O5

> <FW>
338.4385

> <DSSTox_CID>
28164

> <DSSTox_RID>
82725

> <DSSTox_GSID>
48189

> <DSSTox_FileID_Sort>
7402

> <TS_ChemName>
Dodecyl gallate

> <TS_ChemName_Synonyms>


> <TS_CASRN>
1166-52-5

> <CASRN_ChemName_Relationship>
primary

> <TS_Description>
single chemical compound

> <ChemNote>


> <STRUCTURE_Shown>
tested chemical

> <STRUCTURE_Formula>
C19H30O5

> <STRUCTURE_MW>
338.4385

> <STRUCTURE_ChemType>
defined organic

> <STRUCTURE_DefinedOrganicForm>
parent

> <STRUCTURE_IUPAC>
dodecyl 3,4,5-trihydroxybenzoate

> <STRUCTURE_SMILES>
Oc1cc(cc(O)c1O)C(=O)OCCCCCCCCCCCC

> <STRUCTURE_SMILES_Desalt>
Oc1cc(cc(O)c1O)C(=O)OCCCCCCCCCCCC

> <Substance_modify_yyyymmdd>
20110630

$$$$
