116666-63-8
ChemmineR-0915142007XD

 38 39  0  0  1  0  0  0  0  0  1 V2000
   14.4779   -1.3455    0.0000 C    0  0  0  0  0  0  0  0  0  0  0  0
   14.4779   -2.6731    0.0000 C    0  0  0  0  0  0  0  0  0  0  0  0
   13.3297   -0.6817    0.0000 C    0  0  0  0  0  0  0  0  0  0  0  0
   13.3297   -3.3369    0.0000 C    0  0  0  0  0  0  0  0  0  0  0  0
   12.1636   -1.3455    0.0000 C    0  0  0  0  0  0  0  0  0  0  0  0
   12.1636   -2.6731    0.0000 C    0  0  0  0  0  0  0  0  0  0  0  0
   15.6261   -0.6817    0.0000 C    0  0  0  0  0  0  0  0  0  0  0  0
   16.7922   -1.3455    0.0000 C    0  0  0  0  0  0  0  0  0  0  0  0
   15.6261   -3.3369    0.0000 C    0  0  0  0  0  0  0  0  0  0  0  0
   16.7922   -2.6731    0.0000 C    0  0  0  0  0  0  0  0  0  0  0  0
   13.3297   -4.6645    0.0000 C    0  0  0  0  0  0  0  0  0  0  0  0
   12.1636   -5.3283    0.0000 C    0  0  0  0  0  0  0  0  0  0  0  0
   14.4779   -5.3462    0.0000 C    0  0  0  0  0  0  0  0  0  0  0  0
   17.9404   -0.6817    0.0000 F    0  0  0  0  0  0  0  0  0  0  0  0
   11.0154   -3.3369    0.0000 C    0  0  0  0  0  0  0  0  0  0  0  0
    2.0093   -3.7854    0.0000 C    0  0  0  0  0  0  0  0  0  0  0  0
    2.6552   -4.9336    0.0000 C    0  0  0  0  0  0  0  0  0  0  0  0
    0.6817   -3.7854    0.0000 C    0  0  0  0  0  0  0  0  0  0  0  0
    1.9914   -6.0818    0.0000 C    0  0  0  0  0  0  0  0  0  0  0  0
    0.0000   -4.9336    0.0000 C    0  0  0  0  0  0  0  0  0  0  0  0
    0.6638   -6.0818    0.0000 C    0  0  0  0  0  0  0  0  0  0  0  0
    2.8884   -2.7987    0.0000 N    0  0  0  0  0  0  0  0  0  0  0  0
    4.1083   -3.3369    0.0000 C    0  0  0  0  0  0  0  0  0  0  0  0
    3.9648   -4.6466    0.0000 N    0  0  0  0  0  0  0  0  0  0  0  0
    5.2565   -2.6731    0.0000 C    0  0  0  0  0  0  0  0  0  0  0  0
    6.4047   -3.3369    0.0000 C    0  0  0  0  0  0  0  0  0  0  0  0
    7.5708   -2.6731    0.0000 C    0  0  0  0  0  0  0  0  0  0  0  0
    8.7011   -3.3369    0.0000 N    0  0  0  0  0  0  0  0  0  0  0  0
    9.8672   -2.6731    0.0000 C    0  0  0  0  0  0  0  0  0  0  0  0
    8.7011   -4.6645    0.0000 C    0  0  0  0  0  0  0  0  0  0  0  0
   11.0154   -2.0093    0.0000 O    0  0  0  0  0  0  0  0  0  0  0  0
   11.0154   -0.6817    0.0000 C    0  0  0  0  0  0  0  0  0  0  0  0
   12.1636    0.0000    0.0000 O    0  0  0  0  0  0  0  0  0  0  0  0
    9.8672   -0.0179    0.0000 C    0  0  0  0  0  0  0  0  0  0  0  0
    8.7011   -0.6817    0.0000 O    0  0  0  0  0  0  0  0  0  0  0  0
    7.5529   -0.0179    0.0000 C    0  0  0  0  0  0  0  0  0  0  0  0
    6.3688   -6.5124    0.0000 Cl   0  0  0  0  0  0  0  0  0  0  0  0
    8.7190   -6.5124    0.0000 Cl   0  0  0  0  0  0  0  0  0  0  0  0
  1  3  1  0  0  0  0
  1  7  1  0  0  0  0
  1  2  2  0  0  0  0
  2  4  1  0  0  0  0
  2  9  1  0  0  0  0
  3  5  1  0  0  0  0
  4  6  1  0  0  0  0
  4 11  1  6  0  0  0
  5  6  1  0  0  0  0
  6 15  1  1  0  0  0
  6 31  1  6  0  0  0
  7  8  2  0  0  0  0
  8 10  1  0  0  0  0
  8 14  1  0  0  0  0
  9 10  2  0  0  0  0
 11 12  1  0  0  0  0
 11 13  1  0  0  0  0
 15 29  1  0  0  0  0
 16 18  1  0  0  0  0
 16 22  1  0  0  0  0
 16 17  2  0  0  0  0
 17 19  1  0  0  0  0
 17 24  1  0  0  0  0
 18 20  2  0  0  0  0
 19 21  2  0  0  0  0
 20 21  1  0  0  0  0
 22 23  1  0  0  0  0
 23 24  2  0  0  0  0
 23 25  1  0  0  0  0
 25 26  1  0  0  0  0
 26 27  1  0  0  0  0
 27 28  1  0  0  0  0
 28 29  1  0  0  0  0
 28 30  1  0  0  0  0
 31 32  1  0  0  0  0
 32 33  2  0  0  0  0
 32 34  1  0  0  0  0
 34 35  1  0  0  0  0
 35 36  1  0  0  0  0
M  END
> <ID>
9900

> <Formula>
C29H40Cl2FN3O3

> <FW>
568.5506 (495.6287+36.4609+36.4609)

> <DSSTox_CID>
24204

> <DSSTox_RID>
80117

> <DSSTox_GSID>
44204

> <DSSTox_FileID_Sort>
4799

> <TS_ChemName>
Mibefradil dihydrochloride

> <TS_ChemName_Synonyms>


> <TS_CASRN>
116666-63-8

> <CASRN_ChemName_Relationship>
primary

> <TS_Description>
single chemical compound

> <ChemNote>
parent [116644-53-2]

> <STRUCTURE_Shown>
tested chemical

> <STRUCTURE_Formula>
C29H40Cl2FN3O3

> <STRUCTURE_MW>
568.5506

> <STRUCTURE_ChemType>
defined organic

> <STRUCTURE_DefinedOrganicForm>
complex

> <STRUCTURE_IUPAC>
(1S,2S)-2-(2-{[3-(1H-benzimidazol-2-yl)propyl](methyl)amino}ethyl)-6-fluoro-1-(propan-2-yl)-1,2,3,4-tetrahydronaphthalen-2-yl methoxyacetate dihydrochloride

> <STRUCTURE_SMILES>
Cl.Cl.CC(C)[C@H]3c4ccc(F)cc4CC[C@]3(OC(=O)COC)CCN(C)CCCc1nc2ccccc2n1

> <STRUCTURE_SMILES_Desalt>
CC(C)[C@H]3c4ccc(F)cc4CC[C@]3(OC(=O)COC)CCN(C)CCCc1nc2ccccc2n1

> <Substance_modify_yyyymmdd>
20090302

$$$$
