1166-34-3
ChemmineR-0915142007XD

 24 25  0  0  0  0  0  0  0  0  1 V2000
   13.8142   -2.0055    0.0000 C   0  0  0  0  0  0  0  0  0  0  0  0
   13.8142   -3.3226    0.0000 N   0  0  0  0  0  0  0  0  0  0  0  0
   14.9667   -3.9961    0.0000 C   0  0  0  0  0  0  0  0  0  0  0  0
   12.6618   -3.9961    0.0000 C   0  0  0  0  0  0  0  0  0  0  0  0
   11.5094   -3.3226    0.0000 C   0  0  0  0  0  0  0  0  0  0  0  0
   10.3569   -3.9961    0.0000 C   0  0  0  0  0  0  0  0  0  0  0  0
    9.2045   -3.3226    0.0000 S   0  0  0  0  0  0  0  0  0  0  0  0
    8.0521   -3.9961    0.0000 C   0  0  0  0  0  0  0  0  0  0  0  0
    8.0521   -5.3281    0.0000 C   0  0  0  0  0  0  0  0  0  0  0  0
    6.9146   -5.9867    0.0000 C   0  0  0  0  0  0  0  0  0  0  0  0
    5.7622   -5.3281    0.0000 C   0  0  0  0  0  0  0  0  0  0  0  0
    5.7622   -3.9961    0.0000 C   0  0  0  0  0  0  0  0  0  0  0  0
    6.9146   -3.3226    0.0000 C   0  0  0  0  0  0  0  0  0  0  0  0
    6.9146   -2.0055    0.0000 N   0  0  0  0  0  0  0  0  0  0  0  0
    5.7622   -1.3320    0.0000 C   0  0  0  0  0  0  0  0  0  0  0  0
    5.7622    0.0000    0.0000 O   0  0  0  0  0  0  0  0  0  0  0  0
    4.6097   -2.0055    0.0000 C   0  0  0  0  0  0  0  0  0  0  0  0
    3.4573   -1.3320    0.0000 C   0  0  0  0  0  0  0  0  0  0  0  0
    2.3049   -2.0055    0.0000 C   0  0  0  0  0  0  0  0  0  0  0  0
    2.3049   -3.3226    0.0000 C   0  0  0  0  0  0  0  0  0  0  0  0
    1.1524   -3.9961    0.0000 C   0  0  0  0  0  0  0  0  0  0  0  0
    0.0000   -3.3226    0.0000 C   0  0  0  0  0  0  0  0  0  0  0  0
    0.0000   -2.0055    0.0000 C   0  0  0  0  0  0  0  0  0  0  0  0
    1.1524   -1.3320    0.0000 C   0  0  0  0  0  0  0  0  0  0  0  0
  1  2  1  0  0  0  0
  2  3  1  0  0  0  0
  2  4  1  0  0  0  0
  4  5  1  0  0  0  0
  5  6  1  0  0  0  0
  6  7  1  0  0  0  0
  7  8  1  0  0  0  0
  8  9  2  0  0  0  0
  8 13  1  0  0  0  0
  9 10  1  0  0  0  0
 10 11  2  0  0  0  0
 11 12  1  0  0  0  0
 12 13  2  0  0  0  0
 13 14  1  0  0  0  0
 14 15  1  0  0  0  0
 15 16  2  0  0  0  0
 15 17  1  0  0  0  0
 17 18  2  0  0  0  0
 18 19  1  0  0  0  0
 19 20  2  0  0  0  0
 19 24  1  0  0  0  0
 20 21  1  0  0  0  0
 21 22  2  0  0  0  0
 22 23  1  0  0  0  0
 23 24  2  0  0  0  0
M  END
> <ID>
11099

> <Formula>
C20H24N2OS

> <FW>
340.4824

> <DSSTox_CID>
25653

> <DSSTox_RID>
81031

> <DSSTox_GSID>
45653

> <DSSTox_FileID_Sort>
5712

> <TS_ChemName>
Cinanserin

> <TS_ChemName_Synonyms>


> <TS_CASRN>
1166-34-3

> <CASRN_ChemName_Relationship>
primary

> <TS_Description>
single chemical compound

> <ChemNote>
stereochem

> <STRUCTURE_Shown>
tested chemical

> <STRUCTURE_Formula>
C20H24N2OS

> <STRUCTURE_MW>
340.4824

> <STRUCTURE_ChemType>
defined organic

> <STRUCTURE_DefinedOrganicForm>
parent

> <STRUCTURE_IUPAC>
(2E)-N-(2-{[3-(dimethylamino)propyl]sulfanyl}phenyl)-3-phenylprop-2-enamide

> <STRUCTURE_SMILES>
CN(C)CCCSc2ccccc2NC(=O)/C=C/c1ccccc1

> <STRUCTURE_SMILES_Desalt>
CN(C)CCCSc2ccccc2NC(=O)/C=C/c1ccccc1

> <Substance_modify_yyyymmdd>
20100107

$$$$
