116714-46-6
ChemmineR-0915142007XD

 32 33  0  0  0  0  0  0  0  0  1 V2000
    3.4496   -2.4824    0.0000 C    0  0  0  0  0  0  0  0  0  0  0  0
   12.6539   -1.1445    0.0000 C    0  0  0  0  0  0  0  0  0  0  0  0
    4.5941   -3.1433    0.0000 N    0  0  0  0  0  0  0  0  0  0  0  0
    2.3051   -3.1433    0.0000 C    0  0  0  0  0  0  0  0  0  0  0  0
    5.7547   -2.4824    0.0000 C    0  0  0  0  0  0  0  0  0  0  0  0
   13.8145   -3.1433    0.0000 O    0  0  0  0  0  0  0  0  0  0  0  0
   14.9590   -3.8042    0.0000 C    0  0  0  0  0  0  0  0  0  0  0  0
   13.8145   -1.8054    0.0000 C    0  0  0  0  0  0  0  0  0  0  0  0
   11.5255   -0.4836    0.0000 O    0  0  0  0  0  0  0  0  0  0  0  0
   10.3649   -1.1445    0.0000 C    0  0  0  0  0  0  0  0  0  0  0  0
   10.3649   -2.4824    0.0000 C    0  0  0  0  0  0  0  0  0  0  0  0
    6.8992   -3.1433    0.0000 N    0  0  0  0  0  0  0  0  0  0  0  0
    9.2204   -3.1433    0.0000 C    0  0  0  0  0  0  0  0  0  0  0  0
    3.4496   -1.1445    0.0000 O    0  0  0  0  0  0  0  0  0  0  0  0
    2.3051   -4.4651    0.0000 C    0  0  0  0  0  0  0  0  0  0  0  0
    1.1606   -2.4824    0.0000 C    0  0  0  0  0  0  0  0  0  0  0  0
    8.0598   -2.4824    0.0000 C    0  0  0  0  0  0  0  0  0  0  0  0
    5.7547   -1.1445    0.0000 O    0  0  0  0  0  0  0  0  0  0  0  0
   12.0091   -2.3051    0.0000 F    0  0  0  0  0  0  0  0  0  0  0  0
   13.3309    0.0000    0.0000 F    0  0  0  0  0  0  0  0  0  0  0  0
    9.2204   -0.4836    0.0000 C    0  0  0  0  0  0  0  0  0  0  0  0
   14.3142   -4.9648    0.0000 F    0  0  0  0  0  0  0  0  0  0  0  0
   15.6360   -2.6597    0.0000 F    0  0  0  0  0  0  0  0  0  0  0  0
   16.1196   -4.4651    0.0000 F    0  0  0  0  0  0  0  0  0  0  0  0
   14.9590   -1.1445    0.0000 F    0  0  0  0  0  0  0  0  0  0  0  0
   11.5255   -3.1433    0.0000 Cl   0  0  0  0  0  0  0  0  0  0  0  0
    8.0598   -1.1445    0.0000 C    0  0  0  0  0  0  0  0  0  0  0  0
    1.1606   -1.1445    0.0000 F    0  0  0  0  0  0  0  0  0  0  0  0
    3.4496   -5.1421    0.0000 F    0  0  0  0  0  0  0  0  0  0  0  0
    0.0000   -4.4651    0.0000 C    0  0  0  0  0  0  0  0  0  0  0  0
    1.1606   -5.1421    0.0000 C    0  0  0  0  0  0  0  0  0  0  0  0
    0.0000   -3.1433    0.0000 C    0  0  0  0  0  0  0  0  0  0  0  0
  1  3  1  0  0  0  0
  1  4  1  0  0  0  0
  1 14  2  0  0  0  0
  2  9  1  0  0  0  0
  2  8  1  0  0  0  0
  2 19  1  0  0  0  0
  2 20  1  0  0  0  0
  3  5  1  0  0  0  0
  4 15  1  0  0  0  0
  4 16  2  0  0  0  0
  5 12  1  0  0  0  0
  5 18  2  0  0  0  0
  6  8  1  0  0  0  0
  6  7  1  0  0  0  0
  7 22  1  0  0  0  0
  7 23  1  0  0  0  0
  7 24  1  0  0  0  0
  8 25  1  0  0  0  0
  9 10  1  0  0  0  0
 10 21  1  0  0  0  0
 10 11  2  0  0  0  0
 11 13  1  0  0  0  0
 11 26  1  0  0  0  0
 12 17  1  0  0  0  0
 13 17  2  0  0  0  0
 15 29  1  0  0  0  0
 15 31  2  0  0  0  0
 16 28  1  0  0  0  0
 16 32  1  0  0  0  0
 17 27  1  0  0  0  0
 21 27  2  0  0  0  0
 30 31  1  0  0  0  0
 30 32  2  0  0  0  0
M  END
> <ID>
6905

> <Formula>
C17H9ClF8N2O4

> <FW>
492.7046

> <DSSTox_CID>
14773

> <DSSTox_RID>
79201

> <DSSTox_GSID>
34773

> <DSSTox_FileID_Sort>
3883

> <TS_ChemName>
Novaluron

> <TS_ChemName_Synonyms>
Novaluron (Benzamide, N-[[[3-chloro-4-[1,1,2-trifluoro-2-(trifluoromethoxy)ethoxy]phenyl]amino]carbonyl]-2,6-difluoro-)

> <TS_CASRN>
116714-46-6

> <CASRN_ChemName_Relationship>
primary

> <TS_Description>
single chemical compound

> <ChemNote>


> <STRUCTURE_Shown>
tested chemical

> <STRUCTURE_Formula>
C17H9ClF8N2O4

> <STRUCTURE_MW>
492.7046

> <STRUCTURE_ChemType>
defined organic

> <STRUCTURE_DefinedOrganicForm>
parent

> <STRUCTURE_IUPAC>
N-({3-chloro-4-[1,1,2-trifluoro-2-(trifluoromethoxy)ethoxy]phenyl}carbamoyl)-2,6-difluorobenzamide

> <STRUCTURE_SMILES>
Clc1cc(ccc1OC(F)(F)C(F)OC(F)(F)F)NC(=O)NC(=O)c2c(F)cccc2F

> <STRUCTURE_SMILES_Desalt>
Clc1cc(ccc1OC(F)(F)C(F)OC(F)(F)F)NC(=O)NC(=O)c2c(F)cccc2F

> <Substance_modify_yyyymmdd>
20080429

$$$$
