116861-00-8
ChemmineR-0915142007XD

 20 21  0  0  0  0  0  0  0  0  1 V2000
    9.2236   -0.6744    0.0000 C   0  0  0  0  0  0  0  0  0  0  0  0
    9.2236   -2.0128    0.0000 C   0  0  0  0  0  0  0  0  0  0  0  0
   10.3753   -2.6664    0.0000 C   0  0  0  0  0  0  0  0  0  0  0  0
    8.0616   -2.6664    0.0000 N   0  0  0  0  0  0  0  0  0  0  0  0
    6.9307   -2.0128    0.0000 C   0  0  0  0  0  0  0  0  0  0  0  0
    5.7686   -2.6664    0.0000 C   0  0  0  0  0  0  0  0  0  0  0  0
    5.7686   -3.9945    0.0000 O   0  0  0  0  0  0  0  0  0  0  0  0
    4.6170   -2.0128    0.0000 C   0  0  0  0  0  0  0  0  0  0  0  0
    3.4653   -2.6664    0.0000 O   0  0  0  0  0  0  0  0  0  0  0  0
    2.3137   -2.0128    0.0000 C   0  0  0  0  0  0  0  0  0  0  0  0
    2.3137   -0.6744    0.0000 C   0  0  0  0  0  0  0  0  0  0  0  0
    1.1517    0.0000    0.0000 C   0  0  0  0  0  0  0  0  0  0  0  0
    0.0000   -0.6744    0.0000 C   0  0  0  0  0  0  0  0  0  0  0  0
    0.0000   -2.0128    0.0000 C   0  0  0  0  0  0  0  0  0  0  0  0
    1.1517   -2.6664    0.0000 C   0  0  0  0  0  0  0  0  0  0  0  0
    1.1517   -3.9945    0.0000 N   0  0  0  0  0  0  0  0  0  0  0  0
    0.0830   -4.7830    0.0000 C   0  0  0  0  0  0  0  0  0  0  0  0
    0.4980   -6.0488    0.0000 C   0  0  0  0  0  0  0  0  0  0  0  0
    1.8260   -6.0488    0.0000 C   0  0  0  0  0  0  0  0  0  0  0  0
    2.2307   -4.7830    0.0000 C   0  0  0  0  0  0  0  0  0  0  0  0
  1  2  1  0  0  0  0
  2  3  1  0  0  0  0
  2  4  1  0  0  0  0
  4  5  1  0  0  0  0
  5  6  1  0  0  0  0
  6  7  1  0  0  0  0
  6  8  1  0  0  0  0
  8  9  1  0  0  0  0
  9 10  1  0  0  0  0
 10 11  2  0  0  0  0
 10 15  1  0  0  0  0
 11 12  1  0  0  0  0
 12 13  2  0  0  0  0
 13 14  1  0  0  0  0
 14 15  2  0  0  0  0
 15 16  1  0  0  0  0
 16 17  1  0  0  0  0
 16 20  1  0  0  0  0
 17 18  2  0  0  0  0
 18 19  1  0  0  0  0
 19 20  2  0  0  0  0
M  END
> <ID>
11114

> <Formula>
C16H22N2O2

> <FW>
274.3581

> <DSSTox_CID>
25671

> <DSSTox_RID>
81046

> <DSSTox_GSID>
45671

> <DSSTox_FileID_Sort>
5727

> <TS_ChemName>
Isamoltan

> <TS_ChemName_Synonyms>


> <TS_CASRN>
116861-00-8

> <CASRN_ChemName_Relationship>
primary

> <TS_Description>
single chemical compound

> <ChemNote>


> <STRUCTURE_Shown>
tested chemical

> <STRUCTURE_Formula>
C16H22N2O2

> <STRUCTURE_MW>
274.3581

> <STRUCTURE_ChemType>
defined organic

> <STRUCTURE_DefinedOrganicForm>
parent

> <STRUCTURE_IUPAC>
1-(propan-2-ylamino)-3-[2-(1H-pyrrol-1-yl)phenoxy]propan-2-ol

> <STRUCTURE_SMILES>
CC(C)NCC(O)COc1ccccc1n2cccc2

> <STRUCTURE_SMILES_Desalt>
CC(C)NCC(O)COc1ccccc1n2cccc2

> <Substance_modify_yyyymmdd>
20100107

$$$$
