117-08-8
ChemmineR-0915142007XD

 15 16  0  0  0  0  0  0  0  0  1 V2000
    0.3686   -5.0013    0.0000 O    0  0  0  0  0  0  0  0  0  0  0  0
    0.7813   -3.7359    0.0000 C    0  0  0  0  0  0  0  0  0  0  0  0
    0.0000   -2.6630    0.0000 O    0  0  0  0  0  0  0  0  0  0  0  0
    0.7813   -1.5846    0.0000 C    0  0  0  0  0  0  0  0  0  0  0  0
    0.3686   -0.3191    0.0000 O    0  0  0  0  0  0  0  0  0  0  0  0
    2.0468   -1.9972    0.0000 C    0  0  0  0  0  0  0  0  0  0  0  0
    3.1967   -1.3315    0.0000 C    0  0  0  0  0  0  0  0  0  0  0  0
    4.3521   -1.9972    0.0000 C    0  0  0  0  0  0  0  0  0  0  0  0
    4.3521   -3.3232    0.0000 C    0  0  0  0  0  0  0  0  0  0  0  0
    3.1967   -3.9890    0.0000 C    0  0  0  0  0  0  0  0  0  0  0  0
    3.1967   -5.3205    0.0000 Cl   0  0  0  0  0  0  0  0  0  0  0  0
    5.5020   -3.9890    0.0000 Cl   0  0  0  0  0  0  0  0  0  0  0  0
    5.5020   -1.3315    0.0000 Cl   0  0  0  0  0  0  0  0  0  0  0  0
    3.1967    0.0000    0.0000 Cl   0  0  0  0  0  0  0  0  0  0  0  0
    2.0468   -3.3232    0.0000 C    0  0  0  0  0  0  0  0  0  0  0  0
  1  2  2  0  0  0  0
  2  3  1  0  0  0  0
  2 15  1  0  0  0  0
  3  4  1  0  0  0  0
  4  5  2  0  0  0  0
  4  6  1  0  0  0  0
  6  7  2  0  0  0  0
  6 15  1  0  0  0  0
  7  8  1  0  0  0  0
  7 14  1  0  0  0  0
  8  9  2  0  0  0  0
  8 13  1  0  0  0  0
  9 10  1  0  0  0  0
  9 12  1  0  0  0  0
 10 11  1  0  0  0  0
 10 15  2  0  0  0  0
M  END
> <ID>
4545

> <Formula>
C8Cl4O3

> <FW>
285.8958

> <DSSTox_CID>
6102

> <DSSTox_RID>
78018

> <DSSTox_GSID>
26102

> <DSSTox_FileID_Sort>
2701

> <TS_ChemName>
Tetrachlorophthalic anhydride

> <TS_ChemName_Synonyms>
Tetrachlorophthalic anhydride (1,3-Isobenzofurandione, 4,5,6,7-tetrachloro-)

> <TS_CASRN>
117-08-8

> <CASRN_ChemName_Relationship>
primary

> <TS_Description>
single chemical compound

> <ChemNote>


> <STRUCTURE_Shown>
tested chemical

> <STRUCTURE_Formula>
C8Cl4O3

> <STRUCTURE_MW>
285.8958

> <STRUCTURE_ChemType>
defined organic

> <STRUCTURE_DefinedOrganicForm>
parent

> <STRUCTURE_IUPAC>
4,5,6,7-tetrachloro-2-benzofuran-1,3-dione

> <STRUCTURE_SMILES>
O=C1OC(=O)c2c1c(Cl)c(Cl)c(Cl)c2Cl

> <STRUCTURE_SMILES_Desalt>
O=C1OC(=O)c2c1c(Cl)c(Cl)c(Cl)c2Cl

> <Substance_modify_yyyymmdd>
20080429

$$$$
