117-79-3
ChemmineR-0915142007XD

 17 19  0  0  0  0  0  0  0  0  1 V2000
    3.3283    0.0000    0.0000 O   0  0  0  0  0  0  0  0  0  0  0  0
    3.9907   -1.1493    0.0000 C   0  0  0  0  0  0  0  0  0  0  0  0
    3.3283   -2.2987    0.0000 C   0  0  0  0  0  0  0  0  0  0  0  0
    1.9954   -2.2987    0.0000 C   0  0  0  0  0  0  0  0  0  0  0  0
    1.3329   -3.4560    0.0000 C   0  0  0  0  0  0  0  0  0  0  0  0
    1.9954   -4.6053    0.0000 C   0  0  0  0  0  0  0  0  0  0  0  0
    3.3283   -4.6053    0.0000 C   0  0  0  0  0  0  0  0  0  0  0  0
    3.9907   -3.4560    0.0000 C   0  0  0  0  0  0  0  0  0  0  0  0
    5.3236   -3.4560    0.0000 C   0  0  0  0  0  0  0  0  0  0  0  0
    5.9861   -4.6053    0.0000 O   0  0  0  0  0  0  0  0  0  0  0  0
    5.9861   -2.2987    0.0000 C   0  0  0  0  0  0  0  0  0  0  0  0
    5.3236   -1.1493    0.0000 C   0  0  0  0  0  0  0  0  0  0  0  0
    5.9861    0.0000    0.0000 C   0  0  0  0  0  0  0  0  0  0  0  0
    7.3190    0.0000    0.0000 C   0  0  0  0  0  0  0  0  0  0  0  0
    7.9814   -1.1493    0.0000 C   0  0  0  0  0  0  0  0  0  0  0  0
    7.3190   -2.2987    0.0000 C   0  0  0  0  0  0  0  0  0  0  0  0
    0.0000   -3.4560    0.0000 N   0  0  0  0  0  0  0  0  0  0  0  0
  1  2  2  0  0  0  0
  2  3  1  0  0  0  0
  2 12  1  0  0  0  0
  3  4  2  0  0  0  0
  3  8  1  0  0  0  0
  4  5  1  0  0  0  0
  5  6  2  0  0  0  0
  5 17  1  0  0  0  0
  6  7  1  0  0  0  0
  7  8  2  0  0  0  0
  8  9  1  0  0  0  0
  9 10  2  0  0  0  0
  9 11  1  0  0  0  0
 11 12  2  0  0  0  0
 11 16  1  0  0  0  0
 12 13  1  0  0  0  0
 13 14  2  0  0  0  0
 14 15  1  0  0  0  0
 15 16  2  0  0  0  0
M  END
> <ID>
67

> <Formula>
C14H9NO2

> <FW>
223.2268

> <DSSTox_CID>
68

> <DSSTox_RID>
75345

> <DSSTox_GSID>
20068

> <DSSTox_FileID_Sort>
29

> <TS_ChemName>
2-Aminoanthraquinone

> <TS_ChemName_Synonyms>


> <TS_CASRN>
117-79-3

> <CASRN_ChemName_Relationship>
primary

> <TS_Description>
single chemical compound

> <ChemNote>


> <STRUCTURE_Shown>
tested chemical

> <STRUCTURE_Formula>
C14H9NO2

> <STRUCTURE_MW>
223.2268

> <STRUCTURE_ChemType>
defined organic

> <STRUCTURE_DefinedOrganicForm>
parent

> <STRUCTURE_IUPAC>
2-aminoanthracene-9,10-dione

> <STRUCTURE_SMILES>
Nc2ccc3C(=O)c1ccccc1C(=O)c3c2

> <STRUCTURE_SMILES_Desalt>
Nc2ccc3C(=O)c1ccccc1C(=O)c3c2

> <Substance_modify_yyyymmdd>
20080429

$$$$
