117-39-5
ChemmineR-0915142007XD

 22 24  0  0  0  0  0  0  0  0  1 V2000
    4.6008    0.0000    0.0000 O   0  0  0  0  0  0  0  0  0  0  0  0
    4.6008   -1.3264    0.0000 C   0  0  0  0  0  0  0  0  0  0  0  0
    3.4506   -1.9895    0.0000 C   0  0  0  0  0  0  0  0  0  0  0  0
    3.4506   -3.3159    0.0000 C   0  0  0  0  0  0  0  0  0  0  0  0
    2.3004   -3.9894    0.0000 C   0  0  0  0  0  0  0  0  0  0  0  0
    1.1502   -3.3159    0.0000 C   0  0  0  0  0  0  0  0  0  0  0  0
    1.1502   -1.9895    0.0000 C   0  0  0  0  0  0  0  0  0  0  0  0
    2.3004   -1.3264    0.0000 C   0  0  0  0  0  0  0  0  0  0  0  0
    2.3004    0.0000    0.0000 O   0  0  0  0  0  0  0  0  0  0  0  0
    0.0000   -3.9894    0.0000 O   0  0  0  0  0  0  0  0  0  0  0  0
    4.6008   -3.9894    0.0000 O   0  0  0  0  0  0  0  0  0  0  0  0
    5.7614   -3.3159    0.0000 C   0  0  0  0  0  0  0  0  0  0  0  0
    5.7614   -1.9895    0.0000 C   0  0  0  0  0  0  0  0  0  0  0  0
    6.9115   -1.3264    0.0000 O   0  0  0  0  0  0  0  0  0  0  0  0
    6.9115   -3.9894    0.0000 C   0  0  0  0  0  0  0  0  0  0  0  0
    8.0617   -3.3159    0.0000 C   0  0  0  0  0  0  0  0  0  0  0  0
    9.2119   -3.9894    0.0000 C   0  0  0  0  0  0  0  0  0  0  0  0
    9.2119   -5.3158    0.0000 C   0  0  0  0  0  0  0  0  0  0  0  0
    8.0617   -5.9790    0.0000 C   0  0  0  0  0  0  0  0  0  0  0  0
    6.9115   -5.3158    0.0000 C   0  0  0  0  0  0  0  0  0  0  0  0
   10.3621   -5.9790    0.0000 O   0  0  0  0  0  0  0  0  0  0  0  0
   10.3621   -3.3159    0.0000 O   0  0  0  0  0  0  0  0  0  0  0  0
  1  2  2  0  0  0  0
  2  3  1  0  0  0  0
  2 13  1  0  0  0  0
  3  4  2  0  0  0  0
  3  8  1  0  0  0  0
  4  5  1  0  0  0  0
  4 11  1  0  0  0  0
  5  6  2  0  0  0  0
  6  7  1  0  0  0  0
  6 10  1  0  0  0  0
  7  8  2  0  0  0  0
  8  9  1  0  0  0  0
 11 12  1  0  0  0  0
 12 13  2  0  0  0  0
 12 15  1  0  0  0  0
 13 14  1  0  0  0  0
 15 16  2  0  0  0  0
 15 20  1  0  0  0  0
 16 17  1  0  0  0  0
 17 18  2  0  0  0  0
 17 22  1  0  0  0  0
 18 19  1  0  0  0  0
 18 21  1  0  0  0  0
 19 20  2  0  0  0  0
M  END
> <ID>
1172

> <Formula>
C15H10O7

> <FW>
302.2357

> <DSSTox_CID>
1218

> <DSSTox_RID>
76017

> <DSSTox_GSID>
21218

> <DSSTox_FileID_Sort>
701

> <TS_ChemName>
Quercetin

> <TS_ChemName_Synonyms>


> <TS_CASRN>
117-39-5

> <CASRN_ChemName_Relationship>
primary

> <TS_Description>
single chemical compound

> <ChemNote>


> <STRUCTURE_Shown>
tested chemical

> <STRUCTURE_Formula>
C15H10O7

> <STRUCTURE_MW>
302.2357

> <STRUCTURE_ChemType>
defined organic

> <STRUCTURE_DefinedOrganicForm>
parent

> <STRUCTURE_IUPAC>
2-(3,4-dihydroxyphenyl)-3,5,7-trihydroxy-4H-chromen-4-one

> <STRUCTURE_SMILES>
Oc1ccc(cc1O)C=3Oc2cc(O)cc(O)c2C(=O)C=3O

> <STRUCTURE_SMILES_Desalt>
Oc1ccc(cc1O)C=3Oc2cc(O)cc(O)c2C(=O)C=3O

> <Substance_modify_yyyymmdd>
20080429

$$$$
