117-18-0
ChemmineR-0915142007XD

 13 13  0  0  0  0  0  0  0  0  2 V2000
    0.6656   -2.3041    0.0000 N    0  3  0  0  0  0  0  0  0  0  0  0
    0.0000   -3.4585    0.0000 O    0  0  0  0  0  0  0  0  0  0  0  0
    0.0000   -1.1544    0.0000 O    0  5  0  0  0  0  0  0  0  0  0  0
    1.9969   -2.3041    0.0000 C    0  0  0  0  0  0  0  0  0  0  0  0
    2.6579   -1.1544    0.0000 C    0  0  0  0  0  0  0  0  0  0  0  0
    1.9969    0.0000    0.0000 Cl   0  0  0  0  0  0  0  0  0  0  0  0
    3.9892   -1.1544    0.0000 C    0  0  0  0  0  0  0  0  0  0  0  0
    4.6548    0.0000    0.0000 Cl   0  0  0  0  0  0  0  0  0  0  0  0
    4.6548   -2.3041    0.0000 C    0  0  0  0  0  0  0  0  0  0  0  0
    3.9892   -3.4585    0.0000 C    0  0  0  0  0  0  0  0  0  0  0  0
    4.6548   -4.6083    0.0000 Cl   0  0  0  0  0  0  0  0  0  0  0  0
    2.6579   -3.4585    0.0000 C    0  0  0  0  0  0  0  0  0  0  0  0
    1.9969   -4.6083    0.0000 Cl   0  0  0  0  0  0  0  0  0  0  0  0
  1  2  2  0  0  0  0
  1  3  1  0  0  0  0
  1  4  1  0  0  0  0
  4  5  2  0  0  0  0
  4 12  1  0  0  0  0
  5  6  1  0  0  0  0
  5  7  1  0  0  0  0
  7  8  1  0  0  0  0
  7  9  2  0  0  0  0
  9 10  1  0  0  0  0
 10 11  1  0  0  0  0
 10 12  2  0  0  0  0
 12 13  1  0  0  0  0
M  END
> <ID>
4543

> <Formula>
C6HCl4NO2

> <FW>
260.8896

> <DSSTox_CID>
6098

> <DSSTox_RID>
78016

> <DSSTox_GSID>
26098

> <DSSTox_FileID_Sort>
2699

> <TS_ChemName>
2,3,5,6-Tetrachloronitrobenzene

> <TS_ChemName_Synonyms>
2,3,5,6-Tetrachloronitrobenzene (Tecnazene)

> <TS_CASRN>
117-18-0

> <CASRN_ChemName_Relationship>
primary

> <TS_Description>
single chemical compound

> <ChemNote>


> <STRUCTURE_Shown>
tested chemical

> <STRUCTURE_Formula>
C6HCl4NO2

> <STRUCTURE_MW>
260.8896

> <STRUCTURE_ChemType>
defined organic

> <STRUCTURE_DefinedOrganicForm>
parent

> <STRUCTURE_IUPAC>
1,2,4,5-tetrachloro-3-nitrobenzene

> <STRUCTURE_SMILES>
Clc1c([N+]([O-])=O)c(Cl)c(Cl)cc1Cl

> <STRUCTURE_SMILES_Desalt>
Clc1c([N+]([O-])=O)c(Cl)c(Cl)cc1Cl

> <Substance_modify_yyyymmdd>
20080429

$$$$
