117-83-9
ChemmineR-0915142007XD

 26 26  0  0  0  0  0  0  0  0  1 V2000
    2.3091   -2.0046    0.0000 C   0  0  0  0  0  0  0  0  0  0  0  0
    2.3091   -3.3367    0.0000 C   0  0  0  0  0  0  0  0  0  0  0  0
    1.1545   -1.3322    0.0000 C   0  0  0  0  0  0  0  0  0  0  0  0
    1.1545   -3.9965    0.0000 C   0  0  0  0  0  0  0  0  0  0  0  0
    0.0000   -2.0046    0.0000 C   0  0  0  0  0  0  0  0  0  0  0  0
    0.0000   -3.3367    0.0000 C   0  0  0  0  0  0  0  0  0  0  0  0
    3.4636   -1.3322    0.0000 C   0  0  0  0  0  0  0  0  0  0  0  0
    4.6182   -1.9919    0.0000 O   0  0  0  0  0  0  0  0  0  0  0  0
    3.4636    0.0000    0.0000 O   0  0  0  0  0  0  0  0  0  0  0  0
    3.4636   -3.9965    0.0000 C   0  0  0  0  0  0  0  0  0  0  0  0
    3.4636   -5.3286    0.0000 O   0  0  0  0  0  0  0  0  0  0  0  0
    4.6182   -3.3367    0.0000 O   0  0  0  0  0  0  0  0  0  0  0  0
    5.7727   -1.3322    0.0000 C   0  0  0  0  0  0  0  0  0  0  0  0
    5.7727   -3.9965    0.0000 C   0  0  0  0  0  0  0  0  0  0  0  0
    6.9146   -1.9919    0.0000 C   0  0  0  0  0  0  0  0  0  0  0  0
    8.0691   -1.3322    0.0000 O   0  0  0  0  0  0  0  0  0  0  0  0
    9.2236   -1.9919    0.0000 C   0  0  0  0  0  0  0  0  0  0  0  0
   10.3782   -1.3322    0.0000 C   0  0  0  0  0  0  0  0  0  0  0  0
   11.5327   -1.9919    0.0000 C   0  0  0  0  0  0  0  0  0  0  0  0
   12.6873   -1.3322    0.0000 C   0  0  0  0  0  0  0  0  0  0  0  0
    6.9146   -3.3367    0.0000 C   0  0  0  0  0  0  0  0  0  0  0  0
    8.0691   -3.9965    0.0000 O   0  0  0  0  0  0  0  0  0  0  0  0
    9.2236   -3.3367    0.0000 C   0  0  0  0  0  0  0  0  0  0  0  0
   10.3782   -3.9965    0.0000 C   0  0  0  0  0  0  0  0  0  0  0  0
   11.5327   -3.3367    0.0000 C   0  0  0  0  0  0  0  0  0  0  0  0
   12.6873   -3.9965    0.0000 C   0  0  0  0  0  0  0  0  0  0  0  0
  1  2  1  0  0  0  0
  1  3  2  0  0  0  0
  1  7  1  0  0  0  0
  2  4  2  0  0  0  0
  2 10  1  0  0  0  0
  3  5  1  0  0  0  0
  4  6  1  0  0  0  0
  5  6  2  0  0  0  0
  7  8  1  0  0  0  0
  7  9  2  0  0  0  0
  8 13  1  0  0  0  0
 10 11  2  0  0  0  0
 10 12  1  0  0  0  0
 12 14  1  0  0  0  0
 13 15  1  0  0  0  0
 14 21  1  0  0  0  0
 15 16  1  0  0  0  0
 16 17  1  0  0  0  0
 17 18  1  0  0  0  0
 18 19  1  0  0  0  0
 19 20  1  0  0  0  0
 21 22  1  0  0  0  0
 22 23  1  0  0  0  0
 23 24  1  0  0  0  0
 24 25  1  0  0  0  0
 25 26  1  0  0  0  0
M  END
> <ID>
12321

> <Formula>
C20H30O6

> <FW>
366.4486

> <DSSTox_CID>
27174

> <DSSTox_RID>
82172

> <DSSTox_GSID>
47174

> <DSSTox_FileID_Sort>
6853

> <TS_ChemName>
Bis(2-butoxyethyl) phthalate

> <TS_ChemName_Synonyms>


> <TS_CASRN>
117-83-9

> <CASRN_ChemName_Relationship>
primary

> <TS_Description>
single chemical compound

> <ChemNote>


> <STRUCTURE_Shown>
tested chemical

> <STRUCTURE_Formula>
C20H30O6

> <STRUCTURE_MW>
366.4486

> <STRUCTURE_ChemType>
defined organic

> <STRUCTURE_DefinedOrganicForm>
parent

> <STRUCTURE_IUPAC>
bis(2-butoxyethyl) benzene-1,2-dicarboxylate

> <STRUCTURE_SMILES>
O=C(OCCOCCCC)c1ccccc1C(=O)OCCOCCCC

> <STRUCTURE_SMILES_Desalt>
O=C(OCCOCCCC)c1ccccc1C(=O)OCCOCCCC

> <Substance_modify_yyyymmdd>
20100503

$$$$
