117-80-6
ChemmineR-0915142007XD

 14 15  0  0  0  0  0  0  0  0  1 V2000
    0.0000   -3.9911    0.0000 O    0  0  0  0  0  0  0  0  0  0  0  0
    1.1489   -3.3269    0.0000 C    0  0  0  0  0  0  0  0  0  0  0  0
    2.3037   -3.9911    0.0000 C    0  0  0  0  0  0  0  0  0  0  0  0
    3.4526   -3.3269    0.0000 C    0  0  0  0  0  0  0  0  0  0  0  0
    4.6074   -3.9911    0.0000 C    0  0  0  0  0  0  0  0  0  0  0  0
    4.6074   -5.3194    0.0000 C    0  0  0  0  0  0  0  0  0  0  0  0
    3.4526   -5.9836    0.0000 C    0  0  0  0  0  0  0  0  0  0  0  0
    2.3037   -5.3194    0.0000 C    0  0  0  0  0  0  0  0  0  0  0  0
    3.4526   -1.9925    0.0000 C    0  0  0  0  0  0  0  0  0  0  0  0
    4.6074   -1.3284    0.0000 O    0  0  0  0  0  0  0  0  0  0  0  0
    2.3037   -1.3284    0.0000 C    0  0  0  0  0  0  0  0  0  0  0  0
    1.1489   -1.9925    0.0000 C    0  0  0  0  0  0  0  0  0  0  0  0
    0.0000   -1.3284    0.0000 Cl   0  0  0  0  0  0  0  0  0  0  0  0
    2.3037    0.0000    0.0000 Cl   0  0  0  0  0  0  0  0  0  0  0  0
  1  2  2  0  0  0  0
  2  3  1  0  0  0  0
  2 12  1  0  0  0  0
  3  4  2  0  0  0  0
  3  8  1  0  0  0  0
  4  5  1  0  0  0  0
  4  9  1  0  0  0  0
  5  6  2  0  0  0  0
  6  7  1  0  0  0  0
  7  8  2  0  0  0  0
  9 10  2  0  0  0  0
  9 11  1  0  0  0  0
 11 12  2  0  0  0  0
 11 14  1  0  0  0  0
 12 13  1  0  0  0  0
M  END
> <ID>
409

> <Formula>
C10H4Cl2O2

> <FW>
227.0436

> <DSSTox_CID>
425

> <DSSTox_RID>
75577

> <DSSTox_GSID>
20425

> <DSSTox_FileID_Sort>
261

> <TS_ChemName>
Dichlone

> <TS_ChemName_Synonyms>
Dichlone (2,3-Dichloro-1,4-naphthoquinone)

> <TS_CASRN>
117-80-6

> <CASRN_ChemName_Relationship>
primary

> <TS_Description>
single chemical compound

> <ChemNote>


> <STRUCTURE_Shown>
tested chemical

> <STRUCTURE_Formula>
C10H4Cl2O2

> <STRUCTURE_MW>
227.0436

> <STRUCTURE_ChemType>
defined organic

> <STRUCTURE_DefinedOrganicForm>
parent

> <STRUCTURE_IUPAC>
2,3-dichloronaphthalene-1,4-dione

> <STRUCTURE_SMILES>
O=C2c1ccccc1C(=O)C(Cl)=C2Cl

> <STRUCTURE_SMILES_Desalt>
O=C2c1ccccc1C(=O)C(Cl)=C2Cl

> <Substance_modify_yyyymmdd>
20080429

$$$$
