117-96-4
ChemmineR-0915142007XD

 20 20  0  0  0  0  0  0  0  0  1 V2000
    2.6598   -2.2935    0.0000 C   0  0  0  0  0  0  0  0  0  0  0  0
    2.6598   -4.5710    0.0000 C   0  0  0  0  0  0  0  0  0  0  0  0
    4.6666   -3.4243    0.0000 C   0  0  0  0  0  0  0  0  0  0  0  0
    2.0068   -3.4243    0.0000 C   0  0  0  0  0  0  0  0  0  0  0  0
    3.9817   -2.2935    0.0000 C   0  0  0  0  0  0  0  0  0  0  0  0
    3.9817   -4.5710    0.0000 C   0  0  0  0  0  0  0  0  0  0  0  0
    1.9909   -1.1149    0.0000 C   0  0  0  0  0  0  0  0  0  0  0  0
    2.0068   -5.7337    0.0000 N   0  0  0  0  0  0  0  0  0  0  0  0
    5.9885   -3.4243    0.0000 N   0  0  0  0  0  0  0  0  0  0  0  0
    0.6849   -5.7337    0.0000 C   0  0  0  0  0  0  0  0  0  0  0  0
    6.6415   -4.5710    0.0000 C   0  0  0  0  0  0  0  0  0  0  0  0
    2.6439    0.0000    0.0000 O   0  0  0  0  0  0  0  0  0  0  0  0
    0.6371   -1.1149    0.0000 O   0  0  0  0  0  0  0  0  0  0  0  0
    0.6849   -3.4243    0.0000 I   0  0  0  0  0  0  0  0  0  0  0  0
    4.6666   -1.1149    0.0000 I   0  0  0  0  0  0  0  0  0  0  0  0
    4.6666   -5.7655    0.0000 I   0  0  0  0  0  0  0  0  0  0  0  0
    0.0000   -6.8645    0.0000 O   0  0  0  0  0  0  0  0  0  0  0  0
    7.9635   -4.5710    0.0000 O   0  0  0  0  0  0  0  0  0  0  0  0
    5.9885   -5.7178    0.0000 C   0  0  0  0  0  0  0  0  0  0  0  0
    0.0000   -4.5710    0.0000 C   0  0  0  0  0  0  0  0  0  0  0  0
  1  4  2  0  0  0  0
  1  5  1  0  0  0  0
  1  7  1  0  0  0  0
  2  4  1  0  0  0  0
  2  8  1  0  0  0  0
  2  6  2  0  0  0  0
  3  5  2  0  0  0  0
  3  6  1  0  0  0  0
  3  9  1  0  0  0  0
  4 14  1  0  0  0  0
  5 15  1  0  0  0  0
  6 16  1  0  0  0  0
  7 12  1  0  0  0  0
  7 13  2  0  0  0  0
  8 10  1  0  0  0  0
  9 11  1  0  0  0  0
 10 17  2  0  0  0  0
 10 20  1  0  0  0  0
 11 18  2  0  0  0  0
 11 19  1  0  0  0  0
M  END
> <ID>
10175

> <Formula>
C11H9I3N2O4

> <FW>
613.9136

> <DSSTox_CID>
24521

> <DSSTox_RID>
80288

> <DSSTox_GSID>
44521

> <DSSTox_FileID_Sort>
4970

> <TS_ChemName>
Diatrizoic acid

> <TS_ChemName_Synonyms>
Diatrizoate

> <TS_CASRN>
117-96-4

> <CASRN_ChemName_Relationship>
primary

> <TS_Description>
single chemical compound

> <ChemNote>


> <STRUCTURE_Shown>
tested chemical

> <STRUCTURE_Formula>
C11H9I3N2O4

> <STRUCTURE_MW>
613.9136

> <STRUCTURE_ChemType>
defined organic

> <STRUCTURE_DefinedOrganicForm>
parent

> <STRUCTURE_IUPAC>
3,5-bis(acetylamino)-2,4,6-triiodobenzoic acid

> <STRUCTURE_SMILES>
O=C(C)Nc1c(I)c(c(I)c(NC(C)=O)c1I)C(=O)O

> <STRUCTURE_SMILES_Desalt>
O=C(C)Nc1c(I)c(c(I)c(NC(C)=O)c1I)C(=O)O

> <Substance_modify_yyyymmdd>
20091116

$$$$
