117091-64-2
ChemmineR-0915142007XD

 46 52  0  0  1  0  0  0  0  0  1 V2000
    1.1482   -6.6326    0.0000 P   0  0  0  0  0  0  0  0  0  0  0  0
    0.0000   -5.9829    0.0000 O   0  0  0  0  0  0  0  0  0  0  0  0
    2.3116   -7.3124    0.0000 O   0  0  0  0  0  0  0  0  0  0  0  0
    0.4835   -7.7959    0.0000 O   0  0  0  0  0  0  0  0  0  0  0  0
    3.8526   -2.0547    0.0000 C   0  0  0  0  0  0  0  0  0  0  0  0
    3.1425   -3.1879    0.0000 O   0  0  0  0  0  0  0  0  0  0  0  0
    3.8073   -4.3512    0.0000 C   0  0  0  0  0  0  0  0  0  0  0  0
    5.1368   -4.3512    0.0000 C   0  0  0  0  0  0  0  0  0  0  0  0
    5.8016   -5.4843    0.0000 C   0  0  0  0  0  0  0  0  0  0  0  0
    5.1368   -6.6477    0.0000 C   0  0  0  0  0  0  0  0  0  0  0  0
    3.8073   -6.6477    0.0000 C   0  0  0  0  0  0  0  0  0  0  0  0
    3.1425   -7.8110    0.0000 O   0  0  0  0  0  0  0  0  0  0  0  0
    3.7015   -9.0046    0.0000 C   0  0  0  0  0  0  0  0  0  0  0  0
    3.1425   -5.4843    0.0000 C   0  0  0  0  0  0  0  0  0  0  0  0
    1.8130   -5.4843    0.0000 O   0  0  0  0  0  0  0  0  0  0  0  0
    7.1311   -5.4843    0.0000 C   0  0  0  0  0  0  0  0  0  0  0  0
    7.7959   -4.3512    0.0000 C   0  0  0  0  0  0  0  0  0  0  0  0
    7.1311   -3.1879    0.0000 C   0  0  0  0  0  0  0  0  0  0  0  0
    7.7959   -2.0396    0.0000 C   0  0  0  0  0  0  0  0  0  0  0  0
    7.3880   -0.7705    0.0000 O   0  0  0  0  0  0  0  0  0  0  0  0
    8.4607    0.0000    0.0000 C   0  0  0  0  0  0  0  0  0  0  0  0
    9.5334   -0.7705    0.0000 O   0  0  0  0  0  0  0  0  0  0  0  0
    9.1254   -2.0396    0.0000 C   0  0  0  0  0  0  0  0  0  0  0  0
    9.7902   -3.1879    0.0000 C   0  0  0  0  0  0  0  0  0  0  0  0
    9.1254   -4.3512    0.0000 C   0  0  0  0  0  0  0  0  0  0  0  0
    9.7902   -5.4843    0.0000 C   0  0  0  0  0  0  0  0  0  0  0  0
   11.1197   -5.4843    0.0000 O   0  0  0  0  0  0  0  0  0  0  0  0
   11.7845   -6.6477    0.0000 C   0  0  0  0  0  0  0  0  0  0  0  0
   11.1197   -7.8110    0.0000 O   0  0  0  0  0  0  0  0  0  0  0  0
   11.7845   -8.9441    0.0000 C   0  0  0  0  0  0  0  0  0  0  0  0
   11.1197  -10.0924    0.0000 C   0  0  0  0  0  0  0  0  0  0  0  0
   11.7845  -11.2557    0.0000 O   0  0  0  0  0  0  0  0  0  0  0  0
   13.1291  -11.2557    0.0000 C   0  0  0  0  0  0  0  0  0  0  0  0
   13.7788  -12.4039    0.0000 C   0  0  0  0  0  0  0  0  0  0  0  0
   13.7788  -10.0924    0.0000 O   0  0  0  0  0  0  0  0  0  0  0  0
   13.1291   -8.9441    0.0000 C   0  0  0  0  0  0  0  0  0  0  0  0
   13.7788   -7.8110    0.0000 C   0  0  0  0  0  0  0  0  0  0  0  0
   15.1083   -7.8110    0.0000 O   0  0  0  0  0  0  0  0  0  0  0  0
   13.1291   -6.6477    0.0000 C   0  0  0  0  0  0  0  0  0  0  0  0
   13.7788   -5.4843    0.0000 O   0  0  0  0  0  0  0  0  0  0  0  0
    9.1254   -6.6477    0.0000 C   0  0  0  0  0  0  0  0  0  0  0  0
    9.5334   -7.9017    0.0000 C   0  0  0  0  0  0  0  0  0  0  0  0
    8.4607   -8.6873    0.0000 O   0  0  0  0  0  0  0  0  0  0  0  0
    7.3880   -7.9017    0.0000 C   0  0  0  0  0  0  0  0  0  0  0  0
    6.1189   -8.3247    0.0000 O   0  0  0  0  0  0  0  0  0  0  0  0
    7.7959   -6.6477    0.0000 C   0  0  0  0  0  0  0  0  0  0  0  0
  1  2  1  0  0  0  0
  1  3  2  0  0  0  0
  1  4  1  0  0  0  0
  1 15  1  0  0  0  0
  5  6  1  0  0  0  0
  6  7  1  0  0  0  0
  7  8  2  0  0  0  0
  7 14  1  0  0  0  0
  8  9  1  0  0  0  0
  9 10  2  0  0  0  0
 16  9  1  6  0  0  0
 10 11  1  0  0  0  0
 11 12  1  0  0  0  0
 11 14  2  0  0  0  0
 12 13  1  0  0  0  0
 14 15  1  0  0  0  0
 16 17  1  0  0  0  0
 16 46  1  0  0  0  0
 17 18  2  0  0  0  0
 17 25  1  0  0  0  0
 18 19  1  0  0  0  0
 19 20  1  0  0  0  0
 19 23  2  0  0  0  0
 20 21  1  0  0  0  0
 21 22  1  0  0  0  0
 22 23  1  0  0  0  0
 23 24  1  0  0  0  0
 24 25  2  0  0  0  0
 25 26  1  0  0  0  0
 26 27  1  0  0  0  0
 26 41  1  0  0  0  0
 28 27  1  1  0  0  0
 28 29  1  0  0  0  0
 28 39  1  0  0  0  0
 30 29  1  1  0  0  0
 30 31  1  0  0  0  0
 30 36  1  0  0  0  0
 31 32  1  0  0  0  0
 32 33  1  0  0  0  0
 33 34  1  6  0  0  0
 33 35  1  0  0  0  0
 36 35  1  6  0  0  0
 36 37  1  0  0  0  0
 37 38  1  1  0  0  0
 37 39  1  0  0  0  0
 39 40  1  6  0  0  0
 41 42  1  0  0  0  0
 41 46  1  0  0  0  0
 42 43  1  0  0  0  0
 43 44  1  0  0  0  0
 44 45  2  0  0  0  0
 46 44  1  6  0  0  0
M  END
> <ID>
13641

> <Formula>
C29H33O16P

> <FW>
668.5365

> <DSSTox_CID>
28571

> <DSSTox_RID>
82843

> <DSSTox_GSID>
48645

> <DSSTox_FileID_Sort>
7520

> <TS_ChemName>
Etoposide phosphate

> <TS_ChemName_Synonyms>


> <TS_CASRN>
117091-64-2

> <CASRN_ChemName_Relationship>
primary

> <TS_Description>
single chemical compound

> <ChemNote>
stereochem

> <STRUCTURE_Shown>
tested chemical

> <STRUCTURE_Formula>
C29H33O16P

> <STRUCTURE_MW>
668.5365

> <STRUCTURE_ChemType>
defined organic

> <STRUCTURE_DefinedOrganicForm>
parent

> <STRUCTURE_IUPAC>
4-[(5R,5aR)-9-({4,6-O-[(1R)-ethylidene]-beta-D-glucopyranosyl}oxy)-6-oxo-5,5a,6,8,8a,9-hexahydrofuro[3',4':6,7]naphtho[2,3-d][1,3]dioxol-5-yl]-2,6-dimethoxyphenyl dihydrogen phosphate

> <STRUCTURE_SMILES>
O=P(O)(O)Oc1c(OC)cc(cc1OC)[C@@H]5c2cc7OCOc7cc2C(O[C@@H]3O[C@@H]4CO[C@@H](C)O[C@H]4[C@H](O)[C@H]3O)C6COC(=O)[C@H]56

> <STRUCTURE_SMILES_Desalt>
O=P(O)(O)Oc1c(OC)cc(cc1OC)[C@@H]5c2cc7OCOc7cc2C(O[C@@H]3O[C@@H]4CO[C@@H](C)O[C@H]4[C@H](O)[C@H]3O)C6COC(=O)[C@H]56

> <Substance_modify_yyyymmdd>
20111015

$$$$
