117332-94-2
ChemmineR-0915142007XD

 26 27  0  0  0  0  0  0  0  0  1 V2000
   10.1690   -3.5354    0.0000 C    0  0  0  0  0  0  0  0  0  0  0  0
   11.3308   -4.1975    0.0000 C    0  0  0  0  0  0  0  0  0  0  0  0
   12.4926   -3.5354    0.0000 C    0  0  0  0  0  0  0  0  0  0  0  0
   10.1690   -2.2362    0.0000 O    0  0  0  0  0  0  0  0  0  0  0  0
    8.9947   -4.1975    0.0000 N    0  0  0  0  0  0  0  0  0  0  0  0
    5.5717   -2.2362    0.0000 N    0  0  0  0  0  0  0  0  0  0  0  0
    6.7335   -1.5241    0.0000 C    0  0  0  0  0  0  0  0  0  0  0  0
    5.5717   -3.5354    0.0000 C    0  0  0  0  0  0  0  0  0  0  0  0
    7.8454   -2.2362    0.0000 C    0  0  0  0  0  0  0  0  0  0  0  0
    6.7335   -4.1975    0.0000 C    0  0  0  0  0  0  0  0  0  0  0  0
    7.8454   -3.5354    0.0000 C    0  0  0  0  0  0  0  0  0  0  0  0
    4.4099   -1.5741    0.0000 C    0  0  0  0  0  0  0  0  0  0  0  0
    3.2356   -2.2362    0.0000 C    0  0  0  0  0  0  0  0  0  0  0  0
    4.4099   -0.1999    0.0000 C    0  0  0  0  0  0  0  0  0  0  0  0
    0.8745   -2.1237    0.0000 S    0  0  0  0  0  0  0  0  0  0  0  0
    0.0000   -1.1243    0.0000 C    0  0  0  0  0  0  0  0  0  0  0  0
    2.0738   -1.5741    0.0000 C    0  0  0  0  0  0  0  0  0  0  0  0
    1.9364   -0.2499    0.0000 C    0  0  0  0  0  0  0  0  0  0  0  0
    0.6121    0.0000    0.0000 C    0  0  0  0  0  0  0  0  0  0  0  0
    7.8828   -7.5455    0.0000 C    0  0  0  0  0  0  0  0  0  0  0  0
    8.9947   -8.2576    0.0000 C    0  0  0  0  0  0  0  0  0  0  0  0
   10.1690   -7.5455    0.0000 C    0  0  0  0  0  0  0  0  0  0  0  0
   10.1690   -6.2213    0.0000 C    0  0  0  0  0  0  0  0  0  0  0  0
    8.9947   -5.5592    0.0000 C    0  0  0  0  0  0  0  0  0  0  0  0
    7.8828   -6.2213    0.0000 C    0  0  0  0  0  0  0  0  0  0  0  0
    7.3457   -8.8323    0.0000 Cl   0  0  0  0  0  0  0  0  0  0  0  0
  1  2  1  0  0  0  0
  1  5  1  0  0  0  0
  1  4  2  0  0  0  0
  2  3  1  0  0  0  0
  5 11  1  0  0  0  0
  5 24  1  0  0  0  0
  6  7  1  0  0  0  0
  6  8  1  0  0  0  0
  6 12  1  0  0  0  0
  7  9  1  0  0  0  0
  8 10  1  0  0  0  0
  9 11  1  0  0  0  0
 10 11  1  0  0  0  0
 12 13  1  0  0  0  0
 12 14  1  0  0  0  0
 13 17  1  0  0  0  0
 15 16  1  0  0  0  0
 15 17  1  0  0  0  0
 16 19  2  0  0  0  0
 17 18  2  0  0  0  0
 18 19  1  0  0  0  0
 20 25  2  0  0  0  0
 20 21  1  0  0  0  0
 21 22  2  0  0  0  0
 22 23  1  0  0  0  0
 23 24  2  0  0  0  0
 24 25  1  0  0  0  0
M  END
> <ID>
13924

> <Formula>
C21H29ClN2OS

> <FW>
392.9858 (356.5248+36.4609)

> <DSSTox_CID>
28861

> <DSSTox_RID>
83130

> <DSSTox_GSID>
48935

> <DSSTox_FileID_Sort>
7807

> <TS_ChemName>
N-[1-[1-Methyl-2-(2-thienyl)ethyl]-4-piperidyl]-N-phenylpropanamide hydrochloride

> <TS_ChemName_Synonyms>


> <TS_CASRN>
117332-94-2

> <CASRN_ChemName_Relationship>
primary

> <TS_Description>
single chemical compound

> <ChemNote>
parent [103963-66-2]

> <STRUCTURE_Shown>
tested chemical

> <STRUCTURE_Formula>
C21H29ClN2OS

> <STRUCTURE_MW>
392.9858

> <STRUCTURE_ChemType>
defined organic

> <STRUCTURE_DefinedOrganicForm>
complex

> <STRUCTURE_IUPAC>
N-phenyl-N-{1-[1-(thiophen-2-yl)propan-2-yl]piperidin-4-yl}propanamide hydrochloride (1:1)

> <STRUCTURE_SMILES>
Cl.CCC(=O)N(c1ccccc1)C2CCN(CC2)C(C)Cc3cccs3

> <STRUCTURE_SMILES_Desalt>
CCC(=O)N(c1ccccc1)C2CCN(CC2)C(C)Cc3cccs3

> <Substance_modify_yyyymmdd>
20111204

$$$$
