1173-88-2
ChemmineR-0915142007XD

 31 33  0  0  1  0  0  0  0  0  2 V2000
   11.5768   -7.5478    0.0000 Na   0  3  0  0  0  0  0  0  0  0  0  0
    5.4156   -4.9316    0.0000 C    0  0  0  0  0  0  0  0  0  0  0  0
    8.5027   -2.6685    0.0000 C    0  0  0  0  0  0  0  0  0  0  0  0
    9.8108   -3.9897    0.0000 N    0  0  0  0  0  0  0  0  0  0  0  0
    9.8108   -2.6685    0.0000 C    0  0  0  0  0  0  0  0  0  0  0  0
    8.5027   -3.9897    0.0000 C    0  0  0  0  0  0  0  0  0  0  0  0
   11.0797   -4.4083    0.0000 C    0  0  0  0  0  0  0  0  0  0  0  0
   11.8646   -3.3618    0.0000 C    0  0  0  0  0  0  0  0  0  0  0  0
   11.0797   -2.2630    0.0000 S    0  0  0  0  0  0  0  0  0  0  0  0
   11.4983   -5.7164    0.0000 C    0  0  0  0  0  0  0  0  0  0  0  0
   12.8064   -5.9781    0.0000 O    0  0  0  0  0  0  0  0  0  0  0  0
   10.6088   -6.7368    0.0000 O    0  5  0  0  0  0  0  0  0  0  0  0
   13.0811   -2.6685    0.0000 C    0  0  0  0  0  0  0  0  0  0  0  0
   13.0811   -3.9897    0.0000 C    0  0  0  0  0  0  0  0  0  0  0  0
    9.8108   -1.3604    0.0000 H    0  0  0  0  0  0  0  0  0  0  0  0
    8.5027   -1.3604    0.0000 H    0  0  0  0  0  0  0  0  0  0  0  0
    7.1554   -2.6685    0.0000 N    0  0  0  0  0  0  0  0  0  0  0  0
    5.9781   -2.0014    0.0000 C    0  0  0  0  0  0  0  0  0  0  0  0
    4.8269   -2.6685    0.0000 C    0  0  0  0  0  0  0  0  0  0  0  0
    5.9781   -0.6671    0.0000 O    0  0  0  0  0  0  0  0  0  0  0  0
    2.3023   -0.6671    0.0000 C    0  0  0  0  0  0  0  0  0  0  0  0
    2.3023   -2.0014    0.0000 C    0  0  0  0  0  0  0  0  0  0  0  0
    1.1381    0.0000    0.0000 C    0  0  0  0  0  0  0  0  0  0  0  0
    1.1381   -2.6685    0.0000 C    0  0  0  0  0  0  0  0  0  0  0  0
    0.0000   -0.6671    0.0000 C    0  0  0  0  0  0  0  0  0  0  0  0
    0.0000   -2.0014    0.0000 C    0  0  0  0  0  0  0  0  0  0  0  0
    3.4665   -2.6685    0.0000 C    0  0  0  0  0  0  0  0  0  0  0  0
    3.0348   -3.9374    0.0000 N    0  0  0  0  0  0  0  0  0  0  0  0
    4.1336   -4.7092    0.0000 O    0  0  0  0  0  0  0  0  0  0  0  0
    5.2586   -3.9374    0.0000 C    0  0  0  0  0  0  0  0  0  0  0  0
    7.5086   -4.9839    0.0000 O    0  0  0  0  0  0  0  0  0  0  0  0
  2 30  1  0  0  0  0
  3  5  1  0  0  0  0
  3  6  1  0  0  0  0
  3 16  1  6  0  0  0
  3 17  1  1  0  0  0
  4  6  1  0  0  0  0
  4  7  1  0  0  0  0
  4  5  1  0  0  0  0
  5  9  1  0  0  0  0
  5 15  1  6  0  0  0
  6 31  2  0  0  0  0
  7  8  1  0  0  0  0
  7 10  1  6  0  0  0
  8  9  1  0  0  0  0
  8 13  1  0  0  0  0
  8 14  1  0  0  0  0
 10 11  2  0  0  0  0
 10 12  1  0  0  0  0
 17 18  1  0  0  0  0
 18 19  1  0  0  0  0
 18 20  2  0  0  0  0
 19 27  1  0  0  0  0
 19 30  2  0  0  0  0
 21 22  1  0  0  0  0
 21 23  2  0  0  0  0
 22 24  2  0  0  0  0
 22 27  1  0  0  0  0
 23 25  1  0  0  0  0
 24 26  1  0  0  0  0
 25 26  2  0  0  0  0
 27 28  2  0  0  0  0
 28 29  1  0  0  0  0
 29 30  1  0  0  0  0
M  END
> <ID>
13968

> <Formula>
C19H18N3NaO5S

> <FW>
423.4181 (22.9892+400.4289)

> <DSSTox_CID>
28906

> <DSSTox_RID>
83174

> <DSSTox_GSID>
48980

> <DSSTox_FileID_Sort>
7851

> <TS_ChemName>
Oxacillin sodium salt

> <TS_ChemName_Synonyms>


> <TS_CASRN>
1173-88-2

> <CASRN_ChemName_Relationship>
primary

> <TS_Description>
single chemical compound

> <ChemNote>


> <STRUCTURE_Shown>
tested chemical

> <STRUCTURE_Formula>
C19H18N3NaO5S

> <STRUCTURE_MW>
423.4181

> <STRUCTURE_ChemType>
defined organic

> <STRUCTURE_DefinedOrganicForm>
salt

> <STRUCTURE_IUPAC>
sodium (2S,5R,6R)-3,3-dimethyl-6-{[(5-methyl-3-phenyl-1,2-oxazol-4-yl)carbonyl]amino}-7-oxo-4-thia-1-azabicyclo[3.2.0]heptane-2-carboxylate

> <STRUCTURE_SMILES>
[Na+].O=C([O-])[C@@H]3N4C(=O)[C@@H](NC(=O)c2c(C)onc2c1ccccc1)[C@H]4SC3(C)C

> <STRUCTURE_SMILES_Desalt>
OC(=O)[C@@H]3N4C(=O)[C@@H](NC(=O)c2c(C)onc2c1ccccc1)[C@H]4SC3(C)C

> <Substance_modify_yyyymmdd>
20111204

$$$$
