117332-93-1
ChemmineR-0915142007XD

 24 25  0  0  0  0  0  0  0  0  1 V2000
    4.6067   -1.9897    0.0000 C    0  0  0  0  0  0  0  0  0  0  0  0
    4.6067   -0.6596    0.0000 C    0  0  0  0  0  0  0  0  0  0  0  0
    5.7637    0.0000    0.0000 C    0  0  0  0  0  0  0  0  0  0  0  0
    5.7637   -2.6602    0.0000 O    0  0  0  0  0  0  0  0  0  0  0  0
    3.4496   -2.6602    0.0000 N    0  0  0  0  0  0  0  0  0  0  0  0
    1.1571    0.0000    0.0000 C    0  0  0  0  0  0  0  0  0  0  0  0
    0.0000   -0.6596    0.0000 C    0  0  0  0  0  0  0  0  0  0  0  0
    0.0000   -1.9897    0.0000 C    0  0  0  0  0  0  0  0  0  0  0  0
    1.1571   -2.6602    0.0000 C    0  0  0  0  0  0  0  0  0  0  0  0
    2.3141   -1.9897    0.0000 C    0  0  0  0  0  0  0  0  0  0  0  0
    2.3141   -0.6596    0.0000 C    0  0  0  0  0  0  0  0  0  0  0  0
    3.4496   -6.6396    0.0000 N    0  0  0  0  0  0  0  0  0  0  0  0
    4.6067   -5.9800    0.0000 C    0  0  0  0  0  0  0  0  0  0  0  0
    2.3141   -5.9800    0.0000 C    0  0  0  0  0  0  0  0  0  0  0  0
    4.6067   -4.6499    0.0000 C    0  0  0  0  0  0  0  0  0  0  0  0
    2.3141   -4.6499    0.0000 C    0  0  0  0  0  0  0  0  0  0  0  0
    3.4496   -3.9903    0.0000 C    0  0  0  0  0  0  0  0  0  0  0  0
    3.4496   -7.9697    0.0000 C    0  0  0  0  0  0  0  0  0  0  0  0
    4.7364   -9.9595    0.0000 S    0  0  0  0  0  0  0  0  0  0  0  0
    6.0449  -10.2406    0.0000 C    0  0  0  0  0  0  0  0  0  0  0  0
    4.6067   -8.6510    0.0000 C    0  0  0  0  0  0  0  0  0  0  0  0
    5.8286   -8.0995    0.0000 C    0  0  0  0  0  0  0  0  0  0  0  0
    6.7045   -9.0835    0.0000 C    0  0  0  0  0  0  0  0  0  0  0  0
    3.8173  -10.8137    0.0000 Cl   0  0  0  0  0  0  0  0  0  0  0  0
  1  2  1  0  0  0  0
  1  5  1  0  0  0  0
  1  4  2  0  0  0  0
  2  3  1  0  0  0  0
  5 10  1  0  0  0  0
  5 17  1  0  0  0  0
  6 11  2  0  0  0  0
  6  7  1  0  0  0  0
  7  8  2  0  0  0  0
  8  9  1  0  0  0  0
  9 10  2  0  0  0  0
 10 11  1  0  0  0  0
 12 13  1  0  0  0  0
 12 14  1  0  0  0  0
 12 18  1  0  0  0  0
 13 15  1  0  0  0  0
 14 16  1  0  0  0  0
 15 17  1  0  0  0  0
 16 17  1  0  0  0  0
 18 21  1  0  0  0  0
 19 20  1  0  0  0  0
 19 21  1  0  0  0  0
 20 23  2  0  0  0  0
 21 22  2  0  0  0  0
 22 23  1  0  0  0  0
M  END
> <ID>
13926

> <Formula>
C19H25ClN2OS

> <FW>
364.9326 (328.4717+36.4609)

> <DSSTox_CID>
28863

> <DSSTox_RID>
83132

> <DSSTox_GSID>
48937

> <DSSTox_FileID_Sort>
7809

> <TS_ChemName>
N-Phenyl-N-[1-(2-thienyl)methyl-4-piperidyl]propanamide hydrochloride

> <TS_ChemName_Synonyms>


> <TS_CASRN>
117332-93-1

> <CASRN_ChemName_Relationship>
primary

> <TS_Description>
single chemical compound

> <ChemNote>


> <STRUCTURE_Shown>
tested chemical

> <STRUCTURE_Formula>
C19H25ClN2OS

> <STRUCTURE_MW>
364.9326

> <STRUCTURE_ChemType>
defined organic

> <STRUCTURE_DefinedOrganicForm>
complex

> <STRUCTURE_IUPAC>
N-phenyl-N-[1-(thiophen-2-ylmethyl)piperidin-4-yl]propanamide hydrochloride (1:1)

> <STRUCTURE_SMILES>
Cl.CCC(=O)N(c1ccccc1)C3CCN(Cc2cccs2)CC3

> <STRUCTURE_SMILES_Desalt>
CCC(=O)N(c1ccccc1)C3CCN(Cc2cccs2)CC3

> <Substance_modify_yyyymmdd>
20111204

$$$$
