117337-19-6
ChemmineR-0915142007XD

 25 27  0  0  0  0  0  0  0  0  1 V2000
   11.8861   -1.9940    0.0000 C    0  0  0  0  0  0  0  0  0  0  0  0
   13.0330   -2.6587    0.0000 O    0  0  0  0  0  0  0  0  0  0  0  0
   11.8861   -0.6647    0.0000 O    0  0  0  0  0  0  0  0  0  0  0  0
   10.7261   -2.6587    0.0000 C    0  0  0  0  0  0  0  0  0  0  0  0
    9.5792   -1.9940    0.0000 S    0  0  0  0  0  0  0  0  0  0  0  0
    8.4193   -2.6587    0.0000 C    0  0  0  0  0  0  0  0  0  0  0  0
    8.4193   -3.9881    0.0000 C    0  0  0  0  0  0  0  0  0  0  0  0
    7.2854   -1.9940    0.0000 C    0  0  0  0  0  0  0  0  0  0  0  0
    7.2854   -4.6528    0.0000 C    0  0  0  0  0  0  0  0  0  0  0  0
    6.1385   -2.6587    0.0000 C    0  0  0  0  0  0  0  0  0  0  0  0
    6.1385   -3.9881    0.0000 C    0  0  0  0  0  0  0  0  0  0  0  0
    9.5792   -4.6528    0.0000 Cl   0  0  0  0  0  0  0  0  0  0  0  0
    4.9786   -4.6528    0.0000 F    0  0  0  0  0  0  0  0  0  0  0  0
    4.9786   -1.9940    0.0000 N    0  0  0  0  0  0  0  0  0  0  0  0
    2.6066   -2.1113    0.0000 N    0  0  0  0  0  0  0  0  0  0  0  0
    1.7334   -3.1018    0.0000 N    0  0  0  0  0  0  0  0  0  0  0  0
    0.4171   -2.8282    0.0000 C    0  0  0  0  0  0  0  0  0  0  0  0
    2.1895   -0.8602    0.0000 C    0  0  0  0  0  0  0  0  0  0  0  0
    0.0000   -1.5640    0.0000 C    0  0  0  0  0  0  0  0  0  0  0  0
    0.9123   -0.5735    0.0000 C    0  0  0  0  0  0  0  0  0  0  0  0
    3.7014   -3.9881    0.0000 S    0  0  0  0  0  0  0  0  0  0  0  0
    3.8317   -2.6587    0.0000 C    0  0  0  0  0  0  0  0  0  0  0  0
    2.3850   -4.2748    0.0000 C    0  0  0  0  0  0  0  0  0  0  0  0
    1.8377   -5.4739    0.0000 O    0  0  0  0  0  0  0  0  0  0  0  0
   13.0330    0.0000    0.0000 C    0  0  0  0  0  0  0  0  0  0  0  0
  1  2  2  0  0  0  0
  1  3  1  0  0  0  0
  1  4  1  0  0  0  0
  3 25  1  0  0  0  0
  4  5  1  0  0  0  0
  5  6  1  0  0  0  0
  6  7  2  0  0  0  0
  6  8  1  0  0  0  0
  7  9  1  0  0  0  0
  7 12  1  0  0  0  0
  8 10  2  0  0  0  0
  9 11  2  0  0  0  0
 10 11  1  0  0  0  0
 10 14  1  0  0  0  0
 11 13  1  0  0  0  0
 14 22  2  0  0  0  0
 15 16  1  0  0  0  0
 15 18  1  0  0  0  0
 15 22  1  0  0  0  0
 16 17  1  0  0  0  0
 16 23  1  0  0  0  0
 17 19  1  0  0  0  0
 18 20  1  0  0  0  0
 19 20  1  0  0  0  0
 21 22  1  0  0  0  0
 21 23  1  0  0  0  0
 23 24  2  0  0  0  0
M  END
> <ID>
6518

> <Formula>
C15H15ClFN3O3S2

> <FW>
403.8793

> <DSSTox_CID>
12556

> <DSSTox_RID>
78985

> <DSSTox_GSID>
32556

> <DSSTox_FileID_Sort>
3667

> <TS_ChemName>
Fluthiacet-methyl

> <TS_ChemName_Synonyms>
Fluthiacet-methyl (Acetic acid, ((2-chloro-4-fluoro-5-((tetrahydro-3- oxo-1H,3H-(1,3,4)thiadiazolo(3,4-a)pyridazin-1-yli dene)amino)phenyl)thio)-, methyl ester)

> <TS_CASRN>
117337-19-6

> <CASRN_ChemName_Relationship>
primary

> <TS_Description>
single chemical compound

> <ChemNote>


> <STRUCTURE_Shown>
tested chemical

> <STRUCTURE_Formula>
C15H15ClFN3O3S2

> <STRUCTURE_MW>
403.8793

> <STRUCTURE_ChemType>
defined organic

> <STRUCTURE_DefinedOrganicForm>
parent

> <STRUCTURE_IUPAC>
methyl ({2-chloro-4-fluoro-5-[(Z)-(3-oxotetrahydro[1,3,4]thiadiazolo[3,4-a]pyridazin-1-ylidene)amino]phenyl}sulfanyl)acetate

> <STRUCTURE_SMILES>
O=C(OC)CSc3cc(/N=C1\SC(=O)N2CCCCN12)c(F)cc3Cl

> <STRUCTURE_SMILES_Desalt>
O=C(OC)CSc3cc(/N=C1\SC(=O)N2CCCCN12)c(F)cc3Cl

> <Substance_modify_yyyymmdd>
20080429

$$$$
