117428-22-5
ChemmineR-0915142007XD

 26 27  0  0  0  0  0  0  0  0  1 V2000
    9.2183   -3.3221    0.0000 C   0  0  0  0  0  0  0  0  0  0  0  0
   10.3722   -3.9942    0.0000 C   0  0  0  0  0  0  0  0  0  0  0  0
   10.3722   -5.3256    0.0000 C   0  0  0  0  0  0  0  0  0  0  0  0
    9.2183   -5.9849    0.0000 C   0  0  0  0  0  0  0  0  0  0  0  0
    8.0771   -5.3256    0.0000 C   0  0  0  0  0  0  0  0  0  0  0  0
    8.0771   -3.9942    0.0000 C   0  0  0  0  0  0  0  0  0  0  0  0
    8.0771   -1.3314    0.0000 C   0  0  0  0  0  0  0  0  0  0  0  0
    8.0771    0.0000    0.0000 O   0  0  0  0  0  0  0  0  0  0  0  0
    6.9232   -1.9907    0.0000 O   0  0  0  0  0  0  0  0  0  0  0  0
    9.2183   -1.9907    0.0000 C   0  0  0  0  0  0  0  0  0  0  0  0
    6.9232   -3.3221    0.0000 C   0  0  0  0  0  0  0  0  0  0  0  0
    5.7694   -3.9942    0.0000 O   0  0  0  0  0  0  0  0  0  0  0  0
    3.4616   -3.9942    0.0000 N   0  0  0  0  0  0  0  0  0  0  0  0
    2.3077   -3.3221    0.0000 C   0  0  0  0  0  0  0  0  0  0  0  0
    4.6155   -3.3221    0.0000 C   0  0  0  0  0  0  0  0  0  0  0  0
    4.6155   -1.9907    0.0000 C   0  0  0  0  0  0  0  0  0  0  0  0
    2.3077   -1.9907    0.0000 C   0  0  0  0  0  0  0  0  0  0  0  0
    3.4616   -1.3314    0.0000 C   0  0  0  0  0  0  0  0  0  0  0  0
    1.1539   -3.9942    0.0000 C   0  0  0  0  0  0  0  0  0  0  0  0
    0.4945   -2.8403    0.0000 F   0  0  0  0  0  0  0  0  0  0  0  0
    1.8259   -5.1354    0.0000 F   0  0  0  0  0  0  0  0  0  0  0  0
    0.0000   -4.6535    0.0000 F   0  0  0  0  0  0  0  0  0  0  0  0
   10.3722   -1.3314    0.0000 C   0  0  0  0  0  0  0  0  0  0  0  0
   11.5261   -1.9907    0.0000 O   0  0  0  0  0  0  0  0  0  0  0  0
   12.6799   -1.3314    0.0000 C   0  0  0  0  0  0  0  0  0  0  0  0
    5.7694   -1.3314    0.0000 C   0  0  0  0  0  0  0  0  0  0  0  0
  1  2  1  0  0  0  0
  1  6  2  0  0  0  0
  1 10  1  0  0  0  0
  2  3  2  0  0  0  0
  3  4  1  0  0  0  0
  4  5  2  0  0  0  0
  5  6  1  0  0  0  0
  6 11  1  0  0  0  0
  7  8  2  0  0  0  0
  7  9  1  0  0  0  0
  7 10  1  0  0  0  0
  9 26  1  0  0  0  0
 10 23  2  0  0  0  0
 11 12  1  0  0  0  0
 12 15  1  0  0  0  0
 13 14  1  0  0  0  0
 13 15  2  0  0  0  0
 14 17  2  0  0  0  0
 14 19  1  0  0  0  0
 15 16  1  0  0  0  0
 16 18  2  0  0  0  0
 17 18  1  0  0  0  0
 19 20  1  0  0  0  0
 19 21  1  0  0  0  0
 19 22  1  0  0  0  0
 23 24  1  0  0  0  0
 24 25  1  0  0  0  0
M  END
> <ID>
12666

> <Formula>
C18H16F3NO4

> <FW>
367.3191

> <DSSTox_CID>
27542

> <DSSTox_RID>
82407

> <DSSTox_GSID>
47542

> <DSSTox_FileID_Sort>
7088

> <TS_ChemName>
Picoxystrobin

> <TS_ChemName_Synonyms>


> <TS_CASRN>
117428-22-5

> <CASRN_ChemName_Relationship>
primary

> <TS_Description>
single chemical compound

> <ChemNote>
stereochem

> <STRUCTURE_Shown>
tested chemical

> <STRUCTURE_Formula>
C18H16F3NO4

> <STRUCTURE_MW>
367.3191

> <STRUCTURE_ChemType>
defined organic

> <STRUCTURE_DefinedOrganicForm>
parent

> <STRUCTURE_IUPAC>
methyl (2E)-3-methoxy-2-[2-({[6-(trifluoromethyl)pyridin-2-yl]oxy}methyl)phenyl]prop-2-enoate

> <STRUCTURE_SMILES>
O=C(OC)\C(=C\OC)c2ccccc2COc1cccc(n1)C(F)(F)F

> <STRUCTURE_SMILES_Desalt>
O=C(OC)\C(=C\OC)c2ccccc2COc1cccc(n1)C(F)(F)F

> <Substance_modify_yyyymmdd>
20100921

$$$$
