117467-28-4
ChemmineR-0915142007XD

 43 46  0  0  1  0  0  0  0  0  1 V2000
    6.8596   -5.6892    0.0000 C   0  0  0  0  0  0  0  0  0  0  0  0
    6.8596   -4.3563    0.0000 C   0  0  0  0  0  0  0  0  0  0  0  0
    8.1925   -5.6892    0.0000 N   0  0  0  0  0  0  0  0  0  0  0  0
    8.1925   -4.3563    0.0000 C   0  0  0  0  0  0  0  0  0  0  0  0
    9.3466   -3.6736    0.0000 S   0  0  0  0  0  0  0  0  0  0  0  0
   10.4844   -4.3563    0.0000 C   0  0  0  0  0  0  0  0  0  0  0  0
   10.4844   -5.6892    0.0000 C   0  0  0  0  0  0  0  0  0  0  0  0
    9.3466   -6.3394    0.0000 C   0  0  0  0  0  0  0  0  0  0  0  0
    5.9005   -6.6320    0.0000 O   0  0  0  0  0  0  0  0  0  0  0  0
    9.3466   -7.6886    0.0000 C   0  0  0  0  0  0  0  0  0  0  0  0
   10.4844   -8.3550    0.0000 O   0  0  0  0  0  0  0  0  0  0  0  0
    8.1925   -8.3550    0.0000 O   0  0  0  0  0  0  0  0  0  0  0  0
   11.6548   -6.3394    0.0000 C   0  0  0  0  0  0  0  0  0  0  0  0
    5.7217   -4.3563    0.0000 N   0  0  0  0  0  0  0  0  0  0  0  0
    6.8596   -3.0072    0.0000 H   0  0  0  0  0  0  0  0  0  0  0  0
    8.1925   -3.0072    0.0000 H   0  0  0  0  0  0  0  0  0  0  0  0
   12.8251   -5.6892    0.0000 C   0  0  0  0  0  0  0  0  0  0  0  0
    1.2679   -0.7802    0.0000 C   0  0  0  0  0  0  0  0  0  0  0  0
    1.6743   -2.0481    0.0000 N   0  0  0  0  0  0  0  0  0  0  0  0
    3.0072   -2.0481    0.0000 C   0  0  0  0  0  0  0  0  0  0  0  0
    3.4135   -0.7802    0.0000 C   0  0  0  0  0  0  0  0  0  0  0  0
    2.3407    0.0000    0.0000 S   0  0  0  0  0  0  0  0  0  0  0  0
    3.7224   -3.1860    0.0000 C   0  0  0  0  0  0  0  0  0  0  0  0
    5.0715   -3.1860    0.0000 C   0  0  0  0  0  0  0  0  0  0  0  0
    5.7217   -2.0319    0.0000 O   0  0  0  0  0  0  0  0  0  0  0  0
    3.0559   -4.3563    0.0000 N   0  0  0  0  0  0  0  0  0  0  0  0
    0.0000   -0.3739    0.0000 N   0  0  0  0  0  0  0  0  0  0  0  0
    3.7224   -5.4942    0.0000 O   0  0  0  0  0  0  0  0  0  0  0  0
   12.8251   -4.3563    0.0000 C   0  0  0  0  0  0  0  0  0  0  0  0
   12.0286   -3.2510    0.0000 S   0  0  0  0  0  0  0  0  0  0  0  0
   12.8251   -2.1782    0.0000 C   0  0  0  0  0  0  0  0  0  0  0  0
   14.0930   -2.6008    0.0000 N   0  0  0  0  0  0  0  0  0  0  0  0
   14.0930   -3.9337    0.0000 C   0  0  0  0  0  0  0  0  0  0  0  0
   15.1658   -4.7139    0.0000 C   0  0  0  0  0  0  0  0  0  0  0  0
    3.0559   -6.6645    0.0000 C   0  0  0  0  0  0  0  0  0  0  0  0
   13.9305   -7.7048    0.0000 C   0  0  0  0  0  0  0  0  0  0  0  0
   15.1008   -8.3550    0.0000 C   0  0  0  0  0  0  0  0  0  0  0  0
   12.8089   -8.3550    0.0000 O   0  0  0  0  0  0  0  0  0  0  0  0
   11.6223   -7.7048    0.0000 C   0  0  0  0  0  0  0  0  0  0  0  0
   13.9305   -6.3557    0.0000 O   0  0  0  0  0  0  0  0  0  0  0  0
   14.4344   -9.5091    0.0000 C   0  0  0  0  0  0  0  0  0  0  0  0
   15.7673   -7.2172    0.0000 C   0  0  0  0  0  0  0  0  0  0  0  0
   16.2549   -9.0377    0.0000 C   0  0  0  0  0  0  0  0  0  0  0  0
  1  9  2  0  0  0  0
  1  2  1  0  0  0  0
  1  3  1  0  0  0  0
  2  4  1  0  0  0  0
  2 14  1  1  0  0  0
  2 15  1  6  0  0  0
  3  4  1  0  0  0  0
  3  8  1  0  0  0  0
  4  5  1  0  0  0  0
  4 16  1  6  0  0  0
  5  6  1  0  0  0  0
  6  7  1  0  0  0  0
  7 13  1  0  0  0  0
  7  8  2  0  0  0  0
  8 10  1  0  0  0  0
 10 11  1  0  0  0  0
 10 12  2  0  0  0  0
 11 39  1  0  0  0  0
 13 17  2  0  0  0  0
 14 24  1  0  0  0  0
 17 29  1  0  0  0  0
 18 22  1  0  0  0  0
 18 19  2  0  0  0  0
 18 27  1  0  0  0  0
 19 20  1  0  0  0  0
 20 21  2  0  0  0  0
 20 23  1  0  0  0  0
 21 22  1  0  0  0  0
 23 24  1  0  0  0  0
 23 26  2  0  0  0  0
 24 25  2  0  0  0  0
 26 28  1  0  0  0  0
 28 35  1  0  0  0  0
 29 30  1  0  0  0  0
 29 33  2  0  0  0  0
 30 31  1  0  0  0  0
 31 32  2  0  0  0  0
 32 33  1  0  0  0  0
 33 34  1  0  0  0  0
 36 38  1  0  0  0  0
 36 37  1  0  0  0  0
 36 40  2  0  0  0  0
 37 41  1  0  0  0  0
 37 42  1  0  0  0  0
 37 43  1  0  0  0  0
 38 39  1  0  0  0  0
M  END
> <ID>
13734

> <Formula>
C25H28N6O7S3

> <FW>
620.7208

> <DSSTox_CID>
28669

> <DSSTox_RID>
82939

> <DSSTox_GSID>
48743

> <DSSTox_FileID_Sort>
7616

> <TS_ChemName>
Cefditorin pivoxil

> <TS_ChemName_Synonyms>


> <TS_CASRN>
117467-28-4

> <CASRN_ChemName_Relationship>
primary

> <TS_Description>
single chemical compound

> <ChemNote>


> <STRUCTURE_Shown>
tested chemical

> <STRUCTURE_Formula>
C25H28N6O7S3

> <STRUCTURE_MW>
620.7208

> <STRUCTURE_ChemType>
defined organic

> <STRUCTURE_DefinedOrganicForm>
parent

> <STRUCTURE_IUPAC>
[(2,2-dimethylpropanoyl)oxy]methyl (6R,7R)-7-{[(2Z)-2-(2-amino-1,3-thiazol-4-yl)-2-(methoxyimino)acetyl]amino}-3-[(Z)-2-(4-methyl-1,3-thiazol-5-yl)ethenyl]-8-oxo-5-thia-1-azabicyclo[4.2.0]oct-2-ene-2-carboxylate

> <STRUCTURE_SMILES>
Nc1scc(n1)\C(=N\OC)C(=O)N[C@@H]4C(=O)N3C(=C(/C=C\c2scnc2C)CS[C@@H]34)C(=O)OCOC(=O)C(C)(C)C

> <STRUCTURE_SMILES_Desalt>
Nc1scc(n1)\C(=N\OC)C(=O)N[C@@H]4C(=O)N3C(=C(/C=C\c2scnc2C)CS[C@@H]34)C(=O)OCOC(=O)C(C)(C)C

> <Substance_modify_yyyymmdd>
20111204

$$$$
