117414-74-1
ChemmineR-0915142007XD

 16 16  0  0  1  0  0  0  0  0  1 V2000
   10.3607   -1.9996    0.0000 O   0  0  0  0  0  0  0  0  0  0  0  0
    9.2107   -2.6627    0.0000 C   0  0  0  0  0  0  0  0  0  0  0  0
    9.2107   -3.9889    0.0000 O   0  0  0  0  0  0  0  0  0  0  0  0
    8.0606   -1.9996    0.0000 C   0  0  0  0  0  0  0  0  0  0  0  0
    6.9106   -2.6627    0.0000 C   0  0  0  0  0  0  0  0  0  0  0  0
    5.7606   -1.9996    0.0000 N   0  0  0  0  0  0  0  0  0  0  0  0
    5.7606   -0.6631    0.0000 C   0  0  0  0  0  0  0  0  0  0  0  0
    6.9106    0.0000    0.0000 C   0  0  0  0  0  0  0  0  0  0  0  0
    8.0606   -0.6631    0.0000 N   0  0  0  0  0  0  0  0  0  0  0  0
    4.6002   -2.6627    0.0000 C   0  0  0  0  0  0  0  0  0  0  0  0
    3.4501   -1.9996    0.0000 C   0  0  0  0  0  0  0  0  0  0  0  0
    2.3001   -2.6627    0.0000 C   0  0  0  0  0  0  0  0  0  0  0  0
    1.1500   -1.9996    0.0000 P   0  0  0  0  0  0  0  0  0  0  0  0
    0.4870   -3.1497    0.0000 O   0  0  0  0  0  0  0  0  0  0  0  0
    0.0000   -1.3262    0.0000 O   0  0  0  0  0  0  0  0  0  0  0  0
    1.8131   -0.8392    0.0000 O   0  0  0  0  0  0  0  0  0  0  0  0
  1  2  1  0  0  0  0
  2  3  2  0  0  0  0
  4  2  1  1  0  0  0
  4  5  1  0  0  0  0
  4  9  1  0  0  0  0
  5  6  1  0  0  0  0
  6  7  1  0  0  0  0
  6 10  1  0  0  0  0
  7  8  1  0  0  0  0
  8  9  1  0  0  0  0
 10 11  1  0  0  0  0
 11 12  2  0  0  0  0
 12 13  1  0  0  0  0
 13 14  1  0  0  0  0
 13 15  1  0  0  0  0
 13 16  2  0  0  0  0
M  END
> <ID>
11153

> <Formula>
C8H15N2O5P

> <FW>
250.1889

> <DSSTox_CID>
25740

> <DSSTox_RID>
81085

> <DSSTox_GSID>
45740

> <DSSTox_FileID_Sort>
5766

> <TS_ChemName>
Midafotel

> <TS_ChemName_Synonyms>


> <TS_CASRN>
117414-74-1

> <CASRN_ChemName_Relationship>
primary

> <TS_Description>
single chemical compound

> <ChemNote>


> <STRUCTURE_Shown>
tested chemical

> <STRUCTURE_Formula>
C8H15N2O5P

> <STRUCTURE_MW>
250.1889

> <STRUCTURE_ChemType>
defined organic

> <STRUCTURE_DefinedOrganicForm>
parent

> <STRUCTURE_IUPAC>
(2R)-4-[(2E)-3-phosphonoprop-2-en-1-yl]piperazine-2-carboxylic acid

> <STRUCTURE_SMILES>
O=C(O)[C@H]1CN(C/C=C/P(=O)(O)O)CCN1

> <STRUCTURE_SMILES_Desalt>
O=C(O)[C@H]1CN(C/C=C/P(=O)(O)O)CCN1

> <Substance_modify_yyyymmdd>
20100107

$$$$
