1176-74-5
ChemmineR-0915142007XD

 30 32  0  0  0  0  0  0  0  0  1 V2000
    6.3768   -5.3231    0.0000 C    0  0  0  0  0  0  0  0  0  0  0  0
    2.1622   -4.2475    0.0000 O    0  0  0  0  0  0  0  0  0  0  0  0
    3.4683   -4.4890    0.0000 C    0  0  0  0  0  0  0  0  0  0  0  0
    5.2243   -5.9816    0.0000 C    0  0  0  0  0  0  0  0  0  0  0  0
    3.9183   -5.7402    0.0000 C    0  0  0  0  0  0  0  0  0  0  0  0
    7.5072   -5.9926    0.0000 C    0  0  0  0  0  0  0  0  0  0  0  0
    6.3768   -3.9951    0.0000 C    0  0  0  0  0  0  0  0  0  0  0  0
    4.3353   -3.4792    0.0000 O    0  0  0  0  0  0  0  0  0  0  0  0
    7.5072   -7.3207    0.0000 C    0  0  0  0  0  0  0  0  0  0  0  0
    8.6597   -5.3341    0.0000 C    0  0  0  0  0  0  0  0  0  0  0  0
    7.5292   -3.3366    0.0000 C    0  0  0  0  0  0  0  0  0  0  0  0
    5.2134   -3.3366    0.0000 C    0  0  0  0  0  0  0  0  0  0  0  0
    9.8121   -7.3316    0.0000 C    0  0  0  0  0  0  0  0  0  0  0  0
    6.3768   -1.3390    0.0000 C    0  0  0  0  0  0  0  0  0  0  0  0
    5.6524   -7.2219    0.0000 C    0  0  0  0  0  0  0  0  0  0  0  0
    8.6487   -7.9902    0.0000 C    0  0  0  0  0  0  0  0  0  0  0  0
    7.5292   -1.9975    0.0000 C    0  0  0  0  0  0  0  0  0  0  0  0
    9.8121   -5.9926    0.0000 C    0  0  0  0  0  0  0  0  0  0  0  0
    5.2134   -2.0085    0.0000 C    0  0  0  0  0  0  0  0  0  0  0  0
   10.9645   -8.0121    0.0000 O    0  0  0  0  0  0  0  0  0  0  0  0
    6.3768    0.0000    0.0000 O    0  0  0  0  0  0  0  0  0  0  0  0
    3.0512   -6.7499    0.0000 C    0  0  0  0  0  0  0  0  0  0  0  0
    4.8073   -8.2426    0.0000 C    0  0  0  0  0  0  0  0  0  0  0  0
    3.5012   -7.9902    0.0000 C    0  0  0  0  0  0  0  0  0  0  0  0
    1.3061   -5.2573    0.0000 C    0  0  0  0  0  0  0  0  0  0  0  0
    0.0000   -5.0158    0.0000 C    0  0  0  0  0  0  0  0  0  0  0  0
    8.6926   -1.3390    0.0000 Br   0  0  0  0  0  0  0  0  0  0  0  0
    4.0500   -1.3390    0.0000 Br   0  0  0  0  0  0  0  0  0  0  0  0
   10.9755   -5.3341    0.0000 Br   0  0  0  0  0  0  0  0  0  0  0  0
    8.6487   -9.3182    0.0000 Br   0  0  0  0  0  0  0  0  0  0  0  0
  1  4  1  0  0  0  0
  1  6  2  0  0  0  0
  1  7  1  0  0  0  0
  2  3  1  0  0  0  0
  2 25  1  0  0  0  0
  3  8  2  0  0  0  0
  3  5  1  0  0  0  0
  4  5  2  0  0  0  0
  4 15  1  0  0  0  0
  5 22  1  0  0  0  0
  6  9  1  0  0  0  0
  6 10  1  0  0  0  0
  7 11  1  0  0  0  0
  7 12  2  0  0  0  0
  9 16  2  0  0  0  0
 10 18  2  0  0  0  0
 11 17  2  0  0  0  0
 12 19  1  0  0  0  0
 13 18  1  0  0  0  0
 13 20  2  0  0  0  0
 13 16  1  0  0  0  0
 14 19  2  0  0  0  0
 14 21  1  0  0  0  0
 14 17  1  0  0  0  0
 15 23  2  0  0  0  0
 16 30  1  0  0  0  0
 17 27  1  0  0  0  0
 18 29  1  0  0  0  0
 19 28  1  0  0  0  0
 22 24  2  0  0  0  0
 23 24  1  0  0  0  0
 25 26  1  0  0  0  0
M  END
> <ID>
10174

> <Formula>
C22H14Br4O4

> <FW>
661.9602

> <DSSTox_CID>
24520

> <DSSTox_RID>
80287

> <DSSTox_GSID>
44520

> <DSSTox_FileID_Sort>
4969

> <TS_ChemName>
Tetrabromophenolphthalein ethyl ester

> <TS_ChemName_Synonyms>
Benzoic acid, 2-[(3,5-dibromo-4-hydroxyphenyl) (3,5-dibromo-4-oxo-2,5-cyclohexadien-1-ylidene )methyl]-, ethyl ester

> <TS_CASRN>
1176-74-5

> <CASRN_ChemName_Relationship>
primary

> <TS_Description>
single chemical compound

> <ChemNote>


> <STRUCTURE_Shown>
tested chemical

> <STRUCTURE_Formula>
C22H14Br4O4

> <STRUCTURE_MW>
661.9602

> <STRUCTURE_ChemType>
defined organic

> <STRUCTURE_DefinedOrganicForm>
parent

> <STRUCTURE_IUPAC>
ethyl 2-[(3,5-dibromo-4-hydroxyphenyl)(3,5-dibromo-4-oxocyclohexa-2,5-dien-1-ylidene)methyl]benzoate

> <STRUCTURE_SMILES>
BrC1=CC(\C=C(Br)C1=O)=C(/c2cc(Br)c(O)c(Br)c2)c3ccccc3C(=O)OCC

> <STRUCTURE_SMILES_Desalt>
BrC1=CC(\C=C(Br)C1=O)=C(/c2cc(Br)c(O)c(Br)c2)c3ccccc3C(=O)OCC

> <Substance_modify_yyyymmdd>
20091116

$$$$
