1176-08-5
ChemmineR-0915142007XD

 32 32  0  0  0  0  0  0  0  0  1 V2000
    8.6433   -3.4497    0.0000 C   0  0  0  0  0  0  0  0  0  0  0  0
    7.9862   -4.5997    0.0000 C   0  0  0  0  0  0  0  0  0  0  0  0
    6.6594   -4.5997    0.0000 C   0  0  0  0  0  0  0  0  0  0  0  0
    5.9770   -3.4497    0.0000 C   0  0  0  0  0  0  0  0  0  0  0  0
    6.6594   -2.2872    0.0000 C   0  0  0  0  0  0  0  0  0  0  0  0
    5.9770   -1.1373    0.0000 O   0  0  0  0  0  0  0  0  0  0  0  0
    4.6502   -1.1373    0.0000 C   0  0  0  0  0  0  0  0  0  0  0  0
    3.9805   -2.2872    0.0000 C   0  0  0  0  0  0  0  0  0  0  0  0
    2.6410   -2.2872    0.0000 N   0  0  0  0  0  0  0  0  0  0  0  0
    1.9839   -3.4497    0.0000 C   0  0  0  0  0  0  0  0  0  0  0  0
    1.9839   -1.1373    0.0000 C   0  0  0  0  0  0  0  0  0  0  0  0
    7.9862   -2.2872    0.0000 C   0  0  0  0  0  0  0  0  0  0  0  0
    8.6433   -1.1373    0.0000 C   0  0  0  0  0  0  0  0  0  0  0  0
    9.9701   -1.1373    0.0000 C   0  0  0  0  0  0  0  0  0  0  0  0
   10.6525    0.0000    0.0000 C   0  0  0  0  0  0  0  0  0  0  0  0
   11.9667    0.0000    0.0000 C   0  0  0  0  0  0  0  0  0  0  0  0
   12.6364   -1.1373    0.0000 C   0  0  0  0  0  0  0  0  0  0  0  0
   11.9667   -2.2872    0.0000 C   0  0  0  0  0  0  0  0  0  0  0  0
   10.6525   -2.2872    0.0000 C   0  0  0  0  0  0  0  0  0  0  0  0
    3.3360   -7.1143    0.0000 C   0  0  0  0  0  0  0  0  0  0  0  0
    4.6628   -7.1143    0.0000 C   0  0  0  0  0  0  0  0  0  0  0  0
    1.9839   -7.1143    0.0000 C   0  0  0  0  0  0  0  0  0  0  0  0
    3.3360   -5.7748    0.0000 C   0  0  0  0  0  0  0  0  0  0  0  0
    2.1861   -5.1177    0.0000 O   0  0  0  0  0  0  0  0  0  0  0  0
    1.3268   -8.2516    0.0000 C   0  0  0  0  0  0  0  0  0  0  0  0
    0.0000   -8.2516    0.0000 O   0  0  0  0  0  0  0  0  0  0  0  0
    1.9839   -9.4268    0.0000 O   0  0  0  0  0  0  0  0  0  0  0  0
    5.3073   -8.2769    0.0000 C   0  0  0  0  0  0  0  0  0  0  0  0
    4.6502   -9.4268    0.0000 O   0  0  0  0  0  0  0  0  0  0  0  0
    6.6341   -8.2769    0.0000 O   0  0  0  0  0  0  0  0  0  0  0  0
    3.3360   -8.4538    0.0000 O   0  0  0  0  0  0  0  0  0  0  0  0
    4.4859   -5.1177    0.0000 O   0  0  0  0  0  0  0  0  0  0  0  0
  1  2  2  0  0  0  0
  1 12  1  0  0  0  0
  2  3  1  0  0  0  0
  3  4  2  0  0  0  0
  4  5  1  0  0  0  0
  5  6  1  0  0  0  0
  5 12  2  0  0  0  0
  6  7  1  0  0  0  0
  7  8  1  0  0  0  0
  8  9  1  0  0  0  0
  9 10  1  0  0  0  0
  9 11  1  0  0  0  0
 12 13  1  0  0  0  0
 13 14  1  0  0  0  0
 14 15  2  0  0  0  0
 14 19  1  0  0  0  0
 15 16  1  0  0  0  0
 16 17  2  0  0  0  0
 17 18  1  0  0  0  0
 18 19  2  0  0  0  0
 20 23  1  0  0  0  0
 20 22  1  0  0  0  0
 20 31  1  0  0  0  0
 20 21  1  0  0  0  0
 21 28  1  0  0  0  0
 22 25  1  0  0  0  0
 23 24  1  0  0  0  0
 23 32  2  0  0  0  0
 25 26  1  0  0  0  0
 25 27  2  0  0  0  0
 28 29  2  0  0  0  0
 28 30  1  0  0  0  0
M  END
> <ID>
12891

> <Formula>
C23H29NO8

> <FW>
447.4783 (255.3547+192.1235)

> <DSSTox_CID>
27770

> <DSSTox_RID>
82547

> <DSSTox_GSID>
47790

> <DSSTox_FileID_Sort>
7228

> <TS_ChemName>
Phenyltoloxamine citrate

> <TS_ChemName_Synonyms>


> <TS_CASRN>
1176-08-5

> <CASRN_ChemName_Relationship>
primary

> <TS_Description>
single chemical compound

> <ChemNote>
parent [92-12-6]

> <STRUCTURE_Shown>
tested chemical

> <STRUCTURE_Formula>
C23H29NO8

> <STRUCTURE_MW>
447.4783

> <STRUCTURE_ChemType>
defined organic

> <STRUCTURE_DefinedOrganicForm>
complex

> <STRUCTURE_IUPAC>
2-(2-benzylphenoxy)-N,N-dimethylethanamine 2-hydroxypropane-1,2,3-tricarboxylate (1:1)

> <STRUCTURE_SMILES>
O=C(O)C(O)(CC(=O)O)CC(=O)O.CN(C)CCOc2ccccc2Cc1ccccc1

> <STRUCTURE_SMILES_Desalt>
CN(C)CCOc2ccccc2Cc1ccccc1

> <Substance_modify_yyyymmdd>
20110929

$$$$
