1177-87-3
ChemmineR-0915142007XD

 33 36  0  0  1  0  0  0  0  0  1 V2000
    6.9476   -2.6672    0.0000 C   0  0  0  0  0  0  0  0  0  0  0  0
    4.6448   -4.0203    0.0000 C   0  0  0  0  0  0  0  0  0  0  0  0
    3.4998   -4.6708    0.0000 C   0  0  0  0  0  0  0  0  0  0  0  0
    6.9476   -4.0203    0.0000 C   0  0  0  0  0  0  0  0  0  0  0  0
    8.2227   -2.2508    0.0000 C   0  0  0  0  0  0  0  0  0  0  0  0
    5.8027   -4.6708    0.0000 C   0  0  0  0  0  0  0  0  0  0  0  0
    3.4998   -5.9979    0.0000 C   0  0  0  0  0  0  0  0  0  0  0  0
    4.6448   -2.6672    0.0000 C   0  0  0  0  0  0  0  0  0  0  0  0
    5.8027   -2.0036    0.0000 C   0  0  0  0  0  0  0  0  0  0  0  0
    9.0033   -3.3177    0.0000 C   0  0  0  0  0  0  0  0  0  0  0  0
    2.3679   -4.0203    0.0000 C   0  0  0  0  0  0  0  0  0  0  0  0
    8.2227   -4.3976    0.0000 C   0  0  0  0  0  0  0  0  0  0  0  0
    8.5870   -0.9628    0.0000 C   0  0  0  0  0  0  0  0  0  0  0  0
    2.3679   -6.6484    0.0000 C   0  0  0  0  0  0  0  0  0  0  0  0
    5.8027   -5.9979    0.0000 C   0  0  0  0  0  0  0  0  0  0  0  0
    1.1840   -4.6708    0.0000 C   0  0  0  0  0  0  0  0  0  0  0  0
    1.1840   -5.9979    0.0000 C   0  0  0  0  0  0  0  0  0  0  0  0
    4.6448   -6.6484    0.0000 C   0  0  0  0  0  0  0  0  0  0  0  0
    4.6318   -5.1522    0.0000 F   0  0  0  0  0  0  0  0  0  0  0  0
    9.8750   -0.6245    0.0000 C   0  0  0  0  0  0  0  0  0  0  0  0
    7.6372    0.0000    0.0000 O   0  0  0  0  0  0  0  0  0  0  0  0
   10.8118   -1.6003    0.0000 O   0  0  0  0  0  0  0  0  0  0  0  0
    0.0000   -6.7004    0.0000 O   0  0  0  0  0  0  0  0  0  0  0  0
    9.5888   -2.2508    0.0000 O   0  0  0  0  0  0  0  0  0  0  0  0
    6.9476   -1.3271    0.0000 C   0  0  0  0  0  0  0  0  0  0  0  0
    3.4738   -1.9906    0.0000 O   0  0  0  0  0  0  0  0  0  0  0  0
    3.4998   -3.3177    0.0000 C   0  0  0  0  0  0  0  0  0  0  0  0
   10.3564   -3.3177    0.0000 C   0  0  0  0  0  0  0  0  0  0  0  0
    5.8027   -3.3177    0.0000 H   0  0  0  0  0  0  0  0  0  0  0  0
    6.9476   -5.3213    0.0000 H   0  0  0  0  0  0  0  0  0  0  0  0
   12.1128   -1.2750    0.0000 C   0  0  0  0  0  0  0  0  0  0  0  0
   12.4641   -0.0130    0.0000 O   0  0  0  0  0  0  0  0  0  0  0  0
   13.0105   -2.2638    0.0000 C   0  0  0  0  0  0  0  0  0  0  0  0
  1  4  1  0  0  0  0
  1  5  1  0  0  0  0
  1  9  1  0  0  0  0
  1 25  1  1  0  0  0
  2  8  1  0  0  0  0
  2  3  1  0  0  0  0
  2 19  1  6  0  0  0
  2  6  1  0  0  0  0
  3  7  1  0  0  0  0
  3 11  1  0  0  0  0
  3 27  1  1  0  0  0
  4  6  1  0  0  0  0
  4 12  1  0  0  0  0
  4 30  1  6  0  0  0
  5 10  1  0  0  0  0
  5 13  1  0  0  0  0
  5 24  1  6  0  0  0
  6 15  1  0  0  0  0
  6 29  1  1  0  0  0
  7 14  2  0  0  0  0
  7 18  1  0  0  0  0
  8  9  1  0  0  0  0
  8 26  1  1  0  0  0
 10 28  1  6  0  0  0
 10 12  1  0  0  0  0
 11 16  2  0  0  0  0
 13 20  1  0  0  0  0
 13 21  2  0  0  0  0
 14 17  1  0  0  0  0
 15 18  1  0  0  0  0
 16 17  1  0  0  0  0
 17 23  2  0  0  0  0
 20 22  1  0  0  0  0
 22 31  1  0  0  0  0
 31 32  2  0  0  0  0
 31 33  1  0  0  0  0
M  END
> <ID>
2615

> <Formula>
C24H31FO6

> <FW>
434.4977

> <DSSTox_CID>
2901

> <DSSTox_RID>
76780

> <DSSTox_GSID>
22901

> <DSSTox_FileID_Sort>
1464

> <TS_ChemName>
Dexamethasone acetate

> <TS_ChemName_Synonyms>


> <TS_CASRN>
1177-87-3

> <CASRN_ChemName_Relationship>
primary

> <TS_Description>
single chemical compound

> <ChemNote>
stereochem; tautomers

> <STRUCTURE_Shown>
tested chemical

> <STRUCTURE_Formula>
C24H31FO6

> <STRUCTURE_MW>
434.4977

> <STRUCTURE_ChemType>
defined organic

> <STRUCTURE_DefinedOrganicForm>
parent

> <STRUCTURE_IUPAC>
(11beta,16alpha)-9-fluoro-11,17-dihydroxy-16-methyl-3,20-dioxopregna-1,4-dien-21-yl acetate

> <STRUCTURE_SMILES>
CC(=O)OCC(=O)[C@@]4(O)[C@H](C)C[C@@H]3[C@]4(C)C[C@H](O)[C@@]2(F)[C@H]3CCC1=CC(=O)C=C[C@@]12C

> <STRUCTURE_SMILES_Desalt>
CC(=O)OCC(=O)[C@@]4(O)[C@H](C)C[C@@H]3[C@]4(C)C[C@H](O)[C@@]2(F)[C@H]3CCC1=CC(=O)C=C[C@@]12C

> <Substance_modify_yyyymmdd>
20110511

$$$$
