117718-60-2
ChemmineR-0915142007XD

 26 27  0  0  0  0  0  0  0  0  1 V2000
    2.9844   -2.3875    0.0000 N   0  0  0  0  0  0  0  0  0  0  0  0
    2.2767   -3.5642    0.0000 C   0  0  0  0  0  0  0  0  0  0  0  0
    4.3487   -2.3875    0.0000 C   0  0  0  0  0  0  0  0  0  0  0  0
    5.0564   -3.5642    0.0000 C   0  0  0  0  0  0  0  0  0  0  0  0
    2.9844   -4.7750    0.0000 C   0  0  0  0  0  0  0  0  0  0  0  0
    4.3487   -4.7750    0.0000 C   0  0  0  0  0  0  0  0  0  0  0  0
    6.4377   -3.5642    0.0000 C   0  0  0  0  0  0  0  0  0  0  0  0
    7.1540   -4.7750    0.0000 O   0  0  0  0  0  0  0  0  0  0  0  0
    7.1540   -2.3875    0.0000 O   0  0  0  0  0  0  0  0  0  0  0  0
    5.0223   -1.1596    0.0000 C   0  0  0  0  0  0  0  0  0  0  0  0
    4.3146    0.0000    0.0000 F   0  0  0  0  0  0  0  0  0  0  0  0
    6.3866   -1.1596    0.0000 F   0  0  0  0  0  0  0  0  0  0  0  0
    2.2084   -7.0858    0.0000 N   0  0  0  0  0  0  0  0  0  0  0  0
    0.6310   -5.4913    0.0000 S   0  0  0  0  0  0  0  0  0  0  0  0
    1.9867   -5.7556    0.0000 C   0  0  0  0  0  0  0  0  0  0  0  0
    0.9806   -7.7338    0.0000 C   0  0  0  0  0  0  0  0  0  0  0  0
    0.0000   -6.7362    0.0000 C   0  0  0  0  0  0  0  0  0  0  0  0
    5.0223   -5.9773    0.0000 C   0  0  0  0  0  0  0  0  0  0  0  0
    4.6812   -7.3160    0.0000 C   0  0  0  0  0  0  0  0  0  0  0  0
    3.5130   -7.7850    0.0000 C   0  0  0  0  0  0  0  0  0  0  0  0
    5.6533   -8.2625    0.0000 C   0  0  0  0  0  0  0  0  0  0  0  0
    1.1255   -3.5642    0.0000 C   0  0  0  0  0  0  0  0  0  0  0  0
    0.0512   -3.5642    0.0000 F   0  0  0  0  0  0  0  0  0  0  0  0
    1.0744   -2.4387    0.0000 F   0  0  0  0  0  0  0  0  0  0  0  0
    1.1255   -4.4936    0.0000 F   0  0  0  0  0  0  0  0  0  0  0  0
    8.5268   -2.3875    0.0000 C   0  0  0  0  0  0  0  0  0  0  0  0
  1  2  1  0  0  0  0
  1  3  2  0  0  0  0
  2  5  2  0  0  0  0
  2 22  1  0  0  0  0
  3  4  1  0  0  0  0
  3 10  1  0  0  0  0
  4  6  2  0  0  0  0
  4  7  1  0  0  0  0
  5  6  1  0  0  0  0
  5 15  1  0  0  0  0
  6 18  1  0  0  0  0
  7  8  2  0  0  0  0
  7  9  1  0  0  0  0
  9 26  1  0  0  0  0
 10 11  1  0  0  0  0
 10 12  1  0  0  0  0
 13 15  2  0  0  0  0
 13 16  1  0  0  0  0
 14 15  1  0  0  0  0
 14 17  1  0  0  0  0
 16 17  1  0  0  0  0
 18 19  1  0  0  0  0
 19 20  1  0  0  0  0
 19 21  1  0  0  0  0
 22 23  1  0  0  0  0
 22 24  1  0  0  0  0
 22 25  1  0  0  0  0
M  END
> <ID>
6474

> <Formula>
C16H17F5N2O2S

> <FW>
396.3754

> <DSSTox_CID>
12488

> <DSSTox_RID>
78955

> <DSSTox_GSID>
32488

> <DSSTox_FileID_Sort>
3637

> <TS_ChemName>
Thiazopyr

> <TS_ChemName_Synonyms>
Thiazopyr (RH-135,680)

> <TS_CASRN>
117718-60-2

> <CASRN_ChemName_Relationship>
primary

> <TS_Description>
single chemical compound

> <ChemNote>


> <STRUCTURE_Shown>
tested chemical

> <STRUCTURE_Formula>
C16H17F5N2O2S

> <STRUCTURE_MW>
396.3754

> <STRUCTURE_ChemType>
defined organic

> <STRUCTURE_DefinedOrganicForm>
parent

> <STRUCTURE_IUPAC>
methyl 2-(difluoromethyl)-5-(4,5-dihydro-1,3-thiazol-2-yl)-4-(2-methylpropyl)-6-(trifluoromethyl)pyridine-3-carboxylate

> <STRUCTURE_SMILES>
CC(C)Cc1c(c(nc(C(F)F)c1C(=O)OC)C(F)(F)F)C2=NCCS2

> <STRUCTURE_SMILES_Desalt>
CC(C)Cc1c(c(nc(C(F)F)c1C(=O)OC)C(F)(F)F)C2=NCCS2

> <Substance_modify_yyyymmdd>
20080429

$$$$
