117704-25-3
ChemmineR-0915142007XD

 68 75  0  0  1  0  0  0  0  0  1 V2000
   12.5502   -2.6698    0.0000 C   0  0  0  0  0  0  0  0  0  0  0  0
   11.4093   -1.9852    0.0000 C   0  0  0  0  0  0  0  0  0  0  0  0
   11.4093   -4.6322    0.0000 C   0  0  0  0  0  0  0  0  0  0  0  0
   10.2684   -2.6698    0.0000 C   0  0  0  0  0  0  0  0  0  0  0  0
   10.2684   -3.9704    0.0000 C   0  0  0  0  0  0  0  0  0  0  0  0
   13.6912   -1.9852    0.0000 C   0  0  0  0  0  0  0  0  0  0  0  0
   14.8321   -2.6698    0.0000 C   0  0  0  0  0  0  0  0  0  0  0  0
   14.8321   -3.9704    0.0000 C   0  0  0  0  0  0  0  0  0  0  0  0
   15.9730   -1.9852    0.0000 O   0  0  0  0  0  0  0  0  0  0  0  0
   17.1140   -2.6698    0.0000 C   0  0  0  0  0  0  0  0  0  0  0  0
   15.9730   -4.6322    0.0000 C   0  0  0  0  0  0  0  0  0  0  0  0
   17.1140   -3.9704    0.0000 C   0  0  0  0  0  0  0  0  0  0  0  0
   19.3958   -1.3691    0.0000 C   0  0  0  0  0  0  0  0  0  0  0  0
   19.3958   -2.6698    0.0000 C   0  0  0  0  0  0  0  0  0  0  0  0
   18.2549   -0.7074    0.0000 C   0  0  0  0  0  0  0  0  0  0  0  0
   18.2549   -3.3543    0.0000 O   0  0  0  0  0  0  0  0  0  0  0  0
   17.1140   -1.3691    0.0000 C   0  0  0  0  0  0  0  0  0  0  0  0
   20.5368   -3.3543    0.0000 C   0  0  0  0  0  0  0  0  0  0  0  0
   21.6777   -2.6698    0.0000 C   0  0  0  0  0  0  0  0  0  0  0  0
   20.5368   -4.6322    0.0000 C   0  0  0  0  0  0  0  0  0  0  0  0
   22.8186   -3.3543    0.0000 C   0  0  0  0  0  0  0  0  0  0  0  0
   21.6777   -5.3167    0.0000 C   0  0  0  0  0  0  0  0  0  0  0  0
   22.8186   -4.6322    0.0000 C   0  0  0  0  0  0  0  0  0  0  0  0
   13.6912   -5.9328    0.0000 O   0  0  0  0  0  0  0  0  0  0  0  0
   15.9730   -5.9328    0.0000 O   0  0  0  0  0  0  0  0  0  0  0  0
   14.8321   -6.6174    0.0000 C   0  0  0  0  0  0  0  0  0  0  0  0
   12.5502   -6.6174    0.0000 C   0  0  0  0  0  0  0  0  0  0  0  0
   12.5502   -7.9181    0.0000 C   0  0  0  0  0  0  0  0  0  0  0  0
   14.8321   -7.9181    0.0000 C   0  0  0  0  0  0  0  0  0  0  0  0
   13.6912   -8.6026    0.0000 C   0  0  0  0  0  0  0  0  0  0  0  0
   11.4093   -5.9328    0.0000 C   0  0  0  0  0  0  0  0  0  0  0  0
   11.4093   -8.6026    0.0000 C   0  0  0  0  0  0  0  0  0  0  0  0
   11.4093   -9.9033    0.0000 O   0  0  0  0  0  0  0  0  0  0  0  0
   13.6912   -9.9033    0.0000 C   0  0  0  0  0  0  0  0  0  0  0  0
   15.9730   -8.6026    0.0000 C   0  0  0  0  0  0  0  0  0  0  0  0
   15.9730   -9.9033    0.0000 C   0  0  0  0  0  0  0  0  0  0  0  0
   14.8321  -10.5650    0.0000 C   0  0  0  0  0  0  0  0  0  0  0  0
   13.6912   -7.2335    0.0000 O   0  0  0  0  0  0  0  0  0  0  0  0
   14.8321  -11.8657    0.0000 O   0  0  0  0  0  0  0  0  0  0  0  0
    9.1274   -1.9852    0.0000 O   0  0  0  0  0  0  0  0  0  0  0  0
   11.4093   -0.7074    0.0000 C   0  0  0  0  0  0  0  0  0  0  0  0
    9.1274   -4.6322    0.0000 C   0  0  0  0  0  0  0  0  0  0  0  0
    7.9865   -2.6698    0.0000 C   0  0  0  0  0  0  0  0  0  0  0  0
    6.8456   -1.9852    0.0000 C   0  0  0  0  0  0  0  0  0  0  0  0
    7.9865   -3.9704    0.0000 O   0  0  0  0  0  0  0  0  0  0  0  0
    5.7047   -2.6698    0.0000 C   0  0  0  0  0  0  0  0  0  0  0  0
    6.8456   -4.6322    0.0000 C   0  0  0  0  0  0  0  0  0  0  0  0
    5.7047   -3.9704    0.0000 C   0  0  0  0  0  0  0  0  0  0  0  0
   14.8321   -1.3691    0.0000 H   0  0  0  0  0  0  0  0  0  0  0  0
   19.3958   -3.9704    0.0000 H   0  0  0  0  0  0  0  0  0  0  0  0
   20.5368   -0.7074    0.0000 C   0  0  0  0  0  0  0  0  0  0  0  0
   15.9730   -7.2335    0.0000 H   0  0  0  0  0  0  0  0  0  0  0  0
   13.6912  -11.2496    0.0000 H   0  0  0  0  0  0  0  0  0  0  0  0
   17.1140  -10.5650    0.0000 C   0  0  0  0  0  0  0  0  0  0  0  0
    4.5637   -1.9852    0.0000 O   0  0  0  0  0  0  0  0  0  0  0  0
    4.5637   -4.6322    0.0000 O   0  0  0  0  0  0  0  0  0  0  0  0
    6.8456   -5.9328    0.0000 C   0  0  0  0  0  0  0  0  0  0  0  0
    4.5637   -0.7074    0.0000 C   0  0  0  0  0  0  0  0  0  0  0  0
    3.4228   -3.9704    0.0000 C   0  0  0  0  0  0  0  0  0  0  0  0
    3.4228   -2.6698    0.0000 C   0  0  0  0  0  0  0  0  0  0  0  0
    2.2819   -4.6322    0.0000 O   0  0  0  0  0  0  0  0  0  0  0  0
    2.2819   -1.9852    0.0000 C   0  0  0  0  0  0  0  0  0  0  0  0
    1.1409   -3.9704    0.0000 C   0  0  0  0  0  0  0  0  0  0  0  0
    1.1409   -2.6698    0.0000 C   0  0  0  0  0  0  0  0  0  0  0  0
    0.0000   -4.6322    0.0000 C   0  0  0  0  0  0  0  0  0  0  0  0
    0.0000   -1.9852    0.0000 O   0  0  0  0  0  0  0  0  0  0  0  0
    2.2819   -0.7074    0.0000 O   0  0  0  0  0  0  0  0  0  0  0  0
    3.4228    0.0000    0.0000 C   0  0  0  0  0  0  0  0  0  0  0  0
  1  2  2  0  0  0  0
  1  6  1  0  0  0  0
  2  4  1  0  0  0  0
  2 41  1  0  0  0  0
  3  5  1  0  0  0  0
  3 31  2  0  0  0  0
  4  5  1  0  0  0  0
  4 40  1  6  0  0  0
  5 42  1  6  0  0  0
  6  7  1  0  0  0  0
  7  9  1  0  0  0  0
  7  8  1  0  0  0  0
  7 49  1  6  0  0  0
  8 11  1  0  0  0  0
  9 10  1  0  0  0  0
 10 12  1  0  0  0  0
 10 16  1  6  0  0  0
 10 17  1  0  0  0  0
 11 12  1  0  0  0  0
 11 25  1  1  0  0  0
 13 14  1  0  0  0  0
 13 15  1  0  0  0  0
 13 51  1  6  0  0  0
 14 16  1  0  0  0  0
 14 18  1  0  0  0  0
 14 50  1  6  0  0  0
 15 17  2  0  0  0  0
 18 19  1  0  0  0  0
 18 20  1  0  0  0  0
 19 21  1  0  0  0  0
 20 22  1  0  0  0  0
 21 23  1  0  0  0  0
 22 23  1  0  0  0  0
 24 26  2  0  0  0  0
 25 26  1  0  0  0  0
 26 29  1  0  0  0  0
 27 28  2  0  0  0  0
 27 31  1  0  0  0  0
 28 32  1  0  0  0  0
 28 30  1  0  0  0  0
 29 35  1  0  0  0  0
 29 30  1  0  0  0  0
 29 52  1  1  0  0  0
 30 34  1  0  0  0  0
 30 38  1  6  0  0  0
 32 33  1  0  0  0  0
 33 34  1  0  0  0  0
 34 37  1  0  0  0  0
 34 53  1  6  0  0  0
 35 36  2  0  0  0  0
 36 37  1  0  0  0  0
 36 54  1  0  0  0  0
 37 39  1  1  0  0  0
 43 40  1  6  0  0  0
 43 44  1  0  0  0  0
 43 45  1  0  0  0  0
 44 46  1  0  0  0  0
 45 47  1  0  0  0  0
 46 48  1  0  0  0  0
 46 55  1  1  0  0  0
 47 48  1  0  0  0  0
 47 57  1  1  0  0  0
 48 56  1  6  0  0  0
 55 58  1  0  0  0  0
 59 56  1  6  0  0  0
 59 60  1  0  0  0  0
 59 61  1  0  0  0  0
 60 62  1  0  0  0  0
 61 63  1  0  0  0  0
 62 64  1  0  0  0  0
 62 67  1  1  0  0  0
 63 64  1  0  0  0  0
 63 65  1  1  0  0  0
 64 66  1  6  0  0  0
 67 68  1  0  0  0  0
M  END
> <ID>
13969

> <Formula>
C50H74O14

> <FW>
899.1142

> <DSSTox_CID>
28908

> <DSSTox_RID>
83176

> <DSSTox_GSID>
48982

> <DSSTox_FileID_Sort>
7852

> <TS_ChemName>
Doramectin

> <TS_ChemName_Synonyms>


> <TS_CASRN>
117704-25-3

> <CASRN_ChemName_Relationship>
primary

> <TS_Description>
single chemical compound

> <ChemNote>


> <STRUCTURE_Shown>
tested chemical

> <STRUCTURE_Formula>
C50H74O14

> <STRUCTURE_MW>
899.1142

> <STRUCTURE_ChemType>
defined organic

> <STRUCTURE_DefinedOrganicForm>
parent

> <STRUCTURE_IUPAC>
(2aE,4E,5'S,6S,6'R,7S,8E,11R,13S,15S,17aR,20R,20aR,20bS)-6'-cyclohexyl-20,20b-dihydroxy-5',6,8,19-tetramethyl-17-oxo-5',6,6',10,11,14,15,17,17a,20,20a,20b-dodecahydro-2H,7H-spiro[11,15-methanofuro[4,3,2-pq][2,6]benzodioxacyclooctadecine-13,2'-pyran]-7-yl

> <STRUCTURE_SMILES>
CO[C@H]1C[C@@H](O[C@@H](C)[C@@H]1O)O[C@@H]2[C@@H](OC)C[C@@H](O[C@H]2C)O[C@@H]3C(C)=CC[C@@H]6C[C@H](OC(=O)[C@@H]4C=C(C)[C@@H](O)[C@H]5OCC(=CC=C[C@@H]3C)[C@@]45O)C[C@@]7(O6)C=C[C@H](C)[C@H](O7)C8CCCCC8

> <STRUCTURE_SMILES_Desalt>
CO[C@H]1C[C@@H](O[C@@H](C)[C@@H]1O)O[C@@H]2[C@@H](OC)C[C@@H](O[C@H]2C)O[C@@H]3C(C)=CC[C@@H]6C[C@H](OC(=O)[C@@H]4C=C(C)[C@@H](O)[C@H]5OCC(=CC=C[C@@H]3C)[C@@]45O)C[C@@]7(O6)C=C[C@H](C)[C@H](O7)C8CCCCC8

> <Substance_modify_yyyymmdd>
20111204

$$$$
