1178-29-6
ChemmineR-0915142007XD

 35 38  0  0  1  0  0  0  0  0  1 V2000
    6.8150   -1.9355    0.0000 C    0  0  0  0  0  0  0  0  0  0  0  0
    5.6973   -2.5897    0.0000 N    0  0  0  0  0  0  0  0  0  0  0  0
    6.8150   -0.6270    0.0000 C    0  0  0  0  0  0  0  0  0  0  0  0
    9.0503   -5.8200    0.0000 C    0  0  0  0  0  0  0  0  0  0  0  0
    9.0503   -4.5115    0.0000 C    0  0  0  0  0  0  0  0  0  0  0  0
    7.9190   -2.5761    0.0000 C    0  0  0  0  0  0  0  0  0  0  0  0
    9.0503   -1.9355    0.0000 N    0  0  0  0  0  0  0  0  0  0  0  0
    4.5388   -1.9355    0.0000 C    0  0  0  0  0  0  0  0  0  0  0  0
    4.5388   -0.6270    0.0000 C    0  0  0  0  0  0  0  0  0  0  0  0
   10.2088   -3.8982    0.0000 C    0  0  0  0  0  0  0  0  0  0  0  0
    7.9190   -3.8982    0.0000 C    0  0  0  0  0  0  0  0  0  0  0  0
   10.2088   -6.4606    0.0000 C    0  0  0  0  0  0  0  0  0  0  0  0
    7.9190   -6.4879    0.0000 C    0  0  0  0  0  0  0  0  0  0  0  0
   10.2088   -2.5761    0.0000 C    0  0  0  0  0  0  0  0  0  0  0  0
   11.3537   -5.8200    0.0000 C    0  0  0  0  0  0  0  0  0  0  0  0
    7.9190   -0.0136    0.0000 C    0  0  0  0  0  0  0  0  0  0  0  0
   11.3537   -4.5251    0.0000 C    0  0  0  0  0  0  0  0  0  0  0  0
    3.4211   -2.5897    0.0000 C    0  0  0  0  0  0  0  0  0  0  0  0
    3.4211    0.0000    0.0000 C    0  0  0  0  0  0  0  0  0  0  0  0
    9.0503   -0.6679    0.0000 C    0  0  0  0  0  0  0  0  0  0  0  0
    7.9326   -7.7827    0.0000 O    0  0  0  0  0  0  0  0  0  0  0  0
    2.2762   -1.9355    0.0000 C    0  0  0  0  0  0  0  0  0  0  0  0
    2.2762   -0.6270    0.0000 C    0  0  0  0  0  0  0  0  0  0  0  0
   10.2088   -7.7827    0.0000 O    0  0  0  0  0  0  0  0  0  0  0  0
    6.8150   -5.8336    0.0000 O    0  0  0  0  0  0  0  0  0  0  0  0
   12.5123   -6.4879    0.0000 O    0  0  0  0  0  0  0  0  0  0  0  0
    1.1177   -2.5761    0.0000 O    0  0  0  0  0  0  0  0  0  0  0  0
   11.3537   -8.4233    0.0000 C    0  0  0  0  0  0  0  0  0  0  0  0
    5.6701   -6.5015    0.0000 C    0  0  0  0  0  0  0  0  0  0  0  0
   13.6299   -5.8200    0.0000 C    0  0  0  0  0  0  0  0  0  0  0  0
    0.0000   -1.8809    0.0000 C    0  0  0  0  0  0  0  0  0  0  0  0
   11.3537   -3.2439    0.0000 H    0  0  0  0  0  0  0  0  0  0  0  0
    6.8559   -3.2167    0.0000 H    0  0  0  0  0  0  0  0  0  0  0  0
    7.9463   -5.1930    0.0000 H    0  0  0  0  0  0  0  0  0  0  0  0
    2.6851   -4.4434    0.0000 Cl   0  0  0  0  0  0  0  0  0  0  0  0
  1  2  1  0  0  0  0
  1  3  2  0  0  0  0
  1  6  1  0  0  0  0
  2  8  1  0  0  0  0
  3  9  1  0  0  0  0
  3 16  1  0  0  0  0
  4  5  1  0  0  0  0
  4 12  1  0  0  0  0
  4 13  1  1  0  0  0
  5 11  1  0  0  0  0
  5 10  1  0  0  0  0
  5 34  1  6  0  0  0
  6  7  1  0  0  0  0
  6 11  1  0  0  0  0
  6 33  1  1  0  0  0
  7 14  1  0  0  0  0
  7 20  1  0  0  0  0
  8 18  1  0  0  0  0
  8  9  2  0  0  0  0
  9 19  1  0  0  0  0
 10 17  1  0  0  0  0
 10 32  1  6  0  0  0
 10 14  1  0  0  0  0
 12 24  1  6  0  0  0
 12 15  1  0  0  0  0
 13 21  2  0  0  0  0
 13 25  1  0  0  0  0
 15 17  1  0  0  0  0
 15 26  1  6  0  0  0
 16 20  1  0  0  0  0
 18 22  2  0  0  0  0
 19 23  2  0  0  0  0
 22 27  1  0  0  0  0
 22 23  1  0  0  0  0
 24 28  1  0  0  0  0
 25 29  1  0  0  0  0
 26 30  1  0  0  0  0
 27 31  1  0  0  0  0
M  END
> <ID>
12019

> <Formula>
C24H33ClN2O5

> <FW>
464.9822 (428.5213+36.4609)

> <DSSTox_CID>
26846

> <DSSTox_RID>
81956

> <DSSTox_GSID>
46846

> <DSSTox_FileID_Sort>
6637

> <TS_ChemName>
Metoserpate hydrochloride

> <TS_ChemName_Synonyms>


> <TS_CASRN>
1178-29-6

> <CASRN_ChemName_Relationship>
primary

> <TS_Description>
single chemical compound

> <ChemNote>
stereochem; parent [1178-28-5]

> <STRUCTURE_Shown>
tested chemical

> <STRUCTURE_Formula>
C24H33ClN2O5

> <STRUCTURE_MW>
464.9822

> <STRUCTURE_ChemType>
defined organic

> <STRUCTURE_DefinedOrganicForm>
complex

> <STRUCTURE_IUPAC>
methyl (3beta,16beta,17alpha,18alpha,20alpha)-11,17,18-trimethoxyyohimban-16-carboxylate hydrochloride (1:1)

> <STRUCTURE_SMILES>
Cl.O=C(OC)[C@@H]2[C@@H](OC)[C@H](C[C@@H]3CN4CCc1c5ccc(OC)cc5nc1[C@H]4C[C@H]23)OC

> <STRUCTURE_SMILES_Desalt>
O=C(OC)[C@@H]2[C@@H](OC)[C@H](C[C@@H]3CN4CCc1c5ccc(OC)cc5nc1[C@H]4C[C@H]23)OC

> <Substance_modify_yyyymmdd>
20110729

$$$$
