117976-90-6
ChemmineR-0915142007XD

 26 27  0  0  0  0  0  0  0  0  2 V2000
    2.3169   -6.4028    0.0000 C    0  0  0  0  0  0  0  0  0  0  0  0
    2.3169   -5.0721    0.0000 C    0  0  0  0  0  0  0  0  0  0  0  0
    3.5693   -6.8255    0.0000 N    0  5  0  0  0  0  0  0  0  0  0  0
    1.1585   -7.0759    0.0000 C    0  0  0  0  0  0  0  0  0  0  0  0
    3.5693   -4.6651    0.0000 N    0  0  0  0  0  0  0  0  0  0  0  0
    1.1585   -4.4146    0.0000 C    0  0  0  0  0  0  0  0  0  0  0  0
    4.3520   -5.7453    0.0000 C    0  0  0  0  0  0  0  0  0  0  0  0
    0.0000   -6.4028    0.0000 C    0  0  0  0  0  0  0  0  0  0  0  0
    0.0000   -5.0721    0.0000 C    0  0  0  0  0  0  0  0  0  0  0  0
    5.6827   -5.7453    0.0000 S    0  0  0  0  0  0  0  0  0  0  0  0
    6.3402   -4.5868    0.0000 C    0  0  0  0  0  0  0  0  0  0  0  0
    6.3402   -6.9037    0.0000 O    0  0  0  0  0  0  0  0  0  0  0  0
    7.6708   -4.5868    0.0000 C    0  0  0  0  0  0  0  0  0  0  0  0
    8.3283   -3.4440    0.0000 C    0  0  0  0  0  0  0  0  0  0  0  0
    8.3283   -5.7453    0.0000 N    0  0  0  0  0  0  0  0  0  0  0  0
    9.6590   -3.4440    0.0000 C    0  0  0  0  0  0  0  0  0  0  0  0
    7.6708   -2.3012    0.0000 C    0  0  0  0  0  0  0  0  0  0  0  0
    9.6590   -5.7453    0.0000 C    0  0  0  0  0  0  0  0  0  0  0  0
   10.3321   -4.5868    0.0000 C    0  0  0  0  0  0  0  0  0  0  0  0
   10.3321   -2.3012    0.0000 O    0  0  0  0  0  0  0  0  0  0  0  0
   11.6628   -2.3012    0.0000 C    0  0  0  0  0  0  0  0  0  0  0  0
   12.3203   -1.1428    0.0000 C    0  0  0  0  0  0  0  0  0  0  0  0
   13.6509   -1.1428    0.0000 C    0  0  0  0  0  0  0  0  0  0  0  0
   14.3241    0.0000    0.0000 O    0  0  0  0  0  0  0  0  0  0  0  0
   15.6548    0.0000    0.0000 C    0  0  0  0  0  0  0  0  0  0  0  0
    4.5086   -7.6708    0.0000 Na   0  3  0  0  0  0  0  0  0  0  0  0
  1  2  2  0  0  0  0
  1  3  1  0  0  0  0
  1  4  1  0  0  0  0
  2  5  1  0  0  0  0
  2  6  1  0  0  0  0
  3  7  1  0  0  0  0
  4  8  2  0  0  0  0
  5  7  2  0  0  0  0
  6  9  2  0  0  0  0
  7 10  1  0  0  0  0
  8  9  1  0  0  0  0
 10 11  1  0  0  0  0
 10 12  2  0  0  0  0
 11 13  1  0  0  0  0
 13 14  2  0  0  0  0
 13 15  1  0  0  0  0
 14 16  1  0  0  0  0
 14 17  1  0  0  0  0
 15 18  2  0  0  0  0
 16 19  2  0  0  0  0
 16 20  1  0  0  0  0
 18 19  1  0  0  0  0
 20 21  1  0  0  0  0
 21 22  1  0  0  0  0
 22 23  1  0  0  0  0
 23 24  1  0  0  0  0
 24 25  1  0  0  0  0
M  END
> <ID>
9901

> <Formula>
C18H20N3NaO3S

> <FW>
381.4245 (358.4352+22.9892)

> <DSSTox_CID>
24205

> <DSSTox_RID>
80118

> <DSSTox_GSID>
44205

> <DSSTox_FileID_Sort>
4800

> <TS_ChemName>
Rabeprazole sodium

> <TS_ChemName_Synonyms>


> <TS_CASRN>
117976-90-6

> <CASRN_ChemName_Relationship>
primary

> <TS_Description>
single chemical compound

> <ChemNote>
parent [117976-89-3]

> <STRUCTURE_Shown>
tested chemical

> <STRUCTURE_Formula>
C18H20N3NaO3S

> <STRUCTURE_MW>
381.4245

> <STRUCTURE_ChemType>
defined organic

> <STRUCTURE_DefinedOrganicForm>
salt

> <STRUCTURE_IUPAC>
sodium 2-({[4-(3-methoxypropoxy)-3-methylpyridin-2-yl]methyl}sulfinyl)benzimidazol-1-ide

> <STRUCTURE_SMILES>
[Na+].Cc3c(OCCCOC)ccnc3CS(=O)c1[n-]c2ccccc2n1

> <STRUCTURE_SMILES_Desalt>
Cc3c(OCCCOC)ccnc3CS(=O)c1nc2ccccc2n1

> <Substance_modify_yyyymmdd>
20090302

$$$$
