117947-85-0
ChemmineR-0915142007XD

 13 12  0  0  0  0  0  0  0  0  2 V2000
    1.1720   -2.0289    0.0000 N   0  3  0  0  0  0  0  0  0  0  0  0
    2.2414   -1.2452    0.0000 C   0  0  0  0  0  0  0  0  0  0  0  0
    0.0952   -1.2452    0.0000 C   0  0  0  0  0  0  0  0  0  0  0  0
    1.8458    0.0000    0.0000 C   0  0  0  0  0  0  0  0  0  0  0  0
    0.4981    0.0000    0.0000 C   0  0  0  0  0  0  0  0  0  0  0  0
    1.1720   -3.3620    0.0000 C   0  0  0  0  0  0  0  0  0  0  0  0
    0.0000   -4.0359    0.0000 C   0  0  0  0  0  0  0  0  0  0  0  0
    2.3586   -2.6442    0.0000 C   0  0  0  0  0  0  0  0  0  0  0  0
    5.9916   -2.0143    0.0000 B   0  5  0  0  0  0  0  0  0  0  0  0
    4.6658   -2.0143    0.0000 F   0  0  0  0  0  0  0  0  0  0  0  0
    5.9916   -3.3474    0.0000 F   0  0  0  0  0  0  0  0  0  0  0  0
    5.9916   -0.6885    0.0000 F   0  0  0  0  0  0  0  0  0  0  0  0
    7.3247   -2.0143    0.0000 F   0  0  0  0  0  0  0  0  0  0  0  0
  1  2  1  0  0  0  0
  1  3  1  0  0  0  0
  1  6  1  0  0  0  0
  1  8  1  0  0  0  0
  2  4  1  0  0  0  0
  3  5  1  0  0  0  0
  4  5  1  0  0  0  0
  6  7  1  0  0  0  0
  9 10  1  0  0  0  0
  9 11  1  0  0  0  0
  9 12  1  0  0  0  0
  9 13  1  0  0  0  0
M  END
> <ID>
13551

> <Formula>
C7H16BF4N

> <FW>
201.0133 (114.2081+86.8052)

> <DSSTox_CID>
28477

> <DSSTox_RID>
83281

> <DSSTox_GSID>
49206

> <DSSTox_FileID_Sort>
7956

> <TS_ChemName>
1-Ethyl-1-methylpyrrolidinium tetrafluoroborate

> <TS_ChemName_Synonyms>


> <TS_CASRN>
117947-85-0

> <CASRN_ChemName_Relationship>
primary

> <TS_Description>
mixture or formulation

> <ChemNote>
CAS for main component; mixture with piperidine [110-89-4]

> <STRUCTURE_Shown>
representative component

> <STRUCTURE_Formula>
C7H16BF4N

> <STRUCTURE_MW>
201.0133

> <STRUCTURE_ChemType>
defined organic

> <STRUCTURE_DefinedOrganicForm>
complex

> <STRUCTURE_IUPAC>
1-ethyl-1-methylpyrrolidinium tetrafluoroborate

> <STRUCTURE_SMILES>
F[B-](F)(F)F.C[N+]1(CC)CCCC1

> <STRUCTURE_SMILES_Desalt>
C[N+]1(CC)CCCC1

> <Substance_modify_yyyymmdd>
20111204

$$$$
