118-29-6
ChemmineR-0915142007XD

 13 14  0  0  0  0  0  0  0  0  1 V2000
    2.2957   -1.6869    0.0000 C   0  0  0  0  0  0  0  0  0  0  0  0
    2.2957   -2.9996    0.0000 C   0  0  0  0  0  0  0  0  0  0  0  0
    4.3504   -2.3401    0.0000 N   0  0  0  0  0  0  0  0  0  0  0  0
    3.5640   -1.2683    0.0000 C   0  0  0  0  0  0  0  0  0  0  0  0
    3.5640   -3.4182    0.0000 C   0  0  0  0  0  0  0  0  0  0  0  0
    1.1415   -1.0083    0.0000 C   0  0  0  0  0  0  0  0  0  0  0  0
    1.1415   -3.6718    0.0000 C   0  0  0  0  0  0  0  0  0  0  0  0
    0.0000   -2.9996    0.0000 C   0  0  0  0  0  0  0  0  0  0  0  0
    0.0000   -1.6869    0.0000 C   0  0  0  0  0  0  0  0  0  0  0  0
    3.9826   -4.6865    0.0000 O   0  0  0  0  0  0  0  0  0  0  0  0
    3.9826    0.0000    0.0000 O   0  0  0  0  0  0  0  0  0  0  0  0
    5.6822   -2.3401    0.0000 C   0  0  0  0  0  0  0  0  0  0  0  0
    6.3417   -1.1859    0.0000 O   0  0  0  0  0  0  0  0  0  0  0  0
  1  2  2  0  0  0  0
  1  4  1  0  0  0  0
  1  6  1  0  0  0  0
  2  5  1  0  0  0  0
  2  7  1  0  0  0  0
  3  4  1  0  0  0  0
  3  5  1  0  0  0  0
  3 12  1  0  0  0  0
  4 11  2  0  0  0  0
  5 10  2  0  0  0  0
  6  9  2  0  0  0  0
  7  8  2  0  0  0  0
  8  9  1  0  0  0  0
 12 13  1  0  0  0  0
M  END
> <ID>
4868

> <Formula>
C9H7NO3

> <FW>
177.1568

> <DSSTox_CID>
6954

> <DSSTox_RID>
78266

> <DSSTox_GSID>
26954

> <DSSTox_FileID_Sort>
2949

> <TS_ChemName>
2-(Hydroxymethyl)-1H-Isoindole-1,3(2H)-dione

> <TS_ChemName_Synonyms>


> <TS_CASRN>
118-29-6

> <CASRN_ChemName_Relationship>
primary

> <TS_Description>
single chemical compound

> <ChemNote>


> <STRUCTURE_Shown>
tested chemical

> <STRUCTURE_Formula>
C9H7NO3

> <STRUCTURE_MW>
177.1568

> <STRUCTURE_ChemType>
defined organic

> <STRUCTURE_DefinedOrganicForm>
parent

> <STRUCTURE_IUPAC>
2-(hydroxymethyl)-1H-isoindole-1,3(2H)-dione

> <STRUCTURE_SMILES>
O=C2c1ccccc1C(=O)N2CO

> <STRUCTURE_SMILES_Desalt>
O=C2c1ccccc1C(=O)N2CO

> <Substance_modify_yyyymmdd>
20080429

$$$$
