118-10-5
ChemmineR-0915142007XD

 23 26  0  0  1  0  0  0  0  0  1 V2000
    5.1521   -1.3878    0.0000 C   0  0  0  0  0  0  0  0  0  0  0  0
    6.3577   -2.0903    0.0000 C   0  0  0  0  0  0  0  0  0  0  0  0
    5.1521    0.0000    0.0000 C   0  0  0  0  0  0  0  0  0  0  0  0
    3.9551   -2.0903    0.0000 C   0  0  0  0  0  0  0  0  0  0  0  0
    5.5858   -2.1684    0.0000 N   0  0  0  0  0  0  0  0  0  0  0  0
    6.7914   -2.8709    0.0000 C   0  0  0  0  0  0  0  0  0  0  0  0
    5.5858   -0.7893    0.0000 C   0  0  0  0  0  0  0  0  0  0  0  0
    4.3888   -2.8709    0.0000 C   0  0  0  0  0  0  0  0  0  0  0  0
    7.3378   -1.1015    0.0000 C   0  0  0  0  0  0  0  0  0  0  0  0
    8.6735   -1.4918    0.0000 C   0  0  0  0  0  0  0  0  0  0  0  0
    4.0158   -4.2067    0.0000 C   0  0  0  0  0  0  0  0  0  0  0  0
    5.4903   -3.7209    0.0000 H   0  0  0  0  0  0  0  0  0  0  0  0
    2.6714   -4.5536    0.0000 C   0  0  0  0  0  0  0  0  0  0  0  0
    2.2985   -5.8893    0.0000 C   0  0  0  0  0  0  0  0  0  0  0  0
    1.7000   -3.5561    0.0000 C   0  0  0  0  0  0  0  0  0  0  0  0
    0.9714   -6.2276    0.0000 C   0  0  0  0  0  0  0  0  0  0  0  0
    0.3643   -3.9031    0.0000 C   0  0  0  0  0  0  0  0  0  0  0  0
    0.0000   -5.2388    0.0000 N   0  0  0  0  0  0  0  0  0  0  0  0
    3.2699   -6.8781    0.0000 C   0  0  0  0  0  0  0  0  0  0  0  0
    2.9056   -8.2138    0.0000 C   0  0  0  0  0  0  0  0  0  0  0  0
    0.5811   -7.5633    0.0000 C   0  0  0  0  0  0  0  0  0  0  0  0
    1.5699   -8.5434    0.0000 C   0  0  0  0  0  0  0  0  0  0  0  0
    4.9873   -5.1868    0.0000 O   0  0  0  0  0  0  0  0  0  0  0  0
  1  2  1  0  0  0  0
  1  3  1  0  0  0  0
  1  4  1  0  0  0  0
  2  6  1  0  0  0  0
  2  9  1  1  0  0  0
  3  7  1  0  0  0  0
  4  8  1  0  0  0  0
  5  6  1  0  0  0  0
  5  7  1  0  0  0  0
  5  8  1  0  0  0  0
  8 11  1  0  0  0  0
  8 12  1  6  0  0  0
  9 10  2  0  0  0  0
 11 13  1  0  0  0  0
 11 23  1  1  0  0  0
 13 14  1  0  0  0  0
 13 15  2  0  0  0  0
 14 19  1  0  0  0  0
 14 16  2  0  0  0  0
 15 17  1  0  0  0  0
 16 18  1  0  0  0  0
 16 21  1  0  0  0  0
 17 18  2  0  0  0  0
 19 20  2  0  0  0  0
 20 22  1  0  0  0  0
 21 22  2  0  0  0  0
M  END
> <ID>
10726

> <Formula>
C19H22N2O

> <FW>
294.3908

> <DSSTox_CID>
25082

> <DSSTox_RID>
80657

> <DSSTox_GSID>
45082

> <DSSTox_FileID_Sort>
5339

> <TS_ChemName>
Cinchonine

> <TS_ChemName_Synonyms>


> <TS_CASRN>
118-10-5

> <CASRN_ChemName_Relationship>
primary

> <TS_Description>
single chemical compound

> <ChemNote>
stereochem

> <STRUCTURE_Shown>
tested chemical

> <STRUCTURE_Formula>
C19H22N2O

> <STRUCTURE_MW>
294.3908

> <STRUCTURE_ChemType>
defined organic

> <STRUCTURE_DefinedOrganicForm>
parent

> <STRUCTURE_IUPAC>
(9S)-cinchonan-9-ol

> <STRUCTURE_SMILES>
O[C@@H](c2ccnc1ccccc12)[C@H]4CC3CCN4C[C@@H]3C=C

> <STRUCTURE_SMILES_Desalt>
O[C@@H](c2ccnc1ccccc12)[C@H]4CC3CCN4C[C@@H]3C=C

> <Substance_modify_yyyymmdd>
20100107

$$$$
