118-23-0
ChemmineR-0915142007XD

 20 21  0  0  0  0  0  0  0  0  1 V2000
    7.9817   -1.1573    0.0000 C    0  0  0  0  0  0  0  0  0  0  0  0
    7.3132   -2.3047    0.0000 C    0  0  0  0  0  0  0  0  0  0  0  0
    5.9863   -2.3047    0.0000 C    0  0  0  0  0  0  0  0  0  0  0  0
    5.3178   -3.4621    0.0000 C    0  0  0  0  0  0  0  0  0  0  0  0
    5.9863   -4.6094    0.0000 O    0  0  0  0  0  0  0  0  0  0  0  0
    7.3132   -4.6094    0.0000 C    0  0  0  0  0  0  0  0  0  0  0  0
    7.9817   -3.4621    0.0000 C    0  0  0  0  0  0  0  0  0  0  0  0
    9.3086   -3.4621    0.0000 N    0  0  0  0  0  0  0  0  0  0  0  0
    9.9771   -2.3047    0.0000 C    0  0  0  0  0  0  0  0  0  0  0  0
    9.9771   -4.6094    0.0000 C    0  0  0  0  0  0  0  0  0  0  0  0
    3.9908   -3.4621    0.0000 C    0  0  0  0  0  0  0  0  0  0  0  0
    3.3224   -4.6094    0.0000 C    0  0  0  0  0  0  0  0  0  0  0  0
    1.9954   -4.6094    0.0000 C    0  0  0  0  0  0  0  0  0  0  0  0
    1.3270   -3.4621    0.0000 C    0  0  0  0  0  0  0  0  0  0  0  0
    0.0000   -3.4621    0.0000 Br   0  0  0  0  0  0  0  0  0  0  0  0
    1.9954   -2.3047    0.0000 C    0  0  0  0  0  0  0  0  0  0  0  0
    3.3224   -2.3047    0.0000 C    0  0  0  0  0  0  0  0  0  0  0  0
    5.3178   -1.1573    0.0000 C    0  0  0  0  0  0  0  0  0  0  0  0
    5.9863    0.0000    0.0000 C    0  0  0  0  0  0  0  0  0  0  0  0
    7.3132    0.0000    0.0000 C    0  0  0  0  0  0  0  0  0  0  0  0
  1  2  2  0  0  0  0
  1 20  1  0  0  0  0
  2  3  1  0  0  0  0
  3  4  1  0  0  0  0
  3 18  2  0  0  0  0
  4  5  1  0  0  0  0
  4 11  1  0  0  0  0
  5  6  1  0  0  0  0
  6  7  1  0  0  0  0
  7  8  1  0  0  0  0
  8  9  1  0  0  0  0
  8 10  1  0  0  0  0
 11 12  2  0  0  0  0
 11 17  1  0  0  0  0
 12 13  1  0  0  0  0
 13 14  2  0  0  0  0
 14 15  1  0  0  0  0
 14 16  1  0  0  0  0
 16 17  2  0  0  0  0
 18 19  1  0  0  0  0
 19 20  2  0  0  0  0
M  END
> <ID>
2434

> <Formula>
C17H20BrNO

> <FW>
334.2508

> <DSSTox_CID>
2688

> <DSSTox_RID>
97539

> <DSSTox_GSID>
22688

> <DSSTox_FileID_Sort>
8313

> <TS_ChemName>
Bromodiphenhydramine

> <TS_ChemName_Synonyms>


> <TS_CASRN>
118-23-0

> <CASRN_ChemName_Relationship>
primary

> <TS_Description>
single chemical compound

> <ChemNote>


> <STRUCTURE_Shown>
tested chemical

> <STRUCTURE_Formula>
C17H20BrNO

> <STRUCTURE_MW>
334.2508

> <STRUCTURE_ChemType>
defined organic

> <STRUCTURE_DefinedOrganicForm>
parent

> <STRUCTURE_IUPAC>
2-[(4-bromophenyl)(phenyl)methoxy]-N,N-dimethylethanamine

> <STRUCTURE_SMILES>
Brc1ccc(cc1)C(OCCN(C)C)c2ccccc2

> <STRUCTURE_SMILES_Desalt>
Brc1ccc(cc1)C(OCCN(C)C)c2ccccc2

> <Substance_modify_yyyymmdd>
20080429

$$$$
