118-93-4
ChemmineR-0915142007XD

 10 10  0  0  0  0  0  0  0  0  1 V2000
    0.0000   -2.0071    0.0000 C   0  0  0  0  0  0  0  0  0  0  0  0
    4.6033   -2.0071    0.0000 C   0  0  0  0  0  0  0  0  0  0  0  0
    4.6033   -3.3374    0.0000 C   0  0  0  0  0  0  0  0  0  0  0  0
    3.4663   -1.3350    0.0000 C   0  0  0  0  0  0  0  0  0  0  0  0
    3.4663   -3.9957    0.0000 C   0  0  0  0  0  0  0  0  0  0  0  0
    1.1554   -1.3350    0.0000 C   0  0  0  0  0  0  0  0  0  0  0  0
    2.3109   -2.0071    0.0000 C   0  0  0  0  0  0  0  0  0  0  0  0
    2.3109   -3.3374    0.0000 C   0  0  0  0  0  0  0  0  0  0  0  0
    1.1554    0.0000    0.0000 O   0  0  0  0  0  0  0  0  0  0  0  0
    1.1554   -3.9957    0.0000 O   0  0  0  0  0  0  0  0  0  0  0  0
  1  6  1  0  0  0  0
  2  3  2  0  0  0  0
  2  4  1  0  0  0  0
  3  5  1  0  0  0  0
  4  7  2  0  0  0  0
  5  8  2  0  0  0  0
  6  7  1  0  0  0  0
  6  9  2  0  0  0  0
  7  8  1  0  0  0  0
  8 10  1  0  0  0  0
M  END
> <ID>
7662

> <Formula>
C8H8O2

> <FW>
136.1479

> <DSSTox_CID>
20285

> <DSSTox_RID>
79470

> <DSSTox_GSID>
40285

> <DSSTox_FileID_Sort>
4152

> <TS_ChemName>
2-Hydroxyacetophenone

> <TS_ChemName_Synonyms>


> <TS_CASRN>
118-93-4

> <CASRN_ChemName_Relationship>
primary

> <TS_Description>
single chemical compound

> <ChemNote>


> <STRUCTURE_Shown>
tested chemical

> <STRUCTURE_Formula>
C8H8O2

> <STRUCTURE_MW>
136.1479

> <STRUCTURE_ChemType>
defined organic

> <STRUCTURE_DefinedOrganicForm>
parent

> <STRUCTURE_IUPAC>
1-(2-hydroxyphenyl)ethanone

> <STRUCTURE_SMILES>
O=C(C)c1ccccc1O

> <STRUCTURE_SMILES_Desalt>
O=C(C)c1ccccc1O

> <Substance_modify_yyyymmdd>
20080429

$$$$
