118-69-4
ChemmineR-0915142007XD

  9  9  0  0  0  0  0  0  0  0  1 V2000
    1.1533   -3.3215    0.0000 C    0  0  0  0  0  0  0  0  0  0  0  0
    2.3066   -3.9904    0.0000 C    0  0  0  0  0  0  0  0  0  0  0  0
    3.4552   -3.3215    0.0000 C    0  0  0  0  0  0  0  0  0  0  0  0
    3.4645   -1.9929    0.0000 C    0  0  0  0  0  0  0  0  0  0  0  0
    2.2927   -1.3147    0.0000 C    0  0  0  0  0  0  0  0  0  0  0  0
    1.1625   -1.9929    0.0000 C    0  0  0  0  0  0  0  0  0  0  0  0
    2.2927    0.0000    0.0000 C    0  0  0  0  0  0  0  0  0  0  0  0
    0.0000   -1.3424    0.0000 Cl   0  0  0  0  0  0  0  0  0  0  0  0
    4.6131   -1.3194    0.0000 Cl   0  0  0  0  0  0  0  0  0  0  0  0
  1  6  2  0  0  0  0
  1  2  1  0  0  0  0
  2  3  2  0  0  0  0
  3  4  1  0  0  0  0
  4  5  2  0  0  0  0
  4  9  1  0  0  0  0
  5  6  1  0  0  0  0
  5  7  1  0  0  0  0
  6  8  1  0  0  0  0
M  END
> <ID>
7893

> <Formula>
C7H6Cl2

> <FW>
161.0285

> <DSSTox_CID>
20697

> <DSSTox_RID>
79548

> <DSSTox_GSID>
40697

> <DSSTox_FileID_Sort>
4230

> <TS_ChemName>
2,6-Dichlorotoluene

> <TS_ChemName_Synonyms>


> <TS_CASRN>
118-69-4

> <CASRN_ChemName_Relationship>
primary

> <TS_Description>
single chemical compound

> <ChemNote>


> <STRUCTURE_Shown>
tested chemical

> <STRUCTURE_Formula>
C7H6Cl2

> <STRUCTURE_MW>
161.0285

> <STRUCTURE_ChemType>
defined organic

> <STRUCTURE_DefinedOrganicForm>
parent

> <STRUCTURE_IUPAC>
1,3-dichloro-2-methylbenzene

> <STRUCTURE_SMILES>
Clc1cccc(Cl)c1C

> <STRUCTURE_SMILES_Desalt>
Clc1cccc(Cl)c1C

> <Substance_modify_yyyymmdd>
20080429

$$$$
