118-61-6
ChemmineR-0915142007XD

 12 12  0  0  0  0  0  0  0  0  1 V2000
    1.9947   -3.4576    0.0000 C   0  0  0  0  0  0  0  0  0  0  0  0
    0.6649   -3.4576    0.0000 C   0  0  0  0  0  0  0  0  0  0  0  0
    0.0000   -2.3073    0.0000 C   0  0  0  0  0  0  0  0  0  0  0  0
    0.6649   -1.1569    0.0000 C   0  0  0  0  0  0  0  0  0  0  0  0
    1.9947   -1.1569    0.0000 C   0  0  0  0  0  0  0  0  0  0  0  0
    2.6597    0.0000    0.0000 O   0  0  0  0  0  0  0  0  0  0  0  0
    2.6597   -2.3073    0.0000 C   0  0  0  0  0  0  0  0  0  0  0  0
    3.9895   -2.3073    0.0000 C   0  0  0  0  0  0  0  0  0  0  0  0
    4.6544   -3.4576    0.0000 O   0  0  0  0  0  0  0  0  0  0  0  0
    4.6544   -1.1569    0.0000 O   0  0  0  0  0  0  0  0  0  0  0  0
    5.9842   -1.1569    0.0000 C   0  0  0  0  0  0  0  0  0  0  0  0
    6.6491    0.0000    0.0000 C   0  0  0  0  0  0  0  0  0  0  0  0
  1  2  2  0  0  0  0
  1  7  1  0  0  0  0
  2  3  1  0  0  0  0
  3  4  2  0  0  0  0
  4  5  1  0  0  0  0
  5  6  1  0  0  0  0
  5  7  2  0  0  0  0
  7  8  1  0  0  0  0
  8  9  2  0  0  0  0
  8 10  1  0  0  0  0
 10 11  1  0  0  0  0
 11 12  1  0  0  0  0
M  END
> <ID>
1822

> <Formula>
C9H10O3

> <FW>
166.1739

> <DSSTox_CID>
1958

> <DSSTox_RID>
76427

> <DSSTox_GSID>
21958

> <DSSTox_FileID_Sort>
1111

> <TS_ChemName>
Ethyl salicylate

> <TS_ChemName_Synonyms>


> <TS_CASRN>
118-61-6

> <CASRN_ChemName_Relationship>
primary

> <TS_Description>
single chemical compound

> <ChemNote>


> <STRUCTURE_Shown>
tested chemical

> <STRUCTURE_Formula>
C9H10O3

> <STRUCTURE_MW>
166.1739

> <STRUCTURE_ChemType>
defined organic

> <STRUCTURE_DefinedOrganicForm>
parent

> <STRUCTURE_IUPAC>
ethyl 2-hydroxybenzoate

> <STRUCTURE_SMILES>
Oc1ccccc1C(=O)OCC

> <STRUCTURE_SMILES_Desalt>
Oc1ccccc1C(=O)OCC

> <Substance_modify_yyyymmdd>
20080429

$$$$
