118-58-1
ChemmineR-0915142007XD

 17 18  0  0  0  0  0  0  0  0  1 V2000
    5.7569    0.0000    0.0000 O   0  0  0  0  0  0  0  0  0  0  0  0
    5.7569   -1.3264    0.0000 C   0  0  0  0  0  0  0  0  0  0  0  0
    4.6055   -1.9896    0.0000 O   0  0  0  0  0  0  0  0  0  0  0  0
    3.4542   -1.3264    0.0000 C   0  0  0  0  0  0  0  0  0  0  0  0
    2.3028   -1.9896    0.0000 C   0  0  0  0  0  0  0  0  0  0  0  0
    2.3028   -3.3252    0.0000 C   0  0  0  0  0  0  0  0  0  0  0  0
    1.1514   -3.9884    0.0000 C   0  0  0  0  0  0  0  0  0  0  0  0
    0.0000   -3.3252    0.0000 C   0  0  0  0  0  0  0  0  0  0  0  0
    0.0000   -1.9896    0.0000 C   0  0  0  0  0  0  0  0  0  0  0  0
    1.1514   -1.3264    0.0000 C   0  0  0  0  0  0  0  0  0  0  0  0
    6.9083   -1.9896    0.0000 C   0  0  0  0  0  0  0  0  0  0  0  0
    8.0597   -1.3264    0.0000 C   0  0  0  0  0  0  0  0  0  0  0  0
    8.0597    0.0000    0.0000 O   0  0  0  0  0  0  0  0  0  0  0  0
    9.2111   -1.9896    0.0000 C   0  0  0  0  0  0  0  0  0  0  0  0
    9.2111   -3.3252    0.0000 C   0  0  0  0  0  0  0  0  0  0  0  0
    8.0597   -3.9884    0.0000 C   0  0  0  0  0  0  0  0  0  0  0  0
    6.9083   -3.3252    0.0000 C   0  0  0  0  0  0  0  0  0  0  0  0
  1  2  2  0  0  0  0
  2  3  1  0  0  0  0
  2 11  1  0  0  0  0
  3  4  1  0  0  0  0
  4  5  1  0  0  0  0
  5  6  2  0  0  0  0
  5 10  1  0  0  0  0
  6  7  1  0  0  0  0
  7  8  2  0  0  0  0
  8  9  1  0  0  0  0
  9 10  2  0  0  0  0
 11 12  2  0  0  0  0
 11 17  1  0  0  0  0
 12 13  1  0  0  0  0
 12 14  1  0  0  0  0
 14 15  2  0  0  0  0
 15 16  1  0  0  0  0
 16 17  2  0  0  0  0
M  END
> <ID>
3755

> <Formula>
C14H12O3

> <FW>
228.2433

> <DSSTox_CID>
4598

> <DSSTox_RID>
77462

> <DSSTox_GSID>
24598

> <DSSTox_FileID_Sort>
2145

> <TS_ChemName>
Benzyl salicylate

> <TS_ChemName_Synonyms>


> <TS_CASRN>
118-58-1

> <CASRN_ChemName_Relationship>
primary

> <TS_Description>
single chemical compound

> <ChemNote>


> <STRUCTURE_Shown>
tested chemical

> <STRUCTURE_Formula>
C14H12O3

> <STRUCTURE_MW>
228.2433

> <STRUCTURE_ChemType>
defined organic

> <STRUCTURE_DefinedOrganicForm>
parent

> <STRUCTURE_IUPAC>
benzyl 2-hydroxybenzoate

> <STRUCTURE_SMILES>
Oc2ccccc2C(=O)OCc1ccccc1

> <STRUCTURE_SMILES_Desalt>
Oc2ccccc2C(=O)OCc1ccccc1

> <Substance_modify_yyyymmdd>
20080429

$$$$
