118-91-2
ChemmineR-0915142007XD

 10 10  0  0  0  0  0  0  0  0  1 V2000
    3.9896   -2.3044    0.0000 C    0  0  0  0  0  0  0  0  0  0  0  0
    4.6553   -3.4542    0.0000 O    0  0  0  0  0  0  0  0  0  0  0  0
    4.6553   -1.1499    0.0000 O    0  0  0  0  0  0  0  0  0  0  0  0
    2.6582   -2.3044    0.0000 C    0  0  0  0  0  0  0  0  0  0  0  0
    1.9971   -3.4542    0.0000 C    0  0  0  0  0  0  0  0  0  0  0  0
    0.6657   -3.4542    0.0000 C    0  0  0  0  0  0  0  0  0  0  0  0
    0.0000   -2.3044    0.0000 C    0  0  0  0  0  0  0  0  0  0  0  0
    0.6657   -1.1499    0.0000 C    0  0  0  0  0  0  0  0  0  0  0  0
    1.9971   -1.1499    0.0000 C    0  0  0  0  0  0  0  0  0  0  0  0
    2.6582    0.0000    0.0000 Cl   0  0  0  0  0  0  0  0  0  0  0  0
  1  2  2  0  0  0  0
  1  3  1  0  0  0  0
  1  4  1  0  0  0  0
  4  5  2  0  0  0  0
  4  9  1  0  0  0  0
  5  6  1  0  0  0  0
  6  7  2  0  0  0  0
  7  8  1  0  0  0  0
  8  9  2  0  0  0  0
  9 10  1  0  0  0  0
M  END
> <ID>
3845

> <Formula>
C7H5ClO2

> <FW>
156.5664

> <DSSTox_CID>
4771

> <DSSTox_RID>
77524

> <DSSTox_GSID>
24771

> <DSSTox_FileID_Sort>
2207

> <TS_ChemName>
2-Chlorobenzoic acid

> <TS_ChemName_Synonyms>
2-Chlorobenzoic acid (o-Chlorobenzoic acid)

> <TS_CASRN>
118-91-2

> <CASRN_ChemName_Relationship>
primary

> <TS_Description>
single chemical compound

> <ChemNote>


> <STRUCTURE_Shown>
tested chemical

> <STRUCTURE_Formula>
C7H5ClO2

> <STRUCTURE_MW>
156.5664

> <STRUCTURE_ChemType>
defined organic

> <STRUCTURE_DefinedOrganicForm>
parent

> <STRUCTURE_IUPAC>
2-chlorobenzoic acid

> <STRUCTURE_SMILES>
OC(=O)c1ccccc1Cl

> <STRUCTURE_SMILES_Desalt>
OC(=O)c1ccccc1Cl

> <Substance_modify_yyyymmdd>
20080429

$$$$
