118-55-8
ChemmineR-0915142007XD

 16 17  0  0  0  0  0  0  0  0  1 V2000
    1.9965   -3.4571    0.0000 C   0  0  0  0  0  0  0  0  0  0  0  0
    0.6655   -3.4571    0.0000 C   0  0  0  0  0  0  0  0  0  0  0  0
    0.0000   -2.3076    0.0000 C   0  0  0  0  0  0  0  0  0  0  0  0
    0.6655   -1.1581    0.0000 C   0  0  0  0  0  0  0  0  0  0  0  0
    1.9965   -1.1581    0.0000 C   0  0  0  0  0  0  0  0  0  0  0  0
    2.6619    0.0000    0.0000 O   0  0  0  0  0  0  0  0  0  0  0  0
    2.6619   -2.3076    0.0000 C   0  0  0  0  0  0  0  0  0  0  0  0
    3.9929   -2.3076    0.0000 C   0  0  0  0  0  0  0  0  0  0  0  0
    4.6497   -3.4571    0.0000 O   0  0  0  0  0  0  0  0  0  0  0  0
    4.6497   -1.1581    0.0000 O   0  0  0  0  0  0  0  0  0  0  0  0
    5.9807   -1.1581    0.0000 C   0  0  0  0  0  0  0  0  0  0  0  0
    6.6462    0.0000    0.0000 C   0  0  0  0  0  0  0  0  0  0  0  0
    7.9772    0.0000    0.0000 C   0  0  0  0  0  0  0  0  0  0  0  0
    8.6426   -1.1581    0.0000 C   0  0  0  0  0  0  0  0  0  0  0  0
    7.9772   -2.3076    0.0000 C   0  0  0  0  0  0  0  0  0  0  0  0
    6.6462   -2.3076    0.0000 C   0  0  0  0  0  0  0  0  0  0  0  0
  1  2  2  0  0  0  0
  1  7  1  0  0  0  0
  2  3  1  0  0  0  0
  3  4  2  0  0  0  0
  4  5  1  0  0  0  0
  5  6  1  0  0  0  0
  5  7  2  0  0  0  0
  7  8  1  0  0  0  0
  8  9  2  0  0  0  0
  8 10  1  0  0  0  0
 10 11  1  0  0  0  0
 11 12  2  0  0  0  0
 11 16  1  0  0  0  0
 12 13  1  0  0  0  0
 13 14  2  0  0  0  0
 14 15  1  0  0  0  0
 15 16  2  0  0  0  0
M  END
> <ID>
1821

> <Formula>
C13H10O3

> <FW>
214.2167

> <DSSTox_CID>
1957

> <DSSTox_RID>
76426

> <DSSTox_GSID>
21957

> <DSSTox_FileID_Sort>
1110

> <TS_ChemName>
Phenyl salicylate

> <TS_ChemName_Synonyms>


> <TS_CASRN>
118-55-8

> <CASRN_ChemName_Relationship>
primary

> <TS_Description>
single chemical compound

> <ChemNote>


> <STRUCTURE_Shown>
tested chemical

> <STRUCTURE_Formula>
C13H10O3

> <STRUCTURE_MW>
214.2167

> <STRUCTURE_ChemType>
defined organic

> <STRUCTURE_DefinedOrganicForm>
parent

> <STRUCTURE_IUPAC>
phenyl 2-hydroxybenzoate

> <STRUCTURE_SMILES>
Oc2ccccc2C(=O)Oc1ccccc1

> <STRUCTURE_SMILES_Desalt>
Oc2ccccc2C(=O)Oc1ccccc1

> <Substance_modify_yyyymmdd>
20080429

$$$$
