118-75-2
ChemmineR-0915142007XD

 12 12  0  0  0  0  0  0  0  0  1 V2000
    0.0000   -2.3036    0.0000 O    0  0  0  0  0  0  0  0  0  0  0  0
    1.3300   -2.3036    0.0000 C    0  0  0  0  0  0  0  0  0  0  0  0
    1.9950   -1.1491    0.0000 C    0  0  0  0  0  0  0  0  0  0  0  0
    3.3250   -1.1491    0.0000 C    0  0  0  0  0  0  0  0  0  0  0  0
    3.9901   -2.3036    0.0000 C    0  0  0  0  0  0  0  0  0  0  0  0
    5.3201   -2.3036    0.0000 O    0  0  0  0  0  0  0  0  0  0  0  0
    3.3250   -3.4581    0.0000 C    0  0  0  0  0  0  0  0  0  0  0  0
    1.9950   -3.4581    0.0000 C    0  0  0  0  0  0  0  0  0  0  0  0
    1.3300   -4.6072    0.0000 Cl   0  0  0  0  0  0  0  0  0  0  0  0
    3.9901   -4.6072    0.0000 Cl   0  0  0  0  0  0  0  0  0  0  0  0
    3.9901    0.0000    0.0000 Cl   0  0  0  0  0  0  0  0  0  0  0  0
    1.3300    0.0000    0.0000 Cl   0  0  0  0  0  0  0  0  0  0  0  0
  1  2  2  0  0  0  0
  2  3  1  0  0  0  0
  2  8  1  0  0  0  0
  3  4  2  0  0  0  0
  3 12  1  0  0  0  0
  4  5  1  0  0  0  0
  4 11  1  0  0  0  0
  5  6  2  0  0  0  0
  5  7  1  0  0  0  0
  7  8  2  0  0  0  0
  7 10  1  0  0  0  0
  8  9  1  0  0  0  0
M  END
> <ID>
258

> <Formula>
C6Cl4O2

> <FW>
245.875

> <DSSTox_CID>
266

> <DSSTox_RID>
75474

> <DSSTox_GSID>
20266

> <DSSTox_FileID_Sort>
158

> <TS_ChemName>
Chloranil

> <TS_ChemName_Synonyms>
Chloranil (Tetrachloro-1,4-benzoquinone)

> <TS_CASRN>
118-75-2

> <CASRN_ChemName_Relationship>
primary

> <TS_Description>
single chemical compound

> <ChemNote>


> <STRUCTURE_Shown>
tested chemical

> <STRUCTURE_Formula>
C6Cl4O2

> <STRUCTURE_MW>
245.875

> <STRUCTURE_ChemType>
defined organic

> <STRUCTURE_DefinedOrganicForm>
parent

> <STRUCTURE_IUPAC>
2,3,5,6-tetrachlorocyclohexa-2,5-diene-1,4-dione

> <STRUCTURE_SMILES>
ClC=1C(=O)C(Cl)=C(Cl)C(=O)C=1Cl

> <STRUCTURE_SMILES_Desalt>
ClC=1C(=O)C(Cl)=C(Cl)C(=O)C=1Cl

> <Substance_modify_yyyymmdd>
20080429

$$$$
