118-82-1
ChemmineR-0915142007XD

 31 32  0  0  0  0  0  0  0  0  1 V2000
    1.1521   -5.3228    0.0000 C   0  0  0  0  0  0  0  0  0  0  0  0
    2.3042   -4.6546    0.0000 C   0  0  0  0  0  0  0  0  0  0  0  0
    2.3042   -3.3296    0.0000 C   0  0  0  0  0  0  0  0  0  0  0  0
    3.4564   -2.6614    0.0000 C   0  0  0  0  0  0  0  0  0  0  0  0
    3.4564   -1.3365    0.0000 C   0  0  0  0  0  0  0  0  0  0  0  0
    3.4564    0.0000    0.0000 C   0  0  0  0  0  0  0  0  0  0  0  0
    4.7813   -1.3365    0.0000 C   0  0  0  0  0  0  0  0  0  0  0  0
    2.1314   -1.3365    0.0000 C   0  0  0  0  0  0  0  0  0  0  0  0
    4.6085   -3.3296    0.0000 C   0  0  0  0  0  0  0  0  0  0  0  0
    4.6085   -4.6546    0.0000 C   0  0  0  0  0  0  0  0  0  0  0  0
    3.4564   -5.3228    0.0000 C   0  0  0  0  0  0  0  0  0  0  0  0
    5.7606   -5.3228    0.0000 C   0  0  0  0  0  0  0  0  0  0  0  0
    6.9127   -4.6546    0.0000 C   0  0  0  0  0  0  0  0  0  0  0  0
    6.9127   -3.3296    0.0000 C   0  0  0  0  0  0  0  0  0  0  0  0
    8.0648   -2.6614    0.0000 C   0  0  0  0  0  0  0  0  0  0  0  0
    8.0648   -1.3365    0.0000 C   0  0  0  0  0  0  0  0  0  0  0  0
    6.7399   -1.3365    0.0000 C   0  0  0  0  0  0  0  0  0  0  0  0
    8.0648    0.0000    0.0000 C   0  0  0  0  0  0  0  0  0  0  0  0
    9.3898   -1.3365    0.0000 C   0  0  0  0  0  0  0  0  0  0  0  0
    9.2170   -3.3296    0.0000 C   0  0  0  0  0  0  0  0  0  0  0  0
   10.3691   -2.6614    0.0000 O   0  0  0  0  0  0  0  0  0  0  0  0
    9.2170   -4.6546    0.0000 C   0  0  0  0  0  0  0  0  0  0  0  0
    8.0648   -5.3228    0.0000 C   0  0  0  0  0  0  0  0  0  0  0  0
   10.3691   -5.3228    0.0000 C   0  0  0  0  0  0  0  0  0  0  0  0
   11.0373   -4.1707    0.0000 C   0  0  0  0  0  0  0  0  0  0  0  0
   11.5212   -5.9910    0.0000 C   0  0  0  0  0  0  0  0  0  0  0  0
    9.7009   -6.4749    0.0000 C   0  0  0  0  0  0  0  0  0  0  0  0
    1.1521   -2.6614    0.0000 O   0  0  0  0  0  0  0  0  0  0  0  0
    1.8204   -6.4749    0.0000 C   0  0  0  0  0  0  0  0  0  0  0  0
    0.0000   -5.9910    0.0000 C   0  0  0  0  0  0  0  0  0  0  0  0
    0.4839   -4.1707    0.0000 C   0  0  0  0  0  0  0  0  0  0  0  0
  1  2  1  0  0  0  0
  1 29  1  0  0  0  0
  1 30  1  0  0  0  0
  1 31  1  0  0  0  0
  2  3  2  0  0  0  0
  2 11  1  0  0  0  0
  3  4  1  0  0  0  0
  3 28  1  0  0  0  0
  4  5  1  0  0  0  0
  4  9  2  0  0  0  0
  5  6  1  0  0  0  0
  5  7  1  0  0  0  0
  5  8  1  0  0  0  0
  9 10  1  0  0  0  0
 10 11  2  0  0  0  0
 10 12  1  0  0  0  0
 12 13  1  0  0  0  0
 13 14  2  0  0  0  0
 13 23  1  0  0  0  0
 14 15  1  0  0  0  0
 15 16  1  0  0  0  0
 15 20  2  0  0  0  0
 16 17  1  0  0  0  0
 16 18  1  0  0  0  0
 16 19  1  0  0  0  0
 20 21  1  0  0  0  0
 20 22  1  0  0  0  0
 22 23  2  0  0  0  0
 22 24  1  0  0  0  0
 24 25  1  0  0  0  0
 24 26  1  0  0  0  0
 24 27  1  0  0  0  0
M  END
> <ID>
2210

> <Formula>
C29H44O2

> <FW>
424.6585

> <DSSTox_CID>
2411

> <DSSTox_RID>
76580

> <DSSTox_GSID>
22411

> <DSSTox_FileID_Sort>
1264

> <TS_ChemName>
4,4'-Methylenebis(2,6-di-t-butylphenol)

> <TS_ChemName_Synonyms>
4,4'-methylenebis(2,6-di-t-butylphenol) (Phenol, 4,4'-methylenebis[2,6-bis(1,1-dimethylethyl)-)

> <TS_CASRN>
118-82-1

> <CASRN_ChemName_Relationship>
primary

> <TS_Description>
single chemical compound

> <ChemNote>


> <STRUCTURE_Shown>
tested chemical

> <STRUCTURE_Formula>
C29H44O2

> <STRUCTURE_MW>
424.6585

> <STRUCTURE_ChemType>
defined organic

> <STRUCTURE_DefinedOrganicForm>
parent

> <STRUCTURE_IUPAC>
4,4'-methanediylbis(2,6-di-tert-butylphenol)

> <STRUCTURE_SMILES>
CC(C)(C)c1cc(cc(c1O)C(C)(C)C)Cc2cc(c(O)c(c2)C(C)(C)C)C(C)(C)C

> <STRUCTURE_SMILES_Desalt>
CC(C)(C)c1cc(cc(c1O)C(C)(C)C)Cc2cc(c(O)c(c2)C(C)(C)C)C(C)(C)C

> <Substance_modify_yyyymmdd>
20080429

$$$$
