118-56-9
ChemmineR-0915142007XD

 19 20  0  0  0  0  0  0  0  0  1 V2000
    2.4632    0.0000    0.0000 C   0  0  0  0  0  0  0  0  0  0  0  0
    2.4632   -1.3299    0.0000 C   0  0  0  0  0  0  0  0  0  0  0  0
    3.6152   -1.9949    0.0000 C   0  0  0  0  0  0  0  0  0  0  0  0
    3.6152   -3.3249    0.0000 C   0  0  0  0  0  0  0  0  0  0  0  0
    2.4632   -3.9898    0.0000 C   0  0  0  0  0  0  0  0  0  0  0  0
    1.3112   -3.3249    0.0000 C   0  0  0  0  0  0  0  0  0  0  0  0
    0.0000   -3.1001    0.0000 C   0  0  0  0  0  0  0  0  0  0  0  0
    0.8523   -4.5799    0.0000 C   0  0  0  0  0  0  0  0  0  0  0  0
    1.3112   -1.9949    0.0000 C   0  0  0  0  0  0  0  0  0  0  0  0
    4.7578   -3.9898    0.0000 O   0  0  0  0  0  0  0  0  0  0  0  0
    5.9098   -3.3249    0.0000 C   0  0  0  0  0  0  0  0  0  0  0  0
    5.9098   -1.9949    0.0000 O   0  0  0  0  0  0  0  0  0  0  0  0
    7.0618   -3.9898    0.0000 C   0  0  0  0  0  0  0  0  0  0  0  0
    7.0618   -5.3198    0.0000 C   0  0  0  0  0  0  0  0  0  0  0  0
    5.9098   -5.9848    0.0000 O   0  0  0  0  0  0  0  0  0  0  0  0
    8.2138   -5.9848    0.0000 C   0  0  0  0  0  0  0  0  0  0  0  0
    9.3658   -5.3198    0.0000 C   0  0  0  0  0  0  0  0  0  0  0  0
    9.3658   -3.9898    0.0000 C   0  0  0  0  0  0  0  0  0  0  0  0
    8.2138   -3.3249    0.0000 C   0  0  0  0  0  0  0  0  0  0  0  0
  1  2  1  0  0  0  0
  2  3  1  0  0  0  0
  2  9  1  0  0  0  0
  3  4  1  0  0  0  0
  4  5  1  0  0  0  0
  4 10  1  0  0  0  0
  5  6  1  0  0  0  0
  6  7  1  0  0  0  0
  6  8  1  0  0  0  0
  6  9  1  0  0  0  0
 10 11  1  0  0  0  0
 11 12  2  0  0  0  0
 11 13  1  0  0  0  0
 13 14  2  0  0  0  0
 13 19  1  0  0  0  0
 14 15  1  0  0  0  0
 14 16  1  0  0  0  0
 16 17  2  0  0  0  0
 17 18  1  0  0  0  0
 18 19  2  0  0  0  0
M  END
> <ID>
4614

> <Formula>
C16H22O3

> <FW>
262.3441

> <DSSTox_CID>
6241

> <DSSTox_RID>
78073

> <DSSTox_GSID>
26241

> <DSSTox_FileID_Sort>
2756

> <TS_ChemName>
3,3,5-Trimethylcyclohexyl salicylate

> <TS_ChemName_Synonyms>
3,3,5-Trimethylcyclohexylsalicylate (Homosalate)

> <TS_CASRN>
118-56-9

> <CASRN_ChemName_Relationship>
primary

> <TS_Description>
single chemical compound

> <ChemNote>


> <STRUCTURE_Shown>
tested chemical

> <STRUCTURE_Formula>
C16H22O3

> <STRUCTURE_MW>
262.3441

> <STRUCTURE_ChemType>
defined organic

> <STRUCTURE_DefinedOrganicForm>
parent

> <STRUCTURE_IUPAC>
3,3,5-trimethylcyclohexyl 2-hydroxybenzoate

> <STRUCTURE_SMILES>
O=C(OC1CC(C)CC(C)(C)C1)c2ccccc2O

> <STRUCTURE_SMILES_Desalt>
O=C(OC1CC(C)CC(C)(C)C1)c2ccccc2O

> <Substance_modify_yyyymmdd>
20080429

$$$$
