118-90-1
ChemmineR-0915142007XD

 10 10  0  0  0  0  0  0  0  0  1 V2000
    0.0000   -1.1499    0.0000 O   0  0  0  0  0  0  0  0  0  0  0  0
    0.6657   -2.3044    0.0000 C   0  0  0  0  0  0  0  0  0  0  0  0
    0.0000   -3.4542    0.0000 O   0  0  0  0  0  0  0  0  0  0  0  0
    1.9971   -2.3044    0.0000 C   0  0  0  0  0  0  0  0  0  0  0  0
    2.6582   -1.1499    0.0000 C   0  0  0  0  0  0  0  0  0  0  0  0
    3.9896   -1.1499    0.0000 C   0  0  0  0  0  0  0  0  0  0  0  0
    4.6553   -2.3044    0.0000 C   0  0  0  0  0  0  0  0  0  0  0  0
    3.9896   -3.4542    0.0000 C   0  0  0  0  0  0  0  0  0  0  0  0
    1.9971    0.0000    0.0000 C   0  0  0  0  0  0  0  0  0  0  0  0
    2.6582   -3.4542    0.0000 C   0  0  0  0  0  0  0  0  0  0  0  0
  1  2  2  0  0  0  0
  2  3  1  0  0  0  0
  2  4  1  0  0  0  0
  4  5  2  0  0  0  0
  4 10  1  0  0  0  0
  5  6  1  0  0  0  0
  5  9  1  0  0  0  0
  6  7  2  0  0  0  0
  7  8  1  0  0  0  0
  8 10  2  0  0  0  0
M  END
> <ID>
4572

> <Formula>
C8H8O2

> <FW>
136.1479

> <DSSTox_CID>
6161

> <DSSTox_RID>
78040

> <DSSTox_GSID>
26161

> <DSSTox_FileID_Sort>
2723

> <TS_ChemName>
2-Methylbenzoic acid

> <TS_ChemName_Synonyms>
2-Methylbenzoic acid (o-Toluic acid)

> <TS_CASRN>
118-90-1

> <CASRN_ChemName_Relationship>
primary

> <TS_Description>
single chemical compound

> <ChemNote>


> <STRUCTURE_Shown>
tested chemical

> <STRUCTURE_Formula>
C8H8O2

> <STRUCTURE_MW>
136.1479

> <STRUCTURE_ChemType>
defined organic

> <STRUCTURE_DefinedOrganicForm>
parent

> <STRUCTURE_IUPAC>
2-methylbenzoic acid

> <STRUCTURE_SMILES>
Cc1ccccc1C(O)=O

> <STRUCTURE_SMILES_Desalt>
Cc1ccccc1C(O)=O

> <Substance_modify_yyyymmdd>
20080429

$$$$
