118-48-9
ChemmineR-0915142007XD

 12 13  0  0  0  0  0  0  0  0  1 V2000
    2.3134   -3.9864    0.0000 N   0  0  0  0  0  0  0  0  0  0  0  0
    1.1596   -3.3288    0.0000 C   0  0  0  0  0  0  0  0  0  0  0  0
    1.1596   -1.9961    0.0000 O   0  0  0  0  0  0  0  0  0  0  0  0
    2.3134   -1.3327    0.0000 C   0  0  0  0  0  0  0  0  0  0  0  0
    3.4557   -1.9961    0.0000 C   0  0  0  0  0  0  0  0  0  0  0  0
    3.4557   -3.3288    0.0000 C   0  0  0  0  0  0  0  0  0  0  0  0
    4.6095   -3.9864    0.0000 C   0  0  0  0  0  0  0  0  0  0  0  0
    5.7691   -3.3288    0.0000 C   0  0  0  0  0  0  0  0  0  0  0  0
    5.7691   -1.9961    0.0000 C   0  0  0  0  0  0  0  0  0  0  0  0
    4.6095   -1.3327    0.0000 C   0  0  0  0  0  0  0  0  0  0  0  0
    0.0000   -3.9864    0.0000 O   0  0  0  0  0  0  0  0  0  0  0  0
    2.3134    0.0000    0.0000 O   0  0  0  0  0  0  0  0  0  0  0  0
  1  2  1  0  0  0  0
  1  6  1  0  0  0  0
  2  3  1  0  0  0  0
  2 11  2  0  0  0  0
  3  4  1  0  0  0  0
  4  5  1  0  0  0  0
  4 12  2  0  0  0  0
  5  6  2  0  0  0  0
  5 10  1  0  0  0  0
  6  7  1  0  0  0  0
  7  8  2  0  0  0  0
  8  9  1  0  0  0  0
  9 10  2  0  0  0  0
M  END
> <ID>
4869

> <Formula>
C8H5NO3

> <FW>
163.1302

> <DSSTox_CID>
6955

> <DSSTox_RID>
78267

> <DSSTox_GSID>
26955

> <DSSTox_FileID_Sort>
2950

> <TS_ChemName>
2H-3,1-Benzoxazine-2,4(1H)-dione

> <TS_ChemName_Synonyms>
2H-3,1-Benzoxazine-2,4(1H)-dione (Isatoic anhydride)

> <TS_CASRN>
118-48-9

> <CASRN_ChemName_Relationship>
primary

> <TS_Description>
single chemical compound

> <ChemNote>


> <STRUCTURE_Shown>
tested chemical

> <STRUCTURE_Formula>
C8H5NO3

> <STRUCTURE_MW>
163.1302

> <STRUCTURE_ChemType>
defined organic

> <STRUCTURE_DefinedOrganicForm>
parent

> <STRUCTURE_IUPAC>
2H-3,1-benzoxazine-2,4(1H)-dione

> <STRUCTURE_SMILES>
O=C1OC(=O)Nc2ccccc12

> <STRUCTURE_SMILES_Desalt>
O=C1OC(=O)Nc2ccccc12

> <Substance_modify_yyyymmdd>
20080429

$$$$
