118-68-3
ChemmineR-0915142007XD

 18 18  0  0  0  0  0  0  0  0  1 V2000
    3.5614   -2.3999    0.0000 C   0  0  0  0  0  0  0  0  0  0  0  0
    3.5614   -0.2589    0.0000 N   0  0  0  0  0  0  0  0  0  0  0  0
    4.3520   -1.3224    0.0000 C   0  0  0  0  0  0  0  0  0  0  0  0
    2.3020   -2.0011    0.0000 C   0  0  0  0  0  0  0  0  0  0  0  0
    2.3020   -0.6577    0.0000 C   0  0  0  0  0  0  0  0  0  0  0  0
    3.9812   -3.6943    0.0000 C   0  0  0  0  0  0  0  0  0  0  0  0
    6.1712   -2.9807    0.0000 N   0  0  0  0  0  0  0  0  0  0  0  0
    5.2896   -3.9672    0.0000 C   0  0  0  0  0  0  0  0  0  0  0  0
    1.1475   -2.6588    0.0000 C   0  0  0  0  0  0  0  0  0  0  0  0
    1.1475    0.0000    0.0000 C   0  0  0  0  0  0  0  0  0  0  0  0
    5.7094   -5.2266    0.0000 C   0  0  0  0  0  0  0  0  0  0  0  0
    0.0000   -1.9801    0.0000 C   0  0  0  0  0  0  0  0  0  0  0  0
    6.9968   -5.5135    0.0000 C   0  0  0  0  0  0  0  0  0  0  0  0
    0.0000   -0.6787    0.0000 C   0  0  0  0  0  0  0  0  0  0  0  0
    1.5953   -4.9188    0.0000 C   0  0  0  0  0  0  0  0  0  0  0  0
    1.5953   -6.2552    0.0000 O   0  0  0  0  0  0  0  0  0  0  0  0
    2.7428   -4.2541    0.0000 O   0  0  0  0  0  0  0  0  0  0  0  0
    0.4338   -4.2541    0.0000 C   0  0  0  0  0  0  0  0  0  0  0  0
  1  3  2  0  0  0  0
  1  4  1  0  0  0  0
  1  6  1  0  0  0  0
  2  3  1  0  0  0  0
  2  5  1  0  0  0  0
  4  5  2  0  0  0  0
  4  9  1  0  0  0  0
  5 10  1  0  0  0  0
  6  8  1  0  0  0  0
  7  8  1  0  0  0  0
  8 11  1  0  0  0  0
  9 12  2  0  0  0  0
 10 14  2  0  0  0  0
 11 13  1  0  0  0  0
 12 14  1  0  0  0  0
 15 16  2  0  0  0  0
 15 17  1  0  0  0  0
 15 18  1  0  0  0  0
M  END
> <ID>
13865

> <Formula>
C14H20N2O2

> <FW>
248.3208 (188.2688+60.0520)

> <DSSTox_CID>
28802

> <DSSTox_RID>
83071

> <DSSTox_GSID>
48876

> <DSSTox_FileID_Sort>
7748

> <TS_ChemName>
Etryptamine acetate

> <TS_ChemName_Synonyms>
?-Ethyltryptamine Acetate

> <TS_CASRN>
118-68-3

> <CASRN_ChemName_Relationship>
primary

> <TS_Description>
single chemical compound

> <ChemNote>


> <STRUCTURE_Shown>
tested chemical

> <STRUCTURE_Formula>
C14H20N2O2

> <STRUCTURE_MW>
248.3208

> <STRUCTURE_ChemType>
defined organic

> <STRUCTURE_DefinedOrganicForm>
complex

> <STRUCTURE_IUPAC>
1-(1H-indol-3-yl)butan-2-amine acetate (1:1)

> <STRUCTURE_SMILES>
CC(=O)O.CCC(N)Cc2cnc1ccccc12

> <STRUCTURE_SMILES_Desalt>
CCC(N)Cc2cnc1ccccc12

> <Substance_modify_yyyymmdd>
20111204

$$$$
