118-71-8
ChemmineR-0915142007XD

  9  9  0  0  0  0  0  0  0  0  1 V2000
    3.3265   -3.4555    0.0000 O   0  0  0  0  0  0  0  0  0  0  0  0
    1.9950   -3.4555    0.0000 C   0  0  0  0  0  0  0  0  0  0  0  0
    1.3315   -4.6073    0.0000 C   0  0  0  0  0  0  0  0  0  0  0  0
    1.3315   -2.3037    0.0000 C   0  0  0  0  0  0  0  0  0  0  0  0
    0.0000   -2.3037    0.0000 O   0  0  0  0  0  0  0  0  0  0  0  0
    1.9950   -1.1518    0.0000 C   0  0  0  0  0  0  0  0  0  0  0  0
    1.3315    0.0000    0.0000 O   0  0  0  0  0  0  0  0  0  0  0  0
    3.3265   -1.1518    0.0000 C   0  0  0  0  0  0  0  0  0  0  0  0
    3.9899   -2.3037    0.0000 C   0  0  0  0  0  0  0  0  0  0  0  0
  1  2  1  0  0  0  0
  1  9  1  0  0  0  0
  2  3  1  0  0  0  0
  2  4  2  0  0  0  0
  4  5  1  0  0  0  0
  4  6  1  0  0  0  0
  6  7  2  0  0  0  0
  6  8  1  0  0  0  0
  8  9  2  0  0  0  0
M  END
> <ID>
4243

> <Formula>
C6H6O3

> <FW>
126.11

> <DSSTox_CID>
5523

> <DSSTox_RID>
77818

> <DSSTox_GSID>
25523

> <DSSTox_FileID_Sort>
2501

> <TS_ChemName>
Maltol

> <TS_ChemName_Synonyms>


> <TS_CASRN>
118-71-8

> <CASRN_ChemName_Relationship>
primary

> <TS_Description>
single chemical compound

> <ChemNote>


> <STRUCTURE_Shown>
tested chemical

> <STRUCTURE_Formula>
C6H6O3

> <STRUCTURE_MW>
126.11

> <STRUCTURE_ChemType>
defined organic

> <STRUCTURE_DefinedOrganicForm>
parent

> <STRUCTURE_IUPAC>
3-hydroxy-2-methyl-4H-pyran-4-one

> <STRUCTURE_SMILES>
CC=1OC=CC(=O)C=1O

> <STRUCTURE_SMILES_Desalt>
CC=1OC=CC(=O)C=1O

> <Substance_modify_yyyymmdd>
20080429

$$$$
