118-60-5
ChemmineR-0915142007XD

 18 18  0  0  0  0  0  0  0  0  1 V2000
    3.4556   -1.3477    0.0000 C   0  0  0  0  0  0  0  0  0  0  0  0
    3.4556    0.0000    0.0000 O   0  0  0  0  0  0  0  0  0  0  0  0
    2.3037   -2.0043    0.0000 C   0  0  0  0  0  0  0  0  0  0  0  0
    4.6075   -2.0043    0.0000 O   0  0  0  0  0  0  0  0  0  0  0  0
    1.1519   -1.3477    0.0000 C   0  0  0  0  0  0  0  0  0  0  0  0
    2.3037   -3.3404    0.0000 C   0  0  0  0  0  0  0  0  0  0  0  0
    0.0000   -2.0043    0.0000 C   0  0  0  0  0  0  0  0  0  0  0  0
    1.1519   -3.9970    0.0000 C   0  0  0  0  0  0  0  0  0  0  0  0
    0.0000   -3.3404    0.0000 C   0  0  0  0  0  0  0  0  0  0  0  0
    1.1519    0.0000    0.0000 O   0  0  0  0  0  0  0  0  0  0  0  0
    5.7594   -1.3477    0.0000 C   0  0  0  0  0  0  0  0  0  0  0  0
    6.9112   -2.0043    0.0000 C   0  0  0  0  0  0  0  0  0  0  0  0
    8.0631   -1.3477    0.0000 C   0  0  0  0  0  0  0  0  0  0  0  0
    9.2150   -2.0043    0.0000 C   0  0  0  0  0  0  0  0  0  0  0  0
   10.3668   -1.3477    0.0000 C   0  0  0  0  0  0  0  0  0  0  0  0
   11.5187   -2.0043    0.0000 C   0  0  0  0  0  0  0  0  0  0  0  0
    6.9112   -3.3404    0.0000 C   0  0  0  0  0  0  0  0  0  0  0  0
    8.0631   -3.9970    0.0000 C   0  0  0  0  0  0  0  0  0  0  0  0
  1  2  2  0  0  0  0
  1  3  1  0  0  0  0
  1  4  1  0  0  0  0
  3  5  2  0  0  0  0
  3  6  1  0  0  0  0
  4 11  1  0  0  0  0
  5  7  1  0  0  0  0
  5 10  1  0  0  0  0
  6  8  2  0  0  0  0
  7  9  2  0  0  0  0
  8  9  1  0  0  0  0
 11 12  1  0  0  0  0
 12 13  1  0  0  0  0
 12 17  1  0  0  0  0
 13 14  1  0  0  0  0
 14 15  1  0  0  0  0
 15 16  1  0  0  0  0
 17 18  1  0  0  0  0
M  END
> <ID>
7929

> <Formula>
C15H22O3

> <FW>
250.3334

> <DSSTox_CID>
20734

> <DSSTox_RID>
79578

> <DSSTox_GSID>
40734

> <DSSTox_FileID_Sort>
4260

> <TS_ChemName>
2-Ethylhexyl salicylate

> <TS_ChemName_Synonyms>


> <TS_CASRN>
118-60-5

> <CASRN_ChemName_Relationship>
primary

> <TS_Description>
single chemical compound

> <ChemNote>


> <STRUCTURE_Shown>
tested chemical

> <STRUCTURE_Formula>
C15H22O3

> <STRUCTURE_MW>
250.3334

> <STRUCTURE_ChemType>
defined organic

> <STRUCTURE_DefinedOrganicForm>
parent

> <STRUCTURE_IUPAC>
2-ethylhexyl 2-hydroxybenzoate

> <STRUCTURE_SMILES>
Oc1ccccc1C(=O)OCC(CC)CCCC

> <STRUCTURE_SMILES_Desalt>
Oc1ccccc1C(=O)OCC(CC)CCCC

> <Substance_modify_yyyymmdd>
20080429

$$$$
