118-57-0
ChemmineR-0915142007XD

 20 21  0  0  0  0  0  0  0  0  1 V2000
    3.4707   -2.0063    0.0000 C   0  0  0  0  0  0  0  0  0  0  0  0
    2.2946   -2.6982    0.0000 C   0  0  0  0  0  0  0  0  0  0  0  0
    4.6353   -2.6751    0.0000 O   0  0  0  0  0  0  0  0  0  0  0  0
   10.3776   -0.6688    0.0000 C   0  0  0  0  0  0  0  0  0  0  0  0
    9.2361    0.0000    0.0000 N   0  0  0  0  0  0  0  0  0  0  0  0
    1.1531   -2.0409    0.0000 C   0  0  0  0  0  0  0  0  0  0  0  0
    3.4707   -0.6803    0.0000 O   0  0  0  0  0  0  0  0  0  0  0  0
   11.5307    0.0000    0.0000 O   0  0  0  0  0  0  0  0  0  0  0  0
    5.7653   -2.0063    0.0000 C   0  0  0  0  0  0  0  0  0  0  0  0
    8.0599   -0.6803    0.0000 C   0  0  0  0  0  0  0  0  0  0  0  0
    1.1531   -0.7034    0.0000 O   0  0  0  0  0  0  0  0  0  0  0  0
    2.2946   -4.0242    0.0000 C   0  0  0  0  0  0  0  0  0  0  0  0
    6.9184   -2.6751    0.0000 C   0  0  0  0  0  0  0  0  0  0  0  0
    5.7653   -0.6803    0.0000 C   0  0  0  0  0  0  0  0  0  0  0  0
    8.0599   -2.0063    0.0000 C   0  0  0  0  0  0  0  0  0  0  0  0
    6.9184   -0.0346    0.0000 C   0  0  0  0  0  0  0  0  0  0  0  0
   10.3776   -2.0063    0.0000 C   0  0  0  0  0  0  0  0  0  0  0  0
    0.0000   -2.6982    0.0000 C   0  0  0  0  0  0  0  0  0  0  0  0
    1.1531   -4.6930    0.0000 C   0  0  0  0  0  0  0  0  0  0  0  0
    0.0000   -4.0242    0.0000 C   0  0  0  0  0  0  0  0  0  0  0  0
  1  2  1  0  0  0  0
  1  3  1  0  0  0  0
  1  7  2  0  0  0  0
  2  6  1  0  0  0  0
  2 12  2  0  0  0  0
  3  9  1  0  0  0  0
  4  5  1  0  0  0  0
  4  8  2  0  0  0  0
  4 17  1  0  0  0  0
  5 10  1  0  0  0  0
  6 11  1  0  0  0  0
  6 18  2  0  0  0  0
  9 13  1  0  0  0  0
  9 14  2  0  0  0  0
 10 16  2  0  0  0  0
 10 15  1  0  0  0  0
 12 19  1  0  0  0  0
 13 15  2  0  0  0  0
 14 16  1  0  0  0  0
 18 20  1  0  0  0  0
 19 20  2  0  0  0  0
M  END
> <ID>
11253

> <Formula>
C15H13NO4

> <FW>
271.268

> <DSSTox_CID>
25865

> <DSSTox_RID>
81185

> <DSSTox_GSID>
45865

> <DSSTox_FileID_Sort>
5866

> <TS_ChemName>
Acetaminosalol

> <TS_ChemName_Synonyms>


> <TS_CASRN>
118-57-0

> <CASRN_ChemName_Relationship>
primary

> <TS_Description>
single chemical compound

> <ChemNote>


> <STRUCTURE_Shown>
tested chemical

> <STRUCTURE_Formula>
C15H13NO4

> <STRUCTURE_MW>
271.268

> <STRUCTURE_ChemType>
defined organic

> <STRUCTURE_DefinedOrganicForm>
parent

> <STRUCTURE_IUPAC>
4-(acetylamino)phenyl 2-hydroxybenzoate

> <STRUCTURE_SMILES>
Oc2ccccc2C(=O)Oc1ccc(NC(C)=O)cc1

> <STRUCTURE_SMILES_Desalt>
Oc2ccccc2C(=O)Oc1ccc(NC(C)=O)cc1

> <Substance_modify_yyyymmdd>
20110922

$$$$
