1180-71-8
ChemmineR-0915142007XD

 36 42  0  0  1  0  0  0  0  0  1 V2000
    5.9100   -5.2658    0.0000 C   0  0  0  0  0  0  0  0  0  0  0  0
    7.0491   -5.9287    0.0000 C   0  0  0  0  0  0  0  0  0  0  0  0
    4.7803   -5.9474    0.0000 C   0  0  0  0  0  0  0  0  0  0  0  0
    5.9100   -3.9774    0.0000 C   0  0  0  0  0  0  0  0  0  0  0  0
    5.9100   -6.5636    0.0000 O   0  0  0  0  0  0  0  0  0  0  0  0
    2.5115   -5.9754    0.0000 C   0  0  0  0  0  0  0  0  0  0  0  0
    3.6319   -5.2658    0.0000 C   0  0  0  0  0  0  0  0  0  0  0  0
    8.1695   -5.2658    0.0000 C   0  0  0  0  0  0  0  0  0  0  0  0
    2.5115   -7.2265    0.0000 C   0  0  0  0  0  0  0  0  0  0  0  0
    7.0491   -3.3238    0.0000 C   0  0  0  0  0  0  0  0  0  0  0  0
    4.7803   -7.2078    0.0000 C   0  0  0  0  0  0  0  0  0  0  0  0
    8.1695   -3.9867    0.0000 O   0  0  0  0  0  0  0  0  0  0  0  0
    0.2521   -5.9474    0.0000 C   0  0  0  0  0  0  0  0  0  0  0  0
    1.3911   -7.8987    0.0000 C   0  0  0  0  0  0  0  0  0  0  0  0
    0.2521   -7.2078    0.0000 O   0  0  0  0  0  0  0  0  0  0  0  0
    3.6319   -7.8987    0.0000 C   0  0  0  0  0  0  0  0  0  0  0  0
    7.0491   -2.0167    0.0000 C   0  0  0  0  0  0  0  0  0  0  0  0
    0.0187   -4.7803    0.0000 C   0  0  0  0  0  0  0  0  0  0  0  0
    4.7430   -3.3238    0.0000 C   0  0  0  0  0  0  0  0  0  0  0  0
    2.7169   -4.7430    0.0000 C   0  0  0  0  0  0  0  0  0  0  0  0
    0.6816   -3.5759    0.0000 C   0  0  0  0  0  0  0  0  0  0  0  0
    3.6319   -3.9774    0.0000 C   0  0  0  0  0  0  0  0  0  0  0  0
    2.0167   -3.5479    0.0000 O   0  0  0  0  0  0  0  0  0  0  0  0
    9.3366   -5.9007    0.0000 O   0  0  0  0  0  0  0  0  0  0  0  0
    5.9474   -1.1857    0.0000 C   0  0  0  0  0  0  0  0  0  0  0  0
    5.9474   -7.8520    0.0000 O   0  0  0  0  0  0  0  0  0  0  0  0
    8.0761   -1.2604    0.0000 C   0  0  0  0  0  0  0  0  0  0  0  0
    6.3675    0.0000    0.0000 O   0  0  0  0  0  0  0  0  0  0  0  0
    7.6466    0.0000    0.0000 C   0  0  0  0  0  0  0  0  0  0  0  0
    0.0000   -2.4088    0.0000 O   0  0  0  0  0  0  0  0  0  0  0  0
    4.7803   -4.6216    0.0000 C   0  0  0  0  0  0  0  0  0  0  0  0
    5.9100   -2.6516    0.0000 C   0  0  0  0  0  0  0  0  0  0  0  0
    0.2988   -8.7017    0.0000 C   0  0  0  0  0  0  0  0  0  0  0  0
    1.3911   -9.1778    0.0000 C   0  0  0  0  0  0  0  0  0  0  0  0
    2.5115   -8.5430    0.0000 H   0  0  0  0  0  0  0  0  0  0  0  0
    3.6319   -6.5263    0.0000 H   0  0  0  0  0  0  0  0  0  0  0  0
  1  2  1  0  0  0  0
  1  3  1  0  0  0  0
  1  4  1  0  0  0  0
  1  5  1  1  0  0  0
  2  8  1  0  0  0  0
  2  5  1  1  0  0  0
  3  7  1  0  0  0  0
  3 11  1  0  0  0  0
  3 31  1  1  0  0  0
  4 10  1  0  0  0  0
  4 19  1  0  0  0  0
  4 32  1  6  0  0  0
  6  7  1  0  0  0  0
  6 13  1  0  0  0  0
  6 20  1  1  0  0  0
  6  9  1  0  0  0  0
  7 36  1  6  0  0  0
  7 22  1  0  0  0  0
  8 24  2  0  0  0  0
  8 12  1  0  0  0  0
  9 16  1  0  0  0  0
  9 14  1  0  0  0  0
  9 35  1  6  0  0  0
 10 12  1  0  0  0  0
 10 17  1  6  0  0  0
 11 16  1  0  0  0  0
 11 26  2  0  0  0  0
 13 15  1  0  0  0  0
 13 18  1  1  0  0  0
 14 33  1  0  0  0  0
 14 34  1  0  0  0  0
 14 15  1  0  0  0  0
 17 25  2  0  0  0  0
 17 27  1  0  0  0  0
 18 21  1  0  0  0  0
 19 22  1  0  0  0  0
 20 23  1  0  0  0  0
 21 23  1  0  0  0  0
 21 30  2  0  0  0  0
 25 28  1  0  0  0  0
 27 29  2  0  0  0  0
 28 29  1  0  0  0  0
M  END
> <ID>
11341

> <Formula>
C26H30O8

> <FW>
470.5116

> <DSSTox_CID>
25985

> <DSSTox_RID>
81273

> <DSSTox_GSID>
45985

> <DSSTox_FileID_Sort>
5954

> <TS_ChemName>
Limoni

> <TS_ChemName_Synonyms>


> <TS_CASRN>
1180-71-8

> <CASRN_ChemName_Relationship>
primary

> <TS_Description>
single chemical compound

> <ChemNote>
stereochem

> <STRUCTURE_Shown>
tested chemical

> <STRUCTURE_Formula>
C26H30O8

> <STRUCTURE_MW>
470.5116

> <STRUCTURE_ChemType>
defined organic

> <STRUCTURE_DefinedOrganicForm>
parent

> <STRUCTURE_IUPAC>
(4aS,6aR,8aR,8bR,9aS,12R,12aS,14aR,14bR)-12-(furan-3-yl)-6,6,8a,12a-tetramethyldecahydro-3H-oxireno[d]pyrano[4',3':3,3a][2]benzofuro[5,4-f]isochromene-3,8,10(6H,9aH)-trione

> <STRUCTURE_SMILES>
C[C@]35CC[C@@H]1[C@@]76COC(=O)C[C@@H]7OC(C)(C)[C@@H]6CC(=O)[C@@]1(C)[C@@]45O[C@@H]4C(=O)O[C@H]3c2ccoc2

> <STRUCTURE_SMILES_Desalt>
C[C@]35CC[C@@H]1[C@@]76COC(=O)C[C@@H]7OC(C)(C)[C@@H]6CC(=O)[C@@]1(C)[C@@]45O[C@@H]4C(=O)O[C@H]3c2ccoc2

> <Substance_modify_yyyymmdd>
20110825

$$$$
