118072-93-8
ChemmineR-0915142007XD

 16 16  0  0  0  0  0  0  0  0  1 V2000
    1.7113    0.0000    0.0000 C   0  0  0  0  0  0  0  0  0  0  0  0
    2.1280   -1.2377    0.0000 C   0  0  0  0  0  0  0  0  0  0  0  0
    1.0609   -3.3342    0.0000 C   0  0  0  0  0  0  0  0  0  0  0  0
    0.0000   -1.2377    0.0000 C   0  0  0  0  0  0  0  0  0  0  0  0
    2.2038   -3.9846    0.0000 C   0  0  0  0  0  0  0  0  0  0  0  0
    0.3978    0.0000    0.0000 N   0  0  0  0  0  0  0  0  0  0  0  0
    1.0609   -2.0144    0.0000 N   0  0  0  0  0  0  0  0  0  0  0  0
    2.8542   -2.8542    0.0000 O   0  0  0  0  0  0  0  0  0  0  0  0
    2.3617   -5.8537    0.0000 O   0  0  0  0  0  0  0  0  0  0  0  0
    0.3473   -4.1551    0.0000 O   0  0  0  0  0  0  0  0  0  0  0  0
    0.5052   -6.3147    0.0000 O   0  0  0  0  0  0  0  0  0  0  0  0
    3.2079   -5.7464    0.0000 O   0  0  0  0  0  0  0  0  0  0  0  0
    3.8898   -3.2079    0.0000 O   0  0  0  0  0  0  0  0  0  0  0  0
    4.6666   -4.8876    0.0000 O   0  0  0  0  0  0  0  0  0  0  0  0
    1.3640   -4.9949    0.0000 P   0  0  0  0  0  0  0  0  0  0  0  0
    3.4289   -4.4455    0.0000 P   0  0  0  0  0  0  0  0  0  0  0  0
  1  2  2  0  0  0  0
  1  6  1  0  0  0  0
  2  7  1  0  0  0  0
  3  5  1  0  0  0  0
  3  7  1  0  0  0  0
  4  6  2  0  0  0  0
  4  7  1  0  0  0  0
  5  8  1  0  0  0  0
  5 15  1  0  0  0  0
  5 16  1  0  0  0  0
  9 15  2  0  0  0  0
 10 15  1  0  0  0  0
 11 15  1  0  0  0  0
 12 16  2  0  0  0  0
 13 16  1  0  0  0  0
 14 16  1  0  0  0  0
M  END
> <ID>
9529

> <Formula>
C5H10N2O7P2

> <FW>
272.0896

> <DSSTox_CID>
22668

> <DSSTox_RID>
80065

> <DSSTox_GSID>
42668

> <DSSTox_FileID_Sort>
4747

> <TS_ChemName>
Zoledronate

> <TS_ChemName_Synonyms>


> <TS_CASRN>
118072-93-8

> <CASRN_ChemName_Relationship>
primary

> <TS_Description>
single chemical compound

> <ChemNote>


> <STRUCTURE_Shown>
tested chemical

> <STRUCTURE_Formula>
C5H10N2O7P2

> <STRUCTURE_MW>
272.0896

> <STRUCTURE_ChemType>
defined organic

> <STRUCTURE_DefinedOrganicForm>
parent

> <STRUCTURE_IUPAC>
[1-hydroxy-2-(1H-imidazol-1-yl)ethane-1,1-diyl]bis(phosphonic acid)

> <STRUCTURE_SMILES>
OP(=O)(O)C(O)(Cn1ccnc1)P(=O)(O)O

> <STRUCTURE_SMILES_Desalt>
OP(=O)(O)C(O)(Cn1ccnc1)P(=O)(O)O

> <Substance_modify_yyyymmdd>
20081003

$$$$
