118292-40-3
ChemmineR-0915142007XD

 25 27  0  0  0  0  0  0  0  0  1 V2000
   15.2709   -3.6192    0.0000 C   0  0  0  0  0  0  0  0  0  0  0  0
   14.6143   -2.4586    0.0000 C   0  0  0  0  0  0  0  0  0  0  0  0
   13.2857   -2.4586    0.0000 O   0  0  0  0  0  0  0  0  0  0  0  0
   12.6138   -3.6192    0.0000 C   0  0  0  0  0  0  0  0  0  0  0  0
   13.2857   -4.7645    0.0000 O   0  0  0  0  0  0  0  0  0  0  0  0
   11.2852   -3.6192    0.0000 C   0  0  0  0  0  0  0  0  0  0  0  0
   10.6286   -4.7645    0.0000 C   0  0  0  0  0  0  0  0  0  0  0  0
    9.3000   -4.7645    0.0000 C   0  0  0  0  0  0  0  0  0  0  0  0
    8.6281   -3.6192    0.0000 C   0  0  0  0  0  0  0  0  0  0  0  0
    9.3000   -2.4586    0.0000 N   0  0  0  0  0  0  0  0  0  0  0  0
   10.6286   -2.4586    0.0000 C   0  0  0  0  0  0  0  0  0  0  0  0
    7.2995   -3.6192    0.0000 C   0  0  0  0  0  0  0  0  0  0  0  0
    5.9709   -3.6192    0.0000 C   0  0  0  0  0  0  0  0  0  0  0  0
    4.6424   -3.6192    0.0000 C   0  0  0  0  0  0  0  0  0  0  0  0
    3.9857   -4.7645    0.0000 C   0  0  0  0  0  0  0  0  0  0  0  0
    2.6571   -4.7645    0.0000 C   0  0  0  0  0  0  0  0  0  0  0  0
    1.9852   -3.6192    0.0000 C   0  0  0  0  0  0  0  0  0  0  0  0
    0.6567   -3.6192    0.0000 S   0  0  0  0  0  0  0  0  0  0  0  0
    0.0000   -2.4586    0.0000 C   0  0  0  0  0  0  0  0  0  0  0  0
    0.6567   -1.3133    0.0000 C   0  0  0  0  0  0  0  0  0  0  0  0
    1.9852   -1.3133    0.0000 C   0  0  0  0  0  0  0  0  0  0  0  0
    1.7562    0.0000    0.0000 C   0  0  0  0  0  0  0  0  0  0  0  0
    3.2374   -0.8552    0.0000 C   0  0  0  0  0  0  0  0  0  0  0  0
    2.6571   -2.4586    0.0000 C   0  0  0  0  0  0  0  0  0  0  0  0
    3.9857   -2.4586    0.0000 C   0  0  0  0  0  0  0  0  0  0  0  0
  1  2  1  0  0  0  0
  2  3  1  0  0  0  0
  3  4  1  0  0  0  0
  4  5  2  0  0  0  0
  4  6  1  0  0  0  0
  6  7  2  0  0  0  0
  6 11  1  0  0  0  0
  7  8  1  0  0  0  0
  8  9  2  0  0  0  0
  9 10  1  0  0  0  0
  9 12  1  0  0  0  0
 10 11  2  0  0  0  0
 12 13  3  0  0  0  0
 13 14  1  0  0  0  0
 14 15  2  0  0  0  0
 14 25  1  0  0  0  0
 15 16  1  0  0  0  0
 16 17  2  0  0  0  0
 17 18  1  0  0  0  0
 17 24  1  0  0  0  0
 18 19  1  0  0  0  0
 19 20  1  0  0  0  0
 20 21  1  0  0  0  0
 21 22  1  0  0  0  0
 21 23  1  0  0  0  0
 21 24  1  0  0  0  0
 24 25  2  0  0  0  0
M  END
> <ID>
11889

> <Formula>
C21H21NO2S

> <FW>
351.4619

> <DSSTox_CID>
26691

> <DSSTox_RID>
81825

> <DSSTox_GSID>
46691

> <DSSTox_FileID_Sort>
6506

> <TS_ChemName>
Tazarotene

> <TS_ChemName_Synonyms>


> <TS_CASRN>
118292-40-3

> <CASRN_ChemName_Relationship>
primary

> <TS_Description>
single chemical compound

> <ChemNote>


> <STRUCTURE_Shown>
tested chemical

> <STRUCTURE_Formula>
C21H21NO2S

> <STRUCTURE_MW>
351.4619

> <STRUCTURE_ChemType>
defined organic

> <STRUCTURE_DefinedOrganicForm>
parent

> <STRUCTURE_IUPAC>
ethyl 6-[(4,4-dimethyl-3,4-dihydro-2H-thiochromen-6-yl)ethynyl]pyridine-3-carboxylate

> <STRUCTURE_SMILES>
O=C(OCC)c1ccc(nc1)C#Cc2ccc3SCCC(C)(C)c3c2

> <STRUCTURE_SMILES_Desalt>
O=C(OCC)c1ccc(nc1)C#Cc2ccc3SCCC(C)(C)c3c2

> <Substance_modify_yyyymmdd>
20110805

$$$$
