118288-08-7
ChemmineR-0915142007XD

 30 32  0  0  0  0  0  0  0  0  1 V2000
    2.1836   -6.2506    0.0000 O   0  0  0  0  0  0  0  0  0  0  0  0
    1.4074   -7.3165    0.0000 C   0  0  0  0  0  0  0  0  0  0  0  0
    2.1836   -8.4135    0.0000 C   0  0  0  0  0  0  0  0  0  0  0  0
    3.4461   -7.9892    0.0000 C   0  0  0  0  0  0  0  0  0  0  0  0
    3.4461   -6.6645    0.0000 C   0  0  0  0  0  0  0  0  0  0  0  0
    4.6052   -5.9919    0.0000 C   0  0  0  0  0  0  0  0  0  0  0  0
    5.7435   -6.6645    0.0000 S   0  0  0  0  0  0  0  0  0  0  0  0
    6.9026   -5.9919    0.0000 C   0  0  0  0  0  0  0  0  0  0  0  0
    8.0513   -6.6645    0.0000 C   0  0  0  0  0  0  0  0  0  0  0  0
    9.2207   -5.9919    0.0000 N   0  0  0  0  0  0  0  0  0  0  0  0
    9.2207   -4.6569    0.0000 C   0  0  0  0  0  0  0  0  0  0  0  0
    5.7435   -7.9892    0.0000 O   0  0  0  0  0  0  0  0  0  0  0  0
    8.0513   -7.9892    0.0000 O   0  0  0  0  0  0  0  0  0  0  0  0
   10.3487   -3.9946    0.0000 C   0  0  0  0  0  0  0  0  0  0  0  0
   10.3487   -2.6700    0.0000 C   0  0  0  0  0  0  0  0  0  0  0  0
    9.2207   -1.9973    0.0000 C   0  0  0  0  0  0  0  0  0  0  0  0
    8.0513   -2.6700    0.0000 O   0  0  0  0  0  0  0  0  0  0  0  0
    6.9026   -1.9973    0.0000 C   0  0  0  0  0  0  0  0  0  0  0  0
    6.9026   -0.6727    0.0000 N   0  0  0  0  0  0  0  0  0  0  0  0
    5.7435    0.0000    0.0000 C   0  0  0  0  0  0  0  0  0  0  0  0
    4.6052   -0.6727    0.0000 C   0  0  0  0  0  0  0  0  0  0  0  0
    4.6052   -1.9973    0.0000 C   0  0  0  0  0  0  0  0  0  0  0  0
    5.7435   -2.6700    0.0000 C   0  0  0  0  0  0  0  0  0  0  0  0
    3.4461   -2.6700    0.0000 C   0  0  0  0  0  0  0  0  0  0  0  0
    2.2974   -1.9973    0.0000 N   0  0  0  0  0  0  0  0  0  0  0  0
    2.2974   -0.6727    0.0000 C   0  0  0  0  0  0  0  0  0  0  0  0
    1.1280    0.0000    0.0000 C   0  0  0  0  0  0  0  0  0  0  0  0
    0.0000   -0.6727    0.0000 C   0  0  0  0  0  0  0  0  0  0  0  0
    0.0000   -1.9973    0.0000 C   0  0  0  0  0  0  0  0  0  0  0  0
    1.1280   -2.6700    0.0000 C   0  0  0  0  0  0  0  0  0  0  0  0
  1  2  1  0  0  0  0
  1  5  1  0  0  0  0
  2  3  2  0  0  0  0
  3  4  1  0  0  0  0
  4  5  2  0  0  0  0
  5  6  1  0  0  0  0
  6  7  1  0  0  0  0
  7  8  1  0  0  0  0
  7 12  2  0  0  0  0
  8  9  1  0  0  0  0
  9 10  1  0  0  0  0
  9 13  2  0  0  0  0
 10 11  1  0  0  0  0
 11 14  1  0  0  0  0
 14 15  2  0  0  0  0
 15 16  1  0  0  0  0
 16 17  1  0  0  0  0
 17 18  1  0  0  0  0
 18 19  2  0  0  0  0
 18 23  1  0  0  0  0
 19 20  1  0  0  0  0
 20 21  2  0  0  0  0
 21 22  1  0  0  0  0
 22 23  2  0  0  0  0
 22 24  1  0  0  0  0
 24 25  1  0  0  0  0
 25 26  1  0  0  0  0
 25 30  1  0  0  0  0
 26 27  1  0  0  0  0
 27 28  1  0  0  0  0
 28 29  1  0  0  0  0
 29 30  1  0  0  0  0
M  END
> <ID>
11677

> <Formula>
C22H29N3O4S

> <FW>
431.5484

> <DSSTox_CID>
26434

> <DSSTox_RID>
81611

> <DSSTox_GSID>
46434

> <DSSTox_FileID_Sort>
6292

> <TS_ChemName>
Lafutidine

> <TS_ChemName_Synonyms>


> <TS_CASRN>
118288-08-7

> <CASRN_ChemName_Relationship>
primary

> <TS_Description>
single chemical compound

> <ChemNote>
stereochem

> <STRUCTURE_Shown>
tested chemical

> <STRUCTURE_Formula>
C22H29N3O4S

> <STRUCTURE_MW>
431.5484

> <STRUCTURE_ChemType>
defined organic

> <STRUCTURE_DefinedOrganicForm>
parent

> <STRUCTURE_IUPAC>
2-[(furan-2-ylmethyl)sulfinyl]-N-[(2Z)-4-{[4-(piperidin-1-ylmethyl)pyridin-2-yl]oxy}but-2-en-1-yl]acetamide

> <STRUCTURE_SMILES>
O=S(CC(=O)NC/C=C\COc2cc(CN1CCCCC1)ccn2)Cc3ccco3

> <STRUCTURE_SMILES_Desalt>
O=S(CC(=O)NC/C=C\COc2cc(CN1CCCCC1)ccn2)Cc3ccco3

> <Substance_modify_yyyymmdd>
20110813

$$$$
