118244-44-3
ChemmineR-0915142007XD

 46 49  0  0  1  0  0  0  0  0  1 V2000
    2.2629    0.0000    0.0000 C   0  0  0  0  0  0  0  0  0  0  0  0
    1.2613   -0.8903    0.0000 C   0  0  0  0  0  0  0  0  0  0  0  0
    0.0000   -0.4823    0.0000 C   0  0  0  0  0  0  0  0  0  0  0  0
    1.5395   -2.1702    0.0000 C   0  0  0  0  0  0  0  0  0  0  0  0
    2.8008   -2.5968    0.0000 C   0  0  0  0  0  0  0  0  0  0  0  0
    3.0976   -3.8952    0.0000 C   0  0  0  0  0  0  0  0  0  0  0  0
    4.3589   -4.3032    0.0000 C   0  0  0  0  0  0  0  0  0  0  0  0
    5.3234   -3.4129    0.0000 C   0  0  0  0  0  0  0  0  0  0  0  0
    4.6186   -5.6016    0.0000 C   0  0  0  0  0  0  0  0  0  0  0  0
    5.8984   -6.0097    0.0000 C   0  0  0  0  0  0  0  0  0  0  0  0
    6.1581   -7.3081    0.0000 C   0  0  0  0  0  0  0  0  0  0  0  0
    7.4194   -7.7347    0.0000 C   0  0  0  0  0  0  0  0  0  0  0  0
    8.4210   -6.8258    0.0000 C   0  0  0  0  0  0  0  0  0  0  0  0
    7.6976   -9.0331    0.0000 C   0  0  0  0  0  0  0  0  0  0  0  0
    8.9589   -9.4226    0.0000 C   0  0  0  0  0  0  0  0  0  0  0  0
    9.2371  -10.7396    0.0000 O   0  0  0  0  0  0  0  0  0  0  0  0
    9.9605   -8.5508    0.0000 O   0  0  0  0  0  0  0  0  0  0  0  0
    9.6823   -7.2525    0.0000 C   0  0  0  0  0  0  0  0  0  0  0  0
   10.6654   -6.3621    0.0000 C   0  0  0  0  0  0  0  0  0  0  0  0
   11.9267   -6.7702    0.0000 O   0  0  0  0  0  0  0  0  0  0  0  0
   10.3871   -5.0637    0.0000 C   0  0  0  0  0  0  0  0  0  0  0  0
    9.3855   -5.9541    0.0000 O   0  0  0  0  0  0  0  0  0  0  0  0
    9.6081   -3.9879    0.0000 C   0  0  0  0  0  0  0  0  0  0  0  0
   10.3871   -2.9121    0.0000 C   0  0  0  0  0  0  0  0  0  0  0  0
   11.6484   -3.3202    0.0000 C   0  0  0  0  0  0  0  0  0  0  0  0
   10.8509   -2.0218    0.0000 H   0  0  0  0  0  0  0  0  0  0  0  0
   12.7984   -2.6524    0.0000 C   0  0  0  0  0  0  0  0  0  0  0  0
   11.6484   -1.9847    0.0000 H   0  0  0  0  0  0  0  0  0  0  0  0
   12.7984   -1.3355    0.0000 C   0  0  0  0  0  0  0  0  0  0  0  0
   13.9485   -0.6492    0.0000 C   0  0  0  0  0  0  0  0  0  0  0  0
   15.0985   -1.3355    0.0000 C   0  0  0  0  0  0  0  0  0  0  0  0
   16.2485   -0.6492    0.0000 C   0  0  0  0  0  0  0  0  0  0  0  0
   17.3985   -1.3355    0.0000 C   0  0  0  0  0  0  0  0  0  0  0  0
   18.5485   -0.6492    0.0000 O   0  0  0  0  0  0  0  0  0  0  0  0
   17.3985   -2.6524    0.0000 C   0  0  0  0  0  0  0  0  0  0  0  0
   16.2485   -3.3202    0.0000 C   0  0  0  0  0  0  0  0  0  0  0  0
   15.0985   -2.6524    0.0000 C   0  0  0  0  0  0  0  0  0  0  0  0
   15.5993   -3.8024    0.0000 C   0  0  0  0  0  0  0  0  0  0  0  0
   13.9485   -3.3202    0.0000 C   0  0  0  0  0  0  0  0  0  0  0  0
   14.6904   -4.0250    0.0000 H   0  0  0  0  0  0  0  0  0  0  0  0
   13.9485   -4.6371    0.0000 C   0  0  0  0  0  0  0  0  0  0  0  0
   14.6162   -5.7871    0.0000 H   0  0  0  0  0  0  0  0  0  0  0  0
   15.1912   -5.1936    0.0000 O   0  0  0  0  0  0  0  0  0  0  0  0
   12.7984   -5.3234    0.0000 C   0  0  0  0  0  0  0  0  0  0  0  0
   11.6484   -4.6371    0.0000 C   0  0  0  0  0  0  0  0  0  0  0  0
   12.5202   -5.8613    0.0000 C   0  0  0  0  0  0  0  0  0  0  0  0
  1  2  1  0  0  0  0
  2  3  1  0  0  0  0
  2  4  2  0  0  0  0
  4  5  1  0  0  0  0
  5  6  1  0  0  0  0
  6  7  1  0  0  0  0
  7  8  1  0  0  0  0
  7  9  2  0  0  0  0
  9 10  1  0  0  0  0
 10 11  1  0  0  0  0
 11 12  1  0  0  0  0
 12 13  1  0  0  0  0
 12 14  2  0  0  0  0
 14 15  1  0  0  0  0
 15 16  2  0  0  0  0
 15 17  1  0  0  0  0
 17 18  1  0  0  0  0
 18 19  1  0  0  0  0
 19 20  2  0  0  0  0
 21 19  1  1  0  0  0
 21 22  1  0  0  0  0
 21 23  1  0  0  0  0
 21 45  1  0  0  0  0
 23 24  1  0  0  0  0
 24 25  1  0  0  0  0
 25 26  1  6  0  0  0
 25 27  1  0  0  0  0
 25 45  1  0  0  0  0
 27 28  1  1  0  0  0
 27 29  1  0  0  0  0
 27 39  1  0  0  0  0
 29 30  1  0  0  0  0
 30 31  1  0  0  0  0
 31 32  2  0  0  0  0
 31 37  1  0  0  0  0
 32 33  1  0  0  0  0
 33 34  2  0  0  0  0
 33 35  1  0  0  0  0
 35 36  2  0  0  0  0
 36 37  1  0  0  0  0
 37 38  1  1  0  0  0
 37 39  1  0  0  0  0
 39 40  1  6  0  0  0
 39 41  1  0  0  0  0
 41 42  1  6  0  0  0
 41 43  1  0  0  0  0
 41 44  1  0  0  0  0
 44 45  1  0  0  0  0
 45 46  1  1  0  0  0
M  END
> <ID>
16030

> <Formula>
C36H50O6

> <FW>
578.7786

> <DSSTox_CID>
31414

> <DSSTox_RID>
97300

> <DSSTox_GSID>
57625

> <DSSTox_FileID_Sort>
8367

> <TS_ChemName>
Prednisolone farnesylate

> <TS_ChemName_Synonyms>


> <TS_CASRN>
118244-44-3

> <CASRN_ChemName_Relationship>
primary

> <TS_Description>
single chemical compound

> <ChemNote>


> <STRUCTURE_Shown>
tested chemical

> <STRUCTURE_Formula>
C36H50O6

> <STRUCTURE_MW>
578.7786

> <STRUCTURE_ChemType>
defined organic

> <STRUCTURE_DefinedOrganicForm>
parent

> <STRUCTURE_IUPAC>
(11beta)-11,17-dihydroxy-3,20-dioxopregna-1,4-dien-21-yl (2E,6E)-3,7,11-trimethyldodeca-2,6,10-trienoate

> <STRUCTURE_SMILES>
C/C(C)=C\CCC(\C)=C\CCC(/C)=C/C(=O)OCC(=O)[C@@]4(O)CC[C@@H]3[C@]4(C)C[C@H](O)[C@H]2[C@H]3CCC1=CC(=O)C=C[C@@]12C

> <STRUCTURE_SMILES_Desalt>
C/C(C)=C\CCC(\C)=C\CCC(/C)=C/C(=O)OCC(=O)[C@@]4(O)CC[C@@H]3[C@]4(C)C[C@H](O)[C@H]2[C@H]3CCC1=CC(=O)C=C[C@@]12C

> <Substance_modify_yyyymmdd>
20131018

$$$$
