118499-70-0
ChemmineR-0915142007XD

 16 16  0  0  0  0  0  0  0  0  1 V2000
    4.5360   -5.3873    0.0000 O    0  0  0  0  0  0  0  0  0  0  0  0
    2.0020   -5.3208    0.0000 Cl   0  0  0  0  0  0  0  0  0  0  0  0
    3.4585    0.0000    0.0000 N    0  0  0  0  0  0  0  0  0  0  0  0
    3.4585   -1.3302    0.0000 C    0  0  0  0  0  0  0  0  0  0  0  0
    4.6025   -1.9887    0.0000 C    0  0  0  0  0  0  0  0  0  0  0  0
    5.8795   -1.5896    0.0000 C    0  0  0  0  0  0  0  0  0  0  0  0
    6.6510   -2.6604    0.0000 C    0  0  0  0  0  0  0  0  0  0  0  0
    5.8795   -3.7379    0.0000 C    0  0  0  0  0  0  0  0  0  0  0  0
    4.6025   -3.3189    0.0000 C    0  0  0  0  0  0  0  0  0  0  0  0
    3.4585   -3.9906    0.0000 N    0  0  0  0  0  0  0  0  0  0  0  0
    2.3079   -3.3189    0.0000 C    0  0  0  0  0  0  0  0  0  0  0  0
    2.3079   -1.9887    0.0000 C    0  0  0  0  0  0  0  0  0  0  0  0
    1.1506   -1.3302    0.0000 C    0  0  0  0  0  0  0  0  0  0  0  0
    0.0000   -1.9887    0.0000 C    0  0  0  0  0  0  0  0  0  0  0  0
    0.0000   -3.3189    0.0000 C    0  0  0  0  0  0  0  0  0  0  0  0
    1.1506   -3.9906    0.0000 C    0  0  0  0  0  0  0  0  0  0  0  0
  3  4  1  0  0  0  0
  4  5  2  0  0  0  0
  4 12  1  0  0  0  0
  5  6  1  0  0  0  0
  5  9  1  0  0  0  0
  6  7  1  0  0  0  0
  7  8  1  0  0  0  0
  8  9  1  0  0  0  0
  9 10  2  0  0  0  0
 10 11  1  0  0  0  0
 11 12  2  0  0  0  0
 11 16  1  0  0  0  0
 12 13  1  0  0  0  0
 13 14  1  0  0  0  0
 14 15  1  0  0  0  0
 15 16  1  0  0  0  0
M  END
> <ID>
11927

> <Formula>
C12H19ClN2O

> <FW>
242.7451 (18.0153+36.4609+188.2688)

> <DSSTox_CID>
26734

> <DSSTox_RID>
81863

> <DSSTox_GSID>
46734

> <DSSTox_FileID_Sort>
6544

> <TS_ChemName>
Ipidacrine hydrochloride hydrate

> <TS_ChemName_Synonyms>


> <TS_CASRN>
118499-70-0

> <CASRN_ChemName_Relationship>
primary

> <TS_Description>
single chemical compound

> <ChemNote>
parent [62732-44-9]

> <STRUCTURE_Shown>
tested chemical

> <STRUCTURE_Formula>
C12H19ClN2O

> <STRUCTURE_MW>
242.7451

> <STRUCTURE_ChemType>
defined organic

> <STRUCTURE_DefinedOrganicForm>
complex

> <STRUCTURE_IUPAC>
2,3,5,6,7,8-hexahydro-1H-cyclopenta[b]quinolin-9-amine hydrochloride hydrate

> <STRUCTURE_SMILES>
Cl.O.Nc1c3CCCc3nc2CCCCc12

> <STRUCTURE_SMILES_Desalt>
Nc1c3CCCc3nc2CCCCc12

> <Substance_modify_yyyymmdd>
20110804

$$$$
