118409-57-7
ChemmineR-0915142007XD

 14 14  0  0  0  0  0  0  0  0  1 V2000
    8.0587   -0.6689    0.0000 O   0  0  0  0  0  0  0  0  0  0  0  0
    6.9063   -1.3297    0.0000 C   0  0  0  0  0  0  0  0  0  0  0  0
    6.9063   -2.6594    0.0000 C   0  0  0  0  0  0  0  0  0  0  0  0
    8.0587   -3.3282    0.0000 O   0  0  0  0  0  0  0  0  0  0  0  0
    5.7539   -3.3282    0.0000 C   0  0  0  0  0  0  0  0  0  0  0  0
    4.6015   -2.6594    0.0000 C   0  0  0  0  0  0  0  0  0  0  0  0
    4.6015   -1.3297    0.0000 C   0  0  0  0  0  0  0  0  0  0  0  0
    5.7539   -0.6689    0.0000 C   0  0  0  0  0  0  0  0  0  0  0  0
    3.4572   -3.3282    0.0000 C   0  0  0  0  0  0  0  0  0  0  0  0
    2.3048   -2.6594    0.0000 C   0  0  0  0  0  0  0  0  0  0  0  0
    1.1524   -3.3282    0.0000 C   0  0  0  0  0  0  0  0  0  0  0  0
    0.0000   -3.9890    0.0000 N   0  0  0  0  0  0  0  0  0  0  0  0
    2.3048   -1.3297    0.0000 C   0  0  0  0  0  0  0  0  0  0  0  0
    2.3048    0.0000    0.0000 N   0  0  0  0  0  0  0  0  0  0  0  0
  1  2  1  0  0  0  0
  2  3  2  0  0  0  0
  2  8  1  0  0  0  0
  3  4  1  0  0  0  0
  3  5  1  0  0  0  0
  5  6  2  0  0  0  0
  6  7  1  0  0  0  0
  6  9  1  0  0  0  0
  7  8  2  0  0  0  0
  9 10  2  0  0  0  0
 10 11  1  0  0  0  0
 10 13  1  0  0  0  0
 11 12  3  0  0  0  0
 13 14  3  0  0  0  0
M  END
> <ID>
10824

> <Formula>
C10H6N2O2

> <FW>
186.1668

> <DSSTox_CID>
25215

> <DSSTox_RID>
80754

> <DSSTox_GSID>
45215

> <DSSTox_FileID_Sort>
5435

> <TS_ChemName>
Tyrphostin 23

> <TS_ChemName_Synonyms>


> <TS_CASRN>
118409-57-7

> <CASRN_ChemName_Relationship>
primary

> <TS_Description>
single chemical compound

> <ChemNote>


> <STRUCTURE_Shown>
tested chemical

> <STRUCTURE_Formula>
C10H6N2O2

> <STRUCTURE_MW>
186.1668

> <STRUCTURE_ChemType>
defined organic

> <STRUCTURE_DefinedOrganicForm>
parent

> <STRUCTURE_IUPAC>
(3,4-dihydroxybenzylidene)propanedinitrile

> <STRUCTURE_SMILES>
Oc1ccc(\C=C(/C#N)C#N)cc1O

> <STRUCTURE_SMILES_Desalt>
Oc1ccc(\C=C(/C#N)C#N)cc1O

> <Substance_modify_yyyymmdd>
20100107

$$$$
