118443-89-3
ChemmineR-0915142007XD

 42 45  0  0  1  0  0  0  0  0  2 V2000
    6.8318   -5.6707    0.0000 C   0  0  0  0  0  0  0  0  0  0  0  0
    6.8318   -4.3414    0.0000 C   0  0  0  0  0  0  0  0  0  0  0  0
    8.1611   -5.6707    0.0000 N   0  0  0  0  0  0  0  0  0  0  0  0
    8.1611   -4.3414    0.0000 C   0  0  0  0  0  0  0  0  0  0  0  0
    9.3054   -3.6515    0.0000 S   0  0  0  0  0  0  0  0  0  0  0  0
   10.4328   -4.3414    0.0000 C   0  0  0  0  0  0  0  0  0  0  0  0
   10.4328   -5.6707    0.0000 C   0  0  0  0  0  0  0  0  0  0  0  0
    9.3054   -6.3270    0.0000 C   0  0  0  0  0  0  0  0  0  0  0  0
    5.8726   -6.5962    0.0000 O   0  0  0  0  0  0  0  0  0  0  0  0
    9.3054   -7.6563    0.0000 C   0  0  0  0  0  0  0  0  0  0  0  0
   10.4328   -8.3294    0.0000 O   0  5  0  0  0  0  0  0  0  0  0  0
    8.1611   -8.3294    0.0000 O   0  0  0  0  0  0  0  0  0  0  0  0
   11.6107   -6.3270    0.0000 C   0  0  0  0  0  0  0  0  0  0  0  0
    5.7044   -4.3414    0.0000 N   0  0  0  0  0  0  0  0  0  0  0  0
    6.8318   -2.9952    0.0000 H   0  0  0  0  0  0  0  0  0  0  0  0
    8.1611   -2.9952    0.0000 H   0  0  0  0  0  0  0  0  0  0  0  0
    1.2452   -0.7740    0.0000 C   0  0  0  0  0  0  0  0  0  0  0  0
    1.6659   -2.0529    0.0000 N   0  0  0  0  0  0  0  0  0  0  0  0
    2.9952   -2.0529    0.0000 C   0  0  0  0  0  0  0  0  0  0  0  0
    3.4159   -0.7740    0.0000 N   0  0  0  0  0  0  0  0  0  0  0  0
    2.3221    0.0000    0.0000 S   0  0  0  0  0  0  0  0  0  0  0  0
    3.7188   -3.1467    0.0000 C   0  0  0  0  0  0  0  0  0  0  0  0
    5.0481   -3.1467    0.0000 C   0  0  0  0  0  0  0  0  0  0  0  0
    5.7044   -2.0192    0.0000 O   0  0  0  0  0  0  0  0  0  0  0  0
    3.0457   -4.3414    0.0000 N   0  0  0  0  0  0  0  0  0  0  0  0
    0.0000   -0.3702    0.0000 N   0  0  0  0  0  0  0  0  0  0  0  0
    2.1034   -5.2669    0.0000 O   0  0  0  0  0  0  0  0  0  0  0  0
    0.8077   -4.8967    0.0000 C   0  0  0  0  0  0  0  0  0  0  0  0
   14.1684   -6.1082    0.0000 C   0  0  0  0  0  0  0  0  0  0  0  0
   12.9232   -5.7044    0.0000 N   0  3  0  0  0  0  0  0  0  0  0  0
   14.9761   -5.0481    0.0000 N   0  0  0  0  0  0  0  0  0  0  0  0
   14.1684   -3.9544    0.0000 C   0  0  0  0  0  0  0  0  0  0  0  0
   12.9232   -4.3750    0.0000 C   0  0  0  0  0  0  0  0  0  0  0  0
   14.6900   -7.3366    0.0000 C   0  0  0  0  0  0  0  0  0  0  0  0
   16.0194   -7.4544    0.0000 C   0  0  0  0  0  0  0  0  0  0  0  0
   16.3054   -5.1827    0.0000 N   0  0  0  0  0  0  0  0  0  0  0  0
   16.8271   -6.3943    0.0000 C   0  0  0  0  0  0  0  0  0  0  0  0
    3.1467   -7.5890    0.0000 S   0  0  0  0  0  0  0  0  0  0  0  0
    3.1467   -6.2428    0.0000 O   0  0  0  0  0  0  0  0  0  0  0  0
    3.1467   -8.9183    0.0000 O   0  0  0  0  0  0  0  0  0  0  0  0
    4.4928   -7.5890    0.0000 O   0  0  0  0  0  0  0  0  0  0  0  0
    1.8173   -7.5890    0.0000 O   0  0  0  0  0  0  0  0  0  0  0  0
  1  9  2  0  0  0  0
  1  2  1  0  0  0  0
  1  3  1  0  0  0  0
  2  4  1  0  0  0  0
  2 14  1  1  0  0  0
  2 15  1  6  0  0  0
  3  4  1  0  0  0  0
  3  8  1  0  0  0  0
  4  5  1  0  0  0  0
  4 16  1  6  0  0  0
  5  6  1  0  0  0  0
  6  7  1  0  0  0  0
  7 13  1  0  0  0  0
  7  8  2  0  0  0  0
  8 10  1  0  0  0  0
 10 11  1  0  0  0  0
 10 12  2  0  0  0  0
 13 30  1  0  0  0  0
 14 23  1  0  0  0  0
 17 21  1  0  0  0  0
 17 18  2  0  0  0  0
 17 26  1  0  0  0  0
 18 19  1  0  0  0  0
 19 20  2  0  0  0  0
 19 22  1  0  0  0  0
 20 21  1  0  0  0  0
 22 23  1  0  0  0  0
 22 25  2  0  0  0  0
 23 24  2  0  0  0  0
 25 27  1  0  0  0  0
 27 28  1  0  0  0  0
 29 30  2  0  0  0  0
 29 34  1  0  0  0  0
 29 31  1  0  0  0  0
 30 33  1  0  0  0  0
 31 32  1  0  0  0  0
 31 36  1  0  0  0  0
 32 33  2  0  0  0  0
 34 35  2  0  0  0  0
 35 37  1  0  0  0  0
 36 37  2  0  0  0  0
 38 39  2  0  0  0  0
 38 40  2  0  0  0  0
 38 41  1  0  0  0  0
 38 42  1  0  0  0  0
M  END
> <ID>
13591

> <Formula>
C19H19N9O9S3

> <FW>
613.6041 (515.5256+98.0785)

> <DSSTox_CID>
28519

> <DSSTox_RID>
82791

> <DSSTox_GSID>
48593

> <DSSTox_FileID_Sort>
7468

> <TS_ChemName>
Cefquinome sulfate

> <TS_ChemName_Synonyms>


> <TS_CASRN>
118443-89-3

> <CASRN_ChemName_Relationship>
primary

> <TS_Description>
single chemical compound

> <ChemNote>
stereochem; parent [84957-30-2]

> <STRUCTURE_Shown>
tested chemical

> <STRUCTURE_Formula>
C19H19N9O9S3

> <STRUCTURE_MW>
613.6041

> <STRUCTURE_ChemType>
defined organic

> <STRUCTURE_DefinedOrganicForm>
complex

> <STRUCTURE_IUPAC>
(6R,7R)-7-{[(2E)-2-(5-amino-1,2,4-thiadiazol-3-yl)-2-(methoxyimino)acetyl]amino}-3-(imidazo[1,2-b]pyridazin-1-ium-1-ylmethyl)-8-oxo-5-thia-1-azabicyclo[4.2.0]oct-2-ene-2-carboxylate sulfate (1:1)

> <STRUCTURE_SMILES>
CO\N=C(/c1nc(N)sn1)C(=O)N[C@@H]5C(=O)N4C(C([O-])=O)=C(C[n+]3ccn2ncccc23)CS[C@@H]45.O=S(=O)(O)O

> <STRUCTURE_SMILES_Desalt>
CO\N=C(/c1nc(N)sn1)C(=O)N[C@@H]5C(=O)N4C(C(=O)O)=C(C[n+]3ccn2ncccc23)CS[C@@H]45

> <Substance_modify_yyyymmdd>
20111014

$$$$
