1185-53-1
ChemmineR-0915142007XD

  9  7  0  0  0  0  0  0  0  0  1 V2000
    0.0000   -0.9276    0.0000 Cl   0  0  0  0  0  0  0  0  0  0  0  0
    4.4173   -1.9834    0.0000 N    0  0  0  0  0  0  0  0  0  0  0  0
    3.0877   -1.9834    0.0000 C    0  0  0  0  0  0  0  0  0  0  0  0
    3.0877   -3.3130    0.0000 C    0  0  0  0  0  0  0  0  0  0  0  0
    4.2406   -3.9844    0.0000 O    0  0  0  0  0  0  0  0  0  0  0  0
    1.7625   -1.9834    0.0000 C    0  0  0  0  0  0  0  0  0  0  0  0
    1.0867   -3.1363    0.0000 O    0  0  0  0  0  0  0  0  0  0  0  0
    3.0877   -0.6538    0.0000 C    0  0  0  0  0  0  0  0  0  0  0  0
    4.2406    0.0000    0.0000 O    0  0  0  0  0  0  0  0  0  0  0  0
  2  3  1  0  0  0  0
  3  4  1  0  0  0  0
  3  6  1  0  0  0  0
  3  8  1  0  0  0  0
  4  5  1  0  0  0  0
  6  7  1  0  0  0  0
  8  9  1  0  0  0  0
M  END
> <ID>
10031

> <Formula>
C4H12ClNO3

> <FW>
157.5960 (36.4609+121.1350)

> <DSSTox_CID>
24373

> <DSSTox_RID>
80179

> <DSSTox_GSID>
44373

> <DSSTox_FileID_Sort>
4861

> <TS_ChemName>
Tromethamine hydrochloride

> <TS_ChemName_Synonyms>
2-Amino-2-(hydroxymethyl)propane-1,3-diol hydrochloride (1:1) (1,3-Propanediol, 2-amino-2-(hydroxymethyl)-, hydrochloride)

> <TS_CASRN>
1185-53-1

> <CASRN_ChemName_Relationship>
primary

> <TS_Description>
single chemical compound

> <ChemNote>
parent [77-86-1]

> <STRUCTURE_Shown>
tested chemical

> <STRUCTURE_Formula>
C4H12ClNO3

> <STRUCTURE_MW>
157.596

> <STRUCTURE_ChemType>
defined organic

> <STRUCTURE_DefinedOrganicForm>
complex

> <STRUCTURE_IUPAC>
2-amino-2-(hydroxymethyl)propane-1,3-diol hydrochloride (1:1)

> <STRUCTURE_SMILES>
Cl.OCC(N)(CO)CO

> <STRUCTURE_SMILES_Desalt>
OCC(N)(CO)CO

> <Substance_modify_yyyymmdd>
20091116

$$$$
