118635-52-2
ChemmineR-0915142007XD

 26 28  0  0  0  0  0  0  0  0  1 V2000
    8.2083    0.0000    0.0000 N   0  0  0  0  0  0  0  0  0  0  0  0
    9.2958   -0.6901    0.0000 C   0  0  0  0  0  0  0  0  0  0  0  0
    7.0372   -0.6901    0.0000 C   0  0  0  0  0  0  0  0  0  0  0  0
    7.0372   -2.0286    0.0000 C   0  0  0  0  0  0  0  0  0  0  0  0
    9.2958   -2.0286    0.0000 C   0  0  0  0  0  0  0  0  0  0  0  0
    8.2083   -2.6769    0.0000 C   0  0  0  0  0  0  0  0  0  0  0  0
    5.8765    0.0000    0.0000 O   0  0  0  0  0  0  0  0  0  0  0  0
    4.7159   -0.6901    0.0000 C   0  0  0  0  0  0  0  0  0  0  0  0
    4.7159   -2.0286    0.0000 C   0  0  0  0  0  0  0  0  0  0  0  0
    5.8765   -2.6769    0.0000 C   0  0  0  0  0  0  0  0  0  0  0  0
    3.5552    0.0000    0.0000 C   0  0  0  0  0  0  0  0  0  0  0  0
    2.4154   -0.6901    0.0000 C   0  0  0  0  0  0  0  0  0  0  0  0
    2.4154   -2.0286    0.0000 C   0  0  0  0  0  0  0  0  0  0  0  0
    3.5552   -2.6769    0.0000 C   0  0  0  0  0  0  0  0  0  0  0  0
    1.2548   -3.9839    0.0000 C   0  0  0  0  0  0  0  0  0  0  0  0
    0.1255   -4.6322    0.0000 O   0  0  0  0  0  0  0  0  0  0  0  0
    2.4154   -4.6636    0.0000 O   0  0  0  0  0  0  0  0  0  0  0  0
    1.2861   -2.6769    0.0000 C   0  0  0  0  0  0  0  0  0  0  0  0
    0.1255   -1.9867    0.0000 C   0  0  0  0  0  0  0  0  0  0  0  0
   10.4565   -0.0418    0.0000 C   0  0  0  0  0  0  0  0  0  0  0  0
    2.3736   -6.0020    0.0000 C   0  0  0  0  0  0  0  0  0  0  0  0
    1.2130   -6.6190    0.0000 C   0  0  0  0  0  0  0  0  0  0  0  0
    0.0837   -5.9184    0.0000 O   0  0  0  0  0  0  0  0  0  0  0  0
    1.1607   -7.9574    0.0000 N   0  0  0  0  0  0  0  0  0  0  0  0
    0.0000   -8.5952    0.0000 C   0  0  0  0  0  0  0  0  0  0  0  0
    2.3423   -8.6475    0.0000 C   0  0  0  0  0  0  0  0  0  0  0  0
  1  2  2  0  0  0  0
  1  3  1  0  0  0  0
  2  5  1  0  0  0  0
  2 20  1  0  0  0  0
  3  4  2  0  0  0  0
  3  7  1  0  0  0  0
  4  6  1  0  0  0  0
  4 10  1  0  0  0  0
  5  6  2  0  0  0  0
  7  8  1  0  0  0  0
  8  9  2  0  0  0  0
  8 11  1  0  0  0  0
  9 10  1  0  0  0  0
  9 14  1  0  0  0  0
 11 12  2  0  0  0  0
 12 13  1  0  0  0  0
 13 14  2  0  0  0  0
 13 18  1  0  0  0  0
 15 16  2  0  0  0  0
 15 17  1  0  0  0  0
 15 18  1  0  0  0  0
 17 21  1  0  0  0  0
 18 19  1  0  0  0  0
 21 22  1  0  0  0  0
 22 23  2  0  0  0  0
 22 24  1  0  0  0  0
 24 25  1  0  0  0  0
 24 26  1  0  0  0  0
M  END
> <ID>
13841

> <Formula>
C20H22N2O4

> <FW>
354.3997

> <DSSTox_CID>
28778

> <DSSTox_RID>
83047

> <DSSTox_GSID>
48852

> <DSSTox_FileID_Sort>
7724

> <TS_ChemName>
Mepranoprofen arbamel

> <TS_ChemName_Synonyms>


> <TS_CASRN>
118635-52-2

> <CASRN_ChemName_Relationship>
primary

> <TS_Description>
single chemical compound

> <ChemNote>


> <STRUCTURE_Shown>
tested chemical

> <STRUCTURE_Formula>
C20H22N2O4

> <STRUCTURE_MW>
354.3997

> <STRUCTURE_ChemType>
defined organic

> <STRUCTURE_DefinedOrganicForm>
parent

> <STRUCTURE_IUPAC>
2-(dimethylamino)-2-oxoethyl 2-(2-methyl-5H-chromeno[2,3-b]pyridin-7-yl)propanoate

> <STRUCTURE_SMILES>
CN(C)C(=O)COC(=O)C(C)c1cc2Cc3ccc(C)nc3Oc2cc1

> <STRUCTURE_SMILES_Desalt>
CN(C)C(=O)COC(=O)C(C)c1cc2Cc3ccc(C)nc3Oc2cc1

> <Substance_modify_yyyymmdd>
20111204

$$$$
