118635-68-0
ChemmineR-0915142007XD

 29 30  0  0  1  0  0  0  0  0  1 V2000
    7.9125   -1.9293    0.0000 C    0  0  0  0  0  0  0  0  0  0  0  0
    7.3613   -3.1237    0.0000 C    0  0  0  0  0  0  0  0  0  0  0  0
    5.9602   -2.4576    0.0000 C    0  0  0  0  0  0  0  0  0  0  0  0
    8.1192   -4.2031    0.0000 C    0  0  0  0  0  0  0  0  0  0  0  0
    7.5680   -5.4205    0.0000 C    0  0  0  0  0  0  0  0  0  0  0  0
    8.8886   -5.2941    0.0000 H    0  0  0  0  0  0  0  0  0  0  0  0
    7.5450   -6.7411    0.0000 C    0  0  0  0  0  0  0  0  0  0  0  0
    8.0733   -7.9469    0.0000 H    0  0  0  0  0  0  0  0  0  0  0  0
    6.2932   -7.1201    0.0000 O    0  0  0  0  0  0  0  0  0  0  0  0
    5.5238   -6.0406    0.0000 C    0  0  0  0  0  0  0  0  0  0  0  0
    4.2031   -6.0176    0.0000 O    0  0  0  0  0  0  0  0  0  0  0  0
    6.3277   -4.9841    0.0000 N    0  0  0  0  0  0  0  0  0  0  0  0
    5.9257   -3.7093    0.0000 C    0  0  0  0  0  0  0  0  0  0  0  0
    4.6395   -3.4222    0.0000 C    0  0  0  0  0  0  0  0  0  0  0  0
    4.2491   -2.1705    0.0000 C    0  0  0  0  0  0  0  0  0  0  0  0
    2.9629   -1.8604    0.0000 N    0  0  0  0  0  0  0  0  0  0  0  0
    2.1360   -2.9055    0.0000 C    0  0  0  0  0  0  0  0  0  0  0  0
    0.8154   -2.9055    0.0000 C    0  0  0  0  0  0  0  0  0  0  0  0
    0.0000   -1.8604    0.0000 C    0  0  0  0  0  0  0  0  0  0  0  0
    0.2871   -0.5742    0.0000 C    0  0  0  0  0  0  0  0  0  0  0  0
    1.4814    0.0000    0.0000 C    0  0  0  0  0  0  0  0  0  0  0  0
    2.6758   -0.5742    0.0000 C    0  0  0  0  0  0  0  0  0  0  0  0
    8.8771   -6.9019    0.0000 C    0  0  0  0  0  0  0  0  0  0  0  0
    9.6581   -5.8339    0.0000 C    0  0  0  0  0  0  0  0  0  0  0  0
   10.9787   -5.9947    0.0000 C    0  0  0  0  0  0  0  0  0  0  0  0
   11.4840   -7.2005    0.0000 C    0  0  0  0  0  0  0  0  0  0  0  0
   10.7031   -8.2685    0.0000 C    0  0  0  0  0  0  0  0  0  0  0  0
    9.3824   -8.1077    0.0000 C    0  0  0  0  0  0  0  0  0  0  0  0
    0.7809   -5.5583    0.0000 Cl   0  0  0  0  0  0  0  0  0  0  0  0
  1  2  1  0  0  0  0
  2  3  1  0  0  0  0
  2  4  1  0  0  0  0
  4  5  1  0  0  0  0
  5  6  1  1  0  0  0
  5  7  1  0  0  0  0
  5 12  1  0  0  0  0
  7  8  1  0  0  0  0
  7  9  1  0  0  0  0
  7 23  1  6  0  0  0
  9 10  1  0  0  0  0
 10 11  2  0  0  0  0
 10 12  1  0  0  0  0
 12 13  1  0  0  0  0
 13 14  1  0  0  0  0
 14 15  1  0  0  0  0
 15 16  1  0  0  0  0
 16 17  1  0  0  0  0
 16 22  1  0  0  0  0
 17 18  1  0  0  0  0
 18 19  1  0  0  0  0
 19 20  1  0  0  0  0
 20 21  1  0  0  0  0
 21 22  1  0  0  0  0
 23 24  2  0  0  0  0
 23 28  1  0  0  0  0
 24 25  1  0  0  0  0
 25 26  2  0  0  0  0
 26 27  1  0  0  0  0
 27 28  2  0  0  0  0
M  END
> <ID>
16031

> <Formula>
C22H35ClN2O2

> <FW>
394.9785 (358.5176+36.4609)

> <DSSTox_CID>
31415

> <DSSTox_RID>
97301

> <DSSTox_GSID>
57626

> <DSSTox_FileID_Sort>
8368

> <TS_ChemName>
Ipenoxazone hydrochloride

> <TS_ChemName_Synonyms>


> <TS_CASRN>
118635-68-0

> <CASRN_ChemName_Relationship>
primary

> <TS_Description>
single chemical compound

> <ChemNote>


> <STRUCTURE_Shown>
tested chemical

> <STRUCTURE_Formula>
C22H35ClN2O2

> <STRUCTURE_MW>
394.9785

> <STRUCTURE_ChemType>
defined organic

> <STRUCTURE_DefinedOrganicForm>
complex

> <STRUCTURE_IUPAC>
(4R,5S)-3-[3-(azepan-1-yl)propyl]-4-isobutyl-5-phenyl-1,3-oxazolidin-2-one hydrochloride (1:1)

> <STRUCTURE_SMILES>
Cl.CC(C)C[C@H]3N(CCCN1CCCCCC1)C(=O)O[C@H]3c2ccccc2

> <STRUCTURE_SMILES_Desalt>
CC(C)C[C@H]3N(CCCN1CCCCCC1)C(=O)O[C@H]3c2ccccc2

> <Substance_modify_yyyymmdd>
20131018

$$$$
