118712-89-3
ChemmineR-0915142007XD

 23 24  0  0  1  0  0  0  0  0  1 V2000
    8.0391   -3.2389    0.0000 C    0  0  0  0  0  0  0  0  0  0  0  0
    8.6972   -2.0775    0.0000 C    0  0  0  0  0  0  0  0  0  0  0  0
    9.3682   -3.2389    0.0000 C    0  0  0  0  0  0  0  0  0  0  0  0
    6.8519   -3.9357    0.0000 C    0  0  0  0  0  0  0  0  0  0  0  0
    6.8519   -5.2519    0.0000 O    0  0  0  0  0  0  0  0  0  0  0  0
    5.7164   -3.2776    0.0000 O    0  0  0  0  0  0  0  0  0  0  0  0
   10.5683   -4.0647    0.0000 C    0  0  0  0  0  0  0  0  0  0  0  0
   11.7425   -3.3937    0.0000 C    0  0  0  0  0  0  0  0  0  0  0  0
   12.9038   -4.0647    0.0000 Cl   0  0  0  0  0  0  0  0  0  0  0  0
   11.7425   -2.0517    0.0000 Cl   0  0  0  0  0  0  0  0  0  0  0  0
    9.3811   -0.9420    0.0000 C    0  0  0  0  0  0  0  0  0  0  0  0
    8.0520   -0.9420    0.0000 C    0  0  0  0  0  0  0  0  0  0  0  0
    4.5680   -3.9357    0.0000 C    0  0  0  0  0  0  0  0  0  0  0  0
    3.4453   -3.2776    0.0000 C    0  0  0  0  0  0  0  0  0  0  0  0
    2.2840   -3.9486    0.0000 C    0  0  0  0  0  0  0  0  0  0  0  0
    3.4453   -1.9872    0.0000 C    0  0  0  0  0  0  0  0  0  0  0  0
    1.1613   -3.3034    0.0000 C    0  0  0  0  0  0  0  0  0  0  0  0
    2.2840   -1.3162    0.0000 C    0  0  0  0  0  0  0  0  0  0  0  0
    1.1613   -1.9872    0.0000 C    0  0  0  0  0  0  0  0  0  0  0  0
    2.2840   -5.2648    0.0000 F    0  0  0  0  0  0  0  0  0  0  0  0
    0.0000   -3.9486    0.0000 F    0  0  0  0  0  0  0  0  0  0  0  0
    2.2840    0.0000    0.0000 F    0  0  0  0  0  0  0  0  0  0  0  0
    4.5680   -1.3162    0.0000 F    0  0  0  0  0  0  0  0  0  0  0  0
  1  2  1  0  0  0  0
  1  3  1  0  0  0  0
  1  4  1  1  0  0  0
  2  3  1  0  0  0  0
  2 11  1  0  0  0  0
  2 12  1  0  0  0  0
  3  7  1  6  0  0  0
  4  5  2  0  0  0  0
  4  6  1  0  0  0  0
  6 13  1  0  0  0  0
  7  8  2  0  0  0  0
  8  9  1  0  0  0  0
  8 10  1  0  0  0  0
 13 14  1  0  0  0  0
 14 15  2  0  0  0  0
 14 16  1  0  0  0  0
 15 17  1  0  0  0  0
 15 20  1  0  0  0  0
 16 18  2  0  0  0  0
 16 23  1  0  0  0  0
 17 19  2  0  0  0  0
 17 21  1  0  0  0  0
 18 19  1  0  0  0  0
 18 22  1  0  0  0  0
M  END
> <ID>
11988

> <Formula>
C15H12Cl2F4O2

> <FW>
371.1542

> <DSSTox_CID>
26812

> <DSSTox_RID>
81924

> <DSSTox_GSID>
46812

> <DSSTox_FileID_Sort>
6605

> <TS_ChemName>
Transfluthrin

> <TS_ChemName_Synonyms>


> <TS_CASRN>
118712-89-3

> <CASRN_ChemName_Relationship>
primary

> <TS_Description>
single chemical compound

> <ChemNote>
stereochem

> <STRUCTURE_Shown>
tested chemical

> <STRUCTURE_Formula>
C15H12Cl2F4O2

> <STRUCTURE_MW>
371.1542

> <STRUCTURE_ChemType>
defined organic

> <STRUCTURE_DefinedOrganicForm>
parent

> <STRUCTURE_IUPAC>
2,3,5,6-tetrafluorobenzyl (1R,3S)-3-(2,2-dichloroethenyl)-2,2-dimethylcyclopropanecarboxylate

> <STRUCTURE_SMILES>
Cl/C(Cl)=C/[C@@H]2[C@@H](C(=O)OCc1c(F)c(F)cc(F)c1F)C2(C)C

> <STRUCTURE_SMILES_Desalt>
Cl/C(Cl)=C/[C@@H]2[C@@H](C(=O)OCc1c(F)c(F)cc(F)c1F)C2(C)C

> <Substance_modify_yyyymmdd>
20110801

$$$$
