1188-38-1
ChemmineR-0915142007XD

 13 12  0  0  1  0  0  0  0  0  1 V2000
    5.8019   -1.2955    0.0000 C   0  0  0  0  0  0  0  0  0  0  0  0
    1.1632   -1.3652    0.0000 C   0  0  0  0  0  0  0  0  0  0  0  0
    5.8019    0.0000    0.0000 O   0  0  0  0  0  0  0  0  0  0  0  0
    4.6318   -1.9920    0.0000 C   0  0  0  0  0  0  0  0  0  0  0  0
    0.0000   -2.0268    0.0000 O   0  0  0  0  0  0  0  0  0  0  0  0
    3.4826   -1.3303    0.0000 C   0  0  0  0  0  0  0  0  0  0  0  0
    2.3194   -1.9920    0.0000 C   0  0  0  0  0  0  0  0  0  0  0  0
    6.9651   -1.9642    0.0000 O   0  0  0  0  0  0  0  0  0  0  0  0
    4.6318   -3.3224    0.0000 N   0  0  0  0  0  0  0  0  0  0  0  0
    1.1632   -0.0348    0.0000 O   0  0  0  0  0  0  0  0  0  0  0  0
    5.8019   -3.9840    0.0000 C   0  0  0  0  0  0  0  0  0  0  0  0
    5.8019   -5.3144    0.0000 O   0  0  0  0  0  0  0  0  0  0  0  0
    6.9303   -3.3224    0.0000 N   0  0  0  0  0  0  0  0  0  0  0  0
  1  3  2  0  0  0  0
  1  4  1  0  0  0  0
  1  8  1  0  0  0  0
  2  7  1  0  0  0  0
  2  5  2  0  0  0  0
  2 10  1  0  0  0  0
  4  6  1  0  0  0  0
  4  9  1  1  0  0  0
  6  7  1  0  0  0  0
  9 11  1  0  0  0  0
 11 12  2  0  0  0  0
 11 13  1  0  0  0  0
M  END
> <ID>
11903

> <Formula>
C6H10N2O5

> <FW>
190.154

> <DSSTox_CID>
26706

> <DSSTox_RID>
81839

> <DSSTox_GSID>
46706

> <DSSTox_FileID_Sort>
6520

> <TS_ChemName>
N-Carbamyl-L-glutamic acid

> <TS_ChemName_Synonyms>


> <TS_CASRN>
1188-38-1

> <CASRN_ChemName_Relationship>
primary

> <TS_Description>
single chemical compound

> <ChemNote>
stereochem

> <STRUCTURE_Shown>
tested chemical

> <STRUCTURE_Formula>
C6H10N2O5

> <STRUCTURE_MW>
190.154

> <STRUCTURE_ChemType>
defined organic

> <STRUCTURE_DefinedOrganicForm>
parent

> <STRUCTURE_IUPAC>
N-carbamoyl-L-glutamic acid

> <STRUCTURE_SMILES>
O=C(N)N[C@@H](CCC(=O)O)C(=O)O

> <STRUCTURE_SMILES_Desalt>
O=C(N)N[C@@H](CCC(=O)O)C(=O)O

> <Substance_modify_yyyymmdd>
20110805

$$$$
