1188-21-2
ChemmineR-0915142007XD

 12 11  0  0  1  0  0  0  0  0  1 V2000
    1.1545   -0.6706    0.0000 C   0  0  0  0  0  0  0  0  0  0  0  0
    1.1545   -2.0048    0.0000 C   0  0  0  0  0  0  0  0  0  0  0  0
    0.0000   -2.6615    0.0000 C   0  0  0  0  0  0  0  0  0  0  0  0
    2.3089   -2.6615    0.0000 C   0  0  0  0  0  0  0  0  0  0  0  0
    3.4634   -2.0048    0.0000 C   0  0  0  0  0  0  0  0  0  0  0  0
    4.6179   -2.6615    0.0000 N   0  0  0  0  0  0  0  0  0  0  0  0
    5.7585   -2.0048    0.0000 C   0  0  0  0  0  0  0  0  0  0  0  0
    6.9130   -2.6615    0.0000 C   0  0  0  0  0  0  0  0  0  0  0  0
    5.7585   -0.6706    0.0000 O   0  0  0  0  0  0  0  0  0  0  0  0
    3.4634   -0.6706    0.0000 C   0  0  0  0  0  0  0  0  0  0  0  0
    4.6179    0.0000    0.0000 O   0  0  0  0  0  0  0  0  0  0  0  0
    2.3089    0.0000    0.0000 O   0  0  0  0  0  0  0  0  0  0  0  0
  1  2  1  0  0  0  0
  2  3  1  0  0  0  0
  2  4  1  0  0  0  0
  4  5  1  0  0  0  0
  5  6  1  1  0  0  0
  5 10  1  0  0  0  0
  6  7  1  0  0  0  0
  7  8  1  0  0  0  0
  7  9  2  0  0  0  0
 10 11  1  0  0  0  0
 10 12  2  0  0  0  0
M  END
> <ID>
11256

> <Formula>
C8H15NO3

> <FW>
173.2096

> <DSSTox_CID>
25870

> <DSSTox_RID>
81188

> <DSSTox_GSID>
45870

> <DSSTox_FileID_Sort>
5869

> <TS_ChemName>
Acetyl-L-leucine

> <TS_ChemName_Synonyms>


> <TS_CASRN>
1188-21-2

> <CASRN_ChemName_Relationship>
primary

> <TS_Description>
single chemical compound

> <ChemNote>
stereochem

> <STRUCTURE_Shown>
tested chemical

> <STRUCTURE_Formula>
C8H15NO3

> <STRUCTURE_MW>
173.2096

> <STRUCTURE_ChemType>
defined organic

> <STRUCTURE_DefinedOrganicForm>
parent

> <STRUCTURE_IUPAC>
N-acetyl-L-leucine

> <STRUCTURE_SMILES>
O=C(C)N[C@@H](CC(C)C)C(=O)O

> <STRUCTURE_SMILES_Desalt>
O=C(C)N[C@@H](CC(C)C)C(=O)O

> <Substance_modify_yyyymmdd>
20110922

$$$$
