1189-08-8
ChemmineR-0915142007XD

 16 15  0  0  0  0  0  0  0  0  1 V2000
    2.3232   -3.3172    0.0000 O   0  0  0  0  0  0  0  0  0  0  0  0
    2.3232   -1.9880    0.0000 C   0  0  0  0  0  0  0  0  0  0  0  0
    3.4790   -1.3292    0.0000 O   0  0  0  0  0  0  0  0  0  0  0  0
    4.6348   -1.9880    0.0000 C   0  0  0  0  0  0  0  0  0  0  0  0
    5.7675   -1.3292    0.0000 C   0  0  0  0  0  0  0  0  0  0  0  0
    6.9234   -1.9880    0.0000 C   0  0  0  0  0  0  0  0  0  0  0  0
    8.0792   -1.3292    0.0000 O   0  0  0  0  0  0  0  0  0  0  0  0
    9.2350   -1.9880    0.0000 C   0  0  0  0  0  0  0  0  0  0  0  0
    9.2350   -3.3172    0.0000 O   0  0  0  0  0  0  0  0  0  0  0  0
   10.3908   -1.3292    0.0000 C   0  0  0  0  0  0  0  0  0  0  0  0
   10.3908    0.0000    0.0000 C   0  0  0  0  0  0  0  0  0  0  0  0
   11.5582   -1.9880    0.0000 C   0  0  0  0  0  0  0  0  0  0  0  0
    6.9234   -3.3172    0.0000 C   0  0  0  0  0  0  0  0  0  0  0  0
    1.1558   -1.3292    0.0000 C   0  0  0  0  0  0  0  0  0  0  0  0
    1.1558    0.0000    0.0000 C   0  0  0  0  0  0  0  0  0  0  0  0
    0.0000   -1.9880    0.0000 C   0  0  0  0  0  0  0  0  0  0  0  0
  1  2  2  0  0  0  0
  2  3  1  0  0  0  0
  2 14  1  0  0  0  0
  3  4  1  0  0  0  0
  4  5  1  0  0  0  0
  5  6  1  0  0  0  0
  6  7  1  0  0  0  0
  6 13  1  0  0  0  0
  7  8  1  0  0  0  0
  8  9  2  0  0  0  0
  8 10  1  0  0  0  0
 10 11  2  0  0  0  0
 10 12  1  0  0  0  0
 14 15  2  0  0  0  0
 14 16  1  0  0  0  0
M  END
> <ID>
10434

> <Formula>
C12H18O4

> <FW>
226.2689

> <DSSTox_CID>
24784

> <DSSTox_RID>
80473

> <DSSTox_GSID>
44784

> <DSSTox_FileID_Sort>
5155

> <TS_ChemName>
Butane-1,3-diyl bis(2-methylprop-2-enoate)

> <TS_ChemName_Synonyms>
Butane-1,3-diyl bis(2-methylprop-2-enoate) (2-Propenoic acid, 2-methyl-, 1-methyl-1,3-propanediyl ester)

> <TS_CASRN>
1189-08-8

> <CASRN_ChemName_Relationship>
primary

> <TS_Description>
single chemical compound

> <ChemNote>


> <STRUCTURE_Shown>
tested chemical

> <STRUCTURE_Formula>
C12H18O4

> <STRUCTURE_MW>
226.2689

> <STRUCTURE_ChemType>
defined organic

> <STRUCTURE_DefinedOrganicForm>
parent

> <STRUCTURE_IUPAC>
butane-1,3-diyl bis(2-methylprop-2-enoate)

> <STRUCTURE_SMILES>
O=C(OC(C)CCOC(=O)C(=C)C)C(=C)C

> <STRUCTURE_SMILES_Desalt>
O=C(OC(C)CCOC(=O)C(=C)C)C(=C)C

> <Substance_modify_yyyymmdd>
20091116

$$$$
