118909-22-1
ChemmineR-0915142007XD

 24 25  0  0  0  0  0  0  0  0  1 V2000
    3.4459   -3.9973    0.0000 N   0  0  0  0  0  0  0  0  0  0  0  0
    3.4459   -2.6496    0.0000 C   0  0  0  0  0  0  0  0  0  0  0  0
    2.2973   -2.0063    0.0000 C   0  0  0  0  0  0  0  0  0  0  0  0
    1.1486   -2.6496    0.0000 C   0  0  0  0  0  0  0  0  0  0  0  0
    0.0000   -2.0063    0.0000 C   0  0  0  0  0  0  0  0  0  0  0  0
    0.0000   -0.6739    0.0000 C   0  0  0  0  0  0  0  0  0  0  0  0
    1.1486    0.0000    0.0000 C   0  0  0  0  0  0  0  0  0  0  0  0
    2.2973   -0.6739    0.0000 C   0  0  0  0  0  0  0  0  0  0  0  0
    3.4459    0.0000    0.0000 N   0  0  0  0  0  0  0  0  0  0  0  0
    4.5946   -0.6739    0.0000 C   0  0  0  0  0  0  0  0  0  0  0  0
    4.5946   -2.0063    0.0000 C   0  0  0  0  0  0  0  0  0  0  0  0
    5.7432   -2.6496    0.0000 C   0  0  0  0  0  0  0  0  0  0  0  0
    5.7432   -3.9973    0.0000 O   0  0  0  0  0  0  0  0  0  0  0  0
    6.8919   -2.0063    0.0000 C   0  0  0  0  0  0  0  0  0  0  0  0
    6.8919   -0.6739    0.0000 C   0  0  0  0  0  0  0  0  0  0  0  0
    5.7432    0.0000    0.0000 C   0  0  0  0  0  0  0  0  0  0  0  0
   13.9829   -1.5468    0.0000 C   0  0  0  0  0  0  0  0  0  0  0  0
   11.3180   -1.5468    0.0000 C   0  0  0  0  0  0  0  0  0  0  0  0
   11.9766   -0.3982    0.0000 C   0  0  0  0  0  0  0  0  0  0  0  0
   13.3243   -0.3982    0.0000 C   0  0  0  0  0  0  0  0  0  0  0  0
   13.3243   -2.7108    0.0000 O   0  0  0  0  0  0  0  0  0  0  0  0
   11.9766   -2.7108    0.0000 O   0  0  0  0  0  0  0  0  0  0  0  0
   15.3153   -1.5468    0.0000 O   0  0  0  0  0  0  0  0  0  0  0  0
    9.9856   -1.5468    0.0000 O   0  0  0  0  0  0  0  0  0  0  0  0
  1  2  1  0  0  0  0
  2  3  2  0  0  0  0
  2 11  1  0  0  0  0
  3  4  1  0  0  0  0
  3  8  1  0  0  0  0
  4  5  2  0  0  0  0
  5  6  1  0  0  0  0
  6  7  2  0  0  0  0
  7  8  1  0  0  0  0
  8  9  2  0  0  0  0
  9 10  1  0  0  0  0
 10 11  2  0  0  0  0
 10 16  1  0  0  0  0
 11 12  1  0  0  0  0
 12 13  1  0  0  0  0
 12 14  1  0  0  0  0
 14 15  1  0  0  0  0
 15 16  1  0  0  0  0
 17 20  1  0  0  0  0
 17 21  2  0  0  0  0
 17 23  1  0  0  0  0
 18 19  1  0  0  0  0
 18 22  2  0  0  0  0
 18 24  1  0  0  0  0
 19 20  2  0  0  0  0
M  END
> <ID>
10778

> <Formula>
C17H18N2O5

> <FW>
330.3352 (214.2631+116.0722)

> <DSSTox_CID>
25158

> <DSSTox_RID>
80709

> <DSSTox_GSID>
45158

> <DSSTox_FileID_Sort>
5390

> <TS_ChemName>
Hydroxytacrine maleate

> <TS_ChemName_Synonyms>


> <TS_CASRN>
118909-22-1

> <CASRN_ChemName_Relationship>
primary

> <TS_Description>
single chemical compound

> <ChemNote>
parent [104675-29-8]

> <STRUCTURE_Shown>
tested chemical

> <STRUCTURE_Formula>
C17H18N2O5

> <STRUCTURE_MW>
330.3352

> <STRUCTURE_ChemType>
defined organic

> <STRUCTURE_DefinedOrganicForm>
complex

> <STRUCTURE_IUPAC>
9-amino-1,2,3,4-tetrahydroacridin-1-ol (2Z)-but-2-enedioate (1:1)

> <STRUCTURE_SMILES>
O=C(O)/C=C\C(=O)O.Nc1c3ccccc3nc2CCCC(O)c12

> <STRUCTURE_SMILES_Desalt>
Nc1c3ccccc3nc2CCCC(O)c12

> <Substance_modify_yyyymmdd>
20100107

$$$$
