119-17-5
ChemmineR-0915142007XD

 17 18  0  0  0  0  0  0  0  0  1 V2000
    6.4325   -2.2668    0.0000 C   0  0  0  0  0  0  0  0  0  0  0  0
    7.1518   -3.4128    0.0000 C   0  0  0  0  0  0  0  0  0  0  0  0
    6.4325   -4.5671    0.0000 C   0  0  0  0  0  0  0  0  0  0  0  0
    5.1527   -4.5671    0.0000 C   0  0  0  0  0  0  0  0  0  0  0  0
    4.4417   -3.4128    0.0000 C   0  0  0  0  0  0  0  0  0  0  0  0
    5.1527   -2.2668    0.0000 C   0  0  0  0  0  0  0  0  0  0  0  0
    7.0849   -1.1209    0.0000 S   0  0  0  0  0  0  0  0  0  0  0  0
    8.3647   -1.8319    0.0000 O   0  0  0  0  0  0  0  0  0  0  0  0
    7.7290    0.0000    0.0000 O   0  0  0  0  0  0  0  0  0  0  0  0
    5.9724   -0.4768    0.0000 O   0  0  0  0  0  0  0  0  0  0  0  0
    2.3505   -2.3589    0.0000 N   0  0  0  0  0  0  0  0  0  0  0  0
    3.1117   -3.4128    0.0000 N   0  0  0  0  0  0  0  0  0  0  0  0
    1.0707   -4.0904    0.0000 C   0  0  0  0  0  0  0  0  0  0  0  0
    2.3505   -4.5170    0.0000 C   0  0  0  0  0  0  0  0  0  0  0  0
    1.0707   -2.7604    0.0000 C   0  0  0  0  0  0  0  0  0  0  0  0
    0.0000   -2.0075    0.0000 C   0  0  0  0  0  0  0  0  0  0  0  0
    2.7771   -5.7466    0.0000 O   0  0  0  0  0  0  0  0  0  0  0  0
  1  2  2  0  0  0  0
  1  6  1  0  0  0  0
  1  7  1  0  0  0  0
  2  3  1  0  0  0  0
  3  4  2  0  0  0  0
  4  5  1  0  0  0  0
  5  6  2  0  0  0  0
  5 12  1  0  0  0  0
  7  8  2  0  0  0  0
  7  9  1  0  0  0  0
  7 10  2  0  0  0  0
 11 12  1  0  0  0  0
 11 15  2  0  0  0  0
 12 14  1  0  0  0  0
 13 14  1  0  0  0  0
 13 15  1  0  0  0  0
 14 17  2  0  0  0  0
 15 16  1  0  0  0  0
M  END
> <ID>
10435

> <Formula>
C10H10N2O4S

> <FW>
254.2624

> <DSSTox_CID>
24785

> <DSSTox_RID>
80474

> <DSSTox_GSID>
44785

> <DSSTox_FileID_Sort>
5156

> <TS_ChemName>
3-(3-Methyl-5-oxo-4,5-dihydro-1H-pyrazol-1-yl)benzenesulfonic acid

> <TS_ChemName_Synonyms>
3-(3-Methyl-5-oxo-4,5-dihydro-1H-pyrazol-1-yl)benzenesulfonic acid (Benzenesulfonic acid, 3-(4,5-dihydro-3-methyl-5-oxo-1H-pyrazol-1-yl)-)

> <TS_CASRN>
119-17-5

> <CASRN_ChemName_Relationship>
primary

> <TS_Description>
single chemical compound

> <ChemNote>
tautomers

> <STRUCTURE_Shown>
tested chemical

> <STRUCTURE_Formula>
C10H10N2O4S

> <STRUCTURE_MW>
254.2624

> <STRUCTURE_ChemType>
defined organic

> <STRUCTURE_DefinedOrganicForm>
parent

> <STRUCTURE_IUPAC>
3-(3-methyl-5-oxo-4,5-dihydro-1H-pyrazol-1-yl)benzenesulfonic acid

> <STRUCTURE_SMILES>
O=S(=O)(O)c1cccc(c1)N2N=C(C)CC2=O

> <STRUCTURE_SMILES_Desalt>
O=S(=O)(O)c1cccc(c1)N2N=C(C)CC2=O

> <Substance_modify_yyyymmdd>
20091116

$$$$
