119-33-5
ChemmineR-0915142007XD

 11 11  0  0  0  0  0  0  0  0  2 V2000
    1.1540   -1.3294    0.0000 C   0  0  0  0  0  0  0  0  0  0  0  0
    1.1540    0.0000    0.0000 O   0  0  0  0  0  0  0  0  0  0  0  0
    2.3079   -2.0048    0.0000 C   0  0  0  0  0  0  0  0  0  0  0  0
    0.0000   -2.0048    0.0000 C   0  0  0  0  0  0  0  0  0  0  0  0
    0.0000   -3.3342    0.0000 C   0  0  0  0  0  0  0  0  0  0  0  0
    2.3079   -3.3342    0.0000 C   0  0  0  0  0  0  0  0  0  0  0  0
    1.1540   -3.9883    0.0000 C   0  0  0  0  0  0  0  0  0  0  0  0
    1.1540   -5.3178    0.0000 C   0  0  0  0  0  0  0  0  0  0  0  0
    3.4459   -1.3294    0.0000 N   0  3  0  0  0  0  0  0  0  0  0  0
    3.4459    0.0000    0.0000 O   0  5  0  0  0  0  0  0  0  0  0  0
    4.5946   -2.0048    0.0000 O   0  0  0  0  0  0  0  0  0  0  0  0
  1  2  1  0  0  0  0
  1  3  2  0  0  0  0
  1  4  1  0  0  0  0
  3  6  1  0  0  0  0
  3  9  1  0  0  0  0
  4  5  2  0  0  0  0
  5  7  1  0  0  0  0
  6  7  2  0  0  0  0
  7  8  1  0  0  0  0
  9 10  1  0  0  0  0
  9 11  2  0  0  0  0
M  END
> <ID>
4870

> <Formula>
C7H7NO3

> <FW>
153.1354

> <DSSTox_CID>
6961

> <DSSTox_RID>
78268

> <DSSTox_GSID>
26961

> <DSSTox_FileID_Sort>
2951

> <TS_ChemName>
4-Methyl-2-nitrophenol

> <TS_ChemName_Synonyms>
Phenol, 4-methyl-2-nitro-

> <TS_CASRN>
119-33-5

> <CASRN_ChemName_Relationship>
primary

> <TS_Description>
single chemical compound

> <ChemNote>


> <STRUCTURE_Shown>
tested chemical

> <STRUCTURE_Formula>
C7H7NO3

> <STRUCTURE_MW>
153.1354

> <STRUCTURE_ChemType>
defined organic

> <STRUCTURE_DefinedOrganicForm>
parent

> <STRUCTURE_IUPAC>
4-methyl-2-nitrophenol

> <STRUCTURE_SMILES>
O=[N+]([O-])c1cc(C)ccc1O

> <STRUCTURE_SMILES_Desalt>
O=[N+]([O-])c1cc(C)ccc1O

> <Substance_modify_yyyymmdd>
20080429

$$$$
