119-07-3
ChemmineR-0915142007XD

 30 30  0  0  0  0  0  0  0  0  1 V2000
    2.3069   -1.9842    0.0000 C   0  0  0  0  0  0  0  0  0  0  0  0
    2.3069   -3.3232    0.0000 C   0  0  0  0  0  0  0  0  0  0  0  0
    3.4523   -1.3390    0.0000 C   0  0  0  0  0  0  0  0  0  0  0  0
    3.4523   -4.0007    0.0000 C   0  0  0  0  0  0  0  0  0  0  0  0
    3.4523    0.0000    0.0000 O   0  0  0  0  0  0  0  0  0  0  0  0
    3.4523   -5.3236    0.0000 O   0  0  0  0  0  0  0  0  0  0  0  0
    4.6138   -1.9842    0.0000 O   0  0  0  0  0  0  0  0  0  0  0  0
    4.6138   -3.3232    0.0000 O   0  0  0  0  0  0  0  0  0  0  0  0
    1.1454   -1.3390    0.0000 C   0  0  0  0  0  0  0  0  0  0  0  0
    1.1454   -4.0007    0.0000 C   0  0  0  0  0  0  0  0  0  0  0  0
    0.0000   -1.9842    0.0000 C   0  0  0  0  0  0  0  0  0  0  0  0
    0.0000   -3.3232    0.0000 C   0  0  0  0  0  0  0  0  0  0  0  0
    5.7591   -1.3390    0.0000 C   0  0  0  0  0  0  0  0  0  0  0  0
    6.9206   -1.9842    0.0000 C   0  0  0  0  0  0  0  0  0  0  0  0
    8.0660   -1.3390    0.0000 C   0  0  0  0  0  0  0  0  0  0  0  0
    9.2114   -1.9842    0.0000 C   0  0  0  0  0  0  0  0  0  0  0  0
   10.3729   -1.3390    0.0000 C   0  0  0  0  0  0  0  0  0  0  0  0
   11.5183   -1.9842    0.0000 C   0  0  0  0  0  0  0  0  0  0  0  0
   12.6637   -1.3390    0.0000 C   0  0  0  0  0  0  0  0  0  0  0  0
   13.8252   -1.9842    0.0000 C   0  0  0  0  0  0  0  0  0  0  0  0
    5.7591   -4.0007    0.0000 C   0  0  0  0  0  0  0  0  0  0  0  0
    6.9206   -3.3232    0.0000 C   0  0  0  0  0  0  0  0  0  0  0  0
    8.0660   -4.0007    0.0000 C   0  0  0  0  0  0  0  0  0  0  0  0
    9.2114   -3.3232    0.0000 C   0  0  0  0  0  0  0  0  0  0  0  0
   10.3729   -4.0007    0.0000 C   0  0  0  0  0  0  0  0  0  0  0  0
   11.5183   -3.3232    0.0000 C   0  0  0  0  0  0  0  0  0  0  0  0
   12.6637   -4.0007    0.0000 C   0  0  0  0  0  0  0  0  0  0  0  0
   13.8252   -3.3232    0.0000 C   0  0  0  0  0  0  0  0  0  0  0  0
   14.9705   -4.0007    0.0000 C   0  0  0  0  0  0  0  0  0  0  0  0
   16.1320   -3.3232    0.0000 C   0  0  0  0  0  0  0  0  0  0  0  0
  1  2  2  0  0  0  0
  1  3  1  0  0  0  0
  1  9  1  0  0  0  0
  2  4  1  0  0  0  0
  2 10  1  0  0  0  0
  3  5  2  0  0  0  0
  3  7  1  0  0  0  0
  4  6  2  0  0  0  0
  4  8  1  0  0  0  0
  7 13  1  0  0  0  0
  8 21  1  0  0  0  0
  9 11  2  0  0  0  0
 10 12  2  0  0  0  0
 11 12  1  0  0  0  0
 13 14  1  0  0  0  0
 14 15  1  0  0  0  0
 15 16  1  0  0  0  0
 16 17  1  0  0  0  0
 17 18  1  0  0  0  0
 18 19  1  0  0  0  0
 19 20  1  0  0  0  0
 21 22  1  0  0  0  0
 22 23  1  0  0  0  0
 23 24  1  0  0  0  0
 24 25  1  0  0  0  0
 25 26  1  0  0  0  0
 26 27  1  0  0  0  0
 27 28  1  0  0  0  0
 28 29  1  0  0  0  0
 29 30  1  0  0  0  0
M  END
> <ID>
12626

> <Formula>
C26H42O4

> <FW>
418.6093

> <DSSTox_CID>
27497

> <DSSTox_RID>
82381

> <DSSTox_GSID>
47497

> <DSSTox_FileID_Sort>
7062

> <TS_ChemName>
Octyl decyl phthalate

> <TS_ChemName_Synonyms>


> <TS_CASRN>
119-07-3

> <CASRN_ChemName_Relationship>
primary

> <TS_Description>
single chemical compound

> <ChemNote>


> <STRUCTURE_Shown>
tested chemical

> <STRUCTURE_Formula>
C26H42O4

> <STRUCTURE_MW>
418.6093

> <STRUCTURE_ChemType>
defined organic

> <STRUCTURE_DefinedOrganicForm>
parent

> <STRUCTURE_IUPAC>
decyl octyl benzene-1,2-dicarboxylate

> <STRUCTURE_SMILES>
O=C(OCCCCCCCC)c1ccccc1C(=O)OCCCCCCCCCC

> <STRUCTURE_SMILES_Desalt>
O=C(OCCCCCCCC)c1ccccc1C(=O)OCCCCCCCCCC

> <Substance_modify_yyyymmdd>
20100704

$$$$
