119-13-1
ChemmineR-0915142007XD

 29 30  0  0  1  0  0  0  0  0  1 V2000
    3.5317   -1.9736    0.0000 C   0  0  0  0  0  0  0  0  0  0  0  0
    4.6327   -1.3503    0.0000 O   0  0  0  0  0  0  0  0  0  0  0  0
    3.5317   -3.3447    0.0000 C   0  0  0  0  0  0  0  0  0  0  0  0
    2.3683   -1.3503    0.0000 C   0  0  0  0  0  0  0  0  0  0  0  0
    5.8376   -1.9528    0.0000 C   0  0  0  0  0  0  0  0  0  0  0  0
    2.3683   -3.9679    0.0000 C   0  0  0  0  0  0  0  0  0  0  0  0
    1.1841   -1.9528    0.0000 C   0  0  0  0  0  0  0  0  0  0  0  0
    1.1841   -3.3447    0.0000 C   0  0  0  0  0  0  0  0  0  0  0  0
    4.6327   -3.9679    0.0000 C   0  0  0  0  0  0  0  0  0  0  0  0
    5.8376   -3.3447    0.0000 C   0  0  0  0  0  0  0  0  0  0  0  0
    0.0000   -4.0510    0.0000 O   0  0  0  0  0  0  0  0  0  0  0  0
    2.3683    0.0000    0.0000 C   0  0  0  0  0  0  0  0  0  0  0  0
    7.0010   -1.2672    0.0000 C   0  0  0  0  0  0  0  0  0  0  0  0
    8.1436   -1.8905    0.0000 C   0  0  0  0  0  0  0  0  0  0  0  0
   12.7140   -1.8697    0.0000 C   0  0  0  0  0  0  0  0  0  0  0  0
   17.3675   -1.8282    0.0000 C   0  0  0  0  0  0  0  0  0  0  0  0
    7.0010   -2.6176    0.0000 C   0  0  0  0  0  0  0  0  0  0  0  0
   18.4477   -1.1841    0.0000 C   0  0  0  0  0  0  0  0  0  0  0  0
   16.1833   -1.1841    0.0000 C   0  0  0  0  0  0  0  0  0  0  0  0
   11.5506   -1.2257    0.0000 C   0  0  0  0  0  0  0  0  0  0  0  0
    9.2654   -1.2672    0.0000 C   0  0  0  0  0  0  0  0  0  0  0  0
   13.8358   -1.2049    0.0000 C   0  0  0  0  0  0  0  0  0  0  0  0
   10.4496   -1.8697    0.0000 C   0  0  0  0  0  0  0  0  0  0  0  0
   15.0407   -1.8697    0.0000 C   0  0  0  0  0  0  0  0  0  0  0  0
   19.6319   -1.8282    0.0000 C   0  0  0  0  0  0  0  0  0  0  0  0
   20.7745   -1.1426    0.0000 C   0  0  0  0  0  0  0  0  0  0  0  0
   19.6319   -3.1369    0.0000 C   0  0  0  0  0  0  0  0  0  0  0  0
   15.0407   -3.1993    0.0000 C   0  0  0  0  0  0  0  0  0  0  0  0
   10.4496   -3.1993    0.0000 C   0  0  0  0  0  0  0  0  0  0  0  0
  1  2  1  0  0  0  0
  1  3  2  0  0  0  0
  1  4  1  0  0  0  0
  2  5  1  0  0  0  0
  3  6  1  0  0  0  0
  3  9  1  0  0  0  0
  4  7  2  0  0  0  0
  4 12  1  0  0  0  0
  5 13  1  0  0  0  0
  5 17  1  1  0  0  0
  5 10  1  0  0  0  0
  6  8  2  0  0  0  0
  7  8  1  0  0  0  0
  8 11  1  0  0  0  0
  9 10  1  0  0  0  0
 13 14  1  0  0  0  0
 14 21  1  0  0  0  0
 15 20  1  0  0  0  0
 15 22  1  0  0  0  0
 16 19  1  0  0  0  0
 16 18  1  0  0  0  0
 18 25  1  0  0  0  0
 19 24  1  0  0  0  0
 20 23  1  0  0  0  0
 21 23  1  0  0  0  0
 22 24  1  0  0  0  0
 23 29  1  1  0  0  0
 24 28  1  1  0  0  0
 25 26  1  0  0  0  0
 25 27  1  0  0  0  0
M  END
> <ID>
11557

> <Formula>
C27H46O2

> <FW>
402.6529

> <DSSTox_CID>
26263

> <DSSTox_RID>
81490

> <DSSTox_GSID>
46263

> <DSSTox_FileID_Sort>
6171

> <TS_ChemName>
D-delta-Tocopherol

> <TS_ChemName_Synonyms>


> <TS_CASRN>
119-13-1

> <CASRN_ChemName_Relationship>
primary

> <TS_Description>
single chemical compound

> <ChemNote>
stereochem

> <STRUCTURE_Shown>
tested chemical

> <STRUCTURE_Formula>
C27H46O2

> <STRUCTURE_MW>
402.6529

> <STRUCTURE_ChemType>
defined organic

> <STRUCTURE_DefinedOrganicForm>
parent

> <STRUCTURE_IUPAC>
(2R)-2,8-dimethyl-2-[(4R,8R)-4,8,12-trimethyltridecyl]-3,4-dihydro-2H-chromen-6-ol

> <STRUCTURE_SMILES>
CC(C)CCC[C@@H](C)CCC[C@@H](C)CCC[C@]1(C)CCc2cc(O)cc(C)c2O1

> <STRUCTURE_SMILES_Desalt>
CC(C)CCC[C@@H](C)CCC[C@@H](C)CCC[C@]1(C)CCc2cc(O)cc(C)c2O1

> <Substance_modify_yyyymmdd>
20110816

$$$$
