119-39-1
ChemmineR-0915142007XD

 11 12  0  0  0  0  0  0  0  0  1 V2000
    0.0000   -0.6657    0.0000 C   0  0  0  0  0  0  0  0  0  0  0  0
    1.1499    0.0000    0.0000 C   0  0  0  0  0  0  0  0  0  0  0  0
    2.3044   -0.6657    0.0000 C   0  0  0  0  0  0  0  0  0  0  0  0
    2.3044   -1.9971    0.0000 C   0  0  0  0  0  0  0  0  0  0  0  0
    3.4542   -2.6582    0.0000 C   0  0  0  0  0  0  0  0  0  0  0  0
    3.4542   -3.9896    0.0000 N   0  0  0  0  0  0  0  0  0  0  0  0
    2.3044   -4.6553    0.0000 N   0  0  0  0  0  0  0  0  0  0  0  0
    1.1499   -3.9896    0.0000 C   0  0  0  0  0  0  0  0  0  0  0  0
    0.0000   -4.6553    0.0000 O   0  0  0  0  0  0  0  0  0  0  0  0
    1.1499   -2.6582    0.0000 C   0  0  0  0  0  0  0  0  0  0  0  0
    0.0000   -1.9971    0.0000 C   0  0  0  0  0  0  0  0  0  0  0  0
  1  2  2  0  0  0  0
  1 11  1  0  0  0  0
  2  3  1  0  0  0  0
  3  4  2  0  0  0  0
  4  5  1  0  0  0  0
  4 10  1  0  0  0  0
  5  6  2  0  0  0  0
  6  7  1  0  0  0  0
  7  8  1  0  0  0  0
  8  9  2  0  0  0  0
  8 10  1  0  0  0  0
 10 11  2  0  0  0  0
M  END
> <ID>
4459

> <Formula>
C8H6N2O

> <FW>
146.146

> <DSSTox_CID>
5903

> <DSSTox_RID>
77965

> <DSSTox_GSID>
25903

> <DSSTox_FileID_Sort>
2648

> <TS_ChemName>
1(2H)-Phthalazinone

> <TS_ChemName_Synonyms>


> <TS_CASRN>
119-39-1

> <CASRN_ChemName_Relationship>
primary

> <TS_Description>
single chemical compound

> <ChemNote>


> <STRUCTURE_Shown>
tested chemical

> <STRUCTURE_Formula>
C8H6N2O

> <STRUCTURE_MW>
146.146

> <STRUCTURE_ChemType>
defined organic

> <STRUCTURE_DefinedOrganicForm>
parent

> <STRUCTURE_IUPAC>
phthalazin-1(2H)-one

> <STRUCTURE_SMILES>
O=C1NN=Cc2ccccc12

> <STRUCTURE_SMILES_Desalt>
O=C1NN=Cc2ccccc12

> <Substance_modify_yyyymmdd>
20080429

$$$$
