119-41-5
ChemmineR-0915142007XD

 24 26  0  0  0  0  0  0  0  0  1 V2000
    9.2221   -4.0085    0.0000 C   0  0  0  0  0  0  0  0  0  0  0  0
    9.2221   -5.3658    0.0000 C   0  0  0  0  0  0  0  0  0  0  0  0
    6.9388   -4.0085    0.0000 C   0  0  0  0  0  0  0  0  0  0  0  0
    8.0678   -3.3362    0.0000 O   0  0  0  0  0  0  0  0  0  0  0  0
    8.0678   -5.9874    0.0000 C   0  0  0  0  0  0  0  0  0  0  0  0
    6.9388   -5.3658    0.0000 C   0  0  0  0  0  0  0  0  0  0  0  0
    5.7464   -3.3362    0.0000 C   0  0  0  0  0  0  0  0  0  0  0  0
    5.7464   -5.9874    0.0000 C   0  0  0  0  0  0  0  0  0  0  0  0
    2.3341   -1.3573    0.0000 C   0  0  0  0  0  0  0  0  0  0  0  0
   10.4018   -3.3362    0.0000 C   0  0  0  0  0  0  0  0  0  0  0  0
    8.0678   -7.3447    0.0000 O   0  0  0  0  0  0  0  0  0  0  0  0
    2.3341    0.0000    0.0000 O   0  0  0  0  0  0  0  0  0  0  0  0
    4.6174   -4.0085    0.0000 C   0  0  0  0  0  0  0  0  0  0  0  0
    3.4630   -3.3362    0.0000 O   0  0  0  0  0  0  0  0  0  0  0  0
    3.4630   -2.0296    0.0000 C   0  0  0  0  0  0  0  0  0  0  0  0
    4.6174   -5.3658    0.0000 C   0  0  0  0  0  0  0  0  0  0  0  0
    1.1543   -2.0296    0.0000 O   0  0  0  0  0  0  0  0  0  0  0  0
   10.4018   -2.0296    0.0000 C   0  0  0  0  0  0  0  0  0  0  0  0
   11.5308   -4.0085    0.0000 C   0  0  0  0  0  0  0  0  0  0  0  0
    1.1543   -3.3362    0.0000 C   0  0  0  0  0  0  0  0  0  0  0  0
    0.0000   -4.0085    0.0000 C   0  0  0  0  0  0  0  0  0  0  0  0
   11.5308   -1.3573    0.0000 C   0  0  0  0  0  0  0  0  0  0  0  0
   12.6851   -3.3362    0.0000 C   0  0  0  0  0  0  0  0  0  0  0  0
   12.6851   -2.0296    0.0000 C   0  0  0  0  0  0  0  0  0  0  0  0
  1  2  2  0  0  0  0
  1  4  1  0  0  0  0
  1 10  1  0  0  0  0
  2  5  1  0  0  0  0
  3  4  1  0  0  0  0
  3  6  2  0  0  0  0
  3  7  1  0  0  0  0
  5 11  2  0  0  0  0
  5  6  1  0  0  0  0
  6  8  1  0  0  0  0
  7 13  2  0  0  0  0
  8 16  2  0  0  0  0
  9 15  1  0  0  0  0
  9 12  2  0  0  0  0
  9 17  1  0  0  0  0
 10 18  1  0  0  0  0
 10 19  2  0  0  0  0
 13 14  1  0  0  0  0
 13 16  1  0  0  0  0
 14 15  1  0  0  0  0
 17 20  1  0  0  0  0
 18 22  2  0  0  0  0
 19 23  1  0  0  0  0
 20 21  1  0  0  0  0
 22 24  1  0  0  0  0
 23 24  2  0  0  0  0
M  END
> <ID>
13727

> <Formula>
C19H16O5

> <FW>
324.3273

> <DSSTox_CID>
28662

> <DSSTox_RID>
82932

> <DSSTox_GSID>
48736

> <DSSTox_FileID_Sort>
7609

> <TS_ChemName>
Efloxate

> <TS_ChemName_Synonyms>


> <TS_CASRN>
119-41-5

> <CASRN_ChemName_Relationship>
primary

> <TS_Description>
single chemical compound

> <ChemNote>


> <STRUCTURE_Shown>
tested chemical

> <STRUCTURE_Formula>
C19H16O5

> <STRUCTURE_MW>
324.3273

> <STRUCTURE_ChemType>
defined organic

> <STRUCTURE_DefinedOrganicForm>
parent

> <STRUCTURE_IUPAC>
ethyl [(4-oxo-2-phenyl-4H-chromen-7-yl)oxy]acetate

> <STRUCTURE_SMILES>
O=C(OCC)COc1ccc2c(c1)OC(=CC2=O)c3ccccc3

> <STRUCTURE_SMILES_Desalt>
O=C(OCC)COc1ccc2c(c1)OC(=CC2=O)c3ccccc3

> <Substance_modify_yyyymmdd>
20100107

$$$$
