119-40-4
ChemmineR-0915142007XD

 22 24  0  0  0  0  0  0  0  0  1 V2000
    6.9102   -1.8197    0.0000 C   0  0  0  0  0  0  0  0  0  0  0  0
    6.9102   -3.1442    0.0000 C   0  0  0  0  0  0  0  0  0  0  0  0
    5.7585   -1.1402    0.0000 C   0  0  0  0  0  0  0  0  0  0  0  0
    5.7585   -3.8006    0.0000 C   0  0  0  0  0  0  0  0  0  0  0  0
    8.0735   -3.8006    0.0000 C   0  0  0  0  0  0  0  0  0  0  0  0
    8.0735   -1.1402    0.0000 C   0  0  0  0  0  0  0  0  0  0  0  0
    9.2252   -1.8197    0.0000 C   0  0  0  0  0  0  0  0  0  0  0  0
    9.2252   -3.1442    0.0000 C   0  0  0  0  0  0  0  0  0  0  0  0
    4.6068   -3.1442    0.0000 C   0  0  0  0  0  0  0  0  0  0  0  0
    4.6068   -1.8197    0.0000 C   0  0  0  0  0  0  0  0  0  0  0  0
   10.3769   -1.1402    0.0000 S   0  0  0  0  0  0  0  0  0  0  0  0
   11.0333   -2.2919    0.0000 O   0  0  0  0  0  0  0  0  0  0  0  0
    9.7089    0.0000    0.0000 O   0  0  0  0  0  0  0  0  0  0  0  0
   11.5171   -0.4837    0.0000 O   0  0  0  0  0  0  0  0  0  0  0  0
    8.0735   -5.1366    0.0000 O   0  0  0  0  0  0  0  0  0  0  0  0
    3.4436   -1.1402    0.0000 N   0  0  0  0  0  0  0  0  0  0  0  0
    1.1402   -3.8006    0.0000 C   0  0  0  0  0  0  0  0  0  0  0  0
    0.0000   -3.1442    0.0000 C   0  0  0  0  0  0  0  0  0  0  0  0
    0.0000   -1.8197    0.0000 C   0  0  0  0  0  0  0  0  0  0  0  0
    1.1402   -1.1402    0.0000 C   0  0  0  0  0  0  0  0  0  0  0  0
    2.2919   -1.8197    0.0000 C   0  0  0  0  0  0  0  0  0  0  0  0
    2.2919   -3.1442    0.0000 C   0  0  0  0  0  0  0  0  0  0  0  0
  1  2  2  0  0  0  0
  1  3  1  0  0  0  0
  1  6  1  0  0  0  0
  2  4  1  0  0  0  0
  2  5  1  0  0  0  0
  3 10  2  0  0  0  0
  4  9  2  0  0  0  0
  5  8  2  0  0  0  0
  5 15  1  0  0  0  0
  6  7  2  0  0  0  0
  7  8  1  0  0  0  0
  7 11  1  0  0  0  0
  9 10  1  0  0  0  0
 10 16  1  0  0  0  0
 11 12  2  0  0  0  0
 11 13  1  0  0  0  0
 11 14  2  0  0  0  0
 16 21  1  0  0  0  0
 17 22  2  0  0  0  0
 17 18  1  0  0  0  0
 18 19  2  0  0  0  0
 19 20  1  0  0  0  0
 20 21  2  0  0  0  0
 21 22  1  0  0  0  0
M  END
> <ID>
10437

> <Formula>
C16H13NO4S

> <FW>
315.3437

> <DSSTox_CID>
24787

> <DSSTox_RID>
80476

> <DSSTox_GSID>
44787

> <DSSTox_FileID_Sort>
5158

> <TS_ChemName>
4-Hydroxy-7-(phenylamino)naphthalene-2-sulfonic acid

> <TS_ChemName_Synonyms>
4-Hydroxy-7-(phenylamino)naphthalene-2-sulfonic acid (2-Naphthalenesulfonic acid, 4-hydroxy-7-(phenylamino)-)

> <TS_CASRN>
119-40-4

> <CASRN_ChemName_Relationship>
primary

> <TS_Description>
single chemical compound

> <ChemNote>


> <STRUCTURE_Shown>
tested chemical

> <STRUCTURE_Formula>
C16H13NO4S

> <STRUCTURE_MW>
315.3437

> <STRUCTURE_ChemType>
defined organic

> <STRUCTURE_DefinedOrganicForm>
parent

> <STRUCTURE_IUPAC>
4-hydroxy-7-(phenylamino)naphthalene-2-sulfonic acid

> <STRUCTURE_SMILES>
O=S(=O)(O)c1cc(O)c2ccc(cc2c1)Nc3ccccc3

> <STRUCTURE_SMILES_Desalt>
O=S(=O)(O)c1cc(O)c2ccc(cc2c1)Nc3ccccc3

> <Substance_modify_yyyymmdd>
20091116

$$$$
