119-75-5
ChemmineR-0915142007XD

 16 17  0  0  0  0  0  0  0  0  2 V2000
    0.0000   -3.4548    0.0000 O   0  0  0  0  0  0  0  0  0  0  0  0
    1.3325   -3.4548    0.0000 N   0  3  0  0  0  0  0  0  0  0  0  0
    1.9947   -4.6038    0.0000 O   0  5  0  0  0  0  0  0  0  0  0  0
    1.9947   -2.2979    0.0000 C   0  0  0  0  0  0  0  0  0  0  0  0
    1.3325   -1.1489    0.0000 C   0  0  0  0  0  0  0  0  0  0  0  0
    1.9947    0.0000    0.0000 C   0  0  0  0  0  0  0  0  0  0  0  0
    3.3272    0.0000    0.0000 C   0  0  0  0  0  0  0  0  0  0  0  0
    3.9894   -1.1489    0.0000 C   0  0  0  0  0  0  0  0  0  0  0  0
    3.3272   -2.2979    0.0000 C   0  0  0  0  0  0  0  0  0  0  0  0
    3.9894   -3.4548    0.0000 N   0  0  0  0  0  0  0  0  0  0  0  0
    5.3219   -3.4548    0.0000 C   0  0  0  0  0  0  0  0  0  0  0  0
    5.9841   -2.2979    0.0000 C   0  0  0  0  0  0  0  0  0  0  0  0
    7.3166   -2.2979    0.0000 C   0  0  0  0  0  0  0  0  0  0  0  0
    7.9788   -3.4548    0.0000 C   0  0  0  0  0  0  0  0  0  0  0  0
    7.3166   -4.6038    0.0000 C   0  0  0  0  0  0  0  0  0  0  0  0
    5.9841   -4.6038    0.0000 C   0  0  0  0  0  0  0  0  0  0  0  0
  1  2  2  0  0  0  0
  2  3  1  0  0  0  0
  2  4  1  0  0  0  0
  4  5  2  0  0  0  0
  4  9  1  0  0  0  0
  5  6  1  0  0  0  0
  6  7  2  0  0  0  0
  7  8  1  0  0  0  0
  8  9  2  0  0  0  0
  9 10  1  0  0  0  0
 10 11  1  0  0  0  0
 11 12  2  0  0  0  0
 11 16  1  0  0  0  0
 12 13  1  0  0  0  0
 13 14  2  0  0  0  0
 14 15  1  0  0  0  0
 15 16  2  0  0  0  0
M  END
> <ID>
4384

> <Formula>
C12H10N2O2

> <FW>
214.22

> <DSSTox_CID>
5749

> <DSSTox_RID>
77908

> <DSSTox_GSID>
25749

> <DSSTox_FileID_Sort>
2591

> <TS_ChemName>
2-Nitrodiphenylamine

> <TS_ChemName_Synonyms>


> <TS_CASRN>
119-75-5

> <CASRN_ChemName_Relationship>
primary

> <TS_Description>
single chemical compound

> <ChemNote>


> <STRUCTURE_Shown>
tested chemical

> <STRUCTURE_Formula>
C12H10N2O2

> <STRUCTURE_MW>
214.22

> <STRUCTURE_ChemType>
defined organic

> <STRUCTURE_DefinedOrganicForm>
parent

> <STRUCTURE_IUPAC>
2-nitro-N-phenylaniline

> <STRUCTURE_SMILES>
[O-][N+](=O)c2ccccc2Nc1ccccc1

> <STRUCTURE_SMILES_Desalt>
[O-][N+](=O)c2ccccc2Nc1ccccc1

> <Substance_modify_yyyymmdd>
20080429

$$$$
