119-90-4
ChemmineR-0915142007XD

 18 19  0  0  0  0  0  0  0  0  1 V2000
    7.9812    0.0000    0.0000 O   0  0  0  0  0  0  0  0  0  0  0  0
    7.3200   -1.1548    0.0000 C   0  0  0  0  0  0  0  0  0  0  0  0
    7.9812   -2.3003    0.0000 C   0  0  0  0  0  0  0  0  0  0  0  0
    9.3130   -2.3003    0.0000 N   0  0  0  0  0  0  0  0  0  0  0  0
    7.3200   -3.4551    0.0000 C   0  0  0  0  0  0  0  0  0  0  0  0
    5.9882   -3.4551    0.0000 C   0  0  0  0  0  0  0  0  0  0  0  0
    5.3177   -2.3003    0.0000 C   0  0  0  0  0  0  0  0  0  0  0  0
    3.9953   -2.3003    0.0000 C   0  0  0  0  0  0  0  0  0  0  0  0
    3.3247   -3.4551    0.0000 C   0  0  0  0  0  0  0  0  0  0  0  0
    1.9930   -3.4551    0.0000 C   0  0  0  0  0  0  0  0  0  0  0  0
    1.3318   -2.3003    0.0000 C   0  0  0  0  0  0  0  0  0  0  0  0
    0.0000   -2.3003    0.0000 N   0  0  0  0  0  0  0  0  0  0  0  0
    1.9930   -1.1548    0.0000 C   0  0  0  0  0  0  0  0  0  0  0  0
    1.3318    0.0000    0.0000 O   0  0  0  0  0  0  0  0  0  0  0  0
    0.0000    0.0000    0.0000 C   0  0  0  0  0  0  0  0  0  0  0  0
    3.3247   -1.1548    0.0000 C   0  0  0  0  0  0  0  0  0  0  0  0
    5.9882   -1.1548    0.0000 C   0  0  0  0  0  0  0  0  0  0  0  0
    9.3130    0.0000    0.0000 C   0  0  0  0  0  0  0  0  0  0  0  0
  1  2  1  0  0  0  0
  1 18  1  0  0  0  0
  2  3  2  0  0  0  0
  2 17  1  0  0  0  0
  3  4  1  0  0  0  0
  3  5  1  0  0  0  0
  5  6  2  0  0  0  0
  6  7  1  0  0  0  0
  7  8  1  0  0  0  0
  7 17  2  0  0  0  0
  8  9  2  0  0  0  0
  8 16  1  0  0  0  0
  9 10  1  0  0  0  0
 10 11  2  0  0  0  0
 11 12  1  0  0  0  0
 11 13  1  0  0  0  0
 13 14  1  0  0  0  0
 13 16  2  0  0  0  0
 14 15  1  0  0  0  0
M  END
> <ID>
4012

> <Formula>
C14H16N2O2

> <FW>
244.289

> <DSSTox_CID>
5091

> <DSSTox_RID>
77661

> <DSSTox_GSID>
25091

> <DSSTox_FileID_Sort>
2344

> <TS_ChemName>
3,3'-Dimethoxybenzidine

> <TS_ChemName_Synonyms>
3,3'-Dimethoxybenzidine (o-Dianisidine)

> <TS_CASRN>
119-90-4

> <CASRN_ChemName_Relationship>
primary

> <TS_Description>
single chemical compound

> <ChemNote>


> <STRUCTURE_Shown>
tested chemical

> <STRUCTURE_Formula>
C14H16N2O2

> <STRUCTURE_MW>
244.289

> <STRUCTURE_ChemType>
defined organic

> <STRUCTURE_DefinedOrganicForm>
parent

> <STRUCTURE_IUPAC>
3,3'-dimethoxybiphenyl-4,4'-diamine

> <STRUCTURE_SMILES>
Nc1ccc(cc1OC)c2ccc(N)c(OC)c2

> <STRUCTURE_SMILES_Desalt>
Nc1ccc(cc1OC)c2ccc(N)c(OC)c2

> <Substance_modify_yyyymmdd>
20080429

$$$$
