119-48-2
ChemmineR-0915142007XD

 28 29  0  0  0  0  0  0  0  0  1 V2000
    0.0000   -3.4571    0.0000 C   0  0  0  0  0  0  0  0  0  0  0  0
    1.3331   -3.4571    0.0000 C   0  0  0  0  0  0  0  0  0  0  0  0
    1.9884   -4.5982    0.0000 C   0  0  0  0  0  0  0  0  0  0  0  0
    3.3215   -4.5982    0.0000 C   0  0  0  0  0  0  0  0  0  0  0  0
    3.9881   -5.7505    0.0000 N   0  0  0  0  0  0  0  0  0  0  0  0
    5.3212   -5.7505    0.0000 C   0  0  0  0  0  0  0  0  0  0  0  0
    5.9765   -4.5982    0.0000 C   0  0  0  0  0  0  0  0  0  0  0  0
    7.3096   -4.5982    0.0000 N   0  0  0  0  0  0  0  0  0  0  0  0
    7.9762   -5.7505    0.0000 C   0  0  0  0  0  0  0  0  0  0  0  0
    9.3093   -5.7505    0.0000 C   0  0  0  0  0  0  0  0  0  0  0  0
    9.9646   -6.9029    0.0000 C   0  0  0  0  0  0  0  0  0  0  0  0
   11.2977   -6.9029    0.0000 C   0  0  0  0  0  0  0  0  0  0  0  0
    7.9762   -3.4571    0.0000 C   0  0  0  0  0  0  0  0  0  0  0  0
    9.3093   -3.4571    0.0000 O   0  0  0  0  0  0  0  0  0  0  0  0
    7.3096   -2.3047    0.0000 N   0  0  0  0  0  0  0  0  0  0  0  0
    7.9762   -1.1524    0.0000 C   0  0  0  0  0  0  0  0  0  0  0  0
    7.3096    0.0000    0.0000 C   0  0  0  0  0  0  0  0  0  0  0  0
    5.9765    0.0000    0.0000 O   0  0  0  0  0  0  0  0  0  0  0  0
    5.3212   -1.1524    0.0000 C   0  0  0  0  0  0  0  0  0  0  0  0
    5.9765   -2.3047    0.0000 C   0  0  0  0  0  0  0  0  0  0  0  0
    3.3215   -6.9029    0.0000 C   0  0  0  0  0  0  0  0  0  0  0  0
    1.9884   -6.9029    0.0000 O   0  0  0  0  0  0  0  0  0  0  0  0
    3.9881   -8.0553    0.0000 N   0  0  0  0  0  0  0  0  0  0  0  0
    3.3215   -9.2076    0.0000 C   0  0  0  0  0  0  0  0  0  0  0  0
    3.9881  -10.3600    0.0000 C   0  0  0  0  0  0  0  0  0  0  0  0
    5.3212  -10.3600    0.0000 O   0  0  0  0  0  0  0  0  0  0  0  0
    5.9765   -9.2076    0.0000 C   0  0  0  0  0  0  0  0  0  0  0  0
    5.3212   -8.0553    0.0000 C   0  0  0  0  0  0  0  0  0  0  0  0
  1  2  1  0  0  0  0
  2  3  1  0  0  0  0
  3  4  1  0  0  0  0
  4  5  1  0  0  0  0
  5  6  1  0  0  0  0
  5 21  1  0  0  0  0
  6  7  1  0  0  0  0
  7  8  1  0  0  0  0
  8  9  1  0  0  0  0
  8 13  1  0  0  0  0
  9 10  1  0  0  0  0
 10 11  1  0  0  0  0
 11 12  1  0  0  0  0
 13 14  2  0  0  0  0
 13 15  1  0  0  0  0
 15 16  1  0  0  0  0
 15 20  1  0  0  0  0
 16 17  1  0  0  0  0
 17 18  1  0  0  0  0
 18 19  1  0  0  0  0
 19 20  1  0  0  0  0
 21 22  2  0  0  0  0
 21 23  1  0  0  0  0
 23 24  1  0  0  0  0
 23 28  1  0  0  0  0
 24 25  1  0  0  0  0
 25 26  1  0  0  0  0
 26 27  1  0  0  0  0
 27 28  1  0  0  0  0
M  END
> <ID>
16032

> <Formula>
C20H38N4O4

> <FW>
398.5401

> <DSSTox_CID>
31417

> <DSSTox_RID>
97303

> <DSSTox_GSID>
57628

> <DSSTox_FileID_Sort>
8370

> <TS_ChemName>
Dimorpholamine

> <TS_ChemName_Synonyms>


> <TS_CASRN>
119-48-2

> <CASRN_ChemName_Relationship>
primary

> <TS_Description>
single chemical compound

> <ChemNote>


> <STRUCTURE_Shown>
tested chemical

> <STRUCTURE_Formula>
C20H38N4O4

> <STRUCTURE_MW>
398.5401

> <STRUCTURE_ChemType>
defined organic

> <STRUCTURE_DefinedOrganicForm>
parent

> <STRUCTURE_IUPAC>
N,N'-ethane-1,2-diylbis(N-butylmorpholine-4-carboxamide)

> <STRUCTURE_SMILES>
O=C(N(CCCC)CCN(CCCC)C(=O)N1CCOCC1)N2CCOCC2

> <STRUCTURE_SMILES_Desalt>
O=C(N(CCCC)CCN(CCCC)C(=O)N1CCOCC1)N2CCOCC2

> <Substance_modify_yyyymmdd>
20131018

$$$$
