1191-41-9
ChemmineR-0915142007XD

 22 21  0  0  0  0  0  0  0  0  1 V2000
    3.4509    0.0000    0.0000 O   0  0  0  0  0  0  0  0  0  0  0  0
    3.4509   -1.3344    0.0000 C   0  0  0  0  0  0  0  0  0  0  0  0
    2.3006   -2.0015    0.0000 O   0  0  0  0  0  0  0  0  0  0  0  0
    1.1503   -1.3344    0.0000 C   0  0  0  0  0  0  0  0  0  0  0  0
    0.0000   -2.0015    0.0000 C   0  0  0  0  0  0  0  0  0  0  0  0
    4.6012   -2.0015    0.0000 C   0  0  0  0  0  0  0  0  0  0  0  0
    5.7515   -1.3344    0.0000 C   0  0  0  0  0  0  0  0  0  0  0  0
    6.9018   -2.0015    0.0000 C   0  0  0  0  0  0  0  0  0  0  0  0
    8.0521   -1.3344    0.0000 C   0  0  0  0  0  0  0  0  0  0  0  0
    9.2024   -2.0015    0.0000 C   0  0  0  0  0  0  0  0  0  0  0  0
   10.3527   -1.3344    0.0000 C   0  0  0  0  0  0  0  0  0  0  0  0
   11.5030   -2.0015    0.0000 C   0  0  0  0  0  0  0  0  0  0  0  0
   12.6533   -1.3344    0.0000 C   0  0  0  0  0  0  0  0  0  0  0  0
   13.8036   -2.0015    0.0000 C   0  0  0  0  0  0  0  0  0  0  0  0
   14.9539   -1.3344    0.0000 C   0  0  0  0  0  0  0  0  0  0  0  0
   16.1042   -2.0015    0.0000 C   0  0  0  0  0  0  0  0  0  0  0  0
   17.2545   -1.3344    0.0000 C   0  0  0  0  0  0  0  0  0  0  0  0
   18.4049   -2.0015    0.0000 C   0  0  0  0  0  0  0  0  0  0  0  0
   19.5552   -1.3344    0.0000 C   0  0  0  0  0  0  0  0  0  0  0  0
   20.7055   -2.0015    0.0000 C   0  0  0  0  0  0  0  0  0  0  0  0
   21.8558   -1.3344    0.0000 C   0  0  0  0  0  0  0  0  0  0  0  0
   23.0061   -2.0015    0.0000 C   0  0  0  0  0  0  0  0  0  0  0  0
  1  2  2  0  0  0  0
  2  3  1  0  0  0  0
  2  6  1  0  0  0  0
  3  4  1  0  0  0  0
  4  5  1  0  0  0  0
  6  7  1  0  0  0  0
  7  8  1  0  0  0  0
  8  9  1  0  0  0  0
  9 10  1  0  0  0  0
 10 11  1  0  0  0  0
 11 12  1  0  0  0  0
 12 13  1  0  0  0  0
 13 14  2  0  0  0  0
 14 15  1  0  0  0  0
 15 16  1  0  0  0  0
 16 17  2  0  0  0  0
 17 18  1  0  0  0  0
 18 19  1  0  0  0  0
 19 20  2  0  0  0  0
 20 21  1  0  0  0  0
 21 22  1  0  0  0  0
M  END
> <ID>
4135

> <Formula>
C20H34O2

> <FW>
306.4828

> <DSSTox_CID>
5307

> <DSSTox_RID>
77741

> <DSSTox_GSID>
25307

> <DSSTox_FileID_Sort>
2424

> <TS_ChemName>
Ethyl linolenate

> <TS_ChemName_Synonyms>


> <TS_CASRN>
1191-41-9

> <CASRN_ChemName_Relationship>
primary

> <TS_Description>
single chemical compound

> <ChemNote>
stereochem

> <STRUCTURE_Shown>
tested chemical

> <STRUCTURE_Formula>
C20H34O2

> <STRUCTURE_MW>
306.4828

> <STRUCTURE_ChemType>
defined organic

> <STRUCTURE_DefinedOrganicForm>
parent

> <STRUCTURE_IUPAC>
ethyl (9E,12E,15E)-octadeca-9,12,15-trienoate

> <STRUCTURE_SMILES>
O=C(CCCCCCC\C=C\C\C=C\C\C=C\CC)OCC

> <STRUCTURE_SMILES_Desalt>
O=C(CCCCCCC\C=C\C\C=C\C\C=C\CC)OCC

> <Substance_modify_yyyymmdd>
20080429

$$$$
