1191914-21-2
ChemmineR-0915142007XD

 40 44  0  0  1  0  0  0  0  0  1 V2000
    6.0370   -6.9372    0.0000 O   0  0  0  0  0  0  0  0  0  0  0  0
    4.6954   -6.9372    0.0000 C   0  0  0  0  0  0  0  0  0  0  0  0
    4.0247   -5.7722    0.0000 N   0  0  0  0  0  0  0  0  0  0  0  0
    4.6954   -4.6248    0.0000 C   0  0  0  0  0  0  0  0  0  0  0  0
    6.0370   -4.6248    0.0000 C   0  0  0  0  0  0  0  0  0  0  0  0
    6.6901   -5.7722    0.0000 C   0  0  0  0  0  0  0  0  0  0  0  0
    7.3785   -6.9372    0.0000 C   0  0  0  0  0  0  0  0  0  0  0  0
    8.7201   -6.9372    0.0000 C   0  0  0  0  0  0  0  0  0  0  0  0
    9.3732   -5.7722    0.0000 N   0  0  0  0  0  0  0  0  0  0  0  0
    8.7201   -4.6248    0.0000 C   0  0  0  0  0  0  0  0  0  0  0  0
    7.3785   -4.6248    0.0000 C   0  0  0  0  0  0  0  0  0  0  0  0
    4.0247   -8.1023    0.0000 O   0  0  0  0  0  0  0  0  0  0  0  0
    6.6901   -3.4774    0.0000 C   0  0  0  0  0  0  0  0  0  0  0  0
    6.0370   -2.3124    0.0000 C   0  0  0  0  0  0  0  0  0  0  0  0
    6.6901   -1.1474    0.0000 C   0  0  0  0  0  0  0  0  0  0  0  0
    6.0370    0.0000    0.0000 C   0  0  0  0  0  0  0  0  0  0  0  0
   13.0272   -4.4483    0.0000 N   0  0  0  0  0  0  0  0  0  0  0  0
   11.8622   -3.7775    0.0000 C   0  0  0  0  0  0  0  0  0  0  0  0
   13.0272   -5.7722    0.0000 C   0  0  0  0  0  0  0  0  0  0  0  0
   10.7148   -4.4483    0.0000 C   0  0  0  0  0  0  0  0  0  0  0  0
   11.8622   -6.4430    0.0000 C   0  0  0  0  0  0  0  0  0  0  0  0
   10.7148   -5.7722    0.0000 C   0  0  0  0  0  0  0  0  0  0  0  0
   14.1746   -3.7775    0.0000 C   0  0  0  0  0  0  0  0  0  0  0  0
   14.1746   -2.4360    0.0000 O   0  0  0  0  0  0  0  0  0  0  0  0
   16.4870   -6.4430    0.0000 N   0  0  0  0  0  0  0  0  0  0  0  0
   17.6520   -4.4483    0.0000 N   0  0  0  0  0  0  0  0  0  0  0  0
   17.6520   -5.7722    0.0000 C   0  0  0  0  0  0  0  0  0  0  0  0
   15.3396   -4.4483    0.0000 C   0  0  0  0  0  0  0  0  0  0  0  0
   15.3396   -5.7722    0.0000 C   0  0  0  0  0  0  0  0  0  0  0  0
   16.4870   -3.7775    0.0000 C   0  0  0  0  0  0  0  0  0  0  0  0
   16.4870   -2.4360    0.0000 C   0  0  0  0  0  0  0  0  0  0  0  0
   14.4394   -6.3900    0.0000 C   0  0  0  0  0  0  0  0  0  0  0  0
   10.7148   -7.1138    0.0000 C   0  0  0  0  0  0  0  0  0  0  0  0
    2.6831   -5.7722    0.0000 C   0  0  0  0  0  0  0  0  0  0  0  0
    0.6708   -2.3124    0.0000 O   0  0  0  0  0  0  0  0  0  0  0  0
    0.0000   -3.4774    0.0000 C   0  0  0  0  0  0  0  0  0  0  0  0
    0.6708   -4.6248    0.0000 C   0  0  0  0  0  0  0  0  0  0  0  0
    2.0123   -4.6248    0.0000 C   0  0  0  0  0  0  0  0  0  0  0  0
    2.6831   -3.4774    0.0000 C   0  0  0  0  0  0  0  0  0  0  0  0
    2.0123   -2.3124    0.0000 C   0  0  0  0  0  0  0  0  0  0  0  0
  1  2  1  0  0  0  0
  1  6  1  0  0  0  0
  2  3  1  0  0  0  0
  2 12  2  0  0  0  0
  3  4  1  0  0  0  0
  3 34  1  0  0  0  0
  4  5  1  0  0  0  0
  5  6  1  0  0  0  0
  5 13  1  6  0  0  0
  6  7  1  0  0  0  0
  6 11  1  0  0  0  0
  7  8  1  0  0  0  0
  8  9  1  0  0  0  0
  9 10  1  0  0  0  0
  9 22  1  0  0  0  0
 10 11  1  0  0  0  0
 13 14  1  0  0  0  0
 14 15  1  0  0  0  0
 15 16  1  0  0  0  0
 17 18  1  0  0  0  0
 17 19  1  0  0  0  0
 17 23  1  0  0  0  0
 18 20  1  0  0  0  0
 19 21  1  0  0  0  0
 20 22  1  0  0  0  0
 21 22  1  0  0  0  0
 22 33  1  0  0  0  0
 23 24  2  0  0  0  0
 23 28  1  0  0  0  0
 25 27  2  0  0  0  0
 25 29  1  0  0  0  0
 26 27  1  0  0  0  0
 26 30  2  0  0  0  0
 28 29  2  0  0  0  0
 28 30  1  0  0  0  0
 29 32  1  0  0  0  0
 30 31  1  0  0  0  0
 34 38  1  0  0  0  0
 35 36  1  0  0  0  0
 35 40  1  0  0  0  0
 36 37  1  0  0  0  0
 37 38  1  0  0  0  0
 38 39  1  0  0  0  0
 39 40  1  0  0  0  0
M  END
> <ID>
13569

> <Formula>
C31H49N5O4

> <FW>
555.7519

> <DSSTox_CID>
28495

> <DSSTox_RID>
82770

> <DSSTox_GSID>
48521

> <DSSTox_FileID_Sort>
7447

> <TS_ChemName>
PharmaGSID_48521

> <TS_ChemName_Synonyms>
(5S)-5-Butyl-9-{1-[(4,6-dimethylpyrimidin-5-yl)carbonyl]-4-methylpiperidin-4-yl}-3-(tetrahydro-2H-pyran-4-ylmethyl)-1-oxa-3,9-diazaspiro[5.5]undecan-2-one

> <TS_CASRN>
1191914-21-2

> <CASRN_ChemName_Relationship>
primary

> <TS_Description>
single chemical compound

> <ChemNote>
stereochem

> <STRUCTURE_Shown>
tested chemical

> <STRUCTURE_Formula>
C31H49N5O4

> <STRUCTURE_MW>
555.7519

> <STRUCTURE_ChemType>
defined organic

> <STRUCTURE_DefinedOrganicForm>
parent

> <STRUCTURE_IUPAC>
(5S)-5-butyl-9-{1-[(4,6-dimethylpyrimidin-5-yl)carbonyl]-4-methylpiperidin-4-yl}-3-(tetrahydro-2H-pyran-4-ylmethyl)-1-oxa-3,9-diazaspiro[5.5]undecan-2-one

> <STRUCTURE_SMILES>
Cc1ncnc(C)c1C(=O)N2CCC(C)(CC2)N3CCC4(CC3)OC(=O)N(C[C@@H]4CCCC)CC5CCOCC5

> <STRUCTURE_SMILES_Desalt>
Cc1ncnc(C)c1C(=O)N2CCC(C)(CC2)N3CCC4(CC3)OC(=O)N(C[C@@H]4CCCC)CC5CCOCC5

> <Substance_modify_yyyymmdd>
20130910

$$$$
