119169-78-7
ChemmineR-0915142007XD

 32 35  0  0  1  0  0  0  0  0  1 V2000
    5.6321   -4.4908    0.0000 C   0  0  0  0  0  0  0  0  0  0  0  0
    4.5528   -5.1234    0.0000 C   0  0  0  0  0  0  0  0  0  0  0  0
    6.7113   -5.1234    0.0000 C   0  0  0  0  0  0  0  0  0  0  0  0
    7.9023   -4.4535    0.0000 C   0  0  0  0  0  0  0  0  0  0  0  0
    7.9023   -3.1634    0.0000 C   0  0  0  0  0  0  0  0  0  0  0  0
    5.6321   -3.1882    0.0000 C   0  0  0  0  0  0  0  0  0  0  0  0
    6.7113   -6.4136    0.0000 C   0  0  0  0  0  0  0  0  0  0  0  0
    4.5528   -6.4136    0.0000 C   0  0  0  0  0  0  0  0  0  0  0  0
    6.7113   -2.5431    0.0000 C   0  0  0  0  0  0  0  0  0  0  0  0
    5.6321   -7.0463    0.0000 C   0  0  0  0  0  0  0  0  0  0  0  0
    4.5528   -3.8333    0.0000 C   0  0  0  0  0  0  0  0  0  0  0  0
    3.4239   -4.4908    0.0000 C   0  0  0  0  0  0  0  0  0  0  0  0
    8.9815   -2.5431    0.0000 C   0  0  0  0  0  0  0  0  0  0  0  0
   10.1104   -4.4535    0.0000 C   0  0  0  0  0  0  0  0  0  0  0  0
    7.9023   -1.8980    0.0000 C   0  0  0  0  0  0  0  0  0  0  0  0
   10.1104   -3.1634    0.0000 C   0  0  0  0  0  0  0  0  0  0  0  0
    3.4239   -7.0463    0.0000 C   0  0  0  0  0  0  0  0  0  0  0  0
    2.2950   -5.1234    0.0000 C   0  0  0  0  0  0  0  0  0  0  0  0
    2.2950   -6.4136    0.0000 C   0  0  0  0  0  0  0  0  0  0  0  0
    6.7113   -3.7961    0.0000 H   0  0  0  0  0  0  0  0  0  0  0  0
    5.6321   -5.8305    0.0000 H   0  0  0  0  0  0  0  0  0  0  0  0
    7.8526   -5.7809    0.0000 H   0  0  0  0  0  0  0  0  0  0  0  0
    1.1165   -7.0463    0.0000 C   0  0  0  0  0  0  0  0  0  0  0  0
    1.1165   -8.3985    0.0000 O   0  0  0  0  0  0  0  0  0  0  0  0
    0.0000   -6.3764    0.0000 O   0  0  0  0  0  0  0  0  0  0  0  0
    8.9815   -1.1909    0.0000 C   0  0  0  0  0  0  0  0  0  0  0  0
    7.8154   -0.5210    0.0000 O   0  0  0  0  0  0  0  0  0  0  0  0
   10.1104   -0.5210    0.0000 N   0  0  0  0  0  0  0  0  0  0  0  0
   11.2889   -1.1537    0.0000 C   0  0  0  0  0  0  0  0  0  0  0  0
   10.6066   -2.3694    0.0000 C   0  0  0  0  0  0  0  0  0  0  0  0
   12.4054   -1.8360    0.0000 C   0  0  0  0  0  0  0  0  0  0  0  0
   11.9216    0.0000    0.0000 C   0  0  0  0  0  0  0  0  0  0  0  0
  1  6  1  0  0  0  0
  1  2  1  0  0  0  0
  1 21  1  6  0  0  0
  1  3  1  0  0  0  0
  2  8  1  0  0  0  0
  2 11  1  1  0  0  0
  2 12  1  0  0  0  0
  3  4  1  0  0  0  0
  3  7  1  0  0  0  0
  3 20  1  1  0  0  0
  4 14  1  0  0  0  0
  4  5  1  0  0  0  0
  4 22  1  6  0  0  0
  5  9  1  0  0  0  0
  5 13  1  0  0  0  0
  5 15  1  1  0  0  0
  6  9  1  0  0  0  0
  7 10  1  0  0  0  0
  8 17  1  0  0  0  0
  8 10  2  0  0  0  0
 12 18  1  0  0  0  0
 13 16  1  0  0  0  0
 13 26  1  1  0  0  0
 14 16  1  0  0  0  0
 17 19  2  0  0  0  0
 18 19  1  0  0  0  0
 19 23  1  0  0  0  0
 23 24  2  0  0  0  0
 23 25  1  0  0  0  0
 26 27  2  0  0  0  0
 26 28  1  0  0  0  0
 28 29  1  0  0  0  0
 29 30  1  0  0  0  0
 29 31  1  0  0  0  0
 29 32  1  0  0  0  0
M  END
> <ID>
13639

> <Formula>
C25H37NO3

> <FW>
399.5662

> <DSSTox_CID>
28569

> <DSSTox_RID>
82841

> <DSSTox_GSID>
48643

> <DSSTox_FileID_Sort>
7518

> <TS_ChemName>
Epristeride

> <TS_ChemName_Synonyms>


> <TS_CASRN>
119169-78-7

> <CASRN_ChemName_Relationship>
primary

> <TS_Description>
single chemical compound

> <ChemNote>
stereochem

> <STRUCTURE_Shown>
tested chemical

> <STRUCTURE_Formula>
C25H37NO3

> <STRUCTURE_MW>
399.5662

> <STRUCTURE_ChemType>
defined organic

> <STRUCTURE_DefinedOrganicForm>
parent

> <STRUCTURE_IUPAC>
(17beta)-17-(tert-butylcarbamoyl)androsta-3,5-diene-3-carboxylic acid

> <STRUCTURE_SMILES>
CC(C)(C)NC(=O)[C@H]2CC[C@H]3[C@@H]4CC=C1C=C(CC[C@]1(C)[C@H]4CC[C@]23C)C(=O)O

> <STRUCTURE_SMILES_Desalt>
CC(C)(C)NC(=O)[C@H]2CC[C@H]3[C@@H]4CC=C1C=C(CC[C@]1(C)[C@H]4CC[C@]23C)C(=O)O

> <Substance_modify_yyyymmdd>
20111015

$$$$
