1191-16-8
ChemmineR-0915142007XD

  9  8  0  0  0  0  0  0  0  0  1 V2000
    3.4657   -1.3308    0.0000 C   0  0  0  0  0  0  0  0  0  0  0  0
    2.2943   -1.9893    0.0000 C   0  0  0  0  0  0  0  0  0  0  0  0
    4.6232   -1.9893    0.0000 O   0  0  0  0  0  0  0  0  0  0  0  0
    1.1367   -1.3308    0.0000 C   0  0  0  0  0  0  0  0  0  0  0  0
    5.7738   -1.3308    0.0000 C   0  0  0  0  0  0  0  0  0  0  0  0
    0.0000   -1.9893    0.0000 C   0  0  0  0  0  0  0  0  0  0  0  0
    1.1367    0.0000    0.0000 C   0  0  0  0  0  0  0  0  0  0  0  0
    6.9314   -1.9893    0.0000 C   0  0  0  0  0  0  0  0  0  0  0  0
    5.7738    0.0000    0.0000 O   0  0  0  0  0  0  0  0  0  0  0  0
  1  2  1  0  0  0  0
  1  3  1  0  0  0  0
  2  4  2  0  0  0  0
  3  5  1  0  0  0  0
  4  6  1  0  0  0  0
  4  7  1  0  0  0  0
  5  8  1  0  0  0  0
  5  9  2  0  0  0  0
M  END
> <ID>
12278

> <Formula>
C7H12O2

> <FW>
128.169

> <DSSTox_CID>
27128

> <DSSTox_RID>
82135

> <DSSTox_GSID>
47128

> <DSSTox_FileID_Sort>
6816

> <TS_ChemName>
3,3-Dimethylallyl acetate

> <TS_ChemName_Synonyms>


> <TS_CASRN>
1191-16-8

> <CASRN_ChemName_Relationship>
primary

> <TS_Description>
single chemical compound

> <ChemNote>


> <STRUCTURE_Shown>
tested chemical

> <STRUCTURE_Formula>
C7H12O2

> <STRUCTURE_MW>
128.169

> <STRUCTURE_ChemType>
defined organic

> <STRUCTURE_DefinedOrganicForm>
parent

> <STRUCTURE_IUPAC>
3-methylbut-2-en-1-yl acetate

> <STRUCTURE_SMILES>
CC(=O)OC\C=C(/C)C

> <STRUCTURE_SMILES_Desalt>
CC(=O)OC\C=C(/C)C

> <Substance_modify_yyyymmdd>
20100502

$$$$
