119356-77-3
ChemmineR-0915142007XD

 23 25  0  0  1  0  0  0  0  0  1 V2000
    1.1515   -4.6430    0.0000 N   0  0  0  0  0  0  0  0  0  0  0  0
    2.3031   -4.0074    0.0000 C   0  0  0  0  0  0  0  0  0  0  0  0
    3.4730   -4.6430    0.0000 C   0  0  0  0  0  0  0  0  0  0  0  0
    4.6062   -4.0074    0.0000 C   0  0  0  0  0  0  0  0  0  0  0  0
    5.7761   -4.6430    0.0000 O   0  0  0  0  0  0  0  0  0  0  0  0
    5.7761   -5.9696    0.0000 C   0  0  0  0  0  0  0  0  0  0  0  0
    4.6062   -6.6605    0.0000 C   0  0  0  0  0  0  0  0  0  0  0  0
    4.6062   -7.9871    0.0000 C   0  0  0  0  0  0  0  0  0  0  0  0
    5.7761   -8.6411    0.0000 C   0  0  0  0  0  0  0  0  0  0  0  0
    6.9092   -6.6605    0.0000 C   0  0  0  0  0  0  0  0  0  0  0  0
    6.9092   -7.9871    0.0000 C   0  0  0  0  0  0  0  0  0  0  0  0
    8.0792   -8.6411    0.0000 C   0  0  0  0  0  0  0  0  0  0  0  0
    9.2123   -7.9871    0.0000 C   0  0  0  0  0  0  0  0  0  0  0  0
    9.2123   -6.6605    0.0000 C   0  0  0  0  0  0  0  0  0  0  0  0
    8.0792   -5.9696    0.0000 C   0  0  0  0  0  0  0  0  0  0  0  0
    0.0000   -4.0074    0.0000 C   0  0  0  0  0  0  0  0  0  0  0  0
    1.1515   -5.9696    0.0000 C   0  0  0  0  0  0  0  0  0  0  0  0
    2.3031   -2.6716    0.0000 C   0  0  0  0  0  0  0  0  0  0  0  0
    1.1515   -1.9899    0.0000 C   0  0  0  0  0  0  0  0  0  0  0  0
    1.1515   -0.6633    0.0000 C   0  0  0  0  0  0  0  0  0  0  0  0
    2.3031    0.0000    0.0000 C   0  0  0  0  0  0  0  0  0  0  0  0
    3.4730   -0.6633    0.0000 C   0  0  0  0  0  0  0  0  0  0  0  0
    3.4730   -1.9899    0.0000 C   0  0  0  0  0  0  0  0  0  0  0  0
  1 16  1  0  0  0  0
  1 17  1  0  0  0  0
  1  2  1  0  0  0  0
  2  3  1  0  0  0  0
  2 18  1  6  0  0  0
  3  4  1  0  0  0  0
  4  5  1  0  0  0  0
  5  6  1  0  0  0  0
  6  7  2  0  0  0  0
  6 10  1  0  0  0  0
  7  8  1  0  0  0  0
  8  9  2  0  0  0  0
  9 11  1  0  0  0  0
 10 15  1  0  0  0  0
 10 11  2  0  0  0  0
 11 12  1  0  0  0  0
 12 13  2  0  0  0  0
 13 14  1  0  0  0  0
 14 15  2  0  0  0  0
 18 19  2  0  0  0  0
 18 23  1  0  0  0  0
 19 20  1  0  0  0  0
 20 21  2  0  0  0  0
 21 22  1  0  0  0  0
 22 23  2  0  0  0  0
M  END
> <ID>
16258

> <Formula>
C21H23NO

> <FW>
305.4134

> <DSSTox_CID>
31416

> <DSSTox_RID>
97302

> <DSSTox_GSID>
57627

> <DSSTox_FileID_Sort>
8369

> <TS_ChemName>
Dapoxetine

> <TS_ChemName_Synonyms>


> <TS_CASRN>
119356-77-3

> <CASRN_ChemName_Relationship>
primary

> <TS_Description>
single chemical compound

> <ChemNote>


> <STRUCTURE_Shown>
tested chemical

> <STRUCTURE_Formula>
C21H23NO

> <STRUCTURE_MW>
305.4134

> <STRUCTURE_ChemType>
defined organic

> <STRUCTURE_DefinedOrganicForm>
parent

> <STRUCTURE_IUPAC>
(1S)-N,N-dimethyl-3-(1-naphthyloxy)-1-phenylpropan-1-amine

> <STRUCTURE_SMILES>
CN(C)[C@@H](CCOc2cccc1ccccc12)c3ccccc3

> <STRUCTURE_SMILES_Desalt>
CN(C)[C@@H](CCOc2cccc1ccccc12)c3ccccc3

> <Substance_modify_yyyymmdd>
20131018

$$$$
