1193386-64-9
ChemmineR-0915142007XD

 47 49  0  0  0  0  0  0  0  0  1 V2000
    0.0000   -4.5489    0.0000 C   0  0  0  0  0  0  0  0  0  0  0  0
    0.9914   -3.6547    0.0000 C   0  0  0  0  0  0  0  0  0  0  0  0
    2.2550   -4.0629    0.0000 C   0  0  0  0  0  0  0  0  0  0  0  0
    3.2270   -3.1687    0.0000 C   0  0  0  0  0  0  0  0  0  0  0  0
    3.1104   -1.8662    0.0000 N   0  0  0  0  0  0  0  0  0  0  0  0
    4.3157   -1.3219    0.0000 C   0  0  0  0  0  0  0  0  0  0  0  0
    5.1905   -2.2939    0.0000 C   0  0  0  0  0  0  0  0  0  0  0  0
    4.5489   -3.4409    0.0000 N   0  0  0  0  0  0  0  0  0  0  0  0
    5.1905   -4.6073    0.0000 N   0  0  0  0  0  0  0  0  0  0  0  0
    6.5318   -4.6073    0.0000 C   0  0  0  0  0  0  0  0  0  0  0  0
    7.1928   -3.4409    0.0000 N   0  0  0  0  0  0  0  0  0  0  0  0
    6.5318   -2.2939    0.0000 C   0  0  0  0  0  0  0  0  0  0  0  0
    7.1928   -1.1470    0.0000 O   0  0  0  0  0  0  0  0  0  0  0  0
    7.1928   -5.7737    0.0000 C   0  0  0  0  0  0  0  0  0  0  0  0
    8.5536   -5.7737    0.0000 C   0  0  0  0  0  0  0  0  0  0  0  0
    9.1951   -6.9012    0.0000 C   0  0  0  0  0  0  0  0  0  0  0  0
    8.5536   -8.0481    0.0000 C   0  0  0  0  0  0  0  0  0  0  0  0
    7.1928   -8.0481    0.0000 C   0  0  0  0  0  0  0  0  0  0  0  0
    6.5318   -6.9012    0.0000 C   0  0  0  0  0  0  0  0  0  0  0  0
    5.1905   -6.9012    0.0000 O   0  0  0  0  0  0  0  0  0  0  0  0
    4.5489   -8.0481    0.0000 C   0  0  0  0  0  0  0  0  0  0  0  0
    5.2682   -9.1756    0.0000 C   0  0  0  0  0  0  0  0  0  0  0  0
   10.5364   -6.9012    0.0000 S   0  0  0  0  0  0  0  0  0  0  0  0
   11.8584   -6.9012    0.0000 O   0  0  0  0  0  0  0  0  0  0  0  0
   10.5364   -8.2231    0.0000 O   0  0  0  0  0  0  0  0  0  0  0  0
   10.5364   -5.5793    0.0000 N   0  0  0  0  0  0  0  0  0  0  0  0
    9.3700   -4.9183    0.0000 C   0  0  0  0  0  0  0  0  0  0  0  0
    9.3700   -3.5769    0.0000 C   0  0  0  0  0  0  0  0  0  0  0  0
   10.5364   -2.9160    0.0000 N   0  0  0  0  0  0  0  0  0  0  0  0
   10.5364   -1.5941    0.0000 C   0  0  0  0  0  0  0  0  0  0  0  0
   11.6445   -0.8748    0.0000 C   0  0  0  0  0  0  0  0  0  0  0  0
   11.6834   -3.5769    0.0000 C   0  0  0  0  0  0  0  0  0  0  0  0
   11.6834   -4.9183    0.0000 C   0  0  0  0  0  0  0  0  0  0  0  0
    4.5878    0.0000    0.0000 C   0  0  0  0  0  0  0  0  0  0  0  0
   16.1351   -4.5684    0.0000 C   0  0  0  0  0  0  0  0  0  0  0  0
   17.4571   -4.5684    0.0000 C   0  0  0  0  0  0  0  0  0  0  0  0
   14.7743   -4.5684    0.0000 C   0  0  0  0  0  0  0  0  0  0  0  0
   16.1351   -5.8903    0.0000 C   0  0  0  0  0  0  0  0  0  0  0  0
   14.9687   -6.5513    0.0000 O   0  0  0  0  0  0  0  0  0  0  0  0
   14.1328   -3.4409    0.0000 C   0  0  0  0  0  0  0  0  0  0  0  0
   12.7915   -3.4409    0.0000 O   0  0  0  0  0  0  0  0  0  0  0  0
   14.7743   -2.2550    0.0000 O   0  0  0  0  0  0  0  0  0  0  0  0
   18.1180   -3.4214    0.0000 C   0  0  0  0  0  0  0  0  0  0  0  0
   17.4376   -2.2550    0.0000 O   0  0  0  0  0  0  0  0  0  0  0  0
   19.4399   -3.4214    0.0000 O   0  0  0  0  0  0  0  0  0  0  0  0
   16.1351   -3.2465    0.0000 O   0  0  0  0  0  0  0  0  0  0  0  0
   17.2821   -6.5513    0.0000 O   0  0  0  0  0  0  0  0  0  0  0  0
  1  2  1  0  0  0  0
  2  3  1  0  0  0  0
  3  4  1  0  0  0  0
  4  5  2  0  0  0  0
  4  8  1  0  0  0  0
  5  6  1  0  0  0  0
  6  7  2  0  0  0  0
  6 34  1  0  0  0  0
  7  8  1  0  0  0  0
  7 12  1  0  0  0  0
  8  9  1  0  0  0  0
  9 10  1  0  0  0  0
 10 11  2  0  0  0  0
 10 14  1  0  0  0  0
 11 12  1  0  0  0  0
 12 13  2  0  0  0  0
 14 15  2  0  0  0  0
 14 19  1  0  0  0  0
 15 16  1  0  0  0  0
 16 17  2  0  0  0  0
 16 23  1  0  0  0  0
 17 18  1  0  0  0  0
 18 19  2  0  0  0  0
 19 20  1  0  0  0  0
 20 21  1  0  0  0  0
 21 22  1  0  0  0  0
 23 24  2  0  0  0  0
 23 25  2  0  0  0  0
 23 26  1  0  0  0  0
 26 27  1  0  0  0  0
 26 33  1  0  0  0  0
 27 28  1  0  0  0  0
 28 29  1  0  0  0  0
 29 30  1  0  0  0  0
 29 32  1  0  0  0  0
 30 31  1  0  0  0  0
 32 33  1  0  0  0  0
 35 38  1  0  0  0  0
 35 37  1  0  0  0  0
 35 46  1  0  0  0  0
 35 36  1  0  0  0  0
 36 43  1  0  0  0  0
 37 40  1  0  0  0  0
 38 39  1  0  0  0  0
 38 47  2  0  0  0  0
 40 41  1  0  0  0  0
 40 42  2  0  0  0  0
 43 44  2  0  0  0  0
 43 45  1  0  0  0  0
M  END
> <ID>
11894

> <Formula>
C29H40N6O11S

> <FW>
680.7265 (488.6030+192.1235)

> <DSSTox_CID>
26696

> <DSSTox_RID>
81830

> <DSSTox_GSID>
46696

> <DSSTox_FileID_Sort>
6511

> <TS_ChemName>
Vardenafil citrate

> <TS_ChemName_Synonyms>


> <TS_CASRN>
1193386-64-9

> <CASRN_ChemName_Relationship>
primary

> <TS_Description>
single chemical compound

> <ChemNote>
parent [224785-90-4]

> <STRUCTURE_Shown>
tested chemical

> <STRUCTURE_Formula>
C29H40N6O11S

> <STRUCTURE_MW>
680.7265

> <STRUCTURE_ChemType>
defined organic

> <STRUCTURE_DefinedOrganicForm>
complex

> <STRUCTURE_IUPAC>
2-{2-ethoxy-5-[(4-ethylpiperazin-1-yl)sulfonyl]phenyl}-5-methyl-7-propylimidazo[5,1-f][1,2,4]triazin-4(1H)-one 2-hydroxypropane-1,2,3-tricarboxylate (1:1)

> <STRUCTURE_SMILES>
O=C(O)C(O)(CC(=O)O)CC(=O)O.CCN1CCN(CC1)S(=O)(=O)c4cc(C2=NC(=O)c3c(C)nc(CCC)n3N2)c(OCC)cc4

> <STRUCTURE_SMILES_Desalt>
CCN1CCN(CC1)S(=O)(=O)c4cc(C2=NC(=O)c3c(C)nc(CCC)n3N2)c(OCC)cc4

> <Substance_modify_yyyymmdd>
20110808

$$$$
