1193-18-6
ChemmineR-0915142007XD

  8  8  0  0  0  0  0  0  0  0  1 V2000
    2.3043   -0.6737    0.0000 C   0  0  0  0  0  0  0  0  0  0  0  0
    2.3043   -2.0013    0.0000 C   0  0  0  0  0  0  0  0  0  0  0  0
    1.1521   -2.6591    0.0000 C   0  0  0  0  0  0  0  0  0  0  0  0
    0.0000   -2.0013    0.0000 C   0  0  0  0  0  0  0  0  0  0  0  0
    0.0000   -0.6737    0.0000 C   0  0  0  0  0  0  0  0  0  0  0  0
    1.1521    0.0000    0.0000 C   0  0  0  0  0  0  0  0  0  0  0  0
    3.4564    0.0000    0.0000 O   0  0  0  0  0  0  0  0  0  0  0  0
    1.1521   -3.9866    0.0000 C   0  0  0  0  0  0  0  0  0  0  0  0
  1  2  1  0  0  0  0
  1  6  1  0  0  0  0
  1  7  2  0  0  0  0
  2  3  2  0  0  0  0
  3  4  1  0  0  0  0
  3  8  1  0  0  0  0
  4  5  1  0  0  0  0
  5  6  1  0  0  0  0
M  END
> <ID>
7001

> <Formula>
C7H10O

> <FW>
110.1537

> <DSSTox_CID>
15186

> <DSSTox_RID>
79246

> <DSSTox_GSID>
35186

> <DSSTox_FileID_Sort>
3928

> <TS_ChemName>
3-Methyl-2-cyclohexen-1-one

> <TS_ChemName_Synonyms>


> <TS_CASRN>
1193-18-6

> <CASRN_ChemName_Relationship>
primary

> <TS_Description>
single chemical compound

> <ChemNote>


> <STRUCTURE_Shown>
tested chemical

> <STRUCTURE_Formula>
C7H10O

> <STRUCTURE_MW>
110.1537

> <STRUCTURE_ChemType>
defined organic

> <STRUCTURE_DefinedOrganicForm>
parent

> <STRUCTURE_IUPAC>
3-methylcyclohex-2-en-1-one

> <STRUCTURE_SMILES>
CC=1CCCC(=O)C=1

> <STRUCTURE_SMILES_Desalt>
CC=1CCCC(=O)C=1

> <Substance_modify_yyyymmdd>
20080429

$$$$
