119313-12-1
ChemmineR-0915142007XD

 27 29  0  0  0  0  0  0  0  0  1 V2000
    8.6398   -3.3331    0.0000 C   0  0  0  0  0  0  0  0  0  0  0  0
    7.9732   -4.4964    0.0000 C   0  0  0  0  0  0  0  0  0  0  0  0
    9.3195   -2.1959    0.0000 C   0  0  0  0  0  0  0  0  0  0  0  0
    9.8031   -4.0127    0.0000 N   0  0  0  0  0  0  0  0  0  0  0  0
    7.4896   -2.6795    0.0000 C   0  0  0  0  0  0  0  0  0  0  0  0
    8.6267   -5.6466    0.0000 O   0  0  0  0  0  0  0  0  0  0  0  0
    6.6530   -4.4702    0.0000 C   0  0  0  0  0  0  0  0  0  0  0  0
   10.5743   -1.7515    0.0000 C   0  0  0  0  0  0  0  0  0  0  0  0
   10.9533   -3.3592    0.0000 C   0  0  0  0  0  0  0  0  0  0  0  0
    9.7770   -5.3460    0.0000 C   0  0  0  0  0  0  0  0  0  0  0  0
    7.5026   -1.3463    0.0000 C   0  0  0  0  0  0  0  0  0  0  0  0
    5.9864   -5.6335    0.0000 C   0  0  0  0  0  0  0  0  0  0  0  0
    5.9995   -3.3331    0.0000 C   0  0  0  0  0  0  0  0  0  0  0  0
   11.5807   -2.6142    0.0000 C   0  0  0  0  0  0  0  0  0  0  0  0
   10.8096   -0.4444    0.0000 C   0  0  0  0  0  0  0  0  0  0  0  0
    4.6532   -5.6335    0.0000 C   0  0  0  0  0  0  0  0  0  0  0  0
    4.6663   -3.3331    0.0000 C   0  0  0  0  0  0  0  0  0  0  0  0
   12.8355   -2.1698    0.0000 C   0  0  0  0  0  0  0  0  0  0  0  0
   12.0644    0.0000    0.0000 C   0  0  0  0  0  0  0  0  0  0  0  0
    3.9997   -4.4702    0.0000 C   0  0  0  0  0  0  0  0  0  0  0  0
   13.0708   -0.8627    0.0000 C   0  0  0  0  0  0  0  0  0  0  0  0
    2.6664   -4.4702    0.0000 N   0  0  0  0  0  0  0  0  0  0  0  0
    1.9868   -5.6205    0.0000 C   0  0  0  0  0  0  0  0  0  0  0  0
    1.9868   -3.3200    0.0000 C   0  0  0  0  0  0  0  0  0  0  0  0
    0.6535   -5.6205    0.0000 C   0  0  0  0  0  0  0  0  0  0  0  0
    0.6535   -3.3069    0.0000 C   0  0  0  0  0  0  0  0  0  0  0  0
    0.0000   -4.4571    0.0000 O   0  0  0  0  0  0  0  0  0  0  0  0
  1  2  1  0  0  0  0
  1  3  1  0  0  0  0
  1  4  1  0  0  0  0
  1  5  1  0  0  0  0
  2  6  2  0  0  0  0
  2  7  1  0  0  0  0
  3  8  1  0  0  0  0
  4  9  1  0  0  0  0
  4 10  1  0  0  0  0
  5 11  1  0  0  0  0
  7 12  2  0  0  0  0
  7 13  1  0  0  0  0
  8 14  2  0  0  0  0
  8 15  1  0  0  0  0
 12 16  1  0  0  0  0
 13 17  2  0  0  0  0
 14 18  1  0  0  0  0
 15 19  2  0  0  0  0
 16 20  2  0  0  0  0
 17 20  1  0  0  0  0
 18 21  2  0  0  0  0
 19 21  1  0  0  0  0
 20 22  1  0  0  0  0
 22 23  1  0  0  0  0
 22 24  1  0  0  0  0
 23 25  1  0  0  0  0
 24 26  1  0  0  0  0
 25 27  1  0  0  0  0
 26 27  1  0  0  0  0
M  END
> <ID>
10436

> <Formula>
C23H30N2O2

> <FW>
366.4965

> <DSSTox_CID>
24786

> <DSSTox_RID>
80475

> <DSSTox_GSID>
44786

> <DSSTox_FileID_Sort>
5157

> <TS_ChemName>
2-Benzyl-2-(dimethylamino)-1-[4-(morpholin-4-yl)phenyl]butan-1-one

> <TS_ChemName_Synonyms>
2-Benzyl-2-(dimethylamino)-1-[4-(morpholin-4-yl)phenyl]butan-1-one (1-Butanone, 2-(dimethylamino)-1-[4-(4-morpholinyl)phenyl]-2-(phenylmethyl)-)

> <TS_CASRN>
119313-12-1

> <CASRN_ChemName_Relationship>
primary

> <TS_Description>
single chemical compound

> <ChemNote>


> <STRUCTURE_Shown>
tested chemical

> <STRUCTURE_Formula>
C23H30N2O2

> <STRUCTURE_MW>
366.4965

> <STRUCTURE_ChemType>
defined organic

> <STRUCTURE_DefinedOrganicForm>
parent

> <STRUCTURE_IUPAC>
2-benzyl-2-(dimethylamino)-1-[4-(morpholin-4-yl)phenyl]butan-1-one

> <STRUCTURE_SMILES>
CN(C)C(Cc1ccccc1)(CC)C(=O)c2ccc(cc2)N3CCOCC3

> <STRUCTURE_SMILES_Desalt>
CN(C)C(Cc1ccccc1)(CC)C(=O)c2ccc(cc2)N3CCOCC3

> <Substance_modify_yyyymmdd>
20091116

$$$$
