119446-68-3
ChemmineR-0915142007XD

 27 30  0  0  0  0  0  0  0  0  1 V2000
    4.1368   -7.9233    0.0000 C    0  0  0  0  0  0  0  0  0  0  0  0
    5.3078   -7.2777    0.0000 C    0  0  0  0  0  0  0  0  0  0  0  0
    3.4145   -6.7852    0.0000 C    0  0  0  0  0  0  0  0  0  0  0  0
    2.0903   -6.7961    0.0000 N    0  0  0  0  0  0  0  0  0  0  0  0
    5.2640   -8.6894    0.0000 O    0  0  0  0  0  0  0  0  0  0  0  0
    0.0000   -6.1286    0.0000 N    0  0  0  0  0  0  0  0  0  0  0  0
    3.1299   -8.8098    0.0000 O    0  0  0  0  0  0  0  0  0  0  0  0
    6.4131   -7.9233    0.0000 C    0  0  0  0  0  0  0  0  0  0  0  0
    1.2914   -7.8796    0.0000 N    0  0  0  0  0  0  0  0  0  0  0  0
    0.0000   -7.5184    0.0000 C    0  0  0  0  0  0  0  0  0  0  0  0
    1.2914   -5.7455    0.0000 C    0  0  0  0  0  0  0  0  0  0  0  0
    7.6279   -7.3433    0.0000 C    0  0  0  0  0  0  0  0  0  0  0  0
    5.3078   -5.9644    0.0000 C    0  0  0  0  0  0  0  0  0  0  0  0
    7.6279   -6.0191    0.0000 C    0  0  0  0  0  0  0  0  0  0  0  0
    8.7770   -5.2968    0.0000 O    0  0  0  0  0  0  0  0  0  0  0  0
    3.5786   -9.9917    0.0000 C    0  0  0  0  0  0  0  0  0  0  0  0
    6.4131   -9.2476    0.0000 Cl   0  0  0  0  0  0  0  0  0  0  0  0
    4.9028   -9.9917    0.0000 C    0  0  0  0  0  0  0  0  0  0  0  0
    6.4569   -5.2968    0.0000 C    0  0  0  0  0  0  0  0  0  0  0  0
    8.7770   -3.9836    0.0000 C    0  0  0  0  0  0  0  0  0  0  0  0
    8.7770   -1.3133    0.0000 C    0  0  0  0  0  0  0  0  0  0  0  0
    8.7770    0.0000    0.0000 Cl   0  0  0  0  0  0  0  0  0  0  0  0
    7.6279   -3.2832    0.0000 C    0  0  0  0  0  0  0  0  0  0  0  0
    9.9261   -3.2832    0.0000 C    0  0  0  0  0  0  0  0  0  0  0  0
    7.6279   -1.9589    0.0000 C    0  0  0  0  0  0  0  0  0  0  0  0
    9.9261   -1.9589    0.0000 C    0  0  0  0  0  0  0  0  0  0  0  0
    5.7127  -10.9439    0.0000 C    0  0  0  0  0  0  0  0  0  0  0  0
  1  2  1  0  0  0  0
  1  3  1  0  0  0  0
  1  5  1  0  0  0  0
  1  7  1  0  0  0  0
  2  8  2  0  0  0  0
  2 13  1  0  0  0  0
  3  4  1  0  0  0  0
  4  9  1  0  0  0  0
  4 11  1  0  0  0  0
  5 18  1  0  0  0  0
  6 11  2  0  0  0  0
  6 10  1  0  0  0  0
  7 16  1  0  0  0  0
  8 12  1  0  0  0  0
  8 17  1  0  0  0  0
  9 10  2  0  0  0  0
 12 14  2  0  0  0  0
 13 19  2  0  0  0  0
 14 19  1  0  0  0  0
 14 15  1  0  0  0  0
 15 20  1  0  0  0  0
 16 18  1  0  0  0  0
 18 27  1  0  0  0  0
 20 23  1  0  0  0  0
 20 24  2  0  0  0  0
 21 25  1  0  0  0  0
 21 22  1  0  0  0  0
 21 26  2  0  0  0  0
 23 25  2  0  0  0  0
 24 26  1  0  0  0  0
M  END
> <ID>
6437

> <Formula>
C19H17Cl2N3O3

> <FW>
406.2626

> <DSSTox_CID>
12372

> <DSSTox_RID>
78928

> <DSSTox_GSID>
32372

> <DSSTox_FileID_Sort>
3610

> <TS_ChemName>
Difenoconazole

> <TS_ChemName_Synonyms>


> <TS_CASRN>
119446-68-3

> <CASRN_ChemName_Relationship>
primary

> <TS_Description>
single chemical compound

> <ChemNote>
mixture of stereoisomers [(2S,4R)/(2R,4S)]/[2R,4R/2S,4S)] (cis/trans) approx. 0.7 to1.5; structure shown without stereochem

> <STRUCTURE_Shown>
tested chemical

> <STRUCTURE_Formula>
C19H17Cl2N3O3

> <STRUCTURE_MW>
406.2626

> <STRUCTURE_ChemType>
defined organic

> <STRUCTURE_DefinedOrganicForm>
parent

> <STRUCTURE_IUPAC>
1-({2-[2-chloro-4-(4-chlorophenoxy)phenyl]-4-methyl-1,3-dioxolan-2-yl}methyl)-1H-1,2,4-triazole

> <STRUCTURE_SMILES>
Clc1ccc(cc1)Oc2ccc(c(Cl)c2)C4(Cn3ncnc3)OCC(C)O4

> <STRUCTURE_SMILES_Desalt>
Clc1ccc(cc1)Oc2ccc(c(Cl)c2)C4(Cn3ncnc3)OCC(C)O4

> <Substance_modify_yyyymmdd>
20080429

$$$$
