119413-54-6
ChemmineR-0915142007XD

 32 35  0  0  1  0  0  0  0  0  1 V2000
   14.1937   -3.7897    0.0000 Cl   0  0  0  0  0  0  0  0  0  0  0  0
   12.5472   -1.3058    0.0000 C    0  0  0  0  0  0  0  0  0  0  0  0
   11.2272   -1.3058    0.0000 C    0  0  0  0  0  0  0  0  0  0  0  0
   10.5601   -2.4555    0.0000 C    0  0  0  0  0  0  0  0  0  0  0  0
    9.8930   -1.3058    0.0000 O    0  0  0  0  0  0  0  0  0  0  0  0
   11.7098   -3.1226    0.0000 C    0  0  0  0  0  0  0  0  0  0  0  0
   12.8595   -2.4555    0.0000 O    0  0  0  0  0  0  0  0  0  0  0  0
   11.7098   -4.4426    0.0000 O    0  0  0  0  0  0  0  0  0  0  0  0
   10.5601   -5.1097    0.0000 C    0  0  0  0  0  0  0  0  0  0  0  0
    9.4104   -4.4426    0.0000 C    0  0  0  0  0  0  0  0  0  0  0  0
    9.4104   -3.1226    0.0000 C    0  0  0  0  0  0  0  0  0  0  0  0
    8.2465   -2.4555    0.0000 C    0  0  0  0  0  0  0  0  0  0  0  0
    7.0968   -3.1226    0.0000 C    0  0  0  0  0  0  0  0  0  0  0  0
    7.0968   -4.4426    0.0000 N    0  0  0  0  0  0  0  0  0  0  0  0
    5.8336   -4.8542    0.0000 C    0  0  0  0  0  0  0  0  0  0  0  0
    5.0530   -3.7897    0.0000 C    0  0  0  0  0  0  0  0  0  0  0  0
    5.8336   -2.7110    0.0000 C    0  0  0  0  0  0  0  0  0  0  0  0
    5.2942   -1.4903    0.0000 N    0  0  0  0  0  0  0  0  0  0  0  0
    3.9742   -1.3484    0.0000 C    0  0  0  0  0  0  0  0  0  0  0  0
    3.4349   -0.1419    0.0000 C    0  0  0  0  0  0  0  0  0  0  0  0
    2.1007    0.0000    0.0000 C    0  0  0  0  0  0  0  0  0  0  0  0
    1.3200   -1.0787    0.0000 C    0  0  0  0  0  0  0  0  0  0  0  0
    1.8594   -2.2852    0.0000 C    0  0  0  0  0  0  0  0  0  0  0  0
    1.0787   -3.3639    0.0000 C    0  0  0  0  0  0  0  0  0  0  0  0
    1.6181   -4.5846    0.0000 N    0  0  0  0  0  0  0  0  0  0  0  0
    0.8374   -5.6633    0.0000 C    0  0  0  0  0  0  0  0  0  0  0  0
    2.9523   -4.7265    0.0000 C    0  0  0  0  0  0  0  0  0  0  0  0
    3.1936   -2.4271    0.0000 C    0  0  0  0  0  0  0  0  0  0  0  0
    3.7329   -3.6478    0.0000 C    0  0  0  0  0  0  0  0  0  0  0  0
    0.0000   -0.9368    0.0000 O    0  0  0  0  0  0  0  0  0  0  0  0
    8.2465   -5.1097    0.0000 C    0  0  0  0  0  0  0  0  0  0  0  0
    8.2465   -6.4439    0.0000 O    0  0  0  0  0  0  0  0  0  0  0  0
  2  3  1  0  0  0  0
  3  4  1  0  0  0  0
  4  5  1  6  0  0  0
  4  6  1  0  0  0  0
  4 11  1  0  0  0  0
  6  7  2  0  0  0  0
  6  8  1  0  0  0  0
  8  9  1  0  0  0  0
  9 10  1  0  0  0  0
 10 11  2  0  0  0  0
 10 31  1  0  0  0  0
 11 12  1  0  0  0  0
 12 13  2  0  0  0  0
 13 14  1  0  0  0  0
 13 17  1  0  0  0  0
 14 15  1  0  0  0  0
 14 31  1  0  0  0  0
 15 16  1  0  0  0  0
 16 17  2  0  0  0  0
 16 29  1  0  0  0  0
 17 18  1  0  0  0  0
 18 19  2  0  0  0  0
 19 20  1  0  0  0  0
 19 28  1  0  0  0  0
 20 21  2  0  0  0  0
 21 22  1  0  0  0  0
 22 23  2  0  0  0  0
 22 30  1  0  0  0  0
 23 24  1  0  0  0  0
 23 28  1  0  0  0  0
 24 25  1  0  0  0  0
 25 26  1  0  0  0  0
 25 27  1  0  0  0  0
 28 29  2  0  0  0  0
 31 32  2  0  0  0  0
M  END
> <ID>
11316

> <Formula>
C23H24ClN3O5

> <FW>
457.9068 (36.4609+421.4458)

> <DSSTox_CID>
25952

> <DSSTox_RID>
81248

> <DSSTox_GSID>
45952

> <DSSTox_FileID_Sort>
5929

> <TS_ChemName>
Topotecan hydrochloride

> <TS_ChemName_Synonyms>


> <TS_CASRN>
119413-54-6

> <CASRN_ChemName_Relationship>
primary

> <TS_Description>
single chemical compound

> <ChemNote>
stereochem; parent [123948-87-8]

> <STRUCTURE_Shown>
tested chemical

> <STRUCTURE_Formula>
C23H24ClN3O5

> <STRUCTURE_MW>
457.9068

> <STRUCTURE_ChemType>
defined organic

> <STRUCTURE_DefinedOrganicForm>
complex

> <STRUCTURE_IUPAC>
(4S)-10-[(dimethylamino)methyl]-4-ethyl-4,9-dihydroxy-1H-pyrano[3',4':6,7]indolizino[1,2-b]quinoline-3,14(4H,12H)-dione hydrochloride (1:1)

> <STRUCTURE_SMILES>
Cl.CN(C)Cc1c2cc3CN4C(=O)C=5COC(=O)[C@](O)(CC)C=5C=C4c3nc2ccc1O

> <STRUCTURE_SMILES_Desalt>
CN(C)Cc1c2cc3CN4C(=O)C=5COC(=O)[C@](O)(CC)C=5C=C4c3nc2ccc1O

> <Substance_modify_yyyymmdd>
20110930

$$$$
