119431-25-3
ChemmineR-0915142007XD

 24 26  0  0  0  0  0  0  0  0  1 V2000
   11.5345   -0.6900    0.0000 C    0  0  0  0  0  0  0  0  0  0  0  0
   11.5345   -2.0099    0.0000 C    0  0  0  0  0  0  0  0  0  0  0  0
   12.6895    0.0000    0.0000 C    0  0  0  0  0  0  0  0  0  0  0  0
   12.6895   -2.6549    0.0000 C    0  0  0  0  0  0  0  0  0  0  0  0
   13.8444   -0.6900    0.0000 C    0  0  0  0  0  0  0  0  0  0  0  0
   13.8444   -2.0099    0.0000 C    0  0  0  0  0  0  0  0  0  0  0  0
   14.9994   -2.6549    0.0000 F    0  0  0  0  0  0  0  0  0  0  0  0
   10.3796    0.0000    0.0000 C    0  0  0  0  0  0  0  0  0  0  0  0
    9.2246   -0.6750    0.0000 C    0  0  0  0  0  0  0  0  0  0  0  0
    8.0697    0.0000    0.0000 C    0  0  0  0  0  0  0  0  0  0  0  0
    9.2246   -2.0099    0.0000 C    0  0  0  0  0  0  0  0  0  0  0  0
    6.9297   -0.6900    0.0000 C    0  0  0  0  0  0  0  0  0  0  0  0
    8.0697   -2.6549    0.0000 C    0  0  0  0  0  0  0  0  0  0  0  0
    6.9297   -2.0099    0.0000 N    0  0  0  0  0  0  0  0  0  0  0  0
    5.7748   -2.6549    0.0000 C    0  0  0  0  0  0  0  0  0  0  0  0
    4.6198   -2.0099    0.0000 C    0  0  0  0  0  0  0  0  0  0  0  0
    4.6198   -0.6900    0.0000 O    0  0  0  0  0  0  0  0  0  0  0  0
    3.4649   -2.6549    0.0000 C    0  0  0  0  0  0  0  0  0  0  0  0
    2.3099   -2.0099    0.0000 C    0  0  0  0  0  0  0  0  0  0  0  0
    3.4649   -3.9898    0.0000 C    0  0  0  0  0  0  0  0  0  0  0  0
    1.1550   -2.6549    0.0000 C    0  0  0  0  0  0  0  0  0  0  0  0
    2.3099   -4.6798    0.0000 C    0  0  0  0  0  0  0  0  0  0  0  0
    1.1550   -3.9898    0.0000 C    0  0  0  0  0  0  0  0  0  0  0  0
    0.0000   -4.6798    0.0000 Cl   0  0  0  0  0  0  0  0  0  0  0  0
  1  2  1  0  0  0  0
  1  3  2  0  0  0  0
  1  8  1  0  0  0  0
  2  4  2  0  0  0  0
  3  5  1  0  0  0  0
  4  6  1  0  0  0  0
  5  6  2  0  0  0  0
  6  7  1  0  0  0  0
  8  9  1  0  0  0  0
  9 10  1  0  0  0  0
  9 11  1  0  0  0  0
 10 12  1  0  0  0  0
 11 13  1  0  0  0  0
 12 14  1  0  0  0  0
 13 14  1  0  0  0  0
 14 15  1  0  0  0  0
 15 16  1  0  0  0  0
 16 17  1  0  0  0  0
 16 18  1  0  0  0  0
 18 19  1  0  0  0  0
 18 20  2  0  0  0  0
 19 21  2  0  0  0  0
 20 22  1  0  0  0  0
 21 23  1  0  0  0  0
 22 23  2  0  0  0  0
 23 24  1  0  0  0  0
M  END
> <ID>
11157

> <Formula>
C20H23ClFNO

> <FW>
347.8541

> <DSSTox_CID>
25744

> <DSSTox_RID>
81089

> <DSSTox_GSID>
45744

> <DSSTox_FileID_Sort>
5770

> <TS_ChemName>
Eliprodil

> <TS_ChemName_Synonyms>


> <TS_CASRN>
119431-25-3

> <CASRN_ChemName_Relationship>
primary

> <TS_Description>
single chemical compound

> <ChemNote>


> <STRUCTURE_Shown>
tested chemical

> <STRUCTURE_Formula>
C20H23ClFNO

> <STRUCTURE_MW>
347.8541

> <STRUCTURE_ChemType>
defined organic

> <STRUCTURE_DefinedOrganicForm>
parent

> <STRUCTURE_IUPAC>
1-(4-chlorophenyl)-2-[4-(4-fluorobenzyl)piperidin-1-yl]ethanol

> <STRUCTURE_SMILES>
OC(CN1CCC(CC1)Cc2ccc(F)cc2)c3ccc(Cl)cc3

> <STRUCTURE_SMILES_Desalt>
OC(CN1CCC(CC1)Cc2ccc(F)cc2)c3ccc(Cl)cc3

> <Substance_modify_yyyymmdd>
20110826

$$$$
