1195-16-0
ChemmineR-0915142007XD

 10 10  0  0  0  0  0  0  0  0  1 V2000
    1.0896   -2.0350    0.0000 C   0  0  0  0  0  0  0  0  0  0  0  0
    3.4331   -1.6519    0.0000 N   0  0  0  0  0  0  0  0  0  0  0  0
    2.1643   -1.2488    0.0000 C   0  0  0  0  0  0  0  0  0  0  0  0
    0.0000   -1.2488    0.0000 S   0  0  0  0  0  0  0  0  0  0  0  0
    3.6918   -2.9853    0.0000 C   0  0  0  0  0  0  0  0  0  0  0  0
    1.0896   -3.3684    0.0000 O   0  0  0  0  0  0  0  0  0  0  0  0
    2.7266   -3.8510    0.0000 O   0  0  0  0  0  0  0  0  0  0  0  0
    1.7514    0.0000    0.0000 C   0  0  0  0  0  0  0  0  0  0  0  0
    0.4179    0.0000    0.0000 C   0  0  0  0  0  0  0  0  0  0  0  0
    4.9755   -3.3684    0.0000 C   0  0  0  0  0  0  0  0  0  0  0  0
  1  3  1  0  0  0  0
  1  4  1  0  0  0  0
  1  6  2  0  0  0  0
  2  3  1  0  0  0  0
  2  5  1  0  0  0  0
  3  8  1  0  0  0  0
  4  9  1  0  0  0  0
  5  7  2  0  0  0  0
  5 10  1  0  0  0  0
  8  9  1  0  0  0  0
M  END
> <ID>
11270

> <Formula>
C6H9NO2S

> <FW>
159.2062

> <DSSTox_CID>
25888

> <DSSTox_RID>
81202

> <DSSTox_GSID>
45888

> <DSSTox_FileID_Sort>
5883

> <TS_ChemName>
Citiolone

> <TS_ChemName_Synonyms>


> <TS_CASRN>
1195-16-0

> <CASRN_ChemName_Relationship>
primary

> <TS_Description>
single chemical compound

> <ChemNote>


> <STRUCTURE_Shown>
tested chemical

> <STRUCTURE_Formula>
C6H9NO2S

> <STRUCTURE_MW>
159.2062

> <STRUCTURE_ChemType>
defined organic

> <STRUCTURE_DefinedOrganicForm>
parent

> <STRUCTURE_IUPAC>
N-(2-oxotetrahydrothiophen-3-yl)acetamide

> <STRUCTURE_SMILES>
O=C1SCCC1NC(=O)C

> <STRUCTURE_SMILES_Desalt>
O=C1SCCC1NC(=O)C

> <Substance_modify_yyyymmdd>
20122020

$$$$
