119515-38-7
ChemmineR-0915142007XD

 16 16  0  0  0  0  0  0  0  0  1 V2000
    3.4492   -3.9804    0.0000 N   0  0  0  0  0  0  0  0  0  0  0  0
    4.6495   -4.6357    0.0000 C   0  0  0  0  0  0  0  0  0  0  0  0
    2.3179   -4.6357    0.0000 C   0  0  0  0  0  0  0  0  0  0  0  0
    4.6495   -5.9602    0.0000 C   0  0  0  0  0  0  0  0  0  0  0  0
    2.3179   -5.9602    0.0000 C   0  0  0  0  0  0  0  0  0  0  0  0
    3.4492   -6.6294    0.0000 C   0  0  0  0  0  0  0  0  0  0  0  0
    3.4492   -2.6559    0.0000 C   0  0  0  0  0  0  0  0  0  0  0  0
    4.6150   -1.9798    0.0000 O   0  0  0  0  0  0  0  0  0  0  0  0
    2.3179   -1.9798    0.0000 O   0  0  0  0  0  0  0  0  0  0  0  0
    5.7671   -3.9321    0.0000 C   0  0  0  0  0  0  0  0  0  0  0  0
    5.7671   -2.6076    0.0000 C   0  0  0  0  0  0  0  0  0  0  0  0
    6.8984   -1.9523    0.0000 O   0  0  0  0  0  0  0  0  0  0  0  0
    2.3179   -0.6553    0.0000 C   0  0  0  0  0  0  0  0  0  0  0  0
    1.1658    0.0000    0.0000 C   0  0  0  0  0  0  0  0  0  0  0  0
    0.0000   -0.6553    0.0000 C   0  0  0  0  0  0  0  0  0  0  0  0
    3.4837    0.0000    0.0000 C   0  0  0  0  0  0  0  0  0  0  0  0
  1  2  1  0  0  0  0
  1  3  1  0  0  0  0
  1  7  1  0  0  0  0
  2  4  1  0  0  0  0
  2 10  1  0  0  0  0
  3  5  1  0  0  0  0
  4  6  1  0  0  0  0
  5  6  1  0  0  0  0
  7  8  2  0  0  0  0
  7  9  1  0  0  0  0
  9 13  1  0  0  0  0
 10 11  1  0  0  0  0
 11 12  1  0  0  0  0
 13 14  1  0  0  0  0
 13 16  1  0  0  0  0
 14 15  1  0  0  0  0
M  END
> <ID>
6687

> <Formula>
C12H23NO3

> <FW>
229.3159

> <DSSTox_CID>
14227

> <DSSTox_RID>
79127

> <DSSTox_GSID>
34227

> <DSSTox_FileID_Sort>
3809

> <TS_ChemName>
Icaridin

> <TS_ChemName_Synonyms>
Icaridin (1-Piperidinecarboxylic acid, 2-(2-hydroxyethyl)-, 1-methylpropyl ester) (Picaridin)

> <TS_CASRN>
119515-38-7

> <CASRN_ChemName_Relationship>
primary

> <TS_Description>
single chemical compound

> <ChemNote>
mixture of (1R,S) and (2R,S) stereoisomers; structure shown without stereochem

> <STRUCTURE_Shown>
tested chemical

> <STRUCTURE_Formula>
C12H23NO3

> <STRUCTURE_MW>
229.3159

> <STRUCTURE_ChemType>
defined organic

> <STRUCTURE_DefinedOrganicForm>
parent

> <STRUCTURE_IUPAC>
butan-2-yl 2-(2-hydroxyethyl)piperidine-1-carboxylate

> <STRUCTURE_SMILES>
CC(OC(=O)N1CCCCC1CCO)CC

> <STRUCTURE_SMILES_Desalt>
CC(OC(=O)N1CCCCC1CCO)CC

> <Substance_modify_yyyymmdd>
20080429

$$$$
