1198-77-2
ChemmineR-0915142007XD

 13 13  0  0  0  0  0  0  0  0  2 V2000
    3.4707   -3.3406    0.0000 C    0  0  0  0  0  0  0  0  0  0  0  0
    3.4707   -2.0126    0.0000 C    0  0  0  0  0  0  0  0  0  0  0  0
    2.3001   -3.9978    0.0000 N    0  0  0  0  0  0  0  0  0  0  0  0
    4.7166   -3.7582    0.0000 N    0  5  0  0  0  0  0  0  0  0  0  0
    1.1706   -2.0126    0.0000 N    0  0  0  0  0  0  0  0  0  0  0  0
    2.3001   -1.3417    0.0000 C    0  0  0  0  0  0  0  0  0  0  0  0
    1.1706   -3.3406    0.0000 C    0  0  0  0  0  0  0  0  0  0  0  0
    5.5038   -2.6698    0.0000 C    0  0  0  0  0  0  0  0  0  0  0  0
    4.7166   -1.6019    0.0000 N    0  0  0  0  0  0  0  0  0  0  0  0
    2.3001    0.0000    0.0000 O    0  0  0  0  0  0  0  0  0  0  0  0
    0.0000   -3.9978    0.0000 O    0  0  0  0  0  0  0  0  0  0  0  0
    6.8456   -2.6698    0.0000 O    0  0  0  0  0  0  0  0  0  0  0  0
    6.4143   -3.8404    0.0000 Na   0  3  0  0  0  0  0  0  0  0  0  0
  1  2  2  0  0  0  0
  1  3  1  0  0  0  0
  1  4  1  0  0  0  0
  2  6  1  0  0  0  0
  2  9  1  0  0  0  0
  3  7  1  0  0  0  0
  4  8  1  0  0  0  0
  5  7  1  0  0  0  0
  5  6  1  0  0  0  0
  6 10  2  0  0  0  0
  7 11  2  0  0  0  0
  8 12  2  0  0  0  0
  8  9  1  0  0  0  0
M  END
> <ID>
12003

> <Formula>
C5H3N4NaO3

> <FW>
190.0921 (167.1029+22.9892)

> <DSSTox_CID>
26828

> <DSSTox_RID>
81940

> <DSSTox_GSID>
46828

> <DSSTox_FileID_Sort>
6621

> <TS_ChemName>
Sodium urate

> <TS_ChemName_Synonyms>


> <TS_CASRN>
1198-77-2

> <CASRN_ChemName_Relationship>
primary

> <TS_Description>
single chemical compound

> <ChemNote>
parent [69-93-2]

> <STRUCTURE_Shown>
tested chemical

> <STRUCTURE_Formula>
C5H3N4NaO3

> <STRUCTURE_MW>
190.0921

> <STRUCTURE_ChemType>
defined organic

> <STRUCTURE_DefinedOrganicForm>
salt

> <STRUCTURE_IUPAC>
sodium 2,6,8-trioxo-1,2,3,6,7,8-hexahydropurin-9-ide

> <STRUCTURE_SMILES>
[Na+].O=C1NC(=O)NC=2[N-]C(=O)NC1=2

> <STRUCTURE_SMILES_Desalt>
O=C1NC(=O)NC=2NC(=O)NC1=2

> <Substance_modify_yyyymmdd>
20110731

$$$$
