120-46-7
ChemmineR-0915142007XD

 17 18  0  0  0  0  0  0  0  0  1 V2000
    2.3019   -1.9980    0.0000 C   0  0  0  0  0  0  0  0  0  0  0  0
    2.3019   -3.3331    0.0000 C   0  0  0  0  0  0  0  0  0  0  0  0
    1.1509   -1.3259    0.0000 C   0  0  0  0  0  0  0  0  0  0  0  0
    1.1509   -3.9868    0.0000 C   0  0  0  0  0  0  0  0  0  0  0  0
    0.0000   -1.9980    0.0000 C   0  0  0  0  0  0  0  0  0  0  0  0
    0.0000   -3.3331    0.0000 C   0  0  0  0  0  0  0  0  0  0  0  0
    3.4620   -1.3259    0.0000 C   0  0  0  0  0  0  0  0  0  0  0  0
    4.6129   -1.9888    0.0000 C   0  0  0  0  0  0  0  0  0  0  0  0
    3.4620    0.0000    0.0000 O   0  0  0  0  0  0  0  0  0  0  0  0
    5.7639   -1.3259    0.0000 C   0  0  0  0  0  0  0  0  0  0  0  0
    5.7639    0.0000    0.0000 O   0  0  0  0  0  0  0  0  0  0  0  0
    6.9056   -1.9888    0.0000 C   0  0  0  0  0  0  0  0  0  0  0  0
    8.0565   -1.3259    0.0000 C   0  0  0  0  0  0  0  0  0  0  0  0
    6.9056   -3.3331    0.0000 C   0  0  0  0  0  0  0  0  0  0  0  0
    9.2075   -1.9980    0.0000 C   0  0  0  0  0  0  0  0  0  0  0  0
    8.0565   -3.9868    0.0000 C   0  0  0  0  0  0  0  0  0  0  0  0
    9.2075   -3.3331    0.0000 C   0  0  0  0  0  0  0  0  0  0  0  0
  1  2  1  0  0  0  0
  1  3  2  0  0  0  0
  1  7  1  0  0  0  0
  2  4  2  0  0  0  0
  3  5  1  0  0  0  0
  4  6  1  0  0  0  0
  5  6  2  0  0  0  0
  7  8  1  0  0  0  0
  7  9  2  0  0  0  0
  8 10  1  0  0  0  0
 10 11  2  0  0  0  0
 10 12  1  0  0  0  0
 12 13  1  0  0  0  0
 12 14  2  0  0  0  0
 13 15  2  0  0  0  0
 14 16  1  0  0  0  0
 15 17  1  0  0  0  0
 16 17  2  0  0  0  0
M  END
> <ID>
8220

> <Formula>
C15H12O2

> <FW>
224.2546

> <DSSTox_CID>
21247

> <DSSTox_RID>
79661

> <DSSTox_GSID>
41247

> <DSSTox_FileID_Sort>
4343

> <TS_ChemName>
1,3-Diphenyl-1,3-propanedione

> <TS_ChemName_Synonyms>


> <TS_CASRN>
120-46-7

> <CASRN_ChemName_Relationship>
primary

> <TS_Description>
single chemical compound

> <ChemNote>
tautomers

> <STRUCTURE_Shown>
tested chemical

> <STRUCTURE_Formula>
C15H12O2

> <STRUCTURE_MW>
224.2546

> <STRUCTURE_ChemType>
defined organic

> <STRUCTURE_DefinedOrganicForm>
parent

> <STRUCTURE_IUPAC>
1,3-diphenylpropane-1,3-dione

> <STRUCTURE_SMILES>
O=C(CC(=O)c1ccccc1)c2ccccc2

> <STRUCTURE_SMILES_Desalt>
O=C(CC(=O)c1ccccc1)c2ccccc2

> <Substance_modify_yyyymmdd>
20080825

$$$$
