120-62-7
ChemmineR-0915142007XD

 22 23  0  0  0  0  0  0  0  0  1 V2000
    9.2189    0.0000    0.0000 C   0  0  0  0  0  0  0  0  0  0  0  0
    9.2189   -1.3384    0.0000 C   0  0  0  0  0  0  0  0  0  0  0  0
   10.3697   -2.0014    0.0000 C   0  0  0  0  0  0  0  0  0  0  0  0
   10.3697   -3.3273    0.0000 C   0  0  0  0  0  0  0  0  0  0  0  0
   11.5205   -3.9903    0.0000 C   0  0  0  0  0  0  0  0  0  0  0  0
   11.5205   -5.3287    0.0000 C   0  0  0  0  0  0  0  0  0  0  0  0
   10.3697   -5.9917    0.0000 C   0  0  0  0  0  0  0  0  0  0  0  0
    9.2189   -5.3287    0.0000 C   0  0  0  0  0  0  0  0  0  0  0  0
    9.2189   -3.9903    0.0000 C   0  0  0  0  0  0  0  0  0  0  0  0
   10.6449   -7.2926    0.0000 O   0  0  0  0  0  0  0  0  0  0  0  0
   11.9708   -7.4302    0.0000 C   0  0  0  0  0  0  0  0  0  0  0  0
   12.5087   -6.2168    0.0000 O   0  0  0  0  0  0  0  0  0  0  0  0
    8.0681   -2.0014    0.0000 S   0  0  0  0  0  0  0  0  0  0  0  0
    6.9173   -1.3384    0.0000 O   0  0  0  0  0  0  0  0  0  0  0  0
    8.0681   -3.3273    0.0000 C   0  0  0  0  0  0  0  0  0  0  0  0
    6.9173   -3.9903    0.0000 C   0  0  0  0  0  0  0  0  0  0  0  0
    5.7540   -3.3273    0.0000 C   0  0  0  0  0  0  0  0  0  0  0  0
    4.6032   -3.9903    0.0000 C   0  0  0  0  0  0  0  0  0  0  0  0
    3.4524   -3.3273    0.0000 C   0  0  0  0  0  0  0  0  0  0  0  0
    2.3016   -3.9903    0.0000 C   0  0  0  0  0  0  0  0  0  0  0  0
    1.1508   -3.3273    0.0000 C   0  0  0  0  0  0  0  0  0  0  0  0
    0.0000   -3.9903    0.0000 C   0  0  0  0  0  0  0  0  0  0  0  0
  1  2  1  0  0  0  0
  2  3  1  0  0  0  0
  2 13  1  0  0  0  0
  3  4  1  0  0  0  0
  4  5  2  0  0  0  0
  4  9  1  0  0  0  0
  5  6  1  0  0  0  0
  6  7  2  0  0  0  0
  6 12  1  0  0  0  0
  7  8  1  0  0  0  0
  7 10  1  0  0  0  0
  8  9  2  0  0  0  0
 10 11  1  0  0  0  0
 11 12  1  0  0  0  0
 13 14  2  0  0  0  0
 13 15  1  0  0  0  0
 15 16  1  0  0  0  0
 16 17  1  0  0  0  0
 17 18  1  0  0  0  0
 18 19  1  0  0  0  0
 19 20  1  0  0  0  0
 20 21  1  0  0  0  0
 21 22  1  0  0  0  0
M  END
> <ID>
1123

> <Formula>
C18H28O3S

> <FW>
324.4781

> <DSSTox_CID>
1168

> <DSSTox_RID>
75989

> <DSSTox_GSID>
21168

> <DSSTox_FileID_Sort>
673

> <TS_ChemName>
Piperonyl sulfoxide

> <TS_ChemName_Synonyms>


> <TS_CASRN>
120-62-7

> <CASRN_ChemName_Relationship>
primary

> <TS_Description>
single chemical compound

> <ChemNote>


> <STRUCTURE_Shown>
tested chemical

> <STRUCTURE_Formula>
C18H28O3S

> <STRUCTURE_MW>
324.4781

> <STRUCTURE_ChemType>
defined organic

> <STRUCTURE_DefinedOrganicForm>
parent

> <STRUCTURE_IUPAC>
5-[2-(octylsulfinyl)propyl]-1,3-benzodioxole

> <STRUCTURE_SMILES>
CCCCCCCCS(=O)C(C)Cc1ccc2OCOc2c1

> <STRUCTURE_SMILES_Desalt>
CCCCCCCCS(=O)C(C)Cc1ccc2OCOc2c1

> <Substance_modify_yyyymmdd>
20080429

$$$$
