120-55-8
ChemmineR-0915142007XD

 23 24  0  0  0  0  0  0  0  0  1 V2000
    8.0562   -2.6532    0.0000 C   0  0  0  0  0  0  0  0  0  0  0  0
    6.9231   -1.9899    0.0000 C   0  0  0  0  0  0  0  0  0  0  0  0
    9.2032   -1.9899    0.0000 O   0  0  0  0  0  0  0  0  0  0  0  0
    3.4547   -2.6532    0.0000 C   0  0  0  0  0  0  0  0  0  0  0  0
    4.6154   -1.9899    0.0000 C   0  0  0  0  0  0  0  0  0  0  0  0
    2.3077   -1.9899    0.0000 O   0  0  0  0  0  0  0  0  0  0  0  0
    5.7624   -2.6532    0.0000 O   0  0  0  0  0  0  0  0  0  0  0  0
    1.1469   -2.6532    0.0000 C   0  0  0  0  0  0  0  0  0  0  0  0
    0.0000   -1.9899    0.0000 O   0  0  0  0  0  0  0  0  0  0  0  0
    1.1469   -3.9936    0.0000 C   0  0  0  0  0  0  0  0  0  0  0  0
    2.3077   -4.6431    0.0000 C   0  0  0  0  0  0  0  0  0  0  0  0
    0.0000   -4.6431    0.0000 C   0  0  0  0  0  0  0  0  0  0  0  0
    2.3077   -5.9696    0.0000 C   0  0  0  0  0  0  0  0  0  0  0  0
    0.0000   -5.9696    0.0000 C   0  0  0  0  0  0  0  0  0  0  0  0
    1.1469   -6.6467    0.0000 C   0  0  0  0  0  0  0  0  0  0  0  0
   10.3640   -2.6532    0.0000 C   0  0  0  0  0  0  0  0  0  0  0  0
   10.3640   -3.9936    0.0000 O   0  0  0  0  0  0  0  0  0  0  0  0
   11.5109   -1.9899    0.0000 C   0  0  0  0  0  0  0  0  0  0  0  0
   11.5109   -0.6633    0.0000 C   0  0  0  0  0  0  0  0  0  0  0  0
   12.6717   -2.6532    0.0000 C   0  0  0  0  0  0  0  0  0  0  0  0
   12.6717    0.0000    0.0000 C   0  0  0  0  0  0  0  0  0  0  0  0
   13.8186   -1.9899    0.0000 C   0  0  0  0  0  0  0  0  0  0  0  0
   13.8186   -0.6633    0.0000 C   0  0  0  0  0  0  0  0  0  0  0  0
  1  2  1  0  0  0  0
  1  3  1  0  0  0  0
  2  7  1  0  0  0  0
  3 16  1  0  0  0  0
  4  5  1  0  0  0  0
  4  6  1  0  0  0  0
  5  7  1  0  0  0  0
  6  8  1  0  0  0  0
  8  9  2  0  0  0  0
  8 10  1  0  0  0  0
 10 11  2  0  0  0  0
 10 12  1  0  0  0  0
 11 13  1  0  0  0  0
 12 14  2  0  0  0  0
 13 15  2  0  0  0  0
 14 15  1  0  0  0  0
 16 17  2  0  0  0  0
 16 18  1  0  0  0  0
 18 19  2  0  0  0  0
 18 20  1  0  0  0  0
 19 21  1  0  0  0  0
 20 22  2  0  0  0  0
 21 23  2  0  0  0  0
 22 23  1  0  0  0  0
M  END
> <ID>
4871

> <Formula>
C18H18O5

> <FW>
314.3325

> <DSSTox_CID>
6967

> <DSSTox_RID>
78269

> <DSSTox_GSID>
26967

> <DSSTox_FileID_Sort>
2952

> <TS_ChemName>
Diethylene glycol dibenzoate

> <TS_ChemName_Synonyms>
Diethylene glycol dibenzoate (Ethanol, 2,2'-oxybis-, dibenzoate)

> <TS_CASRN>
120-55-8

> <CASRN_ChemName_Relationship>
primary

> <TS_Description>
single chemical compound

> <ChemNote>


> <STRUCTURE_Shown>
tested chemical

> <STRUCTURE_Formula>
C18H18O5

> <STRUCTURE_MW>
314.3325

> <STRUCTURE_ChemType>
defined organic

> <STRUCTURE_DefinedOrganicForm>
parent

> <STRUCTURE_IUPAC>
oxydiethane-2,1-diyl dibenzoate

> <STRUCTURE_SMILES>
O=C(OCCOCCOC(=O)c1ccccc1)c2ccccc2

> <STRUCTURE_SMILES_Desalt>
O=C(OCCOCCOC(=O)c1ccccc1)c2ccccc2

> <Substance_modify_yyyymmdd>
20080429

$$$$
