120-65-0
ChemmineR-0915142007XD

 11 11  0  0  0  0  0  0  0  0  1 V2000
    2.0011   -3.4391    0.0000 C   0  0  0  0  0  0  0  0  0  0  0  0
    2.6602   -2.2887    0.0000 C   0  0  0  0  0  0  0  0  0  0  0  0
    2.0011   -1.1324    0.0000 C   0  0  0  0  0  0  0  0  0  0  0  0
    0.6710   -1.1324    0.0000 C   0  0  0  0  0  0  0  0  0  0  0  0
    0.0000   -2.2887    0.0000 C   0  0  0  0  0  0  0  0  0  0  0  0
    0.6710   -3.4391    0.0000 C   0  0  0  0  0  0  0  0  0  0  0  0
    3.9903   -2.2887    0.0000 C   0  0  0  0  0  0  0  0  0  0  0  0
    4.6613   -1.1324    0.0000 N   0  0  0  0  0  0  0  0  0  0  0  0
    5.9914   -1.1324    0.0000 C   0  0  0  0  0  0  0  0  0  0  0  0
    3.9903    0.0000    0.0000 C   0  0  0  0  0  0  0  0  0  0  0  0
    2.6602   -4.5954    0.0000 O   0  0  0  0  0  0  0  0  0  0  0  0
  1  2  1  0  0  0  0
  1  6  2  0  0  0  0
  1 11  1  0  0  0  0
  2  3  2  0  0  0  0
  2  7  1  0  0  0  0
  3  4  1  0  0  0  0
  4  5  2  0  0  0  0
  5  6  1  0  0  0  0
  7  8  1  0  0  0  0
  8  9  1  0  0  0  0
  8 10  1  0  0  0  0
M  END
> <ID>
8172

> <Formula>
C9H13NO

> <FW>
151.2056

> <DSSTox_CID>
21199

> <DSSTox_RID>
79680

> <DSSTox_GSID>
41293

> <DSSTox_FileID_Sort>
4362

> <TS_ChemName>
2-((Dimethylamino)methyl)phenol

> <TS_ChemName_Synonyms>


> <TS_CASRN>
120-65-0

> <CASRN_ChemName_Relationship>
primary

> <TS_Description>
single chemical compound

> <ChemNote>


> <STRUCTURE_Shown>
tested chemical

> <STRUCTURE_Formula>
C9H13NO

> <STRUCTURE_MW>
151.2056

> <STRUCTURE_ChemType>
defined organic

> <STRUCTURE_DefinedOrganicForm>
parent

> <STRUCTURE_IUPAC>
2-[(dimethylamino)methyl]phenol

> <STRUCTURE_SMILES>
Oc1ccccc1CN(C)C

> <STRUCTURE_SMILES_Desalt>
Oc1ccccc1CN(C)C

> <Substance_modify_yyyymmdd>
20080825

$$$$
