120-51-4
ChemmineR-0915142007XD

 16 17  0  0  0  0  0  0  0  0  1 V2000
    3.4656   -1.3273    0.0000 C   0  0  0  0  0  0  0  0  0  0  0  0
    3.4656    0.0000    0.0000 O   0  0  0  0  0  0  0  0  0  0  0  0
    2.3043   -1.9909    0.0000 C   0  0  0  0  0  0  0  0  0  0  0  0
    4.6178   -1.9909    0.0000 O   0  0  0  0  0  0  0  0  0  0  0  0
    2.3043   -3.3182    0.0000 C   0  0  0  0  0  0  0  0  0  0  0  0
    1.1521   -1.3273    0.0000 C   0  0  0  0  0  0  0  0  0  0  0  0
    1.1521   -3.9910    0.0000 C   0  0  0  0  0  0  0  0  0  0  0  0
    0.0000   -1.9909    0.0000 C   0  0  0  0  0  0  0  0  0  0  0  0
    0.0000   -3.3182    0.0000 C   0  0  0  0  0  0  0  0  0  0  0  0
    5.7515   -1.3273    0.0000 C   0  0  0  0  0  0  0  0  0  0  0  0
    6.9128   -1.9909    0.0000 C   0  0  0  0  0  0  0  0  0  0  0  0
    8.0650   -1.3273    0.0000 C   0  0  0  0  0  0  0  0  0  0  0  0
    6.9128   -3.3182    0.0000 C   0  0  0  0  0  0  0  0  0  0  0  0
    9.2171   -1.9909    0.0000 C   0  0  0  0  0  0  0  0  0  0  0  0
    8.0650   -3.9910    0.0000 C   0  0  0  0  0  0  0  0  0  0  0  0
    9.2171   -3.3182    0.0000 C   0  0  0  0  0  0  0  0  0  0  0  0
  1  2  2  0  0  0  0
  1  3  1  0  0  0  0
  1  4  1  0  0  0  0
  3  5  2  0  0  0  0
  3  6  1  0  0  0  0
  4 10  1  0  0  0  0
  5  7  1  0  0  0  0
  6  8  2  0  0  0  0
  7  9  2  0  0  0  0
  8  9  1  0  0  0  0
 10 11  1  0  0  0  0
 11 12  2  0  0  0  0
 11 13  1  0  0  0  0
 12 14  1  0  0  0  0
 13 15  2  0  0  0  0
 14 16  2  0  0  0  0
 15 16  1  0  0  0  0
M  END
> <ID>
5816

> <Formula>
C14H12O2

> <FW>
212.2439

> <DSSTox_CID>
9153

> <DSSTox_RID>
78686

> <DSSTox_GSID>
29153

> <DSSTox_FileID_Sort>
3368

> <TS_ChemName>
Benzyl benzoate

> <TS_ChemName_Synonyms>
Benzyl benzoate (Benzoic acid, phenylmethyl ester)

> <TS_CASRN>
120-51-4

> <CASRN_ChemName_Relationship>
primary

> <TS_Description>
single chemical compound

> <ChemNote>


> <STRUCTURE_Shown>
tested chemical

> <STRUCTURE_Formula>
C14H12O2

> <STRUCTURE_MW>
212.2439

> <STRUCTURE_ChemType>
defined organic

> <STRUCTURE_DefinedOrganicForm>
parent

> <STRUCTURE_IUPAC>
benzyl benzoate

> <STRUCTURE_SMILES>
O=C(OCc1ccccc1)c2ccccc2

> <STRUCTURE_SMILES_Desalt>
O=C(OCc1ccccc1)c2ccccc2

> <Substance_modify_yyyymmdd>
20080429

$$$$
