120-47-8
ChemmineR-0915142007XD

 12 12  0  0  0  0  0  0  0  0  1 V2000
    5.3199   -2.3050    0.0000 C   0  0  0  0  0  0  0  0  0  0  0  0
    3.9879   -2.3050    0.0000 C   0  0  0  0  0  0  0  0  0  0  0  0
    3.3259   -3.4535    0.0000 C   0  0  0  0  0  0  0  0  0  0  0  0
    1.9939   -3.4535    0.0000 C   0  0  0  0  0  0  0  0  0  0  0  0
    1.3320   -2.3050    0.0000 C   0  0  0  0  0  0  0  0  0  0  0  0
    1.9939   -1.1485    0.0000 C   0  0  0  0  0  0  0  0  0  0  0  0
    3.3259   -1.1485    0.0000 C   0  0  0  0  0  0  0  0  0  0  0  0
    0.0000   -2.3050    0.0000 O   0  0  0  0  0  0  0  0  0  0  0  0
    5.9818   -3.4535    0.0000 O   0  0  0  0  0  0  0  0  0  0  0  0
    5.9818   -1.1485    0.0000 O   0  0  0  0  0  0  0  0  0  0  0  0
    7.3138   -1.1485    0.0000 C   0  0  0  0  0  0  0  0  0  0  0  0
    7.9758    0.0000    0.0000 C   0  0  0  0  0  0  0  0  0  0  0  0
  1  2  1  0  0  0  0
  1  9  2  0  0  0  0
  1 10  1  0  0  0  0
  2  3  2  0  0  0  0
  2  7  1  0  0  0  0
  3  4  1  0  0  0  0
  4  5  2  0  0  0  0
  5  6  1  0  0  0  0
  5  8  1  0  0  0  0
  6  7  2  0  0  0  0
 10 11  1  0  0  0  0
 11 12  1  0  0  0  0
M  END
> <ID>
2295

> <Formula>
C9H10O3

> <FW>
166.1739

> <DSSTox_CID>
2528

> <DSSTox_RID>
76615

> <DSSTox_GSID>
22528

> <DSSTox_FileID_Sort>
1299

> <TS_ChemName>
Ethylparaben

> <TS_ChemName_Synonyms>
Ethylparaben (ethyl 4-hydroxybenzoate)

> <TS_CASRN>
120-47-8

> <CASRN_ChemName_Relationship>
primary

> <TS_Description>
single chemical compound

> <ChemNote>


> <STRUCTURE_Shown>
tested chemical

> <STRUCTURE_Formula>
C9H10O3

> <STRUCTURE_MW>
166.1739

> <STRUCTURE_ChemType>
defined organic

> <STRUCTURE_DefinedOrganicForm>
parent

> <STRUCTURE_IUPAC>
ethyl 4-hydroxybenzoate

> <STRUCTURE_SMILES>
Oc1ccc(cc1)C(=O)OCC

> <STRUCTURE_SMILES_Desalt>
Oc1ccc(cc1)C(=O)OCC

> <Substance_modify_yyyymmdd>
20080429

$$$$
