120-37-6
ChemmineR-0915142007XD

 11 11  0  0  0  0  0  0  0  0  1 V2000
    0.0000   -2.6606    0.0000 O   0  0  0  0  0  0  0  0  0  0  0  0
    1.1541   -1.9972    0.0000 C   0  0  0  0  0  0  0  0  0  0  0  0
    1.1541   -0.6634    0.0000 C   0  0  0  0  0  0  0  0  0  0  0  0
    2.3012    0.0000    0.0000 C   0  0  0  0  0  0  0  0  0  0  0  0
    3.4553   -0.6634    0.0000 C   0  0  0  0  0  0  0  0  0  0  0  0
    3.4553   -1.9972    0.0000 C   0  0  0  0  0  0  0  0  0  0  0  0
    4.6094   -2.6606    0.0000 N   0  0  0  0  0  0  0  0  0  0  0  0
    5.7565   -1.9972    0.0000 C   0  0  0  0  0  0  0  0  0  0  0  0
    6.9106   -2.6606    0.0000 C   0  0  0  0  0  0  0  0  0  0  0  0
    4.6094    0.0000    0.0000 C   0  0  0  0  0  0  0  0  0  0  0  0
    2.3012   -2.6606    0.0000 C   0  0  0  0  0  0  0  0  0  0  0  0
  1  2  1  0  0  0  0
  2  3  2  0  0  0  0
  2 11  1  0  0  0  0
  3  4  1  0  0  0  0
  4  5  2  0  0  0  0
  5  6  1  0  0  0  0
  5 10  1  0  0  0  0
  6  7  1  0  0  0  0
  6 11  2  0  0  0  0
  7  8  1  0  0  0  0
  8  9  1  0  0  0  0
M  END
> <ID>
4111

> <Formula>
C9H13NO

> <FW>
151.2056

> <DSSTox_CID>
5269

> <DSSTox_RID>
77720

> <DSSTox_GSID>
25269

> <DSSTox_FileID_Sort>
2403

> <TS_ChemName>
3-Ethylamino-4-methylphenol

> <TS_ChemName_Synonyms>


> <TS_CASRN>
120-37-6

> <CASRN_ChemName_Relationship>
primary

> <TS_Description>
single chemical compound

> <ChemNote>


> <STRUCTURE_Shown>
tested chemical

> <STRUCTURE_Formula>
C9H13NO

> <STRUCTURE_MW>
151.2056

> <STRUCTURE_ChemType>
defined organic

> <STRUCTURE_DefinedOrganicForm>
parent

> <STRUCTURE_IUPAC>
3-(ethylamino)-4-methylphenol

> <STRUCTURE_SMILES>
Oc1ccc(C)c(NCC)c1

> <STRUCTURE_SMILES_Desalt>
Oc1ccc(C)c(NCC)c1

> <Substance_modify_yyyymmdd>
20080429

$$$$
