120-56-9
ChemmineR-0915142007XD

 26 27  0  0  0  0  0  0  0  0  1 V2000
   13.8130   -2.6609    0.0000 C   0  0  0  0  0  0  0  0  0  0  0  0
   12.6586   -1.9956    0.0000 C   0  0  0  0  0  0  0  0  0  0  0  0
   14.9673   -1.9956    0.0000 O   0  0  0  0  0  0  0  0  0  0  0  0
    5.7717   -1.9956    0.0000 C   0  0  0  0  0  0  0  0  0  0  0  0
    6.9260   -2.6609    0.0000 C   0  0  0  0  0  0  0  0  0  0  0  0
    4.6174   -2.6609    0.0000 O   0  0  0  0  0  0  0  0  0  0  0  0
    9.2152   -2.6609    0.0000 C   0  0  0  0  0  0  0  0  0  0  0  0
   10.3499   -1.9956    0.0000 C   0  0  0  0  0  0  0  0  0  0  0  0
    8.0608   -1.9956    0.0000 O   0  0  0  0  0  0  0  0  0  0  0  0
   11.5043   -2.6609    0.0000 O   0  0  0  0  0  0  0  0  0  0  0  0
    3.4630   -1.9956    0.0000 C   0  0  0  0  0  0  0  0  0  0  0  0
    3.4630   -0.6652    0.0000 O   0  0  0  0  0  0  0  0  0  0  0  0
    2.3087   -2.6609    0.0000 C   0  0  0  0  0  0  0  0  0  0  0  0
    2.3087   -3.9913    0.0000 C   0  0  0  0  0  0  0  0  0  0  0  0
    1.1543   -1.9956    0.0000 C   0  0  0  0  0  0  0  0  0  0  0  0
    1.1543   -4.6565    0.0000 C   0  0  0  0  0  0  0  0  0  0  0  0
    0.0000   -2.6609    0.0000 C   0  0  0  0  0  0  0  0  0  0  0  0
    0.0000   -3.9913    0.0000 C   0  0  0  0  0  0  0  0  0  0  0  0
   16.1216   -2.6609    0.0000 C   0  0  0  0  0  0  0  0  0  0  0  0
   16.1216   -3.9913    0.0000 O   0  0  0  0  0  0  0  0  0  0  0  0
   17.2564   -1.9956    0.0000 C   0  0  0  0  0  0  0  0  0  0  0  0
   17.2564   -0.6652    0.0000 C   0  0  0  0  0  0  0  0  0  0  0  0
   18.4107   -2.6609    0.0000 C   0  0  0  0  0  0  0  0  0  0  0  0
   18.4107    0.0000    0.0000 C   0  0  0  0  0  0  0  0  0  0  0  0
   19.5651   -1.9956    0.0000 C   0  0  0  0  0  0  0  0  0  0  0  0
   19.5651   -0.6652    0.0000 C   0  0  0  0  0  0  0  0  0  0  0  0
  1  2  1  0  0  0  0
  1  3  1  0  0  0  0
  2 10  1  0  0  0  0
  3 19  1  0  0  0  0
  4  5  1  0  0  0  0
  4  6  1  0  0  0  0
  5  9  1  0  0  0  0
  6 11  1  0  0  0  0
  7  8  1  0  0  0  0
  7  9  1  0  0  0  0
  8 10  1  0  0  0  0
 11 12  2  0  0  0  0
 11 13  1  0  0  0  0
 13 14  2  0  0  0  0
 13 15  1  0  0  0  0
 14 16  1  0  0  0  0
 15 17  2  0  0  0  0
 16 18  2  0  0  0  0
 17 18  1  0  0  0  0
 19 20  2  0  0  0  0
 19 21  1  0  0  0  0
 21 22  2  0  0  0  0
 21 23  1  0  0  0  0
 22 24  1  0  0  0  0
 23 25  2  0  0  0  0
 24 26  2  0  0  0  0
 25 26  1  0  0  0  0
M  END
> <ID>
6073

> <Formula>
C20H22O6

> <FW>
358.3851

> <DSSTox_CID>
9611

> <DSSTox_RID>
78786

> <DSSTox_GSID>
29611

> <DSSTox_FileID_Sort>
3468

> <TS_ChemName>
Ethanol, 2,2'-[1,2-ethanediylbis(oxy)]bis-, dibenzoate

> <TS_ChemName_Synonyms>


> <TS_CASRN>
120-56-9

> <CASRN_ChemName_Relationship>
primary

> <TS_Description>
single chemical compound

> <ChemNote>


> <STRUCTURE_Shown>
tested chemical

> <STRUCTURE_Formula>
C20H22O6

> <STRUCTURE_MW>
358.3851

> <STRUCTURE_ChemType>
defined organic

> <STRUCTURE_DefinedOrganicForm>
parent

> <STRUCTURE_IUPAC>
ethane-1,2-diylbis(oxyethane-2,1-diyl) dibenzoate

> <STRUCTURE_SMILES>
O=C(OCCOCCOCCOC(=O)c1ccccc1)c2ccccc2

> <STRUCTURE_SMILES_Desalt>
O=C(OCCOCCOCCOC(=O)c1ccccc1)c2ccccc2

> <Substance_modify_yyyymmdd>
20080429

$$$$
