120-14-9
ChemmineR-0915142007XD

 12 12  0  0  0  0  0  0  0  0  1 V2000
    1.9953    0.0000    0.0000 O   0  0  0  0  0  0  0  0  0  0  0  0
    0.6651    0.0000    0.0000 C   0  0  0  0  0  0  0  0  0  0  0  0
    2.6604   -1.1573    0.0000 C   0  0  0  0  0  0  0  0  0  0  0  0
    3.9906   -1.1573    0.0000 C   0  0  0  0  0  0  0  0  0  0  0  0
    4.6557   -2.3079    0.0000 C   0  0  0  0  0  0  0  0  0  0  0  0
    5.9859   -2.3079    0.0000 C   0  0  0  0  0  0  0  0  0  0  0  0
    6.6510   -3.4585    0.0000 O   0  0  0  0  0  0  0  0  0  0  0  0
    3.9906   -3.4585    0.0000 C   0  0  0  0  0  0  0  0  0  0  0  0
    2.6604   -3.4585    0.0000 C   0  0  0  0  0  0  0  0  0  0  0  0
    1.9953   -2.3079    0.0000 C   0  0  0  0  0  0  0  0  0  0  0  0
    0.6651   -2.3079    0.0000 O   0  0  0  0  0  0  0  0  0  0  0  0
    0.0000   -3.4585    0.0000 C   0  0  0  0  0  0  0  0  0  0  0  0
  1  2  1  0  0  0  0
  1  3  1  0  0  0  0
  3  4  2  0  0  0  0
  3 10  1  0  0  0  0
  4  5  1  0  0  0  0
  5  6  1  0  0  0  0
  5  8  2  0  0  0  0
  6  7  2  0  0  0  0
  8  9  1  0  0  0  0
  9 10  2  0  0  0  0
 10 11  1  0  0  0  0
 11 12  1  0  0  0  0
M  END
> <ID>
4637

> <Formula>
C9H10O3

> <FW>
166.1739

> <DSSTox_CID>
6285

> <DSSTox_RID>
78087

> <DSSTox_GSID>
26285

> <DSSTox_FileID_Sort>
2770

> <TS_ChemName>
Veratraldehyde

> <TS_ChemName_Synonyms>
Veratraldehyde (3,4-Dimethoxybenzaldehyde)

> <TS_CASRN>
120-14-9

> <CASRN_ChemName_Relationship>
primary

> <TS_Description>
single chemical compound

> <ChemNote>


> <STRUCTURE_Shown>
tested chemical

> <STRUCTURE_Formula>
C9H10O3

> <STRUCTURE_MW>
166.1739

> <STRUCTURE_ChemType>
defined organic

> <STRUCTURE_DefinedOrganicForm>
parent

> <STRUCTURE_IUPAC>
3,4-dimethoxybenzaldehyde

> <STRUCTURE_SMILES>
COc1cc(ccc1OC)C=O

> <STRUCTURE_SMILES_Desalt>
COc1cc(ccc1OC)C=O

> <Substance_modify_yyyymmdd>
20080429

$$$$
