120-12-7
ChemmineR-0915142007XD

 14 16  0  0  0  0  0  0  0  0  1 V2000
    3.4511   -2.6642    0.0000 C   0  0  0  0  0  0  0  0  0  0  0  0
    3.4511    0.0000    0.0000 C   0  0  0  0  0  0  0  0  0  0  0  0
    2.2984   -2.0085    0.0000 C   0  0  0  0  0  0  0  0  0  0  0  0
    4.6037   -2.0085    0.0000 C   0  0  0  0  0  0  0  0  0  0  0  0
    4.6037   -0.6764    0.0000 C   0  0  0  0  0  0  0  0  0  0  0  0
    2.2984   -0.6764    0.0000 C   0  0  0  0  0  0  0  0  0  0  0  0
    1.1527    0.0000    0.0000 C   0  0  0  0  0  0  0  0  0  0  0  0
    1.1527   -2.6642    0.0000 C   0  0  0  0  0  0  0  0  0  0  0  0
    5.7495   -2.6642    0.0000 C   0  0  0  0  0  0  0  0  0  0  0  0
    5.7495    0.0000    0.0000 C   0  0  0  0  0  0  0  0  0  0  0  0
    0.0000   -2.0085    0.0000 C   0  0  0  0  0  0  0  0  0  0  0  0
    6.9021   -2.0085    0.0000 C   0  0  0  0  0  0  0  0  0  0  0  0
    6.9021   -0.6764    0.0000 C   0  0  0  0  0  0  0  0  0  0  0  0
    0.0000   -0.6764    0.0000 C   0  0  0  0  0  0  0  0  0  0  0  0
  1  3  1  0  0  0  0
  1  4  2  0  0  0  0
  2  5  2  0  0  0  0
  2  6  1  0  0  0  0
  3  6  2  0  0  0  0
  3  8  1  0  0  0  0
  4  5  1  0  0  0  0
  4  9  1  0  0  0  0
  5 10  1  0  0  0  0
  6  7  1  0  0  0  0
  7 14  2  0  0  0  0
  8 11  2  0  0  0  0
  9 12  2  0  0  0  0
 10 13  2  0  0  0  0
 11 14  1  0  0  0  0
 12 13  1  0  0  0  0
M  END
> <ID>
3403

> <Formula>
C14H10

> <FW>
178.2292

> <DSSTox_CID>
3878

> <DSSTox_RID>
77216

> <DSSTox_GSID>
23878

> <DSSTox_FileID_Sort>
1899

> <TS_ChemName>
Anthracene

> <TS_ChemName_Synonyms>


> <TS_CASRN>
120-12-7

> <CASRN_ChemName_Relationship>
primary

> <TS_Description>
single chemical compound

> <ChemNote>


> <STRUCTURE_Shown>
tested chemical

> <STRUCTURE_Formula>
C14H10

> <STRUCTURE_MW>
178.2292

> <STRUCTURE_ChemType>
defined organic

> <STRUCTURE_DefinedOrganicForm>
parent

> <STRUCTURE_IUPAC>
anthracene

> <STRUCTURE_SMILES>
c1ccc2cc3ccccc3cc2c1

> <STRUCTURE_SMILES_Desalt>
c1ccc2cc3ccccc3cc2c1

> <Substance_modify_yyyymmdd>
20080429

$$$$
