120-75-2
ChemmineR-0915142007XD

 10 11  0  0  0  0  0  0  0  0  1 V2000
    3.5445   -0.2560    0.0000 N   0  0  0  0  0  0  0  0  0  0  0  0
    3.5445   -2.3838    0.0000 S   0  0  0  0  0  0  0  0  0  0  0  0
    4.3410   -1.3199    0.0000 C   0  0  0  0  0  0  0  0  0  0  0  0
    2.2700   -0.6201    0.0000 C   0  0  0  0  0  0  0  0  0  0  0  0
    2.2700   -2.0197    0.0000 C   0  0  0  0  0  0  0  0  0  0  0  0
    1.1265   -2.6399    0.0000 C   0  0  0  0  0  0  0  0  0  0  0  0
    0.0000   -2.0197    0.0000 C   0  0  0  0  0  0  0  0  0  0  0  0
    0.0000   -0.6201    0.0000 C   0  0  0  0  0  0  0  0  0  0  0  0
    1.1265    0.0000    0.0000 C   0  0  0  0  0  0  0  0  0  0  0  0
    5.6893   -1.3199    0.0000 C   0  0  0  0  0  0  0  0  0  0  0  0
  1  3  2  0  0  0  0
  1  4  1  0  0  0  0
  2  3  1  0  0  0  0
  2  5  1  0  0  0  0
  3 10  1  0  0  0  0
  4  5  2  0  0  0  0
  4  9  1  0  0  0  0
  5  6  1  0  0  0  0
  6  7  2  0  0  0  0
  7  8  1  0  0  0  0
  8  9  2  0  0  0  0
M  END
> <ID>
14071

> <Formula>
C8H7NS

> <FW>
149.2129

> <DSSTox_CID>
29064

> <DSSTox_RID>
83283

> <DSSTox_GSID>
49208

> <DSSTox_FileID_Sort>
7958

> <TS_ChemName>
2-Methylbenzothiazole

> <TS_ChemName_Synonyms>


> <TS_CASRN>
120-75-2

> <CASRN_ChemName_Relationship>
primary

> <TS_Description>
single chemical compound

> <ChemNote>


> <STRUCTURE_Shown>
tested chemical

> <STRUCTURE_Formula>
C8H7NS

> <STRUCTURE_MW>
149.2129

> <STRUCTURE_ChemType>
defined organic

> <STRUCTURE_DefinedOrganicForm>
parent

> <STRUCTURE_IUPAC>
2-methyl-1,3-benzothiazole

> <STRUCTURE_SMILES>
Cc1nc2ccccc2s1

> <STRUCTURE_SMILES_Desalt>
Cc1nc2ccccc2s1

> <Substance_modify_yyyymmdd>
20111204

$$$$
