120-50-3
ChemmineR-0915142007XD

 13 13  0  0  0  0  0  0  0  0  1 V2000
    3.4608   -1.3311    0.0000 C   0  0  0  0  0  0  0  0  0  0  0  0
    3.4608    0.0000    0.0000 O   0  0  0  0  0  0  0  0  0  0  0  0
    2.3072   -1.9845    0.0000 C   0  0  0  0  0  0  0  0  0  0  0  0
    4.6064   -1.9845    0.0000 O   0  0  0  0  0  0  0  0  0  0  0  0
    2.3072   -3.3237    0.0000 C   0  0  0  0  0  0  0  0  0  0  0  0
    1.1536   -1.3311    0.0000 C   0  0  0  0  0  0  0  0  0  0  0  0
    1.1536   -3.9933    0.0000 C   0  0  0  0  0  0  0  0  0  0  0  0
    0.0000   -1.9845    0.0000 C   0  0  0  0  0  0  0  0  0  0  0  0
    0.0000   -3.3237    0.0000 C   0  0  0  0  0  0  0  0  0  0  0  0
    5.7600   -1.3311    0.0000 C   0  0  0  0  0  0  0  0  0  0  0  0
    6.9136   -1.9845    0.0000 C   0  0  0  0  0  0  0  0  0  0  0  0
    6.9136   -3.3237    0.0000 C   0  0  0  0  0  0  0  0  0  0  0  0
    8.0672   -1.3311    0.0000 C   0  0  0  0  0  0  0  0  0  0  0  0
  1  2  2  0  0  0  0
  1  3  1  0  0  0  0
  1  4  1  0  0  0  0
  3  5  2  0  0  0  0
  3  6  1  0  0  0  0
  4 10  1  0  0  0  0
  5  7  1  0  0  0  0
  6  8  2  0  0  0  0
  7  9  2  0  0  0  0
  8  9  1  0  0  0  0
 10 11  1  0  0  0  0
 11 12  1  0  0  0  0
 11 13  1  0  0  0  0
M  END
> <ID>
12226

> <Formula>
C11H14O2

> <FW>
178.2277

> <DSSTox_CID>
27074

> <DSSTox_RID>
82088

> <DSSTox_GSID>
47074

> <DSSTox_FileID_Sort>
6769

> <TS_ChemName>
Isobutyl benzoate

> <TS_ChemName_Synonyms>


> <TS_CASRN>
120-50-3

> <CASRN_ChemName_Relationship>
primary

> <TS_Description>
single chemical compound

> <ChemNote>


> <STRUCTURE_Shown>
tested chemical

> <STRUCTURE_Formula>
C11H14O2

> <STRUCTURE_MW>
178.2277

> <STRUCTURE_ChemType>
defined organic

> <STRUCTURE_DefinedOrganicForm>
parent

> <STRUCTURE_IUPAC>
2-methylpropyl benzoate

> <STRUCTURE_SMILES>
CC(C)COC(=O)c1ccccc1

> <STRUCTURE_SMILES_Desalt>
CC(C)COC(=O)c1ccccc1

> <Substance_modify_yyyymmdd>
20100429

$$$$
