120-57-0
ChemmineR-0915142007XD

 11 12  0  0  0  0  0  0  0  0  1 V2000
    1.1507   -2.6606    0.0000 C   0  0  0  0  0  0  0  0  0  0  0  0
    0.0000   -1.9954    0.0000 O   0  0  0  0  0  0  0  0  0  0  0  0
    2.3014   -1.9954    0.0000 C   0  0  0  0  0  0  0  0  0  0  0  0
    2.3014   -0.6651    0.0000 C   0  0  0  0  0  0  0  0  0  0  0  0
    3.4521    0.0000    0.0000 C   0  0  0  0  0  0  0  0  0  0  0  0
    4.6028   -0.6651    0.0000 C   0  0  0  0  0  0  0  0  0  0  0  0
    5.8665   -0.2528    0.0000 O   0  0  0  0  0  0  0  0  0  0  0  0
    6.6514   -1.3303    0.0000 C   0  0  0  0  0  0  0  0  0  0  0  0
    5.8665   -2.4078    0.0000 O   0  0  0  0  0  0  0  0  0  0  0  0
    4.6028   -1.9954    0.0000 C   0  0  0  0  0  0  0  0  0  0  0  0
    3.4521   -2.6606    0.0000 C   0  0  0  0  0  0  0  0  0  0  0  0
  1  2  2  0  0  0  0
  1  3  1  0  0  0  0
  3  4  2  0  0  0  0
  3 11  1  0  0  0  0
  4  5  1  0  0  0  0
  5  6  2  0  0  0  0
  6  7  1  0  0  0  0
  6 10  1  0  0  0  0
  7  8  1  0  0  0  0
  8  9  1  0  0  0  0
  9 10  1  0  0  0  0
 10 11  2  0  0  0  0
M  END
> <ID>
4472

> <Formula>
C8H6O3

> <FW>
150.1314

> <DSSTox_CID>
5924

> <DSSTox_RID>
77967

> <DSSTox_GSID>
25924

> <DSSTox_FileID_Sort>
2650

> <TS_ChemName>
Piperonal

> <TS_ChemName_Synonyms>


> <TS_CASRN>
120-57-0

> <CASRN_ChemName_Relationship>
primary

> <TS_Description>
single chemical compound

> <ChemNote>


> <STRUCTURE_Shown>
tested chemical

> <STRUCTURE_Formula>
C8H6O3

> <STRUCTURE_MW>
150.1314

> <STRUCTURE_ChemType>
defined organic

> <STRUCTURE_DefinedOrganicForm>
parent

> <STRUCTURE_IUPAC>
1,3-benzodioxole-5-carbaldehyde

> <STRUCTURE_SMILES>
O=Cc1ccc2OCOc2c1

> <STRUCTURE_SMILES_Desalt>
O=Cc1ccc2OCOc2c1

> <Substance_modify_yyyymmdd>
20080429

$$$$
