120-18-3
ChemmineR-0915142007XD

 14 15  0  0  0  0  0  0  0  0  1 V2000
    2.3057   -1.7789    0.0000 C   0  0  0  0  0  0  0  0  0  0  0  0
    2.3057   -3.0994    0.0000 C   0  0  0  0  0  0  0  0  0  0  0  0
    1.1631   -1.1084    0.0000 C   0  0  0  0  0  0  0  0  0  0  0  0
    1.1631   -3.7836    0.0000 C   0  0  0  0  0  0  0  0  0  0  0  0
    3.4210   -3.7836    0.0000 C   0  0  0  0  0  0  0  0  0  0  0  0
    3.4210   -1.1084    0.0000 C   0  0  0  0  0  0  0  0  0  0  0  0
    4.5841   -1.7789    0.0000 C   0  0  0  0  0  0  0  0  0  0  0  0
    4.5841   -3.0994    0.0000 C   0  0  0  0  0  0  0  0  0  0  0  0
    0.0000   -3.0994    0.0000 C   0  0  0  0  0  0  0  0  0  0  0  0
    0.0000   -1.7789    0.0000 C   0  0  0  0  0  0  0  0  0  0  0  0
    5.7267   -1.1084    0.0000 S   0  0  0  0  0  0  0  0  0  0  0  0
    6.4451   -2.3810    0.0000 O   0  0  0  0  0  0  0  0  0  0  0  0
    6.8420   -0.4721    0.0000 O   0  0  0  0  0  0  0  0  0  0  0  0
    5.1110    0.0000    0.0000 O   0  0  0  0  0  0  0  0  0  0  0  0
  1  2  2  0  0  0  0
  1  3  1  0  0  0  0
  1  6  1  0  0  0  0
  2  4  1  0  0  0  0
  2  5  1  0  0  0  0
  3 10  2  0  0  0  0
  4  9  2  0  0  0  0
  5  8  2  0  0  0  0
  6  7  2  0  0  0  0
  7  8  1  0  0  0  0
  7 11  1  0  0  0  0
  9 10  1  0  0  0  0
 11 12  2  0  0  0  0
 11 13  1  0  0  0  0
 11 14  2  0  0  0  0
M  END
> <ID>
10438

> <Formula>
C10H8O3S

> <FW>
208.2337

> <DSSTox_CID>
24788

> <DSSTox_RID>
80477

> <DSSTox_GSID>
44788

> <DSSTox_FileID_Sort>
5159

> <TS_ChemName>
Naphthalene-2-sulfonic acid

> <TS_ChemName_Synonyms>
Naphthalene-2-sulfonic acid (2-Naphthalenesulfonic acid)

> <TS_CASRN>
120-18-3

> <CASRN_ChemName_Relationship>
primary

> <TS_Description>
single chemical compound

> <ChemNote>


> <STRUCTURE_Shown>
tested chemical

> <STRUCTURE_Formula>
C10H8O3S

> <STRUCTURE_MW>
208.2337

> <STRUCTURE_ChemType>
defined organic

> <STRUCTURE_DefinedOrganicForm>
parent

> <STRUCTURE_IUPAC>
naphthalene-2-sulfonic acid

> <STRUCTURE_SMILES>
O=S(=O)(O)c1ccc2ccccc2c1

> <STRUCTURE_SMILES_Desalt>
O=S(=O)(O)c1ccc2ccccc2c1

> <Substance_modify_yyyymmdd>
20091116

$$$$
