120-45-6
ChemmineR-0915142007XD

 13 13  0  0  0  0  0  0  0  0  1 V2000
    5.7704   -1.3236    0.0000 C   0  0  0  0  0  0  0  0  0  0  0  0
    5.7865    0.0000    0.0000 O   0  0  0  0  0  0  0  0  0  0  0  0
    4.6082   -1.9934    0.0000 O   0  0  0  0  0  0  0  0  0  0  0  0
    6.9083   -1.9934    0.0000 C   0  0  0  0  0  0  0  0  0  0  0  0
    8.0704   -1.3236    0.0000 C   0  0  0  0  0  0  0  0  0  0  0  0
    3.4622   -1.3397    0.0000 C   0  0  0  0  0  0  0  0  0  0  0  0
    3.4622    0.0000    0.0000 C   0  0  0  0  0  0  0  0  0  0  0  0
    1.1460   -3.9949    0.0000 C   0  0  0  0  0  0  0  0  0  0  0  0
    0.0000   -3.3331    0.0000 C   0  0  0  0  0  0  0  0  0  0  0  0
    0.0000   -1.9934    0.0000 C   0  0  0  0  0  0  0  0  0  0  0  0
    1.1621   -1.3397    0.0000 C   0  0  0  0  0  0  0  0  0  0  0  0
    2.3001   -1.9934    0.0000 C   0  0  0  0  0  0  0  0  0  0  0  0
    2.3001   -3.3169    0.0000 C   0  0  0  0  0  0  0  0  0  0  0  0
  1  2  2  0  0  0  0
  1  3  1  0  0  0  0
  1  4  1  0  0  0  0
  3  6  1  0  0  0  0
  4  5  1  0  0  0  0
  6  7  1  0  0  0  0
  6 12  1  0  0  0  0
  8 13  2  0  0  0  0
  8  9  1  0  0  0  0
  9 10  2  0  0  0  0
 10 11  1  0  0  0  0
 11 12  2  0  0  0  0
 12 13  1  0  0  0  0
M  END
> <ID>
12242

> <Formula>
C11H14O2

> <FW>
178.2277

> <DSSTox_CID>
27091

> <DSSTox_RID>
82103

> <DSSTox_GSID>
47091

> <DSSTox_FileID_Sort>
6784

> <TS_ChemName>
1-Phenylethyl propionate

> <TS_ChemName_Synonyms>
1-Phenylethyl propionate (styralyl propionate)

> <TS_CASRN>
120-45-6

> <CASRN_ChemName_Relationship>
primary

> <TS_Description>
single chemical compound

> <ChemNote>


> <STRUCTURE_Shown>
tested chemical

> <STRUCTURE_Formula>
C11H14O2

> <STRUCTURE_MW>
178.2277

> <STRUCTURE_ChemType>
defined organic

> <STRUCTURE_DefinedOrganicForm>
parent

> <STRUCTURE_IUPAC>
1-phenylethyl propanoate

> <STRUCTURE_SMILES>
CCC(=O)OC(C)c1ccccc1

> <STRUCTURE_SMILES_Desalt>
CCC(=O)OC(C)c1ccccc1

> <Substance_modify_yyyymmdd>
20100429

$$$$
