120068-37-3
ChemmineR-0915142007XD

 26 27  0  0  0  0  0  0  0  0  1 V2000
    4.4657   -2.3106    0.0000 N    0  0  0  0  0  0  0  0  0  0  0  0
    5.7988   -2.3106    0.0000 C    0  0  0  0  0  0  0  0  0  0  0  0
    3.6770   -3.3882    0.0000 C    0  0  0  0  0  0  0  0  0  0  0  0
    3.6770   -1.2331    0.0000 N    0  0  0  0  0  0  0  0  0  0  0  0
    6.4653   -1.1553    0.0000 C    0  0  0  0  0  0  0  0  0  0  0  0
    6.4653   -3.4659    0.0000 C    0  0  0  0  0  0  0  0  0  0  0  0
    2.4217   -2.9660    0.0000 C    0  0  0  0  0  0  0  0  0  0  0  0
    4.0880   -4.6546    0.0000 N    0  0  0  0  0  0  0  0  0  0  0  0
    2.4217   -1.6552    0.0000 C    0  0  0  0  0  0  0  0  0  0  0  0
    7.7873   -1.1553    0.0000 C    0  0  0  0  0  0  0  0  0  0  0  0
    5.7988    0.0000    0.0000 Cl   0  0  0  0  0  0  0  0  0  0  0  0
    7.7873   -3.4659    0.0000 C    0  0  0  0  0  0  0  0  0  0  0  0
    5.7988   -4.6101    0.0000 Cl   0  0  0  0  0  0  0  0  0  0  0  0
    1.3331   -3.7548    0.0000 S    0  0  0  0  0  0  0  0  0  0  0  0
    1.3442   -0.8665    0.0000 C    0  0  0  0  0  0  0  0  0  0  0  0
    8.4649   -2.3106    0.0000 C    0  0  0  0  0  0  0  0  0  0  0  0
    1.3331   -5.0878    0.0000 C    0  0  0  0  0  0  0  0  0  0  0  0
    0.1888   -3.0994    0.0000 O    0  0  0  0  0  0  0  0  0  0  0  0
    0.2777   -0.0778    0.0000 N    0  0  0  0  0  0  0  0  0  0  0  0
    9.7980   -2.3106    0.0000 C    0  0  0  0  0  0  0  0  0  0  0  0
    2.6661   -5.0878    0.0000 F    0  0  0  0  0  0  0  0  0  0  0  0
    1.3331   -6.4209    0.0000 F    0  0  0  0  0  0  0  0  0  0  0  0
    0.0000   -5.0878    0.0000 F    0  0  0  0  0  0  0  0  0  0  0  0
    9.7980   -0.9776    0.0000 F    0  0  0  0  0  0  0  0  0  0  0  0
   11.1088   -2.3106    0.0000 F    0  0  0  0  0  0  0  0  0  0  0  0
    9.7980   -3.6437    0.0000 F    0  0  0  0  0  0  0  0  0  0  0  0
  1  2  1  0  0  0  0
  1  3  1  0  0  0  0
  1  4  1  0  0  0  0
  2  5  2  0  0  0  0
  2  6  1  0  0  0  0
  3  7  2  0  0  0  0
  3  8  1  0  0  0  0
  4  9  2  0  0  0  0
  5 10  1  0  0  0  0
  5 11  1  0  0  0  0
  6 12  2  0  0  0  0
  6 13  1  0  0  0  0
  7 14  1  0  0  0  0
  7  9  1  0  0  0  0
  9 15  1  0  0  0  0
 10 16  2  0  0  0  0
 12 16  1  0  0  0  0
 14 17  1  0  0  0  0
 14 18  2  0  0  0  0
 15 19  3  0  0  0  0
 16 20  1  0  0  0  0
 17 21  1  0  0  0  0
 17 22  1  0  0  0  0
 17 23  1  0  0  0  0
 20 24  1  0  0  0  0
 20 25  1  0  0  0  0
 20 26  1  0  0  0  0
M  END
> <ID>
6844

> <Formula>
C12H4Cl2F6N4OS

> <FW>
437.1478

> <DSSTox_CID>
14609

> <DSSTox_RID>
79176

> <DSSTox_GSID>
34609

> <DSSTox_FileID_Sort>
3858

> <TS_ChemName>
Fipronil

> <TS_ChemName_Synonyms>


> <TS_CASRN>
120068-37-3

> <CASRN_ChemName_Relationship>
primary

> <TS_Description>
single chemical compound

> <ChemNote>


> <STRUCTURE_Shown>
tested chemical

> <STRUCTURE_Formula>
C12H4Cl2F6N4OS

> <STRUCTURE_MW>
437.1478

> <STRUCTURE_ChemType>
defined organic

> <STRUCTURE_DefinedOrganicForm>
parent

> <STRUCTURE_IUPAC>
5-amino-1-[2,6-dichloro-4-(trifluoromethyl)phenyl]-4-[(trifluoromethyl)sulfinyl]-1H-pyrazole-3-carbonitrile

> <STRUCTURE_SMILES>
FC(F)(F)S(=O)c1c(N)n(nc1C#N)c2c(Cl)cc(cc2Cl)C(F)(F)F

> <STRUCTURE_SMILES_Desalt>
FC(F)(F)S(=O)c1c(N)n(nc1C#N)c2c(Cl)cc(cc2Cl)C(F)(F)F

> <Substance_modify_yyyymmdd>
20080429

$$$$
