120066-54-8
ChemmineR-0915142007XD

 29 28  0  0  0  0  0  0  0  0  2 V2000
    2.9661   -2.0376    0.0000 N    0  0  0  0  0  0  0  0  0  0  0  0
    2.9661   -4.7629    0.0000 N    0  0  0  0  0  0  0  0  0  0  0  0
    1.8484   -2.7253    0.0000 C    0  0  0  0  0  0  0  0  0  0  0  0
    1.8484   -4.0493    0.0000 C    0  0  0  0  0  0  0  0  0  0  0  0
    5.6312   -2.0376    0.0000 N    0  0  0  0  0  0  0  0  0  0  0  0
    4.9434   -0.9027    0.0000 C    0  0  0  0  0  0  0  0  0  0  0  0
    3.6538   -0.9027    0.0000 C    0  0  0  0  0  0  0  0  0  0  0  0
    6.8004   -2.7253    0.0000 C    0  0  0  0  0  0  0  0  0  0  0  0
    6.8004   -4.0837    0.0000 C    0  0  0  0  0  0  0  0  0  0  0  0
    5.6312   -4.7629    0.0000 N    0  0  0  0  0  0  0  0  0  0  0  0
    4.9434   -5.8977    0.0000 C    0  0  0  0  0  0  0  0  0  0  0  0
    3.6538   -5.8977    0.0000 C    0  0  0  0  0  0  0  0  0  0  0  0
    6.5511   -1.1434    0.0000 C    0  0  0  0  0  0  0  0  0  0  0  0
    2.0118   -5.6570    0.0000 C    0  0  0  0  0  0  0  0  0  0  0  0
    2.0118   -1.1434    0.0000 C    0  0  0  0  0  0  0  0  0  0  0  0
    7.9181   -1.1434    0.0000 C    0  0  0  0  0  0  0  0  0  0  0  0
    8.5973   -2.3127    0.0000 O    0  0  0  0  0  0  0  0  0  0  0  0
    8.5973    0.0000    0.0000 O    0  5  0  0  0  0  0  0  0  0  0  0
    0.6792   -1.1434    0.0000 C    0  0  0  0  0  0  0  0  0  0  0  0
    0.0000   -2.3127    0.0000 O    0  0  0  0  0  0  0  0  0  0  0  0
    0.0000    0.0000    0.0000 O    0  5  0  0  0  0  0  0  0  0  0  0
    0.6792   -5.6570    0.0000 C    0  0  0  0  0  0  0  0  0  0  0  0
    0.0000   -4.4878    0.0000 O    0  0  0  0  0  0  0  0  0  0  0  0
    0.0000   -6.8090    0.0000 O    0  5  0  0  0  0  0  0  0  0  0  0
    6.5511   -5.6570    0.0000 C    0  0  0  0  0  0  0  0  0  0  0  0
    7.9181   -5.6570    0.0000 C    0  0  0  0  0  0  0  0  0  0  0  0
    8.5973   -4.4878    0.0000 C    0  0  0  0  0  0  0  0  0  0  0  0
    8.5973   -6.8090    0.0000 O    0  0  0  0  0  0  0  0  0  0  0  0
    4.2299   -3.4647    0.0000 Gd   0  1  0  0  0  0  0  0  0  0  0  0
  1  3  1  0  0  0  0
  1  7  1  0  0  0  0
  1 15  1  0  0  0  0
  2  4  1  0  0  0  0
  2 12  1  0  0  0  0
  2 14  1  0  0  0  0
  3  4  1  0  0  0  0
  5  6  1  0  0  0  0
  5  8  1  0  0  0  0
  5 13  1  0  0  0  0
  6  7  1  0  0  0  0
  8  9  1  0  0  0  0
  9 10  1  0  0  0  0
 10 11  1  0  0  0  0
 10 25  1  0  0  0  0
 11 12  1  0  0  0  0
 13 16  1  0  0  0  0
 14 22  1  0  0  0  0
 15 19  1  0  0  0  0
 16 17  2  0  0  0  0
 16 18  1  0  0  0  0
 19 20  2  0  0  0  0
 19 21  1  0  0  0  0
 22 23  2  0  0  0  0
 22 24  1  0  0  0  0
 25 26  1  0  0  0  0
 26 27  1  0  0  0  0
 26 28  1  0  0  0  0
M  END
> <ID>
13657

> <Formula>
C17H29GdN4O7

> <FW>
558.6848 (401.4364+157.2484)

> <DSSTox_CID>
28588

> <DSSTox_RID>
82859

> <DSSTox_GSID>
48662

> <DSSTox_FileID_Sort>
7536

> <TS_ChemName>
Gadoteridol

> <TS_ChemName_Synonyms>


> <TS_CASRN>
120066-54-8

> <CASRN_ChemName_Relationship>
primary

> <TS_Description>
single chemical compound

> <ChemNote>


> <STRUCTURE_Shown>
tested chemical

> <STRUCTURE_Formula>
C17H29GdN4O7

> <STRUCTURE_MW>
558.6848

> <STRUCTURE_ChemType>
organometallic

> <STRUCTURE_DefinedOrganicForm>


> <STRUCTURE_IUPAC>
gadolinium 2,2',2''-[10-(2-hydroxypropyl)-1,4,7,10-tetraazacyclododecane-1,4,7-triyl]triacetate

> <STRUCTURE_SMILES>
[Gd+3].[O-]C(=O)CN1CCN(CCN(CCN(CC(C)O)CC1)CC([O-])=O)CC([O-])=O

> <STRUCTURE_SMILES_Desalt>
O=C(O)CN1CCN(CCN(CCN(CC(C)O)CC1)CC(=O)O)CC(=O)O

> <Substance_modify_yyyymmdd>
20111204

$$$$
