120081-14-3
ChemmineR-0915142007XD

 38 38  0  0  1  0  0  0  0  0  1 V2000
    1.3521  -13.5059    0.0000 C   0  0  0  0  0  0  0  0  0  0  0  0
    2.4712  -14.2208    0.0000 C   0  0  0  0  0  0  0  0  0  0  0  0
    2.4401  -15.5419    0.0000 O   0  0  0  0  0  0  0  0  0  0  0  0
    3.6679  -13.5991    0.0000 N   0  0  0  0  0  0  0  0  0  0  0  0
    3.9321  -12.2936    0.0000 C   0  0  0  0  0  0  0  0  0  0  0  0
    2.6266  -12.0294    0.0000 H   0  0  0  0  0  0  0  0  0  0  0  0
    5.2376  -12.5734    0.0000 C   0  0  0  0  0  0  0  0  0  0  0  0
    5.6572  -13.8322    0.0000 O   0  0  0  0  0  0  0  0  0  0  0  0
    4.2118  -11.0036    0.0000 C   0  0  0  0  0  0  0  0  0  0  0  0
    5.4707  -10.5840    0.0000 O   0  0  0  0  0  0  0  0  0  0  0  0
    3.2327  -10.1022    0.0000 N   0  0  0  0  0  0  0  0  0  0  0  0
    3.4969   -8.7967    0.0000 C   0  0  0  0  0  0  0  0  0  0  0  0
    4.8024   -9.0920    0.0000 H   0  0  0  0  0  0  0  0  0  0  0  0
    2.2069   -8.5325    0.0000 C   0  0  0  0  0  0  0  0  0  0  0  0
    1.3055   -9.5116    0.0000 C   0  0  0  0  0  0  0  0  0  0  0  0
    1.7251  -10.7705    0.0000 O   0  0  0  0  0  0  0  0  0  0  0  0
    0.0000   -9.2474    0.0000 O   0  0  0  0  0  0  0  0  0  0  0  0
    3.7767   -7.5067    0.0000 C   0  0  0  0  0  0  0  0  0  0  0  0
    2.7975   -6.6208    0.0000 O   0  0  0  0  0  0  0  0  0  0  0  0
    5.0200   -7.1026    0.0000 N   0  0  0  0  0  0  0  0  0  0  0  0
    5.3153   -5.8127    0.0000 C   0  0  0  0  0  0  0  0  0  0  0  0
    4.0098   -5.5174    0.0000 H   0  0  0  0  0  0  0  0  0  0  0  0
    6.6208   -6.0613    0.0000 C   0  0  0  0  0  0  0  0  0  0  0  0
    7.0094   -7.3358    0.0000 C   0  0  0  0  0  0  0  0  0  0  0  0
    8.3149   -7.6155    0.0000 C   0  0  0  0  0  0  0  0  0  0  0  0
    9.2163   -6.6208    0.0000 C   0  0  0  0  0  0  0  0  0  0  0  0
   10.5218   -6.9006    0.0000 N   0  0  0  0  0  0  0  0  0  0  0  0
    5.5951   -4.4916    0.0000 C   0  0  0  0  0  0  0  0  0  0  0  0
    6.8540   -4.0720    0.0000 O   0  0  0  0  0  0  0  0  0  0  0  0
    4.5848   -3.6057    0.0000 N   0  0  0  0  0  0  0  0  0  0  0  0
    3.2949   -3.8855    0.0000 C   0  0  0  0  0  0  0  0  0  0  0  0
    2.6266   -2.7354    0.0000 C   0  0  0  0  0  0  0  0  0  0  0  0
    3.5125   -1.7562    0.0000 C   0  0  0  0  0  0  0  0  0  0  0  0
    4.7403   -2.2847    0.0000 C   0  0  0  0  0  0  0  0  0  0  0  0
    6.0613   -2.4245    0.0000 H   0  0  0  0  0  0  0  0  0  0  0  0
    5.2842   -1.0724    0.0000 C   0  0  0  0  0  0  0  0  0  0  0  0
    6.6053   -0.9325    0.0000 O   0  0  0  0  0  0  0  0  0  0  0  0
    4.4916    0.0000    0.0000 O   0  0  0  0  0  0  0  0  0  0  0  0
  1  2  1  0  0  0  0
  2  3  2  0  0  0  0
  2  4  1  0  0  0  0
  4  5  1  0  0  0  0
  5  6  1  1  0  0  0
  5  7  1  0  0  0  0
  5  9  1  0  0  0  0
  7  8  1  0  0  0  0
  9 10  2  0  0  0  0
  9 11  1  0  0  0  0
 11 12  1  0  0  0  0
 12 13  1  6  0  0  0
 12 14  1  0  0  0  0
 12 18  1  0  0  0  0
 14 15  1  0  0  0  0
 15 16  1  0  0  0  0
 15 17  2  0  0  0  0
 18 19  2  0  0  0  0
 18 20  1  0  0  0  0
 20 21  1  0  0  0  0
 21 22  1  1  0  0  0
 21 23  1  0  0  0  0
 21 28  1  0  0  0  0
 23 24  1  0  0  0  0
 24 25  1  0  0  0  0
 25 26  1  0  0  0  0
 26 27  1  0  0  0  0
 28 29  2  0  0  0  0
 28 30  1  0  0  0  0
 30 31  1  0  0  0  0
 30 34  1  0  0  0  0
 31 32  1  0  0  0  0
 32 33  1  0  0  0  0
 33 34  1  0  0  0  0
 34 35  1  0  0  0  0
 34 36  1  1  0  0  0
 36 37  1  0  0  0  0
 36 38  2  0  0  0  0
M  END
> <ID>
16033

> <Formula>
C20H33N5O9

> <FW>
487.5041

> <DSSTox_CID>
31418

> <DSSTox_RID>
97304

> <DSSTox_GSID>
57629

> <DSSTox_FileID_Sort>
8371

> <TS_ChemName>
Goralatide

> <TS_ChemName_Synonyms>


> <TS_CASRN>
120081-14-3

> <CASRN_ChemName_Relationship>
primary

> <TS_Description>
single chemical compound

> <ChemNote>


> <STRUCTURE_Shown>
tested chemical

> <STRUCTURE_Formula>
C20H33N5O9

> <STRUCTURE_MW>
487.5041

> <STRUCTURE_ChemType>
defined organic

> <STRUCTURE_DefinedOrganicForm>
parent

> <STRUCTURE_IUPAC>
N-acetyl-L-seryl-L-alpha-aspartyl-L-lysyl-L-proline

> <STRUCTURE_SMILES>
OC(=O)[C@@H]1CCCN1C(=O)[C@H](CCCCN)NC(=O)[C@H](CC(=O)O)NC(=O)[C@H](CO)NC(C)=O

> <STRUCTURE_SMILES_Desalt>
OC(=O)[C@@H]1CCCN1C(=O)[C@H](CCCCN)NC(=O)[C@H](CC(=O)O)NC(=O)[C@H](CO)NC(C)=O

> <Substance_modify_yyyymmdd>
20131018

$$$$
