120011-70-3
ChemmineR-0915142007XD

 29 31  0  0  0  0  0  0  0  0  1 V2000
    0.0000   -3.0525    0.0000 C    0  0  0  0  0  0  0  0  0  0  0  0
    1.1594   -3.7129    0.0000 O    0  0  0  0  0  0  0  0  0  0  0  0
    2.3187   -3.0525    0.0000 C    0  0  0  0  0  0  0  0  0  0  0  0
    2.3040   -1.7024    0.0000 C    0  0  0  0  0  0  0  0  0  0  0  0
    1.1300   -1.0566    0.0000 O    0  0  0  0  0  0  0  0  0  0  0  0
    0.0000   -1.7170    0.0000 C    0  0  0  0  0  0  0  0  0  0  0  0
    3.4634   -1.0273    0.0000 C    0  0  0  0  0  0  0  0  0  0  0  0
    4.6081   -1.6877    0.0000 C    0  0  0  0  0  0  0  0  0  0  0  0
    5.8702   -1.2768    0.0000 C    0  0  0  0  0  0  0  0  0  0  0  0
    6.2664    0.0000    0.0000 O    0  0  0  0  0  0  0  0  0  0  0  0
    6.6480   -2.3334    0.0000 C    0  0  0  0  0  0  0  0  0  0  0  0
    7.9688   -2.3334    0.0000 C    0  0  0  0  0  0  0  0  0  0  0  0
    8.6732   -3.4781    0.0000 C    0  0  0  0  0  0  0  0  0  0  0  0
   10.0087   -3.4634    0.0000 C    0  0  0  0  0  0  0  0  0  0  0  0
   10.6691   -4.5934    0.0000 C    0  0  0  0  0  0  0  0  0  0  0  0
   10.0233   -5.7528    0.0000 N    0  0  0  0  0  0  0  0  0  0  0  0
    8.6879   -5.7821    0.0000 C    0  0  0  0  0  0  0  0  0  0  0  0
    8.0128   -4.6228    0.0000 C    0  0  0  0  0  0  0  0  0  0  0  0
   10.6837   -6.9121    0.0000 C    0  0  0  0  0  0  0  0  0  0  0  0
   12.0339   -6.9121    0.0000 C    0  0  0  0  0  0  0  0  0  0  0  0
   12.6796   -5.7528    0.0000 C    0  0  0  0  0  0  0  0  0  0  0  0
   14.0151   -5.7528    0.0000 C    0  0  0  0  0  0  0  0  0  0  0  0
   14.6755   -6.9121    0.0000 C    0  0  0  0  0  0  0  0  0  0  0  0
   14.0004   -8.0568    0.0000 C    0  0  0  0  0  0  0  0  0  0  0  0
   12.6796   -8.0568    0.0000 C    0  0  0  0  0  0  0  0  0  0  0  0
    5.8849   -3.4194    0.0000 C    0  0  0  0  0  0  0  0  0  0  0  0
    4.6081   -3.0231    0.0000 C    0  0  0  0  0  0  0  0  0  0  0  0
    3.4781   -3.6982    0.0000 C    0  0  0  0  0  0  0  0  0  0  0  0
    4.5347   -4.8135    0.0000 Cl   0  0  0  0  0  0  0  0  0  0  0  0
  1  2  1  0  0  0  0
  2  3  1  0  0  0  0
  3  4  2  0  0  0  0
  3 28  1  0  0  0  0
  4  5  1  0  0  0  0
  4  7  1  0  0  0  0
  5  6  1  0  0  0  0
  7  8  2  0  0  0  0
  8  9  1  0  0  0  0
  8 27  1  0  0  0  0
  9 10  2  0  0  0  0
  9 11  1  0  0  0  0
 11 12  1  0  0  0  0
 11 26  1  0  0  0  0
 12 13  1  0  0  0  0
 13 14  1  0  0  0  0
 13 18  1  0  0  0  0
 14 15  1  0  0  0  0
 15 16  1  0  0  0  0
 16 17  1  0  0  0  0
 16 19  1  0  0  0  0
 17 18  1  0  0  0  0
 19 20  1  0  0  0  0
 20 21  2  0  0  0  0
 20 25  1  0  0  0  0
 21 22  1  0  0  0  0
 22 23  2  0  0  0  0
 23 24  1  0  0  0  0
 24 25  2  0  0  0  0
 26 27  1  0  0  0  0
 27 28  2  0  0  0  0
M  END
> <ID>
11896

> <Formula>
C24H30ClNO3

> <FW>
415.9529 (379.4920+36.4609)

> <DSSTox_CID>
26698

> <DSSTox_RID>
81832

> <DSSTox_GSID>
46698

> <DSSTox_FileID_Sort>
6513

> <TS_ChemName>
Donepezil hydrochloride

> <TS_ChemName_Synonyms>


> <TS_CASRN>
120011-70-3

> <CASRN_ChemName_Relationship>
primary

> <TS_Description>
single chemical compound

> <ChemNote>


> <STRUCTURE_Shown>
tested chemical

> <STRUCTURE_Formula>
C24H30ClNO3

> <STRUCTURE_MW>
415.9529

> <STRUCTURE_ChemType>
defined organic

> <STRUCTURE_DefinedOrganicForm>
complex

> <STRUCTURE_IUPAC>
2-[(1-benzylpiperidin-4-yl)methyl]-5,6-dimethoxy-2,3-dihydro-1H-inden-1-one hydrochloride (1:1)

> <STRUCTURE_SMILES>
Cl.COc1cc2C(=O)C(Cc2cc1OC)CC4CCN(Cc3ccccc3)CC4

> <STRUCTURE_SMILES_Desalt>
COc1cc2C(=O)C(Cc2cc1OC)CC4CCN(Cc3ccccc3)CC4

> <Substance_modify_yyyymmdd>
20110805

$$$$
