120116-88-3
ChemmineR-0915142007XD

 21 22  0  0  0  0  0  0  0  0  1 V2000
    7.3641   -1.6650    0.0000 N    0  0  0  0  0  0  0  0  0  0  0  0
    6.0987   -3.4157    0.0000 N    0  0  0  0  0  0  0  0  0  0  0  0
    7.3641   -2.9970    0.0000 C    0  0  0  0  0  0  0  0  0  0  0  0
    6.0987   -1.2654    0.0000 C    0  0  0  0  0  0  0  0  0  0  0  0
    5.3185   -2.3405    0.0000 C    0  0  0  0  0  0  0  0  0  0  0  0
    5.6896   -4.6811    0.0000 S    0  0  0  0  0  0  0  0  0  0  0  0
    4.4242   -4.2624    0.0000 O    0  0  0  0  0  0  0  0  0  0  0  0
    6.9550   -5.0902    0.0000 O    0  0  0  0  0  0  0  0  0  0  0  0
    5.2900   -5.9465    0.0000 N    0  0  0  0  0  0  0  0  0  0  0  0
    5.6896    0.0000    0.0000 Cl   0  0  0  0  0  0  0  0  0  0  0  0
    8.4393   -3.7772    0.0000 C    0  0  0  0  0  0  0  0  0  0  0  0
    9.5144   -4.5669    0.0000 N    0  0  0  0  0  0  0  0  0  0  0  0
    3.9770   -6.2129    0.0000 C    0  0  0  0  0  0  0  0  0  0  0  0
    6.1653   -6.9360    0.0000 C    0  0  0  0  0  0  0  0  0  0  0  0
    3.9865   -2.3405    0.0000 C    0  0  0  0  0  0  0  0  0  0  0  0
    3.3300   -3.4918    0.0000 C    0  0  0  0  0  0  0  0  0  0  0  0
    3.3300   -1.1893    0.0000 C    0  0  0  0  0  0  0  0  0  0  0  0
    1.9980   -3.4918    0.0000 C    0  0  0  0  0  0  0  0  0  0  0  0
    1.9980   -1.1893    0.0000 C    0  0  0  0  0  0  0  0  0  0  0  0
    1.3320   -2.3405    0.0000 C    0  0  0  0  0  0  0  0  0  0  0  0
    0.0000   -2.3405    0.0000 C    0  0  0  0  0  0  0  0  0  0  0  0
  1  3  2  0  0  0  0
  1  4  1  0  0  0  0
  2  3  1  0  0  0  0
  2  5  1  0  0  0  0
  2  6  1  0  0  0  0
  3 11  1  0  0  0  0
  4  5  2  0  0  0  0
  4 10  1  0  0  0  0
  5 15  1  0  0  0  0
  6  7  2  0  0  0  0
  6  9  1  0  0  0  0
  6  8  2  0  0  0  0
  9 13  1  0  0  0  0
  9 14  1  0  0  0  0
 11 12  3  0  0  0  0
 15 16  2  0  0  0  0
 15 17  1  0  0  0  0
 16 18  1  0  0  0  0
 17 19  2  0  0  0  0
 18 20  2  0  0  0  0
 19 20  1  0  0  0  0
 20 21  1  0  0  0  0
M  END
> <ID>
6808

> <Formula>
C13H13ClN4O2S

> <FW>
324.7859

> <DSSTox_CID>
14492

> <DSSTox_RID>
79158

> <DSSTox_GSID>
34492

> <DSSTox_FileID_Sort>
3840

> <TS_ChemName>
Cyazofamid

> <TS_ChemName_Synonyms>


> <TS_CASRN>
120116-88-3

> <CASRN_ChemName_Relationship>
primary

> <TS_Description>
single chemical compound

> <ChemNote>


> <STRUCTURE_Shown>
tested chemical

> <STRUCTURE_Formula>
C13H13ClN4O2S

> <STRUCTURE_MW>
324.7859

> <STRUCTURE_ChemType>
defined organic

> <STRUCTURE_DefinedOrganicForm>
parent

> <STRUCTURE_IUPAC>
4-chloro-2-cyano-N,N-dimethyl-5-(4-methylphenyl)-1H-imidazole-1-sulfonamide

> <STRUCTURE_SMILES>
N#Cc2nc(Cl)c(c1ccc(C)cc1)n2S(=O)(=O)N(C)C

> <STRUCTURE_SMILES_Desalt>
N#Cc2nc(Cl)c(c1ccc(C)cc1)n2S(=O)(=O)N(C)C

> <Substance_modify_yyyymmdd>
20080429

$$$$
