120210-48-2
ChemmineR-0915142007XD

 21 23  0  0  0  0  0  0  0  0  1 V2000
    4.1854    0.0000    0.0000 N    0  0  0  0  0  0  0  0  0  0  0  0
    5.1269   -0.9415    0.0000 C    0  0  0  0  0  0  0  0  0  0  0  0
    6.4279   -0.6676    0.0000 O    0  0  0  0  0  0  0  0  0  0  0  0
    4.7160   -2.2082    0.0000 N    0  0  0  0  0  0  0  0  0  0  0  0
    5.4949   -3.2867    0.0000 C    0  0  0  0  0  0  0  0  0  0  0  0
    4.7160   -4.3566    0.0000 C    0  0  0  0  0  0  0  0  0  0  0  0
    5.1269   -5.6233    0.0000 C    0  0  0  0  0  0  0  0  0  0  0  0
    4.1854   -6.5648    0.0000 O    0  0  0  0  0  0  0  0  0  0  0  0
    6.4107   -5.9657    0.0000 C    0  0  0  0  0  0  0  0  0  0  0  0
    7.4464   -5.1269    0.0000 C    0  0  0  0  0  0  0  0  0  0  0  0
    8.5591   -5.8544    0.0000 C    0  0  0  0  0  0  0  0  0  0  0  0
    8.2167   -7.1383    0.0000 C    0  0  0  0  0  0  0  0  0  0  0  0
    6.8901   -7.2067    0.0000 S    0  0  0  0  0  0  0  0  0  0  0  0
    3.4493   -3.9457    0.0000 C    0  0  0  0  0  0  0  0  0  0  0  0
    2.3024   -4.6133    0.0000 C    0  0  0  0  0  0  0  0  0  0  0  0
    1.1469   -3.9457    0.0000 C    0  0  0  0  0  0  0  0  0  0  0  0
    1.1469   -2.6191    0.0000 C    0  0  0  0  0  0  0  0  0  0  0  0
    2.3024   -1.9515    0.0000 C    0  0  0  0  0  0  0  0  0  0  0  0
    3.4493   -2.6191    0.0000 C    0  0  0  0  0  0  0  0  0  0  0  0
    0.0000   -4.6133    0.0000 Cl   0  0  0  0  0  0  0  0  0  0  0  0
    6.8301   -3.2867    0.0000 O    0  0  0  0  0  0  0  0  0  0  0  0
  1  2  1  0  0  0  0
  2  3  2  0  0  0  0
  2  4  1  0  0  0  0
  4  5  1  0  0  0  0
  4 19  1  0  0  0  0
  5  6  2  0  0  0  0
  5 21  1  0  0  0  0
  6  7  1  0  0  0  0
  6 14  1  0  0  0  0
  7  8  2  0  0  0  0
  7  9  1  0  0  0  0
  9 10  2  0  0  0  0
  9 13  1  0  0  0  0
 10 11  1  0  0  0  0
 11 12  2  0  0  0  0
 12 13  1  0  0  0  0
 14 15  2  0  0  0  0
 14 19  1  0  0  0  0
 15 16  1  0  0  0  0
 16 17  2  0  0  0  0
 16 20  1  0  0  0  0
 17 18  1  0  0  0  0
 18 19  2  0  0  0  0
M  END
> <ID>
11410

> <Formula>
C14H9ClN2O3S

> <FW>
320.7509

> <DSSTox_CID>
26104

> <DSSTox_RID>
81342

> <DSSTox_GSID>
46104

> <DSSTox_FileID_Sort>
6023

> <TS_ChemName>
Tenidap

> <TS_ChemName_Synonyms>


> <TS_CASRN>
120210-48-2

> <CASRN_ChemName_Relationship>
primary

> <TS_Description>
single chemical compound

> <ChemNote>
tautomers

> <STRUCTURE_Shown>
tested chemical

> <STRUCTURE_Formula>
C14H9ClN2O3S

> <STRUCTURE_MW>
320.7509

> <STRUCTURE_ChemType>
defined organic

> <STRUCTURE_DefinedOrganicForm>
parent

> <STRUCTURE_IUPAC>
5-chloro-2-hydroxy-3-(thiophen-2-ylcarbonyl)-1H-indole-1-carboxamide

> <STRUCTURE_SMILES>
O=C(c1c(O)n(C(N)=O)c2ccc(Cl)cc12)c3cccs3

> <STRUCTURE_SMILES_Desalt>
O=C(c1c(O)n(C(N)=O)c2ccc(Cl)cc12)c3cccs3

> <Substance_modify_yyyymmdd>
20110819

$$$$
