120373-24-2
ChemmineR-0915142007XD

 30 30  0  0  1  0  0  0  0  0  1 V2000
    0.0000   -4.6683    0.0000 C   0  0  0  0  0  0  0  0  0  0  0  0
    0.8007   -3.5826    0.0000 C   0  0  0  0  0  0  0  0  0  0  0  0
    0.8007   -5.7403    0.0000 C   0  0  0  0  0  0  0  0  0  0  0  0
    2.0627   -3.9762    0.0000 C   0  0  0  0  0  0  0  0  0  0  0  0
    2.0627   -5.3197    0.0000 C   0  0  0  0  0  0  0  0  0  0  0  0
    4.3426   -5.3197    0.0000 C   0  0  0  0  0  0  0  0  0  0  0  0
    3.2026   -3.3384    0.0000 C   0  0  0  0  0  0  0  0  0  0  0  0
    3.2026   -5.9846    0.0000 C   0  0  0  0  0  0  0  0  0  0  0  0
    6.6631   -5.3197    0.0000 C   0  0  0  0  0  0  0  0  0  0  0  0
    5.5096   -5.9846    0.0000 C   0  0  0  0  0  0  0  0  0  0  0  0
    8.9566   -5.3197    0.0000 C   0  0  0  0  0  0  0  0  0  0  0  0
    7.8166   -5.9846    0.0000 C   0  0  0  0  0  0  0  0  0  0  0  0
   11.2500   -5.3197    0.0000 C   0  0  0  0  0  0  0  0  0  0  0  0
   10.1236   -5.9846    0.0000 C   0  0  0  0  0  0  0  0  0  0  0  0
   13.5705   -5.3197    0.0000 C   0  0  0  0  0  0  0  0  0  0  0  0
   12.4170   -5.9846    0.0000 C   0  0  0  0  0  0  0  0  0  0  0  0
    0.3800   -2.3206    0.0000 O   0  0  0  0  0  0  0  0  0  0  0  0
    0.3800   -7.0160    0.0000 O   0  0  0  0  0  0  0  0  0  0  0  0
    5.5096   -7.3145    0.0000 O   0  0  0  0  0  0  0  0  0  0  0  0
    4.3426   -3.9762    0.0000 C   0  0  0  0  0  0  0  0  0  0  0  0
    5.5096   -3.3384    0.0000 C   0  0  0  0  0  0  0  0  0  0  0  0
    5.5096   -1.9949    0.0000 C   0  0  0  0  0  0  0  0  0  0  0  0
    6.6631   -1.3299    0.0000 C   0  0  0  0  0  0  0  0  0  0  0  0
    7.8166   -1.9949    0.0000 C   0  0  0  0  0  0  0  0  0  0  0  0
    8.9566   -1.3299    0.0000 C   0  0  0  0  0  0  0  0  0  0  0  0
    8.9566    0.0000    0.0000 O   0  0  0  0  0  0  0  0  0  0  0  0
   10.1236   -1.9949    0.0000 O   0  0  0  0  0  0  0  0  0  0  0  0
   11.2500   -1.3299    0.0000 C   0  0  0  0  0  0  0  0  0  0  0  0
   11.2500    0.0000    0.0000 C   0  0  0  0  0  0  0  0  0  0  0  0
   12.4170   -1.9949    0.0000 C   0  0  0  0  0  0  0  0  0  0  0  0
  1  2  1  0  0  0  0
  1  3  1  0  0  0  0
  2  4  1  0  0  0  0
  2 17  1  6  0  0  0
  3  5  1  0  0  0  0
  3 18  1  6  0  0  0
  4  7  1  6  0  0  0
  4  5  1  0  0  0  0
  5  8  1  1  0  0  0
  6  8  1  0  0  0  0
  6 10  1  0  0  0  0
  7 20  1  0  0  0  0
  9 10  1  0  0  0  0
  9 12  1  0  0  0  0
 10 19  2  0  0  0  0
 11 12  1  0  0  0  0
 11 14  1  0  0  0  0
 13 14  1  0  0  0  0
 13 16  1  0  0  0  0
 15 16  1  0  0  0  0
 20 21  2  0  0  0  0
 21 22  1  0  0  0  0
 22 23  1  0  0  0  0
 23 24  1  0  0  0  0
 24 25  1  0  0  0  0
 25 26  2  0  0  0  0
 25 27  1  0  0  0  0
 27 28  1  0  0  0  0
 28 29  1  0  0  0  0
 28 30  1  0  0  0  0
M  END
> <ID>
14055

> <Formula>
C25H44O5

> <FW>
424.6139

> <DSSTox_CID>
28997

> <DSSTox_RID>
83262

> <DSSTox_GSID>
49071

> <DSSTox_FileID_Sort>
7937

> <TS_ChemName>
Unoprostone isopropyl ester

> <TS_ChemName_Synonyms>


> <TS_CASRN>
120373-24-2

> <CASRN_ChemName_Relationship>
primary

> <TS_Description>
single chemical compound

> <ChemNote>


> <STRUCTURE_Shown>
tested chemical

> <STRUCTURE_Formula>
C25H44O5

> <STRUCTURE_MW>
424.6139

> <STRUCTURE_ChemType>
defined organic

> <STRUCTURE_DefinedOrganicForm>
parent

> <STRUCTURE_IUPAC>
propan-2-yl (5Z)-7-[(1R,2R,3R,5S)-3,5-dihydroxy-2-(3-oxodecyl)cyclopentyl]hept-5-enoate

> <STRUCTURE_SMILES>
O[C@@H]1C[C@H](O)[C@H](C/C=C\CCCC(=O)OC(C)C)[C@H]1CCC(=O)CCCCCCC

> <STRUCTURE_SMILES_Desalt>
O[C@@H]1C[C@H](O)[C@H](C/C=C\CCCC(=O)OC(C)C)[C@H]1CCC(=O)CCCCCCC

> <Substance_modify_yyyymmdd>
20111204

$$$$
