120410-24-4
ChemmineR-0915142007XD

 26 29  0  0  1  0  0  0  0  0  2 V2000
    2.3067   -1.9921    0.0000 C   0  0  0  0  0  0  0  0  0  0  0  0
    3.6278   -3.3342    0.0000 N   0  0  0  0  0  0  0  0  0  0  0  0
    3.6278   -1.9921    0.0000 C   0  0  0  0  0  0  0  0  0  0  0  0
    2.3067   -3.3342    0.0000 C   0  0  0  0  0  0  0  0  0  0  0  0
    4.8860   -3.7326    0.0000 C   0  0  0  0  0  0  0  0  0  0  0  0
    5.6723   -2.6632    0.0000 C   0  0  0  0  0  0  0  0  0  0  0  0
    4.8860   -1.5832    0.0000 C   0  0  0  0  0  0  0  0  0  0  0  0
    5.2949   -5.0013    0.0000 C   0  0  0  0  0  0  0  0  0  0  0  0
    6.5845   -5.2949    0.0000 O   0  0  0  0  0  0  0  0  0  0  0  0
    4.4037   -5.9974    0.0000 O   0  5  0  0  0  0  0  0  0  0  0  0
    5.2949   -0.3250    0.0000 C   0  0  0  0  0  0  0  0  0  0  0  0
    0.0000   -1.9921    0.0000 C   0  0  0  0  0  0  0  0  0  0  0  0
    1.1429   -1.3316    0.0000 C   0  0  0  0  0  0  0  0  0  0  0  0
    1.3630   -4.2778    0.0000 O   0  0  0  0  0  0  0  0  0  0  0  0
    3.6278   -0.6605    0.0000 H   0  0  0  0  0  0  0  0  0  0  0  0
    2.3067   -0.6605    0.0000 H   0  0  0  0  0  0  0  0  0  0  0  0
    1.1429    0.0000    0.0000 O   0  0  0  0  0  0  0  0  0  0  0  0
    7.0039   -2.6632    0.0000 S   0  0  0  0  0  0  0  0  0  0  0  0
    7.6435   -3.7955    0.0000 C   0  0  0  0  0  0  0  0  0  0  0  0
    8.9751   -3.7955    0.0000 C   0  0  0  0  0  0  0  0  0  0  0  0
    7.2451   -5.0642    0.0000 C   0  0  0  0  0  0  0  0  0  0  0  0
    9.3945   -5.0642    0.0000 N   0  0  0  0  0  0  0  0  0  0  0  0
    8.3355   -5.8506    0.0000 N   0  3  0  0  0  0  0  0  0  0  0  0
   10.4849   -5.8506    0.0000 C   0  0  0  0  0  0  0  0  0  0  0  0
   10.0655   -7.1192    0.0000 N   0  0  0  0  0  0  0  0  0  0  0  0
    8.7339   -7.1192    0.0000 C   0  0  0  0  0  0  0  0  0  0  0  0
  1  3  1  0  0  0  0
  1  4  1  0  0  0  0
  1 13  1  0  0  0  0
  1 16  1  1  0  0  0
  2  4  1  0  0  0  0
  2  5  1  0  0  0  0
  2  3  1  0  0  0  0
  3  7  1  0  0  0  0
  3 15  1  6  0  0  0
  4 14  2  0  0  0  0
  5  6  2  0  0  0  0
  5  8  1  0  0  0  0
  6  7  1  0  0  0  0
  6 18  1  0  0  0  0
  7 11  1  1  0  0  0
  8  9  2  0  0  0  0
  8 10  1  0  0  0  0
 12 13  1  0  0  0  0
 13 17  1  1  0  0  0
 18 19  1  0  0  0  0
 19 20  1  0  0  0  0
 19 21  1  0  0  0  0
 20 22  1  0  0  0  0
 21 23  1  0  0  0  0
 22 24  1  0  0  0  0
 22 23  1  0  0  0  0
 23 26  2  0  0  0  0
 24 25  2  0  0  0  0
 25 26  1  0  0  0  0
M  END
> <ID>
11678

> <Formula>
C15H18N4O4S

> <FW>
350.3928

> <DSSTox_CID>
26435

> <DSSTox_RID>
81612

> <DSSTox_GSID>
46435

> <DSSTox_FileID_Sort>
6293

> <TS_ChemName>
Biapenem

> <TS_ChemName_Synonyms>


> <TS_CASRN>
120410-24-4

> <CASRN_ChemName_Relationship>
primary

> <TS_Description>
single chemical compound

> <ChemNote>
stereochem; zwitterion; ammonium

> <STRUCTURE_Shown>
tested chemical

> <STRUCTURE_Formula>
C15H18N4O4S

> <STRUCTURE_MW>
350.3928

> <STRUCTURE_ChemType>
defined organic

> <STRUCTURE_DefinedOrganicForm>
parent

> <STRUCTURE_IUPAC>
(4R,5S,6S)-3-(6,7-dihydro-5H-pyrazolo[1,2-a][1,2,4]triazol-4-ium-6-ylsulfanyl)-6-[(1R)-1-hydroxyethyl]-4-methyl-7-oxo-1-azabicyclo[3.2.0]hept-2-ene-2-carboxylate

> <STRUCTURE_SMILES>
[O-]C(=O)C=4N1C(=O)[C@H]([C@@H](C)O)[C@H]1[C@@H](C)C=4SC2C[n+]3cncn3C2

> <STRUCTURE_SMILES_Desalt>
O=C(O)C=4N1C(=O)[C@H]([C@@H](C)O)[C@H]1[C@@H](C)C=4SC2C[n+]3cncn3C2

> <Substance_modify_yyyymmdd>
20110813

$$$$
