120511-73-1
ChemmineR-0915142007XD

 22 23  0  0  0  0  0  0  0  0  1 V2000
    3.3229   -4.7843    0.0000 C   0  0  0  0  0  0  0  0  0  0  0  0
    2.6618   -3.6274    0.0000 C   0  0  0  0  0  0  0  0  0  0  0  0
    1.3309   -3.6274    0.0000 C   0  0  0  0  0  0  0  0  0  0  0  0
    1.3309   -2.2965    0.0000 C   0  0  0  0  0  0  0  0  0  0  0  0
    0.0000   -3.6274    0.0000 C   0  0  0  0  0  0  0  0  0  0  0  0
    1.3309   -4.9583    0.0000 C   0  0  0  0  0  0  0  0  0  0  0  0
    1.3309   -6.2892    0.0000 N   0  0  0  0  0  0  0  0  0  0  0  0
    3.3229   -2.4791    0.0000 C   0  0  0  0  0  0  0  0  0  0  0  0
    4.6538   -2.4791    0.0000 C   0  0  0  0  0  0  0  0  0  0  0  0
    5.3236   -1.3309    0.0000 C   0  0  0  0  0  0  0  0  0  0  0  0
    5.9847   -0.1740    0.0000 C   0  0  0  0  0  0  0  0  0  0  0  0
    6.4718   -1.9920    0.0000 C   0  0  0  0  0  0  0  0  0  0  0  0
    4.1667   -0.6611    0.0000 C   0  0  0  0  0  0  0  0  0  0  0  0
    3.0185    0.0000    0.0000 N   0  0  0  0  0  0  0  0  0  0  0  0
    5.3236   -3.6274    0.0000 C   0  0  0  0  0  0  0  0  0  0  0  0
    4.6538   -4.7843    0.0000 C   0  0  0  0  0  0  0  0  0  0  0  0
    5.3236   -5.9325    0.0000 C   0  0  0  0  0  0  0  0  0  0  0  0
    6.6545   -5.9325    0.0000 N   0  0  0  0  0  0  0  0  0  0  0  0
    7.4374   -4.8626    0.0000 N   0  0  0  0  0  0  0  0  0  0  0  0
    8.6987   -5.2714    0.0000 C   0  0  0  0  0  0  0  0  0  0  0  0
    8.6987   -6.6023    0.0000 N   0  0  0  0  0  0  0  0  0  0  0  0
    7.4374   -7.0112    0.0000 C   0  0  0  0  0  0  0  0  0  0  0  0
  1  2  2  0  0  0  0
  1 16  1  0  0  0  0
  2  3  1  0  0  0  0
  2  8  1  0  0  0  0
  3  4  1  0  0  0  0
  3  5  1  0  0  0  0
  3  6  1  0  0  0  0
  6  7  3  0  0  0  0
  8  9  2  0  0  0  0
  9 10  1  0  0  0  0
  9 15  1  0  0  0  0
 10 11  1  0  0  0  0
 10 12  1  0  0  0  0
 10 13  1  0  0  0  0
 13 14  3  0  0  0  0
 15 16  2  0  0  0  0
 16 17  1  0  0  0  0
 17 18  1  0  0  0  0
 18 19  1  0  0  0  0
 18 22  1  0  0  0  0
 19 20  2  0  0  0  0
 20 21  1  0  0  0  0
 21 22  2  0  0  0  0
M  END
> <ID>
2363

> <Formula>
C17H19N5

> <FW>
293.3663

> <DSSTox_CID>
2607

> <DSSTox_RID>
76656

> <DSSTox_GSID>
22607

> <DSSTox_FileID_Sort>
1340

> <TS_ChemName>
Anastrozole

> <TS_ChemName_Synonyms>


> <TS_CASRN>
120511-73-1

> <CASRN_ChemName_Relationship>
primary

> <TS_Description>
single chemical compound

> <ChemNote>


> <STRUCTURE_Shown>
tested chemical

> <STRUCTURE_Formula>
C17H19N5

> <STRUCTURE_MW>
293.3663

> <STRUCTURE_ChemType>
defined organic

> <STRUCTURE_DefinedOrganicForm>
parent

> <STRUCTURE_IUPAC>
2,2'-[5-(1H-1,2,4-triazol-1-ylmethyl)benzene-1,3-diyl]bis(2-methylpropanenitrile)

> <STRUCTURE_SMILES>
N#CC(C)(C)c1cc(cc(c1)C(C)(C)C#N)Cn2cncn2

> <STRUCTURE_SMILES_Desalt>
N#CC(C)(C)c1cc(cc(c1)C(C)(C)C#N)Cn2cncn2

> <Substance_modify_yyyymmdd>
20080429

$$$$
