1205-17-0
ChemmineR-0915142007XD

 15 16  0  0  0  0  0  0  0  0  1 V2000
    0.7789   -1.5757    0.0000 O   0  0  0  0  0  0  0  0  0  0  0  0
    2.0413   -1.9875    0.0000 C   0  0  0  0  0  0  0  0  0  0  0  0
    0.0000   -2.6590    0.0000 C   0  0  0  0  0  0  0  0  0  0  0  0
    2.0413   -3.3215    0.0000 C   0  0  0  0  0  0  0  0  0  0  0  0
    0.7789   -3.7334    0.0000 O   0  0  0  0  0  0  0  0  0  0  0  0
    3.1962   -1.3250    0.0000 C   0  0  0  0  0  0  0  0  0  0  0  0
    4.3511   -1.9875    0.0000 C   0  0  0  0  0  0  0  0  0  0  0  0
    3.1962   -3.9840    0.0000 C   0  0  0  0  0  0  0  0  0  0  0  0
    4.3511   -3.3215    0.0000 C   0  0  0  0  0  0  0  0  0  0  0  0
    5.4971   -1.3250    0.0000 C   0  0  0  0  0  0  0  0  0  0  0  0
    6.6520   -1.9875    0.0000 C   0  0  0  0  0  0  0  0  0  0  0  0
    7.7980   -1.3250    0.0000 C   0  0  0  0  0  0  0  0  0  0  0  0
    6.6520   -3.3215    0.0000 C   0  0  0  0  0  0  0  0  0  0  0  0
    8.9529   -1.9875    0.0000 H   0  0  0  0  0  0  0  0  0  0  0  0
    7.7980    0.0000    0.0000 O   0  0  0  0  0  0  0  0  0  0  0  0
  1  2  1  0  0  0  0
  1  3  1  0  0  0  0
  2  6  1  0  0  0  0
  2  4  2  0  0  0  0
  3  5  1  0  0  0  0
  4  5  1  0  0  0  0
  4  8  1  0  0  0  0
  6  7  2  0  0  0  0
  7  9  1  0  0  0  0
  7 10  1  0  0  0  0
  8  9  2  0  0  0  0
 10 11  1  0  0  0  0
 11 12  1  0  0  0  0
 11 13  1  0  0  0  0
 12 14  1  0  0  0  0
 12 15  2  0  0  0  0
M  END
> <ID>
9736

> <Formula>
C11H12O3

> <FW>
192.2112

> <DSSTox_CID>
23908

> <DSSTox_RID>
80086

> <DSSTox_GSID>
43908

> <DSSTox_FileID_Sort>
4768

> <TS_ChemName>
alpha-Methyl-3,4-methylene-dioxyhydrocinnamic aldehyde

> <TS_ChemName_Synonyms>


> <TS_CASRN>
1205-17-0

> <CASRN_ChemName_Relationship>
primary

> <TS_Description>
single chemical compound

> <ChemNote>


> <STRUCTURE_Shown>
tested chemical

> <STRUCTURE_Formula>
C11H12O3

> <STRUCTURE_MW>
192.2112

> <STRUCTURE_ChemType>
defined organic

> <STRUCTURE_DefinedOrganicForm>
parent

> <STRUCTURE_IUPAC>
3-(1,3-benzodioxol-5-yl)-2-methylpropanal

> <STRUCTURE_SMILES>
O=CC(C)Cc1ccc2OCOc2c1

> <STRUCTURE_SMILES_Desalt>
O=CC(C)Cc1ccc2OCOc2c1

> <Substance_modify_yyyymmdd>
20090108

$$$$
