120693-79-0
ChemmineR-0915142007XD

 26 27  0  0  1  0  0  0  0  0  1 V2000
   13.6552   -3.8022    0.0000 C   0  0  0  0  0  0  0  0  0  0  0  0
   10.2673   -3.1512    0.0000 C   0  0  0  0  0  0  0  0  0  0  0  0
   11.3769   -3.8022    0.0000 C   0  0  0  0  0  0  0  0  0  0  0  0
   12.5308   -3.1364    0.0000 C   0  0  0  0  0  0  0  0  0  0  0  0
   13.6700   -5.0893    0.0000 O   0  0  0  0  0  0  0  0  0  0  0  0
   10.2673   -1.8493    0.0000 O   0  0  0  0  0  0  0  0  0  0  0  0
   14.7944   -3.1660    0.0000 O   0  0  0  0  0  0  0  0  0  0  0  0
    9.1281   -3.7874    0.0000 O   0  0  0  0  0  0  0  0  0  0  0  0
    4.3643   -4.3200    0.0000 C   0  0  0  0  0  0  0  0  0  0  0  0
    3.4471   -3.4175    0.0000 C   0  0  0  0  0  0  0  0  0  0  0  0
    5.6367   -1.1983    0.0000 C   0  0  0  0  0  0  0  0  0  0  0  0
    4.3643   -2.6926    0.0000 C   0  0  0  0  0  0  0  0  0  0  0  0
    6.5539   -2.1304    0.0000 N   0  0  0  0  0  0  0  0  0  0  0  0
    3.4471   -2.1304    0.0000 C   0  0  0  0  0  0  0  0  0  0  0  0
    4.3643   -1.1983    0.0000 C   0  0  0  0  0  0  0  0  0  0  0  0
    5.6367   -4.3200    0.0000 C   0  0  0  0  0  0  0  0  0  0  0  0
    6.5539   -3.4175    0.0000 C   0  0  0  0  0  0  0  0  0  0  0  0
    2.3079   -4.0685    0.0000 C   0  0  0  0  0  0  0  0  0  0  0  0
    2.3079   -1.4498    0.0000 C   0  0  0  0  0  0  0  0  0  0  0  0
    1.1836   -3.4175    0.0000 C   0  0  0  0  0  0  0  0  0  0  0  0
    3.8761   -5.5627    0.0000 C   0  0  0  0  0  0  0  0  0  0  0  0
    1.1836   -2.1304    0.0000 C   0  0  0  0  0  0  0  0  0  0  0  0
    7.7670   -1.6126    0.0000 C   0  0  0  0  0  0  0  0  0  0  0  0
    5.3408   -3.0624    0.0000 C   0  0  0  0  0  0  0  0  0  0  0  0
    0.0000   -4.0685    0.0000 O   0  0  0  0  0  0  0  0  0  0  0  0
    6.1397    0.0000    0.0000 H   0  0  0  0  0  0  0  0  0  0  0  0
  1  4  1  0  0  0  0
  1  5  2  0  0  0  0
  1  7  1  0  0  0  0
  2  3  1  0  0  0  0
  2  6  2  0  0  0  0
  2  8  1  0  0  0  0
  3  4  2  0  0  0  0
  9 10  1  0  0  0  0
  9 12  1  0  0  0  0
  9 16  1  0  0  0  0
  9 21  1  6  0  0  0
 10 14  2  0  0  0  0
 10 18  1  0  0  0  0
 11 12  1  0  0  0  0
 11 15  1  0  0  0  0
 11 13  1  0  0  0  0
 11 26  1  6  0  0  0
 12 24  1  6  0  0  0
 13 17  1  0  0  0  0
 13 23  1  0  0  0  0
 14 19  1  0  0  0  0
 14 15  1  0  0  0  0
 16 17  1  0  0  0  0
 18 20  2  0  0  0  0
 19 22  2  0  0  0  0
 20 22  1  0  0  0  0
 20 25  1  0  0  0  0
M  END
> <ID>
13900

> <Formula>
C19H25NO5

> <FW>
347.4055 (116.0722+231.3333)

> <DSSTox_CID>
28837

> <DSSTox_RID>
83106

> <DSSTox_GSID>
48911

> <DSSTox_FileID_Sort>
7783

> <TS_ChemName>
(-)-Metazocine fumarate (1:1)

> <TS_ChemName_Synonyms>


> <TS_CASRN>
120693-79-0

> <CASRN_ChemName_Relationship>
primary

> <TS_Description>
single chemical compound

> <ChemNote>
absolute stereochem; parent [21286-60-2]

> <STRUCTURE_Shown>
tested chemical

> <STRUCTURE_Formula>
C19H25NO5

> <STRUCTURE_MW>
347.4055

> <STRUCTURE_ChemType>
defined organic

> <STRUCTURE_DefinedOrganicForm>
complex

> <STRUCTURE_IUPAC>
(2R,6R,11S)-3,6,11-trimethyl-1,2,3,4,5,6-hexahydro-2,6-methano-3-benzazocin-8-ol (2E)-but-2-enedioate (1:1)

> <STRUCTURE_SMILES>
O=C(O)/C=C/C(=O)O.Oc2ccc3C[C@@H]1[C@@H](C)[C@@](C)(CCN1C)c3c2

> <STRUCTURE_SMILES_Desalt>
Oc2ccc3C[C@@H]1[C@@H](C)[C@@](C)(CCN1C)c3c2

> <Substance_modify_yyyymmdd>
20111204

$$$$
