120638-55-3
ChemmineR-0915142007XD

 45 42  0  0  0  0  0  0  0  0  2 V2000
    3.4477   -1.9600    0.0000 C    0  0  0  0  0  0  0  0  0  0  0  0
    3.4477   -3.3296    0.0000 C    0  0  0  0  0  0  0  0  0  0  0  0
    2.3024   -1.3224    0.0000 C    0  0  0  0  0  0  0  0  0  0  0  0
    2.3024   -3.9790    0.0000 C    0  0  0  0  0  0  0  0  0  0  0  0
    1.1807   -1.9600    0.0000 C    0  0  0  0  0  0  0  0  0  0  0  0
    1.1807   -3.3296    0.0000 C    0  0  0  0  0  0  0  0  0  0  0  0
    5.7501   -1.9600    0.0000 C    0  0  0  0  0  0  0  0  0  0  0  0
    5.7501   -3.3296    0.0000 C    0  0  0  0  0  0  0  0  0  0  0  0
    4.6166   -1.3224    0.0000 C    0  0  0  0  0  0  0  0  0  0  0  0
    8.0525   -1.9600    0.0000 C    0  0  0  0  0  0  0  0  0  0  0  0
    8.0525   -3.3296    0.0000 C    0  0  0  0  0  0  0  0  0  0  0  0
    6.9072   -1.3224    0.0000 C    0  0  0  0  0  0  0  0  0  0  0  0
    6.9072   -3.9790    0.0000 C    0  0  0  0  0  0  0  0  0  0  0  0
    4.6166    0.0000    0.0000 O    0  0  0  0  0  0  0  0  0  0  0  0
    9.2095   -1.3224    0.0000 C    0  0  0  0  0  0  0  0  0  0  0  0
   10.3548   -1.9600    0.0000 C    0  0  0  0  0  0  0  0  0  0  0  0
   11.5237   -1.3224    0.0000 O    0  0  0  0  0  0  0  0  0  0  0  0
   10.3548   -3.3296    0.0000 O    0  5  0  0  0  0  0  0  0  0  0  0
    0.0000   -3.9790    0.0000 Br   0  0  0  0  0  0  0  0  0  0  0  0
    6.9072    0.0000    0.0000 N    0  0  0  0  0  0  0  0  0  0  0  0
   11.8071   -2.8691    0.0000 Na   0  3  0  0  0  0  0  0  0  0  0  0
    3.5185   -7.7219    0.0000 C    0  0  0  0  0  0  0  0  0  0  0  0
    3.5185   -9.0915    0.0000 C    0  0  0  0  0  0  0  0  0  0  0  0
    2.3732   -7.0843    0.0000 C    0  0  0  0  0  0  0  0  0  0  0  0
    2.3732   -9.7409    0.0000 C    0  0  0  0  0  0  0  0  0  0  0  0
    1.2397   -7.7219    0.0000 C    0  0  0  0  0  0  0  0  0  0  0  0
    1.2397   -9.0915    0.0000 C    0  0  0  0  0  0  0  0  0  0  0  0
    5.8091   -7.7219    0.0000 C    0  0  0  0  0  0  0  0  0  0  0  0
    5.8091   -9.0915    0.0000 C    0  0  0  0  0  0  0  0  0  0  0  0
    4.6756   -7.0843    0.0000 C    0  0  0  0  0  0  0  0  0  0  0  0
    8.1115   -7.7219    0.0000 C    0  0  0  0  0  0  0  0  0  0  0  0
    8.1115   -9.0915    0.0000 C    0  0  0  0  0  0  0  0  0  0  0  0
    6.9662   -7.0843    0.0000 C    0  0  0  0  0  0  0  0  0  0  0  0
    6.9662   -9.7409    0.0000 C    0  0  0  0  0  0  0  0  0  0  0  0
    4.6756   -5.7619    0.0000 O    0  0  0  0  0  0  0  0  0  0  0  0
    9.2804   -7.0843    0.0000 C    0  0  0  0  0  0  0  0  0  0  0  0
   10.4257   -7.7219    0.0000 C    0  0  0  0  0  0  0  0  0  0  0  0
   11.5828   -7.0843    0.0000 O    0  0  0  0  0  0  0  0  0  0  0  0
   10.4257   -9.0915    0.0000 O    0  5  0  0  0  0  0  0  0  0  0  0
    0.0590   -9.7409    0.0000 Br   0  0  0  0  0  0  0  0  0  0  0  0
    6.9662   -5.7619    0.0000 N    0  0  0  0  0  0  0  0  0  0  0  0
   11.7717   -8.4185    0.0000 Na   0  3  0  0  0  0  0  0  0  0  0  0
    1.1335   -5.0298    0.0000 O    0  0  0  0  0  0  0  0  0  0  0  0
    2.9754   -5.0298    0.0000 O    0  0  0  0  0  0  0  0  0  0  0  0
    9.5756   -4.9826    0.0000 O    0  0  0  0  0  0  0  0  0  0  0  0
  1  3  2  0  0  0  0
  1  9  1  0  0  0  0
  1  2  1  0  0  0  0
  2  4  2  0  0  0  0
  3  5  1  0  0  0  0
  4  6  1  0  0  0  0
  5  6  2  0  0  0  0
  6 19  1  0  0  0  0
  7  9  1  0  0  0  0
  7 12  1  0  0  0  0
  7  8  2  0  0  0  0
  8 13  1  0  0  0  0
  9 14  2  0  0  0  0
 10 11  1  0  0  0  0
 10 12  2  0  0  0  0
 10 15  1  0  0  0  0
 11 13  2  0  0  0  0
 12 20  1  0  0  0  0
 15 16  1  0  0  0  0
 16 17  2  0  0  0  0
 16 18  1  0  0  0  0
 22 24  2  0  0  0  0
 22 30  1  0  0  0  0
 22 23  1  0  0  0  0
 23 25  2  0  0  0  0
 24 26  1  0  0  0  0
 25 27  1  0  0  0  0
 26 27  2  0  0  0  0
 27 40  1  0  0  0  0
 28 30  1  0  0  0  0
 28 33  1  0  0  0  0
 28 29  2  0  0  0  0
 29 34  1  0  0  0  0
 30 35  2  0  0  0  0
 31 32  1  0  0  0  0
 31 33  2  0  0  0  0
 31 36  1  0  0  0  0
 32 34  2  0  0  0  0
 33 41  1  0  0  0  0
 36 37  1  0  0  0  0
 37 38  2  0  0  0  0
 37 39  1  0  0  0  0
M  END
> <ID>
9902

> <Formula>
C30H28Br2N2Na2O9

> <FW>
766.3389 (333.1573+22.9892+333.1573+22.9892+18.0153+18.0153+18.0153)

> <DSSTox_CID>
24206

> <DSSTox_RID>
80119

> <DSSTox_GSID>
44206

> <DSSTox_FileID_Sort>
4801

> <TS_ChemName>
Bromfenac sodium sesquihydrate

> <TS_ChemName_Synonyms>
Bromfenac sodium (Xibrom)

> <TS_CASRN>
120638-55-3

> <CASRN_ChemName_Relationship>
primary

> <TS_Description>
single chemical compound

> <ChemNote>
parent [91714-94-2]

> <STRUCTURE_Shown>
tested chemical

> <STRUCTURE_Formula>
C30H28Br2N2Na2O9

> <STRUCTURE_MW>
766.3389

> <STRUCTURE_ChemType>
defined organic

> <STRUCTURE_DefinedOrganicForm>
salt complex

> <STRUCTURE_IUPAC>
sodium [2-amino-3-(4-bromobenzoyl)phenyl]acetate hydrate (2:2:3)

> <STRUCTURE_SMILES>
[Na+].[Na+].O.O.O.O=C(c1ccc(Br)cc1)c2cccc(CC([O-])=O)c2N.[O-]C(=O)Cc1cccc(c1N)C(=O)c2ccc(Br)cc2

> <STRUCTURE_SMILES_Desalt>
O=C(c1ccc(Br)cc1)c2cccc(CC(=O)O)c2N

> <Substance_modify_yyyymmdd>
20110816

$$$$
