12083-48-6
ChemmineR-0915142007XD

 13 14  0  0  0  0  0  0  0  0  1 V2000
    1.3291   -2.6582    0.0000 C    0  0  0  0  0  0  0  0  0  0  0  0
    2.3990   -3.4406    0.0000 C    0  0  0  0  0  0  0  0  0  0  0  0
    1.9842   -4.7132    0.0000 C    0  0  0  0  0  0  0  0  0  0  0  0
    0.2451   -3.4406    0.0000 C    0  0  0  0  0  0  0  0  0  0  0  0
    0.6598   -4.7132    0.0000 C    0  0  0  0  0  0  0  0  0  0  0  0
    1.3291    0.0000    0.0000 Cl   0  0  0  0  0  0  0  0  0  0  0  0
    0.0000   -1.3291    0.0000 Cl   0  0  0  0  0  0  0  0  0  0  0  0
    1.3291   -1.3291    0.0000 V    0  0  0  0  0  0  0  0  0  0  0  0
    2.6582   -1.3291    0.0000 C    0  0  0  0  0  0  0  0  0  0  0  0
    3.4406   -0.2592    0.0000 C    0  0  0  0  0  0  0  0  0  0  0  0
    4.6990   -0.6693    0.0000 C    0  0  0  0  0  0  0  0  0  0  0  0
    3.4406   -2.4131    0.0000 C    0  0  0  0  0  0  0  0  0  0  0  0
    4.6990   -1.9984    0.0000 C    0  0  0  0  0  0  0  0  0  0  0  0
  1  2  1  0  0  0  0
  1  4  1  0  0  0  0
  1  8  1  0  0  0  0
  2  3  2  0  0  0  0
  3  5  1  0  0  0  0
  4  5  2  0  0  0  0
  6  8  1  0  0  0  0
  7  8  1  0  0  0  0
  8  9  1  0  0  0  0
  9 10  1  0  0  0  0
  9 12  1  0  0  0  0
 10 11  2  0  0  0  0
 11 13  1  0  0  0  0
 12 13  2  0  0  0  0
M  END
> <ID>
3767

> <Formula>
C10H10Cl2V

> <FW>
252.0339

> <DSSTox_CID>
4616

> <DSSTox_RID>
77469

> <DSSTox_GSID>
24616

> <DSSTox_FileID_Sort>
2152

> <TS_ChemName>
Bis(cyclopentadienyl)vanadium chloride

> <TS_ChemName_Synonyms>


> <TS_CASRN>
12083-48-6

> <CASRN_ChemName_Relationship>
primary

> <TS_Description>
single chemical compound

> <ChemNote>
parent [542-92-7]

> <STRUCTURE_Shown>
tested chemical

> <STRUCTURE_Formula>
C10H10Cl2V

> <STRUCTURE_MW>
252.0339

> <STRUCTURE_ChemType>
organometallic

> <STRUCTURE_DefinedOrganicForm>


> <STRUCTURE_IUPAC>
dichloro[di(cyclopenta-2,4-dien-1-yl)]vanadium

> <STRUCTURE_SMILES>
Cl[V](Cl)(C1C=CC=C1)C2C=CC=C2

> <STRUCTURE_SMILES_Desalt>
Cl[V](Cl)(C1C=CC=C1)C2C=CC=C2

> <Substance_modify_yyyymmdd>
20080429

$$$$
