120824-08-0
ChemmineR-0915142007XD

 22 23  0  0  0  0  0  0  0  0  1 V2000
    5.6545   -1.2318    0.0000 S   0  0  0  0  0  0  0  0  0  0  0  0
    4.6007   -1.9887    0.0000 C   0  0  0  0  0  0  0  0  0  0  0  0
    4.9866   -3.2354    0.0000 C   0  0  0  0  0  0  0  0  0  0  0  0
    6.3075   -3.2354    0.0000 C   0  0  0  0  0  0  0  0  0  0  0  0
    6.7082   -1.9887    0.0000 C   0  0  0  0  0  0  0  0  0  0  0  0
    3.4431   -1.3209    0.0000 O   0  0  0  0  0  0  0  0  0  0  0  0
    2.2855   -2.0035    0.0000 C   0  0  0  0  0  0  0  0  0  0  0  0
    1.1576   -1.3209    0.0000 C   0  0  0  0  0  0  0  0  0  0  0  0
    0.0000   -2.0035    0.0000 O   0  0  0  0  0  0  0  0  0  0  0  0
    7.9103   -1.3357    0.0000 C   0  0  0  0  0  0  0  0  0  0  0  0
    9.0531   -2.0332    0.0000 C   0  0  0  0  0  0  0  0  0  0  0  0
   10.2107   -1.3357    0.0000 N   0  0  0  0  0  0  0  0  0  0  0  0
   11.3683   -2.0332    0.0000 S   0  0  0  0  0  0  0  0  0  0  0  0
   12.5407   -2.6862    0.0000 C   0  0  0  0  0  0  0  0  0  0  0  0
    1.1576    0.0000    0.0000 O   0  0  0  0  0  0  0  0  0  0  0  0
   12.5407   -4.0219    0.0000 C   0  0  0  0  0  0  0  0  0  0  0  0
   13.6835   -4.7046    0.0000 C   0  0  0  0  0  0  0  0  0  0  0  0
   14.8411   -4.0219    0.0000 C   0  0  0  0  0  0  0  0  0  0  0  0
   14.8411   -2.6862    0.0000 C   0  0  0  0  0  0  0  0  0  0  0  0
   13.6835   -2.0332    0.0000 C   0  0  0  0  0  0  0  0  0  0  0  0
   12.0361   -0.8756    0.0000 O   0  0  0  0  0  0  0  0  0  0  0  0
   10.7153   -3.1760    0.0000 O   0  0  0  0  0  0  0  0  0  0  0  0
  1  2  1  0  0  0  0
  1  5  1  0  0  0  0
  2  3  2  0  0  0  0
  2  6  1  0  0  0  0
  3  4  1  0  0  0  0
  4  5  2  0  0  0  0
  5 10  1  0  0  0  0
  6  7  1  0  0  0  0
  7  8  1  0  0  0  0
  8 15  2  0  0  0  0
  8  9  1  0  0  0  0
 10 11  1  0  0  0  0
 11 12  1  0  0  0  0
 12 13  1  0  0  0  0
 13 14  1  0  0  0  0
 13 21  2  0  0  0  0
 13 22  2  0  0  0  0
 14 16  2  0  0  0  0
 14 20  1  0  0  0  0
 16 17  1  0  0  0  0
 17 18  2  0  0  0  0
 18 19  1  0  0  0  0
 19 20  2  0  0  0  0
M  END
> <ID>
11409

> <Formula>
C14H15NO5S2

> <FW>
341.4026

> <DSSTox_CID>
26103

> <DSSTox_RID>
81341

> <DSSTox_GSID>
46103

> <DSSTox_FileID_Sort>
6022

> <TS_ChemName>
Linotroban

> <TS_ChemName_Synonyms>


> <TS_CASRN>
120824-08-0

> <CASRN_ChemName_Relationship>
primary

> <TS_Description>
single chemical compound

> <ChemNote>


> <STRUCTURE_Shown>
tested chemical

> <STRUCTURE_Formula>
C14H15NO5S2

> <STRUCTURE_MW>
341.4026

> <STRUCTURE_ChemType>
defined organic

> <STRUCTURE_DefinedOrganicForm>
parent

> <STRUCTURE_IUPAC>
[(5-{2-[(phenylsulfonyl)amino]ethyl}thiophen-2-yl)oxy]acetic acid

> <STRUCTURE_SMILES>
OC(=O)COc2ccc(CCNS(=O)(=O)c1ccccc1)s2

> <STRUCTURE_SMILES_Desalt>
OC(=O)COc2ccc(CCNS(=O)(=O)c1ccccc1)s2

> <Substance_modify_yyyymmdd>
20110819

$$$$
