120958-90-9
ChemmineR-0915142007XD

 23 24  0  0  0  0  0  0  0  0  1 V2000
    2.2855   -0.6753    0.0000 C   0  0  0  0  0  0  0  0  0  0  0  0
    2.2855   -2.0085    0.0000 N   0  0  0  0  0  0  0  0  0  0  0  0
    1.1427    0.0000    0.0000 C   0  0  0  0  0  0  0  0  0  0  0  0
    1.1427   -2.6664    0.0000 C   0  0  0  0  0  0  0  0  0  0  0  0
    0.0000   -0.6753    0.0000 C   0  0  0  0  0  0  0  0  0  0  0  0
    0.0000   -2.0085    0.0000 C   0  0  0  0  0  0  0  0  0  0  0  0
    3.4629   -2.6664    0.0000 C   0  0  0  0  0  0  0  0  0  0  0  0
    4.6056   -2.0085    0.0000 C   0  0  0  0  0  0  0  0  0  0  0  0
    4.6056   -0.6753    0.0000 C   0  0  0  0  0  0  0  0  0  0  0  0
    5.7657   -2.6664    0.0000 C   0  0  0  0  0  0  0  0  0  0  0  0
    5.7657    0.0000    0.0000 C   0  0  0  0  0  0  0  0  0  0  0  0
    6.9084   -2.0085    0.0000 C   0  0  0  0  0  0  0  0  0  0  0  0
    6.9084   -0.6753    0.0000 C   0  0  0  0  0  0  0  0  0  0  0  0
    8.0685   -2.6664    0.0000 O   0  0  0  0  0  0  0  0  0  0  0  0
    9.2285   -2.0085    0.0000 C   0  0  0  0  0  0  0  0  0  0  0  0
   10.3886   -2.6664    0.0000 C   0  0  0  0  0  0  0  0  0  0  0  0
   11.5313   -2.0085    0.0000 C   0  0  0  0  0  0  0  0  0  0  0  0
   12.6914   -2.6664    0.0000 N   0  0  0  0  0  0  0  0  0  0  0  0
   13.8341   -2.0085    0.0000 C   0  0  0  0  0  0  0  0  0  0  0  0
   14.9942   -2.6664    0.0000 N   0  0  0  0  0  0  0  0  0  0  0  0
   13.8341   -0.6753    0.0000 O   0  0  0  0  0  0  0  0  0  0  0  0
   16.1543   -2.0085    0.0000 C   0  0  0  0  0  0  0  0  0  0  0  0
   17.3143   -2.6664    0.0000 C   0  0  0  0  0  0  0  0  0  0  0  0
  1  2  1  0  0  0  0
  1  3  1  0  0  0  0
  2  4  1  0  0  0  0
  2  7  1  0  0  0  0
  3  5  1  0  0  0  0
  4  6  1  0  0  0  0
  5  6  1  0  0  0  0
  7  8  1  0  0  0  0
  8  9  1  0  0  0  0
  8 10  2  0  0  0  0
  9 11  2  0  0  0  0
 10 12  1  0  0  0  0
 11 13  1  0  0  0  0
 12 13  2  0  0  0  0
 12 14  1  0  0  0  0
 14 15  1  0  0  0  0
 15 16  1  0  0  0  0
 16 17  1  0  0  0  0
 17 18  1  0  0  0  0
 18 19  1  0  0  0  0
 19 20  1  0  0  0  0
 19 21  2  0  0  0  0
 20 22  1  0  0  0  0
 22 23  1  0  0  0  0
M  END
> <ID>
13795

> <Formula>
C18H29N3O2

> <FW>
319.4418

> <DSSTox_CID>
28732

> <DSSTox_RID>
83001

> <DSSTox_GSID>
48806

> <DSSTox_FileID_Sort>
7678

> <TS_ChemName>
Dalcotidine

> <TS_ChemName_Synonyms>


> <TS_CASRN>
120958-90-9

> <CASRN_ChemName_Relationship>
primary

> <TS_Description>
single chemical compound

> <ChemNote>


> <STRUCTURE_Shown>
tested chemical

> <STRUCTURE_Formula>
C18H29N3O2

> <STRUCTURE_MW>
319.4418

> <STRUCTURE_ChemType>
defined organic

> <STRUCTURE_DefinedOrganicForm>
parent

> <STRUCTURE_IUPAC>
1-ethyl-3-{3-[3-(piperidin-1-ylmethyl)phenoxy]propyl}urea

> <STRUCTURE_SMILES>
CCNC(=O)NCCCOc2cc(CN1CCCCC1)ccc2

> <STRUCTURE_SMILES_Desalt>
CCNC(=O)NCCCOc2cc(CN1CCCCC1)ccc2

> <Substance_modify_yyyymmdd>
20111204

$$$$
