120928-09-8
ChemmineR-0915142007XD

 23 25  0  0  0  0  0  0  0  0  1 V2000
    6.9201    0.0000    0.0000 N   0  0  0  0  0  0  0  0  0  0  0  0
    5.7633   -2.0037    0.0000 N   0  0  0  0  0  0  0  0  0  0  0  0
    8.0666   -2.0037    0.0000 C   0  0  0  0  0  0  0  0  0  0  0  0
    8.0666   -0.6404    0.0000 C   0  0  0  0  0  0  0  0  0  0  0  0
    5.7633   -0.6404    0.0000 C   0  0  0  0  0  0  0  0  0  0  0  0
    6.9201   -2.6544    0.0000 C   0  0  0  0  0  0  0  0  0  0  0  0
    9.1821   -2.6544    0.0000 C   0  0  0  0  0  0  0  0  0  0  0  0
    9.1821    0.0000    0.0000 C   0  0  0  0  0  0  0  0  0  0  0  0
   10.3285   -2.0037    0.0000 C   0  0  0  0  0  0  0  0  0  0  0  0
   10.3285   -0.6404    0.0000 C   0  0  0  0  0  0  0  0  0  0  0  0
    6.9201   -4.0075    0.0000 O   0  0  0  0  0  0  0  0  0  0  0  0
    5.7633   -4.7098    0.0000 C   0  0  0  0  0  0  0  0  0  0  0  0
    5.7633   -6.0112    0.0000 C   0  0  0  0  0  0  0  0  0  0  0  0
    4.6169   -6.7135    0.0000 C   0  0  0  0  0  0  0  0  0  0  0  0
    3.4601   -6.0628    0.0000 C   0  0  0  0  0  0  0  0  0  0  0  0
    4.6169   -8.0149    0.0000 C   0  0  0  0  0  0  0  0  0  0  0  0
    2.3033   -6.7135    0.0000 C   0  0  0  0  0  0  0  0  0  0  0  0
    3.4601   -8.6760    0.0000 C   0  0  0  0  0  0  0  0  0  0  0  0
    2.3033   -8.0149    0.0000 C   0  0  0  0  0  0  0  0  0  0  0  0
    1.1465   -8.7276    0.0000 C   0  0  0  0  0  0  0  0  0  0  0  0
    1.8591   -9.8741    0.0000 C   0  0  0  0  0  0  0  0  0  0  0  0
    0.4545   -7.5708    0.0000 C   0  0  0  0  0  0  0  0  0  0  0  0
    0.0000   -9.4196    0.0000 C   0  0  0  0  0  0  0  0  0  0  0  0
  1  4  1  0  0  0  0
  1  5  2  0  0  0  0
  2  5  1  0  0  0  0
  2  6  2  0  0  0  0
  3  4  2  0  0  0  0
  3  6  1  0  0  0  0
  3  7  1  0  0  0  0
  4  8  1  0  0  0  0
  6 11  1  0  0  0  0
  7  9  2  0  0  0  0
  8 10  2  0  0  0  0
  9 10  1  0  0  0  0
 11 12  1  0  0  0  0
 12 13  1  0  0  0  0
 13 14  1  0  0  0  0
 14 15  2  0  0  0  0
 14 16  1  0  0  0  0
 15 17  1  0  0  0  0
 16 18  2  0  0  0  0
 17 19  2  0  0  0  0
 18 19  1  0  0  0  0
 19 20  1  0  0  0  0
 20 21  1  0  0  0  0
 20 22  1  0  0  0  0
 20 23  1  0  0  0  0
M  END
> <ID>
7774

> <Formula>
C20H22N2O

> <FW>
306.4015

> <DSSTox_CID>
20476

> <DSSTox_RID>
79499

> <DSSTox_GSID>
40476

> <DSSTox_FileID_Sort>
4181

> <TS_ChemName>
Fenazaquin

> <TS_ChemName_Synonyms>


> <TS_CASRN>
120928-09-8

> <CASRN_ChemName_Relationship>
primary

> <TS_Description>
single chemical compound

> <ChemNote>


> <STRUCTURE_Shown>
tested chemical

> <STRUCTURE_Formula>
C20H22N2O

> <STRUCTURE_MW>
306.4015

> <STRUCTURE_ChemType>
defined organic

> <STRUCTURE_DefinedOrganicForm>
parent

> <STRUCTURE_IUPAC>
4-[2-(4-tert-butylphenyl)ethoxy]quinazoline

> <STRUCTURE_SMILES>
CC(C)(C)c1ccc(cc1)CCOc3ncnc2ccccc23

> <STRUCTURE_SMILES_Desalt>
CC(C)(C)c1ccc(cc1)CCOc3ncnc2ccccc23

> <Substance_modify_yyyymmdd>
20080429

$$$$
