121-47-1
ChemmineR-0915142007XD

 11 11  0  0  0  0  0  0  0  0  1 V2000
    0.4897   -1.5095    0.0000 O   0  0  0  0  0  0  0  0  0  0  0  0
    1.1523   -2.6617    0.0000 S   0  0  0  0  0  0  0  0  0  0  0  0
    1.8148   -3.8140    0.0000 O   0  0  0  0  0  0  0  0  0  0  0  0
    0.0000   -3.3243    0.0000 O   0  0  0  0  0  0  0  0  0  0  0  0
    2.3045   -1.9992    0.0000 C   0  0  0  0  0  0  0  0  0  0  0  0
    2.3045   -0.6683    0.0000 C   0  0  0  0  0  0  0  0  0  0  0  0
    3.4568    0.0000    0.0000 C   0  0  0  0  0  0  0  0  0  0  0  0
    4.6091   -0.6683    0.0000 C   0  0  0  0  0  0  0  0  0  0  0  0
    4.6091   -1.9992    0.0000 C   0  0  0  0  0  0  0  0  0  0  0  0
    5.7613   -2.6617    0.0000 N   0  0  0  0  0  0  0  0  0  0  0  0
    3.4568   -2.6617    0.0000 C   0  0  0  0  0  0  0  0  0  0  0  0
  1  2  2  0  0  0  0
  2  3  2  0  0  0  0
  2  4  1  0  0  0  0
  2  5  1  0  0  0  0
  5  6  2  0  0  0  0
  5 11  1  0  0  0  0
  6  7  1  0  0  0  0
  7  8  2  0  0  0  0
  8  9  1  0  0  0  0
  9 10  1  0  0  0  0
  9 11  2  0  0  0  0
M  END
> <ID>
3688

> <Formula>
C6H7NO3S

> <FW>
173.1897

> <DSSTox_CID>
4462

> <DSSTox_RID>
77408

> <DSSTox_GSID>
24462

> <DSSTox_FileID_Sort>
2091

> <TS_ChemName>
3-Aminobenzenesulfonic acid

> <TS_ChemName_Synonyms>


> <TS_CASRN>
121-47-1

> <CASRN_ChemName_Relationship>
primary

> <TS_Description>
single chemical compound

> <ChemNote>


> <STRUCTURE_Shown>
tested chemical

> <STRUCTURE_Formula>
C6H7NO3S

> <STRUCTURE_MW>
173.1897

> <STRUCTURE_ChemType>
defined organic

> <STRUCTURE_DefinedOrganicForm>
parent

> <STRUCTURE_IUPAC>
3-aminobenzenesulfonic acid

> <STRUCTURE_SMILES>
Nc1cc(ccc1)S(O)(=O)=O

> <STRUCTURE_SMILES_Desalt>
Nc1cc(ccc1)S(O)(=O)=O

> <Substance_modify_yyyymmdd>
20080429

$$$$
