121-92-6
ChemmineR-0915142007XD

 12 12  0  0  0  0  0  0  0  0  2 V2000
    1.1537   -2.6597    0.0000 C   0  0  0  0  0  0  0  0  0  0  0  0
    1.1537   -3.9861    0.0000 O   0  0  0  0  0  0  0  0  0  0  0  0
    0.0000   -1.9896    0.0000 O   0  0  0  0  0  0  0  0  0  0  0  0
    2.3004   -1.9896    0.0000 C   0  0  0  0  0  0  0  0  0  0  0  0
    2.3004   -0.6632    0.0000 C   0  0  0  0  0  0  0  0  0  0  0  0
    3.4541    0.0000    0.0000 C   0  0  0  0  0  0  0  0  0  0  0  0
    4.6078   -0.6632    0.0000 C   0  0  0  0  0  0  0  0  0  0  0  0
    4.6078   -1.9896    0.0000 C   0  0  0  0  0  0  0  0  0  0  0  0
    3.4541   -2.6597    0.0000 C   0  0  0  0  0  0  0  0  0  0  0  0
    5.7546   -2.6597    0.0000 N   0  3  0  0  0  0  0  0  0  0  0  0
    5.7546   -3.9861    0.0000 O   0  0  0  0  0  0  0  0  0  0  0  0
    6.9082   -1.9896    0.0000 O   0  5  0  0  0  0  0  0  0  0  0  0
  1  2  2  0  0  0  0
  1  3  1  0  0  0  0
  1  4  1  0  0  0  0
  4  5  2  0  0  0  0
  4  9  1  0  0  0  0
  5  6  1  0  0  0  0
  6  7  2  0  0  0  0
  7  8  1  0  0  0  0
  8  9  2  0  0  0  0
  8 10  1  0  0  0  0
 10 11  2  0  0  0  0
 10 12  1  0  0  0  0
M  END
> <ID>
4374

> <Formula>
C7H5NO4

> <FW>
167.1189

> <DSSTox_CID>
5737

> <DSSTox_RID>
77899

> <DSSTox_GSID>
25737

> <DSSTox_FileID_Sort>
2582

> <TS_ChemName>
3-Nitrobenzoic acid

> <TS_ChemName_Synonyms>
3-Nitrobenzoic acid (m-Nitrobenzoic acid)

> <TS_CASRN>
121-92-6

> <CASRN_ChemName_Relationship>
primary

> <TS_Description>
single chemical compound

> <ChemNote>


> <STRUCTURE_Shown>
tested chemical

> <STRUCTURE_Formula>
C7H5NO4

> <STRUCTURE_MW>
167.1189

> <STRUCTURE_ChemType>
defined organic

> <STRUCTURE_DefinedOrganicForm>
parent

> <STRUCTURE_IUPAC>
3-nitrobenzoic acid

> <STRUCTURE_SMILES>
O=[N+]([O-])c1cc(ccc1)C(=O)O

> <STRUCTURE_SMILES_Desalt>
O=[N+]([O-])c1cc(ccc1)C(=O)O

> <Substance_modify_yyyymmdd>
20080429

$$$$
