121-90-4
ChemmineR-0915142007XD

 12 12  0  0  0  0  0  0  0  0  2 V2000
    1.1537   -3.9861    0.0000 O    0  0  0  0  0  0  0  0  0  0  0  0
    1.1537   -2.6597    0.0000 C    0  0  0  0  0  0  0  0  0  0  0  0
    2.3004   -1.9896    0.0000 C    0  0  0  0  0  0  0  0  0  0  0  0
    2.3004   -0.6632    0.0000 C    0  0  0  0  0  0  0  0  0  0  0  0
    3.4541    0.0000    0.0000 C    0  0  0  0  0  0  0  0  0  0  0  0
    4.6078   -0.6632    0.0000 C    0  0  0  0  0  0  0  0  0  0  0  0
    4.6078   -1.9896    0.0000 C    0  0  0  0  0  0  0  0  0  0  0  0
    5.7546   -2.6597    0.0000 N    0  3  0  0  0  0  0  0  0  0  0  0
    6.9082   -1.9896    0.0000 O    0  0  0  0  0  0  0  0  0  0  0  0
    5.7546   -3.9861    0.0000 O    0  5  0  0  0  0  0  0  0  0  0  0
    3.4541   -2.6597    0.0000 C    0  0  0  0  0  0  0  0  0  0  0  0
    0.0000   -1.9896    0.0000 Cl   0  0  0  0  0  0  0  0  0  0  0  0
  1  2  2  0  0  0  0
  2  3  1  0  0  0  0
  2 12  1  0  0  0  0
  3  4  2  0  0  0  0
  3 11  1  0  0  0  0
  4  5  1  0  0  0  0
  5  6  2  0  0  0  0
  6  7  1  0  0  0  0
  7  8  1  0  0  0  0
  7 11  2  0  0  0  0
  8  9  2  0  0  0  0
  8 10  1  0  0  0  0
M  END
> <ID>
4376

> <Formula>
C7H4ClNO3

> <FW>
185.5646

> <DSSTox_CID>
5740

> <DSSTox_RID>
77901

> <DSSTox_GSID>
25740

> <DSSTox_FileID_Sort>
2584

> <TS_ChemName>
3-Nitrobenzoyl chloride

> <TS_ChemName_Synonyms>
3-Nitrobenzoyl chloride (m-Nitrobenzoyl chloride)

> <TS_CASRN>
121-90-4

> <CASRN_ChemName_Relationship>
primary

> <TS_Description>
single chemical compound

> <ChemNote>


> <STRUCTURE_Shown>
tested chemical

> <STRUCTURE_Formula>
C7H4ClNO3

> <STRUCTURE_MW>
185.5646

> <STRUCTURE_ChemType>
defined organic

> <STRUCTURE_DefinedOrganicForm>
parent

> <STRUCTURE_IUPAC>
3-nitrobenzoyl chloride

> <STRUCTURE_SMILES>
O=[N+]([O-])c1cc(ccc1)C(Cl)=O

> <STRUCTURE_SMILES_Desalt>
O=[N+]([O-])c1cc(ccc1)C(Cl)=O

> <Substance_modify_yyyymmdd>
20080429

$$$$
