121-39-1
ChemmineR-0915142007XD

 14 15  0  0  0  0  0  0  0  0  1 V2000
    5.9399   -3.3243    0.0000 C   0  0  0  0  0  0  0  0  0  0  0  0
    7.0881   -3.9906    0.0000 O   0  0  0  0  0  0  0  0  0  0  0  0
    5.9399   -1.9918    0.0000 O   0  0  0  0  0  0  0  0  0  0  0  0
    7.0881   -1.3255    0.0000 C   0  0  0  0  0  0  0  0  0  0  0  0
    7.0881    0.0000    0.0000 C   0  0  0  0  0  0  0  0  0  0  0  0
    4.7845   -3.9906    0.0000 C   0  0  0  0  0  0  0  0  0  0  0  0
    4.1182   -5.1389    0.0000 O   0  0  0  0  0  0  0  0  0  0  0  0
    3.4519   -3.9906    0.0000 C   0  0  0  0  0  0  0  0  0  0  0  0
    2.3036   -3.3243    0.0000 C   0  0  0  0  0  0  0  0  0  0  0  0
    1.1483   -3.9906    0.0000 C   0  0  0  0  0  0  0  0  0  0  0  0
    0.0000   -3.3243    0.0000 C   0  0  0  0  0  0  0  0  0  0  0  0
    0.0000   -1.9918    0.0000 C   0  0  0  0  0  0  0  0  0  0  0  0
    1.1483   -1.3255    0.0000 C   0  0  0  0  0  0  0  0  0  0  0  0
    2.3036   -1.9918    0.0000 C   0  0  0  0  0  0  0  0  0  0  0  0
  1  2  2  0  0  0  0
  1  3  1  0  0  0  0
  1  6  1  0  0  0  0
  3  4  1  0  0  0  0
  4  5  1  0  0  0  0
  6  7  1  0  0  0  0
  6  8  1  0  0  0  0
  7  8  1  0  0  0  0
  8  9  1  0  0  0  0
  9 10  2  0  0  0  0
  9 14  1  0  0  0  0
 10 11  1  0  0  0  0
 11 12  2  0  0  0  0
 12 13  1  0  0  0  0
 13 14  2  0  0  0  0
M  END
> <ID>
4453

> <Formula>
C11H12O3

> <FW>
192.2112

> <DSSTox_CID>
5886

> <DSSTox_RID>
77959

> <DSSTox_GSID>
25886

> <DSSTox_FileID_Sort>
2642

> <TS_ChemName>
Ethyl 3-phenylglycidate

> <TS_ChemName_Synonyms>


> <TS_CASRN>
121-39-1

> <CASRN_ChemName_Relationship>
primary

> <TS_Description>
single chemical compound

> <ChemNote>


> <STRUCTURE_Shown>
tested chemical

> <STRUCTURE_Formula>
C11H12O3

> <STRUCTURE_MW>
192.2112

> <STRUCTURE_ChemType>
defined organic

> <STRUCTURE_DefinedOrganicForm>
parent

> <STRUCTURE_IUPAC>
ethyl 3-phenyloxirane-2-carboxylate

> <STRUCTURE_SMILES>
CCOC(=O)C2OC2c1ccccc1

> <STRUCTURE_SMILES_Desalt>
CCOC(=O)C2OC2c1ccccc1

> <Substance_modify_yyyymmdd>
20080429

$$$$
