121-81-3
ChemmineR-0915142007XD

 15 15  0  0  0  0  0  0  0  0  2 V2000
    4.6115    0.0000    0.0000 N   0  0  0  0  0  0  0  0  0  0  0  0
    3.4569   -0.6568    0.0000 C   0  0  0  0  0  0  0  0  0  0  0  0
    2.3023    0.0000    0.0000 O   0  0  0  0  0  0  0  0  0  0  0  0
    3.4569   -1.9912    0.0000 C   0  0  0  0  0  0  0  0  0  0  0  0
    2.3023   -2.6549    0.0000 C   0  0  0  0  0  0  0  0  0  0  0  0
    2.3023   -3.9892    0.0000 C   0  0  0  0  0  0  0  0  0  0  0  0
    3.4569   -4.6460    0.0000 C   0  0  0  0  0  0  0  0  0  0  0  0
    4.6115   -3.9892    0.0000 C   0  0  0  0  0  0  0  0  0  0  0  0
    4.6115   -2.6549    0.0000 C   0  0  0  0  0  0  0  0  0  0  0  0
    5.7591   -4.6460    0.0000 N   0  3  0  0  0  0  0  0  0  0  0  0
    5.7591   -5.9804    0.0000 O   0  5  0  0  0  0  0  0  0  0  0  0
    6.9137   -3.9892    0.0000 O   0  0  0  0  0  0  0  0  0  0  0  0
    1.1546   -4.6460    0.0000 N   0  3  0  0  0  0  0  0  0  0  0  0
    0.0000   -3.9892    0.0000 O   0  5  0  0  0  0  0  0  0  0  0  0
    1.1546   -5.9804    0.0000 O   0  0  0  0  0  0  0  0  0  0  0  0
  1  2  1  0  0  0  0
  2  3  2  0  0  0  0
  2  4  1  0  0  0  0
  4  5  2  0  0  0  0
  4  9  1  0  0  0  0
  5  6  1  0  0  0  0
  6  7  2  0  0  0  0
  6 13  1  0  0  0  0
  7  8  1  0  0  0  0
  8  9  2  0  0  0  0
  8 10  1  0  0  0  0
 10 11  1  0  0  0  0
 10 12  2  0  0  0  0
 13 14  1  0  0  0  0
 13 15  2  0  0  0  0
M  END
> <ID>
11231

> <Formula>
C7H5N3O5

> <FW>
211.1317

> <DSSTox_CID>
25836

> <DSSTox_RID>
81163

> <DSSTox_GSID>
45836

> <DSSTox_FileID_Sort>
5844

> <TS_ChemName>
Nitromide

> <TS_ChemName_Synonyms>


> <TS_CASRN>
121-81-3

> <CASRN_ChemName_Relationship>
primary

> <TS_Description>
single chemical compound

> <ChemNote>


> <STRUCTURE_Shown>
tested chemical

> <STRUCTURE_Formula>
C7H5N3O5

> <STRUCTURE_MW>
211.1317

> <STRUCTURE_ChemType>
defined organic

> <STRUCTURE_DefinedOrganicForm>
parent

> <STRUCTURE_IUPAC>
3,5-dinitrobenzamide

> <STRUCTURE_SMILES>
O=[N+]([O-])c1cc(cc(c1)[N+]([O-])=O)C(N)=O

> <STRUCTURE_SMILES_Desalt>
O=[N+]([O-])c1cc(cc(c1)[N+]([O-])=O)C(N)=O

> <Substance_modify_yyyymmdd>
20110922

$$$$
