121-54-0
ChemmineR-0915142007XD

 31 31  0  0  0  0  0  0  0  0  2 V2000
   14.9340   -4.8678    0.0000 C    0  0  0  0  0  0  0  0  0  0  0  0
   14.9340   -3.5269    0.0000 C    0  0  0  0  0  0  0  0  0  0  0  0
   13.7951   -5.5107    0.0000 C    0  0  0  0  0  0  0  0  0  0  0  0
   13.7951   -2.8656    0.0000 C    0  0  0  0  0  0  0  0  0  0  0  0
   12.6195   -4.8678    0.0000 C    0  0  0  0  0  0  0  0  0  0  0  0
   12.6195   -3.5269    0.0000 C    0  0  0  0  0  0  0  0  0  0  0  0
    2.2961   -5.5291    0.0000 C    0  0  0  0  0  0  0  0  0  0  0  0
    2.2961   -6.8516    0.0000 C    0  0  0  0  0  0  0  0  0  0  0  0
    1.1572   -4.8678    0.0000 C    0  0  0  0  0  0  0  0  0  0  0  0
    1.1572   -7.5129    0.0000 C    0  0  0  0  0  0  0  0  0  0  0  0
    0.0000   -5.5291    0.0000 C    0  0  0  0  0  0  0  0  0  0  0  0
    0.0000   -6.8516    0.0000 C    0  0  0  0  0  0  0  0  0  0  0  0
    3.4534   -4.8678    0.0000 C    0  0  0  0  0  0  0  0  0  0  0  0
    4.6106   -5.5107    0.0000 N    0  3  0  0  0  0  0  0  0  0  0  0
    5.7495   -4.8678    0.0000 C    0  0  0  0  0  0  0  0  0  0  0  0
    4.6106   -6.8333    0.0000 C    0  0  0  0  0  0  0  0  0  0  0  0
    4.6106   -4.1881    0.0000 C    0  0  0  0  0  0  0  0  0  0  0  0
    6.8884   -5.5107    0.0000 C    0  0  0  0  0  0  0  0  0  0  0  0
    8.0456   -4.8678    0.0000 O    0  0  0  0  0  0  0  0  0  0  0  0
    9.1845   -5.5107    0.0000 C    0  0  0  0  0  0  0  0  0  0  0  0
   10.3234   -4.8678    0.0000 C    0  0  0  0  0  0  0  0  0  0  0  0
   11.4990   -5.5107    0.0000 O    0  0  0  0  0  0  0  0  0  0  0  0
   16.0545   -2.6819    0.0000 C    0  0  0  0  0  0  0  0  0  0  0  0
   17.2118   -2.0206    0.0000 C    0  0  0  0  0  0  0  0  0  0  0  0
   17.2118   -0.6613    0.0000 C    0  0  0  0  0  0  0  0  0  0  0  0
   18.3690    0.0000    0.0000 C    0  0  0  0  0  0  0  0  0  0  0  0
   14.8605   -2.0206    0.0000 C    0  0  0  0  0  0  0  0  0  0  0  0
   17.2118   -3.3615    0.0000 C    0  0  0  0  0  0  0  0  0  0  0  0
   16.0545    0.0000    0.0000 C    0  0  0  0  0  0  0  0  0  0  0  0
   18.3690   -1.3226    0.0000 C    0  0  0  0  0  0  0  0  0  0  0  0
    7.7701   -6.5026    0.0000 Cl   0  5  0  0  0  0  0  0  0  0  0  0
  1  2  1  0  0  0  0
  1  3  2  0  0  0  0
  2  4  2  0  0  0  0
  2 23  1  0  0  0  0
  3  5  1  0  0  0  0
  4  6  1  0  0  0  0
  5  6  2  0  0  0  0
  5 22  1  0  0  0  0
  7  8  1  0  0  0  0
  7  9  2  0  0  0  0
  7 13  1  0  0  0  0
  8 10  2  0  0  0  0
  9 11  1  0  0  0  0
 10 12  1  0  0  0  0
 11 12  2  0  0  0  0
 13 14  1  0  0  0  0
 14 15  1  0  0  0  0
 14 16  1  0  0  0  0
 14 17  1  0  0  0  0
 15 18  1  0  0  0  0
 18 19  1  0  0  0  0
 19 20  1  0  0  0  0
 20 21  1  0  0  0  0
 21 22  1  0  0  0  0
 23 24  1  0  0  0  0
 23 27  1  0  0  0  0
 23 28  1  0  0  0  0
 24 25  1  0  0  0  0
 25 26  1  0  0  0  0
 25 29  1  0  0  0  0
 25 30  1  0  0  0  0
M  END
> <ID>
3373

> <Formula>
C27H42ClNO2

> <FW>
448.0809 (412.6273+35.4535)

> <DSSTox_CID>
3810

> <DSSTox_RID>
77195

> <DSSTox_GSID>
23810

> <DSSTox_FileID_Sort>
1878

> <TS_ChemName>
Benzethonium chloride

> <TS_ChemName_Synonyms>
Benzethonium chloride (Benzenemethanaminium, N,N-dimethyl-N-(2-(2-(4-(1,1 ,3,3-tetramethylbutyl)phenoxy)ethoxy)ethyl)-, chloride)

> <TS_CASRN>
121-54-0

> <CASRN_ChemName_Relationship>
primary

> <TS_Description>
single chemical compound

> <ChemNote>
ammonium; parent [10172-60-8]

> <STRUCTURE_Shown>
tested chemical

> <STRUCTURE_Formula>
C27H42ClNO2

> <STRUCTURE_MW>
448.0809

> <STRUCTURE_ChemType>
defined organic

> <STRUCTURE_DefinedOrganicForm>
salt

> <STRUCTURE_IUPAC>
N-benzyl-N,N-dimethyl-2-{2-[4-(2,4,4-trimethylpentan-2-yl)phenoxy]ethoxy}ethanaminium chloride

> <STRUCTURE_SMILES>
[Cl-].CC(C)(C)CC(C)(C)c2ccc(OCCOCC[N+](C)(C)Cc1ccccc1)cc2

> <STRUCTURE_SMILES_Desalt>
CC(C)(C)CC(C)(C)c2ccc(OCCOCC[N+](C)(C)Cc1ccccc1)cc2

> <Substance_modify_yyyymmdd>
20080429

$$$$
