121-59-5
ChemmineR-0915142007XD

 14 14  0  0  0  0  0  0  0  0  1 V2000
    1.3324   -3.6339    0.0000 O    0  0  0  0  0  0  0  0  0  0  0  0
    1.3324   -2.3014    0.0000 As   0  0  0  0  0  0  0  0  0  0  0  0
    0.0000   -2.3014    0.0000 O    0  0  0  0  0  0  0  0  0  0  0  0
    2.6648   -2.3014    0.0000 C    0  0  0  0  0  0  0  0  0  0  0  0
    3.3310   -1.1507    0.0000 C    0  0  0  0  0  0  0  0  0  0  0  0
    4.6548   -1.1507    0.0000 C    0  0  0  0  0  0  0  0  0  0  0  0
    5.3210   -2.3014    0.0000 C    0  0  0  0  0  0  0  0  0  0  0  0
    4.6548   -3.4522    0.0000 C    0  0  0  0  0  0  0  0  0  0  0  0
    3.3310   -3.4522    0.0000 C    0  0  0  0  0  0  0  0  0  0  0  0
    6.6534   -2.3014    0.0000 N    0  0  0  0  0  0  0  0  0  0  0  0
    7.3196   -1.1507    0.0000 C    0  0  0  0  0  0  0  0  0  0  0  0
    8.6521   -1.1507    0.0000 O    0  0  0  0  0  0  0  0  0  0  0  0
    6.6534    0.0000    0.0000 N    0  0  0  0  0  0  0  0  0  0  0  0
    1.3324   -0.9690    0.0000 O    0  0  0  0  0  0  0  0  0  0  0  0
  1  2  1  0  0  0  0
  2  3  2  0  0  0  0
  2  4  1  0  0  0  0
  2 14  1  0  0  0  0
  4  5  2  0  0  0  0
  4  9  1  0  0  0  0
  5  6  1  0  0  0  0
  6  7  2  0  0  0  0
  7  8  1  0  0  0  0
  7 10  1  0  0  0  0
  8  9  2  0  0  0  0
 10 11  1  0  0  0  0
 11 12  2  0  0  0  0
 11 13  1  0  0  0  0
M  END
> <ID>
242

> <Formula>
C7H9AsN2O4

> <FW>
260.079

> <DSSTox_CID>
246

> <DSSTox_RID>
75460

> <DSSTox_GSID>
20246

> <DSSTox_FileID_Sort>
144

> <TS_ChemName>
Carbarsone

> <TS_ChemName_Synonyms>


> <TS_CASRN>
121-59-5

> <CASRN_ChemName_Relationship>
primary

> <TS_Description>
single chemical compound

> <ChemNote>


> <STRUCTURE_Shown>
tested chemical

> <STRUCTURE_Formula>
C7H9AsN2O4

> <STRUCTURE_MW>
260.079

> <STRUCTURE_ChemType>
organometallic

> <STRUCTURE_DefinedOrganicForm>


> <STRUCTURE_IUPAC>
[4-(carbamoylamino)phenyl]arsonic acid

> <STRUCTURE_SMILES>
O=C(N)Nc1ccc(cc1)[As](O)(O)=O

> <STRUCTURE_SMILES_Desalt>
O=C(N)Nc1ccc(cc1)[As](O)(O)=O

> <Substance_modify_yyyymmdd>
20080429

$$$$
