121-45-9
ChemmineR-0915142007XD

  7  6  0  0  0  0  0  0  0  0  1 V2000
    2.3089   -2.0042    0.0000 P   0  0  0  0  0  0  0  0  0  0  0  0
    3.4634   -2.6599    0.0000 O   0  0  0  0  0  0  0  0  0  0  0  0
    2.3089   -0.6696    0.0000 O   0  0  0  0  0  0  0  0  0  0  0  0
    1.1545   -2.6599    0.0000 O   0  0  0  0  0  0  0  0  0  0  0  0
    4.6179   -2.0042    0.0000 C   0  0  0  0  0  0  0  0  0  0  0  0
    3.4634    0.0000    0.0000 C   0  0  0  0  0  0  0  0  0  0  0  0
    0.0000   -2.0042    0.0000 C   0  0  0  0  0  0  0  0  0  0  0  0
  1  2  1  0  0  0  0
  1  3  1  0  0  0  0
  1  4  1  0  0  0  0
  2  5  1  0  0  0  0
  3  6  1  0  0  0  0
  4  7  1  0  0  0  0
M  END
> <ID>
4874

> <Formula>
C3H9O3P

> <FW>
124.0755

> <DSSTox_CID>
6979

> <DSSTox_RID>
78272

> <DSSTox_GSID>
26979

> <DSSTox_FileID_Sort>
2955

> <TS_ChemName>
Trimethyl phosphite

> <TS_ChemName_Synonyms>
Trimethyl phosphite (Phosphorous acid, trimethyl ester)

> <TS_CASRN>
121-45-9

> <CASRN_ChemName_Relationship>
primary

> <TS_Description>
single chemical compound

> <ChemNote>


> <STRUCTURE_Shown>
tested chemical

> <STRUCTURE_Formula>
C3H9O3P

> <STRUCTURE_MW>
124.0755

> <STRUCTURE_ChemType>
defined organic

> <STRUCTURE_DefinedOrganicForm>
parent

> <STRUCTURE_IUPAC>
trimethyl phosphite

> <STRUCTURE_SMILES>
COP(OC)OC

> <STRUCTURE_SMILES_Desalt>
COP(OC)OC

> <Substance_modify_yyyymmdd>
20080429

$$$$
