121-03-9
ChemmineR-0915142007XD

 14 14  0  0  0  0  0  0  0  0  2 V2000
    2.3052   -1.9827    0.0000 C   0  0  0  0  0  0  0  0  0  0  0  0
    2.3052   -3.3145    0.0000 C   0  0  0  0  0  0  0  0  0  0  0  0
    1.1526   -3.9893    0.0000 C   0  0  0  0  0  0  0  0  0  0  0  0
    0.0000   -3.3145    0.0000 C   0  0  0  0  0  0  0  0  0  0  0  0
    0.0000   -1.9827    0.0000 C   0  0  0  0  0  0  0  0  0  0  0  0
    1.1526   -1.3318    0.0000 C   0  0  0  0  0  0  0  0  0  0  0  0
    3.4578   -1.3318    0.0000 S   0  0  0  0  0  0  0  0  0  0  0  0
    4.1327   -2.4844    0.0000 O   0  0  0  0  0  0  0  0  0  0  0  0
    4.6104   -0.6569    0.0000 O   0  0  0  0  0  0  0  0  0  0  0  0
    2.8009   -0.1732    0.0000 O   0  0  0  0  0  0  0  0  0  0  0  0
    1.1526    0.0000    0.0000 C   0  0  0  0  0  0  0  0  0  0  0  0
    1.1526   -5.3151    0.0000 N   0  3  0  0  0  0  0  0  0  0  0  0
    2.3052   -5.9721    0.0000 O   0  5  0  0  0  0  0  0  0  0  0  0
    0.0000   -5.9721    0.0000 O   0  0  0  0  0  0  0  0  0  0  0  0
  1  2  2  0  0  0  0
  1  6  1  0  0  0  0
  1  7  1  0  0  0  0
  2  3  1  0  0  0  0
  3  4  2  0  0  0  0
  3 12  1  0  0  0  0
  4  5  1  0  0  0  0
  5  6  2  0  0  0  0
  6 11  1  0  0  0  0
  7  8  2  0  0  0  0
  7  9  1  0  0  0  0
  7 10  2  0  0  0  0
 12 13  1  0  0  0  0
 12 14  2  0  0  0  0
M  END
> <ID>
4873

> <Formula>
C7H7NO5S

> <FW>
217.1992

> <DSSTox_CID>
6975

> <DSSTox_RID>
78271

> <DSSTox_GSID>
26975

> <DSSTox_FileID_Sort>
2954

> <TS_ChemName>
2-Methyl-5-nitrobenzenesulfonic acid

> <TS_ChemName_Synonyms>


> <TS_CASRN>
121-03-9

> <CASRN_ChemName_Relationship>
primary

> <TS_Description>
single chemical compound

> <ChemNote>


> <STRUCTURE_Shown>
tested chemical

> <STRUCTURE_Formula>
C7H7NO5S

> <STRUCTURE_MW>
217.1992

> <STRUCTURE_ChemType>
defined organic

> <STRUCTURE_DefinedOrganicForm>
parent

> <STRUCTURE_IUPAC>
2-methyl-5-nitrobenzenesulfonic acid

> <STRUCTURE_SMILES>
Cc1ccc(cc1S(O)(=O)=O)[N+]([O-])=O

> <STRUCTURE_SMILES_Desalt>
Cc1ccc(cc1S(O)(=O)=O)[N+]([O-])=O

> <Substance_modify_yyyymmdd>
20080429

$$$$
