121-32-4
ChemmineR-0915142007XD

 12 12  0  0  0  0  0  0  0  0  1 V2000
    8.0680   -2.0009    0.0000 O   0  0  0  0  0  0  0  0  0  0  0  0
    6.9143   -2.6624    0.0000 C   0  0  0  0  0  0  0  0  0  0  0  0
    5.7605   -2.0009    0.0000 C   0  0  0  0  0  0  0  0  0  0  0  0
    4.6068   -2.6624    0.0000 C   0  0  0  0  0  0  0  0  0  0  0  0
    3.4612   -2.0009    0.0000 C   0  0  0  0  0  0  0  0  0  0  0  0
    2.3074   -2.6624    0.0000 O   0  0  0  0  0  0  0  0  0  0  0  0
    1.1537   -2.0009    0.0000 C   0  0  0  0  0  0  0  0  0  0  0  0
    0.0000   -2.6624    0.0000 C   0  0  0  0  0  0  0  0  0  0  0  0
    3.4612   -0.6696    0.0000 C   0  0  0  0  0  0  0  0  0  0  0  0
    2.3074    0.0000    0.0000 O   0  0  0  0  0  0  0  0  0  0  0  0
    4.6068    0.0000    0.0000 C   0  0  0  0  0  0  0  0  0  0  0  0
    5.7605   -0.6696    0.0000 C   0  0  0  0  0  0  0  0  0  0  0  0
  1  2  2  0  0  0  0
  2  3  1  0  0  0  0
  3  4  2  0  0  0  0
  3 12  1  0  0  0  0
  4  5  1  0  0  0  0
  5  6  1  0  0  0  0
  5  9  2  0  0  0  0
  6  7  1  0  0  0  0
  7  8  1  0  0  0  0
  9 10  1  0  0  0  0
  9 11  1  0  0  0  0
 11 12  2  0  0  0  0
M  END
> <ID>
1828

> <Formula>
C9H10O3

> <FW>
166.1739

> <DSSTox_CID>
1968

> <DSSTox_RID>
76432

> <DSSTox_GSID>
21968

> <DSSTox_FileID_Sort>
1116

> <TS_ChemName>
3-Ethoxy-4-hydroxybenzaldehyde

> <TS_ChemName_Synonyms>
3-Ethoxy-4-hydroxybenzaldehyde (Ethyl vanillin)

> <TS_CASRN>
121-32-4

> <CASRN_ChemName_Relationship>
primary

> <TS_Description>
single chemical compound

> <ChemNote>


> <STRUCTURE_Shown>
tested chemical

> <STRUCTURE_Formula>
C9H10O3

> <STRUCTURE_MW>
166.1739

> <STRUCTURE_ChemType>
defined organic

> <STRUCTURE_DefinedOrganicForm>
parent

> <STRUCTURE_IUPAC>
3-ethoxy-4-hydroxybenzaldehyde

> <STRUCTURE_SMILES>
CCOc1cc(ccc1O)C=O

> <STRUCTURE_SMILES_Desalt>
CCOc1cc(ccc1O)C=O

> <Substance_modify_yyyymmdd>
20080429

$$$$
