121-86-8
ChemmineR-0915142007XD

 11 11  0  0  0  0  0  0  0  0  2 V2000
    4.6445   -2.3073    0.0000 C    0  0  0  0  0  0  0  0  0  0  0  0
    3.9929   -3.4609    0.0000 C    0  0  0  0  0  0  0  0  0  0  0  0
    2.6600   -3.4609    0.0000 C    0  0  0  0  0  0  0  0  0  0  0  0
    1.9845   -2.3073    0.0000 C    0  0  0  0  0  0  0  0  0  0  0  0
    2.6600   -1.1536    0.0000 C    0  0  0  0  0  0  0  0  0  0  0  0
    3.9929   -1.1536    0.0000 C    0  0  0  0  0  0  0  0  0  0  0  0
    4.6445    0.0000    0.0000 Cl   0  0  0  0  0  0  0  0  0  0  0  0
    5.9774   -2.3073    0.0000 C    0  0  0  0  0  0  0  0  0  0  0  0
    0.6575   -2.3073    0.0000 N    0  3  0  0  0  0  0  0  0  0  0  0
    0.0000   -3.4609    0.0000 O    0  5  0  0  0  0  0  0  0  0  0  0
    0.0000   -1.1536    0.0000 O    0  0  0  0  0  0  0  0  0  0  0  0
  1  2  2  0  0  0  0
  1  6  1  0  0  0  0
  1  8  1  0  0  0  0
  2  3  1  0  0  0  0
  3  4  2  0  0  0  0
  4  5  1  0  0  0  0
  4  9  1  0  0  0  0
  5  6  2  0  0  0  0
  6  7  1  0  0  0  0
  9 10  1  0  0  0  0
  9 11  2  0  0  0  0
M  END
> <ID>
4876

> <Formula>
C7H6ClNO2

> <FW>
171.581

> <DSSTox_CID>
6984

> <DSSTox_RID>
78274

> <DSSTox_GSID>
26984

> <DSSTox_FileID_Sort>
2957

> <TS_ChemName>
2-Chloro-1-methyl-4-nitrobenzene

> <TS_ChemName_Synonyms>
Benzene, 2-chloro-1-methyl-4-nitro-

> <TS_CASRN>
121-86-8

> <CASRN_ChemName_Relationship>
primary

> <TS_Description>
single chemical compound

> <ChemNote>


> <STRUCTURE_Shown>
tested chemical

> <STRUCTURE_Formula>
C7H6ClNO2

> <STRUCTURE_MW>
171.581

> <STRUCTURE_ChemType>
defined organic

> <STRUCTURE_DefinedOrganicForm>
parent

> <STRUCTURE_IUPAC>
2-chloro-1-methyl-4-nitrobenzene

> <STRUCTURE_SMILES>
Cc1ccc(cc1Cl)[N+]([O-])=O

> <STRUCTURE_SMILES_Desalt>
Cc1ccc(cc1Cl)[N+]([O-])=O

> <Substance_modify_yyyymmdd>
20080429

$$$$
