121-91-5
ChemmineR-0915142007XD

 12 12  0  0  0  0  0  0  0  0  1 V2000
    6.9082   -1.9896    0.0000 O   0  0  0  0  0  0  0  0  0  0  0  0
    5.7546   -2.6597    0.0000 C   0  0  0  0  0  0  0  0  0  0  0  0
    4.6078   -1.9896    0.0000 C   0  0  0  0  0  0  0  0  0  0  0  0
    3.4541   -2.6597    0.0000 C   0  0  0  0  0  0  0  0  0  0  0  0
    2.3004   -1.9896    0.0000 C   0  0  0  0  0  0  0  0  0  0  0  0
    1.1537   -2.6597    0.0000 C   0  0  0  0  0  0  0  0  0  0  0  0
    0.0000   -1.9896    0.0000 O   0  0  0  0  0  0  0  0  0  0  0  0
    1.1537   -3.9861    0.0000 O   0  0  0  0  0  0  0  0  0  0  0  0
    2.3004   -0.6632    0.0000 C   0  0  0  0  0  0  0  0  0  0  0  0
    3.4541    0.0000    0.0000 C   0  0  0  0  0  0  0  0  0  0  0  0
    4.6078   -0.6632    0.0000 C   0  0  0  0  0  0  0  0  0  0  0  0
    5.7546   -3.9861    0.0000 O   0  0  0  0  0  0  0  0  0  0  0  0
  1  2  1  0  0  0  0
  2  3  1  0  0  0  0
  2 12  2  0  0  0  0
  3  4  2  0  0  0  0
  3 11  1  0  0  0  0
  4  5  1  0  0  0  0
  5  6  1  0  0  0  0
  5  9  2  0  0  0  0
  6  7  1  0  0  0  0
  6  8  2  0  0  0  0
  9 10  1  0  0  0  0
 10 11  2  0  0  0  0
M  END
> <ID>
1426

> <Formula>
C8H6O4

> <FW>
166.1308

> <DSSTox_CID>
1485

> <DSSTox_RID>
76179

> <DSSTox_GSID>
21485

> <DSSTox_FileID_Sort>
863

> <TS_ChemName>
1,3-Benzenedicarboxylic acid

> <TS_ChemName_Synonyms>
1,3-Benzenedicarboxylic acid (Isophthalic acid)

> <TS_CASRN>
121-91-5

> <CASRN_ChemName_Relationship>
primary

> <TS_Description>
single chemical compound

> <ChemNote>


> <STRUCTURE_Shown>
tested chemical

> <STRUCTURE_Formula>
C8H6O4

> <STRUCTURE_MW>
166.1308

> <STRUCTURE_ChemType>
defined organic

> <STRUCTURE_DefinedOrganicForm>
parent

> <STRUCTURE_IUPAC>
benzene-1,3-dicarboxylic acid

> <STRUCTURE_SMILES>
OC(=O)c1cccc(c1)C(=O)O

> <STRUCTURE_SMILES_Desalt>
OC(=O)c1cccc(c1)C(=O)O

> <Substance_modify_yyyymmdd>
20080429

$$$$
