1210-12-4
ChemmineR-0915142007XD

 16 18  0  0  0  0  0  0  0  0  1 V2000
    3.4148    0.0000    0.0000 C   0  0  0  0  0  0  0  0  0  0  0  0
    3.4148   -2.6962    0.0000 C   0  0  0  0  0  0  0  0  0  0  0  0
    2.2446   -2.0119    0.0000 C   0  0  0  0  0  0  0  0  0  0  0  0
    4.5849   -0.6843    0.0000 C   0  0  0  0  0  0  0  0  0  0  0  0
    4.5849   -2.0119    0.0000 C   0  0  0  0  0  0  0  0  0  0  0  0
    2.2446   -0.6843    0.0000 C   0  0  0  0  0  0  0  0  0  0  0  0
    1.0744   -2.6962    0.0000 C   0  0  0  0  0  0  0  0  0  0  0  0
    1.0744    0.0000    0.0000 C   0  0  0  0  0  0  0  0  0  0  0  0
    5.7688   -2.6962    0.0000 C   0  0  0  0  0  0  0  0  0  0  0  0
    5.7688    0.0000    0.0000 C   0  0  0  0  0  0  0  0  0  0  0  0
    0.0000   -0.6843    0.0000 C   0  0  0  0  0  0  0  0  0  0  0  0
    6.8432   -2.0119    0.0000 C   0  0  0  0  0  0  0  0  0  0  0  0
    6.8432   -0.6843    0.0000 C   0  0  0  0  0  0  0  0  0  0  0  0
    0.0000   -2.0119    0.0000 C   0  0  0  0  0  0  0  0  0  0  0  0
    3.4148   -4.0170    0.0000 C   0  0  0  0  0  0  0  0  0  0  0  0
    4.5849   -4.6807    0.0000 N   0  0  0  0  0  0  0  0  0  0  0  0
  1  4  2  0  0  0  0
  1  6  1  0  0  0  0
  2  3  1  0  0  0  0
  2  5  2  0  0  0  0
  2 15  1  0  0  0  0
  3  6  2  0  0  0  0
  3  7  1  0  0  0  0
  4  5  1  0  0  0  0
  4 10  1  0  0  0  0
  5  9  1  0  0  0  0
  6  8  1  0  0  0  0
  7 14  2  0  0  0  0
  8 11  2  0  0  0  0
  9 12  2  0  0  0  0
 10 13  2  0  0  0  0
 11 14  1  0  0  0  0
 12 13  1  0  0  0  0
 15 16  3  0  0  0  0
M  END
> <ID>
14072

> <Formula>
C15H9N

> <FW>
203.2387

> <DSSTox_CID>
29065

> <DSSTox_RID>
83284

> <DSSTox_GSID>
49209

> <DSSTox_FileID_Sort>
7959

> <TS_ChemName>
9-Cyanoanthracene

> <TS_ChemName_Synonyms>


> <TS_CASRN>
1210-12-4

> <CASRN_ChemName_Relationship>
primary

> <TS_Description>
single chemical compound

> <ChemNote>


> <STRUCTURE_Shown>
tested chemical

> <STRUCTURE_Formula>
C15H9N

> <STRUCTURE_MW>
203.2387

> <STRUCTURE_ChemType>
defined organic

> <STRUCTURE_DefinedOrganicForm>
parent

> <STRUCTURE_IUPAC>
anthracene-9-carbonitrile

> <STRUCTURE_SMILES>
N#Cc2c3ccccc3cc1ccccc12

> <STRUCTURE_SMILES_Desalt>
N#Cc2c3ccccc3cc1ccccc12

> <Substance_modify_yyyymmdd>
20111204

$$$$
