1210-35-1
ChemmineR-0915142007XD

 16 18  0  0  0  0  0  0  0  0  1 V2000
    3.7411    0.0000    0.0000 O   0  0  0  0  0  0  0  0  0  0  0  0
    3.7411   -1.3393    0.0000 C   0  0  0  0  0  0  0  0  0  0  0  0
    4.9457   -1.9154    0.0000 C   0  0  0  0  0  0  0  0  0  0  0  0
    2.5365   -1.9154    0.0000 C   0  0  0  0  0  0  0  0  0  0  0  0
    5.2375   -3.2024    0.0000 C   0  0  0  0  0  0  0  0  0  0  0  0
    5.9109   -1.0026    0.0000 C   0  0  0  0  0  0  0  0  0  0  0  0
    2.2447   -3.2024    0.0000 C   0  0  0  0  0  0  0  0  0  0  0  0
    1.5713   -1.0026    0.0000 C   0  0  0  0  0  0  0  0  0  0  0  0
    4.4145   -4.2424    0.0000 C   0  0  0  0  0  0  0  0  0  0  0  0
    6.5020   -3.5989    0.0000 C   0  0  0  0  0  0  0  0  0  0  0  0
    7.1754   -1.3992    0.0000 C   0  0  0  0  0  0  0  0  0  0  0  0
    3.0677   -4.2424    0.0000 C   0  0  0  0  0  0  0  0  0  0  0  0
    0.9802   -3.5989    0.0000 C   0  0  0  0  0  0  0  0  0  0  0  0
    0.3068   -1.3992    0.0000 C   0  0  0  0  0  0  0  0  0  0  0  0
    7.4822   -2.7011    0.0000 C   0  0  0  0  0  0  0  0  0  0  0  0
    0.0000   -2.7011    0.0000 C   0  0  0  0  0  0  0  0  0  0  0  0
  1  2  2  0  0  0  0
  2  3  1  0  0  0  0
  2  4  1  0  0  0  0
  3  5  2  0  0  0  0
  3  6  1  0  0  0  0
  4  7  1  0  0  0  0
  4  8  2  0  0  0  0
  5  9  1  0  0  0  0
  5 10  1  0  0  0  0
  6 11  2  0  0  0  0
  7 12  1  0  0  0  0
  7 13  2  0  0  0  0
  8 14  1  0  0  0  0
  9 12  1  0  0  0  0
 10 15  2  0  0  0  0
 11 15  1  0  0  0  0
 13 16  1  0  0  0  0
 14 16  2  0  0  0  0
M  END
> <ID>
14264

> <Formula>
C15H12O

> <FW>
208.2552

> <DSSTox_CID>
29359

> <DSSTox_RID>
83475

> <DSSTox_GSID>
49400

> <DSSTox_FileID_Sort>
8150

> <TS_ChemName>
Dibenzosuberone

> <TS_ChemName_Synonyms>


> <TS_CASRN>
1210-35-1

> <CASRN_ChemName_Relationship>
primary

> <TS_Description>
single chemical compound

> <ChemNote>


> <STRUCTURE_Shown>
tested chemical

> <STRUCTURE_Formula>
C15H12O

> <STRUCTURE_MW>
208.2552

> <STRUCTURE_ChemType>
defined organic

> <STRUCTURE_DefinedOrganicForm>
parent

> <STRUCTURE_IUPAC>
10,11-dihydro-5H-dibenzo[a,d][7]annulen-5-one

> <STRUCTURE_SMILES>
O=C1c3ccccc3CCc2ccccc12

> <STRUCTURE_SMILES_Desalt>
O=C1c3ccccc3CCc2ccccc12

> <Substance_modify_yyyymmdd>
20111204

$$$$
