121057-90-7
ChemmineR-0915142007XD

 15 14  0  0  0  0  0  0  0  0  2 V2000
    1.1799   -1.9767    0.0000 N   0  3  0  0  0  0  0  0  0  0  0  0
    2.2525   -2.7812    0.0000 C   0  0  0  0  0  0  0  0  0  0  0  0
    0.0766   -2.7812    0.0000 C   0  0  0  0  0  0  0  0  0  0  0  0
    1.8388   -4.0224    0.0000 C   0  0  0  0  0  0  0  0  0  0  0  0
    0.5133   -4.0224    0.0000 C   0  0  0  0  0  0  0  0  0  0  0  0
    1.1799   -0.6512    0.0000 C   0  0  0  0  0  0  0  0  0  0  0  0
    0.0000    0.0000    0.0000 C   0  0  0  0  0  0  0  0  0  0  0  0
    2.3445   -1.3714    0.0000 C   0  0  0  0  0  0  0  0  0  0  0  0
    6.3362   -2.0074    0.0000 P   0  5  0  0  0  0  0  0  0  0  0  0
    4.9954   -2.0074    0.0000 F   0  0  0  0  0  0  0  0  0  0  0  0
    6.9874   -3.1643    0.0000 F   0  0  0  0  0  0  0  0  0  0  0  0
    6.9874   -0.8581    0.0000 F   0  0  0  0  0  0  0  0  0  0  0  0
    5.6696   -3.1643    0.0000 F   0  0  0  0  0  0  0  0  0  0  0  0
    5.6696   -0.8581    0.0000 F   0  0  0  0  0  0  0  0  0  0  0  0
    7.6617   -2.0074    0.0000 F   0  0  0  0  0  0  0  0  0  0  0  0
  1  2  1  0  0  0  0
  1  3  1  0  0  0  0
  1  6  1  0  0  0  0
  1  8  1  0  0  0  0
  2  4  1  0  0  0  0
  3  5  1  0  0  0  0
  4  5  1  0  0  0  0
  6  7  1  0  0  0  0
  9 10  1  0  0  0  0
  9 11  1  0  0  0  0
  9 12  1  0  0  0  0
  9 13  1  0  0  0  0
  9 14  1  0  0  0  0
  9 15  1  0  0  0  0
M  END
> <ID>
12952

> <Formula>
C7H16F6NP

> <FW>
259.1728 (114.2081+144.9647)

> <DSSTox_CID>
27853

> <DSSTox_RID>
82606

> <DSSTox_GSID>
47877

> <DSSTox_FileID_Sort>
7283

> <TS_ChemName>
1-Ethyl-1-methylpyrrolidinium hexafluorophosphate

> <TS_ChemName_Synonyms>


> <TS_CASRN>
121057-90-7

> <CASRN_ChemName_Relationship>
primary

> <TS_Description>
single chemical compound

> <ChemNote>
ammonium; parent [15302-90-6]

> <STRUCTURE_Shown>
tested chemical

> <STRUCTURE_Formula>
C7H16F6NP

> <STRUCTURE_MW>
259.1728

> <STRUCTURE_ChemType>
defined organic

> <STRUCTURE_DefinedOrganicForm>
salt

> <STRUCTURE_IUPAC>
1-ethyl-1-methylpyrrolidinium hexafluorophosphate

> <STRUCTURE_SMILES>
F[P-](F)(F)(F)(F)F.C[N+]1(CC)CCCC1

> <STRUCTURE_SMILES_Desalt>
C[N+]1(CC)CCCC1

> <Substance_modify_yyyymmdd>
20110415

$$$$
