121032-29-9
ChemmineR-0915142007XD

 21 23  0  0  1  0  0  0  0  0  1 V2000
    5.5164   -4.0192    0.0000 C   0  0  0  0  0  0  0  0  0  0  0  0
    5.5164   -2.6379    0.0000 C   0  0  0  0  0  0  0  0  0  0  0  0
    4.2866   -2.2725    0.0000 N   0  0  0  0  0  0  0  0  0  0  0  0
    4.2866   -4.3400    0.0000 N   0  0  0  0  0  0  0  0  0  0  0  0
    3.4934   -3.3063    0.0000 C   0  0  0  0  0  0  0  0  0  0  0  0
    6.7017   -4.6252    0.0000 N   0  0  0  0  0  0  0  0  0  0  0  0
    7.7800   -2.6379    0.0000 N   0  0  0  0  0  0  0  0  0  0  0  0
    7.7800   -4.0192    0.0000 C   0  0  0  0  0  0  0  0  0  0  0  0
    6.7017   -1.9873    0.0000 C   0  0  0  0  0  0  0  0  0  0  0  0
    8.9118   -4.6520    0.0000 N   0  0  0  0  0  0  0  0  0  0  0  0
    4.3668   -6.0244    0.0000 C   0  0  0  0  0  0  0  0  0  0  0  0
    3.9568   -7.2631    0.0000 C   0  0  0  0  0  0  0  0  0  0  0  0
    4.7322   -8.3414    0.0000 O   0  0  0  0  0  0  0  0  0  0  0  0
    2.6379   -7.2631    0.0000 C   0  0  0  0  0  0  0  0  0  0  0  0
    1.8626   -8.3236    0.0000 O   0  0  0  0  0  0  0  0  0  0  0  0
    2.2369   -5.9887    0.0000 C   0  0  0  0  0  0  0  0  0  0  0  0
    3.3063   -5.2312    0.0000 O   0  0  0  0  0  0  0  0  0  0  0  0
    0.9981   -5.5788    0.0000 C   0  0  0  0  0  0  0  0  0  0  0  0
    0.0000   -6.4700    0.0000 O   0  0  0  0  0  0  0  0  0  0  0  0
    6.7017   -0.6684    0.0000 O   0  0  0  0  0  0  0  0  0  0  0  0
    5.5788    0.0000    0.0000 C   0  0  0  0  0  0  0  0  0  0  0  0
  1  2  1  0  0  0  0
  1  4  1  0  0  0  0
  1  6  2  0  0  0  0
  2  3  1  0  0  0  0
  2  9  2  0  0  0  0
  3  5  2  0  0  0  0
  4  5  1  0  0  0  0
 11  4  1  1  0  0  0
  6  8  1  0  0  0  0
  7  8  2  0  0  0  0
  7  9  1  0  0  0  0
  8 10  1  0  0  0  0
  9 20  1  0  0  0  0
 11 12  1  0  0  0  0
 11 17  1  0  0  0  0
 12 13  1  1  0  0  0
 12 14  1  0  0  0  0
 14 15  1  6  0  0  0
 14 16  1  0  0  0  0
 16 17  1  0  0  0  0
 16 18  1  1  0  0  0
 18 19  1  0  0  0  0
 20 21  1  0  0  0  0
M  END
> <ID>
12015

> <Formula>
C11H15N5O5

> <FW>
297.2673

> <DSSTox_CID>
26842

> <DSSTox_RID>
81952

> <DSSTox_GSID>
46842

> <DSSTox_FileID_Sort>
6633

> <TS_ChemName>
Nelarabine

> <TS_ChemName_Synonyms>


> <TS_CASRN>
121032-29-9

> <CASRN_ChemName_Relationship>
primary

> <TS_Description>
single chemical compound

> <ChemNote>
stereochem

> <STRUCTURE_Shown>
tested chemical

> <STRUCTURE_Formula>
C11H15N5O5

> <STRUCTURE_MW>
297.2673

> <STRUCTURE_ChemType>
defined organic

> <STRUCTURE_DefinedOrganicForm>
parent

> <STRUCTURE_IUPAC>
9-(beta-D-arabinofuranosyl)-6-methoxy-9H-purin-2-amine

> <STRUCTURE_SMILES>
Nc3nc2c(ncn2[C@@H]1O[C@H](CO)[C@@H](O)[C@@H]1O)c(OC)n3

> <STRUCTURE_SMILES_Desalt>
Nc3nc2c(ncn2[C@@H]1O[C@H](CO)[C@@H](O)[C@@H]1O)c(OC)n3

> <Substance_modify_yyyymmdd>
20110729

$$$$
