121123-17-9
ChemmineR-0915142007XD

 30 31  0  0  1  0  0  0  0  0  1 V2000
    7.3871   -6.9059    0.0000 N   0  0  0  0  0  0  0  0  0  0  0  0
    7.3871   -5.5704    0.0000 C   0  0  0  0  0  0  0  0  0  0  0  0
    8.5542   -7.5917    0.0000 C   0  0  0  0  0  0  0  0  0  0  0  0
    6.0517   -6.9059    0.0000 C   0  0  0  0  0  0  0  0  0  0  0  0
    6.0517   -5.5704    0.0000 C   0  0  0  0  0  0  0  0  0  0  0  0
    8.5542   -4.8967    0.0000 S   0  0  0  0  0  0  0  0  0  0  0  0
    9.6971   -6.9059    0.0000 C   0  0  0  0  0  0  0  0  0  0  0  0
    8.5542   -8.9392    0.0000 C   0  0  0  0  0  0  0  0  0  0  0  0
    5.0892   -7.8684    0.0000 O   0  0  0  0  0  0  0  0  0  0  0  0
    4.7042   -5.5945    0.0000 N   0  0  0  0  0  0  0  0  0  0  0  0
    9.6971   -5.5704    0.0000 C   0  0  0  0  0  0  0  0  0  0  0  0
   10.8641   -7.5917    0.0000 C   0  0  0  0  0  0  0  0  0  0  0  0
    9.6971   -9.6009    0.0000 O   0  0  0  0  0  0  0  0  0  0  0  0
    7.3871   -9.6009    0.0000 O   0  0  0  0  0  0  0  0  0  0  0  0
    4.0304   -4.4275    0.0000 C   0  0  0  0  0  0  0  0  0  0  0  0
   12.0312   -6.9059    0.0000 C   0  0  0  0  0  0  0  0  0  0  0  0
    2.6950   -4.4275    0.0000 C   0  0  0  0  0  0  0  0  0  0  0  0
    4.7042   -3.2484    0.0000 O   0  0  0  0  0  0  0  0  0  0  0  0
   12.0312   -5.5704    0.0000 C   0  0  0  0  0  0  0  0  0  0  0  0
    2.0092   -5.5945    0.0000 N   0  0  0  0  0  0  0  0  0  0  0  0
    6.0757   -4.2831    0.0000 H   0  0  0  0  0  0  0  0  0  0  0  0
    7.3871   -4.3072    0.0000 H   0  0  0  0  0  0  0  0  0  0  0  0
    2.0092   -3.2484    0.0000 C   0  0  0  0  0  0  0  0  0  0  0  0
    0.6617   -3.2484    0.0000 C   0  0  0  0  0  0  0  0  0  0  0  0
    2.6950   -2.0814    0.0000 C   0  0  0  0  0  0  0  0  0  0  0  0
    0.0000   -2.0814    0.0000 C   0  0  0  0  0  0  0  0  0  0  0  0
    2.0092   -0.9384    0.0000 C   0  0  0  0  0  0  0  0  0  0  0  0
    0.6617   -0.9384    0.0000 C   0  0  0  0  0  0  0  0  0  0  0  0
    0.1323    0.0000    0.0000 O   0  0  0  0  0  0  0  0  0  0  0  0
   11.3334   -8.7948    0.0000 O   0  0  0  0  0  0  0  0  0  0  0  0
  1  2  1  0  0  0  0
  1  3  1  0  0  0  0
  1  4  1  0  0  0  0
  2  5  1  0  0  0  0
  2  6  1  0  0  0  0
  2 22  1  6  0  0  0
  3  7  2  0  0  0  0
  3  8  1  0  0  0  0
  4  9  2  0  0  0  0
  4  5  1  0  0  0  0
  5 10  1  1  0  0  0
  5 21  1  6  0  0  0
  6 11  1  0  0  0  0
  7 12  1  0  0  0  0
  7 11  1  0  0  0  0
  8 13  2  0  0  0  0
  8 14  1  0  0  0  0
 10 15  1  0  0  0  0
 12 16  2  3  0  0  0
 15 17  1  0  0  0  0
 15 18  2  0  0  0  0
 16 19  1  0  0  0  0
 17 20  1  6  0  0  0
 17 23  1  0  0  0  0
 23 24  1  0  0  0  0
 23 25  2  0  0  0  0
 24 26  2  0  0  0  0
 25 27  1  0  0  0  0
 26 28  1  0  0  0  0
 27 28  2  0  0  0  0
 28 29  1  0  0  0  0
M  END
> <ID>
11394

> <Formula>
C18H21N3O6S

> <FW>
407.4408 (389.4256+18.0153)

> <DSSTox_CID>
26085

> <DSSTox_RID>
81326

> <DSSTox_GSID>
46085

> <DSSTox_FileID_Sort>
6007

> <TS_ChemName>
Cefprozil monohydrate

> <TS_ChemName_Synonyms>


> <TS_CASRN>
121123-17-9

> <CASRN_ChemName_Relationship>
primary

> <TS_Description>
mixture of Z,E isomers

> <ChemNote>
mixture of Z,E isomers; stereochem; parent [92665-29-7]

> <STRUCTURE_Shown>
representative isomer in mixture

> <STRUCTURE_Formula>
C18H21N3O6S

> <STRUCTURE_MW>
407.4408

> <STRUCTURE_ChemType>
defined organic

> <STRUCTURE_DefinedOrganicForm>
complex

> <STRUCTURE_IUPAC>
(6R,7R)-7-{[(2R)-2-amino-2-(4-hydroxyphenyl)acetyl]amino}-8-oxo-3-(prop-1-en-1-yl)-5-thia-1-azabicyclo[4.2.0]oct-2-ene-2-carboxylic acid hydrate (1:1)

> <STRUCTURE_SMILES>
O.Oc1ccc(cc1)[C@@H](N)C(=O)N[C@@H]3C(=O)N2C(=C(C=CC)CS[C@@H]23)C(=O)O

> <STRUCTURE_SMILES_Desalt>
Oc1ccc(cc1)[C@@H](N)C(=O)N[C@@H]3C(=O)N2C(=C(C=CC)CS[C@@H]23)C(=O)O

> <Substance_modify_yyyymmdd>
20110819

$$$$
