121107-18-4
ChemmineR-0915142007XD

 34 32  0  0  0  0  0  0  0  0  2 V2000
    8.8853   -8.7967    0.0000 N   0  3  0  0  0  0  0  0  0  0  0  0
    7.9631   -7.8567    0.0000 C   0  0  0  0  0  0  0  0  0  0  0  0
    7.9454   -9.7189    0.0000 C   0  0  0  0  0  0  0  0  0  0  0  0
    6.6684   -9.3642    0.0000 C   0  0  0  0  0  0  0  0  0  0  0  0
    5.7107  -10.2864    0.0000 C   0  0  0  0  0  0  0  0  0  0  0  0
    4.4338   -9.9317    0.0000 C   0  0  0  0  0  0  0  0  0  0  0  0
    3.4938  -10.8362    0.0000 C   0  0  0  0  0  0  0  0  0  0  0  0
    2.2169  -10.4992    0.0000 C   0  0  0  0  0  0  0  0  0  0  0  0
    1.2769  -11.4037    0.0000 C   0  0  0  0  0  0  0  0  0  0  0  0
    0.0000  -11.0313    0.0000 C   0  0  0  0  0  0  0  0  0  0  0  0
    9.8076   -9.7544    0.0000 C   0  0  0  0  0  0  0  0  0  0  0  0
   11.1022   -9.4351    0.0000 C   0  0  0  0  0  0  0  0  0  0  0  0
   12.0067  -10.3751    0.0000 C   0  0  0  0  0  0  0  0  0  0  0  0
   13.2837  -10.0381    0.0000 C   0  0  0  0  0  0  0  0  0  0  0  0
   14.2059  -10.9958    0.0000 C   0  0  0  0  0  0  0  0  0  0  0  0
   15.5006  -10.6766    0.0000 C   0  0  0  0  0  0  0  0  0  0  0  0
   16.4228  -11.6166    0.0000 C   0  0  0  0  0  0  0  0  0  0  0  0
   17.6997  -11.2973    0.0000 C   0  0  0  0  0  0  0  0  0  0  0  0
    9.8253   -7.8744    0.0000 C   0  0  0  0  0  0  0  0  0  0  0  0
    9.5238   -6.5975    0.0000 C   0  0  0  0  0  0  0  0  0  0  0  0
   10.4460   -5.6753    0.0000 C   0  0  0  0  0  0  0  0  0  0  0  0
   10.1268   -4.3983    0.0000 C   0  0  0  0  0  0  0  0  0  0  0  0
   11.0845   -3.4761    0.0000 C   0  0  0  0  0  0  0  0  0  0  0  0
   10.7653   -2.1992    0.0000 C   0  0  0  0  0  0  0  0  0  0  0  0
   11.7052   -1.2592    0.0000 C   0  0  0  0  0  0  0  0  0  0  0  0
   11.3860    0.0000    0.0000 C   0  0  0  0  0  0  0  0  0  0  0  0
   16.4051   -6.4734    0.0000 C   0  0  0  0  0  0  0  0  0  0  0  0
   15.0572   -6.4734    0.0000 S   0  0  0  0  0  0  0  0  0  0  0  0
   15.0572   -4.9481    0.0000 O   0  0  0  0  0  0  0  0  0  0  0  0
   13.7270   -6.4734    0.0000 O   0  5  0  0  0  0  0  0  0  0  0  0
   15.0572   -7.8035    0.0000 O   0  0  0  0  0  0  0  0  0  0  0  0
   17.0613   -7.6084    0.0000 F   0  0  0  0  0  0  0  0  0  0  0  0
   17.0613   -5.2319    0.0000 F   0  0  0  0  0  0  0  0  0  0  0  0
   17.7352   -6.4734    0.0000 F   0  0  0  0  0  0  0  0  0  0  0  0
  1  2  1  0  0  0  0
  1  3  1  0  0  0  0
  1 11  1  0  0  0  0
  1 19  1  0  0  0  0
  3  4  1  0  0  0  0
  4  5  1  0  0  0  0
  5  6  1  0  0  0  0
  6  7  1  0  0  0  0
  7  8  1  0  0  0  0
  8  9  1  0  0  0  0
  9 10  1  0  0  0  0
 11 12  1  0  0  0  0
 12 13  1  0  0  0  0
 13 14  1  0  0  0  0
 14 15  1  0  0  0  0
 15 16  1  0  0  0  0
 16 17  1  0  0  0  0
 17 18  1  0  0  0  0
 19 20  1  0  0  0  0
 20 21  1  0  0  0  0
 21 22  1  0  0  0  0
 22 23  1  0  0  0  0
 23 24  1  0  0  0  0
 24 25  1  0  0  0  0
 25 26  1  0  0  0  0
 27 28  1  0  0  0  0
 27 32  1  0  0  0  0
 27 33  1  0  0  0  0
 27 34  1  0  0  0  0
 28 29  2  0  0  0  0
 28 30  1  0  0  0  0
 28 31  2  0  0  0  0
M  END
> <ID>
12979

> <Formula>
C26H54F3NO3S

> <FW>
517.7721 (368.7024+149.0697)

> <DSSTox_CID>
27880

> <DSSTox_RID>
82633

> <DSSTox_GSID>
47904

> <DSSTox_FileID_Sort>
7310

> <TS_ChemName>
Methyltrioctylammonium trifluoromethanesulfonate

> <TS_ChemName_Synonyms>


> <TS_CASRN>
121107-18-4

> <CASRN_ChemName_Relationship>
primary

> <TS_Description>
single chemical compound

> <ChemNote>
ammonium; parent [22061-11-6]

> <STRUCTURE_Shown>
tested chemical

> <STRUCTURE_Formula>
C26H54F3NO3S

> <STRUCTURE_MW>
517.7721

> <STRUCTURE_ChemType>
defined organic

> <STRUCTURE_DefinedOrganicForm>
salt

> <STRUCTURE_IUPAC>
N-methyl-N,N-dioctyloctan-1-aminium trifluoromethanesulfonate

> <STRUCTURE_SMILES>
C[N+](CCCCCCCC)(CCCCCCCC)CCCCCCCC.FC(F)(F)S([O-])(=O)=O

> <STRUCTURE_SMILES_Desalt>
CCCCCCCC[N+](C)(CCCCCCCC)CCCCCCCC

> <Substance_modify_yyyymmdd>
20110417

$$$$
