121268-17-5
ChemmineR-0915142007XD

 18 13  0  0  0  0  0  0  0  0  2 V2000
    4.6041   -2.1082    0.0000 C    0  0  0  0  0  0  0  0  0  0  0  0
    5.2604   -0.9447    0.0000 P    0  0  0  0  0  0  0  0  0  0  0  0
    5.2604   -3.2617    0.0000 P    0  0  0  0  0  0  0  0  0  0  0  0
    3.4606   -2.7844    0.0000 C    0  0  0  0  0  0  0  0  0  0  0  0
    3.4606   -1.4518    0.0000 O    0  0  0  0  0  0  0  0  0  0  0  0
    6.4040   -0.2685    0.0000 O    0  5  0  0  0  0  0  0  0  0  0  0
    6.4040   -1.6109    0.0000 O    0  0  0  0  0  0  0  0  0  0  0  0
    4.3157    0.0000    0.0000 O    0  0  0  0  0  0  0  0  0  0  0  0
    6.4040   -2.5855    0.0000 O    0  0  0  0  0  0  0  0  0  0  0  0
    6.4040   -3.9279    0.0000 O    0  0  0  0  0  0  0  0  0  0  0  0
    4.5842   -4.4052    0.0000 O    0  0  0  0  0  0  0  0  0  0  0  0
    2.2971   -2.1082    0.0000 C    0  0  0  0  0  0  0  0  0  0  0  0
    1.1635   -2.7844    0.0000 C    0  0  0  0  0  0  0  0  0  0  0  0
    0.0000   -2.1082    0.0000 N    0  0  0  0  0  0  0  0  0  0  0  0
    9.7353   -0.2884    0.0000 Na   0  3  0  0  0  0  0  0  0  0  0  0
    9.9441   -1.9590    0.0000 O    0  0  0  0  0  0  0  0  0  0  0  0
    9.8347   -3.3611    0.0000 O    0  0  0  0  0  0  0  0  0  0  0  0
    9.8347   -5.1809    0.0000 O    0  0  0  0  0  0  0  0  0  0  0  0
  1  2  1  0  0  0  0
  1  3  1  0  0  0  0
  1  4  1  0  0  0  0
  1  5  1  0  0  0  0
  2  6  1  0  0  0  0
  2  7  1  0  0  0  0
  2  8  2  0  0  0  0
  3  9  1  0  0  0  0
  3 10  1  0  0  0  0
  3 11  2  0  0  0  0
  4 12  1  0  0  0  0
 12 13  1  0  0  0  0
 13 14  1  0  0  0  0
M  END
> <ID>
12894

> <Formula>
C4H18NNaO10P2

> <FW>
325.1237 (248.0887+22.9892+18.0153+18.0153+18.0153)

> <DSSTox_CID>
27778

> <DSSTox_RID>
82554

> <DSSTox_GSID>
47801

> <DSSTox_FileID_Sort>
7233

> <TS_ChemName>
Alendronate sodium

> <TS_ChemName_Synonyms>


> <TS_CASRN>
121268-17-5

> <CASRN_ChemName_Relationship>
primary

> <TS_Description>
single chemical compound

> <ChemNote>
parent [66376-36-1]

> <STRUCTURE_Shown>
tested chemical

> <STRUCTURE_Formula>
C4H18NNaO10P2

> <STRUCTURE_MW>
325.1237

> <STRUCTURE_ChemType>
defined organic

> <STRUCTURE_DefinedOrganicForm>
salt complex

> <STRUCTURE_IUPAC>
sodium hydrogen (4-amino-1-hydroxy-1-phosphonobutyl)phosphonate hydrate (1:1:3)

> <STRUCTURE_SMILES>
[Na+].O.O.O.OC(CCCN)(P(O)([O-])=O)P(=O)(O)O

> <STRUCTURE_SMILES_Desalt>
OC(CCCN)(P(O)(=O)O)P(=O)(O)O

> <Substance_modify_yyyymmdd>
20110824

$$$$
