1212-72-2
ChemmineR-0915142007XD

 29 28  0  0  0  0  0  0  0  0  1 V2000
    6.6118   -0.0942    0.0000 C   0  0  0  0  0  0  0  0  0  0  0  0
    5.2932   -0.0942    0.0000 N   0  0  0  0  0  0  0  0  0  0  0  0
    4.6151   -1.2433    0.0000 C   0  0  0  0  0  0  0  0  0  0  0  0
    3.9370   -2.3923    0.0000 C   0  0  0  0  0  0  0  0  0  0  0  0
    5.7453   -1.9026    0.0000 C   0  0  0  0  0  0  0  0  0  0  0  0
    3.4660   -0.5651    0.0000 C   0  0  0  0  0  0  0  0  0  0  0  0
    2.2981   -1.2433    0.0000 C   0  0  0  0  0  0  0  0  0  0  0  0
    2.2981   -2.5619    0.0000 C   0  0  0  0  0  0  0  0  0  0  0  0
    1.1491   -3.2400    0.0000 C   0  0  0  0  0  0  0  0  0  0  0  0
    0.0000   -2.5619    0.0000 C   0  0  0  0  0  0  0  0  0  0  0  0
    0.0000   -1.2433    0.0000 C   0  0  0  0  0  0  0  0  0  0  0  0
    1.1491   -0.5651    0.0000 C   0  0  0  0  0  0  0  0  0  0  0  0
    9.1925   -1.5258    0.0000 S   0  0  0  0  0  0  0  0  0  0  0  0
   10.5111   -1.5258    0.0000 O   0  0  0  0  0  0  0  0  0  0  0  0
    7.8551   -1.5258    0.0000 O   0  0  0  0  0  0  0  0  0  0  0  0
    9.1925   -2.8632    0.0000 O   0  0  0  0  0  0  0  0  0  0  0  0
    9.1925   -0.1884    0.0000 O   0  0  0  0  0  0  0  0  0  0  0  0
   18.8372    0.0000    0.0000 C   0  0  0  0  0  0  0  0  0  0  0  0
   17.5186    0.0000    0.0000 N   0  0  0  0  0  0  0  0  0  0  0  0
   16.8404   -1.1491    0.0000 C   0  0  0  0  0  0  0  0  0  0  0  0
   16.1623   -2.2981    0.0000 C   0  0  0  0  0  0  0  0  0  0  0  0
   17.9707   -1.8084    0.0000 C   0  0  0  0  0  0  0  0  0  0  0  0
   15.6914   -0.4709    0.0000 C   0  0  0  0  0  0  0  0  0  0  0  0
   14.5235   -1.1491    0.0000 C   0  0  0  0  0  0  0  0  0  0  0  0
   14.5235   -2.4677    0.0000 C   0  0  0  0  0  0  0  0  0  0  0  0
   13.3744   -3.1458    0.0000 C   0  0  0  0  0  0  0  0  0  0  0  0
   12.2253   -2.4677    0.0000 C   0  0  0  0  0  0  0  0  0  0  0  0
   12.2253   -1.1491    0.0000 C   0  0  0  0  0  0  0  0  0  0  0  0
   13.3744   -0.4709    0.0000 C   0  0  0  0  0  0  0  0  0  0  0  0
  1  2  1  0  0  0  0
  2  3  1  0  0  0  0
  3  4  1  0  0  0  0
  3  5  1  0  0  0  0
  3  6  1  0  0  0  0
  6  7  1  0  0  0  0
  7  8  2  0  0  0  0
  7 12  1  0  0  0  0
  8  9  1  0  0  0  0
  9 10  2  0  0  0  0
 10 11  1  0  0  0  0
 11 12  2  0  0  0  0
 13 14  2  0  0  0  0
 13 15  2  0  0  0  0
 13 16  1  0  0  0  0
 13 17  1  0  0  0  0
 18 19  1  0  0  0  0
 19 20  1  0  0  0  0
 20 21  1  0  0  0  0
 20 22  1  0  0  0  0
 20 23  1  0  0  0  0
 23 24  1  0  0  0  0
 24 25  2  0  0  0  0
 24 29  1  0  0  0  0
 25 26  1  0  0  0  0
 26 27  2  0  0  0  0
 27 28  1  0  0  0  0
 28 29  2  0  0  0  0
M  END
> <ID>
12881

> <Formula>
C22H36N2O4S

> <FW>
424.5972 (163.2594+98.0785+163.2594)

> <DSSTox_CID>
27760

> <DSSTox_RID>
82537

> <DSSTox_GSID>
47780

> <DSSTox_FileID_Sort>
7218

> <TS_ChemName>
Mephentermine hemisulfate

> <TS_ChemName_Synonyms>


> <TS_CASRN>
1212-72-2

> <CASRN_ChemName_Relationship>
primary

> <TS_Description>
single chemical compound

> <ChemNote>
parent [100-92-5]

> <STRUCTURE_Shown>
tested chemical

> <STRUCTURE_Formula>
C22H36N2O4S

> <STRUCTURE_MW>
424.5972

> <STRUCTURE_ChemType>
defined organic

> <STRUCTURE_DefinedOrganicForm>
complex

> <STRUCTURE_IUPAC>
N,2-dimethyl-1-phenylpropan-2-amine sulfate (2:1)

> <STRUCTURE_SMILES>
O=S(=O)(O)O.CC(C)(NC)Cc1ccccc1.CC(C)(NC)Cc1ccccc1

> <STRUCTURE_SMILES_Desalt>
CC(C)(NC)Cc1ccccc1

> <Substance_modify_yyyymmdd>
20110720

$$$$
