121288-39-9
ChemmineR-0915142007XD

 24 26  0  0  1  0  0  0  0  0  1 V2000
    4.6177   -4.8380    0.0000 N   0  0  0  0  0  0  0  0  0  0  0  0
    3.3967   -4.4341    0.0000 C   0  0  0  0  0  0  0  0  0  0  0  0
    4.5442   -6.8760    0.0000 C   0  0  0  0  0  0  0  0  0  0  0  0
    5.4072   -3.7914    0.0000 C   0  0  0  0  0  0  0  0  0  0  0  0
    3.3967   -3.1305    0.0000 C   0  0  0  0  0  0  0  0  0  0  0  0
    2.2675   -5.1042    0.0000 N   0  0  0  0  0  0  0  0  0  0  0  0
    3.5069   -6.1232    0.0000 O   0  0  0  0  0  0  0  0  0  0  0  0
    4.1403   -8.1337    0.0000 C   0  0  0  0  0  0  0  0  0  0  0  0
    4.6177   -2.7449    0.0000 N   0  0  0  0  0  0  0  0  0  0  0  0
    6.7016   -3.7914    0.0000 O   0  0  0  0  0  0  0  0  0  0  0  0
    2.2675   -2.4879    0.0000 C   0  0  0  0  0  0  0  0  0  0  0  0
    1.1475   -4.4341    0.0000 C   0  0  0  0  0  0  0  0  0  0  0  0
    2.4328   -6.8760    0.0000 C   0  0  0  0  0  0  0  0  0  0  0  0
    2.8367   -8.1337    0.0000 C   0  0  0  0  0  0  0  0  0  0  0  0
    4.9023   -9.1803    0.0000 O   0  0  0  0  0  0  0  0  0  0  0  0
    5.0308   -1.5056    0.0000 C   0  0  0  0  0  0  0  0  0  0  0  0
    1.1475   -3.1305    0.0000 N   0  0  0  0  0  0  0  0  0  0  0  0
    2.2675   -1.1934    0.0000 O   0  0  0  0  0  0  0  0  0  0  0  0
    0.0000   -5.1042    0.0000 N   0  0  0  0  0  0  0  0  0  0  0  0
    1.2026   -6.4721    0.0000 C   0  0  0  0  0  0  0  0  0  0  0  0
    2.0839   -9.1619    0.0000 O   0  0  0  0  0  0  0  0  0  0  0  0
    6.3160   -1.2393    0.0000 C   0  0  0  0  0  0  0  0  0  0  0  0
    6.7200    0.0000    0.0000 C   0  0  0  0  0  0  0  0  0  0  0  0
    0.2387   -7.3350    0.0000 O   0  0  0  0  0  0  0  0  0  0  0  0
  1  2  1  0  0  0  0
  3  1  1  1  0  0  0
  1  4  1  0  0  0  0
  2  5  2  0  0  0  0
  2  6  1  0  0  0  0
  3  7  1  0  0  0  0
  3  8  1  0  0  0  0
  4  9  1  0  0  0  0
  4 10  2  0  0  0  0
  5 11  1  0  0  0  0
  5  9  1  0  0  0  0
  6 12  2  0  0  0  0
  7 13  1  0  0  0  0
  8 14  1  0  0  0  0
  8 15  1  6  0  0  0
  9 16  1  0  0  0  0
 11 17  1  0  0  0  0
 11 18  2  0  0  0  0
 12 19  1  0  0  0  0
 12 17  1  0  0  0  0
 13 20  1  1  0  0  0
 13 14  1  0  0  0  0
 14 21  1  6  0  0  0
 16 22  1  0  0  0  0
 20 24  1  0  0  0  0
 22 23  2  0  0  0  0
M  END
> <ID>
11937

> <Formula>
C13H17N5O6

> <FW>
339.304

> <DSSTox_CID>
26748

> <DSSTox_RID>
81873

> <DSSTox_GSID>
46748

> <DSSTox_FileID_Sort>
6554

> <TS_ChemName>
Loxoribine

> <TS_ChemName_Synonyms>


> <TS_CASRN>
121288-39-9

> <CASRN_ChemName_Relationship>
primary

> <TS_Description>
single chemical compound

> <ChemNote>
stereochem; tautomers

> <STRUCTURE_Shown>
tested chemical

> <STRUCTURE_Formula>
C13H17N5O6

> <STRUCTURE_MW>
339.304

> <STRUCTURE_ChemType>
defined organic

> <STRUCTURE_DefinedOrganicForm>
parent

> <STRUCTURE_IUPAC>
8-oxo-7-prop-2-en-1-yl-7,8-dihydroguanosine

> <STRUCTURE_SMILES>
NC3=NC2=C(N(CC=C)C(=O)N2[C@@H]1O[C@H](CO)[C@@H](O)[C@H]1O)C(=O)N3

> <STRUCTURE_SMILES_Desalt>
NC3=NC2=C(N(CC=C)C(=O)N2[C@@H]1O[C@H](CO)[C@@H](O)[C@H]1O)C(=O)N3

> <Substance_modify_yyyymmdd>
20110803

$$$$
