1214-39-7
ChemmineR-0915142007XD

 17 19  0  0  0  0  0  0  0  0  1 V2000
    5.7502   -0.6779    0.0000 C   0  0  0  0  0  0  0  0  0  0  0  0
    5.7502   -2.0024    0.0000 C   0  0  0  0  0  0  0  0  0  0  0  0
    7.0046   -2.3998    0.0000 N   0  0  0  0  0  0  0  0  0  0  0  0
    7.0046   -0.2493    0.0000 N   0  0  0  0  0  0  0  0  0  0  0  0
    7.7916   -1.3324    0.0000 C   0  0  0  0  0  0  0  0  0  0  0  0
    4.6048    0.0000    0.0000 N   0  0  0  0  0  0  0  0  0  0  0  0
    3.4517   -2.0024    0.0000 N   0  0  0  0  0  0  0  0  0  0  0  0
    3.4517   -0.6779    0.0000 C   0  0  0  0  0  0  0  0  0  0  0  0
    4.6048   -2.6491    0.0000 C   0  0  0  0  0  0  0  0  0  0  0  0
    4.6048   -3.9893    0.0000 N   0  0  0  0  0  0  0  0  0  0  0  0
    3.4517   -4.6671    0.0000 C   0  0  0  0  0  0  0  0  0  0  0  0
    2.3063   -3.9893    0.0000 C   0  0  0  0  0  0  0  0  0  0  0  0
    2.3063   -2.6491    0.0000 C   0  0  0  0  0  0  0  0  0  0  0  0
    1.1454   -4.6671    0.0000 C   0  0  0  0  0  0  0  0  0  0  0  0
    1.1454   -2.0024    0.0000 C   0  0  0  0  0  0  0  0  0  0  0  0
    0.0000   -3.9893    0.0000 C   0  0  0  0  0  0  0  0  0  0  0  0
    0.0000   -2.6491    0.0000 C   0  0  0  0  0  0  0  0  0  0  0  0
  1  2  1  0  0  0  0
  1  4  2  0  0  0  0
  1  6  1  0  0  0  0
  2  3  1  0  0  0  0
  2  9  2  0  0  0  0
  3  5  2  0  0  0  0
  4  5  1  0  0  0  0
  6  8  2  0  0  0  0
  7  8  1  0  0  0  0
  7  9  1  0  0  0  0
  9 10  1  0  0  0  0
 10 11  1  0  0  0  0
 11 12  1  0  0  0  0
 12 13  2  0  0  0  0
 12 14  1  0  0  0  0
 13 15  1  0  0  0  0
 14 16  2  0  0  0  0
 15 17  2  0  0  0  0
 16 17  1  0  0  0  0
M  END
> <ID>
6552

> <Formula>
C12H11N5

> <FW>
225.2492

> <DSSTox_CID>
12630

> <DSSTox_RID>
79014

> <DSSTox_GSID>
32630

> <DSSTox_FileID_Sort>
3696

> <TS_ChemName>
N-Benzyladenine

> <TS_ChemName_Synonyms>
N-Benzyladenine (6-(Benzylamino)purine) (6-Benzyl adenine)

> <TS_CASRN>
1214-39-7

> <CASRN_ChemName_Relationship>
primary

> <TS_Description>
single chemical compound

> <ChemNote>
tautomers

> <STRUCTURE_Shown>
tested chemical

> <STRUCTURE_Formula>
C12H11N5

> <STRUCTURE_MW>
225.2492

> <STRUCTURE_ChemType>
defined organic

> <STRUCTURE_DefinedOrganicForm>
parent

> <STRUCTURE_IUPAC>
N-benzyl-1H-purin-6-amine

> <STRUCTURE_SMILES>
N2=CN=C3N=CNC(NCc1ccccc1)=C23

> <STRUCTURE_SMILES_Desalt>
N2=CN=C3N=CNC(NCc1ccccc1)=C23

> <Substance_modify_yyyymmdd>
20080429

$$$$
