1215-83-4
ChemmineR-0915142007XD

 18 17  0  0  0  0  0  0  0  0  1 V2000
    9.9297   -3.6665    0.0000 Cl   0  0  0  0  0  0  0  0  0  0  0  0
    5.7958   -2.0773    0.0000 C    0  0  0  0  0  0  0  0  0  0  0  0
    6.9487   -1.3399    0.0000 C    0  0  0  0  0  0  0  0  0  0  0  0
    4.6325   -1.3918    0.0000 C    0  0  0  0  0  0  0  0  0  0  0  0
    8.1120   -2.0150    0.0000 C    0  0  0  0  0  0  0  0  0  0  0  0
    9.2441   -1.3295    0.0000 N    0  0  0  0  0  0  0  0  0  0  0  0
    3.4691   -2.0462    0.0000 C    0  0  0  0  0  0  0  0  0  0  0  0
    5.3076   -3.2822    0.0000 O    0  0  0  0  0  0  0  0  0  0  0  0
    1.1425   -3.4172    0.0000 C    0  0  0  0  0  0  0  0  0  0  0  0
    0.0000   -4.0508    0.0000 Cl   0  0  0  0  0  0  0  0  0  0  0  0
    2.2747   -1.4022    0.0000 C    0  0  0  0  0  0  0  0  0  0  0  0
    3.4691   -3.3964    0.0000 C    0  0  0  0  0  0  0  0  0  0  0  0
    1.1425   -2.0773    0.0000 C    0  0  0  0  0  0  0  0  0  0  0  0
    2.3058   -4.0508    0.0000 C    0  0  0  0  0  0  0  0  0  0  0  0
    6.4709   -3.1783    0.0000 C    0  0  0  0  0  0  0  0  0  0  0  0
    6.9487   -0.0208    0.0000 C    0  0  0  0  0  0  0  0  0  0  0  0
   10.3867   -1.9839    0.0000 C    0  0  0  0  0  0  0  0  0  0  0  0
    9.2441    0.0000    0.0000 C    0  0  0  0  0  0  0  0  0  0  0  0
  2  3  1  0  0  0  0
  2  4  1  0  0  0  0
  2  8  1  0  0  0  0
  2 15  1  0  0  0  0
  3  5  1  0  0  0  0
  3 16  1  0  0  0  0
  4  7  1  0  0  0  0
  5  6  1  0  0  0  0
  6 17  1  0  0  0  0
  6 18  1  0  0  0  0
  7 11  2  0  0  0  0
  7 12  1  0  0  0  0
  9 14  1  0  0  0  0
  9 10  1  0  0  0  0
  9 13  2  0  0  0  0
 11 13  1  0  0  0  0
 12 14  2  0  0  0  0
M  END
> <ID>
12900

> <Formula>
C14H23Cl2NO

> <FW>
292.2445 (36.4609+255.7836)

> <DSSTox_CID>
27784

> <DSSTox_RID>
82560

> <DSSTox_GSID>
47807

> <DSSTox_FileID_Sort>
7238

> <TS_ChemName>
Clobutinol hydrochloride

> <TS_ChemName_Synonyms>


> <TS_CASRN>
1215-83-4

> <CASRN_ChemName_Relationship>
primary

> <TS_Description>
single chemical compound

> <ChemNote>


> <STRUCTURE_Shown>
tested chemical

> <STRUCTURE_Formula>
C14H23Cl2NO

> <STRUCTURE_MW>
292.2445

> <STRUCTURE_ChemType>
defined organic

> <STRUCTURE_DefinedOrganicForm>
complex

> <STRUCTURE_IUPAC>
1-(4-chlorophenyl)-4-(dimethylamino)-2,3-dimethylbutan-2-ol hydrochloride (1:1)

> <STRUCTURE_SMILES>
Cl.Clc1ccc(CC(C)(O)C(C)CN(C)C)cc1

> <STRUCTURE_SMILES_Desalt>
Clc1ccc(CC(C)(O)C(C)CN(C)C)cc1

> <Substance_modify_yyyymmdd>


$$$$
