121552-61-2
ChemmineR-0915142007XD

 17 19  0  0  0  0  0  0  0  0  1 V2000
    6.8900   -1.7787    0.0000 C   0  0  0  0  0  0  0  0  0  0  0  0
    8.0227   -1.1327    0.0000 C   0  0  0  0  0  0  0  0  0  0  0  0
    5.7479   -1.1327    0.0000 N   0  0  0  0  0  0  0  0  0  0  0  0
    6.8900   -3.1548    0.0000 C   0  0  0  0  0  0  0  0  0  0  0  0
    9.3614   -1.1327    0.0000 C   0  0  0  0  0  0  0  0  0  0  0  0
    8.6967    0.0000    0.0000 C   0  0  0  0  0  0  0  0  0  0  0  0
    4.5684   -1.7787    0.0000 C   0  0  0  0  0  0  0  0  0  0  0  0
    5.7479   -3.7820    0.0000 C   0  0  0  0  0  0  0  0  0  0  0  0
    3.4543   -1.1327    0.0000 N   0  0  0  0  0  0  0  0  0  0  0  0
    4.5684   -3.1548    0.0000 N   0  0  0  0  0  0  0  0  0  0  0  0
    5.7479   -5.1394    0.0000 C   0  0  0  0  0  0  0  0  0  0  0  0
    2.2655   -1.7787    0.0000 C   0  0  0  0  0  0  0  0  0  0  0  0
    2.2655   -3.1548    0.0000 C   0  0  0  0  0  0  0  0  0  0  0  0
    1.1327   -1.1327    0.0000 C   0  0  0  0  0  0  0  0  0  0  0  0
    1.1327   -3.7820    0.0000 C   0  0  0  0  0  0  0  0  0  0  0  0
    0.0000   -1.7787    0.0000 C   0  0  0  0  0  0  0  0  0  0  0  0
    0.0000   -3.1548    0.0000 C   0  0  0  0  0  0  0  0  0  0  0  0
  1  2  1  0  0  0  0
  1  3  1  0  0  0  0
  1  4  2  0  0  0  0
  2  5  1  0  0  0  0
  2  6  1  0  0  0  0
  3  7  2  0  0  0  0
  4  8  1  0  0  0  0
  5  6  1  0  0  0  0
  7  9  1  0  0  0  0
  7 10  1  0  0  0  0
  8 11  1  0  0  0  0
  8 10  2  0  0  0  0
  9 12  1  0  0  0  0
 12 13  1  0  0  0  0
 12 14  2  0  0  0  0
 13 15  2  0  0  0  0
 14 16  1  0  0  0  0
 15 17  1  0  0  0  0
 16 17  2  0  0  0  0
M  END
> <ID>
6433

> <Formula>
C14H15N3

> <FW>
225.289

> <DSSTox_CID>
12359

> <DSSTox_RID>
78925

> <DSSTox_GSID>
32359

> <DSSTox_FileID_Sort>
3607

> <TS_ChemName>
Cyprodinil

> <TS_ChemName_Synonyms>
Cyprodinil (2-Pyrimidinamine, 4-cyclopropyl-6-methyl-N-phenyl-)

> <TS_CASRN>
121552-61-2

> <CASRN_ChemName_Relationship>
primary

> <TS_Description>
single chemical compound

> <ChemNote>


> <STRUCTURE_Shown>
tested chemical

> <STRUCTURE_Formula>
C14H15N3

> <STRUCTURE_MW>
225.289

> <STRUCTURE_ChemType>
defined organic

> <STRUCTURE_DefinedOrganicForm>
parent

> <STRUCTURE_IUPAC>
4-cyclopropyl-6-methyl-N-phenylpyrimidin-2-amine

> <STRUCTURE_SMILES>
Cc2cc(nc(Nc1ccccc1)n2)C3CC3

> <STRUCTURE_SMILES_Desalt>
Cc2cc(nc(Nc1ccccc1)n2)C3CC3

> <Substance_modify_yyyymmdd>
20080429

$$$$
