1216920-18-1
ChemmineR-0915142007XD

 29 30  0  0  0  0  0  0  0  0  1 V2000
    5.7646   -5.9858    0.0000 C    0  0  0  0  0  0  0  0  0  0  0  0
    5.7646   -7.3129    0.0000 C    0  0  0  0  0  0  0  0  0  0  0  0
    4.6172   -5.3222    0.0000 C    0  0  0  0  0  0  0  0  0  0  0  0
    4.6172   -7.9764    0.0000 N    0  0  0  0  0  0  0  0  0  0  0  0
    3.4560   -5.9858    0.0000 N    0  0  0  0  0  0  0  0  0  0  0  0
    3.4560   -7.3129    0.0000 C    0  0  0  0  0  0  0  0  0  0  0  0
    6.9258   -5.3222    0.0000 N    0  0  0  0  0  0  0  0  0  0  0  0
    8.0732   -5.9858    0.0000 C    0  0  0  0  0  0  0  0  0  0  0  0
    6.9258   -7.9764    0.0000 C    0  0  0  0  0  0  0  0  0  0  0  0
    8.0732   -7.3129    0.0000 N    0  0  0  0  0  0  0  0  0  0  0  0
    4.6172   -3.9813    0.0000 N    0  0  0  0  0  0  0  0  0  0  0  0
    9.2206   -5.3222    0.0000 N    0  0  0  0  0  0  0  0  0  0  0  0
   10.3680   -5.9858    0.0000 C    0  0  0  0  0  0  0  0  0  0  0  0
   11.5153   -5.3222    0.0000 C    0  0  0  0  0  0  0  0  0  0  0  0
   10.3680   -7.3129    0.0000 C    0  0  0  0  0  0  0  0  0  0  0  0
   12.6766   -5.9858    0.0000 C    0  0  0  0  0  0  0  0  0  0  0  0
   11.5153   -7.9764    0.0000 C    0  0  0  0  0  0  0  0  0  0  0  0
   12.6766   -7.3129    0.0000 N    0  0  0  0  0  0  0  0  0  0  0  0
   13.8239   -7.9764    0.0000 C    0  0  0  0  0  0  0  0  0  0  0  0
    3.4560   -3.3316    0.0000 C    0  0  0  0  0  0  0  0  0  0  0  0
    2.3086   -3.9813    0.0000 C    0  0  0  0  0  0  0  0  0  0  0  0
    3.4560   -1.9906    0.0000 C    0  0  0  0  0  0  0  0  0  0  0  0
    1.1474   -3.3177    0.0000 C    0  0  0  0  0  0  0  0  0  0  0  0
    2.3086   -1.3271    0.0000 C    0  0  0  0  0  0  0  0  0  0  0  0
    1.1474   -1.9906    0.0000 C    0  0  0  0  0  0  0  0  0  0  0  0
    0.0000   -1.3271    0.0000 F    0  0  0  0  0  0  0  0  0  0  0  0
    2.3086    0.0000    0.0000 Cl   0  0  0  0  0  0  0  0  0  0  0  0
    6.6631   -1.7003    0.0000 Cl   0  0  0  0  0  0  0  0  0  0  0  0
    8.5708   -2.7371    0.0000 Cl   0  0  0  0  0  0  0  0  0  0  0  0
  1  3  2  0  0  0  0
  1  7  1  0  0  0  0
  1  2  1  0  0  0  0
  2  4  2  0  0  0  0
  2  9  1  0  0  0  0
  3  5  1  0  0  0  0
  3 11  1  0  0  0  0
  4  6  1  0  0  0  0
  5  6  2  0  0  0  0
  7  8  2  0  0  0  0
  8 10  1  0  0  0  0
  8 12  1  0  0  0  0
  9 10  2  0  0  0  0
 11 20  1  0  0  0  0
 12 13  1  0  0  0  0
 13 14  1  0  0  0  0
 13 15  1  0  0  0  0
 14 16  1  0  0  0  0
 15 17  1  0  0  0  0
 16 18  1  0  0  0  0
 17 18  1  0  0  0  0
 18 19  1  0  0  0  0
 20 21  1  0  0  0  0
 20 22  2  0  0  0  0
 21 23  2  0  0  0  0
 22 24  1  0  0  0  0
 23 25  1  0  0  0  0
 24 25  2  0  0  0  0
 24 27  1  0  0  0  0
 25 26  1  0  0  0  0
M  END
> <ID>
11595

> <Formula>
C18H21Cl3FN7

> <FW>
460.7636 (387.8418+36.4609+36.4609)

> <DSSTox_CID>
26307

> <DSSTox_RID>
81528

> <DSSTox_GSID>
46307

> <DSSTox_FileID_Sort>
6209

> <TS_ChemName>
Falnidamol dihydrochloride

> <TS_ChemName_Synonyms>


> <TS_CASRN>
1216920-18-1

> <CASRN_ChemName_Relationship>
primary

> <TS_Description>
single chemical compound

> <ChemNote>
parent [196612-93-8]

> <STRUCTURE_Shown>
tested chemical

> <STRUCTURE_Formula>
C18H21Cl3FN7

> <STRUCTURE_MW>
460.7636

> <STRUCTURE_ChemType>
defined organic

> <STRUCTURE_DefinedOrganicForm>
complex

> <STRUCTURE_IUPAC>
N~8~-(3-chloro-4-fluorophenyl)-N~2~-(1-methylpiperidin-4-yl)pyrimido[5,4-d]pyrimidine-2,8-diamine dihydrochloride

> <STRUCTURE_SMILES>
Cl.Cl.CN4CCC(Nc2nc3c(Nc1ccc(F)c(Cl)c1)ncnc3cn2)CC4

> <STRUCTURE_SMILES_Desalt>
CN4CCC(Nc2nc3c(Nc1ccc(F)c(Cl)c1)ncnc3cn2)CC4

> <Substance_modify_yyyymmdd>
20110815

$$$$
