1217457-81-2
ChemmineR-0915142007XD

 30 31  0  0  1  0  0  0  0  0  1 V2000
    8.3309   -3.4945    0.0000 C   0  0  0  0  0  0  0  0  0  0  0  0
    8.3309   -4.8224    0.0000 C   0  0  0  0  0  0  0  0  0  0  0  0
    7.1847   -2.8236    0.0000 C   0  0  0  0  0  0  0  0  0  0  0  0
    7.1847   -5.4794    0.0000 C   0  0  0  0  0  0  0  0  0  0  0  0
    6.0246   -3.4945    0.0000 C   0  0  0  0  0  0  0  0  0  0  0  0
    6.0246   -4.8224    0.0000 C   0  0  0  0  0  0  0  0  0  0  0  0
    4.7665   -3.0892    0.0000 C   0  0  0  0  0  0  0  0  0  0  0  0
    3.9838   -4.1515    0.0000 C   0  0  0  0  0  0  0  0  0  0  0  0
    4.7665   -5.2278    0.0000 C   0  0  0  0  0  0  0  0  0  0  0  0
    2.6558   -4.1515    0.0000 C   0  0  0  0  0  0  0  0  0  0  0  0
    1.9989   -5.3117    0.0000 C   0  0  0  0  0  0  0  0  0  0  0  0
    0.6709   -5.3117    0.0000 N   0  0  0  0  0  0  0  0  0  0  0  0
    0.0000   -6.4579    0.0000 C   0  0  0  0  0  0  0  0  0  0  0  0
    0.0000   -4.1515    0.0000 C   0  0  0  0  0  0  0  0  0  0  0  0
    4.3612   -1.8172    0.0000 C   0  0  0  0  0  0  0  0  0  0  0  0
    5.2418   -0.8247    0.0000 C   0  0  0  0  0  0  0  0  0  0  0  0
    3.0612   -1.5516    0.0000 C   0  0  0  0  0  0  0  0  0  0  0  0
    2.1806   -2.5300    0.0000 C   0  0  0  0  0  0  0  0  0  0  0  0
    2.6558   -0.2796    0.0000 N   0  0  0  0  0  0  0  0  0  0  0  0
    0.8806   -2.2505    0.0000 C   0  0  0  0  0  0  0  0  0  0  0  0
    1.3559    0.0000    0.0000 C   0  0  0  0  0  0  0  0  0  0  0  0
    0.4613   -0.9924    0.0000 C   0  0  0  0  0  0  0  0  0  0  0  0
   12.6362   -1.8032    0.0000 C   0  0  0  0  0  0  0  0  0  0  0  0
    9.9524   -1.8032    0.0000 C   0  0  0  0  0  0  0  0  0  0  0  0
   10.6094   -0.6570    0.0000 C   0  0  0  0  0  0  0  0  0  0  0  0
   11.9792   -0.6570    0.0000 C   0  0  0  0  0  0  0  0  0  0  0  0
   11.9792   -2.9494    0.0000 O   0  0  0  0  0  0  0  0  0  0  0  0
   10.6094   -2.9494    0.0000 O   0  0  0  0  0  0  0  0  0  0  0  0
   13.9781   -1.8172    0.0000 O   0  0  0  0  0  0  0  0  0  0  0  0
    8.6105   -1.8172    0.0000 O   0  0  0  0  0  0  0  0  0  0  0  0
  1  2  1  0  0  0  0
  1  3  2  0  0  0  0
  2  4  2  0  0  0  0
  3  5  1  0  0  0  0
  4  6  1  0  0  0  0
  5  6  2  0  0  0  0
  5  7  1  0  0  0  0
  6  9  1  0  0  0  0
  7  8  2  0  0  0  0
  7 15  1  0  0  0  0
  8  9  1  0  0  0  0
  8 10  1  0  0  0  0
 10 11  1  0  0  0  0
 11 12  1  0  0  0  0
 12 13  1  0  0  0  0
 12 14  1  0  0  0  0
 15 16  1  1  0  0  0
 15 17  1  0  0  0  0
 17 18  1  0  0  0  0
 17 19  2  0  0  0  0
 18 20  2  0  0  0  0
 19 21  1  0  0  0  0
 20 22  1  0  0  0  0
 21 22  2  0  0  0  0
 23 26  1  0  0  0  0
 23 27  2  0  0  0  0
 23 29  1  0  0  0  0
 24 25  1  0  0  0  0
 24 28  2  0  0  0  0
 24 30  1  0  0  0  0
 25 26  2  0  0  0  0
M  END
> <ID>
14024

> <Formula>
C24H28N2O4

> <FW>
408.4901 (292.4180+116.0722)

> <DSSTox_CID>
28966

> <DSSTox_RID>
83231

> <DSSTox_GSID>
49040

> <DSSTox_FileID_Sort>
7906

> <TS_ChemName>
(S)-(+)-Dimethindene maleate

> <TS_ChemName_Synonyms>


> <TS_CASRN>
1217457-81-2

> <CASRN_ChemName_Relationship>
primary

> <TS_Description>
single chemical compound

> <ChemNote>
stereochem

> <STRUCTURE_Shown>
tested chemical

> <STRUCTURE_Formula>
C24H28N2O4

> <STRUCTURE_MW>
408.4901

> <STRUCTURE_ChemType>
defined organic

> <STRUCTURE_DefinedOrganicForm>
salt

> <STRUCTURE_IUPAC>
N,N-dimethyl-2-{3-[(1S)-1-(pyridin-2-yl)ethyl]-1H-inden-2-yl}ethanamine (2Z)-but-2-enedioate (1:1)

> <STRUCTURE_SMILES>
C[C@@H](C=1c2ccccc2CC=1CCN(C)C)c3ccccn3.O=C(O)/C=C\C(=O)O

> <STRUCTURE_SMILES_Desalt>
C[C@@H](C=1c2ccccc2CC=1CCN(C)C)c3ccccn3

> <Substance_modify_yyyymmdd>
20122022

$$$$
