1217623-74-9
ChemmineR-0915142007XD

 25 26  0  0  1  0  0  0  0  0  1 V2000
    3.4632   -0.6644    0.0000 C    0  0  0  0  0  0  0  0  0  0  0  0
    3.4632   -1.9931    0.0000 C    0  0  0  0  0  0  0  0  0  0  0  0
    2.3041    0.0000    0.0000 C    0  0  0  0  0  0  0  0  0  0  0  0
    2.3041   -2.6575    0.0000 C    0  0  0  0  0  0  0  0  0  0  0  0
    1.1591   -0.6644    0.0000 C    0  0  0  0  0  0  0  0  0  0  0  0
    1.1591   -1.9931    0.0000 C    0  0  0  0  0  0  0  0  0  0  0  0
    4.6223    0.0000    0.0000 N    0  0  0  0  0  0  0  0  0  0  0  0
    5.7673   -0.6644    0.0000 C    0  0  0  0  0  0  0  0  0  0  0  0
    4.6223   -2.6575    0.0000 C    0  0  0  0  0  0  0  0  0  0  0  0
    5.7673   -1.9931    0.0000 N    0  0  0  0  0  0  0  0  0  0  0  0
    0.0000    0.0000    0.0000 Br   0  0  0  0  0  0  0  0  0  0  0  0
    0.0000   -2.6575    0.0000 Cl   0  0  0  0  0  0  0  0  0  0  0  0
    4.6223   -3.9862    0.0000 O    0  0  0  0  0  0  0  0  0  0  0  0
    6.9264   -2.6575    0.0000 C    0  0  0  0  0  0  0  0  0  0  0  0
    8.0572   -1.9931    0.0000 C    0  0  0  0  0  0  0  0  0  0  0  0
    9.2163   -2.6575    0.0000 C    0  0  0  0  0  0  0  0  0  0  0  0
    8.0572   -0.6644    0.0000 O    0  0  0  0  0  0  0  0  0  0  0  0
   10.3754   -1.9931    0.0000 C    0  0  0  0  0  0  0  0  0  0  0  0
   10.3754   -0.6644    0.0000 N    0  0  0  0  0  0  0  0  0  0  0  0
   11.5204   -2.6575    0.0000 C    0  0  0  0  0  0  0  0  0  0  0  0
   11.5204    0.0000    0.0000 C    0  0  0  0  0  0  0  0  0  0  0  0
   12.6795   -1.9931    0.0000 C    0  0  0  0  0  0  0  0  0  0  0  0
   12.6795   -0.6644    0.0000 C    0  0  0  0  0  0  0  0  0  0  0  0
   11.5204   -3.9862    0.0000 O    0  0  0  0  0  0  0  0  0  0  0  0
   14.1354   -2.4737    0.0000 Cl   0  0  0  0  0  0  0  0  0  0  0  0
  1  3  2  0  0  0  0
  1  7  1  0  0  0  0
  1  2  1  0  0  0  0
  2  4  2  0  0  0  0
  2  9  1  0  0  0  0
  3  5  1  0  0  0  0
  4  6  1  0  0  0  0
  5  6  2  0  0  0  0
  5 11  1  0  0  0  0
  6 12  1  0  0  0  0
  7  8  2  0  0  0  0
  8 10  1  0  0  0  0
  9 10  1  0  0  0  0
  9 13  2  0  0  0  0
 10 14  1  0  0  0  0
 14 15  1  0  0  0  0
 15 16  1  0  0  0  0
 15 17  2  0  0  0  0
 18 16  1  6  0  0  0
 18 19  1  0  0  0  0
 18 20  1  0  0  0  0
 19 21  1  0  0  0  0
 20 22  1  0  0  0  0
 20 24  1  1  0  0  0
 21 23  1  0  0  0  0
 22 23  1  0  0  0  0
M  END
> <ID>
12033

> <Formula>
C16H18BrCl2N3O3

> <FW>
451.1424 (414.6815+36.4609)

> <DSSTox_CID>
26863

> <DSSTox_RID>
81970

> <DSSTox_GSID>
46863

> <DSSTox_FileID_Sort>
6651

> <TS_ChemName>
Halofuginone hydrochloride

> <TS_ChemName_Synonyms>


> <TS_CASRN>
1217623-74-9

> <CASRN_ChemName_Relationship>
primary

> <TS_Description>
single chemical compound

> <ChemNote>
stereochem; parent [64924-67-0]

> <STRUCTURE_Shown>
tested chemical

> <STRUCTURE_Formula>
C16H18BrCl2N3O3

> <STRUCTURE_MW>
451.1424

> <STRUCTURE_ChemType>
defined organic

> <STRUCTURE_DefinedOrganicForm>
complex

> <STRUCTURE_IUPAC>
7-bromo-6-chloro-3-{3-[(2S,3R)-3-hydroxypiperidin-2-yl]-2-oxopropyl}quinazolin-4(3H)-one hydrochloride (1:1)

> <STRUCTURE_SMILES>
Cl.O[C@@H]3CCCN[C@H]3CC(=O)CN2C=Nc1cc(Br)c(Cl)cc1C2=O

> <STRUCTURE_SMILES_Desalt>
O[C@@H]3CCCN[C@H]3CC(=O)CN2C=Nc1cc(Br)c(Cl)cc1C2=O

> <Substance_modify_yyyymmdd>
20110728

$$$$
