12192-57-3
ChemmineR-0915142007XD

 13 13  0  0  1  0  0  0  0  0  1 V2000
    1.9983    0.0000    0.0000 O    0  0  0  0  0  0  0  0  0  0  0  0
    1.3282   -1.1547    0.0000 C    0  0  0  0  0  0  0  0  0  0  0  0
    1.9983   -2.3035    0.0000 C    0  0  0  0  0  0  0  0  0  0  0  0
    3.3266   -2.3035    0.0000 O    0  0  0  0  0  0  0  0  0  0  0  0
    3.9847   -3.4582    0.0000 C    0  0  0  0  0  0  0  0  0  0  0  0
    5.3129   -3.4582    0.0000 S    0  0  0  0  0  0  0  0  0  0  0  0
    5.9830   -4.6069    0.0000 Au   0  0  0  0  0  0  0  0  0  0  0  0
    3.3266   -4.6069    0.0000 C    0  0  0  0  0  0  0  0  0  0  0  0
    3.9847   -5.7617    0.0000 O    0  0  0  0  0  0  0  0  0  0  0  0
    1.9983   -4.6069    0.0000 C    0  0  0  0  0  0  0  0  0  0  0  0
    1.3282   -5.7617    0.0000 O    0  0  0  0  0  0  0  0  0  0  0  0
    1.3282   -3.4582    0.0000 C    0  0  0  0  0  0  0  0  0  0  0  0
    0.0000   -3.4582    0.0000 O    0  0  0  0  0  0  0  0  0  0  0  0
  1  2  1  0  0  0  0
  3  2  1  1  0  0  0
  3  4  1  0  0  0  0
  3 12  1  0  0  0  0
  4  5  1  0  0  0  0
  5  6  1  0  0  0  0
  5  8  1  0  0  0  0
  6  7  1  0  0  0  0
  8  9  1  6  0  0  0
  8 10  1  0  0  0  0
 10 11  1  1  0  0  0
 10 12  1  0  0  0  0
 12 13  1  6  0  0  0
M  END
> <ID>
11357

> <Formula>
C6H11AuO5S

> <FW>
392.1801

> <DSSTox_CID>
26013

> <DSSTox_RID>
81289

> <DSSTox_GSID>
46013

> <DSSTox_FileID_Sort>
5970

> <TS_ChemName>
Aurothioglucose

> <TS_ChemName_Synonyms>


> <TS_CASRN>
12192-57-3

> <CASRN_ChemName_Relationship>
primary

> <TS_Description>
single chemical compound

> <ChemNote>
stereochem

> <STRUCTURE_Shown>
tested chemical

> <STRUCTURE_Formula>
C6H11AuO5S

> <STRUCTURE_MW>
392.1801

> <STRUCTURE_ChemType>
organometallic

> <STRUCTURE_DefinedOrganicForm>


> <STRUCTURE_IUPAC>
gold(1+) (3R,4S,5S,6R)-3,4,5-trihydroxy-6-(hydroxymethyl)tetrahydro-2H-pyran-2-thiolate

> <STRUCTURE_SMILES>
O[C@@H]1[C@@H](O)[C@H](O)[C@@H](CO)OC1S[Au]

> <STRUCTURE_SMILES_Desalt>
O[C@@H]1[C@@H](O)[C@H](O)[C@@H](CO)OC1S[Au]

> <Substance_modify_yyyymmdd>
20110824

$$$$
