1219-38-1
ChemmineR-0915142007XD

 18 18  0  0  0  0  0  0  0  0  1 V2000
    4.6216   -1.3355    0.0000 C   0  0  0  0  0  0  0  0  0  0  0  0
    3.4812   -2.0107    0.0000 C   0  0  0  0  0  0  0  0  0  0  0  0
    4.6216    0.0000    0.0000 O   0  0  0  0  0  0  0  0  0  0  0  0
    3.4812   -3.3162    0.0000 C   0  0  0  0  0  0  0  0  0  0  0  0
    2.3258   -1.3505    0.0000 C   0  0  0  0  0  0  0  0  0  0  0  0
    5.7620   -1.9957    0.0000 O   0  0  0  0  0  0  0  0  0  0  0  0
    1.1704   -3.3162    0.0000 C   0  0  0  0  0  0  0  0  0  0  0  0
    2.3108   -3.9764    0.0000 C   0  0  0  0  0  0  0  0  0  0  0  0
    1.1704   -2.0107    0.0000 C   0  0  0  0  0  0  0  0  0  0  0  0
    0.0000   -3.9914    0.0000 O   0  0  0  0  0  0  0  0  0  0  0  0
    6.9174   -1.3355    0.0000 C   0  0  0  0  0  0  0  0  0  0  0  0
    8.0728   -1.9957    0.0000 C   0  0  0  0  0  0  0  0  0  0  0  0
    9.2282   -1.3355    0.0000 C   0  0  0  0  0  0  0  0  0  0  0  0
   10.3686   -2.0107    0.0000 C   0  0  0  0  0  0  0  0  0  0  0  0
   11.5540   -1.3505    0.0000 C   0  0  0  0  0  0  0  0  0  0  0  0
   12.6944   -2.0407    0.0000 C   0  0  0  0  0  0  0  0  0  0  0  0
   13.8498   -1.3805    0.0000 C   0  0  0  0  0  0  0  0  0  0  0  0
   15.0052   -2.0557    0.0000 C   0  0  0  0  0  0  0  0  0  0  0  0
  1  2  1  0  0  0  0
  1  3  2  0  0  0  0
  1  6  1  0  0  0  0
  2  4  1  0  0  0  0
  2  5  2  0  0  0  0
  4  8  2  0  0  0  0
  5  9  1  0  0  0  0
  6 11  1  0  0  0  0
  7  9  2  0  0  0  0
  7 10  1  0  0  0  0
  7  8  1  0  0  0  0
 11 12  1  0  0  0  0
 12 13  1  0  0  0  0
 13 14  1  0  0  0  0
 14 15  1  0  0  0  0
 15 16  1  0  0  0  0
 16 17  1  0  0  0  0
 17 18  1  0  0  0  0
M  END
> <ID>
13032

> <Formula>
C15H22O3

> <FW>
250.3334

> <DSSTox_CID>
27933

> <DSSTox_RID>
82686

> <DSSTox_GSID>
47957

> <DSSTox_FileID_Sort>
7363

> <TS_ChemName>
Octylparaben

> <TS_ChemName_Synonyms>


> <TS_CASRN>
1219-38-1

> <CASRN_ChemName_Relationship>
primary

> <TS_Description>
single chemical compound

> <ChemNote>


> <STRUCTURE_Shown>
tested chemical

> <STRUCTURE_Formula>
C15H22O3

> <STRUCTURE_MW>
250.3334

> <STRUCTURE_ChemType>
defined organic

> <STRUCTURE_DefinedOrganicForm>
parent

> <STRUCTURE_IUPAC>
octyl 4-hydroxybenzoate

> <STRUCTURE_SMILES>
Oc1ccc(cc1)C(=O)OCCCCCCCC

> <STRUCTURE_SMILES_Desalt>
Oc1ccc(cc1)C(=O)OCCCCCCCC

> <Substance_modify_yyyymmdd>
20110418

$$$$
