121961-22-6
ChemmineR-0915142007XD

 27 28  0  0  1  0  0  0  0  0  1 V2000
    8.3008   -3.3345    0.0000 N    0  0  0  0  0  0  0  0  0  0  0  0
    8.3008   -2.0811    0.0000 C    0  0  0  0  0  0  0  0  0  0  0  0
    6.9291   -3.3345    0.0000 C    0  0  0  0  0  0  0  0  0  0  0  0
    9.5305   -3.9848    0.0000 C    0  0  0  0  0  0  0  0  0  0  0  0
    6.9291   -2.0811    0.0000 C    0  0  0  0  0  0  0  0  0  0  0  0
    9.4832   -1.4071    0.0000 C    0  0  0  0  0  0  0  0  0  0  0  0
    6.0541   -4.3041    0.0000 O    0  0  0  0  0  0  0  0  0  0  0  0
   10.6183   -3.3345    0.0000 C    0  0  0  0  0  0  0  0  0  0  0  0
    9.5305   -5.2146    0.0000 C    0  0  0  0  0  0  0  0  0  0  0  0
    5.7940   -1.3835    0.0000 N    0  0  0  0  0  0  0  0  0  0  0  0
   10.6183   -2.0338    0.0000 C    0  0  0  0  0  0  0  0  0  0  0  0
   11.8244   -4.0440    0.0000 Cl   0  0  0  0  0  0  0  0  0  0  0  0
    8.4190   -6.0541    0.0000 O    0  0  0  0  0  0  0  0  0  0  0  0
   10.6656   -6.0541    0.0000 O    0  0  0  0  0  0  0  0  0  0  0  0
    4.6707   -2.0102    0.0000 C    0  0  0  0  0  0  0  0  0  0  0  0
    3.5237   -1.3835    0.0000 C    0  0  0  0  0  0  0  0  0  0  0  0
    4.6707   -3.3227    0.0000 O    0  0  0  0  0  0  0  0  0  0  0  0
    2.3412   -2.0338    0.0000 C    0  0  0  0  0  0  0  0  0  0  0  0
    3.5237    0.0000    0.0000 N    0  0  0  0  0  0  0  0  0  0  0  0
    1.1588   -1.3835    0.0000 C    0  0  0  0  0  0  0  0  0  0  0  0
    2.3412   -3.3700    0.0000 C    0  0  0  0  0  0  0  0  0  0  0  0
    0.0000   -2.0338    0.0000 C    0  0  0  0  0  0  0  0  0  0  0  0
    1.1943   -4.0085    0.0000 C    0  0  0  0  0  0  0  0  0  0  0  0
    0.0000   -3.4054    0.0000 C    0  0  0  0  0  0  0  0  0  0  0  0
    8.3008   -0.7568    0.0000 H    0  0  0  0  0  0  0  0  0  0  0  0
    6.9055   -0.7804    0.0000 H    0  0  0  0  0  0  0  0  0  0  0  0
    4.2450   -6.0541    0.0000 O    0  0  0  0  0  0  0  0  0  0  0  0
  1  2  1  0  0  0  0
  1  3  1  0  0  0  0
  1  4  1  0  0  0  0
  2  5  1  0  0  0  0
  2  6  1  0  0  0  0
  2 25  1  6  0  0  0
  3  7  2  0  0  0  0
  3  5  1  0  0  0  0
  4  8  2  0  0  0  0
  4  9  1  0  0  0  0
  5 10  1  1  0  0  0
  5 26  1  6  0  0  0
  6 11  1  0  0  0  0
  8 12  1  0  0  0  0
  8 11  1  0  0  0  0
  9 13  1  0  0  0  0
  9 14  2  0  0  0  0
 10 15  1  0  0  0  0
 15 16  1  0  0  0  0
 15 17  2  0  0  0  0
 16 18  1  0  0  0  0
 16 19  1  1  0  0  0
 18 20  2  0  0  0  0
 18 21  1  0  0  0  0
 20 22  1  0  0  0  0
 21 23  2  0  0  0  0
 22 24  2  0  0  0  0
 23 24  1  0  0  0  0
M  END
> <ID>
13710

> <Formula>
C16H18ClN3O5

> <FW>
367.7842 (349.7689+18.0153)

> <DSSTox_CID>
28644

> <DSSTox_RID>
82914

> <DSSTox_GSID>
48718

> <DSSTox_FileID_Sort>
7591

> <TS_ChemName>
Loracarbef hydrate

> <TS_ChemName_Synonyms>
Loracarbef

> <TS_CASRN>
121961-22-6

> <CASRN_ChemName_Relationship>
primary

> <TS_Description>
single chemical compound

> <ChemNote>


> <STRUCTURE_Shown>
tested chemical

> <STRUCTURE_Formula>
C16H18ClN3O5

> <STRUCTURE_MW>
367.7842

> <STRUCTURE_ChemType>
defined organic

> <STRUCTURE_DefinedOrganicForm>
complex

> <STRUCTURE_IUPAC>
(6R,7S)-7-{[(2R)-2-amino-2-phenylacetyl]amino}-3-chloro-8-oxo-1-azabicyclo[4.2.0]oct-2-ene-2-carboxylic acid hydrate (1:1)

> <STRUCTURE_SMILES>
O.O=C(O)C1=C(Cl)CC[C@H]3N1C(=O)[C@H]3NC(=O)[C@H](N)c2ccccc2

> <STRUCTURE_SMILES_Desalt>
O=C(O)C1=C(Cl)CC[C@H]3N1C(=O)[C@H]3NC(=O)[C@H](N)c2ccccc2

> <Substance_modify_yyyymmdd>
20111204

$$$$
