122-14-5
ChemmineR-0915142007XD

 17 17  0  0  0  0  0  0  0  0  2 V2000
    7.5809   -4.4675    0.0000 S   0  0  0  0  0  0  0  0  0  0  0  0
    6.9085   -3.3161    0.0000 P   0  0  0  0  0  0  0  0  0  0  0  0
    5.7479   -3.9885    0.0000 O   0  0  0  0  0  0  0  0  0  0  0  0
    4.6149   -3.3161    0.0000 C   0  0  0  0  0  0  0  0  0  0  0  0
    3.4635   -3.9885    0.0000 C   0  0  0  0  0  0  0  0  0  0  0  0
    2.3028   -3.3161    0.0000 C   0  0  0  0  0  0  0  0  0  0  0  0
    2.3028   -1.9804    0.0000 C   0  0  0  0  0  0  0  0  0  0  0  0
    3.4635   -1.3264    0.0000 C   0  0  0  0  0  0  0  0  0  0  0  0
    4.6149   -1.9804    0.0000 C   0  0  0  0  0  0  0  0  0  0  0  0
    1.1514   -1.3264    0.0000 N   0  3  0  0  0  0  0  0  0  0  0  0
    1.1514    0.0000    0.0000 O   0  0  0  0  0  0  0  0  0  0  0  0
    0.0000   -1.9804    0.0000 O   0  5  0  0  0  0  0  0  0  0  0  0
    1.1514   -3.9885    0.0000 C   0  0  0  0  0  0  0  0  0  0  0  0
    6.2453   -2.1647    0.0000 O   0  0  0  0  0  0  0  0  0  0  0  0
    6.9085   -1.0225    0.0000 C   0  0  0  0  0  0  0  0  0  0  0  0
    8.0599   -2.6529    0.0000 O   0  0  0  0  0  0  0  0  0  0  0  0
    9.2114   -3.3161    0.0000 C   0  0  0  0  0  0  0  0  0  0  0  0
  1  2  2  0  0  0  0
  2  3  1  0  0  0  0
  2 14  1  0  0  0  0
  2 16  1  0  0  0  0
  3  4  1  0  0  0  0
  4  5  1  0  0  0  0
  4  9  2  0  0  0  0
  5  6  2  0  0  0  0
  6  7  1  0  0  0  0
  6 13  1  0  0  0  0
  7  8  2  0  0  0  0
  7 10  1  0  0  0  0
  8  9  1  0  0  0  0
 10 11  2  0  0  0  0
 10 12  1  0  0  0  0
 14 15  1  0  0  0  0
 16 17  1  0  0  0  0
M  END
> <ID>
6541

> <Formula>
C9H12NO5PS

> <FW>
277.234

> <DSSTox_CID>
12613

> <DSSTox_RID>
79004

> <DSSTox_GSID>
32613

> <DSSTox_FileID_Sort>
3686

> <TS_ChemName>
Fenitrothion

> <TS_ChemName_Synonyms>


> <TS_CASRN>
122-14-5

> <CASRN_ChemName_Relationship>
primary

> <TS_Description>
single chemical compound

> <ChemNote>


> <STRUCTURE_Shown>
tested chemical

> <STRUCTURE_Formula>
C9H12NO5PS

> <STRUCTURE_MW>
277.234

> <STRUCTURE_ChemType>
defined organic

> <STRUCTURE_DefinedOrganicForm>
parent

> <STRUCTURE_IUPAC>
O,O-dimethyl O-(3-methyl-4-nitrophenyl) phosphorothioate

> <STRUCTURE_SMILES>
S=P(Oc1cc(C)c(cc1)[N+]([O-])=O)(OC)OC

> <STRUCTURE_SMILES_Desalt>
S=P(Oc1cc(C)c(cc1)[N+]([O-])=O)(OC)OC

> <Substance_modify_yyyymmdd>
20080429

$$$$
