122-97-4
ChemmineR-0915142007XD

 10 10  0  0  0  0  0  0  0  0  1 V2000
    2.3137   -1.9891    0.0000 C   0  0  0  0  0  0  0  0  0  0  0  0
    2.3137   -0.6769    0.0000 C   0  0  0  0  0  0  0  0  0  0  0  0
    1.1534    0.0000    0.0000 C   0  0  0  0  0  0  0  0  0  0  0  0
    0.0000   -0.6561    0.0000 C   0  0  0  0  0  0  0  0  0  0  0  0
    0.0000   -1.9891    0.0000 C   0  0  0  0  0  0  0  0  0  0  0  0
    1.1534   -2.6522    0.0000 C   0  0  0  0  0  0  0  0  0  0  0  0
    5.7533   -2.6660    0.0000 C   0  0  0  0  0  0  0  0  0  0  0  0
    4.5930   -1.9891    0.0000 C   0  0  0  0  0  0  0  0  0  0  0  0
    3.4672   -2.6522    0.0000 C   0  0  0  0  0  0  0  0  0  0  0  0
    6.9067   -1.9891    0.0000 O   0  0  0  0  0  0  0  0  0  0  0  0
  1  2  2  0  0  0  0
  1  6  1  0  0  0  0
  1  9  1  0  0  0  0
  2  3  1  0  0  0  0
  3  4  2  0  0  0  0
  4  5  1  0  0  0  0
  5  6  2  0  0  0  0
  7  8  1  0  0  0  0
  7 10  1  0  0  0  0
  8  9  1  0  0  0  0
M  END
> <ID>
8598

> <Formula>
C9H12O

> <FW>
136.191

> <DSSTox_CID>
21638

> <DSSTox_RID>
79798

> <DSSTox_GSID>
41638

> <DSSTox_FileID_Sort>
4480

> <TS_ChemName>
3-Phenyl-1-propanol

> <TS_ChemName_Synonyms>
3-Phenyl-1-propanol (Benzenepropanol)

> <TS_CASRN>
122-97-4

> <CASRN_ChemName_Relationship>
primary

> <TS_Description>
single chemical compound

> <ChemNote>


> <STRUCTURE_Shown>
tested chemical

> <STRUCTURE_Formula>
C9H12O

> <STRUCTURE_MW>
136.191

> <STRUCTURE_ChemType>
defined organic

> <STRUCTURE_DefinedOrganicForm>
parent

> <STRUCTURE_IUPAC>
3-phenylpropan-1-ol

> <STRUCTURE_SMILES>
OCCCc1ccccc1

> <STRUCTURE_SMILES_Desalt>
OCCCc1ccccc1

> <Substance_modify_yyyymmdd>
20080825

$$$$
