122-69-0
ChemmineR-0915142007XD

 20 21  0  0  0  0  0  0  0  0  1 V2000
    5.7605   -1.3123    0.0000 C   0  0  0  0  0  0  0  0  0  0  0  0
    5.7605    0.0000    0.0000 O   0  0  0  0  0  0  0  0  0  0  0  0
    4.6001   -1.9892    0.0000 C   0  0  0  0  0  0  0  0  0  0  0  0
    3.4536   -1.3123    0.0000 C   0  0  0  0  0  0  0  0  0  0  0  0
    6.8933   -1.9892    0.0000 O   0  0  0  0  0  0  0  0  0  0  0  0
    1.1604   -3.9785    0.0000 C   0  0  0  0  0  0  0  0  0  0  0  0
    0.0000   -3.3154    0.0000 C   0  0  0  0  0  0  0  0  0  0  0  0
    0.0000   -1.9892    0.0000 C   0  0  0  0  0  0  0  0  0  0  0  0
    1.1604   -1.3123    0.0000 C   0  0  0  0  0  0  0  0  0  0  0  0
    2.2932   -1.9892    0.0000 C   0  0  0  0  0  0  0  0  0  0  0  0
    2.3070   -3.3154    0.0000 C   0  0  0  0  0  0  0  0  0  0  0  0
    8.0537   -1.3262    0.0000 C   0  0  0  0  0  0  0  0  0  0  0  0
    9.2141   -1.9754    0.0000 C   0  0  0  0  0  0  0  0  0  0  0  0
   10.3468   -1.3123    0.0000 C   0  0  0  0  0  0  0  0  0  0  0  0
   13.8142   -1.9754    0.0000 C   0  0  0  0  0  0  0  0  0  0  0  0
   13.8142   -3.3016    0.0000 C   0  0  0  0  0  0  0  0  0  0  0  0
   12.6538   -3.9785    0.0000 C   0  0  0  0  0  0  0  0  0  0  0  0
   11.5072   -3.3016    0.0000 C   0  0  0  0  0  0  0  0  0  0  0  0
   11.5072   -1.9754    0.0000 C   0  0  0  0  0  0  0  0  0  0  0  0
   12.6538   -1.3123    0.0000 C   0  0  0  0  0  0  0  0  0  0  0  0
  1  2  2  0  0  0  0
  1  3  1  0  0  0  0
  1  5  1  0  0  0  0
  3  4  2  3  0  0  0
  4 10  1  0  0  0  0
  5 12  1  0  0  0  0
  6 11  2  0  0  0  0
  6  7  1  0  0  0  0
  7  8  2  0  0  0  0
  8  9  1  0  0  0  0
  9 10  2  0  0  0  0
 10 11  1  0  0  0  0
 12 13  1  0  0  0  0
 13 14  2  3  0  0  0
 14 19  1  0  0  0  0
 15 20  2  0  0  0  0
 15 16  1  0  0  0  0
 16 17  2  0  0  0  0
 17 18  1  0  0  0  0
 18 19  2  0  0  0  0
 19 20  1  0  0  0  0
M  END
> <ID>
12768

> <Formula>
C18H16O2

> <FW>
264.3184

> <DSSTox_CID>
27647

> <DSSTox_RID>
82474

> <DSSTox_GSID>
47647

> <DSSTox_FileID_Sort>
7155

> <TS_ChemName>
3-Phenyl-2-propen-1-yl 3-phenylacrylate

> <TS_ChemName_Synonyms>
3-Phenyl-2-propen-1-yl 3-phenylacrylate (Cinnamyl cinnamate)

> <TS_CASRN>
122-69-0

> <CASRN_ChemName_Relationship>
primary

> <TS_Description>
mixture of Z,E isomers

> <ChemNote>
mixture of Z,E isomers

> <STRUCTURE_Shown>
representative isomer in mixture

> <STRUCTURE_Formula>
C18H16O2

> <STRUCTURE_MW>
264.3184

> <STRUCTURE_ChemType>
defined organic

> <STRUCTURE_DefinedOrganicForm>
parent

> <STRUCTURE_IUPAC>
3-phenylprop-2-en-1-yl 3-phenylprop-2-enoate

> <STRUCTURE_SMILES>
O=C(C=Cc1ccccc1)OCC=Cc2ccccc2

> <STRUCTURE_SMILES_Desalt>
O=C(C=Cc1ccccc1)OCC=Cc2ccccc2

> <Substance_modify_yyyymmdd>
20101214

$$$$
