122-48-5
ChemmineR-0915142007XD

 14 14  0  0  0  0  0  0  0  0  1 V2000
    1.1529   -1.9914    0.0000 C   0  0  0  0  0  0  0  0  0  0  0  0
    1.1529   -3.3218    0.0000 C   0  0  0  0  0  0  0  0  0  0  0  0
    2.3139   -1.3303    0.0000 C   0  0  0  0  0  0  0  0  0  0  0  0
    6.9257    0.0000    0.0000 O   0  0  0  0  0  0  0  0  0  0  0  0
    2.3139   -3.9829    0.0000 C   0  0  0  0  0  0  0  0  0  0  0  0
    6.9257   -1.3303    0.0000 C   0  0  0  0  0  0  0  0  0  0  0  0
    3.4669   -1.9914    0.0000 C   0  0  0  0  0  0  0  0  0  0  0  0
    3.4669   -3.3218    0.0000 C   0  0  0  0  0  0  0  0  0  0  0  0
    0.0000   -1.3303    0.0000 O   0  0  0  0  0  0  0  0  0  0  0  0
    5.7647   -1.9914    0.0000 C   0  0  0  0  0  0  0  0  0  0  0  0
    0.0000   -3.9990    0.0000 O   0  0  0  0  0  0  0  0  0  0  0  0
    4.6118   -1.3303    0.0000 C   0  0  0  0  0  0  0  0  0  0  0  0
    8.0625   -1.9914    0.0000 C   0  0  0  0  0  0  0  0  0  0  0  0
    0.0161    0.0000    0.0000 C   0  0  0  0  0  0  0  0  0  0  0  0
  1  2  1  0  0  0  0
  1  3  2  0  0  0  0
  1  9  1  0  0  0  0
  2  5  2  0  0  0  0
  2 11  1  0  0  0  0
  3  7  1  0  0  0  0
  4  6  2  0  0  0  0
  5  8  1  0  0  0  0
  6 10  1  0  0  0  0
  6 13  1  0  0  0  0
  7  8  2  0  0  0  0
  7 12  1  0  0  0  0
  9 14  1  0  0  0  0
 10 12  1  0  0  0  0
M  END
> <ID>
12562

> <Formula>
C11H14O3

> <FW>
194.2271

> <DSSTox_CID>
27420

> <DSSTox_RID>
82334

> <DSSTox_GSID>
47420

> <DSSTox_FileID_Sort>
7015

> <TS_ChemName>
4-(4-Hydroxy-3-methoxyphenyl)-2-butanone

> <TS_ChemName_Synonyms>
4-(4-Hydroxy-3-methoxyphenyl)-2-butanone (Zingerone)

> <TS_CASRN>
122-48-5

> <CASRN_ChemName_Relationship>
primary

> <TS_Description>
single chemical compound

> <ChemNote>


> <STRUCTURE_Shown>
tested chemical

> <STRUCTURE_Formula>
C11H14O3

> <STRUCTURE_MW>
194.2271

> <STRUCTURE_ChemType>
defined organic

> <STRUCTURE_DefinedOrganicForm>
parent

> <STRUCTURE_IUPAC>
4-(4-hydroxy-3-methoxyphenyl)butan-2-one

> <STRUCTURE_SMILES>
Oc1ccc(cc1OC)CCC(C)=O

> <STRUCTURE_SMILES_Desalt>
Oc1ccc(cc1OC)CCC(C)=O

> <Substance_modify_yyyymmdd>
20100619

$$$$
