122-68-9
ChemmineR-0915142007XD

 20 21  0  0  0  0  0  0  0  0  1 V2000
    5.7583   -1.3256    0.0000 C   0  0  0  0  0  0  0  0  0  0  0  0
    4.6122   -1.9885    0.0000 C   0  0  0  0  0  0  0  0  0  0  0  0
    3.4660   -1.3256    0.0000 C   0  0  0  0  0  0  0  0  0  0  0  0
    5.7583    0.0000    0.0000 O   0  0  0  0  0  0  0  0  0  0  0  0
    6.9182   -2.0161    0.0000 O   0  0  0  0  0  0  0  0  0  0  0  0
    1.1599   -3.9908    0.0000 C   0  0  0  0  0  0  0  0  0  0  0  0
    0.0000   -3.3141    0.0000 C   0  0  0  0  0  0  0  0  0  0  0  0
    0.0000   -1.9885    0.0000 C   0  0  0  0  0  0  0  0  0  0  0  0
    1.1599   -1.3256    0.0000 C   0  0  0  0  0  0  0  0  0  0  0  0
    2.2923   -1.9885    0.0000 C   0  0  0  0  0  0  0  0  0  0  0  0
    2.2923   -3.3141    0.0000 C   0  0  0  0  0  0  0  0  0  0  0  0
    8.0644   -1.3256    0.0000 C   0  0  0  0  0  0  0  0  0  0  0  0
    9.2105   -1.9885    0.0000 C   0  0  0  0  0  0  0  0  0  0  0  0
   10.3428   -1.3118    0.0000 C   0  0  0  0  0  0  0  0  0  0  0  0
   11.5166   -1.9885    0.0000 C   0  0  0  0  0  0  0  0  0  0  0  0
   11.5166   -3.3141    0.0000 C   0  0  0  0  0  0  0  0  0  0  0  0
   12.6489   -1.3118    0.0000 C   0  0  0  0  0  0  0  0  0  0  0  0
   12.6489   -3.9769    0.0000 C   0  0  0  0  0  0  0  0  0  0  0  0
   13.8089   -1.9885    0.0000 C   0  0  0  0  0  0  0  0  0  0  0  0
   13.8089   -3.3141    0.0000 C   0  0  0  0  0  0  0  0  0  0  0  0
  1  2  1  0  0  0  0
  1  5  1  0  0  0  0
  1  4  2  0  0  0  0
  2  3  2  3  0  0  0
  3 10  1  0  0  0  0
  5 12  1  0  0  0  0
  6 11  2  0  0  0  0
  6  7  1  0  0  0  0
  7  8  2  0  0  0  0
  8  9  1  0  0  0  0
  9 10  2  0  0  0  0
 10 11  1  0  0  0  0
 12 13  1  0  0  0  0
 13 14  1  0  0  0  0
 14 15  1  0  0  0  0
 15 16  1  0  0  0  0
 15 17  2  0  0  0  0
 16 18  2  0  0  0  0
 17 19  1  0  0  0  0
 18 20  1  0  0  0  0
 19 20  2  0  0  0  0
M  END
> <ID>
12553

> <Formula>
C18H18O2

> <FW>
266.3343

> <DSSTox_CID>
27411

> <DSSTox_RID>
82325

> <DSSTox_GSID>
47411

> <DSSTox_FileID_Sort>
7006

> <TS_ChemName>
3-Phenylpropyl cinnamate

> <TS_ChemName_Synonyms>


> <TS_CASRN>
122-68-9

> <CASRN_ChemName_Relationship>
primary

> <TS_Description>
mixture of Z,E isomers

> <ChemNote>
mixture of Z,E isomers

> <STRUCTURE_Shown>
representative isomer in mixture

> <STRUCTURE_Formula>
C18H18O2

> <STRUCTURE_MW>
266.3343

> <STRUCTURE_ChemType>
defined organic

> <STRUCTURE_DefinedOrganicForm>
parent

> <STRUCTURE_IUPAC>
3-phenylpropyl 3-phenylprop-2-enoate

> <STRUCTURE_SMILES>
O=C(C=Cc1ccccc1)OCCCc2ccccc2

> <STRUCTURE_SMILES_Desalt>
O=C(C=Cc1ccccc1)OCCCc2ccccc2

> <Substance_modify_yyyymmdd>
20100618

$$$$
