122-70-3
ChemmineR-0915142007XD

 13 13  0  0  0  0  0  0  0  0  1 V2000
    2.3059   -2.0107    0.0000 C   0  0  0  0  0  0  0  0  0  0  0  0
    2.3059   -0.6733    0.0000 O   0  0  0  0  0  0  0  0  0  0  0  0
    3.4496   -2.6656    0.0000 O   0  0  0  0  0  0  0  0  0  0  0  0
    1.1529   -2.6656    0.0000 C   0  0  0  0  0  0  0  0  0  0  0  0
    0.0000   -2.0107    0.0000 C   0  0  0  0  0  0  0  0  0  0  0  0
    4.6025   -2.0107    0.0000 C   0  0  0  0  0  0  0  0  0  0  0  0
    5.7554   -2.6656    0.0000 C   0  0  0  0  0  0  0  0  0  0  0  0
    6.9176   -2.0107    0.0000 C   0  0  0  0  0  0  0  0  0  0  0  0
    6.9176   -0.6733    0.0000 C   0  0  0  0  0  0  0  0  0  0  0  0
    8.0705   -2.6656    0.0000 C   0  0  0  0  0  0  0  0  0  0  0  0
    8.0705    0.0000    0.0000 C   0  0  0  0  0  0  0  0  0  0  0  0
    9.2235   -2.0107    0.0000 C   0  0  0  0  0  0  0  0  0  0  0  0
    9.2235   -0.6733    0.0000 C   0  0  0  0  0  0  0  0  0  0  0  0
  1  2  2  0  0  0  0
  1  3  1  0  0  0  0
  1  4  1  0  0  0  0
  3  6  1  0  0  0  0
  4  5  1  0  0  0  0
  6  7  1  0  0  0  0
  7  8  1  0  0  0  0
  8  9  2  0  0  0  0
  8 10  1  0  0  0  0
  9 11  1  0  0  0  0
 10 12  2  0  0  0  0
 11 13  2  0  0  0  0
 12 13  1  0  0  0  0
M  END
> <ID>
6996

> <Formula>
C11H14O2

> <FW>
178.2277

> <DSSTox_CID>
15156

> <DSSTox_RID>
79241

> <DSSTox_GSID>
35156

> <DSSTox_FileID_Sort>
3923

> <TS_ChemName>
2-Phenylethyl propionate

> <TS_ChemName_Synonyms>


> <TS_CASRN>
122-70-3

> <CASRN_ChemName_Relationship>
primary

> <TS_Description>
single chemical compound

> <ChemNote>


> <STRUCTURE_Shown>
tested chemical

> <STRUCTURE_Formula>
C11H14O2

> <STRUCTURE_MW>
178.2277

> <STRUCTURE_ChemType>
defined organic

> <STRUCTURE_DefinedOrganicForm>
parent

> <STRUCTURE_IUPAC>
2-phenylethyl propanoate

> <STRUCTURE_SMILES>
CCC(=O)OCCc1ccccc1

> <STRUCTURE_SMILES_Desalt>
CCC(=O)OCCc1ccccc1

> <Substance_modify_yyyymmdd>
20080429

$$$$
