122-63-4
ChemmineR-0915142007XD

 12 12  0  0  0  0  0  0  0  0  1 V2000
    5.7539   -1.3154    0.0000 C   0  0  0  0  0  0  0  0  0  0  0  0
    6.9159   -1.9771    0.0000 C   0  0  0  0  0  0  0  0  0  0  0  0
    8.0699   -1.2831    0.0000 C   0  0  0  0  0  0  0  0  0  0  0  0
    5.7539    0.0000    0.0000 O   0  0  0  0  0  0  0  0  0  0  0  0
    4.5999   -1.9933    0.0000 O   0  0  0  0  0  0  0  0  0  0  0  0
    3.4539   -1.3638    0.0000 C   0  0  0  0  0  0  0  0  0  0  0  0
    1.1701   -4.0350    0.0000 C   0  0  0  0  0  0  0  0  0  0  0  0
    0.0161   -3.3894    0.0000 C   0  0  0  0  0  0  0  0  0  0  0  0
    0.0000   -2.0578    0.0000 C   0  0  0  0  0  0  0  0  0  0  0  0
    1.1540   -1.3800    0.0000 C   0  0  0  0  0  0  0  0  0  0  0  0
    2.3161   -2.0417    0.0000 C   0  0  0  0  0  0  0  0  0  0  0  0
    2.3322   -3.3571    0.0000 C   0  0  0  0  0  0  0  0  0  0  0  0
  1  2  1  0  0  0  0
  1  5  1  0  0  0  0
  1  4  2  0  0  0  0
  2  3  1  0  0  0  0
  5  6  1  0  0  0  0
  6 11  1  0  0  0  0
  7 12  2  0  0  0  0
  7  8  1  0  0  0  0
  8  9  2  0  0  0  0
  9 10  1  0  0  0  0
 10 11  2  0  0  0  0
 11 12  1  0  0  0  0
M  END
> <ID>
10441

> <Formula>
C10H12O2

> <FW>
164.2011

> <DSSTox_CID>
24791

> <DSSTox_RID>
80479

> <DSSTox_GSID>
44791

> <DSSTox_FileID_Sort>
5161

> <TS_ChemName>
Benzyl propanoate

> <TS_ChemName_Synonyms>
Benzyl propanoate (Propanoic acid, phenylmethyl ester)

> <TS_CASRN>
122-63-4

> <CASRN_ChemName_Relationship>
primary

> <TS_Description>
single chemical compound

> <ChemNote>


> <STRUCTURE_Shown>
tested chemical

> <STRUCTURE_Formula>
C10H12O2

> <STRUCTURE_MW>
164.2011

> <STRUCTURE_ChemType>
defined organic

> <STRUCTURE_DefinedOrganicForm>
parent

> <STRUCTURE_IUPAC>
benzyl propanoate

> <STRUCTURE_SMILES>
CCC(=O)OCc1ccccc1

> <STRUCTURE_SMILES_Desalt>
CCC(=O)OCc1ccccc1

> <Substance_modify_yyyymmdd>
20091116

$$$$
