122-91-8
ChemmineR-0915142007XD

 12 12  0  0  0  0  0  0  0  0  1 V2000
    8.0644    0.0000    0.0000 C   0  0  0  0  0  0  0  0  0  0  0  0
    9.2165   -0.6636    0.0000 O   0  0  0  0  0  0  0  0  0  0  0  0
    6.9124   -0.6636    0.0000 O   0  0  0  0  0  0  0  0  0  0  0  0
    5.7511    0.0000    0.0000 C   0  0  0  0  0  0  0  0  0  0  0  0
    4.5990   -0.6636    0.0000 C   0  0  0  0  0  0  0  0  0  0  0  0
    4.5990   -1.9908    0.0000 C   0  0  0  0  0  0  0  0  0  0  0  0
    3.4470    0.0000    0.0000 C   0  0  0  0  0  0  0  0  0  0  0  0
    3.4470   -2.6636    0.0000 C   0  0  0  0  0  0  0  0  0  0  0  0
    2.3041   -0.6636    0.0000 C   0  0  0  0  0  0  0  0  0  0  0  0
    2.3041   -1.9908    0.0000 C   0  0  0  0  0  0  0  0  0  0  0  0
    1.1521   -2.6636    0.0000 O   0  0  0  0  0  0  0  0  0  0  0  0
    0.0000   -1.9908    0.0000 C   0  0  0  0  0  0  0  0  0  0  0  0
  1  2  2  0  0  0  0
  1  3  1  0  0  0  0
  3  4  1  0  0  0  0
  4  5  1  0  0  0  0
  5  6  2  0  0  0  0
  5  7  1  0  0  0  0
  6  8  1  0  0  0  0
  7  9  2  0  0  0  0
  8 10  2  0  0  0  0
  9 10  1  0  0  0  0
 10 11  1  0  0  0  0
 11 12  1  0  0  0  0
M  END
> <ID>
12770

> <Formula>
C9H10O3

> <FW>
166.1739

> <DSSTox_CID>
27649

> <DSSTox_RID>
82476

> <DSSTox_GSID>
47649

> <DSSTox_FileID_Sort>
7157

> <TS_ChemName>
4-Methoxybenzyl formate

> <TS_ChemName_Synonyms>
4-Methoxybenzyl formate (Anisyl formate)

> <TS_CASRN>
122-91-8

> <CASRN_ChemName_Relationship>
primary

> <TS_Description>
single chemical compound

> <ChemNote>


> <STRUCTURE_Shown>
tested chemical

> <STRUCTURE_Formula>
C9H10O3

> <STRUCTURE_MW>
166.1739

> <STRUCTURE_ChemType>
defined organic

> <STRUCTURE_DefinedOrganicForm>
parent

> <STRUCTURE_IUPAC>
4-methoxybenzyl formate

> <STRUCTURE_SMILES>
COc1ccc(COC=O)cc1

> <STRUCTURE_SMILES_Desalt>
COc1ccc(COC=O)cc1

> <Substance_modify_yyyymmdd>
20101214

$$$$
