122-04-3
ChemmineR-0915142007XD

 12 12  0  0  0  0  0  0  0  0  2 V2000
    0.0000   -2.3023    0.0000 O    0  0  0  0  0  0  0  0  0  0  0  0
    0.6654   -1.1511    0.0000 C    0  0  0  0  0  0  0  0  0  0  0  0
    1.9962   -1.1511    0.0000 C    0  0  0  0  0  0  0  0  0  0  0  0
    2.6616    0.0000    0.0000 C    0  0  0  0  0  0  0  0  0  0  0  0
    3.9924    0.0000    0.0000 C    0  0  0  0  0  0  0  0  0  0  0  0
    4.6578   -1.1511    0.0000 C    0  0  0  0  0  0  0  0  0  0  0  0
    5.9885   -1.1511    0.0000 N    0  3  0  0  0  0  0  0  0  0  0  0
    6.6539   -2.3023    0.0000 O    0  5  0  0  0  0  0  0  0  0  0  0
    6.6539    0.0000    0.0000 O    0  0  0  0  0  0  0  0  0  0  0  0
    3.9924   -2.3023    0.0000 C    0  0  0  0  0  0  0  0  0  0  0  0
    2.6616   -2.3023    0.0000 C    0  0  0  0  0  0  0  0  0  0  0  0
    0.0000    0.0000    0.0000 Cl   0  0  0  0  0  0  0  0  0  0  0  0
  1  2  2  0  0  0  0
  2  3  1  0  0  0  0
  2 12  1  0  0  0  0
  3  4  2  0  0  0  0
  3 11  1  0  0  0  0
  4  5  1  0  0  0  0
  5  6  2  0  0  0  0
  6  7  1  0  0  0  0
  6 10  1  0  0  0  0
  7  8  1  0  0  0  0
  7  9  2  0  0  0  0
 10 11  2  0  0  0  0
M  END
> <ID>
4378

> <Formula>
C7H4ClNO3

> <FW>
185.5646

> <DSSTox_CID>
5742

> <DSSTox_RID>
77903

> <DSSTox_GSID>
25742

> <DSSTox_FileID_Sort>
2586

> <TS_ChemName>
4-Nitrobenzoyl chloride

> <TS_ChemName_Synonyms>
4-Nitrobenzoyl chloride (p-Nitrobenzoyl chloride)

> <TS_CASRN>
122-04-3

> <CASRN_ChemName_Relationship>
primary

> <TS_Description>
single chemical compound

> <ChemNote>


> <STRUCTURE_Shown>
tested chemical

> <STRUCTURE_Formula>
C7H4ClNO3

> <STRUCTURE_MW>
185.5646

> <STRUCTURE_ChemType>
defined organic

> <STRUCTURE_DefinedOrganicForm>
parent

> <STRUCTURE_IUPAC>
4-nitrobenzoyl chloride

> <STRUCTURE_SMILES>
O=[N+]([O-])c1ccc(cc1)C(Cl)=O

> <STRUCTURE_SMILES_Desalt>
O=[N+]([O-])c1ccc(cc1)C(Cl)=O

> <Substance_modify_yyyymmdd>
20080429

$$$$
