122-03-2
ChemmineR-0915142007XD

 11 11  0  0  0  0  0  0  0  0  1 V2000
    4.6576   -1.1511    0.0000 C   0  0  0  0  0  0  0  0  0  0  0  0
    5.9884   -1.1511    0.0000 C   0  0  0  0  0  0  0  0  0  0  0  0
    6.6538    0.0000    0.0000 O   0  0  0  0  0  0  0  0  0  0  0  0
    3.9923   -2.3022    0.0000 C   0  0  0  0  0  0  0  0  0  0  0  0
    2.6615   -2.3022    0.0000 C   0  0  0  0  0  0  0  0  0  0  0  0
    1.9961   -1.1511    0.0000 C   0  0  0  0  0  0  0  0  0  0  0  0
    0.6654   -1.1511    0.0000 C   0  0  0  0  0  0  0  0  0  0  0  0
    0.0000   -2.3022    0.0000 C   0  0  0  0  0  0  0  0  0  0  0  0
    0.0000    0.0000    0.0000 C   0  0  0  0  0  0  0  0  0  0  0  0
    2.6615    0.0000    0.0000 C   0  0  0  0  0  0  0  0  0  0  0  0
    3.9923    0.0000    0.0000 C   0  0  0  0  0  0  0  0  0  0  0  0
  1  2  1  0  0  0  0
  1  4  2  0  0  0  0
  1 11  1  0  0  0  0
  2  3  2  0  0  0  0
  4  5  1  0  0  0  0
  5  6  2  0  0  0  0
  6  7  1  0  0  0  0
  6 10  1  0  0  0  0
  7  8  1  0  0  0  0
  7  9  1  0  0  0  0
 10 11  2  0  0  0  0
M  END
> <ID>
1832

> <Formula>
C10H12O

> <FW>
148.2017

> <DSSTox_CID>
1974

> <DSSTox_RID>
76435

> <DSSTox_GSID>
21974

> <DSSTox_FileID_Sort>
1119

> <TS_ChemName>
4-Isopropylbenzaldehyde

> <TS_ChemName_Synonyms>
4-Isopropylbenzaldehyde (Cuminaldehyde)

> <TS_CASRN>
122-03-2

> <CASRN_ChemName_Relationship>
primary

> <TS_Description>
single chemical compound

> <ChemNote>


> <STRUCTURE_Shown>
tested chemical

> <STRUCTURE_Formula>
C10H12O

> <STRUCTURE_MW>
148.2017

> <STRUCTURE_ChemType>
defined organic

> <STRUCTURE_DefinedOrganicForm>
parent

> <STRUCTURE_IUPAC>
4-(propan-2-yl)benzaldehyde

> <STRUCTURE_SMILES>
CC(C)c1ccc(C=O)cc1

> <STRUCTURE_SMILES_Desalt>
CC(C)c1ccc(C=O)cc1

> <Substance_modify_yyyymmdd>
20080429

$$$$
