122-82-7
ChemmineR-0915142007XD

 16 16  0  0  0  0  0  0  0  0  1 V2000
    6.9397   -1.9768    0.0000 C   0  0  0  0  0  0  0  0  0  0  0  0
    8.0842   -2.6427    0.0000 C   0  0  0  0  0  0  0  0  0  0  0  0
    9.2287   -1.9768    0.0000 C   0  0  0  0  0  0  0  0  0  0  0  0
   10.4044   -2.6427    0.0000 C   0  0  0  0  0  0  0  0  0  0  0  0
    6.9397   -0.6659    0.0000 O   0  0  0  0  0  0  0  0  0  0  0  0
    5.7952   -2.6427    0.0000 N   0  0  0  0  0  0  0  0  0  0  0  0
    3.4647    0.0000    0.0000 C   0  0  0  0  0  0  0  0  0  0  0  0
    2.2890   -0.6659    0.0000 C   0  0  0  0  0  0  0  0  0  0  0  0
    2.2890   -2.0184    0.0000 C   0  0  0  0  0  0  0  0  0  0  0  0
    3.4334   -2.6427    0.0000 C   0  0  0  0  0  0  0  0  0  0  0  0
    4.6403   -1.9768    0.0000 C   0  0  0  0  0  0  0  0  0  0  0  0
    4.6091   -0.6659    0.0000 C   0  0  0  0  0  0  0  0  0  0  0  0
    1.1445    0.0000    0.0000 O   0  0  0  0  0  0  0  0  0  0  0  0
    0.0000   -0.6243    0.0000 C   0  0  0  0  0  0  0  0  0  0  0  0
    0.0000   -1.9768    0.0000 C   0  0  0  0  0  0  0  0  0  0  0  0
    9.2287   -0.6659    0.0000 O   0  0  0  0  0  0  0  0  0  0  0  0
  1  2  1  0  0  0  0
  1  6  1  0  0  0  0
  1  5  2  0  0  0  0
  2  3  1  0  0  0  0
  3  4  1  0  0  0  0
  3 16  2  0  0  0  0
  6 11  1  0  0  0  0
  7 12  2  0  0  0  0
  7  8  1  0  0  0  0
  8  9  2  0  0  0  0
  8 13  1  0  0  0  0
  9 10  1  0  0  0  0
 10 11  2  0  0  0  0
 11 12  1  0  0  0  0
 13 14  1  0  0  0  0
 14 15  1  0  0  0  0
M  END
> <ID>
10180

> <Formula>
C12H15NO3

> <FW>
221.2524

> <DSSTox_CID>
24526

> <DSSTox_RID>
80292

> <DSSTox_GSID>
44526

> <DSSTox_FileID_Sort>
4974

> <TS_ChemName>
N-(4-Ethoxyphenyl)-3-oxobutanamide

> <TS_ChemName_Synonyms>
N-(4-Ethoxyphenyl)-3-oxobutanamide (Butanamide, N-(4-ethoxyphenyl)-3-oxo-)

> <TS_CASRN>
122-82-7

> <CASRN_ChemName_Relationship>
primary

> <TS_Description>
single chemical compound

> <ChemNote>


> <STRUCTURE_Shown>
tested chemical

> <STRUCTURE_Formula>
C12H15NO3

> <STRUCTURE_MW>
221.2524

> <STRUCTURE_ChemType>
defined organic

> <STRUCTURE_DefinedOrganicForm>
parent

> <STRUCTURE_IUPAC>
N-(4-ethoxyphenyl)-3-oxobutanamide

> <STRUCTURE_SMILES>
CCOc1ccc(cc1)NC(=O)CC(C)=O

> <STRUCTURE_SMILES_Desalt>
CCOc1ccc(cc1)NC(=O)CC(C)=O

> <Substance_modify_yyyymmdd>
20091116

$$$$
