122-11-2
ChemmineR-0915142007XD

 21 22  0  0  0  0  0  0  0  0  1 V2000
    0.0000   -5.7644    0.0000 C   0  0  0  0  0  0  0  0  0  0  0  0
    0.6655   -6.9138    0.0000 C   0  0  0  0  0  0  0  0  0  0  0  0
    0.0000   -8.0632    0.0000 N   0  0  0  0  0  0  0  0  0  0  0  0
    1.9964   -6.9138    0.0000 C   0  0  0  0  0  0  0  0  0  0  0  0
    2.6618   -5.7644    0.0000 C   0  0  0  0  0  0  0  0  0  0  0  0
    1.9964   -4.6063    0.0000 C   0  0  0  0  0  0  0  0  0  0  0  0
    2.6618   -3.4569    0.0000 S   0  0  0  0  0  0  0  0  0  0  0  0
    3.8112   -4.1224    0.0000 O   0  0  0  0  0  0  0  0  0  0  0  0
    1.5038   -2.7915    0.0000 O   0  0  0  0  0  0  0  0  0  0  0  0
    3.3273   -2.3075    0.0000 N   0  0  0  0  0  0  0  0  0  0  0  0
    4.6495   -2.3075    0.0000 C   0  0  0  0  0  0  0  0  0  0  0  0
    5.3150   -1.1581    0.0000 C   0  0  0  0  0  0  0  0  0  0  0  0
    6.6459   -1.1581    0.0000 C   0  0  0  0  0  0  0  0  0  0  0  0
    7.3114    0.0000    0.0000 O   0  0  0  0  0  0  0  0  0  0  0  0
    8.6423    0.0000    0.0000 C   0  0  0  0  0  0  0  0  0  0  0  0
    7.3114   -2.3075    0.0000 N   0  0  0  0  0  0  0  0  0  0  0  0
    6.6459   -3.4569    0.0000 C   0  0  0  0  0  0  0  0  0  0  0  0
    7.3114   -4.6063    0.0000 O   0  0  0  0  0  0  0  0  0  0  0  0
    8.6423   -4.6063    0.0000 C   0  0  0  0  0  0  0  0  0  0  0  0
    5.3150   -3.4569    0.0000 N   0  0  0  0  0  0  0  0  0  0  0  0
    0.6655   -4.6063    0.0000 C   0  0  0  0  0  0  0  0  0  0  0  0
  1  2  2  0  0  0  0
  1 21  1  0  0  0  0
  2  3  1  0  0  0  0
  2  4  1  0  0  0  0
  4  5  2  0  0  0  0
  5  6  1  0  0  0  0
  6  7  1  0  0  0  0
  6 21  2  0  0  0  0
  7  8  2  0  0  0  0
  7  9  2  0  0  0  0
  7 10  1  0  0  0  0
 10 11  1  0  0  0  0
 11 12  2  0  0  0  0
 11 20  1  0  0  0  0
 12 13  1  0  0  0  0
 13 14  1  0  0  0  0
 13 16  2  0  0  0  0
 14 15  1  0  0  0  0
 16 17  1  0  0  0  0
 17 18  1  0  0  0  0
 17 20  2  0  0  0  0
 18 19  1  0  0  0  0
M  END
> <ID>
3226

> <Formula>
C12H14N4O4S

> <FW>
310.329

> <DSSTox_CID>
3607

> <DSSTox_RID>
77105

> <DSSTox_GSID>
23607

> <DSSTox_FileID_Sort>
1788

> <TS_ChemName>
Sulfadimethoxine

> <TS_ChemName_Synonyms>


> <TS_CASRN>
122-11-2

> <CASRN_ChemName_Relationship>
primary

> <TS_Description>
single chemical compound

> <ChemNote>


> <STRUCTURE_Shown>
tested chemical

> <STRUCTURE_Formula>
C12H14N4O4S

> <STRUCTURE_MW>
310.329

> <STRUCTURE_ChemType>
defined organic

> <STRUCTURE_DefinedOrganicForm>
parent

> <STRUCTURE_IUPAC>
4-amino-N-(2,6-dimethoxypyrimidin-4-yl)benzenesulfonamide

> <STRUCTURE_SMILES>
COc2nc(NS(=O)(=O)c1ccc(N)cc1)cc(OC)n2

> <STRUCTURE_SMILES_Desalt>
COc2nc(NS(=O)(=O)c1ccc(N)cc1)cc(OC)n2

> <Substance_modify_yyyymmdd>
20080429

$$$$
