122-88-3
ChemmineR-0915142007XD

 12 12  0  0  0  0  0  0  0  0  1 V2000
    7.3103   -1.1412    0.0000 C    0  0  0  0  0  0  0  0  0  0  0  0
    7.9806   -2.2904    0.0000 O    0  0  0  0  0  0  0  0  0  0  0  0
    7.9806    0.0000    0.0000 O    0  0  0  0  0  0  0  0  0  0  0  0
    5.9775   -1.1412    0.0000 C    0  0  0  0  0  0  0  0  0  0  0  0
    5.3231   -2.2904    0.0000 O    0  0  0  0  0  0  0  0  0  0  0  0
    3.9903   -2.2904    0.0000 C    0  0  0  0  0  0  0  0  0  0  0  0
    3.3199   -3.4476    0.0000 C    0  0  0  0  0  0  0  0  0  0  0  0
    3.3199   -1.1412    0.0000 C    0  0  0  0  0  0  0  0  0  0  0  0
    1.9872   -3.4476    0.0000 C    0  0  0  0  0  0  0  0  0  0  0  0
    1.9872   -1.1412    0.0000 C    0  0  0  0  0  0  0  0  0  0  0  0
    1.3328   -2.2904    0.0000 C    0  0  0  0  0  0  0  0  0  0  0  0
    0.0000   -2.2904    0.0000 Cl   0  0  0  0  0  0  0  0  0  0  0  0
  1  2  2  0  0  0  0
  1  3  1  0  0  0  0
  1  4  1  0  0  0  0
  4  5  1  0  0  0  0
  5  6  1  0  0  0  0
  6  7  2  0  0  0  0
  6  8  1  0  0  0  0
  7  9  1  0  0  0  0
  8 10  2  0  0  0  0
  9 11  2  0  0  0  0
 10 11  1  0  0  0  0
 11 12  1  0  0  0  0
M  END
> <ID>
6714

> <Formula>
C8H7ClO3

> <FW>
186.5924

> <DSSTox_CID>
14282

> <DSSTox_RID>
79137

> <DSSTox_GSID>
34282

> <DSSTox_FileID_Sort>
3819

> <TS_ChemName>
4-Chlorophenoxyacetic acid

> <TS_ChemName_Synonyms>


> <TS_CASRN>
122-88-3

> <CASRN_ChemName_Relationship>
primary

> <TS_Description>
single chemical compound

> <ChemNote>


> <STRUCTURE_Shown>
tested chemical

> <STRUCTURE_Formula>
C8H7ClO3

> <STRUCTURE_MW>
186.5924

> <STRUCTURE_ChemType>
defined organic

> <STRUCTURE_DefinedOrganicForm>
parent

> <STRUCTURE_IUPAC>
(4-chlorophenoxy)acetic acid

> <STRUCTURE_SMILES>
Clc1ccc(OCC(=O)O)cc1

> <STRUCTURE_SMILES_Desalt>
Clc1ccc(OCC(=O)O)cc1

> <Substance_modify_yyyymmdd>
20080429

$$$$
