122-19-0
ChemmineR-0915142007XD

 29 28  0  0  0  0  0  0  0  0  2 V2000
   19.6096   -2.1238    0.0000 C    0  0  0  0  0  0  0  0  0  0  0  0
   19.6096   -3.4453    0.0000 N    0  3  0  0  0  0  0  0  0  0  0  0
   18.2646   -3.4453    0.0000 C    0  0  0  0  0  0  0  0  0  0  0  0
   19.6096   -4.7903    0.0000 C    0  0  0  0  0  0  0  0  0  0  0  0
   18.4534   -5.4511    0.0000 C    0  0  0  0  0  0  0  0  0  0  0  0
   17.2971   -4.7903    0.0000 C    0  0  0  0  0  0  0  0  0  0  0  0
   16.1408   -5.4511    0.0000 C    0  0  0  0  0  0  0  0  0  0  0  0
   14.9845   -4.7903    0.0000 C    0  0  0  0  0  0  0  0  0  0  0  0
   13.8282   -5.4511    0.0000 C    0  0  0  0  0  0  0  0  0  0  0  0
   12.6955   -4.7903    0.0000 C    0  0  0  0  0  0  0  0  0  0  0  0
   11.5393   -5.4511    0.0000 C    0  0  0  0  0  0  0  0  0  0  0  0
   10.3830   -4.7903    0.0000 C    0  0  0  0  0  0  0  0  0  0  0  0
    9.2267   -5.4511    0.0000 C    0  0  0  0  0  0  0  0  0  0  0  0
    8.0704   -4.7903    0.0000 C    0  0  0  0  0  0  0  0  0  0  0  0
    6.9141   -5.4511    0.0000 C    0  0  0  0  0  0  0  0  0  0  0  0
    5.7578   -4.7903    0.0000 C    0  0  0  0  0  0  0  0  0  0  0  0
    4.6015   -5.4511    0.0000 C    0  0  0  0  0  0  0  0  0  0  0  0
    3.4689   -4.7903    0.0000 C    0  0  0  0  0  0  0  0  0  0  0  0
    2.3126   -5.4511    0.0000 C    0  0  0  0  0  0  0  0  0  0  0  0
    1.1563   -4.7903    0.0000 C    0  0  0  0  0  0  0  0  0  0  0  0
    0.0000   -5.4511    0.0000 C    0  0  0  0  0  0  0  0  0  0  0  0
   20.9311   -3.4453    0.0000 C    0  0  0  0  0  0  0  0  0  0  0  0
   21.5918   -2.2890    0.0000 C    0  0  0  0  0  0  0  0  0  0  0  0
   20.9311   -1.1563    0.0000 C    0  0  0  0  0  0  0  0  0  0  0  0
   21.5918    0.0000    0.0000 C    0  0  0  0  0  0  0  0  0  0  0  0
   22.9369    0.0000    0.0000 C    0  0  0  0  0  0  0  0  0  0  0  0
   23.5976   -1.1563    0.0000 C    0  0  0  0  0  0  0  0  0  0  0  0
   22.9369   -2.2890    0.0000 C    0  0  0  0  0  0  0  0  0  0  0  0
   21.6390   -4.6487    0.0000 Cl   0  5  0  0  0  0  0  0  0  0  0  0
  1  2  1  0  0  0  0
  2  3  1  0  0  0  0
  2  4  1  0  0  0  0
  2 22  1  0  0  0  0
  4  5  1  0  0  0  0
  5  6  1  0  0  0  0
  6  7  1  0  0  0  0
  7  8  1  0  0  0  0
  8  9  1  0  0  0  0
  9 10  1  0  0  0  0
 10 11  1  0  0  0  0
 11 12  1  0  0  0  0
 12 13  1  0  0  0  0
 13 14  1  0  0  0  0
 14 15  1  0  0  0  0
 15 16  1  0  0  0  0
 16 17  1  0  0  0  0
 17 18  1  0  0  0  0
 18 19  1  0  0  0  0
 19 20  1  0  0  0  0
 20 21  1  0  0  0  0
 22 23  1  0  0  0  0
 23 24  2  0  0  0  0
 23 28  1  0  0  0  0
 24 25  1  0  0  0  0
 25 26  2  0  0  0  0
 26 27  1  0  0  0  0
 27 28  2  0  0  0  0
M  END
> <ID>
4039

> <Formula>
C27H50ClN

> <FW>
424.1456 (388.6921+35.4535)

> <DSSTox_CID>
5139

> <DSSTox_RID>
77683

> <DSSTox_GSID>
25139

> <DSSTox_FileID_Sort>
2366

> <TS_ChemName>
N,N-Dimethyl-N-octadecylbenzenemethanaminium chloride

> <TS_ChemName_Synonyms>
Dimethyloctadecylbenzylammonium chloride (N,N-Dimethyl-n-octadecylbenzenemethanaminium chloride)

> <TS_CASRN>
122-19-0

> <CASRN_ChemName_Relationship>
primary

> <TS_Description>
single chemical compound

> <ChemNote>
ammonium; parent [37612-69-4]

> <STRUCTURE_Shown>
tested chemical

> <STRUCTURE_Formula>
C27H50ClN

> <STRUCTURE_MW>
424.1456

> <STRUCTURE_ChemType>
defined organic

> <STRUCTURE_DefinedOrganicForm>
salt

> <STRUCTURE_IUPAC>
N-benzyl-N,N-dimethyloctadecan-1-aminium chloride

> <STRUCTURE_SMILES>
[Cl-].C[N+](C)(Cc1ccccc1)CCCCCCCCCCCCCCCCCC

> <STRUCTURE_SMILES_Desalt>
C[N+](C)(Cc1ccccc1)CCCCCCCCCCCCCCCCCC

> <Substance_modify_yyyymmdd>
20080429

$$$$
