122-51-0
ChemmineR-0915142007XD

 10  9  0  0  0  0  0  0  0  0  1 V2000
    2.3062   -2.6596    0.0000 C   0  0  0  0  0  0  0  0  0  0  0  0
    1.1561   -2.0007    0.0000 O   0  0  0  0  0  0  0  0  0  0  0  0
    3.4623   -2.0007    0.0000 O   0  0  0  0  0  0  0  0  0  0  0  0
    2.3062   -3.9895    0.0000 O   0  0  0  0  0  0  0  0  0  0  0  0
    4.6124   -2.6596    0.0000 C   0  0  0  0  0  0  0  0  0  0  0  0
    5.7685   -2.0007    0.0000 C   0  0  0  0  0  0  0  0  0  0  0  0
    1.1561   -4.6604    0.0000 C   0  0  0  0  0  0  0  0  0  0  0  0
    1.1561   -5.9902    0.0000 C   0  0  0  0  0  0  0  0  0  0  0  0
    1.1561   -0.6709    0.0000 C   0  0  0  0  0  0  0  0  0  0  0  0
    0.0000    0.0000    0.0000 C   0  0  0  0  0  0  0  0  0  0  0  0
  1  2  1  0  0  0  0
  1  3  1  0  0  0  0
  1  4  1  0  0  0  0
  2  9  1  0  0  0  0
  3  5  1  0  0  0  0
  4  7  1  0  0  0  0
  5  6  1  0  0  0  0
  7  8  1  0  0  0  0
  9 10  1  0  0  0  0
M  END
> <ID>
8892

> <Formula>
C7H16O3

> <FW>
148.2001

> <DSSTox_CID>
21957

> <DSSTox_RID>
79885

> <DSSTox_GSID>
41957

> <DSSTox_FileID_Sort>
4567

> <TS_ChemName>
Ethyl orthoformate

> <TS_ChemName_Synonyms>
Ethyl orthoformate (Triethyl orthoformate)

> <TS_CASRN>
122-51-0

> <CASRN_ChemName_Relationship>
primary

> <TS_Description>
single chemical compound

> <ChemNote>


> <STRUCTURE_Shown>
tested chemical

> <STRUCTURE_Formula>
C7H16O3

> <STRUCTURE_MW>
148.2001

> <STRUCTURE_ChemType>
defined organic

> <STRUCTURE_DefinedOrganicForm>
parent

> <STRUCTURE_IUPAC>
(diethoxymethoxy)ethane

> <STRUCTURE_SMILES>
CCOC(OCC)OCC

> <STRUCTURE_SMILES_Desalt>
CCOC(OCC)OCC

> <Substance_modify_yyyymmdd>
20080825

$$$$
