122-67-8
ChemmineR-0915142007XD

 15 15  0  0  0  0  0  0  0  0  1 V2000
    5.7602   -1.3364    0.0000 C   0  0  0  0  0  0  0  0  0  0  0  0
    5.7602    0.0000    0.0000 O   0  0  0  0  0  0  0  0  0  0  0  0
    4.6206   -1.9891    0.0000 C   0  0  0  0  0  0  0  0  0  0  0  0
    3.4602   -1.3157    0.0000 C   0  0  0  0  0  0  0  0  0  0  0  0
    6.8998   -1.9788    0.0000 O   0  0  0  0  0  0  0  0  0  0  0  0
    1.1500   -3.9782    0.0000 C   0  0  0  0  0  0  0  0  0  0  0  0
    0.0000   -3.3256    0.0000 C   0  0  0  0  0  0  0  0  0  0  0  0
    0.0000   -1.9891    0.0000 C   0  0  0  0  0  0  0  0  0  0  0  0
    1.1500   -1.3157    0.0000 C   0  0  0  0  0  0  0  0  0  0  0  0
    2.3103   -1.9891    0.0000 C   0  0  0  0  0  0  0  0  0  0  0  0
    2.3103   -3.3256    0.0000 C   0  0  0  0  0  0  0  0  0  0  0  0
    8.0497   -1.3157    0.0000 C   0  0  0  0  0  0  0  0  0  0  0  0
    9.2100   -1.9788    0.0000 C   0  0  0  0  0  0  0  0  0  0  0  0
    9.2100   -3.3048    0.0000 C   0  0  0  0  0  0  0  0  0  0  0  0
   10.3600   -1.3157    0.0000 C   0  0  0  0  0  0  0  0  0  0  0  0
  1  2  2  0  0  0  0
  1  3  1  0  0  0  0
  1  5  1  0  0  0  0
  3  4  2  3  0  0  0
  4 10  1  0  0  0  0
  5 12  1  0  0  0  0
  6 11  2  0  0  0  0
  6  7  1  0  0  0  0
  7  8  2  0  0  0  0
  8  9  1  0  0  0  0
  9 10  2  0  0  0  0
 10 11  1  0  0  0  0
 12 13  1  0  0  0  0
 13 14  1  0  0  0  0
 13 15  1  0  0  0  0
M  END
> <ID>
12767

> <Formula>
C13H16O2

> <FW>
204.2649

> <DSSTox_CID>
27646

> <DSSTox_RID>
82473

> <DSSTox_GSID>
47646

> <DSSTox_FileID_Sort>
7154

> <TS_ChemName>
Isobutyl 3-phenylacrylate

> <TS_ChemName_Synonyms>
Isobutyl cinnamate (Isobutyl 3-phenylacrylate)

> <TS_CASRN>
122-67-8

> <CASRN_ChemName_Relationship>
primary

> <TS_Description>
mixture of Z,E isomers

> <ChemNote>
mixture of Z,E isomers

> <STRUCTURE_Shown>
representative isomer in mixture

> <STRUCTURE_Formula>
C13H16O2

> <STRUCTURE_MW>
204.2649

> <STRUCTURE_ChemType>
defined organic

> <STRUCTURE_DefinedOrganicForm>
parent

> <STRUCTURE_IUPAC>
2-methylpropyl 3-phenylprop-2-enoate

> <STRUCTURE_SMILES>
CC(C)COC(=O)C=Cc1ccccc1

> <STRUCTURE_SMILES_Desalt>
CC(C)COC(=O)C=Cc1ccccc1

> <Substance_modify_yyyymmdd>
20101214

$$$$
