122-52-1
ChemmineR-0915142007XD

 10  9  0  0  0  0  0  0  0  0  1 V2000
    2.3052   -2.6585    0.0000 P   0  0  0  0  0  0  0  0  0  0  0  0
    2.3052   -3.9878    0.0000 O   0  0  0  0  0  0  0  0  0  0  0  0
    3.4608   -1.9999    0.0000 O   0  0  0  0  0  0  0  0  0  0  0  0
    1.1556   -1.9999    0.0000 O   0  0  0  0  0  0  0  0  0  0  0  0
    1.1556   -4.6584    0.0000 C   0  0  0  0  0  0  0  0  0  0  0  0
    1.1556   -5.9876    0.0000 C   0  0  0  0  0  0  0  0  0  0  0  0
    3.4608   -0.6706    0.0000 C   0  0  0  0  0  0  0  0  0  0  0  0
    4.6105    0.0000    0.0000 C   0  0  0  0  0  0  0  0  0  0  0  0
    1.1556   -0.6706    0.0000 C   0  0  0  0  0  0  0  0  0  0  0  0
    0.0000    0.0000    0.0000 C   0  0  0  0  0  0  0  0  0  0  0  0
  1  2  1  0  0  0  0
  1  3  1  0  0  0  0
  1  4  1  0  0  0  0
  2  5  1  0  0  0  0
  3  7  1  0  0  0  0
  4  9  1  0  0  0  0
  5  6  1  0  0  0  0
  7  8  1  0  0  0  0
  9 10  1  0  0  0  0
M  END
> <ID>
4878

> <Formula>
C6H15O3P

> <FW>
166.1553

> <DSSTox_CID>
6991

> <DSSTox_RID>
78275

> <DSSTox_GSID>
26991

> <DSSTox_FileID_Sort>
2958

> <TS_ChemName>
Triethyl phosphite

> <TS_ChemName_Synonyms>
Triethyl phosphite (Phosphorous acid, triethyl ester)

> <TS_CASRN>
122-52-1

> <CASRN_ChemName_Relationship>
primary

> <TS_Description>
single chemical compound

> <ChemNote>


> <STRUCTURE_Shown>
tested chemical

> <STRUCTURE_Formula>
C6H15O3P

> <STRUCTURE_MW>
166.1553

> <STRUCTURE_ChemType>
defined organic

> <STRUCTURE_DefinedOrganicForm>
parent

> <STRUCTURE_IUPAC>
triethyl phosphite

> <STRUCTURE_SMILES>
CCOP(OCC)OCC

> <STRUCTURE_SMILES_Desalt>
CCOP(OCC)OCC

> <Substance_modify_yyyymmdd>
20080429

$$$$
