122-16-7
ChemmineR-0915142007XD

 23 24  0  0  0  0  0  0  0  0  2 V2000
   13.5523   -3.8082    0.0000 C   0  0  0  0  0  0  0  0  0  0  0  0
   12.4003   -3.1577    0.0000 C   0  0  0  0  0  0  0  0  0  0  0  0
   12.4003   -1.8160    0.0000 O   0  0  0  0  0  0  0  0  0  0  0  0
   11.2484   -3.8082    0.0000 N   0  0  0  0  0  0  0  0  0  0  0  0
   10.0964   -3.1577    0.0000 C   0  0  0  0  0  0  0  0  0  0  0  0
    8.9445   -3.8082    0.0000 C   0  0  0  0  0  0  0  0  0  0  0  0
    7.7790   -3.1577    0.0000 C   0  0  0  0  0  0  0  0  0  0  0  0
    7.7790   -1.8160    0.0000 C   0  0  0  0  0  0  0  0  0  0  0  0
    8.9445   -1.1519    0.0000 C   0  0  0  0  0  0  0  0  0  0  0  0
   10.0964   -1.8160    0.0000 C   0  0  0  0  0  0  0  0  0  0  0  0
    6.6542   -1.1519    0.0000 S   0  0  0  0  0  0  0  0  0  0  0  0
    5.4887   -0.4879    0.0000 O   0  0  0  0  0  0  0  0  0  0  0  0
    7.3047    0.0000    0.0000 O   0  0  0  0  0  0  0  0  0  0  0  0
    5.9766   -2.3039    0.0000 N   0  0  0  0  0  0  0  0  0  0  0  0
    4.6484   -2.3039    0.0000 C   0  0  0  0  0  0  0  0  0  0  0  0
    3.9844   -3.4558    0.0000 C   0  0  0  0  0  0  0  0  0  0  0  0
    2.6562   -3.4558    0.0000 C   0  0  0  0  0  0  0  0  0  0  0  0
    1.9922   -2.3039    0.0000 C   0  0  0  0  0  0  0  0  0  0  0  0
    2.6562   -1.1519    0.0000 C   0  0  0  0  0  0  0  0  0  0  0  0
    3.9844   -1.1519    0.0000 C   0  0  0  0  0  0  0  0  0  0  0  0
    0.6505   -2.3039    0.0000 N   0  3  0  0  0  0  0  0  0  0  0  0
    0.0000   -3.4558    0.0000 O   0  5  0  0  0  0  0  0  0  0  0  0
    0.0000   -1.1519    0.0000 O   0  0  0  0  0  0  0  0  0  0  0  0
  1  2  1  0  0  0  0
  2  3  2  0  0  0  0
  2  4  1  0  0  0  0
  4  5  1  0  0  0  0
  5  6  2  0  0  0  0
  5 10  1  0  0  0  0
  6  7  1  0  0  0  0
  7  8  2  0  0  0  0
  8  9  1  0  0  0  0
  8 11  1  0  0  0  0
  9 10  2  0  0  0  0
 11 12  2  0  0  0  0
 11 13  2  0  0  0  0
 11 14  1  0  0  0  0
 14 15  1  0  0  0  0
 15 16  2  0  0  0  0
 15 20  1  0  0  0  0
 16 17  1  0  0  0  0
 17 18  2  0  0  0  0
 18 19  1  0  0  0  0
 18 21  1  0  0  0  0
 19 20  2  0  0  0  0
 21 22  1  0  0  0  0
 21 23  2  0  0  0  0
M  END
> <ID>
11278

> <Formula>
C14H13N3O5S

> <FW>
335.3351

> <DSSTox_CID>
25898

> <DSSTox_RID>
81210

> <DSSTox_GSID>
45898

> <DSSTox_FileID_Sort>
5891

> <TS_ChemName>
Sulfanitran

> <TS_ChemName_Synonyms>


> <TS_CASRN>
122-16-7

> <CASRN_ChemName_Relationship>
primary

> <TS_Description>
single chemical compound

> <ChemNote>


> <STRUCTURE_Shown>
tested chemical

> <STRUCTURE_Formula>
C14H13N3O5S

> <STRUCTURE_MW>
335.3351

> <STRUCTURE_ChemType>
defined organic

> <STRUCTURE_DefinedOrganicForm>
parent

> <STRUCTURE_IUPAC>
N-{4-[(4-nitrophenyl)sulfamoyl]phenyl}acetamide

> <STRUCTURE_SMILES>
O=S(=O)(Nc1ccc(cc1)[N+]([O-])=O)c2ccc(NC(C)=O)cc2

> <STRUCTURE_SMILES_Desalt>
O=S(=O)(Nc1ccc(cc1)[N+]([O-])=O)c2ccc(NC(C)=O)cc2

> <Substance_modify_yyyymmdd>
20110922

$$$$
