122-72-5
ChemmineR-0915142007XD

 13 13  0  0  0  0  0  0  0  0  1 V2000
    8.0528   -1.3253    0.0000 C   0  0  0  0  0  0  0  0  0  0  0  0
    9.2032   -1.9971    0.0000 O   0  0  0  0  0  0  0  0  0  0  0  0
    6.9024   -1.9971    0.0000 O   0  0  0  0  0  0  0  0  0  0  0  0
    8.0528    0.0000    0.0000 C   0  0  0  0  0  0  0  0  0  0  0  0
    5.7428   -1.3253    0.0000 C   0  0  0  0  0  0  0  0  0  0  0  0
    4.5924   -1.9971    0.0000 C   0  0  0  0  0  0  0  0  0  0  0  0
    3.4420   -1.3253    0.0000 C   0  0  0  0  0  0  0  0  0  0  0  0
    1.1320   -3.9850    0.0000 C   0  0  0  0  0  0  0  0  0  0  0  0
    0.0000   -3.3316    0.0000 C   0  0  0  0  0  0  0  0  0  0  0  0
    0.0000   -1.9971    0.0000 C   0  0  0  0  0  0  0  0  0  0  0  0
    1.1320   -1.3253    0.0000 C   0  0  0  0  0  0  0  0  0  0  0  0
    2.2916   -1.9971    0.0000 C   0  0  0  0  0  0  0  0  0  0  0  0
    2.2916   -3.3316    0.0000 C   0  0  0  0  0  0  0  0  0  0  0  0
  1  2  2  0  0  0  0
  1  3  1  0  0  0  0
  1  4  1  0  0  0  0
  3  5  1  0  0  0  0
  5  6  1  0  0  0  0
  6  7  1  0  0  0  0
  7 12  1  0  0  0  0
  8 13  2  0  0  0  0
  8  9  1  0  0  0  0
  9 10  2  0  0  0  0
 10 11  1  0  0  0  0
 11 12  2  0  0  0  0
 12 13  1  0  0  0  0
M  END
> <ID>
12769

> <Formula>
C11H14O2

> <FW>
178.2277

> <DSSTox_CID>
27648

> <DSSTox_RID>
82475

> <DSSTox_GSID>
47648

> <DSSTox_FileID_Sort>
7156

> <TS_ChemName>
3-Phenylpropyl acetate

> <TS_ChemName_Synonyms>


> <TS_CASRN>
122-72-5

> <CASRN_ChemName_Relationship>
primary

> <TS_Description>
single chemical compound

> <ChemNote>


> <STRUCTURE_Shown>
tested chemical

> <STRUCTURE_Formula>
C11H14O2

> <STRUCTURE_MW>
178.2277

> <STRUCTURE_ChemType>
defined organic

> <STRUCTURE_DefinedOrganicForm>
parent

> <STRUCTURE_IUPAC>
3-phenylpropyl acetate

> <STRUCTURE_SMILES>
CC(=O)OCCCc1ccccc1

> <STRUCTURE_SMILES_Desalt>
CC(=O)OCCCc1ccccc1

> <Substance_modify_yyyymmdd>
20101214

$$$$
