122-78-1
ChemmineR-0915142007XD

  9  9  0  0  0  0  0  0  0  0  1 V2000
    0.0000    0.0000    0.0000 O   0  0  0  0  0  0  0  0  0  0  0  0
    1.3283    0.0000    0.0000 C   0  0  0  0  0  0  0  0  0  0  0  0
    1.9925   -1.1548    0.0000 C   0  0  0  0  0  0  0  0  0  0  0  0
    3.3269   -1.1548    0.0000 C   0  0  0  0  0  0  0  0  0  0  0  0
    3.9910    0.0000    0.0000 C   0  0  0  0  0  0  0  0  0  0  0  0
    5.3194    0.0000    0.0000 C   0  0  0  0  0  0  0  0  0  0  0  0
    5.9836   -1.1548    0.0000 C   0  0  0  0  0  0  0  0  0  0  0  0
    5.3194   -2.3037    0.0000 C   0  0  0  0  0  0  0  0  0  0  0  0
    3.9910   -2.3037    0.0000 C   0  0  0  0  0  0  0  0  0  0  0  0
  1  2  2  0  0  0  0
  2  3  1  0  0  0  0
  3  4  1  0  0  0  0
  4  5  2  0  0  0  0
  4  9  1  0  0  0  0
  5  6  1  0  0  0  0
  6  7  2  0  0  0  0
  7  8  1  0  0  0  0
  8  9  2  0  0  0  0
M  END
> <ID>
1424

> <Formula>
C8H8O

> <FW>
120.1485

> <DSSTox_CID>
1483

> <DSSTox_RID>
76177

> <DSSTox_GSID>
21483

> <DSSTox_FileID_Sort>
861

> <TS_ChemName>
Phenylacetaldehyde

> <TS_ChemName_Synonyms>
Phenylacetaldehyde (Benzeneacetaldehyde)

> <TS_CASRN>
122-78-1

> <CASRN_ChemName_Relationship>
primary

> <TS_Description>
single chemical compound

> <ChemNote>


> <STRUCTURE_Shown>
tested chemical

> <STRUCTURE_Formula>
C8H8O

> <STRUCTURE_MW>
120.1485

> <STRUCTURE_ChemType>
defined organic

> <STRUCTURE_DefinedOrganicForm>
parent

> <STRUCTURE_IUPAC>
phenylacetaldehyde

> <STRUCTURE_SMILES>
O=CCc1ccccc1

> <STRUCTURE_SMILES_Desalt>
O=CCc1ccccc1

> <Substance_modify_yyyymmdd>
20080429

$$$$
