122-96-3
ChemmineR-0915142007XD

 12 12  0  0  0  0  0  0  0  0  1 V2000
    5.9733   -1.1537    0.0000 N   0  0  0  0  0  0  0  0  0  0  0  0
    3.3123   -1.1537    0.0000 N   0  0  0  0  0  0  0  0  0  0  0  0
    3.9915    0.0000    0.0000 C   0  0  0  0  0  0  0  0  0  0  0  0
    5.3127   -2.3075    0.0000 C   0  0  0  0  0  0  0  0  0  0  0  0
    3.9915   -2.3075    0.0000 C   0  0  0  0  0  0  0  0  0  0  0  0
    5.3127    0.0000    0.0000 C   0  0  0  0  0  0  0  0  0  0  0  0
    7.9738   -2.3075    0.0000 C   0  0  0  0  0  0  0  0  0  0  0  0
    7.3038   -1.1537    0.0000 C   0  0  0  0  0  0  0  0  0  0  0  0
    9.3043   -2.3075    0.0000 O   0  0  0  0  0  0  0  0  0  0  0  0
    1.3305    0.0000    0.0000 C   0  0  0  0  0  0  0  0  0  0  0  0
    1.9818   -1.1537    0.0000 C   0  0  0  0  0  0  0  0  0  0  0  0
    0.0000    0.0000    0.0000 O   0  0  0  0  0  0  0  0  0  0  0  0
  1  4  1  0  0  0  0
  1  6  1  0  0  0  0
  1  8  1  0  0  0  0
  2  3  1  0  0  0  0
  2  5  1  0  0  0  0
  2 11  1  0  0  0  0
  3  6  1  0  0  0  0
  4  5  1  0  0  0  0
  7  8  1  0  0  0  0
  7  9  1  0  0  0  0
 10 11  1  0  0  0  0
 10 12  1  0  0  0  0
M  END
> <ID>
5819

> <Formula>
C8H18N2O2

> <FW>
174.2407

> <DSSTox_CID>
9158

> <DSSTox_RID>
78689

> <DSSTox_GSID>
29158

> <DSSTox_FileID_Sort>
3371

> <TS_ChemName>
1,4-Piperazinediethanol

> <TS_ChemName_Synonyms>


> <TS_CASRN>
122-96-3

> <CASRN_ChemName_Relationship>
primary

> <TS_Description>
single chemical compound

> <ChemNote>


> <STRUCTURE_Shown>
tested chemical

> <STRUCTURE_Formula>
C8H18N2O2

> <STRUCTURE_MW>
174.2407

> <STRUCTURE_ChemType>
defined organic

> <STRUCTURE_DefinedOrganicForm>
parent

> <STRUCTURE_IUPAC>
2,2'-piperazine-1,4-diyldiethanol

> <STRUCTURE_SMILES>
OCCN1CCN(CC1)CCO

> <STRUCTURE_SMILES_Desalt>
OCCN1CCN(CC1)CCO

> <Substance_modify_yyyymmdd>
20080429

$$$$
