122-40-7
ChemmineR-0915142007XD

 15 15  0  0  0  0  0  0  0  0  1 V2000
    5.9938   -3.4592    0.0000 C   0  0  0  0  0  0  0  0  0  0  0  0
    4.6633   -3.4592    0.0000 C   0  0  0  0  0  0  0  0  0  0  0  0
    3.9914   -2.3084    0.0000 C   0  0  0  0  0  0  0  0  0  0  0  0
    2.6609   -2.3084    0.0000 C   0  0  0  0  0  0  0  0  0  0  0  0
    2.0024   -1.1509    0.0000 C   0  0  0  0  0  0  0  0  0  0  0  0
    0.6719   -1.1509    0.0000 C   0  0  0  0  0  0  0  0  0  0  0  0
    0.0000    0.0000    0.0000 C   0  0  0  0  0  0  0  0  0  0  0  0
    6.6524   -2.3084    0.0000 O   0  0  0  0  0  0  0  0  0  0  0  0
    3.9914   -4.6167    0.0000 C   0  0  0  0  0  0  0  0  0  0  0  0
    2.6609   -4.6034    0.0000 C   0  0  0  0  0  0  0  0  0  0  0  0
    2.0024   -5.7543    0.0000 C   0  0  0  0  0  0  0  0  0  0  0  0
    2.0024   -3.4592    0.0000 C   0  0  0  0  0  0  0  0  0  0  0  0
    0.6719   -5.7543    0.0000 C   0  0  0  0  0  0  0  0  0  0  0  0
    0.6719   -3.4592    0.0000 C   0  0  0  0  0  0  0  0  0  0  0  0
    0.0000   -4.6034    0.0000 C   0  0  0  0  0  0  0  0  0  0  0  0
  1  2  1  0  0  0  0
  1  8  2  0  0  0  0
  2  3  1  0  0  0  0
  2  9  2  3  0  0  0
  3  4  1  0  0  0  0
  4  5  1  0  0  0  0
  5  6  1  0  0  0  0
  6  7  1  0  0  0  0
  9 10  1  0  0  0  0
 10 11  2  0  0  0  0
 10 12  1  0  0  0  0
 11 13  1  0  0  0  0
 12 14  2  0  0  0  0
 13 15  2  0  0  0  0
 14 15  1  0  0  0  0
M  END
> <ID>
5818

> <Formula>
C14H18O

> <FW>
202.2921

> <DSSTox_CID>
9157

> <DSSTox_RID>
78688

> <DSSTox_GSID>
29157

> <DSSTox_FileID_Sort>
3370

> <TS_ChemName>
Pentylcinnamaldehyde

> <TS_ChemName_Synonyms>
2-Benzylideneheptanal; Heptanal, 2-(phenylmethylene)-; Amyl cinnamal

> <TS_CASRN>
122-40-7

> <CASRN_ChemName_Relationship>
primary

> <TS_Description>
mixture of Z,E isomers

> <ChemNote>
mixture of Z,E isomers

> <STRUCTURE_Shown>
representative isomer in mixture

> <STRUCTURE_Formula>
C14H18O

> <STRUCTURE_MW>
202.2921

> <STRUCTURE_ChemType>
defined organic

> <STRUCTURE_DefinedOrganicForm>
parent

> <STRUCTURE_IUPAC>
2-benzylideneheptanal

> <STRUCTURE_SMILES>
O=CC(CCCCC)=Cc1ccccc1

> <STRUCTURE_SMILES_Desalt>
O=CC(CCCCC)=Cc1ccccc1

> <Substance_modify_yyyymmdd>
20130730

$$$$
