122-18-9
ChemmineR-0915142007XD

 27 26  0  0  0  0  0  0  0  0  2 V2000
    4.6068   -2.0040    0.0000 N    0  3  0  0  0  0  0  0  0  0  0  0
    5.7585   -1.3360    0.0000 C    0  0  0  0  0  0  0  0  0  0  0  0
    6.9102   -2.0040    0.0000 C    0  0  0  0  0  0  0  0  0  0  0  0
   21.8824   -1.3360    0.0000 C    0  0  0  0  0  0  0  0  0  0  0  0
   20.7307   -2.0040    0.0000 C    0  0  0  0  0  0  0  0  0  0  0  0
   10.3653   -1.3360    0.0000 C    0  0  0  0  0  0  0  0  0  0  0  0
   18.4273   -2.0040    0.0000 C    0  0  0  0  0  0  0  0  0  0  0  0
   17.2756   -1.3360    0.0000 C    0  0  0  0  0  0  0  0  0  0  0  0
   16.1239   -2.0040    0.0000 C    0  0  0  0  0  0  0  0  0  0  0  0
   14.9722   -1.3360    0.0000 C    0  0  0  0  0  0  0  0  0  0  0  0
   13.8205   -2.0040    0.0000 C    0  0  0  0  0  0  0  0  0  0  0  0
   12.6688   -1.3360    0.0000 C    0  0  0  0  0  0  0  0  0  0  0  0
    9.2136   -2.0040    0.0000 C    0  0  0  0  0  0  0  0  0  0  0  0
    8.0619   -1.3360    0.0000 C    0  0  0  0  0  0  0  0  0  0  0  0
   19.5790   -1.3360    0.0000 C    0  0  0  0  0  0  0  0  0  0  0  0
   11.5171   -2.0040    0.0000 C    0  0  0  0  0  0  0  0  0  0  0  0
   23.0341   -2.0040    0.0000 C    0  0  0  0  0  0  0  0  0  0  0  0
    3.4551   -2.6489    0.0000 C    0  0  0  0  0  0  0  0  0  0  0  0
    5.2748   -3.1557    0.0000 C    0  0  0  0  0  0  0  0  0  0  0  0
    3.9388   -0.8523    0.0000 C    0  0  0  0  0  0  0  0  0  0  0  0
    2.3034   -2.0040    0.0000 C    0  0  0  0  0  0  0  0  0  0  0  0
    1.1517   -2.6489    0.0000 C    0  0  0  0  0  0  0  0  0  0  0  0
    2.3034   -0.6680    0.0000 C    0  0  0  0  0  0  0  0  0  0  0  0
    0.0000   -2.0040    0.0000 C    0  0  0  0  0  0  0  0  0  0  0  0
    1.1517    0.0000    0.0000 C    0  0  0  0  0  0  0  0  0  0  0  0
    0.0000   -0.6680    0.0000 C    0  0  0  0  0  0  0  0  0  0  0  0
    6.2422   -0.4376    0.0000 Cl   0  5  0  0  0  0  0  0  0  0  0  0
  1  2  1  0  0  0  0
  1 18  1  0  0  0  0
  1 19  1  0  0  0  0
  1 20  1  0  0  0  0
  2  3  1  0  0  0  0
  3 14  1  0  0  0  0
  4  5  1  0  0  0  0
  4 17  1  0  0  0  0
  5 15  1  0  0  0  0
  6 13  1  0  0  0  0
  6 16  1  0  0  0  0
  7  8  1  0  0  0  0
  7 15  1  0  0  0  0
  8  9  1  0  0  0  0
  9 10  1  0  0  0  0
 10 11  1  0  0  0  0
 11 12  1  0  0  0  0
 12 16  1  0  0  0  0
 13 14  1  0  0  0  0
 18 21  1  0  0  0  0
 21 22  1  0  0  0  0
 21 23  2  0  0  0  0
 22 24  2  0  0  0  0
 23 25  1  0  0  0  0
 24 26  1  0  0  0  0
 25 26  2  0  0  0  0
M  END
> <ID>
8621

> <Formula>
C25H46ClN

> <FW>
396.0924 (360.6389+35.4535)

> <DSSTox_CID>
21665

> <DSSTox_RID>
79809

> <DSSTox_GSID>
41665

> <DSSTox_FileID_Sort>
4491

> <TS_ChemName>
Benzylhexadecyldimethylammonium chloride

> <TS_ChemName_Synonyms>
Benzyl hexadecyl dimethyl ammonium chloride

> <TS_CASRN>
122-18-9

> <CASRN_ChemName_Relationship>
primary

> <TS_Description>
single chemical compound

> <ChemNote>
ammonium; parent [10328-34-4]

> <STRUCTURE_Shown>
tested chemical

> <STRUCTURE_Formula>
C25H46ClN

> <STRUCTURE_MW>
396.0924

> <STRUCTURE_ChemType>
defined organic

> <STRUCTURE_DefinedOrganicForm>
salt

> <STRUCTURE_IUPAC>
N-benzyl-N,N-dimethylhexadecan-1-aminium chloride

> <STRUCTURE_SMILES>
[Cl-].C[N+](C)(Cc1ccccc1)CCCCCCCCCCCCCCCC

> <STRUCTURE_SMILES_Desalt>
C[N+](C)(Cc1ccccc1)CCCCCCCCCCCCCCCC

> <Substance_modify_yyyymmdd>
20080825

$$$$
