122-62-3
ChemmineR-0915142007XD

 30 29  0  0  0  0  0  0  0  0  1 V2000
   15.3057   -4.6194    0.0000 O   0  0  0  0  0  0  0  0  0  0  0  0
   15.9657   -5.7689    0.0000 C   0  0  0  0  0  0  0  0  0  0  0  0
   17.3068   -5.7689    0.0000 O   0  0  0  0  0  0  0  0  0  0  0  0
   17.9667   -4.6194    0.0000 C   0  0  0  0  0  0  0  0  0  0  0  0
   19.2865   -4.6194    0.0000 C   0  0  0  0  0  0  0  0  0  0  0  0
   19.9464   -3.4699    0.0000 C   0  0  0  0  0  0  0  0  0  0  0  0
   19.2865   -2.2991    0.0000 C   0  0  0  0  0  0  0  0  0  0  0  0
   17.9667   -2.2991    0.0000 C   0  0  0  0  0  0  0  0  0  0  0  0
   17.3068   -1.1495    0.0000 C   0  0  0  0  0  0  0  0  0  0  0  0
   19.9464   -5.7689    0.0000 C   0  0  0  0  0  0  0  0  0  0  0  0
   21.2876   -5.7689    0.0000 C   0  0  0  0  0  0  0  0  0  0  0  0
   15.3057   -6.9185    0.0000 C   0  0  0  0  0  0  0  0  0  0  0  0
   13.9646   -6.9185    0.0000 C   0  0  0  0  0  0  0  0  0  0  0  0
   13.3047   -5.7689    0.0000 C   0  0  0  0  0  0  0  0  0  0  0  0
   11.9849   -5.7689    0.0000 C   0  0  0  0  0  0  0  0  0  0  0  0
   11.3037   -4.6194    0.0000 C   0  0  0  0  0  0  0  0  0  0  0  0
    9.9839   -4.6194    0.0000 C   0  0  0  0  0  0  0  0  0  0  0  0
    9.3239   -3.4699    0.0000 C   0  0  0  0  0  0  0  0  0  0  0  0
    7.9828   -3.4699    0.0000 C   0  0  0  0  0  0  0  0  0  0  0  0
    7.3229   -2.2991    0.0000 C   0  0  0  0  0  0  0  0  0  0  0  0
    7.9828   -1.1495    0.0000 O   0  0  0  0  0  0  0  0  0  0  0  0
    5.9818   -2.2991    0.0000 O   0  0  0  0  0  0  0  0  0  0  0  0
    5.3219   -1.1495    0.0000 C   0  0  0  0  0  0  0  0  0  0  0  0
    3.9808   -1.1495    0.0000 C   0  0  0  0  0  0  0  0  0  0  0  0
    3.3209   -2.2991    0.0000 C   0  0  0  0  0  0  0  0  0  0  0  0
    2.0010   -2.2991    0.0000 C   0  0  0  0  0  0  0  0  0  0  0  0
    1.3198   -3.4699    0.0000 C   0  0  0  0  0  0  0  0  0  0  0  0
    0.0000   -3.4699    0.0000 C   0  0  0  0  0  0  0  0  0  0  0  0
    3.3209    0.0000    0.0000 C   0  0  0  0  0  0  0  0  0  0  0  0
    2.0010    0.0000    0.0000 C   0  0  0  0  0  0  0  0  0  0  0  0
  1  2  2  0  0  0  0
  2  3  1  0  0  0  0
  2 12  1  0  0  0  0
  3  4  1  0  0  0  0
  4  5  1  0  0  0  0
  5  6  1  0  0  0  0
  5 10  1  0  0  0  0
  6  7  1  0  0  0  0
  7  8  1  0  0  0  0
  8  9  1  0  0  0  0
 10 11  1  0  0  0  0
 12 13  1  0  0  0  0
 13 14  1  0  0  0  0
 14 15  1  0  0  0  0
 15 16  1  0  0  0  0
 16 17  1  0  0  0  0
 17 18  1  0  0  0  0
 18 19  1  0  0  0  0
 19 20  1  0  0  0  0
 20 21  2  0  0  0  0
 20 22  1  0  0  0  0
 22 23  1  0  0  0  0
 23 24  1  0  0  0  0
 24 25  1  0  0  0  0
 24 29  1  0  0  0  0
 25 26  1  0  0  0  0
 26 27  1  0  0  0  0
 27 28  1  0  0  0  0
 29 30  1  0  0  0  0
M  END
> <ID>
3992

> <Formula>
C26H50O4

> <FW>
426.6728

> <DSSTox_CID>
5055

> <DSSTox_RID>
77644

> <DSSTox_GSID>
25055

> <DSSTox_FileID_Sort>
2327

> <TS_ChemName>
Bis(2-ethylhexyl) decanedioate

> <TS_ChemName_Synonyms>
Bis(2-ethylhexyl) decanedioate (Di(2-ethylhexyl)sebacate) (DEHS)

> <TS_CASRN>
122-62-3

> <CASRN_ChemName_Relationship>
primary

> <TS_Description>
single chemical compound

> <ChemNote>


> <STRUCTURE_Shown>
tested chemical

> <STRUCTURE_Formula>
C26H50O4

> <STRUCTURE_MW>
426.6728

> <STRUCTURE_ChemType>
defined organic

> <STRUCTURE_DefinedOrganicForm>
parent

> <STRUCTURE_IUPAC>
bis(2-ethylhexyl) decanedioate

> <STRUCTURE_SMILES>
O=C(CCCCCCCCC(=O)OCC(CC)CCCC)OCC(CCCC)CC

> <STRUCTURE_SMILES_Desalt>
O=C(CCCCCCCCC(=O)OCC(CC)CCCC)OCC(CCCC)CC

> <Substance_modify_yyyymmdd>
20080429

$$$$
