122-64-5
ChemmineR-0915142007XD

 13 13  0  0  0  0  0  0  0  0  1 V2000
    1.1449   -1.9996    0.0000 C    0  0  0  0  0  0  0  0  0  0  0  0
    2.2979   -1.3384    0.0000 C    0  0  0  0  0  0  0  0  0  0  0  0
    1.1449   -3.3299    0.0000 C    0  0  0  0  0  0  0  0  0  0  0  0
    0.0000   -1.3223    0.0000 O    0  0  0  0  0  0  0  0  0  0  0  0
    3.4589   -2.0157    0.0000 O    0  0  0  0  0  0  0  0  0  0  0  0
    2.2979    0.0000    0.0000 O    0  0  0  0  0  0  0  0  0  0  0  0
    4.6038   -1.3707    0.0000 Hg   0  0  0  0  0  0  0  0  0  0  0  0
    6.8856   -4.0394    0.0000 C    0  0  0  0  0  0  0  0  0  0  0  0
    8.0466   -3.3944    0.0000 C    0  0  0  0  0  0  0  0  0  0  0  0
    8.0627   -2.0560    0.0000 C    0  0  0  0  0  0  0  0  0  0  0  0
    6.9178   -1.3868    0.0000 C    0  0  0  0  0  0  0  0  0  0  0  0
    5.7487   -2.0399    0.0000 C    0  0  0  0  0  0  0  0  0  0  0  0
    5.7487   -3.3622    0.0000 C    0  0  0  0  0  0  0  0  0  0  0  0
  1  2  1  0  0  0  0
  1  4  1  0  0  0  0
  1  3  1  0  0  0  0
  2  5  1  0  0  0  0
  2  6  2  0  0  0  0
  5  7  1  0  0  0  0
  7 12  1  0  0  0  0
  8 13  2  0  0  0  0
  8  9  1  0  0  0  0
  9 10  2  0  0  0  0
 10 11  1  0  0  0  0
 11 12  2  0  0  0  0
 12 13  1  0  0  0  0
M  END
> <ID>
10179

> <Formula>
C9H10HgO3

> <FW>
366.7639

> <DSSTox_CID>
24525

> <DSSTox_RID>
80291

> <DSSTox_GSID>
44525

> <DSSTox_FileID_Sort>
4973

> <TS_ChemName>
Phenylmercuric lactate

> <TS_ChemName_Synonyms>


> <TS_CASRN>
122-64-5

> <CASRN_ChemName_Relationship>
primary

> <TS_Description>
single chemical compound

> <ChemNote>


> <STRUCTURE_Shown>
tested chemical

> <STRUCTURE_Formula>
C9H10HgO3

> <STRUCTURE_MW>
366.7639

> <STRUCTURE_ChemType>
organometallic

> <STRUCTURE_DefinedOrganicForm>


> <STRUCTURE_IUPAC>
(2-hydroxypropanoato-kappaO)(phenyl)mercury

> <STRUCTURE_SMILES>
CC(O)C(=O)O[Hg]c1ccccc1

> <STRUCTURE_SMILES_Desalt>
CC(O)C(=O)O[Hg]c1ccccc1

> <Substance_modify_yyyymmdd>
20091116

$$$$
