122008-85-9
ChemmineR-0915142007XD

 26 27  0  0  1  0  0  0  0  0  1 V2000
   11.5144   -2.6652    0.0000 C   0  0  0  0  0  0  0  0  0  0  0  0
   10.3614   -3.3390    0.0000 O   0  0  0  0  0  0  0  0  0  0  0  0
   12.6673   -3.3390    0.0000 O   0  0  0  0  0  0  0  0  0  0  0  0
   11.5144   -1.3326    0.0000 C   0  0  0  0  0  0  0  0  0  0  0  0
   12.6673   -0.6738    0.0000 C   0  0  0  0  0  0  0  0  0  0  0  0
   10.3614   -0.6738    0.0000 O   0  0  0  0  0  0  0  0  0  0  0  0
    9.2085   -1.3326    0.0000 C   0  0  0  0  0  0  0  0  0  0  0  0
    9.2085   -2.6652    0.0000 C   0  0  0  0  0  0  0  0  0  0  0  0
    8.0556   -0.6738    0.0000 C   0  0  0  0  0  0  0  0  0  0  0  0
    8.0556   -3.3390    0.0000 C   0  0  0  0  0  0  0  0  0  0  0  0
    6.9176   -1.3326    0.0000 C   0  0  0  0  0  0  0  0  0  0  0  0
    6.9176   -2.6652    0.0000 C   0  0  0  0  0  0  0  0  0  0  0  0
    5.7647   -3.3390    0.0000 O   0  0  0  0  0  0  0  0  0  0  0  0
    4.6117   -2.6652    0.0000 C   0  0  0  0  0  0  0  0  0  0  0  0
    3.4588   -3.3390    0.0000 C   0  0  0  0  0  0  0  0  0  0  0  0
    4.6117   -1.3326    0.0000 C   0  0  0  0  0  0  0  0  0  0  0  0
    2.3059   -2.6652    0.0000 C   0  0  0  0  0  0  0  0  0  0  0  0
    3.4588   -0.6738    0.0000 C   0  0  0  0  0  0  0  0  0  0  0  0
    2.3059   -1.3326    0.0000 C   0  0  0  0  0  0  0  0  0  0  0  0
    1.1529   -0.6738    0.0000 C   0  0  0  0  0  0  0  0  0  0  0  0
    0.0000    0.0000    0.0000 N   0  0  0  0  0  0  0  0  0  0  0  0
    3.4588   -4.6567    0.0000 F   0  0  0  0  0  0  0  0  0  0  0  0
   12.6673   -4.6567    0.0000 C   0  0  0  0  0  0  0  0  0  0  0  0
   13.8203   -5.3305    0.0000 C   0  0  0  0  0  0  0  0  0  0  0  0
   13.8203   -6.6631    0.0000 C   0  0  0  0  0  0  0  0  0  0  0  0
   14.9732   -7.3219    0.0000 C   0  0  0  0  0  0  0  0  0  0  0  0
  1  2  2  0  0  0  0
  1  3  1  0  0  0  0
  1  4  1  0  0  0  0
  3 23  1  0  0  0  0
  4  5  1  6  0  0  0
  4  6  1  0  0  0  0
  6  7  1  0  0  0  0
  7  8  2  0  0  0  0
  7  9  1  0  0  0  0
  8 10  1  0  0  0  0
  9 11  2  0  0  0  0
 10 12  2  0  0  0  0
 11 12  1  0  0  0  0
 12 13  1  0  0  0  0
 13 14  1  0  0  0  0
 14 15  2  0  0  0  0
 14 16  1  0  0  0  0
 15 17  1  0  0  0  0
 15 22  1  0  0  0  0
 16 18  2  0  0  0  0
 17 19  2  0  0  0  0
 18 19  1  0  0  0  0
 19 20  1  0  0  0  0
 20 21  3  0  0  0  0
 23 24  1  0  0  0  0
 24 25  1  0  0  0  0
 25 26  1  0  0  0  0
M  END
> <ID>
6814

> <Formula>
C20H20FNO4

> <FW>
357.3755

> <DSSTox_CID>
14503

> <DSSTox_RID>
79160

> <DSSTox_GSID>
34503

> <DSSTox_FileID_Sort>
3842

> <TS_ChemName>
Cyhalofop-butyl

> <TS_ChemName_Synonyms>
Cyhalofop-butyl (Propanoic acid, 2-[4-(4-cyano-2-fluorophenoxy)phenoxy]-, butyl ester, (R)-)

> <TS_CASRN>
122008-85-9

> <CASRN_ChemName_Relationship>
primary

> <TS_Description>
single chemical compound

> <ChemNote>
stereochem

> <STRUCTURE_Shown>
tested chemical

> <STRUCTURE_Formula>
C20H20FNO4

> <STRUCTURE_MW>
357.3755

> <STRUCTURE_ChemType>
defined organic

> <STRUCTURE_DefinedOrganicForm>
parent

> <STRUCTURE_IUPAC>
butyl (2R)-2-[4-(4-cyano-2-fluorophenoxy)phenoxy]propanoate

> <STRUCTURE_SMILES>
O=C(OCCCC)[C@@H](C)Oc1ccc(cc1)Oc2ccc(cc2F)C#N

> <STRUCTURE_SMILES_Desalt>
O=C(OCCCC)[C@@H](C)Oc1ccc(cc1)Oc2ccc(cc2F)C#N

> <Substance_modify_yyyymmdd>
20080429

$$$$
