1220-83-3
ChemmineR-0915142007XD

 19 20  0  0  0  0  0  0  0  0  1 V2000
   10.5892    0.0000    0.0000 C   0  0  0  0  0  0  0  0  0  0  0  0
    9.2550    0.0000    0.0000 O   0  0  0  0  0  0  0  0  0  0  0  0
    8.5985   -1.1648    0.0000 C   0  0  0  0  0  0  0  0  0  0  0  0
    9.2550   -2.3190    0.0000 N   0  0  0  0  0  0  0  0  0  0  0  0
    8.5985   -3.4627    0.0000 C   0  0  0  0  0  0  0  0  0  0  0  0
    7.2642   -3.4627    0.0000 N   0  0  0  0  0  0  0  0  0  0  0  0
    6.6077   -2.3190    0.0000 C   0  0  0  0  0  0  0  0  0  0  0  0
    7.2642   -1.1648    0.0000 C   0  0  0  0  0  0  0  0  0  0  0  0
    5.2734   -2.3190    0.0000 N   0  0  0  0  0  0  0  0  0  0  0  0
    4.6169   -3.4627    0.0000 S   0  0  0  0  0  0  0  0  0  0  0  0
    3.9392   -4.6169    0.0000 O   0  0  0  0  0  0  0  0  0  0  0  0
    5.7711   -4.1298    0.0000 O   0  0  0  0  0  0  0  0  0  0  0  0
    3.4521   -2.8061    0.0000 C   0  0  0  0  0  0  0  0  0  0  0  0
    2.2979   -3.4627    0.0000 C   0  0  0  0  0  0  0  0  0  0  0  0
    1.1542   -2.8061    0.0000 C   0  0  0  0  0  0  0  0  0  0  0  0
    1.1542   -1.4719    0.0000 C   0  0  0  0  0  0  0  0  0  0  0  0
    0.0000   -0.8048    0.0000 N   0  0  0  0  0  0  0  0  0  0  0  0
    2.2979   -0.8048    0.0000 C   0  0  0  0  0  0  0  0  0  0  0  0
    3.4521   -1.4719    0.0000 C   0  0  0  0  0  0  0  0  0  0  0  0
  1  2  1  0  0  0  0
  2  3  1  0  0  0  0
  3  4  2  0  0  0  0
  3  8  1  0  0  0  0
  4  5  1  0  0  0  0
  5  6  2  0  0  0  0
  6  7  1  0  0  0  0
  7  8  2  0  0  0  0
  7  9  1  0  0  0  0
  9 10  1  0  0  0  0
 10 11  2  0  0  0  0
 10 12  2  0  0  0  0
 10 13  1  0  0  0  0
 13 14  2  0  0  0  0
 13 19  1  0  0  0  0
 14 15  1  0  0  0  0
 15 16  2  0  0  0  0
 16 17  1  0  0  0  0
 16 18  1  0  0  0  0
 18 19  2  0  0  0  0
M  END
> <ID>
10888

> <Formula>
C11H12N4O3S

> <FW>
280.303

> <DSSTox_CID>
25351

> <DSSTox_RID>
80818

> <DSSTox_GSID>
45351

> <DSSTox_FileID_Sort>
5499

> <TS_ChemName>
Sulfamonomethoxine

> <TS_ChemName_Synonyms>


> <TS_CASRN>
1220-83-3

> <CASRN_ChemName_Relationship>
primary

> <TS_Description>
single chemical compound

> <ChemNote>


> <STRUCTURE_Shown>
tested chemical

> <STRUCTURE_Formula>
C11H12N4O3S

> <STRUCTURE_MW>
280.303

> <STRUCTURE_ChemType>
defined organic

> <STRUCTURE_DefinedOrganicForm>
parent

> <STRUCTURE_IUPAC>
4-amino-N-(6-methoxypyrimidin-4-yl)benzenesulfonamide

> <STRUCTURE_SMILES>
O=S(=O)(Nc1cc(OC)ncn1)c2ccc(N)cc2

> <STRUCTURE_SMILES_Desalt>
O=S(=O)(Nc1cc(OC)ncn1)c2ccc(N)cc2

> <Substance_modify_yyyymmdd>
20100107

$$$$
