122111-03-9
ChemmineR-0915142007XD

 19 19  0  0  1  0  0  0  0  0  1 V2000
    4.2249   -6.1179    0.0000 C    0  0  0  0  0  0  0  0  0  0  0  0
    4.2249   -3.8205    0.0000 N    0  0  0  0  0  0  0  0  0  0  0  0
    3.8205   -7.3226    0.0000 C    0  0  0  0  0  0  0  0  0  0  0  0
    3.2268   -5.3779    0.0000 O    0  0  0  0  0  0  0  0  0  0  0  0
    3.1149   -3.2095    0.0000 C    0  0  0  0  0  0  0  0  0  0  0  0
    5.3349   -3.2095    0.0000 C    0  0  0  0  0  0  0  0  0  0  0  0
    2.5470   -7.3226    0.0000 C    0  0  0  0  0  0  0  0  0  0  0  0
    4.9821   -7.8819    0.0000 F    0  0  0  0  0  0  0  0  0  0  0  0
    3.8377   -8.6047    0.0000 F    0  0  0  0  0  0  0  0  0  0  0  0
    2.1598   -6.1093    0.0000 C    0  0  0  0  0  0  0  0  0  0  0  0
    3.1149   -1.9102    0.0000 N    0  0  0  0  0  0  0  0  0  0  0  0
    2.0221   -3.8205    0.0000 O    0  0  0  0  0  0  0  0  0  0  0  0
    5.3349   -1.9102    0.0000 C    0  0  0  0  0  0  0  0  0  0  0  0
    1.7898   -8.3465    0.0000 O    0  0  0  0  0  0  0  0  0  0  0  0
    0.9551   -5.6877    0.0000 C    0  0  0  0  0  0  0  0  0  0  0  0
    4.2249   -1.2821    0.0000 C    0  0  0  0  0  0  0  0  0  0  0  0
    0.0000   -6.5395    0.0000 O    0  0  0  0  0  0  0  0  0  0  0  0
    4.2249    0.0000    0.0000 N    0  0  0  0  0  0  0  0  0  0  0  0
    5.8168   -4.6723    0.0000 Cl   0  0  0  0  0  0  0  0  0  0  0  0
  1  2  1  1  0  0  0
  1  3  1  0  0  0  0
  1  4  1  0  0  0  0
  2  5  1  0  0  0  0
  2  6  1  0  0  0  0
  3  7  1  0  0  0  0
  3  8  1  0  0  0  0
  3  9  1  0  0  0  0
  4 10  1  0  0  0  0
  5 11  1  0  0  0  0
  5 12  2  0  0  0  0
  6 13  2  0  0  0  0
  7 14  1  6  0  0  0
  7 10  1  0  0  0  0
 10 15  1  1  0  0  0
 11 16  2  0  0  0  0
 13 16  1  0  0  0  0
 15 17  1  0  0  0  0
 16 18  1  0  0  0  0
M  END
> <ID>
12926

> <Formula>
C9H12ClF2N3O4

> <FW>
299.6591 (263.1981+36.4609)

> <DSSTox_CID>
27827

> <DSSTox_RID>
82590

> <DSSTox_GSID>
47849

> <DSSTox_FileID_Sort>
7267

> <TS_ChemName>
Gemcitabine hydrochloride

> <TS_ChemName_Synonyms>


> <TS_CASRN>
122111-03-9

> <CASRN_ChemName_Relationship>
primary

> <TS_Description>
single chemical compound

> <ChemNote>
stereochem; parent [95058-81-4]

> <STRUCTURE_Shown>
tested chemical

> <STRUCTURE_Formula>
C9H12ClF2N3O4

> <STRUCTURE_MW>
299.6591

> <STRUCTURE_ChemType>
defined organic

> <STRUCTURE_DefinedOrganicForm>
complex

> <STRUCTURE_IUPAC>
2'-deoxy-2',2'-difluorocytidine hydrochloride (1:1)

> <STRUCTURE_SMILES>
Cl.NC1=NC(=O)N(C=C1)[C@@H]2O[C@H](CO)[C@@H](O)C2(F)F

> <STRUCTURE_SMILES_Desalt>
NC1=NC(=O)N(C=C1)[C@@H]2O[C@H](CO)[C@@H](O)C2(F)F

> <Substance_modify_yyyymmdd>
20110802

$$$$
