1221-56-3
ChemmineR-0915142007XD

 20 19  0  0  0  0  0  0  0  0  2 V2000
    6.8990   -3.3230    0.0000 C    0  0  0  0  0  0  0  0  0  0  0  0
    4.5993   -3.3230    0.0000 C    0  0  0  0  0  0  0  0  0  0  0  0
    5.7492   -2.6561    0.0000 C    0  0  0  0  0  0  0  0  0  0  0  0
    8.0604   -2.6561    0.0000 N    0  0  0  0  0  0  0  0  0  0  0  0
    6.8990   -4.6568    0.0000 C    0  0  0  0  0  0  0  0  0  0  0  0
    4.5993   -4.6568    0.0000 C    0  0  0  0  0  0  0  0  0  0  0  0
    5.7492   -5.3122    0.0000 C    0  0  0  0  0  0  0  0  0  0  0  0
    9.2102   -2.0007    0.0000 C    0  0  0  0  0  0  0  0  0  0  0  0
    3.4380   -2.6561    0.0000 C    0  0  0  0  0  0  0  0  0  0  0  0
    1.1383   -2.6561    0.0000 C    0  0  0  0  0  0  0  0  0  0  0  0
    0.0000   -3.3230    0.0000 O    0  5  0  0  0  0  0  0  0  0  0  0
   10.3600   -1.3223    0.0000 N    0  0  0  0  0  0  0  0  0  0  0  0
    5.7492   -1.3223    0.0000 I    0  0  0  0  0  0  0  0  0  0  0  0
    2.2882   -3.3230    0.0000 C    0  0  0  0  0  0  0  0  0  0  0  0
    8.0604   -5.3122    0.0000 I    0  0  0  0  0  0  0  0  0  0  0  0
    3.4380   -5.3122    0.0000 I    0  0  0  0  0  0  0  0  0  0  0  0
    1.1383   -1.3223    0.0000 O    0  0  0  0  0  0  0  0  0  0  0  0
   10.3600    0.0000    0.0000 C    0  0  0  0  0  0  0  0  0  0  0  0
   11.4984   -2.0007    0.0000 C    0  0  0  0  0  0  0  0  0  0  0  0
    0.7819   -4.3464    0.0000 Na   0  3  0  0  0  0  0  0  0  0  0  0
  1  3  2  0  0  0  0
  1  4  1  0  0  0  0
  1  5  1  0  0  0  0
  2  3  1  0  0  0  0
  2  9  1  0  0  0  0
  2  6  2  0  0  0  0
  3 13  1  0  0  0  0
  4  8  2  0  0  0  0
  5  7  2  0  0  0  0
  5 15  1  0  0  0  0
  6  7  1  0  0  0  0
  6 16  1  0  0  0  0
  8 12  1  0  0  0  0
  9 14  1  0  0  0  0
 10 14  1  0  0  0  0
 10 11  1  0  0  0  0
 10 17  2  0  0  0  0
 12 18  1  0  0  0  0
 12 19  1  0  0  0  0
M  END
> <ID>
13330

> <Formula>
C12H12I3N2NaO2

> <FW>
619.9391 (596.9498+22.9892)

> <DSSTox_CID>
28246

> <DSSTox_RID>
82748

> <DSSTox_GSID>
48271

> <DSSTox_FileID_Sort>
7425

> <TS_ChemName>
Ipodate sodium

> <TS_ChemName_Synonyms>


> <TS_CASRN>
1221-56-3

> <CASRN_ChemName_Relationship>
primary

> <TS_Description>
single chemical compound

> <ChemNote>
parent [5587-89-3]

> <STRUCTURE_Shown>
tested chemical

> <STRUCTURE_Formula>
C12H12I3N2NaO2

> <STRUCTURE_MW>
619.9391

> <STRUCTURE_ChemType>
defined organic

> <STRUCTURE_DefinedOrganicForm>
salt

> <STRUCTURE_IUPAC>
sodium 3-(3-{[(dimethylamino)methylidene]amino}-2,4,6-triiodophenyl)propanoate

> <STRUCTURE_SMILES>
[Na+].[O-]C(=O)CCc1c(I)c(/N=C/N(C)C)c(I)cc1I

> <STRUCTURE_SMILES_Desalt>
O=C(O)CCc1c(I)c(/N=C/N(C)C)c(I)cc1I

> <Substance_modify_yyyymmdd>
20110729

$$$$
