1222-98-6
ChemmineR-0915142007XD

 21 22  0  0  0  0  0  0  0  0  2 V2000
    0.0000   -3.3130    0.0000 C   0  0  0  0  0  0  0  0  0  0  0  0
    1.1388   -3.9860    0.0000 C   0  0  0  0  0  0  0  0  0  0  0  0
    0.0000   -1.9774    0.0000 C   0  0  0  0  0  0  0  0  0  0  0  0
    2.2984   -3.3234    0.0000 C   0  0  0  0  0  0  0  0  0  0  0  0
    1.1388   -1.3148    0.0000 C   0  0  0  0  0  0  0  0  0  0  0  0
    5.7253   -5.3215    0.0000 C   0  0  0  0  0  0  0  0  0  0  0  0
    6.8848   -3.3234    0.0000 C   0  0  0  0  0  0  0  0  0  0  0  0
    4.5864   -3.3234    0.0000 C   0  0  0  0  0  0  0  0  0  0  0  0
    6.8848   -5.9945    0.0000 C   0  0  0  0  0  0  0  0  0  0  0  0
    8.0340   -4.0067    0.0000 C   0  0  0  0  0  0  0  0  0  0  0  0
    4.5864   -2.0085    0.0000 C   0  0  0  0  0  0  0  0  0  0  0  0
    5.7253   -3.9860    0.0000 C   0  0  0  0  0  0  0  0  0  0  0  0
    2.2984   -1.9774    0.0000 C   0  0  0  0  0  0  0  0  0  0  0  0
    8.0340   -5.3319    0.0000 C   0  0  0  0  0  0  0  0  0  0  0  0
    3.4372   -1.3356    0.0000 C   0  0  0  0  0  0  0  0  0  0  0  0
    9.1936   -5.9945    0.0000 N   0  3  0  0  0  0  0  0  0  0  0  0
    3.4372    0.0000    0.0000 O   0  0  0  0  0  0  0  0  0  0  0  0
   10.3531   -5.3319    0.0000 O   0  5  0  0  0  0  0  0  0  0  0  0
    9.1936   -7.3300    0.0000 O   0  0  0  0  0  0  0  0  0  0  0  0
    3.4269   -3.9860    0.0000 H   0  0  0  0  0  0  0  0  0  0  0  0
    5.7253   -1.3459    0.0000 H   0  0  0  0  0  0  0  0  0  0  0  0
  1  2  2  0  0  0  0
  1  3  1  0  0  0  0
  2  4  1  0  0  0  0
  3  5  2  0  0  0  0
  4 13  2  0  0  0  0
  5 13  1  0  0  0  0
  6  9  1  0  0  0  0
  6 12  2  0  0  0  0
  7 10  2  0  0  0  0
  7 12  1  0  0  0  0
  8 20  1  0  0  0  0
  8 11  2  0  0  0  0
  8 12  1  0  0  0  0
  9 14  2  0  0  0  0
 10 14  1  0  0  0  0
 11 21  1  0  0  0  0
 11 15  1  0  0  0  0
 13 15  1  0  0  0  0
 14 16  1  0  0  0  0
 15 17  2  0  0  0  0
 16 18  1  0  0  0  0
 16 19  2  0  0  0  0
M  END
> <ID>
14074

> <Formula>
C15H11NO3

> <FW>
253.2527

> <DSSTox_CID>
29067

> <DSSTox_RID>
83286

> <DSSTox_GSID>
49211

> <DSSTox_FileID_Sort>
7961

> <TS_ChemName>
4-Nitrochalcone

> <TS_ChemName_Synonyms>


> <TS_CASRN>
1222-98-6

> <CASRN_ChemName_Relationship>
primary

> <TS_Description>
single chemical compound

> <ChemNote>


> <STRUCTURE_Shown>
tested chemical

> <STRUCTURE_Formula>
C15H11NO3

> <STRUCTURE_MW>
253.2527

> <STRUCTURE_ChemType>
defined organic

> <STRUCTURE_DefinedOrganicForm>
parent

> <STRUCTURE_IUPAC>
(2E)-3-(4-nitrophenyl)-1-phenylprop-2-en-1-one

> <STRUCTURE_SMILES>
O=[N+]([O-])c1ccc(cc1)\C=C\C(=O)c2ccccc2

> <STRUCTURE_SMILES_Desalt>
O=[N+]([O-])c1ccc(cc1)\C=C\C(=O)c2ccccc2

> <Substance_modify_yyyymmdd>
20111204

$$$$
