1222-57-7
ChemmineR-0915142007XD

 19 21  0  0  0  0  0  0  0  0  1 V2000
    8.0314   -6.5631    0.0000 C   0  0  0  0  0  0  0  0  0  0  0  0
    8.7015   -5.4101    0.0000 S   0  0  0  0  0  0  0  0  0  0  0  0
    9.3617   -4.2571    0.0000 O   0  0  0  0  0  0  0  0  0  0  0  0
    9.8544   -6.0802    0.0000 O   0  0  0  0  0  0  0  0  0  0  0  0
    7.5485   -4.7597    0.0000 C   0  0  0  0  0  0  0  0  0  0  0  0
    7.5485   -3.4293    0.0000 C   0  0  0  0  0  0  0  0  0  0  0  0
    6.3955   -2.7592    0.0000 C   0  0  0  0  0  0  0  0  0  0  0  0
    5.2426   -3.4293    0.0000 C   0  0  0  0  0  0  0  0  0  0  0  0
    5.2426   -4.7597    0.0000 C   0  0  0  0  0  0  0  0  0  0  0  0
    6.3955   -5.4101    0.0000 C   0  0  0  0  0  0  0  0  0  0  0  0
    4.0994   -2.7592    0.0000 C   0  0  0  0  0  0  0  0  0  0  0  0
    3.9516   -1.4289    0.0000 C   0  0  0  0  0  0  0  0  0  0  0  0
    2.6508   -1.1530    0.0000 N   0  0  0  0  0  0  0  0  0  0  0  0
    1.9807    0.0000    0.0000 C   0  0  0  0  0  0  0  0  0  0  0  0
    0.6602    0.0000    0.0000 C   0  0  0  0  0  0  0  0  0  0  0  0
    0.0000   -1.1530    0.0000 C   0  0  0  0  0  0  0  0  0  0  0  0
    0.6602   -2.3059    0.0000 C   0  0  0  0  0  0  0  0  0  0  0  0
    1.9807   -2.3059    0.0000 C   0  0  0  0  0  0  0  0  0  0  0  0
    2.8775   -3.3012    0.0000 N   0  0  0  0  0  0  0  0  0  0  0  0
  1  2  1  0  0  0  0
  2  3  2  0  0  0  0
  2  4  2  0  0  0  0
  2  5  1  0  0  0  0
  5  6  2  0  0  0  0
  5 10  1  0  0  0  0
  6  7  1  0  0  0  0
  7  8  2  0  0  0  0
  8  9  1  0  0  0  0
  8 11  1  0  0  0  0
  9 10  2  0  0  0  0
 11 12  2  0  0  0  0
 11 19  1  0  0  0  0
 12 13  1  0  0  0  0
 13 14  1  0  0  0  0
 13 18  1  0  0  0  0
 14 15  2  0  0  0  0
 15 16  1  0  0  0  0
 16 17  2  0  0  0  0
 17 18  1  0  0  0  0
 18 19  2  0  0  0  0
M  END
> <ID>
16034

> <Formula>
C14H12N2O2S

> <FW>
272.3223

> <DSSTox_CID>
31419

> <DSSTox_RID>
97305

> <DSSTox_GSID>
57630

> <DSSTox_FileID_Sort>
8372

> <TS_ChemName>
Zolimidine

> <TS_ChemName_Synonyms>


> <TS_CASRN>
1222-57-7

> <CASRN_ChemName_Relationship>
primary

> <TS_Description>
single chemical compound

> <ChemNote>


> <STRUCTURE_Shown>
tested chemical

> <STRUCTURE_Formula>
C14H12N2O2S

> <STRUCTURE_MW>
272.3223

> <STRUCTURE_ChemType>
defined organic

> <STRUCTURE_DefinedOrganicForm>
parent

> <STRUCTURE_IUPAC>
2-[4-(methylsulfonyl)phenyl]imidazo[1,2-a]pyridine

> <STRUCTURE_SMILES>
CS(=O)(=O)c1ccc(cc1)c2cn3ccccc3n2

> <STRUCTURE_SMILES_Desalt>
CS(=O)(=O)c1ccc(cc1)c2cn3ccccc3n2

> <Substance_modify_yyyymmdd>
20131018

$$$$
