1223-36-5
ChemmineR-0915142007XD

 19 19  0  0  0  0  0  0  0  0  1 V2000
    1.1446   -1.9721    0.0000 C    0  0  0  0  0  0  0  0  0  0  0  0
    1.1446   -0.6344    0.0000 C    0  0  0  0  0  0  0  0  0  0  0  0
    2.2893    0.0000    0.0000 C    0  0  0  0  0  0  0  0  0  0  0  0
    3.4615   -0.6344    0.0000 C    0  0  0  0  0  0  0  0  0  0  0  0
    3.4615   -1.9721    0.0000 C    0  0  0  0  0  0  0  0  0  0  0  0
    2.2893   -2.6478    0.0000 C    0  0  0  0  0  0  0  0  0  0  0  0
    4.5923   -2.6478    0.0000 O    0  0  0  0  0  0  0  0  0  0  0  0
    5.7508   -1.9721    0.0000 C    0  0  0  0  0  0  0  0  0  0  0  0
    6.8954   -2.6478    0.0000 C    0  0  0  0  0  0  0  0  0  0  0  0
    8.0400   -1.9721    0.0000 N    0  0  0  0  0  0  0  0  0  0  0  0
    9.1985   -2.6478    0.0000 C    0  0  0  0  0  0  0  0  0  0  0  0
   10.3293   -1.9721    0.0000 C    0  0  0  0  0  0  0  0  0  0  0  0
   11.4877   -2.6478    0.0000 N    0  0  0  0  0  0  0  0  0  0  0  0
    6.8954   -3.9717    0.0000 O    0  0  0  0  0  0  0  0  0  0  0  0
   12.6462   -1.9721    0.0000 C    0  0  0  0  0  0  0  0  0  0  0  0
   11.4877   -3.9717    0.0000 C    0  0  0  0  0  0  0  0  0  0  0  0
   12.6462   -4.6199    0.0000 C    0  0  0  0  0  0  0  0  0  0  0  0
   13.7908   -2.6478    0.0000 C    0  0  0  0  0  0  0  0  0  0  0  0
    0.0000    0.0000    0.0000 Cl   0  0  0  0  0  0  0  0  0  0  0  0
  1  6  1  0  0  0  0
  1  2  2  0  0  0  0
  2  3  1  0  0  0  0
  2 19  1  0  0  0  0
  3  4  2  0  0  0  0
  4  5  1  0  0  0  0
  5  6  2  0  0  0  0
  5  7  1  0  0  0  0
  7  8  1  0  0  0  0
  8  9  1  0  0  0  0
  9 10  1  0  0  0  0
  9 14  2  0  0  0  0
 10 11  1  0  0  0  0
 11 12  1  0  0  0  0
 12 13  1  0  0  0  0
 13 15  1  0  0  0  0
 13 16  1  0  0  0  0
 15 18  1  0  0  0  0
 16 17  1  0  0  0  0
M  END
> <ID>
11668

> <Formula>
C14H21ClN2O2

> <FW>
284.7817

> <DSSTox_CID>
26424

> <DSSTox_RID>
81602

> <DSSTox_GSID>
46424

> <DSSTox_FileID_Sort>
6283

> <TS_ChemName>
Clofexamide

> <TS_ChemName_Synonyms>


> <TS_CASRN>
1223-36-5

> <CASRN_ChemName_Relationship>
primary

> <TS_Description>
single chemical compound

> <ChemNote>


> <STRUCTURE_Shown>
tested chemical

> <STRUCTURE_Formula>
C14H21ClN2O2

> <STRUCTURE_MW>
284.7817

> <STRUCTURE_ChemType>
defined organic

> <STRUCTURE_DefinedOrganicForm>
parent

> <STRUCTURE_IUPAC>
2-(4-chlorophenoxy)-N-[2-(diethylamino)ethyl]acetamide

> <STRUCTURE_SMILES>
Clc1ccc(OCC(=O)NCCN(CC)CC)cc1

> <STRUCTURE_SMILES_Desalt>
Clc1ccc(OCC(=O)NCCN(CC)CC)cc1

> <Substance_modify_yyyymmdd>
20110813

$$$$
