122320-73-4
ChemmineR-0915142007XD

 25 27  0  0  0  0  0  0  0  0  1 V2000
    4.6083   -2.6722    0.0000 C   0  0  0  0  0  0  0  0  0  0  0  0
    5.7443   -2.0001    0.0000 C   0  0  0  0  0  0  0  0  0  0  0  0
    6.8964   -2.6722    0.0000 O   0  0  0  0  0  0  0  0  0  0  0  0
    8.0485   -2.0001    0.0000 C   0  0  0  0  0  0  0  0  0  0  0  0
    8.0485   -0.6720    0.0000 C   0  0  0  0  0  0  0  0  0  0  0  0
    9.2005   -2.6722    0.0000 C   0  0  0  0  0  0  0  0  0  0  0  0
    9.2005    0.0000    0.0000 C   0  0  0  0  0  0  0  0  0  0  0  0
   10.3686   -2.0001    0.0000 C   0  0  0  0  0  0  0  0  0  0  0  0
   10.3686   -0.6720    0.0000 C   0  0  0  0  0  0  0  0  0  0  0  0
   11.5047    0.0000    0.0000 C   0  0  0  0  0  0  0  0  0  0  0  0
   12.6567   -0.6720    0.0000 C   0  0  0  0  0  0  0  0  0  0  0  0
   13.9208   -0.2720    0.0000 S   0  0  0  0  0  0  0  0  0  0  0  0
   12.6567   -2.0001    0.0000 C   0  0  0  0  0  0  0  0  0  0  0  0
   14.7048   -1.3761    0.0000 C   0  0  0  0  0  0  0  0  0  0  0  0
   13.9048   -2.4161    0.0000 N   0  0  0  0  0  0  0  0  0  0  0  0
   16.0009   -1.3761    0.0000 O   0  0  0  0  0  0  0  0  0  0  0  0
   11.5527   -2.7682    0.0000 O   0  0  0  0  0  0  0  0  0  0  0  0
    2.2881   -2.6722    0.0000 C   0  0  0  0  0  0  0  0  0  0  0  0
    2.2881   -4.0162    0.0000 C   0  0  0  0  0  0  0  0  0  0  0  0
    1.1521   -2.0001    0.0000 N   0  0  0  0  0  0  0  0  0  0  0  0
    1.1521   -4.6563    0.0000 C   0  0  0  0  0  0  0  0  0  0  0  0
    0.0000   -2.6722    0.0000 C   0  0  0  0  0  0  0  0  0  0  0  0
    0.0000   -4.0162    0.0000 C   0  0  0  0  0  0  0  0  0  0  0  0
    3.4402   -2.0001    0.0000 N   0  0  0  0  0  0  0  0  0  0  0  0
    3.4402   -0.6720    0.0000 C   0  0  0  0  0  0  0  0  0  0  0  0
  1  2  1  0  0  0  0
  1 24  1  0  0  0  0
  2  3  1  0  0  0  0
  3  4  1  0  0  0  0
  4  5  1  0  0  0  0
  4  6  2  0  0  0  0
  5  7  2  0  0  0  0
  6  8  1  0  0  0  0
  7  9  1  0  0  0  0
  8  9  2  0  0  0  0
  9 10  1  0  0  0  0
 10 11  1  0  0  0  0
 11 12  1  0  0  0  0
 11 13  1  0  0  0  0
 12 14  1  0  0  0  0
 13 15  1  0  0  0  0
 13 17  2  0  0  0  0
 14 15  1  0  0  0  0
 14 16  2  0  0  0  0
 18 19  1  0  0  0  0
 18 20  2  0  0  0  0
 18 24  1  0  0  0  0
 19 21  2  0  0  0  0
 20 22  1  0  0  0  0
 21 23  1  0  0  0  0
 22 23  2  0  0  0  0
 24 25  1  0  0  0  0
M  END
> <ID>
7260

> <Formula>
C18H19N3O3S

> <FW>
357.4268

> <DSSTox_CID>
17131

> <DSSTox_RID>
79303

> <DSSTox_GSID>
37131

> <DSSTox_FileID_Sort>
3985

> <TS_ChemName>
Rosiglitazone

> <TS_ChemName_Synonyms>
Rosiglitazone (RSG) (RGZ) (BRL49653)

> <TS_CASRN>
122320-73-4

> <CASRN_ChemName_Relationship>
primary

> <TS_Description>
single chemical compound

> <ChemNote>


> <STRUCTURE_Shown>
tested chemical

> <STRUCTURE_Formula>
C18H19N3O3S

> <STRUCTURE_MW>
357.4268

> <STRUCTURE_ChemType>
defined organic

> <STRUCTURE_DefinedOrganicForm>
parent

> <STRUCTURE_IUPAC>
5-(4-{2-[methyl(pyridin-2-yl)amino]ethoxy}benzyl)-1,3-thiazolidine-2,4-dione

> <STRUCTURE_SMILES>
CN(CCOc2ccc(CC1SC(=O)NC1=O)cc2)c3ccccn3

> <STRUCTURE_SMILES_Desalt>
CN(CCOc2ccc(CC1SC(=O)NC1=O)cc2)c3ccccn3

> <Substance_modify_yyyymmdd>
20080429

$$$$
