122341-38-2
ChemmineR-0915142007XD

 52 60  0  0  0  0  0  0  0  0  1 V2000
    7.3069  -10.7030    0.0000 C   0  0  0  0  0  0  0  0  0  0  0  0
    8.4683  -10.0267    0.0000 C   0  0  0  0  0  0  0  0  0  0  0  0
    6.1748  -10.0267    0.0000 C   0  0  0  0  0  0  0  0  0  0  0  0
    8.6888   -8.7182    0.0000 N   0  0  0  0  0  0  0  0  0  0  0  0
    9.6592  -10.6442    0.0000 C   0  0  0  0  0  0  0  0  0  0  0  0
   10.6295   -9.6886    0.0000 C   0  0  0  0  0  0  0  0  0  0  0  0
    9.9973   -8.4977    0.0000 C   0  0  0  0  0  0  0  0  0  0  0  0
   10.6736   -7.3510    0.0000 C   0  0  0  0  0  0  0  0  0  0  0  0
    9.9973   -6.2042    0.0000 C   0  0  0  0  0  0  0  0  0  0  0  0
    8.6888   -5.9837    0.0000 N   0  0  0  0  0  0  0  0  0  0  0  0
   10.6295   -5.0281    0.0000 C   0  0  0  0  0  0  0  0  0  0  0  0
    8.4683   -4.6899    0.0000 C   0  0  0  0  0  0  0  0  0  0  0  0
    9.6592   -4.0724    0.0000 C   0  0  0  0  0  0  0  0  0  0  0  0
    7.3069   -3.9989    0.0000 C   0  0  0  0  0  0  0  0  0  0  0  0
    6.1748   -4.6899    0.0000 C   0  0  0  0  0  0  0  0  0  0  0  0
    5.9837   -5.9837    0.0000 N   0  0  0  0  0  0  0  0  0  0  0  0
    4.6752   -6.2042    0.0000 C   0  0  0  0  0  0  0  0  0  0  0  0
    4.0577   -5.0281    0.0000 C   0  0  0  0  0  0  0  0  0  0  0  0
    5.0134   -4.0724    0.0000 C   0  0  0  0  0  0  0  0  0  0  0  0
    3.9989   -7.3510    0.0000 C   0  0  0  0  0  0  0  0  0  0  0  0
    4.6752   -8.4977    0.0000 C   0  0  0  0  0  0  0  0  0  0  0  0
    5.9837   -8.7182    0.0000 N   0  0  0  0  0  0  0  0  0  0  0  0
    5.0134  -10.6442    0.0000 C   0  0  0  0  0  0  0  0  0  0  0  0
    4.0577   -9.6886    0.0000 C   0  0  0  0  0  0  0  0  0  0  0  0
    7.2922   -2.6757    0.0000 C   0  0  0  0  0  0  0  0  0  0  0  0
    6.1307   -2.0289    0.0000 C   0  0  0  0  0  0  0  0  0  0  0  0
    8.4389   -1.9848    0.0000 C   0  0  0  0  0  0  0  0  0  0  0  0
    6.1307   -0.6910    0.0000 C   0  0  0  0  0  0  0  0  0  0  0  0
    8.4389   -0.6763    0.0000 C   0  0  0  0  0  0  0  0  0  0  0  0
    7.2774   -0.0147    0.0000 C   0  0  0  0  0  0  0  0  0  0  0  0
    9.5857    0.0000    0.0000 O   0  0  0  0  0  0  0  0  0  0  0  0
   11.9968   -7.3510    0.0000 C   0  0  0  0  0  0  0  0  0  0  0  0
   12.6584   -6.2042    0.0000 C   0  0  0  0  0  0  0  0  0  0  0  0
   12.6584   -8.4977    0.0000 C   0  0  0  0  0  0  0  0  0  0  0  0
   13.9668   -6.2042    0.0000 C   0  0  0  0  0  0  0  0  0  0  0  0
   13.9668   -8.4977    0.0000 C   0  0  0  0  0  0  0  0  0  0  0  0
   14.6431   -7.3510    0.0000 C   0  0  0  0  0  0  0  0  0  0  0  0
   14.6431   -9.6592    0.0000 O   0  0  0  0  0  0  0  0  0  0  0  0
    7.2922  -12.0409    0.0000 C   0  0  0  0  0  0  0  0  0  0  0  0
    6.1307  -12.7172    0.0000 C   0  0  0  0  0  0  0  0  0  0  0  0
    8.4389  -12.7319    0.0000 C   0  0  0  0  0  0  0  0  0  0  0  0
    6.1307  -14.0109    0.0000 C   0  0  0  0  0  0  0  0  0  0  0  0
    8.4389  -14.0256    0.0000 C   0  0  0  0  0  0  0  0  0  0  0  0
    7.2774  -14.6872    0.0000 C   0  0  0  0  0  0  0  0  0  0  0  0
    9.5857  -14.7019    0.0000 O   0  0  0  0  0  0  0  0  0  0  0  0
    2.6463   -7.3510    0.0000 C   0  0  0  0  0  0  0  0  0  0  0  0
    1.9848   -8.4977    0.0000 C   0  0  0  0  0  0  0  0  0  0  0  0
    1.9848   -6.1895    0.0000 C   0  0  0  0  0  0  0  0  0  0  0  0
    0.6763   -8.4977    0.0000 C   0  0  0  0  0  0  0  0  0  0  0  0
    0.6763   -6.1895    0.0000 C   0  0  0  0  0  0  0  0  0  0  0  0
    0.0000   -7.3510    0.0000 C   0  0  0  0  0  0  0  0  0  0  0  0
    0.0000   -5.0575    0.0000 O   0  0  0  0  0  0  0  0  0  0  0  0
  1  2  2  0  0  0  0
  1  3  1  0  0  0  0
  1 39  1  0  0  0  0
  2  5  1  0  0  0  0
  2  4  1  0  0  0  0
  3 22  2  0  0  0  0
  3 23  1  0  0  0  0
  4  7  1  0  0  0  0
  5  6  2  0  0  0  0
  6  7  1  0  0  0  0
  7  8  2  0  0  0  0
  8  9  1  0  0  0  0
  8 32  1  0  0  0  0
  9 10  2  0  0  0  0
  9 11  1  0  0  0  0
 10 12  1  0  0  0  0
 11 13  1  0  0  0  0
 12 13  1  0  0  0  0
 12 14  2  0  0  0  0
 14 15  1  0  0  0  0
 14 25  1  0  0  0  0
 15 16  1  0  0  0  0
 15 19  2  0  0  0  0
 16 17  1  0  0  0  0
 17 18  2  0  0  0  0
 17 20  1  0  0  0  0
 18 19  1  0  0  0  0
 20 21  2  0  0  0  0
 20 46  1  0  0  0  0
 21 22  1  0  0  0  0
 21 24  1  0  0  0  0
 23 24  2  0  0  0  0
 25 26  1  0  0  0  0
 25 27  2  0  0  0  0
 26 28  2  0  0  0  0
 27 29  1  0  0  0  0
 28 30  1  0  0  0  0
 29 30  2  0  0  0  0
 29 31  1  0  0  0  0
 32 33  1  0  0  0  0
 32 34  2  0  0  0  0
 33 35  2  0  0  0  0
 34 36  1  0  0  0  0
 35 37  1  0  0  0  0
 36 37  2  0  0  0  0
 36 38  1  0  0  0  0
 39 40  1  0  0  0  0
 39 41  2  0  0  0  0
 40 42  2  0  0  0  0
 41 43  1  0  0  0  0
 42 44  1  0  0  0  0
 43 44  2  0  0  0  0
 43 45  1  0  0  0  0
 46 47  1  0  0  0  0
 46 48  2  0  0  0  0
 47 49  2  0  0  0  0
 48 50  1  0  0  0  0
 49 51  1  0  0  0  0
 50 51  2  0  0  0  0
 50 52  1  0  0  0  0
M  END
> <ID>
13616

> <Formula>
C44H32N4O4

> <FW>
680.7493

> <DSSTox_CID>
28545

> <DSSTox_RID>
82817

> <DSSTox_GSID>
48619

> <DSSTox_FileID_Sort>
7494

> <TS_ChemName>
Temoporfin

> <TS_ChemName_Synonyms>


> <TS_CASRN>
122341-38-2

> <CASRN_ChemName_Relationship>
primary

> <TS_Description>
single chemical compound

> <ChemNote>
tautomers

> <STRUCTURE_Shown>
tested chemical

> <STRUCTURE_Formula>
C44H32N4O4

> <STRUCTURE_MW>
680.7493

> <STRUCTURE_ChemType>
defined organic

> <STRUCTURE_DefinedOrganicForm>
parent

> <STRUCTURE_IUPAC>
3,3',3'',3'''-(2,3-dihydroporphyrin-5,10,15,20-tetrayl)tetraphenol

> <STRUCTURE_SMILES>
Oc1cccc(c1)c9c2CCc(n2)c(c3cccc(O)c3)c4ccc(n4)c(c5cccc(O)c5)c6C=Cc(n6)c(c7cccc(O)c7)c8ccc9n8

> <STRUCTURE_SMILES_Desalt>
Oc1cccc(c1)c9c2CCc(n2)c(c3cccc(O)c3)c4ccc(n4)c(c5cccc(O)c5)c6C=Cc(n6)c(c7cccc(O)c7)c8ccc9n8

> <Substance_modify_yyyymmdd>
20111015

$$$$
