122453-73-0
ChemmineR-0915142007XD

 23 24  0  0  0  0  0  0  0  0  1 V2000
    3.6036   -3.9835    0.0000 N    0  0  0  0  0  0  0  0  0  0  0  0
    2.5323   -4.7724    0.0000 C    0  0  0  0  0  0  0  0  0  0  0  0
    4.6750   -4.7724    0.0000 C    0  0  0  0  0  0  0  0  0  0  0  0
    2.9511   -6.0385    0.0000 C    0  0  0  0  0  0  0  0  0  0  0  0
    4.2757   -6.0385    0.0000 C    0  0  0  0  0  0  0  0  0  0  0  0
    5.0451   -7.1099    0.0000 C    0  0  0  0  0  0  0  0  0  0  0  0
    5.8340   -8.1812    0.0000 N    0  0  0  0  0  0  0  0  0  0  0  0
    2.1622   -7.1099    0.0000 Br   0  0  0  0  0  0  0  0  0  0  0  0
    5.9411   -4.3536    0.0000 C    0  0  0  0  0  0  0  0  0  0  0  0
    6.9346   -5.2496    0.0000 C    0  0  0  0  0  0  0  0  0  0  0  0
    6.2333   -3.0582    0.0000 C    0  0  0  0  0  0  0  0  0  0  0  0
    8.2007   -4.8308    0.0000 C    0  0  0  0  0  0  0  0  0  0  0  0
    7.4800   -2.6394    0.0000 C    0  0  0  0  0  0  0  0  0  0  0  0
    8.4734   -3.5355    0.0000 C    0  0  0  0  0  0  0  0  0  0  0  0
    9.7396   -3.1167    0.0000 Cl   0  0  0  0  0  0  0  0  0  0  0  0
    3.6036   -2.6589    0.0000 C    0  0  0  0  0  0  0  0  0  0  0  0
    2.4544   -1.9771    0.0000 O    0  0  0  0  0  0  0  0  0  0  0  0
    2.4544   -0.6526    0.0000 C    0  0  0  0  0  0  0  0  0  0  0  0
    1.2954    0.0000    0.0000 C    0  0  0  0  0  0  0  0  0  0  0  0
    1.2661   -4.3536    0.0000 C    0  0  0  0  0  0  0  0  0  0  0  0
    1.6849   -3.0874    0.0000 F    0  0  0  0  0  0  0  0  0  0  0  0
    0.8473   -5.6197    0.0000 F    0  0  0  0  0  0  0  0  0  0  0  0
    0.0000   -3.9348    0.0000 F    0  0  0  0  0  0  0  0  0  0  0  0
  1  2  1  0  0  0  0
  1  3  1  0  0  0  0
  1 16  1  0  0  0  0
  2  4  2  0  0  0  0
  2 20  1  0  0  0  0
  3  5  2  0  0  0  0
  3  9  1  0  0  0  0
  4  5  1  0  0  0  0
  4  8  1  0  0  0  0
  5  6  1  0  0  0  0
  6  7  3  0  0  0  0
  9 10  2  0  0  0  0
  9 11  1  0  0  0  0
 10 12  1  0  0  0  0
 11 13  2  0  0  0  0
 12 14  2  0  0  0  0
 13 14  1  0  0  0  0
 14 15  1  0  0  0  0
 16 17  1  0  0  0  0
 17 18  1  0  0  0  0
 18 19  1  0  0  0  0
 20 21  1  0  0  0  0
 20 22  1  0  0  0  0
 20 23  1  0  0  0  0
M  END
> <ID>
6500

> <Formula>
C15H11BrClF3N2O

> <FW>
407.6128

> <DSSTox_CID>
12533

> <DSSTox_RID>
78971

> <DSSTox_GSID>
32533

> <DSSTox_FileID_Sort>
3653

> <TS_ChemName>
Chlorfenapyr

> <TS_ChemName_Synonyms>
Chlorfenapyr (Pirate) (1H-Pyrrole-3-carbonitrile, 4-bromo-2-(4-chlorophenyl)-1-(ethoxymethyl)-5-(trifluoromethyl)-)

> <TS_CASRN>
122453-73-0

> <CASRN_ChemName_Relationship>
primary

> <TS_Description>
single chemical compound

> <ChemNote>


> <STRUCTURE_Shown>
tested chemical

> <STRUCTURE_Formula>
C15H11BrClF3N2O

> <STRUCTURE_MW>
407.6128

> <STRUCTURE_ChemType>
defined organic

> <STRUCTURE_DefinedOrganicForm>
parent

> <STRUCTURE_IUPAC>
4-bromo-2-(4-chlorophenyl)-1-(ethoxymethyl)-5-(trifluoromethyl)-1H-pyrrole-3-carbonitrile

> <STRUCTURE_SMILES>
CCOCn1c(c(C#N)c(Br)c1C(F)(F)F)c2ccc(Cl)cc2

> <STRUCTURE_SMILES_Desalt>
CCOCn1c(c(C#N)c(Br)c1C(F)(F)F)c2ccc(Cl)cc2

> <Substance_modify_yyyymmdd>
20080429

$$$$
