1224-92-6
ChemmineR-0915142007XD

 24 27  0  0  1  0  0  0  0  0  1 V2000
    4.6178   -2.6721    0.0000 C   0  0  0  0  0  0  0  0  0  0  0  0
    3.5239   -3.3087    0.0000 C   0  0  0  0  0  0  0  0  0  0  0  0
    5.7476   -3.3087    0.0000 C   0  0  0  0  0  0  0  0  0  0  0  0
    6.9312   -2.6362    0.0000 C   0  0  0  0  0  0  0  0  0  0  0  0
    6.9312   -1.3181    0.0000 C   0  0  0  0  0  0  0  0  0  0  0  0
    4.6178   -1.3540    0.0000 C   0  0  0  0  0  0  0  0  0  0  0  0
    5.7476   -4.6268    0.0000 C   0  0  0  0  0  0  0  0  0  0  0  0
    3.5239   -4.6268    0.0000 C   0  0  0  0  0  0  0  0  0  0  0  0
    5.7476   -0.6635    0.0000 C   0  0  0  0  0  0  0  0  0  0  0  0
    4.6178   -5.2814    0.0000 C   0  0  0  0  0  0  0  0  0  0  0  0
    3.5239   -2.0175    0.0000 C   0  0  0  0  0  0  0  0  0  0  0  0
    2.3403   -2.6721    0.0000 C   0  0  0  0  0  0  0  0  0  0  0  0
    6.9581    0.0000    0.0000 C   0  0  0  0  0  0  0  0  0  0  0  0
    2.3403   -5.3172    0.0000 C   0  0  0  0  0  0  0  0  0  0  0  0
    1.2105   -3.3446    0.0000 C   0  0  0  0  0  0  0  0  0  0  0  0
    1.2105   -4.6268    0.0000 C   0  0  0  0  0  0  0  0  0  0  0  0
    5.7476   -1.9278    0.0000 H   0  0  0  0  0  0  0  0  0  0  0  0
    4.6178   -4.0260    0.0000 H   0  0  0  0  0  0  0  0  0  0  0  0
    6.9312   -4.0260    0.0000 H   0  0  0  0  0  0  0  0  0  0  0  0
    0.0000   -5.3172    0.0000 O   0  0  0  0  0  0  0  0  0  0  0  0
    3.5239   -6.0166    0.0000 H   0  0  0  0  0  0  0  0  0  0  0  0
    8.1866   -3.0576    0.0000 C   0  0  0  0  0  0  0  0  0  0  0  0
    8.9667   -1.9727    0.0000 C   0  0  0  0  0  0  0  0  0  0  0  0
    8.1866   -0.9056    0.0000 C   0  0  0  0  0  0  0  0  0  0  0  0
  1  6  1  0  0  0  0
  1  2  1  0  0  0  0
  1 18  1  6  0  0  0
  1  3  1  0  0  0  0
  2  8  1  0  0  0  0
  2 11  1  1  0  0  0
  2 12  1  0  0  0  0
  3  4  1  0  0  0  0
  3  7  1  0  0  0  0
  3 17  1  1  0  0  0
  4 19  1  6  0  0  0
  4 22  1  0  0  0  0
  4  5  1  0  0  0  0
  5  9  1  0  0  0  0
  5 13  1  1  0  0  0
  5 24  1  0  0  0  0
  6  9  1  0  0  0  0
  7 10  1  0  0  0  0
  8 14  1  0  0  0  0
  8 10  1  0  0  0  0
  8 21  1  6  0  0  0
 12 15  1  0  0  0  0
 14 16  1  0  0  0  0
 15 16  1  0  0  0  0
 16 20  1  1  0  0  0
 22 23  1  0  0  0  0
 23 24  1  0  0  0  0
M  END
> <ID>
7136

> <Formula>
C19H32O

> <FW>
276.4568

> <DSSTox_CID>
16514

> <DSSTox_RID>
79285

> <DSSTox_GSID>
36514

> <DSSTox_FileID_Sort>
3967

> <TS_ChemName>
5alpha-Androstan-3beta-ol

> <TS_ChemName_Synonyms>


> <TS_CASRN>
1224-92-6

> <CASRN_ChemName_Relationship>
primary

> <TS_Description>
single chemical compound

> <ChemNote>
stereochem

> <STRUCTURE_Shown>
tested chemical

> <STRUCTURE_Formula>
C19H32O

> <STRUCTURE_MW>
276.4568

> <STRUCTURE_ChemType>
defined organic

> <STRUCTURE_DefinedOrganicForm>
parent

> <STRUCTURE_IUPAC>
(3beta,5alpha)-androstan-3-ol

> <STRUCTURE_SMILES>
C[C@@]34CC[C@H]1[C@@H](CC[C@H]2C[C@@H](O)CC[C@]12C)[C@@H]4CCC3

> <STRUCTURE_SMILES_Desalt>
C[C@@]34CC[C@H]1[C@@H](CC[C@H]2C[C@@H](O)CC[C@]12C)[C@@H]4CCC3

> <Substance_modify_yyyymmdd>
20080429

$$$$
