1225-20-3
ChemmineR-0915142007XD

 21 20  0  0  0  0  0  0  0  0  2 V2000
    7.3648   -9.2060    0.0000 C    0  0  0  0  0  0  0  0  0  0  0  0
    6.6927   -8.0552    0.0000 N    0  0  0  0  0  0  0  0  0  0  0  0
    7.3648   -6.9045    0.0000 C    0  0  0  0  0  0  0  0  0  0  0  0
    8.6904   -6.9045    0.0000 O    0  0  0  0  0  0  0  0  0  0  0  0
    6.6927   -5.7445    0.0000 C    0  0  0  0  0  0  0  0  0  0  0  0
    7.3648   -4.5938    0.0000 C    0  0  0  0  0  0  0  0  0  0  0  0
    8.6904   -4.5938    0.0000 I    0  0  0  0  0  0  0  0  0  0  0  0
    6.6927   -3.4430    0.0000 C    0  0  0  0  0  0  0  0  0  0  0  0
    5.3671   -3.4430    0.0000 C    0  0  0  0  0  0  0  0  0  0  0  0
    4.7042   -2.2923    0.0000 I    0  0  0  0  0  0  0  0  0  0  0  0
    4.7042   -4.5938    0.0000 C    0  0  0  0  0  0  0  0  0  0  0  0
    5.3671   -5.7445    0.0000 C    0  0  0  0  0  0  0  0  0  0  0  0
    4.7042   -6.9045    0.0000 I    0  0  0  0  0  0  0  0  0  0  0  0
    3.3602   -4.5938    0.0000 C    0  0  0  0  0  0  0  0  0  0  0  0
    2.7065   -3.4430    0.0000 O    0  5  0  0  0  0  0  0  0  0  0  0
    2.7065   -5.7445    0.0000 O    0  0  0  0  0  0  0  0  0  0  0  0
    7.3648   -2.2923    0.0000 N    0  0  0  0  0  0  0  0  0  0  0  0
    6.6927   -1.1507    0.0000 C    0  0  0  0  0  0  0  0  0  0  0  0
    7.3648    0.0000    0.0000 C    0  0  0  0  0  0  0  0  0  0  0  0
    5.3671   -1.1507    0.0000 O    0  0  0  0  0  0  0  0  0  0  0  0
    0.0000   -4.3360    0.0000 Na   0  3  0  0  0  0  0  0  0  0  0  0
  1  2  1  0  0  0  0
  2  3  1  0  0  0  0
  3  4  2  0  0  0  0
  3  5  1  0  0  0  0
  5  6  2  0  0  0  0
  5 12  1  0  0  0  0
  6  7  1  0  0  0  0
  6  8  1  0  0  0  0
  8  9  2  0  0  0  0
  8 17  1  0  0  0  0
  9 10  1  0  0  0  0
  9 11  1  0  0  0  0
 11 12  2  0  0  0  0
 11 14  1  0  0  0  0
 12 13  1  0  0  0  0
 14 15  1  0  0  0  0
 14 16  2  0  0  0  0
 17 18  1  0  0  0  0
 18 19  1  0  0  0  0
 18 20  2  0  0  0  0
M  END
> <ID>
16071

> <Formula>
C11H8I3N2NaO4

> <FW>
635.8954 (612.9062+22.9892)

> <DSSTox_CID>
31457

> <DSSTox_RID>
97343

> <DSSTox_GSID>
57668

> <DSSTox_FileID_Sort>
8410

> <TS_ChemName>
Iothalamate sodium

> <TS_ChemName_Synonyms>


> <TS_CASRN>
1225-20-3

> <CASRN_ChemName_Relationship>
primary

> <TS_Description>
single chemical compound

> <ChemNote>


> <STRUCTURE_Shown>
tested chemical

> <STRUCTURE_Formula>
C11H8I3N2NaO4

> <STRUCTURE_MW>
635.8954

> <STRUCTURE_ChemType>
defined organic

> <STRUCTURE_DefinedOrganicForm>
salt

> <STRUCTURE_IUPAC>
sodium 3-acetamido-2,4,6-triiodo-5-(methylcarbamoyl)benzoate

> <STRUCTURE_SMILES>
[Na+].O=C(C)Nc1c(I)c(c(I)c(c1I)C([O-])=O)C(=O)NC

> <STRUCTURE_SMILES_Desalt>
O=C(C)Nc1c(I)c(c(I)c(c1I)C(O)=O)C(=O)NC

> <Substance_modify_yyyymmdd>
20131121

$$$$
