122647-32-9
ChemmineR-0915142007XD

 60 59  0  0  0  0  0  0  0  0  1 V2000
    8.6475   -6.3981    0.0000 C   0  0  0  0  0  0  0  0  0  0  0  0
    9.7907   -5.7159    0.0000 C   0  0  0  0  0  0  0  0  0  0  0  0
    7.4859   -5.7159    0.0000 C   0  0  0  0  0  0  0  0  0  0  0  0
    6.3428   -6.3981    0.0000 O   0  0  0  0  0  0  0  0  0  0  0  0
    7.4859   -4.3883    0.0000 O   0  0  0  0  0  0  0  0  0  0  0  0
   10.9523   -6.3981    0.0000 C   0  0  0  0  0  0  0  0  0  0  0  0
   12.0955   -5.7159    0.0000 O   0  0  0  0  0  0  0  0  0  0  0  0
   10.9523   -7.7256    0.0000 O   0  0  0  0  0  0  0  0  0  0  0  0
    5.7527   -2.6735    0.0000 C   0  0  0  0  0  0  0  0  0  0  0  0
    5.7527   -4.0195    0.0000 C   0  0  0  0  0  0  0  0  0  0  0  0
    4.5911   -2.0098    0.0000 C   0  0  0  0  0  0  0  0  0  0  0  0
    4.5911   -4.6649    0.0000 C   0  0  0  0  0  0  0  0  0  0  0  0
    3.4480   -2.6735    0.0000 C   0  0  0  0  0  0  0  0  0  0  0  0
    3.4480   -4.0195    0.0000 C   0  0  0  0  0  0  0  0  0  0  0  0
    6.8959   -2.0098    0.0000 C   0  0  0  0  0  0  0  0  0  0  0  0
    8.0575   -2.6551    0.0000 C   0  0  0  0  0  0  0  0  0  0  0  0
    6.8959   -0.6822    0.0000 O   0  0  0  0  0  0  0  0  0  0  0  0
    9.2007   -2.0098    0.0000 C   0  0  0  0  0  0  0  0  0  0  0  0
   10.3807   -2.6551    0.0000 C   0  0  0  0  0  0  0  0  0  0  0  0
   11.5239   -2.0098    0.0000 N   0  0  0  0  0  0  0  0  0  0  0  0
   12.6855   -2.6551    0.0000 C   0  0  0  0  0  0  0  0  0  0  0  0
   11.5239   -0.6822    0.0000 C   0  0  0  0  0  0  0  0  0  0  0  0
   13.8287   -2.0098    0.0000 C   0  0  0  0  0  0  0  0  0  0  0  0
   12.6855    0.0000    0.0000 C   0  0  0  0  0  0  0  0  0  0  0  0
   13.8287   -0.6822    0.0000 C   0  0  0  0  0  0  0  0  0  0  0  0
   14.9903    0.0000    0.0000 C   0  0  0  0  0  0  0  0  0  0  0  0
   16.1335   -0.6822    0.0000 C   0  0  0  0  0  0  0  0  0  0  0  0
   17.2951    0.0000    0.0000 C   0  0  0  0  0  0  0  0  0  0  0  0
   18.4382   -0.6822    0.0000 C   0  0  0  0  0  0  0  0  0  0  0  0
    2.3048   -4.6649    0.0000 N   0  0  0  0  0  0  0  0  0  0  0  0
    1.1432   -4.0011    0.0000 S   0  0  0  0  0  0  0  0  0  0  0  0
    0.4794   -5.1627    0.0000 O   0  0  0  0  0  0  0  0  0  0  0  0
    1.8254   -2.8579    0.0000 O   0  0  0  0  0  0  0  0  0  0  0  0
    0.0000   -3.3189    0.0000 C   0  0  0  0  0  0  0  0  0  0  0  0
   12.6855   -9.3298    0.0000 C   0  0  0  0  0  0  0  0  0  0  0  0
   12.6855   -7.9838    0.0000 C   0  0  0  0  0  0  0  0  0  0  0  0
   13.8287   -9.9567    0.0000 C   0  0  0  0  0  0  0  0  0  0  0  0
   13.8287   -7.3200    0.0000 C   0  0  0  0  0  0  0  0  0  0  0  0
   14.9903   -9.3298    0.0000 C   0  0  0  0  0  0  0  0  0  0  0  0
   14.9903   -7.9838    0.0000 C   0  0  0  0  0  0  0  0  0  0  0  0
   11.5239   -9.9567    0.0000 C   0  0  0  0  0  0  0  0  0  0  0  0
   10.3807   -9.3298    0.0000 C   0  0  0  0  0  0  0  0  0  0  0  0
   11.5239  -11.3026    0.0000 O   0  0  0  0  0  0  0  0  0  0  0  0
    9.2007   -9.9567    0.0000 C   0  0  0  0  0  0  0  0  0  0  0  0
    8.0575   -9.3298    0.0000 C   0  0  0  0  0  0  0  0  0  0  0  0
    6.8959   -9.9567    0.0000 N   0  0  0  0  0  0  0  0  0  0  0  0
    5.7527   -9.3298    0.0000 C   0  0  0  0  0  0  0  0  0  0  0  0
    6.8959  -11.3026    0.0000 C   0  0  0  0  0  0  0  0  0  0  0  0
    4.5911   -9.9567    0.0000 C   0  0  0  0  0  0  0  0  0  0  0  0
    5.7527  -11.9849    0.0000 C   0  0  0  0  0  0  0  0  0  0  0  0
    4.5911  -11.3026    0.0000 C   0  0  0  0  0  0  0  0  0  0  0  0
    3.4480  -11.9849    0.0000 C   0  0  0  0  0  0  0  0  0  0  0  0
    2.3048  -11.3026    0.0000 C   0  0  0  0  0  0  0  0  0  0  0  0
    1.1432  -11.9849    0.0000 C   0  0  0  0  0  0  0  0  0  0  0  0
    0.0000  -11.3026    0.0000 C   0  0  0  0  0  0  0  0  0  0  0  0
   16.1335   -7.3200    0.0000 N   0  0  0  0  0  0  0  0  0  0  0  0
   17.2951   -7.9838    0.0000 S   0  0  0  0  0  0  0  0  0  0  0  0
   17.9588   -6.8222    0.0000 O   0  0  0  0  0  0  0  0  0  0  0  0
   16.6129   -9.1085    0.0000 O   0  0  0  0  0  0  0  0  0  0  0  0
   18.4382   -8.6475    0.0000 C   0  0  0  0  0  0  0  0  0  0  0  0
  1  2  2  0  0  0  0
  1  3  1  0  0  0  0
  2  6  1  0  0  0  0
  3  4  2  0  0  0  0
  3  5  1  0  0  0  0
  6  7  2  0  0  0  0
  6  8  1  0  0  0  0
  9 10  1  0  0  0  0
  9 11  2  0  0  0  0
  9 15  1  0  0  0  0
 10 12  2  0  0  0  0
 11 13  1  0  0  0  0
 12 14  1  0  0  0  0
 13 14  2  0  0  0  0
 14 30  1  0  0  0  0
 15 16  1  0  0  0  0
 15 17  1  0  0  0  0
 16 18  1  0  0  0  0
 18 19  1  0  0  0  0
 19 20  1  0  0  0  0
 20 21  1  0  0  0  0
 20 22  1  0  0  0  0
 21 23  1  0  0  0  0
 22 24  1  0  0  0  0
 24 25  1  0  0  0  0
 25 26  1  0  0  0  0
 26 27  1  0  0  0  0
 27 28  1  0  0  0  0
 28 29  1  0  0  0  0
 30 31  1  0  0  0  0
 31 32  2  0  0  0  0
 31 33  2  0  0  0  0
 31 34  1  0  0  0  0
 35 36  1  0  0  0  0
 35 37  2  0  0  0  0
 35 41  1  0  0  0  0
 36 38  2  0  0  0  0
 37 39  1  0  0  0  0
 38 40  1  0  0  0  0
 39 40  2  0  0  0  0
 40 56  1  0  0  0  0
 41 42  1  0  0  0  0
 41 43  1  0  0  0  0
 42 44  1  0  0  0  0
 44 45  1  0  0  0  0
 45 46  1  0  0  0  0
 46 47  1  0  0  0  0
 46 48  1  0  0  0  0
 47 49  1  0  0  0  0
 48 50  1  0  0  0  0
 50 51  1  0  0  0  0
 51 52  1  0  0  0  0
 52 53  1  0  0  0  0
 53 54  1  0  0  0  0
 54 55  1  0  0  0  0
 56 57  1  0  0  0  0
 57 58  2  0  0  0  0
 57 59  2  0  0  0  0
 57 60  1  0  0  0  0
M  END
> <ID>
13647

> <Formula>
C44H76N4O10S2

> <FW>
885.2250 (116.0722+384.5764+384.5764)

> <DSSTox_CID>
28578

> <DSSTox_RID>
82849

> <DSSTox_GSID>
48652

> <DSSTox_FileID_Sort>
7526

> <TS_ChemName>
Ibutilide fumarate

> <TS_ChemName_Synonyms>
Ibutilide

> <TS_CASRN>
122647-32-9

> <CASRN_ChemName_Relationship>
primary

> <TS_Description>
single chemical compound

> <ChemNote>


> <STRUCTURE_Shown>
tested chemical

> <STRUCTURE_Formula>
C44H76N4O10S2

> <STRUCTURE_MW>
885.225

> <STRUCTURE_ChemType>
defined organic

> <STRUCTURE_DefinedOrganicForm>
complex

> <STRUCTURE_IUPAC>
N-(4-{4-[ethyl(heptyl)amino]-1-hydroxybutyl}phenyl)methanesulfonamide (2E)-but-2-enedioate (2:1)

> <STRUCTURE_SMILES>
O=S(C)(=O)Nc1ccc(cc1)C(O)CCCN(CC)CCCCCCC.O=C(O)/C=C/C(=O)O.CCN(CCCCCCC)CCCC(O)c1ccc(NS(C)(=O)=O)cc1

> <STRUCTURE_SMILES_Desalt>
O=S(C)(=O)Nc1ccc(cc1)C(O)CCCN(CC)CCCCCCC

> <Substance_modify_yyyymmdd>
20111204

$$$$
