122795-43-1
ChemmineR-0915142007XD

 31 28  0  0  0  0  0  0  0  0  2 V2000
    4.6210   -3.9908    0.0000 N    0  0  0  0  0  0  0  0  0  0  0  0
    5.7843   -3.3284    0.0000 C    0  0  0  0  0  0  0  0  0  0  0  0
    3.4899   -3.3284    0.0000 C    0  0  0  0  0  0  0  0  0  0  0  0
    4.6210   -5.3157    0.0000 C    0  0  0  0  0  0  0  0  0  0  0  0
    6.9153   -3.9908    0.0000 C    0  0  0  0  0  0  0  0  0  0  0  0
    2.3105   -3.9908    0.0000 C    0  0  0  0  0  0  0  0  0  0  0  0
    5.7843   -5.9782    0.0000 C    0  0  0  0  0  0  0  0  0  0  0  0
    8.0786   -3.3284    0.0000 N    0  0  0  0  0  0  0  0  0  0  0  0
    1.1633   -3.3284    0.0000 N    0  0  0  0  0  0  0  0  0  0  0  0
    2.3105   -5.3157    0.0000 O    0  0  0  0  0  0  0  0  0  0  0  0
    6.9153   -5.3157    0.0000 O    0  0  0  0  0  0  0  0  0  0  0  0
    5.7843   -7.3192    0.0000 O    0  5  0  0  0  0  0  0  0  0  0  0
    9.2419   -3.9908    0.0000 C    0  0  0  0  0  0  0  0  0  0  0  0
    8.0786   -2.0035    0.0000 C    0  0  0  0  0  0  0  0  0  0  0  0
    0.0000   -3.9908    0.0000 C    0  0  0  0  0  0  0  0  0  0  0  0
   10.3891   -3.3284    0.0000 C    0  0  0  0  0  0  0  0  0  0  0  0
    6.9153   -1.3249    0.0000 C    0  0  0  0  0  0  0  0  0  0  0  0
   11.5524   -3.9908    0.0000 N    0  0  0  0  0  0  0  0  0  0  0  0
    6.9153    0.0000    0.0000 O    0  0  0  0  0  0  0  0  0  0  0  0
    5.7843   -2.0035    0.0000 O    0  5  0  0  0  0  0  0  0  0  0  0
   12.6834   -3.3284    0.0000 C    0  0  0  0  0  0  0  0  0  0  0  0
   11.5524   -5.3157    0.0000 C    0  0  0  0  0  0  0  0  0  0  0  0
   13.8629   -3.9908    0.0000 C    0  0  0  0  0  0  0  0  0  0  0  0
   10.3891   -5.9782    0.0000 C    0  0  0  0  0  0  0  0  0  0  0  0
   15.0100   -3.3284    0.0000 N    0  0  0  0  0  0  0  0  0  0  0  0
   13.8629   -5.3157    0.0000 O    0  0  0  0  0  0  0  0  0  0  0  0
    9.2419   -5.3157    0.0000 O    0  0  0  0  0  0  0  0  0  0  0  0
   10.3891   -7.3192    0.0000 O    0  5  0  0  0  0  0  0  0  0  0  0
   16.1572   -3.9908    0.0000 C    0  0  0  0  0  0  0  0  0  0  0  0
    7.7716   -8.6279    0.0000 Gd   0  1  0  0  0  0  0  0  0  0  0  0
   13.7013   -7.5131    0.0000 O    0  0  0  0  0  0  0  0  0  0  0  0
  1  2  1  0  0  0  0
  1  3  1  0  0  0  0
  1  4  1  0  0  0  0
  2  5  1  0  0  0  0
  3  6  1  0  0  0  0
  4  7  1  0  0  0  0
  5  8  1  0  0  0  0
  6  9  1  0  0  0  0
  6 10  2  0  0  0  0
  7 11  2  0  0  0  0
  7 12  1  0  0  0  0
  8 13  1  0  0  0  0
  8 14  1  0  0  0  0
  9 15  1  0  0  0  0
 13 16  1  0  0  0  0
 14 17  1  0  0  0  0
 16 18  1  0  0  0  0
 17 19  2  0  0  0  0
 17 20  1  0  0  0  0
 18 21  1  0  0  0  0
 18 22  1  0  0  0  0
 21 23  1  0  0  0  0
 22 24  1  0  0  0  0
 23 25  1  0  0  0  0
 23 26  2  0  0  0  0
 24 27  2  0  0  0  0
 24 28  1  0  0  0  0
 25 29  1  0  0  0  0
M  END
> <ID>
13643

> <Formula>
C16H28GdN5O9

> <FW>
591.6716 (416.4080+157.2484+18.0153)

> <DSSTox_CID>
28573

> <DSSTox_RID>
82845

> <DSSTox_GSID>
48647

> <DSSTox_FileID_Sort>
7522

> <TS_ChemName>
Gadodiamide hydrate

> <TS_ChemName_Synonyms>
Gadodiamide

> <TS_CASRN>
122795-43-1

> <CASRN_ChemName_Relationship>
primary

> <TS_Description>
single chemical compound

> <ChemNote>


> <STRUCTURE_Shown>
tested chemical

> <STRUCTURE_Formula>
C16H28GdN5O9

> <STRUCTURE_MW>
591.6716

> <STRUCTURE_ChemType>
organometallic

> <STRUCTURE_DefinedOrganicForm>


> <STRUCTURE_IUPAC>
gadolinium 5,8-bis(carboxylatomethyl)-11-[2-(methylamino)-2-oxoethyl]-3-oxo-2,5,8,11-tetraazatridecan-13-oate hydrate (1:1:1)

> <STRUCTURE_SMILES>
[Gd+3].O.CNC(=O)CN(CC([O-])=O)CCN(CCN(CC([O-])=O)CC(=O)NC)CC([O-])=O

> <STRUCTURE_SMILES_Desalt>
O=C(O)CN(CCN(CC(=O)O)CC(=O)NC)CCN(CC(=O)NC)CC(=O)O

> <Substance_modify_yyyymmdd>
20111016

$$$$
