122841-12-7
ChemmineR-0915142007XD

 42 44  0  0  1  0  0  0  0  0  2 V2000
    6.8424   -5.6884    0.0000 C   0  0  0  0  0  0  0  0  0  0  0  0
    6.8424   -4.3557    0.0000 C   0  0  0  0  0  0  0  0  0  0  0  0
    8.1751   -5.6884    0.0000 N   0  0  0  0  0  0  0  0  0  0  0  0
    8.1751   -4.3557    0.0000 C   0  0  0  0  0  0  0  0  0  0  0  0
    9.3128   -3.6731    0.0000 S   0  0  0  0  0  0  0  0  0  0  0  0
   10.4667   -4.3557    0.0000 C   0  0  0  0  0  0  0  0  0  0  0  0
   10.4667   -5.6884    0.0000 C   0  0  0  0  0  0  0  0  0  0  0  0
    9.3128   -6.3385    0.0000 C   0  0  0  0  0  0  0  0  0  0  0  0
    5.8835   -6.6148    0.0000 O   0  0  0  0  0  0  0  0  0  0  0  0
    9.3128   -7.6712    0.0000 C   0  0  0  0  0  0  0  0  0  0  0  0
   10.4667   -8.3701    0.0000 O   0  5  0  0  0  0  0  0  0  0  0  0
    8.1751   -8.3701    0.0000 O   0  0  0  0  0  0  0  0  0  0  0  0
   11.6369   -6.3385    0.0000 C   0  0  0  0  0  0  0  0  0  0  0  0
    5.7047   -4.3557    0.0000 N   0  0  0  0  0  0  0  0  0  0  0  0
    6.8424   -3.0067    0.0000 H   0  0  0  0  0  0  0  0  0  0  0  0
    8.1751   -3.0067    0.0000 H   0  0  0  0  0  0  0  0  0  0  0  0
    1.2515   -0.7964    0.0000 C   0  0  0  0  0  0  0  0  0  0  0  0
    1.6740   -2.0478    0.0000 N   0  0  0  0  0  0  0  0  0  0  0  0
    3.0067   -2.0478    0.0000 C   0  0  0  0  0  0  0  0  0  0  0  0
    3.3968   -0.7964    0.0000 C   0  0  0  0  0  0  0  0  0  0  0  0
    2.3241    0.0000    0.0000 S   0  0  0  0  0  0  0  0  0  0  0  0
    3.7219   -3.1855    0.0000 C   0  0  0  0  0  0  0  0  0  0  0  0
    5.0546   -3.1855    0.0000 C   0  0  0  0  0  0  0  0  0  0  0  0
    5.7047   -2.0316    0.0000 O   0  0  0  0  0  0  0  0  0  0  0  0
    3.0392   -4.3557    0.0000 N   0  0  0  0  0  0  0  0  0  0  0  0
    0.0000   -0.3901    0.0000 N   0  0  0  0  0  0  0  0  0  0  0  0
    3.7219   -5.4934    0.0000 O   0  0  0  0  0  0  0  0  0  0  0  0
    3.0392   -6.6636    0.0000 C   0  0  0  0  0  0  0  0  0  0  0  0
   13.8960   -6.4848    0.0000 N   0  0  0  0  0  0  0  0  0  0  0  0
   12.8558   -5.7209    0.0000 N   0  3  0  0  0  0  0  0  0  0  0  0
   15.0012   -5.7209    0.0000 C   0  0  0  0  0  0  0  0  0  0  0  0
   14.5786   -4.4370    0.0000 C   0  0  0  0  0  0  0  0  0  0  0  0
   13.2459   -4.4370    0.0000 C   0  0  0  0  0  0  0  0  0  0  0  0
   16.2526   -6.1272    0.0000 N   0  0  0  0  0  0  0  0  0  0  0  0
   13.8960   -7.8175    0.0000 C   0  0  0  0  0  0  0  0  0  0  0  0
   15.0662   -8.5001    0.0000 C   0  0  0  0  0  0  0  0  0  0  0  0
   16.2201   -7.8175    0.0000 O   0  0  0  0  0  0  0  0  0  0  0  0
    4.4370   -9.1015    0.0000 S   0  0  0  0  0  0  0  0  0  0  0  0
    5.7697   -9.1015    0.0000 O   0  0  0  0  0  0  0  0  0  0  0  0
    3.1043   -9.1015    0.0000 O   0  0  0  0  0  0  0  0  0  0  0  0
    4.4370  -10.4342    0.0000 O   0  0  0  0  0  0  0  0  0  0  0  0
    4.4370   -7.7688    0.0000 O   0  0  0  0  0  0  0  0  0  0  0  0
  1  9  2  0  0  0  0
  1  2  1  0  0  0  0
  1  3  1  0  0  0  0
  2  4  1  0  0  0  0
  2 14  1  1  0  0  0
  2 15  1  6  0  0  0
  3  4  1  0  0  0  0
  3  8  1  0  0  0  0
  4  5  1  0  0  0  0
  4 16  1  6  0  0  0
  5  6  1  0  0  0  0
  6  7  1  0  0  0  0
  7 13  1  0  0  0  0
  7  8  2  0  0  0  0
  8 10  1  0  0  0  0
 10 11  1  0  0  0  0
 10 12  2  0  0  0  0
 13 30  1  0  0  0  0
 14 23  1  0  0  0  0
 17 21  1  0  0  0  0
 17 18  2  0  0  0  0
 17 26  1  0  0  0  0
 18 19  1  0  0  0  0
 19 20  2  0  0  0  0
 19 22  1  0  0  0  0
 20 21  1  0  0  0  0
 22 23  1  0  0  0  0
 22 25  2  0  0  0  0
 23 24  2  0  0  0  0
 25 27  1  0  0  0  0
 27 28  1  0  0  0  0
 29 31  1  0  0  0  0
 29 30  1  0  0  0  0
 29 35  1  0  0  0  0
 30 33  2  0  0  0  0
 31 32  2  0  0  0  0
 31 34  1  0  0  0  0
 32 33  1  0  0  0  0
 35 36  1  0  0  0  0
 36 37  1  0  0  0  0
 38 39  2  0  0  0  0
 38 40  2  0  0  0  0
 38 41  1  0  0  0  0
 38 42  1  0  0  0  0
M  END
> <ID>
11975

> <Formula>
C19H24N8O10S3

> <FW>
620.6365 (522.5580+98.0785)

> <DSSTox_CID>
26795

> <DSSTox_RID>
81911

> <DSSTox_GSID>
46795

> <DSSTox_FileID_Sort>
6592

> <TS_ChemName>
Cefoselis sulfate

> <TS_ChemName_Synonyms>


> <TS_CASRN>
122841-12-7

> <CASRN_ChemName_Relationship>
primary

> <TS_Description>
single chemical compound

> <ChemNote>
stereochem; parent [122841-10-5]

> <STRUCTURE_Shown>
tested chemical

> <STRUCTURE_Formula>
C19H24N8O10S3

> <STRUCTURE_MW>
620.6365

> <STRUCTURE_ChemType>
defined organic

> <STRUCTURE_DefinedOrganicForm>
complex

> <STRUCTURE_IUPAC>
(6R,7R)-3-{[5-amino-1-(2-hydroxyethyl)-1H-pyrazol-2-ium-2-yl]methyl}-7-{[(2Z)-2-(2-amino-1,3-thiazol-4-yl)-2-(methoxyimino)acetyl]amino}-8-oxo-5-thia-1-azabicyclo[4.2.0]oct-2-ene-2-carboxylate sulfate (1:1)

> <STRUCTURE_SMILES>
O=S(=O)(O)O.Nc1scc(n1)\C(=N\OC)C(=O)N[C@@H]4C(=O)N3C(=C(C[n+]2ccc(N)n2CCO)CS[C@@H]34)C([O-])=O

> <STRUCTURE_SMILES_Desalt>
Nc1scc(n1)\C(=N\OC)C(=O)N[C@@H]4C(=O)N3C(=C(C[n+]2ccc(N)n2CCO)CS[C@@H]34)C(=O)O

> <Substance_modify_yyyymmdd>
20100802

$$$$
