122892-31-3
ChemmineR-0915142007XD

 27 27  0  0  0  0  0  0  0  0  1 V2000
   16.1208   -5.3199    0.0000 C    0  0  0  0  0  0  0  0  0  0  0  0
   16.1208   -3.9979    0.0000 O    0  0  0  0  0  0  0  0  0  0  0  0
   14.9762   -3.3048    0.0000 C    0  0  0  0  0  0  0  0  0  0  0  0
   13.8155   -3.9979    0.0000 C    0  0  0  0  0  0  0  0  0  0  0  0
   12.6870   -3.3048    0.0000 C    0  0  0  0  0  0  0  0  0  0  0  0
   12.6870   -1.9829    0.0000 C    0  0  0  0  0  0  0  0  0  0  0  0
   13.8155   -1.3380    0.0000 C    0  0  0  0  0  0  0  0  0  0  0  0
   14.9762   -1.9829    0.0000 C    0  0  0  0  0  0  0  0  0  0  0  0
   16.1208   -1.3380    0.0000 O    0  0  0  0  0  0  0  0  0  0  0  0
   16.1208    0.0000    0.0000 C    0  0  0  0  0  0  0  0  0  0  0  0
   11.5102   -1.3380    0.0000 C    0  0  0  0  0  0  0  0  0  0  0  0
   11.5102    0.0000    0.0000 O    0  0  0  0  0  0  0  0  0  0  0  0
   10.3657   -1.9829    0.0000 N    0  0  0  0  0  0  0  0  0  0  0  0
    9.2050   -1.3380    0.0000 C    0  0  0  0  0  0  0  0  0  0  0  0
    8.0604   -1.9829    0.0000 C    0  0  0  0  0  0  0  0  0  0  0  0
    8.0604   -3.3048    0.0000 C    0  0  0  0  0  0  0  0  0  0  0  0
    6.9158   -3.9979    0.0000 C    0  0  0  0  0  0  0  0  0  0  0  0
    5.7551   -3.3048    0.0000 C    0  0  0  0  0  0  0  0  0  0  0  0
    4.6105   -3.9979    0.0000 O    0  0  0  0  0  0  0  0  0  0  0  0
    3.4498   -3.3048    0.0000 C    0  0  0  0  0  0  0  0  0  0  0  0
    2.3053   -3.9979    0.0000 C    0  0  0  0  0  0  0  0  0  0  0  0
    1.1446   -3.3048    0.0000 N    0  0  0  0  0  0  0  0  0  0  0  0
    0.0000   -3.9979    0.0000 C    0  0  0  0  0  0  0  0  0  0  0  0
    1.1446   -1.9829    0.0000 C    0  0  0  0  0  0  0  0  0  0  0  0
    5.7551   -1.9829    0.0000 C    0  0  0  0  0  0  0  0  0  0  0  0
    6.9158   -1.3380    0.0000 C    0  0  0  0  0  0  0  0  0  0  0  0
    9.7208   -4.5783    0.0000 Cl   0  0  0  0  0  0  0  0  0  0  0  0
  1  2  1  0  0  0  0
  2  3  1  0  0  0  0
  3  4  2  0  0  0  0
  3  8  1  0  0  0  0
  4  5  1  0  0  0  0
  5  6  2  0  0  0  0
  6  7  1  0  0  0  0
  6 11  1  0  0  0  0
  7  8  2  0  0  0  0
  8  9  1  0  0  0  0
  9 10  1  0  0  0  0
 11 12  2  0  0  0  0
 11 13  1  0  0  0  0
 13 14  1  0  0  0  0
 14 15  1  0  0  0  0
 15 16  2  0  0  0  0
 15 26  1  0  0  0  0
 16 17  1  0  0  0  0
 17 18  2  0  0  0  0
 18 19  1  0  0  0  0
 18 25  1  0  0  0  0
 19 20  1  0  0  0  0
 20 21  1  0  0  0  0
 21 22  1  0  0  0  0
 22 23  1  0  0  0  0
 22 24  1  0  0  0  0
 25 26  2  0  0  0  0
M  END
> <ID>
11891

> <Formula>
C20H27ClN2O4

> <FW>
394.8924 (358.4314+36.4609)

> <DSSTox_CID>
26693

> <DSSTox_RID>
81827

> <DSSTox_GSID>
46693

> <DSSTox_FileID_Sort>
6508

> <TS_ChemName>
Itopride hydrochloride

> <TS_ChemName_Synonyms>


> <TS_CASRN>
122892-31-3

> <CASRN_ChemName_Relationship>
primary

> <TS_Description>
single chemical compound

> <ChemNote>
parent [122898-67-3]

> <STRUCTURE_Shown>
tested chemical

> <STRUCTURE_Formula>
C20H27ClN2O4

> <STRUCTURE_MW>
394.8924

> <STRUCTURE_ChemType>
defined organic

> <STRUCTURE_DefinedOrganicForm>
complex

> <STRUCTURE_IUPAC>
N-{4-[2-(dimethylamino)ethoxy]benzyl}-3,4-dimethoxybenzamide hydrochloride (1:1)

> <STRUCTURE_SMILES>
Cl.COc1cc(ccc1OC)C(=O)NCc2ccc(OCCN(C)C)cc2

> <STRUCTURE_SMILES_Desalt>
COc1cc(ccc1OC)C(=O)NCc2ccc(OCCN(C)C)cc2

> <Substance_modify_yyyymmdd>
20110805

$$$$
