122836-35-5
ChemmineR-0915142007XD

 23 24  0  0  0  0  0  0  0  0  1 V2000
    1.8280   -0.8365    0.0000 C    0  0  0  0  0  0  0  0  0  0  0  0
    1.1567   -1.9725    0.0000 S    0  0  0  0  0  0  0  0  0  0  0  0
    0.4854   -3.1292    0.0000 O    0  0  0  0  0  0  0  0  0  0  0  0
    0.0000   -1.3013    0.0000 O    0  0  0  0  0  0  0  0  0  0  0  0
    2.3030   -2.6645    0.0000 N    0  0  0  0  0  0  0  0  0  0  0  0
    3.4597   -2.0035    0.0000 C    0  0  0  0  0  0  0  0  0  0  0  0
    3.4597   -0.6713    0.0000 C    0  0  0  0  0  0  0  0  0  0  0  0
    4.5957   -2.6748    0.0000 C    0  0  0  0  0  0  0  0  0  0  0  0
    4.6267   -0.0207    0.0000 C    0  0  0  0  0  0  0  0  0  0  0  0
    5.7627   -2.0242    0.0000 C    0  0  0  0  0  0  0  0  0  0  0  0
    5.7627   -0.6919    0.0000 C    0  0  0  0  0  0  0  0  0  0  0  0
    2.3237    0.0000    0.0000 Cl   0  0  0  0  0  0  0  0  0  0  0  0
    6.9194   -0.0310    0.0000 Cl   0  0  0  0  0  0  0  0  0  0  0  0
    6.8987   -2.6955    0.0000 N    0  0  0  0  0  0  0  0  0  0  0  0
    8.1174   -2.1688    0.0000 N    0  0  0  0  0  0  0  0  0  0  0  0
    8.9952   -3.1602    0.0000 C    0  0  0  0  0  0  0  0  0  0  0  0
    8.3239   -4.3065    0.0000 N    0  0  0  0  0  0  0  0  0  0  0  0
    7.0330   -4.0174    0.0000 C    0  0  0  0  0  0  0  0  0  0  0  0
    8.8506   -5.5252    0.0000 C    0  0  0  0  0  0  0  0  0  0  0  0
    8.0657   -6.5992    0.0000 F    0  0  0  0  0  0  0  0  0  0  0  0
   10.1828   -5.6698    0.0000 F    0  0  0  0  0  0  0  0  0  0  0  0
   10.3274   -3.0259    0.0000 C    0  0  0  0  0  0  0  0  0  0  0  0
    6.0312   -4.9055    0.0000 O    0  0  0  0  0  0  0  0  0  0  0  0
  1  2  1  0  0  0  0
  2  3  2  0  0  0  0
  2  5  1  0  0  0  0
  2  4  2  0  0  0  0
  5  6  1  0  0  0  0
  6  7  2  0  0  0  0
  6  8  1  0  0  0  0
  7  9  1  0  0  0  0
  7 12  1  0  0  0  0
  8 10  2  0  0  0  0
  9 11  2  0  0  0  0
 10 11  1  0  0  0  0
 10 14  1  0  0  0  0
 11 13  1  0  0  0  0
 14 15  1  0  0  0  0
 14 18  1  0  0  0  0
 15 16  2  0  0  0  0
 16 17  1  0  0  0  0
 16 22  1  0  0  0  0
 17 18  1  0  0  0  0
 17 19  1  0  0  0  0
 18 23  2  0  0  0  0
 19 20  1  0  0  0  0
 19 21  1  0  0  0  0
M  END
> <ID>
6561

> <Formula>
C11H10Cl2F2N4O3S

> <FW>
387.1899

> <DSSTox_CID>
12645

> <DSSTox_RID>
79021

> <DSSTox_GSID>
32645

> <DSSTox_FileID_Sort>
3703

> <TS_ChemName>
Sulfentrazone

> <TS_ChemName_Synonyms>


> <TS_CASRN>
122836-35-5

> <CASRN_ChemName_Relationship>
primary

> <TS_Description>
single chemical compound

> <ChemNote>


> <STRUCTURE_Shown>
tested chemical

> <STRUCTURE_Formula>
C11H10Cl2F2N4O3S

> <STRUCTURE_MW>
387.1899

> <STRUCTURE_ChemType>
defined organic

> <STRUCTURE_DefinedOrganicForm>
parent

> <STRUCTURE_IUPAC>
N-{2,4-dichloro-5-[4-(difluoromethyl)-3-methyl-5-oxo-4,5-dihydro-1H-1,2,4-triazol-1-yl]phenyl}methanesulfonamide

> <STRUCTURE_SMILES>
CS(=O)(=O)Nc1cc(c(Cl)cc1Cl)N2N=C(C)N(C2=O)C(F)F

> <STRUCTURE_SMILES_Desalt>
CS(=O)(=O)Nc1cc(c(Cl)cc1Cl)N2N=C(C)N(C2=O)C(F)F

> <Substance_modify_yyyymmdd>
20080429

$$$$
