122852-69-1
ChemmineR-0915142007XD

 23 25  0  0  0  0  0  0  0  0  1 V2000
    5.2285   -5.3135    0.0000 Cl   0  0  0  0  0  0  0  0  0  0  0  0
    2.6461   -1.5834    0.0000 C    0  0  0  0  0  0  0  0  0  0  0  0
    1.8597   -2.6568    0.0000 C    0  0  0  0  0  0  0  0  0  0  0  0
    2.1042   -0.3613    0.0000 C    0  0  0  0  0  0  0  0  0  0  0  0
    0.5420   -2.5186    0.0000 C    0  0  0  0  0  0  0  0  0  0  0  0
    0.7864   -0.2232    0.0000 C    0  0  0  0  0  0  0  0  0  0  0  0
    0.0000   -1.3071    0.0000 C    0  0  0  0  0  0  0  0  0  0  0  0
    3.9107   -1.9873    0.0000 C    0  0  0  0  0  0  0  0  0  0  0  0
    3.9107   -3.3263    0.0000 C    0  0  0  0  0  0  0  0  0  0  0  0
    2.6461   -3.7301    0.0000 N    0  0  0  0  0  0  0  0  0  0  0  0
    5.0691   -1.3284    0.0000 C    0  0  0  0  0  0  0  0  0  0  0  0
    6.2168   -1.9873    0.0000 N    0  0  0  0  0  0  0  0  0  0  0  0
    5.0691   -3.9851    0.0000 C    0  0  0  0  0  0  0  0  0  0  0  0
    6.2168   -3.3263    0.0000 C    0  0  0  0  0  0  0  0  0  0  0  0
    5.0691    0.0000    0.0000 O    0  0  0  0  0  0  0  0  0  0  0  0
    2.2317   -4.9947    0.0000 C    0  0  0  0  0  0  0  0  0  0  0  0
    7.3645   -1.3284    0.0000 C    0  0  0  0  0  0  0  0  0  0  0  0
    8.5229   -1.9979    0.0000 C    0  0  0  0  0  0  0  0  0  0  0  0
    9.7344   -1.4559    0.0000 N    0  0  0  0  0  0  0  0  0  0  0  0
    8.6610   -3.3156    0.0000 C    0  0  0  0  0  0  0  0  0  0  0  0
   10.6270   -2.4442    0.0000 C    0  0  0  0  0  0  0  0  0  0  0  0
    9.9575   -3.5919    0.0000 N    0  0  0  0  0  0  0  0  0  0  0  0
    7.6727   -4.2083    0.0000 C    0  0  0  0  0  0  0  0  0  0  0  0
  2  4  2  0  0  0  0
  2  8  1  0  0  0  0
  2  3  1  0  0  0  0
  3  5  2  0  0  0  0
  3 10  1  0  0  0  0
  4  6  1  0  0  0  0
  5  7  1  0  0  0  0
  6  7  2  0  0  0  0
  8 11  1  0  0  0  0
  8  9  2  0  0  0  0
  9 10  1  0  0  0  0
  9 13  1  0  0  0  0
 10 16  1  0  0  0  0
 11 12  1  0  0  0  0
 11 15  2  0  0  0  0
 12 14  1  0  0  0  0
 12 17  1  0  0  0  0
 13 14  1  0  0  0  0
 17 18  1  0  0  0  0
 18 19  1  0  0  0  0
 18 20  2  0  0  0  0
 19 21  1  0  0  0  0
 20 22  1  0  0  0  0
 20 23  1  0  0  0  0
 21 22  2  0  0  0  0
M  END
> <ID>
9904

> <Formula>
C17H19ClN4O

> <FW>
330.8120 (36.4609+294.3510)

> <DSSTox_CID>
24208

> <DSSTox_RID>
80120

> <DSSTox_GSID>
44208

> <DSSTox_FileID_Sort>
4802

> <TS_ChemName>
Alosetron hydrochloride

> <TS_ChemName_Synonyms>


> <TS_CASRN>
122852-69-1

> <CASRN_ChemName_Relationship>
primary

> <TS_Description>
single chemical compound

> <ChemNote>
parent [122852-42-0]

> <STRUCTURE_Shown>
tested chemical

> <STRUCTURE_Formula>
C17H19ClN4O

> <STRUCTURE_MW>
330.812

> <STRUCTURE_ChemType>
defined organic

> <STRUCTURE_DefinedOrganicForm>
complex

> <STRUCTURE_IUPAC>
5-methyl-2-[(4-methyl-1H-imidazol-5-yl)methyl]-2,3,4,5-tetrahydro-1H-pyrido[4,3-b]indol-1-one hydrochloride (1:1)

> <STRUCTURE_SMILES>
Cl.Cc4ncnc4CN1CCc3c(C1=O)c2ccccc2n3C

> <STRUCTURE_SMILES_Desalt>
Cc4ncnc4CN1CCc3c(C1=O)c2ccccc2n3C

> <Substance_modify_yyyymmdd>
20090302

$$$$
