1229-35-2
ChemmineR-0915142007XD

 22 24  0  0  0  0  0  0  0  0  1 V2000
    5.1191   -3.4522    0.0000 N    0  0  0  0  0  0  0  0  0  0  0  0
    6.4490   -3.4522    0.0000 C    0  0  0  0  0  0  0  0  0  0  0  0
    7.1139   -2.3045    0.0000 C    0  0  0  0  0  0  0  0  0  0  0  0
    6.4490   -1.1477    0.0000 S    0  0  0  0  0  0  0  0  0  0  0  0
    5.1191   -1.1477    0.0000 C    0  0  0  0  0  0  0  0  0  0  0  0
    4.4542   -2.3045    0.0000 C    0  0  0  0  0  0  0  0  0  0  0  0
    3.1243   -2.3045    0.0000 C    0  0  0  0  0  0  0  0  0  0  0  0
    2.4594   -1.1477    0.0000 C    0  0  0  0  0  0  0  0  0  0  0  0
    3.1243    0.0000    0.0000 C    0  0  0  0  0  0  0  0  0  0  0  0
    4.4542    0.0000    0.0000 C    0  0  0  0  0  0  0  0  0  0  0  0
    8.4438   -2.3045    0.0000 C    0  0  0  0  0  0  0  0  0  0  0  0
    9.1088   -3.4522    0.0000 C    0  0  0  0  0  0  0  0  0  0  0  0
    8.4438   -4.6090    0.0000 C    0  0  0  0  0  0  0  0  0  0  0  0
    7.1139   -4.6090    0.0000 C    0  0  0  0  0  0  0  0  0  0  0  0
    4.4542   -4.6090    0.0000 C    0  0  0  0  0  0  0  0  0  0  0  0
    3.1243   -4.6090    0.0000 C    0  0  0  0  0  0  0  0  0  0  0  0
    2.3501   -5.6748    0.0000 C    0  0  0  0  0  0  0  0  0  0  0  0
    1.0839   -5.2740    0.0000 N    0  0  0  0  0  0  0  0  0  0  0  0
    1.0839   -3.9441    0.0000 C    0  0  0  0  0  0  0  0  0  0  0  0
    2.3501   -3.5251    0.0000 C    0  0  0  0  0  0  0  0  0  0  0  0
    0.0000   -6.0482    0.0000 C    0  0  0  0  0  0  0  0  0  0  0  0
    4.0807   -7.0684    0.0000 Cl   0  0  0  0  0  0  0  0  0  0  0  0
  1  2  1  0  0  0  0
  1  6  1  0  0  0  0
  1 15  1  0  0  0  0
  2  3  2  0  0  0  0
  2 14  1  0  0  0  0
  3  4  1  0  0  0  0
  3 11  1  0  0  0  0
  4  5  1  0  0  0  0
  5  6  2  0  0  0  0
  5 10  1  0  0  0  0
  6  7  1  0  0  0  0
  7  8  2  0  0  0  0
  8  9  1  0  0  0  0
  9 10  2  0  0  0  0
 11 12  2  0  0  0  0
 12 13  1  0  0  0  0
 13 14  2  0  0  0  0
 15 16  1  0  0  0  0
 16 17  1  0  0  0  0
 16 20  1  0  0  0  0
 17 18  1  0  0  0  0
 18 19  1  0  0  0  0
 18 21  1  0  0  0  0
 19 20  1  0  0  0  0
M  END
> <ID>
4257

> <Formula>
C18H21ClN2S

> <FW>
332.8907 (296.4298+36.4609)

> <DSSTox_CID>
5548

> <DSSTox_RID>
77825

> <DSSTox_GSID>
25548

> <DSSTox_FileID_Sort>
2508

> <TS_ChemName>
Methdilazine hydrochloride

> <TS_ChemName_Synonyms>


> <TS_CASRN>
1229-35-2

> <CASRN_ChemName_Relationship>
primary

> <TS_Description>
single chemical compound

> <ChemNote>
parent [1982-37-2]

> <STRUCTURE_Shown>
tested chemical

> <STRUCTURE_Formula>
C18H21ClN2S

> <STRUCTURE_MW>
332.8907

> <STRUCTURE_ChemType>
defined organic

> <STRUCTURE_DefinedOrganicForm>
complex

> <STRUCTURE_IUPAC>
10-[(1-methylpyrrolidin-3-yl)methyl]-10H-phenothiazine hydrochloride (1:1)

> <STRUCTURE_SMILES>
Cl.CN1CCC(C1)CN2c4ccccc4Sc3ccccc23

> <STRUCTURE_SMILES_Desalt>
CN1CCC(C1)CN2c4ccccc4Sc3ccccc23

> <Substance_modify_yyyymmdd>
20080429

$$$$
