1229-29-4
ChemmineR-0915142007XD

 22 23  0  0  0  0  0  0  0  0  1 V2000
    0.2881   -6.2305    0.0000 C    0  0  0  0  0  0  0  0  0  0  0  0
    1.4403   -6.9054    0.0000 N    0  0  0  0  0  0  0  0  0  0  0  0
    1.4403   -8.2305    0.0000 C    0  0  0  0  0  0  0  0  0  0  0  0
    2.5926   -6.2305    0.0000 C    0  0  0  0  0  0  0  0  0  0  0  0
    2.5926   -4.8972    0.0000 C    0  0  0  0  0  0  0  0  0  0  0  0
    3.7449   -4.2470    0.0000 C    0  0  0  0  0  0  0  0  0  0  0  0
    3.7449   -2.9136    0.0000 C    0  0  0  0  0  0  0  0  0  0  0  0
    2.5432   -2.3375    0.0000 C    0  0  0  0  0  0  0  0  0  0  0  0
    2.2387   -1.0370    0.0000 C    0  0  0  0  0  0  0  0  0  0  0  0
    3.0782    0.0000    0.0000 C    0  0  0  0  0  0  0  0  0  0  0  0
    4.4033    0.0000    0.0000 O    0  0  0  0  0  0  0  0  0  0  0  0
    5.2346   -1.0370    0.0000 C    0  0  0  0  0  0  0  0  0  0  0  0
    4.9301   -2.3375    0.0000 C    0  0  0  0  0  0  0  0  0  0  0  0
    5.9095   -3.2346    0.0000 C    0  0  0  0  0  0  0  0  0  0  0  0
    7.1935   -2.8478    0.0000 C    0  0  0  0  0  0  0  0  0  0  0  0
    7.4816   -1.5556    0.0000 C    0  0  0  0  0  0  0  0  0  0  0  0
    6.5021   -0.6420    0.0000 C    0  0  0  0  0  0  0  0  0  0  0  0
    0.9794   -0.6420    0.0000 C    0  0  0  0  0  0  0  0  0  0  0  0
    0.0000   -1.5556    0.0000 C    0  0  0  0  0  0  0  0  0  0  0  0
    0.3045   -2.8478    0.0000 C    0  0  0  0  0  0  0  0  0  0  0  0
    1.5720   -3.2346    0.0000 C    0  0  0  0  0  0  0  0  0  0  0  0
    6.2141   -4.9959    0.0000 Cl   0  0  0  0  0  0  0  0  0  0  0  0
  1  2  1  0  0  0  0
  2  3  1  0  0  0  0
  2  4  1  0  0  0  0
  4  5  1  0  0  0  0
  5  6  1  0  0  0  0
  6  7  2  0  0  0  0
  7  8  1  0  0  0  0
  7 13  1  0  0  0  0
  8  9  2  0  0  0  0
  8 21  1  0  0  0  0
  9 10  1  0  0  0  0
  9 18  1  0  0  0  0
 10 11  1  0  0  0  0
 11 12  1  0  0  0  0
 12 13  2  0  0  0  0
 12 17  1  0  0  0  0
 13 14  1  0  0  0  0
 14 15  2  0  0  0  0
 15 16  1  0  0  0  0
 16 17  2  0  0  0  0
 18 19  2  0  0  0  0
 19 20  1  0  0  0  0
 20 21  2  0  0  0  0
M  END
> <ID>
10770

> <Formula>
C19H22ClNO

> <FW>
315.8371 (279.3761+36.4609)

> <DSSTox_CID>
25145

> <DSSTox_RID>
80701

> <DSSTox_GSID>
45145

> <DSSTox_FileID_Sort>
5382

> <TS_ChemName>
Doxepin hydrochloride

> <TS_ChemName_Synonyms>


> <TS_CASRN>
1229-29-4

> <CASRN_ChemName_Relationship>
primary

> <TS_Description>
single chemical compound

> <ChemNote>
stereochem; parent [1668-19-5]

> <STRUCTURE_Shown>
tested chemical

> <STRUCTURE_Formula>
C19H22ClNO

> <STRUCTURE_MW>
315.8371

> <STRUCTURE_ChemType>
defined organic

> <STRUCTURE_DefinedOrganicForm>
complex

> <STRUCTURE_IUPAC>
(3E)-3-(dibenzo[b,e]oxepin-11(6H)-ylidene)-N,N-dimethylpropan-1-amine hydrochloride (1:1)

> <STRUCTURE_SMILES>
Cl.CN(C)CC\C=C1\c3ccccc3OCc2ccccc12

> <STRUCTURE_SMILES_Desalt>
CN(C)CC\C=C1\c3ccccc3OCc2ccccc12

> <Substance_modify_yyyymmdd>
20100107

$$$$
