123-01-3
ChemmineR-0915142007XD

 18 18  0  0  0  0  0  0  0  0  1 V2000
    2.3086   -0.6619    0.0000 C   0  0  0  0  0  0  0  0  0  0  0  0
    2.3086   -1.9857    0.0000 C   0  0  0  0  0  0  0  0  0  0  0  0
    1.1462   -2.6638    0.0000 C   0  0  0  0  0  0  0  0  0  0  0  0
    0.0000   -1.9857    0.0000 C   0  0  0  0  0  0  0  0  0  0  0  0
    0.0000   -0.6619    0.0000 C   0  0  0  0  0  0  0  0  0  0  0  0
    1.1462    0.0000    0.0000 C   0  0  0  0  0  0  0  0  0  0  0  0
    3.4710    0.0000    0.0000 C   0  0  0  0  0  0  0  0  0  0  0  0
    4.6173   -0.6619    0.0000 C   0  0  0  0  0  0  0  0  0  0  0  0
    5.7635    0.0000    0.0000 C   0  0  0  0  0  0  0  0  0  0  0  0
    6.9259   -0.6619    0.0000 C   0  0  0  0  0  0  0  0  0  0  0  0
    8.0721    0.0000    0.0000 C   0  0  0  0  0  0  0  0  0  0  0  0
    9.2184   -0.6619    0.0000 C   0  0  0  0  0  0  0  0  0  0  0  0
   10.3807    0.0000    0.0000 C   0  0  0  0  0  0  0  0  0  0  0  0
   11.5270   -0.6619    0.0000 C   0  0  0  0  0  0  0  0  0  0  0  0
   12.6732    0.0000    0.0000 C   0  0  0  0  0  0  0  0  0  0  0  0
   13.8356   -0.6619    0.0000 C   0  0  0  0  0  0  0  0  0  0  0  0
   14.9980    0.0000    0.0000 C   0  0  0  0  0  0  0  0  0  0  0  0
   16.1442   -0.6619    0.0000 C   0  0  0  0  0  0  0  0  0  0  0  0
  1  2  2  0  0  0  0
  1  6  1  0  0  0  0
  1  7  1  0  0  0  0
  2  3  1  0  0  0  0
  3  4  2  0  0  0  0
  4  5  1  0  0  0  0
  5  6  2  0  0  0  0
  7  8  1  0  0  0  0
  8  9  1  0  0  0  0
  9 10  1  0  0  0  0
 10 11  1  0  0  0  0
 11 12  1  0  0  0  0
 12 13  1  0  0  0  0
 13 14  1  0  0  0  0
 14 15  1  0  0  0  0
 15 16  1  0  0  0  0
 16 17  1  0  0  0  0
 17 18  1  0  0  0  0
M  END
> <ID>
4879

> <Formula>
C18H30

> <FW>
246.4308

> <DSSTox_CID>
6994

> <DSSTox_RID>
78276

> <DSSTox_GSID>
26994

> <DSSTox_FileID_Sort>
2959

> <TS_ChemName>
Dodecylbenzene

> <TS_ChemName_Synonyms>


> <TS_CASRN>
123-01-3

> <CASRN_ChemName_Relationship>
primary

> <TS_Description>
single chemical compound

> <ChemNote>


> <STRUCTURE_Shown>
tested chemical

> <STRUCTURE_Formula>
C18H30

> <STRUCTURE_MW>
246.4308

> <STRUCTURE_ChemType>
defined organic

> <STRUCTURE_DefinedOrganicForm>
parent

> <STRUCTURE_IUPAC>
dodecylbenzene

> <STRUCTURE_SMILES>
CCCCCCCCCCCCc1ccccc1

> <STRUCTURE_SMILES_Desalt>
CCCCCCCCCCCCc1ccccc1

> <Substance_modify_yyyymmdd>
20080429

$$$$
