123-17-1
ChemmineR-0915142007XD

 13 12  0  0  0  0  0  0  0  0  1 V2000
    0.0000    0.0000    0.0000 C   0  0  0  0  0  0  0  0  0  0  0  0
    1.1558   -0.6565    0.0000 C   0  0  0  0  0  0  0  0  0  0  0  0
    2.3116    0.0000    0.0000 C   0  0  0  0  0  0  0  0  0  0  0  0
    3.4674   -0.6565    0.0000 C   0  0  0  0  0  0  0  0  0  0  0  0
    4.6233    0.0000    0.0000 C   0  0  0  0  0  0  0  0  0  0  0  0
    5.7791   -0.6565    0.0000 C   0  0  0  0  0  0  0  0  0  0  0  0
    6.9349    0.0000    0.0000 C   0  0  0  0  0  0  0  0  0  0  0  0
    8.0907   -0.6565    0.0000 C   0  0  0  0  0  0  0  0  0  0  0  0
    9.2465    0.0000    0.0000 C   0  0  0  0  0  0  0  0  0  0  0  0
    3.4674   -1.9880    0.0000 O   0  0  0  0  0  0  0  0  0  0  0  0
    1.1558   -1.9880    0.0000 C   0  0  0  0  0  0  0  0  0  0  0  0
    5.7791   -1.9880    0.0000 C   0  0  0  0  0  0  0  0  0  0  0  0
    8.0907   -1.9880    0.0000 C   0  0  0  0  0  0  0  0  0  0  0  0
  1  2  1  0  0  0  0
  2  3  1  0  0  0  0
  2 11  1  0  0  0  0
  3  4  1  0  0  0  0
  4  5  1  0  0  0  0
  4 10  1  0  0  0  0
  5  6  1  0  0  0  0
  6  7  1  0  0  0  0
  6 12  1  0  0  0  0
  7  8  1  0  0  0  0
  8  9  1  0  0  0  0
  8 13  1  0  0  0  0
M  END
> <ID>
5820

> <Formula>
C12H26O

> <FW>
186.3342

> <DSSTox_CID>
9159

> <DSSTox_RID>
78690

> <DSSTox_GSID>
29159

> <DSSTox_FileID_Sort>
3372

> <TS_ChemName>
2,6,8-Trimethyl-4-nonanol

> <TS_ChemName_Synonyms>


> <TS_CASRN>
123-17-1

> <CASRN_ChemName_Relationship>
primary

> <TS_Description>
single chemical compound

> <ChemNote>


> <STRUCTURE_Shown>
tested chemical

> <STRUCTURE_Formula>
C12H26O

> <STRUCTURE_MW>
186.3342

> <STRUCTURE_ChemType>
defined organic

> <STRUCTURE_DefinedOrganicForm>
parent

> <STRUCTURE_IUPAC>
2,6,8-trimethylnonan-4-ol

> <STRUCTURE_SMILES>
CC(C)CC(C)CC(O)CC(C)C

> <STRUCTURE_SMILES_Desalt>
CC(C)CC(C)CC(O)CC(C)C

> <Substance_modify_yyyymmdd>
20080429

$$$$
