123-62-6
ChemmineR-0915142007XD

  9  8  0  0  0  0  0  0  0  0  1 V2000
    4.6232   -1.3308    0.0000 C   0  0  0  0  0  0  0  0  0  0  0  0
    5.7739   -1.9893    0.0000 C   0  0  0  0  0  0  0  0  0  0  0  0
    6.9314   -1.3308    0.0000 C   0  0  0  0  0  0  0  0  0  0  0  0
    4.6232    0.0000    0.0000 O   0  0  0  0  0  0  0  0  0  0  0  0
    3.4657   -1.9893    0.0000 O   0  0  0  0  0  0  0  0  0  0  0  0
    2.3082   -1.3308    0.0000 C   0  0  0  0  0  0  0  0  0  0  0  0
    1.1575   -1.9893    0.0000 C   0  0  0  0  0  0  0  0  0  0  0  0
    0.0000   -1.3308    0.0000 C   0  0  0  0  0  0  0  0  0  0  0  0
    2.3082    0.0000    0.0000 O   0  0  0  0  0  0  0  0  0  0  0  0
  1  2  1  0  0  0  0
  1  5  1  0  0  0  0
  1  4  2  0  0  0  0
  2  3  1  0  0  0  0
  5  6  1  0  0  0  0
  6  7  1  0  0  0  0
  6  9  2  0  0  0  0
  7  8  1  0  0  0  0
M  END
> <ID>
4883

> <Formula>
C6H10O3

> <FW>
130.1418

> <DSSTox_CID>
7007

> <DSSTox_RID>
78279

> <DSSTox_GSID>
27007

> <DSSTox_FileID_Sort>
2962

> <TS_ChemName>
Propanoic anhydride

> <TS_ChemName_Synonyms>
Propionic anhydride

> <TS_CASRN>
123-62-6

> <CASRN_ChemName_Relationship>
primary

> <TS_Description>
single chemical compound

> <ChemNote>


> <STRUCTURE_Shown>
tested chemical

> <STRUCTURE_Formula>
C6H10O3

> <STRUCTURE_MW>
130.1418

> <STRUCTURE_ChemType>
defined organic

> <STRUCTURE_DefinedOrganicForm>
parent

> <STRUCTURE_IUPAC>
propanoic anhydride

> <STRUCTURE_SMILES>
CCC(=O)OC(=O)CC

> <STRUCTURE_SMILES_Desalt>
CCC(=O)OC(=O)CC

> <Substance_modify_yyyymmdd>
20080429

$$$$
