123-03-5
ChemmineR-0915142007XD

 23 22  0  0  0  0  0  0  0  0  2 V2000
    2.3032   -1.4317    0.0000 N    0  3  0  0  0  0  0  0  0  0  0  0
    3.4651   -0.7677    0.0000 C    0  0  0  0  0  0  0  0  0  0  0  0
    2.3032   -2.7597    0.0000 C    0  0  0  0  0  0  0  0  0  0  0  0
    1.1620   -0.7677    0.0000 C    0  0  0  0  0  0  0  0  0  0  0  0
    4.6271   -1.4317    0.0000 C    0  0  0  0  0  0  0  0  0  0  0  0
   19.5873   -0.7677    0.0000 C    0  0  0  0  0  0  0  0  0  0  0  0
    1.1620   -3.4236    0.0000 C    0  0  0  0  0  0  0  0  0  0  0  0
    0.0000   -1.4317    0.0000 C    0  0  0  0  0  0  0  0  0  0  0  0
   18.4461   -1.4317    0.0000 C    0  0  0  0  0  0  0  0  0  0  0  0
   11.5366   -1.4317    0.0000 C    0  0  0  0  0  0  0  0  0  0  0  0
   10.3746   -0.7677    0.0000 C    0  0  0  0  0  0  0  0  0  0  0  0
    6.9095   -1.4317    0.0000 C    0  0  0  0  0  0  0  0  0  0  0  0
    5.7476   -0.7677    0.0000 C    0  0  0  0  0  0  0  0  0  0  0  0
   17.2842   -0.7677    0.0000 C    0  0  0  0  0  0  0  0  0  0  0  0
    9.2127   -1.4317    0.0000 C    0  0  0  0  0  0  0  0  0  0  0  0
    8.0715   -0.7677    0.0000 C    0  0  0  0  0  0  0  0  0  0  0  0
   16.1222   -1.4317    0.0000 C    0  0  0  0  0  0  0  0  0  0  0  0
   14.9810   -0.7677    0.0000 C    0  0  0  0  0  0  0  0  0  0  0  0
   13.8398   -1.4317    0.0000 C    0  0  0  0  0  0  0  0  0  0  0  0
   12.6778   -0.7677    0.0000 C    0  0  0  0  0  0  0  0  0  0  0  0
   20.7493   -1.4317    0.0000 C    0  0  0  0  0  0  0  0  0  0  0  0
    0.0000   -2.7597    0.0000 C    0  0  0  0  0  0  0  0  0  0  0  0
    2.5314    0.0000    0.0000 Cl   0  5  0  0  0  0  0  0  0  0  0  0
  1  2  1  0  0  0  0
  1  3  2  0  0  0  0
  1  4  1  0  0  0  0
  2  5  1  0  0  0  0
  3  7  1  0  0  0  0
  4  8  2  0  0  0  0
  5 13  1  0  0  0  0
  6  9  1  0  0  0  0
  6 21  1  0  0  0  0
  7 22  2  0  0  0  0
  8 22  1  0  0  0  0
  9 14  1  0  0  0  0
 10 11  1  0  0  0  0
 10 20  1  0  0  0  0
 11 15  1  0  0  0  0
 12 13  1  0  0  0  0
 12 16  1  0  0  0  0
 14 17  1  0  0  0  0
 15 16  1  0  0  0  0
 17 18  1  0  0  0  0
 18 19  1  0  0  0  0
 19 20  1  0  0  0  0
M  END
> <ID>
8713

> <Formula>
C21H38ClN

> <FW>
339.9861 (304.5326+35.4535)

> <DSSTox_CID>
21761

> <DSSTox_RID>
79838

> <DSSTox_GSID>
41761

> <DSSTox_FileID_Sort>
4520

> <TS_ChemName>
Cetylpyridinium chloride

> <TS_ChemName_Synonyms>
Cetylpyridinium chloride (Pyridinium, 1-hexadecyl-, chloride)

> <TS_CASRN>
123-03-5

> <CASRN_ChemName_Relationship>
primary

> <TS_Description>
single chemical compound

> <ChemNote>
ammonium; parent [7773-52-6]

> <STRUCTURE_Shown>
tested chemical

> <STRUCTURE_Formula>
C21H38ClN

> <STRUCTURE_MW>
339.9861

> <STRUCTURE_ChemType>
defined organic

> <STRUCTURE_DefinedOrganicForm>
salt

> <STRUCTURE_IUPAC>
1-hexadecylpyridinium chloride

> <STRUCTURE_SMILES>
[Cl-].CCCCCCCCCCCCCCCC[n+]1ccccc1

> <STRUCTURE_SMILES_Desalt>
CCCCCCCCCCCCCCCC[n+]1ccccc1

> <Substance_modify_yyyymmdd>
20080825

$$$$
