123-35-3
ChemmineR-0915142007XD

 10  9  0  0  0  0  0  0  0  0  1 V2000
    1.9943   -1.1567    0.0000 C   0  0  0  0  0  0  0  0  0  0  0  0
    2.6590    0.0000    0.0000 C   0  0  0  0  0  0  0  0  0  0  0  0
    0.6648   -1.1567    0.0000 C   0  0  0  0  0  0  0  0  0  0  0  0
    0.0000   -2.3067    0.0000 C   0  0  0  0  0  0  0  0  0  0  0  0
    2.6590   -2.3067    0.0000 C   0  0  0  0  0  0  0  0  0  0  0  0
    3.9885   -2.3067    0.0000 C   0  0  0  0  0  0  0  0  0  0  0  0
    4.6533   -1.1567    0.0000 C   0  0  0  0  0  0  0  0  0  0  0  0
    5.9828   -1.1567    0.0000 C   0  0  0  0  0  0  0  0  0  0  0  0
    6.6475    0.0000    0.0000 C   0  0  0  0  0  0  0  0  0  0  0  0
    6.6475   -2.3067    0.0000 C   0  0  0  0  0  0  0  0  0  0  0  0
  1  2  2  0  0  0  0
  1  3  1  0  0  0  0
  1  5  1  0  0  0  0
  3  4  2  0  0  0  0
  5  6  1  0  0  0  0
  6  7  1  0  0  0  0
  7  8  2  0  0  0  0
  8  9  1  0  0  0  0
  8 10  1  0  0  0  0
M  END
> <ID>
4351

> <Formula>
C10H16

> <FW>
136.234

> <DSSTox_CID>
5692

> <DSSTox_RID>
77883

> <DSSTox_GSID>
25692

> <DSSTox_FileID_Sort>
2566

> <TS_ChemName>
Myrcene

> <TS_ChemName_Synonyms>
Myrcene (beta-Myrcene) (1,6-Octadiene, 7-methyl-3-methylene-)

> <TS_CASRN>
123-35-3

> <CASRN_ChemName_Relationship>
primary

> <TS_Description>
single chemical compound

> <ChemNote>


> <STRUCTURE_Shown>
tested chemical

> <STRUCTURE_Formula>
C10H16

> <STRUCTURE_MW>
136.234

> <STRUCTURE_ChemType>
defined organic

> <STRUCTURE_DefinedOrganicForm>
parent

> <STRUCTURE_IUPAC>
7-methyl-3-methylideneocta-1,6-diene

> <STRUCTURE_SMILES>
C/C(C)=C\CCC(=C)C=C

> <STRUCTURE_SMILES_Desalt>
C/C(C)=C\CCC(=C)C=C

> <Substance_modify_yyyymmdd>
20080429

$$$$
