123-25-1
ChemmineR-0915142007XD

 12 11  0  0  0  0  0  0  0  0  1 V2000
    3.4136   -1.2814    0.0000 C   0  0  0  0  0  0  0  0  0  0  0  0
    4.5413   -1.9887    0.0000 C   0  0  0  0  0  0  0  0  0  0  0  0
    5.6689   -1.2814    0.0000 C   0  0  0  0  0  0  0  0  0  0  0  0
    6.8375   -1.9887    0.0000 C   0  0  0  0  0  0  0  0  0  0  0  0
    3.4136    0.0000    0.0000 O   0  0  0  0  0  0  0  0  0  0  0  0
    2.2860   -1.9887    0.0000 O   0  0  0  0  0  0  0  0  0  0  0  0
    6.8375   -3.2701    0.0000 O   0  0  0  0  0  0  0  0  0  0  0  0
    7.9651   -1.2814    0.0000 O   0  0  0  0  0  0  0  0  0  0  0  0
    1.1584   -1.2814    0.0000 C   0  0  0  0  0  0  0  0  0  0  0  0
    0.0000   -1.9887    0.0000 C   0  0  0  0  0  0  0  0  0  0  0  0
    9.1235   -1.9887    0.0000 C   0  0  0  0  0  0  0  0  0  0  0  0
   10.2512   -1.2814    0.0000 C   0  0  0  0  0  0  0  0  0  0  0  0
  1  2  1  0  0  0  0
  1  6  1  0  0  0  0
  1  5  2  0  0  0  0
  2  3  1  0  0  0  0
  3  4  1  0  0  0  0
  4  8  1  0  0  0  0
  4  7  2  0  0  0  0
  6  9  1  0  0  0  0
  8 11  1  0  0  0  0
  9 10  1  0  0  0  0
 11 12  1  0  0  0  0
M  END
> <ID>
7480

> <Formula>
C8H14O4

> <FW>
174.1944

> <DSSTox_CID>
18732

> <DSSTox_RID>
79389

> <DSSTox_GSID>
38732

> <DSSTox_FileID_Sort>
4071

> <TS_ChemName>
Diethyl butanedioate

> <TS_ChemName_Synonyms>
Butanedioic acid, diethyl ester

> <TS_CASRN>
123-25-1

> <CASRN_ChemName_Relationship>
primary

> <TS_Description>
single chemical compound

> <ChemNote>


> <STRUCTURE_Shown>
tested chemical

> <STRUCTURE_Formula>
C8H14O4

> <STRUCTURE_MW>
174.1944

> <STRUCTURE_ChemType>
defined organic

> <STRUCTURE_DefinedOrganicForm>
parent

> <STRUCTURE_IUPAC>
diethyl butanedioate

> <STRUCTURE_SMILES>
O=C(CCC(=O)OCC)OCC

> <STRUCTURE_SMILES_Desalt>
O=C(CCC(=O)OCC)OCC

> <Substance_modify_yyyymmdd>
20080429

$$$$
