123-51-3
ChemmineR-0915142007XD

  6  5  0  0  0  0  0  0  0  0  1 V2000
    2.3042   -1.9954    0.0000 C   0  0  0  0  0  0  0  0  0  0  0  0
    1.1521   -1.3318    0.0000 C   0  0  0  0  0  0  0  0  0  0  0  0
    0.0000   -1.9954    0.0000 O   0  0  0  0  0  0  0  0  0  0  0  0
    3.4563   -1.3318    0.0000 C   0  0  0  0  0  0  0  0  0  0  0  0
    3.4563    0.0000    0.0000 C   0  0  0  0  0  0  0  0  0  0  0  0
    4.6084   -1.9954    0.0000 C   0  0  0  0  0  0  0  0  0  0  0  0
  1  2  1  0  0  0  0
  1  4  1  0  0  0  0
  2  3  1  0  0  0  0
  4  5  1  0  0  0  0
  4  6  1  0  0  0  0
M  END
> <ID>
4215

> <Formula>
C5H12O

> <FW>
88.1482

> <DSSTox_CID>
5469

> <DSSTox_RID>
77799

> <DSSTox_GSID>
25469

> <DSSTox_FileID_Sort>
2482

> <TS_ChemName>
Isopentyl alcohol

> <TS_ChemName_Synonyms>


> <TS_CASRN>
123-51-3

> <CASRN_ChemName_Relationship>
primary

> <TS_Description>
single chemical compound

> <ChemNote>


> <STRUCTURE_Shown>
tested chemical

> <STRUCTURE_Formula>
C5H12O

> <STRUCTURE_MW>
88.1482

> <STRUCTURE_ChemType>
defined organic

> <STRUCTURE_DefinedOrganicForm>
parent

> <STRUCTURE_IUPAC>
3-methylbutan-1-ol

> <STRUCTURE_SMILES>
CC(C)CCO

> <STRUCTURE_SMILES_Desalt>
CC(C)CCO

> <Substance_modify_yyyymmdd>
20080429

$$$$
