123-96-6
ChemmineR-0915142007XD

  9  8  0  0  0  0  0  0  0  0  1 V2000
    0.0000    0.0000    0.0000 C   0  0  0  0  0  0  0  0  0  0  0  0
    1.1411   -0.6750    0.0000 C   0  0  0  0  0  0  0  0  0  0  0  0
    2.2982    0.0000    0.0000 C   0  0  0  0  0  0  0  0  0  0  0  0
    3.4554   -0.6750    0.0000 C   0  0  0  0  0  0  0  0  0  0  0  0
    4.6126    0.0000    0.0000 C   0  0  0  0  0  0  0  0  0  0  0  0
    5.7376   -0.6750    0.0000 C   0  0  0  0  0  0  0  0  0  0  0  0
    6.8947    0.0000    0.0000 C   0  0  0  0  0  0  0  0  0  0  0  0
    8.0358   -0.6750    0.0000 C   0  0  0  0  0  0  0  0  0  0  0  0
    1.1411   -1.9929    0.0000 O   0  0  0  0  0  0  0  0  0  0  0  0
  1  2  1  0  0  0  0
  2  3  1  0  0  0  0
  2  9  1  0  0  0  0
  3  4  1  0  0  0  0
  4  5  1  0  0  0  0
  5  6  1  0  0  0  0
  6  7  1  0  0  0  0
  7  8  1  0  0  0  0
M  END
> <ID>
4885

> <Formula>
C8H18O

> <FW>
130.2279

> <DSSTox_CID>
7014

> <DSSTox_RID>
78280

> <DSSTox_GSID>
27014

> <DSSTox_FileID_Sort>
2963

> <TS_ChemName>
2-Octanol

> <TS_ChemName_Synonyms>


> <TS_CASRN>
123-96-6

> <CASRN_ChemName_Relationship>
primary

> <TS_Description>
single chemical compound

> <ChemNote>


> <STRUCTURE_Shown>
tested chemical

> <STRUCTURE_Formula>
C8H18O

> <STRUCTURE_MW>
130.2279

> <STRUCTURE_ChemType>
defined organic

> <STRUCTURE_DefinedOrganicForm>
parent

> <STRUCTURE_IUPAC>
octan-2-ol

> <STRUCTURE_SMILES>
CC(O)CCCCCC

> <STRUCTURE_SMILES_Desalt>
CC(O)CCCCCC

> <Substance_modify_yyyymmdd>
20080429

$$$$
