123-29-5
ChemmineR-0915142007XD

 13 12  0  0  0  0  0  0  0  0  1 V2000
   12.7101   -1.3218    0.0000 C   0  0  0  0  0  0  0  0  0  0  0  0
   11.5534   -1.9828    0.0000 C   0  0  0  0  0  0  0  0  0  0  0  0
   10.3714   -1.3473    0.0000 C   0  0  0  0  0  0  0  0  0  0  0  0
    9.2402   -1.9828    0.0000 C   0  0  0  0  0  0  0  0  0  0  0  0
    8.0836   -1.3473    0.0000 C   0  0  0  0  0  0  0  0  0  0  0  0
    6.9524   -1.9828    0.0000 C   0  0  0  0  0  0  0  0  0  0  0  0
    5.7577   -1.3473    0.0000 C   0  0  0  0  0  0  0  0  0  0  0  0
    4.6265   -2.0209    0.0000 C   0  0  0  0  0  0  0  0  0  0  0  0
    3.4698   -1.3473    0.0000 C   0  0  0  0  0  0  0  0  0  0  0  0
    2.3387   -2.0209    0.0000 O   0  0  0  0  0  0  0  0  0  0  0  0
    3.4698    0.0000    0.0000 O   0  0  0  0  0  0  0  0  0  0  0  0
    1.1566   -1.3473    0.0000 C   0  0  0  0  0  0  0  0  0  0  0  0
    0.0000   -2.0209    0.0000 C   0  0  0  0  0  0  0  0  0  0  0  0
  1  2  1  0  0  0  0
  2  3  1  0  0  0  0
  3  4  1  0  0  0  0
  4  5  1  0  0  0  0
  5  6  1  0  0  0  0
  6  7  1  0  0  0  0
  7  8  1  0  0  0  0
  8  9  1  0  0  0  0
  9 10  1  0  0  0  0
  9 11  2  0  0  0  0
 10 12  1  0  0  0  0
 12 13  1  0  0  0  0
M  END
> <ID>
12772

> <Formula>
C11H22O2

> <FW>
186.2912

> <DSSTox_CID>
27651

> <DSSTox_RID>
82477

> <DSSTox_GSID>
47651

> <DSSTox_FileID_Sort>
7158

> <TS_ChemName>
Ethyl nonanoate

> <TS_ChemName_Synonyms>


> <TS_CASRN>
123-29-5

> <CASRN_ChemName_Relationship>
primary

> <TS_Description>
single chemical compound

> <ChemNote>


> <STRUCTURE_Shown>
tested chemical

> <STRUCTURE_Formula>
C11H22O2

> <STRUCTURE_MW>
186.2912

> <STRUCTURE_ChemType>
defined organic

> <STRUCTURE_DefinedOrganicForm>
parent

> <STRUCTURE_IUPAC>
ethyl nonanoate

> <STRUCTURE_SMILES>
O=C(CCCCCCCC)OCC

> <STRUCTURE_SMILES_Desalt>
O=C(CCCCCCCC)OCC

> <Substance_modify_yyyymmdd>
20101214

$$$$
