123-00-2
ChemmineR-0915142007XD

 10 10  0  0  0  0  0  0  0  0  1 V2000
    2.6579   -1.1496    0.0000 N   0  0  0  0  0  0  0  0  0  0  0  0
    0.0000   -1.1496    0.0000 O   0  0  0  0  0  0  0  0  0  0  0  0
    2.0001   -2.3058    0.0000 C   0  0  0  0  0  0  0  0  0  0  0  0
    2.0001    0.0000    0.0000 C   0  0  0  0  0  0  0  0  0  0  0  0
    0.6711    0.0000    0.0000 C   0  0  0  0  0  0  0  0  0  0  0  0
    0.6711   -2.3058    0.0000 C   0  0  0  0  0  0  0  0  0  0  0  0
    5.9870   -2.3058    0.0000 C   0  0  0  0  0  0  0  0  0  0  0  0
    4.6581   -2.3058    0.0000 C   0  0  0  0  0  0  0  0  0  0  0  0
    3.9869   -1.1496    0.0000 C   0  0  0  0  0  0  0  0  0  0  0  0
    6.6449   -3.4553    0.0000 N   0  0  0  0  0  0  0  0  0  0  0  0
  1  3  1  0  0  0  0
  1  4  1  0  0  0  0
  1  9  1  0  0  0  0
  2  5  1  0  0  0  0
  2  6  1  0  0  0  0
  3  6  1  0  0  0  0
  4  5  1  0  0  0  0
  7  8  1  0  0  0  0
  7 10  1  0  0  0  0
  8  9  1  0  0  0  0
M  END
> <ID>
8487

> <Formula>
C7H16N2O

> <FW>
144.2147

> <DSSTox_CID>
21521

> <DSSTox_RID>
79764

> <DSSTox_GSID>
41521

> <DSSTox_FileID_Sort>
4446

> <TS_ChemName>
4-Morpholinepropanamine

> <TS_ChemName_Synonyms>


> <TS_CASRN>
123-00-2

> <CASRN_ChemName_Relationship>
primary

> <TS_Description>
single chemical compound

> <ChemNote>


> <STRUCTURE_Shown>
tested chemical

> <STRUCTURE_Formula>
C7H16N2O

> <STRUCTURE_MW>
144.2147

> <STRUCTURE_ChemType>
defined organic

> <STRUCTURE_DefinedOrganicForm>
parent

> <STRUCTURE_IUPAC>
3-(morpholin-4-yl)propan-1-amine

> <STRUCTURE_SMILES>
NCCCN1CCOCC1

> <STRUCTURE_SMILES_Desalt>
NCCCN1CCOCC1

> <Substance_modify_yyyymmdd>
20080825

$$$$
