123-18-2
ChemmineR-0915142007XD

 13 12  0  0  0  0  0  0  0  0  1 V2000
    0.0000   -1.9880    0.0000 C   0  0  0  0  0  0  0  0  0  0  0  0
    1.1558   -1.3315    0.0000 C   0  0  0  0  0  0  0  0  0  0  0  0
    2.3116   -1.9880    0.0000 C   0  0  0  0  0  0  0  0  0  0  0  0
    3.4674   -1.3315    0.0000 C   0  0  0  0  0  0  0  0  0  0  0  0
    4.6233   -1.9880    0.0000 C   0  0  0  0  0  0  0  0  0  0  0  0
    5.7791   -1.3315    0.0000 C   0  0  0  0  0  0  0  0  0  0  0  0
    6.9349   -1.9880    0.0000 C   0  0  0  0  0  0  0  0  0  0  0  0
    8.0907   -1.3315    0.0000 C   0  0  0  0  0  0  0  0  0  0  0  0
    9.2465   -1.9880    0.0000 C   0  0  0  0  0  0  0  0  0  0  0  0
    3.4674    0.0000    0.0000 O   0  0  0  0  0  0  0  0  0  0  0  0
    1.1558    0.0000    0.0000 C   0  0  0  0  0  0  0  0  0  0  0  0
    5.7791    0.0000    0.0000 C   0  0  0  0  0  0  0  0  0  0  0  0
    8.0907    0.0000    0.0000 C   0  0  0  0  0  0  0  0  0  0  0  0
  1  2  1  0  0  0  0
  2  3  1  0  0  0  0
  2 11  1  0  0  0  0
  3  4  1  0  0  0  0
  4  5  1  0  0  0  0
  4 10  2  0  0  0  0
  5  6  1  0  0  0  0
  6  7  1  0  0  0  0
  6 12  1  0  0  0  0
  7  8  1  0  0  0  0
  8  9  1  0  0  0  0
  8 13  1  0  0  0  0
M  END
> <ID>
4881

> <Formula>
C12H24O

> <FW>
184.3184

> <DSSTox_CID>
6998

> <DSSTox_RID>
78278

> <DSSTox_GSID>
26998

> <DSSTox_FileID_Sort>
2961

> <TS_ChemName>
2,6,8-Trimethyl-4-nonanone

> <TS_ChemName_Synonyms>
4-Nonanone, 2,6,8-trimethyl-

> <TS_CASRN>
123-18-2

> <CASRN_ChemName_Relationship>
primary

> <TS_Description>
single chemical compound

> <ChemNote>


> <STRUCTURE_Shown>
tested chemical

> <STRUCTURE_Formula>
C12H24O

> <STRUCTURE_MW>
184.3184

> <STRUCTURE_ChemType>
defined organic

> <STRUCTURE_DefinedOrganicForm>
parent

> <STRUCTURE_IUPAC>
2,6,8-trimethylnonan-4-one

> <STRUCTURE_SMILES>
CC(C)CC(C)CC(=O)CC(C)C

> <STRUCTURE_SMILES_Desalt>
CC(C)CC(C)CC(=O)CC(C)C

> <Substance_modify_yyyymmdd>
20080429

$$$$
