123-94-4
ChemmineR-0915142007XD

 25 24  0  0  0  0  0  0  0  0  1 V2000
    5.7435   -1.9901    0.0000 C   0  0  0  0  0  0  0  0  0  0  0  0
    6.8518   -1.3099    0.0000 C   0  0  0  0  0  0  0  0  0  0  0  0
    8.0106   -1.9901    0.0000 C   0  0  0  0  0  0  0  0  0  0  0  0
    9.1442   -1.3099    0.0000 C   0  0  0  0  0  0  0  0  0  0  0  0
   10.3030   -1.9901    0.0000 C   0  0  0  0  0  0  0  0  0  0  0  0
   11.4365   -1.3099    0.0000 C   0  0  0  0  0  0  0  0  0  0  0  0
   12.5953   -1.9901    0.0000 C   0  0  0  0  0  0  0  0  0  0  0  0
   13.7541   -1.3099    0.0000 C   0  0  0  0  0  0  0  0  0  0  0  0
   14.8877   -1.9901    0.0000 C   0  0  0  0  0  0  0  0  0  0  0  0
   16.0464   -1.3099    0.0000 C   0  0  0  0  0  0  0  0  0  0  0  0
   17.1548   -1.9901    0.0000 C   0  0  0  0  0  0  0  0  0  0  0  0
   18.3136   -1.3099    0.0000 C   0  0  0  0  0  0  0  0  0  0  0  0
   19.4472   -1.9901    0.0000 C   0  0  0  0  0  0  0  0  0  0  0  0
   20.6059   -1.3099    0.0000 C   0  0  0  0  0  0  0  0  0  0  0  0
   21.7395   -1.9901    0.0000 C   0  0  0  0  0  0  0  0  0  0  0  0
   22.8983   -1.3099    0.0000 C   0  0  0  0  0  0  0  0  0  0  0  0
   24.0319   -1.9901    0.0000 C   0  0  0  0  0  0  0  0  0  0  0  0
   25.1906   -1.3099    0.0000 C   0  0  0  0  0  0  0  0  0  0  0  0
    5.7435   -3.3000    0.0000 O   0  0  0  0  0  0  0  0  0  0  0  0
    4.5847   -1.3099    0.0000 O   0  0  0  0  0  0  0  0  0  0  0  0
    3.4511   -1.9901    0.0000 C   0  0  0  0  0  0  0  0  0  0  0  0
    2.2923   -1.3099    0.0000 C   0  0  0  0  0  0  0  0  0  0  0  0
    1.1588   -1.9901    0.0000 C   0  0  0  0  0  0  0  0  0  0  0  0
    2.2923    0.0000    0.0000 O   0  0  0  0  0  0  0  0  0  0  0  0
    0.0000   -1.3099    0.0000 O   0  0  0  0  0  0  0  0  0  0  0  0
  1  2  1  0  0  0  0
  1 20  1  0  0  0  0
  1 19  2  0  0  0  0
  2  3  1  0  0  0  0
  3  4  1  0  0  0  0
  4  5  1  0  0  0  0
  5  6  1  0  0  0  0
  6  7  1  0  0  0  0
  7  8  1  0  0  0  0
  8  9  1  0  0  0  0
  9 10  1  0  0  0  0
 10 11  1  0  0  0  0
 11 12  1  0  0  0  0
 12 13  1  0  0  0  0
 13 14  1  0  0  0  0
 14 15  1  0  0  0  0
 15 16  1  0  0  0  0
 16 17  1  0  0  0  0
 17 18  1  0  0  0  0
 20 21  1  0  0  0  0
 21 22  1  0  0  0  0
 22 23  1  0  0  0  0
 22 24  1  0  0  0  0
 23 25  1  0  0  0  0
M  END
> <ID>
5821

> <Formula>
C21H42O4

> <FW>
358.5558

> <DSSTox_CID>
9160

> <DSSTox_RID>
78691

> <DSSTox_GSID>
29160

> <DSSTox_FileID_Sort>
3373

> <TS_ChemName>
1-Stearoyl-rac-glycerol

> <TS_ChemName_Synonyms>
Octadecanoic acid, 2,3-dihydroxypropyl ester; 1-Monostearin

> <TS_CASRN>
123-94-4

> <CASRN_ChemName_Relationship>
primary

> <TS_Description>
single chemical compound

> <ChemNote>


> <STRUCTURE_Shown>
tested chemical

> <STRUCTURE_Formula>
C21H42O4

> <STRUCTURE_MW>
358.5558

> <STRUCTURE_ChemType>
defined organic

> <STRUCTURE_DefinedOrganicForm>
parent

> <STRUCTURE_IUPAC>
2,3-dihydroxypropyl octadecanoate

> <STRUCTURE_SMILES>
OCC(O)COC(=O)CCCCCCCCCCCCCCCCC

> <STRUCTURE_SMILES_Desalt>
OCC(O)COC(=O)CCCCCCCCCCCCCCCCC

> <Substance_modify_yyyymmdd>
20080429

$$$$
