123-81-9
ChemmineR-0915142007XD

 12 11  0  0  0  0  0  0  0  0  1 V2000
    2.2960   -1.3238    0.0000 C   0  0  0  0  0  0  0  0  0  0  0  0
    2.2960    0.0000    0.0000 O   0  0  0  0  0  0  0  0  0  0  0  0
    3.4441   -1.9961    0.0000 O   0  0  0  0  0  0  0  0  0  0  0  0
    1.1480   -1.9961    0.0000 C   0  0  0  0  0  0  0  0  0  0  0  0
    0.0000   -1.3238    0.0000 S   0  0  0  0  0  0  0  0  0  0  0  0
    8.0465   -1.9961    0.0000 C   0  0  0  0  0  0  0  0  0  0  0  0
    8.0465   -3.3200    0.0000 O   0  0  0  0  0  0  0  0  0  0  0  0
    6.8985   -1.3238    0.0000 O   0  0  0  0  0  0  0  0  0  0  0  0
    9.1945   -1.3238    0.0000 C   0  0  0  0  0  0  0  0  0  0  0  0
   10.3425   -1.9961    0.0000 S   0  0  0  0  0  0  0  0  0  0  0  0
    5.7505   -1.9961    0.0000 C   0  0  0  0  0  0  0  0  0  0  0  0
    4.5921   -1.3238    0.0000 C   0  0  0  0  0  0  0  0  0  0  0  0
  1  2  2  0  0  0  0
  1  3  1  0  0  0  0
  1  4  1  0  0  0  0
  3 12  1  0  0  0  0
  4  5  1  0  0  0  0
  6  7  2  0  0  0  0
  6  8  1  0  0  0  0
  6  9  1  0  0  0  0
  8 11  1  0  0  0  0
  9 10  1  0  0  0  0
 11 12  1  0  0  0  0
M  END
> <ID>
10181

> <Formula>
C6H10O4S2

> <FW>
210.2712

> <DSSTox_CID>
24527

> <DSSTox_RID>
80293

> <DSSTox_GSID>
44527

> <DSSTox_FileID_Sort>
4975

> <TS_ChemName>
Ethane-1,2-diyl bis(sulfanylacetate)

> <TS_ChemName_Synonyms>
Ethane-1,2-diyl bis(sulfanylacetate; Acetic acid, mercapto-, 1,2-ethanediyl ester

> <TS_CASRN>
123-81-9

> <CASRN_ChemName_Relationship>
primary

> <TS_Description>
single chemical compound

> <ChemNote>


> <STRUCTURE_Shown>
tested chemical

> <STRUCTURE_Formula>
C6H10O4S2

> <STRUCTURE_MW>
210.2712

> <STRUCTURE_ChemType>
defined organic

> <STRUCTURE_DefinedOrganicForm>
parent

> <STRUCTURE_IUPAC>
ethane-1,2-diyl bis(sulfanylacetate)

> <STRUCTURE_SMILES>
O=C(OCCOC(=O)CS)CS

> <STRUCTURE_SMILES_Desalt>
O=C(OCCOC(=O)CS)CS

> <Substance_modify_yyyymmdd>
20091116

$$$$
