123-63-7
ChemmineR-0915142007XD

  9  9  0  0  0  0  0  0  0  0  1 V2000
    1.3315   -2.3037    0.0000 C   0  0  0  0  0  0  0  0  0  0  0  0
    0.0000   -2.3037    0.0000 C   0  0  0  0  0  0  0  0  0  0  0  0
    1.9950   -1.1518    0.0000 O   0  0  0  0  0  0  0  0  0  0  0  0
    3.3265   -1.1518    0.0000 C   0  0  0  0  0  0  0  0  0  0  0  0
    3.9899    0.0000    0.0000 C   0  0  0  0  0  0  0  0  0  0  0  0
    3.9899   -2.3037    0.0000 O   0  0  0  0  0  0  0  0  0  0  0  0
    3.3265   -3.4555    0.0000 C   0  0  0  0  0  0  0  0  0  0  0  0
    3.9899   -4.6073    0.0000 C   0  0  0  0  0  0  0  0  0  0  0  0
    1.9950   -3.4555    0.0000 O   0  0  0  0  0  0  0  0  0  0  0  0
  1  2  1  0  0  0  0
  1  3  1  0  0  0  0
  1  9  1  0  0  0  0
  3  4  1  0  0  0  0
  4  5  1  0  0  0  0
  4  6  1  0  0  0  0
  6  7  1  0  0  0  0
  7  8  1  0  0  0  0
  7  9  1  0  0  0  0
M  END
> <ID>
3066

> <Formula>
C6H12O3

> <FW>
132.1577

> <DSSTox_CID>
3419

> <DSSTox_RID>
77020

> <DSSTox_GSID>
23419

> <DSSTox_FileID_Sort>
1704

> <TS_ChemName>
Paraldehyde

> <TS_ChemName_Synonyms>
Paraldehyde (2,4,6-Trimethyl-[1,3,5]trioxane)

> <TS_CASRN>
123-63-7

> <CASRN_ChemName_Relationship>
primary

> <TS_Description>
single chemical compound

> <ChemNote>


> <STRUCTURE_Shown>
tested chemical

> <STRUCTURE_Formula>
C6H12O3

> <STRUCTURE_MW>
132.1577

> <STRUCTURE_ChemType>
defined organic

> <STRUCTURE_DefinedOrganicForm>
parent

> <STRUCTURE_IUPAC>
2,4,6-trimethyl-1,3,5-trioxane

> <STRUCTURE_SMILES>
CC1OC(C)OC(C)O1

> <STRUCTURE_SMILES_Desalt>
CC1OC(C)OC(C)O1

> <Substance_modify_yyyymmdd>
20080429

$$$$
