123-99-9
ChemmineR-0915142007XD

 13 12  0  0  0  0  0  0  0  0  1 V2000
    8.0673    0.0000    0.0000 O   0  0  0  0  0  0  0  0  0  0  0  0
    9.2183   -0.6636    0.0000 C   0  0  0  0  0  0  0  0  0  0  0  0
   10.3693    0.0000    0.0000 O   0  0  0  0  0  0  0  0  0  0  0  0
    9.2183   -2.0013    0.0000 C   0  0  0  0  0  0  0  0  0  0  0  0
    8.0673   -2.6649    0.0000 C   0  0  0  0  0  0  0  0  0  0  0  0
    6.9163   -2.0013    0.0000 C   0  0  0  0  0  0  0  0  0  0  0  0
    5.7653   -2.6649    0.0000 C   0  0  0  0  0  0  0  0  0  0  0  0
    4.6040   -2.0013    0.0000 C   0  0  0  0  0  0  0  0  0  0  0  0
    3.4530   -2.6649    0.0000 C   0  0  0  0  0  0  0  0  0  0  0  0
    2.3020   -2.0013    0.0000 C   0  0  0  0  0  0  0  0  0  0  0  0
    1.1510   -2.6649    0.0000 C   0  0  0  0  0  0  0  0  0  0  0  0
    0.0000   -2.0013    0.0000 O   0  0  0  0  0  0  0  0  0  0  0  0
    1.1510   -3.9922    0.0000 O   0  0  0  0  0  0  0  0  0  0  0  0
  1  2  2  0  0  0  0
  2  3  1  0  0  0  0
  2  4  1  0  0  0  0
  4  5  1  0  0  0  0
  5  6  1  0  0  0  0
  6  7  1  0  0  0  0
  7  8  1  0  0  0  0
  8  9  1  0  0  0  0
  9 10  1  0  0  0  0
 10 11  1  0  0  0  0
 11 12  1  0  0  0  0
 11 13  2  0  0  0  0
M  END
> <ID>
1577

> <Formula>
C9H16O4

> <FW>
188.2209

> <DSSTox_CID>
1640

> <DSSTox_RID>
76254

> <DSSTox_GSID>
21640

> <DSSTox_FileID_Sort>
938

> <TS_ChemName>
Nonanedioic acid

> <TS_ChemName_Synonyms>
Nonanedioic acid (Azelaic acid)

> <TS_CASRN>
123-99-9

> <CASRN_ChemName_Relationship>
primary

> <TS_Description>
single chemical compound

> <ChemNote>


> <STRUCTURE_Shown>
tested chemical

> <STRUCTURE_Formula>
C9H16O4

> <STRUCTURE_MW>
188.2209

> <STRUCTURE_ChemType>
defined organic

> <STRUCTURE_DefinedOrganicForm>
parent

> <STRUCTURE_IUPAC>
nonanedioic acid

> <STRUCTURE_SMILES>
O=C(O)CCCCCCCC(=O)O

> <STRUCTURE_SMILES_Desalt>
O=C(O)CCCCCCCC(=O)O

> <Substance_modify_yyyymmdd>
20080429

$$$$
