123-41-1
ChemmineR-0915142007XD

  8  6  0  0  0  0  0  0  0  0  2 V2000
    4.6052   -1.8159    0.0000 C   0  0  0  0  0  0  0  0  0  0  0  0
    5.7652   -1.1599    0.0000 C   0  0  0  0  0  0  0  0  0  0  0  0
    3.4522   -1.1599    0.0000 N   0  3  0  0  0  0  0  0  0  0  0  0
    6.9044   -1.8159    0.0000 O   0  0  0  0  0  0  0  0  0  0  0  0
    2.7756   -2.3130    0.0000 C   0  0  0  0  0  0  0  0  0  0  0  0
    4.1081    0.0000    0.0000 C   0  0  0  0  0  0  0  0  0  0  0  0
    2.2992   -0.4833    0.0000 C   0  0  0  0  0  0  0  0  0  0  0  0
    0.0000   -1.0633    0.0000 O   0  5  0  0  0  0  0  0  0  0  0  0
  1  2  1  0  0  0  0
  1  3  1  0  0  0  0
  2  4  1  0  0  0  0
  3  5  1  0  0  0  0
  3  6  1  0  0  0  0
  3  7  1  0  0  0  0
M  END
> <ID>
12604

> <Formula>
C5H15NO2

> <FW>
121.1781 (104.1702+17.0079)

> <DSSTox_CID>
27467

> <DSSTox_RID>
82367

> <DSSTox_GSID>
47467

> <DSSTox_FileID_Sort>
7048

> <TS_ChemName>
Choline hydroxide

> <TS_ChemName_Synonyms>


> <TS_CASRN>
123-41-1

> <CASRN_ChemName_Relationship>
primary

> <TS_Description>
single chemical compound

> <ChemNote>


> <STRUCTURE_Shown>
tested chemical

> <STRUCTURE_Formula>
C5H15NO2

> <STRUCTURE_MW>
121.1781

> <STRUCTURE_ChemType>
defined organic

> <STRUCTURE_DefinedOrganicForm>
salt

> <STRUCTURE_IUPAC>
2-hydroxy-N,N,N-trimethylethanaminium hydroxide

> <STRUCTURE_SMILES>
[OH-].C[N+](C)(C)CCO

> <STRUCTURE_SMILES_Desalt>
C[N+](C)(C)CCO

> <Substance_modify_yyyymmdd>
20100621

$$$$
