123040-69-7
ChemmineR-0915142007XD

 24 27  0  0  0  0  0  0  0  0  1 V2000
   10.1858   -4.4003    0.0000 C    0  0  0  0  0  0  0  0  0  0  0  0
    8.9126   -4.4003    0.0000 N    0  0  0  0  0  0  0  0  0  0  0  0
    8.2810   -5.5003    0.0000 C    0  0  0  0  0  0  0  0  0  0  0  0
    8.9126   -6.6004    0.0000 O    0  0  0  0  0  0  0  0  0  0  0  0
    7.0078   -5.5003    0.0000 C    0  0  0  0  0  0  0  0  0  0  0  0
    6.3763   -4.4003    0.0000 O    0  0  0  0  0  0  0  0  0  0  0  0
    7.0078   -3.3002    0.0000 C    0  0  0  0  0  0  0  0  0  0  0  0
    6.3763   -2.2001    0.0000 C    0  0  0  0  0  0  0  0  0  0  0  0
    7.0078   -1.1001    0.0000 C    0  0  0  0  0  0  0  0  0  0  0  0
    8.2810   -1.1001    0.0000 C    0  0  0  0  0  0  0  0  0  0  0  0
    8.9126    0.0000    0.0000 Cl   0  0  0  0  0  0  0  0  0  0  0  0
    8.9126   -2.2001    0.0000 C    0  0  0  0  0  0  0  0  0  0  0  0
    8.2810   -3.3002    0.0000 C    0  0  0  0  0  0  0  0  0  0  0  0
    5.1031   -2.2001    0.0000 C    0  0  0  0  0  0  0  0  0  0  0  0
    4.4716   -1.1001    0.0000 O    0  0  0  0  0  0  0  0  0  0  0  0
    4.4716   -3.3002    0.0000 N    0  0  0  0  0  0  0  0  0  0  0  0
    3.1983   -3.3002    0.0000 C    0  0  0  0  0  0  0  0  0  0  0  0
    2.0372   -4.7364    0.0000 C    0  0  0  0  0  0  0  0  0  0  0  0
    0.4685   -3.8299    0.0000 N    0  0  0  0  0  0  0  0  0  0  0  0
    0.0000   -2.6789    0.0000 C    0  0  0  0  0  0  0  0  0  0  0  0
    0.8047   -1.6908    0.0000 C    0  0  0  0  0  0  0  0  0  0  0  0
    2.0575   -1.8946    0.0000 C    0  0  0  0  0  0  0  0  0  0  0  0
    2.5057   -3.0863    0.0000 C    0  0  0  0  0  0  0  0  0  0  0  0
    1.7010   -4.0641    0.0000 C    0  0  0  0  0  0  0  0  0  0  0  0
  1  2  1  0  0  0  0
  2  3  1  0  0  0  0
  2 13  1  0  0  0  0
  3  4  2  0  0  0  0
  3  5  1  0  0  0  0
  5  6  1  0  0  0  0
  6  7  1  0  0  0  0
  7  8  2  0  0  0  0
  7 13  1  0  0  0  0
  8  9  1  0  0  0  0
  8 14  1  0  0  0  0
  9 10  2  0  0  0  0
 10 11  1  0  0  0  0
 10 12  1  0  0  0  0
 12 13  2  0  0  0  0
 14 15  2  0  0  0  0
 14 16  1  0  0  0  0
 16 17  1  0  0  0  0
 17 18  1  0  0  0  0
 17 22  1  0  0  0  0
 18 19  1  0  0  0  0
 19 20  1  0  0  0  0
 19 24  1  0  0  0  0
 20 21  1  0  0  0  0
 21 22  1  0  0  0  0
 22 23  1  0  0  0  0
 23 24  1  0  0  0  0
M  END
> <ID>
11097

> <Formula>
C17H20ClN3O3

> <FW>
349.812

> <DSSTox_CID>
25651

> <DSSTox_RID>
81029

> <DSSTox_GSID>
45651

> <DSSTox_FileID_Sort>
5710

> <TS_ChemName>
Azasetron

> <TS_ChemName_Synonyms>


> <TS_CASRN>
123040-69-7

> <CASRN_ChemName_Relationship>
primary

> <TS_Description>
single chemical compound

> <ChemNote>


> <STRUCTURE_Shown>
tested chemical

> <STRUCTURE_Formula>
C17H20ClN3O3

> <STRUCTURE_MW>
349.812

> <STRUCTURE_ChemType>
defined organic

> <STRUCTURE_DefinedOrganicForm>
parent

> <STRUCTURE_IUPAC>
N-(1-azabicyclo[2.2.2]oct-3-yl)-6-chloro-4-methyl-3-oxo-3,4-dihydro-2H-1,4-benzoxazine-8-carboxamide

> <STRUCTURE_SMILES>
Clc1cc(c2OCC(=O)N(C)c2c1)C(=O)NC4CN3CCC4CC3

> <STRUCTURE_SMILES_Desalt>
Clc1cc(c2OCC(=O)N(C)c2c1)C(=O)NC4CN3CCC4CC3

> <Substance_modify_yyyymmdd>
20100107

$$$$
