123013-22-9
ChemmineR-0915142007XD

 37 40  0  0  1  0  0  0  0  0  1 V2000
    3.6160  -10.5731    0.0000 C   0  0  0  0  0  0  0  0  0  0  0  0
    2.6644   -9.8224    0.0000 C   0  0  0  0  0  0  0  0  0  0  0  0
    2.9711   -8.7228    0.0000 C   0  0  0  0  0  0  0  0  0  0  0  0
    1.9243   -7.9721    0.0000 O   0  0  0  0  0  0  0  0  0  0  0  0
    4.4301   -8.2999    0.0000 O   0  0  0  0  0  0  0  0  0  0  0  0
    5.3289   -7.3589    0.0000 C   0  0  0  0  0  0  0  0  0  0  0  0
    6.4708   -6.7562    0.0000 C   0  0  0  0  0  0  0  0  0  0  0  0
    7.0840   -7.8981    0.0000 H   0  0  0  0  0  0  0  0  0  0  0  0
    7.7501   -6.5131    0.0000 C   0  0  0  0  0  0  0  0  0  0  0  0
    6.2381   -5.4663    0.0000 C   0  0  0  0  0  0  0  0  0  0  0  0
    4.9482   -5.2971    0.0000 C   0  0  0  0  0  0  0  0  0  0  0  0
    6.5765   -4.6628    0.0000 H   0  0  0  0  0  0  0  0  0  0  0  0
    4.2187   -4.2293    0.0000 C   0  0  0  0  0  0  0  0  0  0  0  0
    5.8258   -3.5526    0.0000 H   0  0  0  0  0  0  0  0  0  0  0  0
    4.7896   -3.0556    0.0000 C   0  0  0  0  0  0  0  0  0  0  0  0
    4.0601   -1.9772    0.0000 C   0  0  0  0  0  0  0  0  0  0  0  0
    2.7596   -2.0723    0.0000 C   0  0  0  0  0  0  0  0  0  0  0  0
    2.0195   -0.9833    0.0000 C   0  0  0  0  0  0  0  0  0  0  0  0
    0.7401   -1.0785    0.0000 C   0  0  0  0  0  0  0  0  0  0  0  0
    0.0000    0.0000    0.0000 O   0  0  0  0  0  0  0  0  0  0  0  0
    0.1692   -2.2521    0.0000 C   0  0  0  0  0  0  0  0  0  0  0  0
    0.9093   -3.3411    0.0000 C   0  0  0  0  0  0  0  0  0  0  0  0
    2.1886   -3.2460    0.0000 C   0  0  0  0  0  0  0  0  0  0  0  0
    0.6873   -4.0918    0.0000 C   0  0  0  0  0  0  0  0  0  0  0  0
    2.9288   -4.3033    0.0000 C   0  0  0  0  0  0  0  0  0  0  0  0
    1.7234   -4.4619    0.0000 F   0  0  0  0  0  0  0  0  0  0  0  0
    2.3684   -5.4875    0.0000 C   0  0  0  0  0  0  0  0  0  0  0  0
    0.8353   -5.3077    0.0000 H   0  0  0  0  0  0  0  0  0  0  0  0
    1.4908   -6.4496    0.0000 O   0  0  0  0  0  0  0  0  0  0  0  0
    3.0874   -6.5448    0.0000 C   0  0  0  0  0  0  0  0  0  0  0  0
    4.3879   -6.4708    0.0000 C   0  0  0  0  0  0  0  0  0  0  0  0
    3.8169   -7.3800    0.0000 C   0  0  0  0  0  0  0  0  0  0  0  0
    5.9315   -8.5008    0.0000 C   0  0  0  0  0  0  0  0  0  0  0  0
    5.2654   -9.6216    0.0000 O   0  0  0  0  0  0  0  0  0  0  0  0
    7.2003   -8.7757    0.0000 C   0  0  0  0  0  0  0  0  0  0  0  0
    7.6232  -10.0128    0.0000 O   0  0  0  0  0  0  0  0  0  0  0  0
    8.8920  -10.2771    0.0000 C   0  0  0  0  0  0  0  0  0  0  0  0
  1  2  1  0  0  0  0
  2  3  1  0  0  0  0
  3  4  2  0  0  0  0
  3  5  1  0  0  0  0
  6  5  1  1  0  0  0
  6  7  1  0  0  0  0
  6 31  1  0  0  0  0
  6 33  1  0  0  0  0
  7  8  1  0  0  0  0
  7  9  1  6  0  0  0
  7 10  1  0  0  0  0
 10 11  1  0  0  0  0
 11 12  1  1  0  0  0
 11 13  1  0  0  0  0
 11 31  1  0  0  0  0
 13 14  1  6  0  0  0
 13 15  1  0  0  0  0
 13 25  1  0  0  0  0
 15 16  1  0  0  0  0
 16 17  1  0  0  0  0
 17 18  2  0  0  0  0
 17 23  1  0  0  0  0
 18 19  1  0  0  0  0
 19 20  2  0  0  0  0
 19 21  1  0  0  0  0
 21 22  2  0  0  0  0
 22 23  1  0  0  0  0
 23 24  1  6  0  0  0
 23 25  1  0  0  0  0
 25 26  1  0  0  0  0
 25 27  1  0  0  0  0
 27 28  1  1  0  0  0
 27 29  1  0  0  0  0
 27 30  1  0  0  0  0
 30 31  1  0  0  0  0
 31 32  1  6  0  0  0
 33 34  2  0  0  0  0
 33 35  1  0  0  0  0
 35 36  1  0  0  0  0
 36 37  1  0  0  0  0
M  END
> <ID>
16035

> <Formula>
C26H35FO6

> <FW>
462.5509

> <DSSTox_CID>
31420

> <DSSTox_RID>
97306

> <DSSTox_GSID>
57631

> <DSSTox_FileID_Sort>
8373

> <TS_ChemName>
Amelometasone

> <TS_ChemName_Synonyms>


> <TS_CASRN>
123013-22-9

> <CASRN_ChemName_Relationship>
primary

> <TS_Description>
single chemical compound

> <ChemNote>


> <STRUCTURE_Shown>
tested chemical

> <STRUCTURE_Formula>
C26H35FO6

> <STRUCTURE_MW>
462.5509

> <STRUCTURE_ChemType>
defined organic

> <STRUCTURE_DefinedOrganicForm>
parent

> <STRUCTURE_IUPAC>
(9xi,11beta,16beta)-9-fluoro-11-hydroxy-21-methoxy-16-methyl-3,20-dioxopregna-1,4-dien-17-yl propionate

> <STRUCTURE_SMILES>
COCC(=O)[C@]3(OC(=O)CC)[C@@]4(C)C[C@H](O)C2(F)[C@@H](CCC1=CC(=O)C=C[C@@]12C)[C@@H]4C[C@@H]3C

> <STRUCTURE_SMILES_Desalt>
COCC(=O)[C@]3(OC(=O)CC)[C@@]4(C)C[C@H](O)C2(F)[C@@H](CCC1=CC(=O)C=C[C@@]12C)[C@@H]4C[C@@H]3C

> <Substance_modify_yyyymmdd>
20131018

$$$$
