123122-55-4
ChemmineR-0915142007XD

 37 40  0  0  1  0  0  0  0  0  1 V2000
    8.0779   -2.3145    0.0000 C   0  0  0  0  0  0  0  0  0  0  0  0
    7.4123   -3.4641    0.0000 C   0  0  0  0  0  0  0  0  0  0  0  0
    8.9704   -3.2826    0.0000 C   0  0  0  0  0  0  0  0  0  0  0  0
    9.0763   -1.4068    0.0000 C   0  0  0  0  0  0  0  0  0  0  0  0
    6.9282   -1.6337    0.0000 C   0  0  0  0  0  0  0  0  0  0  0  0
    6.0811   -3.4641    0.0000 C   0  0  0  0  0  0  0  0  0  0  0  0
   10.2713   -3.0103    0.0000 N   0  0  0  0  0  0  0  0  0  0  0  0
    8.5620   -4.5533    0.0000 O   0  0  0  0  0  0  0  0  0  0  0  0
    8.5166   -0.1967    0.0000 C   0  0  0  0  0  0  0  0  0  0  0  0
    7.2005   -0.3328    0.0000 C   0  0  0  0  0  0  0  0  0  0  0  0
    5.4155   -4.5987    0.0000 C   0  0  0  0  0  0  0  0  0  0  0  0
    5.4155   -2.3145    0.0000 C   0  0  0  0  0  0  0  0  0  0  0  0
   11.1638   -4.0087    0.0000 C   0  0  0  0  0  0  0  0  0  0  0  0
    4.0843   -4.5987    0.0000 O   0  0  0  0  0  0  0  0  0  0  0  0
    6.0962   -5.7634    0.0000 O   0  0  0  0  0  0  0  0  0  0  0  0
    4.0843   -2.3145    0.0000 O   0  0  0  0  0  0  0  0  0  0  0  0
   10.7403   -5.2643    0.0000 C   0  0  0  0  0  0  0  0  0  0  0  0
   12.4648   -3.7213    0.0000 C   0  0  0  0  0  0  0  0  0  0  0  0
    3.4339   -5.7634    0.0000 C   0  0  0  0  0  0  0  0  0  0  0  0
    3.4339   -1.1497    0.0000 C   0  0  0  0  0  0  0  0  0  0  0  0
   11.6479   -6.2475    0.0000 C   0  0  0  0  0  0  0  0  0  0  0  0
   13.3573   -4.7197    0.0000 C   0  0  0  0  0  0  0  0  0  0  0  0
    2.1027   -5.7634    0.0000 C   0  0  0  0  0  0  0  0  0  0  0  0
    4.0843   -6.9131    0.0000 C   0  0  0  0  0  0  0  0  0  0  0  0
    2.1027   -1.1497    0.0000 C   0  0  0  0  0  0  0  0  0  0  0  0
   12.9488   -5.9752    0.0000 C   0  0  0  0  0  0  0  0  0  0  0  0
    1.4371   -6.9131    0.0000 C   0  0  0  0  0  0  0  0  0  0  0  0
    3.4339   -8.0476    0.0000 C   0  0  0  0  0  0  0  0  0  0  0  0
    1.4220    0.0000    0.0000 O   0  0  0  0  0  0  0  0  0  0  0  0
   13.8414   -6.9585    0.0000 C   0  0  0  0  0  0  0  0  0  0  0  0
    2.1027   -8.0476    0.0000 C   0  0  0  0  0  0  0  0  0  0  0  0
    0.1210   -7.1854    0.0000 C   0  0  0  0  0  0  0  0  0  0  0  0
    0.0908    0.0000    0.0000 C   0  0  0  0  0  0  0  0  0  0  0  0
   13.4329   -8.2292    0.0000 O   0  0  0  0  0  0  0  0  0  0  0  0
   15.1272   -6.6862    0.0000 O   0  0  0  0  0  0  0  0  0  0  0  0
    1.2102   -9.0460    0.0000 C   0  0  0  0  0  0  0  0  0  0  0  0
    0.0000   -8.5015    0.0000 C   0  0  0  0  0  0  0  0  0  0  0  0
  1  2  1  0  0  0  0
  1  3  1  0  0  0  0
  1  4  1  0  0  0  0
  1  5  1  0  0  0  0
  2  6  1  0  0  0  0
  3  7  1  0  0  0  0
  3  8  2  0  0  0  0
  4  9  1  0  0  0  0
  5 10  1  0  0  0  0
  6 11  1  0  0  0  0
  6 12  1  6  0  0  0
 13  7  1  6  0  0  0
  9 10  1  0  0  0  0
 11 14  1  0  0  0  0
 11 15  2  0  0  0  0
 12 16  1  0  0  0  0
 13 17  1  0  0  0  0
 13 18  1  0  0  0  0
 14 19  1  0  0  0  0
 16 20  1  0  0  0  0
 17 21  1  0  0  0  0
 18 22  1  0  0  0  0
 19 23  2  0  0  0  0
 19 24  1  0  0  0  0
 20 25  1  0  0  0  0
 21 26  1  0  0  0  0
 22 26  1  0  0  0  0
 23 27  1  0  0  0  0
 24 28  2  0  0  0  0
 25 29  1  0  0  0  0
 26 30  1  6  0  0  0
 27 31  2  0  0  0  0
 27 32  1  0  0  0  0
 28 31  1  0  0  0  0
 29 33  1  0  0  0  0
 30 34  1  0  0  0  0
 30 35  2  0  0  0  0
 31 36  1  0  0  0  0
 32 37  1  0  0  0  0
 36 37  1  0  0  0  0
M  END
> <ID>
12428

> <Formula>
C29H41NO7

> <FW>
515.6383

> <DSSTox_CID>
27286

> <DSSTox_RID>
82240

> <DSSTox_GSID>
47286

> <DSSTox_FileID_Sort>
6921

> <TS_ChemName>
Candoxatril

> <TS_ChemName_Synonyms>


> <TS_CASRN>
123122-55-4

> <CASRN_ChemName_Relationship>
primary

> <TS_Description>
single chemical compound

> <ChemNote>
stereochem

> <STRUCTURE_Shown>
tested chemical

> <STRUCTURE_Formula>
C29H41NO7

> <STRUCTURE_MW>
515.6383

> <STRUCTURE_ChemType>
defined organic

> <STRUCTURE_DefinedOrganicForm>
parent

> <STRUCTURE_IUPAC>
cis-4-{[(1-{(2S)-3-(2,3-dihydro-1H-inden-5-yloxy)-2-[(2-methoxyethoxy)methyl]-3-oxopropyl}cyclopentyl)carbonyl]amino}cyclohexanecarboxylic acid

> <STRUCTURE_SMILES>
O=C(N[C@@H]1CC[C@@H](CC1)C(=O)O)C4(C[C@@H](COCCOC)C(=O)Oc2cc3CCCc3cc2)CCCC4

> <STRUCTURE_SMILES_Desalt>
O=C(N[C@@H]1CC[C@@H](CC1)C(=O)O)C4(C[C@@H](COCCOC)C(=O)Oc2cc3CCCc3cc2)CCCC4

> <Substance_modify_yyyymmdd>
20130910

$$$$
