123171-59-5
ChemmineR-0915142007XD

 37 37  0  0  1  0  0  0  0  0  2 V2000
    2.5312   -7.9806    0.0000 O    0  0  0  0  0  0  0  0  0  0  0  0
    5.2559   -8.0849    0.0000 Cl   0  0  0  0  0  0  0  0  0  0  0  0
    6.8193   -5.6430    0.0000 C    0  0  0  0  0  0  0  0  0  0  0  0
    6.8193   -4.3179    0.0000 C    0  0  0  0  0  0  0  0  0  0  0  0
    8.1444   -5.6430    0.0000 N    0  0  0  0  0  0  0  0  0  0  0  0
    8.1444   -4.3179    0.0000 C    0  0  0  0  0  0  0  0  0  0  0  0
    9.2909   -3.6479    0.0000 S    0  0  0  0  0  0  0  0  0  0  0  0
   10.4374   -4.3179    0.0000 C    0  0  0  0  0  0  0  0  0  0  0  0
   10.4374   -5.6430    0.0000 C    0  0  0  0  0  0  0  0  0  0  0  0
    9.2909   -6.3130    0.0000 C    0  0  0  0  0  0  0  0  0  0  0  0
    5.8664   -6.5959    0.0000 O    0  0  0  0  0  0  0  0  0  0  0  0
    9.2909   -7.6531    0.0000 C    0  0  0  0  0  0  0  0  0  0  0  0
   10.4374   -8.3231    0.0000 O    0  0  0  0  0  0  0  0  0  0  0  0
    8.1444   -8.3231    0.0000 O    0  0  0  0  0  0  0  0  0  0  0  0
   11.6136   -6.3130    0.0000 C    0  0  0  0  0  0  0  0  0  0  0  0
    5.6877   -4.3179    0.0000 N    0  0  0  0  0  0  0  0  0  0  0  0
    6.8193   -2.9927    0.0000 H    0  0  0  0  0  0  0  0  0  0  0  0
    8.1444   -2.9927    0.0000 H    0  0  0  0  0  0  0  0  0  0  0  0
   12.7303   -5.6430    0.0000 N    0  3  0  0  0  0  0  0  0  0  0  0
    1.2507   -0.7891    0.0000 C    0  0  0  0  0  0  0  0  0  0  0  0
    1.6676   -2.0398    0.0000 N    0  0  0  0  0  0  0  0  0  0  0  0
    2.9927   -2.0398    0.0000 C    0  0  0  0  0  0  0  0  0  0  0  0
    3.4096   -0.7891    0.0000 C    0  0  0  0  0  0  0  0  0  0  0  0
    2.3227    0.0000    0.0000 S    0  0  0  0  0  0  0  0  0  0  0  0
    3.6925   -3.1714    0.0000 C    0  0  0  0  0  0  0  0  0  0  0  0
    5.0326   -3.1714    0.0000 C    0  0  0  0  0  0  0  0  0  0  0  0
    5.6877   -2.0101    0.0000 O    0  0  0  0  0  0  0  0  0  0  0  0
    3.0374   -4.3179    0.0000 N    0  0  0  0  0  0  0  0  0  0  0  0
    0.0000   -0.3871    0.0000 N    0  0  0  0  0  0  0  0  0  0  0  0
    3.6925   -5.4792    0.0000 O    0  0  0  0  0  0  0  0  0  0  0  0
   13.8917   -6.3130    0.0000 C    0  0  0  0  0  0  0  0  0  0  0  0
    3.0374   -6.6257    0.0000 C    0  0  0  0  0  0  0  0  0  0  0  0
   13.0132   -4.3328    0.0000 C    0  0  0  0  0  0  0  0  0  0  0  0
   14.3681   -4.2286    0.0000 C    0  0  0  0  0  0  0  0  0  0  0  0
   14.8893   -5.4197    0.0000 C    0  0  0  0  0  0  0  0  0  0  0  0
   12.7303   -7.2064    0.0000 C    0  0  0  0  0  0  0  0  0  0  0  0
   11.6732   -4.3477    0.0000 Cl   0  5  0  0  0  0  0  0  0  0  0  0
  3 11  2  0  0  0  0
  3  4  1  0  0  0  0
  3  5  1  0  0  0  0
  4  6  1  0  0  0  0
  4 16  1  1  0  0  0
  4 17  1  6  0  0  0
  5  6  1  0  0  0  0
  5 10  1  0  0  0  0
  6  7  1  0  0  0  0
  6 18  1  6  0  0  0
  7  8  1  0  0  0  0
  8  9  1  0  0  0  0
  9 15  1  0  0  0  0
  9 10  2  0  0  0  0
 10 12  1  0  0  0  0
 12 13  1  0  0  0  0
 12 14  2  0  0  0  0
 15 19  1  0  0  0  0
 16 26  1  0  0  0  0
 19 33  1  0  0  0  0
 19 31  1  0  0  0  0
 19 36  1  0  0  0  0
 20 24  1  0  0  0  0
 20 21  2  0  0  0  0
 20 29  1  0  0  0  0
 21 22  1  0  0  0  0
 22 23  2  0  0  0  0
 22 25  1  0  0  0  0
 23 24  1  0  0  0  0
 25 26  1  0  0  0  0
 25 28  2  0  0  0  0
 26 27  2  0  0  0  0
 28 30  1  0  0  0  0
 30 32  1  0  0  0  0
 31 35  1  0  0  0  0
 33 34  1  0  0  0  0
 34 35  1  0  0  0  0
M  END
> <ID>
11064

> <Formula>
C19H28Cl2N6O6S2

> <FW>
571.4982 (18.0153+36.4609+481.5685+35.4535)

> <DSSTox_CID>
25603

> <DSSTox_RID>
80996

> <DSSTox_GSID>
45603

> <DSSTox_FileID_Sort>
5677

> <TS_ChemName>
Cefepime chloride hydrochloride hydrate

> <TS_ChemName_Synonyms>


> <TS_CASRN>
123171-59-5

> <CASRN_ChemName_Relationship>
primary

> <TS_Description>
single chemical compound

> <ChemNote>
stereochem; parent [88376-58-3]

> <STRUCTURE_Shown>
tested chemical

> <STRUCTURE_Formula>
C19H28Cl2N6O6S2

> <STRUCTURE_MW>
571.4982

> <STRUCTURE_ChemType>
defined organic

> <STRUCTURE_DefinedOrganicForm>
salt complex

> <STRUCTURE_IUPAC>
1-{[(6R,7R)-7-{[(2Z)-2-(2-amino-1,3-thiazol-4-yl)-2-(methoxyimino)acetyl]amino}-2-carboxy-8-oxo-5-thia-1-azabicyclo[4.2.0]oct-2-en-3-yl]methyl}-1-methylpyrrolidinium chloride hydrochloride hydrate (1:1:1:1)

> <STRUCTURE_SMILES>
[Cl-].Cl.O.Nc1scc(n1)\C(=N\OC)C(=O)N[C@@H]4C(=O)N3C(=C(C[N+]2(C)CCCC2)CS[C@@H]34)C(=O)O

> <STRUCTURE_SMILES_Desalt>
Nc1scc(n1)\C(=N\OC)C(=O)N[C@@H]4C(=O)N3C(=C(C[N+]2(C)CCCC2)CS[C@@H]34)C(=O)O

> <Substance_modify_yyyymmdd>
20100107

$$$$
