123258-84-4
ChemmineR-0915142007XD

 22 25  0  0  1  0  0  0  0  0  1 V2000
    2.2058   -5.9769    0.0000 C   0  0  0  0  0  0  0  0  0  0  0  0
    2.2058   -7.2735    0.0000 C   0  0  0  0  0  0  0  0  0  0  0  0
    1.1147   -5.3444    0.0000 C   0  0  0  0  0  0  0  0  0  0  0  0
    1.1147   -7.9060    0.0000 C   0  0  0  0  0  0  0  0  0  0  0  0
    0.0000   -5.9769    0.0000 C   0  0  0  0  0  0  0  0  0  0  0  0
    0.0000   -7.2735    0.0000 C   0  0  0  0  0  0  0  0  0  0  0  0
    3.4470   -5.5895    0.0000 N   0  0  0  0  0  0  0  0  0  0  0  0
    4.1981   -6.6252    0.0000 C   0  0  0  0  0  0  0  0  0  0  0  0
    3.4470   -7.6451    0.0000 N   0  0  0  0  0  0  0  0  0  0  0  0
    5.4788   -6.6252    0.0000 O   0  0  0  0  0  0  0  0  0  0  0  0
    3.8265   -4.3562    0.0000 C   0  0  0  0  0  0  0  0  0  0  0  0
    2.9647   -3.3996    0.0000 O   0  0  0  0  0  0  0  0  0  0  0  0
    5.0835   -4.0953    0.0000 N   0  0  0  0  0  0  0  0  0  0  0  0
    5.4788   -2.8699    0.0000 C   0  0  0  0  0  0  0  0  0  0  0  0
    4.5538   -1.9923    0.0000 C   0  0  0  0  0  0  0  0  0  0  0  0
    6.7596   -2.7038    0.0000 C   0  0  0  0  0  0  0  0  0  0  0  0
    4.6645   -0.7115    0.0000 C   0  0  0  0  0  0  0  0  0  0  0  0
    7.4158   -1.5891    0.0000 C   0  0  0  0  0  0  0  0  0  0  0  0
    6.9651   -0.4032    0.0000 C   0  0  0  0  0  0  0  0  0  0  0  0
    5.7476    0.0000    0.0000 C   0  0  0  0  0  0  0  0  0  0  0  0
    5.5737   -1.6207    0.0000 N   0  0  0  0  0  0  0  0  0  0  0  0
    4.2613   -2.9647    0.0000 C   0  0  0  0  0  0  0  0  0  0  0  0
  1  3  2  0  0  0  0
  1  7  1  0  0  0  0
  1  2  1  0  0  0  0
  2  4  2  0  0  0  0
  2  9  1  0  0  0  0
  3  5  1  0  0  0  0
  4  6  1  0  0  0  0
  5  6  2  0  0  0  0
  7  8  1  0  0  0  0
  7 11  1  0  0  0  0
  8  9  1  0  0  0  0
  8 10  2  0  0  0  0
 11 12  2  0  0  0  0
 11 13  1  0  0  0  0
 14 13  1  6  0  0  0
 14 15  1  0  0  0  0
 14 16  1  0  0  0  0
 15 17  1  0  0  0  0
 16 18  1  0  0  0  0
 17 20  1  0  0  0  0
 17 21  1  1  0  0  0
 18 19  1  0  0  0  0
 18 21  1  1  0  0  0
 19 20  1  0  0  0  0
 21 22  1  0  0  0  0
M  END
> <ID>
13792

> <Formula>
C16H20N4O2

> <FW>
300.3556

> <DSSTox_CID>
28729

> <DSSTox_RID>
82998

> <DSSTox_GSID>
48803

> <DSSTox_FileID_Sort>
7675

> <TS_ChemName>
Itasetron

> <TS_ChemName_Synonyms>


> <TS_CASRN>
123258-84-4

> <CASRN_ChemName_Relationship>
primary

> <TS_Description>
single chemical compound

> <ChemNote>


> <STRUCTURE_Shown>
tested chemical

> <STRUCTURE_Formula>
C16H20N4O2

> <STRUCTURE_MW>
300.3556

> <STRUCTURE_ChemType>
defined organic

> <STRUCTURE_DefinedOrganicForm>
parent

> <STRUCTURE_IUPAC>
N-[(3-endo)-8-methyl-8-azabicyclo[3.2.1]oct-3-yl]-2-oxo-2,3-dihydro-1H-benzimidazole-1-carboxamide

> <STRUCTURE_SMILES>
CN4[C@@H]1CC[C@H]4C[C@H](C1)NC(=O)N2c3ccccc3NC2=O

> <STRUCTURE_SMILES_Desalt>
CN4[C@@H]1CC[C@H]4C[C@H](C1)NC(=O)N2c3ccccc3NC2=O

> <Substance_modify_yyyymmdd>
20111204

$$$$
