123333-56-2
ChemmineR-0915142007XD

 16 14  0  0  0  0  0  0  0  0  1 V2000
    1.1493   -2.0245    0.0000 C   0  0  0  0  0  0  0  0  0  0  0  0
    1.1493   -3.3505    0.0000 C   0  0  0  0  0  0  0  0  0  0  0  0
    2.3073   -4.0047    0.0000 C   0  0  0  0  0  0  0  0  0  0  0  0
    3.4743   -3.3505    0.0000 C   0  0  0  0  0  0  0  0  0  0  0  0
    3.4566   -2.0068    0.0000 C   0  0  0  0  0  0  0  0  0  0  0  0
    2.3073   -1.3614    0.0000 C   0  0  0  0  0  0  0  0  0  0  0  0
    0.0177   -1.3614    0.0000 O   0  0  0  0  0  0  0  0  0  0  0  0
    0.0177   -0.0177    0.0000 C   0  0  0  0  0  0  0  0  0  0  0  0
    0.0000   -4.0047    0.0000 N   0  0  0  0  0  0  0  0  0  0  0  0
    4.6324   -4.0047    0.0000 N   0  0  0  0  0  0  0  0  0  0  0  0
    7.5143   -1.3349    0.0000 S   0  0  0  0  0  0  0  0  0  0  0  0
    8.8404   -1.3349    0.0000 O   0  0  0  0  0  0  0  0  0  0  0  0
    6.1794   -1.3349    0.0000 O   0  0  0  0  0  0  0  0  0  0  0  0
    7.5143   -2.6610    0.0000 O   0  0  0  0  0  0  0  0  0  0  0  0
    7.5143    0.0000    0.0000 O   0  0  0  0  0  0  0  0  0  0  0  0
    2.8997   -5.6402    0.0000 O   0  0  0  0  0  0  0  0  0  0  0  0
  1  6  2  0  0  0  0
  1  2  1  0  0  0  0
  1  7  1  0  0  0  0
  2  3  2  0  0  0  0
  2  9  1  0  0  0  0
  3  4  1  0  0  0  0
  4  5  2  0  0  0  0
  4 10  1  0  0  0  0
  5  6  1  0  0  0  0
  7  8  1  0  0  0  0
 11 12  2  0  0  0  0
 11 13  2  0  0  0  0
 11 14  1  0  0  0  0
 11 15  1  0  0  0  0
M  END
> <ID>
12385

> <Formula>
C7H14N2O6S

> <FW>
254.2609 (138.1671+98.0785+18.0153)

> <DSSTox_CID>
27242

> <DSSTox_RID>
82204

> <DSSTox_GSID>
47242

> <DSSTox_FileID_Sort>
6885

> <TS_ChemName>
2,4-Diaminoanisole sulfate hydrate

> <TS_ChemName_Synonyms>


> <TS_CASRN>
123333-56-2

> <CASRN_ChemName_Relationship>
primary

> <TS_Description>
single chemical compound

> <ChemNote>
parent [615-05-4]

> <STRUCTURE_Shown>
tested chemical

> <STRUCTURE_Formula>
C7H14N2O6S

> <STRUCTURE_MW>
254.2609

> <STRUCTURE_ChemType>
defined organic

> <STRUCTURE_DefinedOrganicForm>
complex

> <STRUCTURE_IUPAC>
4-methoxybenzene-1,3-diamine sulfate hydrate (1:1:1)

> <STRUCTURE_SMILES>
O.Nc1cc(N)ccc1OC.O=S(=O)(O)O

> <STRUCTURE_SMILES_Desalt>
Nc1cc(N)ccc1OC

> <Substance_modify_yyyymmdd>
20100507

$$$$
