123343-16-8
ChemmineR-0915142007XD

 22 22  0  0  0  0  0  0  0  0  2 V2000
    2.2868   -1.9971    0.0000 C    0  0  0  0  0  0  0  0  0  0  0  0
    3.4458   -2.6697    0.0000 C    0  0  0  0  0  0  0  0  0  0  0  0
    1.1486   -2.6697    0.0000 C    0  0  0  0  0  0  0  0  0  0  0  0
    2.2868   -0.6519    0.0000 C    0  0  0  0  0  0  0  0  0  0  0  0
    4.5943   -1.9971    0.0000 S    0  0  0  0  0  0  0  0  0  0  0  0
    3.4458   -3.9942    0.0000 C    0  0  0  0  0  0  0  0  0  0  0  0
    1.1486   -3.9942    0.0000 C    0  0  0  0  0  0  0  0  0  0  0  0
    0.0000   -1.9971    0.0000 Cl   0  0  0  0  0  0  0  0  0  0  0  0
    3.4458    0.0000    0.0000 O    0  5  0  0  0  0  0  0  0  0  0  0
    1.1486    0.0000    0.0000 O    0  0  0  0  0  0  0  0  0  0  0  0
    5.7533   -2.6697    0.0000 C    0  0  0  0  0  0  0  0  0  0  0  0
    2.2868   -4.6668    0.0000 C    0  0  0  0  0  0  0  0  0  0  0  0
    6.9018   -1.9971    0.0000 N    0  0  0  0  0  0  0  0  0  0  0  0
    5.7533   -3.9942    0.0000 N    0  0  0  0  0  0  0  0  0  0  0  0
    8.0608   -2.6697    0.0000 C    0  0  0  0  0  0  0  0  0  0  0  0
    6.9018   -4.6668    0.0000 C    0  0  0  0  0  0  0  0  0  0  0  0
    8.0608   -3.9942    0.0000 C    0  0  0  0  0  0  0  0  0  0  0  0
    9.2094   -1.9971    0.0000 O    0  0  0  0  0  0  0  0  0  0  0  0
    6.9018   -5.9913    0.0000 O    0  0  0  0  0  0  0  0  0  0  0  0
   10.3476   -2.6697    0.0000 C    0  0  0  0  0  0  0  0  0  0  0  0
    8.0608   -6.6432    0.0000 C    0  0  0  0  0  0  0  0  0  0  0  0
    5.3187   -0.0621    0.0000 Na   0  3  0  0  0  0  0  0  0  0  0  0
  1  2  2  0  0  0  0
  1  3  1  0  0  0  0
  1  4  1  0  0  0  0
  2  5  1  0  0  0  0
  2  6  1  0  0  0  0
  3  7  2  0  0  0  0
  3  8  1  0  0  0  0
  4  9  1  0  0  0  0
  4 10  2  0  0  0  0
  5 11  1  0  0  0  0
  6 12  2  0  0  0  0
  7 12  1  0  0  0  0
 11 13  2  0  0  0  0
 11 14  1  0  0  0  0
 13 15  1  0  0  0  0
 14 16  2  0  0  0  0
 15 17  2  0  0  0  0
 15 18  1  0  0  0  0
 16 19  1  0  0  0  0
 16 17  1  0  0  0  0
 18 20  1  0  0  0  0
 19 21  1  0  0  0  0
M  END
> <ID>
6575

> <Formula>
C13H10ClN2NaO4S

> <FW>
348.7373 (325.7480+22.9892)

> <DSSTox_CID>
12673

> <DSSTox_RID>
79030

> <DSSTox_GSID>
32673

> <DSSTox_FileID_Sort>
3712

> <TS_ChemName>
Pyrithiobac-sodium

> <TS_ChemName_Synonyms>


> <TS_CASRN>
123343-16-8

> <CASRN_ChemName_Relationship>
primary

> <TS_Description>
single chemical compound

> <ChemNote>
parent [123342-93-8]

> <STRUCTURE_Shown>
tested chemical

> <STRUCTURE_Formula>
C13H10ClN2NaO4S

> <STRUCTURE_MW>
348.7373

> <STRUCTURE_ChemType>
defined organic

> <STRUCTURE_DefinedOrganicForm>
salt

> <STRUCTURE_IUPAC>
sodium 2-chloro-6-[(4,6-dimethoxypyrimidin-2-yl)sulfanyl]benzoate

> <STRUCTURE_SMILES>
[Na+].[O-]C(=O)c2c(Sc1nc(cc(OC)n1)OC)cccc2Cl

> <STRUCTURE_SMILES_Desalt>
O=C(O)c2c(Sc1nc(cc(OC)n1)OC)cccc2Cl

> <Substance_modify_yyyymmdd>
20080429

$$$$
