123312-89-0
ChemmineR-0915142007XD

 16 17  0  0  0  0  0  0  0  0  1 V2000
    4.6204    0.0000    0.0000 O   0  0  0  0  0  0  0  0  0  0  0  0
    3.4613   -0.6601    0.0000 C   0  0  0  0  0  0  0  0  0  0  0  0
    2.3102    0.0000    0.0000 N   0  0  0  0  0  0  0  0  0  0  0  0
    1.1511   -0.6601    0.0000 N   0  0  0  0  0  0  0  0  0  0  0  0
    1.1511   -1.9882    0.0000 C   0  0  0  0  0  0  0  0  0  0  0  0
    0.0000   -2.6483    0.0000 C   0  0  0  0  0  0  0  0  0  0  0  0
    2.2941   -2.6483    0.0000 C   0  0  0  0  0  0  0  0  0  0  0  0
    3.4452   -1.9882    0.0000 N   0  0  0  0  0  0  0  0  0  0  0  0
    4.6043   -2.6644    0.0000 N   0  0  0  0  0  0  0  0  0  0  0  0
    4.6043   -3.9925    0.0000 C   0  0  0  0  0  0  0  0  0  0  0  0
    5.7393   -4.6687    0.0000 C   0  0  0  0  0  0  0  0  0  0  0  0
    5.7393   -5.9968    0.0000 C   0  0  0  0  0  0  0  0  0  0  0  0
    6.8984   -6.6569    0.0000 N   0  0  0  0  0  0  0  0  0  0  0  0
    8.0494   -5.9968    0.0000 C   0  0  0  0  0  0  0  0  0  0  0  0
    8.0494   -4.6687    0.0000 C   0  0  0  0  0  0  0  0  0  0  0  0
    6.9145   -3.9925    0.0000 C   0  0  0  0  0  0  0  0  0  0  0  0
  1  2  2  0  0  0  0
  2  3  1  0  0  0  0
  2  8  1  0  0  0  0
  3  4  1  0  0  0  0
  4  5  2  0  0  0  0
  5  6  1  0  0  0  0
  5  7  1  0  0  0  0
  7  8  1  0  0  0  0
  8  9  1  0  0  0  0
  9 10  2  0  0  0  0
 10 11  1  0  0  0  0
 11 12  1  0  0  0  0
 11 16  2  0  0  0  0
 12 13  2  0  0  0  0
 13 14  1  0  0  0  0
 14 15  2  0  0  0  0
 15 16  1  0  0  0  0
M  END
> <ID>
6555

> <Formula>
C10H11N5O

> <FW>
217.2272

> <DSSTox_CID>
12637

> <DSSTox_RID>
79016

> <DSSTox_GSID>
32637

> <DSSTox_FileID_Sort>
3698

> <TS_ChemName>
Pymetrozine

> <TS_ChemName_Synonyms>
Pymetrozine (1,2,4-Triazin-3(2H)-one, 4,5-dihydro-6-methyl-4-{(3-pyridinylmethylene)amino}-, (E)-)

> <TS_CASRN>
123312-89-0

> <CASRN_ChemName_Relationship>
primary

> <TS_Description>
single chemical compound

> <ChemNote>
stereochem

> <STRUCTURE_Shown>
tested chemical

> <STRUCTURE_Formula>
C10H11N5O

> <STRUCTURE_MW>
217.2272

> <STRUCTURE_ChemType>
defined organic

> <STRUCTURE_DefinedOrganicForm>
parent

> <STRUCTURE_IUPAC>
6-methyl-4-[(E)-(pyridin-3-ylmethylidene)amino]-4,5-dihydro-1,2,4-triazin-3(2H)-one

> <STRUCTURE_SMILES>
CC=2CN(/N=C/c1cccnc1)C(=O)NN=2

> <STRUCTURE_SMILES_Desalt>
CC=2CN(/N=C/c1cccnc1)C(=O)NN=2

> <Substance_modify_yyyymmdd>
20080429

$$$$
