123447-62-1
ChemmineR-0915142007XD

 32 36  0  0  0  0  0  0  0  0  1 V2000
    0.0000   -2.2886    0.0000 O   0  0  0  0  0  0  0  0  0  0  0  0
    0.9007   -1.3141    0.0000 C   0  0  0  0  0  0  0  0  0  0  0  0
    2.1115   -1.8604    0.0000 C   0  0  0  0  0  0  0  0  0  0  0  0
    1.9638   -3.1893    0.0000 O   0  0  0  0  0  0  0  0  0  0  0  0
    0.6940   -3.4403    0.0000 C   0  0  0  0  0  0  0  0  0  0  0  0
    5.5518   -1.1812    0.0000 C   0  0  0  0  0  0  0  0  0  0  0  0
    4.4001   -1.8604    0.0000 N   0  0  0  0  0  0  0  0  0  0  0  0
    4.4001   -3.1893    0.0000 C   0  0  0  0  0  0  0  0  0  0  0  0
    5.5518   -3.8390    0.0000 C   0  0  0  0  0  0  0  0  0  0  0  0
    6.7035   -3.1893    0.0000 N   0  0  0  0  0  0  0  0  0  0  0  0
    6.7035   -1.8604    0.0000 C   0  0  0  0  0  0  0  0  0  0  0  0
    3.2632   -1.1812    0.0000 C   0  0  0  0  0  0  0  0  0  0  0  0
    7.8700   -3.8390    0.0000 C   0  0  0  0  0  0  0  0  0  0  0  0
    7.8700   -5.1974    0.0000 C   0  0  0  0  0  0  0  0  0  0  0  0
    9.0217   -5.8471    0.0000 C   0  0  0  0  0  0  0  0  0  0  0  0
    9.0217   -3.1893    0.0000 C   0  0  0  0  0  0  0  0  0  0  0  0
    6.7035   -5.8471    0.0000 F   0  0  0  0  0  0  0  0  0  0  0  0
   10.1734   -3.8390    0.0000 C   0  0  0  0  0  0  0  0  0  0  0  0
   10.1734   -5.1974    0.0000 C   0  0  0  0  0  0  0  0  0  0  0  0
   11.3251   -5.8471    0.0000 C   0  0  0  0  0  0  0  0  0  0  0  0
   12.4768   -5.1974    0.0000 C   0  0  0  0  0  0  0  0  0  0  0  0
   11.3251   -7.1760    0.0000 O   0  0  0  0  0  0  0  0  0  0  0  0
   13.6137   -5.8471    0.0000 C   0  0  0  0  0  0  0  0  0  0  0  0
   13.6137   -7.1760    0.0000 O   0  0  0  0  0  0  0  0  0  0  0  0
   14.7654   -5.1974    0.0000 O   0  0  0  0  0  0  0  0  0  0  0  0
   11.3251   -3.1893    0.0000 N   0  0  0  0  0  0  0  0  0  0  0  0
   12.4768   -3.8390    0.0000 C   0  0  0  0  0  0  0  0  0  0  0  0
   13.1265   -2.6873    0.0000 S   0  0  0  0  0  0  0  0  0  0  0  0
   11.9748   -2.0376    0.0000 C   0  0  0  0  0  0  0  0  0  0  0  0
   11.6499   -0.7530    0.0000 C   0  0  0  0  0  0  0  0  0  0  0  0
    0.6201    0.0000    0.0000 C   0  0  0  0  0  0  0  0  0  0  0  0
    0.1329   -4.6806    0.0000 O   0  0  0  0  0  0  0  0  0  0  0  0
  1  5  1  0  0  0  0
  1  2  1  0  0  0  0
  2 31  1  0  0  0  0
  2  3  2  0  0  0  0
  3  4  1  0  0  0  0
  3 12  1  0  0  0  0
  4  5  1  0  0  0  0
  5 32  2  0  0  0  0
  6 11  1  0  0  0  0
  6  7  1  0  0  0  0
  7  8  1  0  0  0  0
  7 12  1  0  0  0  0
  8  9  1  0  0  0  0
  9 10  1  0  0  0  0
 10 11  1  0  0  0  0
 10 13  1  0  0  0  0
 13 14  2  0  0  0  0
 13 16  1  0  0  0  0
 14 15  1  0  0  0  0
 14 17  1  0  0  0  0
 15 19  2  0  0  0  0
 16 18  2  0  0  0  0
 18 19  1  0  0  0  0
 18 26  1  0  0  0  0
 19 20  1  0  0  0  0
 20 21  1  0  0  0  0
 20 22  2  0  0  0  0
 21 27  2  0  0  0  0
 21 23  1  0  0  0  0
 23 24  1  0  0  0  0
 23 25  2  0  0  0  0
 26 27  1  0  0  0  0
 26 29  1  0  0  0  0
 27 28  1  0  0  0  0
 28 29  1  0  0  0  0
 29 30  1  0  0  0  0
M  END
> <ID>
11717

> <Formula>
C21H20FN3O6S

> <FW>
461.4634

> <DSSTox_CID>
26480

> <DSSTox_RID>
81651

> <DSSTox_GSID>
46480

> <DSSTox_FileID_Sort>
6332

> <TS_ChemName>
Prulifloxacin

> <TS_ChemName_Synonyms>


> <TS_CASRN>
123447-62-1

> <CASRN_ChemName_Relationship>
primary

> <TS_Description>
single chemical compound

> <ChemNote>
stereochem

> <STRUCTURE_Shown>
tested chemical

> <STRUCTURE_Formula>
C21H20FN3O6S

> <STRUCTURE_MW>
461.4634

> <STRUCTURE_ChemType>
defined organic

> <STRUCTURE_DefinedOrganicForm>
parent

> <STRUCTURE_IUPAC>
6-fluoro-1-methyl-7-{4-[(5-methyl-2-oxo-1,3-dioxol-4-yl)methyl]piperazin-1-yl}-4-oxo-4H-[1,3]thiazeto[3,2-a]quinoline-3-carboxylic acid

> <STRUCTURE_SMILES>
CC=5OC(=O)OC=5CN1CCN(CC1)c2cc3c(cc2F)C(=O)C(=C4SC(C)N34)C(=O)O

> <STRUCTURE_SMILES_Desalt>
CC=5OC(=O)OC=5CN1CCN(CC1)c2cc3c(cc2F)C(=O)C(=C4SC(C)N34)C(=O)O

> <Substance_modify_yyyymmdd>
20110812

$$$$
