1234-30-6
ChemmineR-0915142007XD

 22 23  0  0  0  0  0  0  0  0  1 V2000
   10.3427   -1.9946    0.0000 C   0  0  0  0  0  0  0  0  0  0  0  0
    9.1846   -2.6701    0.0000 N   0  0  0  0  0  0  0  0  0  0  0  0
   10.3427   -0.6756    0.0000 C   0  0  0  0  0  0  0  0  0  0  0  0
   11.4848   -2.6701    0.0000 C   0  0  0  0  0  0  0  0  0  0  0  0
    8.0425   -1.9946    0.0000 C   0  0  0  0  0  0  0  0  0  0  0  0
   11.4848    0.0000    0.0000 C   0  0  0  0  0  0  0  0  0  0  0  0
   12.6429   -1.9946    0.0000 C   0  0  0  0  0  0  0  0  0  0  0  0
    6.9005   -2.6701    0.0000 N   0  0  0  0  0  0  0  0  0  0  0  0
    8.0425   -0.6756    0.0000 S   0  0  0  0  0  0  0  0  0  0  0  0
   12.6429   -0.6756    0.0000 C   0  0  0  0  0  0  0  0  0  0  0  0
    5.7424   -1.9946    0.0000 C   0  0  0  0  0  0  0  0  0  0  0  0
   13.7849    0.0000    0.0000 O   0  0  0  0  0  0  0  0  0  0  0  0
    4.6003   -2.6701    0.0000 C   0  0  0  0  0  0  0  0  0  0  0  0
    5.7424   -0.6756    0.0000 C   0  0  0  0  0  0  0  0  0  0  0  0
   14.9430   -0.6756    0.0000 C   0  0  0  0  0  0  0  0  0  0  0  0
    3.4422   -1.9946    0.0000 C   0  0  0  0  0  0  0  0  0  0  0  0
    4.6003    0.0000    0.0000 C   0  0  0  0  0  0  0  0  0  0  0  0
   16.0851    0.0000    0.0000 C   0  0  0  0  0  0  0  0  0  0  0  0
    3.4422   -0.6756    0.0000 C   0  0  0  0  0  0  0  0  0  0  0  0
    2.3002    0.0000    0.0000 O   0  0  0  0  0  0  0  0  0  0  0  0
    1.1420   -0.6756    0.0000 C   0  0  0  0  0  0  0  0  0  0  0  0
    0.0000    0.0000    0.0000 C   0  0  0  0  0  0  0  0  0  0  0  0
  1  2  1  0  0  0  0
  1  3  1  0  0  0  0
  1  4  2  0  0  0  0
  2  5  1  0  0  0  0
  3  6  2  0  0  0  0
  4  7  1  0  0  0  0
  5  8  1  0  0  0  0
  5  9  2  0  0  0  0
  6 10  1  0  0  0  0
  7 10  2  0  0  0  0
  8 11  1  0  0  0  0
 10 12  1  0  0  0  0
 11 13  2  0  0  0  0
 11 14  1  0  0  0  0
 12 15  1  0  0  0  0
 13 16  1  0  0  0  0
 14 17  2  0  0  0  0
 15 18  1  0  0  0  0
 16 19  2  0  0  0  0
 17 19  1  0  0  0  0
 19 20  1  0  0  0  0
 20 21  1  0  0  0  0
 21 22  1  0  0  0  0
M  END
> <ID>
11495

> <Formula>
C17H20N2O2S

> <FW>
316.4179

> <DSSTox_CID>
26197

> <DSSTox_RID>
81428

> <DSSTox_GSID>
46197

> <DSSTox_FileID_Sort>
6109

> <TS_ChemName>
Etocarlide

> <TS_ChemName_Synonyms>


> <TS_CASRN>
1234-30-6

> <CASRN_ChemName_Relationship>
primary

> <TS_Description>
single chemical compound

> <ChemNote>


> <STRUCTURE_Shown>
tested chemical

> <STRUCTURE_Formula>
C17H20N2O2S

> <STRUCTURE_MW>
316.4179

> <STRUCTURE_ChemType>
defined organic

> <STRUCTURE_DefinedOrganicForm>
parent

> <STRUCTURE_IUPAC>
1,3-bis(4-ethoxyphenyl)thiourea

> <STRUCTURE_SMILES>
CCOc1ccc(cc1)NC(=S)Nc2ccc(OCC)cc2

> <STRUCTURE_SMILES_Desalt>
CCOc1ccc(cc1)NC(=S)Nc2ccc(OCC)cc2

> <Substance_modify_yyyymmdd>
20110817

$$$$
