1235-82-1
ChemmineR-0915142007XD

 24 26  0  0  0  0  0  0  0  0  1 V2000
    2.2704   -4.5952    0.0000 C    0  0  0  0  0  0  0  0  0  0  0  0
    2.2704   -5.9029    0.0000 C    0  0  0  0  0  0  0  0  0  0  0  0
    1.1352   -3.9322    0.0000 C    0  0  0  0  0  0  0  0  0  0  0  0
    1.1352   -6.5568    0.0000 C    0  0  0  0  0  0  0  0  0  0  0  0
    0.0000   -4.5952    0.0000 C    0  0  0  0  0  0  0  0  0  0  0  0
    0.0000   -5.9029    0.0000 C    0  0  0  0  0  0  0  0  0  0  0  0
    3.4146   -3.9322    0.0000 C    0  0  0  0  0  0  0  0  0  0  0  0
    1.6437   -5.1946    0.0000 C    0  0  0  0  0  0  0  0  0  0  0  0
    3.4146   -2.6154    0.0000 C    0  0  0  0  0  0  0  0  0  0  0  0
    2.2704   -1.9525    0.0000 C    0  0  0  0  0  0  0  0  0  0  0  0
    4.5498   -1.9525    0.0000 C    0  0  0  0  0  0  0  0  0  0  0  0
    2.2704   -0.6448    0.0000 C    0  0  0  0  0  0  0  0  0  0  0  0
    4.5498   -0.6448    0.0000 C    0  0  0  0  0  0  0  0  0  0  0  0
    3.4146    0.0000    0.0000 C    0  0  0  0  0  0  0  0  0  0  0  0
    4.5498   -4.5770    0.0000 C    0  0  0  0  0  0  0  0  0  0  0  0
    3.4146   -5.5397    0.0000 O    0  0  0  0  0  0  0  0  0  0  0  0
    5.6850   -3.9322    0.0000 C    0  0  0  0  0  0  0  0  0  0  0  0
    6.8111   -4.5770    0.0000 N    0  0  0  0  0  0  0  0  0  0  0  0
    7.9462   -3.9322    0.0000 C    0  0  0  0  0  0  0  0  0  0  0  0
    6.8111   -5.9029    0.0000 C    0  0  0  0  0  0  0  0  0  0  0  0
    9.0814   -4.5952    0.0000 C    0  0  0  0  0  0  0  0  0  0  0  0
    7.9462   -6.5568    0.0000 C    0  0  0  0  0  0  0  0  0  0  0  0
    9.0814   -5.9029    0.0000 C    0  0  0  0  0  0  0  0  0  0  0  0
    3.9050   -7.3105    0.0000 Cl   0  0  0  0  0  0  0  0  0  0  0  0
  1  2  1  0  0  0  0
  1  3  1  0  0  0  0
  1  7  1  0  0  0  0
  2  4  1  0  0  0  0
  3  5  1  0  0  0  0
  3  8  1  0  0  0  0
  4  6  1  0  0  0  0
  4  8  1  0  0  0  0
  5  6  2  0  0  0  0
  7  9  1  0  0  0  0
  7 15  1  0  0  0  0
  7 16  1  0  0  0  0
  9 10  1  0  0  0  0
  9 11  2  0  0  0  0
 10 12  2  0  0  0  0
 11 13  1  0  0  0  0
 12 14  1  0  0  0  0
 13 14  2  0  0  0  0
 15 17  1  0  0  0  0
 17 18  1  0  0  0  0
 18 19  1  0  0  0  0
 18 20  1  0  0  0  0
 19 21  1  0  0  0  0
 20 22  1  0  0  0  0
 21 23  1  0  0  0  0
 22 23  1  0  0  0  0
M  END
> <ID>
12931

> <Formula>
C21H30ClNO

> <FW>
347.9220 (311.4611+36.4609)

> <DSSTox_CID>
27832

> <DSSTox_RID>
82595

> <DSSTox_GSID>
47856

> <DSSTox_FileID_Sort>
7272

> <TS_ChemName>
Biperiden hydrochloride

> <TS_ChemName_Synonyms>


> <TS_CASRN>
1235-82-1

> <CASRN_ChemName_Relationship>
primary

> <TS_Description>
single chemical compound

> <ChemNote>
parent [514-65-8]

> <STRUCTURE_Shown>
tested chemical

> <STRUCTURE_Formula>
C21H30ClNO

> <STRUCTURE_MW>
347.922

> <STRUCTURE_ChemType>
defined organic

> <STRUCTURE_DefinedOrganicForm>
complex

> <STRUCTURE_IUPAC>
1-(bicyclo[2.2.1]hept-5-en-2-yl)-1-phenyl-3-(piperidin-1-yl)propan-1-ol hydrochloride (1:1)

> <STRUCTURE_SMILES>
Cl.OC(CCN1CCCCC1)(c2ccccc2)C4CC3C=CC4C3

> <STRUCTURE_SMILES_Desalt>
OC(CCN1CCCCC1)(c2ccccc2)C4CC3C=CC4C3

> <Substance_modify_yyyymmdd>
20110606

$$$$
