123548-56-1
ChemmineR-0915142007XD

 25 25  0  0  0  0  0  0  0  0  1 V2000
    6.9090   -4.6491    0.0000 C    0  0  0  0  0  0  0  0  0  0  0  0
    8.0713   -5.3109    0.0000 C    0  0  0  0  0  0  0  0  0  0  0  0
    9.2174   -4.6491    0.0000 C    0  0  0  0  0  0  0  0  0  0  0  0
    9.2335   -3.3254    0.0000 C    0  0  0  0  0  0  0  0  0  0  0  0
    8.0713   -2.6635    0.0000 C    0  0  0  0  0  0  0  0  0  0  0  0
    6.9090   -3.3254    0.0000 C    0  0  0  0  0  0  0  0  0  0  0  0
    8.0874   -1.3237    0.0000 C    0  0  0  0  0  0  0  0  0  0  0  0
    8.0874    0.0000    0.0000 N    0  0  0  0  0  0  0  0  0  0  0  0
   10.3635   -5.3270    0.0000 N    0  0  0  0  0  0  0  0  0  0  0  0
   11.5258   -4.6491    0.0000 C    0  0  0  0  0  0  0  0  0  0  0  0
   12.6880   -5.3270    0.0000 C    0  0  0  0  0  0  0  0  0  0  0  0
   13.8503   -4.6652    0.0000 O    0  0  0  0  0  0  0  0  0  0  0  0
   14.9803   -5.3270    0.0000 C    0  0  0  0  0  0  0  0  0  0  0  0
   14.9803   -6.6669    0.0000 O    0  0  0  0  0  0  0  0  0  0  0  0
   16.1425   -4.6652    0.0000 C    0  0  0  0  0  0  0  0  0  0  0  0
   11.5258   -3.3254    0.0000 O    0  0  0  0  0  0  0  0  0  0  0  0
    8.0713   -6.6346    0.0000 Cl   0  0  0  0  0  0  0  0  0  0  0  0
    5.7790   -5.2948    0.0000 N    0  0  0  0  0  0  0  0  0  0  0  0
    4.6168   -4.6329    0.0000 C    0  0  0  0  0  0  0  0  0  0  0  0
    3.4545   -5.2948    0.0000 C    0  0  0  0  0  0  0  0  0  0  0  0
    2.2922   -4.6329    0.0000 O    0  0  0  0  0  0  0  0  0  0  0  0
    1.1461   -5.2786    0.0000 C    0  0  0  0  0  0  0  0  0  0  0  0
    1.1461   -6.6184    0.0000 O    0  0  0  0  0  0  0  0  0  0  0  0
    0.0000   -4.6329    0.0000 C    0  0  0  0  0  0  0  0  0  0  0  0
    4.6168   -3.3092    0.0000 O    0  0  0  0  0  0  0  0  0  0  0  0
  1  2  1  0  0  0  0
  1  6  2  0  0  0  0
  1 18  1  0  0  0  0
  2  3  2  0  0  0  0
  2 17  1  0  0  0  0
  3  4  1  0  0  0  0
  3  9  1  0  0  0  0
  4  5  2  0  0  0  0
  5  6  1  0  0  0  0
  5  7  1  0  0  0  0
  7  8  3  0  0  0  0
  9 10  1  0  0  0  0
 10 11  1  0  0  0  0
 10 16  2  0  0  0  0
 11 12  1  0  0  0  0
 12 13  1  0  0  0  0
 13 14  2  0  0  0  0
 13 15  1  0  0  0  0
 18 19  1  0  0  0  0
 19 20  1  0  0  0  0
 19 25  2  0  0  0  0
 20 21  1  0  0  0  0
 21 22  1  0  0  0  0
 22 23  2  0  0  0  0
 22 24  1  0  0  0  0
M  END
> <ID>
13808

> <Formula>
C15H14ClN3O6

> <FW>
367.7412

> <DSSTox_CID>
28745

> <DSSTox_RID>
83014

> <DSSTox_GSID>
48819

> <DSSTox_FileID_Sort>
7691

> <TS_ChemName>
Acreozast

> <TS_ChemName_Synonyms>


> <TS_CASRN>
123548-56-1

> <CASRN_ChemName_Relationship>
primary

> <TS_Description>
single chemical compound

> <ChemNote>


> <STRUCTURE_Shown>
tested chemical

> <STRUCTURE_Formula>
C15H14ClN3O6

> <STRUCTURE_MW>
367.7412

> <STRUCTURE_ChemType>
defined organic

> <STRUCTURE_DefinedOrganicForm>
parent

> <STRUCTURE_IUPAC>
(2-chloro-5-cyanobenzene-1,3-diyl)bis(imino-2-oxoethane-2,1-diyl) diacetate

> <STRUCTURE_SMILES>
Clc1c(cc(cc1NC(=O)COC(C)=O)C#N)NC(=O)COC(C)=O

> <STRUCTURE_SMILES_Desalt>
Clc1c(cc(cc1NC(=O)COC(C)=O)C#N)NC(=O)COC(C)=O

> <Substance_modify_yyyymmdd>
20111204

$$$$
