123663-49-0
ChemmineR-0915142007XD

 26 28  0  0  0  0  0  0  0  0  1 V2000
    6.0028   -2.7022    0.0000 O   0  0  0  0  0  0  0  0  0  0  0  0
    4.7877   -3.3550    0.0000 C   0  0  0  0  0  0  0  0  0  0  0  0
    4.7877   -4.6789    0.0000 C   0  0  0  0  0  0  0  0  0  0  0  0
    6.0028   -5.3771    0.0000 C   0  0  0  0  0  0  0  0  0  0  0  0
    7.1816   -4.6789    0.0000 C   0  0  0  0  0  0  0  0  0  0  0  0
    7.1816   -3.3550    0.0000 C   0  0  0  0  0  0  0  0  0  0  0  0
    3.6905   -2.7022    0.0000 C   0  0  0  0  0  0  0  0  0  0  0  0
    2.5027   -3.3550    0.0000 C   0  0  0  0  0  0  0  0  0  0  0  0
    2.5027   -4.6789    0.0000 C   0  0  0  0  0  0  0  0  0  0  0  0
    3.6905   -5.3771    0.0000 C   0  0  0  0  0  0  0  0  0  0  0  0
    6.0028   -6.7010    0.0000 O   0  0  0  0  0  0  0  0  0  0  0  0
    8.3150   -5.3771    0.0000 N   0  0  0  0  0  0  0  0  0  0  0  0
    8.3150   -6.7010    0.0000 C   0  0  0  0  0  0  0  0  0  0  0  0
    7.1816   -7.3720    0.0000 O   0  0  0  0  0  0  0  0  0  0  0  0
    1.3239   -2.7022    0.0000 N   0  0  0  0  0  0  0  0  0  0  0  0
    1.3239   -1.3239    0.0000 S   0  0  0  0  0  0  0  0  0  0  0  0
    0.0000   -1.3239    0.0000 O   0  0  0  0  0  0  0  0  0  0  0  0
    2.6840   -1.3239    0.0000 O   0  0  0  0  0  0  0  0  0  0  0  0
    1.3239    0.0000    0.0000 C   0  0  0  0  0  0  0  0  0  0  0  0
    1.2423   -5.3771    0.0000 O   0  0  0  0  0  0  0  0  0  0  0  0
    2.3304   -7.0909    0.0000 C   0  0  0  0  0  0  0  0  0  0  0  0
    2.3304   -8.4148    0.0000 C   0  0  0  0  0  0  0  0  0  0  0  0
    1.2423   -6.4199    0.0000 C   0  0  0  0  0  0  0  0  0  0  0  0
    1.1788   -9.0677    0.0000 C   0  0  0  0  0  0  0  0  0  0  0  0
    0.0363   -7.0909    0.0000 C   0  0  0  0  0  0  0  0  0  0  0  0
    0.0363   -8.4148    0.0000 C   0  0  0  0  0  0  0  0  0  0  0  0
  1  2  1  0  0  0  0
  1  6  1  0  0  0  0
  2  3  2  0  0  0  0
  2  7  1  0  0  0  0
  3  4  1  0  0  0  0
  3 10  1  0  0  0  0
  4  5  1  0  0  0  0
  4 11  2  0  0  0  0
  5  6  2  0  0  0  0
  5 12  1  0  0  0  0
  7  8  2  0  0  0  0
  8  9  1  0  0  0  0
  8 15  1  0  0  0  0
  9 10  2  0  0  0  0
  9 20  1  0  0  0  0
 12 13  1  0  0  0  0
 13 14  2  0  0  0  0
 15 16  1  0  0  0  0
 16 17  2  0  0  0  0
 16 18  2  0  0  0  0
 16 19  1  0  0  0  0
 20 23  1  0  0  0  0
 21 22  1  0  0  0  0
 21 23  2  0  0  0  0
 22 24  2  0  0  0  0
 23 25  1  0  0  0  0
 24 26  1  0  0  0  0
 25 26  2  0  0  0  0
M  END
> <ID>
13959

> <Formula>
C17H14N2O6S

> <FW>
374.3679

> <DSSTox_CID>
28897

> <DSSTox_RID>
83165

> <DSSTox_GSID>
48971

> <DSSTox_FileID_Sort>
7842

> <TS_ChemName>
Iguratimod

> <TS_ChemName_Synonyms>
T 614

> <TS_CASRN>
123663-49-0

> <CASRN_ChemName_Relationship>
primary

> <TS_Description>
single chemical compound

> <ChemNote>


> <STRUCTURE_Shown>
tested chemical

> <STRUCTURE_Formula>
C17H14N2O6S

> <STRUCTURE_MW>
374.3679

> <STRUCTURE_ChemType>
defined organic

> <STRUCTURE_DefinedOrganicForm>
parent

> <STRUCTURE_IUPAC>
N-[3-(formylamino)-4-oxo-6-phenoxy-4H-chromen-7-yl]methanesulfonamide

> <STRUCTURE_SMILES>
CS(=O)(=O)Nc2cc3OC=C(NC=O)C(=O)c3cc2Oc1ccccc1

> <STRUCTURE_SMILES_Desalt>
CS(=O)(=O)Nc2cc3OC=C(NC=O)C(=O)c3cc2Oc1ccccc1

> <Substance_modify_yyyymmdd>
20111204

$$$$
