1239-45-8
ChemmineR-0915142007XD

 25 27  0  0  0  0  0  0  0  0  2 V2000
    4.6522   -6.9178    0.0000 C    0  0  0  0  0  0  0  0  0  0  0  0
    3.9950   -8.0678    0.0000 C    0  0  0  0  0  0  0  0  0  0  0  0
    3.9950   -5.7590    0.0000 N    0  3  0  0  0  0  0  0  0  0  0  0
    2.6633   -5.7590    0.0000 C    0  0  0  0  0  0  0  0  0  0  0  0
    1.9975   -6.9178    0.0000 C    0  0  0  0  0  0  0  0  0  0  0  0
    0.6658   -6.9178    0.0000 C    0  0  0  0  0  0  0  0  0  0  0  0
    0.0000   -8.0678    0.0000 N    0  0  0  0  0  0  0  0  0  0  0  0
    0.0000   -5.7590    0.0000 C    0  0  0  0  0  0  0  0  0  0  0  0
    0.6658   -4.6090    0.0000 C    0  0  0  0  0  0  0  0  0  0  0  0
    1.9975   -4.6090    0.0000 C    0  0  0  0  0  0  0  0  0  0  0  0
    2.6633   -3.4589    0.0000 C    0  0  0  0  0  0  0  0  0  0  0  0
    1.9975   -2.3002    0.0000 C    0  0  0  0  0  0  0  0  0  0  0  0
    2.6633   -1.1501    0.0000 C    0  0  0  0  0  0  0  0  0  0  0  0
    3.9950   -1.1501    0.0000 C    0  0  0  0  0  0  0  0  0  0  0  0
    4.6522    0.0000    0.0000 N    0  0  0  0  0  0  0  0  0  0  0  0
    4.6522   -2.3002    0.0000 C    0  0  0  0  0  0  0  0  0  0  0  0
    3.9950   -3.4589    0.0000 C    0  0  0  0  0  0  0  0  0  0  0  0
    4.6522   -4.6090    0.0000 C    0  0  0  0  0  0  0  0  0  0  0  0
    5.9839   -4.6090    0.0000 C    0  0  0  0  0  0  0  0  0  0  0  0
    6.6497   -3.4589    0.0000 C    0  0  0  0  0  0  0  0  0  0  0  0
    7.9814   -3.4589    0.0000 C    0  0  0  0  0  0  0  0  0  0  0  0
    8.6472   -4.6090    0.0000 C    0  0  0  0  0  0  0  0  0  0  0  0
    7.9814   -5.7590    0.0000 C    0  0  0  0  0  0  0  0  0  0  0  0
    6.6497   -5.7590    0.0000 C    0  0  0  0  0  0  0  0  0  0  0  0
    7.4971   -7.2031    0.0000 Br   0  5  0  0  0  0  0  0  0  0  0  0
  1  2  1  0  0  0  0
  1  3  1  0  0  0  0
  3  4  1  0  0  0  0
  3 18  2  0  0  0  0
  4  5  2  0  0  0  0
  4 10  1  0  0  0  0
  5  6  1  0  0  0  0
  6  7  1  0  0  0  0
  6  8  2  0  0  0  0
  8  9  1  0  0  0  0
  9 10  2  0  0  0  0
 10 11  1  0  0  0  0
 11 12  2  0  0  0  0
 11 17  1  0  0  0  0
 12 13  1  0  0  0  0
 13 14  2  0  0  0  0
 14 15  1  0  0  0  0
 14 16  1  0  0  0  0
 16 17  2  0  0  0  0
 17 18  1  0  0  0  0
 18 19  1  0  0  0  0
 19 20  2  0  0  0  0
 19 24  1  0  0  0  0
 20 21  1  0  0  0  0
 21 22  2  0  0  0  0
 22 23  1  0  0  0  0
 23 24  2  0  0  0  0
M  END
> <ID>
4109

> <Formula>
C21H20BrN3

> <FW>
394.3076 (314.4031+79.9045)

> <DSSTox_CID>
5258

> <DSSTox_RID>
77719

> <DSSTox_GSID>
25258

> <DSSTox_FileID_Sort>
2402

> <TS_ChemName>
Ethidium bromide

> <TS_ChemName_Synonyms>


> <TS_CASRN>
1239-45-8

> <CASRN_ChemName_Relationship>
primary

> <TS_Description>
single chemical compound

> <ChemNote>
ammonium; parent [3546-21-2]

> <STRUCTURE_Shown>
tested chemical

> <STRUCTURE_Formula>
C21H20BrN3

> <STRUCTURE_MW>
394.3076

> <STRUCTURE_ChemType>
defined organic

> <STRUCTURE_DefinedOrganicForm>
salt

> <STRUCTURE_IUPAC>
3,8-diamino-5-ethyl-6-phenylphenanthridinium bromide

> <STRUCTURE_SMILES>
[Br-].CC[n+]3c4cc(N)ccc4c1ccc(N)cc1c3c2ccccc2

> <STRUCTURE_SMILES_Desalt>
CC[n+]3c4cc(N)ccc4c1ccc(N)cc1c3c2ccccc2

> <Substance_modify_yyyymmdd>
20080429

$$$$
