1239-29-8
ChemmineR-0915142007XD

 28 32  0  0  1  0  0  0  0  0  1 V2000
    4.2967   -3.7292    0.0000 C   0  0  0  0  0  0  0  0  0  0  0  0
    7.7320   -1.7734    0.0000 C   0  0  0  0  0  0  0  0  0  0  0  0
    2.0166   -3.7292    0.0000 C   0  0  0  0  0  0  0  0  0  0  0  0
    5.4519   -3.0604    0.0000 C   0  0  0  0  0  0  0  0  0  0  0  0
    7.7320   -3.0604    0.0000 C   0  0  0  0  0  0  0  0  0  0  0  0
    2.0166   -5.0668    0.0000 C   0  0  0  0  0  0  0  0  0  0  0  0
    6.6173   -3.7292    0.0000 C   0  0  0  0  0  0  0  0  0  0  0  0
    3.1617   -3.0604    0.0000 C   0  0  0  0  0  0  0  0  0  0  0  0
    0.0000   -4.3879    0.0000 O   0  0  0  0  0  0  0  0  0  0  0  0
    0.7904   -3.3542    0.0000 N   0  0  0  0  0  0  0  0  0  0  0  0
    0.7904   -5.4823    0.0000 N   0  0  0  0  0  0  0  0  0  0  0  0
    4.2967   -5.0668    0.0000 C   0  0  0  0  0  0  0  0  0  0  0  0
    9.0190   -1.3680    0.0000 C   0  0  0  0  0  0  0  0  0  0  0  0
    6.6173   -1.1147    0.0000 C   0  0  0  0  0  0  0  0  0  0  0  0
    3.1617   -5.7255    0.0000 C   0  0  0  0  0  0  0  0  0  0  0  0
    5.4519   -1.7734    0.0000 C   0  0  0  0  0  0  0  0  0  0  0  0
    9.0190   -3.4860    0.0000 C   0  0  0  0  0  0  0  0  0  0  0  0
    6.6173   -5.0668    0.0000 C   0  0  0  0  0  0  0  0  0  0  0  0
    5.4519   -5.7255    0.0000 C   0  0  0  0  0  0  0  0  0  0  0  0
    9.7790   -2.4523    0.0000 C   0  0  0  0  0  0  0  0  0  0  0  0
    4.2967   -2.4219    0.0000 C   0  0  0  0  0  0  0  0  0  0  0  0
    9.0190    0.0000    0.0000 O   0  0  0  0  0  0  0  0  0  0  0  0
    7.7320   -0.4155    0.0000 C   0  0  0  0  0  0  0  0  0  0  0  0
   10.1337   -0.4864    0.0000 C   0  0  0  0  0  0  0  0  0  0  0  0
    4.2967   -6.4855    0.0000 H   0  0  0  0  0  0  0  0  0  0  0  0
    7.7320   -4.4081    0.0000 H   0  0  0  0  0  0  0  0  0  0  0  0
    6.6173   -2.4219    0.0000 H   0  0  0  0  0  0  0  0  0  0  0  0
    5.4519   -4.4081    0.0000 H   0  0  0  0  0  0  0  0  0  0  0  0
  1  4  1  0  0  0  0
  1  8  1  0  0  0  0
  1 12  1  0  0  0  0
  1 21  1  1  0  0  0
  2 14  1  0  0  0  0
  2 13  1  0  0  0  0
  2 23  1  1  0  0  0
  2  5  1  0  0  0  0
  3  8  1  0  0  0  0
  3 10  2  0  0  0  0
  3  6  1  0  0  0  0
  4  7  1  0  0  0  0
  4 16  1  0  0  0  0
  4 28  1  6  0  0  0
  5  7  1  0  0  0  0
  5 17  1  0  0  0  0
  5 26  1  6  0  0  0
  6 15  1  0  0  0  0
  6 11  2  0  0  0  0
  7 18  1  0  0  0  0
  7 27  1  1  0  0  0
  9 10  1  0  0  0  0
  9 11  1  0  0  0  0
 12 15  1  0  0  0  0
 12 19  1  0  0  0  0
 12 25  1  6  0  0  0
 13 22  1  1  0  0  0
 13 24  1  6  0  0  0
 13 20  1  0  0  0  0
 14 16  1  0  0  0  0
 17 20  1  0  0  0  0
 18 19  1  0  0  0  0
M  END
> <ID>
12055

> <Formula>
C20H30N2O2

> <FW>
330.4644

> <DSSTox_CID>
26889

> <DSSTox_RID>
81992

> <DSSTox_GSID>
46889

> <DSSTox_FileID_Sort>
6673

> <TS_ChemName>
Furazabol

> <TS_ChemName_Synonyms>


> <TS_CASRN>
1239-29-8

> <CASRN_ChemName_Relationship>
primary

> <TS_Description>
single chemical compound

> <ChemNote>
stereochem

> <STRUCTURE_Shown>
tested chemical

> <STRUCTURE_Formula>
C20H30N2O2

> <STRUCTURE_MW>
330.4644

> <STRUCTURE_ChemType>
defined organic

> <STRUCTURE_DefinedOrganicForm>
parent

> <STRUCTURE_IUPAC>
(1S,3aS,3bR,5aS,10aS,10bS,12aS)-1,10a,12a-trimethyl-2,3,3a,3b,4,5,5a,6,10,10a,10b,11,12,12a-tetradecahydro-1H-cyclopenta[7,8]phenanthro[2,3-c][1,2,5]oxadiazol-1-ol

> <STRUCTURE_SMILES>
C[C@]5(O)CC[C@@H]4[C@]5(C)CC[C@H]1[C@H]4CC[C@H]2Cc3nonc3C[C@]12C

> <STRUCTURE_SMILES_Desalt>
C[C@]5(O)CC[C@@H]4[C@]5(C)CC[C@H]1[C@H]4CC[C@H]2Cc3nonc3C[C@]12C

> <Substance_modify_yyyymmdd>
20100107

$$$$
