124-12-9
ChemmineR-0915142007XD

  9  8  0  0  0  0  0  0  0  0  1 V2000
    8.0464   -0.6529    0.0000 C   0  0  0  0  0  0  0  0  0  0  0  0
    9.1959    0.0000    0.0000 N   0  0  0  0  0  0  0  0  0  0  0  0
    6.8969   -1.3242    0.0000 C   0  0  0  0  0  0  0  0  0  0  0  0
    5.7474   -0.6529    0.0000 C   0  0  0  0  0  0  0  0  0  0  0  0
    4.5979   -1.3242    0.0000 C   0  0  0  0  0  0  0  0  0  0  0  0
    3.4485   -0.6529    0.0000 C   0  0  0  0  0  0  0  0  0  0  0  0
    2.2990   -1.3242    0.0000 C   0  0  0  0  0  0  0  0  0  0  0  0
    1.1495   -0.6529    0.0000 C   0  0  0  0  0  0  0  0  0  0  0  0
    0.0000   -1.3242    0.0000 C   0  0  0  0  0  0  0  0  0  0  0  0
  1  2  3  0  0  0  0
  1  3  1  0  0  0  0
  3  4  1  0  0  0  0
  4  5  1  0  0  0  0
  5  6  1  0  0  0  0
  6  7  1  0  0  0  0
  7  8  1  0  0  0  0
  8  9  1  0  0  0  0
M  END
> <ID>
12776

> <Formula>
C8H15N

> <FW>
125.2114

> <DSSTox_CID>
27655

> <DSSTox_RID>
82479

> <DSSTox_GSID>
47655

> <DSSTox_FileID_Sort>
7160

> <TS_ChemName>
Octanenitrile

> <TS_ChemName_Synonyms>
Octanenitrile (Heptyl cyanide)

> <TS_CASRN>
124-12-9

> <CASRN_ChemName_Relationship>
primary

> <TS_Description>
single chemical compound

> <ChemNote>


> <STRUCTURE_Shown>
tested chemical

> <STRUCTURE_Formula>
C8H15N

> <STRUCTURE_MW>
125.2114

> <STRUCTURE_ChemType>
defined organic

> <STRUCTURE_DefinedOrganicForm>
parent

> <STRUCTURE_IUPAC>
octanenitrile

> <STRUCTURE_SMILES>
CCCCCCCC#N

> <STRUCTURE_SMILES_Desalt>
CCCCCCCC#N

> <Substance_modify_yyyymmdd>
20101214

$$$$
