124-43-6
ChemmineR-0915142007XD

  6  4  0  0  0  0  0  0  0  0  1 V2000
    1.9949    0.0000    0.0000 N   0  0  0  0  0  0  0  0  0  0  0  0
    1.3299   -1.1519    0.0000 C   0  0  0  0  0  0  0  0  0  0  0  0
    1.9949   -2.3038    0.0000 O   0  0  0  0  0  0  0  0  0  0  0  0
    0.0000   -1.1519    0.0000 N   0  0  0  0  0  0  0  0  0  0  0  0
    1.8605   -3.6337    0.0000 O   0  0  0  0  0  0  0  0  0  0  0  0
    3.1904   -3.6337    0.0000 O   0  0  0  0  0  0  0  0  0  0  0  0
  1  2  1  0  0  0  0
  2  3  2  0  0  0  0
  2  4  1  0  0  0  0
  5  6  1  0  0  0  0
M  END
> <ID>
3831

> <Formula>
CH6N2O3

> <FW>
94.0699 (60.0553+34.0147)

> <DSSTox_CID>
4726

> <DSSTox_RID>
77512

> <DSSTox_GSID>
24726

> <DSSTox_FileID_Sort>
2195

> <TS_ChemName>
Carbamide peroxide

> <TS_ChemName_Synonyms>


> <TS_CASRN>
124-43-6

> <CASRN_ChemName_Relationship>
primary

> <TS_Description>
single chemical compound

> <ChemNote>
1:1 mixture of  urea [57-13-6] and hydrogen peroxide solution [7722-84-1]

> <STRUCTURE_Shown>
tested chemical

> <STRUCTURE_Formula>
CH6N2O3

> <STRUCTURE_MW>
94.0699

> <STRUCTURE_ChemType>
defined organic

> <STRUCTURE_DefinedOrganicForm>
complex

> <STRUCTURE_IUPAC>
hydrogen peroxide - urea (1:1)

> <STRUCTURE_SMILES>
NC(N)=O.OO

> <STRUCTURE_SMILES_Desalt>
NC(N)=O

> <Substance_modify_yyyymmdd>
20080429

$$$$
