124-03-8
ChemmineR-0915142007XD

 22 20  0  0  0  0  0  0  0  0  2 V2000
   18.4433   -1.9709    0.0000 N    0  3  0  0  0  0  0  0  0  0  0  0
   17.3023   -1.3070    0.0000 C    0  0  0  0  0  0  0  0  0  0  0  0
   16.1405   -1.9709    0.0000 C    0  0  0  0  0  0  0  0  0  0  0  0
    1.1618   -1.3070    0.0000 C    0  0  0  0  0  0  0  0  0  0  0  0
    2.3028   -1.9709    0.0000 C    0  0  0  0  0  0  0  0  0  0  0  0
   14.9995   -1.3070    0.0000 C    0  0  0  0  0  0  0  0  0  0  0  0
   11.5349   -1.9709    0.0000 C    0  0  0  0  0  0  0  0  0  0  0  0
    5.7674   -1.3070    0.0000 C    0  0  0  0  0  0  0  0  0  0  0  0
    4.6264   -1.9709    0.0000 C    0  0  0  0  0  0  0  0  0  0  0  0
   12.6759   -1.3070    0.0000 C    0  0  0  0  0  0  0  0  0  0  0  0
    9.2113   -1.9709    0.0000 C    0  0  0  0  0  0  0  0  0  0  0  0
    8.0703   -1.3070    0.0000 C    0  0  0  0  0  0  0  0  0  0  0  0
    6.9292   -1.9709    0.0000 C    0  0  0  0  0  0  0  0  0  0  0  0
   10.3731   -1.3070    0.0000 C    0  0  0  0  0  0  0  0  0  0  0  0
   13.8377   -1.9709    0.0000 C    0  0  0  0  0  0  0  0  0  0  0  0
    3.4646   -1.3070    0.0000 C    0  0  0  0  0  0  0  0  0  0  0  0
    0.0000   -1.9709    0.0000 C    0  0  0  0  0  0  0  0  0  0  0  0
   19.5844   -2.6348    0.0000 C    0  0  0  0  0  0  0  0  0  0  0  0
   20.7462   -1.9709    0.0000 C    0  0  0  0  0  0  0  0  0  0  0  0
   19.1072   -0.8298    0.0000 C    0  0  0  0  0  0  0  0  0  0  0  0
   17.7795   -3.1327    0.0000 C    0  0  0  0  0  0  0  0  0  0  0  0
   17.9454    0.0000    0.0000 Br   0  5  0  0  0  0  0  0  0  0  0  0
  1  2  1  0  0  0  0
  1 18  1  0  0  0  0
  1 20  1  0  0  0  0
  1 21  1  0  0  0  0
  2  3  1  0  0  0  0
  3  6  1  0  0  0  0
  4  5  1  0  0  0  0
  4 17  1  0  0  0  0
  5 16  1  0  0  0  0
  6 15  1  0  0  0  0
  7 10  1  0  0  0  0
  7 14  1  0  0  0  0
  8 13  1  0  0  0  0
  8  9  1  0  0  0  0
  9 16  1  0  0  0  0
 10 15  1  0  0  0  0
 11 14  1  0  0  0  0
 11 12  1  0  0  0  0
 12 13  1  0  0  0  0
 18 19  1  0  0  0  0
M  END
> <ID>
8711

> <Formula>
C20H44BrN

> <FW>
378.4741 (298.5695+79.9045)

> <DSSTox_CID>
21759

> <DSSTox_RID>
79837

> <DSSTox_GSID>
41759

> <DSSTox_FileID_Sort>
4519

> <TS_ChemName>
Ethylhexadecyldimethylammonium bromide

> <TS_ChemName_Synonyms>
Cetyl dimethyl ethyl ammonium bromide

> <TS_CASRN>
124-03-8

> <CASRN_ChemName_Relationship>
primary

> <TS_Description>
single chemical compound

> <ChemNote>
ammonium

> <STRUCTURE_Shown>
tested chemical

> <STRUCTURE_Formula>
C20H44BrN

> <STRUCTURE_MW>
378.4741

> <STRUCTURE_ChemType>
defined organic

> <STRUCTURE_DefinedOrganicForm>
salt

> <STRUCTURE_IUPAC>
N-ethyl-N,N-dimethylhexadecan-1-aminium bromide

> <STRUCTURE_SMILES>
[Br-].C[N+](C)(CCCCCCCCCCCCCCCC)CC

> <STRUCTURE_SMILES_Desalt>
C[N+](C)(CCCCCCCCCCCCCCCC)CC

> <Substance_modify_yyyymmdd>
20080825

$$$$
