124-40-3
ChemmineR-0915142007XD

  3  2  0  0  0  0  0  0  0  0  1 V2000
    1.9960    0.0000    0.0000 C   0  0  0  0  0  0  0  0  0  0  0  0
    0.0000   -1.1517    0.0000 C   0  0  0  0  0  0  0  0  0  0  0  0
    1.3293   -1.1517    0.0000 N   0  0  0  0  0  0  0  0  0  0  0  0
  1  3  1  0  0  0  0
  2  3  1  0  0  0  0
M  END
> <ID>
3484

> <Formula>
C2H7N

> <FW>
45.0837

> <DSSTox_CID>
4057

> <DSSTox_RID>
77272

> <DSSTox_GSID>
24057

> <DSSTox_FileID_Sort>
1955

> <TS_ChemName>
Dimethylamine

> <TS_ChemName_Synonyms>
Dimethylamine (Methanamine, N-methyl-)

> <TS_CASRN>
124-40-3

> <CASRN_ChemName_Relationship>
primary

> <TS_Description>
single chemical compound

> <ChemNote>


> <STRUCTURE_Shown>
tested chemical

> <STRUCTURE_Formula>
C2H7N

> <STRUCTURE_MW>
45.0837

> <STRUCTURE_ChemType>
defined organic

> <STRUCTURE_DefinedOrganicForm>
parent

> <STRUCTURE_IUPAC>
N-methylmethanamine

> <STRUCTURE_SMILES>
CNC

> <STRUCTURE_SMILES_Desalt>
CNC

> <Substance_modify_yyyymmdd>
20080429

$$$$
