124-17-4
ChemmineR-0915142007XD

 14 13  0  0  0  0  0  0  0  0  1 V2000
    3.4441   -1.3278    0.0000 C   0  0  0  0  0  0  0  0  0  0  0  0
    4.6059   -1.9918    0.0000 C   0  0  0  0  0  0  0  0  0  0  0  0
    2.2960   -1.9918    0.0000 O   0  0  0  0  0  0  0  0  0  0  0  0
    5.7540   -1.3278    0.0000 O   0  0  0  0  0  0  0  0  0  0  0  0
    6.9158   -1.9918    0.0000 C   0  0  0  0  0  0  0  0  0  0  0  0
    8.0777   -1.3278    0.0000 C   0  0  0  0  0  0  0  0  0  0  0  0
    9.2257   -1.9918    0.0000 O   0  0  0  0  0  0  0  0  0  0  0  0
   10.3875   -1.3278    0.0000 C   0  0  0  0  0  0  0  0  0  0  0  0
   11.5356   -1.9918    0.0000 C   0  0  0  0  0  0  0  0  0  0  0  0
   12.6698   -1.3278    0.0000 C   0  0  0  0  0  0  0  0  0  0  0  0
   13.8316   -1.9918    0.0000 C   0  0  0  0  0  0  0  0  0  0  0  0
    1.1619   -1.3278    0.0000 C   0  0  0  0  0  0  0  0  0  0  0  0
    1.1619    0.0000    0.0000 O   0  0  0  0  0  0  0  0  0  0  0  0
    0.0000   -1.9918    0.0000 C   0  0  0  0  0  0  0  0  0  0  0  0
  1  2  1  0  0  0  0
  1  3  1  0  0  0  0
  2  4  1  0  0  0  0
  3 12  1  0  0  0  0
  4  5  1  0  0  0  0
  5  6  1  0  0  0  0
  6  7  1  0  0  0  0
  7  8  1  0  0  0  0
  8  9  1  0  0  0  0
  9 10  1  0  0  0  0
 10 11  1  0  0  0  0
 12 13  2  0  0  0  0
 12 14  1  0  0  0  0
M  END
> <ID>
4887

> <Formula>
C10H20O4

> <FW>
204.2634

> <DSSTox_CID>
7021

> <DSSTox_RID>
78282

> <DSSTox_GSID>
27021

> <DSSTox_FileID_Sort>
2965

> <TS_ChemName>
2-(2-Butoxyethoxy)ethyl acetate

> <TS_ChemName_Synonyms>
2-(2-Butoxyethoxy)ethyl acetate (Ethanol, 2-(2-butoxyethoxy)-, acetate) (Diethylene glycol monobutyl ether acetate)

> <TS_CASRN>
124-17-4

> <CASRN_ChemName_Relationship>
primary

> <TS_Description>
single chemical compound

> <ChemNote>


> <STRUCTURE_Shown>
tested chemical

> <STRUCTURE_Formula>
C10H20O4

> <STRUCTURE_MW>
204.2634

> <STRUCTURE_ChemType>
defined organic

> <STRUCTURE_DefinedOrganicForm>
parent

> <STRUCTURE_IUPAC>
2-(2-butoxyethoxy)ethyl acetate

> <STRUCTURE_SMILES>
CCCCOCCOCCOC(C)=O

> <STRUCTURE_SMILES_Desalt>
CCCCOCCOCCOC(C)=O

> <Substance_modify_yyyymmdd>
20080429

$$$$
