124-87-8
ChemmineR-0915142007XD

 23 27  0  0  1  0  0  0  0  0  1 V2000
    3.4681   -0.6760    0.0000 C   0  0  0  0  0  0  0  0  0  0  0  0
    3.4681   -2.0206    0.0000 C   0  0  0  0  0  0  0  0  0  0  0  0
    4.6217   -2.6966    0.0000 C   0  0  0  0  0  0  0  0  0  0  0  0
    4.6217   -4.0265    0.0000 C   0  0  0  0  0  0  0  0  0  0  0  0
    4.6217   -0.0147    0.0000 O   0  0  0  0  0  0  0  0  0  0  0  0
    5.7753   -0.6760    0.0000 C   0  0  0  0  0  0  0  0  0  0  0  0
    1.1683   -0.6760    0.0000 C   0  0  0  0  0  0  0  0  0  0  0  0
    2.3072   -2.6966    0.0000 C   0  0  0  0  0  0  0  0  0  0  0  0
    3.9163   -3.6077    0.0000 C   0  0  0  0  0  0  0  0  0  0  0  0
    3.4681   -4.7025    0.0000 C   0  0  0  0  0  0  0  0  0  0  0  0
    2.3072   -4.0265    0.0000 C   0  0  0  0  0  0  0  0  0  0  0  0
    1.1683   -2.0206    0.0000 O   0  0  0  0  0  0  0  0  0  0  0  0
    3.0346   -3.6077    0.0000 O   0  0  0  0  0  0  0  0  0  0  0  0
    5.7753   -2.0206    0.0000 C   0  0  0  0  0  0  0  0  0  0  0  0
    3.4681   -6.0178    0.0000 C   0  0  0  0  0  0  0  0  0  0  0  0
    0.0000    0.0000    0.0000 O   0  0  0  0  0  0  0  0  0  0  0  0
    3.9163   -2.8729    0.0000 O   0  0  0  0  0  0  0  0  0  0  0  0
    5.7753   -3.3505    0.0000 O   0  0  0  0  0  0  0  0  0  0  0  0
    4.6217   -1.3667    0.0000 C   0  0  0  0  0  0  0  0  0  0  0  0
    4.7980   -6.0178    0.0000 O   0  0  0  0  0  0  0  0  0  0  0  0
    2.1308   -6.0178    0.0000 C   0  0  0  0  0  0  0  0  0  0  0  0
    3.4681   -7.3477    0.0000 C   0  0  0  0  0  0  0  0  0  0  0  0
    6.9289    0.0000    0.0000 H   0  0  0  0  0  0  0  0  0  0  0  0
  1  2  1  0  0  0  0
  1  5  1  6  0  0  0
  1  6  1  0  0  0  0
  1  7  1  0  0  0  0
  2  3  1  0  0  0  0
  2  8  1  0  0  0  0
  2 19  1  6  0  0  0
  3  4  1  0  0  0  0
  3 18  1  6  0  0  0
  3 14  1  0  0  0  0
  4  9  1  1  0  0  0
  4 10  1  0  0  0  0
  6  5  1  6  0  0  0
  6 14  1  0  0  0  0
  6 23  1  1  0  0  0
  7 12  1  0  0  0  0
  7 16  2  0  0  0  0
  8 11  1  0  0  0  0
  8 12  1  1  0  0  0
  9 17  2  0  0  0  0
  9 13  1  0  0  0  0
 10 11  1  0  0  0  0
 10 15  1  6  0  0  0
 11 13  1  1  0  0  0
 15 20  1  0  0  0  0
 15 21  1  0  0  0  0
 15 22  1  0  0  0  0
M  END
> <ID>
11066

> <Formula>
C15H18O7

> <FW>
310.2992

> <DSSTox_CID>
25605

> <DSSTox_RID>
80998

> <DSSTox_GSID>
45605

> <DSSTox_FileID_Sort>
5679

> <TS_ChemName>
Picrotoxin

> <TS_ChemName_Synonyms>


> <TS_CASRN>
124-87-8

> <CASRN_ChemName_Relationship>
primary

> <TS_Description>
single chemical compound

> <ChemNote>
1:1 mixture of picrotin [21416-53-5] and picrotoxinin [17617-45-7]; structure shown picrotin; stereochem

> <STRUCTURE_Shown>
tested chemical

> <STRUCTURE_Formula>
C15H18O7

> <STRUCTURE_MW>
310.2992

> <STRUCTURE_ChemType>
defined organic

> <STRUCTURE_DefinedOrganicForm>
parent

> <STRUCTURE_IUPAC>
(1aR,2aR,3S,6R,6aS,8aS,8bR,9S)-2a-hydroxy-9-(2-hydroxypropan-2-yl)-8b-methylhexahydro-3,6-methano-1,5,7-trioxacyclopenta[ij]cyclopropa[a]azulene-4,8(3H)-dione

> <STRUCTURE_SMILES>
CC(C)(O)[C@@H]1[C@H]2OC(=O)[C@@H]1[C@]3(O)C[C@H]5O[C@@]45C(=O)O[C@H]2[C@]34C

> <STRUCTURE_SMILES_Desalt>
CC(C)(O)[C@@H]1[C@H]2OC(=O)[C@@H]1[C@]3(O)C[C@H]5O[C@@]45C(=O)O[C@H]2[C@]34C

> <Substance_modify_yyyymmdd>
20100107

$$$$
