124-68-5
ChemmineR-0915142007XD

  6  5  0  0  0  0  0  0  0  0  1 V2000
    0.4982   -1.1520    0.0000 C   0  0  0  0  0  0  0  0  0  0  0  0
    1.1520   -2.3075    0.0000 C   0  0  0  0  0  0  0  0  0  0  0  0
    2.3075   -1.6329    0.0000 C   0  0  0  0  0  0  0  0  0  0  0  0
    1.1520    0.0000    0.0000 O   0  0  0  0  0  0  0  0  0  0  0  0
    1.8266   -3.4596    0.0000 N   0  0  0  0  0  0  0  0  0  0  0  0
    0.0000   -2.9614    0.0000 C   0  0  0  0  0  0  0  0  0  0  0  0
  1  2  1  0  0  0  0
  1  4  1  0  0  0  0
  2  3  1  0  0  0  0
  2  5  1  0  0  0  0
  2  6  1  0  0  0  0
M  END
> <ID>
4892

> <Formula>
C4H11NO

> <FW>
89.1362

> <DSSTox_CID>
7032

> <DSSTox_RID>
78283

> <DSSTox_GSID>
27032

> <DSSTox_FileID_Sort>
2966

> <TS_ChemName>
2-Amino-2-methylpropan-1-ol

> <TS_ChemName_Synonyms>
2-Amino-2-methyl-1-propanol

> <TS_CASRN>
124-68-5

> <CASRN_ChemName_Relationship>
primary

> <TS_Description>
single chemical compound

> <ChemNote>


> <STRUCTURE_Shown>
tested chemical

> <STRUCTURE_Formula>
C4H11NO

> <STRUCTURE_MW>
89.1362

> <STRUCTURE_ChemType>
defined organic

> <STRUCTURE_DefinedOrganicForm>
parent

> <STRUCTURE_IUPAC>
2-amino-2-methylpropan-1-ol

> <STRUCTURE_SMILES>
CC(C)(N)CO

> <STRUCTURE_SMILES_Desalt>
CC(C)(N)CO

> <Substance_modify_yyyymmdd>
20080429

$$$$
