124-02-7
ChemmineR-0915142007XD

  7  6  0  0  0  0  0  0  0  0  1 V2000
    3.4575    0.0000    0.0000 N   0  0  0  0  0  0  0  0  0  0  0  0
    2.3027   -0.6638    0.0000 C   0  0  0  0  0  0  0  0  0  0  0  0
    1.1548    0.0000    0.0000 C   0  0  0  0  0  0  0  0  0  0  0  0
    0.0000   -0.6638    0.0000 C   0  0  0  0  0  0  0  0  0  0  0  0
    4.6122   -0.6638    0.0000 C   0  0  0  0  0  0  0  0  0  0  0  0
    5.7601    0.0000    0.0000 C   0  0  0  0  0  0  0  0  0  0  0  0
    6.9149   -0.6638    0.0000 C   0  0  0  0  0  0  0  0  0  0  0  0
  1  2  1  0  0  0  0
  1  5  1  0  0  0  0
  2  3  1  0  0  0  0
  3  4  2  0  0  0  0
  5  6  1  0  0  0  0
  6  7  2  0  0  0  0
M  END
> <ID>
3916

> <Formula>
C6H11N

> <FW>
97.1582

> <DSSTox_CID>
4918

> <DSSTox_RID>
77581

> <DSSTox_GSID>
24918

> <DSSTox_FileID_Sort>
2264

> <TS_ChemName>
Diallylamine

> <TS_ChemName_Synonyms>
Diallylamine (2-Propen-1-amine, N-2-propenyl-) (bis(prop-2-en-1-yl)amine)

> <TS_CASRN>
124-02-7

> <CASRN_ChemName_Relationship>
primary

> <TS_Description>
single chemical compound

> <ChemNote>


> <STRUCTURE_Shown>
tested chemical

> <STRUCTURE_Formula>
C6H11N

> <STRUCTURE_MW>
97.1582

> <STRUCTURE_ChemType>
defined organic

> <STRUCTURE_DefinedOrganicForm>
parent

> <STRUCTURE_IUPAC>
N-(prop-2-en-1-yl)prop-2-en-1-amine

> <STRUCTURE_SMILES>
C=CCNCC=C

> <STRUCTURE_SMILES_Desalt>
C=CCNCC=C

> <Substance_modify_yyyymmdd>
20080429

$$$$
