124-94-7
ChemmineR-0915142007XD

 30 33  0  0  1  0  0  0  0  0  1 V2000
    6.9454   -2.4277    0.0000 C   0  0  0  0  0  0  0  0  0  0  0  0
    4.6655   -3.7471    0.0000 C   0  0  0  0  0  0  0  0  0  0  0  0
    8.2226   -2.0372    0.0000 C   0  0  0  0  0  0  0  0  0  0  0  0
    3.5044   -4.4227    0.0000 C   0  0  0  0  0  0  0  0  0  0  0  0
    6.9454   -3.7683    0.0000 C   0  0  0  0  0  0  0  0  0  0  0  0
    5.7949   -4.4227    0.0000 C   0  0  0  0  0  0  0  0  0  0  0  0
    3.5044   -5.7632    0.0000 C   0  0  0  0  0  0  0  0  0  0  0  0
    4.6655   -2.4277    0.0000 C   0  0  0  0  0  0  0  0  0  0  0  0
    8.9931   -3.0716    0.0000 C   0  0  0  0  0  0  0  0  0  0  0  0
    5.7738   -1.7522    0.0000 C   0  0  0  0  0  0  0  0  0  0  0  0
    2.3538   -3.7471    0.0000 C   0  0  0  0  0  0  0  0  0  0  0  0
    8.2226   -4.1377    0.0000 C   0  0  0  0  0  0  0  0  0  0  0  0
    2.3538   -6.4176    0.0000 C   0  0  0  0  0  0  0  0  0  0  0  0
    8.2226   -0.6967    0.0000 C   0  0  0  0  0  0  0  0  0  0  0  0
    5.7949   -5.7632    0.0000 C   0  0  0  0  0  0  0  0  0  0  0  0
    1.2033   -4.4227    0.0000 C   0  0  0  0  0  0  0  0  0  0  0  0
    1.2033   -5.7632    0.0000 C   0  0  0  0  0  0  0  0  0  0  0  0
    4.6655   -6.4176    0.0000 C   0  0  0  0  0  0  0  0  0  0  0  0
    4.6866   -5.0243    0.0000 F   0  0  0  0  0  0  0  0  0  0  0  0
    7.0510    0.0000    0.0000 O   0  0  0  0  0  0  0  0  0  0  0  0
    0.0000   -6.3965    0.0000 O   0  0  0  0  0  0  0  0  0  0  0  0
    6.9454   -1.0978    0.0000 C   0  0  0  0  0  0  0  0  0  0  0  0
    3.4833   -1.7522    0.0000 O   0  0  0  0  0  0  0  0  0  0  0  0
   10.3337   -3.0294    0.0000 O   0  0  0  0  0  0  0  0  0  0  0  0
    3.5044   -3.0716    0.0000 C   0  0  0  0  0  0  0  0  0  0  0  0
    9.3837    0.0000    0.0000 C   0  0  0  0  0  0  0  0  0  0  0  0
   10.5553   -0.6228    0.0000 O   0  0  0  0  0  0  0  0  0  0  0  0
    5.8160   -3.1455    0.0000 H   0  0  0  0  0  0  0  0  0  0  0  0
    6.9454   -5.0982    0.0000 H   0  0  0  0  0  0  0  0  0  0  0  0
    9.3837   -1.3722    0.0000 O   0  0  0  0  0  0  0  0  0  0  0  0
  1  3  1  0  0  0  0
  1  5  1  0  0  0  0
  1 10  1  0  0  0  0
  1 22  1  1  0  0  0
  2  8  1  0  0  0  0
  2  4  1  0  0  0  0
  2 19  1  6  0  0  0
  2  6  1  0  0  0  0
  3  9  1  0  0  0  0
  3 14  1  0  0  0  0
  3 30  1  6  0  0  0
  4  7  1  0  0  0  0
  4 11  1  0  0  0  0
  4 25  1  1  0  0  0
  5  6  1  0  0  0  0
  5 12  1  0  0  0  0
  5 29  1  6  0  0  0
  6 15  1  0  0  0  0
  6 28  1  1  0  0  0
  7 13  2  0  0  0  0
  7 18  1  0  0  0  0
  8 10  1  0  0  0  0
  8 23  1  1  0  0  0
  9 24  1  6  0  0  0
  9 12  1  0  0  0  0
 11 16  2  0  0  0  0
 13 17  1  0  0  0  0
 14 20  2  0  0  0  0
 14 26  1  0  0  0  0
 15 18  1  0  0  0  0
 16 17  1  0  0  0  0
 17 21  2  0  0  0  0
 26 27  1  0  0  0  0
M  END
> <ID>
7936

> <Formula>
C21H27FO6

> <FW>
394.4339

> <DSSTox_CID>
20742

> <DSSTox_RID>
79584

> <DSSTox_GSID>
40742

> <DSSTox_FileID_Sort>
4266

> <TS_ChemName>
Triamcinolone

> <TS_ChemName_Synonyms>


> <TS_CASRN>
124-94-7

> <CASRN_ChemName_Relationship>
primary

> <TS_Description>
single chemical compound

> <ChemNote>
stereochem

> <STRUCTURE_Shown>
tested chemical

> <STRUCTURE_Formula>
C21H27FO6

> <STRUCTURE_MW>
394.4339

> <STRUCTURE_ChemType>
defined organic

> <STRUCTURE_DefinedOrganicForm>
parent

> <STRUCTURE_IUPAC>
(11beta,16alpha)-9-fluoro-11,16,17,21-tetrahydroxypregna-1,4-diene-3,20-dione

> <STRUCTURE_SMILES>
OCC(=O)[C@@]3(O)[C@H](O)C[C@H]2[C@@H]4CCC1=CC(=O)C=C[C@]1(C)[C@@]4(F)[C@@H](O)C[C@@]23C

> <STRUCTURE_SMILES_Desalt>
OCC(=O)[C@@]3(O)[C@H](O)C[C@H]2[C@@H]4CCC1=CC(=O)C=C[C@]1(C)[C@@]4(F)[C@@H](O)C[C@@]23C

> <Substance_modify_yyyymmdd>
20080429

$$$$
