124-28-7
ChemmineR-0915142007XD

 21 20  0  0  0  0  0  0  0  0  1 V2000
    2.3044   -1.9971    0.0000 C   0  0  0  0  0  0  0  0  0  0  0  0
    3.4675   -1.3387    0.0000 C   0  0  0  0  0  0  0  0  0  0  0  0
    4.6307   -1.9971    0.0000 C   0  0  0  0  0  0  0  0  0  0  0  0
    5.7938   -1.3387    0.0000 C   0  0  0  0  0  0  0  0  0  0  0  0
    6.9350   -1.9971    0.0000 C   0  0  0  0  0  0  0  0  0  0  0  0
    8.0762   -1.3387    0.0000 C   0  0  0  0  0  0  0  0  0  0  0  0
    9.2394   -1.9971    0.0000 C   0  0  0  0  0  0  0  0  0  0  0  0
   10.4025   -1.3387    0.0000 C   0  0  0  0  0  0  0  0  0  0  0  0
   11.5437   -1.9971    0.0000 C   0  0  0  0  0  0  0  0  0  0  0  0
   12.7069   -1.3387    0.0000 C   0  0  0  0  0  0  0  0  0  0  0  0
   13.8700   -1.9971    0.0000 C   0  0  0  0  0  0  0  0  0  0  0  0
   15.0112   -1.3387    0.0000 C   0  0  0  0  0  0  0  0  0  0  0  0
   16.1524   -1.9971    0.0000 C   0  0  0  0  0  0  0  0  0  0  0  0
   17.3156   -1.3387    0.0000 C   0  0  0  0  0  0  0  0  0  0  0  0
   18.4787   -1.9971    0.0000 C   0  0  0  0  0  0  0  0  0  0  0  0
   19.6419   -1.3387    0.0000 C   0  0  0  0  0  0  0  0  0  0  0  0
   20.7831   -1.9971    0.0000 C   0  0  0  0  0  0  0  0  0  0  0  0
   21.9463   -1.3387    0.0000 C   0  0  0  0  0  0  0  0  0  0  0  0
    1.1632   -1.3387    0.0000 N   0  0  0  0  0  0  0  0  0  0  0  0
    1.1632    0.0000    0.0000 C   0  0  0  0  0  0  0  0  0  0  0  0
    0.0000   -1.9971    0.0000 C   0  0  0  0  0  0  0  0  0  0  0  0
  1  2  1  0  0  0  0
  1 19  1  0  0  0  0
  2  3  1  0  0  0  0
  3  4  1  0  0  0  0
  4  5  1  0  0  0  0
  5  6  1  0  0  0  0
  6  7  1  0  0  0  0
  7  8  1  0  0  0  0
  8  9  1  0  0  0  0
  9 10  1  0  0  0  0
 10 11  1  0  0  0  0
 11 12  1  0  0  0  0
 12 13  1  0  0  0  0
 13 14  1  0  0  0  0
 14 15  1  0  0  0  0
 15 16  1  0  0  0  0
 16 17  1  0  0  0  0
 17 18  1  0  0  0  0
 19 20  1  0  0  0  0
 19 21  1  0  0  0  0
M  END
> <ID>
4889

> <Formula>
C20H43N

> <FW>
297.5621

> <DSSTox_CID>
7026

> <DSSTox_RID>
97555

> <DSSTox_GSID>
27026

> <DSSTox_FileID_Sort>
8330

> <TS_ChemName>
1-Octadecanamine, N,N-dimethyl-

> <TS_ChemName_Synonyms>


> <TS_CASRN>
124-28-7

> <CASRN_ChemName_Relationship>
primary

> <TS_Description>
single chemical compound

> <ChemNote>


> <STRUCTURE_Shown>
tested chemical

> <STRUCTURE_Formula>
C20H43N

> <STRUCTURE_MW>
297.5621

> <STRUCTURE_ChemType>
defined organic

> <STRUCTURE_DefinedOrganicForm>
parent

> <STRUCTURE_IUPAC>
N,N-dimethyloctadecan-1-amine

> <STRUCTURE_SMILES>
CN(C)CCCCCCCCCCCCCCCCCC

> <STRUCTURE_SMILES_Desalt>
CN(C)CCCCCCCCCCCCCCCCCC

> <Substance_modify_yyyymmdd>
20080429

$$$$
