124-06-1
ChemmineR-0915142007XD

 18 17  0  0  0  0  0  0  0  0  1 V2000
   14.9746   -1.3278    0.0000 C   0  0  0  0  0  0  0  0  0  0  0  0
   14.9746    0.0000    0.0000 O   0  0  0  0  0  0  0  0  0  0  0  0
   16.1364   -1.9917    0.0000 O   0  0  0  0  0  0  0  0  0  0  0  0
   13.8312   -1.9917    0.0000 C   0  0  0  0  0  0  0  0  0  0  0  0
   12.6878   -1.3278    0.0000 C   0  0  0  0  0  0  0  0  0  0  0  0
    1.1618   -1.3278    0.0000 C   0  0  0  0  0  0  0  0  0  0  0  0
    2.3052   -1.9917    0.0000 C   0  0  0  0  0  0  0  0  0  0  0  0
    9.2208   -1.9917    0.0000 C   0  0  0  0  0  0  0  0  0  0  0  0
    8.0590   -1.3278    0.0000 C   0  0  0  0  0  0  0  0  0  0  0  0
    6.9156   -1.9917    0.0000 C   0  0  0  0  0  0  0  0  0  0  0  0
    5.7538   -1.3278    0.0000 C   0  0  0  0  0  0  0  0  0  0  0  0
    4.6104   -1.9917    0.0000 C   0  0  0  0  0  0  0  0  0  0  0  0
    3.4670   -1.3278    0.0000 C   0  0  0  0  0  0  0  0  0  0  0  0
   11.5260   -1.9917    0.0000 C   0  0  0  0  0  0  0  0  0  0  0  0
   10.3826   -1.3278    0.0000 C   0  0  0  0  0  0  0  0  0  0  0  0
    0.0000   -1.9917    0.0000 C   0  0  0  0  0  0  0  0  0  0  0  0
   17.2798   -1.3278    0.0000 C   0  0  0  0  0  0  0  0  0  0  0  0
   18.4416   -1.9917    0.0000 C   0  0  0  0  0  0  0  0  0  0  0  0
  1  2  2  0  0  0  0
  1  3  1  0  0  0  0
  1  4  1  0  0  0  0
  3 17  1  0  0  0  0
  4  5  1  0  0  0  0
  5 14  1  0  0  0  0
  6  7  1  0  0  0  0
  6 16  1  0  0  0  0
  7 13  1  0  0  0  0
  8 15  1  0  0  0  0
  8  9  1  0  0  0  0
  9 10  1  0  0  0  0
 10 11  1  0  0  0  0
 11 12  1  0  0  0  0
 12 13  1  0  0  0  0
 14 15  1  0  0  0  0
 17 18  1  0  0  0  0
M  END
> <ID>
12775

> <Formula>
C16H32O2

> <FW>
256.4241

> <DSSTox_CID>
27654

> <DSSTox_RID>
82478

> <DSSTox_GSID>
47654

> <DSSTox_FileID_Sort>
7159

> <TS_ChemName>
Ethyl tetradecanoate

> <TS_ChemName_Synonyms>
Ethyl tetradecanoate (Ethyl myristate)

> <TS_CASRN>
124-06-1

> <CASRN_ChemName_Relationship>
primary

> <TS_Description>
single chemical compound

> <ChemNote>


> <STRUCTURE_Shown>
tested chemical

> <STRUCTURE_Formula>
C16H32O2

> <STRUCTURE_MW>
256.4241

> <STRUCTURE_ChemType>
defined organic

> <STRUCTURE_DefinedOrganicForm>
parent

> <STRUCTURE_IUPAC>
ethyl tetradecanoate

> <STRUCTURE_SMILES>
O=C(CCCCCCCCCCCCC)OCC

> <STRUCTURE_SMILES_Desalt>
O=C(CCCCCCCCCCCCC)OCC

> <Substance_modify_yyyymmdd>
20101214

$$$$
