124-07-2
ChemmineR-0915142007XD

 10  9  0  0  0  0  0  0  0  0  1 V2000
    0.0000   -1.9996    0.0000 C   0  0  0  0  0  0  0  0  0  0  0  0
    1.1518   -1.3361    0.0000 C   0  0  0  0  0  0  0  0  0  0  0  0
    2.3036   -1.9996    0.0000 C   0  0  0  0  0  0  0  0  0  0  0  0
    3.4555   -1.3361    0.0000 C   0  0  0  0  0  0  0  0  0  0  0  0
    4.6073   -1.9996    0.0000 C   0  0  0  0  0  0  0  0  0  0  0  0
    5.7591   -1.3361    0.0000 C   0  0  0  0  0  0  0  0  0  0  0  0
    6.9109   -1.9996    0.0000 C   0  0  0  0  0  0  0  0  0  0  0  0
    8.0628   -1.3361    0.0000 C   0  0  0  0  0  0  0  0  0  0  0  0
    9.2146   -1.9996    0.0000 O   0  0  0  0  0  0  0  0  0  0  0  0
    8.0628    0.0000    0.0000 O   0  0  0  0  0  0  0  0  0  0  0  0
  1  2  1  0  0  0  0
  2  3  1  0  0  0  0
  3  4  1  0  0  0  0
  4  5  1  0  0  0  0
  5  6  1  0  0  0  0
  6  7  1  0  0  0  0
  7  8  1  0  0  0  0
  8  9  1  0  0  0  0
  8 10  2  0  0  0  0
M  END
> <ID>
1582

> <Formula>
C8H16O2

> <FW>
144.2114

> <DSSTox_CID>
1645

> <DSSTox_RID>
76259

> <DSSTox_GSID>
21645

> <DSSTox_FileID_Sort>
943

> <TS_ChemName>
Octanoic acid

> <TS_ChemName_Synonyms>
Octanoic acid (Caprylic acid)

> <TS_CASRN>
124-07-2

> <CASRN_ChemName_Relationship>
primary

> <TS_Description>
single chemical compound

> <ChemNote>


> <STRUCTURE_Shown>
tested chemical

> <STRUCTURE_Formula>
C8H16O2

> <STRUCTURE_MW>
144.2114

> <STRUCTURE_ChemType>
defined organic

> <STRUCTURE_DefinedOrganicForm>
parent

> <STRUCTURE_IUPAC>
octanoic acid

> <STRUCTURE_SMILES>
O=C(O)CCCCCCC

> <STRUCTURE_SMILES_Desalt>
O=C(O)CCCCCCC

> <Substance_modify_yyyymmdd>
20080429

$$$$
