124-10-7
ChemmineR-0915142007XD

 17 16  0  0  0  0  0  0  0  0  1 V2000
    2.3185   -1.3423    0.0000 C   0  0  0  0  0  0  0  0  0  0  0  0
    3.4865   -1.9873    0.0000 C   0  0  0  0  0  0  0  0  0  0  0  0
    4.6371   -1.3423    0.0000 C   0  0  0  0  0  0  0  0  0  0  0  0
    5.8051   -1.9873    0.0000 C   0  0  0  0  0  0  0  0  0  0  0  0
    6.9731   -1.3423    0.0000 C   0  0  0  0  0  0  0  0  0  0  0  0
    8.1411   -1.9873    0.0000 C   0  0  0  0  0  0  0  0  0  0  0  0
    9.2916   -1.3423    0.0000 C   0  0  0  0  0  0  0  0  0  0  0  0
   10.4596   -1.9873    0.0000 C   0  0  0  0  0  0  0  0  0  0  0  0
   11.6276   -1.3423    0.0000 C   0  0  0  0  0  0  0  0  0  0  0  0
   12.7956   -1.9873    0.0000 C   0  0  0  0  0  0  0  0  0  0  0  0
   13.9462   -1.3423    0.0000 C   0  0  0  0  0  0  0  0  0  0  0  0
   15.1142   -1.9873    0.0000 C   0  0  0  0  0  0  0  0  0  0  0  0
   16.2821   -1.3423    0.0000 C   0  0  0  0  0  0  0  0  0  0  0  0
   17.4327   -1.9873    0.0000 C   0  0  0  0  0  0  0  0  0  0  0  0
    2.3185    0.0000    0.0000 O   0  0  0  0  0  0  0  0  0  0  0  0
    1.1506   -1.9873    0.0000 O   0  0  0  0  0  0  0  0  0  0  0  0
    0.0000   -1.3423    0.0000 C   0  0  0  0  0  0  0  0  0  0  0  0
  1  2  1  0  0  0  0
  1 16  1  0  0  0  0
  1 15  2  0  0  0  0
  2  3  1  0  0  0  0
  3  4  1  0  0  0  0
  4  5  1  0  0  0  0
  5  6  1  0  0  0  0
  6  7  1  0  0  0  0
  7  8  1  0  0  0  0
  8  9  1  0  0  0  0
  9 10  1  0  0  0  0
 10 11  1  0  0  0  0
 11 12  1  0  0  0  0
 12 13  1  0  0  0  0
 13 14  1  0  0  0  0
 16 17  1  0  0  0  0
M  END
> <ID>
4886

> <Formula>
C15H30O2

> <FW>
242.3975

> <DSSTox_CID>
7019

> <DSSTox_RID>
78281

> <DSSTox_GSID>
27019

> <DSSTox_FileID_Sort>
2964

> <TS_ChemName>
Methyl tetradecanoate

> <TS_ChemName_Synonyms>
Methyl tetradecanoate (Tetradecanoic acid, methyl ester) (Methyl myristate)

> <TS_CASRN>
124-10-7

> <CASRN_ChemName_Relationship>
primary

> <TS_Description>
single chemical compound

> <ChemNote>


> <STRUCTURE_Shown>
tested chemical

> <STRUCTURE_Formula>
C15H30O2

> <STRUCTURE_MW>
242.3975

> <STRUCTURE_ChemType>
defined organic

> <STRUCTURE_DefinedOrganicForm>
parent

> <STRUCTURE_IUPAC>
methyl tetradecanoate

> <STRUCTURE_SMILES>
O=C(CCCCCCCCCCCCC)OC

> <STRUCTURE_SMILES_Desalt>
O=C(CCCCCCCCCCCCC)OC

> <Substance_modify_yyyymmdd>
20080429

$$$$
