1241-94-7
ChemmineR-0915142007XD

 25 26  0  0  0  0  0  0  0  0  1 V2000
    3.9377   -5.7609    0.0000 O   0  0  0  0  0  0  0  0  0  0  0  0
    4.6088   -4.6088    0.0000 P   0  0  0  0  0  0  0  0  0  0  0  0
    3.4566   -3.9504    0.0000 O   0  0  0  0  0  0  0  0  0  0  0  0
    2.3044   -4.6088    0.0000 C   0  0  0  0  0  0  0  0  0  0  0  0
    2.3044   -5.9382    0.0000 C   0  0  0  0  0  0  0  0  0  0  0  0
    1.1522   -6.6093    0.0000 C   0  0  0  0  0  0  0  0  0  0  0  0
    0.0000   -5.9382    0.0000 C   0  0  0  0  0  0  0  0  0  0  0  0
    0.0000   -4.6088    0.0000 C   0  0  0  0  0  0  0  0  0  0  0  0
    1.1522   -3.9504    0.0000 C   0  0  0  0  0  0  0  0  0  0  0  0
    5.2672   -3.4566    0.0000 O   0  0  0  0  0  0  0  0  0  0  0  0
    4.6088   -2.3044    0.0000 C   0  0  0  0  0  0  0  0  0  0  0  0
    5.2672   -1.1522    0.0000 C   0  0  0  0  0  0  0  0  0  0  0  0
    4.6088    0.0000    0.0000 C   0  0  0  0  0  0  0  0  0  0  0  0
    3.2793    0.0000    0.0000 C   0  0  0  0  0  0  0  0  0  0  0  0
    2.6083   -1.1522    0.0000 C   0  0  0  0  0  0  0  0  0  0  0  0
    3.2793   -2.3044    0.0000 C   0  0  0  0  0  0  0  0  0  0  0  0
    5.7609   -5.2798    0.0000 O   0  0  0  0  0  0  0  0  0  0  0  0
    6.9005   -4.6088    0.0000 C   0  0  0  0  0  0  0  0  0  0  0  0
    8.0527   -5.2798    0.0000 C   0  0  0  0  0  0  0  0  0  0  0  0
    8.0527   -6.6093    0.0000 C   0  0  0  0  0  0  0  0  0  0  0  0
    9.2049   -7.2677    0.0000 C   0  0  0  0  0  0  0  0  0  0  0  0
    9.2049   -4.6088    0.0000 C   0  0  0  0  0  0  0  0  0  0  0  0
   10.3570   -5.2798    0.0000 C   0  0  0  0  0  0  0  0  0  0  0  0
   11.5092   -4.6088    0.0000 C   0  0  0  0  0  0  0  0  0  0  0  0
   12.6614   -5.2798    0.0000 C   0  0  0  0  0  0  0  0  0  0  0  0
  1  2  2  0  0  0  0
  2  3  1  0  0  0  0
  2 10  1  0  0  0  0
  2 17  1  0  0  0  0
  3  4  1  0  0  0  0
  4  5  2  0  0  0  0
  4  9  1  0  0  0  0
  5  6  1  0  0  0  0
  6  7  2  0  0  0  0
  7  8  1  0  0  0  0
  8  9  2  0  0  0  0
 10 11  1  0  0  0  0
 11 12  2  0  0  0  0
 11 16  1  0  0  0  0
 12 13  1  0  0  0  0
 13 14  2  0  0  0  0
 14 15  1  0  0  0  0
 15 16  2  0  0  0  0
 17 18  1  0  0  0  0
 18 19  1  0  0  0  0
 19 20  1  0  0  0  0
 19 22  1  0  0  0  0
 20 21  1  0  0  0  0
 22 23  1  0  0  0  0
 23 24  1  0  0  0  0
 24 25  1  0  0  0  0
M  END
> <ID>
4128

> <Formula>
C20H27O4P

> <FW>
362.3997

> <DSSTox_CID>
5300

> <DSSTox_RID>
77735

> <DSSTox_GSID>
25300

> <DSSTox_FileID_Sort>
2418

> <TS_ChemName>
2-Ethylhexyl diphenyl phosphate

> <TS_ChemName_Synonyms>
2-Ethylhexyl diphenyl phosphate (Octicizer)

> <TS_CASRN>
1241-94-7

> <CASRN_ChemName_Relationship>
primary

> <TS_Description>
single chemical compound

> <ChemNote>


> <STRUCTURE_Shown>
tested chemical

> <STRUCTURE_Formula>
C20H27O4P

> <STRUCTURE_MW>
362.3997

> <STRUCTURE_ChemType>
defined organic

> <STRUCTURE_DefinedOrganicForm>
parent

> <STRUCTURE_IUPAC>
2-ethylhexyl diphenyl phosphate

> <STRUCTURE_SMILES>
CCC(CCCC)COP(=O)(Oc1ccccc1)Oc2ccccc2

> <STRUCTURE_SMILES_Desalt>
CCC(CCCC)COP(=O)(Oc1ccccc1)Oc2ccccc2

> <Substance_modify_yyyymmdd>
20080429

$$$$
