12427-38-2
ChemmineR-0915142007XD

 11  9  0  0  0  0  0  0  0  0  2 V2000
    1.1542   -1.4609    0.0000 C    0  0  0  0  0  0  0  0  0  0  0  0
    1.1542   -0.1291    0.0000 S    0  5  0  0  0  0  0  0  0  0  0  0
    0.0000   -2.1228    0.0000 S    0  0  0  0  0  0  0  0  0  0  0  0
    2.3084   -2.1228    0.0000 N    0  0  0  0  0  0  0  0  0  0  0  0
    3.4626   -1.4609    0.0000 C    0  0  0  0  0  0  0  0  0  0  0  0
    4.6087   -2.1228    0.0000 C    0  0  0  0  0  0  0  0  0  0  0  0
    5.7629   -1.4609    0.0000 N    0  0  0  0  0  0  0  0  0  0  0  0
    6.9171   -2.1228    0.0000 C    0  0  0  0  0  0  0  0  0  0  0  0
    8.0713   -1.4609    0.0000 S    0  5  0  0  0  0  0  0  0  0  0  0
    6.9171   -3.4545    0.0000 S    0  0  0  0  0  0  0  0  0  0  0  0
    4.3989    0.0000    0.0000 Mn   0  2  0  0  0  0  0  0  0  0  0  0
  1  2  1  0  0  0  0
  1  3  2  0  0  0  0
  1  4  1  0  0  0  0
  4  5  1  0  0  0  0
  5  6  1  0  0  0  0
  6  7  1  0  0  0  0
  7  8  1  0  0  0  0
  8  9  1  0  0  0  0
  8 10  2  0  0  0  0
M  END
> <ID>
761

> <Formula>
C4H6MnN2S4

> <FW>
265.3019 (210.3649+54.9369)

> <DSSTox_CID>
794

> <DSSTox_RID>
75793

> <DSSTox_GSID>
20794

> <DSSTox_FileID_Sort>
477

> <TS_ChemName>
Maneb

> <TS_ChemName_Synonyms>
Maneb (Manganese ethylenebisthiocarbamate) (Mancozeb)

> <TS_CASRN>
12427-38-2

> <CASRN_ChemName_Relationship>
primary

> <TS_Description>
single chemical compound

> <ChemNote>


> <STRUCTURE_Shown>
tested chemical

> <STRUCTURE_Formula>
C4H6MnN2S4

> <STRUCTURE_MW>
265.3019

> <STRUCTURE_ChemType>
organometallic

> <STRUCTURE_DefinedOrganicForm>


> <STRUCTURE_IUPAC>
manganese(2+) ethane-1,2-diyldicarbamodithioate

> <STRUCTURE_SMILES>
[Mn+2].[S-]C(=S)NCCNC(=S)[S-]

> <STRUCTURE_SMILES_Desalt>
SC(=S)NCCNC(=S)S

> <Substance_modify_yyyymmdd>
20080429

$$$$
