124378-77-4
ChemmineR-0915142007XD

 29 33  0  0  1  0  0  0  0  0  1 V2000
   10.1964   -5.3750    0.0000 C   0  0  0  0  0  0  0  0  0  0  0  0
   10.1964   -4.0589    0.0000 C   0  0  0  0  0  0  0  0  0  0  0  0
    9.0526   -6.0391    0.0000 C   0  0  0  0  0  0  0  0  0  0  0  0
   11.4141   -4.8338    0.0000 C   0  0  0  0  0  0  0  0  0  0  0  0
   10.3440   -6.6910    0.0000 O   0  0  0  0  0  0  0  0  0  0  0  0
    9.0403   -3.3947    0.0000 C   0  0  0  0  0  0  0  0  0  0  0  0
    7.8964   -5.3750    0.0000 C   0  0  0  0  0  0  0  0  0  0  0  0
   12.2997   -5.8301    0.0000 C   0  0  0  0  0  0  0  0  0  0  0  0
   11.6355   -6.9862    0.0000 C   0  0  0  0  0  0  0  0  0  0  0  0
    7.8964   -4.0466    0.0000 C   0  0  0  0  0  0  0  0  0  0  0  0
    9.0403   -2.0540    0.0000 N   0  0  0  0  0  0  0  0  0  0  0  0
    6.7402   -3.3947    0.0000 N   0  0  0  0  0  0  0  0  0  0  0  0
    7.9702   -1.2669    0.0000 C   0  0  0  0  0  0  0  0  0  0  0  0
   10.1103   -1.2669    0.0000 C   0  0  0  0  0  0  0  0  0  0  0  0
    5.6087   -4.0466    0.0000 C   0  0  0  0  0  0  0  0  0  0  0  0
    6.7402   -2.0540    0.0000 C   0  0  0  0  0  0  0  0  0  0  0  0
    9.7045    0.0000    0.0000 C   0  0  0  0  0  0  0  0  0  0  0  0
    4.4525   -3.3701    0.0000 C   0  0  0  0  0  0  0  0  0  0  0  0
    5.5841   -5.3750    0.0000 O   0  0  0  0  0  0  0  0  0  0  0  0
    3.2963   -4.0466    0.0000 C   0  0  0  0  0  0  0  0  0  0  0  0
    2.1401   -3.3701    0.0000 C   0  0  0  0  0  0  0  0  0  0  0  0
    3.2963   -5.3750    0.0000 C   0  0  0  0  0  0  0  0  0  0  0  0
    0.9840   -4.0466    0.0000 C   0  0  0  0  0  0  0  0  0  0  0  0
    1.8573   -2.0786    0.0000 C   0  0  0  0  0  0  0  0  0  0  0  0
    2.1401   -6.0514    0.0000 C   0  0  0  0  0  0  0  0  0  0  0  0
    0.0000   -3.1610    0.0000 O   0  0  0  0  0  0  0  0  0  0  0  0
    0.9840   -5.3750    0.0000 C   0  0  0  0  0  0  0  0  0  0  0  0
    0.5289   -1.9434    0.0000 C   0  0  0  0  0  0  0  0  0  0  0  0
    8.3761    0.0000    0.0000 C   0  0  0  0  0  0  0  0  0  0  0  0
  1  2  1  0  0  0  0
  1  3  1  0  0  0  0
  1  4  1  0  0  0  0
  1  5  1  1  0  0  0
  2  6  1  0  0  0  0
  3  7  1  0  0  0  0
  4  8  1  0  0  0  0
  5  9  1  0  0  0  0
  6 10  1  0  0  0  0
  6 11  1  1  0  0  0
  7 10  1  0  0  0  0
  8  9  1  0  0  0  0
 10 12  1  6  0  0  0
 11 13  1  0  0  0  0
 11 14  1  0  0  0  0
 12 15  1  0  0  0  0
 12 16  1  0  0  0  0
 13 29  1  0  0  0  0
 14 17  1  0  0  0  0
 15 18  1  0  0  0  0
 15 19  2  0  0  0  0
 17 29  1  0  0  0  0
 18 20  1  0  0  0  0
 20 21  1  0  0  0  0
 20 22  2  0  0  0  0
 21 23  2  0  0  0  0
 21 24  1  0  0  0  0
 22 25  1  0  0  0  0
 23 26  1  0  0  0  0
 23 27  1  0  0  0  0
 24 28  2  0  0  0  0
 25 27  2  0  0  0  0
 26 28  1  0  0  0  0
M  END
> <ID>
12400

> <Formula>
C24H32N2O3

> <FW>
396.5225

> <DSSTox_CID>
27258

> <DSSTox_RID>
82216

> <DSSTox_GSID>
47258

> <DSSTox_FileID_Sort>
6897

> <TS_ChemName>
PharmaGSID_47258

> <TS_ChemName_Synonyms>
2-(1-benzofuran-4-yl)-N-methyl-N-[(5R,7S,8S)-7-(pyrrolidin-1-yl)-1-oxaspiro[4.5]dec-8-yl]acetamide

> <TS_CASRN>
124378-77-4

> <CASRN_ChemName_Relationship>
primary

> <TS_Description>
unspecified or multiple forms

> <ChemNote>
stereochem; structure shown parent; test substance unknown

> <STRUCTURE_Shown>
general form of chemical

> <STRUCTURE_Formula>
C24H32N2O3

> <STRUCTURE_MW>
396.5225

> <STRUCTURE_ChemType>
defined organic

> <STRUCTURE_DefinedOrganicForm>
parent

> <STRUCTURE_IUPAC>
2-(1-benzofuran-4-yl)-N-methyl-N-[(5R,7S,8S)-7-(pyrrolidin-1-yl)-1-oxaspiro[4.5]dec-8-yl]acetamide

> <STRUCTURE_SMILES>
O=C(Cc2cccc1occc12)N(C)[C@H]3CC[C@]5(C[C@@H]3N4CCCC4)CCCO5

> <STRUCTURE_SMILES_Desalt>
O=C(Cc2cccc1occc12)N(C)[C@H]3CC[C@]5(C[C@@H]3N4CCCC4)CCCO5

> <Substance_modify_yyyymmdd>
20130910

$$$$
