124495-18-7
ChemmineR-0915142007XD

 20 22  0  0  0  0  0  0  0  0  1 V2000
    4.6084   -3.9817    0.0000 C    0  0  0  0  0  0  0  0  0  0  0  0
    3.4747   -4.6545    0.0000 C    0  0  0  0  0  0  0  0  0  0  0  0
    4.6084   -2.6544    0.0000 O    0  0  0  0  0  0  0  0  0  0  0  0
    5.7421   -4.6545    0.0000 C    0  0  0  0  0  0  0  0  0  0  0  0
    3.4747   -5.9817    0.0000 C    0  0  0  0  0  0  0  0  0  0  0  0
    2.3042   -3.9817    0.0000 C    0  0  0  0  0  0  0  0  0  0  0  0
    5.7421   -2.0000    0.0000 C    0  0  0  0  0  0  0  0  0  0  0  0
    5.7421   -5.9817    0.0000 C    0  0  0  0  0  0  0  0  0  0  0  0
    2.3042   -6.6545    0.0000 C    0  0  0  0  0  0  0  0  0  0  0  0
    4.6084   -6.6545    0.0000 N    0  0  0  0  0  0  0  0  0  0  0  0
    1.1521   -4.6545    0.0000 C    0  0  0  0  0  0  0  0  0  0  0  0
    2.3042   -2.6544    0.0000 Cl   0  0  0  0  0  0  0  0  0  0  0  0
    6.9126   -2.6544    0.0000 C    0  0  0  0  0  0  0  0  0  0  0  0
    5.7421   -0.6728    0.0000 C    0  0  0  0  0  0  0  0  0  0  0  0
    1.1521   -5.9817    0.0000 C    0  0  0  0  0  0  0  0  0  0  0  0
    8.0647   -2.0000    0.0000 C    0  0  0  0  0  0  0  0  0  0  0  0
    6.9126    0.0000    0.0000 C    0  0  0  0  0  0  0  0  0  0  0  0
    0.0000   -6.6545    0.0000 Cl   0  0  0  0  0  0  0  0  0  0  0  0
    8.0647   -0.6728    0.0000 C    0  0  0  0  0  0  0  0  0  0  0  0
    9.2168    0.0000    0.0000 F    0  0  0  0  0  0  0  0  0  0  0  0
  1  2  1  0  0  0  0
  1  3  1  0  0  0  0
  1  4  2  0  0  0  0
  2  5  1  0  0  0  0
  2  6  2  0  0  0  0
  3  7  1  0  0  0  0
  4  8  1  0  0  0  0
  5  9  2  0  0  0  0
  5 10  1  0  0  0  0
  6 11  1  0  0  0  0
  6 12  1  0  0  0  0
  7 13  2  0  0  0  0
  7 14  1  0  0  0  0
  8 10  2  0  0  0  0
  9 15  1  0  0  0  0
 11 15  2  0  0  0  0
 13 16  1  0  0  0  0
 14 17  2  0  0  0  0
 15 18  1  0  0  0  0
 16 19  2  0  0  0  0
 17 19  1  0  0  0  0
 19 20  1  0  0  0  0
M  END
> <ID>
6940

> <Formula>
C15H8Cl2FNO

> <FW>
308.1345

> <DSSTox_CID>
14881

> <DSSTox_RID>
79217

> <DSSTox_GSID>
34881

> <DSSTox_FileID_Sort>
3899

> <TS_ChemName>
Quinoxyfen

> <TS_ChemName_Synonyms>
Quinoxyfen (Quinoline, 5,7-dichloro-4-(4-fluorophenoxy)-)

> <TS_CASRN>
124495-18-7

> <CASRN_ChemName_Relationship>
primary

> <TS_Description>
single chemical compound

> <ChemNote>


> <STRUCTURE_Shown>
tested chemical

> <STRUCTURE_Formula>
C15H8Cl2FNO

> <STRUCTURE_MW>
308.1345

> <STRUCTURE_ChemType>
defined organic

> <STRUCTURE_DefinedOrganicForm>
parent

> <STRUCTURE_IUPAC>
5,7-dichloro-4-(4-fluorophenoxy)quinoline

> <STRUCTURE_SMILES>
Fc1ccc(cc1)Oc2ccnc3cc(Cl)cc(Cl)c23

> <STRUCTURE_SMILES_Desalt>
Fc1ccc(cc1)Oc2ccnc3cc(Cl)cc(Cl)c23

> <Substance_modify_yyyymmdd>
20080429

$$$$
