1244-76-4
ChemmineR-0915142007XD

 27 28  0  0  0  0  0  0  0  0  1 V2000
   10.0676   -2.5469    0.0000 Cl   0  0  0  0  0  0  0  0  0  0  0  0
    1.1536   -5.9926    0.0000 C    0  0  0  0  0  0  0  0  0  0  0  0
    0.0000   -6.6518    0.0000 Cl   0  0  0  0  0  0  0  0  0  0  0  0
    1.1536   -4.6743    0.0000 C    0  0  0  0  0  0  0  0  0  0  0  0
    2.3072   -3.9851    0.0000 C    0  0  0  0  0  0  0  0  0  0  0  0
    3.4608   -4.6743    0.0000 C    0  0  0  0  0  0  0  0  0  0  0  0
    4.6143   -3.9851    0.0000 C    0  0  0  0  0  0  0  0  0  0  0  0
    4.6143   -2.6667    0.0000 C    0  0  0  0  0  0  0  0  0  0  0  0
    3.4608   -1.9926    0.0000 C    0  0  0  0  0  0  0  0  0  0  0  0
    3.4608   -0.6592    0.0000 C    0  0  0  0  0  0  0  0  0  0  0  0
    4.6143    0.0000    0.0000 C    0  0  0  0  0  0  0  0  0  0  0  0
    5.7679   -0.6592    0.0000 C    0  0  0  0  0  0  0  0  0  0  0  0
    5.7679   -1.9926    0.0000 C    0  0  0  0  0  0  0  0  0  0  0  0
    5.7679   -4.6743    0.0000 N    0  0  0  0  0  0  0  0  0  0  0  0
    6.9215   -3.9851    0.0000 C    0  0  0  0  0  0  0  0  0  0  0  0
    8.0601   -4.6743    0.0000 C    0  0  0  0  0  0  0  0  0  0  0  0
    8.0601   -5.9926    0.0000 N    0  0  0  0  0  0  0  0  0  0  0  0
    9.2137   -6.6518    0.0000 C    0  0  0  0  0  0  0  0  0  0  0  0
   10.3673   -5.9926    0.0000 C    0  0  0  0  0  0  0  0  0  0  0  0
   11.5209   -6.6518    0.0000 O    0  0  0  0  0  0  0  0  0  0  0  0
   12.6744   -5.9926    0.0000 C    0  0  0  0  0  0  0  0  0  0  0  0
   13.8280   -6.6518    0.0000 C    0  0  0  0  0  0  0  0  0  0  0  0
   14.9816   -5.9926    0.0000 O    0  0  0  0  0  0  0  0  0  0  0  0
    6.9215   -6.6518    0.0000 C    0  0  0  0  0  0  0  0  0  0  0  0
    5.7679   -5.9926    0.0000 C    0  0  0  0  0  0  0  0  0  0  0  0
    3.4608   -5.9926    0.0000 C    0  0  0  0  0  0  0  0  0  0  0  0
    2.3072   -6.6518    0.0000 C    0  0  0  0  0  0  0  0  0  0  0  0
  2  3  1  0  0  0  0
  2  4  2  0  0  0  0
  2 27  1  0  0  0  0
  4  5  1  0  0  0  0
  5  6  2  0  0  0  0
  6  7  1  0  0  0  0
  6 26  1  0  0  0  0
  7  8  1  0  0  0  0
  7 14  1  0  0  0  0
  8  9  2  0  0  0  0
  8 13  1  0  0  0  0
  9 10  1  0  0  0  0
 10 11  2  0  0  0  0
 11 12  1  0  0  0  0
 12 13  2  0  0  0  0
 14 15  1  0  0  0  0
 14 25  1  0  0  0  0
 15 16  1  0  0  0  0
 16 17  1  0  0  0  0
 17 18  1  0  0  0  0
 17 24  1  0  0  0  0
 18 19  1  0  0  0  0
 19 20  1  0  0  0  0
 20 21  1  0  0  0  0
 21 22  1  0  0  0  0
 22 23  1  0  0  0  0
 24 25  1  0  0  0  0
 26 27  2  0  0  0  0
M  END
> <ID>
12655

> <Formula>
C21H28Cl2N2O2

> <FW>
411.3652 (36.4609+374.9043)

> <DSSTox_CID>
27530

> <DSSTox_RID>
82400

> <DSSTox_GSID>
47530

> <DSSTox_FileID_Sort>
7081

> <TS_ChemName>
Hydroxyzine hydrochloride

> <TS_ChemName_Synonyms>
Hydroxyzine HCl (Vistaril)

> <TS_CASRN>
1244-76-4

> <CASRN_ChemName_Relationship>
primary

> <TS_Description>
single chemical compound

> <ChemNote>
parent [68-88-2]

> <STRUCTURE_Shown>
tested chemical

> <STRUCTURE_Formula>
C21H28Cl2N2O2

> <STRUCTURE_MW>
411.3652

> <STRUCTURE_ChemType>
defined organic

> <STRUCTURE_DefinedOrganicForm>
complex

> <STRUCTURE_IUPAC>
2-(2-{4-[(4-chlorophenyl)(phenyl)methyl]piperazin-1-yl}ethoxy)ethanol hydrochloride (1:1)

> <STRUCTURE_SMILES>
Cl.Clc1ccc(cc1)C(c2ccccc2)N3CCN(CC3)CCOCCO

> <STRUCTURE_SMILES_Desalt>
Clc1ccc(cc1)C(c2ccccc2)N3CCN(CC3)CCOCCO

> <Substance_modify_yyyymmdd>
20100910

$$$$
