124508-66-3
ChemmineR-0915142007XD

124134  0  0  1  0  0  0  0  0  1 V2000
   12.1014  -17.0717    0.0000 C   0  0  0  0  0  0  0  0  0  0  0  0
   13.2359  -19.0435    0.0000 C   0  0  0  0  0  0  0  0  0  0  0  0
   13.2359  -17.7470    0.0000 C   0  0  0  0  0  0  0  0  0  0  0  0
   10.9399  -17.7470    0.0000 C   0  0  0  0  0  0  0  0  0  0  0  0
   12.1014  -15.7481    0.0000 C   0  0  0  0  0  0  0  0  0  0  0  0
   12.1014  -19.6918    0.0000 C   0  0  0  0  0  0  0  0  0  0  0  0
   10.9399  -19.0435    0.0000 C   0  0  0  0  0  0  0  0  0  0  0  0
   10.9399  -15.0998    0.0000 O   0  0  0  0  0  0  0  0  0  0  0  0
   14.3705  -17.0717    0.0000 O   0  0  0  0  0  0  0  0  0  0  0  0
   13.2359  -15.0998    0.0000 O   0  0  0  0  0  0  0  0  0  0  0  0
   12.1014  -21.0154    0.0000 C   0  0  0  0  0  0  0  0  0  0  0  0
    9.8054  -19.6918    0.0000 C   0  0  0  0  0  0  0  0  0  0  0  0
   10.9399  -21.6907    0.0000 C   0  0  0  0  0  0  0  0  0  0  0  0
    9.8054  -21.0154    0.0000 C   0  0  0  0  0  0  0  0  0  0  0  0
   15.2889  -19.7459    0.0000 C   0  0  0  0  0  0  0  0  0  0  0  0
   18.2872  -17.0987    0.0000 C   0  0  0  0  0  0  0  0  0  0  0  0
   17.1527  -19.0706    0.0000 C   0  0  0  0  0  0  0  0  0  0  0  0
   17.1527  -17.7740    0.0000 C   0  0  0  0  0  0  0  0  0  0  0  0
   19.4487  -17.7740    0.0000 C   0  0  0  0  0  0  0  0  0  0  0  0
   18.2872  -15.7751    0.0000 C   0  0  0  0  0  0  0  0  0  0  0  0
   18.2872  -19.7459    0.0000 C   0  0  0  0  0  0  0  0  0  0  0  0
   19.4487  -19.0706    0.0000 C   0  0  0  0  0  0  0  0  0  0  0  0
   19.4487  -15.1268    0.0000 O   0  0  0  0  0  0  0  0  0  0  0  0
   16.0182  -17.0987    0.0000 O   0  0  0  0  0  0  0  0  0  0  0  0
   17.1527  -15.1268    0.0000 O   0  0  0  0  0  0  0  0  0  0  0  0
   18.2872  -21.0424    0.0000 C   0  0  0  0  0  0  0  0  0  0  0  0
   20.5562  -19.7459    0.0000 C   0  0  0  0  0  0  0  0  0  0  0  0
   19.4487  -21.7178    0.0000 C   0  0  0  0  0  0  0  0  0  0  0  0
   20.5562  -21.0424    0.0000 C   0  0  0  0  0  0  0  0  0  0  0  0
   19.9620   -3.5926    0.0000 C   0  0  0  0  0  0  0  0  0  0  0  0
   18.6654   -3.2415    0.0000 C   0  0  0  0  0  0  0  0  0  0  0  0
   18.3412   -1.9719    0.0000 C   0  0  0  0  0  0  0  0  0  0  0  0
   17.7470   -4.1869    0.0000 C   0  0  0  0  0  0  0  0  0  0  0  0
   18.0981   -5.4564    0.0000 C   0  0  0  0  0  0  0  0  0  0  0  0
   17.1527   -6.3749    0.0000 N   0  0  0  0  0  0  0  0  0  0  0  0
   15.8831   -6.0507    0.0000 C   0  0  0  0  0  0  0  0  0  0  0  0
   15.5320   -4.7811    0.0000 O   0  0  0  0  0  0  0  0  0  0  0  0
   14.9377   -6.9691    0.0000 C   0  0  0  0  0  0  0  0  0  0  0  0
   15.3429   -8.2387    0.0000 C   0  0  0  0  0  0  0  0  0  0  0  0
   14.4785   -9.2111    0.0000 C   0  0  0  0  0  0  0  0  0  0  0  0
   13.1549   -9.0761    0.0000 C   0  0  0  0  0  0  0  0  0  0  0  0
   12.6147  -10.2916    0.0000 N   0  0  0  0  0  0  0  0  0  0  0  0
   13.5871  -11.1560    0.0000 C   0  0  0  0  0  0  0  0  0  0  0  0
   13.5871  -12.4796    0.0000 C   0  0  0  0  0  0  0  0  0  0  0  0
   14.7486  -13.1549    0.0000 C   0  0  0  0  0  0  0  0  0  0  0  0
   15.8831  -12.4796    0.0000 C   0  0  0  0  0  0  0  0  0  0  0  0
   15.8831  -11.1560    0.0000 C   0  0  0  0  0  0  0  0  0  0  0  0
   14.7486  -10.5077    0.0000 C   0  0  0  0  0  0  0  0  0  0  0  0
   13.6681   -6.6450    0.0000 N   0  0  0  0  0  0  0  0  0  0  0  0
   13.3170   -5.3484    0.0000 C   0  0  0  0  0  0  0  0  0  0  0  0
   14.2624   -4.4300    0.0000 O   0  0  0  0  0  0  0  0  0  0  0  0
   12.0474   -5.0243    0.0000 C   0  0  0  0  0  0  0  0  0  0  0  0
   11.6963   -3.7547    0.0000 C   0  0  0  0  0  0  0  0  0  0  0  0
   12.6417   -2.8093    0.0000 C   0  0  0  0  0  0  0  0  0  0  0  0
   13.9112   -3.1604    0.0000 C   0  0  0  0  0  0  0  0  0  0  0  0
   14.8567   -2.2150    0.0000 C   0  0  0  0  0  0  0  0  0  0  0  0
   14.5055   -0.9454    0.0000 C   0  0  0  0  0  0  0  0  0  0  0  0
   15.4509    0.0000    0.0000 O   0  0  0  0  0  0  0  0  0  0  0  0
   13.2359   -0.5943    0.0000 C   0  0  0  0  0  0  0  0  0  0  0  0
   12.2905   -1.5397    0.0000 C   0  0  0  0  0  0  0  0  0  0  0  0
   11.1290   -5.9427    0.0000 N   0  0  0  0  0  0  0  0  0  0  0  0
    9.8324   -5.6185    0.0000 C   0  0  0  0  0  0  0  0  0  0  0  0
    9.5083   -4.3490    0.0000 O   0  0  0  0  0  0  0  0  0  0  0  0
    8.9140   -6.5369    0.0000 C   0  0  0  0  0  0  0  0  0  0  0  0
    7.6444   -6.2128    0.0000 C   0  0  0  0  0  0  0  0  0  0  0  0
    6.6990   -7.1312    0.0000 O   0  0  0  0  0  0  0  0  0  0  0  0
    9.2381   -7.8335    0.0000 N   0  0  0  0  0  0  0  0  0  0  0  0
    8.3197   -8.7519    0.0000 C   0  0  0  0  0  0  0  0  0  0  0  0
    7.0502   -8.4008    0.0000 O   0  0  0  0  0  0  0  0  0  0  0  0
    8.6709  -10.0215    0.0000 C   0  0  0  0  0  0  0  0  0  0  0  0
    9.9405  -10.3727    0.0000 C   0  0  0  0  0  0  0  0  0  0  0  0
   10.2646  -11.6422    0.0000 C   0  0  0  0  0  0  0  0  0  0  0  0
   11.4531  -12.1825    0.0000 C   0  0  0  0  0  0  0  0  0  0  0  0
   11.3451  -13.4791    0.0000 N   0  0  0  0  0  0  0  0  0  0  0  0
   10.0485  -13.7492    0.0000 C   0  0  0  0  0  0  0  0  0  0  0  0
    9.4002  -14.8837    0.0000 C   0  0  0  0  0  0  0  0  0  0  0  0
    8.0766  -14.8837    0.0000 C   0  0  0  0  0  0  0  0  0  0  0  0
    7.4283  -13.7762    0.0000 C   0  0  0  0  0  0  0  0  0  0  0  0
    8.0766  -12.6147    0.0000 C   0  0  0  0  0  0  0  0  0  0  0  0
    9.4002  -12.6147    0.0000 C   0  0  0  0  0  0  0  0  0  0  0  0
    7.7255  -10.9669    0.0000 N   0  0  0  0  0  0  0  0  0  0  0  0
    6.4559  -10.6158    0.0000 C   0  0  0  0  0  0  0  0  0  0  0  0
    6.1047   -9.3462    0.0000 O   0  0  0  0  0  0  0  0  0  0  0  0
    5.5105  -11.5612    0.0000 C   0  0  0  0  0  0  0  0  0  0  0  0
    5.8616  -12.8308    0.0000 C   0  0  0  0  0  0  0  0  0  0  0  0
    4.9162  -13.7762    0.0000 C   0  0  0  0  0  0  0  0  0  0  0  0
    5.1323  -15.0728    0.0000 C   0  0  0  0  0  0  0  0  0  0  0  0
    3.9438  -15.6670    0.0000 N   0  0  0  0  0  0  0  0  0  0  0  0
    3.0254  -14.7216    0.0000 C   0  0  0  0  0  0  0  0  0  0  0  0
    3.6196  -13.5601    0.0000 N   0  0  0  0  0  0  0  0  0  0  0  0
    4.2409  -11.2100    0.0000 N   0  0  0  0  0  0  0  0  0  0  0  0
    3.8897   -9.9405    0.0000 C   0  0  0  0  0  0  0  0  0  0  0  0
    4.8352   -8.9950    0.0000 O   0  0  0  0  0  0  0  0  0  0  0  0
    2.6202   -9.5893    0.0000 C   0  0  0  0  0  0  0  0  0  0  0  0
    1.5937  -10.4267    0.0000 C   0  0  0  0  0  0  0  0  0  0  0  0
    0.4862   -9.6974    0.0000 C   0  0  0  0  0  0  0  0  0  0  0  0
    0.8374   -8.4278    0.0000 C   0  0  0  0  0  0  0  0  0  0  0  0
    0.0000   -7.4013    0.0000 O   0  0  0  0  0  0  0  0  0  0  0  0
    2.1610   -8.3738    0.0000 N   0  0  0  0  0  0  0  0  0  0  0  0
   19.3677   -5.8076    0.0000 C   0  0  0  0  0  0  0  0  0  0  0  0
   20.2861   -4.8622    0.0000 O   0  0  0  0  0  0  0  0  0  0  0  0
   19.6918   -7.0772    0.0000 N   0  0  0  0  0  0  0  0  0  0  0  0
   20.9884   -7.4013    0.0000 C   0  0  0  0  0  0  0  0  0  0  0  0
   21.9068   -6.4829    0.0000 C   0  0  0  0  0  0  0  0  0  0  0  0
   23.1764   -6.8071    0.0000 C   0  0  0  0  0  0  0  0  0  0  0  0
   23.5276   -8.1036    0.0000 C   0  0  0  0  0  0  0  0  0  0  0  0
   24.7971   -8.4278    0.0000 N   0  0  0  0  0  0  0  0  0  0  0  0
   25.7426   -7.5094    0.0000 C   0  0  0  0  0  0  0  0  0  0  0  0
   27.0121   -7.8335    0.0000 N   0  0  0  0  0  0  0  0  0  0  0  0
   25.3914   -6.2398    0.0000 N   0  0  0  0  0  0  0  0  0  0  0  0
   21.3126   -8.6979    0.0000 C   0  0  0  0  0  0  0  0  0  0  0  0
   22.5821   -9.0220    0.0000 O   0  0  0  0  0  0  0  0  0  0  0  0
   20.3942   -9.6163    0.0000 N   0  0  0  0  0  0  0  0  0  0  0  0
   19.0706   -9.4272    0.0000 C   0  0  0  0  0  0  0  0  0  0  0  0
   18.4763  -10.5888    0.0000 C   0  0  0  0  0  0  0  0  0  0  0  0
   19.4217  -11.5342    0.0000 C   0  0  0  0  0  0  0  0  0  0  0  0
   20.5832  -10.9129    0.0000 C   0  0  0  0  0  0  0  0  0  0  0  0
   21.7718  -11.5342    0.0000 C   0  0  0  0  0  0  0  0  0  0  0  0
   22.9063  -10.8589    0.0000 O   0  0  0  0  0  0  0  0  0  0  0  0
   21.7718  -12.8308    0.0000 N   0  0  0  0  0  0  0  0  0  0  0  0
   22.9063  -13.5061    0.0000 C   0  0  0  0  0  0  0  0  0  0  0  0
   22.9063  -14.8297    0.0000 C   0  0  0  0  0  0  0  0  0  0  0  0
   21.7718  -15.4779    0.0000 N   0  0  0  0  0  0  0  0  0  0  0  0
   24.0678  -15.4779    0.0000 O   0  0  0  0  0  0  0  0  0  0  0  0
  1  3  1  0  0  0  0
  1  5  1  0  0  0  0
  1  4  2  0  0  0  0
  2  3  2  0  0  0  0
  2  6  1  0  0  0  0
  2 15  1  0  0  0  0
  3  9  1  0  0  0  0
  4  7  1  0  0  0  0
  5  8  2  0  0  0  0
  5 10  1  0  0  0  0
  6  7  2  0  0  0  0
  6 11  1  0  0  0  0
  7 12  1  0  0  0  0
 11 13  2  0  0  0  0
 12 14  2  0  0  0  0
 13 14  1  0  0  0  0
 15 17  1  0  0  0  0
 16 18  1  0  0  0  0
 16 20  1  0  0  0  0
 16 19  2  0  0  0  0
 17 18  2  0  0  0  0
 17 21  1  0  0  0  0
 18 24  1  0  0  0  0
 19 22  1  0  0  0  0
 20 23  2  0  0  0  0
 20 25  1  0  0  0  0
 21 22  2  0  0  0  0
 21 26  1  0  0  0  0
 22 27  1  0  0  0  0
 26 28  2  0  0  0  0
 27 29  2  0  0  0  0
 28 29  1  0  0  0  0
 30 31  1  0  0  0  0
 31 32  1  0  0  0  0
 31 33  1  0  0  0  0
 33 34  1  0  0  0  0
 34 35  1  1  0  0  0
 34100  1  0  0  0  0
 35 36  1  0  0  0  0
 36 37  2  0  0  0  0
 36 38  1  0  0  0  0
 38 39  1  0  0  0  0
 38 49  1  1  0  0  0
 39 40  1  0  0  0  0
 40 41  2  0  0  0  0
 40 48  1  0  0  0  0
 41 42  1  0  0  0  0
 42 43  1  0  0  0  0
 43 44  2  0  0  0  0
 43 48  1  0  0  0  0
 44 45  1  0  0  0  0
 45 46  2  0  0  0  0
 46 47  1  0  0  0  0
 47 48  2  0  0  0  0
 49 50  1  0  0  0  0
 50 51  2  0  0  0  0
 50 52  1  0  0  0  0
 52 53  1  0  0  0  0
 52 61  1  1  0  0  0
 53 54  1  0  0  0  0
 54 55  2  0  0  0  0
 54 60  1  0  0  0  0
 55 56  1  0  0  0  0
 56 57  2  0  0  0  0
 57 58  1  0  0  0  0
 57 59  1  0  0  0  0
 59 60  2  0  0  0  0
 61 62  1  0  0  0  0
 62 63  2  0  0  0  0
 62 64  1  0  0  0  0
 64 65  1  0  0  0  0
 64 67  1  1  0  0  0
 65 66  1  0  0  0  0
 67 68  1  0  0  0  0
 68 69  2  0  0  0  0
 68 70  1  0  0  0  0
 70 71  1  0  0  0  0
 70 81  1  6  0  0  0
 71 72  1  0  0  0  0
 72 73  2  0  0  0  0
 72 80  1  0  0  0  0
 73 74  1  0  0  0  0
 74 75  1  0  0  0  0
 75 76  2  0  0  0  0
 75 80  1  0  0  0  0
 76 77  1  0  0  0  0
 77 78  2  0  0  0  0
 78 79  1  0  0  0  0
 79 80  2  0  0  0  0
 81 82  1  0  0  0  0
 82 83  2  0  0  0  0
 82 84  1  0  0  0  0
 84 85  1  0  0  0  0
 84 91  1  6  0  0  0
 85 86  1  0  0  0  0
 86 87  2  0  0  0  0
 86 90  1  0  0  0  0
 87 88  1  0  0  0  0
 88 89  1  0  0  0  0
 89 90  2  0  0  0  0
 91 92  1  0  0  0  0
 92 93  2  0  0  0  0
 94 92  1  6  0  0  0
 94 95  1  0  0  0  0
 94 99  1  0  0  0  0
 95 96  1  0  0  0  0
 96 97  1  0  0  0  0
 97 98  2  0  0  0  0
 97 99  1  0  0  0  0
100101  2  0  0  0  0
100102  1  0  0  0  0
103102  1  1  0  0  0
103104  1  0  0  0  0
103111  1  0  0  0  0
104105  1  0  0  0  0
105106  1  0  0  0  0
106107  1  0  0  0  0
107108  1  0  0  0  0
108109  1  0  0  0  0
108110  2  0  0  0  0
111112  2  0  0  0  0
111113  1  0  0  0  0
113114  1  0  0  0  0
113117  1  0  0  0  0
114115  1  0  0  0  0
115116  1  0  0  0  0
116117  1  0  0  0  0
117118  1  1  0  0  0
118119  2  0  0  0  0
118120  1  0  0  0  0
120121  1  0  0  0  0
121122  1  0  0  0  0
122123  1  0  0  0  0
122124  2  0  0  0  0
M  END
> <ID>
11730

> <Formula>
C87H98N18O19

> <FW>
1699.8182 (388.3695+1311.4487)

> <DSSTox_CID>
26494

> <DSSTox_RID>
81664

> <DSSTox_GSID>
46494

> <DSSTox_FileID_Sort>
6345

> <TS_ChemName>
Triptorelin pamoate

> <TS_ChemName_Synonyms>


> <TS_CASRN>
124508-66-3

> <CASRN_ChemName_Relationship>
primary

> <TS_Description>
single chemical compound

> <ChemNote>
stereochem; tautomers; parent [57773-63-4]

> <STRUCTURE_Shown>
tested chemical

> <STRUCTURE_Formula>
C87H98N18O19

> <STRUCTURE_MW>
1699.8182

> <STRUCTURE_ChemType>
defined organic

> <STRUCTURE_DefinedOrganicForm>
complex

> <STRUCTURE_IUPAC>
4,4'-methanediylbis(3-hydroxynaphthalene-2-carboxylic acid) - 5-oxo-L-prolyl-L-histidyl-L-tryptophyl-L-seryl-L-tyrosyl-D-tryptophyl-L-leucyl-L-arginyl-D-prolylglycinamide (1:1)

> <STRUCTURE_SMILES>
O=C1CC[C@H](N1)C(=O)N[C@@H](Cc2cncn2)C(=O)N[C@@H](Cc4cnc3ccccc34)C(=O)N[C@@H](CO)C(=O)N[C@@H](Cc5ccc(O)cc5)C(=O)N[C@H](Cc7cnc6ccccc67)C(=O)N[C@@H](CC(C)C)C(=O)N[C@@H](CCCNC(=N)N)C(=O)N8CCC[C@@H]8C(=O)NCC(N)=O.O=C(O)c4cc1ccccc1c(Cc3c(O)c(cc2ccccc23)C(=O)O)

> <STRUCTURE_SMILES_Desalt>
O=C1CC[C@H](N1)C(=O)N[C@@H](Cc2cncn2)C(=O)N[C@@H](Cc4cnc3ccccc34)C(=O)N[C@@H](CO)C(=O)N[C@@H](Cc5ccc(O)cc5)C(=O)N[C@H](Cc7cnc6ccccc67)C(=O)N[C@@H](CC(C)C)C(=O)N[C@@H](CCCNC(=N)N)C(=O)N8CCC[C@@H]8C(=O)NCC(N)=O

> <Substance_modify_yyyymmdd>
20110812

$$$$
