1247-42-3
ChemmineR-0915142007XD

 30 33  0  0  1  0  0  0  0  0  1 V2000
    6.9881   -2.6626    0.0000 C   0  0  0  0  0  0  0  0  0  0  0  0
    6.9881   -4.0103    0.0000 C   0  0  0  0  0  0  0  0  0  0  0  0
    3.5321   -4.6406    0.0000 C   0  0  0  0  0  0  0  0  0  0  0  0
    8.2922   -2.2605    0.0000 C   0  0  0  0  0  0  0  0  0  0  0  0
    5.8687   -4.6406    0.0000 C   0  0  0  0  0  0  0  0  0  0  0  0
    4.6732   -4.0320    0.0000 C   0  0  0  0  0  0  0  0  0  0  0  0
    4.6732   -2.6844    0.0000 C   0  0  0  0  0  0  0  0  0  0  0  0
    3.5321   -6.0208    0.0000 C   0  0  0  0  0  0  0  0  0  0  0  0
    5.8361   -2.0106    0.0000 C   0  0  0  0  0  0  0  0  0  0  0  0
    9.0312   -3.3038    0.0000 C   0  0  0  0  0  0  0  0  0  0  0  0
    2.3475   -4.0320    0.0000 C   0  0  0  0  0  0  0  0  0  0  0  0
    8.2922   -4.3906    0.0000 C   0  0  0  0  0  0  0  0  0  0  0  0
    2.3475   -6.7164    0.0000 C   0  0  0  0  0  0  0  0  0  0  0  0
    8.6291   -0.9455    0.0000 C   0  0  0  0  0  0  0  0  0  0  0  0
    5.8687   -6.0208    0.0000 C   0  0  0  0  0  0  0  0  0  0  0  0
    1.1846   -4.6406    0.0000 C   0  0  0  0  0  0  0  0  0  0  0  0
    1.1846   -6.0208    0.0000 C   0  0  0  0  0  0  0  0  0  0  0  0
    4.6732   -6.7164    0.0000 C   0  0  0  0  0  0  0  0  0  0  0  0
    3.4995   -1.9888    0.0000 O   0  0  0  0  0  0  0  0  0  0  0  0
    7.6836    0.0000    0.0000 O   0  0  0  0  0  0  0  0  0  0  0  0
    0.0000   -6.7164    0.0000 O   0  0  0  0  0  0  0  0  0  0  0  0
    9.4225   -2.2605    0.0000 O   0  0  0  0  0  0  0  0  0  0  0  0
    6.9881   -1.3585    0.0000 C   0  0  0  0  0  0  0  0  0  0  0  0
    3.5321   -3.3038    0.0000 C   0  0  0  0  0  0  0  0  0  0  0  0
    9.9333   -0.6412    0.0000 C   0  0  0  0  0  0  0  0  0  0  0  0
   10.2050   -3.3256    0.0000 C   0  0  0  0  0  0  0  0  0  0  0  0
   10.8679   -1.6193    0.0000 O   0  0  0  0  0  0  0  0  0  0  0  0
    5.8687   -3.3038    0.0000 H   0  0  0  0  0  0  0  0  0  0  0  0
    6.9881   -5.3470    0.0000 H   0  0  0  0  0  0  0  0  0  0  0  0
    4.6732   -5.3470    0.0000 H   0  0  0  0  0  0  0  0  0  0  0  0
  1  2  1  0  0  0  0
  1  4  1  0  0  0  0
  1  9  1  0  0  0  0
  1 23  1  1  0  0  0
  2  5  1  0  0  0  0
  2 12  1  0  0  0  0
  2 29  1  6  0  0  0
  3  6  1  0  0  0  0
  3  8  1  0  0  0  0
  3 11  1  0  0  0  0
  3 24  1  1  0  0  0
  4 10  1  0  0  0  0
  4 14  1  0  0  0  0
  4 22  1  6  0  0  0
  5 15  1  0  0  0  0
  5  6  1  0  0  0  0
  5 28  1  1  0  0  0
  6  7  1  0  0  0  0
  6 30  1  6  0  0  0
  7  9  1  0  0  0  0
  7 19  2  0  0  0  0
  8 13  2  0  0  0  0
  8 18  1  0  0  0  0
 10 26  1  1  0  0  0
 10 12  1  0  0  0  0
 11 16  2  0  0  0  0
 13 17  1  0  0  0  0
 14 20  2  0  0  0  0
 14 25  1  0  0  0  0
 15 18  1  0  0  0  0
 16 17  1  0  0  0  0
 17 21  2  0  0  0  0
 25 27  1  0  0  0  0
M  END
> <ID>
2928

> <Formula>
C22H28O5

> <FW>
372.4547

> <DSSTox_CID>
3260

> <DSSTox_RID>
76945

> <DSSTox_GSID>
23260

> <DSSTox_FileID_Sort>
1629

> <TS_ChemName>
Meprednisone

> <TS_ChemName_Synonyms>


> <TS_CASRN>
1247-42-3

> <CASRN_ChemName_Relationship>
primary

> <TS_Description>
single chemical compound

> <ChemNote>
stereochem; tautomers

> <STRUCTURE_Shown>
tested chemical

> <STRUCTURE_Formula>
C22H28O5

> <STRUCTURE_MW>
372.4547

> <STRUCTURE_ChemType>
defined organic

> <STRUCTURE_DefinedOrganicForm>
parent

> <STRUCTURE_IUPAC>
(16beta)-17,21-dihydroxy-16-methylpregna-1,4-diene-3,11,20-trione

> <STRUCTURE_SMILES>
OCC(=O)[C@@]3(O)[C@@H](C)C[C@H]2[C@@H]4CCC1=CC(=O)C=C[C@]1(C)[C@H]4C(=O)C[C@@]23C

> <STRUCTURE_SMILES_Desalt>
OCC(=O)[C@@]3(O)[C@@H](C)C[C@H]2[C@@H]4CCC1=CC(=O)C=C[C@]1(C)[C@H]4C(=O)C[C@@]23C

> <Substance_modify_yyyymmdd>
20080429

$$$$
