124756-23-6
ChemmineR-0915142007XD

 31 33  0  0  0  0  0  0  0  0  1 V2000
   12.6716   -2.3053    0.0000 C   0  0  0  0  0  0  0  0  0  0  0  0
   10.6747   -3.4212    0.0000 C   0  0  0  0  0  0  0  0  0  0  0  0
   11.9962   -3.4212    0.0000 C   0  0  0  0  0  0  0  0  0  0  0  0
   11.9962   -1.1306    0.0000 C   0  0  0  0  0  0  0  0  0  0  0  0
   10.6747   -1.1306    0.0000 C   0  0  0  0  0  0  0  0  0  0  0  0
    9.9846   -2.3053    0.0000 N   0  0  0  0  0  0  0  0  0  0  0  0
    2.6870   -3.4212    0.0000 O   0  0  0  0  0  0  0  0  0  0  0  0
    4.0085   -3.4212    0.0000 C   0  0  0  0  0  0  0  0  0  0  0  0
    4.6546   -4.5959    0.0000 C   0  0  0  0  0  0  0  0  0  0  0  0
    4.0085   -5.7265    0.0000 O   0  0  0  0  0  0  0  0  0  0  0  0
    2.0116   -4.5959    0.0000 C   0  0  0  0  0  0  0  0  0  0  0  0
    2.6870   -5.7265    0.0000 C   0  0  0  0  0  0  0  0  0  0  0  0
    2.0116   -6.9158    0.0000 C   0  0  0  0  0  0  0  0  0  0  0  0
    0.6901   -6.9158    0.0000 C   0  0  0  0  0  0  0  0  0  0  0  0
    0.0000   -5.7265    0.0000 C   0  0  0  0  0  0  0  0  0  0  0  0
    0.6901   -4.5959    0.0000 C   0  0  0  0  0  0  0  0  0  0  0  0
    6.0201   -4.5959    0.0000 C   0  0  0  0  0  0  0  0  0  0  0  0
    6.6515   -3.4212    0.0000 N   0  0  0  0  0  0  0  0  0  0  0  0
    8.0317   -3.4212    0.0000 C   0  0  0  0  0  0  0  0  0  0  0  0
    8.6631   -2.3053    0.0000 C   0  0  0  0  0  0  0  0  0  0  0  0
    9.9846    0.0000    0.0000 O   0  0  0  0  0  0  0  0  0  0  0  0
    9.9846   -4.5959    0.0000 O   0  0  0  0  0  0  0  0  0  0  0  0
   13.4498   -1.1747    0.0000 C   0  0  0  0  0  0  0  0  0  0  0  0
   13.4498   -3.3331    0.0000 C   0  0  0  0  0  0  0  0  0  0  0  0
   14.6832   -1.6298    0.0000 C   0  0  0  0  0  0  0  0  0  0  0  0
   14.6832   -2.9513    0.0000 C   0  0  0  0  0  0  0  0  0  0  0  0
    6.4166   -6.4166    0.0000 O   0  0  0  0  0  0  0  0  0  0  0  0
    7.7381   -6.4166    0.0000 S   0  0  0  0  0  0  0  0  0  0  0  0
    9.0596   -6.4166    0.0000 C   0  0  0  0  0  0  0  0  0  0  0  0
    7.7381   -7.7381    0.0000 O   0  0  0  0  0  0  0  0  0  0  0  0
    7.7381   -5.0951    0.0000 O   0  0  0  0  0  0  0  0  0  0  0  0
  1  3  1  0  0  0  0
  1  4  1  0  0  0  0
  1 23  1  0  0  0  0
  1 24  1  0  0  0  0
  2  3  1  0  0  0  0
  2 22  2  0  0  0  0
  2  6  1  0  0  0  0
  4  5  1  0  0  0  0
  5  6  1  0  0  0  0
  5 21  2  0  0  0  0
  6 20  1  0  0  0  0
  7 11  1  0  0  0  0
  7  8  1  0  0  0  0
  8  9  1  0  0  0  0
  9 17  1  0  0  0  0
  9 10  1  0  0  0  0
 10 12  1  0  0  0  0
 11 12  2  0  0  0  0
 11 16  1  0  0  0  0
 12 13  1  0  0  0  0
 13 14  2  0  0  0  0
 14 15  1  0  0  0  0
 15 16  2  0  0  0  0
 17 18  1  0  0  0  0
 18 19  1  0  0  0  0
 19 20  1  0  0  0  0
 23 25  1  0  0  0  0
 24 26  1  0  0  0  0
 25 26  1  0  0  0  0
 27 28  1  0  0  0  0
 28 29  1  0  0  0  0
 28 30  2  0  0  0  0
 28 31  2  0  0  0  0
M  END
> <ID>
13670

> <Formula>
C21H30N2O7S

> <FW>
454.5371 (358.4314+96.1057)

> <DSSTox_CID>
28602

> <DSSTox_RID>
82872

> <DSSTox_GSID>
48676

> <DSSTox_FileID_Sort>
7549

> <TS_ChemName>
Binospirone mesylate

> <TS_ChemName_Synonyms>
MDL 73005EF

> <TS_CASRN>
124756-23-6

> <CASRN_ChemName_Relationship>
primary

> <TS_Description>
single chemical compound

> <ChemNote>


> <STRUCTURE_Shown>
tested chemical

> <STRUCTURE_Formula>
C21H30N2O7S

> <STRUCTURE_MW>
454.5371

> <STRUCTURE_ChemType>
defined organic

> <STRUCTURE_DefinedOrganicForm>
complex

> <STRUCTURE_IUPAC>
8-{2-[(2,3-dihydro-1,4-benzodioxin-2-ylmethyl)amino]ethyl}-8-azaspiro[4.5]decane-7,9-dione methanesulfonate (1:1)

> <STRUCTURE_SMILES>
CS(=O)(=O)O.O=C4CC1(CCCC1)CC(=O)N4CCNCC2COc3ccccc3O2

> <STRUCTURE_SMILES_Desalt>
O=C4CC1(CCCC1)CC(=O)N4CCNCC2COc3ccccc3O2

> <Substance_modify_yyyymmdd>
20111204

$$$$
