124819-26-7
ChemmineR-0915142007XD

 30 31  0  0  1  0  0  0  0  0  1 V2000
    4.1229   -4.3780    0.0000 C   0  0  0  0  0  0  0  0  0  0  0  0
    3.2365   -3.4380    0.0000 C   0  0  0  0  0  0  0  0  0  0  0  0
    5.3852   -1.2892    0.0000 C   0  0  0  0  0  0  0  0  0  0  0  0
    4.1229   -2.2830    0.0000 C   0  0  0  0  0  0  0  0  0  0  0  0
    6.3253   -2.1756    0.0000 N   0  0  0  0  0  0  0  0  0  0  0  0
    3.2365   -2.1756    0.0000 C   0  0  0  0  0  0  0  0  0  0  0  0
    4.1229   -1.2892    0.0000 C   0  0  0  0  0  0  0  0  0  0  0  0
    5.3852   -4.3780    0.0000 C   0  0  0  0  0  0  0  0  0  0  0  0
    8.5949   -2.3233    0.0000 C   0  0  0  0  0  0  0  0  0  0  0  0
    6.3253   -3.4380    0.0000 C   0  0  0  0  0  0  0  0  0  0  0  0
    7.5071   -1.6787    0.0000 C   0  0  0  0  0  0  0  0  0  0  0  0
    2.1219   -4.0960    0.0000 C   0  0  0  0  0  0  0  0  0  0  0  0
    2.1219   -1.5041    0.0000 C   0  0  0  0  0  0  0  0  0  0  0  0
    9.7096   -1.6787    0.0000 C   0  0  0  0  0  0  0  0  0  0  0  0
    0.9938   -3.4380    0.0000 C   0  0  0  0  0  0  0  0  0  0  0  0
    3.6260   -5.6001    0.0000 C   0  0  0  0  0  0  0  0  0  0  0  0
    0.9938   -2.1756    0.0000 C   0  0  0  0  0  0  0  0  0  0  0  0
    3.1157   -1.1281    0.0000 C   0  0  0  0  0  0  0  0  0  0  0  0
    0.0000   -4.1229    0.0000 O   0  0  0  0  0  0  0  0  0  0  0  0
    9.7096   -0.3895    0.0000 C   0  0  0  0  0  0  0  0  0  0  0  0
   10.8242   -2.3233    0.0000 C   0  0  0  0  0  0  0  0  0  0  0  0
    5.7478    0.0000    0.0000 H   0  0  0  0  0  0  0  0  0  0  0  0
   12.3283   -5.5464    0.0000 C   0  0  0  0  0  0  0  0  0  0  0  0
    8.9709   -4.9152    0.0000 C   0  0  0  0  0  0  0  0  0  0  0  0
   13.4295   -4.8884    0.0000 O   0  0  0  0  0  0  0  0  0  0  0  0
    7.8697   -5.5464    0.0000 O   0  0  0  0  0  0  0  0  0  0  0  0
   12.2880   -6.8356    0.0000 O   0  0  0  0  0  0  0  0  0  0  0  0
    8.9709   -3.6125    0.0000 O   0  0  0  0  0  0  0  0  0  0  0  0
   10.0990   -5.5464    0.0000 C   0  0  0  0  0  0  0  0  0  0  0  0
   11.2002   -4.8884    0.0000 C   0  0  0  0  0  0  0  0  0  0  0  0
  1  2  1  0  0  0  0
  1  4  1  0  0  0  0
  1  8  1  0  0  0  0
  1 16  1  1  0  0  0
  2  6  2  0  0  0  0
  2 12  1  0  0  0  0
  3  4  1  0  0  0  0
  3  7  1  0  0  0  0
  3  5  1  0  0  0  0
  3 22  1  1  0  0  0
  4 18  1  6  0  0  0
  5 10  1  0  0  0  0
  5 11  1  0  0  0  0
  6 13  1  0  0  0  0
  6  7  1  0  0  0  0
  8 10  1  0  0  0  0
  9 11  1  0  0  0  0
  9 14  2  0  0  0  0
 12 15  2  0  0  0  0
 13 17  2  0  0  0  0
 14 20  1  0  0  0  0
 14 21  1  0  0  0  0
 15 17  1  0  0  0  0
 15 19  1  0  0  0  0
 23 25  2  0  0  0  0
 23 27  1  0  0  0  0
 23 30  1  0  0  0  0
 24 29  1  0  0  0  0
 24 26  2  0  0  0  0
 24 28  1  0  0  0  0
 29 30  1  0  0  0  0
M  END
> <ID>
13912

> <Formula>
C23H33NO5

> <FW>
403.5118 (285.4238+118.0880)

> <DSSTox_CID>
28849

> <DSSTox_RID>
83118

> <DSSTox_GSID>
48923

> <DSSTox_FileID_Sort>
7795

> <TS_ChemName>
(+)-Pentazocine succinate

> <TS_ChemName_Synonyms>


> <TS_CASRN>
124819-26-7

> <CASRN_ChemName_Relationship>
primary

> <TS_Description>
single chemical compound

> <ChemNote>
stereochem; parent [7361-76-4]

> <STRUCTURE_Shown>
tested chemical

> <STRUCTURE_Formula>
C23H33NO5

> <STRUCTURE_MW>
403.5118

> <STRUCTURE_ChemType>
defined organic

> <STRUCTURE_DefinedOrganicForm>
complex

> <STRUCTURE_IUPAC>
(2S,6S,11S)-6,11-dimethyl-3-(3-methylbut-2-en-1-yl)-1,2,3,4,5,6-hexahydro-2,6-methano-3-benzazocin-8-ol butanedioate (1:1)

> <STRUCTURE_SMILES>
O=C(O)CCC(=O)O.C/C(C)=C\CN2CC[C@]1(C)c3cc(O)ccc3C[C@H]2[C@H]1C

> <STRUCTURE_SMILES_Desalt>
C/C(C)=C\CN2CC[C@]1(C)c3cc(O)ccc3C[C@H]2[C@H]1C

> <Substance_modify_yyyymmdd>
20111207

$$$$
