124832-27-5
ChemmineR-0915142007XD

 24 24  0  0  1  0  0  0  0  0  1 V2000
    3.4675   -3.3276    0.0000 C    0  0  0  0  0  0  0  0  0  0  0  0
    3.4675   -1.9994    0.0000 C    0  0  0  0  0  0  0  0  0  0  0  0
    2.3070   -3.9988    0.0000 N    0  0  0  0  0  0  0  0  0  0  0  0
    4.7258   -1.5939    0.0000 N    0  0  0  0  0  0  0  0  0  0  0  0
    4.7258   -3.7471    0.0000 N    0  0  0  0  0  0  0  0  0  0  0  0
    1.1605   -1.9994    0.0000 N    0  0  0  0  0  0  0  0  0  0  0  0
    2.3070   -1.3422    0.0000 C    0  0  0  0  0  0  0  0  0  0  0  0
    1.1605   -3.3276    0.0000 C    0  0  0  0  0  0  0  0  0  0  0  0
    5.5088   -2.6705    0.0000 C    0  0  0  0  0  0  0  0  0  0  0  0
   10.5142   -5.7325    0.0000 C    0  0  0  0  0  0  0  0  0  0  0  0
   11.6747   -5.0754    0.0000 C    0  0  0  0  0  0  0  0  0  0  0  0
    2.3070    0.0000    0.0000 O    0  0  0  0  0  0  0  0  0  0  0  0
   10.5142   -7.0608    0.0000 O    0  0  0  0  0  0  0  0  0  0  0  0
    4.7398   -5.0754    0.0000 C    0  0  0  0  0  0  0  0  0  0  0  0
    0.0000   -3.9988    0.0000 N    0  0  0  0  0  0  0  0  0  0  0  0
   11.6747   -3.7471    0.0000 N    0  0  0  0  0  0  0  0  0  0  0  0
    9.3677   -5.0754    0.0000 O    0  0  0  0  0  0  0  0  0  0  0  0
   12.8212   -5.7325    0.0000 C    0  0  0  0  0  0  0  0  0  0  0  0
    5.9003   -5.7325    0.0000 O    0  0  0  0  0  0  0  0  0  0  0  0
   12.8212   -7.0608    0.0000 C    0  0  0  0  0  0  0  0  0  0  0  0
   13.9817   -5.0754    0.0000 C    0  0  0  0  0  0  0  0  0  0  0  0
    8.2073   -5.7325    0.0000 C    0  0  0  0  0  0  0  0  0  0  0  0
    7.0608   -5.0754    0.0000 C    0  0  0  0  0  0  0  0  0  0  0  0
    8.6547   -2.7544    0.0000 Cl   0  0  0  0  0  0  0  0  0  0  0  0
  1  2  2  0  0  0  0
  1  3  1  0  0  0  0
  1  5  1  0  0  0  0
  2  4  1  0  0  0  0
  2  7  1  0  0  0  0
  3  8  2  0  0  0  0
  4  9  2  0  0  0  0
  5 14  1  0  0  0  0
  5  9  1  0  0  0  0
  6  8  1  0  0  0  0
  6  7  1  0  0  0  0
  7 12  2  0  0  0  0
  8 15  1  0  0  0  0
 10 17  1  0  0  0  0
 10 11  1  0  0  0  0
 10 13  2  0  0  0  0
 11 16  1  1  0  0  0
 11 18  1  0  0  0  0
 14 19  1  0  0  0  0
 17 22  1  0  0  0  0
 18 20  1  0  0  0  0
 18 21  1  0  0  0  0
 19 23  1  0  0  0  0
 22 23  1  0  0  0  0
M  END
> <ID>
9906

> <Formula>
C13H21ClN6O4

> <FW>
360.7966 (324.3357+36.4609)

> <DSSTox_CID>
24210

> <DSSTox_RID>
80121

> <DSSTox_GSID>
44210

> <DSSTox_FileID_Sort>
4803

> <TS_ChemName>
Valacyclovir hydrochloride

> <TS_ChemName_Synonyms>


> <TS_CASRN>
124832-27-5

> <CASRN_ChemName_Relationship>
primary

> <TS_Description>
single chemical compound

> <ChemNote>
stereochem; parent [124832-26-4]

> <STRUCTURE_Shown>
tested chemical

> <STRUCTURE_Formula>
C13H21ClN6O4

> <STRUCTURE_MW>
360.7966

> <STRUCTURE_ChemType>
defined organic

> <STRUCTURE_DefinedOrganicForm>
complex

> <STRUCTURE_IUPAC>
2-[(2-amino-6-oxo-1,6-dihydro-9H-purin-9-yl)methoxy]ethyl L-valinate hydrochloride (1:1)

> <STRUCTURE_SMILES>
Cl.CC(C)[C@H](N)C(=O)OCCOCn2cnc1c2N=C(N)NC1=O

> <STRUCTURE_SMILES_Desalt>
CC(C)[C@H](N)C(=O)OCCOCn2cnc1c2N=C(N)NC1=O

> <Substance_modify_yyyymmdd>
20090302

$$$$
