124858-35-1
ChemmineR-0915142007XD

 26 29  0  0  0  0  0  0  0  0  1 V2000
    9.2133   -5.9887    0.0000 C   0  0  0  0  0  0  0  0  0  0  0  0
    8.0617   -5.3207    0.0000 C   0  0  0  0  0  0  0  0  0  0  0  0
    6.9100   -5.9887    0.0000 C   0  0  0  0  0  0  0  0  0  0  0  0
    5.7583   -5.3207    0.0000 C   0  0  0  0  0  0  0  0  0  0  0  0
    5.7583   -3.9963    0.0000 C   0  0  0  0  0  0  0  0  0  0  0  0
    4.6067   -3.3283    0.0000 C   0  0  0  0  0  0  0  0  0  0  0  0
    3.4550   -3.9963    0.0000 N   0  0  0  0  0  0  0  0  0  0  0  0
    3.4550   -5.3207    0.0000 C   0  0  0  0  0  0  0  0  0  0  0  0
    2.3033   -5.9887    0.0000 C   0  0  0  0  0  0  0  0  0  0  0  0
    1.1517   -5.3207    0.0000 C   0  0  0  0  0  0  0  0  0  0  0  0
    0.0000   -5.9887    0.0000 O   0  0  0  0  0  0  0  0  0  0  0  0
    1.1517   -3.9963    0.0000 C   0  0  0  0  0  0  0  0  0  0  0  0
    2.3033   -3.3283    0.0000 C   0  0  0  0  0  0  0  0  0  0  0  0
    4.6067   -2.0039    0.0000 C   0  0  0  0  0  0  0  0  0  0  0  0
    5.7583   -1.3359    0.0000 C   0  0  0  0  0  0  0  0  0  0  0  0
    6.9100   -2.0039    0.0000 C   0  0  0  0  0  0  0  0  0  0  0  0
    6.9100   -3.3283    0.0000 C   0  0  0  0  0  0  0  0  0  0  0  0
    8.0617   -3.9963    0.0000 N   0  0  0  0  0  0  0  0  0  0  0  0
    9.2133   -3.3283    0.0000 C   0  0  0  0  0  0  0  0  0  0  0  0
    9.2133   -2.0039    0.0000 C   0  0  0  0  0  0  0  0  0  0  0  0
   10.3650   -1.3359    0.0000 C   0  0  0  0  0  0  0  0  0  0  0  0
   11.5167   -2.0039    0.0000 O   0  0  0  0  0  0  0  0  0  0  0  0
   10.3650    0.0000    0.0000 O   0  0  0  0  0  0  0  0  0  0  0  0
    8.0617   -1.3359    0.0000 C   0  0  0  0  0  0  0  0  0  0  0  0
    8.0617    0.0000    0.0000 O   0  0  0  0  0  0  0  0  0  0  0  0
    3.4550   -1.3359    0.0000 F   0  0  0  0  0  0  0  0  0  0  0  0
  1  2  1  0  0  0  0
  2  3  1  0  0  0  0
  2 18  1  0  0  0  0
  3  4  1  0  0  0  0
  4  5  1  0  0  0  0
  5  6  2  0  0  0  0
  5 17  1  0  0  0  0
  6  7  1  0  0  0  0
  6 14  1  0  0  0  0
  7  8  1  0  0  0  0
  7 13  1  0  0  0  0
  8  9  1  0  0  0  0
  9 10  1  0  0  0  0
 10 11  1  0  0  0  0
 10 12  1  0  0  0  0
 12 13  1  0  0  0  0
 14 15  2  0  0  0  0
 14 26  1  0  0  0  0
 15 16  1  0  0  0  0
 16 17  2  0  0  0  0
 16 24  1  0  0  0  0
 17 18  1  0  0  0  0
 18 19  1  0  0  0  0
 19 20  2  0  0  0  0
 20 21  1  0  0  0  0
 20 24  1  0  0  0  0
 21 22  1  0  0  0  0
 21 23  2  0  0  0  0
 24 25  2  0  0  0  0
M  END
> <ID>
11720

> <Formula>
C19H21FN2O4

> <FW>
360.3794

> <DSSTox_CID>
26483

> <DSSTox_RID>
81654

> <DSSTox_GSID>
46483

> <DSSTox_FileID_Sort>
6335

> <TS_ChemName>
Nadifloxacin

> <TS_ChemName_Synonyms>


> <TS_CASRN>
124858-35-1

> <CASRN_ChemName_Relationship>
primary

> <TS_Description>
single chemical compound

> <ChemNote>


> <STRUCTURE_Shown>
tested chemical

> <STRUCTURE_Formula>
C19H21FN2O4

> <STRUCTURE_MW>
360.3794

> <STRUCTURE_ChemType>
defined organic

> <STRUCTURE_DefinedOrganicForm>
parent

> <STRUCTURE_IUPAC>
9-fluoro-8-(4-hydroxypiperidin-1-yl)-5-methyl-1-oxo-6,7-dihydro-1H,5H-pyrido[3,2,1-ij]quinoline-2-carboxylic acid

> <STRUCTURE_SMILES>
O=C(O)C3=CN2C(C)CCc1c(c(F)cc(c12)C3=O)N4CCC(O)CC4

> <STRUCTURE_SMILES_Desalt>
O=C(O)C3=CN2C(C)CCc1c(c(F)cc(c12)C3=O)N4CCC(O)CC4

> <Substance_modify_yyyymmdd>
20110812

$$$$
