1248-42-6
ChemmineR-0915142007XD

 28 29  0  0  0  0  0  0  0  0  1 V2000
   11.5170    0.0000    0.0000 C    0  0  0  0  0  0  0  0  0  0  0  0
   11.5170   -1.3273    0.0000 O    0  0  0  0  0  0  0  0  0  0  0  0
   12.6784   -1.9909    0.0000 C    0  0  0  0  0  0  0  0  0  0  0  0
   13.8260   -1.3273    0.0000 O    0  0  0  0  0  0  0  0  0  0  0  0
   12.6784   -3.3321    0.0000 C    0  0  0  0  0  0  0  0  0  0  0  0
   13.8260   -3.9957    0.0000 C    0  0  0  0  0  0  0  0  0  0  0  0
   13.8260   -5.3230    0.0000 C    0  0  0  0  0  0  0  0  0  0  0  0
   12.6784   -5.9867    0.0000 C    0  0  0  0  0  0  0  0  0  0  0  0
   11.5170   -5.3230    0.0000 C    0  0  0  0  0  0  0  0  0  0  0  0
   11.5170   -3.9957    0.0000 C    0  0  0  0  0  0  0  0  0  0  0  0
   10.3557   -3.3321    0.0000 C    0  0  0  0  0  0  0  0  0  0  0  0
   10.3557   -1.9909    0.0000 O    0  0  0  0  0  0  0  0  0  0  0  0
    9.2081   -3.9957    0.0000 C    0  0  0  0  0  0  0  0  0  0  0  0
    9.2081   -5.3230    0.0000 C    0  0  0  0  0  0  0  0  0  0  0  0
    8.0606   -5.9867    0.0000 C    0  0  0  0  0  0  0  0  0  0  0  0
    6.9130   -5.3230    0.0000 C    0  0  0  0  0  0  0  0  0  0  0  0
    5.7654   -5.9867    0.0000 O    0  0  0  0  0  0  0  0  0  0  0  0
    4.6041   -5.3230    0.0000 C    0  0  0  0  0  0  0  0  0  0  0  0
    3.4427   -5.9867    0.0000 C    0  0  0  0  0  0  0  0  0  0  0  0
    2.3089   -5.3230    0.0000 N    0  0  0  0  0  0  0  0  0  0  0  0
    1.1476   -5.9867    0.0000 C    0  0  0  0  0  0  0  0  0  0  0  0
    0.0000   -5.3230    0.0000 C    0  0  0  0  0  0  0  0  0  0  0  0
    0.0000   -3.9957    0.0000 C    0  0  0  0  0  0  0  0  0  0  0  0
    1.1476   -3.3321    0.0000 C    0  0  0  0  0  0  0  0  0  0  0  0
    2.3089   -3.9957    0.0000 C    0  0  0  0  0  0  0  0  0  0  0  0
    6.9130   -3.9957    0.0000 C    0  0  0  0  0  0  0  0  0  0  0  0
    8.0606   -3.3321    0.0000 C    0  0  0  0  0  0  0  0  0  0  0  0
    4.7700   -3.2353    0.0000 Cl   0  0  0  0  0  0  0  0  0  0  0  0
  1  2  1  0  0  0  0
  2  3  1  0  0  0  0
  3  4  2  0  0  0  0
  3  5  1  0  0  0  0
  5  6  2  0  0  0  0
  5 10  1  0  0  0  0
  6  7  1  0  0  0  0
  7  8  2  0  0  0  0
  8  9  1  0  0  0  0
  9 10  2  0  0  0  0
 10 11  1  0  0  0  0
 11 12  2  0  0  0  0
 11 13  1  0  0  0  0
 13 14  2  0  0  0  0
 13 27  1  0  0  0  0
 14 15  1  0  0  0  0
 15 16  2  0  0  0  0
 16 17  1  0  0  0  0
 16 26  1  0  0  0  0
 17 18  1  0  0  0  0
 18 19  1  0  0  0  0
 19 20  1  0  0  0  0
 20 21  1  0  0  0  0
 20 25  1  0  0  0  0
 21 22  1  0  0  0  0
 22 23  1  0  0  0  0
 23 24  1  0  0  0  0
 24 25  1  0  0  0  0
 26 27  2  0  0  0  0
M  END
> <ID>
11701

> <Formula>
C22H26ClNO4

> <FW>
403.8991 (367.4382+36.4609)

> <DSSTox_CID>
26461

> <DSSTox_RID>
81635

> <DSSTox_GSID>
46461

> <DSSTox_FileID_Sort>
6316

> <TS_ChemName>
Pitofenone hydrochloride

> <TS_ChemName_Synonyms>


> <TS_CASRN>
1248-42-6

> <CASRN_ChemName_Relationship>
primary

> <TS_Description>
single chemical compound

> <ChemNote>
parent [54063-52-4]

> <STRUCTURE_Shown>
tested chemical

> <STRUCTURE_Formula>
C22H26ClNO4

> <STRUCTURE_MW>
403.8991

> <STRUCTURE_ChemType>
defined organic

> <STRUCTURE_DefinedOrganicForm>
complex

> <STRUCTURE_IUPAC>
methyl 2-{4-[2-(piperidin-1-yl)ethoxy]benzoyl}benzoate hydrochloride (1:1)

> <STRUCTURE_SMILES>
Cl.O=C(OC)c1ccccc1C(=O)c3ccc(OCCN2CCCCC2)cc3

> <STRUCTURE_SMILES_Desalt>
O=C(OC)c1ccccc1C(=O)c3ccc(OCCN2CCCCC2)cc3

> <Substance_modify_yyyymmdd>
20110812

$$$$
