124937-51-5
ChemmineR-0915142007XD

 25 26  0  0  1  0  0  0  0  0  1 V2000
    4.6408   -2.6950    0.0000 C   0  0  0  0  0  0  0  0  0  0  0  0
    3.4962   -2.0290    0.0000 C   0  0  0  0  0  0  0  0  0  0  0  0
    4.6408   -4.0269    0.0000 C   0  0  0  0  0  0  0  0  0  0  0  0
    5.7958   -2.0290    0.0000 C   0  0  0  0  0  0  0  0  0  0  0  0
    3.4962   -0.6763    0.0000 C   0  0  0  0  0  0  0  0  0  0  0  0
    2.3204   -2.6950    0.0000 C   0  0  0  0  0  0  0  0  0  0  0  0
    3.4962   -4.6928    0.0000 C   0  0  0  0  0  0  0  0  0  0  0  0
    5.7958   -4.6928    0.0000 C   0  0  0  0  0  0  0  0  0  0  0  0
    6.9404   -2.7054    0.0000 C   0  0  0  0  0  0  0  0  0  0  0  0
    2.3204    0.0000    0.0000 C   0  0  0  0  0  0  0  0  0  0  0  0
    4.6408    0.0000    0.0000 O   0  0  0  0  0  0  0  0  0  0  0  0
    1.1758   -2.0290    0.0000 C   0  0  0  0  0  0  0  0  0  0  0  0
    3.4962   -6.0247    0.0000 C   0  0  0  0  0  0  0  0  0  0  0  0
    5.7958   -6.0247    0.0000 C   0  0  0  0  0  0  0  0  0  0  0  0
    8.1162   -2.0290    0.0000 N   0  0  0  0  0  0  0  0  0  0  0  0
    1.1758   -0.6763    0.0000 C   0  0  0  0  0  0  0  0  0  0  0  0
    0.0000   -2.6950    0.0000 C   0  0  0  0  0  0  0  0  0  0  0  0
    4.6408   -6.7010    0.0000 C   0  0  0  0  0  0  0  0  0  0  0  0
    8.1162   -0.7076    0.0000 C   0  0  0  0  0  0  0  0  0  0  0  0
    9.2608   -2.6950    0.0000 C   0  0  0  0  0  0  0  0  0  0  0  0
    9.2608   -0.0312    0.0000 C   0  0  0  0  0  0  0  0  0  0  0  0
    6.9716   -0.0312    0.0000 C   0  0  0  0  0  0  0  0  0  0  0  0
    9.2608   -4.0269    0.0000 C   0  0  0  0  0  0  0  0  0  0  0  0
   10.4053   -2.0290    0.0000 C   0  0  0  0  0  0  0  0  0  0  0  0
    4.6616   -1.4880    0.0000 H   0  0  0  0  0  0  0  0  0  0  0  0
  1  2  1  0  0  0  0
  1  3  1  0  0  0  0
  1  4  1  0  0  0  0
  1 25  1  1  0  0  0
  2  5  2  0  0  0  0
  2  6  1  0  0  0  0
  3  7  2  0  0  0  0
  3  8  1  0  0  0  0
  4  9  1  0  0  0  0
  5 10  1  0  0  0  0
  5 11  1  0  0  0  0
  6 12  2  0  0  0  0
  7 13  1  0  0  0  0
  8 14  2  0  0  0  0
  9 15  1  0  0  0  0
 10 16  2  0  0  0  0
 12 17  1  0  0  0  0
 12 16  1  0  0  0  0
 13 18  2  0  0  0  0
 14 18  1  0  0  0  0
 15 19  1  0  0  0  0
 15 20  1  0  0  0  0
 19 21  1  0  0  0  0
 19 22  1  0  0  0  0
 20 23  1  0  0  0  0
 20 24  1  0  0  0  0
M  END
> <ID>
3293

> <Formula>
C22H31NO

> <FW>
325.4876

> <DSSTox_CID>
3687

> <DSSTox_RID>
77147

> <DSSTox_GSID>
23687

> <DSSTox_FileID_Sort>
1830

> <TS_ChemName>
Tolterodine

> <TS_ChemName_Synonyms>


> <TS_CASRN>
124937-51-5

> <CASRN_ChemName_Relationship>
primary

> <TS_Description>
single chemical compound

> <ChemNote>
stereochem

> <STRUCTURE_Shown>
tested chemical

> <STRUCTURE_Formula>
C22H31NO

> <STRUCTURE_MW>
325.4876

> <STRUCTURE_ChemType>
defined organic

> <STRUCTURE_DefinedOrganicForm>
parent

> <STRUCTURE_IUPAC>
2-{(1R)-3-[di(propan-2-yl)amino]-1-phenylpropyl}-4-methylphenol

> <STRUCTURE_SMILES>
Oc1ccc(C)cc1[C@H](CCN(C(C)C)C(C)C)c2ccccc2

> <STRUCTURE_SMILES_Desalt>
Oc1ccc(C)cc1[C@H](CCN(C(C)C)C(C)C)c2ccccc2

> <Substance_modify_yyyymmdd>
20080429

$$$$
