125-04-2
ChemmineR-0915142007XD

 37 39  0  0  1  0  0  0  0  0  2 V2000
    6.9049   -3.7193    0.0000 C    0  0  0  0  0  0  0  0  0  0  0  0
    8.1339   -3.3312    0.0000 C    0  0  0  0  0  0  0  0  0  0  0  0
    3.4767   -5.7406    0.0000 C    0  0  0  0  0  0  0  0  0  0  0  0
    5.7891   -5.7406    0.0000 C    0  0  0  0  0  0  0  0  0  0  0  0
    6.9049   -5.0938    0.0000 C    0  0  0  0  0  0  0  0  0  0  0  0
    4.6249   -5.0938    0.0000 C    0  0  0  0  0  0  0  0  0  0  0  0
    3.4767   -7.0828    0.0000 C    0  0  0  0  0  0  0  0  0  0  0  0
    5.7406   -3.0886    0.0000 C    0  0  0  0  0  0  0  0  0  0  0  0
    4.6249   -3.7193    0.0000 C    0  0  0  0  0  0  0  0  0  0  0  0
    8.1339   -2.0214    0.0000 C    0  0  0  0  0  0  0  0  0  0  0  0
    2.3286   -7.7458    0.0000 C    0  0  0  0  0  0  0  0  0  0  0  0
    8.9101   -4.3823    0.0000 C    0  0  0  0  0  0  0  0  0  0  0  0
    8.1824   -5.4819    0.0000 C    0  0  0  0  0  0  0  0  0  0  0  0
    5.7891   -7.0828    0.0000 C    0  0  0  0  0  0  0  0  0  0  0  0
    2.3286   -5.0938    0.0000 C    0  0  0  0  0  0  0  0  0  0  0  0
   15.0065   -1.9567    0.0000 C    0  0  0  0  0  0  0  0  0  0  0  0
    4.6249   -7.7458    0.0000 C    0  0  0  0  0  0  0  0  0  0  0  0
   11.5783   -1.3260    0.0000 C    0  0  0  0  0  0  0  0  0  0  0  0
    1.1643   -7.0828    0.0000 C    0  0  0  0  0  0  0  0  0  0  0  0
    9.2820   -1.3422    0.0000 C    0  0  0  0  0  0  0  0  0  0  0  0
   16.1708   -1.2775    0.0000 O    0  5  0  0  0  0  0  0  0  0  0  0
    6.9858   -1.3422    0.0000 O    0  0  0  0  0  0  0  0  0  0  0  0
   10.4463   -2.0052    0.0000 O    0  0  0  0  0  0  0  0  0  0  0  0
   15.0065   -3.3150    0.0000 O    0  0  0  0  0  0  0  0  0  0  0  0
   11.5783    0.0000    0.0000 O    0  0  0  0  0  0  0  0  0  0  0  0
    0.0000   -7.7458    0.0000 O    0  0  0  0  0  0  0  0  0  0  0  0
    9.4923   -3.3959    0.0000 O    0  0  0  0  0  0  0  0  0  0  0  0
    6.9211   -2.4095    0.0000 C    0  0  0  0  0  0  0  0  0  0  0  0
    1.1643   -5.7406    0.0000 C    0  0  0  0  0  0  0  0  0  0  0  0
    3.4444   -3.0886    0.0000 O    0  0  0  0  0  0  0  0  0  0  0  0
   13.8746   -1.2937    0.0000 C    0  0  0  0  0  0  0  0  0  0  0  0
   12.7264   -2.0052    0.0000 C    0  0  0  0  0  0  0  0  0  0  0  0
    3.5091   -4.4146    0.0000 C    0  0  0  0  0  0  0  0  0  0  0  0
    5.7891   -4.4146    0.0000 H    0  0  0  0  0  0  0  0  0  0  0  0
    4.6249   -6.4198    0.0000 H    0  0  0  0  0  0  0  0  0  0  0  0
    6.9211   -6.4198    0.0000 H    0  0  0  0  0  0  0  0  0  0  0  0
    9.3791   -7.2122    0.0000 Na   0  3  0  0  0  0  0  0  0  0  0  0
  1  2  1  0  0  0  0
  1  5  1  0  0  0  0
  1  8  1  0  0  0  0
  1 28  1  1  0  0  0
  2 10  1  1  0  0  0
  2 12  1  0  0  0  0
  2 27  1  6  0  0  0
  3  6  1  0  0  0  0
  3  7  1  0  0  0  0
  3 15  1  0  0  0  0
  3 33  1  1  0  0  0
  4  5  1  0  0  0  0
  4 14  1  0  0  0  0
  4  6  1  0  0  0  0
  4 34  1  1  0  0  0
  5 13  1  0  0  0  0
  5 36  1  6  0  0  0
  6  9  1  0  0  0  0
  6 35  1  6  0  0  0
  7 11  2  0  0  0  0
  7 17  1  0  0  0  0
  8  9  1  0  0  0  0
  9 30  1  1  0  0  0
 10 20  1  0  0  0  0
 10 22  2  0  0  0  0
 11 19  1  0  0  0  0
 12 13  1  0  0  0  0
 14 17  1  0  0  0  0
 15 29  1  0  0  0  0
 16 31  1  0  0  0  0
 16 21  1  0  0  0  0
 16 24  2  0  0  0  0
 18 23  1  0  0  0  0
 18 25  2  0  0  0  0
 18 32  1  0  0  0  0
 19 29  1  0  0  0  0
 19 26  2  0  0  0  0
 20 23  1  0  0  0  0
 31 32  1  0  0  0  0
M  END
> <ID>
13991

> <Formula>
C25H33NaO8

> <FW>
484.5145 (461.5253+22.9892)

> <DSSTox_CID>
28932

> <DSSTox_RID>
83198

> <DSSTox_GSID>
49006

> <DSSTox_FileID_Sort>
7874

> <TS_ChemName>
Hydrocortisone 21-hemisuccinate sodium salt

> <TS_ChemName_Synonyms>


> <TS_CASRN>
125-04-2

> <CASRN_ChemName_Relationship>
primary

> <TS_Description>
single chemical compound

> <ChemNote>


> <STRUCTURE_Shown>
tested chemical

> <STRUCTURE_Formula>
C25H33NaO8

> <STRUCTURE_MW>
484.5145

> <STRUCTURE_ChemType>
defined organic

> <STRUCTURE_DefinedOrganicForm>
salt

> <STRUCTURE_IUPAC>
sodium 4-{[(11beta)-11,17-dihydroxy-3,20-dioxopregn-4-en-21-yl]oxy}-4-oxobutanoate

> <STRUCTURE_SMILES>
[Na+].[O-]C(=O)CCC(=O)OCC(=O)[C@@]4(O)CC[C@@H]2[C@]4(C)C[C@H](O)[C@@H]1[C@@]3(C)CCC(=O)C=C3CC[C@H]12

> <STRUCTURE_SMILES_Desalt>
O=C(O)CCC(=O)OCC(=O)[C@@]4(O)CC[C@@H]2[C@]4(C)C[C@H](O)[C@@H]1[C@@]3(C)CCC(=O)C=C3CC[C@H]12

> <Substance_modify_yyyymmdd>
20111204

$$$$
