125-60-0
ChemmineR-0915142007XD

 26 27  0  0  0  0  0  0  0  0  2 V2000
    5.9697   -4.1422    0.0000 C    0  0  0  0  0  0  0  0  0  0  0  0
    2.6640   -2.9889    0.0000 N    0  3  0  0  0  0  0  0  0  0  0  0
    7.3017   -4.1422    0.0000 C    0  0  0  0  0  0  0  0  0  0  0  0
    4.6377   -4.1422    0.0000 C    0  0  0  0  0  0  0  0  0  0  0  0
    3.9960   -2.9889    0.0000 C    0  0  0  0  0  0  0  0  0  0  0  0
    5.9697   -5.4742    0.0000 C    0  0  0  0  0  0  0  0  0  0  0  0
    5.9697   -2.8102    0.0000 C    0  0  0  0  0  0  0  0  0  0  0  0
    7.9595   -5.2955    0.0000 O    0  0  0  0  0  0  0  0  0  0  0  0
    7.9595   -2.9889    0.0000 N    0  0  0  0  0  0  0  0  0  0  0  0
    3.2894   -1.8274    0.0000 C    0  0  0  0  0  0  0  0  0  0  0  0
    2.0061   -1.8274    0.0000 C    0  0  0  0  0  0  0  0  0  0  0  0
    2.0061   -4.1422    0.0000 C    0  0  0  0  0  0  0  0  0  0  0  0
    7.1230   -6.1321    0.0000 C    0  0  0  0  0  0  0  0  0  0  0  0
    4.8163   -2.1523    0.0000 C    0  0  0  0  0  0  0  0  0  0  0  0
    4.8163   -6.1321    0.0000 C    0  0  0  0  0  0  0  0  0  0  0  0
    7.1230   -2.1523    0.0000 C    0  0  0  0  0  0  0  0  0  0  0  0
    0.6741   -1.8274    0.0000 C    0  0  0  0  0  0  0  0  0  0  0  0
    0.6741   -4.1422    0.0000 C    0  0  0  0  0  0  0  0  0  0  0  0
    4.8163   -7.4641    0.0000 C    0  0  0  0  0  0  0  0  0  0  0  0
    4.8163   -0.8203    0.0000 C    0  0  0  0  0  0  0  0  0  0  0  0
    7.1230   -0.8203    0.0000 C    0  0  0  0  0  0  0  0  0  0  0  0
    7.1230   -7.4641    0.0000 C    0  0  0  0  0  0  0  0  0  0  0  0
    5.9697   -8.1220    0.0000 C    0  0  0  0  0  0  0  0  0  0  0  0
    0.0000   -2.9889    0.0000 C    0  0  0  0  0  0  0  0  0  0  0  0
    5.9697   -0.1624    0.0000 C    0  0  0  0  0  0  0  0  0  0  0  0
    1.7950    0.0000    0.0000 Br   0  5  0  0  0  0  0  0  0  0  0  0
  1  3  1  0  0  0  0
  1  4  1  0  0  0  0
  1  6  1  0  0  0  0
  1  7  1  0  0  0  0
  2  5  1  0  0  0  0
  2 10  1  0  0  0  0
  2 11  1  0  0  0  0
  2 12  1  0  0  0  0
  3  8  2  0  0  0  0
  3  9  1  0  0  0  0
  4  5  1  0  0  0  0
  6 13  1  0  0  0  0
  6 15  2  0  0  0  0
  7 14  1  0  0  0  0
  7 16  2  0  0  0  0
 11 17  1  0  0  0  0
 12 18  1  0  0  0  0
 13 22  2  0  0  0  0
 14 20  2  0  0  0  0
 15 19  1  0  0  0  0
 16 21  1  0  0  0  0
 17 24  1  0  0  0  0
 18 24  1  0  0  0  0
 19 23  2  0  0  0  0
 20 25  1  0  0  0  0
 21 25  2  0  0  0  0
 22 23  1  0  0  0  0
M  END
> <ID>
11721

> <Formula>
C22H29BrN2O

> <FW>
417.3825 (337.4779+79.9045)

> <DSSTox_CID>
26484

> <DSSTox_RID>
81655

> <DSSTox_GSID>
46484

> <DSSTox_FileID_Sort>
6336

> <TS_ChemName>
Fenpiverinium bromide

> <TS_ChemName_Synonyms>


> <TS_CASRN>
125-60-0

> <CASRN_ChemName_Relationship>
primary

> <TS_Description>
single chemical compound

> <ChemNote>
ammonium; parent [258329-46-3]

> <STRUCTURE_Shown>
tested chemical

> <STRUCTURE_Formula>
C22H29BrN2O

> <STRUCTURE_MW>
417.3825

> <STRUCTURE_ChemType>
defined organic

> <STRUCTURE_DefinedOrganicForm>
salt

> <STRUCTURE_IUPAC>
1-(4-amino-4-oxo-3,3-diphenylbutyl)-1-methylpiperidinium bromide

> <STRUCTURE_SMILES>
[Br-].NC(=O)C(CC[N+]1(C)CCCCC1)(c2ccccc2)c3ccccc3

> <STRUCTURE_SMILES_Desalt>
NC(=O)C(CC[N+]1(C)CCCCC1)(c2ccccc2)c3ccccc3

> <Substance_modify_yyyymmdd>
20110812

$$$$
