125-52-0
ChemmineR-0915142007XD

 26 27  0  0  0  0  0  0  0  0  1 V2000
    7.1870   -5.3720    0.0000 Cl   0  0  0  0  0  0  0  0  0  0  0  0
    8.1467   -3.4736    0.0000 C    0  0  0  0  0  0  0  0  0  0  0  0
    3.5049   -3.4840    0.0000 C    0  0  0  0  0  0  0  0  0  0  0  0
    9.2733   -4.1307    0.0000 N    0  0  0  0  0  0  0  0  0  0  0  0
    4.6731   -4.1516    0.0000 C    0  0  0  0  0  0  0  0  0  0  0  0
    8.1467   -2.1384    0.0000 N    0  0  0  0  0  0  0  0  0  0  0  0
    5.7997   -3.4736    0.0000 O    0  0  0  0  0  0  0  0  0  0  0  0
    6.9576   -4.1307    0.0000 C    0  0  0  0  0  0  0  0  0  0  0  0
    4.6731   -5.4972    0.0000 O    0  0  0  0  0  0  0  0  0  0  0  0
    2.3157   -2.8268    0.0000 C    0  0  0  0  0  0  0  0  0  0  0  0
    4.0994   -2.3157    0.0000 C    0  0  0  0  0  0  0  0  0  0  0  0
    2.8477   -4.6627    0.0000 O    0  0  0  0  0  0  0  0  0  0  0  0
   10.4103   -3.4736    0.0000 C    0  0  0  0  0  0  0  0  0  0  0  0
    9.3046   -1.4812    0.0000 C    0  0  0  0  0  0  0  0  0  0  0  0
    9.2733   -5.4659    0.0000 C    0  0  0  0  0  0  0  0  0  0  0  0
   10.4311   -2.1592    0.0000 C    0  0  0  0  0  0  0  0  0  0  0  0
    2.3157   -1.5229    0.0000 C    0  0  0  0  0  0  0  0  0  0  0  0
    1.1683   -3.4840    0.0000 C    0  0  0  0  0  0  0  0  0  0  0  0
    5.4346   -2.3261    0.0000 C    0  0  0  0  0  0  0  0  0  0  0  0
    3.4214   -1.1370    0.0000 C    0  0  0  0  0  0  0  0  0  0  0  0
    0.0000   -2.8268    0.0000 C    0  0  0  0  0  0  0  0  0  0  0  0
    1.1579   -0.8866    0.0000 C    0  0  0  0  0  0  0  0  0  0  0  0
    6.0918   -1.2100    0.0000 C    0  0  0  0  0  0  0  0  0  0  0  0
    4.1307    0.0000    0.0000 C    0  0  0  0  0  0  0  0  0  0  0  0
    0.0000   -1.5229    0.0000 C    0  0  0  0  0  0  0  0  0  0  0  0
    5.4763    0.0000    0.0000 C    0  0  0  0  0  0  0  0  0  0  0  0
  2  4  1  0  0  0  0
  2  6  2  0  0  0  0
  2  8  1  0  0  0  0
  3  5  1  0  0  0  0
  3 10  1  0  0  0  0
  3 11  1  0  0  0  0
  3 12  1  0  0  0  0
  4 13  1  0  0  0  0
  4 15  1  0  0  0  0
  5  7  1  0  0  0  0
  5  9  2  0  0  0  0
  6 14  1  0  0  0  0
  7  8  1  0  0  0  0
 10 17  2  0  0  0  0
 10 18  1  0  0  0  0
 11 19  1  0  0  0  0
 11 20  1  0  0  0  0
 13 16  1  0  0  0  0
 14 16  1  0  0  0  0
 17 22  1  0  0  0  0
 18 21  2  0  0  0  0
 19 23  1  0  0  0  0
 20 24  1  0  0  0  0
 21 25  1  0  0  0  0
 22 25  2  0  0  0  0
 23 26  1  0  0  0  0
 24 26  1  0  0  0  0
M  END
> <ID>
11288

> <Formula>
C20H29ClN2O3

> <FW>
380.9089 (36.4609+344.4479)

> <DSSTox_CID>
25909

> <DSSTox_RID>
81220

> <DSSTox_GSID>
45909

> <DSSTox_FileID_Sort>
5901

> <TS_ChemName>
Oxyphencyclimine hydrochloride

> <TS_ChemName_Synonyms>


> <TS_CASRN>
125-52-0

> <CASRN_ChemName_Relationship>
primary

> <TS_Description>
single chemical compound

> <ChemNote>
parent [125-53-1]

> <STRUCTURE_Shown>
tested chemical

> <STRUCTURE_Formula>
C20H29ClN2O3

> <STRUCTURE_MW>
380.9089

> <STRUCTURE_ChemType>
defined organic

> <STRUCTURE_DefinedOrganicForm>
complex

> <STRUCTURE_IUPAC>
(1-methyl-1,4,5,6-tetrahydropyrimidin-2-yl)methyl cyclohexyl(hydroxy)phenylacetate hydrochloride (1:1)

> <STRUCTURE_SMILES>
Cl.CN3CCCN=C3COC(=O)C(O)(c1ccccc1)C2CCCCC2

> <STRUCTURE_SMILES_Desalt>
CN3CCCN=C3COC(=O)C(O)(c1ccccc1)C2CCCCC2

> <Substance_modify_yyyymmdd>
20110922

$$$$
