125-51-9
ChemmineR-0915142007XD

 27 28  0  0  0  0  0  0  0  0  2 V2000
    9.9815   -3.3166    0.0000 C    0  0  0  0  0  0  0  0  0  0  0  0
    9.3161   -4.4679    0.0000 C    0  0  0  0  0  0  0  0  0  0  0  0
    7.9852   -4.4679    0.0000 C    0  0  0  0  0  0  0  0  0  0  0  0
    7.3198   -3.3166    0.0000 C    0  0  0  0  0  0  0  0  0  0  0  0
    5.9889   -3.3166    0.0000 O    0  0  0  0  0  0  0  0  0  0  0  0
    5.3235   -4.4679    0.0000 C    0  0  0  0  0  0  0  0  0  0  0  0
    5.9889   -5.6192    0.0000 O    0  0  0  0  0  0  0  0  0  0  0  0
    3.9926   -4.4679    0.0000 C    0  0  0  0  0  0  0  0  0  0  0  0
    3.9926   -5.7988    0.0000 O    0  0  0  0  0  0  0  0  0  0  0  0
    2.6617   -4.4679    0.0000 C    0  0  0  0  0  0  0  0  0  0  0  0
    1.9963   -5.6192    0.0000 C    0  0  0  0  0  0  0  0  0  0  0  0
    0.6654   -5.6192    0.0000 C    0  0  0  0  0  0  0  0  0  0  0  0
    0.0000   -4.4679    0.0000 C    0  0  0  0  0  0  0  0  0  0  0  0
    0.6654   -3.3166    0.0000 C    0  0  0  0  0  0  0  0  0  0  0  0
    1.9963   -3.3166    0.0000 C    0  0  0  0  0  0  0  0  0  0  0  0
    3.9926   -3.1371    0.0000 C    0  0  0  0  0  0  0  0  0  0  0  0
    2.8413   -2.4716    0.0000 C    0  0  0  0  0  0  0  0  0  0  0  0
    2.8413   -1.1407    0.0000 C    0  0  0  0  0  0  0  0  0  0  0  0
    3.9926   -0.4753    0.0000 C    0  0  0  0  0  0  0  0  0  0  0  0
    5.1439   -1.1407    0.0000 C    0  0  0  0  0  0  0  0  0  0  0  0
    5.1439   -2.4716    0.0000 C    0  0  0  0  0  0  0  0  0  0  0  0
    7.9852   -2.1653    0.0000 C    0  0  0  0  0  0  0  0  0  0  0  0
    9.3161   -2.1653    0.0000 N    0  3  0  0  0  0  0  0  0  0  0  0
   10.5625   -1.7111    0.0000 C    0  0  0  0  0  0  0  0  0  0  0  0
    9.0837   -0.8556    0.0000 C    0  0  0  0  0  0  0  0  0  0  0  0
   10.0977    0.0000    0.0000 C    0  0  0  0  0  0  0  0  0  0  0  0
    5.3235   -7.1297    0.0000 Br   0  5  0  0  0  0  0  0  0  0  0  0
  1  2  1  0  0  0  0
  1 23  1  0  0  0  0
  2  3  1  0  0  0  0
  3  4  1  0  0  0  0
  4  5  1  0  0  0  0
  4 22  1  0  0  0  0
  5  6  1  0  0  0  0
  6  7  2  0  0  0  0
  6  8  1  0  0  0  0
  8  9  1  0  0  0  0
  8 10  1  0  0  0  0
  8 16  1  0  0  0  0
 10 11  2  0  0  0  0
 10 15  1  0  0  0  0
 11 12  1  0  0  0  0
 12 13  2  0  0  0  0
 13 14  1  0  0  0  0
 14 15  2  0  0  0  0
 16 17  2  0  0  0  0
 16 21  1  0  0  0  0
 17 18  1  0  0  0  0
 18 19  2  0  0  0  0
 19 20  1  0  0  0  0
 20 21  2  0  0  0  0
 22 23  1  0  0  0  0
 23 24  1  0  0  0  0
 23 25  1  0  0  0  0
 25 26  1  0  0  0  0
M  END
> <ID>
3119

> <Formula>
C22H28BrNO3

> <FW>
434.3666 (354.4621+79.9045)

> <DSSTox_CID>
3480

> <DSSTox_RID>
77046

> <DSSTox_GSID>
23480

> <DSSTox_FileID_Sort>
1729

> <TS_ChemName>
Pipenzolate bromide

> <TS_ChemName_Synonyms>


> <TS_CASRN>
125-51-9

> <CASRN_ChemName_Relationship>
primary

> <TS_Description>
single chemical compound

> <ChemNote>
ammonium; parent [13473-38-6]

> <STRUCTURE_Shown>
tested chemical

> <STRUCTURE_Formula>
C22H28BrNO3

> <STRUCTURE_MW>
434.3666

> <STRUCTURE_ChemType>
defined organic

> <STRUCTURE_DefinedOrganicForm>
salt

> <STRUCTURE_IUPAC>
1-ethyl-3-{[hydroxy(diphenyl)acetyl]oxy}-1-methylpiperidinium bromide

> <STRUCTURE_SMILES>
[Br-].O=C(OC1CCC[N+](C)(CC)C1)C(O)(c2ccccc2)c3ccccc3

> <STRUCTURE_SMILES_Desalt>
O=C(OC1CCC[N+](C)(CC)C1)C(O)(c2ccccc2)c3ccccc3

> <Substance_modify_yyyymmdd>
20080429

$$$$
