125-33-7
ChemmineR-0915142007XD

 16 17  0  0  0  0  0  0  0  0  1 V2000
    2.3032   -0.6663    0.0000 C   0  0  0  0  0  0  0  0  0  0  0  0
    3.4577    0.0000    0.0000 O   0  0  0  0  0  0  0  0  0  0  0  0
    2.3032   -1.9931    0.0000 C   0  0  0  0  0  0  0  0  0  0  0  0
    2.7570   -3.2452    0.0000 C   0  0  0  0  0  0  0  0  0  0  0  0
    4.0665   -3.4749    0.0000 C   0  0  0  0  0  0  0  0  0  0  0  0
    4.5203   -4.7271    0.0000 C   0  0  0  0  0  0  0  0  0  0  0  0
    3.6702   -5.7437    0.0000 C   0  0  0  0  0  0  0  0  0  0  0  0
    2.3607   -5.5140    0.0000 C   0  0  0  0  0  0  0  0  0  0  0  0
    1.9012   -4.2618    0.0000 C   0  0  0  0  0  0  0  0  0  0  0  0
    3.6128   -1.7633    0.0000 C   0  0  0  0  0  0  0  0  0  0  0  0
    4.4686   -2.7800    0.0000 C   0  0  0  0  0  0  0  0  0  0  0  0
    1.1545   -2.6593    0.0000 C   0  0  0  0  0  0  0  0  0  0  0  0
    1.1545   -3.9919    0.0000 O   0  0  0  0  0  0  0  0  0  0  0  0
    0.0000   -1.9931    0.0000 N   0  0  0  0  0  0  0  0  0  0  0  0
    0.0000   -0.6663    0.0000 C   0  0  0  0  0  0  0  0  0  0  0  0
    1.1545    0.0000    0.0000 N   0  0  0  0  0  0  0  0  0  0  0  0
  1  2  2  0  0  0  0
  1  3  1  0  0  0  0
  1 16  1  0  0  0  0
  3  4  1  0  0  0  0
  3 10  1  0  0  0  0
  3 12  1  0  0  0  0
  4  5  2  0  0  0  0
  4  9  1  0  0  0  0
  5  6  1  0  0  0  0
  6  7  2  0  0  0  0
  7  8  1  0  0  0  0
  8  9  2  0  0  0  0
 10 11  1  0  0  0  0
 12 13  2  0  0  0  0
 12 14  1  0  0  0  0
 14 15  1  0  0  0  0
 15 16  1  0  0  0  0
M  END
> <ID>
3144

> <Formula>
C12H14N2O2

> <FW>
218.2518

> <DSSTox_CID>
3510

> <DSSTox_RID>
77058

> <DSSTox_GSID>
23510

> <DSSTox_FileID_Sort>
1741

> <TS_ChemName>
Primidone

> <TS_ChemName_Synonyms>
Primidone (primaclone)

> <TS_CASRN>
125-33-7

> <CASRN_ChemName_Relationship>
primary

> <TS_Description>
single chemical compound

> <ChemNote>


> <STRUCTURE_Shown>
tested chemical

> <STRUCTURE_Formula>
C12H14N2O2

> <STRUCTURE_MW>
218.2518

> <STRUCTURE_ChemType>
defined organic

> <STRUCTURE_DefinedOrganicForm>
parent

> <STRUCTURE_IUPAC>
5-ethyl-5-phenyldihydropyrimidine-4,6(1H,5H)-dione

> <STRUCTURE_SMILES>
CCC1(C(=O)NCNC1=O)c2ccccc2

> <STRUCTURE_SMILES_Desalt>
CCC1(C(=O)NCNC1=O)c2ccccc2

> <Substance_modify_yyyymmdd>
20080429

$$$$
