125-31-5
ChemmineR-0915142007XD

 29 32  0  0  0  0  0  0  0  0  1 V2000
    5.2938   -1.3166    0.0000 C   0  0  0  0  0  0  0  0  0  0  0  0
    4.1522   -1.9794    0.0000 C   0  0  0  0  0  0  0  0  0  0  0  0
    4.1522   -3.2960    0.0000 C   0  0  0  0  0  0  0  0  0  0  0  0
    3.0106   -3.9589    0.0000 C   0  0  0  0  0  0  0  0  0  0  0  0
    1.8690   -3.2960    0.0000 C   0  0  0  0  0  0  0  0  0  0  0  0
    0.7273   -3.9589    0.0000 C   0  0  0  0  0  0  0  0  0  0  0  0
    1.8690   -1.9794    0.0000 C   0  0  0  0  0  0  0  0  0  0  0  0
    3.0106   -1.3166    0.0000 C   0  0  0  0  0  0  0  0  0  0  0  0
    3.0106    0.0000    0.0000 O   0  0  0  0  0  0  0  0  0  0  0  0
    3.0106   -5.2754    0.0000 C   0  0  0  0  0  0  0  0  0  0  0  0
    1.7309   -5.0269    0.0000 O   0  0  0  0  0  0  0  0  0  0  0  0
    1.0680   -6.1685    0.0000 S   0  0  0  0  0  0  0  0  0  0  0  0
    0.2118   -7.1720    0.0000 O   0  0  0  0  0  0  0  0  0  0  0  0
    0.0000   -5.4135    0.0000 O   0  0  0  0  0  0  0  0  0  0  0  0
    2.0071   -7.1076    0.0000 C   0  0  0  0  0  0  0  0  0  0  0  0
    3.1763   -6.5828    0.0000 C   0  0  0  0  0  0  0  0  0  0  0  0
    4.2535   -7.3377    0.0000 C   0  0  0  0  0  0  0  0  0  0  0  0
    4.1338   -8.6451    0.0000 C   0  0  0  0  0  0  0  0  0  0  0  0
    2.9461   -9.2067    0.0000 C   0  0  0  0  0  0  0  0  0  0  0  0
    1.8598   -8.4517    0.0000 C   0  0  0  0  0  0  0  0  0  0  0  0
    4.6954   -4.9440    0.0000 C   0  0  0  0  0  0  0  0  0  0  0  0
    5.7266   -5.7726    0.0000 C   0  0  0  0  0  0  0  0  0  0  0  0
    5.7266   -7.0891    0.0000 C   0  0  0  0  0  0  0  0  0  0  0  0
    6.9510   -5.3031    0.0000 C   0  0  0  0  0  0  0  0  0  0  0  0
    7.1536   -4.0049    0.0000 C   0  0  0  0  0  0  0  0  0  0  0  0
    8.3873   -3.5262    0.0000 O   0  0  0  0  0  0  0  0  0  0  0  0
    6.1317   -3.1671    0.0000 C   0  0  0  0  0  0  0  0  0  0  0  0
    4.8980   -3.6458    0.0000 C   0  0  0  0  0  0  0  0  0  0  0  0
    6.3342   -1.8690    0.0000 C   0  0  0  0  0  0  0  0  0  0  0  0
  1  2  1  0  0  0  0
  2  3  2  0  0  0  0
  2  8  1  0  0  0  0
  3  4  1  0  0  0  0
  4  5  2  0  0  0  0
  4 10  1  0  0  0  0
  5  6  1  0  0  0  0
  5  7  1  0  0  0  0
  7  8  2  0  0  0  0
  8  9  1  0  0  0  0
 10 11  1  0  0  0  0
 10 16  1  0  0  0  0
 10 21  1  0  0  0  0
 11 12  1  0  0  0  0
 12 13  2  0  0  0  0
 12 14  2  0  0  0  0
 12 15  1  0  0  0  0
 15 16  2  0  0  0  0
 15 20  1  0  0  0  0
 16 17  1  0  0  0  0
 17 18  2  0  0  0  0
 18 19  1  0  0  0  0
 19 20  2  0  0  0  0
 21 22  2  0  0  0  0
 21 28  1  0  0  0  0
 22 23  1  0  0  0  0
 22 24  1  0  0  0  0
 24 25  2  0  0  0  0
 25 26  1  0  0  0  0
 25 27  1  0  0  0  0
 27 28  2  0  0  0  0
 27 29  1  0  0  0  0
M  END
> <ID>
4642

> <Formula>
C23H22O5S

> <FW>
410.4828

> <DSSTox_CID>
6303

> <DSSTox_RID>
78093

> <DSSTox_GSID>
26303

> <DSSTox_FileID_Sort>
2776

> <TS_ChemName>
p-Xylenol blue

> <TS_ChemName_Synonyms>


> <TS_CASRN>
125-31-5

> <CASRN_ChemName_Relationship>
primary

> <TS_Description>
single chemical compound

> <ChemNote>


> <STRUCTURE_Shown>
tested chemical

> <STRUCTURE_Formula>
C23H22O5S

> <STRUCTURE_MW>
410.4828

> <STRUCTURE_ChemType>
defined organic

> <STRUCTURE_DefinedOrganicForm>
parent

> <STRUCTURE_IUPAC>
4,4'-(1,1-dioxido-3H-2,1-benzoxathiole-3,3-diyl)bis(2,5-dimethylphenol)

> <STRUCTURE_SMILES>
Cc1cc(c(C)cc1O)C3(OS(=O)(=O)c2ccccc23)c4cc(C)c(O)cc4C

> <STRUCTURE_SMILES_Desalt>
Cc1cc(c(C)cc1O)C3(OS(=O)(=O)c2ccccc23)c4cc(C)c(O)cc4C

> <Substance_modify_yyyymmdd>
20080429

$$$$
