125-86-0
ChemmineR-0915142007XD

 52 53  0  0  0  0  0  0  0  0  1 V2000
    3.7020   -6.3144    0.0000 C   0  0  0  0  0  0  0  0  0  0  0  0
    4.8515   -6.9861    0.0000 C   0  0  0  0  0  0  0  0  0  0  0  0
    2.5526   -6.9861    0.0000 S   0  0  0  0  0  0  0  0  0  0  0  0
    1.3883   -7.6429    0.0000 O   0  0  0  0  0  0  0  0  0  0  0  0
    3.2244   -8.1355    0.0000 O   0  0  0  0  0  0  0  0  0  0  0  0
    1.8958   -5.8367    0.0000 O   0  0  0  0  0  0  0  0  0  0  0  0
    6.0009   -6.3144    0.0000 S   0  0  0  0  0  0  0  0  0  0  0  0
    6.6577   -7.4638    0.0000 O   0  0  0  0  0  0  0  0  0  0  0  0
    5.3291   -5.1799    0.0000 O   0  0  0  0  0  0  0  0  0  0  0  0
    7.1652   -5.6576    0.0000 O   0  0  0  0  0  0  0  0  0  0  0  0
    1.1494  -10.1209    0.0000 C   0  0  0  0  0  0  0  0  0  0  0  0
    2.3138  -10.7777    0.0000 C   0  0  0  0  0  0  0  0  0  0  0  0
    2.3138  -12.1063    0.0000 N   0  0  0  0  0  0  0  0  0  0  0  0
    1.1494  -12.7780    0.0000 C   0  0  0  0  0  0  0  0  0  0  0  0
    0.0000  -12.1063    0.0000 C   0  0  0  0  0  0  0  0  0  0  0  0
    3.4632  -12.7780    0.0000 C   0  0  0  0  0  0  0  0  0  0  0  0
    4.6126  -12.1063    0.0000 C   0  0  0  0  0  0  0  0  0  0  0  0
    5.7471  -12.7780    0.0000 O   0  0  0  0  0  0  0  0  0  0  0  0
    6.8965  -12.1063    0.0000 C   0  0  0  0  0  0  0  0  0  0  0  0
    6.8965  -10.7926    0.0000 O   0  0  0  0  0  0  0  0  0  0  0  0
    8.0609  -12.7780    0.0000 C   0  0  0  0  0  0  0  0  0  0  0  0
    7.3891  -13.9125    0.0000 C   0  0  0  0  0  0  0  0  0  0  0  0
    8.2699  -14.9276    0.0000 C   0  0  0  0  0  0  0  0  0  0  0  0
    9.4790  -14.3902    0.0000 C   0  0  0  0  0  0  0  0  0  0  0  0
    9.3596  -13.0467    0.0000 C   0  0  0  0  0  0  0  0  0  0  0  0
    8.5535  -11.5689    0.0000 C   0  0  0  0  0  0  0  0  0  0  0  0
    9.8522  -11.3748    0.0000 C   0  0  0  0  0  0  0  0  0  0  0  0
   10.3448  -10.1358    0.0000 C   0  0  0  0  0  0  0  0  0  0  0  0
    9.5238   -9.0760    0.0000 C   0  0  0  0  0  0  0  0  0  0  0  0
    8.2102   -9.2700    0.0000 C   0  0  0  0  0  0  0  0  0  0  0  0
    7.7176  -10.5090    0.0000 C   0  0  0  0  0  0  0  0  0  0  0  0
    2.2839   -1.0449    0.0000 C   0  0  0  0  0  0  0  0  0  0  0  0
    3.4483   -1.7017    0.0000 C   0  0  0  0  0  0  0  0  0  0  0  0
    3.4483   -3.0303    0.0000 N   0  0  0  0  0  0  0  0  0  0  0  0
    2.2839   -3.7020    0.0000 C   0  0  0  0  0  0  0  0  0  0  0  0
    1.1345   -3.0303    0.0000 C   0  0  0  0  0  0  0  0  0  0  0  0
    4.5977   -3.7020    0.0000 C   0  0  0  0  0  0  0  0  0  0  0  0
    5.7471   -3.0303    0.0000 C   0  0  0  0  0  0  0  0  0  0  0  0
    6.8816   -3.7020    0.0000 O   0  0  0  0  0  0  0  0  0  0  0  0
    8.0460   -3.0303    0.0000 C   0  0  0  0  0  0  0  0  0  0  0  0
    8.0460   -1.7167    0.0000 O   0  0  0  0  0  0  0  0  0  0  0  0
    9.1954   -3.7020    0.0000 C   0  0  0  0  0  0  0  0  0  0  0  0
    8.5236   -4.8365    0.0000 C   0  0  0  0  0  0  0  0  0  0  0  0
    9.4044   -5.8516    0.0000 C   0  0  0  0  0  0  0  0  0  0  0  0
   10.6135   -5.2993    0.0000 C   0  0  0  0  0  0  0  0  0  0  0  0
   10.4941   -3.9707    0.0000 C   0  0  0  0  0  0  0  0  0  0  0  0
    9.6880   -2.4780    0.0000 C   0  0  0  0  0  0  0  0  0  0  0  0
   10.9867   -2.2839    0.0000 C   0  0  0  0  0  0  0  0  0  0  0  0
   11.4793   -1.0599    0.0000 C   0  0  0  0  0  0  0  0  0  0  0  0
   10.6732    0.0000    0.0000 C   0  0  0  0  0  0  0  0  0  0  0  0
    9.3596   -0.1941    0.0000 C   0  0  0  0  0  0  0  0  0  0  0  0
    8.8521   -1.4181    0.0000 C   0  0  0  0  0  0  0  0  0  0  0  0
  1  2  1  0  0  0  0
  1  3  1  0  0  0  0
  2  7  1  0  0  0  0
  3  4  2  0  0  0  0
  3  5  1  0  0  0  0
  3  6  2  0  0  0  0
  7  8  2  0  0  0  0
  7  9  1  0  0  0  0
  7 10  2  0  0  0  0
 11 12  1  0  0  0  0
 12 13  1  0  0  0  0
 13 14  1  0  0  0  0
 13 16  1  0  0  0  0
 14 15  1  0  0  0  0
 16 17  1  0  0  0  0
 17 18  1  0  0  0  0
 18 19  1  0  0  0  0
 19 20  2  0  0  0  0
 19 21  1  0  0  0  0
 21 22  1  0  0  0  0
 21 25  1  0  0  0  0
 21 26  1  0  0  0  0
 22 23  1  0  0  0  0
 23 24  1  0  0  0  0
 24 25  1  0  0  0  0
 26 27  2  0  0  0  0
 26 31  1  0  0  0  0
 27 28  1  0  0  0  0
 28 29  2  0  0  0  0
 29 30  1  0  0  0  0
 30 31  2  0  0  0  0
 32 33  1  0  0  0  0
 33 34  1  0  0  0  0
 34 35  1  0  0  0  0
 34 37  1  0  0  0  0
 35 36  1  0  0  0  0
 37 38  1  0  0  0  0
 38 39  1  0  0  0  0
 39 40  1  0  0  0  0
 40 41  2  0  0  0  0
 40 42  1  0  0  0  0
 42 43  1  0  0  0  0
 42 46  1  0  0  0  0
 42 47  1  0  0  0  0
 43 44  1  0  0  0  0
 44 45  1  0  0  0  0
 45 46  1  0  0  0  0
 47 48  2  0  0  0  0
 47 52  1  0  0  0  0
 48 49  1  0  0  0  0
 49 50  2  0  0  0  0
 50 51  1  0  0  0  0
 51 52  2  0  0  0  0
M  END
> <ID>
12914

> <Formula>
C38H60N2O10S2

> <FW>
769.0204 (190.1954+289.4125+289.4125)

> <DSSTox_CID>
27811

> <DSSTox_RID>
82578

> <DSSTox_GSID>
47835

> <DSSTox_FileID_Sort>
7255

> <TS_ChemName>
Caramiphen edisylate

> <TS_ChemName_Synonyms>


> <TS_CASRN>
125-86-0

> <CASRN_ChemName_Relationship>
primary

> <TS_Description>
single chemical compound

> <ChemNote>
parent [77-22-5]

> <STRUCTURE_Shown>
tested chemical

> <STRUCTURE_Formula>
C38H60N2O10S2

> <STRUCTURE_MW>
769.0204

> <STRUCTURE_ChemType>
defined organic

> <STRUCTURE_DefinedOrganicForm>
complex

> <STRUCTURE_IUPAC>
ethane-1,2-disulfonic acid - 2-(diethylamino)ethyl 1-phenylcyclopentanecarboxylate (1:2)

> <STRUCTURE_SMILES>
O=S(=O)(O)CCS(=O)(=O)O.CCN(CC)CCOC(=O)C1(CCCC1)c2ccccc2.CCN(CCOC(=O)C1(CCCC1)c2ccccc2)CC

> <STRUCTURE_SMILES_Desalt>
CCN(CCOC(=O)C1(CCCC1)c2ccccc2)CC

> <Substance_modify_yyyymmdd>
20110809

$$$$
