125-12-2
ChemmineR-0915142007XD

 14 15  0  0  1  0  0  0  0  0  1 V2000
    0.0000   -3.9330    0.0000 C   0  0  0  0  0  0  0  0  0  0  0  0
    0.5593   -2.9144    0.0000 C   0  0  0  0  0  0  0  0  0  0  0  0
    1.5485   -2.2138    0.0000 C   0  0  0  0  0  0  0  0  0  0  0  0
    1.1834   -3.3207    0.0000 C   0  0  0  0  0  0  0  0  0  0  0  0
    1.1658   -0.9538    0.0000 C   0  0  0  0  0  0  0  0  0  0  0  0
    2.7613   -2.9262    0.0000 C   0  0  0  0  0  0  0  0  0  0  0  0
    2.3080   -3.8977    0.0000 C   0  0  0  0  0  0  0  0  0  0  0  0
    1.9724    0.0000    0.0000 C   0  0  0  0  0  0  0  0  0  0  0  0
    0.2591   -0.0883    0.0000 C   0  0  0  0  0  0  0  0  0  0  0  0
    1.1834   -4.5806    0.0000 C   0  0  0  0  0  0  0  0  0  0  0  0
    3.5680   -3.7152    0.0000 O   0  0  0  0  0  0  0  0  0  0  0  0
    4.3393   -4.7220    0.0000 C   0  0  0  0  0  0  0  0  0  0  0  0
    5.5816   -4.5394    0.0000 O   0  0  0  0  0  0  0  0  0  0  0  0
    3.8682   -5.8877    0.0000 C   0  0  0  0  0  0  0  0  0  0  0  0
  1  2  1  0  0  0  0
  1  4  1  0  0  0  0
  2  3  1  0  0  0  0
  3  5  1  1  0  0  0
  3  6  1  0  0  0  0
  4  5  1  1  0  0  0
  4  7  1  0  0  0  0
  4 10  1  0  0  0  0
  5  8  1  0  0  0  0
  5  9  1  0  0  0  0
  6  7  1  0  0  0  0
  7 11  1  1  0  0  0
 11 12  1  0  0  0  0
 12 13  2  0  0  0  0
 12 14  1  0  0  0  0
M  END
> <ID>
8993

> <Formula>
C12H20O2

> <FW>
196.286

> <DSSTox_CID>
22061

> <DSSTox_RID>
79911

> <DSSTox_GSID>
42061

> <DSSTox_FileID_Sort>
4593

> <TS_ChemName>
Isobornyl acetate

> <TS_ChemName_Synonyms>


> <TS_CASRN>
125-12-2

> <CASRN_ChemName_Relationship>
primary

> <TS_Description>
single chemical compound

> <ChemNote>
stereochem

> <STRUCTURE_Shown>
tested chemical

> <STRUCTURE_Formula>
C12H20O2

> <STRUCTURE_MW>
196.286

> <STRUCTURE_ChemType>
defined organic

> <STRUCTURE_DefinedOrganicForm>
parent

> <STRUCTURE_IUPAC>
(1R,2R,4R)-1,7,7-trimethylbicyclo[2.2.1]hept-2-yl acetate

> <STRUCTURE_SMILES>
CC(=O)O[C@@H]1C[C@H]2CC[C@]1(C)C2(C)C

> <STRUCTURE_SMILES_Desalt>
CC(=O)O[C@@H]1C[C@H]2CC[C@]1(C)C2(C)C

> <Substance_modify_yyyymmdd>
20080825

$$$$
