125-13-3
ChemmineR-0915142007XD

 24 27  0  0  0  0  0  0  0  0  1 V2000
    0.0000   -2.0940    0.0000 C   0  0  0  0  0  0  0  0  0  0  0  0
    1.1458   -1.4302    0.0000 C   0  0  0  0  0  0  0  0  0  0  0  0
    2.2994   -2.0940    0.0000 C   0  0  0  0  0  0  0  0  0  0  0  0
    2.2994   -3.4136    0.0000 C   0  0  0  0  0  0  0  0  0  0  0  0
    1.1458   -4.0852    0.0000 C   0  0  0  0  0  0  0  0  0  0  0  0
    0.0000   -3.4136    0.0000 C   0  0  0  0  0  0  0  0  0  0  0  0
    1.4302   -5.3890    0.0000 N   0  0  0  0  0  0  0  0  0  0  0  0
    2.7498   -5.5233    0.0000 C   0  0  0  0  0  0  0  0  0  0  0  0
    3.4294   -6.6770    0.0000 O   0  0  0  0  0  0  0  0  0  0  0  0
    3.3029   -4.3144    0.0000 C   0  0  0  0  0  0  0  0  0  0  0  0
    4.0694   -3.2318    0.0000 C   0  0  0  0  0  0  0  0  0  0  0  0
    3.5400   -2.0308    0.0000 C   0  0  0  0  0  0  0  0  0  0  0  0
    4.3302   -0.9324    0.0000 C   0  0  0  0  0  0  0  0  0  0  0  0
    5.6340   -1.0825    0.0000 C   0  0  0  0  0  0  0  0  0  0  0  0
    6.4241    0.0000    0.0000 O   0  0  0  0  0  0  0  0  0  0  0  0
    6.1792   -2.2836    0.0000 C   0  0  0  0  0  0  0  0  0  0  0  0
    5.4048   -3.3661    0.0000 C   0  0  0  0  0  0  0  0  0  0  0  0
    4.4408   -4.9702    0.0000 C   0  0  0  0  0  0  0  0  0  0  0  0
    5.6023   -4.3144    0.0000 C   0  0  0  0  0  0  0  0  0  0  0  0
    6.7560   -4.9702    0.0000 C   0  0  0  0  0  0  0  0  0  0  0  0
    6.7560   -6.3056    0.0000 C   0  0  0  0  0  0  0  0  0  0  0  0
    7.9018   -6.9694    0.0000 O   0  0  0  0  0  0  0  0  0  0  0  0
    5.6023   -6.9694    0.0000 C   0  0  0  0  0  0  0  0  0  0  0  0
    4.4408   -6.3056    0.0000 C   0  0  0  0  0  0  0  0  0  0  0  0
  1  2  2  0  0  0  0
  1  6  1  0  0  0  0
  2  3  1  0  0  0  0
  3  4  2  0  0  0  0
  4  5  1  0  0  0  0
  4 10  1  0  0  0  0
  5  6  2  0  0  0  0
  5  7  1  0  0  0  0
  7  8  1  0  0  0  0
  8  9  2  0  0  0  0
  8 10  1  0  0  0  0
 10 11  1  0  0  0  0
 10 18  1  0  0  0  0
 11 12  2  0  0  0  0
 11 17  1  0  0  0  0
 12 13  1  0  0  0  0
 13 14  2  0  0  0  0
 14 15  1  0  0  0  0
 14 16  1  0  0  0  0
 16 17  2  0  0  0  0
 18 19  2  0  0  0  0
 18 24  1  0  0  0  0
 19 20  1  0  0  0  0
 20 21  2  0  0  0  0
 21 22  1  0  0  0  0
 21 23  1  0  0  0  0
 23 24  2  0  0  0  0
M  END
> <ID>
10182

> <Formula>
C20H15NO3

> <FW>
317.338

> <DSSTox_CID>
24528

> <DSSTox_RID>
80294

> <DSSTox_GSID>
44528

> <DSSTox_FileID_Sort>
4976

> <TS_ChemName>
Oxyphenisatin

> <TS_ChemName_Synonyms>


> <TS_CASRN>
125-13-3

> <CASRN_ChemName_Relationship>
primary

> <TS_Description>
single chemical compound

> <ChemNote>


> <STRUCTURE_Shown>
tested chemical

> <STRUCTURE_Formula>
C20H15NO3

> <STRUCTURE_MW>
317.338

> <STRUCTURE_ChemType>
defined organic

> <STRUCTURE_DefinedOrganicForm>
parent

> <STRUCTURE_IUPAC>
3,3-bis(4-hydroxyphenyl)-1,3-dihydro-2H-indol-2-one

> <STRUCTURE_SMILES>
Oc1ccc(cc1)C2(c3ccccc3NC2=O)c4ccc(O)cc4

> <STRUCTURE_SMILES_Desalt>
Oc1ccc(cc1)C2(c3ccccc3NC2=O)c4ccc(O)cc4

> <Substance_modify_yyyymmdd>
20091116

$$$$
