125-65-5
ChemmineR-0915142007XD

 27 29  0  0  0  0  0  0  0  0  1 V2000
    5.7482   -2.8559    0.0000 C   0  0  0  0  0  0  0  0  0  0  0  0
    3.7989   -3.1461    0.0000 C   0  0  0  0  0  0  0  0  0  0  0  0
    4.4154   -1.9493    0.0000 C   0  0  0  0  0  0  0  0  0  0  0  0
    4.2250   -4.4335    0.0000 C   0  0  0  0  0  0  0  0  0  0  0  0
    5.4308   -5.0319    0.0000 C   0  0  0  0  0  0  0  0  0  0  0  0
    5.6847   -1.5413    0.0000 C   0  0  0  0  0  0  0  0  0  0  0  0
    6.6911   -4.6148    0.0000 C   0  0  0  0  0  0  0  0  0  0  0  0
    6.8905   -2.1397    0.0000 C   0  0  0  0  0  0  0  0  0  0  0  0
    3.5450   -0.9248    0.0000 O   0  0  0  0  0  0  0  0  0  0  0  0
    2.1941   -1.1696    0.0000 C   0  0  0  0  0  0  0  0  0  0  0  0
    1.7680   -2.4480    0.0000 O   0  0  0  0  0  0  0  0  0  0  0  0
    1.3328   -0.1632    0.0000 C   0  0  0  0  0  0  0  0  0  0  0  0
    0.0000   -0.3989    0.0000 O   0  0  0  0  0  0  0  0  0  0  0  0
    5.7844   -0.1904    0.0000 C   0  0  0  0  0  0  0  0  0  0  0  0
    2.9375   -4.8596    0.0000 C   0  0  0  0  0  0  0  0  0  0  0  0
    3.9439   -5.7482    0.0000 C   0  0  0  0  0  0  0  0  0  0  0  0
    2.6655   -6.1743    0.0000 C   0  0  0  0  0  0  0  0  0  0  0  0
    5.3130   -6.3828    0.0000 O   0  0  0  0  0  0  0  0  0  0  0  0
    7.5705   -5.6484    0.0000 C   0  0  0  0  0  0  0  0  0  0  0  0
    7.9785   -1.3418    0.0000 C   0  0  0  0  0  0  0  0  0  0  0  0
    9.0665   -2.1397    0.0000 C   0  0  0  0  0  0  0  0  0  0  0  0
    8.6404   -3.4090    0.0000 C   0  0  0  0  0  0  0  0  0  0  0  0
    7.9785    0.0000    0.0000 O   0  0  0  0  0  0  0  0  0  0  0  0
    7.2985   -3.4090    0.0000 C   0  0  0  0  0  0  0  0  0  0  0  0
    6.3556   -4.2703    0.0000 C   0  0  0  0  0  0  0  0  0  0  0  0
    4.8052   -2.8106    0.0000 C   0  0  0  0  0  0  0  0  0  0  0  0
    5.2314   -4.0890    0.0000 C   0  0  0  0  0  0  0  0  0  0  0  0
  1 26  1  0  0  0  0
  2  3  1  0  0  0  0
  2  4  1  0  0  0  0
  3  6  1  0  0  0  0
  3  9  1  0  0  0  0
  4  5  1  0  0  0  0
  4 15  1  0  0  0  0
  4 16  1  0  0  0  0
  5  7  1  0  0  0  0
  5 18  1  0  0  0  0
  6 14  1  0  0  0  0
  6  8  1  0  0  0  0
  6 26  1  0  0  0  0
  7 24  1  0  0  0  0
  7 19  1  0  0  0  0
  8 20  1  0  0  0  0
  8 24  1  0  0  0  0
  9 10  1  0  0  0  0
 10 11  2  0  0  0  0
 10 12  1  0  0  0  0
 12 13  1  0  0  0  0
 16 17  2  0  0  0  0
 20 21  1  0  0  0  0
 20 23  2  0  0  0  0
 21 22  1  0  0  0  0
 22 24  1  0  0  0  0
 24 25  1  0  0  0  0
 25 27  1  0  0  0  0
 26 27  1  0  0  0  0
M  END
> <ID>
13712

> <Formula>
C22H34O5

> <FW>
378.5024

> <DSSTox_CID>
28646

> <DSSTox_RID>
82916

> <DSSTox_GSID>
48720

> <DSSTox_FileID_Sort>
7593

> <TS_ChemName>
Pleuromutilin

> <TS_ChemName_Synonyms>


> <TS_CASRN>
125-65-5

> <CASRN_ChemName_Relationship>
primary

> <TS_Description>
single chemical compound

> <ChemNote>


> <STRUCTURE_Shown>
tested chemical

> <STRUCTURE_Formula>
C22H34O5

> <STRUCTURE_MW>
378.5024

> <STRUCTURE_ChemType>
defined organic

> <STRUCTURE_DefinedOrganicForm>
parent

> <STRUCTURE_IUPAC>
6-ethenyl-5-hydroxy-4,6,9,10-tetramethyl-1-oxodecahydro-3a,9-propanocyclopenta[8]annulen-8-yl hydroxyacetate

> <STRUCTURE_SMILES>
OCC(=O)OC3CC(C)(C=C)C(O)C(C)C21CCC(=O)C1C3(C)C(C)CC2

> <STRUCTURE_SMILES_Desalt>
OCC(=O)OC3CC(C)(C=C)C(O)C(C)C21CCC(=O)C1C3(C)C(C)CC2

> <Substance_modify_yyyymmdd>
20111204

$$$$
