125116-23-6
ChemmineR-0915142007XD

 22 24  0  0  0  0  0  0  0  0  1 V2000
    5.6732   -4.7779    0.0000 C    0  0  0  0  0  0  0  0  0  0  0  0
    5.2742   -6.0430    0.0000 C    0  0  0  0  0  0  0  0  0  0  0  0
    3.9411   -6.0430    0.0000 C    0  0  0  0  0  0  0  0  0  0  0  0
    3.5226   -4.7779    0.0000 C    0  0  0  0  0  0  0  0  0  0  0  0
    4.6028   -3.9897    0.0000 C    0  0  0  0  0  0  0  0  0  0  0  0
    6.5685   -3.7854    0.0000 O    0  0  0  0  0  0  0  0  0  0  0  0
    4.6028   -2.6663    0.0000 C    0  0  0  0  0  0  0  0  0  0  0  0
    3.4448   -2.0046    0.0000 C    0  0  0  0  0  0  0  0  0  0  0  0
    2.2965   -2.6663    0.0000 C    0  0  0  0  0  0  0  0  0  0  0  0
    3.4448   -0.6714    0.0000 C    0  0  0  0  0  0  0  0  0  0  0  0
    1.1580   -2.0046    0.0000 C    0  0  0  0  0  0  0  0  0  0  0  0
    2.2965    0.0000    0.0000 C    0  0  0  0  0  0  0  0  0  0  0  0
    1.1580   -0.6714    0.0000 C    0  0  0  0  0  0  0  0  0  0  0  0
    0.0000    0.0000    0.0000 Cl   0  0  0  0  0  0  0  0  0  0  0  0
    6.4809   -6.5879    0.0000 C    0  0  0  0  0  0  0  0  0  0  0  0
    5.4007   -7.3761    0.0000 C    0  0  0  0  0  0  0  0  0  0  0  0
    6.9869   -5.0504    0.0000 C    0  0  0  0  0  0  0  0  0  0  0  0
    7.8724   -4.0773    0.0000 N    0  0  0  0  0  0  0  0  0  0  0  0
    7.5999   -2.7733    0.0000 N    0  0  0  0  0  0  0  0  0  0  0  0
    8.7579   -2.1019    0.0000 C    0  0  0  0  0  0  0  0  0  0  0  0
    9.7310   -2.9972    0.0000 N    0  0  0  0  0  0  0  0  0  0  0  0
    9.2056   -4.2038    0.0000 C    0  0  0  0  0  0  0  0  0  0  0  0
  1  2  1  0  0  0  0
  1  5  1  0  0  0  0
  1  6  1  0  0  0  0
  1 17  1  0  0  0  0
  2  3  1  0  0  0  0
  2 15  1  0  0  0  0
  2 16  1  0  0  0  0
  3  4  1  0  0  0  0
  4  5  1  0  0  0  0
  5  7  1  0  0  0  0
  7  8  1  0  0  0  0
  8  9  2  0  0  0  0
  8 10  1  0  0  0  0
  9 11  1  0  0  0  0
 10 12  2  0  0  0  0
 11 13  2  0  0  0  0
 12 13  1  0  0  0  0
 13 14  1  0  0  0  0
 17 18  1  0  0  0  0
 18 19  1  0  0  0  0
 18 22  1  0  0  0  0
 19 20  2  0  0  0  0
 20 21  1  0  0  0  0
 21 22  2  0  0  0  0
M  END
> <ID>
6811

> <Formula>
C17H22ClN3O

> <FW>
319.8291

> <DSSTox_CID>
14497

> <DSSTox_RID>
79159

> <DSSTox_GSID>
34497

> <DSSTox_FileID_Sort>
3841

> <TS_ChemName>
Metconazole

> <TS_ChemName_Synonyms>
Metconazole (Cyclopentanol, 5-[(4-chlorophenyl)methyl]-2,2-dimethyl-1-(1H-1,2,4-trizol-1-ylmethyl)-)

> <TS_CASRN>
125116-23-6

> <CASRN_ChemName_Relationship>
primary

> <TS_Description>
single chemical compound

> <ChemNote>


> <STRUCTURE_Shown>
tested chemical

> <STRUCTURE_Formula>
C17H22ClN3O

> <STRUCTURE_MW>
319.8291

> <STRUCTURE_ChemType>
defined organic

> <STRUCTURE_DefinedOrganicForm>
parent

> <STRUCTURE_IUPAC>
5-(4-chlorobenzyl)-2,2-dimethyl-1-(1H-1,2,4-triazol-1-ylmethyl)cyclopentanol

> <STRUCTURE_SMILES>
Clc1ccc(cc1)CC3CCC(C)(C)C3(O)Cn2cncn2

> <STRUCTURE_SMILES_Desalt>
Clc1ccc(cc1)CC3CCC(C)(C)C3(O)Cn2cncn2

> <Substance_modify_yyyymmdd>
20080429

$$$$
