125225-28-7
ChemmineR-0915142007XD

 23 25  0  0  0  0  0  0  0  0  1 V2000
    2.2511   -3.0562    0.0000 C    0  0  0  0  0  0  0  0  0  0  0  0
    1.8369   -4.3615    0.0000 C    0  0  0  0  0  0  0  0  0  0  0  0
    0.4690   -4.3615    0.0000 C    0  0  0  0  0  0  0  0  0  0  0  0
    0.0782   -3.0562    0.0000 C    0  0  0  0  0  0  0  0  0  0  0  0
    1.1725   -2.2668    0.0000 C    0  0  0  0  0  0  0  0  0  0  0  0
    3.5252   -3.0718    0.0000 O    0  0  0  0  0  0  0  0  0  0  0  0
    2.4934   -5.2448    0.0000 C    0  0  0  0  0  0  0  0  0  0  0  0
    3.8144   -5.2448    0.0000 C    0  0  0  0  0  0  0  0  0  0  0  0
    4.4710   -6.4016    0.0000 C    0  0  0  0  0  0  0  0  0  0  0  0
    4.4710   -4.0880    0.0000 C    0  0  0  0  0  0  0  0  0  0  0  0
    5.8076   -6.4016    0.0000 C    0  0  0  0  0  0  0  0  0  0  0  0
    5.8076   -4.0880    0.0000 C    0  0  0  0  0  0  0  0  0  0  0  0
    6.4798   -5.2448    0.0000 C    0  0  0  0  0  0  0  0  0  0  0  0
    7.8164   -5.2448    0.0000 Cl   0  0  0  0  0  0  0  0  0  0  0  0
    1.1725   -0.9458    0.0000 C    0  0  0  0  0  0  0  0  0  0  0  0
    0.0000   -0.2267    0.0000 C    0  0  0  0  0  0  0  0  0  0  0  0
    2.3606   -0.2579    0.0000 C    0  0  0  0  0  0  0  0  0  0  0  0
    2.4778   -1.7665    0.0000 C    0  0  0  0  0  0  0  0  0  0  0  0
    3.7441   -1.3210    0.0000 N    0  0  0  0  0  0  0  0  0  0  0  0
    4.8540   -2.0713    0.0000 N    0  0  0  0  0  0  0  0  0  0  0  0
    5.9014   -1.2350    0.0000 C    0  0  0  0  0  0  0  0  0  0  0  0
    5.5027    0.0000    0.0000 N    0  0  0  0  0  0  0  0  0  0  0  0
    4.1661    0.0000    0.0000 C    0  0  0  0  0  0  0  0  0  0  0  0
  1  2  1  0  0  0  0
  1  5  1  0  0  0  0
  1  6  1  0  0  0  0
  1 18  1  0  0  0  0
  2  3  1  0  0  0  0
  2  7  1  0  0  0  0
  3  4  1  0  0  0  0
  4  5  1  0  0  0  0
  5 15  1  0  0  0  0
  7  8  1  0  0  0  0
  8  9  2  0  0  0  0
  8 10  1  0  0  0  0
  9 11  1  0  0  0  0
 10 12  2  0  0  0  0
 11 13  2  0  0  0  0
 12 13  1  0  0  0  0
 13 14  1  0  0  0  0
 15 16  1  0  0  0  0
 15 17  1  0  0  0  0
 18 19  1  0  0  0  0
 19 20  1  0  0  0  0
 19 23  1  0  0  0  0
 20 21  2  0  0  0  0
 21 22  1  0  0  0  0
 22 23  2  0  0  0  0
M  END
> <ID>
6865

> <Formula>
C18H24ClN3O

> <FW>
333.8557

> <DSSTox_CID>
14674

> <DSSTox_RID>
79190

> <DSSTox_GSID>
34674

> <DSSTox_FileID_Sort>
3872

> <TS_ChemName>
Ipconazole

> <TS_ChemName_Synonyms>


> <TS_CASRN>
125225-28-7

> <CASRN_ChemName_Relationship>
primary

> <TS_Description>
single chemical compound

> <ChemNote>


> <STRUCTURE_Shown>
tested chemical

> <STRUCTURE_Formula>
C18H24ClN3O

> <STRUCTURE_MW>
333.8557

> <STRUCTURE_ChemType>
defined organic

> <STRUCTURE_DefinedOrganicForm>
parent

> <STRUCTURE_IUPAC>
2-(4-chlorobenzyl)-5-(propan-2-yl)-1-(1H-1,2,4-triazol-1-ylmethyl)cyclopentanol

> <STRUCTURE_SMILES>
Clc1ccc(cc1)CC3CCC(C(C)C)C3(O)Cn2cncn2

> <STRUCTURE_SMILES_Desalt>
Clc1ccc(cc1)CC3CCC(C(C)C)C3(O)Cn2cncn2

> <Substance_modify_yyyymmdd>
20080429

$$$$
