125317-39-7
ChemmineR-0915142007XD

 80 86  0  0  1  0  0  0  0  0  1 V2000
    6.2024   -2.5702    0.0000 C   0  0  0  0  0  0  0  0  0  0  0  0
    6.2024   -3.8659    0.0000 C   0  0  0  0  0  0  0  0  0  0  0  0
    5.0979   -1.9329    0.0000 C   0  0  0  0  0  0  0  0  0  0  0  0
    5.0979   -4.5031    0.0000 C   0  0  0  0  0  0  0  0  0  0  0  0
    3.9933   -2.5702    0.0000 C   0  0  0  0  0  0  0  0  0  0  0  0
    3.9933   -3.8659    0.0000 C   0  0  0  0  0  0  0  0  0  0  0  0
    7.3069   -1.9329    0.0000 C   0  0  0  0  0  0  0  0  0  0  0  0
    7.3069   -0.6585    0.0000 C   0  0  0  0  0  0  0  0  0  0  0  0
    5.0979   -0.6585    0.0000 N   0  0  0  0  0  0  0  0  0  0  0  0
    6.2024    0.0000    0.0000 C   0  0  0  0  0  0  0  0  0  0  0  0
    1.9329   -1.1258    0.0000 C   0  0  0  0  0  0  0  0  0  0  0  0
    2.5702   -2.2516    0.0000 C   0  0  0  0  0  0  0  0  0  0  0  0
    0.6585   -1.1258    0.0000 C   0  0  0  0  0  0  0  0  0  0  0  0
    1.9329   -3.3561    0.0000 C   0  0  0  0  0  0  0  0  0  0  0  0
    0.0000   -2.2516    0.0000 C   0  0  0  0  0  0  0  0  0  0  0  0
    0.6585   -3.3561    0.0000 C   0  0  0  0  0  0  0  0  0  0  0  0
    2.8038   -4.3757    0.0000 N   0  0  0  0  0  0  0  0  0  0  0  0
    3.3136   -0.8072    0.0000 C   0  0  0  0  0  0  0  0  0  0  0  0
    4.4394   -5.6077    0.0000 C   0  0  0  0  0  0  0  0  0  0  0  0
    3.1649   -5.6077    0.0000 O   0  0  0  0  0  0  0  0  0  0  0  0
    5.0766   -6.7547    0.0000 O   0  0  0  0  0  0  0  0  0  0  0  0
    4.3969   -7.8167    0.0000 C   0  0  0  0  0  0  0  0  0  0  0  0
   12.4260   -8.9213    0.0000 C   0  0  0  0  0  0  0  0  0  0  0  0
   12.4260  -10.1957    0.0000 C   0  0  0  0  0  0  0  0  0  0  0  0
   11.3003   -8.2840    0.0000 C   0  0  0  0  0  0  0  0  0  0  0  0
   11.3003  -10.8330    0.0000 C   0  0  0  0  0  0  0  0  0  0  0  0
   10.2170   -8.9213    0.0000 C   0  0  0  0  0  0  0  0  0  0  0  0
   10.2170  -10.1957    0.0000 C   0  0  0  0  0  0  0  0  0  0  0  0
   13.5518   -8.2840    0.0000 C   0  0  0  0  0  0  0  0  0  0  0  0
   13.5518   -6.9883    0.0000 C   0  0  0  0  0  0  0  0  0  0  0  0
   11.3003   -6.9883    0.0000 N   0  0  0  0  0  0  0  0  0  0  0  0
   12.4260   -6.3511    0.0000 C   0  0  0  0  0  0  0  0  0  0  0  0
    8.1566   -7.4769    0.0000 C   0  0  0  0  0  0  0  0  0  0  0  0
    8.7726   -8.5814    0.0000 C   0  0  0  0  0  0  0  0  0  0  0  0
    6.8609   -7.4769    0.0000 C   0  0  0  0  0  0  0  0  0  0  0  0
    8.1353   -9.6859    0.0000 C   0  0  0  0  0  0  0  0  0  0  0  0
    6.2449   -8.5814    0.0000 C   0  0  0  0  0  0  0  0  0  0  0  0
    6.8609   -9.6859    0.0000 C   0  0  0  0  0  0  0  0  0  0  0  0
    9.0275  -10.7480    0.0000 N   0  0  0  0  0  0  0  0  0  0  0  0
    9.8346   -6.7547    0.0000 C   0  0  0  0  0  0  0  0  0  0  0  0
    9.2611   -8.0504    0.0000 C   0  0  0  0  0  0  0  0  0  0  0  0
   11.9587  -11.9587    0.0000 O   0  0  0  0  0  0  0  0  0  0  0  0
   10.6843  -11.9375    0.0000 C   0  0  0  0  0  0  0  0  0  0  0  0
    9.3886  -11.9375    0.0000 O   0  0  0  0  0  0  0  0  0  0  0  0
   11.3003  -13.0633    0.0000 O   0  0  0  0  0  0  0  0  0  0  0  0
   12.5960  -13.0633    0.0000 C   0  0  0  0  0  0  0  0  0  0  0  0
   14.6564   -8.9213    0.0000 C   0  0  0  0  0  0  0  0  0  0  0  0
   13.5306   -9.5797    0.0000 C   0  0  0  0  0  0  0  0  0  0  0  0
   13.0633  -11.3003    0.0000 O   0  0  0  0  0  0  0  0  0  0  0  0
   14.3590  -11.3003    0.0000 C   0  0  0  0  0  0  0  0  0  0  0  0
   14.9750  -12.4260    0.0000 C   0  0  0  0  0  0  0  0  0  0  0  0
   14.9750  -10.1957    0.0000 O   0  0  0  0  0  0  0  0  0  0  0  0
   11.3003   -9.5585    0.0000 H   0  0  0  0  0  0  0  0  0  0  0  0
   10.2170  -11.4914    0.0000 H   0  0  0  0  0  0  0  0  0  0  0  0
    8.3902  -11.7888    0.0000 C   0  0  0  0  0  0  0  0  0  0  0  0
    4.9492   -8.5814    0.0000 O   0  0  0  0  0  0  0  0  0  0  0  0
    4.2907   -9.6859    0.0000 C   0  0  0  0  0  0  0  0  0  0  0  0
    8.4540    0.0000    0.0000 C   0  0  0  0  0  0  0  0  0  0  0  0
    9.5797   -0.6585    0.0000 C   0  0  0  0  0  0  0  0  0  0  0  0
    7.3282   -3.2499    0.0000 H   0  0  0  0  0  0  0  0  0  0  0  0
   14.1678   -1.8692    0.0000 C   0  0  0  0  0  0  0  0  0  0  0  0
   15.2724   -2.4852    0.0000 C   0  0  0  0  0  0  0  0  0  0  0  0
   13.0633   -2.4852    0.0000 C   0  0  0  0  0  0  0  0  0  0  0  0
   16.3769   -1.8692    0.0000 C   0  0  0  0  0  0  0  0  0  0  0  0
   16.3769   -0.5735    0.0000 O   0  0  0  0  0  0  0  0  0  0  0  0
   13.0633   -3.7597    0.0000 O   0  0  0  0  0  0  0  0  0  0  0  0
   17.4814   -2.4852    0.0000 O   0  0  0  0  0  0  0  0  0  0  0  0
   11.9800   -1.8692    0.0000 O   0  0  0  0  0  0  0  0  0  0  0  0
   15.2724   -3.7597    0.0000 O   0  0  0  0  0  0  0  0  0  0  0  0
   14.1678   -0.5735    0.0000 O   0  0  0  0  0  0  0  0  0  0  0  0
   17.9275   -5.7351    0.0000 C   0  0  0  0  0  0  0  0  0  0  0  0
   19.0533   -6.3511    0.0000 C   0  0  0  0  0  0  0  0  0  0  0  0
   16.8230   -6.3511    0.0000 C   0  0  0  0  0  0  0  0  0  0  0  0
   20.1366   -5.7351    0.0000 C   0  0  0  0  0  0  0  0  0  0  0  0
   20.1366   -4.4394    0.0000 O   0  0  0  0  0  0  0  0  0  0  0  0
   16.8230   -7.6256    0.0000 O   0  0  0  0  0  0  0  0  0  0  0  0
   21.2411   -6.3511    0.0000 O   0  0  0  0  0  0  0  0  0  0  0  0
   15.7397   -5.7351    0.0000 O   0  0  0  0  0  0  0  0  0  0  0  0
   19.0533   -7.6256    0.0000 O   0  0  0  0  0  0  0  0  0  0  0  0
   17.9275   -4.4394    0.0000 O   0  0  0  0  0  0  0  0  0  0  0  0
  1  2  1  0  0  0  0
  1  7  1  0  0  0  0
  1  3  1  0  0  0  0
  1 60  1  6  0  0  0
  2  4  1  0  0  0  0
  3  9  1  0  0  0  0
  4  6  1  0  0  0  0
  4 35  1  6  0  0  0
  4 19  1  1  0  0  0
  5  6  2  0  0  0  0
  5 12  1  0  0  0  0
  5 18  1  0  0  0  0
  6 17  1  0  0  0  0
  7  8  2  0  0  0  0
  8 10  1  0  0  0  0
  8 58  1  0  0  0  0
  9 10  1  0  0  0  0
  9 18  1  1  0  0  0
 11 12  1  0  0  0  0
 11 13  2  0  0  0  0
 12 14  2  0  0  0  0
 13 15  1  0  0  0  0
 14 16  1  0  0  0  0
 14 17  1  0  0  0  0
 15 16  2  0  0  0  0
 19 20  2  0  0  0  0
 19 21  1  0  0  0  0
 21 22  1  0  0  0  0
 23 24  1  0  0  0  0
 23 29  1  0  0  0  0
 23 25  1  0  0  0  0
 23 48  1  6  0  0  0
 24 26  1  0  0  0  0
 24 49  1  1  0  0  0
 25 31  1  0  0  0  0
 25 27  1  0  0  0  0
 25 53  1  6  0  0  0
 26 28  1  0  0  0  0
 26 42  1  1  0  0  0
 26 43  1  6  0  0  0
 27 28  1  0  0  0  0
 27 34  1  0  0  0  0
 27 41  1  1  0  0  0
 28 39  1  0  0  0  0
 28 54  1  1  0  0  0
 29 30  2  0  0  0  0
 30 32  1  0  0  0  0
 31 32  1  0  0  0  0
 31 40  1  0  0  0  0
 33 34  1  0  0  0  0
 33 35  2  0  0  0  0
 34 36  2  0  0  0  0
 35 37  1  0  0  0  0
 36 38  1  0  0  0  0
 36 39  1  0  0  0  0
 37 38  2  0  0  0  0
 37 56  1  0  0  0  0
 39 55  1  0  0  0  0
 40 41  1  0  0  0  0
 43 44  2  0  0  0  0
 43 45  1  0  0  0  0
 45 46  1  0  0  0  0
 47 48  1  0  0  0  0
 49 50  1  0  0  0  0
 50 51  1  0  0  0  0
 50 52  2  0  0  0  0
 56 57  1  0  0  0  0
 58 59  1  0  0  0  0
 61 62  1  0  0  0  0
 61 63  1  0  0  0  0
 61 70  1  0  0  0  0
 62 64  1  0  0  0  0
 62 69  1  0  0  0  0
 63 66  2  0  0  0  0
 63 68  1  0  0  0  0
 64 65  2  0  0  0  0
 64 67  1  0  0  0  0
 71 72  1  0  0  0  0
 71 73  1  0  0  0  0
 71 80  1  0  0  0  0
 72 74  1  0  0  0  0
 72 79  1  0  0  0  0
 73 76  2  0  0  0  0
 73 78  1  0  0  0  0
 74 75  2  0  0  0  0
 74 77  1  0  0  0  0
M  END
> <ID>
12910

> <Formula>
C53H66N4O20

> <FW>
1079.1059 (778.9323+150.0868+150.0868)

> <DSSTox_CID>
27802

> <DSSTox_RID>
82572

> <DSSTox_GSID>
47825

> <DSSTox_FileID_Sort>
7249

> <TS_ChemName>
Vinorelbine tartrate

> <TS_ChemName_Synonyms>


> <TS_CASRN>
125317-39-7

> <CASRN_ChemName_Relationship>
primary

> <TS_Description>
single chemical compound

> <ChemNote>
stereochem; parent [71486-22-1]

> <STRUCTURE_Shown>
tested chemical

> <STRUCTURE_Formula>
C53H66N4O20

> <STRUCTURE_MW>
1079.1059

> <STRUCTURE_ChemType>
defined organic

> <STRUCTURE_DefinedOrganicForm>
complex

> <STRUCTURE_IUPAC>
2,3-dihydroxybutanedioic acid - methyl (2beta,3beta,4beta,5alpha,12beta,19alpha)-4-(acetyloxy)-15-[(6R,8S)-4-ethyl-8-(methoxycarbonyl)-1,3,6,7,8,9-hexahydro-2,6-methanoazecino[4,3-b]indol-8-yl]-3-hydroxy-16-methoxy-1-methyl-6,7-didehydroaspidospermidine-3

> <STRUCTURE_SMILES>
O=C(O)C(O)C(O)C(=O)O.O=C(O)C(O)C(O)C(=O)O.O=C(OC)[C@@]2(C[C@@H]4C=C(CC)C[N@](Cc1c3ccccc3nc12)C4)c5cc9c(cc5OC)N(C)[C@@H]6[C@]98CCN7CC=C[C@@](CC)([C@@H](OC(C)=O)[C@]6(O)C(=O)OC)[C@H]78

> <STRUCTURE_SMILES_Desalt>
O=C(OC)[C@@]2(C[C@@H]4C=C(CC)C[N@](Cc1c3ccccc3nc12)C4)c5cc9c(cc5OC)N(C)[C@@H]6[C@]98CCN7CC=C[C@@](CC)([C@@H](OC(C)=O)[C@]6(O)C(=O)OC)[C@H]78

> <Substance_modify_yyyymmdd>
20110812

$$$$
