1254-35-9
ChemmineR-0915142007XD

 34 38  0  0  1  0  0  0  0  0  1 V2000
    6.9998   -3.8194    0.0000 C   0  0  0  0  0  0  0  0  0  0  0  0
    6.9998   -5.1272    0.0000 C   0  0  0  0  0  0  0  0  0  0  0  0
    3.4776   -7.1335    0.0000 C   0  0  0  0  0  0  0  0  0  0  0  0
    5.8109   -5.8257    0.0000 C   0  0  0  0  0  0  0  0  0  0  0  0
    4.6219   -5.1272    0.0000 C   0  0  0  0  0  0  0  0  0  0  0  0
    3.4776   -5.8109    0.0000 C   0  0  0  0  0  0  0  0  0  0  0  0
    8.2482   -3.4033    0.0000 C   0  0  0  0  0  0  0  0  0  0  0  0
    2.3481   -7.8172    0.0000 C   0  0  0  0  0  0  0  0  0  0  0  0
    5.8109   -3.1358    0.0000 C   0  0  0  0  0  0  0  0  0  0  0  0
    4.6219   -3.8194    0.0000 C   0  0  0  0  0  0  0  0  0  0  0  0
    5.8109   -7.1633    0.0000 C   0  0  0  0  0  0  0  0  0  0  0  0
    8.2482   -5.5434    0.0000 C   0  0  0  0  0  0  0  0  0  0  0  0
    8.2482   -2.0212    0.0000 O   0  0  0  0  0  0  0  0  0  0  0  0
    9.3479   -1.3673    0.0000 C   0  0  0  0  0  0  0  0  0  0  0  0
    2.3481   -5.1272    0.0000 C   0  0  0  0  0  0  0  0  0  0  0  0
    4.6219   -7.8172    0.0000 C   0  0  0  0  0  0  0  0  0  0  0  0
    1.2038   -7.1335    0.0000 C   0  0  0  0  0  0  0  0  0  0  0  0
    9.0210   -4.4733    0.0000 C   0  0  0  0  0  0  0  0  0  0  0  0
    9.3479    0.0000    0.0000 O   0  0  0  0  0  0  0  0  0  0  0  0
    0.0000   -7.8172    0.0000 O   0  0  0  0  0  0  0  0  0  0  0  0
    1.2038   -5.8257    0.0000 C   0  0  0  0  0  0  0  0  0  0  0  0
   10.5814   -1.9469    0.0000 C   0  0  0  0  0  0  0  0  0  0  0  0
    6.9998   -2.4967    0.0000 C   0  0  0  0  0  0  0  0  0  0  0  0
   11.7258   -1.3673    0.0000 C   0  0  0  0  0  0  0  0  0  0  0  0
    6.9998   -6.4499    0.0000 H   0  0  0  0  0  0  0  0  0  0  0  0
    5.8109   -4.4733    0.0000 H   0  0  0  0  0  0  0  0  0  0  0  0
    4.6219   -6.4499    0.0000 H   0  0  0  0  0  0  0  0  0  0  0  0
    3.4776   -4.4733    0.0000 H   0  0  0  0  0  0  0  0  0  0  0  0
    2.3184   -9.0507    0.0000 O   0  0  0  0  0  0  0  0  0  0  0  0
   12.8107   -2.0955    0.0000 C   0  0  0  0  0  0  0  0  0  0  0  0
   14.0590   -1.6496    0.0000 C   0  0  0  0  0  0  0  0  0  0  0  0
   12.8701   -3.4182    0.0000 C   0  0  0  0  0  0  0  0  0  0  0  0
   14.8616   -2.6751    0.0000 C   0  0  0  0  0  0  0  0  0  0  0  0
   14.1482   -3.7748    0.0000 C   0  0  0  0  0  0  0  0  0  0  0  0
  1  2  1  0  0  0  0
  1  7  1  0  0  0  0
  1  9  1  0  0  0  0
  1 23  1  1  0  0  0
  2  4  1  0  0  0  0
  2 12  1  0  0  0  0
  2 25  1  6  0  0  0
  3  6  1  0  0  0  0
  3  8  2  0  0  0  0
  3 16  1  0  0  0  0
  4 11  1  0  0  0  0
  4 26  1  1  0  0  0
  4  5  1  0  0  0  0
  5 10  1  0  0  0  0
  5  6  1  0  0  0  0
  5 27  1  6  0  0  0
  6 15  1  0  0  0  0
  6 28  1  1  0  0  0
  7 13  1  1  0  0  0
  7 18  1  0  0  0  0
  8 17  1  0  0  0  0
  8 29  1  0  0  0  0
  9 10  1  0  0  0  0
 11 16  1  0  0  0  0
 12 18  1  0  0  0  0
 13 14  1  0  0  0  0
 14 19  2  0  0  0  0
 14 22  1  0  0  0  0
 15 21  1  0  0  0  0
 17 21  1  0  0  0  0
 17 20  2  0  0  0  0
 22 24  1  0  0  0  0
 24 30  1  0  0  0  0
 30 31  1  0  0  0  0
 30 32  1  0  0  0  0
 31 33  1  0  0  0  0
 32 34  1  0  0  0  0
 33 34  1  0  0  0  0
M  END
> <ID>
12046

> <Formula>
C26H38O4

> <FW>
414.5775

> <DSSTox_CID>
26879

> <DSSTox_RID>
81983

> <DSSTox_GSID>
46879

> <DSSTox_FileID_Sort>
6664

> <TS_ChemName>
Oxabolone cipioncate

> <TS_ChemName_Synonyms>


> <TS_CASRN>
1254-35-9

> <CASRN_ChemName_Relationship>
primary

> <TS_Description>
single chemical compound

> <ChemNote>
stereochem; tautomers

> <STRUCTURE_Shown>
tested chemical

> <STRUCTURE_Formula>
C26H38O4

> <STRUCTURE_MW>
414.5775

> <STRUCTURE_ChemType>
defined organic

> <STRUCTURE_DefinedOrganicForm>
parent

> <STRUCTURE_IUPAC>
(17beta)-4-hydroxy-3-oxoestr-4-en-17-yl 3-cyclopentylpropanoate

> <STRUCTURE_SMILES>
OC=5C(=O)CC[C@H]4C=5CC[C@@H]2[C@@H]4CC[C@]3(C)[C@@H](OC(=O)CCC1CCCC1)CC[C@@H]23

> <STRUCTURE_SMILES_Desalt>
OC=5C(=O)CC[C@H]4C=5CC[C@@H]2[C@@H]4CC[C@]3(C)[C@@H](OC(=O)CCC1CCCC1)CC[C@@H]23

> <Substance_modify_yyyymmdd>
20110522

$$$$
