125401-92-5
ChemmineR-0915142007XD

 32 33  0  0  0  0  0  0  0  0  2 V2000
    8.0536   -1.2551    0.0000 C    0  0  0  0  0  0  0  0  0  0  0  0
    6.9031   -0.5977    0.0000 O    0  0  0  0  0  0  0  0  0  0  0  0
    8.0536   -2.5849    0.0000 C    0  0  0  0  0  0  0  0  0  0  0  0
    9.1892   -0.5977    0.0000 O    0  5  0  0  0  0  0  0  0  0  0  0
    9.1892   -3.2573    0.0000 C    0  0  0  0  0  0  0  0  0  0  0  0
    6.9031   -3.2573    0.0000 C    0  0  0  0  0  0  0  0  0  0  0  0
    9.1892   -4.5871    0.0000 C    0  0  0  0  0  0  0  0  0  0  0  0
    6.9031   -4.5871    0.0000 C    0  0  0  0  0  0  0  0  0  0  0  0
    8.0536   -5.2446    0.0000 C    0  0  0  0  0  0  0  0  0  0  0  0
   10.3397   -2.5849    0.0000 O    0  0  0  0  0  0  0  0  0  0  0  0
   11.4902   -4.5871    0.0000 N    0  0  0  0  0  0  0  0  0  0  0  0
   12.6407   -2.5849    0.0000 N    0  0  0  0  0  0  0  0  0  0  0  0
   11.4902   -3.2573    0.0000 C    0  0  0  0  0  0  0  0  0  0  0  0
   13.8062   -4.5871    0.0000 C    0  0  0  0  0  0  0  0  0  0  0  0
   12.6407   -5.2446    0.0000 C    0  0  0  0  0  0  0  0  0  0  0  0
   13.8062   -3.2573    0.0000 C    0  0  0  0  0  0  0  0  0  0  0  0
   14.9418   -2.5849    0.0000 O    0  0  0  0  0  0  0  0  0  0  0  0
   14.9418   -1.2551    0.0000 C    0  0  0  0  0  0  0  0  0  0  0  0
   12.6407   -6.5893    0.0000 O    0  0  0  0  0  0  0  0  0  0  0  0
   13.8062   -7.2468    0.0000 C    0  0  0  0  0  0  0  0  0  0  0  0
    5.7526   -2.5849    0.0000 O    0  0  0  0  0  0  0  0  0  0  0  0
    3.4515   -2.5849    0.0000 N    0  0  0  0  0  0  0  0  0  0  0  0
    4.6021   -4.5871    0.0000 N    0  0  0  0  0  0  0  0  0  0  0  0
    4.6021   -3.2573    0.0000 C    0  0  0  0  0  0  0  0  0  0  0  0
    2.3010   -4.5871    0.0000 C    0  0  0  0  0  0  0  0  0  0  0  0
    2.3010   -3.2573    0.0000 C    0  0  0  0  0  0  0  0  0  0  0  0
    3.4515   -5.2446    0.0000 C    0  0  0  0  0  0  0  0  0  0  0  0
    3.4515   -6.5893    0.0000 O    0  0  0  0  0  0  0  0  0  0  0  0
    4.6021   -7.2468    0.0000 C    0  0  0  0  0  0  0  0  0  0  0  0
    1.1356   -2.5849    0.0000 O    0  0  0  0  0  0  0  0  0  0  0  0
    0.0000   -3.2573    0.0000 C    0  0  0  0  0  0  0  0  0  0  0  0
   11.8040    0.0000    0.0000 Na   0  3  0  0  0  0  0  0  0  0  0  0
  1  2  2  0  0  0  0
  1  3  1  0  0  0  0
  1  4  1  0  0  0  0
  3  5  2  0  0  0  0
  3  6  1  0  0  0  0
  5  7  1  0  0  0  0
  5 10  1  0  0  0  0
  6  8  2  0  0  0  0
  6 21  1  0  0  0  0
  7  9  2  0  0  0  0
  8  9  1  0  0  0  0
 10 13  1  0  0  0  0
 11 13  2  0  0  0  0
 11 15  1  0  0  0  0
 12 13  1  0  0  0  0
 12 16  2  0  0  0  0
 14 15  2  0  0  0  0
 14 16  1  0  0  0  0
 15 19  1  0  0  0  0
 16 17  1  0  0  0  0
 17 18  1  0  0  0  0
 19 20  1  0  0  0  0
 21 24  1  0  0  0  0
 22 24  2  0  0  0  0
 22 26  1  0  0  0  0
 23 24  1  0  0  0  0
 23 27  2  0  0  0  0
 25 26  2  0  0  0  0
 25 27  1  0  0  0  0
 26 30  1  0  0  0  0
 27 28  1  0  0  0  0
 28 29  1  0  0  0  0
 30 31  1  0  0  0  0
M  END
> <ID>
6765

> <Formula>
C19H17N4NaO8

> <FW>
452.3500 (429.3608+22.9892)

> <DSSTox_CID>
14383

> <DSSTox_RID>
79151

> <DSSTox_GSID>
34383

> <DSSTox_FileID_Sort>
3833

> <TS_ChemName>
Bispyribac-sodium

> <TS_ChemName_Synonyms>
Bispyribac-sodium (Benzoic acid, 2,6-bis[(4,6-dimethoxy-2-pyrimidinyl)oxy]-, sodium salt)

> <TS_CASRN>
125401-92-5

> <CASRN_ChemName_Relationship>
primary

> <TS_Description>
single chemical compound

> <ChemNote>
parent [125401-75-4]

> <STRUCTURE_Shown>
tested chemical

> <STRUCTURE_Formula>
C19H17N4NaO8

> <STRUCTURE_MW>
452.35

> <STRUCTURE_ChemType>
defined organic

> <STRUCTURE_DefinedOrganicForm>
salt

> <STRUCTURE_IUPAC>
sodium 2,6-bis[(4,6-dimethoxypyrimidin-2-yl)oxy]benzoate

> <STRUCTURE_SMILES>
[Na+].COc1nc(nc(OC)c1)Oc3cccc(Oc2nc(cc(OC)n2)OC)c3C([O-])=O

> <STRUCTURE_SMILES_Desalt>
COc1nc(nc(OC)c1)Oc3cccc(Oc2nc(cc(OC)n2)OC)c3C(=O)O

> <Substance_modify_yyyymmdd>
20080429

$$$$
