1255-35-2
ChemmineR-0915142007XD

 31 34  0  0  1  0  0  0  0  0  1 V2000
    6.9243   -3.9295    0.0000 C   0  0  0  0  0  0  0  0  0  0  0  0
    4.6229   -5.2560    0.0000 C   0  0  0  0  0  0  0  0  0  0  0  0
    3.4873   -5.9294    0.0000 C   0  0  0  0  0  0  0  0  0  0  0  0
    6.9243   -5.2560    0.0000 C   0  0  0  0  0  0  0  0  0  0  0  0
    8.1906   -3.5275    0.0000 C   0  0  0  0  0  0  0  0  0  0  0  0
    5.7284   -5.9294    0.0000 C   0  0  0  0  0  0  0  0  0  0  0  0
    8.9343   -4.5928    0.0000 C   0  0  0  0  0  0  0  0  0  0  0  0
    3.4873   -7.2358    0.0000 C   0  0  0  0  0  0  0  0  0  0  0  0
    4.6229   -3.9295    0.0000 C   0  0  0  0  0  0  0  0  0  0  0  0
    5.7284   -3.2561    0.0000 C   0  0  0  0  0  0  0  0  0  0  0  0
    8.1906   -5.6480    0.0000 C   0  0  0  0  0  0  0  0  0  0  0  0
    2.3315   -5.2560    0.0000 C   0  0  0  0  0  0  0  0  0  0  0  0
    8.1906   -2.1306    0.0000 C   0  0  0  0  0  0  0  0  0  0  0  0
    2.3315   -7.9092    0.0000 C   0  0  0  0  0  0  0  0  0  0  0  0
    5.7284   -7.2358    0.0000 C   0  0  0  0  0  0  0  0  0  0  0  0
    1.1859   -5.9294    0.0000 C   0  0  0  0  0  0  0  0  0  0  0  0
    1.1859   -7.2358    0.0000 C   0  0  0  0  0  0  0  0  0  0  0  0
    4.6229   -7.9092    0.0000 C   0  0  0  0  0  0  0  0  0  0  0  0
    4.5425   -1.2663    0.0000 C   0  0  0  0  0  0  0  0  0  0  0  0
   10.0498   -4.5928    0.0000 C   0  0  0  0  0  0  0  0  0  0  0  0
    4.6229   -6.5927    0.0000 F   0  0  0  0  0  0  0  0  0  0  0  0
    6.9946   -1.4271    0.0000 C   0  0  0  0  0  0  0  0  0  0  0  0
    9.3262   -1.4271    0.0000 O   0  0  0  0  0  0  0  0  0  0  0  0
    5.7284   -1.9899    0.0000 O   0  0  0  0  0  0  0  0  0  0  0  0
    3.3566   -1.9396    0.0000 O   0  0  0  0  0  0  0  0  0  0  0  0
    0.0000   -7.9092    0.0000 O   0  0  0  0  0  0  0  0  0  0  0  0
    9.6779   -3.5275    0.0000 O   0  0  0  0  0  0  0  0  0  0  0  0
    6.9243   -2.6129    0.0000 C   0  0  0  0  0  0  0  0  0  0  0  0
    3.4873   -3.2561    0.0000 O   0  0  0  0  0  0  0  0  0  0  0  0
    3.4873   -4.5928    0.0000 C   0  0  0  0  0  0  0  0  0  0  0  0
    4.5425    0.0000    0.0000 C   0  0  0  0  0  0  0  0  0  0  0  0
  1  4  1  0  0  0  0
  1  5  1  0  0  0  0
  1 10  1  0  0  0  0
  1 28  1  1  0  0  0
  2  9  1  0  0  0  0
  2  3  1  0  0  0  0
  2 21  1  6  0  0  0
  2  6  1  0  0  0  0
  3  8  1  0  0  0  0
  3 12  1  0  0  0  0
  3 30  1  1  0  0  0
  4  6  1  0  0  0  0
  4 11  1  0  0  0  0
  5  7  1  0  0  0  0
  5 13  1  1  0  0  0
  5 27  1  0  0  0  0
  6 15  1  0  0  0  0
  7 20  2  0  0  0  0
  7 11  1  0  0  0  0
  8 14  2  0  0  0  0
  8 18  1  0  0  0  0
  9 10  1  0  0  0  0
  9 29  1  1  0  0  0
 12 16  2  0  0  0  0
 13 22  1  0  0  0  0
 13 23  2  0  0  0  0
 14 17  1  0  0  0  0
 15 18  1  0  0  0  0
 16 17  1  0  0  0  0
 17 26  2  0  0  0  0
 19 24  1  0  0  0  0
 19 25  2  0  0  0  0
 19 31  1  0  0  0  0
 22 24  1  0  0  0  0
M  END
> <ID>
13711

> <Formula>
C24H29FO6

> <FW>
432.4819

> <DSSTox_CID>
28645

> <DSSTox_RID>
82915

> <DSSTox_GSID>
48719

> <DSSTox_FileID_Sort>
7592

> <TS_ChemName>
Fluprednidene acetate

> <TS_ChemName_Synonyms>


> <TS_CASRN>
1255-35-2

> <CASRN_ChemName_Relationship>
primary

> <TS_Description>
single chemical compound

> <ChemNote>


> <STRUCTURE_Shown>
tested chemical

> <STRUCTURE_Formula>
C24H29FO6

> <STRUCTURE_MW>
432.4819

> <STRUCTURE_ChemType>
defined organic

> <STRUCTURE_DefinedOrganicForm>
parent

> <STRUCTURE_IUPAC>
(8xi,11beta,14xi)-9-fluoro-11,17-dihydroxy-16-methylidene-3,20-dioxopregna-1,4-dien-21-yl acetate

> <STRUCTURE_SMILES>
CC(=O)OCC(=O)[C@@]4(O)C(=C)CC3C2CCC1=CC(=O)C=C[C@]1(C)[C@@]2(F)[C@@H](O)C[C@@]34C

> <STRUCTURE_SMILES_Desalt>
CC(=O)OCC(=O)[C@@]4(O)C(=C)CC3C2CCC1=CC(=O)C=C[C@]1(C)[C@@]2(F)[C@@H](O)C[C@@]34C

> <Substance_modify_yyyymmdd>
20111204

$$$$
