1255-49-8
ChemmineR-0915142007XD

 34 38  0  0  1  0  0  0  0  0  1 V2000
    9.0087    0.0000    0.0000 O   0  0  0  0  0  0  0  0  0  0  0  0
   12.5616   -1.3528    0.0000 C   0  0  0  0  0  0  0  0  0  0  0  0
   11.2088   -0.6690    0.0000 C   0  0  0  0  0  0  0  0  0  0  0  0
   10.0344   -1.4271    0.0000 C   0  0  0  0  0  0  0  0  0  0  0  0
    4.5043   -5.0246    0.0000 C   0  0  0  0  0  0  0  0  0  0  0  0
    3.4043   -5.6639    0.0000 C   0  0  0  0  0  0  0  0  0  0  0  0
    5.6193   -5.6639    0.0000 C   0  0  0  0  0  0  0  0  0  0  0  0
    6.7788   -5.0246    0.0000 C   0  0  0  0  0  0  0  0  0  0  0  0
    6.7788   -3.7016    0.0000 C   0  0  0  0  0  0  0  0  0  0  0  0
    4.5043   -3.7016    0.0000 C   0  0  0  0  0  0  0  0  0  0  0  0
    5.6193   -6.9423    0.0000 C   0  0  0  0  0  0  0  0  0  0  0  0
    3.4043   -6.9869    0.0000 C   0  0  0  0  0  0  0  0  0  0  0  0
    5.6193   -3.0624    0.0000 C   0  0  0  0  0  0  0  0  0  0  0  0
    4.5043   -7.6262    0.0000 C   0  0  0  0  0  0  0  0  0  0  0  0
    3.4043   -4.3854    0.0000 C   0  0  0  0  0  0  0  0  0  0  0  0
    2.2893   -5.0246    0.0000 C   0  0  0  0  0  0  0  0  0  0  0  0
    7.9086   -3.0624    0.0000 C   0  0  0  0  0  0  0  0  0  0  0  0
    9.0235   -5.0246    0.0000 C   0  0  0  0  0  0  0  0  0  0  0  0
    6.7788   -2.4380    0.0000 C   0  0  0  0  0  0  0  0  0  0  0  0
    9.0235   -3.7016    0.0000 C   0  0  0  0  0  0  0  0  0  0  0  0
    2.2893   -7.6262    0.0000 C   0  0  0  0  0  0  0  0  0  0  0  0
    1.1149   -5.6639    0.0000 C   0  0  0  0  0  0  0  0  0  0  0  0
    1.1149   -6.9423    0.0000 C   0  0  0  0  0  0  0  0  0  0  0  0
    5.6193   -4.2962    0.0000 H   0  0  0  0  0  0  0  0  0  0  0  0
    4.5043   -6.3477    0.0000 H   0  0  0  0  0  0  0  0  0  0  0  0
    6.7788   -6.3477    0.0000 H   0  0  0  0  0  0  0  0  0  0  0  0
    0.0000   -7.6262    0.0000 O   0  0  0  0  0  0  0  0  0  0  0  0
    7.9086   -1.6798    0.0000 O   0  0  0  0  0  0  0  0  0  0  0  0
    8.9938   -0.9960    0.0000 C   0  0  0  0  0  0  0  0  0  0  0  0
   14.8658   -1.3528    0.0000 C   0  0  0  0  0  0  0  0  0  0  0  0
   14.8658   -2.6758    0.0000 C   0  0  0  0  0  0  0  0  0  0  0  0
   13.7211   -0.6987    0.0000 C   0  0  0  0  0  0  0  0  0  0  0  0
   13.7211   -3.3448    0.0000 C   0  0  0  0  0  0  0  0  0  0  0  0
   12.5616   -2.6758    0.0000 C   0  0  0  0  0  0  0  0  0  0  0  0
  1 29  2  0  0  0  0
  2  3  1  0  0  0  0
  2 32  1  0  0  0  0
  2 34  2  0  0  0  0
  3  4  1  0  0  0  0
  4 29  1  0  0  0  0
  5 10  1  0  0  0  0
  5  6  1  0  0  0  0
  5 25  1  6  0  0  0
  5  7  1  0  0  0  0
  6 12  1  0  0  0  0
  6 15  1  1  0  0  0
  6 16  1  0  0  0  0
  7 11  1  0  0  0  0
  7 24  1  1  0  0  0
  7  8  1  0  0  0  0
  8 18  1  0  0  0  0
  8  9  1  0  0  0  0
  8 26  1  6  0  0  0
  9 13  1  0  0  0  0
  9 17  1  0  0  0  0
  9 19  1  1  0  0  0
 10 13  1  0  0  0  0
 11 14  1  0  0  0  0
 12 21  2  0  0  0  0
 12 14  1  0  0  0  0
 16 22  1  0  0  0  0
 17 20  1  0  0  0  0
 17 28  1  1  0  0  0
 18 20  1  0  0  0  0
 21 23  1  0  0  0  0
 22 23  1  0  0  0  0
 23 27  2  0  0  0  0
 28 29  1  0  0  0  0
 30 31  1  0  0  0  0
 30 32  2  0  0  0  0
 31 33  2  0  0  0  0
 33 34  1  0  0  0  0
M  END
> <ID>
13704

> <Formula>
C28H36O3

> <FW>
420.5836

> <DSSTox_CID>
28638

> <DSSTox_RID>
82908

> <DSSTox_GSID>
48712

> <DSSTox_FileID_Sort>
7585

> <TS_ChemName>
Testosterone 17-phenylpropionate

> <TS_ChemName_Synonyms>


> <TS_CASRN>
1255-49-8

> <CASRN_ChemName_Relationship>
primary

> <TS_Description>
single chemical compound

> <ChemNote>


> <STRUCTURE_Shown>
tested chemical

> <STRUCTURE_Formula>
C28H36O3

> <STRUCTURE_MW>
420.5836

> <STRUCTURE_ChemType>
defined organic

> <STRUCTURE_DefinedOrganicForm>
parent

> <STRUCTURE_IUPAC>
(17beta)-3-oxoandrost-4-en-17-yl 3-phenylpropanoate

> <STRUCTURE_SMILES>
O=C5CC[C@@]4(C)C(CC[C@@H]2[C@@H]4CC[C@]3(C)[C@@H](OC(=O)CCc1ccccc1)CC[C@@H]23)=C5

> <STRUCTURE_SMILES_Desalt>
O=C5CC[C@@]4(C)C(CC[C@@H]2[C@@H]4CC[C@]3(C)[C@@H](OC(=O)CCc1ccccc1)CC[C@@H]23)=C5

> <Substance_modify_yyyymmdd>
20111204

$$$$
