125652-55-3
ChemmineR-0915142007XD

 12 11  0  0  0  0  0  0  0  0  2 V2000
    8.0746   -1.9944    0.0000 C    0  0  0  0  0  0  0  0  0  0  0  0
    0.0000   -2.6565    0.0000 C    0  0  0  0  0  0  0  0  0  0  0  0
    6.9199   -2.6565    0.0000 C    0  0  0  0  0  0  0  0  0  0  0  0
    5.7572   -1.9944    0.0000 C    0  0  0  0  0  0  0  0  0  0  0  0
    2.3013    0.0000    0.0000 C    0  0  0  0  0  0  0  0  0  0  0  0
    1.1547   -0.6621    0.0000 C    0  0  0  0  0  0  0  0  0  0  0  0
    4.6187   -2.6565    0.0000 C    0  0  0  0  0  0  0  0  0  0  0  0
    3.4559   -0.6621    0.0000 C    0  0  0  0  0  0  0  0  0  0  0  0
    2.3013   -2.6565    0.0000 C    0  0  0  0  0  0  0  0  0  0  0  0
    1.1547   -1.9944    0.0000 C    0  0  0  0  0  0  0  0  0  0  0  0
    3.4559   -1.9944    0.0000 N    0  3  0  0  0  0  0  0  0  0  0  0
    3.2298   -3.7466    0.0000 Cl   0  5  0  0  0  0  0  0  0  0  0  0
  1  3  1  0  0  0  0
  2 10  1  0  0  0  0
  3  4  1  0  0  0  0
  4  7  1  0  0  0  0
  5  6  2  0  0  0  0
  5  8  1  0  0  0  0
  6 10  1  0  0  0  0
  7 11  1  0  0  0  0
  8 11  2  0  0  0  0
  9 10  2  0  0  0  0
  9 11  1  0  0  0  0
M  END
> <ID>
14075

> <Formula>
C10H16ClN

> <FW>
185.6937 (150.2402+35.4535)

> <DSSTox_CID>
29068

> <DSSTox_RID>
83287

> <DSSTox_GSID>
49212

> <DSSTox_FileID_Sort>
7962

> <TS_ChemName>
1-Butyl-3-methylpyridinium chloride

> <TS_ChemName_Synonyms>


> <TS_CASRN>
125652-55-3

> <CASRN_ChemName_Relationship>
primary

> <TS_Description>
single chemical compound

> <ChemNote>


> <STRUCTURE_Shown>
tested chemical

> <STRUCTURE_Formula>
C10H16ClN

> <STRUCTURE_MW>
185.6937

> <STRUCTURE_ChemType>
defined organic

> <STRUCTURE_DefinedOrganicForm>
salt

> <STRUCTURE_IUPAC>
1-butyl-3-methylpyridinium chloride

> <STRUCTURE_SMILES>
[Cl-].Cc1ccc[n+](CCCC)c1

> <STRUCTURE_SMILES_Desalt>
Cc1ccc[n+](CCCC)c1

> <Substance_modify_yyyymmdd>
20111204

$$$$
