126-71-6
ChemmineR-0915142007XD

 17 16  0  0  0  0  0  0  0  0  1 V2000
    2.3089   -3.9866    0.0000 P   0  0  0  0  0  0  0  0  0  0  0  0
    0.9827   -3.9946    0.0000 O   0  0  0  0  0  0  0  0  0  0  0  0
    2.3089   -5.3208    0.0000 O   0  0  0  0  0  0  0  0  0  0  0  0
    3.6351   -3.9946    0.0000 O   0  0  0  0  0  0  0  0  0  0  0  0
    2.3089   -2.6764    0.0000 O   0  0  0  0  0  0  0  0  0  0  0  0
    1.1584   -5.9839    0.0000 C   0  0  0  0  0  0  0  0  0  0  0  0
    1.1584   -7.3180    0.0000 C   0  0  0  0  0  0  0  0  0  0  0  0
    2.3089   -7.9891    0.0000 C   0  0  0  0  0  0  0  0  0  0  0  0
    0.0000   -7.9891    0.0000 C   0  0  0  0  0  0  0  0  0  0  0  0
    4.2981   -2.8441    0.0000 C   0  0  0  0  0  0  0  0  0  0  0  0
    5.6243   -2.8441    0.0000 C   0  0  0  0  0  0  0  0  0  0  0  0
    6.2954   -3.9946    0.0000 C   0  0  0  0  0  0  0  0  0  0  0  0
    6.2954   -1.6857    0.0000 C   0  0  0  0  0  0  0  0  0  0  0  0
    1.1584   -2.0053    0.0000 C   0  0  0  0  0  0  0  0  0  0  0  0
    1.1504   -0.6711    0.0000 C   0  0  0  0  0  0  0  0  0  0  0  0
    2.3089   -0.0080    0.0000 C   0  0  0  0  0  0  0  0  0  0  0  0
    0.0080    0.0000    0.0000 C   0  0  0  0  0  0  0  0  0  0  0  0
  1  2  2  0  0  0  0
  1  3  1  0  0  0  0
  1  4  1  0  0  0  0
  1  5  1  0  0  0  0
  3  6  1  0  0  0  0
  4 10  1  0  0  0  0
  5 14  1  0  0  0  0
  6  7  1  0  0  0  0
  7  8  1  0  0  0  0
  7  9  1  0  0  0  0
 10 11  1  0  0  0  0
 11 12  1  0  0  0  0
 11 13  1  0  0  0  0
 14 15  1  0  0  0  0
 15 16  1  0  0  0  0
 15 17  1  0  0  0  0
M  END
> <ID>
7894

> <Formula>
C12H27O4P

> <FW>
266.3141

> <DSSTox_CID>
20698

> <DSSTox_RID>
79549

> <DSSTox_GSID>
40698

> <DSSTox_FileID_Sort>
4231

> <TS_ChemName>
Triisobutyl phosphate

> <TS_ChemName_Synonyms>
Triisobutyl phosphate (Phosphoric acid, tris(2-methylpropyl) ester)

> <TS_CASRN>
126-71-6

> <CASRN_ChemName_Relationship>
primary

> <TS_Description>
single chemical compound

> <ChemNote>


> <STRUCTURE_Shown>
tested chemical

> <STRUCTURE_Formula>
C12H27O4P

> <STRUCTURE_MW>
266.3141

> <STRUCTURE_ChemType>
defined organic

> <STRUCTURE_DefinedOrganicForm>
parent

> <STRUCTURE_IUPAC>
tris(2-methylpropyl) phosphate

> <STRUCTURE_SMILES>
CC(C)COP(=O)(OCC(C)C)OCC(C)C

> <STRUCTURE_SMILES_Desalt>
CC(C)COP(=O)(OCC(C)C)OCC(C)C

> <Substance_modify_yyyymmdd>
20080429

$$$$
