126-58-9
ChemmineR-0915142007XD

 17 16  0  0  0  0  0  0  0  0  1 V2000
    6.4836   -0.9989    0.0000 C   0  0  0  0  0  0  0  0  0  0  0  0
    6.9368   -2.3215    0.0000 C   0  0  0  0  0  0  0  0  0  0  0  0
    8.0929   -1.6093    0.0000 C   0  0  0  0  0  0  0  0  0  0  0  0
    6.9368    0.0000    0.0000 O   0  0  0  0  0  0  0  0  0  0  0  0
    9.2490   -2.3215    0.0000 O   0  0  0  0  0  0  0  0  0  0  0  0
    6.2616   -3.4776    0.0000 C   0  0  0  0  0  0  0  0  0  0  0  0
    6.9460   -4.6523    0.0000 O   0  0  0  0  0  0  0  0  0  0  0  0
    2.3030   -3.6534    0.0000 C   0  0  0  0  0  0  0  0  0  0  0  0
    2.3030   -2.3215    0.0000 C   0  0  0  0  0  0  0  0  0  0  0  0
    1.1561   -1.6463    0.0000 C   0  0  0  0  0  0  0  0  0  0  0  0
    3.4591   -4.3100    0.0000 O   0  0  0  0  0  0  0  0  0  0  0  0
    0.0000   -2.3215    0.0000 O   0  0  0  0  0  0  0  0  0  0  0  0
    1.6371   -1.1654    0.0000 C   0  0  0  0  0  0  0  0  0  0  0  0
    2.3030    0.0000    0.0000 O   0  0  0  0  0  0  0  0  0  0  0  0
    4.6153   -2.3215    0.0000 O   0  0  0  0  0  0  0  0  0  0  0  0
    3.4591   -1.6463    0.0000 C   0  0  0  0  0  0  0  0  0  0  0  0
    5.7714   -1.6463    0.0000 C   0  0  0  0  0  0  0  0  0  0  0  0
  1  2  1  0  0  0  0
  1  4  1  0  0  0  0
  2  3  1  0  0  0  0
  2  6  1  0  0  0  0
  2 17  1  0  0  0  0
  3  5  1  0  0  0  0
  6  7  1  0  0  0  0
  8  9  1  0  0  0  0
  8 11  1  0  0  0  0
  9 10  1  0  0  0  0
  9 13  1  0  0  0  0
  9 16  1  0  0  0  0
 10 12  1  0  0  0  0
 13 14  1  0  0  0  0
 15 16  1  0  0  0  0
 15 17  1  0  0  0  0
M  END
> <ID>
4899

> <Formula>
C10H22O7

> <FW>
254.2775

> <DSSTox_CID>
7039

> <DSSTox_RID>
78287

> <DSSTox_GSID>
27039

> <DSSTox_FileID_Sort>
2970

> <TS_ChemName>
Dipentaerythritol

> <TS_ChemName_Synonyms>
Dipentaerythritol (1,3-Propanediol, 2,2'-[oxybis(methylene)]bis[2-(hydroxymethyl)-)

> <TS_CASRN>
126-58-9

> <CASRN_ChemName_Relationship>
primary

> <TS_Description>
single chemical compound

> <ChemNote>


> <STRUCTURE_Shown>
tested chemical

> <STRUCTURE_Formula>
C10H22O7

> <STRUCTURE_MW>
254.2775

> <STRUCTURE_ChemType>
defined organic

> <STRUCTURE_DefinedOrganicForm>
parent

> <STRUCTURE_IUPAC>
2,2'-(oxydimethanediyl)bis[2-(hydroxymethyl)propane-1,3-diol]

> <STRUCTURE_SMILES>
OCC(COCC(CO)(CO)CO)(CO)CO

> <STRUCTURE_SMILES_Desalt>
OCC(COCC(CO)(CO)CO)(CO)CO

> <Substance_modify_yyyymmdd>
20080429

$$$$
