126-64-7
ChemmineR-0915142007XD

 19 19  0  0  0  0  0  0  0  0  1 V2000
    2.3092   -0.6697    0.0000 C   0  0  0  0  0  0  0  0  0  0  0  0
    2.3092   -2.0090    0.0000 C   0  0  0  0  0  0  0  0  0  0  0  0
    1.1546    0.0000    0.0000 C   0  0  0  0  0  0  0  0  0  0  0  0
    1.1546   -2.6671    0.0000 C   0  0  0  0  0  0  0  0  0  0  0  0
    0.0000   -0.6697    0.0000 C   0  0  0  0  0  0  0  0  0  0  0  0
    0.0000   -2.0090    0.0000 C   0  0  0  0  0  0  0  0  0  0  0  0
    3.4638   -2.6671    0.0000 C   0  0  0  0  0  0  0  0  0  0  0  0
    3.4638   -3.9949    0.0000 O   0  0  0  0  0  0  0  0  0  0  0  0
    4.6300   -2.0090    0.0000 O   0  0  0  0  0  0  0  0  0  0  0  0
    5.7846   -2.6671    0.0000 C   0  0  0  0  0  0  0  0  0  0  0  0
    6.9161   -2.0090    0.0000 C   0  0  0  0  0  0  0  0  0  0  0  0
    5.7846   -3.9949    0.0000 C   0  0  0  0  0  0  0  0  0  0  0  0
    5.7846   -1.3278    0.0000 C   0  0  0  0  0  0  0  0  0  0  0  0
    6.9161   -0.6697    0.0000 C   0  0  0  0  0  0  0  0  0  0  0  0
    8.0822   -2.6671    0.0000 C   0  0  0  0  0  0  0  0  0  0  0  0
    9.2368   -2.0090    0.0000 C   0  0  0  0  0  0  0  0  0  0  0  0
   10.3915   -2.6671    0.0000 C   0  0  0  0  0  0  0  0  0  0  0  0
   11.5461   -2.0090    0.0000 C   0  0  0  0  0  0  0  0  0  0  0  0
   10.3915   -3.9949    0.0000 C   0  0  0  0  0  0  0  0  0  0  0  0
  1  2  1  0  0  0  0
  1  3  2  0  0  0  0
  2  4  2  0  0  0  0
  2  7  1  0  0  0  0
  3  5  1  0  0  0  0
  4  6  1  0  0  0  0
  5  6  2  0  0  0  0
  7  8  2  0  0  0  0
  7  9  1  0  0  0  0
  9 10  1  0  0  0  0
 10 11  1  0  0  0  0
 10 12  1  0  0  0  0
 10 13  1  0  0  0  0
 11 15  1  0  0  0  0
 13 14  2  0  0  0  0
 15 16  1  0  0  0  0
 16 17  2  0  0  0  0
 17 18  1  0  0  0  0
 17 19  1  0  0  0  0
M  END
> <ID>
12338

> <Formula>
C17H22O2

> <FW>
258.3554

> <DSSTox_CID>
27191

> <DSSTox_RID>
82187

> <DSSTox_GSID>
47191

> <DSSTox_FileID_Sort>
6868

> <TS_ChemName>
Linalyl benzoate

> <TS_ChemName_Synonyms>


> <TS_CASRN>
126-64-7

> <CASRN_ChemName_Relationship>
primary

> <TS_Description>
single chemical compound

> <ChemNote>


> <STRUCTURE_Shown>
tested chemical

> <STRUCTURE_Formula>
C17H22O2

> <STRUCTURE_MW>
258.3554

> <STRUCTURE_ChemType>
defined organic

> <STRUCTURE_DefinedOrganicForm>
parent

> <STRUCTURE_IUPAC>
3,7-dimethylocta-1,6-dien-3-yl benzoate

> <STRUCTURE_SMILES>
C/C(C)=C\CCC(C)(OC(=O)c1ccccc1)C=C

> <STRUCTURE_SMILES_Desalt>
C/C(C)=C\CCC(C)(OC(=O)c1ccccc1)C=C

> <Substance_modify_yyyymmdd>
20100503

$$$$
