126-86-3
ChemmineR-0915142007XD

 16 15  0  0  0  0  0  0  0  0  1 V2000
    0.0000   -2.4780    0.0000 C   0  0  0  0  0  0  0  0  0  0  0  0
    1.3294   -2.4780    0.0000 C   0  0  0  0  0  0  0  0  0  0  0  0
    1.9888   -1.3294    0.0000 C   0  0  0  0  0  0  0  0  0  0  0  0
    3.3182   -1.3294    0.0000 C   0  0  0  0  0  0  0  0  0  0  0  0
    4.6475   -1.3294    0.0000 C   0  0  0  0  0  0  0  0  0  0  0  0
    5.9876   -1.3294    0.0000 C   0  0  0  0  0  0  0  0  0  0  0  0
    7.3170   -1.3294    0.0000 C   0  0  0  0  0  0  0  0  0  0  0  0
    8.6463   -1.3294    0.0000 C   0  0  0  0  0  0  0  0  0  0  0  0
    9.3057   -2.4780    0.0000 C   0  0  0  0  0  0  0  0  0  0  0  0
    8.6463   -3.6372    0.0000 C   0  0  0  0  0  0  0  0  0  0  0  0
    3.3182   -2.6588    0.0000 O   0  0  0  0  0  0  0  0  0  0  0  0
    7.3170    0.0000    0.0000 O   0  0  0  0  0  0  0  0  0  0  0  0
    1.9888   -3.6372    0.0000 C   0  0  0  0  0  0  0  0  0  0  0  0
    3.3182    0.0000    0.0000 C   0  0  0  0  0  0  0  0  0  0  0  0
    7.3170   -2.6588    0.0000 C   0  0  0  0  0  0  0  0  0  0  0  0
   10.6351   -2.4780    0.0000 C   0  0  0  0  0  0  0  0  0  0  0  0
  1  2  1  0  0  0  0
  2  3  1  0  0  0  0
  2 13  1  0  0  0  0
  3  4  1  0  0  0  0
  4  5  1  0  0  0  0
  4 11  1  0  0  0  0
  4 14  1  0  0  0  0
  5  6  3  0  0  0  0
  6  7  1  0  0  0  0
  7  8  1  0  0  0  0
  7 12  1  0  0  0  0
  7 15  1  0  0  0  0
  8  9  1  0  0  0  0
  9 10  1  0  0  0  0
  9 16  1  0  0  0  0
M  END
> <ID>
4900

> <Formula>
C14H26O2

> <FW>
226.355

> <DSSTox_CID>
7041

> <DSSTox_RID>
78288

> <DSSTox_GSID>
27041

> <DSSTox_FileID_Sort>
2971

> <TS_ChemName>
2,4,7,9-Tetramethyl-5-decyne-4,7-diol

> <TS_ChemName_Synonyms>


> <TS_CASRN>
126-86-3

> <CASRN_ChemName_Relationship>
primary

> <TS_Description>
single chemical compound

> <ChemNote>


> <STRUCTURE_Shown>
tested chemical

> <STRUCTURE_Formula>
C14H26O2

> <STRUCTURE_MW>
226.355

> <STRUCTURE_ChemType>
defined organic

> <STRUCTURE_DefinedOrganicForm>
parent

> <STRUCTURE_IUPAC>
2,4,7,9-tetramethyldec-5-yne-4,7-diol

> <STRUCTURE_SMILES>
CC(O)(C#CC(C)(O)CC(C)C)CC(C)C

> <STRUCTURE_SMILES_Desalt>
CC(O)(C#CC(C)(O)CC(C)C)CC(C)C

> <Substance_modify_yyyymmdd>
20080429

$$$$
