126-06-7
ChemmineR-0915142007XD

 11 11  0  0  0  0  0  0  0  0  1 V2000
    3.4116   -1.9702    0.0000 N    0  0  0  0  0  0  0  0  0  0  0  0
    1.6520   -3.2057    0.0000 N    0  0  0  0  0  0  0  0  0  0  0  0
    2.9810   -3.2197    0.0000 C    0  0  0  0  0  0  0  0  0  0  0  0
    2.3399   -1.1699    0.0000 C    0  0  0  0  0  0  0  0  0  0  0  0
    1.2495   -1.9374    0.0000 C    0  0  0  0  0  0  0  0  0  0  0  0
    3.7485   -4.3101    0.0000 O    0  0  0  0  0  0  0  0  0  0  0  0
    0.0000   -1.5069    0.0000 O    0  0  0  0  0  0  0  0  0  0  0  0
    0.8470   -4.2633    0.0000 Br   0  0  0  0  0  0  0  0  0  0  0  0
    4.6798   -1.5677    0.0000 Cl   0  0  0  0  0  0  0  0  0  0  0  0
    3.0278   -0.0328    0.0000 C    0  0  0  0  0  0  0  0  0  0  0  0
    1.6988    0.0000    0.0000 C    0  0  0  0  0  0  0  0  0  0  0  0
  1  3  1  0  0  0  0
  1  4  1  0  0  0  0
  1  9  1  0  0  0  0
  2  3  1  0  0  0  0
  2  5  1  0  0  0  0
  2  8  1  0  0  0  0
  3  6  2  0  0  0  0
  4  5  1  0  0  0  0
  4 10  1  0  0  0  0
  4 11  1  0  0  0  0
  5  7  2  0  0  0  0
M  END
> <ID>
5822

> <Formula>
C5H6BrClN2O2

> <FW>
241.4703

> <DSSTox_CID>
9162

> <DSSTox_RID>
78692

> <DSSTox_GSID>
29162

> <DSSTox_FileID_Sort>
3374

> <TS_ChemName>
3-Bromo-1-chloro-5,5-dimethylhydantoin

> <TS_ChemName_Synonyms>


> <TS_CASRN>
126-06-7

> <CASRN_ChemName_Relationship>
primary

> <TS_Description>
single chemical compound

> <ChemNote>


> <STRUCTURE_Shown>
tested chemical

> <STRUCTURE_Formula>
C5H6BrClN2O2

> <STRUCTURE_MW>
241.4703

> <STRUCTURE_ChemType>
defined organic

> <STRUCTURE_DefinedOrganicForm>
parent

> <STRUCTURE_IUPAC>
3-bromo-1-chloro-5,5-dimethylimidazolidine-2,4-dione

> <STRUCTURE_SMILES>
CC1(C)C(=O)N(Br)C(=O)N1Cl

> <STRUCTURE_SMILES_Desalt>
CC1(C)C(=O)N(Br)C(=O)N1Cl

> <Substance_modify_yyyymmdd>
20080429

$$$$
