126-14-7
ChemmineR-0915142007XD

 47 48  0  0  1  0  0  0  0  0  1 V2000
    7.1640   -7.0094    0.0000 O   0  0  0  0  0  0  0  0  0  0  0  0
    7.7954   -5.9142    0.0000 C   0  0  0  0  0  0  0  0  0  0  0  0
    5.8884   -7.0094    0.0000 C   0  0  0  0  0  0  0  0  0  0  0  0
    6.7388   -5.3472    0.0000 C   0  0  0  0  0  0  0  0  0  0  0  0
    9.0452   -6.2105    0.0000 C   0  0  0  0  0  0  0  0  0  0  0  0
    7.6150   -4.5741    0.0000 O   0  0  0  0  0  0  0  0  0  0  0  0
    5.2313   -8.1561    0.0000 C   0  0  0  0  0  0  0  0  0  0  0  0
    5.2313   -5.8755    0.0000 O   0  0  0  0  0  0  0  0  0  0  0  0
    6.0946   -4.2134    0.0000 O   0  0  0  0  0  0  0  0  0  0  0  0
    9.5477   -7.4346    0.0000 O   0  0  0  0  0  0  0  0  0  0  0  0
    9.6894   -5.0122    0.0000 C   0  0  0  0  0  0  0  0  0  0  0  0
    8.8519   -4.0459    0.0000 C   0  0  0  0  0  0  0  0  0  0  0  0
    5.8884   -9.2385    0.0000 O   0  0  0  0  0  0  0  0  0  0  0  0
    3.8912   -8.1561    0.0000 C   0  0  0  0  0  0  0  0  0  0  0  0
    3.8912   -5.8755    0.0000 C   0  0  0  0  0  0  0  0  0  0  0  0
    6.7517   -3.0795    0.0000 C   0  0  0  0  0  0  0  0  0  0  0  0
   10.8362   -7.5763    0.0000 C   0  0  0  0  0  0  0  0  0  0  0  0
   11.0166   -4.8834    0.0000 O   0  0  0  0  0  0  0  0  0  0  0  0
    9.1096   -2.9120    0.0000 C   0  0  0  0  0  0  0  0  0  0  0  0
    7.1769   -9.2385    0.0000 C   0  0  0  0  0  0  0  0  0  0  0  0
    3.2470   -9.2771    0.0000 O   0  0  0  0  0  0  0  0  0  0  0  0
    3.2341   -7.0351    0.0000 C   0  0  0  0  0  0  0  0  0  0  0  0
    3.3372   -4.8447    0.0000 C   0  0  0  0  0  0  0  0  0  0  0  0
    6.1074   -1.9456    0.0000 C   0  0  0  0  0  0  0  0  0  0  0  0
    8.0659   -3.0795    0.0000 O   0  0  0  0  0  0  0  0  0  0  0  0
   11.3387   -8.8004    0.0000 C   0  0  0  0  0  0  0  0  0  0  0  0
   11.6222   -6.5326    0.0000 O   0  0  0  0  0  0  0  0  0  0  0  0
   11.5706   -3.6722    0.0000 C   0  0  0  0  0  0  0  0  0  0  0  0
   10.0373   -2.1260    0.0000 O   0  0  0  0  0  0  0  0  0  0  0  0
    7.8211  -10.3723    0.0000 C   0  0  0  0  0  0  0  0  0  0  0  0
    7.8211   -8.1046    0.0000 O   0  0  0  0  0  0  0  0  0  0  0  0
    1.9585   -9.2771    0.0000 C   0  0  0  0  0  0  0  0  0  0  0  0
    1.9585   -7.0351    0.0000 O   0  0  0  0  0  0  0  0  0  0  0  0
    4.1747   -3.3630    0.0000 O   0  0  0  0  0  0  0  0  0  0  0  0
   12.8849   -3.5562    0.0000 C   0  0  0  0  0  0  0  0  0  0  0  0
   10.7847   -2.5899    0.0000 O   0  0  0  0  0  0  0  0  0  0  0  0
    9.8312   -0.8375    0.0000 C   0  0  0  0  0  0  0  0  0  0  0  0
    1.3658   -8.1046    0.0000 C   0  0  0  0  0  0  0  0  0  0  0  0
    1.3014  -10.3208    0.0000 O   0  0  0  0  0  0  0  0  0  0  0  0
    1.2756   -5.9399    0.0000 C   0  0  0  0  0  0  0  0  0  0  0  0
    3.2985   -1.8683    0.0000 C   0  0  0  0  0  0  0  0  0  0  0  0
    8.5942   -0.3994    0.0000 C   0  0  0  0  0  0  0  0  0  0  0  0
   10.8104    0.0000    0.0000 O   0  0  0  0  0  0  0  0  0  0  0  0
    0.0000   -5.9399    0.0000 C   0  0  0  0  0  0  0  0  0  0  0  0
    1.9198   -4.8061    0.0000 O   0  0  0  0  0  0  0  0  0  0  0  0
    1.5977   -1.8683    0.0000 C   0  0  0  0  0  0  0  0  0  0  0  0
    4.1618   -0.3994    0.0000 O   0  0  0  0  0  0  0  0  0  0  0  0
  2  1  1  6  0  0  0
  3  1  1  6  0  0  0
  2  4  1  1  0  0  0
  2  5  1  0  0  0  0
  2  6  1  0  0  0  0
  3  7  1  0  0  0  0
  3  8  1  0  0  0  0
  4  9  1  0  0  0  0
  5 10  1  6  0  0  0
  5 11  1  0  0  0  0
  6 12  1  0  0  0  0
  7 13  1  6  0  0  0
  7 14  1  0  0  0  0
  8 15  1  0  0  0  0
  9 16  1  0  0  0  0
 10 17  1  0  0  0  0
 11 12  1  0  0  0  0
 11 18  1  1  0  0  0
 12 19  1  6  0  0  0
 13 20  1  0  0  0  0
 14 21  1  1  0  0  0
 14 22  1  0  0  0  0
 15 22  1  0  0  0  0
 15 23  1  1  0  0  0
 16 24  1  0  0  0  0
 16 25  2  0  0  0  0
 17 26  1  0  0  0  0
 17 27  2  0  0  0  0
 18 28  1  0  0  0  0
 19 29  1  0  0  0  0
 20 30  1  0  0  0  0
 20 31  2  0  0  0  0
 21 32  1  0  0  0  0
 22 33  1  6  0  0  0
 23 34  1  0  0  0  0
 28 35  1  0  0  0  0
 28 36  2  0  0  0  0
 29 37  1  0  0  0  0
 32 38  1  0  0  0  0
 32 39  2  0  0  0  0
 33 40  1  0  0  0  0
 34 41  1  0  0  0  0
 37 42  1  0  0  0  0
 37 43  2  0  0  0  0
 40 44  1  0  0  0  0
 40 45  2  0  0  0  0
 41 46  1  0  0  0  0
 41 47  2  0  0  0  0
M  END
> <ID>
9336

> <Formula>
C28H38O19

> <FW>
678.5899

> <DSSTox_CID>
22423

> <DSSTox_RID>
80020

> <DSSTox_GSID>
42423

> <DSSTox_FileID_Sort>
4702

> <TS_ChemName>
Sucrose octaacetate

> <TS_ChemName_Synonyms>


> <TS_CASRN>
126-14-7

> <CASRN_ChemName_Relationship>
primary

> <TS_Description>
single chemical compound

> <ChemNote>
stereochem

> <STRUCTURE_Shown>
tested chemical

> <STRUCTURE_Formula>
C28H38O19

> <STRUCTURE_MW>
678.5899

> <STRUCTURE_ChemType>
defined organic

> <STRUCTURE_DefinedOrganicForm>
parent

> <STRUCTURE_IUPAC>
1,3,4,6-tetra-O-acetyl-beta-D-fructofuranosyl 2,3,4,6-tetra-O-acetyl-alpha-D-glucopyranoside

> <STRUCTURE_SMILES>
CC(=O)O[C@H]1[C@H](O[C@H](COC(C)=O)[C@@H](OC(C)=O)[C@@H]1OC(C)=O)O[C@]2(COC(C)=O)O[C@H](COC(C)=O)[C@@H](OC(C)=O)[C@@H]2OC(C)=O

> <STRUCTURE_SMILES_Desalt>
CC(=O)O[C@H]1[C@H](O[C@H](COC(C)=O)[C@@H](OC(C)=O)[C@@H]1OC(C)=O)O[C@]2(COC(C)=O)O[C@H](COC(C)=O)[C@@H](OC(C)=O)[C@@H]2OC(C)=O

> <Substance_modify_yyyymmdd>
20080825

$$$$
