126-33-0
ChemmineR-0915142007XD

  7  7  0  0  0  0  0  0  0  0  1 V2000
    1.2173   -1.2683    0.0000 S   0  0  0  0  0  0  0  0  0  0  0  0
    2.1014   -2.2442    0.0000 C   0  0  0  0  0  0  0  0  0  0  0  0
    0.0000   -1.7953    0.0000 C   0  0  0  0  0  0  0  0  0  0  0  0
    0.1428   -3.1283    0.0000 C   0  0  0  0  0  0  0  0  0  0  0  0
    1.4451   -3.4003    0.0000 C   0  0  0  0  0  0  0  0  0  0  0  0
    2.1014   -0.2720    0.0000 O   0  0  0  0  0  0  0  0  0  0  0  0
    0.8025    0.0000    0.0000 O   0  0  0  0  0  0  0  0  0  0  0  0
  1  2  1  0  0  0  0
  1  3  1  0  0  0  0
  1  6  2  0  0  0  0
  1  7  2  0  0  0  0
  2  5  1  0  0  0  0
  3  4  1  0  0  0  0
  4  5  1  0  0  0  0
M  END
> <ID>
4897

> <Formula>
C4H8O2S

> <FW>
120.1701

> <DSSTox_CID>
7037

> <DSSTox_RID>
78286

> <DSSTox_GSID>
27037

> <DSSTox_FileID_Sort>
2969

> <TS_ChemName>
Sulfolane

> <TS_ChemName_Synonyms>
Tetrahydrothiophene 1,1-dioxide (Sulfolane)

> <TS_CASRN>
126-33-0

> <CASRN_ChemName_Relationship>
primary

> <TS_Description>
single chemical compound

> <ChemNote>


> <STRUCTURE_Shown>
tested chemical

> <STRUCTURE_Formula>
C4H8O2S

> <STRUCTURE_MW>
120.1701

> <STRUCTURE_ChemType>
defined organic

> <STRUCTURE_DefinedOrganicForm>
parent

> <STRUCTURE_IUPAC>
tetrahydrothiophene 1,1-dioxide

> <STRUCTURE_SMILES>
O=S1(=O)CCCC1

> <STRUCTURE_SMILES_Desalt>
O=S1(=O)CCCC1

> <Substance_modify_yyyymmdd>
20080429

$$$$
