126-30-7
ChemmineR-0915142007XD

  7  6  0  0  0  0  0  0  0  0  1 V2000
    1.3285    0.0000    0.0000 C   0  0  0  0  0  0  0  0  0  0  0  0
    1.9842   -1.1485    0.0000 C   0  0  0  0  0  0  0  0  0  0  0  0
    3.1327   -0.4800    0.0000 C   0  0  0  0  0  0  0  0  0  0  0  0
    0.0000    0.0000    0.0000 O   0  0  0  0  0  0  0  0  0  0  0  0
    4.2855   -1.1485    0.0000 O   0  0  0  0  0  0  0  0  0  0  0  0
    2.6527   -2.3013    0.0000 C   0  0  0  0  0  0  0  0  0  0  0  0
    0.8314   -1.8213    0.0000 C   0  0  0  0  0  0  0  0  0  0  0  0
  1  2  1  0  0  0  0
  1  4  1  0  0  0  0
  2  3  1  0  0  0  0
  2  6  1  0  0  0  0
  2  7  1  0  0  0  0
  3  5  1  0  0  0  0
M  END
> <ID>
4896

> <Formula>
C5H12O2

> <FW>
104.1476

> <DSSTox_CID>
7036

> <DSSTox_RID>
78285

> <DSSTox_GSID>
27036

> <DSSTox_FileID_Sort>
2968

> <TS_ChemName>
2,2-Dimethylpropane-1,3-diol

> <TS_ChemName_Synonyms>
Neopentyl glycol

> <TS_CASRN>
126-30-7

> <CASRN_ChemName_Relationship>
primary

> <TS_Description>
single chemical compound

> <ChemNote>


> <STRUCTURE_Shown>
tested chemical

> <STRUCTURE_Formula>
C5H12O2

> <STRUCTURE_MW>
104.1476

> <STRUCTURE_ChemType>
defined organic

> <STRUCTURE_DefinedOrganicForm>
parent

> <STRUCTURE_IUPAC>
2,2-dimethylpropane-1,3-diol

> <STRUCTURE_SMILES>
CC(C)(CO)CO

> <STRUCTURE_SMILES_Desalt>
CC(C)(CO)CO

> <Substance_modify_yyyymmdd>
20080429

$$$$
