126-27-2
ChemmineR-0915142007XD

 34 35  0  0  0  0  0  0  0  0  1 V2000
    5.7621  -10.5902    0.0000 C   0  0  0  0  0  0  0  0  0  0  0  0
    5.7621   -9.2622    0.0000 N   0  0  0  0  0  0  0  0  0  0  0  0
    4.6030   -8.5982    0.0000 C   0  0  0  0  0  0  0  0  0  0  0  0
    4.6030   -7.2702    0.0000 O   0  0  0  0  0  0  0  0  0  0  0  0
    3.4550   -9.2622    0.0000 C   0  0  0  0  0  0  0  0  0  0  0  0
    2.3071   -8.5982    0.0000 N   0  0  0  0  0  0  0  0  0  0  0  0
    1.1479   -9.2622    0.0000 C   0  0  0  0  0  0  0  0  0  0  0  0
    1.1479  -10.5902    0.0000 C   0  0  0  0  0  0  0  0  0  0  0  0
    2.3071  -11.2542    0.0000 O   0  0  0  0  0  0  0  0  0  0  0  0
    2.3071   -7.2702    0.0000 C   0  0  0  0  0  0  0  0  0  0  0  0
    1.1479   -6.5950    0.0000 C   0  0  0  0  0  0  0  0  0  0  0  0
    0.0000   -7.2702    0.0000 O   0  0  0  0  0  0  0  0  0  0  0  0
    1.1479   -5.2670    0.0000 N   0  0  0  0  0  0  0  0  0  0  0  0
    0.0000   -4.6030    0.0000 C   0  0  0  0  0  0  0  0  0  0  0  0
    2.3071   -4.6030    0.0000 C   0  0  0  0  0  0  0  0  0  0  0  0
    2.9711   -5.7621    0.0000 C   0  0  0  0  0  0  0  0  0  0  0  0
    3.4550   -3.9390    0.0000 C   0  0  0  0  0  0  0  0  0  0  0  0
    1.6431   -3.4550    0.0000 C   0  0  0  0  0  0  0  0  0  0  0  0
    2.3071   -2.3071    0.0000 C   0  0  0  0  0  0  0  0  0  0  0  0
    3.6351   -2.3071    0.0000 C   0  0  0  0  0  0  0  0  0  0  0  0
    4.2991   -1.1479    0.0000 C   0  0  0  0  0  0  0  0  0  0  0  0
    3.6351    0.0000    0.0000 C   0  0  0  0  0  0  0  0  0  0  0  0
    2.3071    0.0000    0.0000 C   0  0  0  0  0  0  0  0  0  0  0  0
    1.6431   -1.1479    0.0000 C   0  0  0  0  0  0  0  0  0  0  0  0
    6.9101   -8.5982    0.0000 C   0  0  0  0  0  0  0  0  0  0  0  0
    7.5741   -9.7461    0.0000 C   0  0  0  0  0  0  0  0  0  0  0  0
    8.0580   -7.9342    0.0000 C   0  0  0  0  0  0  0  0  0  0  0  0
    6.2461   -7.4390    0.0000 C   0  0  0  0  0  0  0  0  0  0  0  0
    6.9101   -6.2911    0.0000 C   0  0  0  0  0  0  0  0  0  0  0  0
    6.2461   -5.1432    0.0000 C   0  0  0  0  0  0  0  0  0  0  0  0
    6.9101   -3.9840    0.0000 C   0  0  0  0  0  0  0  0  0  0  0  0
    8.2381   -3.9840    0.0000 C   0  0  0  0  0  0  0  0  0  0  0  0
    8.9021   -5.1432    0.0000 C   0  0  0  0  0  0  0  0  0  0  0  0
    8.2381   -6.2911    0.0000 C   0  0  0  0  0  0  0  0  0  0  0  0
  1  2  1  0  0  0  0
  2  3  1  0  0  0  0
  2 25  1  0  0  0  0
  3  4  2  0  0  0  0
  3  5  1  0  0  0  0
  5  6  1  0  0  0  0
  6  7  1  0  0  0  0
  6 10  1  0  0  0  0
  7  8  1  0  0  0  0
  8  9  1  0  0  0  0
 10 11  1  0  0  0  0
 11 12  2  0  0  0  0
 11 13  1  0  0  0  0
 13 14  1  0  0  0  0
 13 15  1  0  0  0  0
 15 16  1  0  0  0  0
 15 17  1  0  0  0  0
 15 18  1  0  0  0  0
 18 19  1  0  0  0  0
 19 20  2  0  0  0  0
 19 24  1  0  0  0  0
 20 21  1  0  0  0  0
 21 22  2  0  0  0  0
 22 23  1  0  0  0  0
 23 24  2  0  0  0  0
 25 26  1  0  0  0  0
 25 27  1  0  0  0  0
 25 28  1  0  0  0  0
 28 29  1  0  0  0  0
 29 30  2  0  0  0  0
 29 34  1  0  0  0  0
 30 31  1  0  0  0  0
 31 32  2  0  0  0  0
 32 33  1  0  0  0  0
 33 34  2  0  0  0  0
M  END
> <ID>
4422

> <Formula>
C28H41N3O3

> <FW>
467.6434

> <DSSTox_CID>
5818

> <DSSTox_RID>
77936

> <DSSTox_GSID>
25818

> <DSSTox_FileID_Sort>
2619

> <TS_ChemName>
Oxethazaine

> <TS_ChemName_Synonyms>


> <TS_CASRN>
126-27-2

> <CASRN_ChemName_Relationship>
primary

> <TS_Description>
single chemical compound

> <ChemNote>


> <STRUCTURE_Shown>
tested chemical

> <STRUCTURE_Formula>
C28H41N3O3

> <STRUCTURE_MW>
467.6434

> <STRUCTURE_ChemType>
defined organic

> <STRUCTURE_DefinedOrganicForm>
parent

> <STRUCTURE_IUPAC>
2,2'-[(2-hydroxyethyl)imino]bis[N-methyl-N-(2-methyl-1-phenylpropan-2-yl)acetamide]

> <STRUCTURE_SMILES>
CC(C)(Cc1ccccc1)N(C)C(=O)CN(CCO)CC(=O)N(C)C(C)(C)Cc2ccccc2

> <STRUCTURE_SMILES_Desalt>
CC(C)(Cc1ccccc1)N(C)C(=O)CN(CCO)CC(=O)N(C)C(C)(C)Cc2ccccc2

> <Substance_modify_yyyymmdd>
20080429

$$$$
