126-92-1
ChemmineR-0915142007XD

 14 12  0  0  0  0  0  0  0  0  2 V2000
    0.0000   -3.4572    0.0000 C    0  0  0  0  0  0  0  0  0  0  0  0
    1.3310   -3.4572    0.0000 C    0  0  0  0  0  0  0  0  0  0  0  0
    1.9965   -2.2990    0.0000 C    0  0  0  0  0  0  0  0  0  0  0  0
    3.3275   -2.2990    0.0000 C    0  0  0  0  0  0  0  0  0  0  0  0
    3.9930   -1.1495    0.0000 C    0  0  0  0  0  0  0  0  0  0  0  0
    3.3275    0.0000    0.0000 C    0  0  0  0  0  0  0  0  0  0  0  0
    1.9965    0.0000    0.0000 C    0  0  0  0  0  0  0  0  0  0  0  0
    5.3154   -1.1495    0.0000 C    0  0  0  0  0  0  0  0  0  0  0  0
    5.9809   -2.2990    0.0000 O    0  0  0  0  0  0  0  0  0  0  0  0
    7.3119   -2.2990    0.0000 S    0  0  0  0  0  0  0  0  0  0  0  0
    7.3119   -0.9680    0.0000 O    0  0  0  0  0  0  0  0  0  0  0  0
    8.6429   -2.2990    0.0000 O    0  5  0  0  0  0  0  0  0  0  0  0
    7.3119   -3.6300    0.0000 O    0  0  0  0  0  0  0  0  0  0  0  0
    4.2523   -4.9611    0.0000 Na   0  3  0  0  0  0  0  0  0  0  0  0
  1  2  1  0  0  0  0
  2  3  1  0  0  0  0
  3  4  1  0  0  0  0
  4  5  1  0  0  0  0
  5  6  1  0  0  0  0
  5  8  1  0  0  0  0
  6  7  1  0  0  0  0
  8  9  1  0  0  0  0
  9 10  1  0  0  0  0
 10 11  2  0  0  0  0
 10 12  1  0  0  0  0
 10 13  2  0  0  0  0
M  END
> <ID>
4508

> <Formula>
C8H17NaO4S

> <FW>
232.2729 (209.2837+22.9892)

> <DSSTox_CID>
6033

> <DSSTox_RID>
77990

> <DSSTox_GSID>
26033

> <DSSTox_FileID_Sort>
2673

> <TS_ChemName>
Sodium ethasulfate

> <TS_ChemName_Synonyms>
Sodium (2-ethylhexyl)alcohol sulfate; Sulfuric acid, mono(2-ethylhexyl) ester, sodium salt

> <TS_CASRN>
126-92-1

> <CASRN_ChemName_Relationship>
primary

> <TS_Description>
single chemical compound

> <ChemNote>
parent [72214-01-8]

> <STRUCTURE_Shown>
tested chemical

> <STRUCTURE_Formula>
C8H17NaO4S

> <STRUCTURE_MW>
232.2729

> <STRUCTURE_ChemType>
defined organic

> <STRUCTURE_DefinedOrganicForm>
salt

> <STRUCTURE_IUPAC>
sodium 2-ethylhexyl sulfate

> <STRUCTURE_SMILES>
[Na+].O=S([O-])(=O)OCC(CCCC)CC

> <STRUCTURE_SMILES_Desalt>
CCCCC(COS(O)(=O)=O)CC

> <Substance_modify_yyyymmdd>
20131118

$$$$
