126-22-7
ChemmineR-0915142007XD

 17 16  0  0  0  0  0  0  0  0  1 V2000
    2.3296   -1.8476    0.0000 C    0  0  0  0  0  0  0  0  0  0  0  0
    2.3296   -3.1570    0.0000 P    0  0  0  0  0  0  0  0  0  0  0  0
    1.1487   -1.1487    0.0000 C    0  0  0  0  0  0  0  0  0  0  0  0
    3.4301   -1.1487    0.0000 O    0  0  0  0  0  0  0  0  0  0  0  0
    4.5868   -1.8637    0.0000 C    0  0  0  0  0  0  0  0  0  0  0  0
    0.9399   -3.1570    0.0000 O    0  0  0  0  0  0  0  0  0  0  0  0
    4.5868   -3.1570    0.0000 O    0  0  0  0  0  0  0  0  0  0  0  0
    0.4820   -2.3135    0.0000 Cl   0  0  0  0  0  0  0  0  0  0  0  0
    0.0000   -0.4980    0.0000 Cl   0  0  0  0  0  0  0  0  0  0  0  0
    1.8315    0.0000    0.0000 Cl   0  0  0  0  0  0  0  0  0  0  0  0
    3.6148   -3.1570    0.0000 O    0  0  0  0  0  0  0  0  0  0  0  0
    2.3296   -4.5145    0.0000 O    0  0  0  0  0  0  0  0  0  0  0  0
    5.7034   -1.2290    0.0000 C    0  0  0  0  0  0  0  0  0  0  0  0
    3.4461   -5.1813    0.0000 C    0  0  0  0  0  0  0  0  0  0  0  0
    4.3057   -4.3057    0.0000 C    0  0  0  0  0  0  0  0  0  0  0  0
    6.8843   -1.8637    0.0000 C    0  0  0  0  0  0  0  0  0  0  0  0
    8.0330   -1.1648    0.0000 C    0  0  0  0  0  0  0  0  0  0  0  0
  1  2  1  0  0  0  0
  1  3  1  0  0  0  0
  1  4  1  0  0  0  0
  2  6  2  0  0  0  0
  2 11  1  0  0  0  0
  2 12  1  0  0  0  0
  3  8  1  0  0  0  0
  3  9  1  0  0  0  0
  3 10  1  0  0  0  0
  4  5  1  0  0  0  0
  5  7  2  0  0  0  0
  5 13  1  0  0  0  0
 11 15  1  0  0  0  0
 12 14  1  0  0  0  0
 13 16  1  0  0  0  0
 16 17  1  0  0  0  0
M  END
> <ID>
8653

> <Formula>
C8H14Cl3O5P

> <FW>
327.5265

> <DSSTox_CID>
21697

> <DSSTox_RID>
79823

> <DSSTox_GSID>
41697

> <DSSTox_FileID_Sort>
4505

> <TS_ChemName>
Butonate

> <TS_ChemName_Synonyms>


> <TS_CASRN>
126-22-7

> <CASRN_ChemName_Relationship>
primary

> <TS_Description>
single chemical compound

> <ChemNote>


> <STRUCTURE_Shown>
tested chemical

> <STRUCTURE_Formula>
C8H14Cl3O5P

> <STRUCTURE_MW>
327.5265

> <STRUCTURE_ChemType>
defined organic

> <STRUCTURE_DefinedOrganicForm>
parent

> <STRUCTURE_IUPAC>
2,2,2-trichloro-1-(dimethoxyphosphoryl)ethyl butanoate

> <STRUCTURE_SMILES>
O=P(OC)(OC)C(OC(=O)CCC)C(Cl)(Cl)Cl

> <STRUCTURE_SMILES_Desalt>
O=P(OC)(OC)C(OC(=O)CCC)C(Cl)(Cl)Cl

> <Substance_modify_yyyymmdd>
20080825

$$$$
