126-98-7
ChemmineR-0915142007XD

  5  4  0  0  0  0  0  0  0  0  1 V2000
    0.0000    0.0000    0.0000 N   0  0  0  0  0  0  0  0  0  0  0  0
    1.1416   -0.6587    0.0000 C   0  0  0  0  0  0  0  0  0  0  0  0
    2.3073   -1.3313    0.0000 C   0  0  0  0  0  0  0  0  0  0  0  0
    2.3073   -2.6625    0.0000 C   0  0  0  0  0  0  0  0  0  0  0  0
    3.4489   -0.6587    0.0000 C   0  0  0  0  0  0  0  0  0  0  0  0
  1  2  3  0  0  0  0
  2  3  1  0  0  0  0
  3  4  2  0  0  0  0
  3  5  1  0  0  0  0
M  END
> <ID>
3547

> <Formula>
C4H5N

> <FW>
67.0892

> <DSSTox_CID>
4176

> <DSSTox_RID>
77317

> <DSSTox_GSID>
24176

> <DSSTox_FileID_Sort>
2000

> <TS_ChemName>
Methacrylonitrile

> <TS_ChemName_Synonyms>


> <TS_CASRN>
126-98-7

> <CASRN_ChemName_Relationship>
primary

> <TS_Description>
single chemical compound

> <ChemNote>


> <STRUCTURE_Shown>
tested chemical

> <STRUCTURE_Formula>
C4H5N

> <STRUCTURE_MW>
67.0892

> <STRUCTURE_ChemType>
defined organic

> <STRUCTURE_DefinedOrganicForm>
parent

> <STRUCTURE_IUPAC>
2-methylprop-2-enenitrile

> <STRUCTURE_SMILES>
C=C(C)C#N

> <STRUCTURE_SMILES_Desalt>
C=C(C)C#N

> <Substance_modify_yyyymmdd>
20080429

$$$$
