1260-17-9
ChemmineR-0915142007XD

 35 38  0  0  1  0  0  0  0  0  1 V2000
    3.4478   -3.2948    0.0000 C   0  0  0  0  0  0  0  0  0  0  0  0
    3.4478   -4.6155    0.0000 C   0  0  0  0  0  0  0  0  0  0  0  0
    4.6016   -5.2689    0.0000 C   0  0  0  0  0  0  0  0  0  0  0  0
    5.7416   -4.6155    0.0000 C   0  0  0  0  0  0  0  0  0  0  0  0
    5.7416   -3.2948    0.0000 O   0  0  0  0  0  0  0  0  0  0  0  0
    6.8955   -5.2689    0.0000 C   0  0  0  0  0  0  0  0  0  0  0  0
    6.8955   -6.6175    0.0000 C   0  0  0  0  0  0  0  0  0  0  0  0
    8.0494   -7.2709    0.0000 C   0  0  0  0  0  0  0  0  0  0  0  0
    9.1894   -6.6175    0.0000 C   0  0  0  0  0  0  0  0  0  0  0  0
   10.3433   -7.2709    0.0000 O   0  0  0  0  0  0  0  0  0  0  0  0
    9.1894   -5.2689    0.0000 C   0  0  0  0  0  0  0  0  0  0  0  0
    8.0494   -4.6155    0.0000 C   0  0  0  0  0  0  0  0  0  0  0  0
    8.0494   -3.2948    0.0000 O   0  0  0  0  0  0  0  0  0  0  0  0
   10.3711   -4.4626    0.0000 C   0  0  0  0  0  0  0  0  0  0  0  0
   10.0374   -3.1836    0.0000 O   0  0  0  0  0  0  0  0  0  0  0  0
   10.9689   -2.2383    0.0000 C   0  0  0  0  0  0  0  0  0  0  0  0
   10.6074   -0.9593    0.0000 C   0  0  0  0  0  0  0  0  0  0  0  0
   11.5388    0.0000    0.0000 O   0  0  0  0  0  0  0  0  0  0  0  0
   12.2479   -2.5719    0.0000 C   0  0  0  0  0  0  0  0  0  0  0  0
   13.1793   -1.6266    0.0000 O   0  0  0  0  0  0  0  0  0  0  0  0
   12.6093   -3.8509    0.0000 C   0  0  0  0  0  0  0  0  0  0  0  0
   13.9022   -4.1846    0.0000 O   0  0  0  0  0  0  0  0  0  0  0  0
   11.6640   -4.7963    0.0000 C   0  0  0  0  0  0  0  0  0  0  0  0
   12.0393   -6.0892    0.0000 O   0  0  0  0  0  0  0  0  0  0  0  0
    8.0494   -8.5916    0.0000 O   0  0  0  0  0  0  0  0  0  0  0  0
    5.7416   -7.2709    0.0000 C   0  0  0  0  0  0  0  0  0  0  0  0
    5.7416   -8.5916    0.0000 O   0  0  0  0  0  0  0  0  0  0  0  0
    4.6016   -6.6175    0.0000 C   0  0  0  0  0  0  0  0  0  0  0  0
    3.4478   -7.2709    0.0000 C   0  0  0  0  0  0  0  0  0  0  0  0
    2.2939   -6.6175    0.0000 C   0  0  0  0  0  0  0  0  0  0  0  0
    2.2939   -5.2689    0.0000 C   0  0  0  0  0  0  0  0  0  0  0  0
    1.1539   -4.6155    0.0000 C   0  0  0  0  0  0  0  0  0  0  0  0
    0.0000   -5.2689    0.0000 O   0  0  0  0  0  0  0  0  0  0  0  0
    1.1539   -3.2948    0.0000 O   0  0  0  0  0  0  0  0  0  0  0  0
    1.1539   -7.2709    0.0000 O   0  0  0  0  0  0  0  0  0  0  0  0
  1  2  1  0  0  0  0
  2  3  2  0  0  0  0
  2 31  1  0  0  0  0
  3  4  1  0  0  0  0
  3 28  1  0  0  0  0
  4  5  2  0  0  0  0
  4  6  1  0  0  0  0
  6  7  2  0  0  0  0
  6 12  1  0  0  0  0
  7  8  1  0  0  0  0
  7 26  1  0  0  0  0
  8  9  2  0  0  0  0
  8 25  1  0  0  0  0
  9 10  1  0  0  0  0
  9 11  1  0  0  0  0
 11 12  2  0  0  0  0
 14 11  1  6  0  0  0
 12 13  1  0  0  0  0
 14 15  1  0  0  0  0
 14 23  1  0  0  0  0
 15 16  1  0  0  0  0
 16 17  1  6  0  0  0
 16 19  1  0  0  0  0
 17 18  1  0  0  0  0
 19 20  1  1  0  0  0
 19 21  1  0  0  0  0
 21 22  1  6  0  0  0
 21 23  1  0  0  0  0
 23 24  1  1  0  0  0
 26 27  2  0  0  0  0
 26 28  1  0  0  0  0
 28 29  2  0  0  0  0
 29 30  1  0  0  0  0
 30 31  2  0  0  0  0
 30 35  1  0  0  0  0
 31 32  1  0  0  0  0
 32 33  1  0  0  0  0
 32 34  2  0  0  0  0
M  END
> <ID>
2548

> <Formula>
C22H20O13

> <FW>
492.3864

> <DSSTox_CID>
2817

> <DSSTox_RID>
76743

> <DSSTox_GSID>
22817

> <DSSTox_FileID_Sort>
1427

> <TS_ChemName>
Carminic acid

> <TS_ChemName_Synonyms>
Carminic acid (C.I. Natural Red 4)

> <TS_CASRN>
1260-17-9

> <CASRN_ChemName_Relationship>
primary

> <TS_Description>
single chemical compound

> <ChemNote>
stereochem; C.I. 75470

> <STRUCTURE_Shown>
tested chemical

> <STRUCTURE_Formula>
C22H20O13

> <STRUCTURE_MW>
492.3864

> <STRUCTURE_ChemType>
defined organic

> <STRUCTURE_DefinedOrganicForm>
parent

> <STRUCTURE_IUPAC>
(1S)-1,5-anhydro-1-(7-carboxy-1,3,4,6-tetrahydroxy-8-methyl-9,10-dioxo-9,10-dihydroanthracen-2-yl)-D-glucitol

> <STRUCTURE_SMILES>
O[C@H]1[C@H](O)[C@@H](O)[C@@H](O[C@@H]1CO)c4c(O)c3C(=O)c2c(C)c(C(=O)O)c(O)cc2C(=O)c3c(O)c4O

> <STRUCTURE_SMILES_Desalt>
O[C@H]1[C@H](O)[C@@H](O)[C@@H](O[C@@H]1CO)c4c(O)c3C(=O)c2c(C)c(C(=O)O)c(O)cc2C(=O)c3c(O)c4O

> <Substance_modify_yyyymmdd>
20080429

$$$$
