1263-89-4
ChemmineR-0915142007XD

 47 49  0  0  1  0  0  0  0  0  1 V2000
   15.3010   -3.0403    0.0000 N   0  0  0  0  0  0  0  0  0  0  0  0
   14.6198   -4.1866    0.0000 C   0  0  0  0  0  0  0  0  0  0  0  0
   15.2844   -5.3495    0.0000 C   0  0  0  0  0  0  0  0  0  0  0  0
   16.6135   -5.3495    0.0000 O   0  0  0  0  0  0  0  0  0  0  0  0
   14.6032   -6.4959    0.0000 C   0  0  0  0  0  0  0  0  0  0  0  0
   15.2678   -7.6422    0.0000 O   0  0  0  0  0  0  0  0  0  0  0  0
   13.2908   -6.4959    0.0000 C   0  0  0  0  0  0  0  0  0  0  0  0
   12.6262   -7.6256    0.0000 C   0  0  0  0  0  0  0  0  0  0  0  0
   13.2741   -8.7885    0.0000 N   0  0  0  0  0  0  0  0  0  0  0  0
   12.6428   -5.3495    0.0000 O   0  0  0  0  0  0  0  0  0  0  0  0
   13.2908   -4.1866    0.0000 C   0  0  0  0  0  0  0  0  0  0  0  0
   12.6428   -3.0403    0.0000 O   0  0  0  0  0  0  0  0  0  0  0  0
   11.3138   -2.8741    0.0000 C   0  0  0  0  0  0  0  0  0  0  0  0
   10.4332   -3.8709    0.0000 C   0  0  0  0  0  0  0  0  0  0  0  0
   10.6991   -5.1834    0.0000 O   0  0  0  0  0  0  0  0  0  0  0  0
    9.2205   -3.3227    0.0000 C   0  0  0  0  0  0  0  0  0  0  0  0
    9.3368   -2.0268    0.0000 O   0  0  0  0  0  0  0  0  0  0  0  0
   10.6492   -1.7444    0.0000 C   0  0  0  0  0  0  0  0  0  0  0  0
   11.1975   -0.5150    0.0000 C   0  0  0  0  0  0  0  0  0  0  0  0
   12.5265   -0.3821    0.0000 O   0  0  0  0  0  0  0  0  0  0  0  0
    8.0741   -4.0038    0.0000 O   0  0  0  0  0  0  0  0  0  0  0  0
    6.8946   -3.3227    0.0000 C   0  0  0  0  0  0  0  0  0  0  0  0
    5.7649   -4.0038    0.0000 C   0  0  0  0  0  0  0  0  0  0  0  0
    5.7649   -5.3329    0.0000 O   0  0  0  0  0  0  0  0  0  0  0  0
    4.6019   -5.9975    0.0000 C   0  0  0  0  0  0  0  0  0  0  0  0
    3.4556   -5.3329    0.0000 O   0  0  0  0  0  0  0  0  0  0  0  0
    2.2927   -5.9975    0.0000 C   0  0  0  0  0  0  0  0  0  0  0  0
    1.1463   -5.3329    0.0000 C   0  0  0  0  0  0  0  0  0  0  0  0
    0.0000   -5.9975    0.0000 O   0  0  0  0  0  0  0  0  0  0  0  0
    2.2927   -7.3265    0.0000 C   0  0  0  0  0  0  0  0  0  0  0  0
    1.1463   -7.9911    0.0000 O   0  0  0  0  0  0  0  0  0  0  0  0
    3.4556   -7.9911    0.0000 C   0  0  0  0  0  0  0  0  0  0  0  0
    3.4556   -9.3201    0.0000 O   0  0  0  0  0  0  0  0  0  0  0  0
    4.6019   -7.3265    0.0000 C   0  0  0  0  0  0  0  0  0  0  0  0
    5.7649   -7.9911    0.0000 N   0  0  0  0  0  0  0  0  0  0  0  0
    4.6019   -3.3227    0.0000 C   0  0  0  0  0  0  0  0  0  0  0  0
    3.4556   -4.0038    0.0000 N   0  0  0  0  0  0  0  0  0  0  0  0
    4.6019   -2.0102    0.0000 C   0  0  0  0  0  0  0  0  0  0  0  0
    5.7649   -1.3457    0.0000 C   0  0  0  0  0  0  0  0  0  0  0  0
    5.7649    0.0000    0.0000 N   0  0  0  0  0  0  0  0  0  0  0  0
    6.8946   -2.0102    0.0000 C   0  0  0  0  0  0  0  0  0  0  0  0
    8.0741   -1.3457    0.0000 O   0  0  0  0  0  0  0  0  0  0  0  0
    9.6524   -8.3898    0.0000 S   0  0  0  0  0  0  0  0  0  0  0  0
   10.9815   -8.3898    0.0000 O   0  0  0  0  0  0  0  0  0  0  0  0
    8.3233   -8.3898    0.0000 O   0  0  0  0  0  0  0  0  0  0  0  0
    9.6524   -9.7189    0.0000 O   0  0  0  0  0  0  0  0  0  0  0  0
    9.6524   -7.0607    0.0000 O   0  0  0  0  0  0  0  0  0  0  0  0
  2  1  1  6  0  0  0
  2  3  1  0  0  0  0
  2 11  1  0  0  0  0
  3  4  1  1  0  0  0
  3  5  1  0  0  0  0
  5  6  1  6  0  0  0
  5  7  1  0  0  0  0
  7  8  1  6  0  0  0
  7 10  1  0  0  0  0
  8  9  1  0  0  0  0
 10 11  1  0  0  0  0
 11 12  1  6  0  0  0
 13 12  1  1  0  0  0
 13 14  1  0  0  0  0
 13 18  1  0  0  0  0
 14 15  1  1  0  0  0
 14 16  1  0  0  0  0
 16 17  1  0  0  0  0
 16 21  1  6  0  0  0
 17 18  1  0  0  0  0
 18 19  1  6  0  0  0
 19 20  1  0  0  0  0
 22 21  1  1  0  0  0
 22 23  1  0  0  0  0
 22 41  1  0  0  0  0
 23 24  1  6  0  0  0
 23 36  1  0  0  0  0
 25 24  1  6  0  0  0
 25 26  1  0  0  0  0
 25 34  1  0  0  0  0
 26 27  1  0  0  0  0
 27 28  1  1  0  0  0
 27 30  1  0  0  0  0
 28 29  1  0  0  0  0
 30 31  1  6  0  0  0
 30 32  1  0  0  0  0
 32 33  1  1  0  0  0
 32 34  1  0  0  0  0
 34 35  1  6  0  0  0
 36 37  1  1  0  0  0
 36 38  1  0  0  0  0
 38 39  1  0  0  0  0
 39 40  1  1  0  0  0
 39 41  1  0  0  0  0
 41 42  1  6  0  0  0
 43 44  2  0  0  0  0
 43 45  2  0  0  0  0
 43 46  1  0  0  0  0
 43 47  1  0  0  0  0
M  END
> <ID>
12912

> <Formula>
C23H47N5O18S

> <FW>
713.7070 (615.6285+98.0785)

> <DSSTox_CID>
27806

> <DSSTox_RID>
82574

> <DSSTox_GSID>
47829

> <DSSTox_FileID_Sort>
7251

> <TS_ChemName>
Paromomycin sulfate

> <TS_ChemName_Synonyms>


> <TS_CASRN>
1263-89-4

> <CASRN_ChemName_Relationship>
primary

> <TS_Description>
single chemical compound

> <ChemNote>
stereochem; parent [7542-37-2]

> <STRUCTURE_Shown>
tested chemical

> <STRUCTURE_Formula>
C23H47N5O18S

> <STRUCTURE_MW>
713.707

> <STRUCTURE_ChemType>
defined organic

> <STRUCTURE_DefinedOrganicForm>
complex

> <STRUCTURE_IUPAC>
(1R,2R,3S,4R,6S)-4,6-diamino-2-{[3-O-(2,6-diamino-2,6-dideoxy-beta-L-idopyranosyl)-beta-D-ribofuranosyl]oxy}-3-hydroxycyclohexyl 2-amino-2-deoxy-alpha-D-glucopyranoside sulfate (1:1)

> <STRUCTURE_SMILES>
O=S(=O)(O)O.N[C@@H]4[C@@H](O)[C@H](O)[C@@H](CO)O[C@@H]4O[C@@H]3[C@@H](N)C[C@@H](N)[C@H](O)[C@H]3O[C@@H]2O[C@H](CO)[C@@H](O[C@H]1O[C@@H](CN)[C@@H](O)[C@H](O)[C@H]1N)[C@H]2O

> <STRUCTURE_SMILES_Desalt>
N[C@@H]4[C@@H](O)[C@H](O)[C@@H](CO)O[C@@H]4O[C@@H]3[C@@H](N)C[C@@H](N)[C@H](O)[C@H]3O[C@@H]2O[C@H](CO)[C@@H](O[C@H]1O[C@@H](CN)[C@@H](O)[C@H](O)[C@H]1N)[C@H]2O

> <Substance_modify_yyyymmdd>
20110811

$$$$
