1264-62-6
ChemmineR-0915142007XD

 60 62  0  0  1  0  0  0  0  0  1 V2000
    5.1998   -7.4484    0.0000 C   0  0  0  0  0  0  0  0  0  0  0  0
    2.9044   -7.4484    0.0000 C   0  0  0  0  0  0  0  0  0  0  0  0
    1.7489   -4.1224    0.0000 C   0  0  0  0  0  0  0  0  0  0  0  0
    4.0755   -8.1354    0.0000 C   0  0  0  0  0  0  0  0  0  0  0  0
    6.3397   -5.4809    0.0000 C   0  0  0  0  0  0  0  0  0  0  0  0
    5.1998   -6.1367    0.0000 C   0  0  0  0  0  0  0  0  0  0  0  0
    2.9044   -2.1549    0.0000 C   0  0  0  0  0  0  0  0  0  0  0  0
    2.9044   -6.1367    0.0000 O   0  0  0  0  0  0  0  0  0  0  0  0
    2.9044   -3.4665    0.0000 C   0  0  0  0  0  0  0  0  0  0  0  0
    4.0911   -1.3897    0.0000 C   0  0  0  0  0  0  0  0  0  0  0  0
    7.5577   -6.1992    0.0000 O   0  0  0  0  0  0  0  0  0  0  0  0
    6.3397   -4.1224    0.0000 C   0  0  0  0  0  0  0  0  0  0  0  0
    1.7489   -5.4809    0.0000 C   0  0  0  0  0  0  0  0  0  0  0  0
    6.3553   -8.1823    0.0000 O   0  0  0  0  0  0  0  0  0  0  0  0
    5.1998   -2.1549    0.0000 C   0  0  0  0  0  0  0  0  0  0  0  0
    5.1998   -3.4665    0.0000 C   0  0  0  0  0  0  0  0  0  0  0  0
    1.7489   -8.1823    0.0000 O   0  0  0  0  0  0  0  0  0  0  0  0
    4.0911    0.0000    0.0000 O   0  0  0  0  0  0  0  0  0  0  0  0
    1.7489   -2.7482    0.0000 O   0  0  0  0  0  0  0  0  0  0  0  0
    6.3397   -2.7482    0.0000 O   0  0  0  0  0  0  0  0  0  0  0  0
    4.0755   -4.1380    0.0000 O   0  0  0  0  0  0  0  0  0  0  0  0
    0.5934   -3.4041    0.0000 C   0  0  0  0  0  0  0  0  0  0  0  0
    4.0755   -9.4159    0.0000 C   0  0  0  0  0  0  0  0  0  0  0  0
    4.0755   -5.4653    0.0000 C   0  0  0  0  0  0  0  0  0  0  0  0
    1.7489   -1.4678    0.0000 C   0  0  0  0  0  0  0  0  0  0  0  0
    7.2766   -3.5446    0.0000 C   0  0  0  0  0  0  0  0  0  0  0  0
    0.6090   -6.1835    0.0000 C   0  0  0  0  0  0  0  0  0  0  0  0
    6.3553   -1.4678    0.0000 C   0  0  0  0  0  0  0  0  0  0  0  0
    0.0000   -7.1985    0.0000 C   0  0  0  0  0  0  0  0  0  0  0  0
    7.5733  -11.6800    0.0000 C   0  0  0  0  0  0  0  0  0  0  0  0
    6.3553  -12.4139    0.0000 C   0  0  0  0  0  0  0  0  0  0  0  0
    7.5733  -10.2747    0.0000 C   0  0  0  0  0  0  0  0  0  0  0  0
    5.1217  -11.6800    0.0000 C   0  0  0  0  0  0  0  0  0  0  0  0
    6.3553   -9.5720    0.0000 C   0  0  0  0  0  0  0  0  0  0  0  0
    5.1217  -10.2747    0.0000 O   0  0  0  0  0  0  0  0  0  0  0  0
    8.9943  -11.6644    0.0000 O   0  0  0  0  0  0  0  0  0  0  0  0
    6.3553  -13.8193    0.0000 O   0  0  0  0  0  0  0  0  0  0  0  0
    8.2916  -12.9136    0.0000 C   0  0  0  0  0  0  0  0  0  0  0  0
    9.7438  -12.8980    0.0000 C   0  0  0  0  0  0  0  0  0  0  0  0
    3.9038  -12.4139    0.0000 C   0  0  0  0  0  0  0  0  0  0  0  0
   11.2116   -5.5277    0.0000 C   0  0  0  0  0  0  0  0  0  0  0  0
   11.2116   -4.0755    0.0000 C   0  0  0  0  0  0  0  0  0  0  0  0
    9.9936   -6.2304    0.0000 C   0  0  0  0  0  0  0  0  0  0  0  0
    9.9936   -3.4041    0.0000 C   0  0  0  0  0  0  0  0  0  0  0  0
    8.7756   -5.4965    0.0000 C   0  0  0  0  0  0  0  0  0  0  0  0
    8.7444   -4.0911    0.0000 O   0  0  0  0  0  0  0  0  0  0  0  0
    9.9936   -1.9675    0.0000 C   0  0  0  0  0  0  0  0  0  0  0  0
    9.9936   -7.6514    0.0000 O   0  0  0  0  0  0  0  0  0  0  0  0
   12.4452   -6.1992    0.0000 N   0  0  0  0  0  0  0  0  0  0  0  0
   13.6631   -5.4809    0.0000 C   0  0  0  0  0  0  0  0  0  0  0  0
   12.4452   -7.3391    0.0000 C   0  0  0  0  0  0  0  0  0  0  0  0
   13.3508   -9.6032    0.0000 C   0  0  0  0  0  0  0  0  0  0  0  0
   10.5401   -8.6195    0.0000 C   0  0  0  0  0  0  0  0  0  0  0  0
   13.9286   -8.6195    0.0000 O   0  0  0  0  0  0  0  0  0  0  0  0
    9.9936   -9.6032    0.0000 O   0  0  0  0  0  0  0  0  0  0  0  0
   13.9286  -10.5558    0.0000 O   0  0  0  0  0  0  0  0  0  0  0  0
   11.6644   -8.6195    0.0000 C   0  0  0  0  0  0  0  0  0  0  0  0
   12.2266   -9.6032    0.0000 C   0  0  0  0  0  0  0  0  0  0  0  0
   15.0529  -10.5558    0.0000 C   0  0  0  0  0  0  0  0  0  0  0  0
   15.6150  -11.5551    0.0000 C   0  0  0  0  0  0  0  0  0  0  0  0
  1  6  1  0  0  0  0
  1  4  1  0  0  0  0
  1 14  1  6  0  0  0
  2  4  1  0  0  0  0
  2  8  1  0  0  0  0
  2 17  2  0  0  0  0
  3  9  1  0  0  0  0
  3 19  1  1  0  0  0
  3 22  1  6  0  0  0
  3 13  1  0  0  0  0
  4 23  1  1  0  0  0
  5 11  1  6  0  0  0
  5  6  1  0  0  0  0
  5 12  1  0  0  0  0
  6 24  1  6  0  0  0
  7 10  1  0  0  0  0
  7  9  1  0  0  0  0
  7 25  1  1  0  0  0
  8 13  1  0  0  0  0
  9 21  1  1  0  0  0
 10 15  1  0  0  0  0
 10 18  2  0  0  0  0
 45 11  1  6  0  0  0
 12 16  1  0  0  0  0
 12 20  1  1  0  0  0
 12 26  1  6  0  0  0
 13 27  1  6  0  0  0
 34 14  1  1  0  0  0
 15 16  1  0  0  0  0
 15 28  1  6  0  0  0
 27 29  1  0  0  0  0
 30 31  1  0  0  0  0
 30 32  1  0  0  0  0
 30 36  1  1  0  0  0
 30 38  1  6  0  0  0
 31 33  1  0  0  0  0
 31 37  1  1  0  0  0
 32 34  1  0  0  0  0
 33 35  1  0  0  0  0
 33 40  1  6  0  0  0
 34 35  1  0  0  0  0
 36 39  1  0  0  0  0
 41 42  1  0  0  0  0
 41 43  1  0  0  0  0
 41 49  1  6  0  0  0
 42 44  1  0  0  0  0
 43 45  1  0  0  0  0
 43 48  1  1  0  0  0
 44 46  1  0  0  0  0
 44 47  1  6  0  0  0
 45 46  1  0  0  0  0
 48 53  1  0  0  0  0
 49 50  1  0  0  0  0
 49 51  1  0  0  0  0
 52 54  2  0  0  0  0
 52 56  1  0  0  0  0
 52 58  1  0  0  0  0
 53 57  1  0  0  0  0
 53 55  2  0  0  0  0
 56 59  1  0  0  0  0
 57 58  1  0  0  0  0
 59 60  1  0  0  0  0
M  END
> <ID>
2695

> <Formula>
C43H75NO16

> <FW>
862.0527

> <DSSTox_CID>
2993

> <DSSTox_RID>
76821

> <DSSTox_GSID>
22993

> <DSSTox_FileID_Sort>
1505

> <TS_ChemName>
Erythromycin ethylsuccinate

> <TS_ChemName_Synonyms>


> <TS_CASRN>
1264-62-6

> <CASRN_ChemName_Relationship>
primary

> <TS_Description>
single chemical compound

> <ChemNote>
stereochem

> <STRUCTURE_Shown>
tested chemical

> <STRUCTURE_Formula>
C43H75NO16

> <STRUCTURE_MW>
862.0527

> <STRUCTURE_ChemType>
defined organic

> <STRUCTURE_DefinedOrganicForm>
parent

> <STRUCTURE_IUPAC>
(2S,3R,4S,6R)-4-(dimethylamino)-2-{[(3R,4S,5S,6R,7R,9R,11R,12R,13S,14R)-14-ethyl-7,12,13-trihydroxy-4-{[(2R,4R,5S,6S)-5-hydroxy-4-methoxy-4,6-dimethyltetrahydro-2H-pyran-2-yl]oxy}-3,5,7,9,11,13-hexamethyl-2,10-dioxooxacyclotetradecan-6-yl]oxy}-6-methyltet

> <STRUCTURE_SMILES>
O=C(OCC)CCC(=O)O[C@@H]3[C@H](C[C@@H](C)O[C@H]3O[C@@H]2[C@@H](C)[C@H](O[C@H]1C[C@@](C)(OC)[C@@H](O)[C@H](C)O1)[C@@H](C)C(=O)O[C@H](CC)[C@@](C)(O)[C@H](O)[C@@H](C)C(=O)[C@H](C)C[C@@]2(C)O)N(C)C

> <STRUCTURE_SMILES_Desalt>
O=C(OCC)CCC(=O)O[C@@H]3[C@H](C[C@@H](C)O[C@H]3O[C@@H]2[C@@H](C)[C@H](O[C@H]1C[C@@](C)(OC)[C@@H](O)[C@H](C)O1)[C@@H](C)C(=O)O[C@H](CC)[C@@](C)(O)[C@H](O)[C@@H](C)C(=O)[C@H](C)C[C@@]2(C)O)N(C)C

> <Substance_modify_yyyymmdd>
20080429

$$$$
