1264-72-8
ChemmineR-0915142007XD

 87 86  0  0  1  0  0  0  0  0  1 V2000
    7.4129   -8.5087    0.0000 O   0  0  0  0  0  0  0  0  0  0  0  0
    6.8757   -9.7119    0.0000 C   0  0  0  0  0  0  0  0  0  0  0  0
    5.6510  -10.2921    0.0000 C   0  0  0  0  0  0  0  0  0  0  0  0
    5.7154  -11.6457    0.0000 C   0  0  0  0  0  0  0  0  0  0  0  0
    4.5766  -12.3548    0.0000 C   0  0  0  0  0  0  0  0  0  0  0  0
    4.5552  -13.6869    0.0000 N   0  0  0  0  0  0  0  0  0  0  0  0
    4.5122   -9.7119    0.0000 N   0  0  0  0  0  0  0  0  0  0  0  0
    3.2660   -9.9483    0.0000 C   0  0  0  0  0  0  0  0  0  0  0  0
    2.2561   -9.0458    0.0000 C   0  0  0  0  0  0  0  0  0  0  0  0
    0.9884   -9.4756    0.0000 C   0  0  0  0  0  0  0  0  0  0  0  0
    0.0000   -8.5946    0.0000 O   0  0  0  0  0  0  0  0  0  0  0  0
    0.6446  -10.7648    0.0000 C   0  0  0  0  0  0  0  0  0  0  0  0
    2.3205   -7.6922    0.0000 N   0  0  0  0  0  0  0  0  0  0  0  0
    3.4808   -7.0691    0.0000 C   0  0  0  0  0  0  0  0  0  0  0  0
    3.7816   -5.7799    0.0000 C   0  0  0  0  0  0  0  0  0  0  0  0
    2.7288   -4.9204    0.0000 C   0  0  0  0  0  0  0  0  0  0  0  0
    1.5041   -5.4146    0.0000 C   0  0  0  0  0  0  0  0  0  0  0  0
    0.4297   -4.6196    0.0000 N   0  0  0  0  0  0  0  0  0  0  0  0
    5.0279   -5.3287    0.0000 N   0  0  0  0  0  0  0  0  0  0  0  0
    6.0592   -6.1022    0.0000 C   0  0  0  0  0  0  0  0  0  0  0  0
    7.3269   -5.6080    0.0000 C   0  0  0  0  0  0  0  0  0  0  0  0
    7.4558   -4.2973    0.0000 C   0  0  0  0  0  0  0  0  0  0  0  0
    6.4245   -3.4808    0.0000 C   0  0  0  0  0  0  0  0  0  0  0  0
    6.6823   -2.1272    0.0000 C   0  0  0  0  0  0  0  0  0  0  0  0
    5.6295   -1.3107    0.0000 C   0  0  0  0  0  0  0  0  0  0  0  0
    5.8229    0.0000    0.0000 C   0  0  0  0  0  0  0  0  0  0  0  0
    4.3833   -1.8264    0.0000 C   0  0  0  0  0  0  0  0  0  0  0  0
    3.3089   -1.0314    0.0000 C   0  0  0  0  0  0  0  0  0  0  0  0
    6.0807   -7.3914    0.0000 O   0  0  0  0  0  0  0  0  0  0  0  0
    4.4477   -7.9500    0.0000 O   0  0  0  0  0  0  0  0  0  0  0  0
    2.7933  -11.2160    0.0000 O   0  0  0  0  0  0  0  0  0  0  0  0
    7.9285  -10.5069    0.0000 N   0  0  0  0  0  0  0  0  0  0  0  0
    9.1748   -9.9912    0.0000 C   0  0  0  0  0  0  0  0  0  0  0  0
    9.5615   -8.7665    0.0000 C   0  0  0  0  0  0  0  0  0  0  0  0
   10.2706   -7.7566    0.0000 C   0  0  0  0  0  0  0  0  0  0  0  0
   10.5499   -6.5319    0.0000 N   0  0  0  0  0  0  0  0  0  0  0  0
   10.4854   -5.2642    0.0000 C   0  0  0  0  0  0  0  0  0  0  0  0
   11.2160   -4.1039    0.0000 C   0  0  0  0  0  0  0  0  0  0  0  0
   12.5696   -4.2973    0.0000 N   0  0  0  0  0  0  0  0  0  0  0  0
   13.5150   -3.4378    0.0000 C   0  0  0  0  0  0  0  0  0  0  0  0
   14.9117   -3.5453    0.0000 C   0  0  0  0  0  0  0  0  0  0  0  0
   15.6422   -4.6196    0.0000 N   0  0  0  0  0  0  0  0  0  0  0  0
   16.9529   -4.7915    0.0000 C   0  0  0  0  0  0  0  0  0  0  0  0
   17.6620   -3.6097    0.0000 O   0  0  0  0  0  0  0  0  0  0  0  0
   15.3199   -2.2776    0.0000 C   0  0  0  0  0  0  0  0  0  0  0  0
   16.5232   -1.8049    0.0000 C   0  0  0  0  0  0  0  0  0  0  0  0
   16.7810   -0.4942    0.0000 N   0  0  0  0  0  0  0  0  0  0  0  0
   13.1927   -2.1272    0.0000 O   0  0  0  0  0  0  0  0  0  0  0  0
   10.6144   -2.9437    0.0000 C   0  0  0  0  0  0  0  0  0  0  0  0
   11.2160   -1.7404    0.0000 O   0  0  0  0  0  0  0  0  0  0  0  0
    9.2822   -2.7288    0.0000 C   0  0  0  0  0  0  0  0  0  0  0  0
    9.2392   -4.8130    0.0000 O   0  0  0  0  0  0  0  0  0  0  0  0
    9.8838  -11.1945    0.0000 C   0  0  0  0  0  0  0  0  0  0  0  0
   11.1945  -11.4094    0.0000 N   0  0  0  0  0  0  0  0  0  0  0  0
   11.9250  -12.5052    0.0000 C   0  0  0  0  0  0  0  0  0  0  0  0
   13.2787  -12.6986    0.0000 C   0  0  0  0  0  0  0  0  0  0  0  0
   14.4175  -12.0110    0.0000 N   0  0  0  0  0  0  0  0  0  0  0  0
   15.6852  -12.4192    0.0000 C   0  0  0  0  0  0  0  0  0  0  0  0
   16.8025  -11.5813    0.0000 C   0  0  0  0  0  0  0  0  0  0  0  0
   17.1033  -10.2921    0.0000 N   0  0  0  0  0  0  0  0  0  0  0  0
   18.2421   -9.6045    0.0000 C   0  0  0  0  0  0  0  0  0  0  0  0
   18.3495   -8.2079    0.0000 C   0  0  0  0  0  0  0  0  0  0  0  0
   17.5760   -7.1335    0.0000 N   0  0  0  0  0  0  0  0  0  0  0  0
   17.8553   -5.8443    0.0000 C   0  0  0  0  0  0  0  0  0  0  0  0
   19.0586   -5.2642    0.0000 C   0  0  0  0  0  0  0  0  0  0  0  0
   20.2403   -5.7799    0.0000 C   0  0  0  0  0  0  0  0  0  0  0  0
   21.3362   -5.0064    0.0000 N   0  0  0  0  0  0  0  0  0  0  0  0
   19.6602   -7.8856    0.0000 O   0  0  0  0  0  0  0  0  0  0  0  0
   19.4238  -10.0987    0.0000 C   0  0  0  0  0  0  0  0  0  0  0  0
   20.1329  -11.1515    0.0000 C   0  0  0  0  0  0  0  0  0  0  0  0
   21.4866  -10.9581    0.0000 C   0  0  0  0  0  0  0  0  0  0  0  0
   19.8536  -12.4622    0.0000 C   0  0  0  0  0  0  0  0  0  0  0  0
   17.8553  -12.4192    0.0000 O   0  0  0  0  0  0  0  0  0  0  0  0
   16.0934  -13.6440    0.0000 C   0  0  0  0  0  0  0  0  0  0  0  0
   15.8786  -14.8902    0.0000 C   0  0  0  0  0  0  0  0  0  0  0  0
   16.9744  -15.6852    0.0000 C   0  0  0  0  0  0  0  0  0  0  0  0
   14.7613  -15.6422    0.0000 C   0  0  0  0  0  0  0  0  0  0  0  0
   13.5150  -14.0307    0.0000 O   0  0  0  0  0  0  0  0  0  0  0  0
   11.3449  -13.7084    0.0000 C   0  0  0  0  0  0  0  0  0  0  0  0
   10.0772  -14.0307    0.0000 C   0  0  0  0  0  0  0  0  0  0  0  0
    9.6260  -15.2769    0.0000 N   0  0  0  0  0  0  0  0  0  0  0  0
    9.0458  -12.2473    0.0000 O   0  0  0  0  0  0  0  0  0  0  0  0
    4.8989  -15.6637    0.0000 O   0  0  0  0  0  0  0  0  0  0  0  0
    6.2311  -15.6637    0.0000 S   0  0  0  0  0  0  0  0  0  0  0  0
    6.2311  -16.9959    0.0000 O   0  0  0  0  0  0  0  0  0  0  0  0
    6.2311  -14.3315    0.0000 O   0  0  0  0  0  0  0  0  0  0  0  0
    7.5633  -15.6637    0.0000 O   0  0  0  0  0  0  0  0  0  0  0  0
  1  2  2  0  0  0  0
  2  3  1  0  0  0  0
  2 32  1  0  0  0  0
  3  4  1  6  0  0  0
  3  7  1  0  0  0  0
  4  5  1  0  0  0  0
  5  6  1  0  0  0  0
  7  8  1  0  0  0  0
  8  9  1  0  0  0  0
  8 31  2  0  0  0  0
  9 10  1  0  0  0  0
  9 13  1  6  0  0  0
 10 11  1  1  0  0  0
 10 12  1  0  0  0  0
 13 14  1  0  0  0  0
 14 15  1  0  0  0  0
 14 30  2  0  0  0  0
 15 16  1  6  0  0  0
 15 19  1  0  0  0  0
 16 17  1  0  0  0  0
 17 18  1  0  0  0  0
 19 20  1  0  0  0  0
 20 21  1  0  0  0  0
 20 29  2  0  0  0  0
 21 22  1  0  0  0  0
 22 23  1  0  0  0  0
 23 24  1  0  0  0  0
 24 25  1  0  0  0  0
 25 26  1  6  0  0  0
 25 27  1  0  0  0  0
 27 28  1  0  0  0  0
 33 32  1  1  0  0  0
 33 34  1  0  0  0  0
 33 53  1  0  0  0  0
 34 35  1  0  0  0  0
 35 36  1  0  0  0  0
 36 37  1  0  0  0  0
 37 38  1  0  0  0  0
 37 52  2  0  0  0  0
 38 39  1  0  0  0  0
 38 49  1  1  0  0  0
 39 40  1  0  0  0  0
 40 41  1  0  0  0  0
 40 48  2  0  0  0  0
 41 42  1  0  0  0  0
 41 45  1  6  0  0  0
 42 43  1  0  0  0  0
 43 44  2  0  0  0  0
 43 64  1  0  0  0  0
 45 46  1  0  0  0  0
 46 47  1  0  0  0  0
 49 50  1  6  0  0  0
 49 51  1  0  0  0  0
 53 54  1  0  0  0  0
 53 82  2  0  0  0  0
 54 55  1  0  0  0  0
 55 56  1  0  0  0  0
 55 79  1  6  0  0  0
 56 57  1  0  0  0  0
 56 78  2  0  0  0  0
 57 58  1  0  0  0  0
 58 59  1  0  0  0  0
 58 74  1  1  0  0  0
 59 60  1  0  0  0  0
 59 73  2  0  0  0  0
 60 61  1  0  0  0  0
 61 62  1  0  0  0  0
 61 69  1  6  0  0  0
 62 63  1  0  0  0  0
 62 68  2  0  0  0  0
 63 64  1  0  0  0  0
 64 65  1  6  0  0  0
 65 66  1  0  0  0  0
 66 67  1  0  0  0  0
 69 70  1  0  0  0  0
 70 71  1  0  0  0  0
 70 72  1  0  0  0  0
 74 75  1  0  0  0  0
 75 76  1  0  0  0  0
 75 77  1  0  0  0  0
 79 80  1  0  0  0  0
 80 81  1  0  0  0  0
 83 84  2  0  0  0  0
 84 85  1  0  0  0  0
 84 86  1  0  0  0  0
 84 87  2  0  0  0  0
M  END
> <ID>
10889

> <Formula>
C53H102N16O17S

> <FW>
1267.5390 (1169.4605+98.0785)

> <DSSTox_CID>
25352

> <DSSTox_RID>
80819

> <DSSTox_GSID>
45352

> <DSSTox_FileID_Sort>
5500

> <TS_ChemName>
Colistin sulfate

> <TS_ChemName_Synonyms>


> <TS_CASRN>
1264-72-8

> <CASRN_ChemName_Relationship>
primary

> <TS_Description>
single chemical compound

> <ChemNote>
parent [1066-17-7]

> <STRUCTURE_Shown>
tested chemical

> <STRUCTURE_Formula>
C53H102N16O17S

> <STRUCTURE_MW>
1267.539

> <STRUCTURE_ChemType>
defined organic

> <STRUCTURE_DefinedOrganicForm>
complex

> <STRUCTURE_IUPAC>
(6S)-N-[(2S)-4-amino-1-{[(2S,3R)-1-{[(2S)-4-amino-1-oxo-1-{[(3R,6S,9S,12S,15R,18S,21S)-6,9,18-tris(2-aminoethyl)-3-(1-hydroxyethyl)-12,15-bis(2-methylpropyl)-2,5,8,11,14,17,20-heptaoxo-1,4,7,10,13,16,19-heptaazacyclotricosan-21-yl]amino}butan-2-yl]amino}-

> <STRUCTURE_SMILES>
O=S(=O)(O)O.C[C@@H](CC)CCCCC(=O)N[C@@H](CCN)C(=O)N[C@@H]([C@@H](C)O)C(=O)N[C@@H](CCN)C(=O)N[C@H]1CCNC(=O)[C@H](NC(=O)[C@H](CCN)NC(=O)[C@H](CCN)NC(=O)[C@H](CC(C)C)NC(=O)[C@@H](CC(C)C)NC(=O)[C@@H](NC1=O)CCN)[C@H](C)O

> <STRUCTURE_SMILES_Desalt>
C[C@@H](CC)CCCCC(=O)N[C@@H](CCN)C(=O)N[C@@H]([C@@H](C)O)C(=O)N[C@@H](CCN)C(=O)N[C@H]1CCNC(=O)[C@H](NC(=O)[C@H](CCN)NC(=O)[C@H](CCN)NC(=O)[C@H](CC(C)C)NC(=O)[C@@H](CC(C)C)NC(=O)[C@@H](NC1=O)CCN)[C@H](C)O

> <Substance_modify_yyyymmdd>
20120227

$$$$
