12645-31-7
ChemmineR-0915142007XD

 13 12  0  0  0  0  0  0  0  0  1 V2000
    7.3179   -2.3009    0.0000 P   0  0  0  0  0  0  0  0  0  0  0  0
    8.6499   -2.3009    0.0000 O   0  0  0  0  0  0  0  0  0  0  0  0
    5.9944   -2.3009    0.0000 O   0  0  0  0  0  0  0  0  0  0  0  0
    7.3179   -0.9774    0.0000 O   0  0  0  0  0  0  0  0  0  0  0  0
    7.3179   -3.6330    0.0000 O   0  0  0  0  0  0  0  0  0  0  0  0
    5.3197   -1.1504    0.0000 C   0  0  0  0  0  0  0  0  0  0  0  0
    3.9876   -1.1504    0.0000 C   0  0  0  0  0  0  0  0  0  0  0  0
    3.3302   -2.3009    0.0000 C   0  0  0  0  0  0  0  0  0  0  0  0
    1.9981   -2.3009    0.0000 C   0  0  0  0  0  0  0  0  0  0  0  0
    1.3321   -3.4600    0.0000 C   0  0  0  0  0  0  0  0  0  0  0  0
    0.0000   -3.4600    0.0000 C   0  0  0  0  0  0  0  0  0  0  0  0
    3.3302    0.0000    0.0000 C   0  0  0  0  0  0  0  0  0  0  0  0
    1.9981    0.0000    0.0000 C   0  0  0  0  0  0  0  0  0  0  0  0
  1  2  2  0  0  0  0
  1  3  1  0  0  0  0
  1  4  1  0  0  0  0
  1  5  1  0  0  0  0
  3  6  1  0  0  0  0
  6  7  1  0  0  0  0
  7  8  1  0  0  0  0
  7 12  1  0  0  0  0
  8  9  1  0  0  0  0
  9 10  1  0  0  0  0
 10 11  1  0  0  0  0
 12 13  1  0  0  0  0
M  END
> <ID>
5358

> <Formula>
C8H19O4P

> <FW>
210.2078

> <DSSTox_CID>
7740

> <DSSTox_RID>
78553

> <DSSTox_GSID>
27740

> <DSSTox_FileID_Sort>
3236

> <TS_ChemName>
2-Ethylhexyl phosphate

> <TS_ChemName_Synonyms>


> <TS_CASRN>
12645-31-7

> <CASRN_ChemName_Relationship>
primary

> <TS_Description>
mixture or formulation

> <ChemNote>
mixture of mono-and di-esters ; structure shown mono-

> <STRUCTURE_Shown>
representative isomer in mixture

> <STRUCTURE_Formula>
C8H19O4P

> <STRUCTURE_MW>
210.2078

> <STRUCTURE_ChemType>
defined organic

> <STRUCTURE_DefinedOrganicForm>
parent

> <STRUCTURE_IUPAC>
2-ethylhexyl dihydrogen phosphate

> <STRUCTURE_SMILES>
OP(O)(=O)OCC(CCCC)CC

> <STRUCTURE_SMILES_Desalt>
OP(O)(=O)OCC(CCCC)CC

> <Substance_modify_yyyymmdd>
20080429

$$$$
