12650-69-0
ChemmineR-0915142007XD

 38 39  0  0  1  0  0  0  0  0  1 V2000
    4.5913   -4.7774    0.0000 O   0  0  0  0  0  0  0  0  0  0  0  0
    3.4538   -3.9708    0.0000 C   0  0  0  0  0  0  0  0  0  0  0  0
    4.6120   -3.3297    0.0000 C   0  0  0  0  0  0  0  0  0  0  0  0
    8.0658   -1.3443    0.0000 C   0  0  0  0  0  0  0  0  0  0  0  0
    6.8869   -3.3297    0.0000 C   0  0  0  0  0  0  0  0  0  0  0  0
    2.2956   -3.3297    0.0000 C   0  0  0  0  0  0  0  0  0  0  0  0
    6.8869   -1.9854    0.0000 C   0  0  0  0  0  0  0  0  0  0  0  0
    9.2032   -1.9854    0.0000 C   0  0  0  0  0  0  0  0  0  0  0  0
    5.7494   -3.9708    0.0000 C   0  0  0  0  0  0  0  0  0  0  0  0
    9.2032   -3.3297    0.0000 O   0  0  0  0  0  0  0  0  0  0  0  0
   12.6157   -1.3443    0.0000 C   0  0  0  0  0  0  0  0  0  0  0  0
   11.4782   -1.9854    0.0000 C   0  0  0  0  0  0  0  0  0  0  0  0
   13.7945   -1.9854    0.0000 C   0  0  0  0  0  0  0  0  0  0  0  0
    8.0658   -3.9708    0.0000 C   0  0  0  0  0  0  0  0  0  0  0  0
   10.3407   -1.3443    0.0000 C   0  0  0  0  0  0  0  0  0  0  0  0
   17.2276   -3.9708    0.0000 C   0  0  0  0  0  0  0  0  0  0  0  0
   13.7945   -3.3297    0.0000 O   0  0  0  0  0  0  0  0  0  0  0  0
   16.0695   -3.3297    0.0000 O   0  0  0  0  0  0  0  0  0  0  0  0
    1.1582   -3.9708    0.0000 C   0  0  0  0  0  0  0  0  0  0  0  0
    8.0658    0.0000    0.0000 O   0  0  0  0  0  0  0  0  0  0  0  0
    5.7494   -1.3443    0.0000 O   0  0  0  0  0  0  0  0  0  0  0  0
   17.2276   -5.3151    0.0000 O   0  0  0  0  0  0  0  0  0  0  0  0
   14.9320   -1.3443    0.0000 O   0  0  0  0  0  0  0  0  0  0  0  0
    1.1582   -5.3151    0.0000 O   0  0  0  0  0  0  0  0  0  0  0  0
    2.2956   -1.9854    0.0000 C   0  0  0  0  0  0  0  0  0  0  0  0
   11.4782   -3.3297    0.0000 C   0  0  0  0  0  0  0  0  0  0  0  0
   18.3858   -3.3297    0.0000 C   0  0  0  0  0  0  0  0  0  0  0  0
    0.0000   -3.3297    0.0000 C   0  0  0  0  0  0  0  0  0  0  0  0
   16.0695   -1.9854    0.0000 C   0  0  0  0  0  0  0  0  0  0  0  0
   19.5233   -3.9708    0.0000 C   0  0  0  0  0  0  0  0  0  0  0  0
   17.2276   -1.3443    0.0000 C   0  0  0  0  0  0  0  0  0  0  0  0
   19.5233   -1.3443    0.0000 C   0  0  0  0  0  0  0  0  0  0  0  0
   20.6814   -1.9854    0.0000 C   0  0  0  0  0  0  0  0  0  0  0  0
   20.6814   -3.3297    0.0000 C   0  0  0  0  0  0  0  0  0  0  0  0
   18.3858   -1.9854    0.0000 C   0  0  0  0  0  0  0  0  0  0  0  0
   12.6157    0.0000    0.0000 H   0  0  0  0  0  0  0  0  0  0  0  0
    4.6120   -1.9854    0.0000 H   0  0  0  0  0  0  0  0  0  0  0  0
    2.3163   -4.6533    0.0000 H   0  0  0  0  0  0  0  0  0  0  0  0
  2  1  1  1  0  0  0
  3  1  1  1  0  0  0
  2  6  1  0  0  0  0
  2 38  1  6  0  0  0
  2  3  1  0  0  0  0
  3  9  1  0  0  0  0
  3 37  1  0  0  0  0
  4  7  1  0  0  0  0
  4 20  1  1  0  0  0
  4  8  1  0  0  0  0
  5  9  1  6  0  0  0
  5  7  1  0  0  0  0
  5 14  1  0  0  0  0
  6 19  1  0  0  0  0
  6 25  1  6  0  0  0
  7 21  1  1  0  0  0
  8 10  1  0  0  0  0
  8 15  1  6  0  0  0
 10 14  1  0  0  0  0
 11 12  2  0  0  0  0
 11 13  1  0  0  0  0
 11 36  1  0  0  0  0
 12 15  1  0  0  0  0
 12 26  1  0  0  0  0
 13 17  2  0  0  0  0
 13 23  1  0  0  0  0
 16 27  1  0  0  0  0
 16 18  2  0  0  0  0
 16 22  1  0  0  0  0
 19 24  1  1  0  0  0
 19 28  1  0  0  0  0
 23 29  1  0  0  0  0
 27 30  1  0  0  0  0
 29 31  1  0  0  0  0
 30 34  1  0  0  0  0
 31 35  1  0  0  0  0
 32 35  1  0  0  0  0
 32 33  1  0  0  0  0
 33 34  1  0  0  0  0
M  END
> <ID>
11680

> <Formula>
C26H44O9

> <FW>
500.6222

> <DSSTox_CID>
26438

> <DSSTox_RID>
81614

> <DSSTox_GSID>
46438

> <DSSTox_FileID_Sort>
6295

> <TS_ChemName>
Mupirocin

> <TS_ChemName_Synonyms>


> <TS_CASRN>
12650-69-0

> <CASRN_ChemName_Relationship>
primary

> <TS_Description>
single chemical compound

> <ChemNote>
stereochem

> <STRUCTURE_Shown>
tested chemical

> <STRUCTURE_Formula>
C26H44O9

> <STRUCTURE_MW>
500.6222

> <STRUCTURE_ChemType>
defined organic

> <STRUCTURE_DefinedOrganicForm>
parent

> <STRUCTURE_IUPAC>
9-({(2E)-4-[(2S,3R,4R,5S)-3,4-dihydroxy-5-({(2S,3S)-3-[(2S,3S)-3-hydroxybutan-2-yl]oxiran-2-yl}methyl)tetrahydro-2H-pyran-2-yl]-3-methylbut-2-enoyl}oxy)nonanoic acid

> <STRUCTURE_SMILES>
O=C(O)CCCCCCCCOC(=O)\C=C(/C)C[C@@H]2OC[C@H](C[C@@H]1O[C@H]1[C@@H](C)[C@H](C)O)[C@@H](O)[C@H]2O

> <STRUCTURE_SMILES_Desalt>
O=C(O)CCCCCCCCOC(=O)\C=C(/C)C[C@@H]2OC[C@H](C[C@@H]1O[C@H]1[C@@H](C)[C@H](C)O)[C@@H](O)[C@H]2O

> <Substance_modify_yyyymmdd>
20110813

$$$$
