127-19-5
ChemmineR-0915142007XD

  6  5  0  0  0  0  0  0  0  0  1 V2000
    2.3053   -1.3272    0.0000 C   0  0  0  0  0  0  0  0  0  0  0  0
    1.1509   -2.0012    0.0000 N   0  0  0  0  0  0  0  0  0  0  0  0
    2.3053    0.0000    0.0000 O   0  0  0  0  0  0  0  0  0  0  0  0
    3.4563   -2.0012    0.0000 C   0  0  0  0  0  0  0  0  0  0  0  0
    1.1509   -3.3284    0.0000 C   0  0  0  0  0  0  0  0  0  0  0  0
    0.0000   -1.3445    0.0000 C   0  0  0  0  0  0  0  0  0  0  0  0
  1  2  1  0  0  0  0
  1  3  2  0  0  0  0
  1  4  1  0  0  0  0
  2  5  1  0  0  0  0
  2  6  1  0  0  0  0
M  END
> <ID>
482

> <Formula>
C4H9NO

> <FW>
87.1204

> <DSSTox_CID>
499

> <DSSTox_RID>
75625

> <DSSTox_GSID>
20499

> <DSSTox_FileID_Sort>
309

> <TS_ChemName>
N,N-Dimethylacetamide

> <TS_ChemName_Synonyms>
N,N-Dimethylacetamide (Dimethylacetamide) (Acetamide, N,N-dimethyl-)

> <TS_CASRN>
127-19-5

> <CASRN_ChemName_Relationship>
primary

> <TS_Description>
single chemical compound

> <ChemNote>


> <STRUCTURE_Shown>
tested chemical

> <STRUCTURE_Formula>
C4H9NO

> <STRUCTURE_MW>
87.1204

> <STRUCTURE_ChemType>
defined organic

> <STRUCTURE_DefinedOrganicForm>
parent

> <STRUCTURE_IUPAC>
N,N-dimethylacetamide

> <STRUCTURE_SMILES>
CN(C)C(C)=O

> <STRUCTURE_SMILES_Desalt>
CN(C)C(C)=O

> <Substance_modify_yyyymmdd>
20080429

$$$$
