127-07-1
ChemmineR-0915142007XD

  5  4  0  0  0  0  0  0  0  0  1 V2000
    1.1511   -1.3308    0.0000 C   0  0  0  0  0  0  0  0  0  0  0  0
    0.0000   -1.9945    0.0000 N   0  0  0  0  0  0  0  0  0  0  0  0
    1.1511    0.0000    0.0000 O   0  0  0  0  0  0  0  0  0  0  0  0
    2.3056   -1.9945    0.0000 N   0  0  0  0  0  0  0  0  0  0  0  0
    3.4567   -1.3308    0.0000 O   0  0  0  0  0  0  0  0  0  0  0  0
  1  2  1  0  0  0  0
  1  3  2  0  0  0  0
  1  4  1  0  0  0  0
  4  5  1  0  0  0  0
M  END
> <ID>
4198

> <Formula>
CH4N2O2

> <FW>
76.0547

> <DSSTox_CID>
5438

> <DSSTox_RID>
77787

> <DSSTox_GSID>
25438

> <DSSTox_FileID_Sort>
2470

> <TS_ChemName>
Hydroxyurea

> <TS_ChemName_Synonyms>
Hydroxyurea (HU)

> <TS_CASRN>
127-07-1

> <CASRN_ChemName_Relationship>
primary

> <TS_Description>
single chemical compound

> <ChemNote>


> <STRUCTURE_Shown>
tested chemical

> <STRUCTURE_Formula>
CH4N2O2

> <STRUCTURE_MW>
76.0547

> <STRUCTURE_ChemType>
defined organic

> <STRUCTURE_DefinedOrganicForm>
parent

> <STRUCTURE_IUPAC>
1-hydroxyurea

> <STRUCTURE_SMILES>
NC(=O)NO

> <STRUCTURE_SMILES_Desalt>
NC(=O)NO

> <Substance_modify_yyyymmdd>
20080429

$$$$
