127-31-1
ChemmineR-0915142007XD

 29 32  0  0  1  0  0  0  0  0  1 V2000
    6.9721   -2.6159    0.0000 C   0  0  0  0  0  0  0  0  0  0  0  0
    4.6481   -3.9455    0.0000 C   0  0  0  0  0  0  0  0  0  0  0  0
    3.4915   -4.6048    0.0000 C   0  0  0  0  0  0  0  0  0  0  0  0
    5.8047   -4.6156    0.0000 C   0  0  0  0  0  0  0  0  0  0  0  0
    8.2476   -2.2051    0.0000 C   0  0  0  0  0  0  0  0  0  0  0  0
    6.9721   -3.9563    0.0000 C   0  0  0  0  0  0  0  0  0  0  0  0
    3.4915   -5.9452    0.0000 C   0  0  0  0  0  0  0  0  0  0  0  0
    4.6481   -2.6159    0.0000 C   0  0  0  0  0  0  0  0  0  0  0  0
    5.8047   -1.9565    0.0000 C   0  0  0  0  0  0  0  0  0  0  0  0
    2.3457   -6.6046    0.0000 C   0  0  0  0  0  0  0  0  0  0  0  0
    8.6151   -0.9404    0.0000 C   0  0  0  0  0  0  0  0  0  0  0  0
    9.0151   -3.2536    0.0000 C   0  0  0  0  0  0  0  0  0  0  0  0
    8.2476   -4.3562    0.0000 C   0  0  0  0  0  0  0  0  0  0  0  0
    5.8047   -5.9452    0.0000 C   0  0  0  0  0  0  0  0  0  0  0  0
    2.3457   -3.9455    0.0000 C   0  0  0  0  0  0  0  0  0  0  0  0
    4.6481   -6.6046    0.0000 C   0  0  0  0  0  0  0  0  0  0  0  0
    1.1674   -5.9344    0.0000 C   0  0  0  0  0  0  0  0  0  0  0  0
    4.6156   -5.1777    0.0000 F   0  0  0  0  0  0  0  0  0  0  0  0
    7.6855    0.0000    0.0000 O   0  0  0  0  0  0  0  0  0  0  0  0
    0.0000   -6.5938    0.0000 O   0  0  0  0  0  0  0  0  0  0  0  0
    9.5556   -2.3565    0.0000 O   0  0  0  0  0  0  0  0  0  0  0  0
    6.9721   -1.2755    0.0000 C   0  0  0  0  0  0  0  0  0  0  0  0
    1.1674   -4.6156    0.0000 C   0  0  0  0  0  0  0  0  0  0  0  0
    3.4590   -1.9349    0.0000 O   0  0  0  0  0  0  0  0  0  0  0  0
    3.4915   -3.2536    0.0000 C   0  0  0  0  0  0  0  0  0  0  0  0
    9.8582   -0.6053    0.0000 C   0  0  0  0  0  0  0  0  0  0  0  0
   10.8095   -1.5566    0.0000 O   0  0  0  0  0  0  0  0  0  0  0  0
    5.8047   -3.2861    0.0000 H   0  0  0  0  0  0  0  0  0  0  0  0
    6.9721   -5.2858    0.0000 H   0  0  0  0  0  0  0  0  0  0  0  0
  1  5  1  0  0  0  0
  1  6  1  0  0  0  0
  1  9  1  0  0  0  0
  1 22  1  1  0  0  0
  2  8  1  0  0  0  0
  2  3  1  0  0  0  0
  2 18  1  6  0  0  0
  2  4  1  0  0  0  0
  3  7  1  0  0  0  0
  3 15  1  0  0  0  0
  3 25  1  1  0  0  0
  4  6  1  0  0  0  0
  4 14  1  0  0  0  0
  4 28  1  1  0  0  0
  5 11  1  1  0  0  0
  5 12  1  0  0  0  0
  5 21  1  0  0  0  0
  6 13  1  0  0  0  0
  6 29  1  6  0  0  0
  7 10  2  0  0  0  0
  7 16  1  0  0  0  0
  8  9  1  0  0  0  0
  8 24  1  1  0  0  0
 10 17  1  0  0  0  0
 11 19  2  0  0  0  0
 11 26  1  0  0  0  0
 12 13  1  0  0  0  0
 14 16  1  0  0  0  0
 15 23  1  0  0  0  0
 17 23  1  0  0  0  0
 17 20  2  0  0  0  0
 26 27  1  0  0  0  0
M  END
> <ID>
2753

> <Formula>
C21H29FO5

> <FW>
380.4504

> <DSSTox_CID>
3061

> <DSSTox_RID>
76858

> <DSSTox_GSID>
23061

> <DSSTox_FileID_Sort>
1542

> <TS_ChemName>
Fludrocortisone

> <TS_ChemName_Synonyms>


> <TS_CASRN>
127-31-1

> <CASRN_ChemName_Relationship>
primary

> <TS_Description>
single chemical compound

> <ChemNote>
stereochem; tautomers

> <STRUCTURE_Shown>
tested chemical

> <STRUCTURE_Formula>
C21H29FO5

> <STRUCTURE_MW>
380.4504

> <STRUCTURE_ChemType>
defined organic

> <STRUCTURE_DefinedOrganicForm>
parent

> <STRUCTURE_IUPAC>
(11beta)-9-fluoro-11,17,21-trihydroxypregn-4-ene-3,20-dione

> <STRUCTURE_SMILES>
OCC(=O)[C@@]4(O)CC[C@@H]2[C@]4(C)C[C@H](O)[C@]1(F)[C@@]3(C)CCC(=O)C=C3CC[C@H]12

> <STRUCTURE_SMILES_Desalt>
OCC(=O)[C@@]4(O)CC[C@@H]2[C@]4(C)C[C@H](O)[C@]1(F)[C@@]3(C)CCC(=O)C=C3CC[C@H]12

> <Substance_modify_yyyymmdd>
20080429

$$$$
