127-63-9
ChemmineR-0915142007XD

 15 16  0  0  0  0  0  0  0  0  1 V2000
    3.9982   -1.3274    0.0000 S   0  0  0  0  0  0  0  0  0  0  0  0
    3.9982    0.0000    0.0000 O   0  0  0  0  0  0  0  0  0  0  0  0
    3.9982   -2.6628    0.0000 O   0  0  0  0  0  0  0  0  0  0  0  0
    5.3335   -1.3274    0.0000 C   0  0  0  0  0  0  0  0  0  0  0  0
    2.6628   -1.3274    0.0000 C   0  0  0  0  0  0  0  0  0  0  0  0
    6.0052   -0.1919    0.0000 C   0  0  0  0  0  0  0  0  0  0  0  0
    2.0071   -2.4869    0.0000 C   0  0  0  0  0  0  0  0  0  0  0  0
    6.0052   -2.4869    0.0000 C   0  0  0  0  0  0  0  0  0  0  0  0
    2.0071   -0.1919    0.0000 C   0  0  0  0  0  0  0  0  0  0  0  0
    7.3406   -2.4869    0.0000 C   0  0  0  0  0  0  0  0  0  0  0  0
    7.3406   -0.1919    0.0000 C   0  0  0  0  0  0  0  0  0  0  0  0
    0.6717   -0.1919    0.0000 C   0  0  0  0  0  0  0  0  0  0  0  0
    0.6717   -2.4869    0.0000 C   0  0  0  0  0  0  0  0  0  0  0  0
    0.0000   -1.3274    0.0000 C   0  0  0  0  0  0  0  0  0  0  0  0
    7.9963   -1.3274    0.0000 C   0  0  0  0  0  0  0  0  0  0  0  0
  1  2  2  0  0  0  0
  1  3  2  0  0  0  0
  1  4  1  0  0  0  0
  1  5  1  0  0  0  0
  4  6  1  0  0  0  0
  4  8  2  0  0  0  0
  5  7  2  0  0  0  0
  5  9  1  0  0  0  0
  6 11  2  0  0  0  0
  7 13  1  0  0  0  0
  8 10  1  0  0  0  0
  9 12  2  0  0  0  0
 10 15  2  0  0  0  0
 11 15  1  0  0  0  0
 12 14  1  0  0  0  0
 13 14  2  0  0  0  0
M  END
> <ID>
8838

> <Formula>
C12H10O2S

> <FW>
218.2716

> <DSSTox_CID>
21892

> <DSSTox_RID>
79870

> <DSSTox_GSID>
41892

> <DSSTox_FileID_Sort>
4552

> <TS_ChemName>
Diphenylsulfone

> <TS_ChemName_Synonyms>


> <TS_CASRN>
127-63-9

> <CASRN_ChemName_Relationship>
primary

> <TS_Description>
single chemical compound

> <ChemNote>


> <STRUCTURE_Shown>
tested chemical

> <STRUCTURE_Formula>
C12H10O2S

> <STRUCTURE_MW>
218.2716

> <STRUCTURE_ChemType>
defined organic

> <STRUCTURE_DefinedOrganicForm>
parent

> <STRUCTURE_IUPAC>
diphenyl sulfone

> <STRUCTURE_SMILES>
O=S(=O)(c1ccccc1)c2ccccc2

> <STRUCTURE_SMILES_Desalt>
O=S(=O)(c1ccccc1)c2ccccc2

> <Substance_modify_yyyymmdd>
20080825

$$$$
