127-09-3
ChemmineR-0915142007XD

  5  3  0  0  0  0  0  0  0  0  2 V2000
    1.1443   -0.6591    0.0000 C    0  0  0  0  0  0  0  0  0  0  0  0
    1.1443   -1.9954    0.0000 O    0  0  0  0  0  0  0  0  0  0  0  0
    2.3032    0.0000    0.0000 O    0  5  0  0  0  0  0  0  0  0  0  0
    0.0000    0.0000    0.0000 C    0  0  0  0  0  0  0  0  0  0  0  0
    3.6213   -0.0145    0.0000 Na   0  3  0  0  0  0  0  0  0  0  0  0
  1  2  2  0  0  0  0
  1  3  1  0  0  0  0
  1  4  1  0  0  0  0
M  END
> <ID>
4902

> <Formula>
C2H3NaO2

> <FW>
82.0338 (59.0446+22.9892)

> <DSSTox_CID>
7044

> <DSSTox_RID>
78290

> <DSSTox_GSID>
27044

> <DSSTox_FileID_Sort>
2973

> <TS_ChemName>
Sodium acetate

> <TS_ChemName_Synonyms>


> <TS_CASRN>
127-09-3

> <CASRN_ChemName_Relationship>
primary

> <TS_Description>
single chemical compound

> <ChemNote>
parent [64-19-7]

> <STRUCTURE_Shown>
tested chemical

> <STRUCTURE_Formula>
C2H3NaO2

> <STRUCTURE_MW>
82.0338

> <STRUCTURE_ChemType>
defined organic

> <STRUCTURE_DefinedOrganicForm>
salt

> <STRUCTURE_IUPAC>
sodium acetate

> <STRUCTURE_SMILES>
[Na+].[O-]C(C)=O

> <STRUCTURE_SMILES_Desalt>
CC(=O)O

> <Substance_modify_yyyymmdd>
20080429

$$$$
