127-25-3
ChemmineR-0915142007XD

 25 27  0  0  1  0  0  0  0  0  1 V2000
    3.4049   -4.0106    0.0000 C   0  0  0  0  0  0  0  0  0  0  0  0
    5.7085   -4.0106    0.0000 C   0  0  0  0  0  0  0  0  0  0  0  0
    3.4049   -5.3597    0.0000 C   0  0  0  0  0  0  0  0  0  0  0  0
    2.2485   -6.0205    0.0000 C   0  0  0  0  0  0  0  0  0  0  0  0
    4.5613   -3.3590    0.0000 C   0  0  0  0  0  0  0  0  0  0  0  0
    6.8649   -3.3774    0.0000 C   0  0  0  0  0  0  0  0  0  0  0  0
    6.8649   -2.0099    0.0000 C   0  0  0  0  0  0  0  0  0  0  0  0
    2.2485   -7.3696    0.0000 C   0  0  0  0  0  0  0  0  0  0  0  0
    5.7085   -5.3597    0.0000 C   0  0  0  0  0  0  0  0  0  0  0  0
    4.5613   -6.0205    0.0000 C   0  0  0  0  0  0  0  0  0  0  0  0
    4.5613   -2.0099    0.0000 C   0  0  0  0  0  0  0  0  0  0  0  0
    5.7085   -1.3491    0.0000 C   0  0  0  0  0  0  0  0  0  0  0  0
    3.3865   -8.0396    0.0000 O   0  0  0  0  0  0  0  0  0  0  0  0
    7.9937   -1.3491    0.0000 C   0  0  0  0  0  0  0  0  0  0  0  0
    2.2485   -3.3590    0.0000 C   0  0  0  0  0  0  0  0  0  0  0  0
    3.4049   -2.6064    0.0000 C   0  0  0  0  0  0  0  0  0  0  0  0
    1.1197   -8.0580    0.0000 O   0  0  0  0  0  0  0  0  0  0  0  0
    1.0921   -5.3597    0.0000 C   0  0  0  0  0  0  0  0  0  0  0  0
    1.0462   -6.6262    0.0000 C   0  0  0  0  0  0  0  0  0  0  0  0
    1.0921   -4.0106    0.0000 C   0  0  0  0  0  0  0  0  0  0  0  0
    7.9937    0.0000    0.0000 C   0  0  0  0  0  0  0  0  0  0  0  0
    9.1776   -1.9732    0.0000 C   0  0  0  0  0  0  0  0  0  0  0  0
    0.0000   -7.4798    0.0000 C   0  0  0  0  0  0  0  0  0  0  0  0
    4.5888   -4.5429    0.0000 H   0  0  0  0  0  0  0  0  0  0  0  0
    3.4691   -6.7272    0.0000 H   0  0  0  0  0  0  0  0  0  0  0  0
  1  3  1  0  0  0  0
  1  5  1  0  0  0  0
  1 15  1  0  0  0  0
  1 16  1  1  0  0  0
  2  5  1  0  0  0  0
  2  6  1  0  0  0  0
  2  9  2  0  0  0  0
  3  4  1  0  0  0  0
  3 10  1  0  0  0  0
  3 25  1  6  0  0  0
  4  8  1  6  0  0  0
  4 19  1  1  0  0  0
  4 18  1  0  0  0  0
  5 11  1  0  0  0  0
  5 24  1  6  0  0  0
  6  7  2  0  0  0  0
  7 12  1  0  0  0  0
  7 14  1  0  0  0  0
  8 13  2  0  0  0  0
  8 17  1  0  0  0  0
  9 10  1  0  0  0  0
 11 12  1  0  0  0  0
 14 21  1  0  0  0  0
 14 22  1  0  0  0  0
 15 20  1  0  0  0  0
 17 23  1  0  0  0  0
 18 20  1  0  0  0  0
M  END
> <ID>
13252

> <Formula>
C21H32O2

> <FW>
316.4776

> <DSSTox_CID>
28165

> <DSSTox_RID>
82726

> <DSSTox_GSID>
48190

> <DSSTox_FileID_Sort>
7403

> <TS_ChemName>
Methyl abietate

> <TS_ChemName_Synonyms>


> <TS_CASRN>
127-25-3

> <CASRN_ChemName_Relationship>
primary

> <TS_Description>
single chemical compound

> <ChemNote>
stereochem

> <STRUCTURE_Shown>
tested chemical

> <STRUCTURE_Formula>
C21H32O2

> <STRUCTURE_MW>
316.4776

> <STRUCTURE_ChemType>
defined organic

> <STRUCTURE_DefinedOrganicForm>
parent

> <STRUCTURE_IUPAC>
methyl abieta-7,13-dien-18-oate

> <STRUCTURE_SMILES>
CC(C)C=3CC[C@H]1C(=CC[C@H]2[C@@](C)(CCC[C@]12C)C(=O)OC)C=3

> <STRUCTURE_SMILES_Desalt>
CC(C)C=3CC[C@H]1C(=CC[C@H]2[C@@](C)(CCC[C@]12C)C(=O)OC)C=3

> <Substance_modify_yyyymmdd>
20110830

$$$$
