127-77-5
ChemmineR-0915142007XD

 17 18  0  0  0  0  0  0  0  0  1 V2000
    4.6356   -1.1589    0.0000 S   0  0  0  0  0  0  0  0  0  0  0  0
    3.4767   -0.4821    0.0000 N   0  0  0  0  0  0  0  0  0  0  0  0
    5.7945   -1.8357    0.0000 C   0  0  0  0  0  0  0  0  0  0  0  0
    5.3124    0.0000    0.0000 O   0  0  0  0  0  0  0  0  0  0  0  0
    3.9588   -2.2993    0.0000 O   0  0  0  0  0  0  0  0  0  0  0  0
    6.9349   -1.1774    0.0000 C   0  0  0  0  0  0  0  0  0  0  0  0
    5.7945   -3.1708    0.0000 C   0  0  0  0  0  0  0  0  0  0  0  0
    2.3178   -1.1404    0.0000 C   0  0  0  0  0  0  0  0  0  0  0  0
    8.0938   -3.1522    0.0000 C   0  0  0  0  0  0  0  0  0  0  0  0
    9.2712   -3.8105    0.0000 N   0  0  0  0  0  0  0  0  0  0  0  0
    8.0938   -1.8450    0.0000 C   0  0  0  0  0  0  0  0  0  0  0  0
    6.9349   -3.8290    0.0000 C   0  0  0  0  0  0  0  0  0  0  0  0
    1.1774   -0.4821    0.0000 C   0  0  0  0  0  0  0  0  0  0  0  0
    2.2993   -2.4754    0.0000 C   0  0  0  0  0  0  0  0  0  0  0  0
    1.1589   -3.1337    0.0000 C   0  0  0  0  0  0  0  0  0  0  0  0
    0.0185   -1.1589    0.0000 C   0  0  0  0  0  0  0  0  0  0  0  0
    0.0000   -2.4569    0.0000 C   0  0  0  0  0  0  0  0  0  0  0  0
  1  2  1  0  0  0  0
  1  3  1  0  0  0  0
  1  4  2  0  0  0  0
  1  5  2  0  0  0  0
  2  8  1  0  0  0  0
  3  6  2  0  0  0  0
  3  7  1  0  0  0  0
  6 11  1  0  0  0  0
  7 12  2  0  0  0  0
  8 13  1  0  0  0  0
  8 14  2  0  0  0  0
  9 12  1  0  0  0  0
  9 10  1  0  0  0  0
  9 11  2  0  0  0  0
 13 16  2  0  0  0  0
 14 15  1  0  0  0  0
 15 17  2  0  0  0  0
 16 17  1  0  0  0  0
M  END
> <ID>
11580

> <Formula>
C12H12N2O2S

> <FW>
248.3009

> <DSSTox_CID>
26287

> <DSSTox_RID>
81513

> <DSSTox_GSID>
46287

> <DSSTox_FileID_Sort>
6194

> <TS_ChemName>
Sulfabenz

> <TS_ChemName_Synonyms>


> <TS_CASRN>
127-77-5

> <CASRN_ChemName_Relationship>
primary

> <TS_Description>
single chemical compound

> <ChemNote>


> <STRUCTURE_Shown>
tested chemical

> <STRUCTURE_Formula>
C12H12N2O2S

> <STRUCTURE_MW>
248.3009

> <STRUCTURE_ChemType>
defined organic

> <STRUCTURE_DefinedOrganicForm>
parent

> <STRUCTURE_IUPAC>
4-amino-N-phenylbenzenesulfonamide

> <STRUCTURE_SMILES>
Nc1ccc(cc1)S(=O)(=O)Nc2ccccc2

> <STRUCTURE_SMILES_Desalt>
Nc1ccc(cc1)S(=O)(=O)Nc2ccccc2

> <Substance_modify_yyyymmdd>
20110815

$$$$
