127-18-4
ChemmineR-0915142007XD

  6  5  0  0  0  0  0  0  0  0  1 V2000
    1.3307    0.0000    0.0000 Cl   0  0  0  0  0  0  0  0  0  0  0  0
    1.9943   -1.1509    0.0000 C    0  0  0  0  0  0  0  0  0  0  0  0
    1.3307   -2.3053    0.0000 C    0  0  0  0  0  0  0  0  0  0  0  0
    1.9943   -3.4563    0.0000 Cl   0  0  0  0  0  0  0  0  0  0  0  0
    0.0000   -2.3053    0.0000 Cl   0  0  0  0  0  0  0  0  0  0  0  0
    3.3250   -1.1509    0.0000 Cl   0  0  0  0  0  0  0  0  0  0  0  0
  1  2  1  0  0  0  0
  2  3  2  0  0  0  0
  2  6  1  0  0  0  0
  3  4  1  0  0  0  0
  3  5  1  0  0  0  0
M  END
> <ID>
1266

> <Formula>
C2Cl4

> <FW>
165.8334

> <DSSTox_CID>
1319

> <DSSTox_RID>
76079

> <DSSTox_GSID>
21319

> <DSSTox_FileID_Sort>
763

> <TS_ChemName>
Tetrachloroethylene

> <TS_ChemName_Synonyms>
TCE

> <TS_CASRN>
127-18-4

> <CASRN_ChemName_Relationship>
primary

> <TS_Description>
single chemical compound

> <ChemNote>


> <STRUCTURE_Shown>
tested chemical

> <STRUCTURE_Formula>
C2Cl4

> <STRUCTURE_MW>
165.8334

> <STRUCTURE_ChemType>
defined organic

> <STRUCTURE_DefinedOrganicForm>
parent

> <STRUCTURE_IUPAC>
tetrachloroethene

> <STRUCTURE_SMILES>
Cl/C(Cl)=C(/Cl)Cl

> <STRUCTURE_SMILES_Desalt>
Cl/C(Cl)=C(/Cl)Cl

> <Substance_modify_yyyymmdd>
20080429

$$$$
