127-08-2
ChemmineR-0915142007XD

  5  3  0  0  0  0  0  0  0  0  2 V2000
    1.1409   -0.6605    0.0000 C   0  0  0  0  0  0  0  0  0  0  0  0
    1.1409   -1.9966    0.0000 O   0  0  0  0  0  0  0  0  0  0  0  0
    2.3018    0.0000    0.0000 O   0  5  0  0  0  0  0  0  0  0  0  0
    0.0000    0.0000    0.0000 C   0  0  0  0  0  0  0  0  0  0  0  0
    5.0039   -1.0008    0.0000 K   0  3  0  0  0  0  0  0  0  0  0  0
  1  2  2  0  0  0  0
  1  3  1  0  0  0  0
  1  4  1  0  0  0  0
M  END
> <ID>
4901

> <Formula>
C2H3KO2

> <FW>
98.1423 (59.0446+39.0978)

> <DSSTox_CID>
7043

> <DSSTox_RID>
78289

> <DSSTox_GSID>
27043

> <DSSTox_FileID_Sort>
2972

> <TS_ChemName>
Potassium acetate

> <TS_ChemName_Synonyms>


> <TS_CASRN>
127-08-2

> <CASRN_ChemName_Relationship>
primary

> <TS_Description>
single chemical compound

> <ChemNote>
parent [64-19-7]

> <STRUCTURE_Shown>
tested chemical

> <STRUCTURE_Formula>
C2H3KO2

> <STRUCTURE_MW>
98.1423

> <STRUCTURE_ChemType>
defined organic

> <STRUCTURE_DefinedOrganicForm>
salt

> <STRUCTURE_IUPAC>
potassium acetate

> <STRUCTURE_SMILES>
[K+].[O-]C(C)=O

> <STRUCTURE_SMILES_Desalt>
CC(=O)O

> <Substance_modify_yyyymmdd>
20080429

$$$$
