127-40-2
ChemmineR-0915142007XD

 42 43  0  0  1  0  0  0  0  0  1 V2000
    3.5587   -2.6764    0.0000 C   0  0  0  0  0  0  0  0  0  0  0  0
    3.5587   -4.0293    0.0000 C   0  0  0  0  0  0  0  0  0  0  0  0
   25.8815   -0.6176    0.0000 C   0  0  0  0  0  0  0  0  0  0  0  0
    2.4705   -1.9999    0.0000 C   0  0  0  0  0  0  0  0  0  0  0  0
    4.7646   -2.1176    0.0000 C   0  0  0  0  0  0  0  0  0  0  0  0
   25.8815   -2.0293    0.0000 C   0  0  0  0  0  0  0  0  0  0  0  0
   27.0286   -2.6176    0.0000 C   0  0  0  0  0  0  0  0  0  0  0  0
   24.7345   -2.6176    0.0000 C   0  0  0  0  0  0  0  0  0  0  0  0
   27.0580    0.0000    0.0000 C   0  0  0  0  0  0  0  0  0  0  0  0
    5.9410   -2.7058    0.0000 C   0  0  0  0  0  0  0  0  0  0  0  0
   23.5287   -2.1176    0.0000 C   0  0  0  0  0  0  0  0  0  0  0  0
    2.3823   -4.6763    0.0000 C   0  0  0  0  0  0  0  0  0  0  0  0
    1.2058   -2.6176    0.0000 C   0  0  0  0  0  0  0  0  0  0  0  0
   28.2638   -2.0293    0.0000 C   0  0  0  0  0  0  0  0  0  0  0  0
    9.4409   -2.1176    0.0000 C   0  0  0  0  0  0  0  0  0  0  0  0
   20.0582   -2.7058    0.0000 C   0  0  0  0  0  0  0  0  0  0  0  0
    7.1174   -2.1176    0.0000 C   0  0  0  0  0  0  0  0  0  0  0  0
   22.4405   -2.7058    0.0000 C   0  0  0  0  0  0  0  0  0  0  0  0
   28.2638   -0.6176    0.0000 C   0  0  0  0  0  0  0  0  0  0  0  0
   17.6759   -2.7058    0.0000 C   0  0  0  0  0  0  0  0  0  0  0  0
   11.8232   -2.1176    0.0000 C   0  0  0  0  0  0  0  0  0  0  0  0
   21.2052   -2.1176    0.0000 C   0  0  0  0  0  0  0  0  0  0  0  0
    8.3233   -2.7058    0.0000 C   0  0  0  0  0  0  0  0  0  0  0  0
   18.9112   -2.1176    0.0000 C   0  0  0  0  0  0  0  0  0  0  0  0
   10.6173   -2.7058    0.0000 C   0  0  0  0  0  0  0  0  0  0  0  0
   12.9996   -2.7058    0.0000 C   0  0  0  0  0  0  0  0  0  0  0  0
   16.4995   -2.1176    0.0000 C   0  0  0  0  0  0  0  0  0  0  0  0
    1.2058   -3.9705    0.0000 C   0  0  0  0  0  0  0  0  0  0  0  0
   15.3230   -2.7058    0.0000 C   0  0  0  0  0  0  0  0  0  0  0  0
   14.2054   -2.1176    0.0000 C   0  0  0  0  0  0  0  0  0  0  0  0
    4.7057   -4.7057    0.0000 C   0  0  0  0  0  0  0  0  0  0  0  0
   24.7051    0.0000    0.0000 C   0  0  0  0  0  0  0  0  0  0  0  0
   29.4108    0.0000    0.0000 O   0  0  0  0  0  0  0  0  0  0  0  0
    1.2647   -1.2058    0.0000 C   0  0  0  0  0  0  0  0  0  0  0  0
    3.5881   -1.4117    0.0000 C   0  0  0  0  0  0  0  0  0  0  0  0
    0.0000   -4.5587    0.0000 O   0  0  0  0  0  0  0  0  0  0  0  0
   28.4109   -3.5293    0.0000 C   0  0  0  0  0  0  0  0  0  0  0  0
   26.2050   -3.1470    0.0000 C   0  0  0  0  0  0  0  0  0  0  0  0
    7.1174   -0.7647    0.0000 C   0  0  0  0  0  0  0  0  0  0  0  0
   22.4405   -4.0293    0.0000 C   0  0  0  0  0  0  0  0  0  0  0  0
   17.6759   -4.0293    0.0000 C   0  0  0  0  0  0  0  0  0  0  0  0
   11.8232   -0.7647    0.0000 C   0  0  0  0  0  0  0  0  0  0  0  0
  1  2  2  0  0  0  0
  1  4  1  0  0  0  0
  1  5  1  0  0  0  0
  2 12  1  0  0  0  0
  2 31  1  0  0  0  0
  3  6  1  0  0  0  0
  3  9  2  0  0  0  0
  3 32  1  0  0  0  0
  4 13  1  0  0  0  0
  4 34  1  0  0  0  0
  4 35  1  0  0  0  0
  5 10  2  0  0  0  0
  6  8  1  1  0  0  0
  6  7  1  0  0  0  0
  7 14  1  0  0  0  0
  7 37  1  0  0  0  0
  7 38  1  0  0  0  0
  8 11  2  0  0  0  0
  9 19  1  0  0  0  0
 10 17  1  0  0  0  0
 11 18  1  0  0  0  0
 12 28  1  0  0  0  0
 13 28  1  0  0  0  0
 14 19  1  0  0  0  0
 15 23  1  0  0  0  0
 15 25  2  0  0  0  0
 16 24  2  0  0  0  0
 16 22  1  0  0  0  0
 17 23  2  0  0  0  0
 17 39  1  0  0  0  0
 18 22  2  0  0  0  0
 18 40  1  0  0  0  0
 19 33  1  6  0  0  0
 20 27  2  0  0  0  0
 20 24  1  0  0  0  0
 20 41  1  0  0  0  0
 21 25  1  0  0  0  0
 21 26  2  0  0  0  0
 21 42  1  0  0  0  0
 26 30  1  0  0  0  0
 27 29  1  0  0  0  0
 28 36  1  1  0  0  0
 29 30  2  0  0  0  0
M  END
> <ID>
11938

> <Formula>
C40H56O2

> <FW>
568.8714

> <DSSTox_CID>
26749

> <DSSTox_RID>
81874

> <DSSTox_GSID>
46749

> <DSSTox_FileID_Sort>
6555

> <TS_ChemName>
Lutein

> <TS_ChemName_Synonyms>


> <TS_CASRN>
127-40-2

> <CASRN_ChemName_Relationship>
primary

> <TS_Description>
single chemical compound

> <ChemNote>
stereochem

> <STRUCTURE_Shown>
tested chemical

> <STRUCTURE_Formula>
C40H56O2

> <STRUCTURE_MW>
568.8714

> <STRUCTURE_ChemType>
defined organic

> <STRUCTURE_DefinedOrganicForm>
parent

> <STRUCTURE_IUPAC>
(3R,3'R,6R)-4,5-didehydro-5,6-dihydro-beta,beta-carotene-3,3'-diol

> <STRUCTURE_SMILES>
CC2(C)C[C@H](O)CC(C)=C2/C=CC(\C)=C\C=C\C(\C)=C\C=C\C=C(/C)\C=C\C=C(/C)\C=C\[C@H]1C(C)=C[C@H](O)CC1(C)C

> <STRUCTURE_SMILES_Desalt>
CC2(C)C[C@H](O)CC(C)=C2/C=CC(\C)=C\C=C\C(\C)=C\C=C\C=C(/C)\C=C\C=C(/C)\C=C\[C@H]1C(C)=C[C@H](O)CC1(C)C

> <Substance_modify_yyyymmdd>
20110803

$$$$
