127045-41-4
ChemmineR-0915142007XD

 23 26  0  0  1  0  0  0  0  0  1 V2000
    6.9183   -3.9903    0.0000 C   0  0  0  0  0  0  0  0  0  0  0  0
    5.7637   -4.6553    0.0000 C   0  0  0  0  0  0  0  0  0  0  0  0
    5.7637   -5.9854    0.0000 C   0  0  0  0  0  0  0  0  0  0  0  0
    4.6091   -6.6505    0.0000 O   0  0  0  0  0  0  0  0  0  0  0  0
    3.4545   -5.9854    0.0000 C   0  0  0  0  0  0  0  0  0  0  0  0
    2.3092   -6.6505    0.0000 C   0  0  0  0  0  0  0  0  0  0  0  0
    1.1546   -5.9854    0.0000 C   0  0  0  0  0  0  0  0  0  0  0  0
    1.1546   -4.6553    0.0000 C   0  0  0  0  0  0  0  0  0  0  0  0
    2.3092   -3.9903    0.0000 C   0  0  0  0  0  0  0  0  0  0  0  0
    3.4545   -4.6553    0.0000 C   0  0  0  0  0  0  0  0  0  0  0  0
    4.6091   -3.9903    0.0000 N   0  0  0  0  0  0  0  0  0  0  0  0
    4.6091   -2.6602    0.0000 C   0  0  0  0  0  0  0  0  0  0  0  0
    3.4545   -1.9951    0.0000 C   0  0  0  0  0  0  0  0  0  0  0  0
    3.4545   -0.6650    0.0000 C   0  0  0  0  0  0  0  0  0  0  0  0
    4.6091    0.0000    0.0000 O   0  0  0  0  0  0  0  0  0  0  0  0
    2.3092    0.0000    0.0000 O   0  0  0  0  0  0  0  0  0  0  0  0
    2.3092   -2.6602    0.0000 C   0  0  0  0  0  0  0  0  0  0  0  0
    1.1546   -1.9951    0.0000 O   0  0  0  0  0  0  0  0  0  0  0  0
    0.0000   -6.6505    0.0000 F   0  0  0  0  0  0  0  0  0  0  0  0
    2.3092   -7.9898    0.0000 C   0  0  0  0  0  0  0  0  0  0  0  0
    0.9976   -8.2207    0.0000 N   0  0  0  0  0  0  0  0  0  0  0  0
    3.6116   -8.2207    0.0000 C   0  0  0  0  0  0  0  0  0  0  0  0
    2.7618   -9.2368    0.0000 C   0  0  0  0  0  0  0  0  0  0  0  0
  2  1  1  1  0  0  0
  2  3  1  0  0  0  0
  2 11  1  0  0  0  0
  3  4  1  0  0  0  0
  4  5  1  0  0  0  0
  5  6  2  0  0  0  0
  5 10  1  0  0  0  0
  6  7  1  0  0  0  0
  6 20  1  0  0  0  0
  7  8  2  0  0  0  0
  7 19  1  0  0  0  0
  8  9  1  0  0  0  0
  9 10  2  0  0  0  0
  9 17  1  0  0  0  0
 10 11  1  0  0  0  0
 11 12  1  0  0  0  0
 12 13  2  0  0  0  0
 13 14  1  0  0  0  0
 13 17  1  0  0  0  0
 14 15  1  0  0  0  0
 14 16  2  0  0  0  0
 17 18  2  0  0  0  0
 20 21  1  0  0  0  0
 20 22  1  0  0  0  0
 20 23  1  0  0  0  0
 22 23  1  0  0  0  0
M  END
> <ID>
11895

> <Formula>
C16H15FN2O4

> <FW>
318.2997

> <DSSTox_CID>
26697

> <DSSTox_RID>
81831

> <DSSTox_GSID>
46697

> <DSSTox_FileID_Sort>
6512

> <TS_ChemName>
Pazufloxacin

> <TS_ChemName_Synonyms>


> <TS_CASRN>
127045-41-4

> <CASRN_ChemName_Relationship>
primary

> <TS_Description>
single chemical compound

> <ChemNote>
stereochem

> <STRUCTURE_Shown>
tested chemical

> <STRUCTURE_Formula>
C16H15FN2O4

> <STRUCTURE_MW>
318.2997

> <STRUCTURE_ChemType>
defined organic

> <STRUCTURE_DefinedOrganicForm>
parent

> <STRUCTURE_IUPAC>
(3S)-10-(1-aminocyclopropyl)-9-fluoro-3-methyl-7-oxo-2,3-dihydro-7H-[1,4]oxazino[2,3,4-ij]quinoline-6-carboxylic acid

> <STRUCTURE_SMILES>
NC1(CC1)c4c(F)cc2c3N(C=C(C2=O)C(=O)O)[C@@H](C)COc34

> <STRUCTURE_SMILES_Desalt>
NC1(CC1)c4c(F)cc2c3N(C=C(C2=O)C(=O)O)[C@@H](C)COc34

> <Substance_modify_yyyymmdd>
20110805

$$$$
