1271-28-9
ChemmineR-0915142007XD

 11 10  0  0  0  0  0  0  0  0  2 V2000
    1.0385   -3.1403    0.0000 Ni   0  2  0  0  0  0  0  0  0  0  0  0
    1.0756   -2.0523    0.0000 C    0  5  0  0  0  0  0  0  0  0  0  0
    0.0000   -1.2672    0.0000 C    0  0  0  0  0  0  0  0  0  0  0  0
    0.4018    0.0000    0.0000 C    0  0  0  0  0  0  0  0  0  0  0  0
    2.1450   -1.2672    0.0000 C    0  0  0  0  0  0  0  0  0  0  0  0
    1.7309    0.0000    0.0000 C    0  0  0  0  0  0  0  0  0  0  0  0
    1.1560   -4.1294    0.0000 C    0  5  0  0  0  0  0  0  0  0  0  0
    2.2254   -4.9144    0.0000 C    0  0  0  0  0  0  0  0  0  0  0  0
    1.8236   -6.1817    0.0000 C    0  0  0  0  0  0  0  0  0  0  0  0
    0.0804   -4.9144    0.0000 C    0  0  0  0  0  0  0  0  0  0  0  0
    0.4945   -6.1817    0.0000 C    0  0  0  0  0  0  0  0  0  0  0  0
  2  3  1  0  0  0  0
  2  5  1  0  0  0  0
  3  4  2  0  0  0  0
  4  6  1  0  0  0  0
  5  6  2  0  0  0  0
  7  8  1  0  0  0  0
  7 10  1  0  0  0  0
  8  9  2  0  0  0  0
  9 11  1  0  0  0  0
 10 11  2  0  0  0  0
M  END
> <ID>
4361

> <Formula>
C10H10Ni

> <FW>
188.8798 (58.6923+65.0937+65.0937)

> <DSSTox_CID>
5709

> <DSSTox_RID>
77888

> <DSSTox_GSID>
25709

> <DSSTox_FileID_Sort>
2571

> <TS_ChemName>
Nickelocene

> <TS_ChemName_Synonyms>


> <TS_CASRN>
1271-28-9

> <CASRN_ChemName_Relationship>
primary

> <TS_Description>
single chemical compound

> <ChemNote>


> <STRUCTURE_Shown>
tested chemical

> <STRUCTURE_Formula>
C10H10Ni

> <STRUCTURE_MW>
188.8798

> <STRUCTURE_ChemType>
organometallic

> <STRUCTURE_DefinedOrganicForm>


> <STRUCTURE_IUPAC>
nickel(2+) dicyclopenta-2,4-dienide

> <STRUCTURE_SMILES>
[Ni+2].[c-]1cccc1.c1[c-]ccc1

> <STRUCTURE_SMILES_Desalt>
C1=CC=CC1

> <Substance_modify_yyyymmdd>
20080429

$$$$
