127294-70-6
ChemmineR-0915142007XD

 28 31  0  0  0  0  0  0  0  0  1 V2000
   10.3227    0.0000    0.0000 C   0  0  0  0  0  0  0  0  0  0  0  0
    9.1746   -0.6723    0.0000 N   0  0  0  0  0  0  0  0  0  0  0  0
    9.1746   -1.9963    0.0000 C   0  0  0  0  0  0  0  0  0  0  0  0
   10.3433   -2.6686    0.0000 C   0  0  0  0  0  0  0  0  0  0  0  0
   10.3433   -4.0029    0.0000 C   0  0  0  0  0  0  0  0  0  0  0  0
    9.1952   -4.6649    0.0000 C   0  0  0  0  0  0  0  0  0  0  0  0
    8.0368   -4.0132    0.0000 N   0  0  0  0  0  0  0  0  0  0  0  0
    8.0264   -2.6686    0.0000 C   0  0  0  0  0  0  0  0  0  0  0  0
    6.9094   -4.6649    0.0000 C   0  0  0  0  0  0  0  0  0  0  0  0
    6.9094   -6.0095    0.0000 C   0  0  0  0  0  0  0  0  0  0  0  0
    8.0575   -6.6508    0.0000 F   0  0  0  0  0  0  0  0  0  0  0  0
    5.7509   -6.6715    0.0000 C   0  0  0  0  0  0  0  0  0  0  0  0
    4.6028   -6.0095    0.0000 C   0  0  0  0  0  0  0  0  0  0  0  0
    3.4547   -6.6818    0.0000 C   0  0  0  0  0  0  0  0  0  0  0  0
    3.4650   -8.0058    0.0000 O   0  0  0  0  0  0  0  0  0  0  0  0
    2.3066   -6.0095    0.0000 C   0  0  0  0  0  0  0  0  0  0  0  0
    2.2859   -4.7062    0.0000 C   0  0  0  0  0  0  0  0  0  0  0  0
    3.4340   -4.0339    0.0000 N   0  0  0  0  0  0  0  0  0  0  0  0
    3.4340   -2.6996    0.0000 C   0  0  0  0  0  0  0  0  0  0  0  0
    2.7617   -1.5515    0.0000 C   0  0  0  0  0  0  0  0  0  0  0  0
    4.0960   -1.5308    0.0000 C   0  0  0  0  0  0  0  0  0  0  0  0
    4.5924   -4.6855    0.0000 C   0  0  0  0  0  0  0  0  0  0  0  0
    5.7406   -4.0132    0.0000 C   0  0  0  0  0  0  0  0  0  0  0  0
    5.7406   -2.6893    0.0000 O   0  0  0  0  0  0  0  0  0  0  0  0
    6.8887   -2.0170    0.0000 C   0  0  0  0  0  0  0  0  0  0  0  0
    1.1481   -6.6818    0.0000 C   0  0  0  0  0  0  0  0  0  0  0  0
    1.1688   -8.0264    0.0000 O   0  0  0  0  0  0  0  0  0  0  0  0
    0.0000   -6.0302    0.0000 O   0  0  0  0  0  0  0  0  0  0  0  0
  1  2  1  0  0  0  0
  2  3  1  0  0  0  0
  3  4  1  0  0  0  0
  3  8  1  0  0  0  0
  4  5  1  0  0  0  0
  5  6  1  0  0  0  0
  6  7  1  0  0  0  0
  7  8  1  0  0  0  0
  7  9  1  0  0  0  0
  9 10  2  0  0  0  0
  9 23  1  0  0  0  0
 10 11  1  0  0  0  0
 10 12  1  0  0  0  0
 12 13  2  0  0  0  0
 13 14  1  0  0  0  0
 13 22  1  0  0  0  0
 14 15  2  0  0  0  0
 14 16  1  0  0  0  0
 16 17  2  0  0  0  0
 16 26  1  0  0  0  0
 17 18  1  0  0  0  0
 18 19  1  0  0  0  0
 18 22  1  0  0  0  0
 19 20  1  0  0  0  0
 19 21  1  0  0  0  0
 20 21  1  0  0  0  0
 22 23  2  0  0  0  0
 23 24  1  0  0  0  0
 24 25  1  0  0  0  0
 26 27  1  0  0  0  0
 26 28  2  0  0  0  0
M  END
> <ID>
11893

> <Formula>
C20H24FN3O4

> <FW>
389.4207

> <DSSTox_CID>
26695

> <DSSTox_RID>
81829

> <DSSTox_GSID>
46695

> <DSSTox_FileID_Sort>
6510

> <TS_ChemName>
Balofloxacin

> <TS_ChemName_Synonyms>


> <TS_CASRN>
127294-70-6

> <CASRN_ChemName_Relationship>
primary

> <TS_Description>
single chemical compound

> <ChemNote>


> <STRUCTURE_Shown>
tested chemical

> <STRUCTURE_Formula>
C20H24FN3O4

> <STRUCTURE_MW>
389.4207

> <STRUCTURE_ChemType>
defined organic

> <STRUCTURE_DefinedOrganicForm>
parent

> <STRUCTURE_IUPAC>
1-cyclopropyl-6-fluoro-8-methoxy-7-[3-(methylamino)piperidin-1-yl]-4-oxo-1,4-dihydroquinoline-3-carboxylic acid

> <STRUCTURE_SMILES>
CNC1CCCN(C1)c2c(F)cc3c(c2OC)N(C=C(C3=O)C(=O)O)C4CC4

> <STRUCTURE_SMILES_Desalt>
CNC1CCCN(C1)c2c(F)cc3c(c2OC)N(C=C(C3=O)C(=O)O)C4CC4

> <Substance_modify_yyyymmdd>
20110805

$$$$
