127254-12-0
ChemmineR-0915142007XD

 28 32  0  0  1  0  0  0  0  0  1 V2000
    7.9998   -3.9827    0.0000 N    0  0  0  0  0  0  0  0  0  0  0  0
    9.1705   -1.9971    0.0000 C    0  0  0  0  0  0  0  0  0  0  0  0
    6.8865   -3.3399    0.0000 C    0  0  0  0  0  0  0  0  0  0  0  0
    6.8865   -1.9971    0.0000 C    0  0  0  0  0  0  0  0  0  0  0  0
    7.9998   -5.3256    0.0000 C    0  0  0  0  0  0  0  0  0  0  0  0
    3.3973   -3.9827    0.0000 N    0  0  0  0  0  0  0  0  0  0  0  0
    9.1705   -3.3399    0.0000 C    0  0  0  0  0  0  0  0  0  0  0  0
    5.7043   -3.9827    0.0000 C    0  0  0  0  0  0  0  0  0  0  0  0
    7.9998   -1.3429    0.0000 C    0  0  0  0  0  0  0  0  0  0  0  0
    1.9512   -5.6010    0.0000 C    0  0  0  0  0  0  0  0  0  0  0  0
    4.5451   -3.3399    0.0000 C    0  0  0  0  0  0  0  0  0  0  0  0
    8.6885   -6.4618    0.0000 C    0  0  0  0  0  0  0  0  0  0  0  0
    7.3456   -6.4618    0.0000 C    0  0  0  0  0  0  0  0  0  0  0  0
    4.5451   -1.9971    0.0000 C    0  0  0  0  0  0  0  0  0  0  0  0
    5.7043   -1.3429    0.0000 C    0  0  0  0  0  0  0  0  0  0  0  0
    3.2940   -5.3256    0.0000 C    0  0  0  0  0  0  0  0  0  0  0  0
   10.2838   -1.3429    0.0000 C    0  0  0  0  0  0  0  0  0  0  0  0
    2.1807   -3.4547    0.0000 C    0  0  0  0  0  0  0  0  0  0  0  0
    1.3084   -4.4533    0.0000 C    0  0  0  0  0  0  0  0  0  0  0  0
    7.9998    0.0000    0.0000 O    0  0  0  0  0  0  0  0  0  0  0  0
    5.7043   -5.3256    0.0000 Cl   0  0  0  0  0  0  0  0  0  0  0  0
   10.2838    0.0000    0.0000 O    0  0  0  0  0  0  0  0  0  0  0  0
    6.1864   -7.1275    0.0000 F    0  0  0  0  0  0  0  0  0  0  0  0
    3.3973   -1.3429    0.0000 F    0  0  0  0  0  0  0  0  0  0  0  0
    0.0000   -4.2926    0.0000 N    0  0  0  0  0  0  0  0  0  0  0  0
   11.4775   -1.9971    0.0000 O    0  0  0  0  0  0  0  0  0  0  0  0
    0.8838   -6.3585    0.0000 C    0  0  0  0  0  0  0  0  0  0  0  0
    2.1119   -6.8865    0.0000 C    0  0  0  0  0  0  0  0  0  0  0  0
  1  3  1  0  0  0  0
  1  5  1  1  0  0  0
  1  7  1  0  0  0  0
  2  7  2  0  0  0  0
  2  9  1  0  0  0  0
  2 17  1  0  0  0  0
  3  4  2  0  0  0  0
  3  8  1  0  0  0  0
  4 15  1  0  0  0  0
  4  9  1  0  0  0  0
  5 12  1  0  0  0  0
  5 13  1  0  0  0  0
  6 11  1  0  0  0  0
  6 16  1  0  0  0  0
  6 18  1  0  0  0  0
  8 11  2  0  0  0  0
  8 21  1  0  0  0  0
  9 20  2  0  0  0  0
 10 16  1  0  0  0  0
 10 19  1  0  0  0  0
 10 27  1  0  0  0  0
 10 28  1  0  0  0  0
 11 14  1  0  0  0  0
 12 13  1  0  0  0  0
 13 23  1  1  0  0  0
 14 15  2  0  0  0  0
 14 24  1  0  0  0  0
 17 22  2  0  0  0  0
 17 26  1  0  0  0  0
 18 19  1  0  0  0  0
 19 25  1  1  0  0  0
 27 28  1  0  0  0  0
M  END
> <ID>
13836

> <Formula>
C19H18ClF2N3O3

> <FW>
409.8143

> <DSSTox_CID>
28773

> <DSSTox_RID>
83042

> <DSSTox_GSID>
48847

> <DSSTox_FileID_Sort>
7719

> <TS_ChemName>
Sitafloxacin

> <TS_ChemName_Synonyms>


> <TS_CASRN>
127254-12-0

> <CASRN_ChemName_Relationship>
primary

> <TS_Description>
single chemical compound

> <ChemNote>


> <STRUCTURE_Shown>
tested chemical

> <STRUCTURE_Formula>
C19H18ClF2N3O3

> <STRUCTURE_MW>
409.8143

> <STRUCTURE_ChemType>
defined organic

> <STRUCTURE_DefinedOrganicForm>
parent

> <STRUCTURE_IUPAC>
7-[(7R)-7-amino-5-azaspiro[2.4]hept-5-yl]-8-chloro-6-fluoro-1-[(1S,2R)-2-fluorocyclopropyl]-4-oxo-1,4-dihydroquinoline-3-carboxylic acid

> <STRUCTURE_SMILES>
N[C@H]2CN(CC12CC1)c3c(F)cc4c(c3Cl)[N@@](C=C(C4=O)C(=O)O)C5C[C@H]5F

> <STRUCTURE_SMILES_Desalt>
N[C@H]2CN(CC12CC1)c3c(F)cc4c(c3Cl)[N@@](C=C(C4=O)C(=O)O)C5C[C@H]5F

> <Substance_modify_yyyymmdd>
20111204

$$$$
