127308-82-1
ChemmineR-0915142007XD

 31 35  0  0  1  0  0  0  0  0  1 V2000
    3.4673   -3.9581    0.0000 C   0  0  0  0  0  0  0  0  0  0  0  0
    3.4673   -2.6598    0.0000 C   0  0  0  0  0  0  0  0  0  0  0  0
    2.2799   -4.6231    0.0000 C   0  0  0  0  0  0  0  0  0  0  0  0
    4.6231   -4.6231    0.0000 O   0  0  0  0  0  0  0  0  0  0  0  0
    2.2799   -1.9474    0.0000 C   0  0  0  0  0  0  0  0  0  0  0  0
    4.6231   -1.9474    0.0000 C   0  0  0  0  0  0  0  0  0  0  0  0
    1.1716   -3.9581    0.0000 C   0  0  0  0  0  0  0  0  0  0  0  0
    2.2799   -5.9688    0.0000 C   0  0  0  0  0  0  0  0  0  0  0  0
    5.7472   -3.9581    0.0000 C   0  0  0  0  0  0  0  0  0  0  0  0
    2.2799   -0.6491    0.0000 C   0  0  0  0  0  0  0  0  0  0  0  0
    4.6231   -0.6491    0.0000 C   0  0  0  0  0  0  0  0  0  0  0  0
    0.0000   -4.6231    0.0000 C   0  0  0  0  0  0  0  0  0  0  0  0
    1.1716   -6.6180    0.0000 C   0  0  0  0  0  0  0  0  0  0  0  0
    6.9029   -4.6231    0.0000 C   0  0  0  0  0  0  0  0  0  0  0  0
    5.7472   -2.6598    0.0000 C   0  0  0  0  0  0  0  0  0  0  0  0
    3.4673    0.0000    0.0000 C   0  0  0  0  0  0  0  0  0  0  0  0
    0.0000   -5.9688    0.0000 C   0  0  0  0  0  0  0  0  0  0  0  0
    8.0429   -3.9581    0.0000 N   0  0  0  0  0  0  0  0  0  0  0  0
    6.9029   -1.9474    0.0000 C   0  0  0  0  0  0  0  0  0  0  0  0
    9.1986   -4.6231    0.0000 C   0  0  0  0  0  0  0  0  0  0  0  0
    8.0429   -2.6598    0.0000 C   0  0  0  0  0  0  0  0  0  0  0  0
   10.3861   -3.9581    0.0000 C   0  0  0  0  0  0  0  0  0  0  0  0
   11.4785   -4.6231    0.0000 C   0  0  0  0  0  0  0  0  0  0  0  0
   12.6659   -3.9581    0.0000 C   0  0  0  0  0  0  0  0  0  0  0  0
   11.4785   -5.9688    0.0000 C   0  0  0  0  0  0  0  0  0  0  0  0
   13.8217   -4.6231    0.0000 C   0  0  0  0  0  0  0  0  0  0  0  0
   12.6659   -6.6180    0.0000 C   0  0  0  0  0  0  0  0  0  0  0  0
   13.8217   -5.9688    0.0000 C   0  0  0  0  0  0  0  0  0  0  0  0
   15.1041   -4.2431    0.0000 O   0  0  0  0  0  0  0  0  0  0  0  0
   15.1041   -6.3963    0.0000 O   0  0  0  0  0  0  0  0  0  0  0  0
   15.8324   -5.3197    0.0000 C   0  0  0  0  0  0  0  0  0  0  0  0
  1  2  1  0  0  0  0
  1  3  1  0  0  0  0
  1  4  1  0  0  0  0
  2  5  2  0  0  0  0
  2  6  1  0  0  0  0
  3  7  2  0  0  0  0
  3  8  1  0  0  0  0
  9  4  1  6  0  0  0
  5 10  1  0  0  0  0
  6 11  2  0  0  0  0
  7 12  1  0  0  0  0
  8 13  2  0  0  0  0
  9 14  1  0  0  0  0
  9 15  1  0  0  0  0
 10 16  2  0  0  0  0
 11 16  1  0  0  0  0
 12 17  2  0  0  0  0
 13 17  1  0  0  0  0
 14 18  1  0  0  0  0
 15 19  1  0  0  0  0
 18 20  1  0  0  0  0
 18 21  1  0  0  0  0
 19 21  1  0  0  0  0
 20 22  1  0  0  0  0
 22 23  1  0  0  0  0
 23 24  2  0  0  0  0
 23 25  1  0  0  0  0
 24 26  1  0  0  0  0
 25 27  2  0  0  0  0
 26 28  2  0  0  0  0
 26 29  1  0  0  0  0
 27 28  1  0  0  0  0
 28 30  1  0  0  0  0
 29 31  1  0  0  0  0
 30 31  1  0  0  0  0
M  END
> <ID>
12399

> <Formula>
C27H29NO3

> <FW>
415.5241

> <DSSTox_CID>
27257

> <DSSTox_RID>
82215

> <DSSTox_GSID>
47257

> <DSSTox_FileID_Sort>
6896

> <TS_ChemName>
Zamifenacin

> <TS_ChemName_Synonyms>
UK-076654

> <TS_CASRN>
127308-82-1

> <CASRN_ChemName_Relationship>
primary

> <TS_Description>
single chemical compound

> <ChemNote>
stereochem

> <STRUCTURE_Shown>
tested chemical

> <STRUCTURE_Formula>
C27H29NO3

> <STRUCTURE_MW>
415.5241

> <STRUCTURE_ChemType>
defined organic

> <STRUCTURE_DefinedOrganicForm>
parent

> <STRUCTURE_IUPAC>
(3R)-1-[2-(1,3-benzodioxol-5-yl)ethyl]-3-(diphenylmethoxy)piperidine

> <STRUCTURE_SMILES>
c1cc(cc2OCOc12)CCN5CCC[C@@H](OC(c3ccccc3)c4ccccc4)C5

> <STRUCTURE_SMILES_Desalt>
c1cc(cc2OCOc12)CCN5CCC[C@@H](OC(c3ccccc3)c4ccccc4)C5

> <Substance_modify_yyyymmdd>
20130910

$$$$
