127308-98-9
ChemmineR-0915142007XD

 39 42  0  0  1  0  0  0  0  0  1 V2000
   10.1994   -4.0043    0.0000 C   0  0  0  0  0  0  0  0  0  0  0  0
    9.0387   -4.6572    0.0000 O   0  0  0  0  0  0  0  0  0  0  0  0
   11.3600   -4.7152    0.0000 C   0  0  0  0  0  0  0  0  0  0  0  0
   12.5062   -4.0478    0.0000 C   0  0  0  0  0  0  0  0  0  0  0  0
   11.3165   -6.0065    0.0000 C   0  0  0  0  0  0  0  0  0  0  0  0
   13.6233   -4.6862    0.0000 C   0  0  0  0  0  0  0  0  0  0  0  0
   12.4772   -6.7029    0.0000 C   0  0  0  0  0  0  0  0  0  0  0  0
   13.6233   -6.0500    0.0000 C   0  0  0  0  0  0  0  0  0  0  0  0
   10.1994   -2.6550    0.0000 C   0  0  0  0  0  0  0  0  0  0  0  0
    9.0822   -2.0167    0.0000 C   0  0  0  0  0  0  0  0  0  0  0  0
   11.3600   -2.0022    0.0000 C   0  0  0  0  0  0  0  0  0  0  0  0
    9.0822   -0.6529    0.0000 C   0  0  0  0  0  0  0  0  0  0  0  0
   11.3890   -0.7109    0.0000 C   0  0  0  0  0  0  0  0  0  0  0  0
   10.2284    0.0000    0.0000 C   0  0  0  0  0  0  0  0  0  0  0  0
    9.0387   -6.0210    0.0000 C   0  0  0  0  0  0  0  0  0  0  0  0
   10.1558   -6.6448    0.0000 C   0  0  0  0  0  0  0  0  0  0  0  0
    7.8780   -6.6593    0.0000 C   0  0  0  0  0  0  0  0  0  0  0  0
   10.1558   -8.0086    0.0000 C   0  0  0  0  0  0  0  0  0  0  0  0
    7.8490   -7.9651    0.0000 N   0  0  0  0  0  0  0  0  0  0  0  0
    8.9952   -8.6615    0.0000 C   0  0  0  0  0  0  0  0  0  0  0  0
    6.6738   -8.6180    0.0000 C   0  0  0  0  0  0  0  0  0  0  0  0
    5.5567   -7.9796    0.0000 C   0  0  0  0  0  0  0  0  0  0  0  0
    4.4105   -8.6180    0.0000 C   0  0  0  0  0  0  0  0  0  0  0  0
    4.3670   -9.9092    0.0000 C   0  0  0  0  0  0  0  0  0  0  0  0
    3.2499   -7.9070    0.0000 C   0  0  0  0  0  0  0  0  0  0  0  0
    3.2063  -10.5621    0.0000 C   0  0  0  0  0  0  0  0  0  0  0  0
    2.0747   -8.5744    0.0000 C   0  0  0  0  0  0  0  0  0  0  0  0
    2.0167   -9.9672    0.0000 C   0  0  0  0  0  0  0  0  0  0  0  0
    0.7399   -8.1392    0.0000 O   0  0  0  0  0  0  0  0  0  0  0  0
    0.0000   -9.2273    0.0000 C   0  0  0  0  0  0  0  0  0  0  0  0
    0.7835  -10.3154    0.0000 O   0  0  0  0  0  0  0  0  0  0  0  0
    9.3724  -13.3187    0.0000 C   0  0  0  0  0  0  0  0  0  0  0  0
    6.6303  -11.1134    0.0000 C   0  0  0  0  0  0  0  0  0  0  0  0
    7.2977  -12.2160    0.0000 C   0  0  0  0  0  0  0  0  0  0  0  0
    8.6325  -12.2160    0.0000 C   0  0  0  0  0  0  0  0  0  0  0  0
    8.7775  -14.5083    0.0000 O   0  0  0  0  0  0  0  0  0  0  0  0
    7.2252   -9.9237    0.0000 O   0  0  0  0  0  0  0  0  0  0  0  0
   10.6926  -13.3187    0.0000 O   0  0  0  0  0  0  0  0  0  0  0  0
    5.2955  -11.1134    0.0000 O   0  0  0  0  0  0  0  0  0  0  0  0
  1  2  1  0  0  0  0
  1  3  1  0  0  0  0
  1  9  1  0  0  0  0
 15  2  1  1  0  0  0
  3  4  1  0  0  0  0
  3  5  2  0  0  0  0
  4  6  2  0  0  0  0
  5  7  1  0  0  0  0
  6  8  1  0  0  0  0
  7  8  2  0  0  0  0
  9 10  1  0  0  0  0
  9 11  2  0  0  0  0
 10 12  2  0  0  0  0
 11 13  1  0  0  0  0
 12 14  1  0  0  0  0
 13 14  2  0  0  0  0
 15 16  1  0  0  0  0
 15 17  1  0  0  0  0
 16 18  1  0  0  0  0
 17 19  1  0  0  0  0
 18 20  1  0  0  0  0
 19 20  1  0  0  0  0
 19 21  1  0  0  0  0
 21 22  1  0  0  0  0
 22 23  1  0  0  0  0
 23 24  1  0  0  0  0
 23 25  2  0  0  0  0
 24 26  2  0  0  0  0
 25 27  1  0  0  0  0
 26 28  1  0  0  0  0
 27 28  2  0  0  0  0
 27 29  1  0  0  0  0
 28 31  1  0  0  0  0
 29 30  1  0  0  0  0
 30 31  1  0  0  0  0
 32 35  1  0  0  0  0
 32 36  2  0  0  0  0
 32 38  1  0  0  0  0
 33 34  1  0  0  0  0
 33 37  2  0  0  0  0
 33 39  1  0  0  0  0
 34 35  2  0  0  0  0
M  END
> <ID>
14021

> <Formula>
C31H33NO7

> <FW>
531.5962 (415.5241+116.0722)

> <DSSTox_CID>
28963

> <DSSTox_RID>
83228

> <DSSTox_GSID>
49037

> <DSSTox_FileID_Sort>
7904

> <TS_ChemName>
Zamifenacin fumarate

> <TS_ChemName_Synonyms>


> <TS_CASRN>
127308-98-9

> <CASRN_ChemName_Relationship>
primary

> <TS_Description>
single chemical compound

> <ChemNote>


> <STRUCTURE_Shown>
tested chemical

> <STRUCTURE_Formula>
C31H33NO7

> <STRUCTURE_MW>
531.5962

> <STRUCTURE_ChemType>
defined organic

> <STRUCTURE_DefinedOrganicForm>
complex

> <STRUCTURE_IUPAC>
(3S)-1-[2-(1,3-benzodioxol-5-yl)ethyl]-3-(diphenylmethoxy)piperidine (2E)-but-2-enedioate (1:1)

> <STRUCTURE_SMILES>
O=C(O)/C=C/C(=O)O.c1cc(cc2OCOc12)CCN5CCC[C@H](OC(c3ccccc3)c4ccccc4)C5

> <STRUCTURE_SMILES_Desalt>
c1cc(cc2OCOc12)CCN5CCC[C@H](OC(c3ccccc3)c4ccccc4)C5

> <Substance_modify_yyyymmdd>
20111204

$$$$
