127625-29-0
ChemmineR-0915142007XD

 30 34  0  0  0  0  0  0  0  0  1 V2000
    2.2945   -5.2425    0.0000 C   0  0  0  0  0  0  0  0  0  0  0  0
    3.4342   -4.5891    0.0000 C   0  0  0  0  0  0  0  0  0  0  0  0
    1.1397   -4.5891    0.0000 C   0  0  0  0  0  0  0  0  0  0  0  0
    2.2945   -6.5645    0.0000 C   0  0  0  0  0  0  0  0  0  0  0  0
    3.0847   -3.2974    0.0000 N   0  0  0  0  0  0  0  0  0  0  0  0
    4.5739   -5.2425    0.0000 C   0  0  0  0  0  0  0  0  0  0  0  0
    1.4740   -3.2974    0.0000 S   0  0  0  0  0  0  0  0  0  0  0  0
    0.0000   -5.2425    0.0000 C   0  0  0  0  0  0  0  0  0  0  0  0
    3.4342   -7.2331    0.0000 C   0  0  0  0  0  0  0  0  0  0  0  0
    1.1397   -7.2331    0.0000 C   0  0  0  0  0  0  0  0  0  0  0  0
    3.9660   -2.2945    0.0000 C   0  0  0  0  0  0  0  0  0  0  0  0
    4.5739   -6.5645    0.0000 C   0  0  0  0  0  0  0  0  0  0  0  0
    0.2431   -2.9024    0.0000 O   0  0  0  0  0  0  0  0  0  0  0  0
    1.2308   -2.0058    0.0000 O   0  0  0  0  0  0  0  0  0  0  0  0
    0.0000   -6.5645    0.0000 C   0  0  0  0  0  0  0  0  0  0  0  0
    5.2881   -2.2945    0.0000 C   0  0  0  0  0  0  0  0  0  0  0  0
    5.9567   -1.1701    0.0000 C   0  0  0  0  0  0  0  0  0  0  0  0
    7.2787   -1.1701    0.0000 N   0  0  0  0  0  0  0  0  0  0  0  0
    7.9169    0.0000    0.0000 C   0  0  0  0  0  0  0  0  0  0  0  0
    7.9169   -2.2945    0.0000 C   0  0  0  0  0  0  0  0  0  0  0  0
    9.2389    0.0000    0.0000 C   0  0  0  0  0  0  0  0  0  0  0  0
    9.2389   -2.2945    0.0000 C   0  0  0  0  0  0  0  0  0  0  0  0
    9.9075   -1.1701    0.0000 N   0  0  0  0  0  0  0  0  0  0  0  0
   11.2295   -1.1701    0.0000 C   0  0  0  0  0  0  0  0  0  0  0  0
   11.8829    0.0000    0.0000 C   0  0  0  0  0  0  0  0  0  0  0  0
   11.8829   -2.2945    0.0000 C   0  0  0  0  0  0  0  0  0  0  0  0
   13.2049    0.0000    0.0000 C   0  0  0  0  0  0  0  0  0  0  0  0
   13.2049   -2.2945    0.0000 C   0  0  0  0  0  0  0  0  0  0  0  0
   13.8736   -1.1701    0.0000 C   0  0  0  0  0  0  0  0  0  0  0  0
   15.1956   -1.1701    0.0000 F   0  0  0  0  0  0  0  0  0  0  0  0
  1  2  1  0  0  0  0
  1  3  1  0  0  0  0
  1  4  2  0  0  0  0
  2  5  1  0  0  0  0
  2  6  2  0  0  0  0
  3  7  1  0  0  0  0
  3  8  2  0  0  0  0
  4  9  1  0  0  0  0
  4 10  1  0  0  0  0
  5 11  1  0  0  0  0
  5  7  1  0  0  0  0
  6 12  1  0  0  0  0
  7 13  2  0  0  0  0
  7 14  2  0  0  0  0
  8 15  1  0  0  0  0
  9 12  2  0  0  0  0
 10 15  2  0  0  0  0
 11 16  1  0  0  0  0
 16 17  1  0  0  0  0
 17 18  1  0  0  0  0
 18 19  1  0  0  0  0
 18 20  1  0  0  0  0
 19 21  1  0  0  0  0
 20 22  1  0  0  0  0
 21 23  1  0  0  0  0
 22 23  1  0  0  0  0
 23 24  1  0  0  0  0
 24 25  2  0  0  0  0
 24 26  1  0  0  0  0
 25 27  1  0  0  0  0
 26 28  2  0  0  0  0
 27 29  2  0  0  0  0
 28 29  1  0  0  0  0
 29 30  1  0  0  0  0
M  END
> <ID>
11935

> <Formula>
C23H24FN3O2S

> <FW>
425.519

> <DSSTox_CID>
26743

> <DSSTox_RID>
81871

> <DSSTox_GSID>
46743

> <DSSTox_FileID_Sort>
6552

> <TS_ChemName>
Fananserin

> <TS_ChemName_Synonyms>


> <TS_CASRN>
127625-29-0

> <CASRN_ChemName_Relationship>
primary

> <TS_Description>
single chemical compound

> <ChemNote>


> <STRUCTURE_Shown>
tested chemical

> <STRUCTURE_Formula>
C23H24FN3O2S

> <STRUCTURE_MW>
425.519

> <STRUCTURE_ChemType>
defined organic

> <STRUCTURE_DefinedOrganicForm>
parent

> <STRUCTURE_IUPAC>
2-{3-[4-(4-fluorophenyl)piperazin-1-yl]propyl}-2H-naphtho[1,8-cd][1,2]thiazole 1,1-dioxide

> <STRUCTURE_SMILES>
Fc1ccc(cc1)N2CCN(CC2)CCCN5c4cccc3cccc(c34)S5(=O)=O

> <STRUCTURE_SMILES_Desalt>
Fc1ccc(cc1)N2CCN(CC2)CCCN5c4cccc3cccc(c34)S5(=O)=O

> <Substance_modify_yyyymmdd>
20110803

$$$$
