12771-68-5
ChemmineR-0915142007XD

 19 21  0  0  0  0  0  0  0  0  1 V2000
    3.9968   -1.3256    0.0000 C   0  0  0  0  0  0  0  0  0  0  0  0
    3.9968   -2.6512    0.0000 C   0  0  0  0  0  0  0  0  0  0  0  0
    2.6712   -1.3256    0.0000 C   0  0  0  0  0  0  0  0  0  0  0  0
    4.6446   -3.7974    0.0000 C   0  0  0  0  0  0  0  0  0  0  0  0
    3.3190   -3.7974    0.0000 C   0  0  0  0  0  0  0  0  0  0  0  0
    5.3224   -1.3256    0.0000 C   0  0  0  0  0  0  0  0  0  0  0  0
    0.6678   -0.1595    0.0000 N   0  0  0  0  0  0  0  0  0  0  0  0
    0.6678   -2.4718    0.0000 N   0  0  0  0  0  0  0  0  0  0  0  0
    0.0000   -1.3256    0.0000 C   0  0  0  0  0  0  0  0  0  0  0  0
    5.9703   -0.1595    0.0000 C   0  0  0  0  0  0  0  0  0  0  0  0
    5.9703   -2.4718    0.0000 C   0  0  0  0  0  0  0  0  0  0  0  0
    3.9968    0.0000    0.0000 O   0  0  0  0  0  0  0  0  0  0  0  0
    1.9934   -2.4718    0.0000 C   0  0  0  0  0  0  0  0  0  0  0  0
    1.9934   -0.1595    0.0000 C   0  0  0  0  0  0  0  0  0  0  0  0
    7.9736   -1.3256    0.0000 C   0  0  0  0  0  0  0  0  0  0  0  0
    7.2959   -0.1595    0.0000 C   0  0  0  0  0  0  0  0  0  0  0  0
    7.2959   -2.4718    0.0000 C   0  0  0  0  0  0  0  0  0  0  0  0
    9.2992   -1.3256    0.0000 O   0  0  0  0  0  0  0  0  0  0  0  0
    9.9670   -0.1595    0.0000 C   0  0  0  0  0  0  0  0  0  0  0  0
  1  2  1  0  0  0  0
  1  3  1  0  0  0  0
  1  6  1  0  0  0  0
  1 12  1  0  0  0  0
  2  4  1  0  0  0  0
  2  5  1  0  0  0  0
  3 13  2  0  0  0  0
  3 14  1  0  0  0  0
  4  5  1  0  0  0  0
  6 10  1  0  0  0  0
  6 11  2  0  0  0  0
  7 14  2  0  0  0  0
  7  9  1  0  0  0  0
  8 13  1  0  0  0  0
  8  9  2  0  0  0  0
 10 16  2  0  0  0  0
 11 17  1  0  0  0  0
 15 17  2  0  0  0  0
 15 18  1  0  0  0  0
 15 16  1  0  0  0  0
 18 19  1  0  0  0  0
M  END
> <ID>
6745

> <Formula>
C15H16N2O2

> <FW>
256.2997

> <DSSTox_CID>
14338

> <DSSTox_RID>
79144

> <DSSTox_GSID>
34338

> <DSSTox_FileID_Sort>
3826

> <TS_ChemName>
Ancymidol

> <TS_ChemName_Synonyms>


> <TS_CASRN>
12771-68-5

> <CASRN_ChemName_Relationship>
primary

> <TS_Description>
single chemical compound

> <ChemNote>


> <STRUCTURE_Shown>
tested chemical

> <STRUCTURE_Formula>
C15H16N2O2

> <STRUCTURE_MW>
256.2997

> <STRUCTURE_ChemType>
defined organic

> <STRUCTURE_DefinedOrganicForm>
parent

> <STRUCTURE_IUPAC>
cyclopropyl(4-methoxyphenyl)pyrimidin-5-ylmethanol

> <STRUCTURE_SMILES>
OC(C1CC1)(c2cncnc2)c3ccc(OC)cc3

> <STRUCTURE_SMILES_Desalt>
OC(C1CC1)(c2cncnc2)c3ccc(OC)cc3

> <Substance_modify_yyyymmdd>
20080429

$$$$
