1277-43-6
ChemmineR-0915142007XD

 11 10  0  0  0  0  0  0  0  0  2 V2000
    0.2748   -4.8545    0.0000 C    0  0  0  0  0  0  0  0  0  0  0  0
    1.3312   -4.0423    0.0000 C    0  5  0  0  0  0  0  0  0  0  0  0
    0.7205   -6.1063    0.0000 C    0  0  0  0  0  0  0  0  0  0  0  0
    2.4303   -4.7995    0.0000 C    0  0  0  0  0  0  0  0  0  0  0  0
    2.0456   -6.0696    0.0000 C    0  0  0  0  0  0  0  0  0  0  0  0
    1.6853    0.0000    0.0000 C    0  0  0  0  0  0  0  0  0  0  0  0
    2.1494   -1.2457    0.0000 C    0  0  0  0  0  0  0  0  0  0  0  0
    0.3603   -0.0550    0.0000 C    0  0  0  0  0  0  0  0  0  0  0  0
    1.1113   -2.0761    0.0000 C    0  5  0  0  0  0  0  0  0  0  0  0
    0.0000   -1.3373    0.0000 C    0  0  0  0  0  0  0  0  0  0  0  0
    0.9892   -3.0715    0.0000 Co   0  2  0  0  0  0  0  0  0  0  0  0
  1  2  1  0  0  0  0
  1  3  2  0  0  0  0
  2  4  1  0  0  0  0
  3  5  1  0  0  0  0
  4  5  2  0  0  0  0
  6  7  2  0  0  0  0
  6  8  1  0  0  0  0
  7  9  1  0  0  0  0
  8 10  2  0  0  0  0
  9 10  1  0  0  0  0
M  END
> <ID>
3880

> <Formula>
C10H10Co

> <FW>
189.1196 (65.0937+65.0937+58.9321)

> <DSSTox_CID>
4840

> <DSSTox_RID>
77550

> <DSSTox_GSID>
24840

> <DSSTox_FileID_Sort>
2233

> <TS_ChemName>
Cobaltocene

> <TS_ChemName_Synonyms>


> <TS_CASRN>
1277-43-6

> <CASRN_ChemName_Relationship>
primary

> <TS_Description>
single chemical compound

> <ChemNote>


> <STRUCTURE_Shown>
tested chemical

> <STRUCTURE_Formula>
C10H10Co

> <STRUCTURE_MW>
189.1196

> <STRUCTURE_ChemType>
organometallic

> <STRUCTURE_DefinedOrganicForm>


> <STRUCTURE_IUPAC>
cobalt(2+) dicyclopenta-2,4-dienide

> <STRUCTURE_SMILES>
[Co+2].[c-]1cccc1.c1[c-]ccc1

> <STRUCTURE_SMILES_Desalt>
C1=CC=CC1

> <Substance_modify_yyyymmdd>
20080429

$$$$
