12789-03-6
ChemmineR-0915142007XD

 18 20  0  0  0  0  0  0  0  0  1 V2000
    1.2631   -1.9740    0.0000 C    0  0  0  0  0  0  0  0  0  0  0  0
    2.1466   -0.9801    0.0000 C    0  0  0  0  0  0  0  0  0  0  0  0
    3.3268   -1.4978    0.0000 C    0  0  0  0  0  0  0  0  0  0  0  0
    1.9050   -3.1060    0.0000 C    0  0  0  0  0  0  0  0  0  0  0  0
    3.1543   -2.8230    0.0000 C    0  0  0  0  0  0  0  0  0  0  0  0
    4.5692   -1.3114    0.0000 C    0  0  0  0  0  0  0  0  0  0  0  0
    5.6598   -1.7324    0.0000 C    0  0  0  0  0  0  0  0  0  0  0  0
    5.4872   -3.1543    0.0000 C    0  0  0  0  0  0  0  0  0  0  0  0
    4.3346   -3.2785    0.0000 C    0  0  0  0  0  0  0  0  0  0  0  0
    4.0309   -4.5554    0.0000 Cl   0  0  0  0  0  0  0  0  0  0  0  0
    5.1214   -2.3812    0.0000 C    0  0  0  0  0  0  0  0  0  0  0  0
    6.8055   -2.9955    0.0000 Cl   0  0  0  0  0  0  0  0  0  0  0  0
    6.9022   -2.1604    0.0000 Cl   0  0  0  0  0  0  0  0  0  0  0  0
    4.5554    0.0000    0.0000 Cl   0  0  0  0  0  0  0  0  0  0  0  0
    6.4742   -0.6971    0.0000 Cl   0  0  0  0  0  0  0  0  0  0  0  0
    6.0325   -4.3484    0.0000 Cl   0  0  0  0  0  0  0  0  0  0  0  0
    1.3735   -4.2586    0.0000 Cl   0  0  0  0  0  0  0  0  0  0  0  0
    0.0000   -1.8153    0.0000 Cl   0  0  0  0  0  0  0  0  0  0  0  0
  1  2  1  0  0  0  0
  1  4  1  0  0  0  0
  1 18  1  0  0  0  0
  2  3  1  0  0  0  0
  3  5  1  0  0  0  0
  3  6  1  0  0  0  0
  4  5  1  0  0  0  0
  4 17  1  0  0  0  0
  5  9  1  0  0  0  0
  6  7  1  0  0  0  0
  6 11  1  0  0  0  0
  6 14  1  0  0  0  0
  7  8  2  0  0  0  0
  7 15  1  0  0  0  0
  8  9  1  0  0  0  0
  8 16  1  0  0  0  0
  9 11  1  0  0  0  0
  9 10  1  0  0  0  0
 11 12  1  0  0  0  0
 11 13  1  0  0  0  0
M  END
> <ID>
13205

> <Formula>
C10H6Cl8

> <FW>
409.7786

> <DSSTox_CID>
28117

> <DSSTox_RID>
77241

> <DSSTox_GSID>
23954

> <DSSTox_FileID_Sort>
1924

> <TS_ChemName>
Chlordane, technical grade

> <TS_ChemName_Synonyms>


> <TS_CASRN>
12789-03-6

> <CASRN_ChemName_Relationship>
primary

> <TS_Description>
mixture or formulation

> <ChemNote>
mixture of >140 related compounds; stereochem

> <STRUCTURE_Shown>
representative component

> <STRUCTURE_Formula>
C10H6Cl8

> <STRUCTURE_MW>
409.7786

> <STRUCTURE_ChemType>
defined organic

> <STRUCTURE_DefinedOrganicForm>
parent

> <STRUCTURE_IUPAC>
1,2,4,5,6,7,8,8-octachloro-2,3,3a,4,7,7a-hexahydro-1H-4,7-methanoindene

> <STRUCTURE_SMILES>
ClC2=C(Cl)C3(Cl)C1CC(Cl)C(Cl)C1C2(Cl)C3(Cl)Cl

> <STRUCTURE_SMILES_Desalt>
ClC2=C(Cl)C3(Cl)C1CC(Cl)C(Cl)C1C2(Cl)C3(Cl)Cl

> <Substance_modify_yyyymmdd>
20080815

$$$$
