127985-21-1
ChemmineR-0915142007XD

 22 24  0  0  0  0  0  0  0  0  1 V2000
    4.4904   -3.0182    0.0000 N   0  0  0  0  0  0  0  0  0  0  0  0
    4.4904   -4.3248    0.0000 C   0  0  0  0  0  0  0  0  0  0  0  0
    3.4690   -5.1898    0.0000 C   0  0  0  0  0  0  0  0  0  0  0  0
    2.1256   -4.9229    0.0000 N   0  0  0  0  0  0  0  0  0  0  0  0
    1.5827   -3.6531    0.0000 C   0  0  0  0  0  0  0  0  0  0  0  0
    2.1256   -2.5581    0.0000 C   0  0  0  0  0  0  0  0  0  0  0  0
    3.4690   -2.1532    0.0000 C   0  0  0  0  0  0  0  0  0  0  0  0
    3.8463   -0.9386    0.0000 C   0  0  0  0  0  0  0  0  0  0  0  0
    2.9905    0.0000    0.0000 C   0  0  0  0  0  0  0  0  0  0  0  0
    1.6471   -0.2668    0.0000 C   0  0  0  0  0  0  0  0  0  0  0  0
    1.2974   -1.4815    0.0000 C   0  0  0  0  0  0  0  0  0  0  0  0
    6.5700   -3.6531    0.0000 N   0  0  0  0  0  0  0  0  0  0  0  0
    5.8155   -2.6317    0.0000 C   0  0  0  0  0  0  0  0  0  0  0  0
    5.8155   -4.7941    0.0000 C   0  0  0  0  0  0  0  0  0  0  0  0
    6.2111   -6.0547    0.0000 C   0  0  0  0  0  0  0  0  0  0  0  0
    5.3002   -7.0301    0.0000 O   0  0  0  0  0  0  0  0  0  0  0  0
    7.5086   -6.3216    0.0000 O   0  0  0  0  0  0  0  0  0  0  0  0
    0.0000   -1.7759    0.0000 I   0  0  0  0  0  0  0  0  0  0  0  0
    1.2974   -5.9259    0.0000 C   0  0  0  0  0  0  0  0  0  0  0  0
    0.2392   -3.6531    0.0000 O   0  0  0  0  0  0  0  0  0  0  0  0
    7.9043   -7.5822    0.0000 C   0  0  0  0  0  0  0  0  0  0  0  0
    9.2017   -7.8582    0.0000 C   0  0  0  0  0  0  0  0  0  0  0  0
  1  2  1  0  0  0  0
  1  7  1  0  0  0  0
  1 13  1  0  0  0  0
  2  3  1  0  0  0  0
  2 14  2  0  0  0  0
  3  4  1  0  0  0  0
  4  5  1  0  0  0  0
  4 19  1  0  0  0  0
  5  6  1  0  0  0  0
  5 20  2  0  0  0  0
  6  7  2  0  0  0  0
  6 11  1  0  0  0  0
  7  8  1  0  0  0  0
  8  9  2  0  0  0  0
  9 10  1  0  0  0  0
 10 11  2  0  0  0  0
 11 18  1  0  0  0  0
 12 13  2  0  0  0  0
 12 14  1  0  0  0  0
 14 15  1  0  0  0  0
 15 16  2  0  0  0  0
 15 17  1  0  0  0  0
 17 21  1  0  0  0  0
 21 22  1  0  0  0  0
M  END
> <ID>
13763

> <Formula>
C15H14IN3O3

> <FW>
411.1944

> <DSSTox_CID>
28700

> <DSSTox_RID>
82969

> <DSSTox_GSID>
48774

> <DSSTox_FileID_Sort>
7646

> <TS_ChemName>
Iomazenil

> <TS_ChemName_Synonyms>


> <TS_CASRN>
127985-21-1

> <CASRN_ChemName_Relationship>
primary

> <TS_Description>
single chemical compound

> <ChemNote>


> <STRUCTURE_Shown>
tested chemical

> <STRUCTURE_Formula>
C15H14IN3O3

> <STRUCTURE_MW>
411.1944

> <STRUCTURE_ChemType>
defined organic

> <STRUCTURE_DefinedOrganicForm>
parent

> <STRUCTURE_IUPAC>
ethyl 7-iodo-5-methyl-6-oxo-5,6-dihydro-4H-imidazo[1,5-a][1,4]benzodiazepine-3-carboxylate

> <STRUCTURE_SMILES>
O=C(OCC)c3ncn2c3CN(C)C(=O)c1c(I)cccc12

> <STRUCTURE_SMILES_Desalt>
O=C(OCC)c3ncn2c3CN(C)C(=O)c1c(I)cccc12

> <Substance_modify_yyyymmdd>
20100107

$$$$
