128-39-2
ChemmineR-0915142007XD

 15 15  0  0  0  0  0  0  0  0  1 V2000
    3.3991   -1.6724    0.0000 C   0  0  0  0  0  0  0  0  0  0  0  0
    3.3991    0.0000    0.0000 O   0  0  0  0  0  0  0  0  0  0  0  0
    4.5344   -2.3182    0.0000 C   0  0  0  0  0  0  0  0  0  0  0  0
    2.2638   -2.3182    0.0000 C   0  0  0  0  0  0  0  0  0  0  0  0
    2.2638   -3.6234    0.0000 C   0  0  0  0  0  0  0  0  0  0  0  0
    4.5344   -3.6234    0.0000 C   0  0  0  0  0  0  0  0  0  0  0  0
    3.3991   -4.2829    0.0000 C   0  0  0  0  0  0  0  0  0  0  0  0
    5.6629   -1.6724    0.0000 C   0  0  0  0  0  0  0  0  0  0  0  0
    5.0035   -0.5371    0.0000 C   0  0  0  0  0  0  0  0  0  0  0  0
    6.3087   -2.7873    0.0000 C   0  0  0  0  0  0  0  0  0  0  0  0
    6.7982   -1.0129    0.0000 C   0  0  0  0  0  0  0  0  0  0  0  0
    1.1353   -1.6724    0.0000 C   0  0  0  0  0  0  0  0  0  0  0  0
    0.4895   -2.7873    0.0000 C   0  0  0  0  0  0  0  0  0  0  0  0
    1.7947   -0.5371    0.0000 C   0  0  0  0  0  0  0  0  0  0  0  0
    0.0000   -1.0129    0.0000 C   0  0  0  0  0  0  0  0  0  0  0  0
  1  2  1  0  0  0  0
  1  3  2  0  0  0  0
  1  4  1  0  0  0  0
  3  6  1  0  0  0  0
  3  8  1  0  0  0  0
  4  5  2  0  0  0  0
  4 12  1  0  0  0  0
  5  7  1  0  0  0  0
  6  7  2  0  0  0  0
  8  9  1  0  0  0  0
  8 10  1  0  0  0  0
  8 11  1  0  0  0  0
 12 13  1  0  0  0  0
 12 14  1  0  0  0  0
 12 15  1  0  0  0  0
M  END
> <ID>
4907

> <Formula>
C14H22O

> <FW>
206.3239

> <DSSTox_CID>
7052

> <DSSTox_RID>
78295

> <DSSTox_GSID>
27052

> <DSSTox_FileID_Sort>
2978

> <TS_ChemName>
2,6-Di-tert-butylphenol

> <TS_ChemName_Synonyms>


> <TS_CASRN>
128-39-2

> <CASRN_ChemName_Relationship>
primary

> <TS_Description>
single chemical compound

> <ChemNote>


> <STRUCTURE_Shown>
tested chemical

> <STRUCTURE_Formula>
C14H22O

> <STRUCTURE_MW>
206.3239

> <STRUCTURE_ChemType>
defined organic

> <STRUCTURE_DefinedOrganicForm>
parent

> <STRUCTURE_IUPAC>
2,6-di-tert-butylphenol

> <STRUCTURE_SMILES>
CC(C)(C)c1cccc(c1O)C(C)(C)C

> <STRUCTURE_SMILES_Desalt>
CC(C)(C)c1cccc(c1O)C(C)(C)C

> <Substance_modify_yyyymmdd>
20080429

$$$$
