128-62-1
ChemmineR-0915142007XD

 30 34  0  0  1  0  0  0  0  0  1 V2000
    3.2950   -6.0911    0.0000 C   0  0  0  0  0  0  0  0  0  0  0  0
    4.4436   -5.4298    0.0000 N   0  0  0  0  0  0  0  0  0  0  0  0
    4.4436   -4.0956    0.0000 C   0  0  0  0  0  0  0  0  0  0  0  0
    3.2950   -3.4342    0.0000 C   0  0  0  0  0  0  0  0  0  0  0  0
    2.1348   -4.0956    0.0000 C   0  0  0  0  0  0  0  0  0  0  0  0
    2.1348   -5.4298    0.0000 C   0  0  0  0  0  0  0  0  0  0  0  0
    0.9862   -3.4342    0.0000 C   0  0  0  0  0  0  0  0  0  0  0  0
    0.9862   -2.1000    0.0000 C   0  0  0  0  0  0  0  0  0  0  0  0
    0.0000   -1.2066    0.0000 O   0  0  0  0  0  0  0  0  0  0  0  0
    0.5453    0.0000    0.0000 C   0  0  0  0  0  0  0  0  0  0  0  0
    1.8680   -0.1392    0.0000 O   0  0  0  0  0  0  0  0  0  0  0  0
    2.1348   -1.4387    0.0000 C   0  0  0  0  0  0  0  0  0  0  0  0
    3.2950   -2.1000    0.0000 C   0  0  0  0  0  0  0  0  0  0  0  0
    4.4436   -1.4387    0.0000 O   0  0  0  0  0  0  0  0  0  0  0  0
    4.4436   -0.1044    0.0000 C   0  0  0  0  0  0  0  0  0  0  0  0
    5.5922   -3.4342    0.0000 C   0  0  0  0  0  0  0  0  0  0  0  0
    6.8105   -3.9679    0.0000 C   0  0  0  0  0  0  0  0  0  0  0  0
    7.2166   -5.2326    0.0000 C   0  0  0  0  0  0  0  0  0  0  0  0
    8.5160   -5.5110    0.0000 C   0  0  0  0  0  0  0  0  0  0  0  0
    9.4094   -4.5248    0.0000 C   0  0  0  0  0  0  0  0  0  0  0  0
    9.0033   -3.2602    0.0000 C   0  0  0  0  0  0  0  0  0  0  0  0
    7.7038   -2.9818    0.0000 C   0  0  0  0  0  0  0  0  0  0  0  0
    7.0309   -1.8331    0.0000 C   0  0  0  0  0  0  0  0  0  0  0  0
    5.7315   -2.1116    0.0000 O   0  0  0  0  0  0  0  0  0  0  0  0
    7.5762   -0.6149    0.0000 O   0  0  0  0  0  0  0  0  0  0  0  0
    9.8851   -2.2740    0.0000 O   0  0  0  0  0  0  0  0  0  0  0  0
   11.1961   -2.5525    0.0000 C   0  0  0  0  0  0  0  0  0  0  0  0
   10.7088   -4.8033    0.0000 O   0  0  0  0  0  0  0  0  0  0  0  0
   11.6022   -3.8171    0.0000 C   0  0  0  0  0  0  0  0  0  0  0  0
    5.5922   -6.0911    0.0000 C   0  0  0  0  0  0  0  0  0  0  0  0
  1  2  1  0  0  0  0
  1  6  1  0  0  0  0
  3  2  1  6  0  0  0
  2 30  1  0  0  0  0
  3  4  1  0  0  0  0
  3 16  1  0  0  0  0
  4  5  2  0  0  0  0
  4 13  1  0  0  0  0
  5  6  1  0  0  0  0
  5  7  1  0  0  0  0
  7  8  2  0  0  0  0
  8  9  1  0  0  0  0
  8 12  1  0  0  0  0
  9 10  1  0  0  0  0
 10 11  1  0  0  0  0
 11 12  1  0  0  0  0
 12 13  2  0  0  0  0
 13 14  1  0  0  0  0
 14 15  1  0  0  0  0
 16 17  1  0  0  0  0
 16 24  1  1  0  0  0
 17 18  2  0  0  0  0
 17 22  1  0  0  0  0
 18 19  1  0  0  0  0
 19 20  2  0  0  0  0
 20 21  1  0  0  0  0
 20 28  1  0  0  0  0
 21 22  2  0  0  0  0
 21 26  1  0  0  0  0
 22 23  1  0  0  0  0
 23 24  1  0  0  0  0
 23 25  2  0  0  0  0
 26 27  1  0  0  0  0
 28 29  1  0  0  0  0
M  END
> <ID>
3035

> <Formula>
C22H23NO7

> <FW>
413.4205

> <DSSTox_CID>
3385

> <DSSTox_RID>
77007

> <DSSTox_GSID>
23385

> <DSSTox_FileID_Sort>
1691

> <TS_ChemName>
Noscapine

> <TS_ChemName_Synonyms>


> <TS_CASRN>
128-62-1

> <CASRN_ChemName_Relationship>
primary

> <TS_Description>
single chemical compound

> <ChemNote>
stereochem

> <STRUCTURE_Shown>
tested chemical

> <STRUCTURE_Formula>
C22H23NO7

> <STRUCTURE_MW>
413.4205

> <STRUCTURE_ChemType>
defined organic

> <STRUCTURE_DefinedOrganicForm>
parent

> <STRUCTURE_IUPAC>
(3S)-6,7-dimethoxy-3-[(5R)-4-methoxy-6-methyl-5,6,7,8-tetrahydro[1,3]dioxolo[4,5-g]isoquinolin-5-yl]-2-benzofuran-1(3H)-one

> <STRUCTURE_SMILES>
COc3c5OCOc5cc4CCN(C)[C@@H]([C@H]2OC(=O)c1c(OC)c(ccc12)OC)c34

> <STRUCTURE_SMILES_Desalt>
COc3c5OCOc5cc4CCN(C)[C@@H]([C@H]2OC(=O)c1c(OC)c(ccc12)OC)c34

> <Substance_modify_yyyymmdd>
20080429

$$$$
