128-44-9
ChemmineR-0915142007XD

 13 13  0  0  0  0  0  0  0  0  2 V2000
    3.9759    0.0000    0.0000 O    0  0  0  0  0  0  0  0  0  0  0  0
    3.5706   -1.2637    0.0000 C    0  0  0  0  0  0  0  0  0  0  0  0
    4.3514   -2.3426    0.0000 N    0  5  0  0  0  0  0  0  0  0  0  0
    3.5706   -3.4156    0.0000 S    0  0  0  0  0  0  0  0  0  0  0  0
    4.7210   -4.0832    0.0000 O    0  0  0  0  0  0  0  0  0  0  0  0
    3.0281   -4.6316    0.0000 O    0  0  0  0  0  0  0  0  0  0  0  0
    2.3009   -3.0043    0.0000 C    0  0  0  0  0  0  0  0  0  0  0  0
    1.1504   -3.6719    0.0000 C    0  0  0  0  0  0  0  0  0  0  0  0
    0.0000   -3.0043    0.0000 C    0  0  0  0  0  0  0  0  0  0  0  0
    0.0000   -1.6750    0.0000 C    0  0  0  0  0  0  0  0  0  0  0  0
    1.1504   -1.0133    0.0000 C    0  0  0  0  0  0  0  0  0  0  0  0
    2.3009   -1.6750    0.0000 C    0  0  0  0  0  0  0  0  0  0  0  0
    2.3963   -5.9609    0.0000 Na   0  3  0  0  0  0  0  0  0  0  0  0
  1  2  2  0  0  0  0
  2  3  1  0  0  0  0
  2 12  1  0  0  0  0
  3  4  1  0  0  0  0
  4  5  2  0  0  0  0
  4  6  2  0  0  0  0
  4  7  1  0  0  0  0
  7  8  2  0  0  0  0
  7 12  1  0  0  0  0
  8  9  1  0  0  0  0
  9 10  2  0  0  0  0
 10 11  1  0  0  0  0
 11 12  2  0  0  0  0
M  END
> <ID>
1205

> <Formula>
C7H4NNaO3S

> <FW>
205.1663 (182.1771+22.9892)

> <DSSTox_CID>
1253

> <DSSTox_RID>
76040

> <DSSTox_GSID>
21253

> <DSSTox_FileID_Sort>
724

> <TS_ChemName>
Sodium saccharin

> <TS_ChemName_Synonyms>
Sodium saccharin (1,2-Benzisothiazol-3(2H)-one, 1,1-dioxide, sodium salt)

> <TS_CASRN>
128-44-9

> <CASRN_ChemName_Relationship>
primary

> <TS_Description>
single chemical compound

> <ChemNote>
parent [81-07-2]

> <STRUCTURE_Shown>
tested chemical

> <STRUCTURE_Formula>
C7H4NNaO3S

> <STRUCTURE_MW>
205.1663

> <STRUCTURE_ChemType>
defined organic

> <STRUCTURE_DefinedOrganicForm>
salt

> <STRUCTURE_IUPAC>
sodium 3-oxo-3H-1,2-benzothiazol-2-ide 1,1-dioxide

> <STRUCTURE_SMILES>
[Na+].O=C1[N-]S(=O)(=O)c2ccccc12

> <STRUCTURE_SMILES_Desalt>
O=C2NS(=O)(=O)c1ccccc12

> <Substance_modify_yyyymmdd>
20080429

$$$$
