128-04-1
ChemmineR-0915142007XD

  7  5  0  0  0  0  0  0  0  0  2 V2000
    3.1786   -1.3458    0.0000 C    0  0  0  0  0  0  0  0  0  0  0  0
    4.3165   -1.9914    0.0000 N    0  0  0  0  0  0  0  0  0  0  0  0
    2.0188   -1.9914    0.0000 S    0  5  0  0  0  0  0  0  0  0  0  0
    3.1786    0.0000    0.0000 S    0  0  0  0  0  0  0  0  0  0  0  0
    4.3165   -3.3373    0.0000 C    0  0  0  0  0  0  0  0  0  0  0  0
    5.4709   -1.3458    0.0000 C    0  0  0  0  0  0  0  0  0  0  0  0
    0.0000   -1.9258    0.0000 Na   0  3  0  0  0  0  0  0  0  0  0  0
  1  4  2  0  0  0  0
  1  3  1  0  0  0  0
  1  2  1  0  0  0  0
  2  5  1  0  0  0  0
  2  6  1  0  0  0  0
M  END
> <ID>
4906

> <Formula>
C3H6NNaS2

> <FW>
143.2062 (120.2170+22.9892)

> <DSSTox_CID>
7050

> <DSSTox_RID>
78294

> <DSSTox_GSID>
27050

> <DSSTox_FileID_Sort>
2977

> <TS_ChemName>
Sodium dimethyldithiocarbamate

> <TS_ChemName_Synonyms>


> <TS_CASRN>
128-04-1

> <CASRN_ChemName_Relationship>
primary

> <TS_Description>
single chemical compound

> <ChemNote>
parent [79-45-8]

> <STRUCTURE_Shown>
tested chemical

> <STRUCTURE_Formula>
C3H6NNaS2

> <STRUCTURE_MW>
143.2062

> <STRUCTURE_ChemType>
defined organic

> <STRUCTURE_DefinedOrganicForm>
salt

> <STRUCTURE_IUPAC>
sodium dimethylcarbamodithioate

> <STRUCTURE_SMILES>
[Na+].CN(C)C([S-])=S

> <STRUCTURE_SMILES_Desalt>
CN(C)C(=S)S

> <Substance_modify_yyyymmdd>
20080429

$$$$
