128-09-6
ChemmineR-0915142007XD

  8  8  0  0  0  0  0  0  0  0  1 V2000
    2.3493   -1.3250    0.0000 N    0  0  0  0  0  0  0  0  0  0  0  0
    1.2780   -2.0909    0.0000 C    0  0  0  0  0  0  0  0  0  0  0  0
    3.4205   -2.0909    0.0000 C    0  0  0  0  0  0  0  0  0  0  0  0
    1.6774   -3.3548    0.0000 C    0  0  0  0  0  0  0  0  0  0  0  0
    3.0212   -3.3548    0.0000 C    0  0  0  0  0  0  0  0  0  0  0  0
    0.0000   -1.6774    0.0000 O    0  0  0  0  0  0  0  0  0  0  0  0
    4.6986   -1.6774    0.0000 O    0  0  0  0  0  0  0  0  0  0  0  0
    2.3493    0.0000    0.0000 Cl   0  0  0  0  0  0  0  0  0  0  0  0
  1  2  1  0  0  0  0
  1  3  1  0  0  0  0
  1  8  1  0  0  0  0
  2  4  1  0  0  0  0
  2  6  2  0  0  0  0
  3  5  1  0  0  0  0
  3  7  2  0  0  0  0
  4  5  1  0  0  0  0
M  END
> <ID>
9129

> <Formula>
C4H4ClNO2

> <FW>
133.5331

> <DSSTox_CID>
22199

> <DSSTox_RID>
79955

> <DSSTox_GSID>
42199

> <DSSTox_FileID_Sort>
4637

> <TS_ChemName>
N-Chlorosuccinimide

> <TS_ChemName_Synonyms>


> <TS_CASRN>
128-09-6

> <CASRN_ChemName_Relationship>
primary

> <TS_Description>
single chemical compound

> <ChemNote>


> <STRUCTURE_Shown>
tested chemical

> <STRUCTURE_Formula>
C4H4ClNO2

> <STRUCTURE_MW>
133.5331

> <STRUCTURE_ChemType>
defined organic

> <STRUCTURE_DefinedOrganicForm>
parent

> <STRUCTURE_IUPAC>
1-chloropyrrolidine-2,5-dione

> <STRUCTURE_SMILES>
O=C1CCC(=O)N1Cl

> <STRUCTURE_SMILES_Desalt>
O=C1CCC(=O)N1Cl

> <Substance_modify_yyyymmdd>
20080825

$$$$
