128-20-1
ChemmineR-0915142007XD

 27 30  0  0  1  0  0  0  0  0  1 V2000
    6.9264   -2.6518    0.0000 C   0  0  0  0  0  0  0  0  0  0  0  0
    6.9264   -3.9777    0.0000 C   0  0  0  0  0  0  0  0  0  0  0  0
    4.6308   -3.9777    0.0000 C   0  0  0  0  0  0  0  0  0  0  0  0
    5.7885   -4.6308    0.0000 C   0  0  0  0  0  0  0  0  0  0  0  0
    3.5226   -4.6308    0.0000 C   0  0  0  0  0  0  0  0  0  0  0  0
    5.7885   -1.9988    0.0000 C   0  0  0  0  0  0  0  0  0  0  0  0
    4.6308   -2.6518    0.0000 C   0  0  0  0  0  0  0  0  0  0  0  0
    5.7885   -5.9567    0.0000 C   0  0  0  0  0  0  0  0  0  0  0  0
    3.5226   -5.9567    0.0000 C   0  0  0  0  0  0  0  0  0  0  0  0
    4.6308   -6.6295    0.0000 C   0  0  0  0  0  0  0  0  0  0  0  0
    6.8967   -1.3457    0.0000 C   0  0  0  0  0  0  0  0  0  0  0  0
    3.5226   -3.3049    0.0000 C   0  0  0  0  0  0  0  0  0  0  0  0
    2.3451   -3.9777    0.0000 C   0  0  0  0  0  0  0  0  0  0  0  0
    2.3451   -6.6295    0.0000 C   0  0  0  0  0  0  0  0  0  0  0  0
    1.1676   -4.6308    0.0000 C   0  0  0  0  0  0  0  0  0  0  0  0
    1.1676   -5.9567    0.0000 C   0  0  0  0  0  0  0  0  0  0  0  0
    5.7489   -3.2752    0.0000 H   0  0  0  0  0  0  0  0  0  0  0  0
    6.9264   -5.3333    0.0000 H   0  0  0  0  0  0  0  0  0  0  0  0
    4.6308   -5.3333    0.0000 H   0  0  0  0  0  0  0  0  0  0  0  0
    0.0000   -6.6295    0.0000 O   0  0  0  0  0  0  0  0  0  0  0  0
    3.5226   -7.3123    0.0000 H   0  0  0  0  0  0  0  0  0  0  0  0
    8.1830   -2.2362    0.0000 C   0  0  0  0  0  0  0  0  0  0  0  0
    8.9647   -3.3049    0.0000 C   0  0  0  0  0  0  0  0  0  0  0  0
    8.1830   -4.3735    0.0000 C   0  0  0  0  0  0  0  0  0  0  0  0
    8.5986   -0.9796    0.0000 C   0  0  0  0  0  0  0  0  0  0  0  0
    7.7081    0.0000    0.0000 O   0  0  0  0  0  0  0  0  0  0  0  0
    9.8948   -0.7223    0.0000 C   0  0  0  0  0  0  0  0  0  0  0  0
  1  6  1  0  0  0  0
  1 11  1  1  0  0  0
  1 22  1  0  0  0  0
  1  2  1  0  0  0  0
  2  4  1  0  0  0  0
  2 18  1  6  0  0  0
  2 24  1  0  0  0  0
  3  5  1  0  0  0  0
  3  4  1  0  0  0  0
  3  7  1  0  0  0  0
  3 19  1  6  0  0  0
  4  8  1  0  0  0  0
  4 17  1  1  0  0  0
  5  9  1  0  0  0  0
  5 12  1  1  0  0  0
  5 13  1  0  0  0  0
  6  7  1  0  0  0  0
  8 10  1  0  0  0  0
  9 14  1  0  0  0  0
  9 10  1  0  0  0  0
  9 21  1  6  0  0  0
 13 15  1  0  0  0  0
 14 16  1  0  0  0  0
 15 16  1  0  0  0  0
 16 20  1  6  0  0  0
 22 23  1  0  0  0  0
 22 25  1  1  0  0  0
 23 24  1  0  0  0  0
 25 26  2  0  0  0  0
 25 27  1  0  0  0  0
M  END
> <ID>
11613

> <Formula>
C21H34O2

> <FW>
318.4935

> <DSSTox_CID>
26342

> <DSSTox_RID>
81546

> <DSSTox_GSID>
46342

> <DSSTox_FileID_Sort>
6227

> <TS_ChemName>
Eltanolone

> <TS_ChemName_Synonyms>


> <TS_CASRN>
128-20-1

> <CASRN_ChemName_Relationship>
primary

> <TS_Description>
single chemical compound

> <ChemNote>
stereochem

> <STRUCTURE_Shown>
tested chemical

> <STRUCTURE_Formula>
C21H34O2

> <STRUCTURE_MW>
318.4935

> <STRUCTURE_ChemType>
defined organic

> <STRUCTURE_DefinedOrganicForm>
parent

> <STRUCTURE_IUPAC>
(3alpha,5alpha)-3-hydroxypregnan-20-one

> <STRUCTURE_SMILES>
CC(=O)[C@H]4CC[C@@H]3[C@]4(C)CC[C@H]1[C@H]3CC[C@H]2C[C@H](O)CC[C@]12C

> <STRUCTURE_SMILES_Desalt>
CC(=O)[C@H]4CC[C@@H]3[C@]4(C)CC[C@H]1[C@H]3CC[C@H]2C[C@H](O)CC[C@]12C

> <Substance_modify_yyyymmdd>
20110814

$$$$
