128-37-0
ChemmineR-0915142007XD

 16 16  0  0  0  0  0  0  0  0  1 V2000
    3.8114   -1.1518    0.0000 O   0  0  0  0  0  0  0  0  0  0  0  0
    3.1449   -2.3037    0.0000 C   0  0  0  0  0  0  0  0  0  0  0  0
    3.8114   -3.4555    0.0000 C   0  0  0  0  0  0  0  0  0  0  0  0
    3.1449   -4.6073    0.0000 C   0  0  0  0  0  0  0  0  0  0  0  0
    1.8183   -4.6073    0.0000 C   0  0  0  0  0  0  0  0  0  0  0  0
    1.1518   -3.4555    0.0000 C   0  0  0  0  0  0  0  0  0  0  0  0
    1.8183   -2.3037    0.0000 C   0  0  0  0  0  0  0  0  0  0  0  0
    1.1518   -1.1518    0.0000 C   0  0  0  0  0  0  0  0  0  0  0  0
    0.4853    0.0000    0.0000 C   0  0  0  0  0  0  0  0  0  0  0  0
    2.3037   -0.4853    0.0000 C   0  0  0  0  0  0  0  0  0  0  0  0
    0.0000   -1.8183    0.0000 C   0  0  0  0  0  0  0  0  0  0  0  0
    1.1518   -5.7592    0.0000 C   0  0  0  0  0  0  0  0  0  0  0  0
    5.1380   -3.4555    0.0000 C   0  0  0  0  0  0  0  0  0  0  0  0
    5.1380   -2.1290    0.0000 C   0  0  0  0  0  0  0  0  0  0  0  0
    6.4710   -3.4555    0.0000 C   0  0  0  0  0  0  0  0  0  0  0  0
    5.1380   -4.7885    0.0000 C   0  0  0  0  0  0  0  0  0  0  0  0
  1  2  1  0  0  0  0
  2  3  2  0  0  0  0
  2  7  1  0  0  0  0
  3  4  1  0  0  0  0
  3 13  1  0  0  0  0
  4  5  2  0  0  0  0
  5  6  1  0  0  0  0
  5 12  1  0  0  0  0
  6  7  2  0  0  0  0
  7  8  1  0  0  0  0
  8  9  1  0  0  0  0
  8 10  1  0  0  0  0
  8 11  1  0  0  0  0
 13 14  1  0  0  0  0
 13 15  1  0  0  0  0
 13 16  1  0  0  0  0
M  END
> <ID>
212

> <Formula>
C15H24O

> <FW>
220.3505

> <DSSTox_CID>
216

> <DSSTox_RID>
75440

> <DSSTox_GSID>
20216

> <DSSTox_FileID_Sort>
124

> <TS_ChemName>
Butylated hydroxytoluene

> <TS_ChemName_Synonyms>
Butylated hydroxytoluene (2,6-Di-tert-butyl-4-methylphenol) (Phenol, 2,6-bis(1,1-dimethylethyl)-4-methyl-) (BHT)

> <TS_CASRN>
128-37-0

> <CASRN_ChemName_Relationship>
primary

> <TS_Description>
single chemical compound

> <ChemNote>


> <STRUCTURE_Shown>
tested chemical

> <STRUCTURE_Formula>
C15H24O

> <STRUCTURE_MW>
220.3505

> <STRUCTURE_ChemType>
defined organic

> <STRUCTURE_DefinedOrganicForm>
parent

> <STRUCTURE_IUPAC>
2,6-di-tert-butyl-4-methylphenol

> <STRUCTURE_SMILES>
CC(C)(C)c1cc(C)cc(c1O)C(C)(C)C

> <STRUCTURE_SMILES_Desalt>
CC(C)(C)c1cc(C)cc(c1O)C(C)(C)C

> <Substance_modify_yyyymmdd>
20080429

$$$$
