128312-51-6
ChemmineR-0915142007XD

 29 31  0  0  0  0  0  0  0  0  1 V2000
    3.9974   -6.4496    0.0000 C   0  0  0  0  0  0  0  0  0  0  0  0
    5.2571   -6.0297    0.0000 S   0  0  0  0  0  0  0  0  0  0  0  0
    5.2571   -4.6860    0.0000 C   0  0  0  0  0  0  0  0  0  0  0  0
    3.9974   -4.2829    0.0000 N   0  0  0  0  0  0  0  0  0  0  0  0
    3.2080   -5.3411    0.0000 C   0  0  0  0  0  0  0  0  0  0  0  0
    0.0000   -5.3411    0.0000 C   0  0  0  0  0  0  0  0  0  0  0  0
    0.9406   -6.2816    0.0000 C   0  0  0  0  0  0  0  0  0  0  0  0
    1.8979   -5.3411    0.0000 C   0  0  0  0  0  0  0  0  0  0  0  0
    0.9406   -4.4341    0.0000 C   0  0  0  0  0  0  0  0  0  0  0  0
    6.4160   -3.9974    0.0000 C   0  0  0  0  0  0  0  0  0  0  0  0
    7.5581   -4.6525    0.0000 C   0  0  0  0  0  0  0  0  0  0  0  0
    8.7170   -3.9974    0.0000 C   0  0  0  0  0  0  0  0  0  0  0  0
    9.8760   -4.6525    0.0000 C   0  0  0  0  0  0  0  0  0  0  0  0
   11.0181   -3.9974    0.0000 C   0  0  0  0  0  0  0  0  0  0  0  0
   11.0181   -2.6705    0.0000 C   0  0  0  0  0  0  0  0  0  0  0  0
    9.8760   -1.9987    0.0000 C   0  0  0  0  0  0  0  0  0  0  0  0
    8.7170   -2.6705    0.0000 C   0  0  0  0  0  0  0  0  0  0  0  0
   12.1770   -4.6525    0.0000 N   0  0  0  0  0  0  0  0  0  0  0  0
   13.3191   -3.9974    0.0000 C   0  0  0  0  0  0  0  0  0  0  0  0
   13.3191   -2.6705    0.0000 C   0  0  0  0  0  0  0  0  0  0  0  0
   14.4948   -4.6525    0.0000 O   0  0  0  0  0  0  0  0  0  0  0  0
   14.4948   -1.9987    0.0000 C   0  0  0  0  0  0  0  0  0  0  0  0
   15.1499   -3.1576    0.0000 C   0  0  0  0  0  0  0  0  0  0  0  0
   16.4767   -3.1576    0.0000 C   0  0  0  0  0  0  0  0  0  0  0  0
   13.8062   -0.8566    0.0000 C   0  0  0  0  0  0  0  0  0  0  0  0
   12.4793   -0.8566    0.0000 C   0  0  0  0  0  0  0  0  0  0  0  0
   15.6201   -1.3437    0.0000 C   0  0  0  0  0  0  0  0  0  0  0  0
   16.7959   -1.9987    0.0000 O   0  0  0  0  0  0  0  0  0  0  0  0
   15.6201    0.0000    0.0000 O   0  0  0  0  0  0  0  0  0  0  0  0
  1  5  2  0  0  0  0
  1  2  1  0  0  0  0
  2  3  1  0  0  0  0
  3  4  2  0  0  0  0
  3 10  1  0  0  0  0
  4  5  1  0  0  0  0
  5  8  1  0  0  0  0
  6  9  1  0  0  0  0
  6  7  1  0  0  0  0
  7  8  1  0  0  0  0
  8  9  1  0  0  0  0
 10 11  2  0  0  0  0
 11 12  1  0  0  0  0
 12 17  1  0  0  0  0
 12 13  2  0  0  0  0
 13 14  1  0  0  0  0
 14 15  2  0  0  0  0
 14 18  1  0  0  0  0
 15 16  1  0  0  0  0
 16 17  2  0  0  0  0
 18 19  1  0  0  0  0
 19 20  1  0  0  0  0
 19 21  2  0  0  0  0
 20 22  1  0  0  0  0
 22 23  1  0  0  0  0
 22 25  1  0  0  0  0
 22 27  1  0  0  0  0
 23 24  1  0  0  0  0
 25 26  1  0  0  0  0
 27 28  2  0  0  0  0
 27 29  1  0  0  0  0
M  END
> <ID>
11155

> <Formula>
C23H28N2O3S

> <FW>
412.545

> <DSSTox_CID>
25742

> <DSSTox_RID>
81087

> <DSSTox_GSID>
45742

> <DSSTox_FileID_Sort>
5768

> <TS_ChemName>
Cinalukast

> <TS_ChemName_Synonyms>


> <TS_CASRN>
128312-51-6

> <CASRN_ChemName_Relationship>
primary

> <TS_Description>
single chemical compound

> <ChemNote>
stereochem

> <STRUCTURE_Shown>
tested chemical

> <STRUCTURE_Formula>
C23H28N2O3S

> <STRUCTURE_MW>
412.545

> <STRUCTURE_ChemType>
defined organic

> <STRUCTURE_DefinedOrganicForm>
parent

> <STRUCTURE_IUPAC>
4-({3-[(E)-2-(4-cyclobutyl-1,3-thiazol-2-yl)ethenyl]phenyl}amino)-2,2-diethyl-4-oxobutanoic acid

> <STRUCTURE_SMILES>
O=C(O)C(CC)(CC)CC(=O)Nc3cc(/C=C/c1nc(cs1)C2CCC2)ccc3

> <STRUCTURE_SMILES_Desalt>
O=C(O)C(CC)(CC)CC(=O)Nc3cc(/C=C/c1nc(cs1)C2CCC2)ccc3

> <Substance_modify_yyyymmdd>
20110826

$$$$
