128420-61-1
ChemmineR-0915142007XD

 60 61  0  0  1  0  0  0  0  0  2 V2000
   25.9361  -14.9392    0.0000 C    0  0  0  0  0  0  0  0  0  0  0  0
   26.5931  -16.1149    0.0000 O    0  0  0  0  0  0  0  0  0  0  0  0
   24.6220  -17.2561    0.0000 C    0  0  0  0  0  0  0  0  0  0  0  0
   23.9303  -16.1149    0.0000 O    0  0  0  0  0  0  0  0  0  0  0  0
   22.6162  -16.1149    0.0000 C    0  0  0  0  0  0  0  0  0  0  0  0
   21.9592  -17.2561    0.0000 O    0  0  0  0  0  0  0  0  0  0  0  0
   21.9592  -14.9392    0.0000 N    0  0  0  0  0  0  0  0  0  0  0  0
   20.6105  -14.9392    0.0000 C    0  0  0  0  0  0  0  0  0  0  0  0
   19.9535  -13.7980    0.0000 C    0  0  0  0  0  0  0  0  0  0  0  0
   20.6105  -12.6568    0.0000 C    0  0  0  0  0  0  0  0  0  0  0  0
   21.9592  -12.6568    0.0000 C    0  0  0  0  0  0  0  0  0  0  0  0
   22.6162  -13.7980    0.0000 C    0  0  0  0  0  0  0  0  0  0  0  0
   19.9535  -11.5156    0.0000 O    0  0  0  0  0  0  0  0  0  0  0  0
   18.6048  -11.5156    0.0000 C    0  0  0  0  0  0  0  0  0  0  0  0
   17.9478  -12.6568    0.0000 O    0  0  0  0  0  0  0  0  0  0  0  0
   17.9478  -10.3744    0.0000 N    0  0  0  0  0  0  0  0  0  0  0  0
   16.6337  -10.3744    0.0000 C    0  0  0  0  0  0  0  0  0  0  0  0
   15.9766   -9.1987    0.0000 C    0  0  0  0  0  0  0  0  0  0  0  0
   14.6279   -9.1987    0.0000 C    0  0  0  0  0  0  0  0  0  0  0  0
   13.9709   -8.0575    0.0000 C    0  0  0  0  0  0  0  0  0  0  0  0
   12.6222   -8.0575    0.0000 C    0  0  0  0  0  0  0  0  0  0  0  0
   11.9652   -6.9163    0.0000 C    0  0  0  0  0  0  0  0  0  0  0  0
   10.6511   -6.9163    0.0000 C    0  0  0  0  0  0  0  0  0  0  0  0
    9.9594   -5.7405    0.0000 C    0  0  0  0  0  0  0  0  0  0  0  0
    8.6454   -5.7405    0.0000 C    0  0  0  0  0  0  0  0  0  0  0  0
    7.9883   -4.5993    0.0000 C    0  0  0  0  0  0  0  0  0  0  0  0
    6.6396   -4.5993    0.0000 C    0  0  0  0  0  0  0  0  0  0  0  0
    5.9826   -3.4581    0.0000 C    0  0  0  0  0  0  0  0  0  0  0  0
    4.6339   -3.4581    0.0000 C    0  0  0  0  0  0  0  0  0  0  0  0
    3.9769   -2.2824    0.0000 C    0  0  0  0  0  0  0  0  0  0  0  0
    2.6628   -2.2824    0.0000 C    0  0  0  0  0  0  0  0  0  0  0  0
    1.9711   -1.1412    0.0000 C    0  0  0  0  0  0  0  0  0  0  0  0
    0.6570   -1.1412    0.0000 C    0  0  0  0  0  0  0  0  0  0  0  0
    0.0000    0.0000    0.0000 C    0  0  0  0  0  0  0  0  0  0  0  0
   26.5931  -18.4319    0.0000 C    0  0  0  0  0  0  0  0  0  0  0  0
   29.9129  -21.8555    0.0000 C    0  0  0  0  0  0  0  0  0  0  0  0
   28.5988  -21.8555    0.0000 C    0  0  0  0  0  0  0  0  0  0  0  0
   27.9418  -23.0312    0.0000 C    0  0  0  0  0  0  0  0  0  0  0  0
   28.5988  -24.1724    0.0000 C    0  0  0  0  0  0  0  0  0  0  0  0
   29.9129  -24.1724    0.0000 C    0  0  0  0  0  0  0  0  0  0  0  0
   30.6045  -23.0312    0.0000 N    0  3  0  0  0  0  0  0  0  0  0  0
   31.9186  -23.0312    0.0000 C    0  0  0  0  0  0  0  0  0  0  0  0
   32.5757  -24.1724    0.0000 C    0  0  0  0  0  0  0  0  0  0  0  0
   30.6045  -20.7143    0.0000 C    0  0  0  0  0  0  0  0  0  0  0  0
   29.9129  -19.5731    0.0000 N    0  0  0  0  0  0  0  0  0  0  0  0
   28.5988  -19.5731    0.0000 C    0  0  0  0  0  0  0  0  0  0  0  0
   27.9418  -20.7143    0.0000 O    0  0  0  0  0  0  0  0  0  0  0  0
   27.9418  -18.4319    0.0000 O    0  0  0  0  0  0  0  0  0  0  0  0
   30.6045  -18.4319    0.0000 C    0  0  0  0  0  0  0  0  0  0  0  0
   31.9186  -18.4319    0.0000 C    0  0  0  0  0  0  0  0  0  0  0  0
   32.5757  -17.2561    0.0000 C    0  0  0  0  0  0  0  0  0  0  0  0
   33.9244  -17.2561    0.0000 C    0  0  0  0  0  0  0  0  0  0  0  0
   34.5814  -18.4319    0.0000 C    0  0  0  0  0  0  0  0  0  0  0  0
   33.9244  -19.5731    0.0000 C    0  0  0  0  0  0  0  0  0  0  0  0
   32.5757  -19.5731    0.0000 C    0  0  0  0  0  0  0  0  0  0  0  0
   31.9186  -16.1149    0.0000 O    0  0  0  0  0  0  0  0  0  0  0  0
   32.5757  -14.9392    0.0000 C    0  0  0  0  0  0  0  0  0  0  0  0
   29.9129  -17.2561    0.0000 O    0  0  0  0  0  0  0  0  0  0  0  0
   25.9361  -17.2561    0.0000 C    0  0  0  0  0  0  0  0  0  0  0  0
   29.7054  -25.0369    0.0000 Cl   0  5  0  0  0  0  0  0  0  0  0  0
  1  2  1  0  0  0  0
 59  2  1  1  0  0  0
  3  4  1  0  0  0  0
  3 59  1  0  0  0  0
  4  5  1  0  0  0  0
  5  6  2  0  0  0  0
  5  7  1  0  0  0  0
  7  8  1  0  0  0  0
  7 12  1  0  0  0  0
  8  9  1  0  0  0  0
  9 10  1  0  0  0  0
 10 11  1  0  0  0  0
 10 13  1  0  0  0  0
 11 12  1  0  0  0  0
 13 14  1  0  0  0  0
 14 15  2  0  0  0  0
 14 16  1  0  0  0  0
 16 17  1  0  0  0  0
 17 18  1  0  0  0  0
 18 19  1  0  0  0  0
 19 20  1  0  0  0  0
 20 21  1  0  0  0  0
 21 22  1  0  0  0  0
 22 23  1  0  0  0  0
 23 24  1  0  0  0  0
 24 25  1  0  0  0  0
 25 26  1  0  0  0  0
 26 27  1  0  0  0  0
 27 28  1  0  0  0  0
 28 29  1  0  0  0  0
 29 30  1  0  0  0  0
 30 31  1  0  0  0  0
 31 32  1  0  0  0  0
 32 33  1  0  0  0  0
 33 34  1  0  0  0  0
 35 48  1  0  0  0  0
 35 59  1  0  0  0  0
 36 37  1  0  0  0  0
 36 41  2  0  0  0  0
 36 44  1  0  0  0  0
 37 38  2  0  0  0  0
 38 39  1  0  0  0  0
 39 40  2  0  0  0  0
 40 41  1  0  0  0  0
 41 42  1  0  0  0  0
 42 43  1  0  0  0  0
 44 45  1  0  0  0  0
 45 46  1  0  0  0  0
 45 49  1  0  0  0  0
 46 47  2  0  0  0  0
 46 48  1  0  0  0  0
 49 50  1  0  0  0  0
 49 58  2  0  0  0  0
 50 51  1  0  0  0  0
 50 55  2  0  0  0  0
 51 52  2  0  0  0  0
 51 56  1  0  0  0  0
 52 53  1  0  0  0  0
 53 54  2  0  0  0  0
 54 55  1  0  0  0  0
 56 57  1  0  0  0  0
M  END
> <ID>
13787

> <Formula>
C46H73ClN4O9

> <FW>
861.5462 (826.0927+35.4535)

> <DSSTox_CID>
28724

> <DSSTox_RID>
82993

> <DSSTox_GSID>
48798

> <DSSTox_FileID_Sort>
7670

> <TS_ChemName>
Minopafant

> <TS_ChemName_Synonyms>


> <TS_CASRN>
128420-61-1

> <CASRN_ChemName_Relationship>
primary

> <TS_Description>
single chemical compound

> <ChemNote>


> <STRUCTURE_Shown>
tested chemical

> <STRUCTURE_Formula>
C46H73ClN4O9

> <STRUCTURE_MW>
861.5462

> <STRUCTURE_ChemType>
defined organic

> <STRUCTURE_DefinedOrganicForm>
salt

> <STRUCTURE_IUPAC>
1-ethyl-2-{[(2-methoxybenzoyl)({(2R)-2-methoxy-3-[({4-[(octadecylcarbamoyl)oxy]piperidin-1-yl}carbonyl)oxy]propoxy}carbonyl)amino]methyl}pyridinium chloride

> <STRUCTURE_SMILES>
[Cl-].COc1ccccc1C(=O)N(Cc2cccc[n+]2CC)C(=O)OC[C@@H](COC(=O)N3CCC(CC3)OC(=O)NCCCCCCCCCCCCCCCCCC)OC

> <STRUCTURE_SMILES_Desalt>
COc1ccccc1C(=O)N(Cc2cccc[n+]2CC)C(=O)OC[C@@H](COC(=O)N3CCC(CC3)OC(=O)NCCCCCCCCCCCCCCCCCC)OC

> <Substance_modify_yyyymmdd>
20111204

$$$$
