128517-07-7
ChemmineR-0915142007XD

 40 41  0  0  1  0  0  0  0  0  1 V2000
    3.6379   -2.2480    0.0000 C   0  0  0  0  0  0  0  0  0  0  0  0
    3.6379   -3.3021    0.0000 C   0  0  0  0  0  0  0  0  0  0  0  0
    2.7331   -1.7070    0.0000 C   0  0  0  0  0  0  0  0  0  0  0  0
    2.7331   -3.8151    0.0000 O   0  0  0  0  0  0  0  0  0  0  0  0
    1.8189   -2.2480    0.0000 C   0  0  0  0  0  0  0  0  0  0  0  0
    1.8189   -3.3021    0.0000 C   0  0  0  0  0  0  0  0  0  0  0  0
    0.9888   -3.3114    0.0000 C   0  0  0  0  0  0  0  0  0  0  0  0
    2.7331   -4.8692    0.0000 O   0  0  0  0  0  0  0  0  0  0  0  0
    1.8189   -5.3915    0.0000 S   0  0  0  0  0  0  0  0  0  0  0  0
    0.8115   -5.2982    0.0000 S   0  0  0  0  0  0  0  0  0  0  0  0
    3.6379   -5.3915    0.0000 C   0  0  0  0  0  0  0  0  0  0  0  0
    3.6379   -6.4456    0.0000 N   0  0  0  0  0  0  0  0  0  0  0  0
    1.8189   -6.4456    0.0000 C   0  0  0  0  0  0  0  0  0  0  0  0
    2.7331   -6.9773    0.0000 C   0  0  0  0  0  0  0  0  0  0  0  0
    0.0000   -4.1509    0.0000 C   0  0  0  0  0  0  0  0  0  0  0  0
    4.9718   -3.3207    0.0000 N   0  0  0  0  0  0  0  0  0  0  0  0
    4.9718   -5.3915    0.0000 C   0  0  0  0  0  0  0  0  0  0  0  0
    2.7331   -0.6623    0.0000 O   0  0  0  0  0  0  0  0  0  0  0  0
    7.4157   -0.6623    0.0000 C   0  0  0  0  0  0  0  0  0  0  0  0
    7.4157   -2.0148    0.0000 C   0  0  0  0  0  0  0  0  0  0  0  0
    4.9531   -6.2124    0.0000 H   0  0  0  0  0  0  0  0  0  0  0  0
    5.9885   -5.2143    0.0000 C   0  0  0  0  0  0  0  0  0  0  0  0
    6.5388   -5.7087    0.0000 C   0  0  0  0  0  0  0  0  0  0  0  0
    5.9885   -4.3748    0.0000 C   0  0  0  0  0  0  0  0  0  0  0  0
    1.4551   -1.2966    0.0000 H   0  0  0  0  0  0  0  0  0  0  0  0
    2.7331   -7.9567    0.0000 C   0  0  0  0  0  0  0  0  0  0  0  0
    1.8189   -8.4884    0.0000 O   0  0  0  0  0  0  0  0  0  0  0  0
    6.0631   -7.9567    0.0000 N   0  0  0  0  0  0  0  0  0  0  0  0
    1.5111   -7.3970    0.0000 H   0  0  0  0  0  0  0  0  0  0  0  0
    8.1619    0.0000    0.0000 O   0  0  0  0  0  0  0  0  0  0  0  0
    6.0631   -6.8000    0.0000 C   0  0  0  0  0  0  0  0  0  0  0  0
    7.5089   -7.2291    0.0000 C   0  0  0  0  0  0  0  0  0  0  0  0
    7.5089   -8.0220    0.0000 C   0  0  0  0  0  0  0  0  0  0  0  0
    8.3671   -5.5781    0.0000 C   0  0  0  0  0  0  0  0  0  0  0  0
    9.3279   -6.2124    0.0000 O   0  0  0  0  0  0  0  0  0  0  0  0
    8.3485   -2.5279    0.0000 N   0  0  0  0  0  0  0  0  0  0  0  0
    6.5575   -2.3320    0.0000 C   0  0  0  0  0  0  0  0  0  0  0  0
    5.6620   -1.7910    0.0000 C   0  0  0  0  0  0  0  0  0  0  0  0
    6.5482   -3.3860    0.0000 C   0  0  0  0  0  0  0  0  0  0  0  0
    8.1432   -1.5484    0.0000 H   0  0  0  0  0  0  0  0  0  0  0  0
  1  2  1  0  0  0  0
  1  3  1  0  0  0  0
  2  4  2  0  0  0  0
  2 16  1  0  0  0  0
  3  5  1  0  0  0  0
  3 18  1  1  0  0  0
  3 25  1  6  0  0  0
  5  6  2  0  0  0  0
  6  7  1  0  0  0  0
  7 15  1  0  0  0  0
  8 11  2  0  0  0  0
  9 10  1  0  0  0  0
  9 13  1  0  0  0  0
 10 15  1  0  0  0  0
 11 12  1  0  0  0  0
 11 17  1  0  0  0  0
 12 14  1  0  0  0  0
 13 14  1  0  0  0  0
 14 26  1  1  0  0  0
 14 29  1  6  0  0  0
 16 17  1  0  0  0  0
 17 21  1  1  0  0  0
 17 22  1  6  0  0  0
 18 19  1  0  0  0  0
 19 20  1  0  0  0  0
 19 30  2  0  0  0  0
 20 36  1  0  0  0  0
 20 37  1  1  0  0  0
 20 40  1  6  0  0  0
 22 23  1  0  0  0  0
 22 24  1  0  0  0  0
 26 27  2  0  0  0  0
 26 28  1  0  0  0  0
 28 31  1  0  0  0  0
 31 32  2  0  0  0  0
 31 34  1  0  0  0  0
 32 33  1  0  0  0  0
 34 35  2  0  0  0  0
 34 36  1  0  0  0  0
 37 38  1  0  0  0  0
 37 39  1  0  0  0  0
M  END
> <ID>
13578

> <Formula>
C24H36N4O6S2

> <FW>
540.6958

> <DSSTox_CID>
28505

> <DSSTox_RID>
82777

> <DSSTox_GSID>
48579

> <DSSTox_FileID_Sort>
7454

> <TS_ChemName>
Romidepsin

> <TS_ChemName_Synonyms>


> <TS_CASRN>
128517-07-7

> <CASRN_ChemName_Relationship>
primary

> <TS_Description>
single chemical compound

> <ChemNote>
stereochem; tautomers

> <STRUCTURE_Shown>
tested chemical

> <STRUCTURE_Formula>
C24H36N4O6S2

> <STRUCTURE_MW>
540.6958

> <STRUCTURE_ChemType>
defined organic

> <STRUCTURE_DefinedOrganicForm>
parent

> <STRUCTURE_IUPAC>
(1S,10S,16E,21R)-7-ethylidene-4,21-di(propan-2-yl)-2-oxa-12,13-dithia-5,8,20,23-tetraazabicyclo[8.7.6]tricos-16-ene-3,6,9,19,22-pentone

> <STRUCTURE_SMILES>
CC(C)[C@H]2NC(=O)C[C@@H]1OC(=O)[C@@H](NC(=O)C(=C\C)\NC(=O)[C@@H](CSSCCC=C1)NC2=O)C(C)C

> <STRUCTURE_SMILES_Desalt>
CC(C)[C@H]2NC(=O)C[C@@H]1OC(=O)[C@@H](NC(=O)C(=C\C)\NC(=O)[C@@H](CSSCCC=C1)NC2=O)C(C)C

> <Substance_modify_yyyymmdd>
20111014

$$$$
