128639-02-1
ChemmineR-0915142007XD

 26 27  0  0  0  0  0  0  0  0  1 V2000
    4.0271   -2.6608    0.0000 N    0  0  0  0  0  0  0  0  0  0  0  0
    5.1777   -1.9704    0.0000 C    0  0  0  0  0  0  0  0  0  0  0  0
    2.7615   -2.2293    0.0000 C    0  0  0  0  0  0  0  0  0  0  0  0
    4.0271   -3.9840    0.0000 N    0  0  0  0  0  0  0  0  0  0  0  0
    6.3283   -2.6608    0.0000 C    0  0  0  0  0  0  0  0  0  0  0  0
    5.1777   -0.6472    0.0000 C    0  0  0  0  0  0  0  0  0  0  0  0
    1.9704   -3.2936    0.0000 N    0  0  0  0  0  0  0  0  0  0  0  0
    2.3587   -0.9636    0.0000 O    0  0  0  0  0  0  0  0  0  0  0  0
    2.7615   -4.4011    0.0000 C    0  0  0  0  0  0  0  0  0  0  0  0
    7.4789   -1.9704    0.0000 C    0  0  0  0  0  0  0  0  0  0  0  0
    6.3283    0.0000    0.0000 C    0  0  0  0  0  0  0  0  0  0  0  0
    4.0271    0.0000    0.0000 F    0  0  0  0  0  0  0  0  0  0  0  0
    0.6472   -3.2936    0.0000 C    0  0  0  0  0  0  0  0  0  0  0  0
    2.3587   -5.6380    0.0000 C    0  0  0  0  0  0  0  0  0  0  0  0
    7.4789   -0.6472    0.0000 C    0  0  0  0  0  0  0  0  0  0  0  0
    8.6152   -2.6608    0.0000 C    0  0  0  0  0  0  0  0  0  0  0  0
    0.0000   -2.1574    0.0000 F    0  0  0  0  0  0  0  0  0  0  0  0
    0.0000   -4.4586    0.0000 F    0  0  0  0  0  0  0  0  0  0  0  0
    8.6152    0.0000    0.0000 Cl   0  0  0  0  0  0  0  0  0  0  0  0
    9.7802   -1.9704    0.0000 C    0  0  0  0  0  0  0  0  0  0  0  0
   10.9164   -2.6608    0.0000 C    0  0  0  0  0  0  0  0  0  0  0  0
    9.7802   -0.6472    0.0000 Cl   0  0  0  0  0  0  0  0  0  0  0  0
   12.0814   -1.9704    0.0000 O    0  0  0  0  0  0  0  0  0  0  0  0
   10.9164   -3.9840    0.0000 O    0  0  0  0  0  0  0  0  0  0  0  0
   13.2176   -2.6608    0.0000 C    0  0  0  0  0  0  0  0  0  0  0  0
   14.3826   -1.9704    0.0000 C    0  0  0  0  0  0  0  0  0  0  0  0
  1  2  1  0  0  0  0
  1  3  1  0  0  0  0
  1  4  1  0  0  0  0
  2  5  2  0  0  0  0
  2  6  1  0  0  0  0
  3  7  1  0  0  0  0
  3  8  2  0  0  0  0
  4  9  2  0  0  0  0
  5 10  1  0  0  0  0
  6 11  2  0  0  0  0
  6 12  1  0  0  0  0
  7 13  1  0  0  0  0
  7  9  1  0  0  0  0
  9 14  1  0  0  0  0
 10 15  2  0  0  0  0
 10 16  1  0  0  0  0
 11 15  1  0  0  0  0
 13 17  1  0  0  0  0
 13 18  1  0  0  0  0
 15 19  1  0  0  0  0
 16 20  1  0  0  0  0
 20 21  1  0  0  0  0
 20 22  1  0  0  0  0
 21 23  1  0  0  0  0
 21 24  2  0  0  0  0
 23 25  1  0  0  0  0
 25 26  1  0  0  0  0
M  END
> <ID>
6499

> <Formula>
C15H14Cl2F3N3O3

> <FW>
412.1912

> <DSSTox_CID>
12532

> <DSSTox_RID>
78970

> <DSSTox_GSID>
32532

> <DSSTox_FileID_Sort>
3652

> <TS_ChemName>
Carfentrazone-ethyl

> <TS_ChemName_Synonyms>
Carfentrazone-ethyl (F8246) (Benzenepropanoic acid, .alpha.-2-dichloro-5-{4-(difluoromethyl)-4,5-dihydro-3-methyl-5-oxo-1H-1,2,4- triazol-1-yl}-4-fluoro-, ethyl ester)

> <TS_CASRN>
128639-02-1

> <CASRN_ChemName_Relationship>
primary

> <TS_Description>
single chemical compound

> <ChemNote>


> <STRUCTURE_Shown>
tested chemical

> <STRUCTURE_Formula>
C15H14Cl2F3N3O3

> <STRUCTURE_MW>
412.1912

> <STRUCTURE_ChemType>
defined organic

> <STRUCTURE_DefinedOrganicForm>
parent

> <STRUCTURE_IUPAC>
ethyl 2-chloro-3-{2-chloro-5-[4-(difluoromethyl)-3-methyl-5-oxo-4,5-dihydro-1H-1,2,4-triazol-1-yl]-4-fluorophenyl}propanoate

> <STRUCTURE_SMILES>
O=C(OCC)C(Cl)Cc1cc(c(F)cc1Cl)N2N=C(C)N(C2=O)C(F)F

> <STRUCTURE_SMILES_Desalt>
O=C(OCC)C(Cl)Cc1cc(c(F)cc1Cl)N2N=C(C)N(C2=O)C(F)F

> <Substance_modify_yyyymmdd>
20080429

$$$$
