129-15-7
ChemmineR-0915142007XD

 20 22  0  0  0  0  0  0  0  0  2 V2000
    4.6527   -4.6048    0.0000 O   0  0  0  0  0  0  0  0  0  0  0  0
    3.9903   -3.4556    0.0000 C   0  0  0  0  0  0  0  0  0  0  0  0
    4.6527   -2.2984    0.0000 C   0  0  0  0  0  0  0  0  0  0  0  0
    5.9855   -2.2984    0.0000 C   0  0  0  0  0  0  0  0  0  0  0  0
    6.6479   -1.1492    0.0000 C   0  0  0  0  0  0  0  0  0  0  0  0
    5.9855    0.0000    0.0000 C   0  0  0  0  0  0  0  0  0  0  0  0
    4.6527    0.0000    0.0000 C   0  0  0  0  0  0  0  0  0  0  0  0
    3.9903   -1.1492    0.0000 C   0  0  0  0  0  0  0  0  0  0  0  0
    2.6576   -1.1492    0.0000 C   0  0  0  0  0  0  0  0  0  0  0  0
    1.9952    0.0000    0.0000 O   0  0  0  0  0  0  0  0  0  0  0  0
    1.9952   -2.2984    0.0000 C   0  0  0  0  0  0  0  0  0  0  0  0
    2.6576   -3.4556    0.0000 C   0  0  0  0  0  0  0  0  0  0  0  0
    1.9952   -4.6048    0.0000 C   0  0  0  0  0  0  0  0  0  0  0  0
    0.6624   -4.6048    0.0000 C   0  0  0  0  0  0  0  0  0  0  0  0
    0.0000   -3.4556    0.0000 C   0  0  0  0  0  0  0  0  0  0  0  0
    0.6624   -2.2984    0.0000 C   0  0  0  0  0  0  0  0  0  0  0  0
    7.9806   -1.1492    0.0000 C   0  0  0  0  0  0  0  0  0  0  0  0
    6.6479   -3.4556    0.0000 N   0  3  0  0  0  0  0  0  0  0  0  0
    7.9806   -3.4556    0.0000 O   0  0  0  0  0  0  0  0  0  0  0  0
    5.9855   -4.6048    0.0000 O   0  5  0  0  0  0  0  0  0  0  0  0
  1  2  2  0  0  0  0
  2  3  1  0  0  0  0
  2 12  1  0  0  0  0
  3  4  2  0  0  0  0
  3  8  1  0  0  0  0
  4  5  1  0  0  0  0
  4 18  1  0  0  0  0
  5  6  2  0  0  0  0
  5 17  1  0  0  0  0
  6  7  1  0  0  0  0
  7  8  2  0  0  0  0
  8  9  1  0  0  0  0
  9 10  2  0  0  0  0
  9 11  1  0  0  0  0
 11 12  2  0  0  0  0
 11 16  1  0  0  0  0
 12 13  1  0  0  0  0
 13 14  2  0  0  0  0
 14 15  1  0  0  0  0
 15 16  2  0  0  0  0
 18 19  2  0  0  0  0
 18 20  1  0  0  0  0
M  END
> <ID>
813

> <Formula>
C15H9NO4

> <FW>
267.2363

> <DSSTox_CID>
847

> <DSSTox_RID>
75826

> <DSSTox_GSID>
20847

> <DSSTox_FileID_Sort>
510

> <TS_ChemName>
2-Methyl-1-nitroanthraquinone

> <TS_ChemName_Synonyms>


> <TS_CASRN>
129-15-7

> <CASRN_ChemName_Relationship>
primary

> <TS_Description>
single chemical compound

> <ChemNote>


> <STRUCTURE_Shown>
tested chemical

> <STRUCTURE_Formula>
C15H9NO4

> <STRUCTURE_MW>
267.2363

> <STRUCTURE_ChemType>
defined organic

> <STRUCTURE_DefinedOrganicForm>
parent

> <STRUCTURE_IUPAC>
2-methyl-1-nitroanthracene-9,10-dione

> <STRUCTURE_SMILES>
[O-][N+](=O)c3c(C)ccc2C(=O)c1ccccc1C(=O)c23

> <STRUCTURE_SMILES_Desalt>
[O-][N+](=O)c3c(C)ccc2C(=O)c1ccccc1C(=O)c23

> <Substance_modify_yyyymmdd>
20080429

$$$$
