129-81-7
ChemmineR-0915142007XD

 15 16  0  0  0  0  0  0  0  0  1 V2000
    1.2697   -2.1210    0.0000 C   0  0  0  0  0  0  0  0  0  0  0  0
    2.3374   -1.3346    0.0000 N   0  0  0  0  0  0  0  0  0  0  0  0
    1.6665   -3.3834    0.0000 C   0  0  0  0  0  0  0  0  0  0  0  0
    3.4123   -2.1210    0.0000 N   0  0  0  0  0  0  0  0  0  0  0  0
    3.0011   -3.3834    0.0000 C   0  0  0  0  0  0  0  0  0  0  0  0
    4.6820   -1.7025    0.0000 C   0  0  0  0  0  0  0  0  0  0  0  0
    4.9561   -0.4040    0.0000 C   0  0  0  0  0  0  0  0  0  0  0  0
    5.6775   -2.5971    0.0000 C   0  0  0  0  0  0  0  0  0  0  0  0
    6.2186    0.0000    0.0000 C   0  0  0  0  0  0  0  0  0  0  0  0
    6.9400   -2.1787    0.0000 C   0  0  0  0  0  0  0  0  0  0  0  0
    7.2142   -0.8801    0.0000 C   0  0  0  0  0  0  0  0  0  0  0  0
    2.3374    0.0000    0.0000 C   0  0  0  0  0  0  0  0  0  0  0  0
    0.0000   -1.7025    0.0000 C   0  0  0  0  0  0  0  0  0  0  0  0
    0.8946   -4.4584    0.0000 I   0  0  0  0  0  0  0  0  0  0  0  0
    3.7802   -4.4584    0.0000 O   0  0  0  0  0  0  0  0  0  0  0  0
  1  2  1  0  0  0  0
  1  3  2  0  0  0  0
  1 13  1  0  0  0  0
  2  4  1  0  0  0  0
  2 12  1  0  0  0  0
  3  5  1  0  0  0  0
  3 14  1  0  0  0  0
  4  5  1  0  0  0  0
  4  6  1  0  0  0  0
  5 15  2  0  0  0  0
  6  7  1  0  0  0  0
  6  8  2  0  0  0  0
  7  9  2  0  0  0  0
  8 10  1  0  0  0  0
  9 11  1  0  0  0  0
 10 11  2  0  0  0  0
M  END
> <ID>
11374

> <Formula>
C11H11IN2O

> <FW>
314.1223

> <DSSTox_CID>
26047

> <DSSTox_RID>
81306

> <DSSTox_GSID>
46047

> <DSSTox_FileID_Sort>
5987

> <TS_ChemName>
Iodoantipyrine

> <TS_ChemName_Synonyms>


> <TS_CASRN>
129-81-7

> <CASRN_ChemName_Relationship>
primary

> <TS_Description>
single chemical compound

> <ChemNote>


> <STRUCTURE_Shown>
tested chemical

> <STRUCTURE_Formula>
C11H11IN2O

> <STRUCTURE_MW>
314.1223

> <STRUCTURE_ChemType>
defined organic

> <STRUCTURE_DefinedOrganicForm>
parent

> <STRUCTURE_IUPAC>
4-iodo-1,5-dimethyl-2-phenyl-1,2-dihydro-3H-pyrazol-3-one

> <STRUCTURE_SMILES>
O=C2C(I)=C(C)N(C)N2c1ccccc1

> <STRUCTURE_SMILES_Desalt>
O=C2C(I)=C(C)N(C)N2c1ccccc1

> <Substance_modify_yyyymmdd>
20100107

$$$$
