129-73-7
ChemmineR-0915142007XD

 25 27  0  0  0  0  0  0  0  0  1 V2000
    1.1396   -6.6534    0.0000 N   0  0  0  0  0  0  0  0  0  0  0  0
    2.2907   -5.9857    0.0000 C   0  0  0  0  0  0  0  0  0  0  0  0
    2.2907   -4.6735    0.0000 C   0  0  0  0  0  0  0  0  0  0  0  0
    3.4418   -6.6534    0.0000 C   0  0  0  0  0  0  0  0  0  0  0  0
    3.4418   -3.9943    0.0000 C   0  0  0  0  0  0  0  0  0  0  0  0
    4.6044   -5.9857    0.0000 C   0  0  0  0  0  0  0  0  0  0  0  0
    4.6044   -4.6735    0.0000 C   0  0  0  0  0  0  0  0  0  0  0  0
   10.3714   -6.6534    0.0000 N   0  0  0  0  0  0  0  0  0  0  0  0
    9.2203   -5.9857    0.0000 C   0  0  0  0  0  0  0  0  0  0  0  0
    8.0692   -6.6534    0.0000 C   0  0  0  0  0  0  0  0  0  0  0  0
    9.2203   -4.6735    0.0000 C   0  0  0  0  0  0  0  0  0  0  0  0
    6.9066   -5.9857    0.0000 C   0  0  0  0  0  0  0  0  0  0  0  0
    8.0692   -3.9943    0.0000 C   0  0  0  0  0  0  0  0  0  0  0  0
    6.9066   -4.6735    0.0000 C   0  0  0  0  0  0  0  0  0  0  0  0
    5.7555   -3.9943    0.0000 C   0  0  0  0  0  0  0  0  0  0  0  0
    5.7555   -2.6706    0.0000 C   0  0  0  0  0  0  0  0  0  0  0  0
    4.6044   -2.0029    0.0000 C   0  0  0  0  0  0  0  0  0  0  0  0
    6.9066   -2.0029    0.0000 C   0  0  0  0  0  0  0  0  0  0  0  0
    4.6044   -0.6792    0.0000 C   0  0  0  0  0  0  0  0  0  0  0  0
    6.9066   -0.6792    0.0000 C   0  0  0  0  0  0  0  0  0  0  0  0
    5.7555    0.0000    0.0000 C   0  0  0  0  0  0  0  0  0  0  0  0
   10.3714   -7.9887    0.0000 C   0  0  0  0  0  0  0  0  0  0  0  0
   11.5110   -5.9857    0.0000 C   0  0  0  0  0  0  0  0  0  0  0  0
    0.0000   -5.9857    0.0000 C   0  0  0  0  0  0  0  0  0  0  0  0
    1.1396   -7.9887    0.0000 C   0  0  0  0  0  0  0  0  0  0  0  0
  1  2  1  0  0  0  0
  1 24  1  0  0  0  0
  1 25  1  0  0  0  0
  2  3  2  0  0  0  0
  2  4  1  0  0  0  0
  3  5  1  0  0  0  0
  4  6  2  0  0  0  0
  5  7  2  0  0  0  0
  6  7  1  0  0  0  0
  7 15  1  0  0  0  0
  8  9  1  0  0  0  0
  8 22  1  0  0  0  0
  8 23  1  0  0  0  0
  9 10  2  0  0  0  0
  9 11  1  0  0  0  0
 10 12  1  0  0  0  0
 11 13  2  0  0  0  0
 12 14  2  0  0  0  0
 13 14  1  0  0  0  0
 14 15  1  0  0  0  0
 15 16  1  0  0  0  0
 16 17  2  0  0  0  0
 16 18  1  0  0  0  0
 17 19  1  0  0  0  0
 18 20  2  0  0  0  0
 19 21  2  0  0  0  0
 20 21  1  0  0  0  0
M  END
> <ID>
6340

> <Formula>
C23H26N2

> <FW>
330.4659

> <DSSTox_CID>
11531

> <DSSTox_RID>
78883

> <DSSTox_GSID>
31531

> <DSSTox_FileID_Sort>
3565

> <TS_ChemName>
Leucomalachite green

> <TS_ChemName_Synonyms>


> <TS_CASRN>
129-73-7

> <CASRN_ChemName_Relationship>
primary

> <TS_Description>
single chemical compound

> <ChemNote>


> <STRUCTURE_Shown>
tested chemical

> <STRUCTURE_Formula>
C23H26N2

> <STRUCTURE_MW>
330.4659

> <STRUCTURE_ChemType>
defined organic

> <STRUCTURE_DefinedOrganicForm>
parent

> <STRUCTURE_IUPAC>
4,4'-(phenylmethanediyl)bis(N,N-dimethylaniline)

> <STRUCTURE_SMILES>
CN(C)c1ccc(cc1)C(c2ccccc2)c3ccc(cc3)N(C)C

> <STRUCTURE_SMILES_Desalt>
CN(C)c1ccc(cc1)C(c2ccccc2)c3ccc(cc3)N(C)C

> <Substance_modify_yyyymmdd>
20080429

$$$$
