129-06-6
ChemmineR-0915142007XD

 24 25  0  0  0  0  0  0  0  0  2 V2000
    5.2488   -5.0672    0.0000 Na   0  3  0  0  0  0  0  0  0  0  0  0
    8.6472   -3.4589    0.0000 C    0  0  0  0  0  0  0  0  0  0  0  0
    7.9727   -4.6176    0.0000 C    0  0  0  0  0  0  0  0  0  0  0  0
    6.6497   -4.6176    0.0000 C    0  0  0  0  0  0  0  0  0  0  0  0
    5.9925   -3.4589    0.0000 C    0  0  0  0  0  0  0  0  0  0  0  0
    6.6497   -2.3088    0.0000 C    0  0  0  0  0  0  0  0  0  0  0  0
    7.9727   -2.3088    0.0000 C    0  0  0  0  0  0  0  0  0  0  0  0
    5.9925   -1.1587    0.0000 O    0  0  0  0  0  0  0  0  0  0  0  0
    4.6608   -1.1587    0.0000 C    0  0  0  0  0  0  0  0  0  0  0  0
    4.0036    0.0000    0.0000 O    0  0  0  0  0  0  0  0  0  0  0  0
    4.0036   -2.3088    0.0000 C    0  0  0  0  0  0  0  0  0  0  0  0
    2.6547   -2.3088    0.0000 C    0  0  0  0  0  0  0  0  0  0  0  0
    1.9975   -1.1587    0.0000 C    0  0  0  0  0  0  0  0  0  0  0  0
    0.6745   -1.1587    0.0000 C    0  0  0  0  0  0  0  0  0  0  0  0
    0.0000   -2.3088    0.0000 C    0  0  0  0  0  0  0  0  0  0  0  0
    0.0000    0.0000    0.0000 O    0  0  0  0  0  0  0  0  0  0  0  0
    1.9975   -3.4589    0.0000 C    0  0  0  0  0  0  0  0  0  0  0  0
    2.6547   -4.6176    0.0000 C    0  0  0  0  0  0  0  0  0  0  0  0
    1.9975   -5.7677    0.0000 C    0  0  0  0  0  0  0  0  0  0  0  0
    0.6745   -5.7677    0.0000 C    0  0  0  0  0  0  0  0  0  0  0  0
    0.0000   -4.6176    0.0000 C    0  0  0  0  0  0  0  0  0  0  0  0
    0.6745   -3.4589    0.0000 C    0  0  0  0  0  0  0  0  0  0  0  0
    4.6608   -3.4589    0.0000 C    0  0  0  0  0  0  0  0  0  0  0  0
    4.0036   -4.6176    0.0000 O    0  5  0  0  0  0  0  0  0  0  0  0
  2  3  2  0  0  0  0
  2  7  1  0  0  0  0
  3  4  1  0  0  0  0
  4  5  2  0  0  0  0
  5  6  1  0  0  0  0
  5 23  1  0  0  0  0
  6  7  2  0  0  0  0
  6  8  1  0  0  0  0
  8  9  1  0  0  0  0
  9 10  2  0  0  0  0
  9 11  1  0  0  0  0
 11 12  1  0  0  0  0
 11 23  2  0  0  0  0
 12 13  1  0  0  0  0
 12 17  1  0  0  0  0
 13 14  1  0  0  0  0
 14 15  1  0  0  0  0
 14 16  2  0  0  0  0
 17 18  2  0  0  0  0
 17 22  1  0  0  0  0
 18 19  1  0  0  0  0
 19 20  2  0  0  0  0
 20 21  1  0  0  0  0
 21 22  2  0  0  0  0
 23 24  1  0  0  0  0
M  END
> <ID>
6980

> <Formula>
C19H15NaO4

> <FW>
330.3098 (22.9892+307.3205)

> <DSSTox_CID>
15010

> <DSSTox_RID>
79236

> <DSSTox_GSID>
35010

> <DSSTox_FileID_Sort>
3918

> <TS_ChemName>
Sodium warfarin

> <TS_ChemName_Synonyms>
3-(alpha-Acetonylbenzyl)-4-hydroxycoumarin sodium salt

> <TS_CASRN>
129-06-6

> <CASRN_ChemName_Relationship>
primary

> <TS_Description>
single chemical compound

> <ChemNote>
parent [81-81-2]

> <STRUCTURE_Shown>
tested chemical

> <STRUCTURE_Formula>
C19H15NaO4

> <STRUCTURE_MW>
330.3098

> <STRUCTURE_ChemType>
defined organic

> <STRUCTURE_DefinedOrganicForm>
salt

> <STRUCTURE_IUPAC>
sodium 2-oxo-3-(3-oxo-1-phenylbutyl)-2H-chromen-4-olate

> <STRUCTURE_SMILES>
[Na+].CC(=O)CC(C1=C([O-])c2ccccc2OC1=O)c3ccccc3

> <STRUCTURE_SMILES_Desalt>
CC(=O)CC(C1=C(O)c2ccccc2OC1=O)c3ccccc3

> <Substance_modify_yyyymmdd>
20130926

$$$$
