129-20-4
ChemmineR-0915142007XD

 24 26  0  0  0  0  0  0  0  0  1 V2000
    0.0000   -4.4147    0.0000 C   0  0  0  0  0  0  0  0  0  0  0  0
    1.0738   -5.1902    0.0000 C   0  0  0  0  0  0  0  0  0  0  0  0
    2.2908   -4.6533    0.0000 C   0  0  0  0  0  0  0  0  0  0  0  0
    3.3647   -5.4408    0.0000 C   0  0  0  0  0  0  0  0  0  0  0  0
    4.5817   -4.9038    0.0000 C   0  0  0  0  0  0  0  0  0  0  0  0
    4.8561   -3.5794    0.0000 C   0  0  0  0  0  0  0  0  0  0  0  0
    3.9732   -2.6130    0.0000 O   0  0  0  0  0  0  0  0  0  0  0  0
    6.1805   -3.4601    0.0000 N   0  0  0  0  0  0  0  0  0  0  0  0
    6.7294   -4.6533    0.0000 N   0  0  0  0  0  0  0  0  0  0  0  0
    5.7390   -5.5601    0.0000 C   0  0  0  0  0  0  0  0  0  0  0  0
    5.8822   -6.8845    0.0000 O   0  0  0  0  0  0  0  0  0  0  0  0
    8.0180   -4.9516    0.0000 C   0  0  0  0  0  0  0  0  0  0  0  0
    8.9248   -3.9493    0.0000 C   0  0  0  0  0  0  0  0  0  0  0  0
   10.2134   -4.2476    0.0000 C   0  0  0  0  0  0  0  0  0  0  0  0
   10.6310   -5.5124    0.0000 C   0  0  0  0  0  0  0  0  0  0  0  0
   11.9315   -5.7748    0.0000 O   0  0  0  0  0  0  0  0  0  0  0  0
    9.7361   -6.4788    0.0000 C   0  0  0  0  0  0  0  0  0  0  0  0
    8.4356   -6.2163    0.0000 C   0  0  0  0  0  0  0  0  0  0  0  0
    6.8487   -2.3028    0.0000 C   0  0  0  0  0  0  0  0  0  0  0  0
    6.1805   -1.1454    0.0000 C   0  0  0  0  0  0  0  0  0  0  0  0
    6.8487    0.0000    0.0000 C   0  0  0  0  0  0  0  0  0  0  0  0
    8.1850    0.0000    0.0000 C   0  0  0  0  0  0  0  0  0  0  0  0
    8.8412   -1.1454    0.0000 C   0  0  0  0  0  0  0  0  0  0  0  0
    8.1850   -2.3028    0.0000 C   0  0  0  0  0  0  0  0  0  0  0  0
  1  2  1  0  0  0  0
  2  3  1  0  0  0  0
  3  4  1  0  0  0  0
  4  5  1  0  0  0  0
  5  6  1  0  0  0  0
  5 10  1  0  0  0  0
  6  7  2  0  0  0  0
  6  8  1  0  0  0  0
  8  9  1  0  0  0  0
  8 19  1  0  0  0  0
  9 10  1  0  0  0  0
  9 12  1  0  0  0  0
 10 11  2  0  0  0  0
 12 13  2  0  0  0  0
 12 18  1  0  0  0  0
 13 14  1  0  0  0  0
 14 15  2  0  0  0  0
 15 16  1  0  0  0  0
 15 17  1  0  0  0  0
 17 18  2  0  0  0  0
 19 20  2  0  0  0  0
 19 24  1  0  0  0  0
 20 21  1  0  0  0  0
 21 22  2  0  0  0  0
 22 23  1  0  0  0  0
 23 24  2  0  0  0  0
M  END
> <ID>
10854

> <Formula>
C19H20N2O3

> <FW>
324.3737

> <DSSTox_CID>
25291

> <DSSTox_RID>
80784

> <DSSTox_GSID>
45291

> <DSSTox_FileID_Sort>
5465

> <TS_ChemName>
Oxyphenbutazone

> <TS_ChemName_Synonyms>


> <TS_CASRN>
129-20-4

> <CASRN_ChemName_Relationship>
primary

> <TS_Description>
single chemical compound

> <ChemNote>


> <STRUCTURE_Shown>
tested chemical

> <STRUCTURE_Formula>
C19H20N2O3

> <STRUCTURE_MW>
324.3737

> <STRUCTURE_ChemType>
defined organic

> <STRUCTURE_DefinedOrganicForm>
parent

> <STRUCTURE_IUPAC>
4-butyl-1-(4-hydroxyphenyl)-2-phenylpyrazolidine-3,5-dione

> <STRUCTURE_SMILES>
Oc1ccc(cc1)N3C(=O)C(CCCC)C(=O)N3c2ccccc2

> <STRUCTURE_SMILES_Desalt>
Oc1ccc(cc1)N3C(=O)C(CCCC)C(=O)N3c2ccccc2

> <Substance_modify_yyyymmdd>
20110719

$$$$
