129-16-8
ChemmineR-0915142007XD

 31 33  0  0  0  0  0  0  0  0  2 V2000
    7.6748   -3.9978    0.0000 C    0  0  0  0  0  0  0  0  0  0  0  0
    6.5273   -4.6641    0.0000 C    0  0  0  0  0  0  0  0  0  0  0  0
    7.6748   -2.6652    0.0000 C    0  0  0  0  0  0  0  0  0  0  0  0
    5.3798   -2.6652    0.0000 C    0  0  0  0  0  0  0  0  0  0  0  0
    5.3798   -3.9978    0.0000 C    0  0  0  0  0  0  0  0  0  0  0  0
    4.2076   -2.0112    0.0000 C    0  0  0  0  0  0  0  0  0  0  0  0
    6.5273   -2.0112    0.0000 O    0  0  0  0  0  0  0  0  0  0  0  0
    8.8223   -4.6641    0.0000 C    0  0  0  0  0  0  0  0  0  0  0  0
    8.8223   -2.0112    0.0000 C    0  0  0  0  0  0  0  0  0  0  0  0
    3.0477   -2.6652    0.0000 C    0  0  0  0  0  0  0  0  0  0  0  0
    9.9822   -3.9978    0.0000 C    0  0  0  0  0  0  0  0  0  0  0  0
    9.9822   -2.6652    0.0000 C    0  0  0  0  0  0  0  0  0  0  0  0
    4.2076   -4.6641    0.0000 C    0  0  0  0  0  0  0  0  0  0  0  0
    3.0477   -3.9978    0.0000 C    0  0  0  0  0  0  0  0  0  0  0  0
    1.9125   -2.0112    0.0000 O    0  5  0  0  0  0  0  0  0  0  0  0
    4.2076   -0.6786    0.0000 Hg   0  0  0  0  0  0  0  0  0  0  0  0
   11.1297   -2.0112    0.0000 O    0  5  0  0  0  0  0  0  0  0  0  0
   11.1297   -4.6641    0.0000 Br   0  0  0  0  0  0  0  0  0  0  0  0
    1.9125   -4.6641    0.0000 Br   0  0  0  0  0  0  0  0  0  0  0  0
    3.0477    0.0000    0.0000 O    0  0  0  0  0  0  0  0  0  0  0  0
    7.5884   -5.4538    0.0000 C    0  0  0  0  0  0  0  0  0  0  0  0
    5.4538   -5.4538    0.0000 O    0  0  0  0  0  0  0  0  0  0  0  0
    7.1936   -6.7247    0.0000 C    0  0  0  0  0  0  0  0  0  0  0  0
    5.8733   -6.7247    0.0000 C    0  0  0  0  0  0  0  0  0  0  0  0
    8.0697   -7.6995    0.0000 C    0  0  0  0  0  0  0  0  0  0  0  0
    9.3899   -7.4280    0.0000 C    0  0  0  0  0  0  0  0  0  0  0  0
    8.9087   -5.1700    0.0000 C    0  0  0  0  0  0  0  0  0  0  0  0
    9.7848   -6.1571    0.0000 C    0  0  0  0  0  0  0  0  0  0  0  0
    5.0836   -7.7982    0.0000 O    0  0  0  0  0  0  0  0  0  0  0  0
   12.3389   -3.2575    0.0000 Na   0  3  0  0  0  0  0  0  0  0  0  0
    0.0000   -3.3809    0.0000 Na   0  3  0  0  0  0  0  0  0  0  0  0
  1  2  1  0  0  0  0
  1  3  1  0  0  0  0
  1  8  2  0  0  0  0
  2  5  1  0  0  0  0
  2 21  1  0  0  0  0
  2 22  1  0  0  0  0
  3  7  1  0  0  0  0
  3  9  2  0  0  0  0
  4  7  1  0  0  0  0
  4  6  1  0  0  0  0
  4  5  2  0  0  0  0
  5 13  1  0  0  0  0
  6 10  2  0  0  0  0
  6 16  1  0  0  0  0
  8 11  1  0  0  0  0
  9 12  1  0  0  0  0
 10 15  1  0  0  0  0
 10 14  1  0  0  0  0
 11 12  2  0  0  0  0
 11 18  1  0  0  0  0
 12 17  1  0  0  0  0
 13 14  2  0  0  0  0
 14 19  1  0  0  0  0
 16 20  1  0  0  0  0
 21 23  2  0  0  0  0
 21 27  1  0  0  0  0
 22 24  1  0  0  0  0
 23 24  1  0  0  0  0
 23 25  1  0  0  0  0
 24 29  2  0  0  0  0
 25 26  2  0  0  0  0
 26 28  1  0  0  0  0
 27 28  2  0  0  0  0
M  END
> <ID>
11014

> <Formula>
C20H8Br2HgNa2O6

> <FW>
750.6515 (704.6730+22.9892+22.9892)

> <DSSTox_CID>
25545

> <DSSTox_RID>
80946

> <DSSTox_GSID>
45545

> <DSSTox_FileID_Sort>
5627

> <TS_ChemName>
Mercurochrome

> <TS_ChemName_Synonyms>
Mercurochrome (Merbromin)

> <TS_CASRN>
129-16-8

> <CASRN_ChemName_Relationship>
primary

> <TS_Description>
single chemical compound

> <ChemNote>
parent [55728-51-3]

> <STRUCTURE_Shown>
tested chemical

> <STRUCTURE_Formula>
C20H8Br2HgNa2O6

> <STRUCTURE_MW>
750.6515

> <STRUCTURE_ChemType>
organometallic

> <STRUCTURE_DefinedOrganicForm>


> <STRUCTURE_IUPAC>
disodium (2',7'-dibromo-3',6'-dioxido-3-oxo-3H-spiro[2-benzofuran-1,9'-xanthen]-4'-yl)(hydroxy)mercury

> <STRUCTURE_SMILES>
[Na+].[Na+].[O-]c4cc5Oc1c(cc(Br)c([O-])c1[Hg]O)C3(OC(=O)c2ccccc23)c5cc4Br

> <STRUCTURE_SMILES_Desalt>
Oc4cc5Oc1c(cc(Br)c(O)c1[Hg]O)C3(OC(=O)c2ccccc23)c5cc4Br

> <Substance_modify_yyyymmdd>
20110719

$$$$
