129-17-9
ChemmineR-0915142007XD

 38 39  0  0  0  0  0  0  0  0  2 V2000
    0.0000  -10.2102    0.0000 C    0  0  0  0  0  0  0  0  0  0  0  0
    1.1274   -9.5569    0.0000 C    0  0  0  0  0  0  0  0  0  0  0  0
    2.2675  -10.2102    0.0000 N    0  3  0  0  0  0  0  0  0  0  0  0
    2.2675  -11.5169    0.0000 C    0  0  0  0  0  0  0  0  0  0  0  0
    1.1274  -12.1703    0.0000 C    0  0  0  0  0  0  0  0  0  0  0  0
    3.3949   -9.5569    0.0000 C    0  0  0  0  0  0  0  0  0  0  0  0
    4.5350  -10.2102    0.0000 C    0  0  0  0  0  0  0  0  0  0  0  0
    5.6624   -9.5569    0.0000 C    0  0  0  0  0  0  0  0  0  0  0  0
    3.3949   -8.2374    0.0000 C    0  0  0  0  0  0  0  0  0  0  0  0
    4.5350   -7.5840    0.0000 C    0  0  0  0  0  0  0  0  0  0  0  0
    5.6624   -8.2374    0.0000 C    0  0  0  0  0  0  0  0  0  0  0  0
    6.8026   -7.5840    0.0000 C    0  0  0  0  0  0  0  0  0  0  0  0
    6.8026   -5.8930    0.0000 C    0  0  0  0  0  0  0  0  0  0  0  0
    7.9299   -5.2268    0.0000 C    0  0  0  0  0  0  0  0  0  0  0  0
    7.9299   -3.9201    0.0000 C    0  0  0  0  0  0  0  0  0  0  0  0
    6.8026   -3.2668    0.0000 C    0  0  0  0  0  0  0  0  0  0  0  0
    6.8026   -1.9601    0.0000 N    0  0  0  0  0  0  0  0  0  0  0  0
    7.9299   -1.3067    0.0000 C    0  0  0  0  0  0  0  0  0  0  0  0
    9.0701   -1.9601    0.0000 C    0  0  0  0  0  0  0  0  0  0  0  0
    5.6624   -1.3067    0.0000 C    0  0  0  0  0  0  0  0  0  0  0  0
    5.6624    0.0000    0.0000 C    0  0  0  0  0  0  0  0  0  0  0  0
    5.6624   -3.9201    0.0000 C    0  0  0  0  0  0  0  0  0  0  0  0
    5.6624   -5.2268    0.0000 C    0  0  0  0  0  0  0  0  0  0  0  0
    8.2758   -8.4423    0.0000 C    0  0  0  0  0  0  0  0  0  0  0  0
    8.2758   -9.7491    0.0000 C    0  0  0  0  0  0  0  0  0  0  0  0
    9.4160  -10.4024    0.0000 C    0  0  0  0  0  0  0  0  0  0  0  0
   10.5433   -9.7491    0.0000 C    0  0  0  0  0  0  0  0  0  0  0  0
   11.6835  -10.4024    0.0000 S    0  0  0  0  0  0  0  0  0  0  0  0
   12.8108  -11.0558    0.0000 O    0  5  0  0  0  0  0  0  0  0  0  0
   11.0173  -11.5426    0.0000 O    0  0  0  0  0  0  0  0  0  0  0  0
   12.3368   -9.2751    0.0000 O    0  0  0  0  0  0  0  0  0  0  0  0
   10.5433   -8.4423    0.0000 C    0  0  0  0  0  0  0  0  0  0  0  0
    9.4160   -7.7890    0.0000 C    0  0  0  0  0  0  0  0  0  0  0  0
    9.4160   -6.4695    0.0000 S    0  0  0  0  0  0  0  0  0  0  0  0
   10.7227   -6.4695    0.0000 O    0  0  0  0  0  0  0  0  0  0  0  0
    9.4160   -5.1628    0.0000 O    0  5  0  0  0  0  0  0  0  0  0  0
    8.0965   -6.4695    0.0000 O    0  0  0  0  0  0  0  0  0  0  0  0
   12.6315   -5.8930    0.0000 Na   0  3  0  0  0  0  0  0  0  0  0  0
  1  2  1  0  0  0  0
  2  3  1  0  0  0  0
  3  4  1  0  0  0  0
  3  6  2  0  0  0  0
  4  5  1  0  0  0  0
  6  7  1  0  0  0  0
  6  9  1  0  0  0  0
  7  8  2  0  0  0  0
  8 11  1  0  0  0  0
  9 10  2  0  0  0  0
 10 11  1  0  0  0  0
 11 12  2  0  0  0  0
 12 13  1  0  0  0  0
 12 24  1  0  0  0  0
 13 14  2  0  0  0  0
 13 23  1  0  0  0  0
 14 15  1  0  0  0  0
 15 16  2  0  0  0  0
 16 17  1  0  0  0  0
 16 22  1  0  0  0  0
 17 18  1  0  0  0  0
 17 20  1  0  0  0  0
 18 19  1  0  0  0  0
 20 21  1  0  0  0  0
 22 23  2  0  0  0  0
 24 25  2  0  0  0  0
 24 33  1  0  0  0  0
 25 26  1  0  0  0  0
 26 27  2  0  0  0  0
 27 28  1  0  0  0  0
 27 32  1  0  0  0  0
 28 29  1  0  0  0  0
 28 30  2  0  0  0  0
 28 31  2  0  0  0  0
 32 33  2  0  0  0  0
 33 34  1  0  0  0  0
 34 35  2  0  0  0  0
 34 36  1  0  0  0  0
 34 37  2  0  0  0  0
M  END
> <ID>
4522

> <Formula>
C27H31N2NaO6S2

> <FW>
566.6646 (543.6754+22.9892)

> <DSSTox_CID>
6065

> <DSSTox_RID>
78002

> <DSSTox_GSID>
26065

> <DSSTox_FileID_Sort>
2685

> <TS_ChemName>
Sulfan blue

> <TS_ChemName_Synonyms>
C.I. Acid Blue 1, sodium salt; C.I. Food Blue 3; Patent Blue Violet; Patent Blue VF

> <TS_CASRN>
129-17-9

> <CASRN_ChemName_Relationship>
primary

> <TS_Description>
single chemical compound

> <ChemNote>
ammonium; C.I. 42045

> <STRUCTURE_Shown>
tested chemical

> <STRUCTURE_Formula>
C27H31N2NaO6S2

> <STRUCTURE_MW>
566.6646

> <STRUCTURE_ChemType>
defined organic

> <STRUCTURE_DefinedOrganicForm>
salt

> <STRUCTURE_IUPAC>
sodium 4-{[4-(diethylamino)phenyl][4-(diethyliminio)cyclohexa-2,5-dien-1-ylidene]methyl}benzene-1,3-disulfonate

> <STRUCTURE_SMILES>
[Na+].CC/[N+](CC)=C1/C=C/C(C=C1)=C(/c2ccc(cc2)N(CC)CC)c3ccc(cc3S([O-])(=O)=O)S([O-])(=O)=O

> <STRUCTURE_SMILES_Desalt>
CC/[N+](CC)=C1/C=C/C(C=C1)=C(/c2ccc(cc2)N(CC)CC)c3ccc(cc3S(=O)(=O)O)S(=O)(=O)O

> <Substance_modify_yyyymmdd>
20131003

$$$$
