129-56-6
ChemmineR-0915142007XD

 17 20  0  0  0  0  0  0  0  0  1 V2000
    2.2200   -1.9266    0.0000 C   0  0  0  0  0  0  0  0  0  0  0  0
    2.2200   -3.2066    0.0000 C   0  0  0  0  0  0  0  0  0  0  0  0
    1.1133   -1.2866    0.0000 C   0  0  0  0  0  0  0  0  0  0  0  0
    1.1133   -3.8533    0.0000 C   0  0  0  0  0  0  0  0  0  0  0  0
    0.0000   -1.9266    0.0000 C   0  0  0  0  0  0  0  0  0  0  0  0
    0.0000   -3.2066    0.0000 C   0  0  0  0  0  0  0  0  0  0  0  0
    3.3333   -1.2866    0.0000 C   0  0  0  0  0  0  0  0  0  0  0  0
    4.4466   -1.9266    0.0000 C   0  0  0  0  0  0  0  0  0  0  0  0
    3.3333   -3.8533    0.0000 C   0  0  0  0  0  0  0  0  0  0  0  0
    4.4466   -3.2066    0.0000 C   0  0  0  0  0  0  0  0  0  0  0  0
    5.5532   -1.2866    0.0000 C   0  0  0  0  0  0  0  0  0  0  0  0
    6.6666   -1.9266    0.0000 C   0  0  0  0  0  0  0  0  0  0  0  0
    5.5532   -3.8533    0.0000 C   0  0  0  0  0  0  0  0  0  0  0  0
    6.6666   -3.2066    0.0000 C   0  0  0  0  0  0  0  0  0  0  0  0
    3.3333   -5.1333    0.0000 O   0  0  0  0  0  0  0  0  0  0  0  0
    3.3333    0.0000    0.0000 N   0  0  0  0  0  0  0  0  0  0  0  0
    5.5532    0.0000    0.0000 N   0  0  0  0  0  0  0  0  0  0  0  0
  1  3  2  0  0  0  0
  1  7  1  0  0  0  0
  1  2  1  0  0  0  0
  2  4  2  0  0  0  0
  2  9  1  0  0  0  0
  3  5  1  0  0  0  0
  4  6  1  0  0  0  0
  5  6  2  0  0  0  0
  7  8  1  0  0  0  0
  7 16  2  0  0  0  0
  8 11  1  0  0  0  0
  8 10  2  0  0  0  0
  9 10  1  0  0  0  0
  9 15  2  0  0  0  0
 10 13  1  0  0  0  0
 11 12  2  0  0  0  0
 11 17  1  0  0  0  0
 12 14  1  0  0  0  0
 13 14  2  0  0  0  0
 16 17  1  0  0  0  0
M  END
> <ID>
7784

> <Formula>
C14H8N2O

> <FW>
220.2261

> <DSSTox_CID>
20525

> <DSSTox_RID>
79502

> <DSSTox_GSID>
40525

> <DSSTox_FileID_Sort>
4184

> <TS_ChemName>
SP600125

> <TS_ChemName_Synonyms>
SP600125 (JNK Inhibitor SP600125)

> <TS_CASRN>
129-56-6

> <CASRN_ChemName_Relationship>
primary

> <TS_Description>
single chemical compound

> <ChemNote>
C.I. 70300; tautomers

> <STRUCTURE_Shown>
tested chemical

> <STRUCTURE_Formula>
C14H8N2O

> <STRUCTURE_MW>
220.2261

> <STRUCTURE_ChemType>
defined organic

> <STRUCTURE_DefinedOrganicForm>
parent

> <STRUCTURE_IUPAC>
dibenzo[cd,g]indazol-6(2H)-one

> <STRUCTURE_SMILES>
O=C4c1cccc2nnc(c12)c3ccccc34

> <STRUCTURE_SMILES_Desalt>
O=C4c1cccc2nnc(c12)c3ccccc34

> <Substance_modify_yyyymmdd>
20080429

$$$$
