129-74-8
ChemmineR-0915142007XD

 33 34  0  0  0  0  0  0  0  0  1 V2000
    5.7679   -4.6593    0.0000 N    0  0  0  0  0  0  0  0  0  0  0  0
    8.0601   -5.9927    0.0000 N    0  0  0  0  0  0  0  0  0  0  0  0
    4.5844   -3.9851    0.0000 C    0  0  0  0  0  0  0  0  0  0  0  0
   13.8281   -4.0001    0.0000 C    0  0  0  0  0  0  0  0  0  0  0  0
   12.6595   -4.6593    0.0000 C    0  0  0  0  0  0  0  0  0  0  0  0
    3.4458   -4.6443    0.0000 C    0  0  0  0  0  0  0  0  0  0  0  0
    5.7679   -5.9927    0.0000 C    0  0  0  0  0  0  0  0  0  0  0  0
    6.9215   -4.0001    0.0000 C    0  0  0  0  0  0  0  0  0  0  0  0
    4.5844   -2.6667    0.0000 C    0  0  0  0  0  0  0  0  0  0  0  0
    9.2137   -6.6668    0.0000 C    0  0  0  0  0  0  0  0  0  0  0  0
   11.5209   -4.0151    0.0000 C    0  0  0  0  0  0  0  0  0  0  0  0
   12.6595   -5.9927    0.0000 C    0  0  0  0  0  0  0  0  0  0  0  0
    2.3222   -3.9851    0.0000 C    0  0  0  0  0  0  0  0  0  0  0  0
    3.4458   -5.9777    0.0000 C    0  0  0  0  0  0  0  0  0  0  0  0
    6.9215   -6.6519    0.0000 C    0  0  0  0  0  0  0  0  0  0  0  0
    8.0601   -4.6593    0.0000 C    0  0  0  0  0  0  0  0  0  0  0  0
   10.3673   -5.9927    0.0000 C    0  0  0  0  0  0  0  0  0  0  0  0
    1.1536   -5.9777    0.0000 C    0  0  0  0  0  0  0  0  0  0  0  0
    1.1536   -4.6443    0.0000 C    0  0  0  0  0  0  0  0  0  0  0  0
    2.3222   -6.6369    0.0000 C    0  0  0  0  0  0  0  0  0  0  0  0
   10.3673   -4.6593    0.0000 C    0  0  0  0  0  0  0  0  0  0  0  0
   11.5209   -6.6668    0.0000 C    0  0  0  0  0  0  0  0  0  0  0  0
    0.0000   -6.6519    0.0000 Cl   0  0  0  0  0  0  0  0  0  0  0  0
   14.5172   -5.1387    0.0000 C    0  0  0  0  0  0  0  0  0  0  0  0
   13.1539   -2.8465    0.0000 C    0  0  0  0  0  0  0  0  0  0  0  0
   14.9817   -3.3110    0.0000 C    0  0  0  0  0  0  0  0  0  0  0  0
    5.7530   -1.9926    0.0000 C    0  0  0  0  0  0  0  0  0  0  0  0
    3.4458   -1.9926    0.0000 C    0  0  0  0  0  0  0  0  0  0  0  0
    3.4458   -0.6592    0.0000 C    0  0  0  0  0  0  0  0  0  0  0  0
    5.7530   -0.6592    0.0000 C    0  0  0  0  0  0  0  0  0  0  0  0
    4.5844    0.0000    0.0000 C    0  0  0  0  0  0  0  0  0  0  0  0
    8.9890   -0.4495    0.0000 Cl   0  0  0  0  0  0  0  0  0  0  0  0
    8.9890   -2.1723    0.0000 Cl   0  0  0  0  0  0  0  0  0  0  0  0
  1  3  1  0  0  0  0
  1  7  1  0  0  0  0
  1  8  1  0  0  0  0
  2 16  1  0  0  0  0
  2 10  1  0  0  0  0
  2 15  1  0  0  0  0
  3  6  1  0  0  0  0
  3  9  1  0  0  0  0
  4  5  1  0  0  0  0
  4 24  1  0  0  0  0
  4 25  1  0  0  0  0
  4 26  1  0  0  0  0
  5 12  2  0  0  0  0
  5 11  1  0  0  0  0
  6 13  1  0  0  0  0
  6 14  2  0  0  0  0
  7 15  1  0  0  0  0
  8 16  1  0  0  0  0
  9 27  2  0  0  0  0
  9 28  1  0  0  0  0
 10 17  1  0  0  0  0
 11 21  2  0  0  0  0
 12 22  1  0  0  0  0
 13 19  2  0  0  0  0
 14 20  1  0  0  0  0
 17 21  1  0  0  0  0
 17 22  2  0  0  0  0
 18 20  2  0  0  0  0
 18 23  1  0  0  0  0
 18 19  1  0  0  0  0
 27 30  1  0  0  0  0
 28 29  2  0  0  0  0
 29 31  1  0  0  0  0
 30 31  2  0  0  0  0
M  END
> <ID>
10734

> <Formula>
C28H35Cl3N2

> <FW>
505.9499 (433.0280+36.4609+36.4609)

> <DSSTox_CID>
25091

> <DSSTox_RID>
80665

> <DSSTox_GSID>
45091

> <DSSTox_FileID_Sort>
5347

> <TS_ChemName>
Buclizine dihydrochloride

> <TS_ChemName_Synonyms>


> <TS_CASRN>
129-74-8

> <CASRN_ChemName_Relationship>
primary

> <TS_Description>
single chemical compound

> <ChemNote>
parent [82-95-1]

> <STRUCTURE_Shown>
tested chemical

> <STRUCTURE_Formula>
C28H35Cl3N2

> <STRUCTURE_MW>
505.9499

> <STRUCTURE_ChemType>
defined organic

> <STRUCTURE_DefinedOrganicForm>
complex

> <STRUCTURE_IUPAC>
1-(4-tert-butylbenzyl)-4-[(4-chlorophenyl)(phenyl)methyl]piperazine dihydrochloride

> <STRUCTURE_SMILES>
Cl.Cl.CC(C)(C)c1ccc(cc1)CN2CCN(CC2)C(c3ccc(Cl)cc3)c4ccccc4

> <STRUCTURE_SMILES_Desalt>
CC(C)(C)c1ccc(cc1)CN2CCN(CC2)C(c3ccc(Cl)cc3)c4ccccc4

> <Substance_modify_yyyymmdd>
20100107

$$$$
