129-00-0
ChemmineR-0915142007XD

 16 19  0  0  0  0  0  0  0  0  1 V2000
    2.3045   -2.6510    0.0000 C   0  0  0  0  0  0  0  0  0  0  0  0
    3.4711   -2.0041    0.0000 C   0  0  0  0  0  0  0  0  0  0  0  0
    2.3045   -3.9794    0.0000 C   0  0  0  0  0  0  0  0  0  0  0  0
    4.6205   -2.6626    0.0000 C   0  0  0  0  0  0  0  0  0  0  0  0
    1.1551   -2.0041    0.0000 C   0  0  0  0  0  0  0  0  0  0  0  0
    3.4711   -0.6584    0.0000 C   0  0  0  0  0  0  0  0  0  0  0  0
    4.6205   -3.9910    0.0000 C   0  0  0  0  0  0  0  0  0  0  0  0
    3.4596   -4.6378    0.0000 C   0  0  0  0  0  0  0  0  0  0  0  0
    1.1551   -0.6584    0.0000 C   0  0  0  0  0  0  0  0  0  0  0  0
    2.3160    0.0000    0.0000 C   0  0  0  0  0  0  0  0  0  0  0  0
    0.0000   -3.9679    0.0000 C   0  0  0  0  0  0  0  0  0  0  0  0
    5.7756   -0.6757    0.0000 C   0  0  0  0  0  0  0  0  0  0  0  0
    0.0000   -2.6626    0.0000 C   0  0  0  0  0  0  0  0  0  0  0  0
    5.7756   -2.0157    0.0000 C   0  0  0  0  0  0  0  0  0  0  0  0
    1.1551   -4.6378    0.0000 C   0  0  0  0  0  0  0  0  0  0  0  0
    4.6205    0.0000    0.0000 C   0  0  0  0  0  0  0  0  0  0  0  0
  1  2  1  0  0  0  0
  1  3  1  0  0  0  0
  1  5  2  0  0  0  0
  2  4  1  0  0  0  0
  2  6  2  0  0  0  0
  3  8  1  0  0  0  0
  3 15  2  0  0  0  0
  4 14  2  0  0  0  0
  4  7  1  0  0  0  0
  5  9  1  0  0  0  0
  5 13  1  0  0  0  0
  6 16  1  0  0  0  0
  6 10  1  0  0  0  0
  7  8  2  0  0  0  0
  9 10  2  0  0  0  0
 11 13  2  0  0  0  0
 11 15  1  0  0  0  0
 12 16  2  0  0  0  0
 12 14  1  0  0  0  0
M  END
> <ID>
3604

> <Formula>
C16H10

> <FW>
202.2506

> <DSSTox_CID>
4289

> <DSSTox_RID>
77357

> <DSSTox_GSID>
24289

> <DSSTox_FileID_Sort>
2040

> <TS_ChemName>
Pyrene

> <TS_ChemName_Synonyms>


> <TS_CASRN>
129-00-0

> <CASRN_ChemName_Relationship>
primary

> <TS_Description>
single chemical compound

> <ChemNote>


> <STRUCTURE_Shown>
tested chemical

> <STRUCTURE_Formula>
C16H10

> <STRUCTURE_MW>
202.2506

> <STRUCTURE_ChemType>
defined organic

> <STRUCTURE_DefinedOrganicForm>
parent

> <STRUCTURE_IUPAC>
pyrene

> <STRUCTURE_SMILES>
c1ccc2ccc3cccc4ccc1c2c34

> <STRUCTURE_SMILES_Desalt>
c1ccc2ccc3cccc4ccc1c2c34

> <Substance_modify_yyyymmdd>
20080429

$$$$
