129-77-1
ChemmineR-0915142007XD

 25 26  0  0  0  0  0  0  0  0  1 V2000
    4.5857   -7.3165    0.0000 Cl   0  0  0  0  0  0  0  0  0  0  0  0
   11.5220   -4.6549    0.0000 C    0  0  0  0  0  0  0  0  0  0  0  0
   10.3698   -3.9751    0.0000 C    0  0  0  0  0  0  0  0  0  0  0  0
    9.2061   -4.6549    0.0000 N    0  0  0  0  0  0  0  0  0  0  0  0
    9.2061   -5.9684    0.0000 C    0  0  0  0  0  0  0  0  0  0  0  0
    8.0769   -6.6482    0.0000 C    0  0  0  0  0  0  0  0  0  0  0  0
    6.9132   -5.9684    0.0000 C    0  0  0  0  0  0  0  0  0  0  0  0
    6.9132   -4.6549    0.0000 C    0  0  0  0  0  0  0  0  0  0  0  0
    8.0769   -3.9751    0.0000 C    0  0  0  0  0  0  0  0  0  0  0  0
    5.7610   -3.9751    0.0000 O    0  0  0  0  0  0  0  0  0  0  0  0
    4.6088   -4.6549    0.0000 C    0  0  0  0  0  0  0  0  0  0  0  0
    4.6088   -5.9684    0.0000 O    0  0  0  0  0  0  0  0  0  0  0  0
    3.4451   -3.9751    0.0000 C    0  0  0  0  0  0  0  0  0  0  0  0
    2.3159   -4.6549    0.0000 C    0  0  0  0  0  0  0  0  0  0  0  0
    2.3159   -5.9684    0.0000 C    0  0  0  0  0  0  0  0  0  0  0  0
    1.1522   -6.6482    0.0000 C    0  0  0  0  0  0  0  0  0  0  0  0
    0.0000   -5.9684    0.0000 C    0  0  0  0  0  0  0  0  0  0  0  0
    0.0000   -4.6549    0.0000 C    0  0  0  0  0  0  0  0  0  0  0  0
    1.1522   -3.9751    0.0000 C    0  0  0  0  0  0  0  0  0  0  0  0
    3.4451   -2.6616    0.0000 C    0  0  0  0  0  0  0  0  0  0  0  0
    2.3159   -1.9933    0.0000 C    0  0  0  0  0  0  0  0  0  0  0  0
    2.3159   -0.6568    0.0000 C    0  0  0  0  0  0  0  0  0  0  0  0
    3.4451    0.0000    0.0000 C    0  0  0  0  0  0  0  0  0  0  0  0
    4.6088   -0.6568    0.0000 C    0  0  0  0  0  0  0  0  0  0  0  0
    4.6088   -1.9933    0.0000 C    0  0  0  0  0  0  0  0  0  0  0  0
  2  3  1  0  0  0  0
  3  4  1  0  0  0  0
  4  5  1  0  0  0  0
  4  9  1  0  0  0  0
  5  6  1  0  0  0  0
  6  7  1  0  0  0  0
  7  8  1  0  0  0  0
  8  9  1  0  0  0  0
  8 10  1  0  0  0  0
 10 11  1  0  0  0  0
 11 12  2  0  0  0  0
 11 13  1  0  0  0  0
 13 14  1  0  0  0  0
 13 20  1  0  0  0  0
 14 15  2  0  0  0  0
 14 19  1  0  0  0  0
 15 16  1  0  0  0  0
 16 17  2  0  0  0  0
 17 18  1  0  0  0  0
 18 19  2  0  0  0  0
 20 21  2  0  0  0  0
 20 25  1  0  0  0  0
 21 22  1  0  0  0  0
 22 23  2  0  0  0  0
 23 24  1  0  0  0  0
 24 25  2  0  0  0  0
M  END
> <ID>
10855

> <Formula>
C21H26ClNO2

> <FW>
359.8896 (36.4609+323.4287)

> <DSSTox_CID>
25292

> <DSSTox_RID>
80785

> <DSSTox_GSID>
45292

> <DSSTox_FileID_Sort>
5466

> <TS_ChemName>
Piperidolate hydrochloride

> <TS_ChemName_Synonyms>


> <TS_CASRN>
129-77-1

> <CASRN_ChemName_Relationship>
primary

> <TS_Description>
single chemical compound

> <ChemNote>
parent [82-98-4]

> <STRUCTURE_Shown>
tested chemical

> <STRUCTURE_Formula>
C21H26ClNO2

> <STRUCTURE_MW>
359.8896

> <STRUCTURE_ChemType>
defined organic

> <STRUCTURE_DefinedOrganicForm>
complex

> <STRUCTURE_IUPAC>
1-ethylpiperidin-3-yl diphenylacetate hydrochloride (1:1)

> <STRUCTURE_SMILES>
Cl.CCN3CCCC(OC(=O)C(c1ccccc1)c2ccccc2)C3

> <STRUCTURE_SMILES_Desalt>
CCN3CCCC(OC(=O)C(c1ccccc1)c2ccccc2)C3

> <Substance_modify_yyyymmdd>
20110605

$$$$
