129101-54-8
ChemmineR-0915142007XD

 28 27  0  0  1  0  0  0  0  0  1 V2000
    5.4594   -0.6236    0.0000 C   0  0  0  0  0  0  0  0  0  0  0  0
    6.5644    0.0000    0.0000 C   0  0  0  0  0  0  0  0  0  0  0  0
    7.6475   -0.6236    0.0000 C   0  0  0  0  0  0  0  0  0  0  0  0
    7.6475   -1.8818    0.0000 C   0  0  0  0  0  0  0  0  0  0  0  0
    6.5644   -2.5164    0.0000 C   0  0  0  0  0  0  0  0  0  0  0  0
    5.4594   -1.8818    0.0000 C   0  0  0  0  0  0  0  0  0  0  0  0
    4.3763   -2.5164    0.0000 O   0  0  0  0  0  0  0  0  0  0  0  0
    3.2713   -1.8818    0.0000 C   0  0  0  0  0  0  0  0  0  0  0  0
    3.2713   -0.6236    0.0000 O   0  0  0  0  0  0  0  0  0  0  0  0
    2.1881   -2.5164    0.0000 N   0  0  0  0  0  0  0  0  0  0  0  0
    2.1881   -3.7745    0.0000 C   0  0  0  0  0  0  0  0  0  0  0  0
    1.1050   -1.8818    0.0000 C   0  0  0  0  0  0  0  0  0  0  0  0
    0.0000   -2.5164    0.0000 C   0  0  0  0  0  0  0  0  0  0  0  0
    8.7525   -2.5164    0.0000 C   0  0  0  0  0  0  0  0  0  0  0  0
    9.8357   -1.8818    0.0000 N   0  0  0  0  0  0  0  0  0  0  0  0
    8.7525   -3.7745    0.0000 C   0  0  0  0  0  0  0  0  0  0  0  0
    9.8357   -0.6236    0.0000 C   0  0  0  0  0  0  0  0  0  0  0  0
   10.9407   -2.5164    0.0000 C   0  0  0  0  0  0  0  0  0  0  0  0
    3.0087   -7.6694    0.0000 O   0  0  0  0  0  0  0  0  0  0  0  0
    4.2669   -6.9255    0.0000 C   0  0  0  0  0  0  0  0  0  0  0  0
    5.5360   -7.6366    0.0000 C   0  0  0  0  0  0  0  0  0  0  0  0
    6.8270   -6.9145    0.0000 C   0  0  0  0  0  0  0  0  0  0  0  0
    8.0742   -7.6366    0.0000 C   0  0  0  0  0  0  0  0  0  0  0  0
    9.3433   -6.9145    0.0000 O   0  0  0  0  0  0  0  0  0  0  0  0
    4.2669   -5.4485    0.0000 O   0  0  0  0  0  0  0  0  0  0  0  0
    5.5360   -9.1136    0.0000 O   0  0  0  0  0  0  0  0  0  0  0  0
    6.7942   -5.4485    0.0000 O   0  0  0  0  0  0  0  0  0  0  0  0
    8.0742   -9.1136    0.0000 O   0  0  0  0  0  0  0  0  0  0  0  0
  1  6  1  0  0  0  0
  1  2  2  0  0  0  0
  2  3  1  0  0  0  0
  3  4  2  0  0  0  0
  4 14  1  0  0  0  0
  4  5  1  0  0  0  0
  5  6  2  0  0  0  0
  6  7  1  0  0  0  0
  7  8  1  0  0  0  0
  8  9  2  0  0  0  0
  8 10  1  0  0  0  0
 10 11  1  0  0  0  0
 10 12  1  0  0  0  0
 12 13  1  0  0  0  0
 14 15  1  0  0  0  0
 14 16  1  1  0  0  0
 15 17  1  0  0  0  0
 15 18  1  0  0  0  0
 19 20  1  0  0  0  0
 20 21  1  0  0  0  0
 20 25  2  0  0  0  0
 21 22  1  0  0  0  0
 21 26  1  6  0  0  0
 22 23  1  0  0  0  0
 22 27  1  6  0  0  0
 23 24  1  0  0  0  0
 23 28  2  0  0  0  0
M  END
> <ID>
12918

> <Formula>
C18H28N2O8

> <FW>
400.4235 (250.3367+150.0868)

> <DSSTox_CID>
27818

> <DSSTox_RID>
82582

> <DSSTox_GSID>
47840

> <DSSTox_FileID_Sort>
7259

> <TS_ChemName>
Rivastigmine tartrate

> <TS_ChemName_Synonyms>


> <TS_CASRN>
129101-54-8

> <CASRN_ChemName_Relationship>
primary

> <TS_Description>
single chemical compound

> <ChemNote>
parent [123441-03-2]

> <STRUCTURE_Shown>
tested chemical

> <STRUCTURE_Formula>
C18H28N2O8

> <STRUCTURE_MW>
400.4235

> <STRUCTURE_ChemType>
defined organic

> <STRUCTURE_DefinedOrganicForm>
complex

> <STRUCTURE_IUPAC>
(2S,3S)-2,3-dihydroxybutanedioic acid - 3-[(1S)-1-(dimethylamino)ethyl]phenyl ethyl(methyl)carbamate (1:1)

> <STRUCTURE_SMILES>
O=C(Oc1cc(ccc1)[C@H](C)N(C)C)N(C)CC.O=C(O)[C@@H](O)[C@H](O)C(=O)O

> <STRUCTURE_SMILES_Desalt>
O=C(Oc1cc(ccc1)[C@H](C)N(C)C)N(C)CC

> <Substance_modify_yyyymmdd>
20110805

$$$$
