1291-32-3
ChemmineR-0915142007XD

 13 14  0  0  0  0  0  0  0  0  1 V2000
    0.9510   -3.6715    0.0000 C    0  0  0  0  0  0  0  0  0  0  0  0
    1.5441   -4.8088    0.0000 C    0  0  0  0  0  0  0  0  0  0  0  0
    2.8137   -4.5980    0.0000 C    0  0  0  0  0  0  0  0  0  0  0  0
    3.0000   -3.3235    0.0000 C    0  0  0  0  0  0  0  0  0  0  0  0
    1.8529   -2.7500    0.0000 C    0  0  0  0  0  0  0  0  0  0  0  0
    4.9019   -0.8431    0.0000 C    0  0  0  0  0  0  0  0  0  0  0  0
    3.6813   -0.4461    0.0000 C    0  0  0  0  0  0  0  0  0  0  0  0
    2.9264   -1.4853    0.0000 C    0  0  0  0  0  0  0  0  0  0  0  0
    3.6813   -2.5245    0.0000 C    0  0  0  0  0  0  0  0  0  0  0  0
    4.9019   -2.1274    0.0000 C    0  0  0  0  0  0  0  0  0  0  0  0
    1.6372   -1.4853    0.0000 Zr   0  0  0  0  0  0  0  0  0  0  0  0
    0.0000   -1.8480    0.0000 Cl   0  0  0  0  0  0  0  0  0  0  0  0
    1.3088    0.0000    0.0000 Cl   0  0  0  0  0  0  0  0  0  0  0  0
  1  2  2  0  0  0  0
  1  5  1  0  0  0  0
  2  3  1  0  0  0  0
  3  4  2  0  0  0  0
  4  5  1  0  0  0  0
  5 11  1  0  0  0  0
  6  7  1  0  0  0  0
  6 10  2  0  0  0  0
  7  8  1  0  0  0  0
  8  9  2  0  0  0  0
  8 11  1  0  0  0  0
  9 10  1  0  0  0  0
 11 12  1  0  0  0  0
 11 13  1  0  0  0  0
M  END
> <ID>
4653

> <Formula>
C10H10Cl2Zr

> <FW>
292.3164

> <DSSTox_CID>
6318

> <DSSTox_RID>
78101

> <DSSTox_GSID>
26318

> <DSSTox_FileID_Sort>
2784

> <TS_ChemName>
Zirconocene dichloride

> <TS_ChemName_Synonyms>


> <TS_CASRN>
1291-32-3

> <CASRN_ChemName_Relationship>
primary

> <TS_Description>
single chemical compound

> <ChemNote>


> <STRUCTURE_Shown>
tested chemical

> <STRUCTURE_Formula>
C10H10Cl2Zr

> <STRUCTURE_MW>
292.3164

> <STRUCTURE_ChemType>
organometallic

> <STRUCTURE_DefinedOrganicForm>


> <STRUCTURE_IUPAC>
dichloro(cyclopenta-1,3-dien-1-yl)cyclopenta-2,4-dien-1-ylzirconium

> <STRUCTURE_SMILES>
Cl[Zr](Cl)(C1C=CC=C1)C2=CC=CC2

> <STRUCTURE_SMILES_Desalt>
Cl[Zr](Cl)(C1C=CC=C1)C2=CC=CC2

> <Substance_modify_yyyymmdd>
20080429

$$$$
