129298-91-5
ChemmineR-0915142007XD

 28 30  0  0  1  0  0  0  0  0  1 V2000
    2.2923   -6.6420    0.0000 C    0  0  0  0  0  0  0  0  0  0  0  0
    3.4760   -5.9750    0.0000 N    0  0  0  0  0  0  0  0  0  0  0  0
    1.1461   -5.9750    0.0000 O    0  0  0  0  0  0  0  0  0  0  0  0
    2.2923   -7.9667    0.0000 O    0  0  0  0  0  0  0  0  0  0  0  0
    4.6222   -6.6420    0.0000 C    0  0  0  0  0  0  0  0  0  0  0  0
    5.7683   -5.9750    0.0000 C    0  0  0  0  0  0  0  0  0  0  0  0
    1.1461   -4.6316    0.0000 C    0  0  0  0  0  0  0  0  0  0  0  0
    0.0000   -3.9645    0.0000 C    0  0  0  0  0  0  0  0  0  0  0  0
    2.3205   -3.9645    0.0000 C    0  0  0  0  0  0  0  0  0  0  0  0
    0.0000   -2.6399    0.0000 C    0  0  0  0  0  0  0  0  0  0  0  0
    2.3205   -2.6399    0.0000 C    0  0  0  0  0  0  0  0  0  0  0  0
    1.1461   -1.9729    0.0000 C    0  0  0  0  0  0  0  0  0  0  0  0
    3.4760   -4.6316    0.0000 O    0  0  0  0  0  0  0  0  0  0  0  0
    1.1461   -0.6482    0.0000 C    0  0  0  0  0  0  0  0  0  0  0  0
    0.0000   -1.3153    0.0000 O    0  0  0  0  0  0  0  0  0  0  0  0
    3.4760   -1.9729    0.0000 C    0  0  0  0  0  0  0  0  0  0  0  0
    3.4760   -3.3069    0.0000 H    0  0  0  0  0  0  0  0  0  0  0  0
    4.6222   -3.9645    0.0000 C    0  0  0  0  0  0  0  0  0  0  0  0
    4.1337   -3.1284    0.0000 O    0  0  0  0  0  0  0  0  0  0  0  0
    4.8007   -1.9729    0.0000 C    0  0  0  0  0  0  0  0  0  0  0  0
    5.9468   -1.3153    0.0000 C    0  0  0  0  0  0  0  0  0  0  0  0
    7.1024   -1.9729    0.0000 C    0  0  0  0  0  0  0  0  0  0  0  0
    8.2485   -1.3246    0.0000 C    0  0  0  0  0  0  0  0  0  0  0  0
    9.3947   -2.0011    0.0000 C    0  0  0  0  0  0  0  0  0  0  0  0
    8.2767    0.0000    0.0000 C    0  0  0  0  0  0  0  0  0  0  0  0
    3.1284   -0.6858    0.0000 C    0  0  0  0  0  0  0  0  0  0  0  0
    4.6222   -7.9667    0.0000 O    0  0  0  0  0  0  0  0  0  0  0  0
    6.9145   -6.6326    0.0000 Cl   0  0  0  0  0  0  0  0  0  0  0  0
  1  2  1  0  0  0  0
  1  3  1  0  0  0  0
  1  4  2  0  0  0  0
  2  5  1  0  0  0  0
  7  3  1  6  0  0  0
  5  6  1  0  0  0  0
  5 27  2  0  0  0  0
  6 28  1  0  0  0  0
  7  8  1  0  0  0  0
  7  9  1  0  0  0  0
  8 10  1  0  0  0  0
  9 11  1  0  0  0  0
  9 13  1  6  0  0  0
 10 12  1  0  0  0  0
 11 12  1  0  0  0  0
 11 16  1  0  0  0  0
 11 17  1  6  0  0  0
 12 14  1  6  0  0  0
 12 15  1  1  0  0  0
 13 18  1  0  0  0  0
 14 15  1  0  0  0  0
 16 19  1  1  0  0  0
 16 20  1  0  0  0  0
 16 26  1  6  0  0  0
 20 19  1  1  0  0  0
 20 21  1  0  0  0  0
 21 22  1  0  0  0  0
 22 23  2  0  0  0  0
 23 24  1  0  0  0  0
 23 25  1  0  0  0  0
M  END
> <ID>
8136

> <Formula>
C19H28ClNO6

> <FW>
401.8817

> <DSSTox_CID>
21141

> <DSSTox_RID>
79634

> <DSSTox_GSID>
41141

> <DSSTox_FileID_Sort>
4316

> <TS_ChemName>
TNP-470

> <TS_ChemName_Synonyms>
TNP-470 (TNP-470)

> <TS_CASRN>
129298-91-5

> <CASRN_ChemName_Relationship>
primary

> <TS_Description>
single chemical compound

> <ChemNote>
stereochem

> <STRUCTURE_Shown>
tested chemical

> <STRUCTURE_Formula>
C19H28ClNO6

> <STRUCTURE_MW>
401.8817

> <STRUCTURE_ChemType>
defined organic

> <STRUCTURE_DefinedOrganicForm>
parent

> <STRUCTURE_IUPAC>
(3R,4S,5S,6R)-5-methoxy-4-[(3R)-2-methyl-3-(3-methylbut-2-en-1-yl)oxiran-2-yl]-1-oxaspiro[2.5]oct-6-yl (chloroacetyl)carbamate

> <STRUCTURE_SMILES>
C[C@@]1(O[C@@H]1C\C=C(\C)C)[C@H]3[C@H](OC)[C@H](OC(=O)NC(=O)CCl)CC[C@@]23CO2

> <STRUCTURE_SMILES_Desalt>
C[C@@]1(O[C@@H]1C\C=C(\C)C)[C@H]3[C@H](OC)[C@H](OC(=O)NC(=O)CCl)CC[C@@]23CO2

> <Substance_modify_yyyymmdd>
20080429

$$$$
