129273-38-7
ChemmineR-0915142007XD

 33 36  0  0  1  0  0  0  0  0  1 V2000
    4.3449   -2.3396    0.0000 N    0  0  0  0  0  0  0  0  0  0  0  0
    3.5762   -3.4258    0.0000 C    0  0  0  0  0  0  0  0  0  0  0  0
    3.5762   -1.2700    0.0000 C    0  0  0  0  0  0  0  0  0  0  0  0
   12.3495   -4.6457    0.0000 N    0  0  0  0  0  0  0  0  0  0  0  0
   11.6644   -5.7988    0.0000 C    0  0  0  0  0  0  0  0  0  0  0  0
   10.3442   -5.7988    0.0000 C    0  0  0  0  0  0  0  0  0  0  0  0
    9.6758   -4.6457    0.0000 N    0  0  0  0  0  0  0  0  0  0  0  0
   10.3442   -3.5093    0.0000 C    0  0  0  0  0  0  0  0  0  0  0  0
   11.6644   -3.5093    0.0000 C    0  0  0  0  0  0  0  0  0  0  0  0
   16.7112   -6.2165    0.0000 C    0  0  0  0  0  0  0  0  0  0  0  0
   16.4271   -7.5033    0.0000 C    0  0  0  0  0  0  0  0  0  0  0  0
   15.1570   -7.9211    0.0000 C    0  0  0  0  0  0  0  0  0  0  0  0
   14.1711   -7.0354    0.0000 C    0  0  0  0  0  0  0  0  0  0  0  0
   15.7252   -5.3141    0.0000 C    0  0  0  0  0  0  0  0  0  0  0  0
   14.4551   -5.7152    0.0000 C    0  0  0  0  0  0  0  0  0  0  0  0
   13.6697   -4.6457    0.0000 C    0  0  0  0  0  0  0  0  0  0  0  0
   14.4551   -3.5762    0.0000 N    0  0  0  0  0  0  0  0  0  0  0  0
   15.7252   -3.9773    0.0000 S    0  0  0  0  0  0  0  0  0  0  0  0
    8.3389   -4.6457    0.0000 C    0  0  0  0  0  0  0  0  0  0  0  0
    7.6871   -3.5093    0.0000 C    0  0  0  0  0  0  0  0  0  0  0  0
    6.3502   -3.5093    0.0000 C    0  0  0  0  0  0  0  0  0  0  0  0
    5.6818   -2.3396    0.0000 C    0  0  0  0  0  0  0  0  0  0  0  0
    2.2894   -1.6711    0.0000 C    0  0  0  0  0  0  0  0  0  0  0  0
    2.2894   -3.0080    0.0000 C    0  0  0  0  0  0  0  0  0  0  0  0
    1.1531   -3.6765    0.0000 C    0  0  0  0  0  0  0  0  0  0  0  0
    0.0000   -3.0080    0.0000 C    0  0  0  0  0  0  0  0  0  0  0  0
    0.0000   -1.6711    0.0000 C    0  0  0  0  0  0  0  0  0  0  0  0
    1.1531   -1.0194    0.0000 C    0  0  0  0  0  0  0  0  0  0  0  0
    3.9773   -4.6791    0.0000 O    0  0  0  0  0  0  0  0  0  0  0  0
    3.9773    0.0000    0.0000 O    0  0  0  0  0  0  0  0  0  0  0  0
    2.5401   -0.3676    0.0000 H    0  0  0  0  0  0  0  0  0  0  0  0
    2.5401   -4.3115    0.0000 H    0  0  0  0  0  0  0  0  0  0  0  0
    9.6256   -2.2727    0.0000 Cl   0  0  0  0  0  0  0  0  0  0  0  0
  1 22  1  0  0  0  0
  1  2  1  0  0  0  0
  1  3  1  0  0  0  0
  2 29  2  0  0  0  0
  2 24  1  0  0  0  0
  3 30  2  0  0  0  0
  3 23  1  0  0  0  0
  4  9  1  0  0  0  0
  4 16  1  0  0  0  0
  4  5  1  0  0  0  0
  5  6  1  0  0  0  0
  6  7  1  0  0  0  0
  7  8  1  0  0  0  0
  7 19  1  0  0  0  0
  8  9  1  0  0  0  0
 10 11  2  0  0  0  0
 10 14  1  0  0  0  0
 11 12  1  0  0  0  0
 12 13  2  0  0  0  0
 13 15  1  0  0  0  0
 14 15  2  0  0  0  0
 14 18  1  0  0  0  0
 15 16  1  0  0  0  0
 16 17  2  0  0  0  0
 17 18  1  0  0  0  0
 19 20  1  0  0  0  0
 20 21  1  0  0  0  0
 21 22  1  0  0  0  0
 23 24  1  0  0  0  0
 23 28  1  0  0  0  0
 23 31  1  1  0  0  0
 24 25  1  0  0  0  0
 24 32  1  1  0  0  0
 25 26  1  0  0  0  0
 26 27  1  0  0  0  0
 27 28  1  0  0  0  0
M  END
> <ID>
11689

> <Formula>
C23H31ClN4O2S

> <FW>
463.0358 (426.5749+36.4609)

> <DSSTox_CID>
26449

> <DSSTox_RID>
81623

> <DSSTox_GSID>
46449

> <DSSTox_FileID_Sort>
6304

> <TS_ChemName>
Perospirone hydrochloride

> <TS_ChemName_Synonyms>


> <TS_CASRN>
129273-38-7

> <CASRN_ChemName_Relationship>
primary

> <TS_Description>
single chemical compound

> <ChemNote>
relative stereochem

> <STRUCTURE_Shown>
tested chemical

> <STRUCTURE_Formula>
C23H31ClN4O2S

> <STRUCTURE_MW>
463.0358

> <STRUCTURE_ChemType>
defined organic

> <STRUCTURE_DefinedOrganicForm>
complex

> <STRUCTURE_IUPAC>
(3aR,7aS)-2-{4-[4-(1,2-benzothiazol-3-yl)piperazin-1-yl]butyl}hexahydro-1H-isoindole-1,3(2H)-dione hydrochloride (1:1)

> <STRUCTURE_SMILES>
Cl.O=C4N(CCCCN1CCN(CC1)c3nsc2ccccc23)C(=O)[C@@H]5CCCC[C@H]45

> <STRUCTURE_SMILES_Desalt>
O=C4N(CCCCN1CCN(CC1)c3nsc2ccccc23)C(=O)[C@@H]5CCCC[C@H]45

> <Substance_modify_yyyymmdd>
20110604

$$$$
