129299-90-7
ChemmineR-0915142007XD

 23 25  0  0  1  0  0  0  0  0  1 V2000
    7.6991   -4.8604    0.0000 Cl   0  0  0  0  0  0  0  0  0  0  0  0
    1.7179   -2.6502    0.0000 C    0  0  0  0  0  0  0  0  0  0  0  0
    2.6083   -3.6348    0.0000 C    0  0  0  0  0  0  0  0  0  0  0  0
    0.3980   -2.9225    0.0000 C    0  0  0  0  0  0  0  0  0  0  0  0
    2.1893   -4.8918    0.0000 C    0  0  0  0  0  0  0  0  0  0  0  0
    0.0000   -4.1795    0.0000 C    0  0  0  0  0  0  0  0  0  0  0  0
    0.9008   -5.1746    0.0000 C    0  0  0  0  0  0  0  0  0  0  0  0
    3.9386   -3.6348    0.0000 N    0  0  0  0  0  0  0  0  0  0  0  0
    4.3576   -4.8918    0.0000 C    0  0  0  0  0  0  0  0  0  0  0  0
    3.2682   -5.6879    0.0000 C    0  0  0  0  0  0  0  0  0  0  0  0
    3.2682   -7.0182    0.0000 C    0  0  0  0  0  0  0  0  0  0  0  0
    4.8185   -2.6502    0.0000 C    0  0  0  0  0  0  0  0  0  0  0  0
    6.1383   -2.9225    0.0000 C    0  0  0  0  0  0  0  0  0  0  0  0
    5.6565   -5.1746    0.0000 C    0  0  0  0  0  0  0  0  0  0  0  0
    6.5469   -4.1795    0.0000 C    0  0  0  0  0  0  0  0  0  0  0  0
    4.4414   -1.3827    0.0000 O    0  0  0  0  0  0  0  0  0  0  0  0
    7.0182   -1.9274    0.0000 C    0  0  0  0  0  0  0  0  0  0  0  0
    8.3485   -2.2102    0.0000 C    0  0  0  0  0  0  0  0  0  0  0  0
    9.3332   -1.3198    0.0000 C    0  0  0  0  0  0  0  0  0  0  0  0
    8.8932   -3.4148    0.0000 N    0  0  0  0  0  0  0  0  0  0  0  0
   10.4750   -1.9902    0.0000 N    0  0  0  0  0  0  0  0  0  0  0  0
   10.1817   -3.2891    0.0000 C    0  0  0  0  0  0  0  0  0  0  0  0
    9.1761    0.0000    0.0000 C    0  0  0  0  0  0  0  0  0  0  0  0
  2  3  1  0  0  0  0
  2  4  2  0  0  0  0
  3  5  2  0  0  0  0
  3  8  1  0  0  0  0
  4  6  1  0  0  0  0
  5  7  1  0  0  0  0
  5 10  1  0  0  0  0
  6  7  2  0  0  0  0
  8 12  1  0  0  0  0
  8  9  1  0  0  0  0
  9 10  2  0  0  0  0
  9 14  1  0  0  0  0
 10 11  1  0  0  0  0
 12 13  1  0  0  0  0
 12 16  2  0  0  0  0
 13 15  1  0  0  0  0
 13 17  1  1  0  0  0
 14 15  1  0  0  0  0
 17 18  1  0  0  0  0
 18 19  2  0  0  0  0
 18 20  1  0  0  0  0
 19 21  1  0  0  0  0
 19 23  1  0  0  0  0
 20 22  2  0  0  0  0
 21 22  1  0  0  0  0
M  END
> <ID>
13229

> <Formula>
C18H20ClN3O

> <FW>
329.8239 (36.4609+293.3630)

> <DSSTox_CID>
28142

> <DSSTox_RID>
82707

> <DSSTox_GSID>
48168

> <DSSTox_FileID_Sort>
7384

> <TS_ChemName>
Fabesetron hydrochloride

> <TS_ChemName_Synonyms>
FR121052

> <TS_CASRN>
129299-90-7

> <CASRN_ChemName_Relationship>
primary

> <TS_Description>
single chemical compound

> <ChemNote>
stereochem; tautomers; parent [129300-27-2]

> <STRUCTURE_Shown>
tested chemical

> <STRUCTURE_Formula>
C18H20ClN3O

> <STRUCTURE_MW>
329.8239

> <STRUCTURE_ChemType>
defined organic

> <STRUCTURE_DefinedOrganicForm>
complex

> <STRUCTURE_IUPAC>
(7R)-10-methyl-7-[(5-methyl-1H-imidazol-4-yl)methyl]-8,9-dihydropyrido[1,2-a]indol-6(7H)-one hydrochloride (1:1)

> <STRUCTURE_SMILES>
Cl.Cc4ncnc4C[C@H]3CCc2c(C)c1ccccc1n2C3=O

> <STRUCTURE_SMILES_Desalt>
Cc4ncnc4C[C@H]3CCc2c(C)c1ccccc1n2C3=O

> <Substance_modify_yyyymmdd>
20130910

$$$$
