129300-27-2
ChemmineR-0915142007XD

 22 25  0  0  1  0  0  0  0  0  1 V2000
    1.7179   -2.6502    0.0000 C   0  0  0  0  0  0  0  0  0  0  0  0
    2.6083   -3.6348    0.0000 C   0  0  0  0  0  0  0  0  0  0  0  0
    0.3980   -2.9225    0.0000 C   0  0  0  0  0  0  0  0  0  0  0  0
    2.1893   -4.8918    0.0000 C   0  0  0  0  0  0  0  0  0  0  0  0
    0.0000   -4.1795    0.0000 C   0  0  0  0  0  0  0  0  0  0  0  0
    0.9008   -5.1746    0.0000 C   0  0  0  0  0  0  0  0  0  0  0  0
    3.9386   -3.6348    0.0000 N   0  0  0  0  0  0  0  0  0  0  0  0
    4.3576   -4.8918    0.0000 C   0  0  0  0  0  0  0  0  0  0  0  0
    3.2682   -5.6879    0.0000 C   0  0  0  0  0  0  0  0  0  0  0  0
    3.2682   -7.0182    0.0000 C   0  0  0  0  0  0  0  0  0  0  0  0
    4.8185   -2.6502    0.0000 C   0  0  0  0  0  0  0  0  0  0  0  0
    6.1383   -2.9225    0.0000 C   0  0  0  0  0  0  0  0  0  0  0  0
    5.6565   -5.1746    0.0000 C   0  0  0  0  0  0  0  0  0  0  0  0
    6.5469   -4.1795    0.0000 C   0  0  0  0  0  0  0  0  0  0  0  0
    4.4414   -1.3827    0.0000 O   0  0  0  0  0  0  0  0  0  0  0  0
    7.0182   -1.9274    0.0000 C   0  0  0  0  0  0  0  0  0  0  0  0
    8.3485   -2.2102    0.0000 C   0  0  0  0  0  0  0  0  0  0  0  0
    9.3332   -1.3198    0.0000 C   0  0  0  0  0  0  0  0  0  0  0  0
    8.8932   -3.4148    0.0000 N   0  0  0  0  0  0  0  0  0  0  0  0
   10.4750   -1.9902    0.0000 N   0  0  0  0  0  0  0  0  0  0  0  0
   10.1817   -3.2891    0.0000 C   0  0  0  0  0  0  0  0  0  0  0  0
    9.1761    0.0000    0.0000 C   0  0  0  0  0  0  0  0  0  0  0  0
  1  2  1  0  0  0  0
  1  3  2  0  0  0  0
  2  4  2  0  0  0  0
  2  7  1  0  0  0  0
  3  5  1  0  0  0  0
  4  6  1  0  0  0  0
  4  9  1  0  0  0  0
  5  6  2  0  0  0  0
  7 11  1  0  0  0  0
  7  8  1  0  0  0  0
  8  9  2  0  0  0  0
  8 13  1  0  0  0  0
  9 10  1  0  0  0  0
 11 12  1  0  0  0  0
 11 15  2  0  0  0  0
 12 14  1  0  0  0  0
 12 16  1  1  0  0  0
 13 14  1  0  0  0  0
 16 17  1  0  0  0  0
 17 18  2  0  0  0  0
 17 19  1  0  0  0  0
 18 20  1  0  0  0  0
 18 22  1  0  0  0  0
 19 21  2  0  0  0  0
 20 21  1  0  0  0  0
M  END
> <ID>
13230

> <Formula>
C18H19N3O

> <FW>
293.363

> <DSSTox_CID>
28143

> <DSSTox_RID>
82708

> <DSSTox_GSID>
48169

> <DSSTox_FileID_Sort>
7385

> <TS_ChemName>
Fabesetron

> <TS_ChemName_Synonyms>


> <TS_CASRN>
129300-27-2

> <CASRN_ChemName_Relationship>
primary

> <TS_Description>
single chemical compound

> <ChemNote>
stereochem; tautomers

> <STRUCTURE_Shown>
tested chemical

> <STRUCTURE_Formula>
C18H19N3O

> <STRUCTURE_MW>
293.363

> <STRUCTURE_ChemType>
defined organic

> <STRUCTURE_DefinedOrganicForm>
parent

> <STRUCTURE_IUPAC>
(7R)-10-methyl-7-[(5-methyl-1H-imidazol-4-yl)methyl]-8,9-dihydropyrido[1,2-a]indol-6(7H)-one

> <STRUCTURE_SMILES>
Cc4ncnc4C[C@H]3CCc2c(C)c1ccccc1n2C3=O

> <STRUCTURE_SMILES_Desalt>
Cc4ncnc4C[C@H]3CCc2c(C)c1ccccc1n2C3=O

> <Substance_modify_yyyymmdd>
20110615

$$$$
