129497-78-5
ChemmineR-0915142007XD

 53 58  0  0  1  0  0  0  0  0  1 V2000
    8.6368   -4.4879    0.0000 N   0  0  0  0  0  0  0  0  0  0  0  0
    6.3319   -7.1861    0.0000 N   0  0  0  0  0  0  0  0  0  0  0  0
    9.9385   -4.9082    0.0000 C   0  0  0  0  0  0  0  0  0  0  0  0
    6.3319   -8.5691    0.0000 C   0  0  0  0  0  0  0  0  0  0  0  0
    9.9385   -6.7658    0.0000 C   0  0  0  0  0  0  0  0  0  0  0  0
    8.6368   -8.5691    0.0000 C   0  0  0  0  0  0  0  0  0  0  0  0
    6.3319   -3.1185    0.0000 C   0  0  0  0  0  0  0  0  0  0  0  0
    5.0167   -4.9082    0.0000 C   0  0  0  0  0  0  0  0  0  0  0  0
    6.3319   -4.4879    0.0000 N   0  0  0  0  0  0  0  0  0  0  0  0
    8.6368   -7.1861    0.0000 N   0  0  0  0  0  0  0  0  0  0  0  0
   10.3181   -5.8438    0.0000 C   0  0  0  0  0  0  0  0  0  0  0  0
    7.4708   -9.2605    0.0000 C   0  0  0  0  0  0  0  0  0  0  0  0
    8.6368   -3.1185    0.0000 C   0  0  0  0  0  0  0  0  0  0  0  0
    5.0167   -6.7658    0.0000 C   0  0  0  0  0  0  0  0  0  0  0  0
    4.5421   -5.8438    0.0000 C   0  0  0  0  0  0  0  0  0  0  0  0
    7.5115   -2.4134    0.0000 C   0  0  0  0  0  0  0  0  0  0  0  0
   10.7384   -3.7964    0.0000 C   0  0  0  0  0  0  0  0  0  0  0  0
    5.0167   -8.9623    0.0000 C   0  0  0  0  0  0  0  0  0  0  0  0
    5.0167   -2.6711    0.0000 C   0  0  0  0  0  0  0  0  0  0  0  0
    9.9385   -8.9623    0.0000 C   0  0  0  0  0  0  0  0  0  0  0  0
    4.2439   -3.7964    0.0000 C   0  0  0  0  0  0  0  0  0  0  0  0
   10.7384   -7.8640    0.0000 C   0  0  0  0  0  0  0  0  0  0  0  0
    9.9385   -2.6711    0.0000 C   0  0  0  0  0  0  0  0  0  0  0  0
    4.2439   -7.8640    0.0000 C   0  0  0  0  0  0  0  0  0  0  0  0
   10.3588   -1.4237    0.0000 C   0  0  0  0  0  0  0  0  0  0  0  0
   12.0672   -3.7964    0.0000 C   0  0  0  0  0  0  0  0  0  0  0  0
   12.7316   -4.9489    0.0000 C   0  0  0  0  0  0  0  0  0  0  0  0
   12.0672   -7.8640    0.0000 C   0  0  0  0  0  0  0  0  0  0  0  0
   10.6842  -10.0741    0.0000 C   0  0  0  0  0  0  0  0  0  0  0  0
    9.9927  -11.2401    0.0000 C   0  0  0  0  0  0  0  0  0  0  0  0
   10.6842  -12.3926    0.0000 C   0  0  0  0  0  0  0  0  0  0  0  0
    9.9927  -13.5586    0.0000 O   0  0  0  0  0  0  0  0  0  0  0  0
   12.0265  -12.3926    0.0000 O   0  0  0  0  0  0  0  0  0  0  0  0
    4.2710  -10.0741    0.0000 C   0  0  0  0  0  0  0  0  0  0  0  0
    4.9489  -11.2401    0.0000 C   0  0  0  0  0  0  0  0  0  0  0  0
    4.2710  -12.3926    0.0000 C   0  0  0  0  0  0  0  0  0  0  0  0
    4.9489  -13.5586    0.0000 O   0  0  0  0  0  0  0  0  0  0  0  0
    2.9422  -12.3926    0.0000 O   0  0  0  0  0  0  0  0  0  0  0  0
    2.9151   -7.8640    0.0000 C   0  0  0  0  0  0  0  0  0  0  0  0
    4.4472   -1.4237    0.0000 C   0  0  0  0  0  0  0  0  0  0  0  0
    3.0643   -1.3152    0.0000 C   0  0  0  0  0  0  0  0  0  0  0  0
    2.8473   -3.6744    0.0000 C   0  0  0  0  0  0  0  0  0  0  0  0
    2.2779   -2.4270    0.0000 C   0  0  0  0  0  0  0  0  0  0  0  0
    3.5659   -4.9489    0.0000 C   0  0  0  0  0  0  0  0  0  0  0  0
    2.0745   -4.7726    0.0000 C   0  0  0  0  0  0  0  0  0  0  0  0
    2.6439   -5.9929    0.0000 O   0  0  0  0  0  0  0  0  0  0  0  0
    0.7728   -4.6642    0.0000 O   0  0  0  0  0  0  0  0  0  0  0  0
    0.9491   -2.3185    0.0000 C   0  0  0  0  0  0  0  0  0  0  0  0
    0.1763   -3.4168    0.0000 O   0  0  0  0  0  0  0  0  0  0  0  0
    0.3932   -1.0982    0.0000 O   0  0  0  0  0  0  0  0  0  0  0  0
    1.1660    0.0000    0.0000 C   0  0  0  0  0  0  0  0  0  0  0  0
    0.0000   -5.7217    0.0000 C   0  0  0  0  0  0  0  0  0  0  0  0
   12.6638  -11.2401    0.0000 C   0  0  0  0  0  0  0  0  0  0  0  0
  1  3  1  0  0  0  0
  1 13  2  0  0  0  0
  2 14  2  0  0  0  0
  2  4  1  0  0  0  0
  3 11  2  0  0  0  0
  3 17  1  0  0  0  0
  4 12  2  0  0  0  0
  4 18  1  0  0  0  0
  5 11  1  0  0  0  0
  5 10  1  0  0  0  0
  5 22  2  0  0  0  0
  6 10  1  0  0  0  0
  6 12  1  0  0  0  0
  6 20  2  0  0  0  0
  7 16  2  0  0  0  0
  7  9  1  0  0  0  0
  7 19  1  0  0  0  0
  8  9  1  0  0  0  0
  8 15  2  0  0  0  0
  8 21  1  0  0  0  0
 13 16  1  0  0  0  0
 13 23  1  0  0  0  0
 14 15  1  0  0  0  0
 14 24  1  0  0  0  0
 17 23  2  0  0  0  0
 17 26  1  0  0  0  0
 18 24  2  0  0  0  0
 18 34  1  0  0  0  0
 19 40  2  0  0  0  0
 19 21  1  0  0  0  0
 20 22  1  0  0  0  0
 20 29  1  0  0  0  0
 21 42  1  0  0  0  0
 21 44  1  1  0  0  0
 22 28  1  0  0  0  0
 23 25  1  0  0  0  0
 24 39  1  0  0  0  0
 26 27  2  0  0  0  0
 29 30  1  0  0  0  0
 30 31  1  0  0  0  0
 31 32  2  0  0  0  0
 31 33  1  0  0  0  0
 33 53  1  0  0  0  0
 34 35  1  0  0  0  0
 35 36  1  0  0  0  0
 36 37  2  0  0  0  0
 36 38  1  0  0  0  0
 40 41  1  0  0  0  0
 41 43  2  0  0  0  0
 42 43  1  0  0  0  0
 42 45  1  6  0  0  0
 43 48  1  0  0  0  0
 45 46  2  0  0  0  0
 45 47  1  0  0  0  0
 47 52  1  0  0  0  0
 48 49  2  0  0  0  0
 48 50  1  0  0  0  0
 50 51  1  0  0  0  0
M  END
> <ID>
11065

> <Formula>
C41H42N4O8

> <FW>
718.7942

> <DSSTox_CID>
25604

> <DSSTox_RID>
80997

> <DSSTox_GSID>
45604

> <DSSTox_FileID_Sort>
5678

> <TS_ChemName>
Verteporfin

> <TS_ChemName_Synonyms>


> <TS_CASRN>
129497-78-5

> <CASRN_ChemName_Relationship>
primary

> <TS_Description>
single chemical compound

> <ChemNote>
1:1 mixture of regioisomers (methyl ester at C5 or C9); structure shown C5 methyl ester; stereochem

> <STRUCTURE_Shown>
tested chemical

> <STRUCTURE_Formula>
C41H42N4O8

> <STRUCTURE_MW>
718.7942

> <STRUCTURE_ChemType>
defined organic

> <STRUCTURE_DefinedOrganicForm>
parent

> <STRUCTURE_IUPAC>
3-[(1Z,6Z,12Z,17Z,23S,24R)-14-ethenyl-22,23-bis(methoxycarbonyl)-9-(3-methoxy-3-oxopropyl)-4,10,15,24-tetramethyl-25,26,27,28-tetraazahexacyclo[16.6.1.1~3,6~.1~8,11~.1~13,16~.0~19,24~]octacosa-1,3(28),4,6,8,10,12,14,16(26),17,19,21-dodecaen-5-yl]propanoic

> <STRUCTURE_SMILES>
O=C(OC)CCc6c(C)c1nc6cc5nc(cc4nc(cc2nc(c1)C(C=C)=C2C)C3=CC=C([C@@H](C(=O)OC)[C@]34C)C(=O)OC)C(C)=C5CCC(=O)O

> <STRUCTURE_SMILES_Desalt>
O=C(OC)CCc6c(C)c1nc6cc5nc(cc4nc(cc2nc(c1)C(C=C)=C2C)C3=CC=C([C@@H](C(=O)OC)[C@]34C)C(=O)OC)C(C)=C5CCC(=O)O

> <Substance_modify_yyyymmdd>
20110724

$$$$
