129618-40-2
ChemmineR-0915142007XD

 20 23  0  0  0  0  0  0  0  0  1 V2000
    3.7336   -2.4616    0.0000 N   0  0  0  0  0  0  0  0  0  0  0  0
    4.9307   -3.0602    0.0000 C   0  0  0  0  0  0  0  0  0  0  0  0
    2.5514   -3.0602    0.0000 C   0  0  0  0  0  0  0  0  0  0  0  0
    3.7336   -1.1448    0.0000 C   0  0  0  0  0  0  0  0  0  0  0  0
    5.2375   -4.3471    0.0000 C   0  0  0  0  0  0  0  0  0  0  0  0
    5.9034   -2.1399    0.0000 N   0  0  0  0  0  0  0  0  0  0  0  0
    2.2446   -4.3471    0.0000 C   0  0  0  0  0  0  0  0  0  0  0  0
    1.5563   -2.1399    0.0000 N   0  0  0  0  0  0  0  0  0  0  0  0
    3.0677    0.0000    0.0000 C   0  0  0  0  0  0  0  0  0  0  0  0
    4.3995    0.0000    0.0000 C   0  0  0  0  0  0  0  0  0  0  0  0
    4.3995   -5.3797    0.0000 N   0  0  0  0  0  0  0  0  0  0  0  0
    6.5020   -4.7287    0.0000 C   0  0  0  0  0  0  0  0  0  0  0  0
    7.1903   -2.5364    0.0000 C   0  0  0  0  0  0  0  0  0  0  0  0
    3.0677   -5.3797    0.0000 C   0  0  0  0  0  0  0  0  0  0  0  0
    0.9727   -4.7287    0.0000 C   0  0  0  0  0  0  0  0  0  0  0  0
    0.2918   -2.5364    0.0000 C   0  0  0  0  0  0  0  0  0  0  0  0
    7.4821   -3.8383    0.0000 C   0  0  0  0  0  0  0  0  0  0  0  0
    6.8013   -6.0306    0.0000 C   0  0  0  0  0  0  0  0  0  0  0  0
    2.4990   -6.5918    0.0000 O   0  0  0  0  0  0  0  0  0  0  0  0
    0.0000   -3.8383    0.0000 C   0  0  0  0  0  0  0  0  0  0  0  0
  1  2  1  0  0  0  0
  1  3  1  0  0  0  0
  1  4  1  0  0  0  0
  2  5  2  0  0  0  0
  2  6  1  0  0  0  0
  3  7  1  0  0  0  0
  3  8  2  0  0  0  0
  4  9  1  0  0  0  0
  4 10  1  0  0  0  0
  5 11  1  0  0  0  0
  5 12  1  0  0  0  0
  6 13  2  0  0  0  0
  7 14  1  0  0  0  0
  7 15  2  0  0  0  0
  8 16  1  0  0  0  0
  9 10  1  0  0  0  0
 11 14  1  0  0  0  0
 12 17  2  0  0  0  0
 12 18  1  0  0  0  0
 13 17  1  0  0  0  0
 14 19  2  0  0  0  0
 15 20  1  0  0  0  0
 16 20  2  0  0  0  0
M  END
> <ID>
6292

> <Formula>
C15H14N4O

> <FW>
266.2979

> <DSSTox_CID>
10787

> <DSSTox_RID>
78889

> <DSSTox_GSID>
31797

> <DSSTox_FileID_Sort>
3571

> <TS_ChemName>
Nevirapine

> <TS_ChemName_Synonyms>


> <TS_CASRN>
129618-40-2

> <CASRN_ChemName_Relationship>
primary

> <TS_Description>
single chemical compound

> <ChemNote>


> <STRUCTURE_Shown>
tested chemical

> <STRUCTURE_Formula>
C15H14N4O

> <STRUCTURE_MW>
266.2979

> <STRUCTURE_ChemType>
defined organic

> <STRUCTURE_DefinedOrganicForm>
parent

> <STRUCTURE_IUPAC>
11-cyclopropyl-4-methyl-5,11-dihydro-6H-dipyrido[3,2-b:2',3'-e][1,4]diazepin-6-one

> <STRUCTURE_SMILES>
O=C3Nc1c(C)ccnc1N(C2CC2)c4ncccc34

> <STRUCTURE_SMILES_Desalt>
O=C3Nc1c(C)ccnc1N(C2CC2)c4ncccc34

> <Substance_modify_yyyymmdd>
20080429

$$$$
