129722-12-9
ChemmineR-0915142007XD

 30 33  0  0  0  0  0  0  0  0  1 V2000
    0.0000   -2.6623    0.0000 Cl   0  0  0  0  0  0  0  0  0  0  0  0
    1.1550   -1.9967    0.0000 C    0  0  0  0  0  0  0  0  0  0  0  0
    1.1550   -0.6656    0.0000 C    0  0  0  0  0  0  0  0  0  0  0  0
    2.3099    0.0000    0.0000 C    0  0  0  0  0  0  0  0  0  0  0  0
    3.4453   -0.6656    0.0000 C    0  0  0  0  0  0  0  0  0  0  0  0
    3.4453   -1.9967    0.0000 C    0  0  0  0  0  0  0  0  0  0  0  0
    2.3099   -2.6623    0.0000 C    0  0  0  0  0  0  0  0  0  0  0  0
    2.3099   -3.9934    0.0000 Cl   0  0  0  0  0  0  0  0  0  0  0  0
    4.6003   -2.6623    0.0000 N    0  0  0  0  0  0  0  0  0  0  0  0
    5.7553   -1.9967    0.0000 C    0  0  0  0  0  0  0  0  0  0  0  0
    6.9102   -2.6623    0.0000 C    0  0  0  0  0  0  0  0  0  0  0  0
    6.9102   -3.9934    0.0000 N    0  0  0  0  0  0  0  0  0  0  0  0
    8.0652   -4.6590    0.0000 C    0  0  0  0  0  0  0  0  0  0  0  0
    9.2202   -3.9934    0.0000 C    0  0  0  0  0  0  0  0  0  0  0  0
   10.3555   -4.6590    0.0000 C    0  0  0  0  0  0  0  0  0  0  0  0
   11.5105   -3.9934    0.0000 C    0  0  0  0  0  0  0  0  0  0  0  0
   12.6655   -4.6590    0.0000 O    0  0  0  0  0  0  0  0  0  0  0  0
   13.8204   -3.9934    0.0000 C    0  0  0  0  0  0  0  0  0  0  0  0
   13.8204   -2.6623    0.0000 C    0  0  0  0  0  0  0  0  0  0  0  0
   14.9754   -1.9967    0.0000 C    0  0  0  0  0  0  0  0  0  0  0  0
   16.1304   -2.6623    0.0000 C    0  0  0  0  0  0  0  0  0  0  0  0
   17.2658   -1.9967    0.0000 C    0  0  0  0  0  0  0  0  0  0  0  0
   18.4207   -2.6623    0.0000 C    0  0  0  0  0  0  0  0  0  0  0  0
   18.4207   -3.9934    0.0000 C    0  0  0  0  0  0  0  0  0  0  0  0
   19.5757   -4.6590    0.0000 O    0  0  0  0  0  0  0  0  0  0  0  0
   17.2658   -4.6590    0.0000 N    0  0  0  0  0  0  0  0  0  0  0  0
   16.1304   -3.9934    0.0000 C    0  0  0  0  0  0  0  0  0  0  0  0
   14.9754   -4.6590    0.0000 C    0  0  0  0  0  0  0  0  0  0  0  0
    5.7553   -4.6590    0.0000 C    0  0  0  0  0  0  0  0  0  0  0  0
    4.6003   -3.9934    0.0000 C    0  0  0  0  0  0  0  0  0  0  0  0
  1  2  1  0  0  0  0
  2  3  2  0  0  0  0
  2  7  1  0  0  0  0
  3  4  1  0  0  0  0
  4  5  2  0  0  0  0
  5  6  1  0  0  0  0
  6  7  2  0  0  0  0
  6  9  1  0  0  0  0
  7  8  1  0  0  0  0
  9 10  1  0  0  0  0
  9 30  1  0  0  0  0
 10 11  1  0  0  0  0
 11 12  1  0  0  0  0
 12 13  1  0  0  0  0
 12 29  1  0  0  0  0
 13 14  1  0  0  0  0
 14 15  1  0  0  0  0
 15 16  1  0  0  0  0
 16 17  1  0  0  0  0
 17 18  1  0  0  0  0
 18 19  2  0  0  0  0
 18 28  1  0  0  0  0
 19 20  1  0  0  0  0
 20 21  2  0  0  0  0
 21 22  1  0  0  0  0
 21 27  1  0  0  0  0
 22 23  1  0  0  0  0
 23 24  1  0  0  0  0
 24 25  2  0  0  0  0
 24 26  1  0  0  0  0
 26 27  1  0  0  0  0
 27 28  2  0  0  0  0
 29 30  1  0  0  0  0
M  END
> <ID>
11392

> <Formula>
C23H27Cl2N3O2

> <FW>
448.3854

> <DSSTox_CID>
26083

> <DSSTox_RID>
81324

> <DSSTox_GSID>
46083

> <DSSTox_FileID_Sort>
6005

> <TS_ChemName>
Aripiprazole

> <TS_ChemName_Synonyms>


> <TS_CASRN>
129722-12-9

> <CASRN_ChemName_Relationship>
primary

> <TS_Description>
single chemical compound

> <ChemNote>


> <STRUCTURE_Shown>
tested chemical

> <STRUCTURE_Formula>
C23H27Cl2N3O2

> <STRUCTURE_MW>
448.3854

> <STRUCTURE_ChemType>
defined organic

> <STRUCTURE_DefinedOrganicForm>
parent

> <STRUCTURE_IUPAC>
7-{4-[4-(2,3-dichlorophenyl)piperazin-1-yl]butoxy}-3,4-dihydroquinolin-2(1H)-one

> <STRUCTURE_SMILES>
Clc4cccc(N3CCN(CCCCOc1ccc2CCC(=O)Nc2c1)CC3)c4Cl

> <STRUCTURE_SMILES_Desalt>
Clc4cccc(N3CCN(CCCCOc1ccc2CCC(=O)Nc2c1)CC3)c4Cl

> <Substance_modify_yyyymmdd>
20110819

$$$$
