129979-57-3
ChemmineR-0915142007XD

 79 81  0  0  1  0  0  0  0  0  1 V2000
    6.9019  -12.8532    0.0000 N   0  0  0  0  0  0  0  0  0  0  0  0
    8.0384  -12.1506    0.0000 C   0  0  0  0  0  0  0  0  0  0  0  0
    9.1956  -12.7912    0.0000 O   0  0  0  0  0  0  0  0  0  0  0  0
    8.0384  -10.8281    0.0000 C   0  0  0  0  0  0  0  0  0  0  0  0
    9.1336  -10.0428    0.0000 N   0  0  0  0  0  0  0  0  0  0  0  0
    8.6997   -8.7823    0.0000 C   0  0  0  0  0  0  0  0  0  0  0  0
    7.3565   -8.7823    0.0000 C   0  0  0  0  0  0  0  0  0  0  0  0
    6.9432  -10.0428    0.0000 C   0  0  0  0  0  0  0  0  0  0  0  0
   10.2908  -10.6421    0.0000 C   0  0  0  0  0  0  0  0  0  0  0  0
   11.4480  -10.0015    0.0000 C   0  0  0  0  0  0  0  0  0  0  0  0
   10.2908  -12.0059    0.0000 O   0  0  0  0  0  0  0  0  0  0  0  0
   12.5845  -10.6421    0.0000 N   0  0  0  0  0  0  0  0  0  0  0  0
   10.2908   -7.9971    0.0000 S   0  0  0  0  0  0  0  0  0  0  0  0
   11.4480   -8.6790    0.0000 C   0  0  0  0  0  0  0  0  0  0  0  0
   14.8989  -12.0059    0.0000 C   0  0  0  0  0  0  0  0  0  0  0  0
   13.7417  -10.0015    0.0000 C   0  0  0  0  0  0  0  0  0  0  0  0
   13.7417  -12.6465    0.0000 C   0  0  0  0  0  0  0  0  0  0  0  0
   14.8989  -10.6421    0.0000 C   0  0  0  0  0  0  0  0  0  0  0  0
   13.7417   -8.6790    0.0000 O   0  0  0  0  0  0  0  0  0  0  0  0
   12.5845  -12.0059    0.0000 O   0  0  0  0  0  0  0  0  0  0  0  0
   13.7417  -14.0104    0.0000 N   0  0  0  0  0  0  0  0  0  0  0  0
   16.0561  -10.0015    0.0000 N   0  0  0  0  0  0  0  0  0  0  0  0
   16.0561   -8.6790    0.0000 C   0  0  0  0  0  0  0  0  0  0  0  0
   19.5071  -10.6421    0.0000 C   0  0  0  0  0  0  0  0  0  0  0  0
   14.8989   -7.9971    0.0000 O   0  0  0  0  0  0  0  0  0  0  0  0
   17.1927   -7.9971    0.0000 C   0  0  0  0  0  0  0  0  0  0  0  0
   20.6643  -10.0015    0.0000 O   0  0  0  0  0  0  0  0  0  0  0  0
   18.3499   -8.6790    0.0000 C   0  0  0  0  0  0  0  0  0  0  0  0
   18.3499  -10.0015    0.0000 C   0  0  0  0  0  0  0  0  0  0  0  0
   19.5071  -12.0059    0.0000 N   0  0  0  0  0  0  0  0  0  0  0  0
   17.1927   -6.6539    0.0000 N   0  0  0  0  0  0  0  0  0  0  0  0
   16.0561   -6.0133    0.0000 C   0  0  0  0  0  0  0  0  0  0  0  0
   16.0561   -4.6701    0.0000 C   0  0  0  0  0  0  0  0  0  0  0  0
   14.8989   -6.6539    0.0000 O   0  0  0  0  0  0  0  0  0  0  0  0
   17.1927   -4.0089    0.0000 C   0  0  0  0  0  0  0  0  0  0  0  0
   14.8989   -4.0089    0.0000 N   0  0  0  0  0  0  0  0  0  0  0  0
   18.3499   -4.6701    0.0000 C   0  0  0  0  0  0  0  0  0  0  0  0
   19.5071   -4.0089    0.0000 C   0  0  0  0  0  0  0  0  0  0  0  0
   18.3499   -6.0133    0.0000 C   0  0  0  0  0  0  0  0  0  0  0  0
   19.5071   -6.6539    0.0000 C   0  0  0  0  0  0  0  0  0  0  0  0
   20.6643   -4.6701    0.0000 C   0  0  0  0  0  0  0  0  0  0  0  0
   20.6643   -6.0133    0.0000 C   0  0  0  0  0  0  0  0  0  0  0  0
   13.7417   -4.6701    0.0000 C   0  0  0  0  0  0  0  0  0  0  0  0
   13.7417   -6.0133    0.0000 O   0  0  0  0  0  0  0  0  0  0  0  0
   12.5845   -4.0089    0.0000 C   0  0  0  0  0  0  0  0  0  0  0  0
   12.5845   -2.6657    0.0000 C   0  0  0  0  0  0  0  0  0  0  0  0
   11.4480   -4.6701    0.0000 N   0  0  0  0  0  0  0  0  0  0  0  0
   13.7417   -2.0044    0.0000 C   0  0  0  0  0  0  0  0  0  0  0  0
   13.7417   -0.6819    0.0000 C   0  0  0  0  0  0  0  0  0  0  0  0
   14.8989   -2.6657    0.0000 C   0  0  0  0  0  0  0  0  0  0  0  0
   16.0561   -2.0044    0.0000 C   0  0  0  0  0  0  0  0  0  0  0  0
   16.0561   -0.6819    0.0000 C   0  0  0  0  0  0  0  0  0  0  0  0
   14.8989    0.0000    0.0000 C   0  0  0  0  0  0  0  0  0  0  0  0
   17.1927    0.0000    0.0000 O   0  0  0  0  0  0  0  0  0  0  0  0
   10.2908   -4.0089    0.0000 C   0  0  0  0  0  0  0  0  0  0  0  0
    9.1336   -4.6701    0.0000 C   0  0  0  0  0  0  0  0  0  0  0  0
   10.2908   -2.6657    0.0000 O   0  0  0  0  0  0  0  0  0  0  0  0
    7.9764   -4.0089    0.0000 N   0  0  0  0  0  0  0  0  0  0  0  0
   10.2908   -6.6539    0.0000 S   0  0  0  0  0  0  0  0  0  0  0  0
    9.1336   -6.0133    0.0000 C   0  0  0  0  0  0  0  0  0  0  0  0
   11.5100  -14.1550    0.0000 C   0  0  0  0  0  0  0  0  0  0  0  0
   11.5100  -12.8532    0.0000 O   0  0  0  0  0  0  0  0  0  0  0  0
    9.1956  -14.1757    0.0000 N   0  0  0  0  0  0  0  0  0  0  0  0
   10.3528  -14.8163    0.0000 C   0  0  0  0  0  0  0  0  0  0  0  0
   12.6672  -14.8163    0.0000 N   0  0  0  0  0  0  0  0  0  0  0  0
    1.1159  -14.8163    0.0000 C   0  0  0  0  0  0  0  0  0  0  0  0
    8.0591  -14.8163    0.0000 C   0  0  0  0  0  0  0  0  0  0  0  0
    0.0000  -14.1757    0.0000 N   0  0  0  0  0  0  0  0  0  0  0  0
    8.0591  -16.1595    0.0000 O   0  0  0  0  0  0  0  0  0  0  0  0
    2.2731  -14.1757    0.0000 N   0  0  0  0  0  0  0  0  0  0  0  0
    6.9019  -14.1757    0.0000 C   0  0  0  0  0  0  0  0  0  0  0  0
    1.1159  -16.1595    0.0000 N   0  0  0  0  0  0  0  0  0  0  0  0
    3.4303  -14.8163    0.0000 C   0  0  0  0  0  0  0  0  0  0  0  0
    5.7447  -14.8163    0.0000 C   0  0  0  0  0  0  0  0  0  0  0  0
    4.5875  -14.1757    0.0000 C   0  0  0  0  0  0  0  0  0  0  0  0
    4.9801   -6.6539    0.0000 C   0  0  0  0  0  0  0  0  0  0  0  0
    4.9801   -7.9971    0.0000 O   0  0  0  0  0  0  0  0  0  0  0  0
    6.1166   -6.0133    0.0000 O   0  0  0  0  0  0  0  0  0  0  0  0
    3.8229   -6.0133    0.0000 C   0  0  0  0  0  0  0  0  0  0  0  0
  1  2  1  0  0  0  0
 71  1  1  6  0  0  0
  2  3  2  0  0  0  0
  2  4  1  0  0  0  0
  4  5  1  6  0  0  0
  4  8  1  0  0  0  0
  5  6  1  0  0  0  0
  5  9  1  0  0  0  0
  6  7  1  0  0  0  0
  7  8  1  0  0  0  0
  9 10  1  0  0  0  0
  9 11  2  0  0  0  0
 10 12  1  6  0  0  0
 10 14  1  0  0  0  0
 12 16  1  0  0  0  0
 13 14  1  0  0  0  0
 13 59  1  0  0  0  0
 15 17  1  0  0  0  0
 15 18  1  0  0  0  0
 16 18  1  0  0  0  0
 16 19  2  0  0  0  0
 17 20  2  0  0  0  0
 17 21  1  0  0  0  0
 18 22  1  1  0  0  0
 22 23  1  0  0  0  0
 23 25  2  0  0  0  0
 23 26  1  0  0  0  0
 24 29  1  0  0  0  0
 24 27  2  0  0  0  0
 24 30  1  0  0  0  0
 26 28  1  0  0  0  0
 26 31  1  1  0  0  0
 28 29  1  0  0  0  0
 31 32  1  0  0  0  0
 32 33  1  0  0  0  0
 32 34  2  0  0  0  0
 33 35  1  0  0  0  0
 33 36  1  1  0  0  0
 35 37  1  0  0  0  0
 36 43  1  0  0  0  0
 37 38  2  0  0  0  0
 37 39  1  0  0  0  0
 38 41  1  0  0  0  0
 39 40  2  0  0  0  0
 40 42  1  0  0  0  0
 41 42  2  0  0  0  0
 43 44  2  0  0  0  0
 43 45  1  0  0  0  0
 45 46  1  0  0  0  0
 45 47  1  1  0  0  0
 46 48  1  0  0  0  0
 47 55  1  0  0  0  0
 48 49  2  0  0  0  0
 48 50  1  0  0  0  0
 49 53  1  0  0  0  0
 50 51  2  0  0  0  0
 51 52  1  0  0  0  0
 52 53  2  0  0  0  0
 52 54  1  0  0  0  0
 55 56  1  0  0  0  0
 55 57  2  0  0  0  0
 56 58  1  6  0  0  0
 56 60  1  0  0  0  0
 59 60  1  0  0  0  0
 61 62  2  0  0  0  0
 61 64  1  0  0  0  0
 61 65  1  0  0  0  0
 63 64  1  0  0  0  0
 63 67  1  0  0  0  0
 66 68  2  0  0  0  0
 66 70  1  0  0  0  0
 66 72  1  0  0  0  0
 67 71  1  0  0  0  0
 67 69  2  0  0  0  0
 70 73  1  0  0  0  0
 71 74  1  0  0  0  0
 73 75  1  0  0  0  0
 74 75  1  0  0  0  0
 76 77  2  0  0  0  0
 76 78  1  0  0  0  0
 76 79  1  0  0  0  0
M  END
> <ID>
11818

> <Formula>
C48H69N15O14S2

> <FW>
1144.2836 (1084.2316+60.0520)

> <DSSTox_CID>
26597

> <DSSTox_RID>
81753

> <DSSTox_GSID>
46597

> <DSSTox_FileID_Sort>
6434

> <TS_ChemName>
Argipressin acetate

> <TS_ChemName_Synonyms>


> <TS_CASRN>
129979-57-3

> <CASRN_ChemName_Relationship>
primary

> <TS_Description>
single chemical compound

> <ChemNote>
stereochem; tautomers; parent [113-79-1]

> <STRUCTURE_Shown>
tested chemical

> <STRUCTURE_Formula>
C48H69N15O14S2

> <STRUCTURE_MW>
1144.2836

> <STRUCTURE_ChemType>
defined organic

> <STRUCTURE_DefinedOrganicForm>
complex

> <STRUCTURE_IUPAC>
1-{[(4R,7S,10S,13S,16S,19R)-19-amino-7-(2-amino-2-oxoethyl)-10-(3-amino-3-oxopropyl)-13-benzyl-16-(4-hydroxybenzyl)-6,9,12,15,18-pentaoxo-1,2-dithia-5,8,11,14,17-pentaazacycloicosan-4-yl]carbonyl}-L-prolyl-L-arginylglycinamide acetate (1:1)

> <STRUCTURE_SMILES>
CC(=O)O.NC(=O)CNC(=O)[C@H](CCCNC(=N)N)NC(=O)[C@@H]1CCCN1C(=O)[C@@H]4CSSC[C@H](N)C(=O)N[C@@H](Cc2ccc(O)cc2)C(=O)N[C@@H](Cc3ccccc3)C(=O)N[C@@H](CCC(N)=O)C(=O)N[C@@H](CC(N)=O)C(=O)N4

> <STRUCTURE_SMILES_Desalt>
NC(=O)CNC(=O)[C@H](CCCNC(=N)N)NC(=O)[C@@H]1CCCN1C(=O)[C@@H]4CSSC[C@H](N)C(=O)N[C@@H](Cc2ccc(O)cc2)C(=O)N[C@@H](Cc3ccccc3)C(=O)N[C@@H](CCC(N)=O)C(=O)N[C@@H](CC(N)=O)C(=O)N4

> <Substance_modify_yyyymmdd>
20110809

$$$$
