130-20-1
ChemmineR-0915142007XD

 36 42  0  0  0  0  0  0  0  0  1 V2000
    8.0627   -3.9899    0.0000 N    0  0  0  0  0  0  0  0  0  0  0  0
    5.7433   -5.3153    0.0000 N    0  0  0  0  0  0  0  0  0  0  0  0
    8.0627   -5.3153    0.0000 C    0  0  0  0  0  0  0  0  0  0  0  0
    5.7433   -3.9899    0.0000 C    0  0  0  0  0  0  0  0  0  0  0  0
    9.2085   -5.9780    0.0000 C    0  0  0  0  0  0  0  0  0  0  0  0
    4.5974   -3.3134    0.0000 C    0  0  0  0  0  0  0  0  0  0  0  0
    6.9030   -3.3134    0.0000 C    0  0  0  0  0  0  0  0  0  0  0  0
    6.9030   -5.9780    0.0000 C    0  0  0  0  0  0  0  0  0  0  0  0
    3.4377   -3.9899    0.0000 C    0  0  0  0  0  0  0  0  0  0  0  0
   10.3682   -5.3153    0.0000 C    0  0  0  0  0  0  0  0  0  0  0  0
    4.5974   -1.9881    0.0000 C    0  0  0  0  0  0  0  0  0  0  0  0
    9.2085   -7.3033    0.0000 C    0  0  0  0  0  0  0  0  0  0  0  0
   10.3682   -7.9798    0.0000 C    0  0  0  0  0  0  0  0  0  0  0  0
    3.4377   -1.3254    0.0000 C    0  0  0  0  0  0  0  0  0  0  0  0
   11.5003   -5.9780    0.0000 C    0  0  0  0  0  0  0  0  0  0  0  0
    2.2918   -3.3134    0.0000 C    0  0  0  0  0  0  0  0  0  0  0  0
    2.2918   -1.9881    0.0000 C    0  0  0  0  0  0  0  0  0  0  0  0
   11.5003   -7.3033    0.0000 C    0  0  0  0  0  0  0  0  0  0  0  0
    6.9030   -1.9881    0.0000 C    0  0  0  0  0  0  0  0  0  0  0  0
    6.9030   -7.3033    0.0000 C    0  0  0  0  0  0  0  0  0  0  0  0
    8.0627   -7.9798    0.0000 C    0  0  0  0  0  0  0  0  0  0  0  0
    5.7433   -1.3254    0.0000 C    0  0  0  0  0  0  0  0  0  0  0  0
    1.1597   -3.9899    0.0000 C    0  0  0  0  0  0  0  0  0  0  0  0
   12.6462   -5.3153    0.0000 C    0  0  0  0  0  0  0  0  0  0  0  0
   12.6462   -7.9798    0.0000 C    0  0  0  0  0  0  0  0  0  0  0  0
    1.1597   -1.3254    0.0000 C    0  0  0  0  0  0  0  0  0  0  0  0
    0.0000   -3.3134    0.0000 C    0  0  0  0  0  0  0  0  0  0  0  0
   13.8059   -7.3033    0.0000 C    0  0  0  0  0  0  0  0  0  0  0  0
   13.8059   -5.9780    0.0000 C    0  0  0  0  0  0  0  0  0  0  0  0
    0.0000   -1.9881    0.0000 C    0  0  0  0  0  0  0  0  0  0  0  0
    3.4377   -5.3153    0.0000 O    0  0  0  0  0  0  0  0  0  0  0  0
   10.3682   -9.3052    0.0000 O    0  0  0  0  0  0  0  0  0  0  0  0
   10.3682   -3.9899    0.0000 O    0  0  0  0  0  0  0  0  0  0  0  0
    3.4377    0.0000    0.0000 O    0  0  0  0  0  0  0  0  0  0  0  0
    5.7433   -7.9798    0.0000 Cl   0  0  0  0  0  0  0  0  0  0  0  0
    8.0627   -1.3254    0.0000 Cl   0  0  0  0  0  0  0  0  0  0  0  0
  1  3  1  0  0  0  0
  1  7  1  0  0  0  0
  2  4  1  0  0  0  0
  2  8  1  0  0  0  0
  3  5  2  0  0  0  0
  3  8  1  0  0  0  0
  4  6  2  0  0  0  0
  4  7  1  0  0  0  0
  5 10  1  0  0  0  0
  5 12  1  0  0  0  0
  6  9  1  0  0  0  0
  6 11  1  0  0  0  0
  7 19  2  0  0  0  0
  8 20  2  0  0  0  0
  9 16  1  0  0  0  0
  9 31  2  0  0  0  0
 10 15  1  0  0  0  0
 10 33  2  0  0  0  0
 11 14  1  0  0  0  0
 11 22  2  0  0  0  0
 12 13  1  0  0  0  0
 12 21  2  0  0  0  0
 13 18  1  0  0  0  0
 13 32  2  0  0  0  0
 14 17  1  0  0  0  0
 14 34  2  0  0  0  0
 15 18  2  0  0  0  0
 15 24  1  0  0  0  0
 16 17  2  0  0  0  0
 16 23  1  0  0  0  0
 17 26  1  0  0  0  0
 18 25  1  0  0  0  0
 19 22  1  0  0  0  0
 19 36  1  0  0  0  0
 20 21  1  0  0  0  0
 20 35  1  0  0  0  0
 23 27  2  0  0  0  0
 24 29  2  0  0  0  0
 25 28  2  0  0  0  0
 26 30  2  0  0  0  0
 27 30  1  0  0  0  0
 28 29  1  0  0  0  0
M  END
> <ID>
10186

> <Formula>
C28H12Cl2N2O4

> <FW>
511.3119

> <DSSTox_CID>
24532

> <DSSTox_RID>
80295

> <DSSTox_GSID>
44532

> <DSSTox_FileID_Sort>
4977

> <TS_ChemName>
D&C Blue No. 9

> <TS_ChemName_Synonyms>
Vat Bllue 6; 7,16-dichloro-6,15-dihydro-5,9,14,18-Anthrazinetetrone

> <TS_CASRN>
130-20-1

> <CASRN_ChemName_Relationship>
primary

> <TS_Description>
single chemical compound

> <ChemNote>
C.I. 69825

> <STRUCTURE_Shown>
tested chemical

> <STRUCTURE_Formula>
C28H12Cl2N2O4

> <STRUCTURE_MW>
511.3119

> <STRUCTURE_ChemType>
defined organic

> <STRUCTURE_DefinedOrganicForm>
parent

> <STRUCTURE_IUPAC>
7,16-dichloro-6,15-dihydrodinaphtho[2,3-a:2',3'-h]phenazine-5,9,14,18-tetrone

> <STRUCTURE_SMILES>
O=C4c3c2Nc6c(Cl)cc1C(=O)c7ccccc7C(=O)c1c6Nc2c(Cl)cc3C(=O)c5ccccc45

> <STRUCTURE_SMILES_Desalt>
O=C4c3c2Nc6c(Cl)cc1C(=O)c7ccccc7C(=O)c1c6Nc2c(Cl)cc3C(=O)c5ccccc45

> <Substance_modify_yyyymmdd>
20131118

$$$$
