130-95-0
ChemmineR-0915142007XD

 25 28  0  0  1  0  0  0  0  0  1 V2000
    4.5482   -1.3846    0.0000 C   0  0  0  0  0  0  0  0  0  0  0  0
    5.7495   -2.0724    0.0000 C   0  0  0  0  0  0  0  0  0  0  0  0
    4.5482    0.0000    0.0000 C   0  0  0  0  0  0  0  0  0  0  0  0
    3.3561   -2.0724    0.0000 C   0  0  0  0  0  0  0  0  0  0  0  0
    4.9884   -2.1732    0.0000 N   0  0  0  0  0  0  0  0  0  0  0  0
    6.1804   -2.8610    0.0000 C   0  0  0  0  0  0  0  0  0  0  0  0
    4.9884   -0.7886    0.0000 C   0  0  0  0  0  0  0  0  0  0  0  0
    3.7871   -2.8610    0.0000 C   0  0  0  0  0  0  0  0  0  0  0  0
    6.7306   -1.1095    0.0000 C   0  0  0  0  0  0  0  0  0  0  0  0
    8.0694   -1.4763    0.0000 C   0  0  0  0  0  0  0  0  0  0  0  0
    3.4203   -4.1906    0.0000 C   0  0  0  0  0  0  0  0  0  0  0  0
    4.8783   -3.7046    0.0000 H   0  0  0  0  0  0  0  0  0  0  0  0
    2.0815   -4.5391    0.0000 O   0  0  0  0  0  0  0  0  0  0  0  0
    4.3832   -5.1809    0.0000 C   0  0  0  0  0  0  0  0  0  0  0  0
    5.7220   -4.8325    0.0000 C   0  0  0  0  0  0  0  0  0  0  0  0
    4.0164   -6.5106    0.0000 C   0  0  0  0  0  0  0  0  0  0  0  0
    6.6848   -5.8228    0.0000 C   0  0  0  0  0  0  0  0  0  0  0  0
    4.9792   -7.4917    0.0000 C   0  0  0  0  0  0  0  0  0  0  0  0
    6.3180   -7.1524    0.0000 N   0  0  0  0  0  0  0  0  0  0  0  0
    2.6776   -6.8498    0.0000 C   0  0  0  0  0  0  0  0  0  0  0  0
    2.3016   -8.1795    0.0000 C   0  0  0  0  0  0  0  0  0  0  0  0
    4.6124   -8.8305    0.0000 C   0  0  0  0  0  0  0  0  0  0  0  0
    3.2736   -9.1698    0.0000 C   0  0  0  0  0  0  0  0  0  0  0  0
    0.9628   -8.5279    0.0000 O   0  0  0  0  0  0  0  0  0  0  0  0
    0.0000   -7.5376    0.0000 C   0  0  0  0  0  0  0  0  0  0  0  0
  1  2  1  0  0  0  0
  3  1  1  6  0  0  0
  1  4  1  0  0  0  0
  2  6  1  0  0  0  0
  2  9  1  1  0  0  0
  3  7  1  0  0  0  0
  4  8  1  0  0  0  0
  5  6  1  0  0  0  0
  7  5  1  6  0  0  0
  5  8  1  0  0  0  0
  8 11  1  0  0  0  0
  8 12  1  1  0  0  0
  9 10  2  0  0  0  0
 11 13  1  1  0  0  0
 11 14  1  0  0  0  0
 14 15  2  0  0  0  0
 14 16  1  0  0  0  0
 15 17  1  0  0  0  0
 16 20  2  0  0  0  0
 16 18  1  0  0  0  0
 17 19  2  0  0  0  0
 18 19  1  0  0  0  0
 18 22  2  0  0  0  0
 20 21  1  0  0  0  0
 21 23  2  0  0  0  0
 21 24  1  0  0  0  0
 22 23  1  0  0  0  0
 24 25  1  0  0  0  0
M  END
> <ID>
9956

> <Formula>
C20H24N2O2

> <FW>
324.4168

> <DSSTox_CID>
24280

> <DSSTox_RID>
80140

> <DSSTox_GSID>
44280

> <DSSTox_FileID_Sort>
4822

> <TS_ChemName>
Quinine

> <TS_ChemName_Synonyms>


> <TS_CASRN>
130-95-0

> <CASRN_ChemName_Relationship>
primary

> <TS_Description>
single chemical compound

> <ChemNote>
stereochem

> <STRUCTURE_Shown>
tested chemical

> <STRUCTURE_Formula>
C20H24N2O2

> <STRUCTURE_MW>
324.4168

> <STRUCTURE_ChemType>
defined organic

> <STRUCTURE_DefinedOrganicForm>
parent

> <STRUCTURE_IUPAC>
(8alpha,9R)-6'-methoxycinchonan-9-ol

> <STRUCTURE_SMILES>
COc1cc2c(cc1)nccc2[C@@H](O)[C@@H]4CC3CCN4C[C@@H]3C=C

> <STRUCTURE_SMILES_Desalt>
COc1cc2c(cc1)nccc2[C@@H](O)[C@@H]4CC3CCN4C[C@@H]3C=C

> <Substance_modify_yyyymmdd>
20090302

$$$$
