130-61-0
ChemmineR-0915142007XD

 26 28  0  0  0  0  0  0  0  0  1 V2000
    3.5133   -5.9824    0.0000 N    0  0  0  0  0  0  0  0  0  0  0  0
    4.6454   -6.6655    0.0000 C    0  0  0  0  0  0  0  0  0  0  0  0
    3.5133   -8.6662    0.0000 S    0  0  0  0  0  0  0  0  0  0  0  0
    2.3520   -6.6655    0.0000 C    0  0  0  0  0  0  0  0  0  0  0  0
    4.6454   -7.9440    0.0000 C    0  0  0  0  0  0  0  0  0  0  0  0
    2.3520   -7.9440    0.0000 C    0  0  0  0  0  0  0  0  0  0  0  0
    3.5133   -4.6747    0.0000 C    0  0  0  0  0  0  0  0  0  0  0  0
    5.8067   -1.9811    0.0000 N    0  0  0  0  0  0  0  0  0  0  0  0
    5.8067   -5.9824    0.0000 C    0  0  0  0  0  0  0  0  0  0  0  0
    4.6454   -3.9915    0.0000 C    0  0  0  0  0  0  0  0  0  0  0  0
    4.6454   -2.6350    0.0000 C    0  0  0  0  0  0  0  0  0  0  0  0
    5.8067   -8.6662    0.0000 C    0  0  0  0  0  0  0  0  0  0  0  0
    6.9290   -6.6655    0.0000 C    0  0  0  0  0  0  0  0  0  0  0  0
    8.0904   -5.9824    0.0000 S    0  0  0  0  0  0  0  0  0  0  0  0
    6.9290   -7.9440    0.0000 C    0  0  0  0  0  0  0  0  0  0  0  0
    6.9290   -2.6350    0.0000 C    0  0  0  0  0  0  0  0  0  0  0  0
    5.8067   -0.6831    0.0000 C    0  0  0  0  0  0  0  0  0  0  0  0
    1.1906   -5.9824    0.0000 C    0  0  0  0  0  0  0  0  0  0  0  0
    1.1906   -8.6662    0.0000 C    0  0  0  0  0  0  0  0  0  0  0  0
    3.5133   -1.9811    0.0000 C    0  0  0  0  0  0  0  0  0  0  0  0
    9.2712   -6.6655    0.0000 C    0  0  0  0  0  0  0  0  0  0  0  0
    4.6454    0.0000    0.0000 C    0  0  0  0  0  0  0  0  0  0  0  0
    0.0000   -6.6655    0.0000 C    0  0  0  0  0  0  0  0  0  0  0  0
    0.0000   -7.9440    0.0000 C    0  0  0  0  0  0  0  0  0  0  0  0
    3.5133   -0.6831    0.0000 C    0  0  0  0  0  0  0  0  0  0  0  0
    2.7911   -9.7592    0.0000 Cl   0  0  0  0  0  0  0  0  0  0  0  0
  1  2  1  0  0  0  0
  1  4  1  0  0  0  0
  1  7  1  0  0  0  0
  2  5  2  0  0  0  0
  2  9  1  0  0  0  0
  3  6  1  0  0  0  0
  3  5  1  0  0  0  0
  4  6  2  0  0  0  0
  4 18  1  0  0  0  0
  5 12  1  0  0  0  0
  6 19  1  0  0  0  0
  7 10  1  0  0  0  0
  8 11  1  0  0  0  0
  8 16  1  0  0  0  0
  8 17  1  0  0  0  0
  9 13  2  0  0  0  0
 10 11  1  0  0  0  0
 11 20  1  0  0  0  0
 12 15  2  0  0  0  0
 13 14  1  0  0  0  0
 13 15  1  0  0  0  0
 14 21  1  0  0  0  0
 17 22  1  0  0  0  0
 18 23  2  0  0  0  0
 19 24  2  0  0  0  0
 20 25  1  0  0  0  0
 22 25  1  0  0  0  0
 23 24  1  0  0  0  0
M  END
> <ID>
14265

> <Formula>
C21H27ClN2S2

> <FW>
407.0355 (370.5745+36.4609)

> <DSSTox_CID>
29360

> <DSSTox_RID>
83476

> <DSSTox_GSID>
49401

> <DSSTox_FileID_Sort>
8151

> <TS_ChemName>
Thioridazine hydrochloride

> <TS_ChemName_Synonyms>


> <TS_CASRN>
130-61-0

> <CASRN_ChemName_Relationship>
primary

> <TS_Description>
single chemical compound

> <ChemNote>


> <STRUCTURE_Shown>
tested chemical

> <STRUCTURE_Formula>
C21H27ClN2S2

> <STRUCTURE_MW>
407.0355

> <STRUCTURE_ChemType>
defined organic

> <STRUCTURE_DefinedOrganicForm>
complex

> <STRUCTURE_IUPAC>
10-[2-(1-methylpiperidin-2-yl)ethyl]-2-(methylsulfanyl)-10H-phenothiazine hydrochloride (1:1)

> <STRUCTURE_SMILES>
Cl.CN4CCCCC4CCN1c3ccccc3Sc2ccc(SC)cc12

> <STRUCTURE_SMILES_Desalt>
CN4CCCCC4CCN1c3ccccc3Sc2ccc(SC)cc12

> <Substance_modify_yyyymmdd>
20111204

$$$$
