130-85-8
ChemmineR-0915142007XD

 29 32  0  0  0  0  0  0  0  0  1 V2000
    5.1485   -1.6717    0.0000 C   0  0  0  0  0  0  0  0  0  0  0  0
    5.8357   -4.7998    0.0000 O   0  0  0  0  0  0  0  0  0  0  0  0
    7.9997   -4.5331    0.0000 C   0  0  0  0  0  0  0  0  0  0  0  0
    6.8715   -2.5743    0.0000 C   0  0  0  0  0  0  0  0  0  0  0  0
    6.8715   -3.8768    0.0000 C   0  0  0  0  0  0  0  0  0  0  0  0
    9.1278   -3.8768    0.0000 C   0  0  0  0  0  0  0  0  0  0  0  0
    7.9997   -5.8151    0.0000 C   0  0  0  0  0  0  0  0  0  0  0  0
    7.9997   -1.9384    0.0000 C   0  0  0  0  0  0  0  0  0  0  0  0
    9.1278   -2.5948    0.0000 C   0  0  0  0  0  0  0  0  0  0  0  0
    6.8920   -6.4818    0.0000 O   0  0  0  0  0  0  0  0  0  0  0  0
    9.1176   -6.4818    0.0000 O   0  0  0  0  0  0  0  0  0  0  0  0
    8.0202   -0.6359    0.0000 C   0  0  0  0  0  0  0  0  0  0  0  0
   10.2560   -1.9384    0.0000 C   0  0  0  0  0  0  0  0  0  0  0  0
    9.1278    0.0000    0.0000 C   0  0  0  0  0  0  0  0  0  0  0  0
   10.2560   -0.6359    0.0000 C   0  0  0  0  0  0  0  0  0  0  0  0
    3.8357   -4.7998    0.0000 O   0  0  0  0  0  0  0  0  0  0  0  0
    2.2563   -4.7690    0.0000 C   0  0  0  0  0  0  0  0  0  0  0  0
    3.3845   -2.8307    0.0000 C   0  0  0  0  0  0  0  0  0  0  0  0
    3.3845   -4.1332    0.0000 C   0  0  0  0  0  0  0  0  0  0  0  0
    1.1282   -4.1332    0.0000 C   0  0  0  0  0  0  0  0  0  0  0  0
    2.2563   -6.0715    0.0000 C   0  0  0  0  0  0  0  0  0  0  0  0
    2.2563   -2.1743    0.0000 C   0  0  0  0  0  0  0  0  0  0  0  0
    1.1282   -2.8307    0.0000 C   0  0  0  0  0  0  0  0  0  0  0  0
    3.3640   -6.7279    0.0000 O   0  0  0  0  0  0  0  0  0  0  0  0
    1.1282   -6.7279    0.0000 O   0  0  0  0  0  0  0  0  0  0  0  0
    2.2358   -0.8923    0.0000 C   0  0  0  0  0  0  0  0  0  0  0  0
    0.0000   -2.1845    0.0000 C   0  0  0  0  0  0  0  0  0  0  0  0
    1.1076   -0.2461    0.0000 C   0  0  0  0  0  0  0  0  0  0  0  0
    0.0000   -0.8923    0.0000 C   0  0  0  0  0  0  0  0  0  0  0  0
  1  4  1  0  0  0  0
  1 18  1  0  0  0  0
  2  5  1  0  0  0  0
  3  5  2  0  0  0  0
  3  6  1  0  0  0  0
  3  7  1  0  0  0  0
  4  5  1  0  0  0  0
  4  8  2  0  0  0  0
  6  9  2  0  0  0  0
  7 10  1  0  0  0  0
  7 11  2  0  0  0  0
  8  9  1  0  0  0  0
  8 12  1  0  0  0  0
  9 13  1  0  0  0  0
 12 14  2  0  0  0  0
 13 15  2  0  0  0  0
 14 15  1  0  0  0  0
 16 19  1  0  0  0  0
 17 19  2  0  0  0  0
 17 21  1  0  0  0  0
 17 20  1  0  0  0  0
 18 19  1  0  0  0  0
 18 22  2  0  0  0  0
 20 23  2  0  0  0  0
 21 24  1  0  0  0  0
 21 25  2  0  0  0  0
 22 23  1  0  0  0  0
 22 26  1  0  0  0  0
 23 27  1  0  0  0  0
 26 28  2  0  0  0  0
 27 29  2  0  0  0  0
 28 29  1  0  0  0  0
M  END
> <ID>
13971

> <Formula>
C23H16O6

> <FW>
388.3695

> <DSSTox_CID>
28910

> <DSSTox_RID>
83178

> <DSSTox_GSID>
48984

> <DSSTox_FileID_Sort>
7854

> <TS_ChemName>
Pamoic acid

> <TS_ChemName_Synonyms>


> <TS_CASRN>
130-85-8

> <CASRN_ChemName_Relationship>
primary

> <TS_Description>
single chemical compound

> <ChemNote>


> <STRUCTURE_Shown>
tested chemical

> <STRUCTURE_Formula>
C23H16O6

> <STRUCTURE_MW>
388.3695

> <STRUCTURE_ChemType>
defined organic

> <STRUCTURE_DefinedOrganicForm>
parent

> <STRUCTURE_IUPAC>
4,4'-methanediylbis(3-hydroxynaphthalene-2-carboxylic acid)

> <STRUCTURE_SMILES>
O=C(O)c4cc1ccccc1c(Cc2c3ccccc3cc(C(=O)O)c2O)c4O

> <STRUCTURE_SMILES_Desalt>
O=C(O)c4cc1ccccc1c(Cc2c3ccccc3cc(C(=O)O)c2O)c4O

> <Substance_modify_yyyymmdd>
20111204

$$$$
