130-80-3
ChemmineR-0915142007XD

 28 29  0  0  0  0  0  0  0  0  1 V2000
    9.2056   -2.0035    0.0000 C   0  0  0  0  0  0  0  0  0  0  0  0
    8.0657   -2.6598    0.0000 C   0  0  0  0  0  0  0  0  0  0  0  0
   10.3801   -2.6598    0.0000 C   0  0  0  0  0  0  0  0  0  0  0  0
    6.9086   -2.0035    0.0000 C   0  0  0  0  0  0  0  0  0  0  0  0
   14.9916   -4.0242    0.0000 C   0  0  0  0  0  0  0  0  0  0  0  0
    2.2798   -0.6563    0.0000 C   0  0  0  0  0  0  0  0  0  0  0  0
    3.4370    0.0000    0.0000 O   0  0  0  0  0  0  0  0  0  0  0  0
   13.8344   -4.6978    0.0000 O   0  0  0  0  0  0  0  0  0  0  0  0
   14.9916   -2.7289    0.0000 O   0  0  0  0  0  0  0  0  0  0  0  0
    2.2798   -1.9862    0.0000 O   0  0  0  0  0  0  0  0  0  0  0  0
   10.3801   -4.0070    0.0000 C   0  0  0  0  0  0  0  0  0  0  0  0
    5.7514   -2.6598    0.0000 C   0  0  0  0  0  0  0  0  0  0  0  0
   11.5200   -2.0208    0.0000 C   0  0  0  0  0  0  0  0  0  0  0  0
    6.9086   -0.6563    0.0000 C   0  0  0  0  0  0  0  0  0  0  0  0
   12.6772   -4.0070    0.0000 C   0  0  0  0  0  0  0  0  0  0  0  0
    4.6115   -0.6563    0.0000 C   0  0  0  0  0  0  0  0  0  0  0  0
   12.6772   -2.6598    0.0000 C   0  0  0  0  0  0  0  0  0  0  0  0
    4.6115   -2.0035    0.0000 C   0  0  0  0  0  0  0  0  0  0  0  0
   11.5200   -4.6805    0.0000 C   0  0  0  0  0  0  0  0  0  0  0  0
    5.7514    0.0000    0.0000 C   0  0  0  0  0  0  0  0  0  0  0  0
    8.0657   -3.9897    0.0000 C   0  0  0  0  0  0  0  0  0  0  0  0
    9.2056   -0.6563    0.0000 C   0  0  0  0  0  0  0  0  0  0  0  0
   16.1142   -4.7496    0.0000 C   0  0  0  0  0  0  0  0  0  0  0  0
    1.1745    0.0000    0.0000 C   0  0  0  0  0  0  0  0  0  0  0  0
    6.9086   -4.6633    0.0000 C   0  0  0  0  0  0  0  0  0  0  0  0
   10.3628    0.0000    0.0000 C   0  0  0  0  0  0  0  0  0  0  0  0
    0.0000   -0.6563    0.0000 C   0  0  0  0  0  0  0  0  0  0  0  0
   17.2714   -4.1451    0.0000 C   0  0  0  0  0  0  0  0  0  0  0  0
  1  2  2  0  0  0  0
  1  3  1  0  0  0  0
  1 22  1  0  0  0  0
  2  4  1  0  0  0  0
  2 21  1  0  0  0  0
  3 11  1  0  0  0  0
  3 13  2  0  0  0  0
  4 12  2  0  0  0  0
  4 14  1  0  0  0  0
  5  8  1  0  0  0  0
  5  9  2  0  0  0  0
  5 23  1  0  0  0  0
  6  7  1  0  0  0  0
  6 10  2  0  0  0  0
  6 24  1  0  0  0  0
  7 16  1  0  0  0  0
  8 15  1  0  0  0  0
 11 19  2  0  0  0  0
 12 18  1  0  0  0  0
 13 17  1  0  0  0  0
 14 20  2  0  0  0  0
 15 17  2  0  0  0  0
 15 19  1  0  0  0  0
 16 20  1  0  0  0  0
 16 18  2  0  0  0  0
 21 25  1  0  0  0  0
 22 26  1  0  0  0  0
 23 28  1  0  0  0  0
 24 27  1  0  0  0  0
M  END
> <ID>
12295

> <Formula>
C24H28O4

> <FW>
380.4767

> <DSSTox_CID>
27146

> <DSSTox_RID>
82152

> <DSSTox_GSID>
47146

> <DSSTox_FileID_Sort>
6833

> <TS_ChemName>
Diethylstilbestrol dipropionate

> <TS_ChemName_Synonyms>


> <TS_CASRN>
130-80-3

> <CASRN_ChemName_Relationship>
primary

> <TS_Description>
single chemical compound

> <ChemNote>


> <STRUCTURE_Shown>
tested chemical

> <STRUCTURE_Formula>
C24H28O4

> <STRUCTURE_MW>
380.4767

> <STRUCTURE_ChemType>
defined organic

> <STRUCTURE_DefinedOrganicForm>
parent

> <STRUCTURE_IUPAC>
(3E)-hex-3-ene-3,4-diyldibenzene-4,1-diyl dipropanoate

> <STRUCTURE_SMILES>
O=C(Oc1ccc(cc1)C(\CC)=C(/CC)c2ccc(OC(=O)CC)cc2)CC

> <STRUCTURE_SMILES_Desalt>
O=C(Oc1ccc(cc1)C(\CC)=C(/CC)c2ccc(OC(=O)CC)cc2)CC

> <Substance_modify_yyyymmdd>
20100502

$$$$
