130-37-0
ChemmineR-0915142007XD

 18 18  0  0  0  0  0  0  0  0  2 V2000
    4.6095   -1.9828    0.0000 C    0  0  0  0  0  0  0  0  0  0  0  0
    5.7529   -1.3315    0.0000 S    0  0  0  0  0  0  0  0  0  0  0  0
    3.4517   -1.3315    0.0000 C    0  0  0  0  0  0  0  0  0  0  0  0
    4.6095   -3.3215    0.0000 C    0  0  0  0  0  0  0  0  0  0  0  0
    2.3011   -1.9828    0.0000 C    0  0  0  0  0  0  0  0  0  0  0  0
    3.4517   -3.9727    0.0000 C    0  0  0  0  0  0  0  0  0  0  0  0
    2.3011   -3.3215    0.0000 C    0  0  0  0  0  0  0  0  0  0  0  0
    6.9107   -0.6440    0.0000 O    0  5  0  0  0  0  0  0  0  0  0  0
    5.0799   -0.1664    0.0000 O    0  0  0  0  0  0  0  0  0  0  0  0
    6.4331   -2.4821    0.0000 O    0  0  0  0  0  0  0  0  0  0  0  0
    3.4517    0.0000    0.0000 O    0  0  0  0  0  0  0  0  0  0  0  0
    3.4517   -5.3042    0.0000 O    0  0  0  0  0  0  0  0  0  0  0  0
    5.5937   -2.8728    0.0000 C    0  0  0  0  0  0  0  0  0  0  0  0
    1.1650   -1.3315    0.0000 C    0  0  0  0  0  0  0  0  0  0  0  0
    1.1650   -3.9727    0.0000 C    0  0  0  0  0  0  0  0  0  0  0  0
    0.0000   -1.9828    0.0000 C    0  0  0  0  0  0  0  0  0  0  0  0
    0.0000   -3.3215    0.0000 C    0  0  0  0  0  0  0  0  0  0  0  0
    7.2363   -1.9683    0.0000 Na   0  3  0  0  0  0  0  0  0  0  0  0
  1  2  1  0  0  0  0
  1  3  1  0  0  0  0
  1  4  1  0  0  0  0
  1 13  1  0  0  0  0
  2  8  1  0  0  0  0
  2  9  2  0  0  0  0
  2 10  2  0  0  0  0
  3  5  1  0  0  0  0
  3 11  2  0  0  0  0
  4  6  1  0  0  0  0
  5 14  1  0  0  0  0
  5  7  2  0  0  0  0
  6  7  1  0  0  0  0
  6 12  2  0  0  0  0
  7 15  1  0  0  0  0
 14 16  2  0  0  0  0
 15 17  2  0  0  0  0
 16 17  1  0  0  0  0
M  END
> <ID>
7796

> <Formula>
C11H9NaO5S

> <FW>
276.2409 (253.2517+22.9892)

> <DSSTox_CID>
20547

> <DSSTox_RID>
79505

> <DSSTox_GSID>
40547

> <DSSTox_FileID_Sort>
4187

> <TS_ChemName>
Menadione sodium bisulfite

> <TS_ChemName_Synonyms>


> <TS_CASRN>
130-37-0

> <CASRN_ChemName_Relationship>
primary

> <TS_Description>
single chemical compound

> <ChemNote>
parent [130-36-9]

> <STRUCTURE_Shown>
tested chemical

> <STRUCTURE_Formula>
C11H9NaO5S

> <STRUCTURE_MW>
276.2409

> <STRUCTURE_ChemType>
defined organic

> <STRUCTURE_DefinedOrganicForm>
salt

> <STRUCTURE_IUPAC>
sodium 2-methyl-1,4-dioxo-1,2,3,4-tetrahydronaphthalene-2-sulfonate

> <STRUCTURE_SMILES>
[Na+].[O-]S(=O)(=O)C1(C)CC(=O)c2ccccc2C1=O

> <STRUCTURE_SMILES_Desalt>
O=S(=O)(O)C1(C)CC(=O)c2ccccc2C1=O

> <Substance_modify_yyyymmdd>
20080429

$$$$
