130-16-5
ChemmineR-0915142007XD

 12 13  0  0  0  0  0  0  0  0  1 V2000
    3.4580    0.0000    0.0000 O    0  0  0  0  0  0  0  0  0  0  0  0
    3.4580   -1.3300    0.0000 C    0  0  0  0  0  0  0  0  0  0  0  0
    4.6072   -1.9950    0.0000 C    0  0  0  0  0  0  0  0  0  0  0  0
    4.6072   -3.3250    0.0000 C    0  0  0  0  0  0  0  0  0  0  0  0
    3.4580   -3.9901    0.0000 C    0  0  0  0  0  0  0  0  0  0  0  0
    3.4580   -5.3201    0.0000 Cl   0  0  0  0  0  0  0  0  0  0  0  0
    2.3036   -3.3250    0.0000 C    0  0  0  0  0  0  0  0  0  0  0  0
    1.1491   -3.9901    0.0000 C    0  0  0  0  0  0  0  0  0  0  0  0
    0.0000   -3.3250    0.0000 C    0  0  0  0  0  0  0  0  0  0  0  0
    0.0000   -1.9950    0.0000 C    0  0  0  0  0  0  0  0  0  0  0  0
    1.1491   -1.3300    0.0000 N    0  0  0  0  0  0  0  0  0  0  0  0
    2.3036   -1.9950    0.0000 C    0  0  0  0  0  0  0  0  0  0  0  0
  1  2  1  0  0  0  0
  2  3  2  0  0  0  0
  2 12  1  0  0  0  0
  3  4  1  0  0  0  0
  4  5  2  0  0  0  0
  5  6  1  0  0  0  0
  5  7  1  0  0  0  0
  7  8  2  0  0  0  0
  7 12  1  0  0  0  0
  8  9  1  0  0  0  0
  9 10  2  0  0  0  0
 10 11  1  0  0  0  0
 11 12  2  0  0  0  0
M  END
> <ID>
11333

> <Formula>
C9H6ClNO

> <FW>
179.603

> <DSSTox_CID>
25973

> <DSSTox_RID>
81265

> <DSSTox_GSID>
45973

> <DSSTox_FileID_Sort>
5946

> <TS_ChemName>
Cloxyquin

> <TS_ChemName_Synonyms>


> <TS_CASRN>
130-16-5

> <CASRN_ChemName_Relationship>
primary

> <TS_Description>
single chemical compound

> <ChemNote>


> <STRUCTURE_Shown>
tested chemical

> <STRUCTURE_Formula>
C9H6ClNO

> <STRUCTURE_MW>
179.603

> <STRUCTURE_ChemType>
defined organic

> <STRUCTURE_DefinedOrganicForm>
parent

> <STRUCTURE_IUPAC>
5-chloroquinolin-8-ol

> <STRUCTURE_SMILES>
Oc1ccc(Cl)c2cccnc12

> <STRUCTURE_SMILES_Desalt>
Oc1ccc(Cl)c2cccnc12

> <Substance_modify_yyyymmdd>
20110825

$$$$
