130-17-6
ChemmineR-0915142007XD

 21 23  0  0  0  0  0  0  0  0  1 V2000
    2.3037   -1.3303    0.0000 S   0  0  0  0  0  0  0  0  0  0  0  0
    3.6340   -1.3303    0.0000 O   0  0  0  0  0  0  0  0  0  0  0  0
    0.9734   -1.3303    0.0000 O   0  0  0  0  0  0  0  0  0  0  0  0
    2.3037    0.0000    0.0000 O   0  0  0  0  0  0  0  0  0  0  0  0
    2.3037   -2.6606    0.0000 C   0  0  0  0  0  0  0  0  0  0  0  0
    1.1464   -3.3312    0.0000 C   0  0  0  0  0  0  0  0  0  0  0  0
    0.0000   -2.6606    0.0000 C   0  0  0  0  0  0  0  0  0  0  0  0
    1.1464   -4.6615    0.0000 C   0  0  0  0  0  0  0  0  0  0  0  0
    2.3037   -5.3213    0.0000 C   0  0  0  0  0  0  0  0  0  0  0  0
    3.4502   -4.6615    0.0000 C   0  0  0  0  0  0  0  0  0  0  0  0
    4.7156   -5.0725    0.0000 N   0  0  0  0  0  0  0  0  0  0  0  0
    5.4943   -3.9909    0.0000 C   0  0  0  0  0  0  0  0  0  0  0  0
    4.7156   -2.9202    0.0000 S   0  0  0  0  0  0  0  0  0  0  0  0
    3.4502   -3.3312    0.0000 C   0  0  0  0  0  0  0  0  0  0  0  0
    6.8246   -3.9909    0.0000 C   0  0  0  0  0  0  0  0  0  0  0  0
    7.4952   -5.1482    0.0000 C   0  0  0  0  0  0  0  0  0  0  0  0
    8.8255   -5.1482    0.0000 C   0  0  0  0  0  0  0  0  0  0  0  0
    9.4853   -3.9909    0.0000 C   0  0  0  0  0  0  0  0  0  0  0  0
   10.8156   -3.9909    0.0000 N   0  0  0  0  0  0  0  0  0  0  0  0
    8.8255   -2.8445    0.0000 C   0  0  0  0  0  0  0  0  0  0  0  0
    7.4952   -2.8445    0.0000 C   0  0  0  0  0  0  0  0  0  0  0  0
  1  2  2  0  0  0  0
  1  3  2  0  0  0  0
  1  4  1  0  0  0  0
  1  5  1  0  0  0  0
  5  6  2  0  0  0  0
  5 14  1  0  0  0  0
  6  7  1  0  0  0  0
  6  8  1  0  0  0  0
  8  9  2  0  0  0  0
  9 10  1  0  0  0  0
 10 11  1  0  0  0  0
 10 14  2  0  0  0  0
 11 12  2  0  0  0  0
 12 13  1  0  0  0  0
 12 15  1  0  0  0  0
 13 14  1  0  0  0  0
 15 16  2  0  0  0  0
 15 21  1  0  0  0  0
 16 17  1  0  0  0  0
 17 18  2  0  0  0  0
 18 19  1  0  0  0  0
 18 20  1  0  0  0  0
 20 21  2  0  0  0  0
M  END
> <ID>
3717

> <Formula>
C14H12N2O3S2

> <FW>
320.3867

> <DSSTox_CID>
4501

> <DSSTox_RID>
77431

> <DSSTox_GSID>
24501

> <DSSTox_FileID_Sort>
2114

> <TS_ChemName>
2-(4-Aminophenyl)-6-methylbenzothiazole sulfonic acid

> <TS_ChemName_Synonyms>
2-(4-Aminophenyl)-6-methyl-7-benzothiazole sulfonic acid

> <TS_CASRN>
130-17-6

> <CASRN_ChemName_Relationship>
primary

> <TS_Description>
single chemical compound

> <ChemNote>


> <STRUCTURE_Shown>
tested chemical

> <STRUCTURE_Formula>
C14H12N2O3S2

> <STRUCTURE_MW>
320.3867

> <STRUCTURE_ChemType>
defined organic

> <STRUCTURE_DefinedOrganicForm>
parent

> <STRUCTURE_IUPAC>
2-(4-aminophenyl)-6-methyl-1,3-benzothiazole-7-sulfonic acid

> <STRUCTURE_SMILES>
O=S(=O)(O)c1c(C)ccc2nc(sc12)c3ccc(N)cc3

> <STRUCTURE_SMILES_Desalt>
O=S(=O)(O)c1c(C)ccc2nc(sc12)c3ccc(N)cc3

> <Substance_modify_yyyymmdd>
20080429

$$$$
