1300-94-3
ChemmineR-0915142007XD

 13 13  0  0  0  0  0  0  0  0  1 V2000
    0.0000   -2.6606    0.0000 C   0  0  0  0  0  0  0  0  0  0  0  0
    1.1508   -1.9886    0.0000 C   0  0  0  0  0  0  0  0  0  0  0  0
    2.3016   -2.6606    0.0000 C   0  0  0  0  0  0  0  0  0  0  0  0
    3.4524   -1.9886    0.0000 C   0  0  0  0  0  0  0  0  0  0  0  0
    4.6032   -2.6606    0.0000 C   0  0  0  0  0  0  0  0  0  0  0  0
    5.7540   -1.9886    0.0000 C   0  0  0  0  0  0  0  0  0  0  0  0
    5.7540   -0.6629    0.0000 C   0  0  0  0  0  0  0  0  0  0  0  0
    6.9048    0.0000    0.0000 C   0  0  0  0  0  0  0  0  0  0  0  0
    8.0556   -0.6629    0.0000 C   0  0  0  0  0  0  0  0  0  0  0  0
    9.2064    0.0000    0.0000 C   0  0  0  0  0  0  0  0  0  0  0  0
    8.0556   -1.9886    0.0000 C   0  0  0  0  0  0  0  0  0  0  0  0
    6.9048   -2.6606    0.0000 C   0  0  0  0  0  0  0  0  0  0  0  0
    6.9048   -3.9864    0.0000 O   0  0  0  0  0  0  0  0  0  0  0  0
  1  2  1  0  0  0  0
  2  3  1  0  0  0  0
  3  4  1  0  0  0  0
  4  5  1  0  0  0  0
  5  6  1  0  0  0  0
  6  7  2  0  0  0  0
  6 12  1  0  0  0  0
  7  8  1  0  0  0  0
  8  9  2  0  0  0  0
  9 10  1  0  0  0  0
  9 11  1  0  0  0  0
 11 12  2  0  0  0  0
 12 13  1  0  0  0  0
M  END
> <ID>
11972

> <Formula>
C12H18O

> <FW>
178.2707

> <DSSTox_CID>
26791

> <DSSTox_RID>
81908

> <DSSTox_GSID>
46791

> <DSSTox_FileID_Sort>
6589

> <TS_ChemName>
Amylmetacresol

> <TS_ChemName_Synonyms>


> <TS_CASRN>
1300-94-3

> <CASRN_ChemName_Relationship>
primary

> <TS_Description>
single chemical compound

> <ChemNote>


> <STRUCTURE_Shown>
tested chemical

> <STRUCTURE_Formula>
C12H18O

> <STRUCTURE_MW>
178.2707

> <STRUCTURE_ChemType>
defined organic

> <STRUCTURE_DefinedOrganicForm>
parent

> <STRUCTURE_IUPAC>
5-methyl-2-pentylphenol

> <STRUCTURE_SMILES>
Oc1cc(C)ccc1CCCCC

> <STRUCTURE_SMILES_Desalt>
Oc1cc(C)ccc1CCCCC

> <Substance_modify_yyyymmdd>
20110802

$$$$
