1300-73-8
ChemmineR-0915142007XD

  9  9  0  0  0  0  0  0  0  0  1 V2000
    1.3315   -4.6073    0.0000 N   0  0  0  0  0  0  0  0  0  0  0  0
    1.9950   -3.4555    0.0000 C   0  0  0  0  0  0  0  0  0  0  0  0
    1.3315   -2.3037    0.0000 C   0  0  0  0  0  0  0  0  0  0  0  0
    1.9950   -1.1518    0.0000 C   0  0  0  0  0  0  0  0  0  0  0  0
    3.3265   -1.1518    0.0000 C   0  0  0  0  0  0  0  0  0  0  0  0
    3.9899   -2.3037    0.0000 C   0  0  0  0  0  0  0  0  0  0  0  0
    1.3315    0.0000    0.0000 C   0  0  0  0  0  0  0  0  0  0  0  0
    0.0000   -2.3037    0.0000 C   0  0  0  0  0  0  0  0  0  0  0  0
    3.3265   -3.4555    0.0000 C   0  0  0  0  0  0  0  0  0  0  0  0
  1  2  1  0  0  0  0
  2  3  2  0  0  0  0
  2  9  1  0  0  0  0
  3  4  1  0  0  0  0
  3  8  1  0  0  0  0
  4  5  2  0  0  0  0
  4  7  1  0  0  0  0
  5  6  1  0  0  0  0
  6  9  2  0  0  0  0
M  END
> <ID>
4643

> <Formula>
C8H11N

> <FW>
121.1796

> <DSSTox_CID>
6304

> <DSSTox_RID>
78429

> <DSSTox_GSID>
27377

> <DSSTox_FileID_Sort>
3112

> <TS_ChemName>
Dimethylaniline

> <TS_ChemName_Synonyms>
Dimethylaniline (Benzenamine, ar,ar-dimethyl-)

> <TS_CASRN>
1300-73-8

> <CASRN_ChemName_Relationship>
primary

> <TS_Description>
mixture or formulation

> <ChemNote>
mixture of isomers; structure shown 2,3-dimethylaniline

> <STRUCTURE_Shown>
representative component

> <STRUCTURE_Formula>
C8H11N

> <STRUCTURE_MW>
121.1796

> <STRUCTURE_ChemType>
defined organic

> <STRUCTURE_DefinedOrganicForm>
parent

> <STRUCTURE_IUPAC>
2,3-dimethylaniline

> <STRUCTURE_SMILES>
Cc1cccc(N)c1C

> <STRUCTURE_SMILES_Desalt>
Cc1cccc(N)c1C

> <Substance_modify_yyyymmdd>
20080429

$$$$
