13010-08-7
ChemmineR-0915142007XD

 13 12  0  0  0  0  0  0  0  0  2 V2000
    3.9899   -3.4516    0.0000 N   0  0  0  0  0  0  0  0  0  0  0  0
    2.6560   -3.4516    0.0000 C   0  0  0  0  0  0  0  0  0  0  0  0
    1.9920   -4.6061    0.0000 N   0  0  0  0  0  0  0  0  0  0  0  0
    2.6560   -5.7546    0.0000 C   0  0  0  0  0  0  0  0  0  0  0  0
    3.9899   -5.7546    0.0000 C   0  0  0  0  0  0  0  0  0  0  0  0
    4.6539   -4.6061    0.0000 C   0  0  0  0  0  0  0  0  0  0  0  0
    5.9819   -4.6061    0.0000 C   0  0  0  0  0  0  0  0  0  0  0  0
    0.6640   -4.6061    0.0000 N   0  0  0  0  0  0  0  0  0  0  0  0
    0.0000   -3.4516    0.0000 O   0  0  0  0  0  0  0  0  0  0  0  0
    1.9920   -2.3030    0.0000 N   0  0  0  0  0  0  0  0  0  0  0  0
    2.6560   -1.1485    0.0000 N   0  3  0  0  0  0  0  0  0  0  0  0
    1.9920    0.0000    0.0000 O   0  0  0  0  0  0  0  0  0  0  0  0
    3.9899   -1.1485    0.0000 O   0  5  0  0  0  0  0  0  0  0  0  0
  1  2  2  0  0  0  0
  2  3  1  0  0  0  0
  2 10  1  0  0  0  0
  3  4  1  0  0  0  0
  3  8  1  0  0  0  0
  4  5  1  0  0  0  0
  5  6  1  0  0  0  0
  6  7  1  0  0  0  0
  8  9  2  0  0  0  0
 10 11  1  0  0  0  0
 11 12  2  0  0  0  0
 11 13  1  0  0  0  0
M  END
> <ID>
209

> <Formula>
C5H11N5O3

> <FW>
189.1725

> <DSSTox_CID>
213

> <DSSTox_RID>
75438

> <DSSTox_GSID>
20213

> <DSSTox_FileID_Sort>
122

> <TS_ChemName>
N-Butyl-N'-nitro-N-nitrosoguanidine

> <TS_ChemName_Synonyms>


> <TS_CASRN>
13010-08-7

> <CASRN_ChemName_Relationship>
primary

> <TS_Description>
single chemical compound

> <ChemNote>


> <STRUCTURE_Shown>
tested chemical

> <STRUCTURE_Formula>
C5H11N5O3

> <STRUCTURE_MW>
189.1725

> <STRUCTURE_ChemType>
defined organic

> <STRUCTURE_DefinedOrganicForm>
parent

> <STRUCTURE_IUPAC>
1-butyl-3-nitro-1-nitrosoguanidine

> <STRUCTURE_SMILES>
CCCCN(N=O)C(=N)N[N+]([O-])=O

> <STRUCTURE_SMILES_Desalt>
CCCCN(N=O)C(=N)N[N+]([O-])=O

> <Substance_modify_yyyymmdd>
20080429

$$$$
