13019-22-2
ChemmineR-0915142007XD

 11 10  0  0  0  0  0  0  0  0  1 V2000
    1.1455    0.0000    0.0000 C   0  0  0  0  0  0  0  0  0  0  0  0
    2.3367   -0.6758    0.0000 C   0  0  0  0  0  0  0  0  0  0  0  0
    3.4478    0.0000    0.0000 C   0  0  0  0  0  0  0  0  0  0  0  0
    4.5818   -0.6758    0.0000 C   0  0  0  0  0  0  0  0  0  0  0  0
    5.7273    0.0000    0.0000 C   0  0  0  0  0  0  0  0  0  0  0  0
    6.8727   -0.6758    0.0000 C   0  0  0  0  0  0  0  0  0  0  0  0
    8.0067    0.0000    0.0000 C   0  0  0  0  0  0  0  0  0  0  0  0
    9.1751   -0.6758    0.0000 C   0  0  0  0  0  0  0  0  0  0  0  0
   10.3091    0.0000    0.0000 C   0  0  0  0  0  0  0  0  0  0  0  0
   11.4545   -0.6758    0.0000 C   0  0  0  0  0  0  0  0  0  0  0  0
    0.0000   -0.6758    0.0000 O   0  0  0  0  0  0  0  0  0  0  0  0
  1  2  1  0  0  0  0
  1 11  1  0  0  0  0
  2  3  1  0  0  0  0
  3  4  1  0  0  0  0
  4  5  1  0  0  0  0
  5  6  1  0  0  0  0
  6  7  1  0  0  0  0
  7  8  1  0  0  0  0
  8  9  1  0  0  0  0
  9 10  2  0  0  0  0
M  END
> <ID>
12777

> <Formula>
C10H20O

> <FW>
156.2652

> <DSSTox_CID>
27656

> <DSSTox_RID>
82480

> <DSSTox_GSID>
47656

> <DSSTox_FileID_Sort>
7161

> <TS_ChemName>
9-Decen-1-ol

> <TS_ChemName_Synonyms>


> <TS_CASRN>
13019-22-2

> <CASRN_ChemName_Relationship>
primary

> <TS_Description>
single chemical compound

> <ChemNote>


> <STRUCTURE_Shown>
tested chemical

> <STRUCTURE_Formula>
C10H20O

> <STRUCTURE_MW>
156.2652

> <STRUCTURE_ChemType>
defined organic

> <STRUCTURE_DefinedOrganicForm>
parent

> <STRUCTURE_IUPAC>
dec-9-en-1-ol

> <STRUCTURE_SMILES>
C=CCCCCCCCCO

> <STRUCTURE_SMILES_Desalt>
C=CCCCCCCCCO

> <Substance_modify_yyyymmdd>
20101214

$$$$
