13014-24-9
ChemmineR-0915142007XD

 12 12  0  0  0  0  0  0  0  0  1 V2000
    5.3220   -2.3018    0.0000 C    0  0  0  0  0  0  0  0  0  0  0  0
    6.6525   -2.3018    0.0000 Cl   0  0  0  0  0  0  0  0  0  0  0  0
    5.3220   -3.6322    0.0000 Cl   0  0  0  0  0  0  0  0  0  0  0  0
    5.3220   -0.9713    0.0000 Cl   0  0  0  0  0  0  0  0  0  0  0  0
    3.9915   -2.3018    0.0000 C    0  0  0  0  0  0  0  0  0  0  0  0
    3.3262   -3.4526    0.0000 C    0  0  0  0  0  0  0  0  0  0  0  0
    1.9957   -3.4526    0.0000 C    0  0  0  0  0  0  0  0  0  0  0  0
    1.3305   -2.3018    0.0000 C    0  0  0  0  0  0  0  0  0  0  0  0
    0.0000   -2.3018    0.0000 Cl   0  0  0  0  0  0  0  0  0  0  0  0
    1.9957   -1.1509    0.0000 C    0  0  0  0  0  0  0  0  0  0  0  0
    1.3305    0.0000    0.0000 Cl   0  0  0  0  0  0  0  0  0  0  0  0
    3.3262   -1.1509    0.0000 C    0  0  0  0  0  0  0  0  0  0  0  0
  1  2  1  0  0  0  0
  1  3  1  0  0  0  0
  1  4  1  0  0  0  0
  1  5  1  0  0  0  0
  5  6  2  0  0  0  0
  5 12  1  0  0  0  0
  6  7  1  0  0  0  0
  7  8  2  0  0  0  0
  8  9  1  0  0  0  0
  8 10  1  0  0  0  0
 10 11  1  0  0  0  0
 10 12  2  0  0  0  0
M  END
> <ID>
4430

> <Formula>
C7H3Cl5

> <FW>
264.3637

> <DSSTox_CID>
5840

> <DSSTox_RID>
77942

> <DSSTox_GSID>
25840

> <DSSTox_FileID_Sort>
2625

> <TS_ChemName>
1,2-Dichloro-4-(trichloromethyl)benzene

> <TS_ChemName_Synonyms>


> <TS_CASRN>
13014-24-9

> <CASRN_ChemName_Relationship>
primary

> <TS_Description>
single chemical compound

> <ChemNote>


> <STRUCTURE_Shown>
tested chemical

> <STRUCTURE_Formula>
C7H3Cl5

> <STRUCTURE_MW>
264.3637

> <STRUCTURE_ChemType>
defined organic

> <STRUCTURE_DefinedOrganicForm>
parent

> <STRUCTURE_IUPAC>
1,2-dichloro-4-(trichloromethyl)benzene

> <STRUCTURE_SMILES>
Clc1ccc(cc1Cl)C(Cl)(Cl)Cl

> <STRUCTURE_SMILES_Desalt>
Clc1ccc(cc1Cl)C(Cl)(Cl)Cl

> <Substance_modify_yyyymmdd>
20080429

$$$$
