13020-57-0
ChemmineR-0915142007XD

 15 16  0  0  0  0  0  0  0  0  1 V2000
    3.4568   -1.3295    0.0000 C   0  0  0  0  0  0  0  0  0  0  0  0
    4.6010   -1.9983    0.0000 C   0  0  0  0  0  0  0  0  0  0  0  0
    4.6010   -3.3279    0.0000 C   0  0  0  0  0  0  0  0  0  0  0  0
    5.7533   -3.9886    0.0000 C   0  0  0  0  0  0  0  0  0  0  0  0
    6.9056   -3.3279    0.0000 C   0  0  0  0  0  0  0  0  0  0  0  0
    6.9056   -1.9983    0.0000 C   0  0  0  0  0  0  0  0  0  0  0  0
    5.7533   -1.3295    0.0000 C   0  0  0  0  0  0  0  0  0  0  0  0
    3.4568    0.0000    0.0000 O   0  0  0  0  0  0  0  0  0  0  0  0
    2.3045   -1.9983    0.0000 C   0  0  0  0  0  0  0  0  0  0  0  0
    1.1523   -1.3295    0.0000 C   0  0  0  0  0  0  0  0  0  0  0  0
    0.0000   -1.9983    0.0000 C   0  0  0  0  0  0  0  0  0  0  0  0
    0.0000   -3.3279    0.0000 C   0  0  0  0  0  0  0  0  0  0  0  0
    1.1523   -3.9886    0.0000 C   0  0  0  0  0  0  0  0  0  0  0  0
    2.3045   -3.3279    0.0000 C   0  0  0  0  0  0  0  0  0  0  0  0
    8.0579   -1.3295    0.0000 O   0  0  0  0  0  0  0  0  0  0  0  0
  1  2  1  0  0  0  0
  1  8  2  0  0  0  0
  1  9  1  0  0  0  0
  2  3  1  0  0  0  0
  2  7  2  0  0  0  0
  3  4  2  0  0  0  0
  4  5  1  0  0  0  0
  5  6  2  0  0  0  0
  6  7  1  0  0  0  0
  6 15  1  0  0  0  0
  9 10  1  0  0  0  0
  9 14  2  0  0  0  0
 10 11  2  0  0  0  0
 11 12  1  0  0  0  0
 12 13  2  0  0  0  0
 13 14  1  0  0  0  0
M  END
> <ID>
12955

> <Formula>
C13H10O2

> <FW>
198.2173

> <DSSTox_CID>
27856

> <DSSTox_RID>
82609

> <DSSTox_GSID>
47880

> <DSSTox_FileID_Sort>
7286

> <TS_ChemName>
3-Hydroxybenzophenone

> <TS_ChemName_Synonyms>


> <TS_CASRN>
13020-57-0

> <CASRN_ChemName_Relationship>
primary

> <TS_Description>
single chemical compound

> <ChemNote>


> <STRUCTURE_Shown>
tested chemical

> <STRUCTURE_Formula>
C13H10O2

> <STRUCTURE_MW>
198.2173

> <STRUCTURE_ChemType>
defined organic

> <STRUCTURE_DefinedOrganicForm>
parent

> <STRUCTURE_IUPAC>
(3-hydroxyphenyl)(phenyl)methanone

> <STRUCTURE_SMILES>
O=C(c1cc(O)ccc1)c2ccccc2

> <STRUCTURE_SMILES_Desalt>
O=C(c1cc(O)ccc1)c2ccccc2

> <Substance_modify_yyyymmdd>


$$$$
