13029-08-8
ChemmineR-0915142007XD

 14 15  0  0  0  0  0  0  0  0  1 V2000
    2.3080   -2.6639    0.0000 C    0  0  0  0  0  0  0  0  0  0  0  0
    3.4505   -1.9865    0.0000 C    0  0  0  0  0  0  0  0  0  0  0  0
    1.1425   -2.0209    0.0000 C    0  0  0  0  0  0  0  0  0  0  0  0
    4.5987   -2.6639    0.0000 C    0  0  0  0  0  0  0  0  0  0  0  0
    1.1425   -0.6775    0.0000 Cl   0  0  0  0  0  0  0  0  0  0  0  0
    4.5987   -4.0016    0.0000 Cl   0  0  0  0  0  0  0  0  0  0  0  0
    2.3080   -4.0016    0.0000 C    0  0  0  0  0  0  0  0  0  0  0  0
    3.4505   -0.6775    0.0000 C    0  0  0  0  0  0  0  0  0  0  0  0
    0.0000   -2.6639    0.0000 C    0  0  0  0  0  0  0  0  0  0  0  0
    5.7412   -1.9865    0.0000 C    0  0  0  0  0  0  0  0  0  0  0  0
    4.5815    0.0000    0.0000 C    0  0  0  0  0  0  0  0  0  0  0  0
    1.1425   -4.6791    0.0000 C    0  0  0  0  0  0  0  0  0  0  0  0
    0.0000   -4.0016    0.0000 C    0  0  0  0  0  0  0  0  0  0  0  0
    5.7412   -0.6660    0.0000 C    0  0  0  0  0  0  0  0  0  0  0  0
  1  2  1  0  0  0  0
  1  3  2  0  0  0  0
  1  7  1  0  0  0  0
  2  4  2  0  0  0  0
  2  8  1  0  0  0  0
  3  5  1  0  0  0  0
  3  9  1  0  0  0  0
  4  6  1  0  0  0  0
  4 10  1  0  0  0  0
  7 12  2  0  0  0  0
  8 11  2  0  0  0  0
  9 13  2  0  0  0  0
 10 14  2  0  0  0  0
 11 14  1  0  0  0  0
 12 13  1  0  0  0  0
M  END
> <ID>
10187

> <Formula>
C12H8Cl2

> <FW>
223.0979

> <DSSTox_CID>
24533

> <DSSTox_RID>
80296

> <DSSTox_GSID>
44533

> <DSSTox_FileID_Sort>
4978

> <TS_ChemName>
2,2'-Dichlorobiphenyl

> <TS_ChemName_Synonyms>
2,2'-Dichlorobiphenyl (2,2'-Dichloro-1,1'-biphenyl)

> <TS_CASRN>
13029-08-8

> <CASRN_ChemName_Relationship>
primary

> <TS_Description>
single chemical compound

> <ChemNote>


> <STRUCTURE_Shown>
tested chemical

> <STRUCTURE_Formula>
C12H8Cl2

> <STRUCTURE_MW>
223.0979

> <STRUCTURE_ChemType>
defined organic

> <STRUCTURE_DefinedOrganicForm>
parent

> <STRUCTURE_IUPAC>
2,2'-dichlorobiphenyl

> <STRUCTURE_SMILES>
Clc2ccccc2c1ccccc1Cl

> <STRUCTURE_SMILES_Desalt>
Clc2ccccc2c1ccccc1Cl

> <Substance_modify_yyyymmdd>
20091116

$$$$
