13031-43-1
ChemmineR-0915142007XD

 13 13  0  0  0  0  0  0  0  0  1 V2000
    7.3206   -2.3046    0.0000 C   0  0  0  0  0  0  0  0  0  0  0  0
    7.9745   -3.4610    0.0000 C   0  0  0  0  0  0  0  0  0  0  0  0
    7.9745   -1.1563    0.0000 O   0  0  0  0  0  0  0  0  0  0  0  0
    3.9873   -3.4610    0.0000 C   0  0  0  0  0  0  0  0  0  0  0  0
    3.3334   -2.3046    0.0000 C   0  0  0  0  0  0  0  0  0  0  0  0
    3.9873   -1.1563    0.0000 C   0  0  0  0  0  0  0  0  0  0  0  0
    5.3190   -1.1563    0.0000 C   0  0  0  0  0  0  0  0  0  0  0  0
    5.9889   -2.3046    0.0000 C   0  0  0  0  0  0  0  0  0  0  0  0
    5.3190   -3.4610    0.0000 C   0  0  0  0  0  0  0  0  0  0  0  0
    2.0016   -2.3046    0.0000 O   0  0  0  0  0  0  0  0  0  0  0  0
    1.3317   -1.1563    0.0000 C   0  0  0  0  0  0  0  0  0  0  0  0
    0.0000   -1.1563    0.0000 O   0  0  0  0  0  0  0  0  0  0  0  0
    2.0016    0.0000    0.0000 C   0  0  0  0  0  0  0  0  0  0  0  0
  1  2  1  0  0  0  0
  1  3  2  0  0  0  0
  1  8  1  0  0  0  0
  4  9  2  0  0  0  0
  4  5  1  0  0  0  0
  5  6  2  0  0  0  0
  5 10  1  0  0  0  0
  6  7  1  0  0  0  0
  7  8  2  0  0  0  0
  8  9  1  0  0  0  0
 10 11  1  0  0  0  0
 11 12  2  0  0  0  0
 11 13  1  0  0  0  0
M  END
> <ID>
10188

> <Formula>
C10H10O3

> <FW>
178.1846

> <DSSTox_CID>
24534

> <DSSTox_RID>
80297

> <DSSTox_GSID>
44534

> <DSSTox_FileID_Sort>
4979

> <TS_ChemName>
4-Acetylphenyl acetate

> <TS_ChemName_Synonyms>
4-Acetylphenyl acetate (Ethanone, 1-[4-(acetyloxy)phenyl]-)

> <TS_CASRN>
13031-43-1

> <CASRN_ChemName_Relationship>
primary

> <TS_Description>
single chemical compound

> <ChemNote>


> <STRUCTURE_Shown>
tested chemical

> <STRUCTURE_Formula>
C10H10O3

> <STRUCTURE_MW>
178.1846

> <STRUCTURE_ChemType>
defined organic

> <STRUCTURE_DefinedOrganicForm>
parent

> <STRUCTURE_IUPAC>
4-acetylphenyl acetate

> <STRUCTURE_SMILES>
O=C(C)Oc1ccc(cc1)C(C)=O

> <STRUCTURE_SMILES_Desalt>
O=C(C)Oc1ccc(cc1)C(C)=O

> <Substance_modify_yyyymmdd>
20091116

$$$$
