13035-61-5
ChemmineR-0915142007XD

 22 22  0  0  1  0  0  0  0  0  1 V2000
    5.7352   -3.7284    0.0000 O   0  0  0  0  0  0  0  0  0  0  0  0
    7.0595   -3.9525    0.0000 C   0  0  0  0  0  0  0  0  0  0  0  0
    5.2564   -2.4958    0.0000 C   0  0  0  0  0  0  0  0  0  0  0  0
    7.5281   -5.1851    0.0000 C   0  0  0  0  0  0  0  0  0  0  0  0
    7.8948   -2.9134    0.0000 O   0  0  0  0  0  0  0  0  0  0  0  0
    3.9219   -2.4958    0.0000 C   0  0  0  0  0  0  0  0  0  0  0  0
    5.6741   -1.2326    0.0000 C   0  0  0  0  0  0  0  0  0  0  0  0
    3.1579   -3.5654    0.0000 O   0  0  0  0  0  0  0  0  0  0  0  0
    3.5247   -1.2326    0.0000 C   0  0  0  0  0  0  0  0  0  0  0  0
    6.9474   -0.8149    0.0000 C   0  0  0  0  0  0  0  0  0  0  0  0
    4.5943   -0.4482    0.0000 O   0  0  0  0  0  0  0  0  0  0  0  0
    3.6876   -4.7878    0.0000 C   0  0  0  0  0  0  0  0  0  0  0  0
    2.2411   -0.8149    0.0000 O   0  0  0  0  0  0  0  0  0  0  0  0
    7.9457   -1.7114    0.0000 O   0  0  0  0  0  0  0  0  0  0  0  0
    2.9134   -5.8574    0.0000 C   0  0  0  0  0  0  0  0  0  0  0  0
    5.0323   -4.9304    0.0000 O   0  0  0  0  0  0  0  0  0  0  0  0
    1.2530   -1.7114    0.0000 C   0  0  0  0  0  0  0  0  0  0  0  0
    9.1987   -1.2937    0.0000 C   0  0  0  0  0  0  0  0  0  0  0  0
    0.0000   -1.2937    0.0000 C   0  0  0  0  0  0  0  0  0  0  0  0
    1.5382   -3.0051    0.0000 O   0  0  0  0  0  0  0  0  0  0  0  0
   10.1869   -2.1698    0.0000 C   0  0  0  0  0  0  0  0  0  0  0  0
    9.4636    0.0000    0.0000 O   0  0  0  0  0  0  0  0  0  0  0  0
  1  2  1  0  0  0  0
  3  1  1  1  0  0  0
  2  4  1  0  0  0  0
  2  5  2  0  0  0  0
  3  6  1  0  0  0  0
  3  7  1  0  0  0  0
  6  8  1  1  0  0  0
  6  9  1  0  0  0  0
  7 10  1  6  0  0  0
  7 11  1  0  0  0  0
  8 12  1  0  0  0  0
  9 11  1  0  0  0  0
  9 13  1  6  0  0  0
 10 14  1  0  0  0  0
 12 15  1  0  0  0  0
 12 16  2  0  0  0  0
 13 17  1  0  0  0  0
 14 18  1  0  0  0  0
 17 19  1  0  0  0  0
 17 20  2  0  0  0  0
 18 21  1  0  0  0  0
 18 22  2  0  0  0  0
M  END
> <ID>
16036

> <Formula>
C13H18O9

> <FW>
318.2766

> <DSSTox_CID>
31421

> <DSSTox_RID>
97307

> <DSSTox_GSID>
57632

> <DSSTox_FileID_Sort>
8374

> <TS_ChemName>
1,2,3,5-Tetraacetyl-.-d-ribofuranose

> <TS_ChemName_Synonyms>


> <TS_CASRN>
13035-61-5

> <CASRN_ChemName_Relationship>
primary

> <TS_Description>
single chemical compound

> <ChemNote>


> <STRUCTURE_Shown>
tested chemical

> <STRUCTURE_Formula>
C13H18O9

> <STRUCTURE_MW>
318.2766

> <STRUCTURE_ChemType>
defined organic

> <STRUCTURE_DefinedOrganicForm>
parent

> <STRUCTURE_IUPAC>
1,2,3,5-tetra-O-acetyl-beta-D-ribofuranose

> <STRUCTURE_SMILES>
O=C(C)O[C@@H]1O[C@H](COC(C)=O)[C@@H](OC(C)=O)[C@H]1OC(C)=O

> <STRUCTURE_SMILES_Desalt>
O=C(C)O[C@@H]1O[C@H](COC(C)=O)[C@@H](OC(C)=O)[C@H]1OC(C)=O

> <Substance_modify_yyyymmdd>
20131121

$$$$
