1304-76-3
ChemmineR-0915142007XD

  5  4  0  0  0  0  0  0  0  0  1 V2000
    0.0000   -0.6638    0.0000 O    0  0  0  0  0  0  0  0  0  0  0  0
    1.1525    0.0000    0.0000 Bi   0  0  0  0  0  0  0  0  0  0  0  0
    2.3050   -0.6638    0.0000 O    0  0  0  0  0  0  0  0  0  0  0  0
    3.4575    0.0000    0.0000 Bi   0  0  0  0  0  0  0  0  0  0  0  0
    4.6099   -0.6638    0.0000 O    0  0  0  0  0  0  0  0  0  0  0  0
  1  2  2  0  0  0  0
  2  3  1  0  0  0  0
  3  4  1  0  0  0  0
  4  5  2  0  0  0  0
M  END
> <ID>
11767

> <Formula>
Bi2O3

> <FW>
465.959

> <DSSTox_CID>
26537

> <DSSTox_RID>
81701

> <DSSTox_GSID>
46537

> <DSSTox_FileID_Sort>
6382

> <TS_ChemName>
Bismuth oxide

> <TS_ChemName_Synonyms>


> <TS_CASRN>
1304-76-3

> <CASRN_ChemName_Relationship>
primary

> <TS_Description>
single chemical compound

> <ChemNote>


> <STRUCTURE_Shown>
tested chemical

> <STRUCTURE_Formula>
Bi2O3

> <STRUCTURE_MW>
465.959

> <STRUCTURE_ChemType>
inorganic

> <STRUCTURE_DefinedOrganicForm>


> <STRUCTURE_IUPAC>
dioxodibismoxane

> <STRUCTURE_SMILES>
O=[Bi]O[Bi]=O

> <STRUCTURE_SMILES_Desalt>
O=[Bi]O[Bi]=O

> <Substance_modify_yyyymmdd>
20110811

$$$$
