13048-33-4
ChemmineR-0915142007XD

 16 15  0  0  0  0  0  0  0  0  1 V2000
    1.1548    0.0000    0.0000 O   0  0  0  0  0  0  0  0  0  0  0  0
    1.1548   -1.3325    0.0000 C   0  0  0  0  0  0  0  0  0  0  0  0
    2.3097   -1.9924    0.0000 O   0  0  0  0  0  0  0  0  0  0  0  0
    3.4645   -1.3325    0.0000 C   0  0  0  0  0  0  0  0  0  0  0  0
    4.6194   -1.9924    0.0000 C   0  0  0  0  0  0  0  0  0  0  0  0
    5.7615   -1.3325    0.0000 C   0  0  0  0  0  0  0  0  0  0  0  0
    6.9164   -1.9924    0.0000 C   0  0  0  0  0  0  0  0  0  0  0  0
    8.0712   -1.3325    0.0000 C   0  0  0  0  0  0  0  0  0  0  0  0
    9.2260   -1.9924    0.0000 C   0  0  0  0  0  0  0  0  0  0  0  0
   10.3809   -1.3325    0.0000 O   0  0  0  0  0  0  0  0  0  0  0  0
   11.5357   -1.9924    0.0000 C   0  0  0  0  0  0  0  0  0  0  0  0
   11.5357   -3.3249    0.0000 O   0  0  0  0  0  0  0  0  0  0  0  0
   12.6906   -1.3325    0.0000 C   0  0  0  0  0  0  0  0  0  0  0  0
   12.6906    0.0000    0.0000 C   0  0  0  0  0  0  0  0  0  0  0  0
    0.0000   -1.9924    0.0000 C   0  0  0  0  0  0  0  0  0  0  0  0
    0.0000   -3.3249    0.0000 C   0  0  0  0  0  0  0  0  0  0  0  0
  1  2  2  0  0  0  0
  2  3  1  0  0  0  0
  2 15  1  0  0  0  0
  3  4  1  0  0  0  0
  4  5  1  0  0  0  0
  5  6  1  0  0  0  0
  6  7  1  0  0  0  0
  7  8  1  0  0  0  0
  8  9  1  0  0  0  0
  9 10  1  0  0  0  0
 10 11  1  0  0  0  0
 11 12  2  0  0  0  0
 11 13  1  0  0  0  0
 13 14  2  0  0  0  0
 15 16  2  0  0  0  0
M  END
> <ID>
4174

> <Formula>
C12H18O4

> <FW>
226.2689

> <DSSTox_CID>
5401

> <DSSTox_RID>
77771

> <DSSTox_GSID>
25401

> <DSSTox_FileID_Sort>
2454

> <TS_ChemName>
1,6-Hexanediol diacrylate

> <TS_ChemName_Synonyms>
1,6-Hexamethylene diacrylate (2-Propenoic acid, 1,6-hexanediyl ester) (1,6-Hexamethylene diacrylate) (1,6-Hexanediol diacrylate)

> <TS_CASRN>
13048-33-4

> <CASRN_ChemName_Relationship>
primary

> <TS_Description>
single chemical compound

> <ChemNote>


> <STRUCTURE_Shown>
tested chemical

> <STRUCTURE_Formula>
C12H18O4

> <STRUCTURE_MW>
226.2689

> <STRUCTURE_ChemType>
defined organic

> <STRUCTURE_DefinedOrganicForm>
parent

> <STRUCTURE_IUPAC>
hexane-1,6-diyl bisprop-2-enoate

> <STRUCTURE_SMILES>
C=CC(=O)OCCCCCCOC(=O)C=C

> <STRUCTURE_SMILES_Desalt>
C=CC(=O)OCCCCCCOC(=O)C=C

> <Substance_modify_yyyymmdd>
20080429

$$$$
