130636-43-0
ChemmineR-0915142007XD

 30 30  0  0  0  0  0  0  0  0  2 V2000
    4.5985   -2.6104    0.0000 C    0  0  0  0  0  0  0  0  0  0  0  0
    4.5985   -3.9416    0.0000 C    0  0  0  0  0  0  0  0  0  0  0  0
    3.4575   -1.9362    0.0000 C    0  0  0  0  0  0  0  0  0  0  0  0
    3.4575   -4.5985    0.0000 C    0  0  0  0  0  0  0  0  0  0  0  0
    2.2993   -2.6104    0.0000 C    0  0  0  0  0  0  0  0  0  0  0  0
    2.2993   -3.9416    0.0000 C    0  0  0  0  0  0  0  0  0  0  0  0
    1.1410   -1.9362    0.0000 N    0  3  0  0  0  0  0  0  0  0  0  0
    1.1410   -0.6051    0.0000 O    0  5  0  0  0  0  0  0  0  0  0  0
    0.0000   -2.5759    0.0000 O    0  0  0  0  0  0  0  0  0  0  0  0
    5.7568   -4.5985    0.0000 C    0  0  0  0  0  0  0  0  0  0  0  0
    6.8978   -3.9416    0.0000 C    0  0  0  0  0  0  0  0  0  0  0  0
    8.0561   -4.5985    0.0000 C    0  0  0  0  0  0  0  0  0  0  0  0
    9.2143   -3.9416    0.0000 N    0  0  0  0  0  0  0  0  0  0  0  0
   10.3726   -4.5985    0.0000 C    0  0  0  0  0  0  0  0  0  0  0  0
    9.2143   -2.6104    0.0000 C    0  0  0  0  0  0  0  0  0  0  0  0
    8.0561   -1.9362    0.0000 C    0  0  0  0  0  0  0  0  0  0  0  0
    8.0561   -0.6051    0.0000 O    0  0  0  0  0  0  0  0  0  0  0  0
   11.5136   -3.9416    0.0000 C    0  0  0  0  0  0  0  0  0  0  0  0
   12.6719   -4.5985    0.0000 N    0  0  0  0  0  0  0  0  0  0  0  0
   13.8129   -3.9416    0.0000 C    0  0  0  0  0  0  0  0  0  0  0  0
   13.8129   -2.6104    0.0000 N    0  0  0  0  0  0  0  0  0  0  0  0
   14.9884   -4.5985    0.0000 C    0  0  0  0  0  0  0  0  0  0  0  0
   14.9884   -1.9362    0.0000 C    0  0  0  0  0  0  0  0  0  0  0  0
   16.1294   -3.9416    0.0000 C    0  0  0  0  0  0  0  0  0  0  0  0
   16.1294   -2.6104    0.0000 N    0  0  0  0  0  0  0  0  0  0  0  0
   14.9884   -0.6051    0.0000 O    0  0  0  0  0  0  0  0  0  0  0  0
   17.2877   -4.5985    0.0000 O    0  0  0  0  0  0  0  0  0  0  0  0
   17.2877   -1.9362    0.0000 C    0  0  0  0  0  0  0  0  0  0  0  0
   12.6719   -1.9362    0.0000 C    0  0  0  0  0  0  0  0  0  0  0  0
    4.1490    0.0000    0.0000 Cl   0  0  0  0  0  0  0  0  0  0  0  0
  1  2  1  0  0  0  0
  1  3  2  0  0  0  0
  2  4  2  0  0  0  0
  2 10  1  0  0  0  0
  3  5  1  0  0  0  0
  4  6  1  0  0  0  0
  5  6  2  0  0  0  0
  5  7  1  0  0  0  0
  7  8  1  0  0  0  0
  7  9  2  0  0  0  0
 10 11  1  0  0  0  0
 11 12  1  0  0  0  0
 12 13  1  0  0  0  0
 13 14  1  0  0  0  0
 13 15  1  0  0  0  0
 14 18  1  0  0  0  0
 15 16  1  0  0  0  0
 16 17  1  0  0  0  0
 18 19  1  0  0  0  0
 19 20  1  0  0  0  0
 20 21  1  0  0  0  0
 20 22  2  0  0  0  0
 21 23  1  0  0  0  0
 21 29  1  0  0  0  0
 22 24  1  0  0  0  0
 23 25  1  0  0  0  0
 23 26  2  0  0  0  0
 24 25  1  0  0  0  0
 24 27  2  0  0  0  0
 25 28  1  0  0  0  0
M  END
> <ID>
11731

> <Formula>
C19H28ClN5O5

> <FW>
441.9091 (405.4482+36.4609)

> <DSSTox_CID>
26495

> <DSSTox_RID>
81665

> <DSSTox_GSID>
46495

> <DSSTox_FileID_Sort>
6346

> <TS_ChemName>
Nifekalant hydrochloride

> <TS_ChemName_Synonyms>


> <TS_CASRN>
130636-43-0

> <CASRN_ChemName_Relationship>
primary

> <TS_Description>
single chemical compound

> <ChemNote>
parent [130656-51-8]

> <STRUCTURE_Shown>
tested chemical

> <STRUCTURE_Formula>
C19H28ClN5O5

> <STRUCTURE_MW>
441.9091

> <STRUCTURE_ChemType>
defined organic

> <STRUCTURE_DefinedOrganicForm>
complex

> <STRUCTURE_IUPAC>
6-[(2-{(2-hydroxyethyl)[3-(4-nitrophenyl)propyl]amino}ethyl)amino]-1,3-dimethylpyrimidine-2,4(1H,3H)-dione hydrochloride (1:1)

> <STRUCTURE_SMILES>
Cl.CN1C(=CC(=O)N(C)C1=O)NCCN(CCCc2ccc(cc2)[N+]([O-])=O)CCO

> <STRUCTURE_SMILES_Desalt>
CN1C(=CC(=O)N(C)C1=O)NCCN(CCCc2ccc(cc2)[N+]([O-])=O)CCO

> <Substance_modify_yyyymmdd>
20110812

$$$$
