130726-68-0
ChemmineR-0915142007XD

 21 22  0  0  0  0  0  0  0  0  1 V2000
    6.2713   -9.5077    0.0000 C   0  0  0  0  0  0  0  0  0  0  0  0
    5.0715  -10.0824    0.0000 C   0  0  0  0  0  0  0  0  0  0  0  0
    3.9926   -9.3363    0.0000 C   0  0  0  0  0  0  0  0  0  0  0  0
    4.1640   -8.0256    0.0000 C   0  0  0  0  0  0  0  0  0  0  0  0
    3.1255   -7.2089    0.0000 C   0  0  0  0  0  0  0  0  0  0  0  0
    3.3373   -5.9385    0.0000 O   0  0  0  0  0  0  0  0  0  0  0  0
    4.4665   -5.2933    0.0000 C   0  0  0  0  0  0  0  0  0  0  0  0
    4.5472   -3.9725    0.0000 C   0  0  0  0  0  0  0  0  0  0  0  0
    5.7571   -3.4280    0.0000 C   0  0  0  0  0  0  0  0  0  0  0  0
    6.8460   -4.1943    0.0000 C   0  0  0  0  0  0  0  0  0  0  0  0
    6.7451   -5.5151    0.0000 C   0  0  0  0  0  0  0  0  0  0  0  0
    5.5554   -6.0595    0.0000 C   0  0  0  0  0  0  0  0  0  0  0  0
    3.4583   -3.2062    0.0000 C   0  0  0  0  0  0  0  0  0  0  0  0
    3.6095   -1.8854    0.0000 C   0  0  0  0  0  0  0  0  0  0  0  0
    4.7891   -1.3208    0.0000 S   0  0  0  0  0  0  0  0  0  0  0  0
    4.9101    0.0000    0.0000 C   0  0  0  0  0  0  0  0  0  0  0  0
    2.2685   -3.7305    0.0000 N   0  0  0  0  0  0  0  0  0  0  0  0
    1.8854   -5.0110    0.0000 C   0  0  0  0  0  0  0  0  0  0  0  0
    0.5243   -5.1824    0.0000 C   0  0  0  0  0  0  0  0  0  0  0  0
    0.0000   -3.8918    0.0000 N   0  0  0  0  0  0  0  0  0  0  0  0
    1.0889   -3.0449    0.0000 C   0  0  0  0  0  0  0  0  0  0  0  0
  1  2  1  0  0  0  0
  2  3  1  0  0  0  0
  3  4  1  0  0  0  0
  4  5  1  0  0  0  0
  5  6  1  0  0  0  0
  6  7  1  0  0  0  0
  7  8  2  0  0  0  0
  7 12  1  0  0  0  0
  8  9  1  0  0  0  0
  8 13  1  0  0  0  0
  9 10  2  0  0  0  0
 10 11  1  0  0  0  0
 11 12  2  0  0  0  0
 13 14  2  0  0  0  0
 13 17  1  0  0  0  0
 14 15  1  0  0  0  0
 15 16  1  0  0  0  0
 17 18  1  0  0  0  0
 17 21  1  0  0  0  0
 18 19  2  0  0  0  0
 19 20  1  0  0  0  0
 20 21  2  0  0  0  0
M  END
> <ID>
16037

> <Formula>
C17H22N2OS

> <FW>
302.4344

> <DSSTox_CID>
31422

> <DSSTox_RID>
97308

> <DSSTox_GSID>
57633

> <DSSTox_FileID_Sort>
8375

> <TS_ChemName>
Neticonazole

> <TS_ChemName_Synonyms>


> <TS_CASRN>
130726-68-0

> <CASRN_ChemName_Relationship>
primary

> <TS_Description>
single chemical compound

> <ChemNote>


> <STRUCTURE_Shown>
tested chemical

> <STRUCTURE_Formula>
C17H22N2OS

> <STRUCTURE_MW>
302.4344

> <STRUCTURE_ChemType>
defined organic

> <STRUCTURE_DefinedOrganicForm>
parent

> <STRUCTURE_IUPAC>
1-{(E)-2-(methylsulfanyl)-1-[2-(pentyloxy)phenyl]vinyl}-1H-imidazole

> <STRUCTURE_SMILES>
CS\C=C(/c1ccccc1OCCCCC)n2ccnc2

> <STRUCTURE_SMILES_Desalt>
CS\C=C(/c1ccccc1OCCCCC)n2ccnc2

> <Substance_modify_yyyymmdd>
20131018

$$$$
