130929-57-6
ChemmineR-0915142007XD

 22 22  0  0  0  0  0  0  0  0  2 V2000
    3.4559   -1.9822    0.0000 C   0  0  0  0  0  0  0  0  0  0  0  0
    3.4559   -3.3106    0.0000 C   0  0  0  0  0  0  0  0  0  0  0  0
    4.6078   -1.3284    0.0000 C   0  0  0  0  0  0  0  0  0  0  0  0
    2.3039   -1.3284    0.0000 C   0  0  0  0  0  0  0  0  0  0  0  0
    2.3039   -4.0059    0.0000 C   0  0  0  0  0  0  0  0  0  0  0  0
    5.7701   -1.9822    0.0000 C   0  0  0  0  0  0  0  0  0  0  0  0
    1.1520   -1.9822    0.0000 C   0  0  0  0  0  0  0  0  0  0  0  0
    1.1520   -3.3106    0.0000 C   0  0  0  0  0  0  0  0  0  0  0  0
    2.3039   -5.3135    0.0000 N   0  3  0  0  0  0  0  0  0  0  0  0
    6.9221   -1.3284    0.0000 C   0  0  0  0  0  0  0  0  0  0  0  0
    5.7701   -3.3106    0.0000 C   0  0  0  0  0  0  0  0  0  0  0  0
    0.0000   -1.3284    0.0000 O   0  0  0  0  0  0  0  0  0  0  0  0
    0.0000   -4.0059    0.0000 O   0  0  0  0  0  0  0  0  0  0  0  0
    3.4559   -5.9881    0.0000 O   0  0  0  0  0  0  0  0  0  0  0  0
    1.1520   -5.9881    0.0000 O   0  5  0  0  0  0  0  0  0  0  0  0
    8.0741   -1.9822    0.0000 N   0  0  0  0  0  0  0  0  0  0  0  0
    6.9221    0.0000    0.0000 O   0  0  0  0  0  0  0  0  0  0  0  0
    5.7701   -4.6389    0.0000 N   0  0  0  0  0  0  0  0  0  0  0  0
    8.0741   -3.3106    0.0000 C   0  0  0  0  0  0  0  0  0  0  0  0
    9.2260   -1.3284    0.0000 C   0  0  0  0  0  0  0  0  0  0  0  0
    9.2260   -4.0059    0.0000 C   0  0  0  0  0  0  0  0  0  0  0  0
   10.3780   -1.9822    0.0000 C   0  0  0  0  0  0  0  0  0  0  0  0
  1  2  2  0  0  0  0
  1  3  1  0  0  0  0
  1  4  1  0  0  0  0
  2  5  1  0  0  0  0
  3  6  2  0  0  0  0
  4  7  2  0  0  0  0
  5  8  2  0  0  0  0
  5  9  1  0  0  0  0
  6 10  1  0  0  0  0
  6 11  1  0  0  0  0
  7 12  1  0  0  0  0
  7  8  1  0  0  0  0
  8 13  1  0  0  0  0
  9 14  2  0  0  0  0
  9 15  1  0  0  0  0
 10 16  1  0  0  0  0
 10 17  2  0  0  0  0
 11 18  3  0  0  0  0
 16 19  1  0  0  0  0
 16 20  1  0  0  0  0
 19 21  1  0  0  0  0
 20 22  1  0  0  0  0
M  END
> <ID>
11681

> <Formula>
C14H15N3O5

> <FW>
305.286

> <DSSTox_CID>
26439

> <DSSTox_RID>
81615

> <DSSTox_GSID>
46439

> <DSSTox_FileID_Sort>
6296

> <TS_ChemName>
Entacapone

> <TS_ChemName_Synonyms>


> <TS_CASRN>
130929-57-6

> <CASRN_ChemName_Relationship>
primary

> <TS_Description>
single chemical compound

> <ChemNote>
stereochem

> <STRUCTURE_Shown>
tested chemical

> <STRUCTURE_Formula>
C14H15N3O5

> <STRUCTURE_MW>
305.286

> <STRUCTURE_ChemType>
defined organic

> <STRUCTURE_DefinedOrganicForm>
parent

> <STRUCTURE_IUPAC>
(2E)-2-cyano-3-(3,4-dihydroxy-5-nitrophenyl)-N,N-diethylprop-2-enamide

> <STRUCTURE_SMILES>
Oc1cc(\C=C(/C#N)C(=O)N(CC)CC)cc([N+]([O-])=O)c1O

> <STRUCTURE_SMILES_Desalt>
Oc1cc(\C=C(/C#N)C(=O)N(CC)CC)cc([N+]([O-])=O)c1O

> <Substance_modify_yyyymmdd>
20110813

$$$$
