131-48-6
ChemmineR-0915142007XD

 21 20  0  0  1  0  0  0  0  0  1 V2000
    1.1373   -3.3316    0.0000 C   0  0  0  0  0  0  0  0  0  0  0  0
    2.2862   -4.0209    0.0000 C   0  0  0  0  0  0  0  0  0  0  0  0
    3.4465   -3.3316    0.0000 C   0  0  0  0  0  0  0  0  0  0  0  0
    4.5838   -4.0209    0.0000 C   0  0  0  0  0  0  0  0  0  0  0  0
    5.7441   -3.3316    0.0000 C   0  0  0  0  0  0  0  0  0  0  0  0
    6.8815   -4.0209    0.0000 C   0  0  0  0  0  0  0  0  0  0  0  0
    8.0418   -3.3316    0.0000 C   0  0  0  0  0  0  0  0  0  0  0  0
    9.1906   -4.0209    0.0000 C   0  0  0  0  0  0  0  0  0  0  0  0
   10.3509   -3.3316    0.0000 C   0  0  0  0  0  0  0  0  0  0  0  0
   11.4883   -4.0209    0.0000 O   0  0  0  0  0  0  0  0  0  0  0  0
    0.0000   -4.0209    0.0000 O   0  0  0  0  0  0  0  0  0  0  0  0
    2.2862   -5.3306    0.0000 O   0  0  0  0  0  0  0  0  0  0  0  0
    3.4465   -2.0104    0.0000 O   0  0  0  0  0  0  0  0  0  0  0  0
    4.5838   -5.3306    0.0000 O   0  0  0  0  0  0  0  0  0  0  0  0
    5.7441   -2.0104    0.0000 N   0  0  0  0  0  0  0  0  0  0  0  0
    6.8815   -5.3306    0.0000 O   0  0  0  0  0  0  0  0  0  0  0  0
    9.1906   -5.3306    0.0000 O   0  0  0  0  0  0  0  0  0  0  0  0
   10.3509   -2.0104    0.0000 O   0  0  0  0  0  0  0  0  0  0  0  0
    6.8815   -1.3441    0.0000 C   0  0  0  0  0  0  0  0  0  0  0  0
    6.8815    0.0000    0.0000 O   0  0  0  0  0  0  0  0  0  0  0  0
    8.0418   -2.0104    0.0000 C   0  0  0  0  0  0  0  0  0  0  0  0
  1  2  1  0  0  0  0
  1 11  1  0  0  0  0
  2  3  1  0  0  0  0
  2 12  1  6  0  0  0
  3  4  1  0  0  0  0
  3 13  1  1  0  0  0
  4  5  1  0  0  0  0
  4 14  1  1  0  0  0
  5  6  1  0  0  0  0
  5 15  1  6  0  0  0
  6  7  1  0  0  0  0
  6 16  1  6  0  0  0
  7  8  1  0  0  0  0
  8  9  1  0  0  0  0
  8 17  2  0  0  0  0
  9 10  2  0  0  0  0
  9 18  1  0  0  0  0
 15 19  1  0  0  0  0
 19 20  2  0  0  0  0
 19 21  1  0  0  0  0
M  END
> <ID>
14496

> <Formula>
C11H19NO9

> <FW>
309.2699

> <DSSTox_CID>
29807

> <DSSTox_RID>
81745

> <DSSTox_GSID>
50425

> <DSSTox_FileID_Sort>
6426

> <TS_ChemName>
Aceneuramic acid

> <TS_ChemName_Synonyms>


> <TS_CASRN>
131-48-6

> <CASRN_ChemName_Relationship>
primary

> <TS_Description>
single chemical compound

> <ChemNote>
stereochem

> <STRUCTURE_Shown>
tested chemical

> <STRUCTURE_Formula>
C11H19NO9

> <STRUCTURE_MW>
309.2699

> <STRUCTURE_ChemType>
defined organic

> <STRUCTURE_DefinedOrganicForm>
parent

> <STRUCTURE_IUPAC>
(4S,5R,6R,7S,8R)-5-(acetylamino)-4,6,7,8,9-pentahydroxy-2-oxononanoic acid

> <STRUCTURE_SMILES>
O[C@H]([C@H](NC(C)=O)[C@@H](O)CC(=O)C(=O)O)[C@H](O)[C@H](O)CO

> <STRUCTURE_SMILES_Desalt>
O[C@H]([C@H](NC(C)=O)[C@@H](O)CC(=O)C(=O)O)[C@H](O)[C@H](O)CO

> <Substance_modify_yyyymmdd>
20120227

$$$$
