131-55-5
ChemmineR-0915142007XD

 18 19  0  0  0  0  0  0  0  0  1 V2000
    5.7687   -2.0029    0.0000 C   0  0  0  0  0  0  0  0  0  0  0  0
    6.9225   -1.3291    0.0000 C   0  0  0  0  0  0  0  0  0  0  0  0
    8.0762   -2.0029    0.0000 C   0  0  0  0  0  0  0  0  0  0  0  0
    8.0762   -3.3136    0.0000 C   0  0  0  0  0  0  0  0  0  0  0  0
    6.9225   -3.9873    0.0000 C   0  0  0  0  0  0  0  0  0  0  0  0
    5.7687   -3.3136    0.0000 C   0  0  0  0  0  0  0  0  0  0  0  0
    4.6150   -1.3291    0.0000 C   0  0  0  0  0  0  0  0  0  0  0  0
    4.6150    0.0000    0.0000 O   0  0  0  0  0  0  0  0  0  0  0  0
    3.4612   -2.0029    0.0000 C   0  0  0  0  0  0  0  0  0  0  0  0
    3.4612   -3.3136    0.0000 C   0  0  0  0  0  0  0  0  0  0  0  0
    2.3075   -3.9873    0.0000 C   0  0  0  0  0  0  0  0  0  0  0  0
    1.1537   -3.3320    0.0000 C   0  0  0  0  0  0  0  0  0  0  0  0
    1.1537   -2.0029    0.0000 C   0  0  0  0  0  0  0  0  0  0  0  0
    2.3075   -1.3291    0.0000 C   0  0  0  0  0  0  0  0  0  0  0  0
    6.9225    0.0000    0.0000 O   0  0  0  0  0  0  0  0  0  0  0  0
    4.6150   -3.9873    0.0000 O   0  0  0  0  0  0  0  0  0  0  0  0
    9.2300   -3.9873    0.0000 O   0  0  0  0  0  0  0  0  0  0  0  0
    0.0000   -3.9873    0.0000 O   0  0  0  0  0  0  0  0  0  0  0  0
  1  7  1  0  0  0  0
  1  6  2  0  0  0  0
  1  2  1  0  0  0  0
  2  3  2  0  0  0  0
  2 15  1  0  0  0  0
  3  4  1  0  0  0  0
  4  5  2  0  0  0  0
  4 17  1  0  0  0  0
  5  6  1  0  0  0  0
  7  8  2  0  0  0  0
  7  9  1  0  0  0  0
  9 10  2  0  0  0  0
  9 14  1  0  0  0  0
 10 11  1  0  0  0  0
 10 16  1  0  0  0  0
 11 12  2  0  0  0  0
 12 13  1  0  0  0  0
 12 18  1  0  0  0  0
 13 14  2  0  0  0  0
M  END
> <ID>
8273

> <Formula>
C13H10O5

> <FW>
246.2155

> <DSSTox_CID>
21306

> <DSSTox_RID>
79684

> <DSSTox_GSID>
41306

> <DSSTox_FileID_Sort>
4366

> <TS_ChemName>
2,2',4,4'-Tetrahydroxybenzophenone

> <TS_ChemName_Synonyms>


> <TS_CASRN>
131-55-5

> <CASRN_ChemName_Relationship>
primary

> <TS_Description>
single chemical compound

> <ChemNote>


> <STRUCTURE_Shown>
tested chemical

> <STRUCTURE_Formula>
C13H10O5

> <STRUCTURE_MW>
246.2155

> <STRUCTURE_ChemType>
defined organic

> <STRUCTURE_DefinedOrganicForm>
parent

> <STRUCTURE_IUPAC>
bis(2,4-dihydroxyphenyl)methanone

> <STRUCTURE_SMILES>
O=C(c1ccc(O)cc1O)c2ccc(O)cc2O

> <STRUCTURE_SMILES_Desalt>
O=C(c1ccc(O)cc1O)c2ccc(O)cc2O

> <Substance_modify_yyyymmdd>
20080825

$$$$
