131-18-0
ChemmineR-0915142007XD

 22 22  0  0  0  0  0  0  0  0  1 V2000
    2.2875   -1.9977    0.0000 C   0  0  0  0  0  0  0  0  0  0  0  0
    2.2875   -3.3329    0.0000 C   0  0  0  0  0  0  0  0  0  0  0  0
    3.4468   -1.3249    0.0000 C   0  0  0  0  0  0  0  0  0  0  0  0
    3.4468   -3.9850    0.0000 C   0  0  0  0  0  0  0  0  0  0  0  0
    3.4468    0.0000    0.0000 O   0  0  0  0  0  0  0  0  0  0  0  0
    4.5957   -3.3329    0.0000 O   0  0  0  0  0  0  0  0  0  0  0  0
    4.5957   -1.9977    0.0000 O   0  0  0  0  0  0  0  0  0  0  0  0
    3.4468   -5.3203    0.0000 O   0  0  0  0  0  0  0  0  0  0  0  0
    1.1386   -1.3249    0.0000 C   0  0  0  0  0  0  0  0  0  0  0  0
    1.1386   -3.9850    0.0000 C   0  0  0  0  0  0  0  0  0  0  0  0
    0.0000   -1.9977    0.0000 C   0  0  0  0  0  0  0  0  0  0  0  0
    0.0000   -3.3329    0.0000 C   0  0  0  0  0  0  0  0  0  0  0  0
    5.7550   -1.3249    0.0000 C   0  0  0  0  0  0  0  0  0  0  0  0
    6.9040   -1.9977    0.0000 C   0  0  0  0  0  0  0  0  0  0  0  0
    8.0632   -1.3249    0.0000 C   0  0  0  0  0  0  0  0  0  0  0  0
    9.2122   -1.9977    0.0000 C   0  0  0  0  0  0  0  0  0  0  0  0
   10.3508   -1.3249    0.0000 C   0  0  0  0  0  0  0  0  0  0  0  0
    4.5957   -5.9931    0.0000 C   0  0  0  0  0  0  0  0  0  0  0  0
    4.5957   -7.3180    0.0000 C   0  0  0  0  0  0  0  0  0  0  0  0
    5.7550   -7.9701    0.0000 C   0  0  0  0  0  0  0  0  0  0  0  0
    5.7550   -9.3053    0.0000 C   0  0  0  0  0  0  0  0  0  0  0  0
    6.9040   -9.9781    0.0000 C   0  0  0  0  0  0  0  0  0  0  0  0
  1  2  2  0  0  0  0
  1  3  1  0  0  0  0
  1  9  1  0  0  0  0
  2  4  1  0  0  0  0
  2 10  1  0  0  0  0
  3  5  2  0  0  0  0
  3  7  1  0  0  0  0
  4  6  2  0  0  0  0
  4  8  1  0  0  0  0
  7 13  1  0  0  0  0
  8 18  1  0  0  0  0
  9 11  2  0  0  0  0
 10 12  2  0  0  0  0
 11 12  1  0  0  0  0
 13 14  1  0  0  0  0
 14 15  1  0  0  0  0
 15 16  1  0  0  0  0
 16 17  1  0  0  0  0
 18 19  1  0  0  0  0
 19 20  1  0  0  0  0
 20 21  1  0  0  0  0
 21 22  1  0  0  0  0
M  END
> <ID>
6313

> <Formula>
C18H26O4

> <FW>
306.3966

> <DSSTox_CID>
11131

> <DSSTox_RID>
78864

> <DSSTox_GSID>
31131

> <DSSTox_FileID_Sort>
3546

> <TS_ChemName>
Dipentyl phthalate

> <TS_ChemName_Synonyms>
Dipentyl phthalate (Di-n-pentylphthalate)

> <TS_CASRN>
131-18-0

> <CASRN_ChemName_Relationship>
primary

> <TS_Description>
single chemical compound

> <ChemNote>


> <STRUCTURE_Shown>
tested chemical

> <STRUCTURE_Formula>
C18H26O4

> <STRUCTURE_MW>
306.3966

> <STRUCTURE_ChemType>
defined organic

> <STRUCTURE_DefinedOrganicForm>
parent

> <STRUCTURE_IUPAC>
dipentyl benzene-1,2-dicarboxylate

> <STRUCTURE_SMILES>
O=C(OCCCCC)c1ccccc1C(=O)OCCCCC

> <STRUCTURE_SMILES_Desalt>
O=C(OCCCCC)c1ccccc1C(=O)OCCCCC

> <Substance_modify_yyyymmdd>
20080429

$$$$
