131-01-1
ChemmineR-0915142007XD

 45 50  0  0  1  0  0  0  0  0  1 V2000
    4.5135   -1.9618    0.0000 C   0  0  0  0  0  0  0  0  0  0  0  0
    4.5135   -0.6343    0.0000 C   0  0  0  0  0  0  0  0  0  0  0  0
    3.4073   -2.6255    0.0000 N   0  0  0  0  0  0  0  0  0  0  0  0
    6.7850   -5.8558    0.0000 C   0  0  0  0  0  0  0  0  0  0  0  0
    6.7850   -4.5578    0.0000 C   0  0  0  0  0  0  0  0  0  0  0  0
    5.6640   -2.6255    0.0000 C   0  0  0  0  0  0  0  0  0  0  0  0
    6.7703   -1.9618    0.0000 N   0  0  0  0  0  0  0  0  0  0  0  0
    7.8470   -3.9383    0.0000 C   0  0  0  0  0  0  0  0  0  0  0  0
    9.0123   -5.8558    0.0000 C   0  0  0  0  0  0  0  0  0  0  0  0
   11.3133   -5.8705    0.0000 C   0  0  0  0  0  0  0  0  0  0  0  0
    5.6640   -3.9383    0.0000 C   0  0  0  0  0  0  0  0  0  0  0  0
    2.2568   -0.6343    0.0000 C   0  0  0  0  0  0  0  0  0  0  0  0
    7.9060   -6.5048    0.0000 C   0  0  0  0  0  0  0  0  0  0  0  0
    2.2568   -1.9618    0.0000 C   0  0  0  0  0  0  0  0  0  0  0  0
   11.3133   -4.5873    0.0000 C   0  0  0  0  0  0  0  0  0  0  0  0
   11.3133   -1.9618    0.0000 C   0  0  0  0  0  0  0  0  0  0  0  0
    5.6640   -6.5785    0.0000 C   0  0  0  0  0  0  0  0  0  0  0  0
   10.1628   -6.5343    0.0000 O   0  0  0  0  0  0  0  0  0  0  0  0
    7.8470   -2.6255    0.0000 C   0  0  0  0  0  0  0  0  0  0  0  0
   12.4343   -2.6403    0.0000 C   0  0  0  0  0  0  0  0  0  0  0  0
   10.1923   -2.6403    0.0000 C   0  0  0  0  0  0  0  0  0  0  0  0
    9.0123   -4.5578    0.0000 C   0  0  0  0  0  0  0  0  0  0  0  0
    5.6198    0.0000    0.0000 C   0  0  0  0  0  0  0  0  0  0  0  0
   12.4343   -3.9530    0.0000 C   0  0  0  0  0  0  0  0  0  0  0  0
   10.1923   -3.9530    0.0000 C   0  0  0  0  0  0  0  0  0  0  0  0
    6.7703   -0.6343    0.0000 C   0  0  0  0  0  0  0  0  0  0  0  0
   12.4343   -6.5343    0.0000 O   0  0  0  0  0  0  0  0  0  0  0  0
    4.5430   -5.8853    0.0000 O   0  0  0  0  0  0  0  0  0  0  0  0
   11.3133   -0.6638    0.0000 O   0  0  0  0  0  0  0  0  0  0  0  0
    7.9060   -7.8323    0.0000 O   0  0  0  0  0  0  0  0  0  0  0  0
    5.6640   -7.8618    0.0000 O   0  0  0  0  0  0  0  0  0  0  0  0
   13.5995   -1.9618    0.0000 O   0  0  0  0  0  0  0  0  0  0  0  0
    9.0860   -1.9470    0.0000 O   0  0  0  0  0  0  0  0  0  0  0  0
    1.1505    0.0000    0.0000 C   0  0  0  0  0  0  0  0  0  0  0  0
    1.1505   -2.6255    0.0000 C   0  0  0  0  0  0  0  0  0  0  0  0
   12.4343    0.0000    0.0000 C   0  0  0  0  0  0  0  0  0  0  0  0
    9.0270   -8.4960    0.0000 C   0  0  0  0  0  0  0  0  0  0  0  0
    9.0860   -0.5458    0.0000 C   0  0  0  0  0  0  0  0  0  0  0  0
    6.8145   -8.4960    0.0000 C   0  0  0  0  0  0  0  0  0  0  0  0
   14.7500   -2.6255    0.0000 C   0  0  0  0  0  0  0  0  0  0  0  0
    0.0000   -0.6343    0.0000 C   0  0  0  0  0  0  0  0  0  0  0  0
    0.0000   -1.9618    0.0000 C   0  0  0  0  0  0  0  0  0  0  0  0
    4.5135   -3.4220    0.0000 H   0  0  0  0  0  0  0  0  0  0  0  0
    5.6345   -5.3248    0.0000 H   0  0  0  0  0  0  0  0  0  0  0  0
    8.9238   -3.2303    0.0000 H   0  0  0  0  0  0  0  0  0  0  0  0
  1  2  2  0  0  0  0
  1  3  1  0  0  0  0
  1  6  1  0  0  0  0
  2 12  1  0  0  0  0
  2 23  1  0  0  0  0
  3 14  1  0  0  0  0
  4  5  1  0  0  0  0
  4 13  1  0  0  0  0
  4 17  1  1  0  0  0
  5 11  1  0  0  0  0
  5  8  1  0  0  0  0
  5 44  1  6  0  0  0
  6  7  1  0  0  0  0
  6 11  1  0  0  0  0
  6 43  1  1  0  0  0
  7 19  1  0  0  0  0
  7 26  1  0  0  0  0
  8 22  1  0  0  0  0
  8 45  1  6  0  0  0
  8 19  1  0  0  0  0
  9 22  1  0  0  0  0
  9 18  1  1  0  0  0
  9 13  1  0  0  0  0
 10 18  1  0  0  0  0
 10 15  1  0  0  0  0
 10 27  2  0  0  0  0
 12 34  1  0  0  0  0
 12 14  2  0  0  0  0
 13 30  1  6  0  0  0
 14 35  1  0  0  0  0
 15 24  1  0  0  0  0
 15 25  2  0  0  0  0
 16 21  2  0  0  0  0
 16 29  1  0  0  0  0
 16 20  1  0  0  0  0
 17 28  2  0  0  0  0
 17 31  1  0  0  0  0
 20 24  2  0  0  0  0
 20 32  1  0  0  0  0
 21 25  1  0  0  0  0
 21 33  1  0  0  0  0
 23 26  1  0  0  0  0
 29 36  1  0  0  0  0
 30 37  1  0  0  0  0
 31 39  1  0  0  0  0
 32 40  1  0  0  0  0
 33 38  1  0  0  0  0
 34 41  2  0  0  0  0
 35 42  2  0  0  0  0
 41 42  1  0  0  0  0
M  END
> <ID>
372

> <Formula>
C32H38N2O8

> <FW>
578.6527

> <DSSTox_CID>
383

> <DSSTox_RID>
75556

> <DSSTox_GSID>
20383

> <DSSTox_FileID_Sort>
240

> <TS_ChemName>
Deserpidine

> <TS_ChemName_Synonyms>


> <TS_CASRN>
131-01-1

> <CASRN_ChemName_Relationship>
primary

> <TS_Description>
single chemical compound

> <ChemNote>
stereochem

> <STRUCTURE_Shown>
tested chemical

> <STRUCTURE_Formula>
C32H38N2O8

> <STRUCTURE_MW>
578.6527

> <STRUCTURE_ChemType>
defined organic

> <STRUCTURE_DefinedOrganicForm>
parent

> <STRUCTURE_IUPAC>
methyl (3beta,16beta,17alpha,18beta,20alpha)-17-methoxy-18-[(3,4,5-trimethoxybenzoyl)oxy]yohimban-16-carboxylate

> <STRUCTURE_SMILES>
COc1cc(cc(OC)c1OC)C(=O)O[C@@H]3C[C@@H]4CN5CCc2c6ccccc6nc2[C@H]5C[C@@H]4[C@@H]([C@H]3OC)C(=O)OC

> <STRUCTURE_SMILES_Desalt>
COc1cc(cc(OC)c1OC)C(=O)O[C@@H]3C[C@@H]4CN5CCc2c6ccccc6nc2[C@H]5C[C@@H]4[C@@H]([C@H]3OC)C(=O)OC

> <Substance_modify_yyyymmdd>
20080429

$$$$
