131-70-4
ChemmineR-0915142007XD

 16 16  0  0  0  0  0  0  0  0  1 V2000
    2.3040   -1.9906    0.0000 C   0  0  0  0  0  0  0  0  0  0  0  0
    2.3040   -3.3177    0.0000 C   0  0  0  0  0  0  0  0  0  0  0  0
    3.4560   -1.3271    0.0000 C   0  0  0  0  0  0  0  0  0  0  0  0
    3.4560   -3.9905    0.0000 C   0  0  0  0  0  0  0  0  0  0  0  0
    3.4560    0.0000    0.0000 O   0  0  0  0  0  0  0  0  0  0  0  0
    3.4560   -5.3176    0.0000 O   0  0  0  0  0  0  0  0  0  0  0  0
    4.6080   -1.9906    0.0000 O   0  0  0  0  0  0  0  0  0  0  0  0
    4.6080   -3.3177    0.0000 O   0  0  0  0  0  0  0  0  0  0  0  0
    1.1520   -1.3271    0.0000 C   0  0  0  0  0  0  0  0  0  0  0  0
    1.1520   -3.9905    0.0000 C   0  0  0  0  0  0  0  0  0  0  0  0
    0.0000   -1.9906    0.0000 C   0  0  0  0  0  0  0  0  0  0  0  0
    0.0000   -3.3177    0.0000 C   0  0  0  0  0  0  0  0  0  0  0  0
    5.7600   -1.3271    0.0000 C   0  0  0  0  0  0  0  0  0  0  0  0
    6.9119   -1.9906    0.0000 C   0  0  0  0  0  0  0  0  0  0  0  0
    8.0639   -1.3271    0.0000 C   0  0  0  0  0  0  0  0  0  0  0  0
    9.2159   -1.9906    0.0000 C   0  0  0  0  0  0  0  0  0  0  0  0
  1  2  2  0  0  0  0
  1  3  1  0  0  0  0
  1  9  1  0  0  0  0
  2  4  1  0  0  0  0
  2 10  1  0  0  0  0
  3  5  2  0  0  0  0
  3  7  1  0  0  0  0
  4  6  2  0  0  0  0
  4  8  1  0  0  0  0
  7 13  1  0  0  0  0
  9 11  2  0  0  0  0
 10 12  2  0  0  0  0
 11 12  1  0  0  0  0
 13 14  1  0  0  0  0
 14 15  1  0  0  0  0
 15 16  1  0  0  0  0
M  END
> <ID>
7567

> <Formula>
C12H14O4

> <FW>
222.2372

> <DSSTox_CID>
20002

> <DSSTox_RID>
79438

> <DSSTox_GSID>
40002

> <DSSTox_FileID_Sort>
4120

> <TS_ChemName>
Monobutyl phthalate

> <TS_ChemName_Synonyms>
Monobutyl Phthalate (MBP)

> <TS_CASRN>
131-70-4

> <CASRN_ChemName_Relationship>
primary

> <TS_Description>
single chemical compound

> <ChemNote>


> <STRUCTURE_Shown>
tested chemical

> <STRUCTURE_Formula>
C12H14O4

> <STRUCTURE_MW>
222.2372

> <STRUCTURE_ChemType>
defined organic

> <STRUCTURE_DefinedOrganicForm>
parent

> <STRUCTURE_IUPAC>
2-(butoxycarbonyl)benzoic acid

> <STRUCTURE_SMILES>
O=C(O)c1ccccc1C(=O)OCCCC

> <STRUCTURE_SMILES_Desalt>
O=C(O)c1ccccc1C(=O)OCCCC

> <Substance_modify_yyyymmdd>
20080429

$$$$
