131-11-3
ChemmineR-0915142007XD

 14 14  0  0  0  0  0  0  0  0  1 V2000
    2.6608   -2.3037    0.0000 C   0  0  0  0  0  0  0  0  0  0  0  0
    1.9927   -3.4556    0.0000 C   0  0  0  0  0  0  0  0  0  0  0  0
    2.6608   -4.6074    0.0000 C   0  0  0  0  0  0  0  0  0  0  0  0
    1.9927   -5.7593    0.0000 O   0  0  0  0  0  0  0  0  0  0  0  0
    3.9912   -4.6074    0.0000 O   0  0  0  0  0  0  0  0  0  0  0  0
    4.6535   -5.7593    0.0000 C   0  0  0  0  0  0  0  0  0  0  0  0
    0.6623   -3.4556    0.0000 C   0  0  0  0  0  0  0  0  0  0  0  0
    0.0000   -2.3037    0.0000 C   0  0  0  0  0  0  0  0  0  0  0  0
    0.6623   -1.1519    0.0000 C   0  0  0  0  0  0  0  0  0  0  0  0
    1.9927   -1.1519    0.0000 C   0  0  0  0  0  0  0  0  0  0  0  0
    3.9912   -2.3037    0.0000 C   0  0  0  0  0  0  0  0  0  0  0  0
    4.6535   -3.4556    0.0000 O   0  0  0  0  0  0  0  0  0  0  0  0
    4.6535   -1.1519    0.0000 O   0  0  0  0  0  0  0  0  0  0  0  0
    3.9912    0.0000    0.0000 C   0  0  0  0  0  0  0  0  0  0  0  0
  1  2  2  0  0  0  0
  1 10  1  0  0  0  0
  1 11  1  0  0  0  0
  2  3  1  0  0  0  0
  2  7  1  0  0  0  0
  3  4  2  0  0  0  0
  3  5  1  0  0  0  0
  5  6  1  0  0  0  0
  7  8  2  0  0  0  0
  8  9  1  0  0  0  0
  9 10  2  0  0  0  0
 11 12  2  0  0  0  0
 11 13  1  0  0  0  0
 13 14  1  0  0  0  0
M  END
> <ID>
2237

> <Formula>
C10H10O4

> <FW>
194.184

> <DSSTox_CID>
2455

> <DSSTox_RID>
76596

> <DSSTox_GSID>
22455

> <DSSTox_FileID_Sort>
1280

> <TS_ChemName>
Dimethyl phthalate

> <TS_ChemName_Synonyms>


> <TS_CASRN>
131-11-3

> <CASRN_ChemName_Relationship>
primary

> <TS_Description>
single chemical compound

> <ChemNote>


> <STRUCTURE_Shown>
tested chemical

> <STRUCTURE_Formula>
C10H10O4

> <STRUCTURE_MW>
194.184

> <STRUCTURE_ChemType>
defined organic

> <STRUCTURE_DefinedOrganicForm>
parent

> <STRUCTURE_IUPAC>
dimethyl benzene-1,2-dicarboxylate

> <STRUCTURE_SMILES>
COC(=O)c1ccccc1C(=O)OC

> <STRUCTURE_SMILES_Desalt>
COC(=O)c1ccccc1C(=O)OC

> <Substance_modify_yyyymmdd>
20080429

$$$$
