131-03-3
ChemmineR-0915142007XD

 29 33  0  0  1  0  0  0  0  0  1 V2000
    4.3545   -1.9085    0.0000 C   0  0  0  0  0  0  0  0  0  0  0  0
    4.3545   -0.6362    0.0000 C   0  0  0  0  0  0  0  0  0  0  0  0
    3.2525   -2.5625    0.0000 N   0  0  0  0  0  0  0  0  0  0  0  0
    5.4208   -2.5625    0.0000 C   0  0  0  0  0  0  0  0  0  0  0  0
    6.5407   -4.5606    0.0000 C   0  0  0  0  0  0  0  0  0  0  0  0
    6.5318   -1.9085    0.0000 N   0  0  0  0  0  0  0  0  0  0  0  0
    6.5407   -5.8688    0.0000 C   0  0  0  0  0  0  0  0  0  0  0  0
    5.4208   -3.8976    0.0000 C   0  0  0  0  0  0  0  0  0  0  0  0
    2.1683   -0.6362    0.0000 C   0  0  0  0  0  0  0  0  0  0  0  0
    2.1683   -1.9085    0.0000 C   0  0  0  0  0  0  0  0  0  0  0  0
    7.6966   -3.8976    0.0000 C   0  0  0  0  0  0  0  0  0  0  0  0
    5.4208   -6.5139    0.0000 C   0  0  0  0  0  0  0  0  0  0  0  0
    7.6966   -2.5267    0.0000 C   0  0  0  0  0  0  0  0  0  0  0  0
    5.4208    0.0000    0.0000 C   0  0  0  0  0  0  0  0  0  0  0  0
    6.5318   -0.6362    0.0000 C   0  0  0  0  0  0  0  0  0  0  0  0
    7.6966   -6.5139    0.0000 C   0  0  0  0  0  0  0  0  0  0  0  0
    5.4387   -7.8847    0.0000 O   0  0  0  0  0  0  0  0  0  0  0  0
    8.8524   -4.5248    0.0000 C   0  0  0  0  0  0  0  0  0  0  0  0
    8.8524   -5.8508    0.0000 C   0  0  0  0  0  0  0  0  0  0  0  0
    4.2828   -5.9135    0.0000 O   0  0  0  0  0  0  0  0  0  0  0  0
    7.6966   -7.8579    0.0000 O   0  0  0  0  0  0  0  0  0  0  0  0
    1.0931    0.0000    0.0000 C   0  0  0  0  0  0  0  0  0  0  0  0
    1.0931   -2.5625    0.0000 C   0  0  0  0  0  0  0  0  0  0  0  0
    3.1897   -6.6841    0.0000 C   0  0  0  0  0  0  0  0  0  0  0  0
    0.0000   -0.6362    0.0000 C   0  0  0  0  0  0  0  0  0  0  0  0
    0.0000   -1.9085    0.0000 C   0  0  0  0  0  0  0  0  0  0  0  0
    8.9599   -3.2345    0.0000 H   0  0  0  0  0  0  0  0  0  0  0  0
    5.4208   -5.2057    0.0000 H   0  0  0  0  0  0  0  0  0  0  0  0
    4.2470   -3.2166    0.0000 H   0  0  0  0  0  0  0  0  0  0  0  0
  1  2  2  0  0  0  0
  1  3  1  0  0  0  0
  1  4  1  0  0  0  0
  2  9  1  0  0  0  0
  2 14  1  0  0  0  0
  3 10  1  0  0  0  0
  4  6  1  0  0  0  0
  4  8  1  0  0  0  0
  4 29  1  6  0  0  0
  5  8  1  0  0  0  0
  5  7  1  0  0  0  0
  5 11  1  0  0  0  0
  5 28  1  6  0  0  0
  6 13  1  0  0  0  0
  6 15  1  0  0  0  0
  7 12  1  1  0  0  0
  7 16  1  0  0  0  0
  9 22  1  0  0  0  0
  9 10  2  0  0  0  0
 10 23  1  0  0  0  0
 11 18  1  0  0  0  0
 11 27  1  6  0  0  0
 11 13  1  0  0  0  0
 12 17  2  0  0  0  0
 12 20  1  0  0  0  0
 14 15  1  0  0  0  0
 16 21  1  6  0  0  0
 16 19  1  0  0  0  0
 18 19  1  0  0  0  0
 20 24  1  0  0  0  0
 22 25  2  0  0  0  0
 23 26  2  0  0  0  0
 25 26  1  0  0  0  0
M  END
> <ID>
11069

> <Formula>
C21H26N2O3

> <FW>
354.4427

> <DSSTox_CID>
25608

> <DSSTox_RID>
81001

> <DSSTox_GSID>
45608

> <DSSTox_FileID_Sort>
5682

> <TS_ChemName>
Rauwolscine

> <TS_ChemName_Synonyms>


> <TS_CASRN>
131-03-3

> <CASRN_ChemName_Relationship>
primary

> <TS_Description>
single chemical compound

> <ChemNote>
isomer of yohimbine [146-48-5]

> <STRUCTURE_Shown>
tested chemical

> <STRUCTURE_Formula>
C21H26N2O3

> <STRUCTURE_MW>
354.4427

> <STRUCTURE_ChemType>
defined organic

> <STRUCTURE_DefinedOrganicForm>
parent

> <STRUCTURE_IUPAC>
methyl (16beta,17alpha,20alpha)-17-hydroxyyohimban-16-carboxylate

> <STRUCTURE_SMILES>
O=C(OC)[C@@H]2[C@@H](O)CC[C@@H]3CN4CCc1c5ccccc5nc1[C@@H]4C[C@H]23

> <STRUCTURE_SMILES_Desalt>
O=C(OC)[C@@H]2[C@@H](O)CC[C@@H]3CN4CCc1c5ccccc5nc1[C@@H]4C[C@H]23

> <Substance_modify_yyyymmdd>
20100107

$$$$
