131-16-8
ChemmineR-0915142007XD

 18 18  0  0  0  0  0  0  0  0  1 V2000
    2.2884   -1.9983    0.0000 C   0  0  0  0  0  0  0  0  0  0  0  0
    2.2884   -3.3278    0.0000 C   0  0  0  0  0  0  0  0  0  0  0  0
    3.4406   -1.3295    0.0000 C   0  0  0  0  0  0  0  0  0  0  0  0
    3.4406   -3.9885    0.0000 C   0  0  0  0  0  0  0  0  0  0  0  0
    3.4406    0.0000    0.0000 O   0  0  0  0  0  0  0  0  0  0  0  0
    4.6009   -3.3278    0.0000 O   0  0  0  0  0  0  0  0  0  0  0  0
    4.6009   -1.9983    0.0000 O   0  0  0  0  0  0  0  0  0  0  0  0
    3.4406   -5.3181    0.0000 O   0  0  0  0  0  0  0  0  0  0  0  0
    1.1361   -1.3295    0.0000 C   0  0  0  0  0  0  0  0  0  0  0  0
    1.1361   -3.9885    0.0000 C   0  0  0  0  0  0  0  0  0  0  0  0
    0.0000   -1.9983    0.0000 C   0  0  0  0  0  0  0  0  0  0  0  0
    0.0000   -3.3278    0.0000 C   0  0  0  0  0  0  0  0  0  0  0  0
    5.7532   -1.3295    0.0000 C   0  0  0  0  0  0  0  0  0  0  0  0
    6.9054   -1.9983    0.0000 C   0  0  0  0  0  0  0  0  0  0  0  0
    8.0577   -1.3295    0.0000 C   0  0  0  0  0  0  0  0  0  0  0  0
    4.6009   -5.9868    0.0000 C   0  0  0  0  0  0  0  0  0  0  0  0
    4.6009   -7.3163    0.0000 C   0  0  0  0  0  0  0  0  0  0  0  0
    5.7532   -7.9771    0.0000 C   0  0  0  0  0  0  0  0  0  0  0  0
  1  2  2  0  0  0  0
  1  3  1  0  0  0  0
  1  9  1  0  0  0  0
  2  4  1  0  0  0  0
  2 10  1  0  0  0  0
  3  5  2  0  0  0  0
  3  7  1  0  0  0  0
  4  6  2  0  0  0  0
  4  8  1  0  0  0  0
  7 13  1  0  0  0  0
  8 16  1  0  0  0  0
  9 11  2  0  0  0  0
 10 12  2  0  0  0  0
 11 12  1  0  0  0  0
 13 14  1  0  0  0  0
 14 15  1  0  0  0  0
 16 17  1  0  0  0  0
 17 18  1  0  0  0  0
M  END
> <ID>
6314

> <Formula>
C14H18O4

> <FW>
250.2903

> <DSSTox_CID>
11133

> <DSSTox_RID>
78865

> <DSSTox_GSID>
31133

> <DSSTox_FileID_Sort>
3547

> <TS_ChemName>
Dipropyl phthalate

> <TS_ChemName_Synonyms>
Dipropyl phthalate (Di-n-propylphthalate)

> <TS_CASRN>
131-16-8

> <CASRN_ChemName_Relationship>
primary

> <TS_Description>
single chemical compound

> <ChemNote>


> <STRUCTURE_Shown>
tested chemical

> <STRUCTURE_Formula>
C14H18O4

> <STRUCTURE_MW>
250.2903

> <STRUCTURE_ChemType>
defined organic

> <STRUCTURE_DefinedOrganicForm>
parent

> <STRUCTURE_IUPAC>
dipropyl benzene-1,2-dicarboxylate

> <STRUCTURE_SMILES>
O=C(OCCC)c1ccccc1C(=O)OCCC

> <STRUCTURE_SMILES_Desalt>
O=C(OCCC)c1ccccc1C(=O)OCCC

> <Substance_modify_yyyymmdd>
20080429

$$$$
