131-54-4
ChemmineR-0915142007XD

 20 21  0  0  0  0  0  0  0  0  1 V2000
    5.7408   -1.3230    0.0000 C   0  0  0  0  0  0  0  0  0  0  0  0
    5.7408    0.0000    0.0000 O   0  0  0  0  0  0  0  0  0  0  0  0
    9.2153   -2.0018    0.0000 C   0  0  0  0  0  0  0  0  0  0  0  0
    9.2153   -3.3364    0.0000 C   0  0  0  0  0  0  0  0  0  0  0  0
    8.0533   -3.9921    0.0000 C   0  0  0  0  0  0  0  0  0  0  0  0
    6.9028   -3.3364    0.0000 C   0  0  0  0  0  0  0  0  0  0  0  0
    6.9028   -2.0018    0.0000 C   0  0  0  0  0  0  0  0  0  0  0  0
    8.0533   -1.3230    0.0000 C   0  0  0  0  0  0  0  0  0  0  0  0
    8.0533    0.0000    0.0000 O   0  0  0  0  0  0  0  0  0  0  0  0
   10.3542   -3.9921    0.0000 O   0  0  0  0  0  0  0  0  0  0  0  0
   11.5047   -3.3364    0.0000 C   0  0  0  0  0  0  0  0  0  0  0  0
    2.2894   -1.9903    0.0000 C   0  0  0  0  0  0  0  0  0  0  0  0
    2.2894   -3.3134    0.0000 C   0  0  0  0  0  0  0  0  0  0  0  0
    3.4514   -3.9806    0.0000 C   0  0  0  0  0  0  0  0  0  0  0  0
    4.6019   -3.3134    0.0000 C   0  0  0  0  0  0  0  0  0  0  0  0
    4.6019   -1.9903    0.0000 C   0  0  0  0  0  0  0  0  0  0  0  0
    3.4514   -1.3230    0.0000 C   0  0  0  0  0  0  0  0  0  0  0  0
    3.4514    0.0000    0.0000 O   0  0  0  0  0  0  0  0  0  0  0  0
    1.1505   -3.9921    0.0000 O   0  0  0  0  0  0  0  0  0  0  0  0
    0.0000   -3.3134    0.0000 C   0  0  0  0  0  0  0  0  0  0  0  0
  1  2  2  0  0  0  0
  1  7  1  0  0  0  0
  1 16  1  0  0  0  0
  3  8  2  0  0  0  0
  3  4  1  0  0  0  0
  4  5  2  0  0  0  0
  4 10  1  0  0  0  0
  5  6  1  0  0  0  0
  6  7  2  0  0  0  0
  7  8  1  0  0  0  0
  8  9  1  0  0  0  0
 10 11  1  0  0  0  0
 12 17  2  0  0  0  0
 12 13  1  0  0  0  0
 13 14  2  0  0  0  0
 13 19  1  0  0  0  0
 14 15  1  0  0  0  0
 15 16  2  0  0  0  0
 16 17  1  0  0  0  0
 17 18  1  0  0  0  0
 19 20  1  0  0  0  0
M  END
> <ID>
7528

> <Formula>
C15H14O5

> <FW>
274.2687

> <DSSTox_CID>
18875

> <DSSTox_RID>
79412

> <DSSTox_GSID>
38875

> <DSSTox_FileID_Sort>
4094

> <TS_ChemName>
2,2'-Dihydroxy-4,4'-dimethoxybenzophenone

> <TS_ChemName_Synonyms>


> <TS_CASRN>
131-54-4

> <CASRN_ChemName_Relationship>
primary

> <TS_Description>
single chemical compound

> <ChemNote>


> <STRUCTURE_Shown>
tested chemical

> <STRUCTURE_Formula>
C15H14O5

> <STRUCTURE_MW>
274.2687

> <STRUCTURE_ChemType>
defined organic

> <STRUCTURE_DefinedOrganicForm>
parent

> <STRUCTURE_IUPAC>
bis(2-hydroxy-4-methoxyphenyl)methanone

> <STRUCTURE_SMILES>
O=C(c1ccc(cc1O)OC)c2ccc(OC)cc2O

> <STRUCTURE_SMILES_Desalt>
O=C(c1ccc(cc1O)OC)c2ccc(OC)cc2O

> <Substance_modify_yyyymmdd>
20080429

$$$$
