1310709-74-0
ChemmineR-0915142007XD

 33 35  0  0  1  0  0  0  0  0  1 V2000
    3.4706   -4.6525    0.0000 C    0  0  0  0  0  0  0  0  0  0  0  0
    6.9196   -2.6755    0.0000 C    0  0  0  0  0  0  0  0  0  0  0  0
    4.6203   -4.0078    0.0000 C    0  0  0  0  0  0  0  0  0  0  0  0
    3.4706   -5.9848    0.0000 C    0  0  0  0  0  0  0  0  0  0  0  0
    6.9196   -4.0078    0.0000 C    0  0  0  0  0  0  0  0  0  0  0  0
    5.7592   -4.6525    0.0000 C    0  0  0  0  0  0  0  0  0  0  0  0
    8.1768   -2.2457    0.0000 C    0  0  0  0  0  0  0  0  0  0  0  0
    2.3424   -4.0078    0.0000 C    0  0  0  0  0  0  0  0  0  0  0  0
    2.3424   -6.6510    0.0000 C    0  0  0  0  0  0  0  0  0  0  0  0
    4.6203   -2.6755    0.0000 C    0  0  0  0  0  0  0  0  0  0  0  0
    5.7592   -2.0093    0.0000 C    0  0  0  0  0  0  0  0  0  0  0  0
    1.1927   -4.6525    0.0000 C    0  0  0  0  0  0  0  0  0  0  0  0
    8.9612   -3.3524    0.0000 C    0  0  0  0  0  0  0  0  0  0  0  0
    1.1927   -5.9848    0.0000 C    0  0  0  0  0  0  0  0  0  0  0  0
    8.1768   -4.4054    0.0000 C    0  0  0  0  0  0  0  0  0  0  0  0
    5.7592   -5.9848    0.0000 C    0  0  0  0  0  0  0  0  0  0  0  0
    4.6203   -6.6510    0.0000 C    0  0  0  0  0  0  0  0  0  0  0  0
    8.5421   -0.9563    0.0000 C    0  0  0  0  0  0  0  0  0  0  0  0
    4.6417   -5.2649    0.0000 F    0  0  0  0  0  0  0  0  0  0  0  0
    0.0000   -6.6833    0.0000 O    0  0  0  0  0  0  0  0  0  0  0  0
    7.6073    0.0000    0.0000 O    0  0  0  0  0  0  0  0  0  0  0  0
    9.5199   -2.2457    0.0000 O    0  0  0  0  0  0  0  0  0  0  0  0
    0.0000   -3.9756    0.0000 Cl   0  0  0  0  0  0  0  0  0  0  0  0
    3.4706   -3.3524    0.0000 C    0  0  0  0  0  0  0  0  0  0  0  0
    6.9196   -1.3216    0.0000 C    0  0  0  0  0  0  0  0  0  0  0  0
    3.4383   -1.9770    0.0000 O    0  0  0  0  0  0  0  0  0  0  0  0
    4.6203   -8.0049    0.0000 F    0  0  0  0  0  0  0  0  0  0  0  0
   10.2828   -3.3309    0.0000 C    0  0  0  0  0  0  0  0  0  0  0  0
    9.8207   -0.6447    0.0000 C    0  0  0  0  0  0  0  0  0  0  0  0
   10.7448   -1.6010    0.0000 O    0  0  0  0  0  0  0  0  0  0  0  0
    5.7592   -3.2987    0.0000 H    0  0  0  0  0  0  0  0  0  0  0  0
    6.9196   -5.3294    0.0000 H    0  0  0  0  0  0  0  0  0  0  0  0
    9.0579   -5.9956    0.0000 O    0  0  0  0  0  0  0  0  0  0  0  0
  1  3  1  0  0  0  0
  1  4  1  0  0  0  0
  1  8  1  0  0  0  0
  1 24  1  1  0  0  0
  2 11  1  0  0  0  0
  2  7  1  0  0  0  0
  2 25  1  1  0  0  0
  2  5  1  0  0  0  0
  3  6  1  0  0  0  0
  3 10  1  0  0  0  0
  3 19  1  6  0  0  0
  4  9  2  0  0  0  0
  4 17  1  0  0  0  0
  5  6  1  0  0  0  0
  5 15  1  0  0  0  0
  5 32  1  6  0  0  0
  6 31  1  1  0  0  0
  6 16  1  0  0  0  0
  7 18  1  1  0  0  0
  7 22  1  6  0  0  0
  7 13  1  0  0  0  0
  8 12  2  0  0  0  0
  9 14  1  0  0  0  0
 10 11  1  0  0  0  0
 10 26  1  1  0  0  0
 12 14  1  0  0  0  0
 12 23  1  0  0  0  0
 13 15  1  0  0  0  0
 13 28  1  6  0  0  0
 14 20  2  0  0  0  0
 16 17  1  0  0  0  0
 17 27  1  6  0  0  0
 18 21  2  0  0  0  0
 18 29  1  0  0  0  0
 29 30  1  0  0  0  0
M  END
> <ID>
11700

> <Formula>
C22H29ClF2O6

> <FW>
462.9119 (444.8966+18.0153)

> <DSSTox_CID>
26460

> <DSSTox_RID>
81634

> <DSSTox_GSID>
46460

> <DSSTox_FileID_Sort>
6315

> <TS_ChemName>
Halometasone hydrate

> <TS_ChemName_Synonyms>


> <TS_CASRN>
1310709-74-0

> <CASRN_ChemName_Relationship>
primary

> <TS_Description>
single chemical compound

> <ChemNote>
stereochem; tautomers; parent [50629-82-8]

> <STRUCTURE_Shown>
tested chemical

> <STRUCTURE_Formula>
C22H29ClF2O6

> <STRUCTURE_MW>
462.9119

> <STRUCTURE_ChemType>
defined organic

> <STRUCTURE_DefinedOrganicForm>
complex

> <STRUCTURE_IUPAC>
(6alpha,11beta,16alpha)-2-chloro-6,9-difluoro-11,17,21-trihydroxy-16-methylpregna-1,4-diene-3,20-dione hydrate (1:1)

> <STRUCTURE_SMILES>
O.OCC(=O)[C@@]4(O)[C@H](C)C[C@@H]3[C@]4(C)C[C@H](O)[C@@]2(F)[C@H]3C[C@H](F)C1=CC(=O)C(Cl)=C[C@@]12C

> <STRUCTURE_SMILES_Desalt>
OCC(=O)[C@@]4(O)[C@H](C)C[C@@H]3[C@]4(C)C[C@H](O)[C@@]2(F)[C@H]3C[C@H](F)C1=CC(=O)C(Cl)=C[C@@]12C

> <Substance_modify_yyyymmdd>
20110812

$$$$
