131341-86-1
ChemmineR-0915142007XD

 18 20  0  0  0  0  0  0  0  0  1 V2000
    2.2912   -1.9897    0.0000 C   0  0  0  0  0  0  0  0  0  0  0  0
    1.1396   -2.6590    0.0000 C   0  0  0  0  0  0  0  0  0  0  0  0
    2.2912   -0.6572    0.0000 C   0  0  0  0  0  0  0  0  0  0  0  0
    3.5574   -2.4057    0.0000 O   0  0  0  0  0  0  0  0  0  0  0  0
    1.1396   -3.9915    0.0000 C   0  0  0  0  0  0  0  0  0  0  0  0
    0.0000   -1.9897    0.0000 C   0  0  0  0  0  0  0  0  0  0  0  0
    3.5574   -0.2412    0.0000 O   0  0  0  0  0  0  0  0  0  0  0  0
    1.1396    0.0000    0.0000 C   0  0  0  0  0  0  0  0  0  0  0  0
    4.3472   -1.3325    0.0000 C   0  0  0  0  0  0  0  0  0  0  0  0
    2.2309   -4.7632    0.0000 C   0  0  0  0  0  0  0  0  0  0  0  0
    0.0663   -4.7632    0.0000 C   0  0  0  0  0  0  0  0  0  0  0  0
    0.0000   -0.6572    0.0000 C   0  0  0  0  0  0  0  0  0  0  0  0
    5.4988   -1.9897    0.0000 F   0  0  0  0  0  0  0  0  0  0  0  0
    5.4988   -0.6572    0.0000 F   0  0  0  0  0  0  0  0  0  0  0  0
    1.8149   -6.0294    0.0000 C   0  0  0  0  0  0  0  0  0  0  0  0
    3.4971   -4.3593    0.0000 C   0  0  0  0  0  0  0  0  0  0  0  0
    0.4824   -6.0294    0.0000 N   0  0  0  0  0  0  0  0  0  0  0  0
    4.7452   -3.9432    0.0000 N   0  0  0  0  0  0  0  0  0  0  0  0
  1  2  2  0  0  0  0
  1  3  1  0  0  0  0
  1  4  1  0  0  0  0
  2  5  1  0  0  0  0
  2  6  1  0  0  0  0
  3  7  1  0  0  0  0
  3  8  2  0  0  0  0
  4  9  1  0  0  0  0
  5 10  1  0  0  0  0
  5 11  2  0  0  0  0
  6 12  2  0  0  0  0
  7  9  1  0  0  0  0
  8 12  1  0  0  0  0
  9 13  1  0  0  0  0
  9 14  1  0  0  0  0
 10 15  2  0  0  0  0
 10 16  1  0  0  0  0
 11 17  1  0  0  0  0
 15 17  1  0  0  0  0
 16 18  3  0  0  0  0
M  END
> <ID>
6450

> <Formula>
C12H6F2N2O2

> <FW>
248.185

> <DSSTox_CID>
12398

> <DSSTox_RID>
78938

> <DSSTox_GSID>
32398

> <DSSTox_FileID_Sort>
3620

> <TS_ChemName>
Fludioxonil

> <TS_ChemName_Synonyms>
Fludioxonil (Maxim 4FS)

> <TS_CASRN>
131341-86-1

> <CASRN_ChemName_Relationship>
primary

> <TS_Description>
single chemical compound

> <ChemNote>


> <STRUCTURE_Shown>
tested chemical

> <STRUCTURE_Formula>
C12H6F2N2O2

> <STRUCTURE_MW>
248.185

> <STRUCTURE_ChemType>
defined organic

> <STRUCTURE_DefinedOrganicForm>
parent

> <STRUCTURE_IUPAC>
4-(2,2-difluoro-1,3-benzodioxol-4-yl)-1H-pyrrole-3-carbonitrile

> <STRUCTURE_SMILES>
N#Cc3cncc3c1cccc2OC(F)(F)Oc12

> <STRUCTURE_SMILES_Desalt>
N#Cc3cncc3c1cccc2OC(F)(F)Oc12

> <Substance_modify_yyyymmdd>
20080429

$$$$
