1313-27-5
ChemmineR-0915142007XD

  4  3  0  0  0  0  0  0  0  0  1 V2000
    0.0000   -1.9973    0.0000 O    0  0  0  0  0  0  0  0  0  0  0  0
    1.1505   -1.3254    0.0000 Mo   0  0  0  0  0  0  0  0  0  0  0  0
    1.1505    0.0000    0.0000 O    0  0  0  0  0  0  0  0  0  0  0  0
    2.3010   -1.9973    0.0000 O    0  0  0  0  0  0  0  0  0  0  0  0
  1  2  2  0  0  0  0
  2  3  2  0  0  0  0
  2  4  2  0  0  0  0
M  END
> <ID>
865

> <Formula>
MoO3

> <FW>
143.9382

> <DSSTox_CID>
899

> <DSSTox_RID>
75854

> <DSSTox_GSID>
20899

> <DSSTox_FileID_Sort>
538

> <TS_ChemName>
Molybdenum trioxide

> <TS_ChemName_Synonyms>
Molybdenum trioxide  (MoO3)

> <TS_CASRN>
1313-27-5

> <CASRN_ChemName_Relationship>
primary

> <TS_Description>
single chemical compound

> <ChemNote>


> <STRUCTURE_Shown>
tested chemical

> <STRUCTURE_Formula>
MoO3

> <STRUCTURE_MW>
143.9382

> <STRUCTURE_ChemType>
inorganic

> <STRUCTURE_DefinedOrganicForm>


> <STRUCTURE_IUPAC>
trioxomolybdenum

> <STRUCTURE_SMILES>
O=[Mo](=O)=O

> <STRUCTURE_SMILES_Desalt>
O=[Mo](=O)=O

> <Substance_modify_yyyymmdd>
20080429

$$$$
