131690-45-4
ChemmineR-0915142007XD

 26 27  0  0  0  0  0  0  0  0  1 V2000
   10.1376   -5.0002    0.0000 O    0  0  0  0  0  0  0  0  0  0  0  0
   10.1376   -3.8156    0.0000 C    0  0  0  0  0  0  0  0  0  0  0  0
   11.2848   -4.5139    0.0000 C    0  0  0  0  0  0  0  0  0  0  0  0
   12.4693   -3.8780    0.0000 C    0  0  0  0  0  0  0  0  0  0  0  0
    8.9655   -4.4391    0.0000 N    0  0  0  0  0  0  0  0  0  0  0  0
    5.5489   -2.3692    0.0000 N    0  0  0  0  0  0  0  0  0  0  0  0
    6.7459   -1.6958    0.0000 C    0  0  0  0  0  0  0  0  0  0  0  0
    5.5114   -3.7034    0.0000 C    0  0  0  0  0  0  0  0  0  0  0  0
    7.8432   -2.4440    0.0000 C    0  0  0  0  0  0  0  0  0  0  0  0
    6.6586   -4.3767    0.0000 C    0  0  0  0  0  0  0  0  0  0  0  0
    7.8058   -3.7533    0.0000 C    0  0  0  0  0  0  0  0  0  0  0  0
    9.0278   -1.7582    0.0000 C    0  0  0  0  0  0  0  0  0  0  0  0
    4.4017   -1.6834    0.0000 C    0  0  0  0  0  0  0  0  0  0  0  0
    3.2171   -2.3068    0.0000 C    0  0  0  0  0  0  0  0  0  0  0  0
    0.8354   -2.1447    0.0000 S    0  0  0  0  0  0  0  0  0  0  0  0
    0.0000   -1.0973    0.0000 C    0  0  0  0  0  0  0  0  0  0  0  0
    2.0699   -1.6085    0.0000 C    0  0  0  0  0  0  0  0  0  0  0  0
    1.9577   -0.2868    0.0000 C    0  0  0  0  0  0  0  0  0  0  0  0
    0.6359    0.0000    0.0000 C    0  0  0  0  0  0  0  0  0  0  0  0
    7.7435   -7.7809    0.0000 C    0  0  0  0  0  0  0  0  0  0  0  0
    8.8408   -8.5041    0.0000 C    0  0  0  0  0  0  0  0  0  0  0  0
   10.0253   -7.8307    0.0000 C    0  0  0  0  0  0  0  0  0  0  0  0
   10.0752   -6.5090    0.0000 C    0  0  0  0  0  0  0  0  0  0  0  0
    8.9156   -5.8232    0.0000 C    0  0  0  0  0  0  0  0  0  0  0  0
    7.7809   -6.4466    0.0000 C    0  0  0  0  0  0  0  0  0  0  0  0
    6.0352   -8.4916    0.0000 Cl   0  0  0  0  0  0  0  0  0  0  0  0
  1  2  2  0  0  0  0
  2  3  1  0  0  0  0
  2  5  1  0  0  0  0
  3  4  1  0  0  0  0
  5 11  1  0  0  0  0
  5 24  1  0  0  0  0
  6  7  1  0  0  0  0
  6  8  1  0  0  0  0
  6 13  1  0  0  0  0
  7  9  1  0  0  0  0
  8 10  1  0  0  0  0
  9 11  1  0  0  0  0
  9 12  1  0  0  0  0
 10 11  1  0  0  0  0
 13 14  1  0  0  0  0
 14 17  1  0  0  0  0
 15 16  1  0  0  0  0
 15 17  1  0  0  0  0
 16 19  2  0  0  0  0
 17 18  2  0  0  0  0
 18 19  1  0  0  0  0
 20 25  2  0  0  0  0
 20 21  1  0  0  0  0
 21 22  2  0  0  0  0
 22 23  1  0  0  0  0
 23 24  2  0  0  0  0
 24 25  1  0  0  0  0
M  END
> <ID>
13925

> <Formula>
C21H29ClN2OS

> <FW>
392.9858 (356.5248+36.4609)

> <DSSTox_CID>
28862

> <DSSTox_RID>
83131

> <DSSTox_GSID>
48936

> <DSSTox_FileID_Sort>
7808

> <TS_ChemName>
cis-N-[1-[2-(2-Thienyl)ethyl]-3-methyl-4-piperidyl]-N-phenylpropanamide hydrochloride

> <TS_ChemName_Synonyms>
(?)-cis-N-[3-Methyl-1-[2-(2-thienyl)ethyl]-4-piperidyl]-N-phenylpropanamide hydrochloride

> <TS_CASRN>
131690-45-4

> <CASRN_ChemName_Relationship>
primary

> <TS_Description>
single chemical compound

> <ChemNote>


> <STRUCTURE_Shown>
tested chemical

> <STRUCTURE_Formula>
C21H29ClN2OS

> <STRUCTURE_MW>
392.9858

> <STRUCTURE_ChemType>
defined organic

> <STRUCTURE_DefinedOrganicForm>
complex

> <STRUCTURE_IUPAC>
N-{3-methyl-1-[2-(thiophen-2-yl)ethyl]piperidin-4-yl}-N-phenylpropanamide hydrochloride (1:1)

> <STRUCTURE_SMILES>
Cl.CCC(=O)N(c1ccccc1)C2CCN(CC2C)CCc3cccs3

> <STRUCTURE_SMILES_Desalt>
CCC(=O)N(c1ccccc1)C2CCN(CC2C)CCc3cccs3

> <Substance_modify_yyyymmdd>
20111204

$$$$
