13171-00-1
ChemmineR-0915142007XD

 18 19  0  0  0  0  0  0  0  0  1 V2000
    3.4550   -0.6731    0.0000 C   0  0  0  0  0  0  0  0  0  0  0  0
    4.6089    0.0000    0.0000 C   0  0  0  0  0  0  0  0  0  0  0  0
    2.3079    0.0000    0.0000 O   0  0  0  0  0  0  0  0  0  0  0  0
    6.6627   -3.3314    0.0000 C   0  0  0  0  0  0  0  0  0  0  0  0
    4.6089   -2.6582    0.0000 C   0  0  0  0  0  0  0  0  0  0  0  0
    5.8728   -2.2461    0.0000 C   0  0  0  0  0  0  0  0  0  0  0  0
    4.6089   -3.9908    0.0000 C   0  0  0  0  0  0  0  0  0  0  0  0
    5.8728   -4.4029    0.0000 C   0  0  0  0  0  0  0  0  0  0  0  0
    3.4550   -2.0057    0.0000 C   0  0  0  0  0  0  0  0  0  0  0  0
    3.4550   -4.6639    0.0000 C   0  0  0  0  0  0  0  0  0  0  0  0
    2.3079   -3.9908    0.0000 C   0  0  0  0  0  0  0  0  0  0  0  0
    2.3079   -2.6582    0.0000 C   0  0  0  0  0  0  0  0  0  0  0  0
    1.1540   -4.6639    0.0000 C   0  0  0  0  0  0  0  0  0  0  0  0
    1.8271   -5.7972    0.0000 C   0  0  0  0  0  0  0  0  0  0  0  0
    0.4946   -3.5099    0.0000 C   0  0  0  0  0  0  0  0  0  0  0  0
    0.0000   -5.3164    0.0000 C   0  0  0  0  0  0  0  0  0  0  0  0
    5.6049   -5.7011    0.0000 C   0  0  0  0  0  0  0  0  0  0  0  0
    6.8688   -5.2821    0.0000 C   0  0  0  0  0  0  0  0  0  0  0  0
  1  2  1  0  0  0  0
  1  3  2  0  0  0  0
  1  9  1  0  0  0  0
  4  6  1  0  0  0  0
  4  8  1  0  0  0  0
  5  6  1  0  0  0  0
  5  7  2  0  0  0  0
  5  9  1  0  0  0  0
  7  8  1  0  0  0  0
  7 10  1  0  0  0  0
  8 17  1  0  0  0  0
  8 18  1  0  0  0  0
  9 12  2  0  0  0  0
 10 11  2  0  0  0  0
 11 12  1  0  0  0  0
 11 13  1  0  0  0  0
 13 14  1  0  0  0  0
 13 15  1  0  0  0  0
 13 16  1  0  0  0  0
M  END
> <ID>
10190

> <Formula>
C17H24O

> <FW>
244.3719

> <DSSTox_CID>
24536

> <DSSTox_RID>
80299

> <DSSTox_GSID>
44536

> <DSSTox_FileID_Sort>
4981

> <TS_ChemName>
1-(6-tert-Butyl-1,1-dimethyl-2,3-dihydro-1H-inden-4-yl)ethanone

> <TS_ChemName_Synonyms>
Ethanone, 1-[6-(1,1-dimethylethyl)-2,3-dihydro-1,1-dimethyl-1H-inden-4-yl]-

> <TS_CASRN>
13171-00-1

> <CASRN_ChemName_Relationship>
primary

> <TS_Description>
single chemical compound

> <ChemNote>


> <STRUCTURE_Shown>
tested chemical

> <STRUCTURE_Formula>
C17H24O

> <STRUCTURE_MW>
244.3719

> <STRUCTURE_ChemType>
defined organic

> <STRUCTURE_DefinedOrganicForm>
parent

> <STRUCTURE_IUPAC>
1-(6-tert-butyl-1,1-dimethyl-2,3-dihydro-1H-inden-4-yl)ethanone

> <STRUCTURE_SMILES>
CC(=O)c2cc(cc1c2CCC1(C)C)C(C)(C)C

> <STRUCTURE_SMILES_Desalt>
CC(=O)c2cc(cc1c2CCC1(C)C)C(C)(C)C

> <Substance_modify_yyyymmdd>
20091116

$$$$
