131740-09-5
ChemmineR-0915142007XD

 29 31  0  0  1  0  0  0  0  0  1 V2000
    8.0710   -2.0108    0.0000 Cl   0  0  0  0  0  0  0  0  0  0  0  0
    3.4537   -3.3420    0.0000 C    0  0  0  0  0  0  0  0  0  0  0  0
    3.4537   -2.0108    0.0000 C    0  0  0  0  0  0  0  0  0  0  0  0
    2.2994   -3.9936    0.0000 C    0  0  0  0  0  0  0  0  0  0  0  0
    2.2994   -1.3312    0.0000 C    0  0  0  0  0  0  0  0  0  0  0  0
    1.1543   -3.3234    0.0000 C    0  0  0  0  0  0  0  0  0  0  0  0
    1.1543   -1.9922    0.0000 C    0  0  0  0  0  0  0  0  0  0  0  0
    4.6080   -3.9936    0.0000 O    0  0  0  0  0  0  0  0  0  0  0  0
    5.7437   -3.3420    0.0000 C    0  0  0  0  0  0  0  0  0  0  0  0
    4.6080   -1.3312    0.0000 C    0  0  0  0  0  0  0  0  0  0  0  0
    5.7437   -2.0108    0.0000 C    0  0  0  0  0  0  0  0  0  0  0  0
    6.8981   -3.9936    0.0000 C    0  0  0  0  0  0  0  0  0  0  0  0
    6.8981   -5.3248    0.0000 C    0  0  0  0  0  0  0  0  0  0  0  0
    8.0710   -3.3420    0.0000 C    0  0  0  0  0  0  0  0  0  0  0  0
    8.0710   -5.9858    0.0000 C    0  0  0  0  0  0  0  0  0  0  0  0
    9.2254   -3.9936    0.0000 C    0  0  0  0  0  0  0  0  0  0  0  0
    9.2254   -5.3248    0.0000 C    0  0  0  0  0  0  0  0  0  0  0  0
    2.2994   -5.3248    0.0000 C    0  0  0  0  0  0  0  0  0  0  0  0
    1.1543   -5.9858    0.0000 C    0  0  0  0  0  0  0  0  0  0  0  0
    3.4537   -5.9858    0.0000 C    0  0  0  0  0  0  0  0  0  0  0  0
    1.1543   -7.3170    0.0000 C    0  0  0  0  0  0  0  0  0  0  0  0
    3.4537   -7.3170    0.0000 C    0  0  0  0  0  0  0  0  0  0  0  0
    2.2994   -7.9779    0.0000 N    0  0  0  0  0  0  0  0  0  0  0  0
    4.6080    0.0000    0.0000 O    0  0  0  0  0  0  0  0  0  0  0  0
    2.2994    0.0000    0.0000 O    0  0  0  0  0  0  0  0  0  0  0  0
    0.0000   -3.9936    0.0000 O    0  0  0  0  0  0  0  0  0  0  0  0
    0.0000   -5.3155    0.0000 O    0  0  0  0  0  0  0  0  0  0  0  0
    2.2994   -9.3091    0.0000 C    0  0  0  0  0  0  0  0  0  0  0  0
    4.8594   -8.7599    0.0000 Cl   0  0  0  0  0  0  0  0  0  0  0  0
  1 14  1  0  0  0  0
  2  4  2  0  0  0  0
  2  8  1  0  0  0  0
  2  3  1  0  0  0  0
  3  5  2  0  0  0  0
  3 10  1  0  0  0  0
  4  6  1  0  0  0  0
 18  4  1  1  0  0  0
  5  7  1  0  0  0  0
  5 25  1  0  0  0  0
  6  7  2  0  0  0  0
  6 26  1  0  0  0  0
  8  9  1  0  0  0  0
  9 11  2  0  0  0  0
  9 12  1  0  0  0  0
 10 11  1  0  0  0  0
 10 24  2  0  0  0  0
 12 13  1  0  0  0  0
 12 14  2  0  0  0  0
 13 15  2  0  0  0  0
 14 16  1  0  0  0  0
 15 17  1  0  0  0  0
 16 17  2  0  0  0  0
 18 19  1  0  0  0  0
 18 20  1  0  0  0  0
 19 21  1  0  0  0  0
 19 27  1  1  0  0  0
 20 22  1  0  0  0  0
 21 23  1  0  0  0  0
 22 23  1  0  0  0  0
 23 28  1  0  0  0  0
M  END
> <ID>
13949

> <Formula>
C21H21Cl2NO5

> <FW>
438.3011 (401.8402+36.4609)

> <DSSTox_CID>
28887

> <DSSTox_RID>
83155

> <DSSTox_GSID>
48961

> <DSSTox_FileID_Sort>
7832

> <TS_ChemName>
Flavopiridol hydrochloride

> <TS_ChemName_Synonyms>


> <TS_CASRN>
131740-09-5

> <CASRN_ChemName_Relationship>
primary

> <TS_Description>
single chemical compound

> <ChemNote>
stereochem; parent [146426-40-6]

> <STRUCTURE_Shown>
tested chemical

> <STRUCTURE_Formula>
C21H21Cl2NO5

> <STRUCTURE_MW>
438.3011

> <STRUCTURE_ChemType>
defined organic

> <STRUCTURE_DefinedOrganicForm>
complex

> <STRUCTURE_IUPAC>
2-(2-chlorophenyl)-5,7-dihydroxy-8-[(3S,4R)-3-hydroxy-1-methylpiperidin-4-yl]-4H-chromen-4-one hydrochloride (1:1)

> <STRUCTURE_SMILES>
Cl.CN4CC[C@H](c3c(O)cc(O)c1c3OC(=CC1=O)c2ccccc2Cl)[C@H](O)C4

> <STRUCTURE_SMILES_Desalt>
CN4CC[C@H](c3c(O)cc(O)c1c3OC(=CC1=O)c2ccccc2Cl)[C@H](O)C4

> <Substance_modify_yyyymmdd>
20111204

$$$$
