13171-25-0
ChemmineR-0915142007XD

 21 20  0  0  0  0  0  0  0  0  1 V2000
    8.0646    0.0000    0.0000 C    0  0  0  0  0  0  0  0  0  0  0  0
    8.0646   -1.3362    0.0000 O    0  0  0  0  0  0  0  0  0  0  0  0
    6.9274   -2.0091    0.0000 C    0  0  0  0  0  0  0  0  0  0  0  0
    6.9274   -3.3358    0.0000 C    0  0  0  0  0  0  0  0  0  0  0  0
    8.0646   -3.9897    0.0000 O    0  0  0  0  0  0  0  0  0  0  0  0
    9.2208   -3.3358    0.0000 C    0  0  0  0  0  0  0  0  0  0  0  0
    5.7713   -3.9897    0.0000 C    0  0  0  0  0  0  0  0  0  0  0  0
    4.6151   -3.3358    0.0000 C    0  0  0  0  0  0  0  0  0  0  0  0
    3.4590   -3.9897    0.0000 C    0  0  0  0  0  0  0  0  0  0  0  0
    2.3123   -3.3358    0.0000 N    0  0  0  0  0  0  0  0  0  0  0  0
    1.1562   -3.9897    0.0000 C    0  0  0  0  0  0  0  0  0  0  0  0
    0.0000   -3.3358    0.0000 C    0  0  0  0  0  0  0  0  0  0  0  0
    0.0000   -2.0091    0.0000 N    0  0  0  0  0  0  0  0  0  0  0  0
    1.1562   -1.3362    0.0000 C    0  0  0  0  0  0  0  0  0  0  0  0
    2.3123   -2.0091    0.0000 C    0  0  0  0  0  0  0  0  0  0  0  0
    4.6151   -2.0091    0.0000 C    0  0  0  0  0  0  0  0  0  0  0  0
    5.7713   -1.3362    0.0000 C    0  0  0  0  0  0  0  0  0  0  0  0
    5.7713   -5.3448    0.0000 O    0  0  0  0  0  0  0  0  0  0  0  0
    4.6151   -5.9987    0.0000 C    0  0  0  0  0  0  0  0  0  0  0  0
    7.4676   -5.1174    0.0000 Cl   0  0  0  0  0  0  0  0  0  0  0  0
    9.4767   -5.2311    0.0000 Cl   0  0  0  0  0  0  0  0  0  0  0  0
  1  2  1  0  0  0  0
  2  3  1  0  0  0  0
  3  4  2  0  0  0  0
  3 17  1  0  0  0  0
  4  5  1  0  0  0  0
  4  7  1  0  0  0  0
  5  6  1  0  0  0  0
  7  8  2  0  0  0  0
  7 18  1  0  0  0  0
  8  9  1  0  0  0  0
  8 16  1  0  0  0  0
  9 10  1  0  0  0  0
 10 11  1  0  0  0  0
 10 15  1  0  0  0  0
 11 12  1  0  0  0  0
 12 13  1  0  0  0  0
 13 14  1  0  0  0  0
 14 15  1  0  0  0  0
 16 17  2  0  0  0  0
 18 19  1  0  0  0  0
M  END
> <ID>
10927

> <Formula>
C14H24Cl2N2O3

> <FW>
339.2580 (266.3361+36.4609+36.4609)

> <DSSTox_CID>
25407

> <DSSTox_RID>
80858

> <DSSTox_GSID>
45407

> <DSSTox_FileID_Sort>
5539

> <TS_ChemName>
Trimetazidine dihydrochloride

> <TS_ChemName_Synonyms>


> <TS_CASRN>
13171-25-0

> <CASRN_ChemName_Relationship>
primary

> <TS_Description>
single chemical compound

> <ChemNote>
parent [5011-34-7]

> <STRUCTURE_Shown>
tested chemical

> <STRUCTURE_Formula>
C14H24Cl2N2O3

> <STRUCTURE_MW>
339.258

> <STRUCTURE_ChemType>
defined organic

> <STRUCTURE_DefinedOrganicForm>
complex

> <STRUCTURE_IUPAC>
1-(2,3,4-trimethoxybenzyl)piperazine dihydrochloride

> <STRUCTURE_SMILES>
Cl.Cl.COc2ccc(CN1CCNCC1)c(OC)c2OC

> <STRUCTURE_SMILES_Desalt>
COc2ccc(CN1CCNCC1)c(OC)c2OC

> <Substance_modify_yyyymmdd>
20100107

$$$$
