13187-06-9
ChemmineR-0915142007XD

 29 31  0  0  0  0  0  0  0  0  1 V2000
    3.4447   -7.9807    0.0000 C   0  0  0  0  0  0  0  0  0  0  0  0
    3.4447   -6.6506    0.0000 N   0  0  0  0  0  0  0  0  0  0  0  0
    2.3078   -5.9798    0.0000 C   0  0  0  0  0  0  0  0  0  0  0  0
    2.3078   -4.6497    0.0000 C   0  0  0  0  0  0  0  0  0  0  0  0
    3.4674   -3.9903    0.0000 C   0  0  0  0  0  0  0  0  0  0  0  0
    4.6042   -4.6497    0.0000 C   0  0  0  0  0  0  0  0  0  0  0  0
    4.6042   -5.9798    0.0000 C   0  0  0  0  0  0  0  0  0  0  0  0
    3.4674   -2.6602    0.0000 C   0  0  0  0  0  0  0  0  0  0  0  0
    2.3078   -1.9781    0.0000 C   0  0  0  0  0  0  0  0  0  0  0  0
    1.1368   -2.6602    0.0000 C   0  0  0  0  0  0  0  0  0  0  0  0
    0.0000   -1.9781    0.0000 C   0  0  0  0  0  0  0  0  0  0  0  0
    0.0000   -0.6480    0.0000 C   0  0  0  0  0  0  0  0  0  0  0  0
    1.1368    0.0000    0.0000 C   0  0  0  0  0  0  0  0  0  0  0  0
    2.3078   -0.6480    0.0000 C   0  0  0  0  0  0  0  0  0  0  0  0
    3.4674    0.0000    0.0000 S   0  0  0  0  0  0  0  0  0  0  0  0
    4.6042   -0.6480    0.0000 C   0  0  0  0  0  0  0  0  0  0  0  0
    5.7752    0.0000    0.0000 C   0  0  0  0  0  0  0  0  0  0  0  0
    6.9120   -0.6480    0.0000 C   0  0  0  0  0  0  0  0  0  0  0  0
    6.9120   -1.9781    0.0000 C   0  0  0  0  0  0  0  0  0  0  0  0
    5.7752   -2.6602    0.0000 C   0  0  0  0  0  0  0  0  0  0  0  0
    4.6042   -1.9781    0.0000 C   0  0  0  0  0  0  0  0  0  0  0  0
    9.3790   -3.2400    0.0000 O   0  0  0  0  0  0  0  0  0  0  0  0
   10.0384   -4.3882    0.0000 C   0  0  0  0  0  0  0  0  0  0  0  0
   11.3685   -4.3882    0.0000 O   0  0  0  0  0  0  0  0  0  0  0  0
    9.3790   -5.5478    0.0000 C   0  0  0  0  0  0  0  0  0  0  0  0
    8.0489   -5.5478    0.0000 C   0  0  0  0  0  0  0  0  0  0  0  0
    7.3782   -4.3882    0.0000 C   0  0  0  0  0  0  0  0  0  0  0  0
    6.0480   -4.3882    0.0000 O   0  0  0  0  0  0  0  0  0  0  0  0
    8.0489   -3.2400    0.0000 O   0  0  0  0  0  0  0  0  0  0  0  0
  1  2  1  0  0  0  0
  2  3  1  0  0  0  0
  2  7  1  0  0  0  0
  3  4  1  0  0  0  0
  4  5  1  0  0  0  0
  5  6  1  0  0  0  0
  5  8  2  0  0  0  0
  6  7  1  0  0  0  0
  8  9  1  0  0  0  0
  8 21  1  0  0  0  0
  9 10  2  0  0  0  0
  9 14  1  0  0  0  0
 10 11  1  0  0  0  0
 11 12  2  0  0  0  0
 12 13  1  0  0  0  0
 13 14  2  0  0  0  0
 14 15  1  0  0  0  0
 15 16  1  0  0  0  0
 16 17  2  0  0  0  0
 16 21  1  0  0  0  0
 17 18  1  0  0  0  0
 18 19  2  0  0  0  0
 19 20  1  0  0  0  0
 20 21  2  0  0  0  0
 22 23  1  0  0  0  0
 23 24  2  0  0  0  0
 23 25  1  0  0  0  0
 25 26  2  0  0  0  0
 26 27  1  0  0  0  0
 27 28  1  0  0  0  0
 27 29  2  0  0  0  0
M  END
> <ID>
11251

> <Formula>
C23H23NO4S

> <FW>
409.4980 (293.4259+116.0722)

> <DSSTox_CID>
25863

> <DSSTox_RID>
81183

> <DSSTox_GSID>
45863

> <DSSTox_FileID_Sort>
5864

> <TS_ChemName>
Pimethixene maleate

> <TS_ChemName_Synonyms>


> <TS_CASRN>
13187-06-9

> <CASRN_ChemName_Relationship>
primary

> <TS_Description>
single chemical compound

> <ChemNote>
parent [314-03-4]

> <STRUCTURE_Shown>
tested chemical

> <STRUCTURE_Formula>
C23H23NO4S

> <STRUCTURE_MW>
409.498

> <STRUCTURE_ChemType>
defined organic

> <STRUCTURE_DefinedOrganicForm>
complex

> <STRUCTURE_IUPAC>
1-methyl-4-(9H-thioxanthen-9-ylidene)piperidine (2Z)-but-2-enedioate (1:1)

> <STRUCTURE_SMILES>
O=C(O)/C=C\C(=O)O.CN1CC\C(CC1)=C2/c4ccccc4Sc3ccccc23

> <STRUCTURE_SMILES_Desalt>
CN1CC\C(CC1)=C2/c4ccccc4Sc3ccccc23

> <Substance_modify_yyyymmdd>
20110922

$$$$
