131860-33-8
ChemmineR-0915142007XD

 30 32  0  0  0  0  0  0  0  0  1 V2000
   12.6941   -0.6506    0.0000 N   0  0  0  0  0  0  0  0  0  0  0  0
   12.6941   -1.9796    0.0000 C   0  0  0  0  0  0  0  0  0  0  0  0
   12.6941   -3.3223    0.0000 C   0  0  0  0  0  0  0  0  0  0  0  0
   11.5313   -3.9868    0.0000 C   0  0  0  0  0  0  0  0  0  0  0  0
   11.5313   -5.3157    0.0000 C   0  0  0  0  0  0  0  0  0  0  0  0
   12.6941   -5.9802    0.0000 C   0  0  0  0  0  0  0  0  0  0  0  0
   13.8431   -5.3157    0.0000 C   0  0  0  0  0  0  0  0  0  0  0  0
   13.8431   -3.9868    0.0000 C   0  0  0  0  0  0  0  0  0  0  0  0
   10.3823   -3.3223    0.0000 O   0  0  0  0  0  0  0  0  0  0  0  0
    9.2195   -3.9868    0.0000 C   0  0  0  0  0  0  0  0  0  0  0  0
    8.0705   -3.3223    0.0000 C   0  0  0  0  0  0  0  0  0  0  0  0
    6.9077   -3.9868    0.0000 C   0  0  0  0  0  0  0  0  0  0  0  0
    6.9077   -5.3157    0.0000 N   0  0  0  0  0  0  0  0  0  0  0  0
    8.0705   -5.9802    0.0000 C   0  0  0  0  0  0  0  0  0  0  0  0
    9.2195   -5.3157    0.0000 N   0  0  0  0  0  0  0  0  0  0  0  0
    5.7587   -3.3223    0.0000 O   0  0  0  0  0  0  0  0  0  0  0  0
    4.6236   -3.9868    0.0000 C   0  0  0  0  0  0  0  0  0  0  0  0
    3.4608   -3.3223    0.0000 C   0  0  0  0  0  0  0  0  0  0  0  0
    2.3118   -3.9868    0.0000 C   0  0  0  0  0  0  0  0  0  0  0  0
    2.3118   -5.3157    0.0000 C   0  0  0  0  0  0  0  0  0  0  0  0
    3.4608   -5.9802    0.0000 C   0  0  0  0  0  0  0  0  0  0  0  0
    4.6236   -5.3157    0.0000 C   0  0  0  0  0  0  0  0  0  0  0  0
    3.4608   -1.9796    0.0000 C   0  0  0  0  0  0  0  0  0  0  0  0
    4.6236   -1.3289    0.0000 C   0  0  0  0  0  0  0  0  0  0  0  0
    5.7587   -1.9796    0.0000 O   0  0  0  0  0  0  0  0  0  0  0  0
    6.9077   -1.3289    0.0000 C   0  0  0  0  0  0  0  0  0  0  0  0
    2.3118   -1.3289    0.0000 C   0  0  0  0  0  0  0  0  0  0  0  0
    2.3118    0.0000    0.0000 O   0  0  0  0  0  0  0  0  0  0  0  0
    1.1490   -1.9796    0.0000 O   0  0  0  0  0  0  0  0  0  0  0  0
    0.0000   -1.3289    0.0000 C   0  0  0  0  0  0  0  0  0  0  0  0
  1  2  3  0  0  0  0
  2  3  1  0  0  0  0
  3  4  1  0  0  0  0
  3  8  2  0  0  0  0
  4  5  2  0  0  0  0
  4  9  1  0  0  0  0
  5  6  1  0  0  0  0
  6  7  2  0  0  0  0
  7  8  1  0  0  0  0
  9 10  1  0  0  0  0
 10 11  1  0  0  0  0
 10 15  2  0  0  0  0
 11 12  2  0  0  0  0
 12 13  1  0  0  0  0
 12 16  1  0  0  0  0
 13 14  2  0  0  0  0
 14 15  1  0  0  0  0
 16 17  1  0  0  0  0
 17 18  1  0  0  0  0
 17 22  2  0  0  0  0
 18 19  2  0  0  0  0
 18 23  1  0  0  0  0
 19 20  1  0  0  0  0
 20 21  2  0  0  0  0
 21 22  1  0  0  0  0
 23 24  2  0  0  0  0
 23 27  1  0  0  0  0
 24 25  1  0  0  0  0
 25 26  1  0  0  0  0
 27 28  2  0  0  0  0
 27 29  1  0  0  0  0
 29 30  1  0  0  0  0
M  END
> <ID>
6490

> <Formula>
C22H17N3O5

> <FW>
403.3875

> <DSSTox_CID>
12520

> <DSSTox_RID>
78966

> <DSSTox_GSID>
32520

> <DSSTox_FileID_Sort>
3648

> <TS_ChemName>
Azoxystrobin

> <TS_ChemName_Synonyms>


> <TS_CASRN>
131860-33-8

> <CASRN_ChemName_Relationship>
primary

> <TS_Description>
single chemical compound

> <ChemNote>
stereochem

> <STRUCTURE_Shown>
tested chemical

> <STRUCTURE_Formula>
C22H17N3O5

> <STRUCTURE_MW>
403.3875

> <STRUCTURE_ChemType>
defined organic

> <STRUCTURE_DefinedOrganicForm>
parent

> <STRUCTURE_IUPAC>
methyl (2E)-2-(2-{[6-(2-cyanophenoxy)pyrimidin-4-yl]oxy}phenyl)-3-methoxyprop-2-enoate

> <STRUCTURE_SMILES>
O=C(OC)\C(=C\OC)c3ccccc3Oc2cc(Oc1ccccc1C#N)ncn2

> <STRUCTURE_SMILES_Desalt>
O=C(OC)\C(=C\OC)c3ccccc3Oc2cc(Oc1ccccc1C#N)ncn2

> <Substance_modify_yyyymmdd>
20080429

$$$$
