131807-57-3
ChemmineR-0915142007XD

 28 31  0  0  0  0  0  0  0  0  1 V2000
    2.1660   -3.3598    0.0000 N   0  0  0  0  0  0  0  0  0  0  0  0
    2.1660   -2.0430    0.0000 C   0  0  0  0  0  0  0  0  0  0  0  0
    3.4583   -3.7783    0.0000 C   0  0  0  0  0  0  0  0  0  0  0  0
    3.4583   -1.6245    0.0000 O   0  0  0  0  0  0  0  0  0  0  0  0
    4.2213   -2.6829    0.0000 C   0  0  0  0  0  0  0  0  0  0  0  0
    1.0953   -1.2553    0.0000 O   0  0  0  0  0  0  0  0  0  0  0  0
    3.8521   -5.0336    0.0000 O   0  0  0  0  0  0  0  0  0  0  0  0
    5.3782   -3.3598    0.0000 C   0  0  0  0  0  0  0  0  0  0  0  0
    5.3782   -2.0307    0.0000 C   0  0  0  0  0  0  0  0  0  0  0  0
    5.3782   -0.6769    0.0000 C   0  0  0  0  0  0  0  0  0  0  0  0
    6.5227   -2.6706    0.0000 C   0  0  0  0  0  0  0  0  0  0  0  0
    6.5104   -0.0246    0.0000 C   0  0  0  0  0  0  0  0  0  0  0  0
    7.6796   -2.0184    0.0000 C   0  0  0  0  0  0  0  0  0  0  0  0
    7.6796   -0.6769    0.0000 C   0  0  0  0  0  0  0  0  0  0  0  0
    8.8241   -0.0246    0.0000 O   0  0  0  0  0  0  0  0  0  0  0  0
    9.9933   -0.6769    0.0000 C   0  0  0  0  0  0  0  0  0  0  0  0
   11.1379    0.0000    0.0000 C   0  0  0  0  0  0  0  0  0  0  0  0
    9.9933   -2.0184    0.0000 C   0  0  0  0  0  0  0  0  0  0  0  0
   12.2947   -0.6646    0.0000 C   0  0  0  0  0  0  0  0  0  0  0  0
   11.1502   -2.6706    0.0000 C   0  0  0  0  0  0  0  0  0  0  0  0
   12.3070   -1.9937    0.0000 C   0  0  0  0  0  0  0  0  0  0  0  0
    1.1569   -4.1475    0.0000 N   0  0  0  0  0  0  0  0  0  0  0  0
    1.1569   -5.4643    0.0000 C   0  0  0  0  0  0  0  0  0  0  0  0
    2.3137   -6.1412    0.0000 C   0  0  0  0  0  0  0  0  0  0  0  0
    0.0000   -6.1412    0.0000 C   0  0  0  0  0  0  0  0  0  0  0  0
    2.3137   -7.4704    0.0000 C   0  0  0  0  0  0  0  0  0  0  0  0
    0.0000   -7.4704    0.0000 C   0  0  0  0  0  0  0  0  0  0  0  0
    1.1569   -8.1349    0.0000 C   0  0  0  0  0  0  0  0  0  0  0  0
  1  2  1  0  0  0  0
  1  3  1  0  0  0  0
  1 22  1  0  0  0  0
  2  4  1  0  0  0  0
  2  6  2  0  0  0  0
  3  5  1  0  0  0  0
  3  7  2  0  0  0  0
  4  5  1  0  0  0  0
  5  8  1  0  0  0  0
  5  9  1  0  0  0  0
  9 10  2  0  0  0  0
  9 11  1  0  0  0  0
 10 12  1  0  0  0  0
 11 13  2  0  0  0  0
 12 14  2  0  0  0  0
 13 14  1  0  0  0  0
 14 15  1  0  0  0  0
 15 16  1  0  0  0  0
 16 17  2  0  0  0  0
 16 18  1  0  0  0  0
 17 19  1  0  0  0  0
 18 20  2  0  0  0  0
 19 21  2  0  0  0  0
 20 21  1  0  0  0  0
 22 23  1  0  0  0  0
 23 24  2  0  0  0  0
 23 25  1  0  0  0  0
 24 26  1  0  0  0  0
 25 27  2  0  0  0  0
 26 28  2  0  0  0  0
 27 28  1  0  0  0  0
M  END
> <ID>
6839

> <Formula>
C22H18N2O4

> <FW>
374.3893

> <DSSTox_CID>
14588

> <DSSTox_RID>
79172

> <DSSTox_GSID>
34588

> <DSSTox_FileID_Sort>
3854

> <TS_ChemName>
Famoxadone

> <TS_ChemName_Synonyms>
Famoxadone (2,4-Oxazolidinedione, 5-methyl-5-(4-phenoxyphenyl)-3-(phenylamino)-)

> <TS_CASRN>
131807-57-3

> <CASRN_ChemName_Relationship>
primary

> <TS_Description>
single chemical compound

> <ChemNote>


> <STRUCTURE_Shown>
tested chemical

> <STRUCTURE_Formula>
C22H18N2O4

> <STRUCTURE_MW>
374.3893

> <STRUCTURE_ChemType>
defined organic

> <STRUCTURE_DefinedOrganicForm>
parent

> <STRUCTURE_IUPAC>
5-methyl-5-(4-phenoxyphenyl)-3-(phenylamino)-1,3-oxazolidine-2,4-dione

> <STRUCTURE_SMILES>
CC2(OC(=O)N(Nc1ccccc1)C2=O)c4ccc(Oc3ccccc3)cc4

> <STRUCTURE_SMILES_Desalt>
CC2(OC(=O)N(Nc1ccccc1)C2=O)c4ccc(Oc3ccccc3)cc4

> <Substance_modify_yyyymmdd>
20080429

$$$$
