13181-17-4
ChemmineR-0915142007XD

 24 25  0  0  0  0  0  0  0  0  2 V2000
    8.0707   -3.9910    0.0000 C    0  0  0  0  0  0  0  0  0  0  0  0
    6.9177   -3.3322    0.0000 N    0  0  0  0  0  0  0  0  0  0  0  0
    9.2236   -3.3322    0.0000 C    0  0  0  0  0  0  0  0  0  0  0  0
    9.2236   -2.0018    0.0000 C    0  0  0  0  0  0  0  0  0  0  0  0
   10.3766   -3.9910    0.0000 C    0  0  0  0  0  0  0  0  0  0  0  0
   10.3766   -1.3303    0.0000 C    0  0  0  0  0  0  0  0  0  0  0  0
   11.5296   -3.3322    0.0000 C    0  0  0  0  0  0  0  0  0  0  0  0
   11.5296   -2.0018    0.0000 C    0  0  0  0  0  0  0  0  0  0  0  0
   10.3766    0.0000    0.0000 Br   0  0  0  0  0  0  0  0  0  0  0  0
   12.6698   -3.9910    0.0000 Br   0  0  0  0  0  0  0  0  0  0  0  0
   12.6698   -1.3303    0.0000 O    0  0  0  0  0  0  0  0  0  0  0  0
    5.7521   -3.9910    0.0000 O    0  0  0  0  0  0  0  0  0  0  0  0
    4.5992   -3.3322    0.0000 C    0  0  0  0  0  0  0  0  0  0  0  0
    3.4462   -3.9910    0.0000 C    0  0  0  0  0  0  0  0  0  0  0  0
    4.5992   -2.0018    0.0000 C    0  0  0  0  0  0  0  0  0  0  0  0
    2.2932   -3.3322    0.0000 C    0  0  0  0  0  0  0  0  0  0  0  0
    3.4462   -1.3303    0.0000 C    0  0  0  0  0  0  0  0  0  0  0  0
    2.2932   -2.0018    0.0000 C    0  0  0  0  0  0  0  0  0  0  0  0
    3.4462   -5.3213    0.0000 N    0  3  0  0  0  0  0  0  0  0  0  0
    2.2932   -5.9928    0.0000 O    0  5  0  0  0  0  0  0  0  0  0  0
    4.5992   -5.9928    0.0000 O    0  0  0  0  0  0  0  0  0  0  0  0
    1.1530   -1.3303    0.0000 N    0  3  0  0  0  0  0  0  0  0  0  0
    1.1530    0.0000    0.0000 O    0  5  0  0  0  0  0  0  0  0  0  0
    0.0000   -2.0018    0.0000 O    0  0  0  0  0  0  0  0  0  0  0  0
  1  2  2  0  0  0  0
  1  3  1  0  0  0  0
  2 12  1  0  0  0  0
  3  4  2  0  0  0  0
  3  5  1  0  0  0  0
  4  6  1  0  0  0  0
  5  7  2  0  0  0  0
  6  8  2  0  0  0  0
  6  9  1  0  0  0  0
  7  8  1  0  0  0  0
  7 10  1  0  0  0  0
  8 11  1  0  0  0  0
 12 13  1  0  0  0  0
 13 14  2  0  0  0  0
 13 15  1  0  0  0  0
 14 16  1  0  0  0  0
 14 19  1  0  0  0  0
 15 17  2  0  0  0  0
 16 18  2  0  0  0  0
 17 18  1  0  0  0  0
 18 22  1  0  0  0  0
 19 20  1  0  0  0  0
 19 21  2  0  0  0  0
 22 23  1  0  0  0  0
 22 24  2  0  0  0  0
M  END
> <ID>
8637

> <Formula>
C13H7Br2N3O6

> <FW>
461.0192

> <DSSTox_CID>
21681

> <DSSTox_RID>
79815

> <DSSTox_GSID>
41681

> <DSSTox_FileID_Sort>
4497

> <TS_ChemName>
Bromofenoxim

> <TS_ChemName_Synonyms>


> <TS_CASRN>
13181-17-4

> <CASRN_ChemName_Relationship>
primary

> <TS_Description>
single chemical compound

> <ChemNote>


> <STRUCTURE_Shown>
tested chemical

> <STRUCTURE_Formula>
C13H7Br2N3O6

> <STRUCTURE_MW>
461.0192

> <STRUCTURE_ChemType>
defined organic

> <STRUCTURE_DefinedOrganicForm>
parent

> <STRUCTURE_IUPAC>
2,6-dibromo-4-{(E)-[(2,4-dinitrophenoxy)imino]methyl}phenol

> <STRUCTURE_SMILES>
Brc1cc(cc(Br)c1O)\C=N\Oc2ccc(cc2[N+]([O-])=O)[N+]([O-])=O

> <STRUCTURE_SMILES_Desalt>
Brc1cc(cc(Br)c1O)\C=N\Oc2ccc(cc2[N+]([O-])=O)[N+]([O-])=O

> <Substance_modify_yyyymmdd>
20080825

$$$$
