13189-98-5
ChemmineR-0915142007XD

 11 10  0  0  1  0  0  0  0  0  1 V2000
    1.1497   -1.3244    0.0000 C   0  0  0  0  0  0  0  0  0  0  0  0
    2.2994   -3.3203    0.0000 N   0  0  0  0  0  0  0  0  0  0  0  0
    2.2994   -1.9959    0.0000 C   0  0  0  0  0  0  0  0  0  0  0  0
    3.4491   -1.3244    0.0000 C   0  0  0  0  0  0  0  0  0  0  0  0
    1.1497    0.0000    0.0000 O   0  0  0  0  0  0  0  0  0  0  0  0
    0.0000   -1.9959    0.0000 O   0  0  0  0  0  0  0  0  0  0  0  0
    4.5988   -1.9959    0.0000 S   0  0  0  0  0  0  0  0  0  0  0  0
    5.7485   -1.3244    0.0000 C   0  0  0  0  0  0  0  0  0  0  0  0
    6.8982   -1.9959    0.0000 C   0  0  0  0  0  0  0  0  0  0  0  0
    8.0478   -1.3244    0.0000 C   0  0  0  0  0  0  0  0  0  0  0  0
    9.1975   -1.9959    0.0000 O   0  0  0  0  0  0  0  0  0  0  0  0
  1  3  1  0  0  0  0
  1  5  2  0  0  0  0
  1  6  1  0  0  0  0
  3  2  1  6  0  0  0
  3  4  1  0  0  0  0
  4  7  1  0  0  0  0
  7  8  1  0  0  0  0
  8  9  1  0  0  0  0
  9 10  1  0  0  0  0
 10 11  1  0  0  0  0
M  END
> <ID>
11682

> <Formula>
C6H13NO3S

> <FW>
179.2373

> <DSSTox_CID>
26440

> <DSSTox_RID>
81616

> <DSSTox_GSID>
46440

> <DSSTox_FileID_Sort>
6297

> <TS_ChemName>
Fudosteine

> <TS_ChemName_Synonyms>


> <TS_CASRN>
13189-98-5

> <CASRN_ChemName_Relationship>
primary

> <TS_Description>
single chemical compound

> <ChemNote>
stereochem

> <STRUCTURE_Shown>
tested chemical

> <STRUCTURE_Formula>
C6H13NO3S

> <STRUCTURE_MW>
179.2373

> <STRUCTURE_ChemType>
defined organic

> <STRUCTURE_DefinedOrganicForm>
parent

> <STRUCTURE_IUPAC>
S-(3-hydroxypropyl)-L-cysteine

> <STRUCTURE_SMILES>
OCCCSC[C@H](N)C(=O)O

> <STRUCTURE_SMILES_Desalt>
OCCCSC[C@H](N)C(=O)O

> <Substance_modify_yyyymmdd>
20110813

$$$$
