131918-61-1
ChemmineR-0915142007XD

 32 34  0  0  1  0  0  0  0  0  1 V2000
    2.3046   -2.6360    0.0000 C   0  0  0  0  0  0  0  0  0  0  0  0
    1.1448   -1.9732    0.0000 C   0  0  0  0  0  0  0  0  0  0  0  0
    1.1448   -0.6477    0.0000 C   0  0  0  0  0  0  0  0  0  0  0  0
    3.4494   -1.9732    0.0000 C   0  0  0  0  0  0  0  0  0  0  0  0
    3.4494   -0.6477    0.0000 C   0  0  0  0  0  0  0  0  0  0  0  0
    2.3046    0.0000    0.0000 C   0  0  0  0  0  0  0  0  0  0  0  0
    5.7540   -0.6477    0.0000 C   0  0  0  0  0  0  0  0  0  0  0  0
    4.5942    0.0000    0.0000 C   0  0  0  0  0  0  0  0  0  0  0  0
    5.7540   -1.9732    0.0000 C   0  0  0  0  0  0  0  0  0  0  0  0
    4.5942   -2.6360    0.0000 C   0  0  0  0  0  0  0  0  0  0  0  0
    4.5942   -3.9616    0.0000 C   0  0  0  0  0  0  0  0  0  0  0  0
    6.8988   -2.6360    0.0000 C   0  0  0  0  0  0  0  0  0  0  0  0
    6.8988   -3.9616    0.0000 C   0  0  0  0  0  0  0  0  0  0  0  0
    8.1641   -4.3833    0.0000 C   0  0  0  0  0  0  0  0  0  0  0  0
    8.9323   -3.3139    0.0000 C   0  0  0  0  0  0  0  0  0  0  0  0
    8.1641   -2.2444    0.0000 C   0  0  0  0  0  0  0  0  0  0  0  0
    2.3046   -3.9616    0.0000 O   0  0  0  0  0  0  0  0  0  0  0  0
    0.0000    0.0000    0.0000 O   0  0  0  0  0  0  0  0  0  0  0  0
    5.7540   -4.6394    0.0000 C   0  0  0  0  0  0  0  0  0  0  0  0
    9.3089   -5.1063    0.0000 C   0  0  0  0  0  0  0  0  0  0  0  0
    9.3089   -6.4319    0.0000 C   0  0  0  0  0  0  0  0  0  0  0  0
   10.4688   -4.4586    0.0000 C   0  0  0  0  0  0  0  0  0  0  0  0
   11.6135   -5.1063    0.0000 C   0  0  0  0  0  0  0  0  0  0  0  0
   12.7583   -4.4586    0.0000 C   0  0  0  0  0  0  0  0  0  0  0  0
   13.9182   -5.1063    0.0000 C   0  0  0  0  0  0  0  0  0  0  0  0
   14.5659   -3.9616    0.0000 C   0  0  0  0  0  0  0  0  0  0  0  0
    8.1792   -5.8294    0.0000 H   0  0  0  0  0  0  0  0  0  0  0  0
   12.7583   -3.1180    0.0000 C   0  0  0  0  0  0  0  0  0  0  0  0
   13.2403   -6.2511    0.0000 O   0  0  0  0  0  0  0  0  0  0  0  0
   15.0630   -5.7842    0.0000 C   0  0  0  0  0  0  0  0  0  0  0  0
    6.8988   -5.2871    0.0000 C   0  0  0  0  0  0  0  0  0  0  0  0
    6.8988   -1.3105    0.0000 H   0  0  0  0  0  0  0  0  0  0  0  0
  1 17  1  1  0  0  0
  1  2  1  0  0  0  0
  1  4  1  0  0  0  0
  2  3  1  0  0  0  0
  3 18  1  6  0  0  0
  3  6  1  0  0  0  0
  4  5  1  0  0  0  0
  5  6  1  0  0  0  0
  5  8  2  0  0  0  0
  7  9  2  0  0  0  0
  7  8  1  0  0  0  0
  9 10  1  0  0  0  0
  9 12  1  0  0  0  0
 10 11  1  0  0  0  0
 11 19  1  0  0  0  0
 12 16  1  0  0  0  0
 12 13  1  0  0  0  0
 12 32  1  1  0  0  0
 13 14  1  0  0  0  0
 13 19  1  0  0  0  0
 13 31  1  6  0  0  0
 14 20  1  0  0  0  0
 14 27  1  1  0  0  0
 14 15  1  0  0  0  0
 15 16  1  0  0  0  0
 20 21  1  1  0  0  0
 20 22  1  0  0  0  0
 22 23  2  0  0  0  0
 23 24  1  0  0  0  0
 24 25  1  0  0  0  0
 24 28  1  6  0  0  0
 25 26  1  0  0  0  0
 25 29  1  0  0  0  0
 25 30  1  0  0  0  0
M  END
> <ID>
13637

> <Formula>
C27H44O3

> <FW>
416.6365

> <DSSTox_CID>
28566

> <DSSTox_RID>
82838

> <DSSTox_GSID>
48640

> <DSSTox_FileID_Sort>
7515

> <TS_ChemName>
Paricalcitol

> <TS_ChemName_Synonyms>


> <TS_CASRN>
131918-61-1

> <CASRN_ChemName_Relationship>
primary

> <TS_Description>
single chemical compound

> <ChemNote>
stereochem

> <STRUCTURE_Shown>
tested chemical

> <STRUCTURE_Formula>
C27H44O3

> <STRUCTURE_MW>
416.6365

> <STRUCTURE_ChemType>
defined organic

> <STRUCTURE_DefinedOrganicForm>
parent

> <STRUCTURE_IUPAC>
(1R,3R,7E,17beta)-17-[(2R,3E,5S)-6-hydroxy-5,6-dimethylhept-3-en-2-yl]-9,10-secoestra-5,7-diene-1,3-diol

> <STRUCTURE_SMILES>
O[C@@H]3CC(=C\C=C1/CCC[C@]2(C)[C@H](CC[C@@H]12)[C@H](C)/C=C/[C@H](C)C(C)(C)O)/C[C@@H](O)C3

> <STRUCTURE_SMILES_Desalt>
O[C@@H]3CC(=C\C=C1/CCC[C@]2(C)[C@H](CC[C@@H]12)[C@H](C)/C=C/[C@H](C)C(C)(C)O)/C[C@@H](O)C3

> <Substance_modify_yyyymmdd>
20111015

$$$$
