131983-72-7
ChemmineR-0915142007XD

 22 24  0  0  0  0  0  0  0  0  1 V2000
    5.6790   -4.7650    0.0000 C    0  0  0  0  0  0  0  0  0  0  0  0
    5.2609   -6.0388    0.0000 C    0  0  0  0  0  0  0  0  0  0  0  0
    3.9287   -6.0388    0.0000 C    0  0  0  0  0  0  0  0  0  0  0  0
    3.5105   -4.7650    0.0000 C    0  0  0  0  0  0  0  0  0  0  0  0
    4.6094   -3.9773    0.0000 C    0  0  0  0  0  0  0  0  0  0  0  0
    6.5640   -3.7925    0.0000 O    0  0  0  0  0  0  0  0  0  0  0  0
    4.6094   -2.6450    0.0000 C    0  0  0  0  0  0  0  0  0  0  0  0
    3.4522   -1.9935    0.0000 C    0  0  0  0  0  0  0  0  0  0  0  0
    3.4522   -0.6613    0.0000 C    0  0  0  0  0  0  0  0  0  0  0  0
    2.2950   -2.6450    0.0000 C    0  0  0  0  0  0  0  0  0  0  0  0
    2.2950    0.0000    0.0000 C    0  0  0  0  0  0  0  0  0  0  0  0
    1.1572   -1.9935    0.0000 C    0  0  0  0  0  0  0  0  0  0  0  0
    1.1572   -0.6613    0.0000 C    0  0  0  0  0  0  0  0  0  0  0  0
    0.0000    0.0000    0.0000 Cl   0  0  0  0  0  0  0  0  0  0  0  0
    6.4862   -6.5640    0.0000 C    0  0  0  0  0  0  0  0  0  0  0  0
    5.4068   -7.3516    0.0000 C    0  0  0  0  0  0  0  0  0  0  0  0
    6.9627   -5.0372    0.0000 C    0  0  0  0  0  0  0  0  0  0  0  0
    7.8670   -4.0648    0.0000 N    0  0  0  0  0  0  0  0  0  0  0  0
    7.5753   -2.7423    0.0000 N    0  0  0  0  0  0  0  0  0  0  0  0
    8.7325   -2.0907    0.0000 C    0  0  0  0  0  0  0  0  0  0  0  0
    9.7244   -2.9854    0.0000 N    0  0  0  0  0  0  0  0  0  0  0  0
    9.1993   -4.1912    0.0000 C    0  0  0  0  0  0  0  0  0  0  0  0
  1  2  1  0  0  0  0
  1  5  1  0  0  0  0
  1  6  1  0  0  0  0
  1 17  1  0  0  0  0
  2  3  1  0  0  0  0
  2 15  1  0  0  0  0
  2 16  1  0  0  0  0
  3  4  1  0  0  0  0
  4  5  1  0  0  0  0
  5  7  2  3  0  0  0
  7  8  1  0  0  0  0
  8  9  2  0  0  0  0
  8 10  1  0  0  0  0
  9 11  1  0  0  0  0
 10 12  2  0  0  0  0
 11 13  2  0  0  0  0
 12 13  1  0  0  0  0
 13 14  1  0  0  0  0
 17 18  1  0  0  0  0
 18 19  1  0  0  0  0
 18 22  1  0  0  0  0
 19 20  2  0  0  0  0
 20 21  1  0  0  0  0
 21 22  2  0  0  0  0
M  END
> <ID>
6568

> <Formula>
C17H20ClN3O

> <FW>
317.8132

> <DSSTox_CID>
12655

> <DSSTox_RID>
79028

> <DSSTox_GSID>
32655

> <DSSTox_FileID_Sort>
3710

> <TS_ChemName>
Triticonazole

> <TS_ChemName_Synonyms>
Triticonazole (5-[(4-Chlorophenyl)methylene]-2,2-dimethyl-1-(1H-1,2,4-triazol-1-ylmethyl)cyclopentanol)

> <TS_CASRN>
131983-72-7

> <CASRN_ChemName_Relationship>
primary

> <TS_Description>
single chemical compound

> <ChemNote>
mixture of Z,E isomers

> <STRUCTURE_Shown>
tested chemical

> <STRUCTURE_Formula>
C17H20ClN3O

> <STRUCTURE_MW>
317.8132

> <STRUCTURE_ChemType>
defined organic

> <STRUCTURE_DefinedOrganicForm>
parent

> <STRUCTURE_IUPAC>
5-(4-chlorobenzylidene)-2,2-dimethyl-1-(1H-1,2,4-triazol-1-ylmethyl)cyclopentanol

> <STRUCTURE_SMILES>
Clc1ccc(cc1)C=C3CCC(C)(C)C3(O)Cn2cncn2

> <STRUCTURE_SMILES_Desalt>
Clc1ccc(cc1)C=C3CCC(C)(C)C3(O)Cn2cncn2

> <Substance_modify_yyyymmdd>
20080429

$$$$
