132-65-0
ChemmineR-0915142007XD

 13 15  0  0  0  0  0  0  0  0  1 V2000
    2.1970   -0.7888    0.0000 C   0  0  0  0  0  0  0  0  0  0  0  0
    3.2596    0.0000    0.0000 S   0  0  0  0  0  0  0  0  0  0  0  0
    2.5816   -2.0601    0.0000 C   0  0  0  0  0  0  0  0  0  0  0  0
    4.3223   -0.7888    0.0000 C   0  0  0  0  0  0  0  0  0  0  0  0
    3.9181   -2.0601    0.0000 C   0  0  0  0  0  0  0  0  0  0  0  0
    5.6327   -0.4955    0.0000 C   0  0  0  0  0  0  0  0  0  0  0  0
    6.5193   -1.4994    0.0000 C   0  0  0  0  0  0  0  0  0  0  0  0
    4.8243   -3.0315    0.0000 C   0  0  0  0  0  0  0  0  0  0  0  0
    6.1020   -2.7707    0.0000 C   0  0  0  0  0  0  0  0  0  0  0  0
    0.8866   -0.4955    0.0000 C   0  0  0  0  0  0  0  0  0  0  0  0
    0.0000   -1.4994    0.0000 C   0  0  0  0  0  0  0  0  0  0  0  0
    1.6950   -3.0315    0.0000 C   0  0  0  0  0  0  0  0  0  0  0  0
    0.3846   -2.7577    0.0000 C   0  0  0  0  0  0  0  0  0  0  0  0
  1  2  1  0  0  0  0
  1 10  1  0  0  0  0
  1  3  2  0  0  0  0
  2  4  1  0  0  0  0
  3  5  1  0  0  0  0
  3 12  1  0  0  0  0
  4  6  1  0  0  0  0
  4  5  2  0  0  0  0
  5  8  1  0  0  0  0
  6  7  2  0  0  0  0
  7  9  1  0  0  0  0
  8  9  2  0  0  0  0
 10 11  2  0  0  0  0
 11 13  1  0  0  0  0
 12 13  2  0  0  0  0
M  END
> <ID>
12846

> <Formula>
C12H8S

> <FW>
184.2569

> <DSSTox_CID>
27725

> <DSSTox_RID>
82526

> <DSSTox_GSID>
47741

> <DSSTox_FileID_Sort>
7207

> <TS_ChemName>
Dibenzothiophene

> <TS_ChemName_Synonyms>


> <TS_CASRN>
132-65-0

> <CASRN_ChemName_Relationship>
primary

> <TS_Description>
single chemical compound

> <ChemNote>


> <STRUCTURE_Shown>
tested chemical

> <STRUCTURE_Formula>
C12H8S

> <STRUCTURE_MW>
184.2569

> <STRUCTURE_ChemType>
defined organic

> <STRUCTURE_DefinedOrganicForm>
parent

> <STRUCTURE_IUPAC>
dibenzo[b,d]thiophene

> <STRUCTURE_SMILES>
c1cccc2sc3ccccc3c12

> <STRUCTURE_SMILES_Desalt>
c1cccc2sc3ccccc3c12

> <Substance_modify_yyyymmdd>
20110208

$$$$
