132-35-4
ChemmineR-0915142007XD

 34 34  0  0  0  0  0  0  0  0  1 V2000
    6.0756   -2.1866    0.0000 N   0  0  0  0  0  0  0  0  0  0  0  0
    7.3275   -1.6357    0.0000 C   0  0  0  0  0  0  0  0  0  0  0  0
    7.1772   -0.2838    0.0000 N   0  0  0  0  0  0  0  0  0  0  0  0
    5.1576   -1.1851    0.0000 C   0  0  0  0  0  0  0  0  0  0  0  0
    5.8419    0.0000    0.0000 O   0  0  0  0  0  0  0  0  0  0  0  0
    8.5125   -2.3201    0.0000 C   0  0  0  0  0  0  0  0  0  0  0  0
    3.8056   -1.3186    0.0000 C   0  0  0  0  0  0  0  0  0  0  0  0
    8.5125   -3.6721    0.0000 C   0  0  0  0  0  0  0  0  0  0  0  0
    3.2715   -2.5705    0.0000 C   0  0  0  0  0  0  0  0  0  0  0  0
    1.9195   -2.7040    0.0000 N   0  0  0  0  0  0  0  0  0  0  0  0
    9.6809   -1.6357    0.0000 C   0  0  0  0  0  0  0  0  0  0  0  0
    1.3520   -3.9558    0.0000 C   0  0  0  0  0  0  0  0  0  0  0  0
    1.1016   -1.6024    0.0000 C   0  0  0  0  0  0  0  0  0  0  0  0
    7.3275   -4.3564    0.0000 C   0  0  0  0  0  0  0  0  0  0  0  0
    9.6809   -4.3564    0.0000 C   0  0  0  0  0  0  0  0  0  0  0  0
    9.6809   -0.2671    0.0000 C   0  0  0  0  0  0  0  0  0  0  0  0
    0.0000   -4.0894    0.0000 C   0  0  0  0  0  0  0  0  0  0  0  0
    1.6524   -0.3672    0.0000 C   0  0  0  0  0  0  0  0  0  0  0  0
    9.6809   -5.7251    0.0000 C   0  0  0  0  0  0  0  0  0  0  0  0
    7.3275   -5.7251    0.0000 C   0  0  0  0  0  0  0  0  0  0  0  0
    8.5125   -6.3927    0.0000 C   0  0  0  0  0  0  0  0  0  0  0  0
   13.5032   -3.2715    0.0000 C   0  0  0  0  0  0  0  0  0  0  0  0
   13.5199   -2.0029    0.0000 C   0  0  0  0  0  0  0  0  0  0  0  0
   14.7717   -3.2715    0.0000 C   0  0  0  0  0  0  0  0  0  0  0  0
   13.5032   -4.5233    0.0000 C   0  0  0  0  0  0  0  0  0  0  0  0
   14.6048   -5.1576    0.0000 O   0  0  0  0  0  0  0  0  0  0  0  0
   15.4227   -2.1532    0.0000 C   0  0  0  0  0  0  0  0  0  0  0  0
   14.7717   -1.0682    0.0000 O   0  0  0  0  0  0  0  0  0  0  0  0
   16.6912   -2.1532    0.0000 O   0  0  0  0  0  0  0  0  0  0  0  0
   12.4016   -1.3687    0.0000 C   0  0  0  0  0  0  0  0  0  0  0  0
   11.3167   -2.0029    0.0000 O   0  0  0  0  0  0  0  0  0  0  0  0
   12.4016   -0.0835    0.0000 O   0  0  0  0  0  0  0  0  0  0  0  0
   12.2347   -3.2715    0.0000 O   0  0  0  0  0  0  0  0  0  0  0  0
   12.4016   -5.1576    0.0000 O   0  0  0  0  0  0  0  0  0  0  0  0
  1  2  1  0  0  0  0
  1  4  2  0  0  0  0
  2  3  2  0  0  0  0
  2  6  1  0  0  0  0
  3  5  1  0  0  0  0
  4  5  1  0  0  0  0
  4  7  1  0  0  0  0
  6  8  1  0  0  0  0
  6 11  1  0  0  0  0
  7  9  1  0  0  0  0
  8 14  2  0  0  0  0
  8 15  1  0  0  0  0
  9 10  1  0  0  0  0
 10 12  1  0  0  0  0
 10 13  1  0  0  0  0
 11 16  1  0  0  0  0
 12 17  1  0  0  0  0
 13 18  1  0  0  0  0
 14 20  1  0  0  0  0
 15 19  2  0  0  0  0
 19 21  1  0  0  0  0
 20 21  2  0  0  0  0
 22 25  1  0  0  0  0
 22 24  1  0  0  0  0
 22 33  1  0  0  0  0
 22 23  1  0  0  0  0
 23 30  1  0  0  0  0
 24 27  1  0  0  0  0
 25 26  1  0  0  0  0
 25 34  2  0  0  0  0
 27 28  1  0  0  0  0
 27 29  2  0  0  0  0
 30 31  2  0  0  0  0
 30 32  1  0  0  0  0
M  END
> <ID>
13750

> <Formula>
C23H33N3O8

> <FW>
479.5234 (287.3999+192.1235)

> <DSSTox_CID>
28686

> <DSSTox_RID>
82956

> <DSSTox_GSID>
48760

> <DSSTox_FileID_Sort>
7633

> <TS_ChemName>
Proxazole citrate

> <TS_ChemName_Synonyms>


> <TS_CASRN>
132-35-4

> <CASRN_ChemName_Relationship>
primary

> <TS_Description>
single chemical compound

> <ChemNote>
stereochem

> <STRUCTURE_Shown>
tested chemical

> <STRUCTURE_Formula>
C23H33N3O8

> <STRUCTURE_MW>
479.5234

> <STRUCTURE_ChemType>
defined organic

> <STRUCTURE_DefinedOrganicForm>
complex

> <STRUCTURE_IUPAC>
N,N-diethyl-2-[3-(1-phenylpropyl)-1,2,4-oxadiazol-5-yl]ethanamine 2-hydroxypropane-1,2,3-tricarboxylate (1:1)

> <STRUCTURE_SMILES>
CCC(c1nc(CCN(CC)CC)on1)c2ccccc2.O=C(O)C(O)(CC(=O)O)CC(=O)O

> <STRUCTURE_SMILES_Desalt>
CCC(c1nc(CCN(CC)CC)on1)c2ccccc2

> <Substance_modify_yyyymmdd>
20111204

$$$$
