132-17-2
ChemmineR-0915142007XD

 28 30  0  0  1  0  0  0  0  0  1 V2000
    1.5597   -1.8843    0.0000 C   0  0  0  0  0  0  0  0  0  0  0  0
    3.2698   -3.2065    0.0000 C   0  0  0  0  0  0  0  0  0  0  0  0
    2.4306   -2.4940    0.0000 C   0  0  0  0  0  0  0  0  0  0  0  0
    0.8709   -2.4781    0.0000 C   0  0  0  0  0  0  0  0  0  0  0  0
    0.6571   -1.1559    0.0000 N   0  0  0  0  0  0  0  0  0  0  0  0
    3.0561   -1.8843    0.0000 C   0  0  0  0  0  0  0  0  0  0  0  0
    0.0000   -3.6024    0.0000 C   0  0  0  0  0  0  0  0  0  0  0  0
    1.0134   -3.0086    0.0000 C   0  0  0  0  0  0  0  0  0  0  0  0
    0.0000    0.0000    0.0000 C   0  0  0  0  0  0  0  0  0  0  0  0
    3.9112   -4.3783    0.0000 O   0  0  0  0  0  0  0  0  0  0  0  0
    5.2492   -4.3624    0.0000 C   0  0  0  0  0  0  0  0  0  0  0  0
    5.9221   -5.5184    0.0000 C   0  0  0  0  0  0  0  0  0  0  0  0
    7.2602   -5.5184    0.0000 C   0  0  0  0  0  0  0  0  0  0  0  0
    5.2492   -6.6822    0.0000 C   0  0  0  0  0  0  0  0  0  0  0  0
    7.9173   -6.6822    0.0000 C   0  0  0  0  0  0  0  0  0  0  0  0
    5.9221   -7.8381    0.0000 C   0  0  0  0  0  0  0  0  0  0  0  0
    7.2602   -7.8381    0.0000 C   0  0  0  0  0  0  0  0  0  0  0  0
    5.9063   -3.2065    0.0000 C   0  0  0  0  0  0  0  0  0  0  0  0
    5.2333   -2.0585    0.0000 C   0  0  0  0  0  0  0  0  0  0  0  0
    7.2443   -3.2065    0.0000 C   0  0  0  0  0  0  0  0  0  0  0  0
    5.9063   -0.9026    0.0000 C   0  0  0  0  0  0  0  0  0  0  0  0
    7.9015   -2.0427    0.0000 C   0  0  0  0  0  0  0  0  0  0  0  0
    7.2285   -0.8867    0.0000 C   0  0  0  0  0  0  0  0  0  0  0  0
    2.1218   -7.1335    0.0000 C   0  0  0  0  0  0  0  0  0  0  0  0
    2.1218   -5.7955    0.0000 S   0  0  0  0  0  0  0  0  0  0  0  0
    0.7917   -5.7955    0.0000 O   0  0  0  0  0  0  0  0  0  0  0  0
    2.1218   -4.4416    0.0000 O   0  0  0  0  0  0  0  0  0  0  0  0
    3.4599   -5.7955    0.0000 O   0  0  0  0  0  0  0  0  0  0  0  0
  1  5  1  1  0  0  0
  1  6  1  0  0  0  0
  1  8  1  0  0  0  0
  2  3  1  0  0  0  0
  2  6  1  0  0  0  0
  2 10  1  6  0  0  0
  3  4  1  0  0  0  0
  4  5  1  6  0  0  0
  4  7  1  0  0  0  0
  5  9  1  0  0  0  0
  7  8  1  0  0  0  0
 10 11  1  0  0  0  0
 11 12  1  0  0  0  0
 11 18  1  0  0  0  0
 12 13  1  0  0  0  0
 12 14  2  0  0  0  0
 13 15  2  0  0  0  0
 14 16  1  0  0  0  0
 15 17  1  0  0  0  0
 16 17  2  0  0  0  0
 18 19  1  0  0  0  0
 18 20  2  0  0  0  0
 19 21  2  0  0  0  0
 20 22  1  0  0  0  0
 21 23  1  0  0  0  0
 22 23  2  0  0  0  0
 24 25  1  0  0  0  0
 25 26  1  0  0  0  0
 25 27  2  0  0  0  0
 25 28  2  0  0  0  0
M  END
> <ID>
10737

> <Formula>
C22H29NO4S

> <FW>
403.5350 (307.4293+96.1057)

> <DSSTox_CID>
25096

> <DSSTox_RID>
80668

> <DSSTox_GSID>
45096

> <DSSTox_FileID_Sort>
5350

> <TS_ChemName>
Benztropine methylsulfonate

> <TS_ChemName_Synonyms>


> <TS_CASRN>
132-17-2

> <CASRN_ChemName_Relationship>
primary

> <TS_Description>
single chemical compound

> <ChemNote>
stereochem; parent [86-13-5]

> <STRUCTURE_Shown>
tested chemical

> <STRUCTURE_Formula>
C22H29NO4S

> <STRUCTURE_MW>
403.535

> <STRUCTURE_ChemType>
defined organic

> <STRUCTURE_DefinedOrganicForm>
complex

> <STRUCTURE_IUPAC>
(3-endo)-3-(diphenylmethoxy)-8-methyl-8-azabicyclo[3.2.1]octane methanesulfonate (1:1)

> <STRUCTURE_SMILES>
CN4[C@H]1CC[C@@H]4C[C@@H](C1)OC(c2ccccc2)c3ccccc3.CS(=O)(=O)O

> <STRUCTURE_SMILES_Desalt>
CN4[C@H]1CC[C@@H]4C[C@@H](C1)OC(c2ccccc2)c3ccccc3

> <Substance_modify_yyyymmdd>
20110828

$$$$
