132-32-1
ChemmineR-0915142007XD

 16 18  0  0  0  0  0  0  0  0  1 V2000
    2.8854   -1.7137    0.0000 N   0  0  0  0  0  0  0  0  0  0  0  0
    2.0066   -2.7097    0.0000 C   0  0  0  0  0  0  0  0  0  0  0  0
    4.1011   -2.2629    0.0000 C   0  0  0  0  0  0  0  0  0  0  0  0
    2.6584   -3.8595    0.0000 C   0  0  0  0  0  0  0  0  0  0  0  0
    3.9547   -3.5738    0.0000 C   0  0  0  0  0  0  0  0  0  0  0  0
    2.0066   -5.0166    0.0000 C   0  0  0  0  0  0  0  0  0  0  0  0
    5.0312   -4.3575    0.0000 C   0  0  0  0  0  0  0  0  0  0  0  0
    5.3168   -1.7137    0.0000 C   0  0  0  0  0  0  0  0  0  0  0  0
    0.6738   -2.7097    0.0000 C   0  0  0  0  0  0  0  0  0  0  0  0
    0.6738   -5.0166    0.0000 C   0  0  0  0  0  0  0  0  0  0  0  0
    6.2469   -3.8155    0.0000 C   0  0  0  0  0  0  0  0  0  0  0  0
    0.0000   -3.8595    0.0000 C   0  0  0  0  0  0  0  0  0  0  0  0
    6.3934   -2.4973    0.0000 C   0  0  0  0  0  0  0  0  0  0  0  0
    7.3235   -4.5991    0.0000 N   0  0  0  0  0  0  0  0  0  0  0  0
    2.6145   -0.4174    0.0000 C   0  0  0  0  0  0  0  0  0  0  0  0
    1.3475    0.0000    0.0000 C   0  0  0  0  0  0  0  0  0  0  0  0
  1  2  1  0  0  0  0
  1  3  1  0  0  0  0
  1 15  1  0  0  0  0
  2  4  2  0  0  0  0
  2  9  1  0  0  0  0
  3  5  2  0  0  0  0
  3  8  1  0  0  0  0
  4  5  1  0  0  0  0
  4  6  1  0  0  0  0
  5  7  1  0  0  0  0
  6 10  2  0  0  0  0
  7 11  2  0  0  0  0
  8 13  2  0  0  0  0
  9 12  2  0  0  0  0
 10 12  1  0  0  0  0
 11 13  1  0  0  0  0
 11 14  1  0  0  0  0
 15 16  1  0  0  0  0
M  END
> <ID>
54

> <Formula>
C14H14N2

> <FW>
210.2744

> <DSSTox_CID>
55

> <DSSTox_RID>
78844

> <DSSTox_GSID>
30319

> <DSSTox_FileID_Sort>
3526

> <TS_ChemName>
3-Amino-9-ethylcarbazole

> <TS_ChemName_Synonyms>


> <TS_CASRN>
132-32-1

> <CASRN_ChemName_Relationship>
primary

> <TS_Description>
single chemical compound

> <ChemNote>


> <STRUCTURE_Shown>
tested chemical

> <STRUCTURE_Formula>
C14H14N2

> <STRUCTURE_MW>
210.2744

> <STRUCTURE_ChemType>
defined organic

> <STRUCTURE_DefinedOrganicForm>
parent

> <STRUCTURE_IUPAC>
9-ethyl-9H-carbazol-3-amine

> <STRUCTURE_SMILES>
Nc2cc3c1ccccc1n(CC)c3cc2

> <STRUCTURE_SMILES_Desalt>
Nc2cc3c1ccccc1n(CC)c3cc2

> <Substance_modify_yyyymmdd>
20080429

$$$$
