132-69-4
ChemmineR-0915142007XD

 24 25  0  0  0  0  0  0  0  0  1 V2000
    1.3344   -5.2894    0.0000 Cl   0  0  0  0  0  0  0  0  0  0  0  0
    3.5779   -3.6939    0.0000 N    0  0  0  0  0  0  0  0  0  0  0  0
    4.3418   -2.6109    0.0000 N    0  0  0  0  0  0  0  0  0  0  0  0
    3.5779   -1.5375    0.0000 C    0  0  0  0  0  0  0  0  0  0  0  0
    2.3111   -1.9436    0.0000 C    0  0  0  0  0  0  0  0  0  0  0  0
    2.3111   -3.2684    0.0000 C    0  0  0  0  0  0  0  0  0  0  0  0
    3.9743   -4.9606    0.0000 C    0  0  0  0  0  0  0  0  0  0  0  0
    3.9743   -0.2708    0.0000 O    0  0  0  0  0  0  0  0  0  0  0  0
    1.1507   -1.2861    0.0000 C    0  0  0  0  0  0  0  0  0  0  0  0
    1.1507   -3.9453    0.0000 C    0  0  0  0  0  0  0  0  0  0  0  0
    5.2894    0.0000    0.0000 C    0  0  0  0  0  0  0  0  0  0  0  0
    0.0000   -1.9436    0.0000 C    0  0  0  0  0  0  0  0  0  0  0  0
    0.0000   -3.2684    0.0000 C    0  0  0  0  0  0  0  0  0  0  0  0
    5.2894   -5.2314    0.0000 C    0  0  0  0  0  0  0  0  0  0  0  0
    6.1694   -4.2547    0.0000 C    0  0  0  0  0  0  0  0  0  0  0  0
    5.6956   -6.4982    0.0000 C    0  0  0  0  0  0  0  0  0  0  0  0
    7.4748   -4.5255    0.0000 C    0  0  0  0  0  0  0  0  0  0  0  0
    6.9913   -6.7689    0.0000 C    0  0  0  0  0  0  0  0  0  0  0  0
    7.8906   -5.7923    0.0000 C    0  0  0  0  0  0  0  0  0  0  0  0
    6.1694   -0.9767    0.0000 C    0  0  0  0  0  0  0  0  0  0  0  0
    7.4748   -0.7059    0.0000 C    0  0  0  0  0  0  0  0  0  0  0  0
    8.3741   -1.7019    0.0000 N    0  0  0  0  0  0  0  0  0  0  0  0
    9.6699   -1.4118    0.0000 C    0  0  0  0  0  0  0  0  0  0  0  0
    7.9583   -2.9687    0.0000 C    0  0  0  0  0  0  0  0  0  0  0  0
  2  3  1  0  0  0  0
  2  6  1  0  0  0  0
  2  7  1  0  0  0  0
  3  4  2  0  0  0  0
  4  8  1  0  0  0  0
  4  5  1  0  0  0  0
  5  6  2  0  0  0  0
  5  9  1  0  0  0  0
  6 10  1  0  0  0  0
  7 14  1  0  0  0  0
  8 11  1  0  0  0  0
  9 12  2  0  0  0  0
 10 13  2  0  0  0  0
 11 20  1  0  0  0  0
 12 13  1  0  0  0  0
 14 15  1  0  0  0  0
 14 16  2  0  0  0  0
 15 17  2  0  0  0  0
 16 18  1  0  0  0  0
 17 19  1  0  0  0  0
 18 19  2  0  0  0  0
 20 21  1  0  0  0  0
 21 22  1  0  0  0  0
 22 23  1  0  0  0  0
 22 24  1  0  0  0  0
M  END
> <ID>
10856

> <Formula>
C19H24ClN3O

> <FW>
345.8664 (36.4609+309.4054)

> <DSSTox_CID>
25293

> <DSSTox_RID>
80786

> <DSSTox_GSID>
45293

> <DSSTox_FileID_Sort>
5467

> <TS_ChemName>
Benzydamine hydrochloride

> <TS_ChemName_Synonyms>


> <TS_CASRN>
132-69-4

> <CASRN_ChemName_Relationship>
primary

> <TS_Description>
single chemical compound

> <ChemNote>
parent [642-72-8]

> <STRUCTURE_Shown>
tested chemical

> <STRUCTURE_Formula>
C19H24ClN3O

> <STRUCTURE_MW>
345.8664

> <STRUCTURE_ChemType>
defined organic

> <STRUCTURE_DefinedOrganicForm>
complex

> <STRUCTURE_IUPAC>
3-[(1-benzyl-1H-indazol-3-yl)oxy]-N,N-dimethylpropan-1-amine hydrochloride (1:1)

> <STRUCTURE_SMILES>
Cl.CN(C)CCCOc3nn(Cc1ccccc1)c2ccccc23

> <STRUCTURE_SMILES_Desalt>
CN(C)CCCOc3nn(Cc1ccccc1)c2ccccc23

> <Substance_modify_yyyymmdd>
20110605

$$$$
