132-98-9
ChemmineR-0915142007XD

 27 28  0  0  1  0  0  0  0  0  2 V2000
    7.1163   -2.0349    0.0000 C   0  0  0  0  0  0  0  0  0  0  0  0
    8.4303   -3.3489    0.0000 N   0  0  0  0  0  0  0  0  0  0  0  0
    8.4303   -2.0349    0.0000 C   0  0  0  0  0  0  0  0  0  0  0  0
    7.1163   -3.3489    0.0000 C   0  0  0  0  0  0  0  0  0  0  0  0
    9.6861   -3.7442    0.0000 C   0  0  0  0  0  0  0  0  0  0  0  0
   10.4885   -2.6744    0.0000 C   0  0  0  0  0  0  0  0  0  0  0  0
    9.6861   -1.6163    0.0000 S   0  0  0  0  0  0  0  0  0  0  0  0
    8.4419   -0.6861    0.0000 H   0  0  0  0  0  0  0  0  0  0  0  0
    7.0931   -0.6861    0.0000 H   0  0  0  0  0  0  0  0  0  0  0  0
    5.7675   -2.0000    0.0000 N   0  0  0  0  0  0  0  0  0  0  0  0
   11.6280   -2.0000    0.0000 C   0  0  0  0  0  0  0  0  0  0  0  0
   11.6280   -3.3489    0.0000 C   0  0  0  0  0  0  0  0  0  0  0  0
   10.1047   -5.0349    0.0000 C   0  0  0  0  0  0  0  0  0  0  0  0
   11.4071   -5.3024    0.0000 O   0  0  0  0  0  0  0  0  0  0  0  0
    9.2094   -6.0233    0.0000 O   0  5  0  0  0  0  0  0  0  0  0  0
    6.1628   -4.2907    0.0000 O   0  0  0  0  0  0  0  0  0  0  0  0
    4.6280   -1.3256    0.0000 C   0  0  0  0  0  0  0  0  0  0  0  0
    4.6280    0.0000    0.0000 O   0  0  0  0  0  0  0  0  0  0  0  0
    3.4651   -2.0000    0.0000 C   0  0  0  0  0  0  0  0  0  0  0  0
    3.4651   -3.3140    0.0000 O   0  0  0  0  0  0  0  0  0  0  0  0
    2.3023   -3.9768    0.0000 C   0  0  0  0  0  0  0  0  0  0  0  0
    2.3023   -5.3024    0.0000 C   0  0  0  0  0  0  0  0  0  0  0  0
    1.1744   -3.3140    0.0000 C   0  0  0  0  0  0  0  0  0  0  0  0
    1.1395   -5.9768    0.0000 C   0  0  0  0  0  0  0  0  0  0  0  0
    0.0000   -3.9768    0.0000 C   0  0  0  0  0  0  0  0  0  0  0  0
    0.0000   -5.3024    0.0000 C   0  0  0  0  0  0  0  0  0  0  0  0
    8.0698   -6.0233    0.0000 K   0  3  0  0  0  0  0  0  0  0  0  0
  1  3  1  0  0  0  0
  1  4  1  0  0  0  0
  1  9  1  6  0  0  0
  1 10  1  1  0  0  0
  2  4  1  0  0  0  0
  2  5  1  0  0  0  0
  2  3  1  0  0  0  0
  3  7  1  0  0  0  0
  3  8  1  6  0  0  0
  4 16  2  0  0  0  0
  5  6  1  0  0  0  0
  5 13  1  6  0  0  0
  6  7  1  0  0  0  0
  6 11  1  0  0  0  0
  6 12  1  0  0  0  0
 10 17  1  0  0  0  0
 13 14  2  0  0  0  0
 13 15  1  0  0  0  0
 17 18  2  0  0  0  0
 17 19  1  0  0  0  0
 19 20  1  0  0  0  0
 20 21  1  0  0  0  0
 21 22  1  0  0  0  0
 21 23  2  0  0  0  0
 22 24  2  0  0  0  0
 23 25  1  0  0  0  0
 24 26  1  0  0  0  0
 25 26  2  0  0  0  0
M  END
> <ID>
1061

> <Formula>
C16H17KN2O5S

> <FW>
388.4799 (349.3821+39.0978)

> <DSSTox_CID>
1102

> <DSSTox_RID>
75941

> <DSSTox_GSID>
21102

> <DSSTox_FileID_Sort>
625

> <TS_ChemName>
Penicillin VK

> <TS_ChemName_Synonyms>


> <TS_CASRN>
132-98-9

> <CASRN_ChemName_Relationship>
primary

> <TS_Description>
single chemical compound

> <ChemNote>
stereochem; parent [87-08-1]

> <STRUCTURE_Shown>
tested chemical

> <STRUCTURE_Formula>
C16H17KN2O5S

> <STRUCTURE_MW>
388.4799

> <STRUCTURE_ChemType>
defined organic

> <STRUCTURE_DefinedOrganicForm>
salt

> <STRUCTURE_IUPAC>
potassium (2S,5R,6R)-3,3-dimethyl-7-oxo-6-[(phenoxyacetyl)amino]-4-thia-1-azabicyclo[3.2.0]heptane-2-carboxylate

> <STRUCTURE_SMILES>
[K+].O=C([O-])[C@@H]2N3C(=O)[C@@H](NC(=O)COc1ccccc1)[C@H]3SC2(C)C

> <STRUCTURE_SMILES_Desalt>
OC(=O)[C@@H]2N3C(=O)[C@@H](NC(=O)COc1ccccc1)[C@H]3SC2(C)C

> <Substance_modify_yyyymmdd>
20080429

$$$$
