132-20-7
ChemmineR-0915142007XD

 26 26  0  0  0  0  0  0  0  0  2 V2000
    6.1748   -4.8923    0.0000 C   0  0  0  0  0  0  0  0  0  0  0  0
    6.1748   -3.6194    0.0000 C   0  0  0  0  0  0  0  0  0  0  0  0
    3.9614   -4.8923    0.0000 N   0  3  0  0  0  0  0  0  0  0  0  0
    5.0633   -5.5383    0.0000 C   0  0  0  0  0  0  0  0  0  0  0  0
    7.2767   -5.5383    0.0000 C   0  0  0  0  0  0  0  0  0  0  0  0
    7.2767   -3.0019    0.0000 C   0  0  0  0  0  0  0  0  0  0  0  0
    7.2767   -1.7099    0.0000 N   0  3  0  0  0  0  0  0  0  0  0  0
    2.8499   -5.5383    0.0000 C   0  0  0  0  0  0  0  0  0  0  0  0
    5.0633   -6.8208    0.0000 C   0  0  0  0  0  0  0  0  0  0  0  0
    8.3977   -4.9113    0.0000 C   0  0  0  0  0  0  0  0  0  0  0  0
    7.2767   -6.8208    0.0000 C   0  0  0  0  0  0  0  0  0  0  0  0
    6.6403    0.0000    0.0000 C   0  0  0  0  0  0  0  0  0  0  0  0
    8.4832   -0.1235    0.0000 C   0  0  0  0  0  0  0  0  0  0  0  0
    2.8499   -6.8208    0.0000 C   0  0  0  0  0  0  0  0  0  0  0  0
    3.9614   -7.4572    0.0000 C   0  0  0  0  0  0  0  0  0  0  0  0
    8.3977   -7.4572    0.0000 C   0  0  0  0  0  0  0  0  0  0  0  0
    9.4997   -5.5573    0.0000 C   0  0  0  0  0  0  0  0  0  0  0  0
    9.4997   -6.8018    0.0000 C   0  0  0  0  0  0  0  0  0  0  0  0
    3.8949   -1.4819    0.0000 C   0  0  0  0  0  0  0  0  0  0  0  0
    1.3015   -1.4819    0.0000 C   0  0  0  0  0  0  0  0  0  0  0  0
    1.9379   -0.3705    0.0000 C   0  0  0  0  0  0  0  0  0  0  0  0
    3.2584   -0.3705    0.0000 C   0  0  0  0  0  0  0  0  0  0  0  0
    3.2584   -2.5839    0.0000 O   0  0  0  0  0  0  0  0  0  0  0  0
    1.9379   -2.5839    0.0000 O   0  0  0  0  0  0  0  0  0  0  0  0
    5.1963   -1.5009    0.0000 O   0  5  0  0  0  0  0  0  0  0  0  0
    0.0000   -1.5009    0.0000 O   0  5  0  0  0  0  0  0  0  0  0  0
  1  2  1  0  0  0  0
  1  4  1  0  0  0  0
  1  5  1  0  0  0  0
  2  6  1  0  0  0  0
  3  4  1  0  0  0  0
  3  8  2  0  0  0  0
  4  9  2  0  0  0  0
  5 10  1  0  0  0  0
  5 11  2  0  0  0  0
  6  7  1  0  0  0  0
  7 12  1  0  0  0  0
  7 13  1  0  0  0  0
  8 14  1  0  0  0  0
  9 15  1  0  0  0  0
 10 17  2  0  0  0  0
 11 16  1  0  0  0  0
 14 15  2  0  0  0  0
 16 18  2  0  0  0  0
 17 18  1  0  0  0  0
 19 22  1  0  0  0  0
 19 23  2  0  0  0  0
 19 25  1  0  0  0  0
 20 21  1  0  0  0  0
 20 24  2  0  0  0  0
 20 26  1  0  0  0  0
 21 22  2  0  0  0  0
M  END
> <ID>
4445

> <Formula>
C20H24N2O4

> <FW>
356.4156 (242.3582+114.0574)

> <DSSTox_CID>
5866

> <DSSTox_RID>
77955

> <DSSTox_GSID>
25866

> <DSSTox_FileID_Sort>
2638

> <TS_ChemName>
Pheniramine maleate

> <TS_ChemName_Synonyms>


> <TS_CASRN>
132-20-7

> <CASRN_ChemName_Relationship>
primary

> <TS_Description>
single chemical compound

> <ChemNote>
ammonium; parent [86-21-5]

> <STRUCTURE_Shown>
tested chemical

> <STRUCTURE_Formula>
C20H24N2O4

> <STRUCTURE_MW>
356.4156

> <STRUCTURE_ChemType>
defined organic

> <STRUCTURE_DefinedOrganicForm>
complex

> <STRUCTURE_IUPAC>
2-[3-(dimethylammonio)-1-phenylpropyl]pyridinium (2Z)-but-2-enedioate

> <STRUCTURE_SMILES>
[O-]C(=O)/C=C\C([O-])=O.C[NH+](C)CCC(c1ccccc1)c2[nH+]cccc2

> <STRUCTURE_SMILES_Desalt>
CN(C)CCC(c1ccccn1)c2ccccc2

> <Substance_modify_yyyymmdd>
20090201

$$$$
