132-66-1
ChemmineR-0915142007XD

 22 24  0  0  0  0  0  0  0  0  1 V2000
    3.4583   -1.3301    0.0000 C   0  0  0  0  0  0  0  0  0  0  0  0
    3.4583    0.0000    0.0000 O   0  0  0  0  0  0  0  0  0  0  0  0
    2.3056   -1.9831    0.0000 C   0  0  0  0  0  0  0  0  0  0  0  0
    4.6192   -1.9831    0.0000 O   0  0  0  0  0  0  0  0  0  0  0  0
    2.3056   -3.3132    0.0000 C   0  0  0  0  0  0  0  0  0  0  0  0
    1.1528   -1.3301    0.0000 C   0  0  0  0  0  0  0  0  0  0  0  0
    1.1528   -3.9904    0.0000 C   0  0  0  0  0  0  0  0  0  0  0  0
    0.0000   -1.9831    0.0000 C   0  0  0  0  0  0  0  0  0  0  0  0
    0.0000   -3.3132    0.0000 C   0  0  0  0  0  0  0  0  0  0  0  0
    3.4583   -3.9904    0.0000 C   0  0  0  0  0  0  0  0  0  0  0  0
    3.4583   -5.3205    0.0000 O   0  0  0  0  0  0  0  0  0  0  0  0
    4.6192   -3.3132    0.0000 N   0  0  0  0  0  0  0  0  0  0  0  0
    5.7559   -5.3205    0.0000 C   0  0  0  0  0  0  0  0  0  0  0  0
    6.9086   -5.9735    0.0000 C   0  0  0  0  0  0  0  0  0  0  0  0
    4.6192   -5.9735    0.0000 C   0  0  0  0  0  0  0  0  0  0  0  0
    6.9086   -7.3036    0.0000 C   0  0  0  0  0  0  0  0  0  0  0  0
    8.0614   -5.3205    0.0000 C   0  0  0  0  0  0  0  0  0  0  0  0
    5.7559   -3.9904    0.0000 C   0  0  0  0  0  0  0  0  0  0  0  0
    6.9086   -3.3132    0.0000 C   0  0  0  0  0  0  0  0  0  0  0  0
    8.0614   -3.9904    0.0000 C   0  0  0  0  0  0  0  0  0  0  0  0
    5.7559   -7.9808    0.0000 C   0  0  0  0  0  0  0  0  0  0  0  0
    4.6192   -7.3036    0.0000 C   0  0  0  0  0  0  0  0  0  0  0  0
  1  2  2  0  0  0  0
  1  3  1  0  0  0  0
  1  4  1  0  0  0  0
  3  5  2  0  0  0  0
  3  6  1  0  0  0  0
  5  7  1  0  0  0  0
  5 10  1  0  0  0  0
  6  8  2  0  0  0  0
  7  9  2  0  0  0  0
  8  9  1  0  0  0  0
 10 11  2  0  0  0  0
 10 12  1  0  0  0  0
 12 18  1  0  0  0  0
 13 14  2  0  0  0  0
 13 15  1  0  0  0  0
 13 18  1  0  0  0  0
 14 16  1  0  0  0  0
 14 17  1  0  0  0  0
 15 22  2  0  0  0  0
 16 21  2  0  0  0  0
 17 20  2  0  0  0  0
 18 19  2  0  0  0  0
 19 20  1  0  0  0  0
 21 22  1  0  0  0  0
M  END
> <ID>
6461

> <Formula>
C18H13NO3

> <FW>
291.3007

> <DSSTox_CID>
12437

> <DSSTox_RID>
78947

> <DSSTox_GSID>
32437

> <DSSTox_FileID_Sort>
3629

> <TS_ChemName>
Naptalam

> <TS_ChemName_Synonyms>
Naptalam (NPA)

> <TS_CASRN>
132-66-1

> <CASRN_ChemName_Relationship>
primary

> <TS_Description>
single chemical compound

> <ChemNote>


> <STRUCTURE_Shown>
tested chemical

> <STRUCTURE_Formula>
C18H13NO3

> <STRUCTURE_MW>
291.3007

> <STRUCTURE_ChemType>
defined organic

> <STRUCTURE_DefinedOrganicForm>
parent

> <STRUCTURE_IUPAC>
2-(naphthalen-1-ylcarbamoyl)benzoic acid

> <STRUCTURE_SMILES>
O=C(O)c1ccccc1C(=O)Nc3cccc2ccccc23

> <STRUCTURE_SMILES_Desalt>
O=C(O)c1ccccc1C(=O)Nc3cccc2ccccc23

> <Substance_modify_yyyymmdd>
20080429

$$$$
