132-18-3
ChemmineR-0915142007XD

 22 23  0  0  0  0  0  0  0  0  1 V2000
    0.0000   -4.6103    0.0000 C    0  0  0  0  0  0  0  0  0  0  0  0
    1.3272   -4.6103    0.0000 N    0  0  0  0  0  0  0  0  0  0  0  0
    1.9958   -3.4527    0.0000 C    0  0  0  0  0  0  0  0  0  0  0  0
    3.3230   -3.4527    0.0000 C    0  0  0  0  0  0  0  0  0  0  0  0
    4.0016   -4.6103    0.0000 C    0  0  0  0  0  0  0  0  0  0  0  0
    3.3230   -5.7579    0.0000 C    0  0  0  0  0  0  0  0  0  0  0  0
    1.9958   -5.7579    0.0000 C    0  0  0  0  0  0  0  0  0  0  0  0
    5.3288   -4.6103    0.0000 O    0  0  0  0  0  0  0  0  0  0  0  0
    5.9774   -3.4527    0.0000 C    0  0  0  0  0  0  0  0  0  0  0  0
    5.3288   -2.3052    0.0000 C    0  0  0  0  0  0  0  0  0  0  0  0
    4.0016   -2.3052    0.0000 C    0  0  0  0  0  0  0  0  0  0  0  0
    3.3230   -1.1476    0.0000 C    0  0  0  0  0  0  0  0  0  0  0  0
    4.0016    0.0000    0.0000 C    0  0  0  0  0  0  0  0  0  0  0  0
    5.3288    0.0000    0.0000 C    0  0  0  0  0  0  0  0  0  0  0  0
    5.9774   -1.1476    0.0000 C    0  0  0  0  0  0  0  0  0  0  0  0
    7.3046   -3.4527    0.0000 C    0  0  0  0  0  0  0  0  0  0  0  0
    7.9832   -2.3052    0.0000 C    0  0  0  0  0  0  0  0  0  0  0  0
    9.3104   -2.3052    0.0000 C    0  0  0  0  0  0  0  0  0  0  0  0
    9.9790   -3.4527    0.0000 C    0  0  0  0  0  0  0  0  0  0  0  0
    9.3104   -4.6103    0.0000 C    0  0  0  0  0  0  0  0  0  0  0  0
    7.9832   -4.6103    0.0000 C    0  0  0  0  0  0  0  0  0  0  0  0
    6.2668   -5.6581    0.0000 Cl   0  0  0  0  0  0  0  0  0  0  0  0
  1  2  1  0  0  0  0
  2  3  1  0  0  0  0
  2  7  1  0  0  0  0
  3  4  1  0  0  0  0
  4  5  1  0  0  0  0
  5  6  1  0  0  0  0
  5  8  1  0  0  0  0
  6  7  1  0  0  0  0
  8  9  1  0  0  0  0
  9 10  1  0  0  0  0
  9 16  1  0  0  0  0
 10 11  2  0  0  0  0
 10 15  1  0  0  0  0
 11 12  1  0  0  0  0
 12 13  2  0  0  0  0
 13 14  1  0  0  0  0
 14 15  2  0  0  0  0
 16 17  2  0  0  0  0
 16 21  1  0  0  0  0
 17 18  1  0  0  0  0
 18 19  2  0  0  0  0
 19 20  1  0  0  0  0
 20 21  2  0  0  0  0
M  END
> <ID>
12873

> <Formula>
C19H24ClNO

> <FW>
317.8530 (281.3920+36.4609)

> <DSSTox_CID>
27752

> <DSSTox_RID>
82529

> <DSSTox_GSID>
47772

> <DSSTox_FileID_Sort>
7210

> <TS_ChemName>
Diphenylpyraline hydrochloride

> <TS_ChemName_Synonyms>


> <TS_CASRN>
132-18-3

> <CASRN_ChemName_Relationship>
primary

> <TS_Description>
single chemical compound

> <ChemNote>
parent [147-20-6]

> <STRUCTURE_Shown>
tested chemical

> <STRUCTURE_Formula>
C19H24ClNO

> <STRUCTURE_MW>
317.853

> <STRUCTURE_ChemType>
defined organic

> <STRUCTURE_DefinedOrganicForm>
complex

> <STRUCTURE_IUPAC>
4-(diphenylmethoxy)-1-methylpiperidine hydrochloride (1:1)

> <STRUCTURE_SMILES>
Cl.CN3CCC(OC(c1ccccc1)c2ccccc2)CC3

> <STRUCTURE_SMILES_Desalt>
CN3CCC(OC(c1ccccc1)c2ccccc2)CC3

> <Substance_modify_yyyymmdd>
20110720

$$$$
