132-54-7
ChemmineR-0915142007XD

 20 22  0  0  0  0  0  0  0  0  1 V2000
    2.3137   -2.6457    0.0000 C   0  0  0  0  0  0  0  0  0  0  0  0
    2.3137   -3.9840    0.0000 C   0  0  0  0  0  0  0  0  0  0  0  0
    1.1516   -1.9920    0.0000 C   0  0  0  0  0  0  0  0  0  0  0  0
    1.1516   -4.6584    0.0000 C   0  0  0  0  0  0  0  0  0  0  0  0
    3.4653   -4.6584    0.0000 C   0  0  0  0  0  0  0  0  0  0  0  0
    3.4653   -1.9920    0.0000 C   0  0  0  0  0  0  0  0  0  0  0  0
    4.6273   -2.6457    0.0000 C   0  0  0  0  0  0  0  0  0  0  0  0
    4.6273   -3.9840    0.0000 C   0  0  0  0  0  0  0  0  0  0  0  0
    0.0000   -3.9840    0.0000 C   0  0  0  0  0  0  0  0  0  0  0  0
    0.0000   -2.6457    0.0000 C   0  0  0  0  0  0  0  0  0  0  0  0
    5.7686   -1.9920    0.0000 C   0  0  0  0  0  0  0  0  0  0  0  0
    5.7686   -0.6640    0.0000 O   0  0  0  0  0  0  0  0  0  0  0  0
    6.9202   -2.6457    0.0000 O   0  0  0  0  0  0  0  0  0  0  0  0
    3.4653   -0.6640    0.0000 O   0  0  0  0  0  0  0  0  0  0  0  0
   10.3751   -1.9920    0.0000 C   0  0  0  0  0  0  0  0  0  0  0  0
   10.3751   -0.6640    0.0000 C   0  0  0  0  0  0  0  0  0  0  0  0
    9.2235    0.0000    0.0000 C   0  0  0  0  0  0  0  0  0  0  0  0
    8.0822   -0.6640    0.0000 C   0  0  0  0  0  0  0  0  0  0  0  0
    8.0822   -1.9920    0.0000 C   0  0  0  0  0  0  0  0  0  0  0  0
    9.2235   -2.6457    0.0000 C   0  0  0  0  0  0  0  0  0  0  0  0
  1  2  2  0  0  0  0
  1  3  1  0  0  0  0
  1  6  1  0  0  0  0
  2  4  1  0  0  0  0
  2  5  1  0  0  0  0
  3 10  2  0  0  0  0
  4  9  2  0  0  0  0
  5  8  2  0  0  0  0
  6  7  2  0  0  0  0
  6 14  1  0  0  0  0
  7  8  1  0  0  0  0
  7 11  1  0  0  0  0
  9 10  1  0  0  0  0
 11 12  2  0  0  0  0
 11 13  1  0  0  0  0
 13 19  1  0  0  0  0
 15 20  2  0  0  0  0
 15 16  1  0  0  0  0
 16 17  2  0  0  0  0
 17 18  1  0  0  0  0
 18 19  2  0  0  0  0
 19 20  1  0  0  0  0
M  END
> <ID>
7529

> <Formula>
C17H12O3

> <FW>
264.2754

> <DSSTox_CID>
18876

> <DSSTox_RID>
79413

> <DSSTox_GSID>
38876

> <DSSTox_FileID_Sort>
4095

> <TS_ChemName>
Phenyl 1-hydroxy-2-naphthoate

> <TS_ChemName_Synonyms>


> <TS_CASRN>
132-54-7

> <CASRN_ChemName_Relationship>
primary

> <TS_Description>
single chemical compound

> <ChemNote>


> <STRUCTURE_Shown>
tested chemical

> <STRUCTURE_Formula>
C17H12O3

> <STRUCTURE_MW>
264.2754

> <STRUCTURE_ChemType>
defined organic

> <STRUCTURE_DefinedOrganicForm>
parent

> <STRUCTURE_IUPAC>
phenyl 1-hydroxynaphthalene-2-carboxylate

> <STRUCTURE_SMILES>
O=C(Oc1ccccc1)c3ccc2ccccc2c3O

> <STRUCTURE_SMILES_Desalt>
O=C(Oc1ccccc1)c3ccc2ccccc2c3O

> <Substance_modify_yyyymmdd>
20080429

$$$$
