132-93-4
ChemmineR-0915142007XD

 28 29  0  0  1  0  0  0  0  0  2 V2000
    9.5143   -3.3243    0.0000 N   0  0  0  0  0  0  0  0  0  0  0  0
    9.5143   -1.9997    0.0000 C   0  0  0  0  0  0  0  0  0  0  0  0
    8.1515   -3.3243    0.0000 C   0  0  0  0  0  0  0  0  0  0  0  0
    8.1515   -1.9997    0.0000 C   0  0  0  0  0  0  0  0  0  0  0  0
   10.7752   -3.7446    0.0000 C   0  0  0  0  0  0  0  0  0  0  0  0
   10.7752   -1.5666    0.0000 S   0  0  0  0  0  0  0  0  0  0  0  0
   11.5649   -2.6492    0.0000 C   0  0  0  0  0  0  0  0  0  0  0  0
   11.1956   -5.0437    0.0000 C   0  0  0  0  0  0  0  0  0  0  0  0
    7.1962   -4.2668    0.0000 O   0  0  0  0  0  0  0  0  0  0  0  0
   10.3040   -6.0245    0.0000 O   0  5  0  0  0  0  0  0  0  0  0  0
   12.5329   -5.2985    0.0000 O   0  0  0  0  0  0  0  0  0  0  0  0
   12.7367   -3.3243    0.0000 C   0  0  0  0  0  0  0  0  0  0  0  0
   12.7367   -1.9997    0.0000 C   0  0  0  0  0  0  0  0  0  0  0  0
    6.8396   -1.9997    0.0000 N   0  0  0  0  0  0  0  0  0  0  0  0
    8.1515   -0.6750    0.0000 H   0  0  0  0  0  0  0  0  0  0  0  0
    9.5143   -0.6750    0.0000 H   0  0  0  0  0  0  0  0  0  0  0  0
    2.2799   -1.9997    0.0000 C   0  0  0  0  0  0  0  0  0  0  0  0
    2.2799   -3.2988    0.0000 C   0  0  0  0  0  0  0  0  0  0  0  0
    1.1336   -1.3246    0.0000 C   0  0  0  0  0  0  0  0  0  0  0  0
    1.1336   -3.9484    0.0000 C   0  0  0  0  0  0  0  0  0  0  0  0
    0.0000   -1.9997    0.0000 C   0  0  0  0  0  0  0  0  0  0  0  0
    0.0000   -3.2988    0.0000 C   0  0  0  0  0  0  0  0  0  0  0  0
    3.4134   -1.3246    0.0000 O   0  0  0  0  0  0  0  0  0  0  0  0
    4.5597   -1.9997    0.0000 C   0  0  0  0  0  0  0  0  0  0  0  0
    4.5597   -3.2988    0.0000 C   0  0  0  0  0  0  0  0  0  0  0  0
    5.7060   -1.3246    0.0000 C   0  0  0  0  0  0  0  0  0  0  0  0
    5.7060    0.0000    0.0000 O   0  0  0  0  0  0  0  0  0  0  0  0
    9.1067   -6.1009    0.0000 K   0  3  0  0  0  0  0  0  0  0  0  0
  1  2  1  0  0  0  0
  1  3  1  0  0  0  0
  1  5  1  0  0  0  0
  2  6  1  0  0  0  0
  2  4  1  0  0  0  0
  2 16  1  6  0  0  0
  3  4  1  0  0  0  0
  3  9  2  0  0  0  0
  4 14  1  1  0  0  0
  4 15  1  6  0  0  0
  5  7  1  0  0  0  0
  5  8  1  6  0  0  0
  6  7  1  0  0  0  0
  7 12  1  0  0  0  0
  7 13  1  0  0  0  0
  8 10  1  0  0  0  0
  8 11  2  0  0  0  0
 14 26  1  0  0  0  0
 17 19  2  0  0  0  0
 17 23  1  0  0  0  0
 17 18  1  0  0  0  0
 18 20  2  0  0  0  0
 19 21  1  0  0  0  0
 20 22  1  0  0  0  0
 21 22  2  0  0  0  0
 23 24  1  0  0  0  0
 24 26  1  0  0  0  0
 24 25  1  0  0  0  0
 26 27  2  0  0  0  0
M  END
> <ID>
11015

> <Formula>
C17H19KN2O5S

> <FW>
402.5065 (363.4087+39.0978)

> <DSSTox_CID>
25546

> <DSSTox_RID>
80947

> <DSSTox_GSID>
45546

> <DSSTox_FileID_Sort>
5628

> <TS_ChemName>
Phenethicillin potassium

> <TS_ChemName_Synonyms>


> <TS_CASRN>
132-93-4

> <CASRN_ChemName_Relationship>
primary

> <TS_Description>
single chemical compound

> <ChemNote>
stereochem; parent [147-55-7]

> <STRUCTURE_Shown>
tested chemical

> <STRUCTURE_Formula>
C17H19KN2O5S

> <STRUCTURE_MW>
402.5065

> <STRUCTURE_ChemType>
defined organic

> <STRUCTURE_DefinedOrganicForm>
salt

> <STRUCTURE_IUPAC>
potassium (2S,5R,6R)-3,3-dimethyl-7-oxo-6-[(2-phenoxypropanoyl)amino]-4-thia-1-azabicyclo[3.2.0]heptane-2-carboxylate

> <STRUCTURE_SMILES>
[K+].O=C([O-])[C@@H]2N3C(=O)[C@@H](NC(=O)C(C)Oc1ccccc1)[C@H]3SC2(C)C

> <STRUCTURE_SMILES_Desalt>
OC(=O)[C@@H]2N3C(=O)[C@@H](NC(=O)C(C)Oc1ccccc1)[C@H]3SC2(C)C

> <Substance_modify_yyyymmdd>
20100107

$$$$
