1320-15-6
ChemmineR-0915142007XD

 23 23  0  0  0  0  0  0  0  0  1 V2000
    9.3740   -1.9478    0.0000 C    0  0  0  0  0  0  0  0  0  0  0  0
    9.3740   -0.6261    0.0000 O    0  0  0  0  0  0  0  0  0  0  0  0
   10.4871   -2.6087    0.0000 O    0  0  0  0  0  0  0  0  0  0  0  0
    8.2262   -2.6087    0.0000 C    0  0  0  0  0  0  0  0  0  0  0  0
    6.9914   -1.9826    0.0000 C    0  0  0  0  0  0  0  0  0  0  0  0
    5.8435   -2.6087    0.0000 C    0  0  0  0  0  0  0  0  0  0  0  0
    4.6957   -1.9131    0.0000 O    0  0  0  0  0  0  0  0  0  0  0  0
    3.4957   -2.5739    0.0000 C    0  0  0  0  0  0  0  0  0  0  0  0
    2.3826   -1.8783    0.0000 C    0  0  0  0  0  0  0  0  0  0  0  0
    3.4957   -3.8957    0.0000 C    0  0  0  0  0  0  0  0  0  0  0  0
    1.2000   -2.5044    0.0000 C    0  0  0  0  0  0  0  0  0  0  0  0
    2.3131   -4.5392    0.0000 C    0  0  0  0  0  0  0  0  0  0  0  0
    1.2000   -3.8435    0.0000 C    0  0  0  0  0  0  0  0  0  0  0  0
    2.3826   -0.5565    0.0000 Cl   0  0  0  0  0  0  0  0  0  0  0  0
    0.0000   -4.4522    0.0000 Cl   0  0  0  0  0  0  0  0  0  0  0  0
   11.6523   -1.9652    0.0000 C    0  0  0  0  0  0  0  0  0  0  0  0
   12.7827   -2.6435    0.0000 C    0  0  0  0  0  0  0  0  0  0  0  0
   13.9480   -2.0000    0.0000 C    0  0  0  0  0  0  0  0  0  0  0  0
   15.0958   -2.6609    0.0000 C    0  0  0  0  0  0  0  0  0  0  0  0
   16.2610   -2.0174    0.0000 C    0  0  0  0  0  0  0  0  0  0  0  0
   17.3915   -2.6957    0.0000 C    0  0  0  0  0  0  0  0  0  0  0  0
   11.6697   -0.6435    0.0000 C    0  0  0  0  0  0  0  0  0  0  0  0
   12.8349    0.0000    0.0000 C    0  0  0  0  0  0  0  0  0  0  0  0
  1  2  2  0  0  0  0
  1  3  1  0  0  0  0
  1  4  1  0  0  0  0
  3 16  1  0  0  0  0
  4  5  1  0  0  0  0
  5  6  1  0  0  0  0
  6  7  1  0  0  0  0
  7  8  1  0  0  0  0
  8  9  2  0  0  0  0
  8 10  1  0  0  0  0
  9 11  1  0  0  0  0
  9 14  1  0  0  0  0
 10 12  2  0  0  0  0
 11 13  2  0  0  0  0
 12 13  1  0  0  0  0
 13 15  1  0  0  0  0
 16 17  1  0  0  0  0
 16 22  1  0  0  0  0
 17 18  1  0  0  0  0
 18 19  1  0  0  0  0
 19 20  1  0  0  0  0
 20 21  1  0  0  0  0
 22 23  1  0  0  0  0
M  END
> <ID>
12569

> <Formula>
C18H26Cl2O3

> <FW>
361.3032

> <DSSTox_CID>
27427

> <DSSTox_RID>
82340

> <DSSTox_GSID>
47427

> <DSSTox_FileID_Sort>
7021

> <TS_ChemName>
2,4-DB-isooctyl ester

> <TS_ChemName_Synonyms>


> <TS_CASRN>
1320-15-6

> <CASRN_ChemName_Relationship>
primary

> <TS_Description>
mixture or formulation

> <ChemNote>
mixture of isooctyl esters; structure shown 2-ethylhexyl

> <STRUCTURE_Shown>
representative isomer in mixture

> <STRUCTURE_Formula>
C18H26Cl2O3

> <STRUCTURE_MW>
361.3032

> <STRUCTURE_ChemType>
defined organic

> <STRUCTURE_DefinedOrganicForm>
parent

> <STRUCTURE_IUPAC>
octan-3-yl 4-(2,4-dichlorophenoxy)butanoate

> <STRUCTURE_SMILES>
Clc1cc(Cl)ccc1OCCCC(=O)OC(CC)CCCCC

> <STRUCTURE_SMILES_Desalt>
Clc1cc(Cl)ccc1OCCCC(=O)OC(CC)CCCCC

> <Substance_modify_yyyymmdd>
20100619

$$$$
