1320-07-6
ChemmineR-0915142007XD

 31 32  0  0  0  0  0  0  0  0  2 V2000
    6.9124   -5.4608    0.0000 C    0  0  0  0  0  0  0  0  0  0  0  0
    8.0702   -4.8041    0.0000 C    0  0  0  0  0  0  0  0  0  0  0  0
    5.7546   -4.8041    0.0000 N    0  0  0  0  0  0  0  0  0  0  0  0
    6.9124   -6.7914    0.0000 C    0  0  0  0  0  0  0  0  0  0  0  0
    9.2108   -5.4608    0.0000 C    0  0  0  0  0  0  0  0  0  0  0  0
    8.0702   -3.4735    0.0000 O    0  0  0  0  0  0  0  0  0  0  0  0
    4.5968   -4.1302    0.0000 N    0  0  0  0  0  0  0  0  0  0  0  0
    8.0702   -7.4654    0.0000 C    0  0  0  0  0  0  0  0  0  0  0  0
    5.7546   -7.4654    0.0000 O    0  0  0  0  0  0  0  0  0  0  0  0
   10.3686   -4.8041    0.0000 N    0  0  0  0  0  0  0  0  0  0  0  0
    9.2108   -6.7914    0.0000 C    0  0  0  0  0  0  0  0  0  0  0  0
    3.4562   -3.4735    0.0000 C    0  0  0  0  0  0  0  0  0  0  0  0
   11.5264   -4.1302    0.0000 N    0  0  0  0  0  0  0  0  0  0  0  0
    2.3157   -4.1302    0.0000 C    0  0  0  0  0  0  0  0  0  0  0  0
    3.4562   -2.1428    0.0000 C    0  0  0  0  0  0  0  0  0  0  0  0
   12.6843   -3.4735    0.0000 C    0  0  0  0  0  0  0  0  0  0  0  0
    1.1578   -3.4735    0.0000 C    0  0  0  0  0  0  0  0  0  0  0  0
    2.3157   -5.4608    0.0000 C    0  0  0  0  0  0  0  0  0  0  0  0
    2.3157   -1.4689    0.0000 C    0  0  0  0  0  0  0  0  0  0  0  0
   12.6843   -2.1428    0.0000 C    0  0  0  0  0  0  0  0  0  0  0  0
   13.8421   -4.1302    0.0000 C    0  0  0  0  0  0  0  0  0  0  0  0
    1.1578   -2.1428    0.0000 C    0  0  0  0  0  0  0  0  0  0  0  0
   13.8421   -1.4689    0.0000 C    0  0  0  0  0  0  0  0  0  0  0  0
   14.9654   -3.4735    0.0000 C    0  0  0  0  0  0  0  0  0  0  0  0
    0.0000   -1.4689    0.0000 C    0  0  0  0  0  0  0  0  0  0  0  0
   14.9654   -2.1428    0.0000 C    0  0  0  0  0  0  0  0  0  0  0  0
   16.1232   -1.4689    0.0000 S    0  0  0  0  0  0  0  0  0  0  0  0
   16.7972   -2.6267    0.0000 O    0  0  0  0  0  0  0  0  0  0  0  0
   15.4665   -0.3111    0.0000 O    0  0  0  0  0  0  0  0  0  0  0  0
   17.2810   -0.8122    0.0000 O    0  5  0  0  0  0  0  0  0  0  0  0
   12.2522    0.0000    0.0000 Na   0  3  0  0  0  0  0  0  0  0  0  0
  1  2  1  0  0  0  0
  1  3  1  0  0  0  0
  1  4  2  0  0  0  0
  2  5  2  0  0  0  0
  2  6  1  0  0  0  0
  3  7  2  0  0  0  0
  4  8  1  0  0  0  0
  4  9  1  0  0  0  0
  5 10  1  0  0  0  0
  5 11  1  0  0  0  0
  7 12  1  0  0  0  0
  8 11  2  0  0  0  0
 10 13  2  0  0  0  0
 12 14  1  0  0  0  0
 12 15  2  0  0  0  0
 13 16  1  0  0  0  0
 14 17  2  0  0  0  0
 14 18  1  0  0  0  0
 15 19  1  0  0  0  0
 16 20  1  0  0  0  0
 16 21  2  0  0  0  0
 17 22  1  0  0  0  0
 19 22  2  0  0  0  0
 20 23  2  0  0  0  0
 21 24  1  0  0  0  0
 22 25  1  0  0  0  0
 23 26  1  0  0  0  0
 24 26  2  0  0  0  0
 26 27  1  0  0  0  0
 27 28  2  0  0  0  0
 27 29  2  0  0  0  0
 27 30  1  0  0  0  0
M  END
> <ID>
8664

> <Formula>
C20H17N4NaO5S

> <FW>
448.4275 (425.4383+22.9892)

> <DSSTox_CID>
21708

> <DSSTox_RID>
79827

> <DSSTox_GSID>
41708

> <DSSTox_FileID_Sort>
4509

> <TS_ChemName>
C.I. Acid orange 24, monosodium salt

> <TS_ChemName_Synonyms>


> <TS_CASRN>
1320-07-6

> <CASRN_ChemName_Relationship>
primary

> <TS_Description>
single chemical compound

> <ChemNote>
C.I. 20170; parent [30282-44-1]

> <STRUCTURE_Shown>
tested chemical

> <STRUCTURE_Formula>
C20H17N4NaO5S

> <STRUCTURE_MW>
448.4275

> <STRUCTURE_ChemType>
defined organic

> <STRUCTURE_DefinedOrganicForm>
salt

> <STRUCTURE_IUPAC>
sodium 4-({3-[(2,4-dimethylphenyl)diazenyl]-2,4-dihydroxyphenyl}diazenyl)benzenesulfonate

> <STRUCTURE_SMILES>
[Na+].O=S([O-])(=O)c3ccc(/N=N/c2ccc(O)c(/N=N/c1ccc(C)cc1C)c2O)cc3

> <STRUCTURE_SMILES_Desalt>
OS(=O)(=O)c3ccc(/N=N/c2ccc(O)c(/N=N/c1ccc(C)cc1C)c2O)cc3

> <Substance_modify_yyyymmdd>
20080825

$$$$
