1322-17-4
ChemmineR-0915142007XD

 14 13  0  0  0  0  0  0  0  0  1 V2000
    3.4566   -1.3168    0.0000 C   0  0  0  0  0  0  0  0  0  0  0  0
    4.6215   -1.9879    0.0000 C   0  0  0  0  0  0  0  0  0  0  0  0
    5.7737   -1.3168    0.0000 C   0  0  0  0  0  0  0  0  0  0  0  0
    6.8879   -1.9879    0.0000 C   0  0  0  0  0  0  0  0  0  0  0  0
    8.0401   -1.3168    0.0000 C   0  0  0  0  0  0  0  0  0  0  0  0
    9.2050   -1.9879    0.0000 C   0  0  0  0  0  0  0  0  0  0  0  0
   10.3572   -1.3168    0.0000 C   0  0  0  0  0  0  0  0  0  0  0  0
   11.5094   -1.9879    0.0000 C   0  0  0  0  0  0  0  0  0  0  0  0
   12.6616   -1.3168    0.0000 C   0  0  0  0  0  0  0  0  0  0  0  0
    2.3044   -1.9879    0.0000 O   0  0  0  0  0  0  0  0  0  0  0  0
    5.7737    0.0000    0.0000 O   0  0  0  0  0  0  0  0  0  0  0  0
    1.1522   -1.3168    0.0000 C   0  0  0  0  0  0  0  0  0  0  0  0
    1.1522    0.0000    0.0000 O   0  0  0  0  0  0  0  0  0  0  0  0
    0.0000   -1.9879    0.0000 C   0  0  0  0  0  0  0  0  0  0  0  0
  1  2  1  0  0  0  0
  1 10  1  0  0  0  0
  2  3  1  0  0  0  0
  3  4  1  0  0  0  0
  3 11  1  0  0  0  0
  4  5  1  0  0  0  0
  5  6  1  0  0  0  0
  6  7  1  0  0  0  0
  7  8  1  0  0  0  0
  8  9  1  0  0  0  0
 10 12  1  0  0  0  0
 12 13  2  0  0  0  0
 12 14  1  0  0  0  0
M  END
> <ID>
12778

> <Formula>
C11H22O3

> <FW>
202.2906

> <DSSTox_CID>
27657

> <DSSTox_RID>
82481

> <DSSTox_GSID>
47657

> <DSSTox_FileID_Sort>
7162

> <TS_ChemName>
1,3-Nonanediol monoacetate

> <TS_ChemName_Synonyms>
1,3-Nonanediol acetate, mixed esters

> <TS_CASRN>
1322-17-4

> <CASRN_ChemName_Relationship>
primary

> <TS_Description>
mixture or formulation

> <ChemNote>
mixture of monoacetate esters

> <STRUCTURE_Shown>
representative component

> <STRUCTURE_Formula>
C11H22O3

> <STRUCTURE_MW>
202.2906

> <STRUCTURE_ChemType>
defined organic

> <STRUCTURE_DefinedOrganicForm>
parent

> <STRUCTURE_IUPAC>
3-hydroxynonyl acetate

> <STRUCTURE_SMILES>
O=C(C)OCCC(O)CCCCCC

> <STRUCTURE_SMILES_Desalt>
O=C(C)OCCC(O)CCCCCC

> <Substance_modify_yyyymmdd>
20101214

$$$$
