132203-70-4
ChemmineR-0915142007XD

 36 38  0  0  0  0  0  0  0  0  2 V2000
    1.1384   -5.6198    0.0000 O   0  0  0  0  0  0  0  0  0  0  0  0
    2.2768   -6.2703    0.0000 C   0  0  0  0  0  0  0  0  0  0  0  0
    3.3791   -5.6198    0.0000 C   0  0  0  0  0  0  0  0  0  0  0  0
    4.5175   -6.2703    0.0000 O   0  0  0  0  0  0  0  0  0  0  0  0
    5.6559   -5.6198    0.0000 C   0  0  0  0  0  0  0  0  0  0  0  0
    5.6559   -4.3187    0.0000 O   0  0  0  0  0  0  0  0  0  0  0  0
    0.0000   -6.2703    0.0000 C   0  0  0  0  0  0  0  0  0  0  0  0
    6.7582   -6.2703    0.0000 C   0  0  0  0  0  0  0  0  0  0  0  0
    6.7582   -7.5533    0.0000 C   0  0  0  0  0  0  0  0  0  0  0  0
    7.8966   -8.2219    0.0000 N   0  0  0  0  0  0  0  0  0  0  0  0
    9.0350   -7.5533    0.0000 C   0  0  0  0  0  0  0  0  0  0  0  0
    9.0350   -6.2703    0.0000 C   0  0  0  0  0  0  0  0  0  0  0  0
    7.8966   -5.6198    0.0000 C   0  0  0  0  0  0  0  0  0  0  0  0
    5.6559   -8.2219    0.0000 C   0  0  0  0  0  0  0  0  0  0  0  0
   10.1554   -8.2219    0.0000 C   0  0  0  0  0  0  0  0  0  0  0  0
   10.1554   -5.6198    0.0000 C   0  0  0  0  0  0  0  0  0  0  0  0
   12.4322   -5.6198    0.0000 C   0  0  0  0  0  0  0  0  0  0  0  0
   13.5525   -6.2703    0.0000 C   0  0  0  0  0  0  0  0  0  0  0  0
   14.6909   -5.6198    0.0000 C   0  0  0  0  0  0  0  0  0  0  0  0
   15.8294   -6.2703    0.0000 C   0  0  0  0  0  0  0  0  0  0  0  0
    7.8966   -4.2103    0.0000 C   0  0  0  0  0  0  0  0  0  0  0  0
    9.1073   -3.5237    0.0000 C   0  0  0  0  0  0  0  0  0  0  0  0
    9.1073   -2.1142    0.0000 C   0  0  0  0  0  0  0  0  0  0  0  0
    7.8966   -1.3914    0.0000 C   0  0  0  0  0  0  0  0  0  0  0  0
    6.6678   -2.1142    0.0000 C   0  0  0  0  0  0  0  0  0  0  0  0
    6.6678   -3.5237    0.0000 C   0  0  0  0  0  0  0  0  0  0  0  0
   10.3361   -1.3914    0.0000 N   0  3  0  0  0  0  0  0  0  0  0  0
   11.5468   -2.1142    0.0000 O   0  5  0  0  0  0  0  0  0  0  0  0
   10.3361    0.0000    0.0000 O   0  0  0  0  0  0  0  0  0  0  0  0
   16.9316   -5.6198    0.0000 C   0  0  0  0  0  0  0  0  0  0  0  0
   18.0700   -6.2703    0.0000 C   0  0  0  0  0  0  0  0  0  0  0  0
   18.0700   -7.5533    0.0000 C   0  0  0  0  0  0  0  0  0  0  0  0
   16.9316   -8.2219    0.0000 C   0  0  0  0  0  0  0  0  0  0  0  0
   15.8294   -7.5533    0.0000 C   0  0  0  0  0  0  0  0  0  0  0  0
   11.2757   -6.2703    0.0000 O   0  0  0  0  0  0  0  0  0  0  0  0
   10.1554   -4.3007    0.0000 O   0  0  0  0  0  0  0  0  0  0  0  0
  1  2  1  0  0  0  0
  1  7  1  0  0  0  0
  2  3  1  0  0  0  0
  3  4  1  0  0  0  0
  4  5  1  0  0  0  0
  5  6  2  0  0  0  0
  5  8  1  0  0  0  0
  8 13  1  0  0  0  0
  8  9  2  0  0  0  0
  9 10  1  0  0  0  0
  9 14  1  0  0  0  0
 10 11  1  0  0  0  0
 11 12  2  0  0  0  0
 11 15  1  0  0  0  0
 12 13  1  0  0  0  0
 12 16  1  0  0  0  0
 13 21  1  0  0  0  0
 16 35  1  0  0  0  0
 16 36  2  0  0  0  0
 17 35  1  0  0  0  0
 17 18  1  0  0  0  0
 18 19  2  0  0  0  0
 19 20  1  0  0  0  0
 20 30  2  0  0  0  0
 20 34  1  0  0  0  0
 21 22  2  0  0  0  0
 21 26  1  0  0  0  0
 22 23  1  0  0  0  0
 23 24  2  0  0  0  0
 23 27  1  0  0  0  0
 24 25  1  0  0  0  0
 25 26  2  0  0  0  0
 27 28  1  0  0  0  0
 27 29  2  0  0  0  0
 30 31  1  0  0  0  0
 31 32  2  0  0  0  0
 32 33  1  0  0  0  0
 33 34  2  0  0  0  0
M  END
> <ID>
11597

> <Formula>
C27H28N2O7

> <FW>
492.5204

> <DSSTox_CID>
26309

> <DSSTox_RID>
81530

> <DSSTox_GSID>
46309

> <DSSTox_FileID_Sort>
6211

> <TS_ChemName>
Cilnidipine

> <TS_ChemName_Synonyms>


> <TS_CASRN>
132203-70-4

> <CASRN_ChemName_Relationship>
primary

> <TS_Description>
single chemical compound

> <ChemNote>
stereochem; tautomers

> <STRUCTURE_Shown>
tested chemical

> <STRUCTURE_Formula>
C27H28N2O7

> <STRUCTURE_MW>
492.5204

> <STRUCTURE_ChemType>
defined organic

> <STRUCTURE_DefinedOrganicForm>
parent

> <STRUCTURE_IUPAC>
2-methoxyethyl (2E)-3-phenylprop-2-en-1-yl 2,6-dimethyl-4-(3-nitrophenyl)-1,4-dihydropyridine-3,5-dicarboxylate

> <STRUCTURE_SMILES>
CC=1NC(C)=C(C(C=1C(=O)OCCOC)c2cccc(c2)[N+]([O-])=O)C(=O)OC/C=C/c3ccccc3

> <STRUCTURE_SMILES_Desalt>
CC=1NC(C)=C(C(C=1C(=O)OCCOC)c2cccc(c2)[N+]([O-])=O)C(=O)OC/C=C/c3ccccc3

> <Substance_modify_yyyymmdd>
20110815

$$$$
