1322-14-1
ChemmineR-0915142007XD

 27 24  0  0  0  0  0  0  0  0  2 V2000
    5.2335   -1.3365    0.0000 C    0  0  0  0  0  0  0  0  0  0  0  0
    6.3607   -2.0129    0.0000 C    0  0  0  0  0  0  0  0  0  0  0  0
    7.5040   -1.3365    0.0000 C    0  0  0  0  0  0  0  0  0  0  0  0
    8.6795   -2.0129    0.0000 C    0  0  0  0  0  0  0  0  0  0  0  0
    9.8067   -1.3365    0.0000 C    0  0  0  0  0  0  0  0  0  0  0  0
   10.9823   -2.0129    0.0000 C    0  0  0  0  0  0  0  0  0  0  0  0
   12.1095   -1.3365    0.0000 C    0  0  0  0  0  0  0  0  0  0  0  0
   13.2689   -2.0129    0.0000 C    0  0  0  0  0  0  0  0  0  0  0  0
   14.3961   -1.3365    0.0000 C    0  0  0  0  0  0  0  0  0  0  0  0
   15.5555   -2.0129    0.0000 C    0  0  0  0  0  0  0  0  0  0  0  0
   16.7149   -1.3365    0.0000 C    0  0  0  0  0  0  0  0  0  0  0  0
    5.2335    0.0000    0.0000 O    0  0  0  0  0  0  0  0  0  0  0  0
    4.0741   -2.0129    0.0000 O    0  5  0  0  0  0  0  0  0  0  0  0
    0.0000   -3.2528    0.0000 Ca   0  2  0  0  0  0  0  0  0  0  0  0
    5.1208   -5.5555    0.0000 C    0  0  0  0  0  0  0  0  0  0  0  0
    6.2480   -6.2158    0.0000 C    0  0  0  0  0  0  0  0  0  0  0  0
    7.3913   -5.5555    0.0000 C    0  0  0  0  0  0  0  0  0  0  0  0
    8.5668   -6.2158    0.0000 C    0  0  0  0  0  0  0  0  0  0  0  0
    9.6940   -5.5555    0.0000 C    0  0  0  0  0  0  0  0  0  0  0  0
   10.8695   -6.2158    0.0000 C    0  0  0  0  0  0  0  0  0  0  0  0
   11.9967   -5.5555    0.0000 C    0  0  0  0  0  0  0  0  0  0  0  0
   13.1562   -6.2158    0.0000 C    0  0  0  0  0  0  0  0  0  0  0  0
   14.2834   -5.5555    0.0000 C    0  0  0  0  0  0  0  0  0  0  0  0
   15.4428   -6.2158    0.0000 C    0  0  0  0  0  0  0  0  0  0  0  0
   16.6022   -5.5555    0.0000 C    0  0  0  0  0  0  0  0  0  0  0  0
    5.1208   -4.2190    0.0000 O    0  0  0  0  0  0  0  0  0  0  0  0
    3.9613   -6.2158    0.0000 O    0  5  0  0  0  0  0  0  0  0  0  0
  1  2  1  0  0  0  0
  1 13  1  0  0  0  0
  1 12  2  0  0  0  0
  2  3  2  0  0  0  0
  3  4  1  0  0  0  0
  4  5  1  0  0  0  0
  5  6  1  0  0  0  0
  6  7  1  0  0  0  0
  7  8  1  0  0  0  0
  8  9  1  0  0  0  0
  9 10  1  0  0  0  0
 10 11  1  0  0  0  0
 15 16  1  0  0  0  0
 15 27  1  0  0  0  0
 15 26  2  0  0  0  0
 16 17  2  0  0  0  0
 17 18  1  0  0  0  0
 18 19  1  0  0  0  0
 19 20  1  0  0  0  0
 20 21  1  0  0  0  0
 21 22  1  0  0  0  0
 22 23  1  0  0  0  0
 23 24  1  0  0  0  0
 24 25  1  0  0  0  0
M  END
> <ID>
16300

> <Formula>
C22H38CaO4

> <FW>
406.6127 (183.2679+40.0769+183.2679)

> <DSSTox_CID>
31685

> <DSSTox_RID>
97416

> <DSSTox_GSID>
57742

> <DSSTox_FileID_Sort>
8483

> <TS_ChemName>
Calcium undecylenate

> <TS_ChemName_Synonyms>


> <TS_CASRN>
1322-14-1

> <CASRN_ChemName_Relationship>
primary

> <TS_Description>
single chemical compound

> <ChemNote>


> <STRUCTURE_Shown>
tested chemical

> <STRUCTURE_Formula>
C22H38CaO4

> <STRUCTURE_MW>
406.6127

> <STRUCTURE_ChemType>
defined organic

> <STRUCTURE_DefinedOrganicForm>
salt

> <STRUCTURE_IUPAC>
calcium di[(2E)-undec-2-enoate]

> <STRUCTURE_SMILES>
[Ca+2].[O-]C(=O)\C=C\CCCCCCCC.[O-]C(=O)\C=C\CCCCCCCC

> <STRUCTURE_SMILES_Desalt>
CCCCCCCC\C=C\C(=O)O

> <Substance_modify_yyyymmdd>
20131121

$$$$
