1323-39-3
ChemmineR-0915142007XD

 24 23  0  0  0  0  0  0  0  0  1 V2000
    8.0640   -1.3498    0.0000 C   0  0  0  0  0  0  0  0  0  0  0  0
    6.9219   -1.9958    0.0000 C   0  0  0  0  0  0  0  0  0  0  0  0
    9.2408   -1.9958    0.0000 C   0  0  0  0  0  0  0  0  0  0  0  0
    5.7683   -1.3498    0.0000 C   0  0  0  0  0  0  0  0  0  0  0  0
   10.3829   -1.3498    0.0000 C   0  0  0  0  0  0  0  0  0  0  0  0
    4.6146   -1.9958    0.0000 O   0  0  0  0  0  0  0  0  0  0  0  0
    5.7683    0.0000    0.0000 O   0  0  0  0  0  0  0  0  0  0  0  0
   11.5365   -1.9958    0.0000 C   0  0  0  0  0  0  0  0  0  0  0  0
    3.4725   -1.3498    0.0000 C   0  0  0  0  0  0  0  0  0  0  0  0
   11.5365   -3.3571    0.0000 C   0  0  0  0  0  0  0  0  0  0  0  0
    2.2958   -1.9958    0.0000 C   0  0  0  0  0  0  0  0  0  0  0  0
   10.3829   -4.0147    0.0000 C   0  0  0  0  0  0  0  0  0  0  0  0
    2.2958   -3.3571    0.0000 C   0  0  0  0  0  0  0  0  0  0  0  0
    1.1537   -1.3498    0.0000 O   0  0  0  0  0  0  0  0  0  0  0  0
   10.3829   -5.3529    0.0000 C   0  0  0  0  0  0  0  0  0  0  0  0
    9.2408   -6.0105    0.0000 C   0  0  0  0  0  0  0  0  0  0  0  0
    8.0640   -5.3529    0.0000 C   0  0  0  0  0  0  0  0  0  0  0  0
    6.9219   -6.0105    0.0000 C   0  0  0  0  0  0  0  0  0  0  0  0
    5.7683   -5.3529    0.0000 C   0  0  0  0  0  0  0  0  0  0  0  0
    4.6146   -6.0105    0.0000 C   0  0  0  0  0  0  0  0  0  0  0  0
    3.4725   -5.3529    0.0000 C   0  0  0  0  0  0  0  0  0  0  0  0
    2.2958   -6.0105    0.0000 C   0  0  0  0  0  0  0  0  0  0  0  0
    1.1537   -5.3529    0.0000 C   0  0  0  0  0  0  0  0  0  0  0  0
    0.0000   -6.0105    0.0000 C   0  0  0  0  0  0  0  0  0  0  0  0
  1  2  1  0  0  0  0
  1  3  1  0  0  0  0
  2  4  1  0  0  0  0
  3  5  1  0  0  0  0
  4  6  1  0  0  0  0
  4  7  2  0  0  0  0
  5  8  1  0  0  0  0
  6  9  1  0  0  0  0
  8 10  1  0  0  0  0
  9 11  1  0  0  0  0
 10 12  1  0  0  0  0
 11 13  1  0  0  0  0
 11 14  1  0  0  0  0
 12 15  1  0  0  0  0
 15 16  1  0  0  0  0
 16 17  1  0  0  0  0
 17 18  1  0  0  0  0
 18 19  1  0  0  0  0
 19 20  1  0  0  0  0
 20 21  1  0  0  0  0
 21 22  1  0  0  0  0
 22 23  1  0  0  0  0
 23 24  1  0  0  0  0
M  END
> <ID>
5119

> <Formula>
C21H42O3

> <FW>
342.5564

> <DSSTox_CID>
7381

> <DSSTox_RID>
78430

> <DSSTox_GSID>
27381

> <DSSTox_FileID_Sort>
3113

> <TS_ChemName>
Octadecanoic acid, monoester with 1,2-propanediol

> <TS_ChemName_Synonyms>


> <TS_CASRN>
1323-39-3

> <CASRN_ChemName_Relationship>
primary

> <TS_Description>
mixture or formulation

> <ChemNote>
mixture of propyl esters; structure shown 2-hydoxypropyl

> <STRUCTURE_Shown>
representative component

> <STRUCTURE_Formula>
C21H42O3

> <STRUCTURE_MW>
342.5564

> <STRUCTURE_ChemType>
defined organic

> <STRUCTURE_DefinedOrganicForm>
parent

> <STRUCTURE_IUPAC>
2-hydroxypropyl octadecanoate

> <STRUCTURE_SMILES>
CC(O)COC(=O)CCCCCCCCCCCCCCCCC

> <STRUCTURE_SMILES_Desalt>
CC(O)COC(=O)CCCCCCCCCCCCCCCCC

> <Substance_modify_yyyymmdd>
20080429

$$$$
