1323-38-2
ChemmineR-0915142007XD

 26 25  0  0  1  0  0  0  0  0  1 V2000
   12.6843   -1.3274    0.0000 C   0  0  0  0  0  0  0  0  0  0  0  0
   11.5228   -1.9911    0.0000 C   0  0  0  0  0  0  0  0  0  0  0  0
   10.3797   -1.3274    0.0000 C   0  0  0  0  0  0  0  0  0  0  0  0
    9.2182   -1.9911    0.0000 C   0  0  0  0  0  0  0  0  0  0  0  0
    8.0567   -1.3274    0.0000 C   0  0  0  0  0  0  0  0  0  0  0  0
    6.9137   -1.9911    0.0000 C   0  0  0  0  0  0  0  0  0  0  0  0
    5.7522   -1.3274    0.0000 C   0  0  0  0  0  0  0  0  0  0  0  0
    4.6091   -1.9911    0.0000 C   0  0  0  0  0  0  0  0  0  0  0  0
    3.4661   -1.3274    0.0000 C   0  0  0  0  0  0  0  0  0  0  0  0
    2.3046   -1.9911    0.0000 C   0  0  0  0  0  0  0  0  0  0  0  0
    2.3046   -3.3186    0.0000 C   0  0  0  0  0  0  0  0  0  0  0  0
    1.1615   -4.0007    0.0000 C   0  0  0  0  0  0  0  0  0  0  0  0
    1.1615   -5.3281    0.0000 C   0  0  0  0  0  0  0  0  0  0  0  0
    2.3046   -5.9734    0.0000 C   0  0  0  0  0  0  0  0  0  0  0  0
    2.3046   -7.3193    0.0000 C   0  0  0  0  0  0  0  0  0  0  0  0
    3.4661   -7.9830    0.0000 C   0  0  0  0  0  0  0  0  0  0  0  0
    3.4661   -9.3104    0.0000 C   0  0  0  0  0  0  0  0  0  0  0  0
    4.6091   -9.9741    0.0000 C   0  0  0  0  0  0  0  0  0  0  0  0
   12.6843    0.0000    0.0000 O   0  0  0  0  0  0  0  0  0  0  0  0
    0.0000   -3.3186    0.0000 O   0  0  0  0  0  0  0  0  0  0  0  0
   13.8273   -1.9911    0.0000 O   0  0  0  0  0  0  0  0  0  0  0  0
   14.9704   -1.3274    0.0000 C   0  0  0  0  0  0  0  0  0  0  0  0
   16.1319   -1.9911    0.0000 C   0  0  0  0  0  0  0  0  0  0  0  0
   17.2750   -1.3274    0.0000 C   0  0  0  0  0  0  0  0  0  0  0  0
   16.1319   -3.3186    0.0000 O   0  0  0  0  0  0  0  0  0  0  0  0
   18.4364   -1.9911    0.0000 O   0  0  0  0  0  0  0  0  0  0  0  0
  1  2  1  0  0  0  0
  1 19  2  0  0  0  0
  1 21  1  0  0  0  0
  2  3  1  0  0  0  0
  3  4  1  0  0  0  0
  4  5  1  0  0  0  0
  5  6  1  0  0  0  0
  6  7  1  0  0  0  0
  7  8  1  0  0  0  0
  8  9  1  0  0  0  0
  9 10  2  0  0  0  0
 10 11  1  0  0  0  0
 11 12  1  0  0  0  0
 12 13  1  0  0  0  0
 12 20  1  1  0  0  0
 13 14  1  0  0  0  0
 14 15  1  0  0  0  0
 15 16  1  0  0  0  0
 16 17  1  0  0  0  0
 17 18  1  0  0  0  0
 21 22  1  0  0  0  0
 22 23  1  0  0  0  0
 23 24  1  0  0  0  0
 23 25  1  0  0  0  0
 24 26  1  0  0  0  0
M  END
> <ID>
8941

> <Formula>
C21H40O5

> <FW>
372.5393

> <DSSTox_CID>
22007

> <DSSTox_RID>
79901

> <DSSTox_GSID>
42007

> <DSSTox_FileID_Sort>
4583

> <TS_ChemName>
Glyceryl monoricinoleate

> <TS_ChemName_Synonyms>


> <TS_CASRN>
1323-38-2

> <CASRN_ChemName_Relationship>
primary

> <TS_Description>
mixture or formulation

> <ChemNote>
mixture of propanetriol esters; structure shown 2,3-dihydroxypropyl (9Z,12R)-12-hydroxyoctadec-9-enoate; stereochem

> <STRUCTURE_Shown>
representative component

> <STRUCTURE_Formula>
C21H40O5

> <STRUCTURE_MW>
372.5393

> <STRUCTURE_ChemType>
defined organic

> <STRUCTURE_DefinedOrganicForm>
parent

> <STRUCTURE_IUPAC>
2,3-dihydroxypropyl (9Z,12R)-12-hydroxyoctadec-9-enoate

> <STRUCTURE_SMILES>
OCC(O)COC(=O)CCCCCCC/C=C\C[C@H](O)CCCCCC

> <STRUCTURE_SMILES_Desalt>
OCC(O)COC(=O)CCCCCCC/C=C\C[C@H](O)CCCCCC

> <Substance_modify_yyyymmdd>
20080825

$$$$
