132539-06-1
ChemmineR-0915142007XD

 22 25  0  0  0  0  0  0  0  0  1 V2000
    5.3283   -4.6587    0.0000 C   0  0  0  0  0  0  0  0  0  0  0  0
    3.9987   -4.6587    0.0000 N   0  0  0  0  0  0  0  0  0  0  0  0
    3.3290   -5.8136    0.0000 C   0  0  0  0  0  0  0  0  0  0  0  0
    2.0090   -5.8136    0.0000 C   0  0  0  0  0  0  0  0  0  0  0  0
    1.3491   -4.6781    0.0000 N   0  0  0  0  0  0  0  0  0  0  0  0
    0.0000   -4.6781    0.0000 C   0  0  0  0  0  0  0  0  0  0  0  0
    2.0090   -3.5328    0.0000 C   0  0  0  0  0  0  0  0  0  0  0  0
    3.3193   -3.5328    0.0000 C   0  0  0  0  0  0  0  0  0  0  0  0
    5.9204   -5.8524    0.0000 N   0  0  0  0  0  0  0  0  0  0  0  0
    7.2209   -6.1339    0.0000 C   0  0  0  0  0  0  0  0  0  0  0  0
    8.2497   -5.2992    0.0000 C   0  0  0  0  0  0  0  0  0  0  0  0
    8.2497   -3.9696    0.0000 N   0  0  0  0  0  0  0  0  0  0  0  0
    7.1918   -3.1446    0.0000 C   0  0  0  0  0  0  0  0  0  0  0  0
    5.8815   -3.4552    0.0000 C   0  0  0  0  0  0  0  0  0  0  0  0
    5.2216   -2.3002    0.0000 C   0  0  0  0  0  0  0  0  0  0  0  0
    6.0757   -1.3005    0.0000 C   0  0  0  0  0  0  0  0  0  0  0  0
    5.7651    0.0000    0.0000 C   0  0  0  0  0  0  0  0  0  0  0  0
    7.3083   -1.8149    0.0000 S   0  0  0  0  0  0  0  0  0  0  0  0
    9.5017   -5.7748    0.0000 C   0  0  0  0  0  0  0  0  0  0  0  0
    9.7055   -7.0947    0.0000 C   0  0  0  0  0  0  0  0  0  0  0  0
    8.6670   -7.9294    0.0000 C   0  0  0  0  0  0  0  0  0  0  0  0
    7.4247   -7.4538    0.0000 C   0  0  0  0  0  0  0  0  0  0  0  0
  1  2  1  0  0  0  0
  1  9  2  0  0  0  0
  1 14  1  0  0  0  0
  2  3  1  0  0  0  0
  2  8  1  0  0  0  0
  3  4  1  0  0  0  0
  4  5  1  0  0  0  0
  5  6  1  0  0  0  0
  5  7  1  0  0  0  0
  7  8  1  0  0  0  0
  9 10  1  0  0  0  0
 10 11  2  0  0  0  0
 10 22  1  0  0  0  0
 11 12  1  0  0  0  0
 11 19  1  0  0  0  0
 12 13  1  0  0  0  0
 13 14  2  0  0  0  0
 13 18  1  0  0  0  0
 14 15  1  0  0  0  0
 15 16  2  0  0  0  0
 16 17  1  0  0  0  0
 16 18  1  0  0  0  0
 19 20  2  0  0  0  0
 20 21  1  0  0  0  0
 21 22  2  0  0  0  0
M  END
> <ID>
3038

> <Formula>
C17H20N4S

> <FW>
312.4325

> <DSSTox_CID>
3388

> <DSSTox_RID>
77010

> <DSSTox_GSID>
23388

> <DSSTox_FileID_Sort>
1694

> <TS_ChemName>
Olanzapine

> <TS_ChemName_Synonyms>


> <TS_CASRN>
132539-06-1

> <CASRN_ChemName_Relationship>
primary

> <TS_Description>
single chemical compound

> <ChemNote>


> <STRUCTURE_Shown>
tested chemical

> <STRUCTURE_Formula>
C17H20N4S

> <STRUCTURE_MW>
312.4325

> <STRUCTURE_ChemType>
defined organic

> <STRUCTURE_DefinedOrganicForm>
parent

> <STRUCTURE_IUPAC>
2-methyl-4-(4-methylpiperazin-1-yl)-10H-thieno[2,3-b][1,5]benzodiazepine

> <STRUCTURE_SMILES>
CN1CCN(CC1)C2=Nc4ccccc4Nc3sc(C)cc23

> <STRUCTURE_SMILES_Desalt>
CN1CCN(CC1)C2=Nc4ccccc4Nc3sc(C)cc23

> <Substance_modify_yyyymmdd>
20080429

$$$$
