13254-33-6
ChemmineR-0915142007XD

 12 10  0  0  0  0  0  0  0  0  2 V2000
    0.0000   -1.1353    0.0000 C    0  0  0  0  0  0  0  0  0  0  0  0
    1.1549   -0.4796    0.0000 O    0  0  0  0  0  0  0  0  0  0  0  0
    2.3196   -1.1353    0.0000 C    0  0  0  0  0  0  0  0  0  0  0  0
    2.3196   -2.4762    0.0000 O    0  0  0  0  0  0  0  0  0  0  0  0
    3.4745   -0.4796    0.0000 C    0  0  0  0  0  0  0  0  0  0  0  0
    4.6196   -1.1353    0.0000 C    0  0  0  0  0  0  0  0  0  0  0  0
    5.7648   -0.4796    0.0000 C    0  0  0  0  0  0  0  0  0  0  0  0
    6.9197   -1.1353    0.0000 N    0  3  0  0  0  0  0  0  0  0  0  0
    7.5950    0.0000    0.0000 C    0  0  0  0  0  0  0  0  0  0  0  0
    6.2639   -2.3000    0.0000 C    0  0  0  0  0  0  0  0  0  0  0  0
    8.0844   -1.8009    0.0000 C    0  0  0  0  0  0  0  0  0  0  0  0
    9.7874   -0.7243    0.0000 Cl   0  5  0  0  0  0  0  0  0  0  0  0
  1  2  1  0  0  0  0
  2  3  1  0  0  0  0
  3  4  2  0  0  0  0
  3  5  1  0  0  0  0
  5  6  1  0  0  0  0
  6  7  1  0  0  0  0
  7  8  1  0  0  0  0
  8  9  1  0  0  0  0
  8 10  1  0  0  0  0
  8 11  1  0  0  0  0
M  END
> <ID>
12083

> <Formula>
C8H18ClNO2

> <FW>
195.6870 (160.2335+35.4535)

> <DSSTox_CID>
26924

> <DSSTox_RID>
82020

> <DSSTox_GSID>
46924

> <DSSTox_FileID_Sort>
6701

> <TS_ChemName>
Carpronium chloride

> <TS_ChemName_Synonyms>


> <TS_CASRN>
13254-33-6

> <CASRN_ChemName_Relationship>
primary

> <TS_Description>
single chemical compound

> <ChemNote>
ammonium; parent [14075-13-9]

> <STRUCTURE_Shown>
tested chemical

> <STRUCTURE_Formula>
C8H18ClNO2

> <STRUCTURE_MW>
195.687

> <STRUCTURE_ChemType>
defined organic

> <STRUCTURE_DefinedOrganicForm>
salt

> <STRUCTURE_IUPAC>
4-methoxy-N,N,N-trimethyl-4-oxobutan-1-aminium chloride

> <STRUCTURE_SMILES>
[Cl-].C[N+](C)(C)CCCC(=O)OC

> <STRUCTURE_SMILES_Desalt>
C[N+](C)(C)CCCC(=O)OC

> <Substance_modify_yyyymmdd>
20110725

$$$$
