132739-31-2
ChemmineR-0915142007XD

 13 12  0  0  0  0  0  0  0  0  1 V2000
    1.1542   -1.1750    0.0000 C   0  0  0  0  0  0  0  0  0  0  0  0
    2.3084   -1.8301    0.0000 O   0  0  0  0  0  0  0  0  0  0  0  0
    0.4783   -2.3084    0.0000 C   0  0  0  0  0  0  0  0  0  0  0  0
    1.8093    0.0000    0.0000 C   0  0  0  0  0  0  0  0  0  0  0  0
    0.0000   -0.4991    0.0000 C   0  0  0  0  0  0  0  0  0  0  0  0
    3.4627   -1.1750    0.0000 C   0  0  0  0  0  0  0  0  0  0  0  0
    4.6169   -1.8301    0.0000 C   0  0  0  0  0  0  0  0  0  0  0  0
    4.6169   -3.1611    0.0000 C   0  0  0  0  0  0  0  0  0  0  0  0
    5.7815   -1.1750    0.0000 O   0  0  0  0  0  0  0  0  0  0  0  0
    6.9149   -1.8301    0.0000 C   0  0  0  0  0  0  0  0  0  0  0  0
    8.0900   -1.1750    0.0000 C   0  0  0  0  0  0  0  0  0  0  0  0
    9.2442   -1.8301    0.0000 C   0  0  0  0  0  0  0  0  0  0  0  0
   10.3984   -1.1750    0.0000 O   0  0  0  0  0  0  0  0  0  0  0  0
  1  2  1  0  0  0  0
  1  3  1  0  0  0  0
  1  4  1  0  0  0  0
  1  5  1  0  0  0  0
  2  6  1  0  0  0  0
  6  7  1  0  0  0  0
  7  8  1  0  0  0  0
  7  9  1  0  0  0  0
  9 10  1  0  0  0  0
 10 11  1  0  0  0  0
 11 12  1  0  0  0  0
 12 13  1  0  0  0  0
M  END
> <ID>
9260

> <Formula>
C10H22O3

> <FW>
190.2799

> <DSSTox_CID>
22338

> <DSSTox_RID>
80000

> <DSSTox_GSID>
42338

> <DSSTox_FileID_Sort>
4682

> <TS_ChemName>
Di(propylene glycol) tert-butyl ether

> <TS_ChemName_Synonyms>


> <TS_CASRN>
132739-31-2

> <CASRN_ChemName_Relationship>
primary

> <TS_Description>
mixture or formulation

> <ChemNote>
mixture of isomers; structure shown 3-[(1-tert-butoxypropan-2-yl)oxy]propan-1-ol

> <STRUCTURE_Shown>
representative isomer in mixture

> <STRUCTURE_Formula>
C10H22O3

> <STRUCTURE_MW>
190.2799

> <STRUCTURE_ChemType>
defined organic

> <STRUCTURE_DefinedOrganicForm>
parent

> <STRUCTURE_IUPAC>
3-[(1-tert-butoxypropan-2-yl)oxy]propan-1-ol

> <STRUCTURE_SMILES>
OCCCOC(C)COC(C)(C)C

> <STRUCTURE_SMILES_Desalt>
OCCCOC(C)COC(C)(C)C

> <Substance_modify_yyyymmdd>
20080825

$$$$
