132810-10-7
ChemmineR-0915142007XD

 27 30  0  0  0  0  0  0  0  0  1 V2000
    4.3789   -5.9815    0.0000 C   0  0  0  0  0  0  0  0  0  0  0  0
    3.2052   -6.6473    0.0000 C   0  0  0  0  0  0  0  0  0  0  0  0
    3.2052   -7.9678    0.0000 C   0  0  0  0  0  0  0  0  0  0  0  0
    4.3789   -8.6449    0.0000 C   0  0  0  0  0  0  0  0  0  0  0  0
    5.5188   -7.9678    0.0000 C   0  0  0  0  0  0  0  0  0  0  0  0
    5.5188   -6.6473    0.0000 C   0  0  0  0  0  0  0  0  0  0  0  0
    0.0000   -2.6635    0.0000 C   0  0  0  0  0  0  0  0  0  0  0  0
    0.0000   -3.9839    0.0000 C   0  0  0  0  0  0  0  0  0  0  0  0
    0.9480   -4.9093    0.0000 C   0  0  0  0  0  0  0  0  0  0  0  0
    2.2797   -4.9093    0.0000 C   0  0  0  0  0  0  0  0  0  0  0  0
    0.9480   -1.7154    0.0000 C   0  0  0  0  0  0  0  0  0  0  0  0
    2.2797   -1.7154    0.0000 C   0  0  0  0  0  0  0  0  0  0  0  0
    3.2052   -2.6635    0.0000 C   0  0  0  0  0  0  0  0  0  0  0  0
    3.2052   -3.9839    0.0000 C   0  0  0  0  0  0  0  0  0  0  0  0
    4.3789   -4.6498    0.0000 C   0  0  0  0  0  0  0  0  0  0  0  0
    5.5188   -3.9839    0.0000 C   0  0  0  0  0  0  0  0  0  0  0  0
    5.5188   -2.6635    0.0000 C   0  0  0  0  0  0  0  0  0  0  0  0
    4.3789   -1.9976    0.0000 N   0  0  0  0  0  0  0  0  0  0  0  0
    6.6699   -1.9976    0.0000 N   0  0  0  0  0  0  0  0  0  0  0  0
    7.8211   -2.6635    0.0000 C   0  0  0  0  0  0  0  0  0  0  0  0
    8.9722   -1.9976    0.0000 C   0  0  0  0  0  0  0  0  0  0  0  0
    8.9722   -0.6659    0.0000 N   0  0  0  0  0  0  0  0  0  0  0  0
    7.8211    0.0000    0.0000 C   0  0  0  0  0  0  0  0  0  0  0  0
    6.6699   -0.6659    0.0000 C   0  0  0  0  0  0  0  0  0  0  0  0
    4.3789   -9.9767    0.0000 F   0  0  0  0  0  0  0  0  0  0  0  0
   10.1121    0.0000    0.0000 C   0  0  0  0  0  0  0  0  0  0  0  0
   11.2858   -0.6659    0.0000 C   0  0  0  0  0  0  0  0  0  0  0  0
  1  2  2  0  0  0  0
  1 15  1  0  0  0  0
  1  6  1  0  0  0  0
  2  3  1  0  0  0  0
  3  4  2  0  0  0  0
  4  5  1  0  0  0  0
  4 25  1  0  0  0  0
  5  6  2  0  0  0  0
  7  8  1  0  0  0  0
  7 11  1  0  0  0  0
  8  9  1  0  0  0  0
  9 10  1  0  0  0  0
 10 14  1  0  0  0  0
 11 12  1  0  0  0  0
 12 13  1  0  0  0  0
 13 14  2  0  0  0  0
 13 18  1  0  0  0  0
 14 15  1  0  0  0  0
 15 16  2  0  0  0  0
 16 17  1  0  0  0  0
 17 18  2  0  0  0  0
 17 19  1  0  0  0  0
 19 20  1  0  0  0  0
 19 24  1  0  0  0  0
 20 21  1  0  0  0  0
 21 22  1  0  0  0  0
 22 23  1  0  0  0  0
 22 26  1  0  0  0  0
 23 24  1  0  0  0  0
 26 27  1  0  0  0  0
M  END
> <ID>
13779

> <Formula>
C23H30FN3

> <FW>
367.5028

> <DSSTox_CID>
28716

> <DSSTox_RID>
82985

> <DSSTox_GSID>
48790

> <DSSTox_FileID_Sort>
7662

> <TS_ChemName>
Blonanserin

> <TS_ChemName_Synonyms>


> <TS_CASRN>
132810-10-7

> <CASRN_ChemName_Relationship>
primary

> <TS_Description>
single chemical compound

> <ChemNote>


> <STRUCTURE_Shown>
tested chemical

> <STRUCTURE_Formula>
C23H30FN3

> <STRUCTURE_MW>
367.5028

> <STRUCTURE_ChemType>
defined organic

> <STRUCTURE_DefinedOrganicForm>
parent

> <STRUCTURE_IUPAC>
2-(4-ethylpiperazin-1-yl)-4-(4-fluorophenyl)-5,6,7,8,9,10-hexahydrocycloocta[b]pyridine

> <STRUCTURE_SMILES>
CCN1CCN(CC1)c3cc(c2ccc(F)cc2)c4CCCCCCc4n3

> <STRUCTURE_SMILES_Desalt>
CCN1CCN(CC1)c3cc(c2ccc(F)cc2)c4CCCCCCc4n3

> <Substance_modify_yyyymmdd>
20111204

$$$$
