132866-11-6
ChemmineR-0915142007XD

 46 48  0  0  0  0  0  0  0  0  2 V2000
    3.4418   -1.9694    0.0000 C    0  0  0  0  0  0  0  0  0  0  0  0
    3.4418   -3.2945    0.0000 C    0  0  0  0  0  0  0  0  0  0  0  0
    4.6013   -3.9939    0.0000 C    0  0  0  0  0  0  0  0  0  0  0  0
    5.7424   -3.2945    0.0000 C    0  0  0  0  0  0  0  0  0  0  0  0
    5.7424   -1.9694    0.0000 C    0  0  0  0  0  0  0  0  0  0  0  0
    4.6013   -1.3252    0.0000 C    0  0  0  0  0  0  0  0  0  0  0  0
    6.8835   -1.3252    0.0000 N    0  3  0  0  0  0  0  0  0  0  0  0
    6.8835    0.0000    0.0000 O    0  0  0  0  0  0  0  0  0  0  0  0
    8.0430   -1.9694    0.0000 O    0  5  0  0  0  0  0  0  0  0  0  0
    4.6013   -5.3007    0.0000 C    0  0  0  0  0  0  0  0  0  0  0  0
    3.4418   -5.9817    0.0000 C    0  0  0  0  0  0  0  0  0  0  0  0
    3.4418   -7.3068    0.0000 C    0  0  0  0  0  0  0  0  0  0  0  0
    4.6013   -7.9694    0.0000 N    0  0  0  0  0  0  0  0  0  0  0  0
    5.7424   -7.3068    0.0000 C    0  0  0  0  0  0  0  0  0  0  0  0
    5.7424   -5.9817    0.0000 C    0  0  0  0  0  0  0  0  0  0  0  0
    2.2822   -7.9694    0.0000 C    0  0  0  0  0  0  0  0  0  0  0  0
    6.8835   -7.9694    0.0000 C    0  0  0  0  0  0  0  0  0  0  0  0
    2.2822   -5.3007    0.0000 C    0  0  0  0  0  0  0  0  0  0  0  0
    1.1411   -5.9817    0.0000 O    0  0  0  0  0  0  0  0  0  0  0  0
    0.0000   -5.3007    0.0000 C    0  0  0  0  0  0  0  0  0  0  0  0
    2.2822   -3.9939    0.0000 O    0  0  0  0  0  0  0  0  0  0  0  0
    6.8835   -5.2639    0.0000 C    0  0  0  0  0  0  0  0  0  0  0  0
    6.8835   -3.9387    0.0000 O    0  0  0  0  0  0  0  0  0  0  0  0
    8.0430   -5.9265    0.0000 O    0  0  0  0  0  0  0  0  0  0  0  0
    9.1842   -5.2639    0.0000 C    0  0  0  0  0  0  0  0  0  0  0  0
    8.5216   -4.1043    0.0000 C    0  0  0  0  0  0  0  0  0  0  0  0
    9.8283   -4.1043    0.0000 C    0  0  0  0  0  0  0  0  0  0  0  0
   10.3253   -5.9081    0.0000 C    0  0  0  0  0  0  0  0  0  0  0  0
   11.4848   -5.2639    0.0000 N    0  0  0  0  0  0  0  0  0  0  0  0
   11.4848   -3.9019    0.0000 C    0  0  0  0  0  0  0  0  0  0  0  0
   12.6259   -5.9081    0.0000 C    0  0  0  0  0  0  0  0  0  0  0  0
   13.7855   -5.2271    0.0000 C    0  0  0  0  0  0  0  0  0  0  0  0
   14.9450   -5.8896    0.0000 C    0  0  0  0  0  0  0  0  0  0  0  0
   16.1045   -5.2271    0.0000 C    0  0  0  0  0  0  0  0  0  0  0  0
   14.9450   -7.2332    0.0000 C    0  0  0  0  0  0  0  0  0  0  0  0
   16.1045   -3.9019    0.0000 C    0  0  0  0  0  0  0  0  0  0  0  0
   17.2640   -3.2209    0.0000 C    0  0  0  0  0  0  0  0  0  0  0  0
   18.4051   -3.9019    0.0000 C    0  0  0  0  0  0  0  0  0  0  0  0
   18.4051   -5.2271    0.0000 C    0  0  0  0  0  0  0  0  0  0  0  0
   17.2640   -5.8896    0.0000 C    0  0  0  0  0  0  0  0  0  0  0  0
   16.1045   -7.8958    0.0000 C    0  0  0  0  0  0  0  0  0  0  0  0
   16.1045   -9.2210    0.0000 C    0  0  0  0  0  0  0  0  0  0  0  0
   14.9450   -9.9020    0.0000 C    0  0  0  0  0  0  0  0  0  0  0  0
   13.7855   -9.2210    0.0000 C    0  0  0  0  0  0  0  0  0  0  0  0
   13.7855   -7.8958    0.0000 C    0  0  0  0  0  0  0  0  0  0  0  0
   10.4725   -7.2884    0.0000 Cl   0  0  0  0  0  0  0  0  0  0  0  0
  1  6  1  0  0  0  0
  1  2  2  0  0  0  0
  2  3  1  0  0  0  0
  3  4  2  0  0  0  0
  3 10  1  0  0  0  0
  4  5  1  0  0  0  0
  5  6  2  0  0  0  0
  5  7  1  0  0  0  0
  7  8  2  0  0  0  0
  7  9  1  0  0  0  0
 10 15  1  0  0  0  0
 10 11  1  0  0  0  0
 11 12  2  0  0  0  0
 11 18  1  0  0  0  0
 12 13  1  0  0  0  0
 12 16  1  0  0  0  0
 13 14  1  0  0  0  0
 14 15  2  0  0  0  0
 14 17  1  0  0  0  0
 15 22  1  0  0  0  0
 18 19  1  0  0  0  0
 18 21  2  0  0  0  0
 19 20  1  0  0  0  0
 22 23  2  0  0  0  0
 22 24  1  0  0  0  0
 24 25  1  0  0  0  0
 25 26  1  0  0  0  0
 25 27  1  0  0  0  0
 25 28  1  0  0  0  0
 28 29  1  0  0  0  0
 29 30  1  0  0  0  0
 29 31  1  0  0  0  0
 31 32  1  0  0  0  0
 32 33  1  0  0  0  0
 33 34  1  0  0  0  0
 33 35  1  0  0  0  0
 34 36  2  0  0  0  0
 34 40  1  0  0  0  0
 35 41  2  0  0  0  0
 35 45  1  0  0  0  0
 36 37  1  0  0  0  0
 37 38  2  0  0  0  0
 38 39  1  0  0  0  0
 39 40  2  0  0  0  0
 41 42  1  0  0  0  0
 42 43  2  0  0  0  0
 43 44  1  0  0  0  0
 44 45  2  0  0  0  0
M  END
> <ID>
11872

> <Formula>
C36H42ClN3O6

> <FW>
648.1882 (611.7272+36.4609)

> <DSSTox_CID>
26665

> <DSSTox_RID>
81807

> <DSSTox_GSID>
46665

> <DSSTox_FileID_Sort>
6488

> <TS_ChemName>
Lercanidipine hydrochloride

> <TS_ChemName_Synonyms>


> <TS_CASRN>
132866-11-6

> <CASRN_ChemName_Relationship>
primary

> <TS_Description>
single chemical compound

> <ChemNote>
tautomers

> <STRUCTURE_Shown>
tested chemical

> <STRUCTURE_Formula>
C36H42ClN3O6

> <STRUCTURE_MW>
648.1882

> <STRUCTURE_ChemType>
defined organic

> <STRUCTURE_DefinedOrganicForm>
complex

> <STRUCTURE_IUPAC>
1-[(3,3-diphenylpropyl)(methyl)amino]-2-methylpropan-2-yl methyl 2,6-dimethyl-4-(3-nitrophenyl)-1,4-dihydropyridine-3,5-dicarboxylate hydrochloride (1:1)

> <STRUCTURE_SMILES>
Cl.CC=3NC(C)=C(C(C=3C(=O)OC(C)(C)CN(C)CCC(c1ccccc1)c2ccccc2)c4cccc(c4)[N+]([O-])=O)C(=O)OC

> <STRUCTURE_SMILES_Desalt>
CC=3NC(C)=C(C(C=3C(=O)OC(C)(C)CN(C)CCC(c1ccccc1)c2ccccc2)c4cccc(c4)[N+]([O-])=O)C(=O)OC

> <Substance_modify_yyyymmdd>
20110808

$$$$
