13292-46-1
ChemmineR-0915142007XD

 59 63  0  0  1  0  0  0  0  0  1 V2000
    5.6229   -7.7608    0.0000 C   0  0  0  0  0  0  0  0  0  0  0  0
    9.0055   -5.8426    0.0000 C   0  0  0  0  0  0  0  0  0  0  0  0
    9.0055   -7.1019    0.0000 C   0  0  0  0  0  0  0  0  0  0  0  0
    4.5247   -7.1019    0.0000 C   0  0  0  0  0  0  0  0  0  0  0  0
    6.7358   -5.8426    0.0000 C   0  0  0  0  0  0  0  0  0  0  0  0
    6.7358   -7.1019    0.0000 C   0  0  0  0  0  0  0  0  0  0  0  0
    3.3679   -9.0348    0.0000 C   0  0  0  0  0  0  0  0  0  0  0  0
   10.1184   -5.1690    0.0000 N   0  0  0  0  0  0  0  0  0  0  0  0
    3.3679   -7.7608    0.0000 O   0  0  0  0  0  0  0  0  0  0  0  0
    7.8780   -5.1690    0.0000 C   0  0  0  0  0  0  0  0  0  0  0  0
    7.8780   -7.7608    0.0000 C   0  0  0  0  0  0  0  0  0  0  0  0
    5.6229   -5.1690    0.0000 C   0  0  0  0  0  0  0  0  0  0  0  0
    5.6229   -9.0348    0.0000 C   0  0  0  0  0  0  0  0  0  0  0  0
    4.5247   -5.8426    0.0000 C   0  0  0  0  0  0  0  0  0  0  0  0
    3.3679   -3.8804    0.0000 C   0  0  0  0  0  0  0  0  0  0  0  0
   10.1184   -3.8804    0.0000 C   0  0  0  0  0  0  0  0  0  0  0  0
    4.5247   -3.2215    0.0000 C   0  0  0  0  0  0  0  0  0  0  0  0
    5.6229   -1.2739    0.0000 C   0  0  0  0  0  0  0  0  0  0  0  0
    4.5247   -1.9475    0.0000 C   0  0  0  0  0  0  0  0  0  0  0  0
   10.1476   -7.7608    0.0000 C   0  0  0  0  0  0  0  0  0  0  0  0
    3.3679   -5.1690    0.0000 C   0  0  0  0  0  0  0  0  0  0  0  0
   11.2459   -9.6937    0.0000 N   0  0  0  0  0  0  0  0  0  0  0  0
    6.7358   -1.9475    0.0000 C   0  0  0  0  0  0  0  0  0  0  0  0
   10.1476   -9.0494    0.0000 N   0  0  0  0  0  0  0  0  0  0  0  0
   11.2312   -3.2215    0.0000 C   0  0  0  0  0  0  0  0  0  0  0  0
    1.1568   -9.0348    0.0000 O   0  0  0  0  0  0  0  0  0  0  0  0
   13.5155  -10.9969    0.0000 N   0  0  0  0  0  0  0  0  0  0  0  0
    1.1568   -7.7608    0.0000 C   0  0  0  0  0  0  0  0  0  0  0  0
    2.2697   -7.1019    0.0000 C   0  0  0  0  0  0  0  0  0  0  0  0
    2.2697   -5.8426    0.0000 C   0  0  0  0  0  0  0  0  0  0  0  0
   10.1184   -1.2739    0.0000 C   0  0  0  0  0  0  0  0  0  0  0  0
    6.7505   -9.6644    0.0000 O   0  0  0  0  0  0  0  0  0  0  0  0
   11.2312   -1.9475    0.0000 C   0  0  0  0  0  0  0  0  0  0  0  0
    9.0055   -3.2215    0.0000 O   0  0  0  0  0  0  0  0  0  0  0  0
   11.2459  -10.9969    0.0000 C   0  0  0  0  0  0  0  0  0  0  0  0
   12.3734   -9.0348    0.0000 C   0  0  0  0  0  0  0  0  0  0  0  0
    7.8780   -1.2739    0.0000 C   0  0  0  0  0  0  0  0  0  0  0  0
    9.0055   -1.9475    0.0000 C   0  0  0  0  0  0  0  0  0  0  0  0
    7.8780   -3.8804    0.0000 O   0  0  0  0  0  0  0  0  0  0  0  0
    7.8780   -9.0494    0.0000 O   0  0  0  0  0  0  0  0  0  0  0  0
    5.6229   -3.8804    0.0000 O   0  0  0  0  0  0  0  0  0  0  0  0
   13.5155   -9.6937    0.0000 C   0  0  0  0  0  0  0  0  0  0  0  0
   12.3734  -11.6559    0.0000 C   0  0  0  0  0  0  0  0  0  0  0  0
    3.3533   -1.2739    0.0000 O   0  0  0  0  0  0  0  0  0  0  0  0
    6.7358   -3.2215    0.0000 O   0  0  0  0  0  0  0  0  0  0  0  0
    3.3679  -10.3087    0.0000 C   0  0  0  0  0  0  0  0  0  0  0  0
    4.5247   -4.5247    0.0000 C   0  0  0  0  0  0  0  0  0  0  0  0
    5.6229    0.0000    0.0000 C   0  0  0  0  0  0  0  0  0  0  0  0
    1.1275   -5.1690    0.0000 O   0  0  0  0  0  0  0  0  0  0  0  0
   14.6431  -11.6559    0.0000 C   0  0  0  0  0  0  0  0  0  0  0  0
   12.3734   -3.8804    0.0000 C   0  0  0  0  0  0  0  0  0  0  0  0
    7.8780    0.0000    0.0000 C   0  0  0  0  0  0  0  0  0  0  0  0
    0.0000   -5.8426    0.0000 C   0  0  0  0  0  0  0  0  0  0  0  0
    5.6815   -2.5625    0.0000 C   0  0  0  0  0  0  0  0  0  0  0  0
    2.2257   -3.1629    0.0000 O   0  0  0  0  0  0  0  0  0  0  0  0
    0.8932   -3.1629    0.0000 C   0  0  0  0  0  0  0  0  0  0  0  0
    0.2050   -2.0207    0.0000 O   0  0  0  0  0  0  0  0  0  0  0  0
    0.2489   -4.3490    0.0000 C   0  0  0  0  0  0  0  0  0  0  0  0
    3.3679   -6.5015    0.0000 C   0  0  0  0  0  0  0  0  0  0  0  0
  1  4  2  0  0  0  0
  1  6  1  0  0  0  0
  1 13  1  0  0  0  0
  2  3  1  0  0  0  0
  2  8  1  0  0  0  0
  2 10  2  0  0  0  0
  3 11  2  0  0  0  0
  3 20  1  0  0  0  0
  4  9  1  0  0  0  0
  4 14  1  0  0  0  0
  5  6  2  0  0  0  0
  5 10  1  0  0  0  0
  5 12  1  0  0  0  0
  6 11  1  0  0  0  0
  7 13  1  0  0  0  0
  7 26  1  0  0  0  0
  7 46  1  6  0  0  0
  7  9  1  0  0  0  0
  8 16  1  0  0  0  0
 10 39  1  0  0  0  0
 11 40  1  0  0  0  0
 12 41  1  0  0  0  0
 12 14  2  0  0  0  0
 13 32  2  0  0  0  0
 14 47  1  0  0  0  0
 15 21  1  0  0  0  0
 15 17  1  0  0  0  0
 15 55  1  1  0  0  0
 16 25  1  0  0  0  0
 16 34  2  0  0  0  0
 17 19  1  0  0  0  0
 17 54  1  1  0  0  0
 18 19  1  0  0  0  0
 18 23  1  0  0  0  0
 18 48  1  6  0  0  0
 19 44  1  6  0  0  0
 20 24  2  0  0  0  0
 21 30  1  0  0  0  0
 21 59  1  6  0  0  0
 22 24  1  0  0  0  0
 22 35  1  0  0  0  0
 22 36  1  0  0  0  0
 23 45  1  6  0  0  0
 23 37  1  0  0  0  0
 25 33  2  0  0  0  0
 25 51  1  0  0  0  0
 26 28  1  0  0  0  0
 27 42  1  0  0  0  0
 27 50  1  0  0  0  0
 27 43  1  0  0  0  0
 28 29  2  0  0  0  0
 29 30  1  0  0  0  0
 30 49  1  6  0  0  0
 31 33  1  0  0  0  0
 31 38  2  0  0  0  0
 35 43  1  0  0  0  0
 36 42  1  0  0  0  0
 37 38  1  0  0  0  0
 37 52  1  1  0  0  0
 49 53  1  0  0  0  0
 55 56  1  0  0  0  0
 56 57  2  0  0  0  0
 56 58  1  0  0  0  0
M  END
> <ID>
1197

> <Formula>
C43H58N4O12

> <FW>
822.9402

> <DSSTox_CID>
1244

> <DSSTox_RID>
76035

> <DSSTox_GSID>
21244

> <DSSTox_FileID_Sort>
719

> <TS_ChemName>
Rifampicin

> <TS_ChemName_Synonyms>
Rifampicin (Rif) (Rifampin)

> <TS_CASRN>
13292-46-1

> <CASRN_ChemName_Relationship>
primary

> <TS_Description>
single chemical compound

> <ChemNote>
SV form [6998-60-3]; stereochem

> <STRUCTURE_Shown>
tested chemical

> <STRUCTURE_Formula>
C43H58N4O12

> <STRUCTURE_MW>
822.9402

> <STRUCTURE_ChemType>
defined organic

> <STRUCTURE_DefinedOrganicForm>
parent

> <STRUCTURE_IUPAC>
(2S,12Z,14E,16S,17S,18R,19R,20R,21S,22R,23S,24E)-5,6,9,17,19-pentahydroxy-23-methoxy-2,4,12,16,18,20,22-heptamethyl-8-{(E)-[(4-methylpiperazin-1-yl)imino]methyl}-1,11-dioxo-1,2-dihydro-2,7-(epoxypentadeca[1,11,13]trienoimino)naphtho[2,1-b]furan-21-yl acet

> <STRUCTURE_SMILES>
CN1CCN(CC1)/N=C/c3c2NC(=O)C(C)=CC=C[C@H](C)[C@H](O)[C@@H](C)[C@@H](O)[C@@H](C)[C@H](OC(C)=O)[C@H](C)[C@@H](OC)C=CO[C@@]5(C)Oc4c(C)c(O)c(c2O)c(c3O)c4C5=O

> <STRUCTURE_SMILES_Desalt>
CN1CCN(CC1)/N=C/c3c2NC(=O)C(C)=CC=C[C@H](C)[C@H](O)[C@@H](C)[C@@H](O)[C@@H](C)[C@H](OC(C)=O)[C@H](C)[C@@H](OC)C=CO[C@@]5(C)Oc4c(C)c(O)c(c2O)c(c3O)c4C5=O

> <Substance_modify_yyyymmdd>
20080429

$$$$
