133-53-9
ChemmineR-0915142007XD

 11 11  0  0  0  0  0  0  0  0  1 V2000
    3.4640   -0.6900    0.0000 C    0  0  0  0  0  0  0  0  0  0  0  0
    4.6171    0.0000    0.0000 O    0  0  0  0  0  0  0  0  0  0  0  0
    3.4640   -2.0145    0.0000 C    0  0  0  0  0  0  0  0  0  0  0  0
    2.3016   -0.0324    0.0000 C    0  0  0  0  0  0  0  0  0  0  0  0
    1.1670   -0.7039    0.0000 C    0  0  0  0  0  0  0  0  0  0  0  0
    2.3294   -2.6860    0.0000 C    0  0  0  0  0  0  0  0  0  0  0  0
    1.1670   -2.0284    0.0000 C    0  0  0  0  0  0  0  0  0  0  0  0
    4.6310   -2.6536    0.0000 Cl   0  0  0  0  0  0  0  0  0  0  0  0
    0.0139   -2.7184    0.0000 Cl   0  0  0  0  0  0  0  0  0  0  0  0
    2.3294   -4.0105    0.0000 C    0  0  0  0  0  0  0  0  0  0  0  0
    0.0000   -0.0648    0.0000 C    0  0  0  0  0  0  0  0  0  0  0  0
  1  2  1  0  0  0  0
  1  3  2  0  0  0  0
  1  4  1  0  0  0  0
  3  6  1  0  0  0  0
  3  8  1  0  0  0  0
  4  5  2  0  0  0  0
  5  7  1  0  0  0  0
  5 11  1  0  0  0  0
  6  7  2  0  0  0  0
  6 10  1  0  0  0  0
  7  9  1  0  0  0  0
M  END
> <ID>
8325

> <Formula>
C8H8Cl2O

> <FW>
191.0545

> <DSSTox_CID>
21359

> <DSSTox_RID>
79697

> <DSSTox_GSID>
41359

> <DSSTox_FileID_Sort>
4379

> <TS_ChemName>
2,4-Dichloro-3,5-dimethylphenol

> <TS_ChemName_Synonyms>


> <TS_CASRN>
133-53-9

> <CASRN_ChemName_Relationship>
primary

> <TS_Description>
single chemical compound

> <ChemNote>


> <STRUCTURE_Shown>
tested chemical

> <STRUCTURE_Formula>
C8H8Cl2O

> <STRUCTURE_MW>
191.0545

> <STRUCTURE_ChemType>
defined organic

> <STRUCTURE_DefinedOrganicForm>
parent

> <STRUCTURE_IUPAC>
2,4-dichloro-3,5-dimethylphenol

> <STRUCTURE_SMILES>
Cc1cc(O)c(Cl)c(C)c1Cl

> <STRUCTURE_SMILES_Desalt>
Cc1cc(O)c(Cl)c(C)c1Cl

> <Substance_modify_yyyymmdd>
20080825

$$$$
