133-18-6
ChemmineR-0915142007XD

 18 19  0  0  0  0  0  0  0  0  1 V2000
    3.9900   -3.4580    0.0000 C   0  0  0  0  0  0  0  0  0  0  0  0
    4.6497   -4.6072    0.0000 O   0  0  0  0  0  0  0  0  0  0  0  0
    4.6497   -2.2983    0.0000 O   0  0  0  0  0  0  0  0  0  0  0  0
    5.9797   -2.2983    0.0000 C   0  0  0  0  0  0  0  0  0  0  0  0
    6.6501   -1.1491    0.0000 C   0  0  0  0  0  0  0  0  0  0  0  0
    7.9801   -1.1491    0.0000 C   0  0  0  0  0  0  0  0  0  0  0  0
    8.6504    0.0000    0.0000 C   0  0  0  0  0  0  0  0  0  0  0  0
    9.9804    0.0000    0.0000 C   0  0  0  0  0  0  0  0  0  0  0  0
   10.6401   -1.1491    0.0000 C   0  0  0  0  0  0  0  0  0  0  0  0
    9.9804   -2.2983    0.0000 C   0  0  0  0  0  0  0  0  0  0  0  0
    8.6504   -2.2983    0.0000 C   0  0  0  0  0  0  0  0  0  0  0  0
    2.6600   -3.4580    0.0000 C   0  0  0  0  0  0  0  0  0  0  0  0
    1.9897   -4.6072    0.0000 C   0  0  0  0  0  0  0  0  0  0  0  0
    0.6597   -4.6072    0.0000 C   0  0  0  0  0  0  0  0  0  0  0  0
    0.0000   -3.4580    0.0000 C   0  0  0  0  0  0  0  0  0  0  0  0
    0.6597   -2.2983    0.0000 C   0  0  0  0  0  0  0  0  0  0  0  0
    1.9897   -2.2983    0.0000 C   0  0  0  0  0  0  0  0  0  0  0  0
    2.6600   -1.1491    0.0000 N   0  0  0  0  0  0  0  0  0  0  0  0
  1  2  2  0  0  0  0
  1  3  1  0  0  0  0
  1 12  1  0  0  0  0
  3  4  1  0  0  0  0
  4  5  1  0  0  0  0
  5  6  1  0  0  0  0
  6  7  2  0  0  0  0
  6 11  1  0  0  0  0
  7  8  1  0  0  0  0
  8  9  2  0  0  0  0
  9 10  1  0  0  0  0
 10 11  2  0  0  0  0
 12 13  2  0  0  0  0
 12 17  1  0  0  0  0
 13 14  1  0  0  0  0
 14 15  2  0  0  0  0
 15 16  1  0  0  0  0
 16 17  2  0  0  0  0
 17 18  1  0  0  0  0
M  END
> <ID>
4441

> <Formula>
C15H15NO2

> <FW>
241.2851

> <DSSTox_CID>
5861

> <DSSTox_RID>
77951

> <DSSTox_GSID>
25861

> <DSSTox_FileID_Sort>
2634

> <TS_ChemName>
Phenethyl anthranilate

> <TS_ChemName_Synonyms>


> <TS_CASRN>
133-18-6

> <CASRN_ChemName_Relationship>
primary

> <TS_Description>
single chemical compound

> <ChemNote>


> <STRUCTURE_Shown>
tested chemical

> <STRUCTURE_Formula>
C15H15NO2

> <STRUCTURE_MW>
241.2851

> <STRUCTURE_ChemType>
defined organic

> <STRUCTURE_DefinedOrganicForm>
parent

> <STRUCTURE_IUPAC>
2-phenylethyl 2-aminobenzoate

> <STRUCTURE_SMILES>
Nc2ccccc2C(=O)OCCc1ccccc1

> <STRUCTURE_SMILES_Desalt>
Nc2ccccc2C(=O)OCCc1ccccc1

> <Substance_modify_yyyymmdd>
20080429

$$$$
