133005-40-0
ChemmineR-0915142007XD

 44 47  0  0  1  0  0  0  0  0  1 V2000
    4.3481   -4.3200    0.0000 C   0  0  0  0  0  0  0  0  0  0  0  0
    3.4475   -3.4053    0.0000 C   0  0  0  0  0  0  0  0  0  0  0  0
    5.6146   -1.2102    0.0000 C   0  0  0  0  0  0  0  0  0  0  0  0
    4.3481   -2.7018    0.0000 C   0  0  0  0  0  0  0  0  0  0  0  0
    6.5292   -2.1248    0.0000 N   0  0  0  0  0  0  0  0  0  0  0  0
    3.4475   -2.1248    0.0000 C   0  0  0  0  0  0  0  0  0  0  0  0
    4.3481   -1.2102    0.0000 C   0  0  0  0  0  0  0  0  0  0  0  0
    5.6146   -4.3200    0.0000 C   0  0  0  0  0  0  0  0  0  0  0  0
    6.5292   -3.4053    0.0000 C   0  0  0  0  0  0  0  0  0  0  0  0
    2.2937   -4.0667    0.0000 C   0  0  0  0  0  0  0  0  0  0  0  0
    2.2937   -1.4634    0.0000 C   0  0  0  0  0  0  0  0  0  0  0  0
    1.1679   -3.4053    0.0000 C   0  0  0  0  0  0  0  0  0  0  0  0
    3.8697   -5.5583    0.0000 C   0  0  0  0  0  0  0  0  0  0  0  0
    1.1679   -2.1248    0.0000 C   0  0  0  0  0  0  0  0  0  0  0  0
    7.7394   -1.6182    0.0000 C   0  0  0  0  0  0  0  0  0  0  0  0
    5.3331   -3.0676    0.0000 C   0  0  0  0  0  0  0  0  0  0  0  0
    0.0000   -4.0667    0.0000 O   0  0  0  0  0  0  0  0  0  0  0  0
    6.1071    0.0000    0.0000 H   0  0  0  0  0  0  0  0  0  0  0  0
   12.9318   -5.8538    0.0000 C   0  0  0  0  0  0  0  0  0  0  0  0
    9.5546   -5.1784    0.0000 C   0  0  0  0  0  0  0  0  0  0  0  0
   10.6522   -5.8257    0.0000 C   0  0  0  0  0  0  0  0  0  0  0  0
   11.8061   -5.1924    0.0000 C   0  0  0  0  0  0  0  0  0  0  0  0
   12.9318   -7.1484    0.0000 O   0  0  0  0  0  0  0  0  0  0  0  0
    9.5687   -3.8697    0.0000 O   0  0  0  0  0  0  0  0  0  0  0  0
   14.0716   -5.2346    0.0000 O   0  0  0  0  0  0  0  0  0  0  0  0
    8.4148   -5.7975    0.0000 O   0  0  0  0  0  0  0  0  0  0  0  0
    4.3622  -10.5819    0.0000 C   0  0  0  0  0  0  0  0  0  0  0  0
    3.4616   -9.6813    0.0000 C   0  0  0  0  0  0  0  0  0  0  0  0
    5.6287   -7.4720    0.0000 C   0  0  0  0  0  0  0  0  0  0  0  0
    4.3622   -8.9636    0.0000 C   0  0  0  0  0  0  0  0  0  0  0  0
    6.5574   -8.3867    0.0000 N   0  0  0  0  0  0  0  0  0  0  0  0
    3.4616   -8.3867    0.0000 C   0  0  0  0  0  0  0  0  0  0  0  0
    4.3622   -7.4720    0.0000 C   0  0  0  0  0  0  0  0  0  0  0  0
    5.6287  -10.5819    0.0000 C   0  0  0  0  0  0  0  0  0  0  0  0
    6.5574   -9.6813    0.0000 C   0  0  0  0  0  0  0  0  0  0  0  0
    2.3218  -10.3286    0.0000 C   0  0  0  0  0  0  0  0  0  0  0  0
    2.3218   -7.7253    0.0000 C   0  0  0  0  0  0  0  0  0  0  0  0
    1.1961   -9.6813    0.0000 C   0  0  0  0  0  0  0  0  0  0  0  0
    3.8838  -11.8202    0.0000 C   0  0  0  0  0  0  0  0  0  0  0  0
    1.1961   -8.3867    0.0000 C   0  0  0  0  0  0  0  0  0  0  0  0
    7.7535   -7.8801    0.0000 C   0  0  0  0  0  0  0  0  0  0  0  0
    5.3472   -9.3295    0.0000 C   0  0  0  0  0  0  0  0  0  0  0  0
    0.0141  -10.3286    0.0000 O   0  0  0  0  0  0  0  0  0  0  0  0
    6.1352   -6.2759    0.0000 H   0  0  0  0  0  0  0  0  0  0  0  0
  1  2  1  0  0  0  0
  1  4  1  0  0  0  0
  1  8  1  0  0  0  0
  1 13  1  1  0  0  0
  2  6  2  0  0  0  0
  2 10  1  0  0  0  0
  3  4  1  0  0  0  0
  3  7  1  0  0  0  0
  3  5  1  0  0  0  0
  3 18  1  1  0  0  0
  4 16  1  1  0  0  0
  5  9  1  0  0  0  0
  5 15  1  0  0  0  0
  6 11  1  0  0  0  0
  6  7  1  0  0  0  0
  8  9  1  0  0  0  0
 10 12  2  0  0  0  0
 11 14  2  0  0  0  0
 12 14  1  0  0  0  0
 12 17  1  0  0  0  0
 19 22  1  0  0  0  0
 19 23  2  0  0  0  0
 19 25  1  0  0  0  0
 20 21  1  0  0  0  0
 20 24  2  0  0  0  0
 20 26  1  0  0  0  0
 21 22  2  0  0  0  0
 27 28  1  0  0  0  0
 27 30  1  0  0  0  0
 27 34  1  0  0  0  0
 27 39  1  1  0  0  0
 28 32  2  0  0  0  0
 28 36  1  0  0  0  0
 29 30  1  0  0  0  0
 29 33  1  0  0  0  0
 29 31  1  0  0  0  0
 29 44  1  1  0  0  0
 30 42  1  1  0  0  0
 31 35  1  0  0  0  0
 31 41  1  0  0  0  0
 32 37  1  0  0  0  0
 32 33  1  0  0  0  0
 34 35  1  0  0  0  0
 36 38  2  0  0  0  0
 37 40  2  0  0  0  0
 38 40  1  0  0  0  0
 38 43  1  0  0  0  0
M  END
> <ID>
13899

> <Formula>
C34H46N2O6

> <FW>
578.7388 (231.3333+116.0722+231.3333)

> <DSSTox_CID>
28836

> <DSSTox_RID>
83105

> <DSSTox_GSID>
48910

> <DSSTox_FileID_Sort>
7782

> <TS_ChemName>
(+)-Metazocine fumarate (2:1)

> <TS_ChemName_Synonyms>


> <TS_CASRN>
133005-40-0

> <CASRN_ChemName_Relationship>
primary

> <TS_Description>
single chemical compound

> <ChemNote>
absolute stereochem; parent [67009-58-9]

> <STRUCTURE_Shown>
tested chemical

> <STRUCTURE_Formula>
C34H46N2O6

> <STRUCTURE_MW>
578.7388

> <STRUCTURE_ChemType>
defined organic

> <STRUCTURE_DefinedOrganicForm>
complex

> <STRUCTURE_IUPAC>
(2S,6S,11R)-3,6,11-trimethyl-1,2,3,4,5,6-hexahydro-2,6-methano-3-benzazocin-8-ol (2E)-but-2-enedioate (2:1)

> <STRUCTURE_SMILES>
O=C(O)/C=C/C(=O)O.Oc2ccc3C[C@H]1[C@H](C)[C@](C)(CCN1C)c3c2.Oc2ccc3C[C@H]1[C@H](C)[C@](C)(CCN1C)c3c2

> <STRUCTURE_SMILES_Desalt>
Oc2ccc3C[C@H]1[C@H](C)[C@](C)(CCN1C)c3c2

> <Substance_modify_yyyymmdd>
20111207

$$$$
