1330-78-5
ChemmineR-0915142007XD

 26 28  0  0  0  0  0  0  0  0  1 V2000
    5.9847   -2.2981    0.0000 P   0  0  0  0  0  0  0  0  0  0  0  0
    6.6431   -1.1491    0.0000 O   0  0  0  0  0  0  0  0  0  0  0  0
    7.9717   -1.1491    0.0000 C   0  0  0  0  0  0  0  0  0  0  0  0
    8.6420    0.0000    0.0000 C   0  0  0  0  0  0  0  0  0  0  0  0
    9.9826    0.0000    0.0000 C   0  0  0  0  0  0  0  0  0  0  0  0
   10.6409   -1.1491    0.0000 C   0  0  0  0  0  0  0  0  0  0  0  0
    9.9826   -2.2981    0.0000 C   0  0  0  0  0  0  0  0  0  0  0  0
    8.6420   -2.2981    0.0000 C   0  0  0  0  0  0  0  0  0  0  0  0
    7.1338   -2.9565    0.0000 O   0  0  0  0  0  0  0  0  0  0  0  0
    7.1338   -4.2851    0.0000 C   0  0  0  0  0  0  0  0  0  0  0  0
    8.2829   -4.9554    0.0000 C   0  0  0  0  0  0  0  0  0  0  0  0
    8.2829   -6.2960    0.0000 C   0  0  0  0  0  0  0  0  0  0  0  0
    7.1338   -6.9543    0.0000 C   0  0  0  0  0  0  0  0  0  0  0  0
    5.9847   -6.2960    0.0000 C   0  0  0  0  0  0  0  0  0  0  0  0
    5.9847   -4.9554    0.0000 C   0  0  0  0  0  0  0  0  0  0  0  0
    5.3264   -3.4472    0.0000 O   0  0  0  0  0  0  0  0  0  0  0  0
    3.9978   -3.4472    0.0000 C   0  0  0  0  0  0  0  0  0  0  0  0
    3.3275   -4.5963    0.0000 C   0  0  0  0  0  0  0  0  0  0  0  0
    1.9869   -4.5963    0.0000 C   0  0  0  0  0  0  0  0  0  0  0  0
    1.3286   -3.4472    0.0000 C   0  0  0  0  0  0  0  0  0  0  0  0
    1.9869   -2.2981    0.0000 C   0  0  0  0  0  0  0  0  0  0  0  0
    3.3275   -2.2981    0.0000 C   0  0  0  0  0  0  0  0  0  0  0  0
    4.8357   -1.6398    0.0000 O   0  0  0  0  0  0  0  0  0  0  0  0
   11.9695   -1.1371    0.0000 C   0  0  0  0  0  0  0  0  0  0  0  0
    7.1458   -8.2829    0.0000 C   0  0  0  0  0  0  0  0  0  0  0  0
    0.0000   -3.4592    0.0000 C   0  0  0  0  0  0  0  0  0  0  0  0
  1  2  1  0  0  0  0
  1  9  1  0  0  0  0
  1 16  1  0  0  0  0
  1 23  2  0  0  0  0
  2  3  1  0  0  0  0
  3  4  2  0  0  0  0
  3  8  1  0  0  0  0
  4  5  1  0  0  0  0
  5  6  2  0  0  0  0
  6  7  1  0  0  0  0
  6 24  1  0  0  0  0
  7  8  2  0  0  0  0
  9 10  1  0  0  0  0
 10 11  2  0  0  0  0
 10 15  1  0  0  0  0
 11 12  1  0  0  0  0
 12 13  2  0  0  0  0
 13 14  1  0  0  0  0
 13 25  1  0  0  0  0
 14 15  2  0  0  0  0
 16 17  1  0  0  0  0
 17 18  2  0  0  0  0
 17 22  1  0  0  0  0
 18 19  1  0  0  0  0
 19 20  2  0  0  0  0
 20 21  1  0  0  0  0
 20 26  1  0  0  0  0
 21 22  2  0  0  0  0
M  END
> <ID>
1336

> <Formula>
C21H21O4P

> <FW>
368.3628

> <DSSTox_CID>
1391

> <DSSTox_RID>
76133

> <DSSTox_GSID>
21391

> <DSSTox_FileID_Sort>
817

> <TS_ChemName>
Tricresyl phosphate

> <TS_ChemName_Synonyms>
Tricresyl phosphate (Tritolyl phosphate) (Phosphoric acid, tris(methylphenyl) ester)

> <TS_CASRN>
1330-78-5

> <CASRN_ChemName_Relationship>
primary

> <TS_Description>
mixture or formulation

> <ChemNote>
mixture of isomeric tricresylphosphates; usually excluding; as much as possible; the extremely toxic 2-methylphenyl isomer (Merck); No structure shown

> <STRUCTURE_Shown>
representative isomer in mixture

> <STRUCTURE_Formula>
C21H21O4P

> <STRUCTURE_MW>
368.3628

> <STRUCTURE_ChemType>
defined organic

> <STRUCTURE_DefinedOrganicForm>
parent

> <STRUCTURE_IUPAC>
tris(4-methylphenyl) phosphate

> <STRUCTURE_SMILES>
Cc1ccc(cc1)OP(=O)(Oc2ccc(C)cc2)Oc3ccc(C)cc3

> <STRUCTURE_SMILES_Desalt>
Cc1ccc(cc1)OP(=O)(Oc2ccc(C)cc2)Oc3ccc(C)cc3

> <Substance_modify_yyyymmdd>
20130506

$$$$
