133099-07-7
ChemmineR-0915142007XD

 33 36  0  0  1  0  0  0  0  0  1 V2000
    0.8461   -0.6742    0.0000 C    0  0  0  0  0  0  0  0  0  0  0  0
    1.9962    0.0000    0.0000 C    0  0  0  0  0  0  0  0  0  0  0  0
    3.1464   -0.6742    0.0000 C    0  0  0  0  0  0  0  0  0  0  0  0
    3.1464   -1.9962    0.0000 C    0  0  0  0  0  0  0  0  0  0  0  0
    1.9962   -2.6572    0.0000 C    0  0  0  0  0  0  0  0  0  0  0  0
    0.8461   -1.9962    0.0000 C    0  0  0  0  0  0  0  0  0  0  0  0
    1.9962   -3.9925    0.0000 C    0  0  0  0  0  0  0  0  0  0  0  0
    1.9962   -5.3409    0.0000 C    0  0  0  0  0  0  0  0  0  0  0  0
    3.1464   -5.9887    0.0000 C    0  0  0  0  0  0  0  0  0  0  0  0
    3.1464   -7.3107    0.0000 C    0  0  0  0  0  0  0  0  0  0  0  0
    1.9962   -7.9850    0.0000 C    0  0  0  0  0  0  0  0  0  0  0  0
    0.8461   -7.3107    0.0000 C    0  0  0  0  0  0  0  0  0  0  0  0
    0.8461   -5.9887    0.0000 C    0  0  0  0  0  0  0  0  0  0  0  0
    3.3315   -3.9925    0.0000 C    0  0  0  0  0  0  0  0  0  0  0  0
    0.6874   -3.9925    0.0000 C    0  0  0  0  0  0  0  0  0  0  0  0
    0.0000   -2.8423    0.0000 O    0  0  0  0  0  0  0  0  0  0  0  0
    0.0000   -5.1426    0.0000 N    0  0  0  0  0  0  0  0  0  0  0  0
    4.1247   -2.9084    0.0000 C    0  0  0  0  0  0  0  0  0  0  0  0
    5.3806   -3.3447    0.0000 N    0  0  0  0  0  0  0  0  0  0  0  0
    5.3806   -4.6535    0.0000 C    0  0  0  0  0  0  0  0  0  0  0  0
    4.1247   -5.0765    0.0000 C    0  0  0  0  0  0  0  0  0  0  0  0
    6.5836   -2.7894    0.0000 C    0  0  0  0  0  0  0  0  0  0  0  0
    7.7073   -3.4637    0.0000 C    0  0  0  0  0  0  0  0  0  0  0  0
    8.8575   -2.7894    0.0000 C    0  0  0  0  0  0  0  0  0  0  0  0
   10.0076   -3.4637    0.0000 C    0  0  0  0  0  0  0  0  0  0  0  0
   10.0076   -0.8064    0.0000 C    0  0  0  0  0  0  0  0  0  0  0  0
    8.8575   -1.4542    0.0000 C    0  0  0  0  0  0  0  0  0  0  0  0
   11.1578   -1.4542    0.0000 C    0  0  0  0  0  0  0  0  0  0  0  0
   11.1578   -2.7894    0.0000 C    0  0  0  0  0  0  0  0  0  0  0  0
   12.4534   -3.2125    0.0000 C    0  0  0  0  0  0  0  0  0  0  0  0
   13.2201   -2.1284    0.0000 C    0  0  0  0  0  0  0  0  0  0  0  0
   12.4534   -1.0576    0.0000 O    0  0  0  0  0  0  0  0  0  0  0  0
    7.6809   -4.8650    0.0000 Br   0  0  0  0  0  0  0  0  0  0  0  0
  1  6  1  0  0  0  0
  1  2  2  0  0  0  0
  2  3  1  0  0  0  0
  3  4  2  0  0  0  0
  4  5  1  0  0  0  0
  5  6  2  0  0  0  0
  5  7  1  0  0  0  0
  7  8  1  0  0  0  0
 14  7  1  1  0  0  0
  7 15  1  0  0  0  0
  8  9  2  0  0  0  0
  8 13  1  0  0  0  0
  9 10  1  0  0  0  0
 10 11  2  0  0  0  0
 11 12  1  0  0  0  0
 12 13  2  0  0  0  0
 14 18  1  0  0  0  0
 14 21  1  0  0  0  0
 15 16  2  0  0  0  0
 15 17  1  0  0  0  0
 18 19  1  0  0  0  0
 19 20  1  0  0  0  0
 19 22  1  0  0  0  0
 20 21  1  0  0  0  0
 22 23  1  0  0  0  0
 23 24  1  0  0  0  0
 24 25  2  0  0  0  0
 24 27  1  0  0  0  0
 25 29  1  0  0  0  0
 26 28  1  0  0  0  0
 26 27  2  0  0  0  0
 28 29  2  0  0  0  0
 28 32  1  0  0  0  0
 29 30  1  0  0  0  0
 30 31  1  0  0  0  0
 31 32  1  0  0  0  0
M  END
> <ID>
11963

> <Formula>
C28H31BrN2O2

> <FW>
507.4619 (426.5500+80.9119)

> <DSSTox_CID>
26780

> <DSSTox_RID>
81899

> <DSSTox_GSID>
46780

> <DSSTox_FileID_Sort>
6580

> <TS_ChemName>
Darifenacin hydrobromide

> <TS_ChemName_Synonyms>


> <TS_CASRN>
133099-07-7

> <CASRN_ChemName_Relationship>
primary

> <TS_Description>
single chemical compound

> <ChemNote>
stereocyhem; parent [133099-04-4]

> <STRUCTURE_Shown>
tested chemical

> <STRUCTURE_Formula>
C28H31BrN2O2

> <STRUCTURE_MW>
507.4619

> <STRUCTURE_ChemType>
defined organic

> <STRUCTURE_DefinedOrganicForm>
complex

> <STRUCTURE_IUPAC>
2-{(3S)-1-[2-(2,3-dihydro-1-benzofuran-5-yl)ethyl]pyrrolidin-3-yl}-2,2-diphenylacetamide hydrobromide (1:1)

> <STRUCTURE_SMILES>
Br.NC(=O)C(c1ccccc1)(c2ccccc2)[C@@H]3CCN(C3)CCc4cc5CCOc5cc4

> <STRUCTURE_SMILES_Desalt>
NC(=O)C(c1ccccc1)(c2ccccc2)[C@@H]3CCN(C3)CCc4cc5CCOc5cc4

> <Substance_modify_yyyymmdd>
20110802

$$$$
