1330-86-5
ChemmineR-0915142007XD

 26 25  0  0  0  0  0  0  0  0  1 V2000
    9.2273   -5.9835    0.0000 C   0  0  0  0  0  0  0  0  0  0  0  0
   12.6902   -1.3370    0.0000 C   0  0  0  0  0  0  0  0  0  0  0  0
    9.2273   -7.3204    0.0000 O   0  0  0  0  0  0  0  0  0  0  0  0
   12.6902    0.0000    0.0000 O   0  0  0  0  0  0  0  0  0  0  0  0
    8.0656   -5.3260    0.0000 O   0  0  0  0  0  0  0  0  0  0  0  0
   13.8519   -1.9945    0.0000 O   0  0  0  0  0  0  0  0  0  0  0  0
   11.5286   -1.9945    0.0000 C   0  0  0  0  0  0  0  0  0  0  0  0
   10.3889   -5.3260    0.0000 C   0  0  0  0  0  0  0  0  0  0  0  0
   10.3889   -3.9890    0.0000 C   0  0  0  0  0  0  0  0  0  0  0  0
   11.5286   -3.3315    0.0000 C   0  0  0  0  0  0  0  0  0  0  0  0
    6.9259   -5.9835    0.0000 C   0  0  0  0  0  0  0  0  0  0  0  0
    5.7862   -5.3260    0.0000 C   0  0  0  0  0  0  0  0  0  0  0  0
    4.6246   -5.9835    0.0000 C   0  0  0  0  0  0  0  0  0  0  0  0
    3.4630   -5.3260    0.0000 C   0  0  0  0  0  0  0  0  0  0  0  0
    2.3013   -5.9835    0.0000 C   0  0  0  0  0  0  0  0  0  0  0  0
    1.1616   -5.3260    0.0000 C   0  0  0  0  0  0  0  0  0  0  0  0
    0.0000   -5.9835    0.0000 C   0  0  0  0  0  0  0  0  0  0  0  0
    1.1616   -3.9890    0.0000 C   0  0  0  0  0  0  0  0  0  0  0  0
   14.9916   -1.3370    0.0000 C   0  0  0  0  0  0  0  0  0  0  0  0
   16.1532   -1.9945    0.0000 C   0  0  0  0  0  0  0  0  0  0  0  0
   17.2929   -1.3370    0.0000 C   0  0  0  0  0  0  0  0  0  0  0  0
   18.4545   -1.9945    0.0000 C   0  0  0  0  0  0  0  0  0  0  0  0
   19.6162   -1.3370    0.0000 C   0  0  0  0  0  0  0  0  0  0  0  0
   20.7559   -1.9945    0.0000 C   0  0  0  0  0  0  0  0  0  0  0  0
   21.9175   -1.3370    0.0000 C   0  0  0  0  0  0  0  0  0  0  0  0
   20.7559   -3.3315    0.0000 C   0  0  0  0  0  0  0  0  0  0  0  0
  1  3  2  0  0  0  0
  1  5  1  0  0  0  0
  1  8  1  0  0  0  0
  2  7  1  0  0  0  0
  2  4  2  0  0  0  0
  2  6  1  0  0  0  0
  5 11  1  0  0  0  0
  6 19  1  0  0  0  0
  7 10  1  0  0  0  0
  8  9  1  0  0  0  0
  9 10  1  0  0  0  0
 11 12  1  0  0  0  0
 12 13  1  0  0  0  0
 13 14  1  0  0  0  0
 14 15  1  0  0  0  0
 15 16  1  0  0  0  0
 16 17  1  0  0  0  0
 16 18  1  0  0  0  0
 19 20  1  0  0  0  0
 20 21  1  0  0  0  0
 21 22  1  0  0  0  0
 22 23  1  0  0  0  0
 23 24  1  0  0  0  0
 24 25  1  0  0  0  0
 24 26  1  0  0  0  0
M  END
> <ID>
5123

> <Formula>
C22H42O4

> <FW>
370.5665

> <DSSTox_CID>
7388

> <DSSTox_RID>
78432

> <DSSTox_GSID>
27388

> <DSSTox_FileID_Sort>
3115

> <TS_ChemName>
Diisooctyl adipate

> <TS_ChemName_Synonyms>
Hexanedioic acid, diisooctyl ester

> <TS_CASRN>
1330-86-5

> <CASRN_ChemName_Relationship>
primary

> <TS_Description>
mixture or formulation

> <ChemNote>
mixture of isooctyl isomers; structure shown 6-methylheptyl

> <STRUCTURE_Shown>
representative isomer in mixture

> <STRUCTURE_Formula>
C22H42O4

> <STRUCTURE_MW>
370.5665

> <STRUCTURE_ChemType>
defined organic

> <STRUCTURE_DefinedOrganicForm>
parent

> <STRUCTURE_IUPAC>
bis(6-methylheptyl) hexanedioate

> <STRUCTURE_SMILES>
CC(C)CCCCCOC(=O)CCCCC(=O)OCCCCCC(C)C

> <STRUCTURE_SMILES_Desalt>
CC(C)CCCCCOC(=O)CCCCC(=O)OCCCCCC(C)C

> <Substance_modify_yyyymmdd>
20080429

$$$$
