13301-61-6
ChemmineR-0915142007XD

 26 27  0  0  0  0  0  0  0  0  2 V2000
    1.3313   -5.7640    0.0000 C    0  0  0  0  0  0  0  0  0  0  0  0
    1.9896   -4.6083    0.0000 C    0  0  0  0  0  0  0  0  0  0  0  0
    1.3313   -3.4672    0.0000 C    0  0  0  0  0  0  0  0  0  0  0  0
    0.6583   -6.9198    0.0000 N    0  0  0  0  0  0  0  0  0  0  0  0
    1.9896   -2.3115    0.0000 N    0  0  0  0  0  0  0  0  0  0  0  0
    5.3251   -1.1557    0.0000 C    0  0  0  0  0  0  0  0  0  0  0  0
    5.9835   -2.3115    0.0000 C    0  0  0  0  0  0  0  0  0  0  0  0
    5.3251   -3.4672    0.0000 C    0  0  0  0  0  0  0  0  0  0  0  0
    3.9939   -3.4672    0.0000 C    0  0  0  0  0  0  0  0  0  0  0  0
    3.3209   -2.3115    0.0000 C    0  0  0  0  0  0  0  0  0  0  0  0
    3.9939   -1.1557    0.0000 C    0  0  0  0  0  0  0  0  0  0  0  0
    8.6460   -2.3115    0.0000 N    0  0  0  0  0  0  0  0  0  0  0  0
    7.3294   -2.3115    0.0000 N    0  0  0  0  0  0  0  0  0  0  0  0
   11.9669   -1.1557    0.0000 C    0  0  0  0  0  0  0  0  0  0  0  0
   12.6399   -2.3115    0.0000 C    0  0  0  0  0  0  0  0  0  0  0  0
   11.9669   -3.4526    0.0000 C    0  0  0  0  0  0  0  0  0  0  0  0
   10.6357   -3.4526    0.0000 C    0  0  0  0  0  0  0  0  0  0  0  0
    9.9773   -2.3115    0.0000 C    0  0  0  0  0  0  0  0  0  0  0  0
   10.6357   -1.1557    0.0000 C    0  0  0  0  0  0  0  0  0  0  0  0
    9.9773    0.0000    0.0000 Cl   0  0  0  0  0  0  0  0  0  0  0  0
    9.9773   -4.6083    0.0000 Cl   0  0  0  0  0  0  0  0  0  0  0  0
   13.9712   -2.3115    0.0000 N    0  3  0  0  0  0  0  0  0  0  0  0
   14.6295   -1.1557    0.0000 O    0  5  0  0  0  0  0  0  0  0  0  0
   14.6295   -3.4526    0.0000 O    0  0  0  0  0  0  0  0  0  0  0  0
    1.3313   -1.1557    0.0000 C    0  0  0  0  0  0  0  0  0  0  0  0
    0.0000   -1.1557    0.0000 C    0  0  0  0  0  0  0  0  0  0  0  0
  1  2  1  0  0  0  0
  1  4  3  0  0  0  0
  2  3  1  0  0  0  0
  3  5  1  0  0  0  0
  5 10  1  0  0  0  0
  5 25  1  0  0  0  0
  6 11  2  0  0  0  0
  6  7  1  0  0  0  0
  7  8  2  0  0  0  0
  7 13  1  0  0  0  0
  8  9  1  0  0  0  0
  9 10  2  0  0  0  0
 10 11  1  0  0  0  0
 12 18  1  0  0  0  0
 12 13  2  0  0  0  0
 14 19  2  0  0  0  0
 14 15  1  0  0  0  0
 15 16  2  0  0  0  0
 15 22  1  0  0  0  0
 16 17  1  0  0  0  0
 17 18  2  0  0  0  0
 17 21  1  0  0  0  0
 18 19  1  0  0  0  0
 19 20  1  0  0  0  0
 22 23  1  0  0  0  0
 22 24  2  0  0  0  0
 25 26  1  0  0  0  0
M  END
> <ID>
10192

> <Formula>
C17H15Cl2N5O2

> <FW>
392.2393

> <DSSTox_CID>
24538

> <DSSTox_RID>
80301

> <DSSTox_GSID>
44538

> <DSSTox_FileID_Sort>
4983

> <TS_ChemName>
C.I. Disperse orange 37

> <TS_ChemName_Synonyms>
C.I. Disperse Orange 37 (Propanenitrile, 3-[[4-[(2,6-dichloro-4-nitrophenyl)azo]phenyl]ethylamino]-)

> <TS_CASRN>
13301-61-6

> <CASRN_ChemName_Relationship>
primary

> <TS_Description>
single chemical compound

> <ChemNote>


> <STRUCTURE_Shown>
tested chemical

> <STRUCTURE_Formula>
C17H15Cl2N5O2

> <STRUCTURE_MW>
392.2393

> <STRUCTURE_ChemType>
defined organic

> <STRUCTURE_DefinedOrganicForm>
parent

> <STRUCTURE_IUPAC>
3-[{4-[(2,6-dichloro-4-nitrophenyl)diazenyl]phenyl}(ethyl)amino]propanenitrile

> <STRUCTURE_SMILES>
Clc2cc(cc(Cl)c2/N=N/c1ccc(cc1)N(CC)CCC#N)[N+]([O-])=O

> <STRUCTURE_SMILES_Desalt>
Clc2cc(cc(Cl)c2/N=N/c1ccc(cc1)N(CC)CCC#N)[N+]([O-])=O

> <Substance_modify_yyyymmdd>
20091116

$$$$
