1330-61-6
ChemmineR-0915142007XD

 15 14  0  0  0  0  0  0  0  0  1 V2000
   11.5369   -1.3280    0.0000 C   0  0  0  0  0  0  0  0  0  0  0  0
   12.6989   -1.9920    0.0000 C   0  0  0  0  0  0  0  0  0  0  0  0
   13.8332   -1.3280    0.0000 C   0  0  0  0  0  0  0  0  0  0  0  0
   11.5369    0.0000    0.0000 O   0  0  0  0  0  0  0  0  0  0  0  0
   10.3888   -1.9920    0.0000 O   0  0  0  0  0  0  0  0  0  0  0  0
    9.2268   -1.3280    0.0000 C   0  0  0  0  0  0  0  0  0  0  0  0
    8.0786   -1.9920    0.0000 C   0  0  0  0  0  0  0  0  0  0  0  0
    6.9166   -1.3280    0.0000 C   0  0  0  0  0  0  0  0  0  0  0  0
    5.7546   -1.9920    0.0000 C   0  0  0  0  0  0  0  0  0  0  0  0
    4.6065   -1.3280    0.0000 C   0  0  0  0  0  0  0  0  0  0  0  0
    3.4721   -1.9920    0.0000 C   0  0  0  0  0  0  0  0  0  0  0  0
    2.3101   -1.3280    0.0000 C   0  0  0  0  0  0  0  0  0  0  0  0
    1.1620   -1.9920    0.0000 C   0  0  0  0  0  0  0  0  0  0  0  0
    1.1620   -3.3200    0.0000 C   0  0  0  0  0  0  0  0  0  0  0  0
    0.0000   -1.3280    0.0000 C   0  0  0  0  0  0  0  0  0  0  0  0
  1  2  1  0  0  0  0
  1  5  1  0  0  0  0
  1  4  2  0  0  0  0
  2  3  2  0  0  0  0
  5  6  1  0  0  0  0
  6  7  1  0  0  0  0
  7  8  1  0  0  0  0
  8  9  1  0  0  0  0
  9 10  1  0  0  0  0
 10 11  1  0  0  0  0
 11 12  1  0  0  0  0
 12 13  1  0  0  0  0
 13 14  1  0  0  0  0
 13 15  1  0  0  0  0
M  END
> <ID>
5122

> <Formula>
C13H24O2

> <FW>
212.3285

> <DSSTox_CID>
7386

> <DSSTox_RID>
78431

> <DSSTox_GSID>
27386

> <DSSTox_FileID_Sort>
3114

> <TS_ChemName>
Isodecyl acrylate

> <TS_ChemName_Synonyms>
Isodecyl acrylate (2-Propenoic acid, isodecyl ester)

> <TS_CASRN>
1330-61-6

> <CASRN_ChemName_Relationship>
primary

> <TS_Description>
mixture or formulation

> <ChemNote>
mixture of isodecyl isomers; structure shown 8-methylnonyl

> <STRUCTURE_Shown>
representative isomer in mixture

> <STRUCTURE_Formula>
C13H24O2

> <STRUCTURE_MW>
212.3285

> <STRUCTURE_ChemType>
defined organic

> <STRUCTURE_DefinedOrganicForm>
parent

> <STRUCTURE_IUPAC>
8-methylnonyl prop-2-enoate

> <STRUCTURE_SMILES>
C=CC(=O)OCCCCCCCC(C)C

> <STRUCTURE_SMILES_Desalt>
C=CC(=O)OCCCCCCCC(C)C

> <Substance_modify_yyyymmdd>
20080429

$$$$
