13311-84-7
ChemmineR-0915142007XD

 19 19  0  0  0  0  0  0  0  0  2 V2000
    3.4175   -4.0055    0.0000 C   0  0  0  0  0  0  0  0  0  0  0  0
    1.1208   -4.0055    0.0000 N   0  3  0  0  0  0  0  0  0  0  0  0
    3.4175   -5.2917    0.0000 C   0  0  0  0  0  0  0  0  0  0  0  0
    2.2967   -3.3257    0.0000 C   0  0  0  0  0  0  0  0  0  0  0  0
    6.9269   -1.9936    0.0000 C   0  0  0  0  0  0  0  0  0  0  0  0
    5.7694   -1.3413    0.0000 N   0  0  0  0  0  0  0  0  0  0  0  0
    4.5935   -3.3257    0.0000 C   0  0  0  0  0  0  0  0  0  0  0  0
    2.2967   -1.9936    0.0000 C   0  0  0  0  0  0  0  0  0  0  0  0
    0.0000   -3.3257    0.0000 O   0  5  0  0  0  0  0  0  0  0  0  0
    1.1208   -5.3376    0.0000 O   0  0  0  0  0  0  0  0  0  0  0  0
    4.5935   -1.9936    0.0000 C   0  0  0  0  0  0  0  0  0  0  0  0
    6.9269   -3.2981    0.0000 O   0  0  0  0  0  0  0  0  0  0  0  0
    3.4175   -6.6697    0.0000 F   0  0  0  0  0  0  0  0  0  0  0  0
    2.0854   -5.2917    0.0000 F   0  0  0  0  0  0  0  0  0  0  0  0
    4.7864   -5.2917    0.0000 F   0  0  0  0  0  0  0  0  0  0  0  0
    8.0661   -1.3413    0.0000 C   0  0  0  0  0  0  0  0  0  0  0  0
    3.4175   -1.3413    0.0000 C   0  0  0  0  0  0  0  0  0  0  0  0
    9.1869   -1.9936    0.0000 C   0  0  0  0  0  0  0  0  0  0  0  0
    8.0661    0.0000    0.0000 C   0  0  0  0  0  0  0  0  0  0  0  0
  1  3  1  0  0  0  0
  1  4  2  0  0  0  0
  1  7  1  0  0  0  0
  2  4  1  0  0  0  0
  2  9  1  0  0  0  0
  2 10  2  0  0  0  0
  3 13  1  0  0  0  0
  3 14  1  0  0  0  0
  3 15  1  0  0  0  0
  4  8  1  0  0  0  0
  5  6  1  0  0  0  0
  5 12  2  0  0  0  0
  5 16  1  0  0  0  0
  6 11  1  0  0  0  0
  7 11  2  0  0  0  0
  8 17  2  0  0  0  0
 11 17  1  0  0  0  0
 16 18  1  0  0  0  0
 16 19  1  0  0  0  0
M  END
> <ID>
6312

> <Formula>
C11H11F3N2O3

> <FW>
276.2118

> <DSSTox_CID>
11121

> <DSSTox_RID>
78899

> <DSSTox_GSID>
32004

> <DSSTox_FileID_Sort>
3581

> <TS_ChemName>
Flutamide

> <TS_ChemName_Synonyms>


> <TS_CASRN>
13311-84-7

> <CASRN_ChemName_Relationship>
primary

> <TS_Description>
single chemical compound

> <ChemNote>


> <STRUCTURE_Shown>
tested chemical

> <STRUCTURE_Formula>
C11H11F3N2O3

> <STRUCTURE_MW>
276.2118

> <STRUCTURE_ChemType>
defined organic

> <STRUCTURE_DefinedOrganicForm>
parent

> <STRUCTURE_IUPAC>
2-methyl-N-[4-nitro-3-(trifluoromethyl)phenyl]propanamide

> <STRUCTURE_SMILES>
O=C(Nc1cc(c(cc1)[N+]([O-])=O)C(F)(F)F)C(C)C

> <STRUCTURE_SMILES_Desalt>
O=C(Nc1cc(c(cc1)[N+]([O-])=O)C(F)(F)F)C(C)C

> <Substance_modify_yyyymmdd>
20080429

$$$$
