13319-75-0
ChemmineR-0915142007XD

  6  3  0  0  0  0  0  0  0  0  1 V2000
    5.5298   -0.9345    0.0000 O   0  0  0  0  0  0  0  0  0  0  0  0
    0.0000   -1.2166    0.0000 O   0  0  0  0  0  0  0  0  0  0  0  0
    1.7087   -2.2893    0.0000 F   0  0  0  0  0  0  0  0  0  0  0  0
    2.3778   -1.1447    0.0000 B   0  0  0  0  0  0  0  0  0  0  0  0
    3.7160   -1.1447    0.0000 F   0  0  0  0  0  0  0  0  0  0  0  0
    1.7087    0.0000    0.0000 F   0  0  0  0  0  0  0  0  0  0  0  0
  3  4  1  0  0  0  0
  4  5  1  0  0  0  0
  4  6  1  0  0  0  0
M  END
> <ID>
6606

> <Formula>
H4BF3O2

> <FW>
103.8368 (18.0153+18.0153+67.8062)

> <DSSTox_CID>
13264

> <DSSTox_RID>
79058

> <DSSTox_GSID>
33264

> <DSSTox_FileID_Sort>
3740

> <TS_ChemName>
Boron trifluoride dihydrate

> <TS_ChemName_Synonyms>


> <TS_CASRN>
13319-75-0

> <CASRN_ChemName_Relationship>
primary

> <TS_Description>
single chemical compound

> <ChemNote>


> <STRUCTURE_Shown>
tested chemical

> <STRUCTURE_Formula>
H4BF3O2

> <STRUCTURE_MW>
103.8368

> <STRUCTURE_ChemType>
inorganic

> <STRUCTURE_DefinedOrganicForm>


> <STRUCTURE_IUPAC>
trifluoroborane dihydrate

> <STRUCTURE_SMILES>
O.O.FB(F)F

> <STRUCTURE_SMILES_Desalt>
FB(F)F

> <Substance_modify_yyyymmdd>
20080429

$$$$
