1333-39-7
ChemmineR-0915142007XD

 11 11  0  0  0  0  0  0  0  0  1 V2000
    2.3062   -2.6569    0.0000 C   0  0  0  0  0  0  0  0  0  0  0  0
    3.4593   -3.3318    0.0000 C   0  0  0  0  0  0  0  0  0  0  0  0
    3.4593   -4.6603    0.0000 C   0  0  0  0  0  0  0  0  0  0  0  0
    2.3062   -5.3139    0.0000 C   0  0  0  0  0  0  0  0  0  0  0  0
    1.1531   -4.6603    0.0000 C   0  0  0  0  0  0  0  0  0  0  0  0
    1.1531   -3.3318    0.0000 C   0  0  0  0  0  0  0  0  0  0  0  0
    2.3062   -1.3285    0.0000 S   0  0  0  0  0  0  0  0  0  0  0  0
    3.6347   -1.3285    0.0000 O   0  0  0  0  0  0  0  0  0  0  0  0
    0.9778   -1.3285    0.0000 O   0  0  0  0  0  0  0  0  0  0  0  0
    2.3062    0.0000    0.0000 O   0  0  0  0  0  0  0  0  0  0  0  0
    0.0000   -2.6569    0.0000 O   0  0  0  0  0  0  0  0  0  0  0  0
  1  2  2  0  0  0  0
  1  6  1  0  0  0  0
  1  7  1  0  0  0  0
  2  3  1  0  0  0  0
  3  4  2  0  0  0  0
  4  5  1  0  0  0  0
  5  6  2  0  0  0  0
  6 11  1  0  0  0  0
  7  8  2  0  0  0  0
  7  9  1  0  0  0  0
  7 10  2  0  0  0  0
M  END
> <ID>
5124

> <Formula>
C6H6O4S

> <FW>
174.1744

> <DSSTox_CID>
7390

> <DSSTox_RID>
78433

> <DSSTox_GSID>
27390

> <DSSTox_FileID_Sort>
3116

> <TS_ChemName>
Phenolsulfonic acid

> <TS_ChemName_Synonyms>
Phenolsulfonic acid (Benzenesulfonic acid, hydroxy-)

> <TS_CASRN>
1333-39-7

> <CASRN_ChemName_Relationship>
primary

> <TS_Description>
mixture or formulation

> <ChemNote>
mixture of 2-;3- and 4-hydroxybenzenesulfonic acid; structure shown 2-

> <STRUCTURE_Shown>
representative isomer in mixture

> <STRUCTURE_Formula>
C6H6O4S

> <STRUCTURE_MW>
174.1744

> <STRUCTURE_ChemType>
defined organic

> <STRUCTURE_DefinedOrganicForm>
parent

> <STRUCTURE_IUPAC>
2-hydroxybenzenesulfonic acid

> <STRUCTURE_SMILES>
Oc1ccccc1S(O)(=O)=O

> <STRUCTURE_SMILES_Desalt>
Oc1ccccc1S(O)(=O)=O

> <Substance_modify_yyyymmdd>
20080429

$$$$
