13338-63-1
ChemmineR-0915142007XD

 15 15  0  0  0  0  0  0  0  0  1 V2000
    5.9833   -6.9106    0.0000 C   0  0  0  0  0  0  0  0  0  0  0  0
    4.6528   -6.9106    0.0000 O   0  0  0  0  0  0  0  0  0  0  0  0
    3.9916   -5.7575    0.0000 C   0  0  0  0  0  0  0  0  0  0  0  0
    4.6528   -4.6044    0.0000 C   0  0  0  0  0  0  0  0  0  0  0  0
    3.9916   -3.4594    0.0000 C   0  0  0  0  0  0  0  0  0  0  0  0
    2.6610   -3.4594    0.0000 C   0  0  0  0  0  0  0  0  0  0  0  0
    1.9917   -4.6044    0.0000 C   0  0  0  0  0  0  0  0  0  0  0  0
    2.6610   -5.7575    0.0000 C   0  0  0  0  0  0  0  0  0  0  0  0
    1.9917   -6.9106    0.0000 O   0  0  0  0  0  0  0  0  0  0  0  0
    2.6610   -8.0638    0.0000 C   0  0  0  0  0  0  0  0  0  0  0  0
    0.6612   -4.6044    0.0000 O   0  0  0  0  0  0  0  0  0  0  0  0
    0.0000   -5.7575    0.0000 C   0  0  0  0  0  0  0  0  0  0  0  0
    4.6528   -2.3062    0.0000 C   0  0  0  0  0  0  0  0  0  0  0  0
    3.9916   -1.1531    0.0000 C   0  0  0  0  0  0  0  0  0  0  0  0
    3.3223    0.0000    0.0000 N   0  0  0  0  0  0  0  0  0  0  0  0
  1  2  1  0  0  0  0
  2  3  1  0  0  0  0
  3  4  2  0  0  0  0
  3  8  1  0  0  0  0
  4  5  1  0  0  0  0
  5  6  2  0  0  0  0
  5 13  1  0  0  0  0
  6  7  1  0  0  0  0
  7  8  2  0  0  0  0
  7 11  1  0  0  0  0
  8  9  1  0  0  0  0
  9 10  1  0  0  0  0
 11 12  1  0  0  0  0
 13 14  1  0  0  0  0
 14 15  3  0  0  0  0
M  END
> <ID>
16041

> <Formula>
C11H13NO3

> <FW>
207.2258

> <DSSTox_CID>
31426

> <DSSTox_RID>
97312

> <DSSTox_GSID>
57637

> <DSSTox_FileID_Sort>
8379

> <TS_ChemName>
3,4,5-Trimethoxyphenylacetonitrile

> <TS_ChemName_Synonyms>


> <TS_CASRN>
13338-63-1

> <CASRN_ChemName_Relationship>
primary

> <TS_Description>
single chemical compound

> <ChemNote>


> <STRUCTURE_Shown>
tested chemical

> <STRUCTURE_Formula>
C11H13NO3

> <STRUCTURE_MW>
207.2258

> <STRUCTURE_ChemType>
defined organic

> <STRUCTURE_DefinedOrganicForm>
parent

> <STRUCTURE_IUPAC>
(3,4,5-trimethoxyphenyl)acetonitrile

> <STRUCTURE_SMILES>
COc1c(cc(cc1OC)CC#N)OC

> <STRUCTURE_SMILES_Desalt>
COc1c(cc(cc1OC)CC#N)OC

> <Substance_modify_yyyymmdd>
20131018

$$$$
