13347-42-7
ChemmineR-0915142007XD

 13 14  0  0  0  0  0  0  0  0  1 V2000
    1.1457   -1.5984    0.0000 C    0  0  0  0  0  0  0  0  0  0  0  0
    1.1457   -0.2571    0.0000 O    0  0  0  0  0  0  0  0  0  0  0  0
    2.2915   -2.2635    0.0000 C    0  0  0  0  0  0  0  0  0  0  0  0
    0.0000   -2.2635    0.0000 C    0  0  0  0  0  0  0  0  0  0  0  0
    0.0000   -3.6049    0.0000 C    0  0  0  0  0  0  0  0  0  0  0  0
    2.2915   -3.6049    0.0000 C    0  0  0  0  0  0  0  0  0  0  0  0
    1.1457   -4.2476    0.0000 C    0  0  0  0  0  0  0  0  0  0  0  0
    1.1457   -5.5890    0.0000 Cl   0  0  0  0  0  0  0  0  0  0  0  0
    3.4707   -1.5984    0.0000 C    0  0  0  0  0  0  0  0  0  0  0  0
    3.6161   -0.2739    0.0000 C    0  0  0  0  0  0  0  0  0  0  0  0
    4.8959    0.0000    0.0000 C    0  0  0  0  0  0  0  0  0  0  0  0
    5.5722   -1.1457    0.0000 C    0  0  0  0  0  0  0  0  0  0  0  0
    4.6668   -2.1350    0.0000 C    0  0  0  0  0  0  0  0  0  0  0  0
  1  2  1  0  0  0  0
  1  3  2  0  0  0  0
  1  4  1  0  0  0  0
  3  6  1  0  0  0  0
  3  9  1  0  0  0  0
  4  5  2  0  0  0  0
  5  7  1  0  0  0  0
  6  7  2  0  0  0  0
  7  8  1  0  0  0  0
  9 10  1  0  0  0  0
  9 13  1  0  0  0  0
 10 11  1  0  0  0  0
 11 12  1  0  0  0  0
 12 13  1  0  0  0  0
M  END
> <ID>
8472

> <Formula>
C11H13ClO

> <FW>
196.6733

> <DSSTox_CID>
21506

> <DSSTox_RID>
79754

> <DSSTox_GSID>
41506

> <DSSTox_FileID_Sort>
4436

> <TS_ChemName>
4-Chloro-2-cyclopentylphenol

> <TS_ChemName_Synonyms>


> <TS_CASRN>
13347-42-7

> <CASRN_ChemName_Relationship>
primary

> <TS_Description>
single chemical compound

> <ChemNote>


> <STRUCTURE_Shown>
tested chemical

> <STRUCTURE_Formula>
C11H13ClO

> <STRUCTURE_MW>
196.6733

> <STRUCTURE_ChemType>
defined organic

> <STRUCTURE_DefinedOrganicForm>
parent

> <STRUCTURE_IUPAC>
4-chloro-2-cyclopentylphenol

> <STRUCTURE_SMILES>
Clc1ccc(O)c(c1)C2CCCC2

> <STRUCTURE_SMILES_Desalt>
Clc1ccc(O)c(c1)C2CCCC2

> <Substance_modify_yyyymmdd>
20080825

$$$$
