133454-47-4
ChemmineR-0915142007XD

 31 34  0  0  0  0  0  0  0  0  1 V2000
    0.0000   -2.9524    0.0000 F   0  0  0  0  0  0  0  0  0  0  0  0
    1.3059   -2.6874    0.0000 C   0  0  0  0  0  0  0  0  0  0  0  0
    2.1954   -3.6716    0.0000 C   0  0  0  0  0  0  0  0  0  0  0  0
    3.4823   -3.4066    0.0000 C   0  0  0  0  0  0  0  0  0  0  0  0
    1.7222   -1.4194    0.0000 C   0  0  0  0  0  0  0  0  0  0  0  0
    3.0092   -1.1545    0.0000 C   0  0  0  0  0  0  0  0  0  0  0  0
    3.8987   -2.1386    0.0000 C   0  0  0  0  0  0  0  0  0  0  0  0
    5.1289   -1.5898    0.0000 C   0  0  0  0  0  0  0  0  0  0  0  0
    4.9774   -0.2650    0.0000 N   0  0  0  0  0  0  0  0  0  0  0  0
    3.6905    0.0000    0.0000 O   0  0  0  0  0  0  0  0  0  0  0  0
    6.2833   -2.2522    0.0000 C   0  0  0  0  0  0  0  0  0  0  0  0
    7.4189   -1.5898    0.0000 C   0  0  0  0  0  0  0  0  0  0  0  0
    8.5733   -2.2522    0.0000 C   0  0  0  0  0  0  0  0  0  0  0  0
    8.5733   -3.5769    0.0000 N   0  0  0  0  0  0  0  0  0  0  0  0
    7.4189   -4.2583    0.0000 C   0  0  0  0  0  0  0  0  0  0  0  0
    6.2833   -3.5769    0.0000 C   0  0  0  0  0  0  0  0  0  0  0  0
    9.7278   -4.2583    0.0000 C   0  0  0  0  0  0  0  0  0  0  0  0
   10.8633   -3.5769    0.0000 C   0  0  0  0  0  0  0  0  0  0  0  0
   12.0178   -4.2583    0.0000 C   0  0  0  0  0  0  0  0  0  0  0  0
   13.1723   -3.5769    0.0000 O   0  0  0  0  0  0  0  0  0  0  0  0
   14.3267   -4.2583    0.0000 C   0  0  0  0  0  0  0  0  0  0  0  0
   14.3267   -5.5831    0.0000 C   0  0  0  0  0  0  0  0  0  0  0  0
   15.4812   -6.2455    0.0000 C   0  0  0  0  0  0  0  0  0  0  0  0
   16.6357   -5.5831    0.0000 C   0  0  0  0  0  0  0  0  0  0  0  0
   16.6357   -4.2583    0.0000 C   0  0  0  0  0  0  0  0  0  0  0  0
   15.4812   -3.5769    0.0000 C   0  0  0  0  0  0  0  0  0  0  0  0
   13.1723   -6.2455    0.0000 O   0  0  0  0  0  0  0  0  0  0  0  0
   12.0178   -5.5831    0.0000 C   0  0  0  0  0  0  0  0  0  0  0  0
   17.7712   -6.2455    0.0000 C   0  0  0  0  0  0  0  0  0  0  0  0
   18.9257   -5.5831    0.0000 O   0  0  0  0  0  0  0  0  0  0  0  0
   17.7712   -7.5703    0.0000 C   0  0  0  0  0  0  0  0  0  0  0  0
  1  2  1  0  0  0  0
  2  5  2  0  0  0  0
  2  3  1  0  0  0  0
  3  4  2  0  0  0  0
  4  7  1  0  0  0  0
  5  6  1  0  0  0  0
  6 10  1  0  0  0  0
  6  7  2  0  0  0  0
  7  8  1  0  0  0  0
  8  9  2  0  0  0  0
  8 11  1  0  0  0  0
  9 10  1  0  0  0  0
 11 12  1  0  0  0  0
 11 16  1  0  0  0  0
 12 13  1  0  0  0  0
 13 14  1  0  0  0  0
 14 15  1  0  0  0  0
 14 17  1  0  0  0  0
 15 16  1  0  0  0  0
 17 18  1  0  0  0  0
 18 19  1  0  0  0  0
 19 20  1  0  0  0  0
 20 21  1  0  0  0  0
 21 22  2  0  0  0  0
 21 26  1  0  0  0  0
 22 23  1  0  0  0  0
 22 27  1  0  0  0  0
 23 24  2  0  0  0  0
 24 25  1  0  0  0  0
 24 29  1  0  0  0  0
 25 26  2  0  0  0  0
 27 28  1  0  0  0  0
 29 30  2  0  0  0  0
 29 31  1  0  0  0  0
M  END
> <ID>
14044

> <Formula>
C24H27FN2O4

> <FW>
426.4806

> <DSSTox_CID>
28986

> <DSSTox_RID>
83251

> <DSSTox_GSID>
49060

> <DSSTox_FileID_Sort>
7926

> <TS_ChemName>
Iloperidone

> <TS_ChemName_Synonyms>


> <TS_CASRN>
133454-47-4

> <CASRN_ChemName_Relationship>
primary

> <TS_Description>
single chemical compound

> <ChemNote>


> <STRUCTURE_Shown>
tested chemical

> <STRUCTURE_Formula>
C24H27FN2O4

> <STRUCTURE_MW>
426.4806

> <STRUCTURE_ChemType>
defined organic

> <STRUCTURE_DefinedOrganicForm>
parent

> <STRUCTURE_IUPAC>
1-(4-{3-[4-(6-fluoro-1,2-benzoxazol-3-yl)piperidin-1-yl]propoxy}-3-methoxyphenyl)ethanone

> <STRUCTURE_SMILES>
CC(=O)c4ccc(OCCCN1CCC(CC1)c3noc2cc(F)ccc23)c(OC)c4

> <STRUCTURE_SMILES_Desalt>
CC(=O)c4ccc(OCCCN1CCC(CC1)c3noc2cc(F)ccc23)c(OC)c4

> <Substance_modify_yyyymmdd>
20111204

$$$$
