13360-78-6
ChemmineR-0915142007XD

 12 10  0  0  0  0  0  0  0  0  2 V2000
    3.4685   -1.8383    0.0000 P    0  0  0  0  0  0  0  0  0  0  0  0
    4.1206   -0.6937    0.0000 S    0  5  0  0  0  0  0  0  0  0  0  0
    2.8165   -2.9899    0.0000 S    0  0  0  0  0  0  0  0  0  0  0  0
    2.3170   -1.1862    0.0000 C    0  0  0  0  0  0  0  0  0  0  0  0
    1.1516   -1.8383    0.0000 C    0  0  0  0  0  0  0  0  0  0  0  0
    1.1516   -3.1841    0.0000 C    0  0  0  0  0  0  0  0  0  0  0  0
    0.0000   -1.1862    0.0000 C    0  0  0  0  0  0  0  0  0  0  0  0
    4.6201   -2.4974    0.0000 C    0  0  0  0  0  0  0  0  0  0  0  0
    5.7717   -1.8383    0.0000 C    0  0  0  0  0  0  0  0  0  0  0  0
    5.7717   -0.4995    0.0000 C    0  0  0  0  0  0  0  0  0  0  0  0
    6.9371   -2.4974    0.0000 C    0  0  0  0  0  0  0  0  0  0  0  0
    3.1356    0.0000    0.0000 Na   0  3  0  0  0  0  0  0  0  0  0  0
  1  2  1  0  0  0  0
  1  4  1  0  0  0  0
  1  3  2  0  0  0  0
  1  8  1  0  0  0  0
  4  5  1  0  0  0  0
  5  6  1  0  0  0  0
  5  7  1  0  0  0  0
  8  9  1  0  0  0  0
  9 10  1  0  0  0  0
  9 11  1  0  0  0  0
M  END
> <ID>
10448

> <Formula>
C8H18NaPS2

> <FW>
232.3221 (209.3328+22.9892)

> <DSSTox_CID>
24798

> <DSSTox_RID>
80483

> <DSSTox_GSID>
44798

> <DSSTox_FileID_Sort>
5165

> <TS_ChemName>
Sodium bis(2-methylpropyl)phosphinodithioate

> <TS_ChemName_Synonyms>
Sodium bis(2-methylpropyl)phosphinodithioate (Phosphinodithioic acid, bis(2-methylpropyl)-, sodium salt)

> <TS_CASRN>
13360-78-6

> <CASRN_ChemName_Relationship>
primary

> <TS_Description>
single chemical compound

> <ChemNote>
parent [13360-80-0]

> <STRUCTURE_Shown>
tested chemical

> <STRUCTURE_Formula>
C8H18NaPS2

> <STRUCTURE_MW>
232.3221

> <STRUCTURE_ChemType>
defined organic

> <STRUCTURE_DefinedOrganicForm>
salt

> <STRUCTURE_IUPAC>
sodium bis(2-methylpropyl)phosphinodithioate

> <STRUCTURE_SMILES>
[Na+].[S-]P(=S)(CC(C)C)CC(C)C

> <STRUCTURE_SMILES_Desalt>
CC(C)CP(=S)(S)CC(C)C

> <Substance_modify_yyyymmdd>
20091116

$$$$
