13360-45-7
ChemmineR-0915142007XD

 15 15  0  0  0  0  0  0  0  0  1 V2000
    3.4607   -3.3134    0.0000 C    0  0  0  0  0  0  0  0  0  0  0  0
    3.4607   -1.9788    0.0000 C    0  0  0  0  0  0  0  0  0  0  0  0
    4.6019   -3.9853    0.0000 N    0  0  0  0  0  0  0  0  0  0  0  0
    2.3010   -3.9853    0.0000 C    0  0  0  0  0  0  0  0  0  0  0  0
    2.3010   -1.3254    0.0000 C    0  0  0  0  0  0  0  0  0  0  0  0
    5.7616   -3.3134    0.0000 C    0  0  0  0  0  0  0  0  0  0  0  0
    1.1597   -3.3134    0.0000 C    0  0  0  0  0  0  0  0  0  0  0  0
    1.1597   -1.9788    0.0000 C    0  0  0  0  0  0  0  0  0  0  0  0
    2.3010    0.0000    0.0000 Cl   0  0  0  0  0  0  0  0  0  0  0  0
    6.9029   -3.9853    0.0000 N    0  0  0  0  0  0  0  0  0  0  0  0
    5.7616   -1.9788    0.0000 O    0  0  0  0  0  0  0  0  0  0  0  0
    0.0000   -1.3254    0.0000 Br   0  0  0  0  0  0  0  0  0  0  0  0
    8.0626   -3.3134    0.0000 O    0  0  0  0  0  0  0  0  0  0  0  0
    6.9029   -5.3106    0.0000 C    0  0  0  0  0  0  0  0  0  0  0  0
    9.2039   -3.9853    0.0000 C    0  0  0  0  0  0  0  0  0  0  0  0
  1  2  2  0  0  0  0
  1  3  1  0  0  0  0
  1  4  1  0  0  0  0
  2  5  1  0  0  0  0
  3  6  1  0  0  0  0
  4  7  2  0  0  0  0
  5  8  2  0  0  0  0
  5  9  1  0  0  0  0
  6 10  1  0  0  0  0
  6 11  2  0  0  0  0
  7  8  1  0  0  0  0
  8 12  1  0  0  0  0
 10 13  1  0  0  0  0
 10 14  1  0  0  0  0
 13 15  1  0  0  0  0
M  END
> <ID>
7666

> <Formula>
C9H10BrClN2O2

> <FW>
293.5449

> <DSSTox_CID>
20290

> <DSSTox_RID>
79473

> <DSSTox_GSID>
40290

> <DSSTox_FileID_Sort>
4155

> <TS_ChemName>
Chlorbromuron

> <TS_ChemName_Synonyms>


> <TS_CASRN>
13360-45-7

> <CASRN_ChemName_Relationship>
primary

> <TS_Description>
single chemical compound

> <ChemNote>


> <STRUCTURE_Shown>
tested chemical

> <STRUCTURE_Formula>
C9H10BrClN2O2

> <STRUCTURE_MW>
293.5449

> <STRUCTURE_ChemType>
defined organic

> <STRUCTURE_DefinedOrganicForm>
parent

> <STRUCTURE_IUPAC>
3-(4-bromo-3-chlorophenyl)-1-methoxy-1-methylurea

> <STRUCTURE_SMILES>
Clc1cc(NC(=O)N(C)OC)ccc1Br

> <STRUCTURE_SMILES_Desalt>
Clc1cc(NC(=O)N(C)OC)ccc1Br

> <Substance_modify_yyyymmdd>
20080429

$$$$
