13360-63-9
ChemmineR-0915142007XD

  7  6  0  0  0  0  0  0  0  0  1 V2000
    4.6122   -0.6638    0.0000 N   0  0  0  0  0  0  0  0  0  0  0  0
    3.4575    0.0000    0.0000 C   0  0  0  0  0  0  0  0  0  0  0  0
    2.3027   -0.6638    0.0000 C   0  0  0  0  0  0  0  0  0  0  0  0
    1.1548    0.0000    0.0000 C   0  0  0  0  0  0  0  0  0  0  0  0
    0.0000   -0.6638    0.0000 C   0  0  0  0  0  0  0  0  0  0  0  0
    5.7601    0.0000    0.0000 C   0  0  0  0  0  0  0  0  0  0  0  0
    6.9149   -0.6638    0.0000 C   0  0  0  0  0  0  0  0  0  0  0  0
  1  2  1  0  0  0  0
  1  6  1  0  0  0  0
  2  3  1  0  0  0  0
  3  4  1  0  0  0  0
  4  5  1  0  0  0  0
  6  7  1  0  0  0  0
M  END
> <ID>
4115

> <Formula>
C6H15N

> <FW>
101.19

> <DSSTox_CID>
5276

> <DSSTox_RID>
77723

> <DSSTox_GSID>
25276

> <DSSTox_FileID_Sort>
2406

> <TS_ChemName>
N-Ethyl-N-butylamine

> <TS_ChemName_Synonyms>


> <TS_CASRN>
13360-63-9

> <CASRN_ChemName_Relationship>
primary

> <TS_Description>
single chemical compound

> <ChemNote>


> <STRUCTURE_Shown>
tested chemical

> <STRUCTURE_Formula>
C6H15N

> <STRUCTURE_MW>
101.19

> <STRUCTURE_ChemType>
defined organic

> <STRUCTURE_DefinedOrganicForm>
parent

> <STRUCTURE_IUPAC>
N-ethylbutan-1-amine

> <STRUCTURE_SMILES>
CCNCCCC

> <STRUCTURE_SMILES_Desalt>
CCNCCCC

> <Substance_modify_yyyymmdd>
20080429

$$$$
