13361-34-7
ChemmineR-0915142007XD

 14 13  0  0  0  0  0  0  0  0  1 V2000
    3.4741   -1.3273    0.0000 C   0  0  0  0  0  0  0  0  0  0  0  0
    3.4741    0.0000    0.0000 O   0  0  0  0  0  0  0  0  0  0  0  0
    4.6283   -1.9852    0.0000 O   0  0  0  0  0  0  0  0  0  0  0  0
    2.3199   -1.9852    0.0000 C   0  0  0  0  0  0  0  0  0  0  0  0
    1.1542   -1.3273    0.0000 C   0  0  0  0  0  0  0  0  0  0  0  0
    0.0000   -0.6694    0.0000 N   0  0  0  0  0  0  0  0  0  0  0  0
    5.7709   -1.3273    0.0000 C   0  0  0  0  0  0  0  0  0  0  0  0
    6.9251   -1.9852    0.0000 C   0  0  0  0  0  0  0  0  0  0  0  0
    8.0908   -1.3273    0.0000 C   0  0  0  0  0  0  0  0  0  0  0  0
    9.2219   -1.9852    0.0000 C   0  0  0  0  0  0  0  0  0  0  0  0
   10.3877   -1.3273    0.0000 C   0  0  0  0  0  0  0  0  0  0  0  0
   11.5419   -1.9852    0.0000 C   0  0  0  0  0  0  0  0  0  0  0  0
    6.9251   -3.3241    0.0000 C   0  0  0  0  0  0  0  0  0  0  0  0
    8.0908   -3.9819    0.0000 C   0  0  0  0  0  0  0  0  0  0  0  0
  1  2  2  0  0  0  0
  1  3  1  0  0  0  0
  1  4  1  0  0  0  0
  3  7  1  0  0  0  0
  4  5  1  0  0  0  0
  5  6  3  0  0  0  0
  7  8  1  0  0  0  0
  8  9  1  0  0  0  0
  8 13  1  0  0  0  0
  9 10  1  0  0  0  0
 10 11  1  0  0  0  0
 11 12  1  0  0  0  0
 13 14  1  0  0  0  0
M  END
> <ID>
10035

> <Formula>
C11H19NO2

> <FW>
197.2741

> <DSSTox_CID>
24378

> <DSSTox_RID>
80182

> <DSSTox_GSID>
44378

> <DSSTox_FileID_Sort>
4864

> <TS_ChemName>
2-Ethylhexyl cyanoacetate

> <TS_ChemName_Synonyms>
2-Ethylhexyl cyanoacetate (Acetic acid, cyano-, 2-ethylhexyl ester)

> <TS_CASRN>
13361-34-7

> <CASRN_ChemName_Relationship>
primary

> <TS_Description>
single chemical compound

> <ChemNote>


> <STRUCTURE_Shown>
tested chemical

> <STRUCTURE_Formula>
C11H19NO2

> <STRUCTURE_MW>
197.2741

> <STRUCTURE_ChemType>
defined organic

> <STRUCTURE_DefinedOrganicForm>
parent

> <STRUCTURE_IUPAC>
2-ethylhexyl cyanoacetate

> <STRUCTURE_SMILES>
O=C(CC#N)OCC(CCCC)CC

> <STRUCTURE_SMILES_Desalt>
O=C(CC#N)OCC(CCCC)CC

> <Substance_modify_yyyymmdd>
20091116

$$$$
