1338-43-8
ChemmineR-0915142007XD

 31 31  0  0  1  0  0  0  0  0  1 V2000
   21.2749   -1.1456    0.0000 C   0  0  0  0  0  0  0  0  0  0  0  0
   22.4906   -0.6079    0.0000 O   0  0  0  0  0  0  0  0  0  0  0  0
   21.4152   -2.4782    0.0000 C   0  0  0  0  0  0  0  0  0  0  0  0
   23.3790   -1.6132    0.0000 C   0  0  0  0  0  0  0  0  0  0  0  0
   22.7244   -2.7587    0.0000 C   0  0  0  0  0  0  0  0  0  0  0  0
   23.2621   -3.9744    0.0000 O   0  0  0  0  0  0  0  0  0  0  0  0
   20.4333   -3.3666    0.0000 O   0  0  0  0  0  0  0  0  0  0  0  0
   19.9423   -1.1456    0.0000 C   0  0  0  0  0  0  0  0  0  0  0  0
   19.2877    0.0000    0.0000 O   0  0  0  0  0  0  0  0  0  0  0  0
   19.2877   -2.3145    0.0000 C   0  0  0  0  0  0  0  0  0  0  0  0
   17.9551   -2.3145    0.0000 O   0  0  0  0  0  0  0  0  0  0  0  0
   17.2771   -3.4601    0.0000 C   0  0  0  0  0  0  0  0  0  0  0  0
   15.9679   -3.4601    0.0000 C   0  0  0  0  0  0  0  0  0  0  0  0
   17.9551   -4.6057    0.0000 O   0  0  0  0  0  0  0  0  0  0  0  0
   15.2899   -4.6057    0.0000 C   0  0  0  0  0  0  0  0  0  0  0  0
   13.9573   -4.6057    0.0000 C   0  0  0  0  0  0  0  0  0  0  0  0
   13.3027   -5.7746    0.0000 C   0  0  0  0  0  0  0  0  0  0  0  0
   11.9701   -5.7746    0.0000 C   0  0  0  0  0  0  0  0  0  0  0  0
   11.3154   -6.9202    0.0000 C   0  0  0  0  0  0  0  0  0  0  0  0
    9.9828   -6.9202    0.0000 C   0  0  0  0  0  0  0  0  0  0  0  0
    9.3048   -8.0658    0.0000 C   0  0  0  0  0  0  0  0  0  0  0  0
    7.9722   -8.0658    0.0000 C   0  0  0  0  0  0  0  0  0  0  0  0
    7.3176   -6.9202    0.0000 C   0  0  0  0  0  0  0  0  0  0  0  0
    5.9850   -6.9202    0.0000 C   0  0  0  0  0  0  0  0  0  0  0  0
    5.3304   -5.7746    0.0000 C   0  0  0  0  0  0  0  0  0  0  0  0
    3.9978   -5.7746    0.0000 C   0  0  0  0  0  0  0  0  0  0  0  0
    3.3198   -4.6057    0.0000 C   0  0  0  0  0  0  0  0  0  0  0  0
    1.9872   -4.6057    0.0000 C   0  0  0  0  0  0  0  0  0  0  0  0
    1.3326   -3.4601    0.0000 C   0  0  0  0  0  0  0  0  0  0  0  0
    0.0000   -3.4601    0.0000 C   0  0  0  0  0  0  0  0  0  0  0  0
   20.6203    0.0000    0.0000 H   0  0  0  0  0  0  0  0  0  0  0  0
  1  2  1  0  0  0  0
  1  3  1  0  0  0  0
  1  8  1  0  0  0  0
  1 31  1  6  0  0  0
  2  4  1  0  0  0  0
  3  5  1  0  0  0  0
  3  7  1  1  0  0  0
  4  5  1  0  0  0  0
  5  6  1  6  0  0  0
  8  9  1  1  0  0  0
  8 10  1  0  0  0  0
 10 11  1  0  0  0  0
 11 12  1  0  0  0  0
 12 13  1  0  0  0  0
 12 14  2  0  0  0  0
 13 15  1  0  0  0  0
 15 16  1  0  0  0  0
 16 17  1  0  0  0  0
 17 18  1  0  0  0  0
 18 19  1  0  0  0  0
 19 20  1  0  0  0  0
 20 21  1  0  0  0  0
 21 22  2  0  0  0  0
 22 23  1  0  0  0  0
 23 24  1  0  0  0  0
 24 25  1  0  0  0  0
 25 26  1  0  0  0  0
 26 27  1  0  0  0  0
 27 28  1  0  0  0  0
 28 29  1  0  0  0  0
 29 30  1  0  0  0  0
M  END
> <ID>
5130

> <Formula>
C24H44O6

> <FW>
428.6026

> <DSSTox_CID>
7397

> <DSSTox_RID>
78437

> <DSSTox_GSID>
27397

> <DSSTox_FileID_Sort>
3120

> <TS_ChemName>
Sorbitan, mono-(9Z)-9-octadecenoate

> <TS_ChemName_Synonyms>
Sorbitan, mono-(9Z)-9-octadecenoate (Sorbitan monooleate)

> <TS_CASRN>
1338-43-8

> <CASRN_ChemName_Relationship>
primary

> <TS_Description>
single chemical compound

> <ChemNote>
stereochem

> <STRUCTURE_Shown>
tested chemical

> <STRUCTURE_Formula>
C24H44O6

> <STRUCTURE_MW>
428.6026

> <STRUCTURE_ChemType>
defined organic

> <STRUCTURE_DefinedOrganicForm>
parent

> <STRUCTURE_IUPAC>
1,4-anhydro-6-O-[(9Z)-octadec-9-enoyl]-D-glucitol

> <STRUCTURE_SMILES>
O[C@H](COC(=O)CCCCCCC/C=C\CCCCCCCC)[C@H]1OC[C@H](O)[C@H]1O

> <STRUCTURE_SMILES_Desalt>
O[C@H](COC(=O)CCCCCCC/C=C\CCCCCCCC)[C@H]1OC[C@H](O)[C@H]1O

> <Substance_modify_yyyymmdd>
20080429

$$$$
