13380-94-4
ChemmineR-0915142007XD

 11 13  0  0  0  0  0  0  0  0  1 V2000
    0.4257   -3.4376    0.0000 C   0  0  0  0  0  0  0  0  0  0  0  0
    0.2267   -2.2578    0.0000 C   0  0  0  0  0  0  0  0  0  0  0  0
    1.0827   -1.3001    0.0000 C   0  0  0  0  0  0  0  0  0  0  0  0
    1.2215   -2.3504    0.0000 C   0  0  0  0  0  0  0  0  0  0  0  0
    0.1388    0.0000    0.0000 C   0  0  0  0  0  0  0  0  0  0  0  0
    2.4568   -1.2816    0.0000 C   0  0  0  0  0  0  0  0  0  0  0  0
    2.4892   -2.3504    0.0000 C   0  0  0  0  0  0  0  0  0  0  0  0
    3.5117   -2.6557    0.0000 C   0  0  0  0  0  0  0  0  0  0  0  0
    4.1224   -1.7720    0.0000 C   0  0  0  0  0  0  0  0  0  0  0  0
    3.4654   -0.9161    0.0000 C   0  0  0  0  0  0  0  0  0  0  0  0
    0.0000   -4.6267    0.0000 O   0  0  0  0  0  0  0  0  0  0  0  0
  1  2  1  0  0  0  0
  1  4  1  0  0  0  0
  1 11  2  0  0  0  0
  2  3  1  0  0  0  0
  3  5  1  0  0  0  0
  3  6  1  0  0  0  0
  4  5  1  0  0  0  0
  4  7  1  0  0  0  0
  6  7  1  0  0  0  0
  6 10  1  0  0  0  0
  7  8  1  0  0  0  0
  8  9  1  0  0  0  0
  9 10  1  0  0  0  0
M  END
> <ID>
12600

> <Formula>
C10H14O

> <FW>
150.2176

> <DSSTox_CID>
27463

> <DSSTox_RID>
82363

> <DSSTox_GSID>
47463

> <DSSTox_FileID_Sort>
7044

> <TS_ChemName>
Corodane

> <TS_ChemName_Synonyms>


> <TS_CASRN>
13380-94-4

> <CASRN_ChemName_Relationship>
primary

> <TS_Description>
single chemical compound

> <ChemNote>


> <STRUCTURE_Shown>
tested chemical

> <STRUCTURE_Formula>
C10H14O

> <STRUCTURE_MW>
150.2176

> <STRUCTURE_ChemType>
defined organic

> <STRUCTURE_DefinedOrganicForm>
parent

> <STRUCTURE_IUPAC>
octahydro-5H-4,7-methanoinden-5-one

> <STRUCTURE_SMILES>
O=C1CC2CC1C3CCCC23

> <STRUCTURE_SMILES_Desalt>
O=C1CC2CC1C3CCCC23

> <Substance_modify_yyyymmdd>
20100621

$$$$
