133855-98-8
ChemmineR-0915142007XD

 23 26  0  0  0  0  0  0  0  0  1 V2000
    5.3204   -2.1100    0.0000 N    0  0  0  0  0  0  0  0  0  0  0  0
    4.7753   -0.8985    0.0000 N    0  0  0  0  0  0  0  0  0  0  0  0
    5.7646    0.0000    0.0000 C    0  0  0  0  0  0  0  0  0  0  0  0
    6.9054   -0.6663    0.0000 N    0  0  0  0  0  0  0  0  0  0  0  0
    6.6329   -1.9687    0.0000 C    0  0  0  0  0  0  0  0  0  0  0  0
    4.6440   -3.2508    0.0000 C    0  0  0  0  0  0  0  0  0  0  0  0
    5.9766   -5.5627    0.0000 O    0  0  0  0  0  0  0  0  0  0  0  0
    5.3204   -4.4017    0.0000 C    0  0  0  0  0  0  0  0  0  0  0  0
    6.6530   -4.4017    0.0000 C    0  0  0  0  0  0  0  0  0  0  0  0
    7.8040   -3.7455    0.0000 C    0  0  0  0  0  0  0  0  0  0  0  0
    8.9448   -4.4017    0.0000 C    0  0  0  0  0  0  0  0  0  0  0  0
    7.8040   -2.4129    0.0000 C    0  0  0  0  0  0  0  0  0  0  0  0
   10.0957   -3.7455    0.0000 C    0  0  0  0  0  0  0  0  0  0  0  0
    8.9448   -1.7466    0.0000 C    0  0  0  0  0  0  0  0  0  0  0  0
   10.0957   -2.4129    0.0000 C    0  0  0  0  0  0  0  0  0  0  0  0
    8.9448   -5.7343    0.0000 Cl   0  0  0  0  0  0  0  0  0  0  0  0
    3.9878   -4.4017    0.0000 C    0  0  0  0  0  0  0  0  0  0  0  0
    3.3215   -5.5627    0.0000 C    0  0  0  0  0  0  0  0  0  0  0  0
    3.3215   -3.2508    0.0000 C    0  0  0  0  0  0  0  0  0  0  0  0
    1.9888   -5.5627    0.0000 C    0  0  0  0  0  0  0  0  0  0  0  0
    1.9888   -3.2508    0.0000 C    0  0  0  0  0  0  0  0  0  0  0  0
    1.3326   -4.4017    0.0000 C    0  0  0  0  0  0  0  0  0  0  0  0
    0.0000   -4.4017    0.0000 F    0  0  0  0  0  0  0  0  0  0  0  0
  1  2  1  0  0  0  0
  1  5  1  0  0  0  0
  1  6  1  0  0  0  0
  2  3  2  0  0  0  0
  3  4  1  0  0  0  0
  4  5  2  0  0  0  0
  6  8  1  0  0  0  0
  7  8  1  0  0  0  0
  7  9  1  0  0  0  0
  8  9  1  0  0  0  0
  8 17  1  0  0  0  0
  9 10  1  0  0  0  0
 10 11  2  0  0  0  0
 10 12  1  0  0  0  0
 11 13  1  0  0  0  0
 11 16  1  0  0  0  0
 12 14  2  0  0  0  0
 13 15  2  0  0  0  0
 14 15  1  0  0  0  0
 17 18  2  0  0  0  0
 17 19  1  0  0  0  0
 18 20  1  0  0  0  0
 19 21  2  0  0  0  0
 20 22  2  0  0  0  0
 21 22  1  0  0  0  0
 22 23  1  0  0  0  0
M  END
> <ID>
7720

> <Formula>
C17H13ClFN3O

> <FW>
329.756

> <DSSTox_CID>
20372

> <DSSTox_RID>
79488

> <DSSTox_GSID>
40372

> <DSSTox_FileID_Sort>
4170

> <TS_ChemName>
Epoxiconazole

> <TS_ChemName_Synonyms>


> <TS_CASRN>
133855-98-8

> <CASRN_ChemName_Relationship>
primary

> <TS_Description>
single chemical compound

> <ChemNote>
mixture of (2R,S, 3R,S); structure shown without stereochem

> <STRUCTURE_Shown>
tested chemical

> <STRUCTURE_Formula>
C17H13ClFN3O

> <STRUCTURE_MW>
329.756

> <STRUCTURE_ChemType>
defined organic

> <STRUCTURE_DefinedOrganicForm>
parent

> <STRUCTURE_IUPAC>
1-{[3-(2-chlorophenyl)-2-(4-fluorophenyl)oxiran-2-yl]methyl}-1H-1,2,4-triazole

> <STRUCTURE_SMILES>
Fc1ccc(cc1)C4(Cn2cncn2)OC4c3ccccc3Cl

> <STRUCTURE_SMILES_Desalt>
Fc1ccc(cc1)C4(Cn2cncn2)OC4c3ccccc3Cl

> <Substance_modify_yyyymmdd>
20130901

$$$$
