1338-39-2
ChemmineR-0915142007XD

 25 25  0  0  1  0  0  0  0  0  1 V2000
   17.2758   -2.0165    0.0000 C   0  0  0  0  0  0  0  0  0  0  0  0
   18.4974   -1.4736    0.0000 O   0  0  0  0  0  0  0  0  0  0  0  0
   17.4116   -3.3350    0.0000 C   0  0  0  0  0  0  0  0  0  0  0  0
   19.3893   -2.4624    0.0000 C   0  0  0  0  0  0  0  0  0  0  0  0
   18.7300   -3.6258    0.0000 C   0  0  0  0  0  0  0  0  0  0  0  0
   19.2535   -4.8279    0.0000 O   0  0  0  0  0  0  0  0  0  0  0  0
   16.4227   -4.2269    0.0000 O   0  0  0  0  0  0  0  0  0  0  0  0
   16.1319   -1.3379    0.0000 C   0  0  0  0  0  0  0  0  0  0  0  0
   16.1319    0.0000    0.0000 O   0  0  0  0  0  0  0  0  0  0  0  0
   14.9685   -2.0165    0.0000 C   0  0  0  0  0  0  0  0  0  0  0  0
   13.8052   -1.3379    0.0000 O   0  0  0  0  0  0  0  0  0  0  0  0
   12.6612   -2.0165    0.0000 C   0  0  0  0  0  0  0  0  0  0  0  0
   11.5172   -1.3379    0.0000 C   0  0  0  0  0  0  0  0  0  0  0  0
   12.6612   -3.3350    0.0000 O   0  0  0  0  0  0  0  0  0  0  0  0
   10.3733   -2.0165    0.0000 C   0  0  0  0  0  0  0  0  0  0  0  0
    9.2099   -1.3379    0.0000 C   0  0  0  0  0  0  0  0  0  0  0  0
    8.0465   -2.0165    0.0000 C   0  0  0  0  0  0  0  0  0  0  0  0
    6.9220   -1.3379    0.0000 C   0  0  0  0  0  0  0  0  0  0  0  0
    5.7586   -2.0165    0.0000 C   0  0  0  0  0  0  0  0  0  0  0  0
    4.6146   -1.3379    0.0000 C   0  0  0  0  0  0  0  0  0  0  0  0
    3.4513   -2.0165    0.0000 C   0  0  0  0  0  0  0  0  0  0  0  0
    2.3073   -1.3379    0.0000 C   0  0  0  0  0  0  0  0  0  0  0  0
    1.1634   -2.0165    0.0000 C   0  0  0  0  0  0  0  0  0  0  0  0
    0.0000   -1.3379    0.0000 C   0  0  0  0  0  0  0  0  0  0  0  0
   17.0819   -0.8143    0.0000 H   0  0  0  0  0  0  0  0  0  0  0  0
  1  2  1  0  0  0  0
  1  3  1  0  0  0  0
  1  8  1  0  0  0  0
 25  1  1  6  0  0  0
  2  4  1  0  0  0  0
  3  5  1  0  0  0  0
  3  7  1  1  0  0  0
  4  5  1  0  0  0  0
  5  6  1  6  0  0  0
  8  9  1  1  0  0  0
  8 10  1  0  0  0  0
 10 11  1  0  0  0  0
 11 12  1  0  0  0  0
 12 13  1  0  0  0  0
 12 14  2  0  0  0  0
 13 15  1  0  0  0  0
 15 16  1  0  0  0  0
 16 17  1  0  0  0  0
 17 18  1  0  0  0  0
 18 19  1  0  0  0  0
 19 20  1  0  0  0  0
 20 21  1  0  0  0  0
 21 22  1  0  0  0  0
 22 23  1  0  0  0  0
 23 24  1  0  0  0  0
M  END
> <ID>
5128

> <Formula>
C18H34O6

> <FW>
346.459

> <DSSTox_CID>
7395

> <DSSTox_RID>
78435

> <DSSTox_GSID>
27395

> <DSSTox_FileID_Sort>
3118

> <TS_ChemName>
Sorbitan, monododecanoate

> <TS_ChemName_Synonyms>
Sorbitan, monododecanoate (Sorbitan monolaurate) (Span(R) 20)

> <TS_CASRN>
1338-39-2

> <CASRN_ChemName_Relationship>
primary

> <TS_Description>
mixture or formulation

> <ChemNote>
mixture of dodecanotate esters; structure shown 6-; stereochem

> <STRUCTURE_Shown>
representative component

> <STRUCTURE_Formula>
C18H34O6

> <STRUCTURE_MW>
346.459

> <STRUCTURE_ChemType>
defined organic

> <STRUCTURE_DefinedOrganicForm>
parent

> <STRUCTURE_IUPAC>
1,4-anhydro-6-O-dodecanoyl-D-glucitol

> <STRUCTURE_SMILES>
O[C@H](COC(=O)CCCCCCCCCCC)C1OC[C@H](O)[C@H]1O

> <STRUCTURE_SMILES_Desalt>
O[C@H](COC(=O)CCCCCCCCCCC)C1OC[C@H](O)[C@H]1O

> <Substance_modify_yyyymmdd>
20080429

$$$$
