1338-41-6
ChemmineR-0915142007XD

 30 30  0  0  1  0  0  0  0  0  1 V2000
   24.2456   -2.0029    0.0000 C   0  0  0  0  0  0  0  0  0  0  0  0
   25.4578   -1.4758    0.0000 O   0  0  0  0  0  0  0  0  0  0  0  0
   24.4037   -3.3206    0.0000 C   0  0  0  0  0  0  0  0  0  0  0  0
   26.3539   -2.4509    0.0000 C   0  0  0  0  0  0  0  0  0  0  0  0
   25.6950   -3.6105    0.0000 C   0  0  0  0  0  0  0  0  0  0  0  0
   26.2221   -4.8228    0.0000 O   0  0  0  0  0  0  0  0  0  0  0  0
   23.4022   -4.2166    0.0000 O   0  0  0  0  0  0  0  0  0  0  0  0
   23.0860   -1.3440    0.0000 C   0  0  0  0  0  0  0  0  0  0  0  0
   23.0860    0.0000    0.0000 O   0  0  0  0  0  0  0  0  0  0  0  0
   21.9528   -2.0029    0.0000 C   0  0  0  0  0  0  0  0  0  0  0  0
   20.7932   -1.3440    0.0000 O   0  0  0  0  0  0  0  0  0  0  0  0
   19.6336   -2.0029    0.0000 C   0  0  0  0  0  0  0  0  0  0  0  0
   18.4741   -1.3440    0.0000 C   0  0  0  0  0  0  0  0  0  0  0  0
   19.6336   -3.3469    0.0000 O   0  0  0  0  0  0  0  0  0  0  0  0
   17.3145   -2.0029    0.0000 C   0  0  0  0  0  0  0  0  0  0  0  0
   16.1813   -1.3440    0.0000 C   0  0  0  0  0  0  0  0  0  0  0  0
   15.0217   -2.0029    0.0000 C   0  0  0  0  0  0  0  0  0  0  0  0
   13.8621   -1.3440    0.0000 C   0  0  0  0  0  0  0  0  0  0  0  0
   12.7026   -2.0029    0.0000 C   0  0  0  0  0  0  0  0  0  0  0  0
   11.5430   -1.3440    0.0000 C   0  0  0  0  0  0  0  0  0  0  0  0
   10.4098   -2.0029    0.0000 C   0  0  0  0  0  0  0  0  0  0  0  0
    9.2502   -1.3440    0.0000 C   0  0  0  0  0  0  0  0  0  0  0  0
    8.0906   -2.0029    0.0000 C   0  0  0  0  0  0  0  0  0  0  0  0
    6.9311   -1.3440    0.0000 C   0  0  0  0  0  0  0  0  0  0  0  0
    5.7715   -2.0029    0.0000 C   0  0  0  0  0  0  0  0  0  0  0  0
    4.6383   -1.3440    0.0000 C   0  0  0  0  0  0  0  0  0  0  0  0
    3.4787   -2.0029    0.0000 C   0  0  0  0  0  0  0  0  0  0  0  0
    2.3191   -1.3440    0.0000 C   0  0  0  0  0  0  0  0  0  0  0  0
    1.1596   -2.0029    0.0000 C   0  0  0  0  0  0  0  0  0  0  0  0
    0.0000   -1.3440    0.0000 C   0  0  0  0  0  0  0  0  0  0  0  0
  1  2  1  1  0  0  0
  1  3  1  0  0  0  0
  1  8  1  0  0  0  0
  2  4  1  0  0  0  0
  3  5  1  0  0  0  0
  3  7  1  1  0  0  0
  4  5  1  0  0  0  0
  5  6  1  6  0  0  0
  8  9  1  1  0  0  0
  8 10  1  0  0  0  0
 10 11  1  0  0  0  0
 11 12  1  0  0  0  0
 12 13  1  0  0  0  0
 12 14  2  0  0  0  0
 13 15  1  0  0  0  0
 15 16  1  0  0  0  0
 16 17  1  0  0  0  0
 17 18  1  0  0  0  0
 18 19  1  0  0  0  0
 19 20  1  0  0  0  0
 20 21  1  0  0  0  0
 21 22  1  0  0  0  0
 22 23  1  0  0  0  0
 23 24  1  0  0  0  0
 24 25  1  0  0  0  0
 25 26  1  0  0  0  0
 26 27  1  0  0  0  0
 27 28  1  0  0  0  0
 28 29  1  0  0  0  0
 29 30  1  0  0  0  0
M  END
> <ID>
5129

> <Formula>
C24H46O6

> <FW>
430.6184

> <DSSTox_CID>
7396

> <DSSTox_RID>
78436

> <DSSTox_GSID>
27396

> <DSSTox_FileID_Sort>
3119

> <TS_ChemName>
Sorbitan, monooctadecanoate

> <TS_ChemName_Synonyms>
Sorbitan, monooctadecanoate (Sorbitan monostearate)

> <TS_CASRN>
1338-41-6

> <CASRN_ChemName_Relationship>
primary

> <TS_Description>
single chemical compound

> <ChemNote>
stereochem

> <STRUCTURE_Shown>
tested chemical

> <STRUCTURE_Formula>
C24H46O6

> <STRUCTURE_MW>
430.6184

> <STRUCTURE_ChemType>
defined organic

> <STRUCTURE_DefinedOrganicForm>
parent

> <STRUCTURE_IUPAC>
1,4-anhydro-6-O-octadecanoyl-D-glucitol

> <STRUCTURE_SMILES>
O[C@H](COC(=O)CCCCCCCCCCCCCCCCC)[C@H]1OC[C@H](O)[C@H]1O

> <STRUCTURE_SMILES_Desalt>
O[C@H](COC(=O)CCCCCCCCCCCCCCCCC)[C@H]1OC[C@H](O)[C@H]1O

> <Substance_modify_yyyymmdd>
20080429

$$$$
