133814-19-4
ChemmineR-0915142007XD

 74 79  0  0  1  0  0  0  0  0  2 V2000
   25.4501   -6.6826    0.0000 N   0  3  0  0  0  0  0  0  0  0  0  0
   26.6056   -6.0268    0.0000 C   0  0  0  0  0  0  0  0  0  0  0  0
   25.4501   -8.0254    0.0000 C   0  0  0  0  0  0  0  0  0  0  0  0
   27.7610   -6.6826    0.0000 C   0  0  0  0  0  0  0  0  0  0  0  0
   26.6056   -8.6812    0.0000 C   0  0  0  0  0  0  0  0  0  0  0  0
   27.7610   -8.0254    0.0000 C   0  0  0  0  0  0  0  0  0  0  0  0
   28.9476   -6.0268    0.0000 C   0  0  0  0  0  0  0  0  0  0  0  0
   28.9476   -8.6812    0.0000 C   0  0  0  0  0  0  0  0  0  0  0  0
   30.1030   -6.6826    0.0000 C   0  0  0  0  0  0  0  0  0  0  0  0
   30.1030   -8.0254    0.0000 C   0  0  0  0  0  0  0  0  0  0  0  0
   31.2272   -6.0268    0.0000 O   0  0  0  0  0  0  0  0  0  0  0  0
   31.2272   -8.6812    0.0000 O   0  0  0  0  0  0  0  0  0  0  0  0
   31.2272   -4.7153    0.0000 C   0  0  0  0  0  0  0  0  0  0  0  0
   31.1959  -10.0552    0.0000 C   0  0  0  0  0  0  0  0  0  0  0  0
   24.2947   -6.0268    0.0000 C   0  0  0  0  0  0  0  0  0  0  0  0
   23.1393   -6.6826    0.0000 C   0  0  0  0  0  0  0  0  0  0  0  0
   22.0152   -6.0268    0.0000 C   0  0  0  0  0  0  0  0  0  0  0  0
   20.8285   -6.6826    0.0000 O   0  0  0  0  0  0  0  0  0  0  0  0
   19.6731   -6.0268    0.0000 C   0  0  0  0  0  0  0  0  0  0  0  0
   18.5177   -6.6826    0.0000 C   0  0  0  0  0  0  0  0  0  0  0  0
   17.3623   -6.0268    0.0000 C   0  0  0  0  0  0  0  0  0  0  0  0
   16.1757   -6.6826    0.0000 C   0  0  0  0  0  0  0  0  0  0  0  0
   24.8881   -5.6833    0.0000 C   0  0  0  0  0  0  0  0  0  0  0  0
   19.6731   -4.6841    0.0000 O   0  0  0  0  0  0  0  0  0  0  0  0
   15.0515   -6.0268    0.0000 C   0  0  0  0  0  0  0  0  0  0  0  0
    3.4974   -6.0268    0.0000 C   0  0  0  0  0  0  0  0  0  0  0  0
    4.6216   -6.6826    0.0000 C   0  0  0  0  0  0  0  0  0  0  0  0
    3.4974   -4.6841    0.0000 C   0  0  0  0  0  0  0  0  0  0  0  0
    2.3108   -6.6826    0.0000 C   0  0  0  0  0  0  0  0  0  0  0  0
    5.7770   -6.0268    0.0000 N   0  3  0  0  0  0  0  0  0  0  0  0
    2.3108   -3.9971    0.0000 C   0  0  0  0  0  0  0  0  0  0  0  0
    4.6216   -3.9971    0.0000 C   0  0  0  0  0  0  0  0  0  0  0  0
    1.1554   -6.0268    0.0000 C   0  0  0  0  0  0  0  0  0  0  0  0
    5.7770   -4.6841    0.0000 C   0  0  0  0  0  0  0  0  0  0  0  0
    6.9324   -6.6826    0.0000 C   0  0  0  0  0  0  0  0  0  0  0  0
    1.1554   -4.6841    0.0000 C   0  0  0  0  0  0  0  0  0  0  0  0
    0.0000   -6.6826    0.0000 O   0  0  0  0  0  0  0  0  0  0  0  0
    8.0878   -6.0268    0.0000 C   0  0  0  0  0  0  0  0  0  0  0  0
    0.0312   -3.9971    0.0000 O   0  0  0  0  0  0  0  0  0  0  0  0
    0.0000   -8.0254    0.0000 C   0  0  0  0  0  0  0  0  0  0  0  0
    9.2745   -6.6826    0.0000 C   0  0  0  0  0  0  0  0  0  0  0  0
    0.0312   -2.6855    0.0000 C   0  0  0  0  0  0  0  0  0  0  0  0
   10.4299   -6.0268    0.0000 O   0  0  0  0  0  0  0  0  0  0  0  0
   11.5853   -6.6826    0.0000 C   0  0  0  0  0  0  0  0  0  0  0  0
   12.7407   -6.0268    0.0000 C   0  0  0  0  0  0  0  0  0  0  0  0
   13.8649   -6.6826    0.0000 C   0  0  0  0  0  0  0  0  0  0  0  0
    6.3703   -7.0261    0.0000 C   0  0  0  0  0  0  0  0  0  0  0  0
   11.5853   -8.0254    0.0000 O   0  0  0  0  0  0  0  0  0  0  0  0
   26.6056   -4.6841    0.0000 C   0  0  0  0  0  0  0  0  0  0  0  0
   25.4501   -3.9971    0.0000 C   0  0  0  0  0  0  0  0  0  0  0  0
   25.4501   -2.6855    0.0000 C   0  0  0  0  0  0  0  0  0  0  0  0
   24.2947   -4.6841    0.0000 C   0  0  0  0  0  0  0  0  0  0  0  0
   24.2947   -2.0298    0.0000 C   0  0  0  0  0  0  0  0  0  0  0  0
   23.1393   -3.9971    0.0000 C   0  0  0  0  0  0  0  0  0  0  0  0
   23.1393   -2.6855    0.0000 C   0  0  0  0  0  0  0  0  0  0  0  0
   24.2947   -0.6870    0.0000 O   0  0  0  0  0  0  0  0  0  0  0  0
   25.4501    0.0000    0.0000 C   0  0  0  0  0  0  0  0  0  0  0  0
   21.9839   -2.0298    0.0000 O   0  0  0  0  0  0  0  0  0  0  0  0
   21.9839   -0.6870    0.0000 C   0  0  0  0  0  0  0  0  0  0  0  0
   21.9839   -4.6841    0.0000 O   0  0  0  0  0  0  0  0  0  0  0  0
   20.8285   -3.9971    0.0000 C   0  0  0  0  0  0  0  0  0  0  0  0
    4.6216   -8.0254    0.0000 C   0  0  0  0  0  0  0  0  0  0  0  0
    5.7770   -8.6812    0.0000 C   0  0  0  0  0  0  0  0  0  0  0  0
    5.7770  -10.0552    0.0000 C   0  0  0  0  0  0  0  0  0  0  0  0
    6.9324   -8.0254    0.0000 C   0  0  0  0  0  0  0  0  0  0  0  0
    6.9324  -10.7109    0.0000 C   0  0  0  0  0  0  0  0  0  0  0  0
    8.0878   -8.6812    0.0000 C   0  0  0  0  0  0  0  0  0  0  0  0
    8.0878  -10.0552    0.0000 C   0  0  0  0  0  0  0  0  0  0  0  0
    6.9324  -12.0225    0.0000 O   0  0  0  0  0  0  0  0  0  0  0  0
    5.7770  -12.7095    0.0000 C   0  0  0  0  0  0  0  0  0  0  0  0
    9.2745  -10.7109    0.0000 O   0  0  0  0  0  0  0  0  0  0  0  0
    9.2745  -12.0225    0.0000 C   0  0  0  0  0  0  0  0  0  0  0  0
    9.2745   -8.0254    0.0000 O   0  0  0  0  0  0  0  0  0  0  0  0
   10.4299   -8.6812    0.0000 C   0  0  0  0  0  0  0  0  0  0  0  0
  1  2  1  0  0  0  0
  1  3  1  0  0  0  0
  1 15  1  0  0  0  0
  1 23  1  0  0  0  0
  2  4  1  0  0  0  0
  2 49  1  6  0  0  0
  3  5  1  0  0  0  0
  4  6  2  0  0  0  0
  4  7  1  0  0  0  0
  5  6  1  0  0  0  0
  6  8  1  0  0  0  0
  7  9  2  0  0  0  0
  8 10  2  0  0  0  0
  9 11  1  0  0  0  0
  9 10  1  0  0  0  0
 10 12  1  0  0  0  0
 11 13  1  0  0  0  0
 12 14  1  0  0  0  0
 15 16  1  0  0  0  0
 16 17  1  0  0  0  0
 17 18  1  0  0  0  0
 18 19  1  0  0  0  0
 19 20  1  0  0  0  0
 19 24  2  0  0  0  0
 20 21  1  0  0  0  0
 21 22  1  0  0  0  0
 22 25  2  0  0  0  0
 25 46  1  0  0  0  0
 26 27  1  0  0  0  0
 26 28  1  0  0  0  0
 26 29  2  0  0  0  0
 27 30  1  0  0  0  0
 27 62  1  6  0  0  0
 28 31  2  0  0  0  0
 28 32  1  0  0  0  0
 29 33  1  0  0  0  0
 30 34  1  0  0  0  0
 30 35  1  0  0  0  0
 30 47  1  0  0  0  0
 31 36  1  0  0  0  0
 32 34  1  0  0  0  0
 33 37  1  0  0  0  0
 33 36  2  0  0  0  0
 35 38  1  0  0  0  0
 36 39  1  0  0  0  0
 37 40  1  0  0  0  0
 38 41  1  0  0  0  0
 39 42  1  0  0  0  0
 41 43  1  0  0  0  0
 43 44  1  0  0  0  0
 44 45  1  0  0  0  0
 44 48  2  0  0  0  0
 45 46  1  0  0  0  0
 49 50  1  0  0  0  0
 50 51  1  0  0  0  0
 50 52  2  0  0  0  0
 51 53  2  0  0  0  0
 52 54  1  0  0  0  0
 53 55  1  0  0  0  0
 53 56  1  0  0  0  0
 54 55  2  0  0  0  0
 54 60  1  0  0  0  0
 55 58  1  0  0  0  0
 56 57  1  0  0  0  0
 58 59  1  0  0  0  0
 60 61  1  0  0  0  0
 62 63  1  0  0  0  0
 63 64  1  0  0  0  0
 63 65  2  0  0  0  0
 64 66  2  0  0  0  0
 65 67  1  0  0  0  0
 66 68  1  0  0  0  0
 66 69  1  0  0  0  0
 67 68  2  0  0  0  0
 67 73  1  0  0  0  0
 68 71  1  0  0  0  0
 69 70  1  0  0  0  0
 71 72  1  0  0  0  0
 73 74  1  0  0  0  0
M  END
> <ID>
13390

> <Formula>
C58H80N2O14

> <FW>
1029.2597

> <DSSTox_CID>
28308

> <DSSTox_RID>
82751

> <DSSTox_GSID>
48333

> <DSSTox_FileID_Sort>
7428

> <TS_ChemName>
Mivacurium

> <TS_ChemName_Synonyms>


> <TS_CASRN>
133814-19-4

> <CASRN_ChemName_Relationship>
primary

> <TS_Description>
single chemical compound

> <ChemNote>
ammonium, stereochem

> <STRUCTURE_Shown>
tested chemical

> <STRUCTURE_Formula>
C58H80N2O14

> <STRUCTURE_MW>
1029.2597

> <STRUCTURE_ChemType>
defined organic

> <STRUCTURE_DefinedOrganicForm>
parent

> <STRUCTURE_IUPAC>
(1R,1'R)-2,2'-{[(4E)-1,8-dioxooct-4-ene-1,8-diyl]bis(oxypropane-3,1-diyl)}bis[6,7-dimethoxy-2-methyl-1-(3,4,5-trimethoxybenzyl)-1,2,3,4-tetrahydroisoquinolinium]

> <STRUCTURE_SMILES>
COc1cc(cc(OC)c1OC)C[C@@H]5c6cc(OC)c(OC)cc6CC[N+]5(C)CCCOC(=O)CC\C=C\CCC(=O)OCCC[N+]3(C)CCc4cc(OC)c(OC)cc4[C@H]3Cc2cc(OC)c(OC)c(OC)c2

> <STRUCTURE_SMILES_Desalt>
COc1cc(cc(OC)c1OC)C[C@@H]5c6cc(OC)c(OC)cc6CC[N+]5(C)CCCOC(=O)CC\C=C\CCC(=O)OCCC[N+]3(C)CCc4cc(OC)c(OC)cc4[C@H]3Cc2cc(OC)c(OC)c(OC)c2

> <Substance_modify_yyyymmdd>
20110808

$$$$
