134-20-3
ChemmineR-0915142007XD

 11 11  0  0  0  0  0  0  0  0  1 V2000
    0.0000   -1.1543    0.0000 O   0  0  0  0  0  0  0  0  0  0  0  0
    0.6656   -2.3039    0.0000 C   0  0  0  0  0  0  0  0  0  0  0  0
    0.0000   -3.4582    0.0000 O   0  0  0  0  0  0  0  0  0  0  0  0
    0.6656   -4.6079    0.0000 C   0  0  0  0  0  0  0  0  0  0  0  0
    1.9968   -2.3039    0.0000 C   0  0  0  0  0  0  0  0  0  0  0  0
    2.6577   -1.1543    0.0000 C   0  0  0  0  0  0  0  0  0  0  0  0
    1.9968    0.0000    0.0000 N   0  0  0  0  0  0  0  0  0  0  0  0
    3.9889   -1.1543    0.0000 C   0  0  0  0  0  0  0  0  0  0  0  0
    4.6544   -2.3039    0.0000 C   0  0  0  0  0  0  0  0  0  0  0  0
    3.9889   -3.4582    0.0000 C   0  0  0  0  0  0  0  0  0  0  0  0
    2.6577   -3.4582    0.0000 C   0  0  0  0  0  0  0  0  0  0  0  0
  1  2  2  0  0  0  0
  2  3  1  0  0  0  0
  2  5  1  0  0  0  0
  3  4  1  0  0  0  0
  5  6  2  0  0  0  0
  5 11  1  0  0  0  0
  6  7  1  0  0  0  0
  6  8  1  0  0  0  0
  8  9  2  0  0  0  0
  9 10  1  0  0  0  0
 10 11  2  0  0  0  0
M  END
> <ID>
4269

> <Formula>
C8H9NO2

> <FW>
151.1626

> <DSSTox_CID>
5567

> <DSSTox_RID>
77832

> <DSSTox_GSID>
25567

> <DSSTox_FileID_Sort>
2515

> <TS_ChemName>
Methyl 2-aminobenzoate

> <TS_ChemName_Synonyms>
Methyl 2-aminobenzoate (Methyl anthranilate) (Benzoic acid, 2-amino-, methyl ester)

> <TS_CASRN>
134-20-3

> <CASRN_ChemName_Relationship>
primary

> <TS_Description>
single chemical compound

> <ChemNote>


> <STRUCTURE_Shown>
tested chemical

> <STRUCTURE_Formula>
C8H9NO2

> <STRUCTURE_MW>
151.1626

> <STRUCTURE_ChemType>
defined organic

> <STRUCTURE_DefinedOrganicForm>
parent

> <STRUCTURE_IUPAC>
methyl 2-aminobenzoate

> <STRUCTURE_SMILES>
Nc1ccccc1C(=O)OC

> <STRUCTURE_SMILES_Desalt>
Nc1ccccc1C(=O)OC

> <Substance_modify_yyyymmdd>
20080429

$$$$
