134-30-5
ChemmineR-0915142007XD

 24 24  0  0  0  0  0  0  0  0  1 V2000
    2.2978   -2.0042    0.0000 C   0  0  0  0  0  0  0  0  0  0  0  0
    3.4467   -1.3404    0.0000 N   0  0  0  0  0  0  0  0  0  0  0  0
    1.1489   -1.3404    0.0000 C   0  0  0  0  0  0  0  0  0  0  0  0
    2.2978   -3.3319    0.0000 C   0  0  0  0  0  0  0  0  0  0  0  0
    1.1489    0.0000    0.0000 O   0  0  0  0  0  0  0  0  0  0  0  0
    0.0000   -3.3319    0.0000 C   0  0  0  0  0  0  0  0  0  0  0  0
    4.5957   -2.0170    0.0000 C   0  0  0  0  0  0  0  0  0  0  0  0
    0.0000   -2.0170    0.0000 C   0  0  0  0  0  0  0  0  0  0  0  0
    1.1489   -3.9957    0.0000 C   0  0  0  0  0  0  0  0  0  0  0  0
    3.4467   -3.9957    0.0000 C   0  0  0  0  0  0  0  0  0  0  0  0
    4.5957   -3.3319    0.0000 C   0  0  0  0  0  0  0  0  0  0  0  0
    9.4594   -2.5021    0.0000 C   0  0  0  0  0  0  0  0  0  0  0  0
   10.7870   -2.5021    0.0000 C   0  0  0  0  0  0  0  0  0  0  0  0
    8.1062   -2.5021    0.0000 C   0  0  0  0  0  0  0  0  0  0  0  0
    9.4594   -3.8297    0.0000 C   0  0  0  0  0  0  0  0  0  0  0  0
    8.3105   -4.4935    0.0000 O   0  0  0  0  0  0  0  0  0  0  0  0
    7.4424   -1.3659    0.0000 C   0  0  0  0  0  0  0  0  0  0  0  0
    6.1020   -1.3659    0.0000 O   0  0  0  0  0  0  0  0  0  0  0  0
    8.1062   -0.1915    0.0000 O   0  0  0  0  0  0  0  0  0  0  0  0
   11.4381   -1.3404    0.0000 C   0  0  0  0  0  0  0  0  0  0  0  0
   10.7743   -0.1915    0.0000 O   0  0  0  0  0  0  0  0  0  0  0  0
   12.7657   -1.3404    0.0000 O   0  0  0  0  0  0  0  0  0  0  0  0
    9.4594   -1.1617    0.0000 O   0  0  0  0  0  0  0  0  0  0  0  0
   10.6083   -4.4935    0.0000 O   0  0  0  0  0  0  0  0  0  0  0  0
  1  2  1  0  0  0  0
  1  3  1  0  0  0  0
  1  4  2  0  0  0  0
  2  7  2  0  0  0  0
  3  5  1  0  0  0  0
  3  8  2  0  0  0  0
  4  9  1  0  0  0  0
  4 10  1  0  0  0  0
  6  9  2  0  0  0  0
  6  8  1  0  0  0  0
  7 11  1  0  0  0  0
 10 11  2  0  0  0  0
 12 15  1  0  0  0  0
 12 14  1  0  0  0  0
 12 23  1  0  0  0  0
 12 13  1  0  0  0  0
 13 20  1  0  0  0  0
 14 17  1  0  0  0  0
 15 16  1  0  0  0  0
 15 24  2  0  0  0  0
 17 18  1  0  0  0  0
 17 19  2  0  0  0  0
 20 21  2  0  0  0  0
 20 22  1  0  0  0  0
M  END
> <ID>
7697

> <Formula>
C15H15NO8

> <FW>
337.2815 (145.1580+192.1235)

> <DSSTox_CID>
20326

> <DSSTox_RID>
79479

> <DSSTox_GSID>
40326

> <DSSTox_FileID_Sort>
4161

> <TS_ChemName>
8-Hydroxyquinoline citrate

> <TS_ChemName_Synonyms>


> <TS_CASRN>
134-30-5

> <CASRN_ChemName_Relationship>
primary

> <TS_Description>
single chemical compound

> <ChemNote>
parent [148-24-3]

> <STRUCTURE_Shown>
tested chemical

> <STRUCTURE_Formula>
C15H15NO8

> <STRUCTURE_MW>
337.2815

> <STRUCTURE_ChemType>
defined organic

> <STRUCTURE_DefinedOrganicForm>
complex

> <STRUCTURE_IUPAC>
quinolin-8-ol 2-hydroxypropane-1,2,3-tricarboxylate (1:1)

> <STRUCTURE_SMILES>
O=C(O)C(O)(CC(=O)O)CC(=O)O.Oc1cccc2cccnc12

> <STRUCTURE_SMILES_Desalt>
OC(=O)CC(O)(CC(O)=O)C(=O)O

> <Substance_modify_yyyymmdd>
20080429

$$$$
