134-03-2
ChemmineR-0915142007XD

 13 12  0  0  1  0  0  0  0  0  2 V2000
    3.5174   -1.7033    0.0000 C    0  0  0  0  0  0  0  0  0  0  0  0
    4.5975   -0.9140    0.0000 O    0  0  0  0  0  0  0  0  0  0  0  0
    3.9328   -2.9704    0.0000 C    0  0  0  0  0  0  0  0  0  0  0  0
    5.6707   -1.6894    0.0000 C    0  0  0  0  0  0  0  0  0  0  0  0
    5.2553   -2.9565    0.0000 C    0  0  0  0  0  0  0  0  0  0  0  0
    3.1643   -4.0505    0.0000 O    0  5  0  0  0  0  0  0  0  0  0  0
    6.0585   -4.0297    0.0000 O    0  0  0  0  0  0  0  0  0  0  0  0
    6.9240   -1.2879    0.0000 O    0  0  0  0  0  0  0  0  0  0  0  0
    2.2503   -1.3017    0.0000 C    0  0  0  0  0  0  0  0  0  0  0  0
    1.2671   -2.2018    0.0000 C    0  0  0  0  0  0  0  0  0  0  0  0
    1.9733    0.0000    0.0000 O    0  0  0  0  0  0  0  0  0  0  0  0
    0.0000   -1.7864    0.0000 O    0  0  0  0  0  0  0  0  0  0  0  0
    1.3848   -4.2098    0.0000 Na   0  3  0  0  0  0  0  0  0  0  0  0
  1  2  1  1  0  0  0
  1  3  1  0  0  0  0
  1  9  1  0  0  0  0
  2  4  1  0  0  0  0
  3  5  2  0  0  0  0
  3  6  1  0  0  0  0
  4  5  1  0  0  0  0
  4  8  2  0  0  0  0
  5  7  1  0  0  0  0
  9 10  1  0  0  0  0
  9 11  1  6  0  0  0
 10 12  1  0  0  0  0
M  END
> <ID>
103

> <Formula>
C6H7NaO6

> <FW>
198.1059 (175.1167+22.9892)

> <DSSTox_CID>
105

> <DSSTox_RID>
75369

> <DSSTox_GSID>
20105

> <DSSTox_FileID_Sort>
53

> <TS_ChemName>
Sodium L-ascorbate

> <TS_ChemName_Synonyms>
(+)-Sodium L-ascorbate (Sodium ascorbate) (l-Ascorbate, sodium)

> <TS_CASRN>
134-03-2

> <CASRN_ChemName_Relationship>
primary

> <TS_Description>
single chemical compound

> <ChemNote>
stereochem; parent [50-81-7]

> <STRUCTURE_Shown>
tested chemical

> <STRUCTURE_Formula>
C6H7NaO6

> <STRUCTURE_MW>
198.1059

> <STRUCTURE_ChemType>
defined organic

> <STRUCTURE_DefinedOrganicForm>
salt

> <STRUCTURE_IUPAC>
sodium (2R)-2-[(1S)-1,2-dihydroxyethyl]-4-hydroxy-5-oxo-2,5-dihydrofuran-3-olate

> <STRUCTURE_SMILES>
[Na+].OC=1C(=O)O[C@H]([C@@H](O)CO)C=1[O-]

> <STRUCTURE_SMILES_Desalt>
OC=1C(=O)O[C@H]([C@@H](O)CO)C=1O

> <Substance_modify_yyyymmdd>
20080429

$$$$
