134-31-6
ChemmineR-0915142007XD

 27 28  0  0  0  0  0  0  0  0  1 V2000
    7.4513   -5.2374    0.0000 O   0  0  0  0  0  0  0  0  0  0  0  0
    6.1182   -5.2374    0.0000 S   0  0  0  0  0  0  0  0  0  0  0  0
    4.8088   -5.2374    0.0000 O   0  0  0  0  0  0  0  0  0  0  0  0
    6.1182   -3.9161    0.0000 O   0  0  0  0  0  0  0  0  0  0  0  0
    6.1182   -6.5705    0.0000 O   0  0  0  0  0  0  0  0  0  0  0  0
    1.1546   -0.0952    0.0000 O   0  0  0  0  0  0  0  0  0  0  0  0
    1.1546   -1.4284    0.0000 C   0  0  0  0  0  0  0  0  0  0  0  0
    2.3092   -2.0830    0.0000 C   0  0  0  0  0  0  0  0  0  0  0  0
    2.3092   -3.4162    0.0000 C   0  0  0  0  0  0  0  0  0  0  0  0
    3.4638   -4.0709    0.0000 C   0  0  0  0  0  0  0  0  0  0  0  0
    4.6184   -3.4043    0.0000 C   0  0  0  0  0  0  0  0  0  0  0  0
    4.6184   -2.0711    0.0000 C   0  0  0  0  0  0  0  0  0  0  0  0
    3.4638   -1.4165    0.0000 N   0  0  0  0  0  0  0  0  0  0  0  0
    1.1546   -4.0828    0.0000 C   0  0  0  0  0  0  0  0  0  0  0  0
    0.0000   -3.4281    0.0000 C   0  0  0  0  0  0  0  0  0  0  0  0
    0.0000   -2.0949    0.0000 C   0  0  0  0  0  0  0  0  0  0  0  0
    8.4393    0.0000    0.0000 O   0  0  0  0  0  0  0  0  0  0  0  0
    8.4393   -1.3331    0.0000 C   0  0  0  0  0  0  0  0  0  0  0  0
    9.5939   -1.9878    0.0000 C   0  0  0  0  0  0  0  0  0  0  0  0
    9.5939   -3.3210    0.0000 C   0  0  0  0  0  0  0  0  0  0  0  0
   10.7485   -3.9756    0.0000 C   0  0  0  0  0  0  0  0  0  0  0  0
   11.9031   -3.2972    0.0000 C   0  0  0  0  0  0  0  0  0  0  0  0
   11.9031   -1.9759    0.0000 C   0  0  0  0  0  0  0  0  0  0  0  0
   10.7485   -1.3212    0.0000 N   0  0  0  0  0  0  0  0  0  0  0  0
    8.4393   -3.9875    0.0000 C   0  0  0  0  0  0  0  0  0  0  0  0
    7.2847   -3.3329    0.0000 C   0  0  0  0  0  0  0  0  0  0  0  0
    7.2847   -1.9997    0.0000 C   0  0  0  0  0  0  0  0  0  0  0  0
  1  2  1  0  0  0  0
  2  3  1  0  0  0  0
  2  4  2  0  0  0  0
  2  5  2  0  0  0  0
  6  7  1  0  0  0  0
  7  8  2  0  0  0  0
  7 16  1  0  0  0  0
  8  9  1  0  0  0  0
  8 13  1  0  0  0  0
  9 10  1  0  0  0  0
  9 14  2  0  0  0  0
 10 11  2  0  0  0  0
 11 12  1  0  0  0  0
 12 13  2  0  0  0  0
 14 15  1  0  0  0  0
 15 16  2  0  0  0  0
 17 18  1  0  0  0  0
 18 19  2  0  0  0  0
 18 27  1  0  0  0  0
 19 20  1  0  0  0  0
 19 24  1  0  0  0  0
 20 21  1  0  0  0  0
 20 25  2  0  0  0  0
 21 22  2  0  0  0  0
 22 23  1  0  0  0  0
 23 24  2  0  0  0  0
 25 26  1  0  0  0  0
 26 27  2  0  0  0  0
M  END
> <ID>
4196

> <Formula>
C18H16N2O6S

> <FW>
388.3944 (98.0785+145.1580+145.1580)

> <DSSTox_CID>
5436

> <DSSTox_RID>
77785

> <DSSTox_GSID>
25436

> <DSSTox_FileID_Sort>
2468

> <TS_ChemName>
8-Hydroxyquinoline sulfate

> <TS_ChemName_Synonyms>


> <TS_CASRN>
134-31-6

> <CASRN_ChemName_Relationship>
primary

> <TS_Description>
single chemical compound

> <ChemNote>
parent [148-24-3]

> <STRUCTURE_Shown>
tested chemical

> <STRUCTURE_Formula>
C18H16N2O6S

> <STRUCTURE_MW>
388.3944

> <STRUCTURE_ChemType>
defined organic

> <STRUCTURE_DefinedOrganicForm>
complex

> <STRUCTURE_IUPAC>
quinolin-8-ol sulfate (2:1)

> <STRUCTURE_SMILES>
O=S(=O)(O)O.Oc1cccc2cccnc12.Oc1cccc2cccnc12

> <STRUCTURE_SMILES_Desalt>
Oc1cccc2cccnc12

> <Substance_modify_yyyymmdd>
20110530

$$$$
