134-36-1
ChemmineR-0915142007XD

 55 57  0  0  1  0  0  0  0  0  1 V2000
    4.7427   -7.2212    0.0000 C   0  0  0  0  0  0  0  0  0  0  0  0
    2.5187   -7.2212    0.0000 C   0  0  0  0  0  0  0  0  0  0  0  0
    1.4067   -3.9924    0.0000 C   0  0  0  0  0  0  0  0  0  0  0  0
    3.6575   -7.8777    0.0000 C   0  0  0  0  0  0  0  0  0  0  0  0
    5.8547   -5.3054    0.0000 C   0  0  0  0  0  0  0  0  0  0  0  0
    4.7427   -5.9485    0.0000 C   0  0  0  0  0  0  0  0  0  0  0  0
    2.5187   -2.0766    0.0000 C   0  0  0  0  0  0  0  0  0  0  0  0
    2.5187   -5.9485    0.0000 O   0  0  0  0  0  0  0  0  0  0  0  0
    2.5187   -3.3628    0.0000 C   0  0  0  0  0  0  0  0  0  0  0  0
    3.6709   -1.3531    0.0000 C   0  0  0  0  0  0  0  0  0  0  0  0
    7.0069   -5.9887    0.0000 O   0  0  0  0  0  0  0  0  0  0  0  0
    5.8547   -3.9924    0.0000 C   0  0  0  0  0  0  0  0  0  0  0  0
    1.4067   -5.3054    0.0000 C   0  0  0  0  0  0  0  0  0  0  0  0
    5.8681   -7.9179    0.0000 O   0  0  0  0  0  0  0  0  0  0  0  0
    4.7427   -2.0766    0.0000 C   0  0  0  0  0  0  0  0  0  0  0  0
    4.7427   -3.3628    0.0000 C   0  0  0  0  0  0  0  0  0  0  0  0
    1.4067   -7.9179    0.0000 O   0  0  0  0  0  0  0  0  0  0  0  0
    3.6843    0.0000    0.0000 O   0  0  0  0  0  0  0  0  0  0  0  0
    1.4067   -2.6661    0.0000 O   0  0  0  0  0  0  0  0  0  0  0  0
    5.8547   -2.6661    0.0000 O   0  0  0  0  0  0  0  0  0  0  0  0
    3.6575   -4.0192    0.0000 O   0  0  0  0  0  0  0  0  0  0  0  0
    0.2947   -3.2824    0.0000 C   0  0  0  0  0  0  0  0  0  0  0  0
    3.3494   -9.1505    0.0000 C   0  0  0  0  0  0  0  0  0  0  0  0
    3.6575   -5.2920    0.0000 C   0  0  0  0  0  0  0  0  0  0  0  0
    1.4067   -1.4067    0.0000 C   0  0  0  0  0  0  0  0  0  0  0  0
    6.7389   -3.7111    0.0000 C   0  0  0  0  0  0  0  0  0  0  0  0
    0.3081   -5.9887    0.0000 C   0  0  0  0  0  0  0  0  0  0  0  0
    5.5733   -1.0986    0.0000 C   0  0  0  0  0  0  0  0  0  0  0  0
    0.0000   -7.2748    0.0000 C   0  0  0  0  0  0  0  0  0  0  0  0
    7.0605  -11.3342    0.0000 C   0  0  0  0  0  0  0  0  0  0  0  0
    5.8681  -12.0309    0.0000 C   0  0  0  0  0  0  0  0  0  0  0  0
    7.0605   -9.9677    0.0000 C   0  0  0  0  0  0  0  0  0  0  0  0
    4.6757  -11.3342    0.0000 C   0  0  0  0  0  0  0  0  0  0  0  0
    5.8681   -9.2844    0.0000 C   0  0  0  0  0  0  0  0  0  0  0  0
    4.6757   -9.9677    0.0000 O   0  0  0  0  0  0  0  0  0  0  0  0
    8.4270  -11.3208    0.0000 O   0  0  0  0  0  0  0  0  0  0  0  0
    5.8681  -13.3975    0.0000 O   0  0  0  0  0  0  0  0  0  0  0  0
    7.4490  -12.8080    0.0000 C   0  0  0  0  0  0  0  0  0  0  0  0
    9.1371  -12.4998    0.0000 C   0  0  0  0  0  0  0  0  0  0  0  0
    3.4833  -12.0309    0.0000 C   0  0  0  0  0  0  0  0  0  0  0  0
   10.4098   -4.7829    0.0000 C   0  0  0  0  0  0  0  0  0  0  0  0
   11.1199   -5.9887    0.0000 C   0  0  0  0  0  0  0  0  0  0  0  0
    9.0433   -4.7829    0.0000 C   0  0  0  0  0  0  0  0  0  0  0  0
   10.4098   -7.1676    0.0000 C   0  0  0  0  0  0  0  0  0  0  0  0
    8.3734   -5.9887    0.0000 C   0  0  0  0  0  0  0  0  0  0  0  0
    9.0433   -7.1676    0.0000 O   0  0  0  0  0  0  0  0  0  0  0  0
   11.1199   -8.3466    0.0000 C   0  0  0  0  0  0  0  0  0  0  0  0
    8.3734   -3.6039    0.0000 O   0  0  0  0  0  0  0  0  0  0  0  0
   11.1199   -3.6039    0.0000 N   0  0  0  0  0  0  0  0  0  0  0  0
   12.4730   -3.6039    0.0000 C   0  0  0  0  0  0  0  0  0  0  0  0
   10.4098   -2.4249    0.0000 C   0  0  0  0  0  0  0  0  0  0  0  0
    8.3734   -2.2776    0.0000 C   0  0  0  0  0  0  0  0  0  0  0  0
    9.5122   -1.6077    0.0000 C   0  0  0  0  0  0  0  0  0  0  0  0
    7.2212   -1.5943    0.0000 O   0  0  0  0  0  0  0  0  0  0  0  0
    9.5122   -0.2813    0.0000 C   0  0  0  0  0  0  0  0  0  0  0  0
  1  6  1  0  0  0  0
  1  4  1  0  0  0  0
  1 14  1  6  0  0  0
  2  4  1  0  0  0  0
  2  8  1  0  0  0  0
  2 17  2  0  0  0  0
  3  9  1  0  0  0  0
  3 19  1  1  0  0  0
  3 22  1  6  0  0  0
  3 13  1  0  0  0  0
  4 23  1  1  0  0  0
  5 11  1  6  0  0  0
  5  6  1  0  0  0  0
  5 12  1  0  0  0  0
  6 24  1  6  0  0  0
  7 10  1  0  0  0  0
  7  9  1  0  0  0  0
  7 25  1  1  0  0  0
  8 13  1  0  0  0  0
  9 21  1  1  0  0  0
 10 15  1  0  0  0  0
 10 18  2  0  0  0  0
 45 11  1  1  0  0  0
 12 16  1  0  0  0  0
 12 20  1  1  0  0  0
 12 26  1  6  0  0  0
 13 27  1  6  0  0  0
 34 14  1  1  0  0  0
 15 16  1  0  0  0  0
 15 28  1  6  0  0  0
 27 29  1  0  0  0  0
 30 31  1  0  0  0  0
 30 32  1  0  0  0  0
 30 36  1  1  0  0  0
 30 38  1  0  0  0  0
 31 33  1  0  0  0  0
 31 37  1  1  0  0  0
 32 34  1  0  0  0  0
 33 35  1  0  0  0  0
 33 40  1  6  0  0  0
 34 35  1  0  0  0  0
 36 39  1  0  0  0  0
 41 42  1  0  0  0  0
 41 43  1  0  0  0  0
 41 49  1  1  0  0  0
 42 44  1  0  0  0  0
 43 45  1  0  0  0  0
 43 48  1  6  0  0  0
 44 46  1  0  0  0  0
 44 47  1  1  0  0  0
 45 46  1  0  0  0  0
 48 52  1  0  0  0  0
 49 50  1  0  0  0  0
 49 51  1  0  0  0  0
 52 53  1  0  0  0  0
 52 54  2  0  0  0  0
 53 55  1  0  0  0  0
M  END
> <ID>
2696

> <Formula>
C40H71NO14

> <FW>
789.99

> <DSSTox_CID>
2994

> <DSSTox_RID>
76822

> <DSSTox_GSID>
22994

> <DSSTox_FileID_Sort>
1506

> <TS_ChemName>
Erythromycin propionate

> <TS_ChemName_Synonyms>


> <TS_CASRN>
134-36-1

> <CASRN_ChemName_Relationship>
primary

> <TS_Description>
single chemical compound

> <ChemNote>
stereochem

> <STRUCTURE_Shown>
tested chemical

> <STRUCTURE_Formula>
C40H71NO14

> <STRUCTURE_MW>
789.99

> <STRUCTURE_ChemType>
defined organic

> <STRUCTURE_DefinedOrganicForm>
parent

> <STRUCTURE_IUPAC>
(2S,3R,4S,6R)-4-(dimethylamino)-2-{[(3R,4S,5S,6R,7R,9R,11R,12R,13S,14R)-14-ethyl-7,12,13-trihydroxy-4-{[(2R,4R,5S,6S)-5-hydroxy-4-methoxy-4,6-dimethyltetrahydro-2H-pyran-2-yl]oxy}-3,5,7,9,11,13-hexamethyl-2,10-dioxooxacyclotetradecan-6-yl]oxy}-6-methyltet

> <STRUCTURE_SMILES>
CCC(=O)O[C@@H]3[C@H](C[C@@H](C)O[C@H]3O[C@@H]2[C@@H](C)[C@H](O[C@H]1C[C@@](C)(OC)[C@@H](O)[C@H](C)O1)[C@@H](C)C(=O)O[C@H](CC)[C@@](C)(O)[C@H](O)[C@@H](C)C(=O)[C@H](C)C[C@@]2(C)O)N(C)C

> <STRUCTURE_SMILES_Desalt>
CCC(=O)O[C@@H]3[C@H](C[C@@H](C)O[C@H]3O[C@@H]2[C@@H](C)[C@H](O[C@H]1C[C@@](C)(OC)[C@@H](O)[C@H](C)O1)[C@@H](C)C(=O)O[C@H](CC)[C@@](C)(O)[C@H](O)[C@@H](C)C(=O)[C@H](C)C[C@@]2(C)O)N(C)C

> <Substance_modify_yyyymmdd>
20080429

$$$$
