13402-08-9
ChemmineR-0915142007XD

 18 18  0  0  0  0  0  0  0  0  1 V2000
    5.7892   -2.6447    0.0000 N   0  0  0  0  0  0  0  0  0  0  0  0
    6.9346   -1.9992    0.0000 C   0  0  0  0  0  0  0  0  0  0  0  0
    4.6439   -1.9887    0.0000 C   0  0  0  0  0  0  0  0  0  0  0  0
    8.1111   -2.6655    0.0000 N   0  0  0  0  0  0  0  0  0  0  0  0
    9.2565   -2.0200    0.0000 C   0  0  0  0  0  0  0  0  0  0  0  0
    3.4777   -2.6655    0.0000 C   0  0  0  0  0  0  0  0  0  0  0  0
    4.6439   -0.6664    0.0000 O   0  0  0  0  0  0  0  0  0  0  0  0
    6.9346   -0.6768    0.0000 O   0  0  0  0  0  0  0  0  0  0  0  0
    9.2565   -0.6768    0.0000 O   0  0  0  0  0  0  0  0  0  0  0  0
    2.3011   -1.9992    0.0000 C   0  0  0  0  0  0  0  0  0  0  0  0
   10.4122   -2.6759    0.0000 C   0  0  0  0  0  0  0  0  0  0  0  0
    3.4777   -3.9879    0.0000 C   0  0  0  0  0  0  0  0  0  0  0  0
    2.3011   -0.6768    0.0000 C   0  0  0  0  0  0  0  0  0  0  0  0
    1.1453   -2.6655    0.0000 C   0  0  0  0  0  0  0  0  0  0  0  0
    2.3323   -4.6439    0.0000 C   0  0  0  0  0  0  0  0  0  0  0  0
    1.1558    0.0000    0.0000 C   0  0  0  0  0  0  0  0  0  0  0  0
    0.0000   -1.9992    0.0000 C   0  0  0  0  0  0  0  0  0  0  0  0
    0.0000   -0.6664    0.0000 C   0  0  0  0  0  0  0  0  0  0  0  0
  1  2  1  0  0  0  0
  1  3  1  0  0  0  0
  2  4  1  0  0  0  0
  2  8  2  0  0  0  0
  3  6  1  0  0  0  0
  3  7  2  0  0  0  0
  4  5  1  0  0  0  0
  5  9  2  0  0  0  0
  5 11  1  0  0  0  0
  6 10  1  0  0  0  0
  6 12  1  0  0  0  0
 10 13  1  0  0  0  0
 10 14  2  0  0  0  0
 12 15  1  0  0  0  0
 13 16  2  0  0  0  0
 14 17  1  0  0  0  0
 16 18  1  0  0  0  0
 17 18  2  0  0  0  0
M  END
> <ID>
13778

> <Formula>
C13H16N2O3

> <FW>
248.2777

> <DSSTox_CID>
28715

> <DSSTox_RID>
82984

> <DSSTox_GSID>
48789

> <DSSTox_FileID_Sort>
7661

> <TS_ChemName>
Acetylpheneturide

> <TS_ChemName_Synonyms>
ACETYLPHENETURIDE (CRAMPOL)

> <TS_CASRN>
13402-08-9

> <CASRN_ChemName_Relationship>
primary

> <TS_Description>
single chemical compound

> <ChemNote>


> <STRUCTURE_Shown>
tested chemical

> <STRUCTURE_Formula>
C13H16N2O3

> <STRUCTURE_MW>
248.2777

> <STRUCTURE_ChemType>
defined organic

> <STRUCTURE_DefinedOrganicForm>
parent

> <STRUCTURE_IUPAC>
N-(acetylcarbamoyl)-2-phenylbutanamide

> <STRUCTURE_SMILES>
CCC(C(=O)NC(=O)NC(C)=O)c1ccccc1

> <STRUCTURE_SMILES_Desalt>
CCC(C(=O)NC(=O)NC(C)=O)c1ccccc1

> <Substance_modify_yyyymmdd>
20111204

$$$$
