134002-60-1
ChemmineR-0915142007XD

 33 37  0  0  1  0  0  0  0  0  1 V2000
    9.8521   -3.9946    0.0000 C   0  0  0  0  0  0  0  0  0  0  0  0
    9.8521   -2.6686    0.0000 C   0  0  0  0  0  0  0  0  0  0  0  0
   11.0102   -4.6491    0.0000 C   0  0  0  0  0  0  0  0  0  0  0  0
    8.7276   -4.6491    0.0000 C   0  0  0  0  0  0  0  0  0  0  0  0
   11.0102   -1.9805    0.0000 O   0  0  0  0  0  0  0  0  0  0  0  0
    8.7276   -1.9805    0.0000 C   0  0  0  0  0  0  0  0  0  0  0  0
   12.1683   -3.9946    0.0000 C   0  0  0  0  0  0  0  0  0  0  0  0
   11.0102   -5.9751    0.0000 O   0  0  0  0  0  0  0  0  0  0  0  0
    7.5695   -3.9946    0.0000 C   0  0  0  0  0  0  0  0  0  0  0  0
   12.1683   -2.6686    0.0000 C   0  0  0  0  0  0  0  0  0  0  0  0
    7.5695   -2.6686    0.0000 C   0  0  0  0  0  0  0  0  0  0  0  0
   13.3264   -4.6491    0.0000 C   0  0  0  0  0  0  0  0  0  0  0  0
    6.4114   -4.6491    0.0000 O   0  0  0  0  0  0  0  0  0  0  0  0
   14.4677   -3.9946    0.0000 C   0  0  0  0  0  0  0  0  0  0  0  0
    5.2534   -3.9946    0.0000 C   0  0  0  0  0  0  0  0  0  0  0  0
   14.4677   -2.6686    0.0000 C   0  0  0  0  0  0  0  0  0  0  0  0
   15.6258   -4.6491    0.0000 C   0  0  0  0  0  0  0  0  0  0  0  0
    4.1121   -4.6491    0.0000 C   0  0  0  0  0  0  0  0  0  0  0  0
   15.6258   -1.9805    0.0000 C   0  0  0  0  0  0  0  0  0  0  0  0
   16.7839   -3.9946    0.0000 C   0  0  0  0  0  0  0  0  0  0  0  0
    2.8868   -4.1121    0.0000 S   0  0  0  0  0  0  0  0  0  0  0  0
    3.9610   -5.9751    0.0000 N   0  0  0  0  0  0  0  0  0  0  0  0
   16.7839   -2.6686    0.0000 C   0  0  0  0  0  0  0  0  0  0  0  0
   15.6258   -0.6546    0.0000 C   0  0  0  0  0  0  0  0  0  0  0  0
    1.9973   -5.1023    0.0000 C   0  0  0  0  0  0  0  0  0  0  0  0
    2.6686   -6.2436    0.0000 C   0  0  0  0  0  0  0  0  0  0  0  0
   14.4677    0.0000    0.0000 O   0  0  0  0  0  0  0  0  0  0  0  0
   16.7839    0.0000    0.0000 O   0  0  0  0  0  0  0  0  0  0  0  0
    0.6714   -5.1023    0.0000 C   0  0  0  0  0  0  0  0  0  0  0  0
    1.9973   -7.4017    0.0000 C   0  0  0  0  0  0  0  0  0  0  0  0
    0.0000   -6.2436    0.0000 C   0  0  0  0  0  0  0  0  0  0  0  0
    0.6714   -7.4017    0.0000 C   0  0  0  0  0  0  0  0  0  0  0  0
    0.0000   -8.5598    0.0000 F   0  0  0  0  0  0  0  0  0  0  0  0
  1  2  2  0  0  0  0
  1  3  1  0  0  0  0
  1  4  1  0  0  0  0
  2  5  1  0  0  0  0
  2  6  1  0  0  0  0
  3  7  1  0  0  0  0
  3  8  1  1  0  0  0
  4  9  2  0  0  0  0
  5 10  1  0  0  0  0
  6 11  2  0  0  0  0
  7 12  1  1  0  0  0
  7 10  1  0  0  0  0
  9 13  1  0  0  0  0
  9 11  1  0  0  0  0
 12 14  1  0  0  0  0
 13 15  1  0  0  0  0
 14 16  1  0  0  0  0
 14 17  2  0  0  0  0
 15 18  1  0  0  0  0
 16 19  2  0  0  0  0
 17 20  1  0  0  0  0
 18 21  1  0  0  0  0
 18 22  2  0  0  0  0
 19 23  1  0  0  0  0
 19 24  1  0  0  0  0
 20 23  2  0  0  0  0
 21 25  1  0  0  0  0
 22 26  1  0  0  0  0
 24 27  1  0  0  0  0
 24 28  2  0  0  0  0
 25 29  1  0  0  0  0
 25 26  2  0  0  0  0
 26 30  1  0  0  0  0
 29 31  2  0  0  0  0
 30 32  2  0  0  0  0
 31 32  1  0  0  0  0
 32 33  1  0  0  0  0
M  END
> <ID>
12439

> <Formula>
C25H20FNO5S

> <FW>
465.4934

> <DSSTox_CID>
27297

> <DSSTox_RID>
82250

> <DSSTox_GSID>
47297

> <DSSTox_FileID_Sort>
6931

> <TS_ChemName>
CP-085958

> <TS_ChemName_Synonyms>


> <TS_CASRN>
134002-60-1

> <CASRN_ChemName_Relationship>
primary

> <TS_Description>
single chemical compound

> <ChemNote>
stereochem

> <STRUCTURE_Shown>
tested chemical

> <STRUCTURE_Formula>
C25H20FNO5S

> <STRUCTURE_MW>
465.4934

> <STRUCTURE_ChemType>
defined organic

> <STRUCTURE_DefinedOrganicForm>
parent

> <STRUCTURE_IUPAC>
3-({(3R,4R)-6-[(5-fluoro-1,3-benzothiazol-2-yl)methoxy]-4-hydroxy-3,4-dihydro-2H-chromen-3-yl}methyl)benzoic acid

> <STRUCTURE_SMILES>
O=C(O)c1cccc(c1)C[C@@H]2COc3ccc(cc3[C@@H]2O)OCc4nc5cc(F)ccc5s4

> <STRUCTURE_SMILES_Desalt>
O=C(O)c1cccc(c1)C[C@@H]2COc3ccc(cc3[C@@H]2O)OCc4nc5cc(F)ccc5s4

> <Substance_modify_yyyymmdd>
20130910

$$$$
