13412-64-1
ChemmineR-0915142007XD

 35 36  0  0  1  0  0  0  0  0  2 V2000
    8.9787   -6.7049    0.0000 Na   0  3  0  0  0  0  0  0  0  0  0  0
    5.3485   -6.4078    0.0000 O    0  0  0  0  0  0  0  0  0  0  0  0
    9.9993   -5.0772    0.0000 H    0  0  0  0  0  0  0  0  0  0  0  0
    7.8160   -5.4776    0.0000 O    0  0  0  0  0  0  0  0  0  0  0  0
    8.3973   -2.6742    0.0000 C    0  0  0  0  0  0  0  0  0  0  0  0
    9.6892   -3.9661    0.0000 N    0  0  0  0  0  0  0  0  0  0  0  0
    9.6892   -2.6742    0.0000 C    0  0  0  0  0  0  0  0  0  0  0  0
    8.3973   -3.9661    0.0000 C    0  0  0  0  0  0  0  0  0  0  0  0
   10.9424   -4.3795    0.0000 C    0  0  0  0  0  0  0  0  0  0  0  0
   11.7046   -3.3073    0.0000 C    0  0  0  0  0  0  0  0  0  0  0  0
   10.9424   -2.2350    0.0000 S    0  0  0  0  0  0  0  0  0  0  0  0
   11.3558   -5.6327    0.0000 C    0  0  0  0  0  0  0  0  0  0  0  0
   12.6477   -5.9427    0.0000 O    0  0  0  0  0  0  0  0  0  0  0  0
   10.4514   -6.6274    0.0000 O    0  5  0  0  0  0  0  0  0  0  0  0
   12.9190   -2.6742    0.0000 C    0  0  0  0  0  0  0  0  0  0  0  0
   12.9190   -3.9661    0.0000 C    0  0  0  0  0  0  0  0  0  0  0  0
    9.6892   -1.3307    0.0000 H    0  0  0  0  0  0  0  0  0  0  0  0
    8.3973   -1.3307    0.0000 H    0  0  0  0  0  0  0  0  0  0  0  0
    7.0667   -2.6742    0.0000 N    0  0  0  0  0  0  0  0  0  0  0  0
    5.9427   -2.0024    0.0000 C    0  0  0  0  0  0  0  0  0  0  0  0
    4.7283   -2.6742    0.0000 C    0  0  0  0  0  0  0  0  0  0  0  0
    5.9427   -0.6459    0.0000 O    0  0  0  0  0  0  0  0  0  0  0  0
    2.2996   -0.6459    0.0000 C    0  0  0  0  0  0  0  0  0  0  0  0
    2.2996   -2.0024    0.0000 C    0  0  0  0  0  0  0  0  0  0  0  0
    1.1369    0.0000    0.0000 C    0  0  0  0  0  0  0  0  0  0  0  0
    1.1369   -2.6742    0.0000 C    0  0  0  0  0  0  0  0  0  0  0  0
    0.0000   -0.6459    0.0000 C    0  0  0  0  0  0  0  0  0  0  0  0
    0.0000   -2.0024    0.0000 C    0  0  0  0  0  0  0  0  0  0  0  0
    3.4106   -2.6742    0.0000 C    0  0  0  0  0  0  0  0  0  0  0  0
    3.0230   -3.9661    0.0000 N    0  0  0  0  0  0  0  0  0  0  0  0
    4.0953   -4.6767    0.0000 O    0  0  0  0  0  0  0  0  0  0  0  0
    5.1676   -3.9661    0.0000 C    0  0  0  0  0  0  0  0  0  0  0  0
    6.4207   -4.3020    0.0000 C    0  0  0  0  0  0  0  0  0  0  0  0
    3.4364   -0.0258    0.0000 Cl   0  0  0  0  0  0  0  0  0  0  0  0
    1.1369   -3.9920    0.0000 Cl   0  0  0  0  0  0  0  0  0  0  0  0
  9  3  1  1  0  0  0
  4  8  2  0  0  0  0
  5  7  1  0  0  0  0
  5  8  1  0  0  0  0
  5 18  1  6  0  0  0
  5 19  1  1  0  0  0
  6  8  1  0  0  0  0
  6  9  1  0  0  0  0
  6  7  1  0  0  0  0
  7 11  1  0  0  0  0
  7 17  1  6  0  0  0
  9 10  1  0  0  0  0
  9 12  1  6  0  0  0
 10 11  1  0  0  0  0
 10 15  1  0  0  0  0
 10 16  1  0  0  0  0
 12 13  2  0  0  0  0
 12 14  1  0  0  0  0
 19 20  1  0  0  0  0
 20 21  1  0  0  0  0
 20 22  2  0  0  0  0
 21 29  1  0  0  0  0
 21 32  2  0  0  0  0
 23 24  1  0  0  0  0
 23 25  2  0  0  0  0
 23 34  1  0  0  0  0
 24 26  2  0  0  0  0
 24 29  1  0  0  0  0
 25 27  1  0  0  0  0
 26 28  1  0  0  0  0
 26 35  1  0  0  0  0
 27 28  2  0  0  0  0
 29 30  2  0  0  0  0
 30 31  1  0  0  0  0
 31 32  1  0  0  0  0
 32 33  1  0  0  0  0
M  END
> <ID>
13987

> <Formula>
C19H18Cl2N3NaO6S

> <FW>
510.3235 (22.9892+18.0153+469.3190)

> <DSSTox_CID>
28928

> <DSSTox_RID>
83194

> <DSSTox_GSID>
49002

> <DSSTox_FileID_Sort>
7870

> <TS_ChemName>
Dicloxacillin sodium salt monohydrate

> <TS_ChemName_Synonyms>


> <TS_CASRN>
13412-64-1

> <CASRN_ChemName_Relationship>
primary

> <TS_Description>
single chemical compound

> <ChemNote>


> <STRUCTURE_Shown>
tested chemical

> <STRUCTURE_Formula>
C19H18Cl2N3NaO6S

> <STRUCTURE_MW>
510.3235

> <STRUCTURE_ChemType>
defined organic

> <STRUCTURE_DefinedOrganicForm>
salt complex

> <STRUCTURE_IUPAC>
sodium (2S,5R,6R)-6-({[3-(2,6-dichlorophenyl)-5-methyl-1,2-oxazol-4-yl]carbonyl}amino)-3,3-dimethyl-7-oxo-4-thia-1-azabicyclo[3.2.0]heptane-2-carboxylate hydrate (1:1:1)

> <STRUCTURE_SMILES>
[Na+].O.O=C([O-])[C@@H]3N4C(=O)[C@@H](NC(=O)c2c(C)onc2c1c(Cl)cccc1Cl)[C@H]4SC3(C)C

> <STRUCTURE_SMILES_Desalt>
OC(=O)[C@@H]3N4C(=O)[C@@H](NC(=O)c2c(C)onc2c1c(Cl)cccc1Cl)[C@H]4SC3(C)C

> <Substance_modify_yyyymmdd>
20111204

$$$$
