13410-86-1
ChemmineR-0915142007XD

 22 23  0  0  0  0  0  0  0  0  1 V2000
    2.3217   -3.9823    0.0000 C   0  0  0  0  0  0  0  0  0  0  0  0
    2.3217   -5.3124    0.0000 C   0  0  0  0  0  0  0  0  0  0  0  0
    1.1528   -3.3293    0.0000 C   0  0  0  0  0  0  0  0  0  0  0  0
    3.4583   -3.3293    0.0000 O   0  0  0  0  0  0  0  0  0  0  0  0
    3.4583   -5.9815    0.0000 C   0  0  0  0  0  0  0  0  0  0  0  0
    1.1528   -5.9815    0.0000 C   0  0  0  0  0  0  0  0  0  0  0  0
    0.0000   -3.9823    0.0000 C   0  0  0  0  0  0  0  0  0  0  0  0
    3.4583   -1.9992    0.0000 C   0  0  0  0  0  0  0  0  0  0  0  0
    4.6030   -5.3124    0.0000 N   0  0  0  0  0  0  0  0  0  0  0  0
    0.0000   -5.3124    0.0000 C   0  0  0  0  0  0  0  0  0  0  0  0
    2.3217   -1.3301    0.0000 C   0  0  0  0  0  0  0  0  0  0  0  0
    5.7558   -5.9815    0.0000 N   0  0  0  0  0  0  0  0  0  0  0  0
    1.1528   -1.9992    0.0000 O   0  0  0  0  0  0  0  0  0  0  0  0
    2.3217    0.0000    0.0000 O   0  0  0  0  0  0  0  0  0  0  0  0
    6.9086   -5.3124    0.0000 C   0  0  0  0  0  0  0  0  0  0  0  0
    6.9086   -3.9823    0.0000 C   0  0  0  0  0  0  0  0  0  0  0  0
    8.0613   -5.9815    0.0000 O   0  0  0  0  0  0  0  0  0  0  0  0
    5.7558   -3.3293    0.0000 C   0  0  0  0  0  0  0  0  0  0  0  0
    8.0613   -3.3293    0.0000 C   0  0  0  0  0  0  0  0  0  0  0  0
    5.7558   -1.9992    0.0000 C   0  0  0  0  0  0  0  0  0  0  0  0
    8.0613   -1.9992    0.0000 C   0  0  0  0  0  0  0  0  0  0  0  0
    6.9086   -1.3301    0.0000 N   0  0  0  0  0  0  0  0  0  0  0  0
  1  2  2  0  0  0  0
  1  3  1  0  0  0  0
  1  4  1  0  0  0  0
  2  5  1  0  0  0  0
  2  6  1  0  0  0  0
  3  7  2  0  0  0  0
  4  8  1  0  0  0  0
  5  9  2  0  0  0  0
  6 10  2  0  0  0  0
  7 10  1  0  0  0  0
  8 11  1  0  0  0  0
  9 12  1  0  0  0  0
 11 13  1  0  0  0  0
 11 14  2  0  0  0  0
 12 15  1  0  0  0  0
 15 16  1  0  0  0  0
 15 17  2  0  0  0  0
 16 18  2  0  0  0  0
 16 19  1  0  0  0  0
 18 20  1  0  0  0  0
 19 21  2  0  0  0  0
 20 22  2  0  0  0  0
 21 22  1  0  0  0  0
M  END
> <ID>
11585

> <Formula>
C15H13N3O4

> <FW>
299.2814

> <DSSTox_CID>
26292

> <DSSTox_RID>
81518

> <DSSTox_GSID>
46292

> <DSSTox_FileID_Sort>
6199

> <TS_ChemName>
Aconiazide

> <TS_ChemName_Synonyms>


> <TS_CASRN>
13410-86-1

> <CASRN_ChemName_Relationship>
primary

> <TS_Description>
single chemical compound

> <ChemNote>


> <STRUCTURE_Shown>
tested chemical

> <STRUCTURE_Formula>
C15H13N3O4

> <STRUCTURE_MW>
299.2814

> <STRUCTURE_ChemType>
defined organic

> <STRUCTURE_DefinedOrganicForm>
parent

> <STRUCTURE_IUPAC>
(2-{(E)-[2-(pyridin-4-ylcarbonyl)hydrazinylidene]methyl}phenoxy)acetic acid

> <STRUCTURE_SMILES>
O=C(N/N=C/c1ccccc1OCC(=O)O)c2ccncc2

> <STRUCTURE_SMILES_Desalt>
O=C(N/N=C/c1ccccc1OCC(=O)O)c2ccncc2

> <Substance_modify_yyyymmdd>
20110815

$$$$
