13422-55-4
ChemmineR-0915142007XD

 92 98  0  0  0  0  0  0  0  0  2 V2000
   10.2860  -15.2516    0.0000 C    0  0  0  0  0  0  0  0  0  0  0  0
   11.6382  -15.3624    0.0000 C    0  0  0  0  0  0  0  0  0  0  0  0
    9.7539  -16.4930    0.0000 C    0  0  0  0  0  0  0  0  0  0  0  0
   11.9264  -16.6703    0.0000 C    0  0  0  0  0  0  0  0  0  0  0  0
   10.7736  -17.3575    0.0000 O    0  0  0  0  0  0  0  0  0  0  0  0
    8.9780   -9.8426    0.0000 C    0  0  0  0  0  0  0  0  0  0  0  0
    7.8918   -7.9805    0.0000 N    0  0  0  0  0  0  0  0  0  0  0  0
    7.7810   -9.3327    0.0000 C    0  0  0  0  0  0  0  0  0  0  0  0
    6.5617   -9.8869    0.0000 C    0  0  0  0  0  0  0  0  0  0  0  0
    5.5863   -7.7810    0.0000 N    0  5  0  0  0  0  0  0  0  0  0  0
    5.4755   -9.1332    0.0000 C    0  0  0  0  0  0  0  0  0  0  0  0
    9.2219   -7.6701    0.0000 C    0  0  0  0  0  0  0  0  0  0  0  0
    9.9091   -8.8229    0.0000 C    0  0  0  0  0  0  0  0  0  0  0  0
    4.3228   -7.2711    0.0000 C    0  0  0  0  0  0  0  0  0  0  0  0
    3.4582   -8.2687    0.0000 C    0  0  0  0  0  0  0  0  0  0  0  0
    4.1454   -9.4436    0.0000 C    0  0  0  0  0  0  0  0  0  0  0  0
    7.9361   -4.2563    0.0000 C    0  0  0  0  0  0  0  0  0  0  0  0
    7.9361   -5.5863    0.0000 N    0  0  0  0  0  0  0  0  0  0  0  0
    6.7834   -3.5912    0.0000 C    0  0  0  0  0  0  0  0  0  0  0  0
    5.6085   -4.2563    0.0000 C    0  0  0  0  0  0  0  0  0  0  0  0
    5.6085   -5.5863    0.0000 N    0  0  0  0  0  0  0  0  0  0  0  0
    9.2219   -3.8351    0.0000 C    0  0  0  0  0  0  0  0  0  0  0  0
   10.0199   -4.9213    0.0000 C    0  0  0  0  0  0  0  0  0  0  0  0
    9.2219   -6.0075    0.0000 C    0  0  0  0  0  0  0  0  0  0  0  0
    4.3228   -3.8351    0.0000 C    0  0  0  0  0  0  0  0  0  0  0  0
    3.5469   -4.9213    0.0000 C    0  0  0  0  0  0  0  0  0  0  0  0
    4.3228   -6.0075    0.0000 C    0  0  0  0  0  0  0  0  0  0  0  0
    3.9237   -2.5715    0.0000 C    0  0  0  0  0  0  0  0  0  0  0  0
    2.6158   -2.2833    0.0000 C    0  0  0  0  0  0  0  0  0  0  0  0
    6.7834   -2.2390    0.0000 C    0  0  0  0  0  0  0  0  0  0  0  0
    9.6431   -2.5715    0.0000 C    0  0  0  0  0  0  0  0  0  0  0  0
    8.2687   -2.8818    0.0000 C    0  0  0  0  0  0  0  0  0  0  0  0
   10.9732   -2.2833    0.0000 C    0  0  0  0  0  0  0  0  0  0  0  0
   11.3722   -0.9976    0.0000 O    0  0  0  0  0  0  0  0  0  0  0  0
   11.8599   -3.2809    0.0000 N    0  0  0  0  0  0  0  0  0  0  0  0
    2.7932   -6.0297    0.0000 C    0  0  0  0  0  0  0  0  0  0  0  0
    2.1946   -0.9976    0.0000 C    0  0  0  0  0  0  0  0  0  0  0  0
    3.0814    0.0000    0.0000 O    0  0  0  0  0  0  0  0  0  0  0  0
    0.8867   -0.7094    0.0000 N    0  0  0  0  0  0  0  0  0  0  0  0
    2.4385   -4.1454    0.0000 C    0  0  0  0  0  0  0  0  0  0  0  0
    1.2192   -4.7218    0.0000 C    0  0  0  0  0  0  0  0  0  0  0  0
    0.1108   -3.9459    0.0000 O    0  0  0  0  0  0  0  0  0  0  0  0
    1.1084   -6.0740    0.0000 N    0  0  0  0  0  0  0  0  0  0  0  0
    3.5912   -6.7169    0.0000 C    0  0  0  0  0  0  0  0  0  0  0  0
    2.1060   -8.1578    0.0000 C    0  0  0  0  0  0  0  0  0  0  0  0
    1.3522   -9.2662    0.0000 C    0  0  0  0  0  0  0  0  0  0  0  0
    0.0000   -9.1554    0.0000 N    0  0  0  0  0  0  0  0  0  0  0  0
    1.9064  -10.4855    0.0000 O    0  0  0  0  0  0  0  0  0  0  0  0
    6.4509  -11.2392    0.0000 C    0  0  0  0  0  0  0  0  0  0  0  0
    3.6356  -10.6628    0.0000 C    0  0  0  0  0  0  0  0  0  0  0  0
    5.0100  -10.4633    0.0000 C    0  0  0  0  0  0  0  0  0  0  0  0
    4.4336  -11.7490    0.0000 C    0  0  0  0  0  0  0  0  0  0  0  0
    3.9016  -12.9904    0.0000 C    0  0  0  0  0  0  0  0  0  0  0  0
    4.7440  -14.0545    0.0000 N    0  0  0  0  0  0  0  0  0  0  0  0
    2.5715  -13.1456    0.0000 O    0  0  0  0  0  0  0  0  0  0  0  0
    6.0740  -13.8993    0.0000 C    0  0  0  0  0  0  0  0  0  0  0  0
    6.8721  -14.9634    0.0000 C    0  0  0  0  0  0  0  0  0  0  0  0
    8.2022  -14.7861    0.0000 O    0  0  0  0  0  0  0  0  0  0  0  0
    6.3622  -16.2048    0.0000 C    0  0  0  0  0  0  0  0  0  0  0  0
    8.7342  -13.5668    0.0000 P    0  0  0  0  0  0  0  0  0  0  0  0
    9.9978  -14.0767    0.0000 O    0  0  0  0  0  0  0  0  0  0  0  0
    8.5568  -12.2367    0.0000 O    0  5  0  0  0  0  0  0  0  0  0  0
    7.4928  -13.0570    0.0000 O    0  0  0  0  0  0  0  0  0  0  0  0
    8.4460  -16.8033    0.0000 C    0  0  0  0  0  0  0  0  0  0  0  0
    8.0692  -18.0891    0.0000 O    0  0  0  0  0  0  0  0  0  0  0  0
   12.5028  -14.3427    0.0000 O    0  0  0  0  0  0  0  0  0  0  0  0
   13.1678  -17.2024    0.0000 N    0  0  0  0  0  0  0  0  0  0  0  0
   14.3205  -16.5152    0.0000 C    0  0  0  0  0  0  0  0  0  0  0  0
   13.4781  -18.5103    0.0000 C    0  0  0  0  0  0  0  0  0  0  0  0
   15.3403  -17.3797    0.0000 N    0  0  0  0  0  0  0  0  0  0  0  0
   14.8304  -18.6433    0.0000 C    0  0  0  0  0  0  0  0  0  0  0  0
   12.7244  -19.6187    0.0000 C    0  0  0  0  0  0  0  0  0  0  0  0
   13.2786  -20.8379    0.0000 C    0  0  0  0  0  0  0  0  0  0  0  0
   15.3846  -19.8404    0.0000 C    0  0  0  0  0  0  0  0  0  0  0  0
   14.6309  -20.9488    0.0000 C    0  0  0  0  0  0  0  0  0  0  0  0
   12.5249  -21.9463    0.0000 C    0  0  0  0  0  0  0  0  0  0  0  0
   15.1851  -22.1680    0.0000 C    0  0  0  0  0  0  0  0  0  0  0  0
   11.3722   -4.9213    0.0000 C    0  0  0  0  0  0  0  0  0  0  0  0
   12.0372   -6.0962    0.0000 C    0  0  0  0  0  0  0  0  0  0  0  0
   13.3895   -6.0962    0.0000 C    0  0  0  0  0  0  0  0  0  0  0  0
   14.0545   -7.2711    0.0000 N    0  0  0  0  0  0  0  0  0  0  0  0
   14.0545   -4.9213    0.0000 O    0  0  0  0  0  0  0  0  0  0  0  0
   10.0421   -6.7834    0.0000 C    0  0  0  0  0  0  0  0  0  0  0  0
   11.2392   -8.9780    0.0000 C    0  0  0  0  0  0  0  0  0  0  0  0
   10.6185   -7.6923    0.0000 C    0  0  0  0  0  0  0  0  0  0  0  0
    9.2662  -11.1505    0.0000 C    0  0  0  0  0  0  0  0  0  0  0  0
   10.5298  -11.5717    0.0000 C    0  0  0  0  0  0  0  0  0  0  0  0
   11.5274  -10.6628    0.0000 C    0  0  0  0  0  0  0  0  0  0  0  0
   12.8131  -11.0840    0.0000 N    0  0  0  0  0  0  0  0  0  0  0  0
   11.3500   -9.8648    0.0000 O    0  0  0  0  0  0  0  0  0  0  0  0
    6.5174   -7.1603    0.0000 Co   0  2  0  0  0  0  0  0  0  0  0  0
    6.5617   -5.8302    0.0000 C    0  0  0  0  0  0  0  0  0  0  0  0
  1  2  1  0  0  0  0
  1  3  1  0  0  0  0
  1 61  1  0  0  0  0
  2  4  1  0  0  0  0
  2 66  1  0  0  0  0
  3  5  1  0  0  0  0
  3 64  1  0  0  0  0
  4  5  1  0  0  0  0
  4 67  1  0  0  0  0
  6  8  1  0  0  0  0
  6 13  1  0  0  0  0
  6 86  1  0  0  0  0
  7 12  1  0  0  0  0
  7  8  2  0  0  0  0
  8  9  1  0  0  0  0
  9 11  2  0  0  0  0
  9 49  1  0  0  0  0
 10 14  1  0  0  0  0
 10 11  1  0  0  0  0
 11 16  1  0  0  0  0
 12 13  1  0  0  0  0
 12 83  2  0  0  0  0
 13 84  1  0  0  0  0
 13 85  1  0  0  0  0
 14 15  1  0  0  0  0
 14 27  1  0  0  0  0
 15 16  1  0  0  0  0
 15 45  1  0  0  0  0
 16 50  1  0  0  0  0
 16 51  1  0  0  0  0
 17 19  2  0  0  0  0
 17 22  1  0  0  0  0
 17 18  1  0  0  0  0
 18 24  2  0  0  0  0
 19 20  1  0  0  0  0
 19 30  1  0  0  0  0
 20 25  1  0  0  0  0
 20 21  2  0  0  0  0
 21 27  1  0  0  0  0
 22 23  1  0  0  0  0
 22 31  1  0  0  0  0
 22 32  1  0  0  0  0
 23 24  1  0  0  0  0
 23 78  1  0  0  0  0
 24 83  1  0  0  0  0
 25 26  1  0  0  0  0
 25 28  1  0  0  0  0
 26 27  1  0  0  0  0
 26 36  1  0  0  0  0
 26 40  1  0  0  0  0
 27 44  1  0  0  0  0
 28 29  1  0  0  0  0
 29 37  1  0  0  0  0
 31 33  1  0  0  0  0
 33 34  2  0  0  0  0
 33 35  1  0  0  0  0
 37 38  2  0  0  0  0
 37 39  1  0  0  0  0
 40 41  1  0  0  0  0
 41 42  2  0  0  0  0
 41 43  1  0  0  0  0
 45 46  1  0  0  0  0
 46 47  1  0  0  0  0
 46 48  2  0  0  0  0
 50 52  1  0  0  0  0
 52 53  1  0  0  0  0
 53 54  1  0  0  0  0
 53 55  2  0  0  0  0
 54 56  1  0  0  0  0
 56 57  1  0  0  0  0
 57 58  1  0  0  0  0
 57 59  1  0  0  0  0
 58 60  1  0  0  0  0
 60 61  1  0  0  0  0
 60 62  1  0  0  0  0
 60 63  2  0  0  0  0
 64 65  1  0  0  0  0
 67 68  1  0  0  0  0
 67 69  1  0  0  0  0
 68 70  2  0  0  0  0
 69 72  1  0  0  0  0
 69 71  2  0  0  0  0
 70 71  1  0  0  0  0
 71 74  1  0  0  0  0
 72 73  2  0  0  0  0
 73 75  1  0  0  0  0
 73 76  1  0  0  0  0
 74 75  2  0  0  0  0
 75 77  1  0  0  0  0
 78 79  1  0  0  0  0
 79 80  1  0  0  0  0
 80 81  1  0  0  0  0
 80 82  2  0  0  0  0
 86 87  1  0  0  0  0
 87 88  1  0  0  0  0
 88 89  1  0  0  0  0
 88 90  2  0  0  0  0
 91 92  1  0  0  0  0
M  END
> <ID>
13628

> <Formula>
C63H91CoN13O14P

> <FW>
1344.3823 (1270.4157+73.9666)

> <DSSTox_CID>
28557

> <DSSTox_RID>
82829

> <DSSTox_GSID>
48631

> <DSSTox_FileID_Sort>
7506

> <TS_ChemName>
Mecobalamin

> <TS_ChemName_Synonyms>


> <TS_CASRN>
13422-55-4

> <CASRN_ChemName_Relationship>
primary

> <TS_Description>
single chemical compound

> <ChemNote>


> <STRUCTURE_Shown>
tested chemical

> <STRUCTURE_Formula>
C63H91CoN13O14P

> <STRUCTURE_MW>
1344.3823

> <STRUCTURE_ChemType>
organometallic

> <STRUCTURE_DefinedOrganicForm>


> <STRUCTURE_IUPAC>
Cobinamide, Co-methyl deriv., hydroxide, dihydrogen phosphate (ester),inner salt, 3'-ester with 5,6-dimethyl-1-?-D-ribofuranosyl-1H-benzimidazole

> <STRUCTURE_SMILES>
[Co+2]C.NC(=O)CC7(C)C(CCC(N)=O)C=6C=C1N=C(C(CCC(N)=O)C1(C)C)C(C)=C5[N-]C(C(CC(N)=O)C5(C)CCC(=O)NCC(C)OP([O-])(=O)OC4C(CO)OC(n3cnc2cc(C)c(C)cc23)C4O)C8(C)N=C(C(C)=C7N=6)C(CCC(N)=O)C8(C)CC(N)=O

> <STRUCTURE_SMILES_Desalt>
NC(=O)CCC8C1=NC(=C(C)C7=NC(C)(C6NC(=C(C)C2=NC(=C1)C(C)(C)C2CCC(N)=O)C(C)(CCC(=O)NCC(C)OP(=O)(O)OC5C(CO)OC(n4cnc3cc(C)c(C)cc34)C5O)C6CC(N)=O)C(C)(CC(N)=O)C7CCC(N)=O)C8(C)CC(N)=O

> <Substance_modify_yyyymmdd>
20111016

$$$$
