13446-18-9
ChemmineR-0915142007XD

 15  6  0  0  0  0  0  0  0  0  2 V2000
    3.7570   -1.2817    0.0000 Mg   0  2  0  0  0  0  0  0  0  0  0  0
    7.3377   -1.1375    0.0000 N    0  3  0  0  0  0  0  0  0  0  0  0
    7.9946   -2.2910    0.0000 O    0  5  0  0  0  0  0  0  0  0  0  0
    8.0106    0.0000    0.0000 O    0  0  0  0  0  0  0  0  0  0  0  0
    6.0080   -1.1055    0.0000 O    0  5  0  0  0  0  0  0  0  0  0  0
    0.6729   -1.1695    0.0000 N    0  3  0  0  0  0  0  0  0  0  0  0
    0.0000   -0.0320    0.0000 O    0  5  0  0  0  0  0  0  0  0  0  0
    0.0160   -2.3391    0.0000 O    0  0  0  0  0  0  0  0  0  0  0  0
    2.0107   -1.1695    0.0000 O    0  5  0  0  0  0  0  0  0  0  0  0
    0.3525   -3.4365    0.0000 O    0  0  0  0  0  0  0  0  0  0  0  0
    2.5073   -3.3885    0.0000 O    0  0  0  0  0  0  0  0  0  0  0  0
    4.9105   -3.4045    0.0000 O    0  0  0  0  0  0  0  0  0  0  0  0
    7.3377   -3.4526    0.0000 O    0  0  0  0  0  0  0  0  0  0  0  0
    2.1709   -5.0547    0.0000 O    0  0  0  0  0  0  0  0  0  0  0  0
    4.5100   -5.1508    0.0000 O    0  0  0  0  0  0  0  0  0  0  0  0
  2  3  1  0  0  0  0
  2  4  2  0  0  0  0
  2  5  1  0  0  0  0
  6  7  1  0  0  0  0
  6  8  2  0  0  0  0
  6  9  1  0  0  0  0
M  END
> <ID>
12617

> <Formula>
H12MgN2O12

> <FW>
256.4065 (24.3039+62.0054+62.0054+18.0153+18.0153+18.0153+18.0153+18.0153+18.0153)

> <DSSTox_CID>
27484

> <DSSTox_RID>
82375

> <DSSTox_GSID>
47484

> <DSSTox_FileID_Sort>
7056

> <TS_ChemName>
Nitric acid, magnesium salt

> <TS_ChemName_Synonyms>
Magnesium nitrate

> <TS_CASRN>
13446-18-9

> <CASRN_ChemName_Relationship>
primary

> <TS_Description>
single chemical compound

> <ChemNote>


> <STRUCTURE_Shown>
tested chemical

> <STRUCTURE_Formula>
H12MgN2O12

> <STRUCTURE_MW>
256.4065

> <STRUCTURE_ChemType>
inorganic

> <STRUCTURE_DefinedOrganicForm>


> <STRUCTURE_IUPAC>
magnesium nitrate hydrate (1:2:6)

> <STRUCTURE_SMILES>
O.[Mg+2].O.O.O.O.O.[O-][N+]([O-])=O.[O-][N+]([O-])=O

> <STRUCTURE_SMILES_Desalt>
[O-][N+](=O)O

> <Substance_modify_yyyymmdd>
20100703

$$$$
