13457-18-6
ChemmineR-0915142007XD

 24 25  0  0  0  0  0  0  0  0  1 V2000
    5.7636   -3.3313    0.0000 C   0  0  0  0  0  0  0  0  0  0  0  0
    5.7636   -2.0226    0.0000 N   0  0  0  0  0  0  0  0  0  0  0  0
    3.4502   -2.0226    0.0000 C   0  0  0  0  0  0  0  0  0  0  0  0
    7.7597   -2.6835    0.0000 C   0  0  0  0  0  0  0  0  0  0  0  0
    4.6003   -4.0055    0.0000 N   0  0  0  0  0  0  0  0  0  0  0  0
    7.0327   -1.5863    0.0000 N   0  0  0  0  0  0  0  0  0  0  0  0
    4.6003   -1.3484    0.0000 C   0  0  0  0  0  0  0  0  0  0  0  0
    7.0327   -3.7411    0.0000 C   0  0  0  0  0  0  0  0  0  0  0  0
    3.4502   -3.3313    0.0000 C   0  0  0  0  0  0  0  0  0  0  0  0
    9.7691   -3.8336    0.0000 P   0  0  0  0  0  0  0  0  0  0  0  0
    9.0949   -2.6835    0.0000 O   0  0  0  0  0  0  0  0  0  0  0  0
    2.3134   -1.3352    0.0000 C   0  0  0  0  0  0  0  0  0  0  0  0
    8.5925   -4.4946    0.0000 S   0  0  0  0  0  0  0  0  0  0  0  0
    2.3134    0.0000    0.0000 O   0  0  0  0  0  0  0  0  0  0  0  0
   10.4433   -4.9837    0.0000 O   0  0  0  0  0  0  0  0  0  0  0  0
   10.9059   -3.1462    0.0000 O   0  0  0  0  0  0  0  0  0  0  0  0
    1.1501   -1.9961    0.0000 O   0  0  0  0  0  0  0  0  0  0  0  0
    2.3134   -4.0319    0.0000 C   0  0  0  0  0  0  0  0  0  0  0  0
   12.0692   -3.8204    0.0000 C   0  0  0  0  0  0  0  0  0  0  0  0
    9.7823   -6.1470    0.0000 C   0  0  0  0  0  0  0  0  0  0  0  0
    1.1501   -3.3180    0.0000 C   0  0  0  0  0  0  0  0  0  0  0  0
   13.2193   -3.1462    0.0000 C   0  0  0  0  0  0  0  0  0  0  0  0
    0.0000   -3.9922    0.0000 C   0  0  0  0  0  0  0  0  0  0  0  0
   10.4433   -7.2838    0.0000 C   0  0  0  0  0  0  0  0  0  0  0  0
  1  2  1  0  0  0  0
  1  5  1  0  0  0  0
  1  8  2  0  0  0  0
  2  6  1  0  0  0  0
  2  7  1  0  0  0  0
  3  9  1  0  0  0  0
  3 12  1  0  0  0  0
  3  7  2  0  0  0  0
  4  8  1  0  0  0  0
  4 11  1  0  0  0  0
  4  6  2  0  0  0  0
  5  9  2  0  0  0  0
  9 18  1  0  0  0  0
 10 11  1  0  0  0  0
 10 13  2  0  0  0  0
 10 15  1  0  0  0  0
 10 16  1  0  0  0  0
 12 14  2  0  0  0  0
 12 17  1  0  0  0  0
 15 20  1  0  0  0  0
 16 19  1  0  0  0  0
 17 21  1  0  0  0  0
 19 22  1  0  0  0  0
 20 24  1  0  0  0  0
 21 23  1  0  0  0  0
M  END
> <ID>
9271

> <Formula>
C14H20N3O5PS

> <FW>
373.3645

> <DSSTox_CID>
22352

> <DSSTox_RID>
80003

> <DSSTox_GSID>
42352

> <DSSTox_FileID_Sort>
4685

> <TS_ChemName>
Pyrazophos

> <TS_ChemName_Synonyms>


> <TS_CASRN>
13457-18-6

> <CASRN_ChemName_Relationship>
primary

> <TS_Description>
single chemical compound

> <ChemNote>


> <STRUCTURE_Shown>
tested chemical

> <STRUCTURE_Formula>
C14H20N3O5PS

> <STRUCTURE_MW>
373.3645

> <STRUCTURE_ChemType>
defined organic

> <STRUCTURE_DefinedOrganicForm>
parent

> <STRUCTURE_IUPAC>
ethyl 2-[(diethoxyphosphorothioyl)oxy]-5-methylpyrazolo[1,5-a]pyrimidine-6-carboxylate

> <STRUCTURE_SMILES>
O=C(OCC)c1cn2nc(cc2nc1C)OP(=S)(OCC)OCC

> <STRUCTURE_SMILES_Desalt>
O=C(OCC)c1cn2nc(cc2nc1C)OP(=S)(OCC)OCC

> <Substance_modify_yyyymmdd>
20080825

$$$$
