13453-07-1
ChemmineR-0915142007XD

  4  3  0  0  0  0  0  0  0  0  1 V2000
    1.3253   -1.1565    0.0000 Au   0  0  0  0  0  0  0  0  0  0  0  0
    1.9869   -2.3130    0.0000 Cl   0  0  0  0  0  0  0  0  0  0  0  0
    1.9869    0.0000    0.0000 Cl   0  0  0  0  0  0  0  0  0  0  0  0
    0.0000   -1.1565    0.0000 Cl   0  0  0  0  0  0  0  0  0  0  0  0
  1  2  1  0  0  0  0
  1  3  1  0  0  0  0
  1  4  1  0  0  0  0
M  END
> <ID>
10036

> <Formula>
AuCl3

> <FW>
303.3256

> <DSSTox_CID>
24379

> <DSSTox_RID>
80183

> <DSSTox_GSID>
44379

> <DSSTox_FileID_Sort>
4865

> <TS_ChemName>
Gold trichloride

> <TS_ChemName_Synonyms>
Gold trichloride (Gold chloride) (AuCl3)

> <TS_CASRN>
13453-07-1

> <CASRN_ChemName_Relationship>
primary

> <TS_Description>
single chemical compound

> <ChemNote>


> <STRUCTURE_Shown>
tested chemical

> <STRUCTURE_Formula>
AuCl3

> <STRUCTURE_MW>
303.3256

> <STRUCTURE_ChemType>
inorganic

> <STRUCTURE_DefinedOrganicForm>


> <STRUCTURE_IUPAC>
gold(3+) trichloride

> <STRUCTURE_SMILES>
Cl[Au](Cl)Cl

> <STRUCTURE_SMILES_Desalt>
Cl[Au](Cl)Cl

> <Substance_modify_yyyymmdd>
20091116

$$$$
