134523-00-5
ChemmineR-0915142007XD

 41 44  0  0  1  0  0  0  0  0  1 V2000
    5.7752   -2.7762    0.0000 C   0  0  0  0  0  0  0  0  0  0  0  0
    6.8376   -1.9879    0.0000 C   0  0  0  0  0  0  0  0  0  0  0  0
    6.1693   -4.0443    0.0000 C   0  0  0  0  0  0  0  0  0  0  0  0
    7.9173   -2.7762    0.0000 N   0  0  0  0  0  0  0  0  0  0  0  0
    7.5060   -4.0443    0.0000 C   0  0  0  0  0  0  0  0  0  0  0  0
    6.8376   -0.6512    0.0000 C   0  0  0  0  0  0  0  0  0  0  0  0
    8.0030    0.0000    0.0000 C   0  0  0  0  0  0  0  0  0  0  0  0
    5.7066    0.0000    0.0000 C   0  0  0  0  0  0  0  0  0  0  0  0
    9.0826   -2.1250    0.0000 C   0  0  0  0  0  0  0  0  0  0  0  0
   10.2136   -2.7762    0.0000 C   0  0  0  0  0  0  0  0  0  0  0  0
   11.3789   -2.1250    0.0000 C   0  0  0  0  0  0  0  0  0  0  0  0
   12.5271   -2.7762    0.0000 C   0  0  0  0  0  0  0  0  0  0  0  0
   13.6924   -2.1250    0.0000 C   0  0  0  0  0  0  0  0  0  0  0  0
   14.8235   -2.7762    0.0000 C   0  0  0  0  0  0  0  0  0  0  0  0
   15.9888   -2.1250    0.0000 C   0  0  0  0  0  0  0  0  0  0  0  0
   11.3789   -0.7883    0.0000 O   0  0  0  0  0  0  0  0  0  0  0  0
   13.6924   -0.7883    0.0000 O   0  0  0  0  0  0  0  0  0  0  0  0
   15.9888   -0.7883    0.0000 O   0  0  0  0  0  0  0  0  0  0  0  0
   17.1370   -2.7762    0.0000 O   0  0  0  0  0  0  0  0  0  0  0  0
    5.3981   -5.1240    0.0000 C   0  0  0  0  0  0  0  0  0  0  0  0
    8.2943   -5.1240    0.0000 C   0  0  0  0  0  0  0  0  0  0  0  0
   10.2993   -6.2721    0.0000 C   0  0  0  0  0  0  0  0  0  0  0  0
    9.6138   -7.4203    0.0000 C   0  0  0  0  0  0  0  0  0  0  0  0
    9.6138   -5.1240    0.0000 C   0  0  0  0  0  0  0  0  0  0  0  0
    8.2943   -7.4203    0.0000 C   0  0  0  0  0  0  0  0  0  0  0  0
    7.6259   -6.2721    0.0000 C   0  0  0  0  0  0  0  0  0  0  0  0
    6.0493   -6.2550    0.0000 C   0  0  0  0  0  0  0  0  0  0  0  0
    5.3981   -7.4203    0.0000 C   0  0  0  0  0  0  0  0  0  0  0  0
    4.0615   -7.4203    0.0000 C   0  0  0  0  0  0  0  0  0  0  0  0
    4.0615   -5.1240    0.0000 C   0  0  0  0  0  0  0  0  0  0  0  0
    3.3931   -6.2550    0.0000 C   0  0  0  0  0  0  0  0  0  0  0  0
    2.3135   -0.7883    0.0000 C   0  0  0  0  0  0  0  0  0  0  0  0
    2.3135   -2.1250    0.0000 C   0  0  0  0  0  0  0  0  0  0  0  0
    1.1653   -0.1028    0.0000 C   0  0  0  0  0  0  0  0  0  0  0  0
    1.1653   -2.7762    0.0000 C   0  0  0  0  0  0  0  0  0  0  0  0
    0.0000   -0.7883    0.0000 C   0  0  0  0  0  0  0  0  0  0  0  0
    0.0000   -2.1250    0.0000 C   0  0  0  0  0  0  0  0  0  0  0  0
    3.4617   -2.7762    0.0000 N   0  0  0  0  0  0  0  0  0  0  0  0
    4.6098   -2.1250    0.0000 C   0  0  0  0  0  0  0  0  0  0  0  0
    4.6098   -0.7883    0.0000 O   0  0  0  0  0  0  0  0  0  0  0  0
   10.2993   -8.5856    0.0000 F   0  0  0  0  0  0  0  0  0  0  0  0
  1  2  2  0  0  0  0
  1  3  1  0  0  0  0
  1 39  1  0  0  0  0
  2  4  1  0  0  0  0
  2  6  1  0  0  0  0
  3  5  2  0  0  0  0
  3 20  1  0  0  0  0
  4  5  1  0  0  0  0
  4  9  1  0  0  0  0
  5 21  1  0  0  0  0
  6  7  1  0  0  0  0
  6  8  1  0  0  0  0
  9 10  1  0  0  0  0
 10 11  1  0  0  0  0
 11 12  1  0  0  0  0
 11 16  1  1  0  0  0
 12 13  1  0  0  0  0
 13 14  1  0  0  0  0
 13 17  1  1  0  0  0
 14 15  1  0  0  0  0
 15 18  1  0  0  0  0
 15 19  2  0  0  0  0
 20 27  2  0  0  0  0
 20 30  1  0  0  0  0
 21 24  1  0  0  0  0
 21 26  2  0  0  0  0
 22 23  1  0  0  0  0
 22 24  2  0  0  0  0
 23 25  2  0  0  0  0
 23 41  1  0  0  0  0
 25 26  1  0  0  0  0
 27 28  1  0  0  0  0
 28 29  2  0  0  0  0
 29 31  1  0  0  0  0
 30 31  2  0  0  0  0
 32 33  1  0  0  0  0
 32 34  2  0  0  0  0
 33 35  2  0  0  0  0
 33 38  1  0  0  0  0
 34 36  1  0  0  0  0
 35 37  1  0  0  0  0
 36 37  2  0  0  0  0
 38 39  1  0  0  0  0
 39 40  2  0  0  0  0
M  END
> <ID>
6241

> <Formula>
C33H35FN2O5

> <FW>
558.6398

> <DSSTox_CID>
9868

> <DSSTox_RID>
78825

> <DSSTox_GSID>
29868

> <DSSTox_FileID_Sort>
3507

> <TS_ChemName>
Atorvastatin

> <TS_ChemName_Synonyms>


> <TS_CASRN>
134523-00-5

> <CASRN_ChemName_Relationship>
primary

> <TS_Description>
single chemical compound

> <ChemNote>
stereochem

> <STRUCTURE_Shown>
tested chemical

> <STRUCTURE_Formula>
C33H35FN2O5

> <STRUCTURE_MW>
558.6398

> <STRUCTURE_ChemType>
defined organic

> <STRUCTURE_DefinedOrganicForm>
parent

> <STRUCTURE_IUPAC>
(3R,5R)-7-[2-(4-fluorophenyl)-3-phenyl-4-(phenylcarbamoyl)-5-(propan-2-yl)-1H-pyrrol-1-yl]-3,5-dihydroxyheptanoic acid

> <STRUCTURE_SMILES>
O[C@H](CCn1c(c(c(c1C(C)C)C(=O)Nc2ccccc2)c3ccccc3)c4ccc(F)cc4)C[C@@H](O)CC(=O)O

> <STRUCTURE_SMILES_Desalt>
O[C@H](CCn1c(c(c(c1C(C)C)C(=O)Nc2ccccc2)c3ccccc3)c4ccc(F)cc4)C[C@@H](O)CC(=O)O

> <Substance_modify_yyyymmdd>
20080429

$$$$
