134523-03-8
ChemmineR-0915142007XD

 83 88  0  0  1  0  0  0  0  0  2 V2000
    5.7711   -5.8121    0.0000 C    0  0  0  0  0  0  0  0  0  0  0  0
    6.8353   -6.6102    0.0000 C    0  0  0  0  0  0  0  0  0  0  0  0
    6.1804   -4.5432    0.0000 C    0  0  0  0  0  0  0  0  0  0  0  0
    7.9199   -5.8121    0.0000 N    0  0  0  0  0  0  0  0  0  0  0  0
    7.5106   -4.5432    0.0000 C    0  0  0  0  0  0  0  0  0  0  0  0
    6.8353   -7.9404    0.0000 C    0  0  0  0  0  0  0  0  0  0  0  0
    8.0018   -8.5953    0.0000 C    0  0  0  0  0  0  0  0  0  0  0  0
    5.7097   -8.5953    0.0000 C    0  0  0  0  0  0  0  0  0  0  0  0
    9.0864   -6.4669    0.0000 C    0  0  0  0  0  0  0  0  0  0  0  0
   10.2120   -5.8121    0.0000 C    0  0  0  0  0  0  0  0  0  0  0  0
   11.3785   -6.4669    0.0000 C    0  0  0  0  0  0  0  0  0  0  0  0
   12.5246   -5.8121    0.0000 C    0  0  0  0  0  0  0  0  0  0  0  0
   13.6911   -6.4669    0.0000 C    0  0  0  0  0  0  0  0  0  0  0  0
   14.8371   -5.8121    0.0000 C    0  0  0  0  0  0  0  0  0  0  0  0
   16.0036   -6.4669    0.0000 C    0  0  0  0  0  0  0  0  0  0  0  0
   11.3785   -7.7972    0.0000 O    0  0  0  0  0  0  0  0  0  0  0  0
   13.6911   -7.7972    0.0000 O    0  0  0  0  0  0  0  0  0  0  0  0
   16.0036   -7.7972    0.0000 O    0  5  0  0  0  0  0  0  0  0  0  0
   17.1497   -5.8121    0.0000 O    0  0  0  0  0  0  0  0  0  0  0  0
    5.4028   -3.4586    0.0000 C    0  0  0  0  0  0  0  0  0  0  0  0
    8.2883   -3.4586    0.0000 C    0  0  0  0  0  0  0  0  0  0  0  0
   10.2939   -2.3125    0.0000 C    0  0  0  0  0  0  0  0  0  0  0  0
    9.6185   -1.1665    0.0000 C    0  0  0  0  0  0  0  0  0  0  0  0
    9.6185   -3.4586    0.0000 C    0  0  0  0  0  0  0  0  0  0  0  0
    8.2883   -1.1665    0.0000 C    0  0  0  0  0  0  0  0  0  0  0  0
    7.6334   -2.3125    0.0000 C    0  0  0  0  0  0  0  0  0  0  0  0
    6.0576   -2.3330    0.0000 C    0  0  0  0  0  0  0  0  0  0  0  0
    5.4028   -1.1665    0.0000 C    0  0  0  0  0  0  0  0  0  0  0  0
    4.0725   -1.1665    0.0000 C    0  0  0  0  0  0  0  0  0  0  0  0
    4.0725   -3.4586    0.0000 C    0  0  0  0  0  0  0  0  0  0  0  0
    3.3972   -2.3330    0.0000 C    0  0  0  0  0  0  0  0  0  0  0  0
    2.3125   -7.7972    0.0000 C    0  0  0  0  0  0  0  0  0  0  0  0
    2.3125   -6.4669    0.0000 C    0  0  0  0  0  0  0  0  0  0  0  0
    1.1665   -8.4930    0.0000 C    0  0  0  0  0  0  0  0  0  0  0  0
    1.1665   -5.8121    0.0000 C    0  0  0  0  0  0  0  0  0  0  0  0
    0.0000   -7.7972    0.0000 C    0  0  0  0  0  0  0  0  0  0  0  0
    0.0000   -6.4669    0.0000 C    0  0  0  0  0  0  0  0  0  0  0  0
    3.4586   -5.8121    0.0000 N    0  0  0  0  0  0  0  0  0  0  0  0
    4.6046   -6.4669    0.0000 C    0  0  0  0  0  0  0  0  0  0  0  0
    4.6046   -7.7972    0.0000 O    0  0  0  0  0  0  0  0  0  0  0  0
   10.2939    0.0000    0.0000 F    0  0  0  0  0  0  0  0  0  0  0  0
    5.8325  -14.6529    0.0000 C    0  0  0  0  0  0  0  0  0  0  0  0
    6.8967  -13.8548    0.0000 C    0  0  0  0  0  0  0  0  0  0  0  0
    6.2214  -15.9218    0.0000 C    0  0  0  0  0  0  0  0  0  0  0  0
    7.9813  -14.6529    0.0000 N    0  0  0  0  0  0  0  0  0  0  0  0
    7.5720  -15.9218    0.0000 C    0  0  0  0  0  0  0  0  0  0  0  0
    6.8967  -12.5246    0.0000 C    0  0  0  0  0  0  0  0  0  0  0  0
    8.0632  -11.8697    0.0000 C    0  0  0  0  0  0  0  0  0  0  0  0
    5.7711  -11.8697    0.0000 C    0  0  0  0  0  0  0  0  0  0  0  0
    9.1478  -13.9980    0.0000 C    0  0  0  0  0  0  0  0  0  0  0  0
   10.2734  -14.6529    0.0000 C    0  0  0  0  0  0  0  0  0  0  0  0
   11.4399  -13.9980    0.0000 C    0  0  0  0  0  0  0  0  0  0  0  0
   12.5860  -14.6529    0.0000 C    0  0  0  0  0  0  0  0  0  0  0  0
   13.7525  -13.9980    0.0000 C    0  0  0  0  0  0  0  0  0  0  0  0
   14.8780  -14.6529    0.0000 C    0  0  0  0  0  0  0  0  0  0  0  0
   16.0445  -13.9980    0.0000 C    0  0  0  0  0  0  0  0  0  0  0  0
   11.4399  -12.6678    0.0000 O    0  0  0  0  0  0  0  0  0  0  0  0
   13.7525  -12.6678    0.0000 O    0  0  0  0  0  0  0  0  0  0  0  0
   16.0445  -12.6678    0.0000 O    0  5  0  0  0  0  0  0  0  0  0  0
   17.1906  -14.6529    0.0000 O    0  0  0  0  0  0  0  0  0  0  0  0
    5.4437  -17.0064    0.0000 C    0  0  0  0  0  0  0  0  0  0  0  0
    8.3497  -17.0064    0.0000 C    0  0  0  0  0  0  0  0  0  0  0  0
   10.3553  -18.1524    0.0000 C    0  0  0  0  0  0  0  0  0  0  0  0
    9.6799  -19.2985    0.0000 C    0  0  0  0  0  0  0  0  0  0  0  0
    9.6799  -17.0064    0.0000 C    0  0  0  0  0  0  0  0  0  0  0  0
    8.3497  -19.2985    0.0000 C    0  0  0  0  0  0  0  0  0  0  0  0
    7.6744  -18.1524    0.0000 C    0  0  0  0  0  0  0  0  0  0  0  0
    6.0986  -18.1320    0.0000 C    0  0  0  0  0  0  0  0  0  0  0  0
    5.4437  -19.2985    0.0000 C    0  0  0  0  0  0  0  0  0  0  0  0
    4.1135  -19.2985    0.0000 C    0  0  0  0  0  0  0  0  0  0  0  0
    4.1135  -17.0064    0.0000 C    0  0  0  0  0  0  0  0  0  0  0  0
    3.4381  -18.1320    0.0000 C    0  0  0  0  0  0  0  0  0  0  0  0
    2.3739  -12.6678    0.0000 C    0  0  0  0  0  0  0  0  0  0  0  0
    2.3739  -13.9980    0.0000 C    0  0  0  0  0  0  0  0  0  0  0  0
    1.2279  -11.9720    0.0000 C    0  0  0  0  0  0  0  0  0  0  0  0
    1.2279  -14.6529    0.0000 C    0  0  0  0  0  0  0  0  0  0  0  0
    0.0614  -12.6678    0.0000 C    0  0  0  0  0  0  0  0  0  0  0  0
    0.0614  -13.9980    0.0000 C    0  0  0  0  0  0  0  0  0  0  0  0
    3.5200  -14.6529    0.0000 N    0  0  0  0  0  0  0  0  0  0  0  0
    4.6660  -13.9980    0.0000 C    0  0  0  0  0  0  0  0  0  0  0  0
    4.6660  -12.6678    0.0000 O    0  0  0  0  0  0  0  0  0  0  0  0
   10.3553  -20.4650    0.0000 F    0  0  0  0  0  0  0  0  0  0  0  0
   16.0036  -10.2325    0.0000 Ca   0  2  0  0  0  0  0  0  0  0  0  0
  1  2  2  0  0  0  0
  1  3  1  0  0  0  0
  1 39  1  0  0  0  0
  2  4  1  0  0  0  0
  2  6  1  0  0  0  0
  3  5  2  0  0  0  0
  3 20  1  0  0  0  0
  4  5  1  0  0  0  0
  4  9  1  0  0  0  0
  5 21  1  0  0  0  0
  6  7  1  0  0  0  0
  6  8  1  0  0  0  0
  9 10  1  0  0  0  0
 10 11  1  0  0  0  0
 11 12  1  0  0  0  0
 11 16  1  6  0  0  0
 12 13  1  0  0  0  0
 13 14  1  0  0  0  0
 13 17  1  6  0  0  0
 14 15  1  0  0  0  0
 15 18  1  0  0  0  0
 15 19  2  0  0  0  0
 20 27  2  0  0  0  0
 20 30  1  0  0  0  0
 21 24  1  0  0  0  0
 21 26  2  0  0  0  0
 22 23  1  0  0  0  0
 22 24  2  0  0  0  0
 23 25  2  0  0  0  0
 23 41  1  0  0  0  0
 25 26  1  0  0  0  0
 27 28  1  0  0  0  0
 28 29  2  0  0  0  0
 29 31  1  0  0  0  0
 30 31  2  0  0  0  0
 32 33  1  0  0  0  0
 32 34  2  0  0  0  0
 33 35  2  0  0  0  0
 33 38  1  0  0  0  0
 34 36  1  0  0  0  0
 35 37  1  0  0  0  0
 36 37  2  0  0  0  0
 38 39  1  0  0  0  0
 39 40  2  0  0  0  0
 42 43  2  0  0  0  0
 42 44  1  0  0  0  0
 42 80  1  0  0  0  0
 43 45  1  0  0  0  0
 43 47  1  0  0  0  0
 44 46  2  0  0  0  0
 44 61  1  0  0  0  0
 45 46  1  0  0  0  0
 45 50  1  0  0  0  0
 46 62  1  0  0  0  0
 47 48  1  0  0  0  0
 47 49  1  0  0  0  0
 50 51  1  0  0  0  0
 51 52  1  0  0  0  0
 52 53  1  0  0  0  0
 52 57  1  1  0  0  0
 53 54  1  0  0  0  0
 54 55  1  0  0  0  0
 54 58  1  1  0  0  0
 55 56  1  0  0  0  0
 56 59  1  0  0  0  0
 56 60  2  0  0  0  0
 61 68  2  0  0  0  0
 61 71  1  0  0  0  0
 62 65  1  0  0  0  0
 62 67  2  0  0  0  0
 63 64  1  0  0  0  0
 63 65  2  0  0  0  0
 64 66  2  0  0  0  0
 64 82  1  0  0  0  0
 66 67  1  0  0  0  0
 68 69  1  0  0  0  0
 69 70  2  0  0  0  0
 70 72  1  0  0  0  0
 71 72  2  0  0  0  0
 73 74  1  0  0  0  0
 73 75  2  0  0  0  0
 74 76  2  0  0  0  0
 74 79  1  0  0  0  0
 75 77  1  0  0  0  0
 76 78  1  0  0  0  0
 77 78  2  0  0  0  0
 79 80  1  0  0  0  0
 80 81  2  0  0  0  0
M  END
> <ID>
9973

> <Formula>
C66H68CaF2N4O10

> <FW>
1155.3417 (557.6324+557.6324+40.0769)

> <DSSTox_CID>
24303

> <DSSTox_RID>
80143

> <DSSTox_GSID>
44303

> <DSSTox_FileID_Sort>
4825

> <TS_ChemName>
Atorvastatin calcium

> <TS_ChemName_Synonyms>


> <TS_CASRN>
134523-03-8

> <CASRN_ChemName_Relationship>
primary

> <TS_Description>
single chemical compound

> <ChemNote>
stereochem; parent [134523-00-5]

> <STRUCTURE_Shown>
tested chemical

> <STRUCTURE_Formula>
C66H68CaF2N4O10

> <STRUCTURE_MW>
1155.3417

> <STRUCTURE_ChemType>
defined organic

> <STRUCTURE_DefinedOrganicForm>
salt

> <STRUCTURE_IUPAC>
calcium bis{(3R,5R)-7-[2-(4-fluorophenyl)-3-phenyl-4-(phenylcarbamoyl)-5-(propan-2-yl)-1H-pyrrol-1-yl]-3,5-dihydroxyheptanoate}

> <STRUCTURE_SMILES>
[Ca+2].O[C@H](CCn1c(c(c(c1C(C)C)C(=O)Nc2ccccc2)c3ccccc3)c4ccc(F)cc4)C[C@@H](O)CC([O-])=O.[O-]C(=O)C[C@H](O)C[C@H](O)CCn4c(c1ccc(F)cc1)c(c2ccccc2)c(C(=O)Nc3ccccc3)c4C(C)C

> <STRUCTURE_SMILES_Desalt>
O[C@H](CCn1c(c(c(c1C(C)C)C(=O)Nc2ccccc2)c3ccccc3)c4ccc(F)cc4)C[C@@H](O)CC(=O)O

> <Substance_modify_yyyymmdd>
20090324

$$$$
