13466-78-9
ChemmineR-0915142007XD

 10 11  0  0  0  0  0  0  0  0  1 V2000
    2.2980   -0.6623    0.0000 C   0  0  0  0  0  0  0  0  0  0  0  0
    3.4614    0.0000    0.0000 C   0  0  0  0  0  0  0  0  0  0  0  0
    4.6132   -0.6623    0.0000 C   0  0  0  0  0  0  0  0  0  0  0  0
    4.6132   -1.9870    0.0000 C   0  0  0  0  0  0  0  0  0  0  0  0
    3.4614   -2.6666    0.0000 C   0  0  0  0  0  0  0  0  0  0  0  0
    2.2980   -1.9870    0.0000 C   0  0  0  0  0  0  0  0  0  0  0  0
    1.1461   -1.3246    0.0000 C   0  0  0  0  0  0  0  0  0  0  0  0
    5.7593    0.0000    0.0000 C   0  0  0  0  0  0  0  0  0  0  0  0
    0.0000   -0.6623    0.0000 C   0  0  0  0  0  0  0  0  0  0  0  0
    0.0000   -1.9870    0.0000 C   0  0  0  0  0  0  0  0  0  0  0  0
  1  2  1  0  0  0  0
  1  7  1  0  0  0  0
  1  6  1  0  0  0  0
  2  3  1  0  0  0  0
  3  4  2  0  0  0  0
  3  8  1  0  0  0  0
  4  5  1  0  0  0  0
  5  6  1  0  0  0  0
  6  7  1  0  0  0  0
  7  9  1  0  0  0  0
  7 10  1  0  0  0  0
M  END
> <ID>
12599

> <Formula>
C10H16

> <FW>
136.234

> <DSSTox_CID>
27462

> <DSSTox_RID>
82362

> <DSSTox_GSID>
47462

> <DSSTox_FileID_Sort>
7043

> <TS_ChemName>
Bicyclo[4.1.0]hept-3-ene, 3,7,7-trimethyl-

> <TS_ChemName_Synonyms>


> <TS_CASRN>
13466-78-9

> <CASRN_ChemName_Relationship>
primary

> <TS_Description>
single chemical compound

> <ChemNote>


> <STRUCTURE_Shown>
tested chemical

> <STRUCTURE_Formula>
C10H16

> <STRUCTURE_MW>
136.234

> <STRUCTURE_ChemType>
defined organic

> <STRUCTURE_DefinedOrganicForm>
parent

> <STRUCTURE_IUPAC>
3,7,7-trimethylbicyclo[4.1.0]hept-3-ene

> <STRUCTURE_SMILES>
CC2(C)C1CC=C(C)CC12

> <STRUCTURE_SMILES_Desalt>
CC2(C)C1CC=C(C)CC12

> <Substance_modify_yyyymmdd>
20100621

$$$$
