134605-64-4
ChemmineR-0915142007XD

 32 33  0  0  0  0  0  0  0  0  1 V2000
    9.2232   -3.1391    0.0000 C    0  0  0  0  0  0  0  0  0  0  0  0
    9.2232   -1.8123    0.0000 O    0  0  0  0  0  0  0  0  0  0  0  0
    8.0582   -3.8025    0.0000 C    0  0  0  0  0  0  0  0  0  0  0  0
   10.3882   -3.8025    0.0000 O    0  0  0  0  0  0  0  0  0  0  0  0
    8.0582   -5.1294    0.0000 C    0  0  0  0  0  0  0  0  0  0  0  0
    6.9255   -3.1391    0.0000 C    0  0  0  0  0  0  0  0  0  0  0  0
    6.9255   -5.8090    0.0000 C    0  0  0  0  0  0  0  0  0  0  0  0
    5.7605   -3.8025    0.0000 C    0  0  0  0  0  0  0  0  0  0  0  0
    5.7605   -5.1294    0.0000 C    0  0  0  0  0  0  0  0  0  0  0  0
    9.2232   -5.8090    0.0000 Cl   0  0  0  0  0  0  0  0  0  0  0  0
    4.6278   -3.1391    0.0000 N    0  0  0  0  0  0  0  0  0  0  0  0
    2.3139   -3.1391    0.0000 N    0  0  0  0  0  0  0  0  0  0  0  0
    3.4627   -3.8025    0.0000 C    0  0  0  0  0  0  0  0  0  0  0  0
    3.4627   -1.1489    0.0000 C    0  0  0  0  0  0  0  0  0  0  0  0
    4.6278   -1.8123    0.0000 C    0  0  0  0  0  0  0  0  0  0  0  0
    2.3139   -1.8123    0.0000 C    0  0  0  0  0  0  0  0  0  0  0  0
    1.1650   -3.8025    0.0000 C    0  0  0  0  0  0  0  0  0  0  0  0
    3.4627   -5.1294    0.0000 O    0  0  0  0  0  0  0  0  0  0  0  0
    5.7605   -1.1489    0.0000 O    0  0  0  0  0  0  0  0  0  0  0  0
    1.1650   -1.1489    0.0000 C    0  0  0  0  0  0  0  0  0  0  0  0
    0.0000   -0.5016    0.0000 F    0  0  0  0  0  0  0  0  0  0  0  0
    0.5016   -2.2977    0.0000 F    0  0  0  0  0  0  0  0  0  0  0  0
    1.8285    0.0000    0.0000 F    0  0  0  0  0  0  0  0  0  0  0  0
   11.5209   -3.1391    0.0000 C    0  0  0  0  0  0  0  0  0  0  0  0
   12.6859   -2.4757    0.0000 C    0  0  0  0  0  0  0  0  0  0  0  0
   12.1843   -4.3042    0.0000 C    0  0  0  0  0  0  0  0  0  0  0  0
   11.5209   -5.4530    0.0000 O    0  0  0  0  0  0  0  0  0  0  0  0
   13.5112   -4.3042    0.0000 O    0  0  0  0  0  0  0  0  0  0  0  0
   16.1810   -1.9903    0.0000 C    0  0  0  0  0  0  0  0  0  0  0  0
   15.5176   -3.1391    0.0000 C    0  0  0  0  0  0  0  0  0  0  0  0
   14.1908   -3.1391    0.0000 C    0  0  0  0  0  0  0  0  0  0  0  0
   10.8575   -1.9903    0.0000 C    0  0  0  0  0  0  0  0  0  0  0  0
  1  2  2  0  0  0  0
  1  3  1  0  0  0  0
  1  4  1  0  0  0  0
  3  5  2  0  0  0  0
  3  6  1  0  0  0  0
  4 24  1  0  0  0  0
  5  7  1  0  0  0  0
  5 10  1  0  0  0  0
  6  8  2  0  0  0  0
  7  9  2  0  0  0  0
  8  9  1  0  0  0  0
  8 11  1  0  0  0  0
 11 13  1  0  0  0  0
 11 15  1  0  0  0  0
 12 13  1  0  0  0  0
 12 16  1  0  0  0  0
 12 17  1  0  0  0  0
 13 18  2  0  0  0  0
 14 15  1  0  0  0  0
 14 16  2  0  0  0  0
 15 19  2  0  0  0  0
 16 20  1  0  0  0  0
 20 21  1  0  0  0  0
 20 22  1  0  0  0  0
 20 23  1  0  0  0  0
 24 25  1  0  0  0  0
 24 26  1  0  0  0  0
 24 32  1  0  0  0  0
 26 27  2  0  0  0  0
 26 28  1  0  0  0  0
 28 31  1  0  0  0  0
 29 30  2  0  0  0  0
 30 31  1  0  0  0  0
M  END
> <ID>
6756

> <Formula>
C20H18ClF3N2O6

> <FW>
474.8149

> <DSSTox_CID>
14365

> <DSSTox_RID>
79148

> <DSSTox_GSID>
34365

> <DSSTox_FileID_Sort>
3830

> <TS_ChemName>
Butafenacil

> <TS_ChemName_Synonyms>
Butafenacil (Benzoic acid, 2-chloro-5-[3,6-dihydro-3-methyl-2,6-dioxo-4-(trifluoromethyl)-1(2H)-pyrimidinyl]-, 1,1-dimethyl-2-oxo-2-(2-propenyloxy)ethyl ester)

> <TS_CASRN>
134605-64-4

> <CASRN_ChemName_Relationship>
primary

> <TS_Description>
single chemical compound

> <ChemNote>


> <STRUCTURE_Shown>
tested chemical

> <STRUCTURE_Formula>
C20H18ClF3N2O6

> <STRUCTURE_MW>
474.8149

> <STRUCTURE_ChemType>
defined organic

> <STRUCTURE_DefinedOrganicForm>
parent

> <STRUCTURE_IUPAC>
2-methyl-1-oxo-1-(prop-2-en-1-yloxy)propan-2-yl 2-chloro-5-[3-methyl-2,6-dioxo-4-(trifluoromethyl)-3,6-dihydropyrimidin-1(2H)-yl]benzoate

> <STRUCTURE_SMILES>
O=C(OCC=C)C(C)(C)OC(=O)c1cc(ccc1Cl)N2C(=O)C=C(N(C)C2=O)C(F)(F)F

> <STRUCTURE_SMILES_Desalt>
O=C(OCC=C)C(C)(C)OC(=O)c1cc(ccc1Cl)N2C(=O)C=C(N(C)C2=O)C(F)(F)F

> <Substance_modify_yyyymmdd>
20080429

$$$$
