13463-41-7
ChemmineR-0915142007XD

 17 18  0  0  0  0  0  0  0  0  2 V2000
    3.4556   -2.7237    0.0000 O    0  5  0  0  0  0  0  0  0  0  0  0
    2.2975   -0.7134    0.0000 C    0  0  0  0  0  0  0  0  0  0  0  0
    2.2975   -2.0567    0.0000 N    0  3  0  0  0  0  0  0  0  0  0  0
    1.1488   -0.0649    0.0000 C    0  0  0  0  0  0  0  0  0  0  0  0
    1.1488   -2.7237    0.0000 C    0  0  0  0  0  0  0  0  0  0  0  0
    0.0000   -0.7134    0.0000 C    0  0  0  0  0  0  0  0  0  0  0  0
    0.0000   -2.0567    0.0000 C    0  0  0  0  0  0  0  0  0  0  0  0
    3.4556   -0.0649    0.0000 S    0  0  0  0  0  0  0  0  0  0  0  0
    4.6044   -0.7134    0.0000 Zn   0  0  0  0  0  0  0  0  0  0  0  0
    5.8087   -2.6774    0.0000 O    0  5  0  0  0  0  0  0  0  0  0  0
    6.9390   -0.6670    0.0000 C    0  0  0  0  0  0  0  0  0  0  0  0
    6.9482   -2.0104    0.0000 N    0  3  0  0  0  0  0  0  0  0  0  0
    8.0877    0.0000    0.0000 C    0  0  0  0  0  0  0  0  0  0  0  0
    8.1155   -2.6589    0.0000 C    0  0  0  0  0  0  0  0  0  0  0  0
    9.2458   -0.6485    0.0000 C    0  0  0  0  0  0  0  0  0  0  0  0
    9.2643   -1.9918    0.0000 C    0  0  0  0  0  0  0  0  0  0  0  0
    5.7717   -0.0649    0.0000 S    0  0  0  0  0  0  0  0  0  0  0  0
  1  3  1  0  0  0  0
  2  3  1  0  0  0  0
  2  4  2  0  0  0  0
  2  8  1  0  0  0  0
  3  5  2  0  0  0  0
  4  6  1  0  0  0  0
  5  7  1  0  0  0  0
  6  7  2  0  0  0  0
  8  9  1  0  0  0  0
  9 17  1  0  0  0  0
 10 12  1  0  0  0  0
 11 12  1  0  0  0  0
 11 13  2  0  0  0  0
 11 17  1  0  0  0  0
 12 14  2  0  0  0  0
 13 15  1  0  0  0  0
 14 16  1  0  0  0  0
 15 16  2  0  0  0  0
M  END
> <ID>
4651

> <Formula>
C10H8N2O2S2Zn

> <FW>
317.7217

> <DSSTox_CID>
6314

> <DSSTox_RID>
78100

> <DSSTox_GSID>
26314

> <DSSTox_FileID_Sort>
2783

> <TS_ChemName>
Zinc pyrithione

> <TS_ChemName_Synonyms>
Zinc pyrithione (Zinc, bis[1-(hydroxy-.kappa.O)-2(1H)-pyridinethionato-.kappa.S2]-, (T-4)-)

> <TS_CASRN>
13463-41-7

> <CASRN_ChemName_Relationship>
primary

> <TS_Description>
single chemical compound

> <ChemNote>
parent [1121-30-8]

> <STRUCTURE_Shown>
tested chemical

> <STRUCTURE_Formula>
C10H8N2O2S2Zn

> <STRUCTURE_MW>
317.7217

> <STRUCTURE_ChemType>
organometallic

> <STRUCTURE_DefinedOrganicForm>


> <STRUCTURE_IUPAC>
zinc bis(pyridine-2-thiolate 1-oxide)

> <STRUCTURE_SMILES>
[O-][n+]2ccccc2S[Zn]Sc1cccc[n+]1[O-]

> <STRUCTURE_SMILES_Desalt>
O[n+]2ccccc2S[Zn]Sc1cccc[n+]1O

> <Substance_modify_yyyymmdd>
20080429

$$$$
