13473-26-2
ChemmineR-0915142007XD

 33 37  0  0  0  0  0  0  0  0  1 V2000
    4.0225   -2.2254    0.0000 C    0  0  0  0  0  0  0  0  0  0  0  0
    3.4545   -3.3800    0.0000 C    0  0  0  0  0  0  0  0  0  0  0  0
    5.8662   -3.5569    0.0000 O    0  0  0  0  0  0  0  0  0  0  0  0
    5.3075   -2.1323    0.0000 C    0  0  0  0  0  0  0  0  0  0  0  0
    4.6836   -4.5905    0.0000 C    0  0  0  0  0  0  0  0  0  0  0  0
    3.3055   -1.1639    0.0000 C    0  0  0  0  0  0  0  0  0  0  0  0
    2.1789   -3.4731    0.0000 C    0  0  0  0  0  0  0  0  0  0  0  0
    1.4526   -2.3930    0.0000 C    0  0  0  0  0  0  0  0  0  0  0  0
    2.0206   -1.2570    0.0000 C    0  0  0  0  0  0  0  0  0  0  0  0
    4.8791   -7.4956    0.0000 O    0  0  0  0  0  0  0  0  0  0  0  0
    3.6594   -7.0394    0.0000 C    0  0  0  0  0  0  0  0  0  0  0  0
    5.8848   -6.6483    0.0000 C    0  0  0  0  0  0  0  0  0  0  0  0
    3.4452   -5.7730    0.0000 C    0  0  0  0  0  0  0  0  0  0  0  0
    5.6520   -5.3820    0.0000 C    0  0  0  0  0  0  0  0  0  0  0  0
    7.1046   -7.1046    0.0000 C    0  0  0  0  0  0  0  0  0  0  0  0
    2.6630   -7.8867    0.0000 C    0  0  0  0  0  0  0  0  0  0  0  0
    2.2068   -5.3261    0.0000 C    0  0  0  0  0  0  0  0  0  0  0  0
    6.6483   -4.5439    0.0000 C    0  0  0  0  0  0  0  0  0  0  0  0
    8.0916   -6.2572    0.0000 C    0  0  0  0  0  0  0  0  0  0  0  0
    1.2198   -6.1641    0.0000 C    0  0  0  0  0  0  0  0  0  0  0  0
    1.4433   -7.4305    0.0000 C    0  0  0  0  0  0  0  0  0  0  0  0
    7.8681   -4.9816    0.0000 C    0  0  0  0  0  0  0  0  0  0  0  0
    5.8662   -0.9870    0.0000 O    0  0  0  0  0  0  0  0  0  0  0  0
    0.0000   -5.7172    0.0000 Br   0  0  0  0  0  0  0  0  0  0  0  0
    2.8958   -9.1717    0.0000 Br   0  0  0  0  0  0  0  0  0  0  0  0
    7.3280   -8.3709    0.0000 Br   0  0  0  0  0  0  0  0  0  0  0  0
    8.8551   -4.1529    0.0000 Br   0  0  0  0  0  0  0  0  0  0  0  0
    3.8642    0.0000    0.0000 Cl   0  0  0  0  0  0  0  0  0  0  0  0
    1.2943   -0.1769    0.0000 Cl   0  0  0  0  0  0  0  0  0  0  0  0
    0.1676   -2.4861    0.0000 Cl   0  0  0  0  0  0  0  0  0  0  0  0
    1.6109   -4.6371    0.0000 Cl   0  0  0  0  0  0  0  0  0  0  0  0
    0.4563   -8.2778    0.0000 O    0  0  0  0  0  0  0  0  0  0  0  0
    9.3114   -6.7135    0.0000 O    0  0  0  0  0  0  0  0  0  0  0  0
  1  2  2  0  0  0  0
  1  4  1  0  0  0  0
  1  6  1  0  0  0  0
  2  5  1  0  0  0  0
  2  7  1  0  0  0  0
  3  4  1  0  0  0  0
  3  5  1  0  0  0  0
  4 23  2  0  0  0  0
  5 14  1  0  0  0  0
  5 13  1  0  0  0  0
  6  9  2  0  0  0  0
  6 28  1  0  0  0  0
  7  8  2  0  0  0  0
  7 31  1  0  0  0  0
  8  9  1  0  0  0  0
  8 30  1  0  0  0  0
  9 29  1  0  0  0  0
 10 11  1  0  0  0  0
 10 12  1  0  0  0  0
 11 13  2  0  0  0  0
 11 16  1  0  0  0  0
 12 14  2  0  0  0  0
 12 15  1  0  0  0  0
 13 17  1  0  0  0  0
 14 18  1  0  0  0  0
 15 19  2  0  0  0  0
 15 26  1  0  0  0  0
 16 21  2  0  0  0  0
 16 25  1  0  0  0  0
 17 20  2  0  0  0  0
 18 22  2  0  0  0  0
 19 22  1  0  0  0  0
 19 33  1  0  0  0  0
 20 21  1  0  0  0  0
 20 24  1  0  0  0  0
 21 32  1  0  0  0  0
 22 27  1  0  0  0  0
M  END
> <ID>
6308

> <Formula>
C20H4Br4Cl4O5

> <FW>
785.6708

> <DSSTox_CID>
11089

> <DSSTox_RID>
78862

> <DSSTox_GSID>
31089

> <DSSTox_FileID_Sort>
3544

> <TS_ChemName>
D&C Red 27

> <TS_ChemName_Synonyms>


> <TS_CASRN>
13473-26-2

> <CASRN_ChemName_Relationship>
primary

> <TS_Description>
single chemical compound

> <ChemNote>
C.I. 45410A

> <STRUCTURE_Shown>
tested chemical

> <STRUCTURE_Formula>
C20H4Br4Cl4O5

> <STRUCTURE_MW>
785.6708

> <STRUCTURE_ChemType>
defined organic

> <STRUCTURE_DefinedOrganicForm>
parent

> <STRUCTURE_IUPAC>
2',4',5',7'-tetrabromo-4,5,6,7-tetrachloro-3',6'-dihydroxy-3H-spiro[2-benzofuran-1,9'-xanthen]-3-one

> <STRUCTURE_SMILES>
Brc4c5Oc1c(Br)c(O)c(Br)cc1C3(OC(=O)c2c3c(Cl)c(Cl)c(Cl)c2Cl)c5cc(Br)c4O

> <STRUCTURE_SMILES_Desalt>
Brc4c5Oc1c(Br)c(O)c(Br)cc1C3(OC(=O)c2c3c(Cl)c(Cl)c(Cl)c2Cl)c5cc(Br)c4O

> <Substance_modify_yyyymmdd>
20080429

$$$$
