13481-87-3
ChemmineR-0915142007XD

 12 11  0  0  0  0  0  0  0  0  1 V2000
    2.2941   -1.3603    0.0000 C   0  0  0  0  0  0  0  0  0  0  0  0
    3.4699   -2.0174    0.0000 C   0  0  0  0  0  0  0  0  0  0  0  0
    4.6112   -1.3603    0.0000 C   0  0  0  0  0  0  0  0  0  0  0  0
    5.7640   -2.0174    0.0000 C   0  0  0  0  0  0  0  0  0  0  0  0
    6.9168   -1.3603    0.0000 C   0  0  0  0  0  0  0  0  0  0  0  0
    8.1158   -2.0174    0.0000 C   0  0  0  0  0  0  0  0  0  0  0  0
    9.2340   -1.3603    0.0000 C   0  0  0  0  0  0  0  0  0  0  0  0
   10.3753   -2.0174    0.0000 C   0  0  0  0  0  0  0  0  0  0  0  0
   11.5281   -1.3603    0.0000 C   0  0  0  0  0  0  0  0  0  0  0  0
    2.2941    0.0000    0.0000 O   0  0  0  0  0  0  0  0  0  0  0  0
    1.1528   -2.0174    0.0000 O   0  0  0  0  0  0  0  0  0  0  0  0
    0.0000   -1.3603    0.0000 C   0  0  0  0  0  0  0  0  0  0  0  0
  1  2  1  0  0  0  0
  1 11  1  0  0  0  0
  1 10  2  0  0  0  0
  2  3  1  0  0  0  0
  3  4  2  3  0  0  0
  4  5  1  0  0  0  0
  5  6  1  0  0  0  0
  6  7  1  0  0  0  0
  7  8  1  0  0  0  0
  8  9  1  0  0  0  0
 11 12  1  0  0  0  0
M  END
> <ID>
12780

> <Formula>
C10H18O2

> <FW>
170.2487

> <DSSTox_CID>
27659

> <DSSTox_RID>
82482

> <DSSTox_GSID>
47659

> <DSSTox_FileID_Sort>
7163

> <TS_ChemName>
Methyl 3-nonenoate

> <TS_ChemName_Synonyms>


> <TS_CASRN>
13481-87-3

> <CASRN_ChemName_Relationship>
primary

> <TS_Description>
mixture of Z,E isomers

> <ChemNote>
mixture or Z,E isomers

> <STRUCTURE_Shown>
representative isomer in mixture

> <STRUCTURE_Formula>
C10H18O2

> <STRUCTURE_MW>
170.2487

> <STRUCTURE_ChemType>
defined organic

> <STRUCTURE_DefinedOrganicForm>
parent

> <STRUCTURE_IUPAC>
methyl non-3-enoate

> <STRUCTURE_SMILES>
O=C(CC=CCCCCC)OC

> <STRUCTURE_SMILES_Desalt>
O=C(CC=CCCCCC)OC

> <Substance_modify_yyyymmdd>
20101214

$$$$
