134865-33-1
ChemmineR-0915142007XD

 16 16  0  0  1  0  0  0  0  0  1 V2000
    3.4314   -1.9871    0.0000 C    0  0  0  0  0  0  0  0  0  0  0  0
    3.4314   -3.3394    0.0000 C    0  0  0  0  0  0  0  0  0  0  0  0
    2.2999   -1.3155    0.0000 C    0  0  0  0  0  0  0  0  0  0  0  0
    2.2999   -3.9834    0.0000 C    0  0  0  0  0  0  0  0  0  0  0  0
    1.1315   -1.9871    0.0000 C    0  0  0  0  0  0  0  0  0  0  0  0
    1.1315   -3.3394    0.0000 C    0  0  0  0  0  0  0  0  0  0  0  0
    0.0000   -3.9834    0.0000 O    0  0  0  0  0  0  0  0  0  0  0  0
    4.5998   -3.9834    0.0000 Cl   0  0  0  0  0  0  0  0  0  0  0  0
    4.5998   -1.3155    0.0000 C    0  0  0  0  0  0  0  0  0  0  0  0
    5.7313   -1.9871    0.0000 C    0  0  0  0  0  0  0  0  0  0  0  0
    6.8629   -1.3155    0.0000 N    0  0  0  0  0  0  0  0  0  0  0  0
    4.5998    0.0000    0.0000 O    0  0  0  0  0  0  0  0  0  0  0  0
    8.0312   -1.9871    0.0000 C    0  0  0  0  0  0  0  0  0  0  0  0
    7.3873   -3.1555    0.0000 C    0  0  0  0  0  0  0  0  0  0  0  0
    9.1996   -2.6679    0.0000 C    0  0  0  0  0  0  0  0  0  0  0  0
    8.6936   -0.8556    0.0000 C    0  0  0  0  0  0  0  0  0  0  0  0
  1  2  1  0  0  0  0
  1  3  2  0  0  0  0
  1  9  1  0  0  0  0
  2  4  2  0  0  0  0
  2  8  1  0  0  0  0
  3  5  1  0  0  0  0
  4  6  1  0  0  0  0
  5  6  2  0  0  0  0
  6  7  1  0  0  0  0
  9 10  1  0  0  0  0
  9 12  1  1  0  0  0
 10 11  1  0  0  0  0
 11 13  1  0  0  0  0
 13 14  1  0  0  0  0
 13 15  1  0  0  0  0
 13 16  1  0  0  0  0
M  END
> <ID>
13799

> <Formula>
C12H18ClNO2

> <FW>
243.7298

> <DSSTox_CID>
28736

> <DSSTox_RID>
83005

> <DSSTox_GSID>
48810

> <DSSTox_FileID_Sort>
7682

> <TS_ChemName>
Meluadrine

> <TS_ChemName_Synonyms>


> <TS_CASRN>
134865-33-1

> <CASRN_ChemName_Relationship>
primary

> <TS_Description>
single chemical compound

> <ChemNote>


> <STRUCTURE_Shown>
tested chemical

> <STRUCTURE_Formula>
C12H18ClNO2

> <STRUCTURE_MW>
243.7298

> <STRUCTURE_ChemType>
defined organic

> <STRUCTURE_DefinedOrganicForm>
parent

> <STRUCTURE_IUPAC>
4-[(1R)-2-(tert-butylamino)-1-hydroxyethyl]-3-chlorophenol

> <STRUCTURE_SMILES>
O[C@@H](CNC(C)(C)C)c1ccc(O)cc1Cl

> <STRUCTURE_SMILES_Desalt>
O[C@@H](CNC(C)(C)C)c1ccc(O)cc1Cl

> <Substance_modify_yyyymmdd>
20111204

$$$$
