135-62-6
ChemmineR-0915142007XD

 22 24  0  0  0  0  0  0  0  0  1 V2000
    2.3254   -4.6415    0.0000 C   0  0  0  0  0  0  0  0  0  0  0  0
    2.3254   -5.9795    0.0000 C   0  0  0  0  0  0  0  0  0  0  0  0
    1.1627   -3.9863    0.0000 C   0  0  0  0  0  0  0  0  0  0  0  0
    1.1627   -6.6439    0.0000 C   0  0  0  0  0  0  0  0  0  0  0  0
    3.4511   -6.6439    0.0000 C   0  0  0  0  0  0  0  0  0  0  0  0
    3.4511   -3.9863    0.0000 C   0  0  0  0  0  0  0  0  0  0  0  0
    4.5861   -4.6415    0.0000 C   0  0  0  0  0  0  0  0  0  0  0  0
    4.5861   -5.9795    0.0000 C   0  0  0  0  0  0  0  0  0  0  0  0
    0.0000   -5.9795    0.0000 C   0  0  0  0  0  0  0  0  0  0  0  0
    0.0000   -4.6415    0.0000 C   0  0  0  0  0  0  0  0  0  0  0  0
    5.7396   -3.9863    0.0000 C   0  0  0  0  0  0  0  0  0  0  0  0
    6.9023   -4.6415    0.0000 O   0  0  0  0  0  0  0  0  0  0  0  0
    5.7396   -2.6576    0.0000 N   0  0  0  0  0  0  0  0  0  0  0  0
    5.7396   -6.6439    0.0000 O   0  0  0  0  0  0  0  0  0  0  0  0
    9.2000   -1.9932    0.0000 C   0  0  0  0  0  0  0  0  0  0  0  0
    9.2276   -0.6552    0.0000 C   0  0  0  0  0  0  0  0  0  0  0  0
    8.0650    0.0000    0.0000 C   0  0  0  0  0  0  0  0  0  0  0  0
    6.9023   -0.6552    0.0000 C   0  0  0  0  0  0  0  0  0  0  0  0
    6.9023   -1.9932    0.0000 C   0  0  0  0  0  0  0  0  0  0  0  0
    8.0650   -2.6576    0.0000 C   0  0  0  0  0  0  0  0  0  0  0  0
    8.0650   -3.9863    0.0000 O   0  0  0  0  0  0  0  0  0  0  0  0
    9.2276   -4.6415    0.0000 C   0  0  0  0  0  0  0  0  0  0  0  0
  1  2  2  0  0  0  0
  1  3  1  0  0  0  0
  1  6  1  0  0  0  0
  2  4  1  0  0  0  0
  2  5  1  0  0  0  0
  3 10  2  0  0  0  0
  4  9  2  0  0  0  0
  5  8  2  0  0  0  0
  6  7  2  0  0  0  0
  7  8  1  0  0  0  0
  7 11  1  0  0  0  0
  8 14  1  0  0  0  0
  9 10  1  0  0  0  0
 11 12  2  0  0  0  0
 11 13  1  0  0  0  0
 13 19  1  0  0  0  0
 15 20  2  0  0  0  0
 15 16  1  0  0  0  0
 16 17  2  0  0  0  0
 17 18  1  0  0  0  0
 18 19  2  0  0  0  0
 19 20  1  0  0  0  0
 20 21  1  0  0  0  0
 21 22  1  0  0  0  0
M  END
> <ID>
7530

> <Formula>
C18H15NO3

> <FW>
293.3166

> <DSSTox_CID>
18877

> <DSSTox_RID>
79414

> <DSSTox_GSID>
38877

> <DSSTox_FileID_Sort>
4096

> <TS_ChemName>
2-Naphthalenecarboxamide, 3-hydroxy-N-(2-methoxyphenyl)-

> <TS_ChemName_Synonyms>


> <TS_CASRN>
135-62-6

> <CASRN_ChemName_Relationship>
primary

> <TS_Description>
single chemical compound

> <ChemNote>


> <STRUCTURE_Shown>
tested chemical

> <STRUCTURE_Formula>
C18H15NO3

> <STRUCTURE_MW>
293.3166

> <STRUCTURE_ChemType>
defined organic

> <STRUCTURE_DefinedOrganicForm>
parent

> <STRUCTURE_IUPAC>
3-hydroxy-N-(2-methoxyphenyl)naphthalene-2-carboxamide

> <STRUCTURE_SMILES>
COc3ccccc3NC(=O)c1cc2ccccc2cc1O

> <STRUCTURE_SMILES_Desalt>
COc3ccccc3NC(=O)c1cc2ccccc2cc1O

> <Substance_modify_yyyymmdd>
20080429

$$$$
