135-19-3
ChemmineR-0915142007XD

 11 12  0  0  0  0  0  0  0  0  1 V2000
    2.3040   -0.6566    0.0000 C   0  0  0  0  0  0  0  0  0  0  0  0
    2.3040   -1.9987    0.0000 C   0  0  0  0  0  0  0  0  0  0  0  0
    1.1520    0.0000    0.0000 C   0  0  0  0  0  0  0  0  0  0  0  0
    1.1520   -2.6553    0.0000 C   0  0  0  0  0  0  0  0  0  0  0  0
    3.4559   -2.6553    0.0000 C   0  0  0  0  0  0  0  0  0  0  0  0
    3.4559    0.0000    0.0000 C   0  0  0  0  0  0  0  0  0  0  0  0
    4.6079   -0.6566    0.0000 C   0  0  0  0  0  0  0  0  0  0  0  0
    4.6079   -1.9987    0.0000 C   0  0  0  0  0  0  0  0  0  0  0  0
    0.0000   -1.9987    0.0000 C   0  0  0  0  0  0  0  0  0  0  0  0
    0.0000   -0.6566    0.0000 C   0  0  0  0  0  0  0  0  0  0  0  0
    5.7599    0.0000    0.0000 O   0  0  0  0  0  0  0  0  0  0  0  0
  1  2  2  0  0  0  0
  1  3  1  0  0  0  0
  1  6  1  0  0  0  0
  2  4  1  0  0  0  0
  2  5  1  0  0  0  0
  3 10  2  0  0  0  0
  4  9  2  0  0  0  0
  5  8  2  0  0  0  0
  6  7  2  0  0  0  0
  7  8  1  0  0  0  0
  7 11  1  0  0  0  0
  9 10  1  0  0  0  0
M  END
> <ID>
4908

> <Formula>
C10H8O

> <FW>
144.1699

> <DSSTox_CID>
7061

> <DSSTox_RID>
78296

> <DSSTox_GSID>
27061

> <DSSTox_FileID_Sort>
2979

> <TS_ChemName>
2-Naphthalenol

> <TS_ChemName_Synonyms>
2-Naphthalenol (2-Naphthol)

> <TS_CASRN>
135-19-3

> <CASRN_ChemName_Relationship>
primary

> <TS_Description>
single chemical compound

> <ChemNote>


> <STRUCTURE_Shown>
tested chemical

> <STRUCTURE_Formula>
C10H8O

> <STRUCTURE_MW>
144.1699

> <STRUCTURE_ChemType>
defined organic

> <STRUCTURE_DefinedOrganicForm>
parent

> <STRUCTURE_IUPAC>
naphthalen-2-ol

> <STRUCTURE_SMILES>
Oc1ccc2ccccc2c1

> <STRUCTURE_SMILES_Desalt>
Oc1ccc2ccccc2c1

> <Substance_modify_yyyymmdd>
20080429

$$$$
