135-57-9
ChemmineR-0915142007XD

 32 35  0  0  0  0  0  0  0  0  1 V2000
    3.4531   -1.9881    0.0000 C   0  0  0  0  0  0  0  0  0  0  0  0
    3.4531   -0.6577    0.0000 O   0  0  0  0  0  0  0  0  0  0  0  0
    2.3021   -2.6608    0.0000 C   0  0  0  0  0  0  0  0  0  0  0  0
    2.3021   -3.9912    0.0000 C   0  0  0  0  0  0  0  0  0  0  0  0
    1.1510   -1.9881    0.0000 C   0  0  0  0  0  0  0  0  0  0  0  0
    1.1510   -4.6340    0.0000 C   0  0  0  0  0  0  0  0  0  0  0  0
    0.0000   -2.6608    0.0000 C   0  0  0  0  0  0  0  0  0  0  0  0
    0.0000   -3.9912    0.0000 C   0  0  0  0  0  0  0  0  0  0  0  0
    4.5892   -2.6608    0.0000 N   0  0  0  0  0  0  0  0  0  0  0  0
    5.7402   -1.9881    0.0000 C   0  0  0  0  0  0  0  0  0  0  0  0
    5.7402   -0.6577    0.0000 C   0  0  0  0  0  0  0  0  0  0  0  0
    6.8912   -2.6608    0.0000 C   0  0  0  0  0  0  0  0  0  0  0  0
    6.8912    0.0000    0.0000 C   0  0  0  0  0  0  0  0  0  0  0  0
    8.0572   -1.9881    0.0000 C   0  0  0  0  0  0  0  0  0  0  0  0
    8.0572   -0.6577    0.0000 C   0  0  0  0  0  0  0  0  0  0  0  0
    6.8912   -3.9912    0.0000 S   0  0  0  0  0  0  0  0  0  0  0  0
    8.0572   -4.6340    0.0000 S   0  0  0  0  0  0  0  0  0  0  0  0
    8.0572   -5.9644    0.0000 C   0  0  0  0  0  0  0  0  0  0  0  0
    9.2082   -6.6371    0.0000 C   0  0  0  0  0  0  0  0  0  0  0  0
    6.8912   -6.6371    0.0000 C   0  0  0  0  0  0  0  0  0  0  0  0
    9.2082   -7.9675    0.0000 C   0  0  0  0  0  0  0  0  0  0  0  0
    6.8912   -7.9675    0.0000 C   0  0  0  0  0  0  0  0  0  0  0  0
    8.0572   -8.6252    0.0000 C   0  0  0  0  0  0  0  0  0  0  0  0
   10.3592   -5.9644    0.0000 N   0  0  0  0  0  0  0  0  0  0  0  0
   11.5103   -6.6371    0.0000 C   0  0  0  0  0  0  0  0  0  0  0  0
   12.6613   -5.9644    0.0000 C   0  0  0  0  0  0  0  0  0  0  0  0
   12.6613   -4.6340    0.0000 C   0  0  0  0  0  0  0  0  0  0  0  0
   13.7974   -6.6371    0.0000 C   0  0  0  0  0  0  0  0  0  0  0  0
   13.7974   -3.9912    0.0000 C   0  0  0  0  0  0  0  0  0  0  0  0
   14.9484   -5.9644    0.0000 C   0  0  0  0  0  0  0  0  0  0  0  0
   14.9484   -4.6340    0.0000 C   0  0  0  0  0  0  0  0  0  0  0  0
   11.5103   -7.9675    0.0000 O   0  0  0  0  0  0  0  0  0  0  0  0
  1  2  2  0  0  0  0
  1  3  1  0  0  0  0
  1  9  1  0  0  0  0
  3  4  2  0  0  0  0
  3  5  1  0  0  0  0
  4  6  1  0  0  0  0
  5  7  2  0  0  0  0
  6  8  2  0  0  0  0
  7  8  1  0  0  0  0
  9 10  1  0  0  0  0
 10 11  1  0  0  0  0
 10 12  2  0  0  0  0
 11 13  2  0  0  0  0
 12 14  1  0  0  0  0
 12 16  1  0  0  0  0
 13 15  1  0  0  0  0
 14 15  2  0  0  0  0
 16 17  1  0  0  0  0
 17 18  1  0  0  0  0
 18 19  1  0  0  0  0
 18 20  2  0  0  0  0
 19 21  2  0  0  0  0
 19 24  1  0  0  0  0
 20 22  1  0  0  0  0
 21 23  1  0  0  0  0
 22 23  2  0  0  0  0
 24 25  1  0  0  0  0
 25 26  1  0  0  0  0
 25 32  2  0  0  0  0
 26 27  1  0  0  0  0
 26 28  2  0  0  0  0
 27 29  2  0  0  0  0
 28 30  1  0  0  0  0
 29 31  1  0  0  0  0
 30 31  2  0  0  0  0
M  END
> <ID>
8589

> <Formula>
C26H20N2O2S2

> <FW>
456.5792

> <DSSTox_CID>
21629

> <DSSTox_RID>
79796

> <DSSTox_GSID>
41629

> <DSSTox_FileID_Sort>
4478

> <TS_ChemName>
Benzamide, N,N'-(dithiodi-2,1-phenylene)bis-

> <TS_ChemName_Synonyms>


> <TS_CASRN>
135-57-9

> <CASRN_ChemName_Relationship>
primary

> <TS_Description>
single chemical compound

> <ChemNote>


> <STRUCTURE_Shown>
tested chemical

> <STRUCTURE_Formula>
C26H20N2O2S2

> <STRUCTURE_MW>
456.5792

> <STRUCTURE_ChemType>
defined organic

> <STRUCTURE_DefinedOrganicForm>
parent

> <STRUCTURE_IUPAC>
N,N'-(disulfanediyldibenzene-2,1-diyl)dibenzamide

> <STRUCTURE_SMILES>
O=C(Nc3ccccc3SSc2ccccc2NC(=O)c1ccccc1)c4ccccc4

> <STRUCTURE_SMILES_Desalt>
O=C(Nc3ccccc3SSc2ccccc2NC(=O)c1ccccc1)c4ccccc4

> <Substance_modify_yyyymmdd>
20080825

$$$$
