135-79-5
ChemmineR-0915142007XD

 13 14  0  0  0  0  0  0  0  0  1 V2000
    1.1703    0.0000    0.0000 N   0  0  0  0  0  0  0  0  0  0  0  0
    2.3200   -0.6678    0.0000 C   0  0  0  0  0  0  0  0  0  0  0  0
    2.3200   -1.9964    0.0000 C   0  0  0  0  0  0  0  0  0  0  0  0
    0.0000   -0.6678    0.0000 C   0  0  0  0  0  0  0  0  0  0  0  0
    3.4421    0.0000    0.0000 C   0  0  0  0  0  0  0  0  0  0  0  0
    3.4421   -2.6710    0.0000 C   0  0  0  0  0  0  0  0  0  0  0  0
    1.1703   -2.6710    0.0000 C   0  0  0  0  0  0  0  0  0  0  0  0
    0.0000   -1.9964    0.0000 C   0  0  0  0  0  0  0  0  0  0  0  0
    4.5917   -1.9964    0.0000 C   0  0  0  0  0  0  0  0  0  0  0  0
    4.5917   -0.6678    0.0000 C   0  0  0  0  0  0  0  0  0  0  0  0
    5.7483   -2.6710    0.0000 C   0  0  0  0  0  0  0  0  0  0  0  0
    6.8841   -1.9826    0.0000 C   0  0  0  0  0  0  0  0  0  0  0  0
    5.7483   -3.9997    0.0000 C   0  0  0  0  0  0  0  0  0  0  0  0
  1  2  2  0  0  0  0
  1  4  1  0  0  0  0
  2  3  1  0  0  0  0
  2  5  1  0  0  0  0
  3  6  1  0  0  0  0
  3  7  2  0  0  0  0
  4  8  2  0  0  0  0
  5 10  2  0  0  0  0
  6  9  2  0  0  0  0
  7  8  1  0  0  0  0
  9 10  1  0  0  0  0
  9 11  1  0  0  0  0
 11 12  1  0  0  0  0
 11 13  1  0  0  0  0
M  END
> <ID>
12602

> <Formula>
C12H13N

> <FW>
171.2383

> <DSSTox_CID>
27465

> <DSSTox_RID>
82365

> <DSSTox_GSID>
47465

> <DSSTox_FileID_Sort>
7046

> <TS_ChemName>
6-(1-Methylethyl)quinoline

> <TS_ChemName_Synonyms>
QUINOLINE, 6-(1-METHYLETHYL)-

> <TS_CASRN>
135-79-5

> <CASRN_ChemName_Relationship>
primary

> <TS_Description>
single chemical compound

> <ChemNote>


> <STRUCTURE_Shown>
tested chemical

> <STRUCTURE_Formula>
C12H13N

> <STRUCTURE_MW>
171.2383

> <STRUCTURE_ChemType>
defined organic

> <STRUCTURE_DefinedOrganicForm>
parent

> <STRUCTURE_IUPAC>
6-(propan-2-yl)quinoline

> <STRUCTURE_SMILES>
CC(C)c1ccc2ncccc2c1

> <STRUCTURE_SMILES_Desalt>
CC(C)c1ccc2ncccc2c1

> <Substance_modify_yyyymmdd>
20100913

$$$$
