135080-03-4
ChemmineR-0915142007XD

 23 25  0  0  0  0  0  0  0  0  1 V2000
    4.6275   -3.3756    0.0000 C    0  0  0  0  0  0  0  0  0  0  0  0
    5.9570   -3.3756    0.0000 C    0  0  0  0  0  0  0  0  0  0  0  0
    4.2304   -2.1152    0.0000 C    0  0  0  0  0  0  0  0  0  0  0  0
    3.9714   -4.5325    0.0000 C    0  0  0  0  0  0  0  0  0  0  0  0
    6.3714   -2.1152    0.0000 N    0  0  0  0  0  0  0  0  0  0  0  0
    6.6304   -4.5325    0.0000 C    0  0  0  0  0  0  0  0  0  0  0  0
    5.3009   -1.3295    0.0000 C    0  0  0  0  0  0  0  0  0  0  0  0
    2.9612   -1.6921    0.0000 C    0  0  0  0  0  0  0  0  0  0  0  0
    4.6275   -5.6808    0.0000 C    0  0  0  0  0  0  0  0  0  0  0  0
    7.6405   -1.6921    0.0000 C    0  0  0  0  0  0  0  0  0  0  0  0
    5.9570   -5.6808    0.0000 C    0  0  0  0  0  0  0  0  0  0  0  0
    5.3009    0.0000    0.0000 O    0  0  0  0  0  0  0  0  0  0  0  0
    1.9684   -2.5900    0.0000 C    0  0  0  0  0  0  0  0  0  0  0  0
    2.6936   -0.3971    0.0000 O    0  0  0  0  0  0  0  0  0  0  0  0
    3.9714   -6.8376    0.0000 F    0  0  0  0  0  0  0  0  0  0  0  0
    7.9168   -0.3971    0.0000 N    0  0  0  0  0  0  0  0  0  0  0  0
    8.6334   -2.5900    0.0000 O    0  0  0  0  0  0  0  0  0  0  0  0
    6.6304   -6.8376    0.0000 Cl   0  0  0  0  0  0  0  0  0  0  0  0
    2.1152   -3.9023    0.0000 C    0  0  0  0  0  0  0  0  0  0  0  0
    0.6734   -2.3224    0.0000 S    0  0  0  0  0  0  0  0  0  0  0  0
    0.8979   -4.4548    0.0000 C    0  0  0  0  0  0  0  0  0  0  0  0
    0.0000   -3.4706    0.0000 C    0  0  0  0  0  0  0  0  0  0  0  0
    0.6216   -5.7498    0.0000 Cl   0  0  0  0  0  0  0  0  0  0  0  0
  1  2  2  0  0  0  0
  1  3  1  0  0  0  0
  1  4  1  0  0  0  0
  2  5  1  0  0  0  0
  2  6  1  0  0  0  0
  3  7  1  0  0  0  0
  3  8  1  0  0  0  0
  4  9  2  0  0  0  0
  5 10  1  0  0  0  0
  5  7  1  0  0  0  0
  6 11  2  0  0  0  0
  7 12  2  0  0  0  0
  8 13  1  0  0  0  0
  8 14  2  0  0  0  0
  9 15  1  0  0  0  0
  9 11  1  0  0  0  0
 10 16  1  0  0  0  0
 10 17  2  0  0  0  0
 11 18  1  0  0  0  0
 13 19  2  0  0  0  0
 13 20  1  0  0  0  0
 19 21  1  0  0  0  0
 20 22  1  0  0  0  0
 21 23  1  0  0  0  0
 21 22  2  0  0  0  0
M  END
> <ID>
12446

> <Formula>
C14H7Cl2FN2O3S

> <FW>
373.1864

> <DSSTox_CID>
27304

> <DSSTox_RID>
82254

> <DSSTox_GSID>
47304

> <DSSTox_FileID_Sort>
6935

> <TS_ChemName>
CP-100829

> <TS_ChemName_Synonyms>


> <TS_CASRN>
135080-03-4

> <CASRN_ChemName_Relationship>
primary

> <TS_Description>
single chemical compound

> <ChemNote>
tautomers

> <STRUCTURE_Shown>
tested chemical

> <STRUCTURE_Formula>
C14H7Cl2FN2O3S

> <STRUCTURE_MW>
373.1864

> <STRUCTURE_ChemType>
defined organic

> <STRUCTURE_DefinedOrganicForm>
parent

> <STRUCTURE_IUPAC>
6-chloro-3-[(4-chlorothiophen-2-yl)carbonyl]-5-fluoro-2-oxo-2,3-dihydro-1H-indole-1-carboxamide

> <STRUCTURE_SMILES>
O=C(C2c1cc(F)c(Cl)cc1N(C(N)=O)C2=O)c3cc(Cl)cs3

> <STRUCTURE_SMILES_Desalt>
O=C(C2c1cc(F)c(Cl)cc1N(C(N)=O)C2=O)c3cc(Cl)cs3

> <Substance_modify_yyyymmdd>
20130910

$$$$
