13506-76-8
ChemmineR-0915142007XD

 13 13  0  0  0  0  0  0  0  0  2 V2000
    2.3115   -3.3211    0.0000 C   0  0  0  0  0  0  0  0  0  0  0  0
    2.3115   -1.9927    0.0000 C   0  0  0  0  0  0  0  0  0  0  0  0
    1.1584   -1.3338    0.0000 N   0  3  0  0  0  0  0  0  0  0  0  0
    0.0000   -1.9927    0.0000 O   0  0  0  0  0  0  0  0  0  0  0  0
    1.1584    0.0000    0.0000 O   0  5  0  0  0  0  0  0  0  0  0  0
    3.4699   -1.3178    0.0000 C   0  0  0  0  0  0  0  0  0  0  0  0
    4.6071   -1.9927    0.0000 C   0  0  0  0  0  0  0  0  0  0  0  0
    4.6230   -3.3211    0.0000 C   0  0  0  0  0  0  0  0  0  0  0  0
    3.4699   -3.9801    0.0000 C   0  0  0  0  0  0  0  0  0  0  0  0
    3.4699   -5.3138    0.0000 C   0  0  0  0  0  0  0  0  0  0  0  0
    1.1584   -3.9960    0.0000 C   0  0  0  0  0  0  0  0  0  0  0  0
    1.1744   -5.3138    0.0000 O   0  0  0  0  0  0  0  0  0  0  0  0
    0.0159   -3.3211    0.0000 O   0  0  0  0  0  0  0  0  0  0  0  0
  1  2  2  0  0  0  0
  1  9  1  0  0  0  0
  1 11  1  0  0  0  0
  2  3  1  0  0  0  0
  2  6  1  0  0  0  0
  3  4  2  0  0  0  0
  3  5  1  0  0  0  0
  6  7  2  0  0  0  0
  7  8  1  0  0  0  0
  8  9  2  0  0  0  0
  9 10  1  0  0  0  0
 11 12  1  0  0  0  0
 11 13  2  0  0  0  0
M  END
> <ID>
4315

> <Formula>
C8H7NO4

> <FW>
181.1455

> <DSSTox_CID>
5639

> <DSSTox_RID>
77864

> <DSSTox_GSID>
25639

> <DSSTox_FileID_Sort>
2547

> <TS_ChemName>
2-Methyl-6-nitrobenzoic acid

> <TS_ChemName_Synonyms>


> <TS_CASRN>
13506-76-8

> <CASRN_ChemName_Relationship>
primary

> <TS_Description>
single chemical compound

> <ChemNote>


> <STRUCTURE_Shown>
tested chemical

> <STRUCTURE_Formula>
C8H7NO4

> <STRUCTURE_MW>
181.1455

> <STRUCTURE_ChemType>
defined organic

> <STRUCTURE_DefinedOrganicForm>
parent

> <STRUCTURE_IUPAC>
2-methyl-6-nitrobenzoic acid

> <STRUCTURE_SMILES>
O=[N+]([O-])c1cccc(C)c1C(=O)O

> <STRUCTURE_SMILES_Desalt>
O=[N+]([O-])c1cccc(C)c1C(=O)O

> <Substance_modify_yyyymmdd>
20080429

$$$$
