135046-48-9
ChemmineR-0915142007XD

 26 27  0  0  1  0  0  0  0  0  1 V2000
    4.3631   -4.0016    0.0000 N    0  0  0  0  0  0  0  0  0  0  0  0
    5.5224   -3.3409    0.0000 C    0  0  0  0  0  0  0  0  0  0  0  0
    3.2162   -3.3409    0.0000 C    0  0  0  0  0  0  0  0  0  0  0  0
    4.3631   -5.3354    0.0000 C    0  0  0  0  0  0  0  0  0  0  0  0
    6.6568   -4.0016    0.0000 C    0  0  0  0  0  0  0  0  0  0  0  0
    5.5224   -2.0070    0.0000 C    0  0  0  0  0  0  0  0  0  0  0  0
    2.0444   -4.0016    0.0000 C    0  0  0  0  0  0  0  0  0  0  0  0
    3.2162   -5.9961    0.0000 C    0  0  0  0  0  0  0  0  0  0  0  0
    6.6568   -5.3354    0.0000 C    0  0  0  0  0  0  0  0  0  0  0  0
    7.8161   -3.3409    0.0000 C    0  0  0  0  0  0  0  0  0  0  0  0
    4.3631   -1.3463    0.0000 O    0  0  0  0  0  0  0  0  0  0  0  0
    6.6568   -1.3463    0.0000 O    0  0  0  0  0  0  0  0  0  0  0  0
    2.0444   -5.3354    0.0000 C    0  0  0  0  0  0  0  0  0  0  0  0
    0.7854   -3.6026    0.0000 C    0  0  0  0  0  0  0  0  0  0  0  0
    7.8161   -5.9961    0.0000 C    0  0  0  0  0  0  0  0  0  0  0  0
    5.5224   -5.9961    0.0000 Cl   0  0  0  0  0  0  0  0  0  0  0  0
    8.9755   -4.0016    0.0000 C    0  0  0  0  0  0  0  0  0  0  0  0
    4.3631   -0.0125    0.0000 C    0  0  0  0  0  0  0  0  0  0  0  0
    0.7854   -5.7343    0.0000 S    0  0  0  0  0  0  0  0  0  0  0  0
    0.0000   -4.6622    0.0000 C    0  0  0  0  0  0  0  0  0  0  0  0
    8.9755   -5.3354    0.0000 C    0  0  0  0  0  0  0  0  0  0  0  0
   11.1321   -1.3339    0.0000 S    0  0  0  0  0  0  0  0  0  0  0  0
   12.4659   -1.3339    0.0000 O    0  0  0  0  0  0  0  0  0  0  0  0
    9.7982   -1.3339    0.0000 O    0  0  0  0  0  0  0  0  0  0  0  0
   11.1321   -2.6677    0.0000 O    0  0  0  0  0  0  0  0  0  0  0  0
   11.1321    0.0000    0.0000 O    0  0  0  0  0  0  0  0  0  0  0  0
  1  2  1  0  0  0  0
  1  3  1  0  0  0  0
  1  4  1  0  0  0  0
  2  5  1  0  0  0  0
  2  6  1  6  0  0  0
  3  7  1  0  0  0  0
  4  8  1  0  0  0  0
  5  9  1  0  0  0  0
  5 10  2  0  0  0  0
  6 11  1  0  0  0  0
  6 12  2  0  0  0  0
  7 13  2  0  0  0  0
  7 14  1  0  0  0  0
  8 13  1  0  0  0  0
  9 15  2  0  0  0  0
  9 16  1  0  0  0  0
 10 17  1  0  0  0  0
 11 18  1  0  0  0  0
 13 19  1  0  0  0  0
 14 20  2  0  0  0  0
 15 21  1  0  0  0  0
 17 21  2  0  0  0  0
 19 20  1  0  0  0  0
 22 23  2  0  0  0  0
 22 24  2  0  0  0  0
 22 25  1  0  0  0  0
 22 26  1  0  0  0  0
M  END
> <ID>
11365

> <Formula>
C16H18ClNO6S2

> <FW>
419.9002 (321.8217+98.0785)

> <DSSTox_CID>
26024

> <DSSTox_RID>
81297

> <DSSTox_GSID>
46024

> <DSSTox_FileID_Sort>
5978

> <TS_ChemName>
Clopidogrel hydrogen sulfate

> <TS_ChemName_Synonyms>


> <TS_CASRN>
135046-48-9

> <CASRN_ChemName_Relationship>
primary

> <TS_Description>
single chemical compound

> <ChemNote>
stereochem

> <STRUCTURE_Shown>
tested chemical

> <STRUCTURE_Formula>
C16H18ClNO6S2

> <STRUCTURE_MW>
419.9002

> <STRUCTURE_ChemType>
defined organic

> <STRUCTURE_DefinedOrganicForm>
complex

> <STRUCTURE_IUPAC>
methyl (2S)-(2-chlorophenyl)(6,7-dihydrothieno[3,2-c]pyridin-5(4H)-yl)acetate sulfate (1:1)

> <STRUCTURE_SMILES>
O=S(=O)(O)O.Clc1ccccc1[C@H](N2CCc3sccc3C2)C(=O)OC

> <STRUCTURE_SMILES_Desalt>
Clc1ccccc1[C@H](N2CCc3sccc3C2)C(=O)OC

> <Substance_modify_yyyymmdd>
20110824

$$$$
