135159-51-2
ChemmineR-0915142007XD

 32 32  0  0  0  0  0  0  0  0  1 V2000
   11.9763   -5.7486    0.0000 C    0  0  0  0  0  0  0  0  0  0  0  0
   11.3242   -6.9196    0.0000 C    0  0  0  0  0  0  0  0  0  0  0  0
    9.9935   -6.9196    0.0000 C    0  0  0  0  0  0  0  0  0  0  0  0
    9.3149   -8.0640    0.0000 C    0  0  0  0  0  0  0  0  0  0  0  0
   11.3242   -4.6042    0.0000 O    0  0  0  0  0  0  0  0  0  0  0  0
   13.3070   -5.7486    0.0000 O    0  0  0  0  0  0  0  0  0  0  0  0
    9.9935   -9.2084    0.0000 O    0  0  0  0  0  0  0  0  0  0  0  0
    7.9842   -8.0640    0.0000 O    0  0  0  0  0  0  0  0  0  0  0  0
    7.3321   -6.9196    0.0000 C    0  0  0  0  0  0  0  0  0  0  0  0
    6.0014   -6.9196    0.0000 C    0  0  0  0  0  0  0  0  0  0  0  0
    7.9842   -5.7486    0.0000 C    0  0  0  0  0  0  0  0  0  0  0  0
    7.3321   -4.6042    0.0000 O    0  0  0  0  0  0  0  0  0  0  0  0
    7.9842   -3.4465    0.0000 C    0  0  0  0  0  0  0  0  0  0  0  0
    7.3321   -2.3021    0.0000 C    0  0  0  0  0  0  0  0  0  0  0  0
    7.9842   -1.1444    0.0000 C    0  0  0  0  0  0  0  0  0  0  0  0
    9.3149   -1.1444    0.0000 C    0  0  0  0  0  0  0  0  0  0  0  0
    9.9935   -2.3021    0.0000 C    0  0  0  0  0  0  0  0  0  0  0  0
    9.3149   -3.4465    0.0000 C    0  0  0  0  0  0  0  0  0  0  0  0
    6.0014   -2.3021    0.0000 C    0  0  0  0  0  0  0  0  0  0  0  0
    5.3228   -1.1444    0.0000 C    0  0  0  0  0  0  0  0  0  0  0  0
    3.9921   -1.1444    0.0000 C    0  0  0  0  0  0  0  0  0  0  0  0
    3.3400   -2.3021    0.0000 C    0  0  0  0  0  0  0  0  0  0  0  0
    2.0094   -2.3021    0.0000 C    0  0  0  0  0  0  0  0  0  0  0  0
    1.3307   -1.1444    0.0000 C    0  0  0  0  0  0  0  0  0  0  0  0
    2.0094    0.0000    0.0000 C    0  0  0  0  0  0  0  0  0  0  0  0
    3.3400    0.0000    0.0000 C    0  0  0  0  0  0  0  0  0  0  0  0
    1.3307   -3.4465    0.0000 O    0  0  0  0  0  0  0  0  0  0  0  0
    0.0000   -3.4465    0.0000 C    0  0  0  0  0  0  0  0  0  0  0  0
    5.3228   -8.0640    0.0000 N    0  0  0  0  0  0  0  0  0  0  0  0
    6.0014   -9.2084    0.0000 C    0  0  0  0  0  0  0  0  0  0  0  0
    3.9921   -8.0640    0.0000 C    0  0  0  0  0  0  0  0  0  0  0  0
    4.0054   -4.0320    0.0000 Cl   0  0  0  0  0  0  0  0  0  0  0  0
  1  2  1  0  0  0  0
  1  5  2  0  0  0  0
  1  6  1  0  0  0  0
  2  3  1  0  0  0  0
  3  4  1  0  0  0  0
  4  7  2  0  0  0  0
  4  8  1  0  0  0  0
  8  9  1  0  0  0  0
  9 10  1  0  0  0  0
  9 11  1  0  0  0  0
 10 29  1  0  0  0  0
 11 12  1  0  0  0  0
 12 13  1  0  0  0  0
 13 14  1  0  0  0  0
 13 18  2  0  0  0  0
 14 15  2  0  0  0  0
 14 19  1  0  0  0  0
 15 16  1  0  0  0  0
 16 17  2  0  0  0  0
 17 18  1  0  0  0  0
 19 20  1  0  0  0  0
 20 21  1  0  0  0  0
 21 22  1  0  0  0  0
 21 26  2  0  0  0  0
 22 23  2  0  0  0  0
 23 24  1  0  0  0  0
 23 27  1  0  0  0  0
 24 25  2  0  0  0  0
 25 26  1  0  0  0  0
 27 28  1  0  0  0  0
 29 30  1  0  0  0  0
 29 31  1  0  0  0  0
M  END
> <ID>
11869

> <Formula>
C24H32ClNO6

> <FW>
465.9670 (429.5060+36.4609)

> <DSSTox_CID>
26662

> <DSSTox_RID>
81804

> <DSSTox_GSID>
46662

> <DSSTox_FileID_Sort>
6485

> <TS_ChemName>
Sarpogrelate hydrochloride

> <TS_ChemName_Synonyms>


> <TS_CASRN>
135159-51-2

> <CASRN_ChemName_Relationship>
primary

> <TS_Description>
single chemical compound

> <ChemNote>
parent [125926-17-2]

> <STRUCTURE_Shown>
tested chemical

> <STRUCTURE_Formula>
C24H32ClNO6

> <STRUCTURE_MW>
465.967

> <STRUCTURE_ChemType>
defined organic

> <STRUCTURE_DefinedOrganicForm>
complex

> <STRUCTURE_IUPAC>
4-{[1-(dimethylamino)-3-{2-[2-(3-methoxyphenyl)ethyl]phenoxy}propan-2-yl]oxy}-4-oxobutanoic acid hydrochloride (1:1)

> <STRUCTURE_SMILES>
Cl.O=C(O)CCC(=O)OC(COc2ccccc2CCc1cccc(OC)c1)CN(C)C

> <STRUCTURE_SMILES_Desalt>
O=C(O)CCC(=O)OC(COc2ccccc2CCc1cccc(OC)c1)CN(C)C

> <Substance_modify_yyyymmdd>
20110808

$$$$
