135158-54-2
ChemmineR-0915142007XD

 13 14  0  0  0  0  0  0  0  0  1 V2000
    0.0000   -4.6572    0.0000 O   0  0  0  0  0  0  0  0  0  0  0  0
    1.1503   -3.9866    0.0000 C   0  0  0  0  0  0  0  0  0  0  0  0
    1.1503   -2.6546    0.0000 C   0  0  0  0  0  0  0  0  0  0  0  0
    2.3053   -2.0026    0.0000 C   0  0  0  0  0  0  0  0  0  0  0  0
    2.3053   -0.6706    0.0000 C   0  0  0  0  0  0  0  0  0  0  0  0
    1.1503    0.0000    0.0000 C   0  0  0  0  0  0  0  0  0  0  0  0
    0.0000   -0.6706    0.0000 C   0  0  0  0  0  0  0  0  0  0  0  0
    0.0000   -2.0026    0.0000 C   0  0  0  0  0  0  0  0  0  0  0  0
    3.5674   -0.2561    0.0000 N   0  0  0  0  0  0  0  0  0  0  0  0
    4.3545   -1.3273    0.0000 N   0  0  0  0  0  0  0  0  0  0  0  0
    3.5674   -2.3985    0.0000 S   0  0  0  0  0  0  0  0  0  0  0  0
    2.3053   -4.6572    0.0000 S   0  0  0  0  0  0  0  0  0  0  0  0
    3.4557   -3.9866    0.0000 C   0  0  0  0  0  0  0  0  0  0  0  0
  1  2  2  0  0  0  0
  2  3  1  0  0  0  0
  2 12  1  0  0  0  0
  3  4  1  0  0  0  0
  3  8  2  0  0  0  0
  4  5  2  0  0  0  0
  4 11  1  0  0  0  0
  5  6  1  0  0  0  0
  5  9  1  0  0  0  0
  6  7  2  0  0  0  0
  7  8  1  0  0  0  0
  9 10  2  0  0  0  0
 10 11  1  0  0  0  0
 12 13  1  0  0  0  0
M  END
> <ID>
6489

> <Formula>
C8H6N2OS2

> <FW>
210.276

> <DSSTox_CID>
12519

> <DSSTox_RID>
78965

> <DSSTox_GSID>
32519

> <DSSTox_FileID_Sort>
3647

> <TS_ChemName>
Acibenzolar-S-methyl

> <TS_ChemName_Synonyms>
Acibenzolar-S-methyl (BTH) (Salicyclic acid analog BTH) (1,2,3-Benzothiadiazole-7-carbothioic acid, S-methyl ester)

> <TS_CASRN>
135158-54-2

> <CASRN_ChemName_Relationship>
primary

> <TS_Description>
single chemical compound

> <ChemNote>


> <STRUCTURE_Shown>
tested chemical

> <STRUCTURE_Formula>
C8H6N2OS2

> <STRUCTURE_MW>
210.276

> <STRUCTURE_ChemType>
defined organic

> <STRUCTURE_DefinedOrganicForm>
parent

> <STRUCTURE_IUPAC>
S-methyl 1,2,3-benzothiadiazole-7-carbothioate

> <STRUCTURE_SMILES>
O=C(SC)c1cccc2nnsc12

> <STRUCTURE_SMILES_Desalt>
O=C(SC)c1cccc2nnsc12

> <Substance_modify_yyyymmdd>
20080429

$$$$
