13520-92-8
ChemmineR-0915142007XD

 12  3  0  0  0  0  0  0  0  0  1 V2000
    1.3348   -2.0890    0.0000 O    0  0  0  0  0  0  0  0  0  0  0  0
    0.9611   -0.4472    0.0000 O    0  0  0  0  0  0  0  0  0  0  0  0
    2.4961   -3.0100    0.0000 O    0  0  0  0  0  0  0  0  0  0  0  0
    3.8643   -3.1501    0.0000 O    0  0  0  0  0  0  0  0  0  0  0  0
    5.1991   -2.6362    0.0000 O    0  0  0  0  0  0  0  0  0  0  0  0
    5.9866   -1.7486    0.0000 O    0  0  0  0  0  0  0  0  0  0  0  0
    6.6740   -0.6140    0.0000 O    0  0  0  0  0  0  0  0  0  0  0  0
    0.0000   -1.5083    0.0000 O    0  0  0  0  0  0  0  0  0  0  0  0
    3.0434   -1.6752    0.0000 Cl   0  0  0  0  0  0  0  0  0  0  0  0
    2.3226   -0.2269    0.0000 Cl   0  0  0  0  0  0  0  0  0  0  0  0
    4.8921    0.0000    0.0000 O    0  0  0  0  0  0  0  0  0  0  0  0
    3.6240   -0.5473    0.0000 Zr   0  0  0  0  0  0  0  0  0  0  0  0
  9 12  1  0  0  0  0
 10 12  1  0  0  0  0
 11 12  2  0  0  0  0
M  END
> <ID>
14266

> <Formula>
H16Cl2O9Zr

> <FW>
322.2516 (18.0153+18.0153+18.0153+18.0153+18.0153+18.0153+18.0153+18.0153+178.1294)

> <DSSTox_CID>
29361

> <DSSTox_RID>
83477

> <DSSTox_GSID>
49402

> <DSSTox_FileID_Sort>
8152

> <TS_ChemName>
Zirconyl chloride octahydrate

> <TS_ChemName_Synonyms>


> <TS_CASRN>
13520-92-8

> <CASRN_ChemName_Relationship>
primary

> <TS_Description>
single chemical compound

> <ChemNote>


> <STRUCTURE_Shown>
tested chemical

> <STRUCTURE_Formula>
H16Cl2O9Zr

> <STRUCTURE_MW>
322.2516

> <STRUCTURE_ChemType>
inorganic

> <STRUCTURE_DefinedOrganicForm>


> <STRUCTURE_IUPAC>
dichloro(oxo)zirconium octahydrate

> <STRUCTURE_SMILES>
O.O.O.O.O.O.O.O.Cl[Zr](Cl)=O

> <STRUCTURE_SMILES_Desalt>
Cl[Zr](Cl)=O

> <Substance_modify_yyyymmdd>
20111204

$$$$
