13522-19-5
ChemmineR-0915142007XD

 44 49  0  0  1  0  0  0  0  0  1 V2000
    6.7946   -5.5982    0.0000 C   0  0  0  0  0  0  0  0  0  0  0  0
    5.7016   -6.2333    0.0000 C   0  0  0  0  0  0  0  0  0  0  0  0
    7.9320   -6.2333    0.0000 C   0  0  0  0  0  0  0  0  0  0  0  0
    9.0693   -5.5982    0.0000 C   0  0  0  0  0  0  0  0  0  0  0  0
    9.0693   -4.3279    0.0000 C   0  0  0  0  0  0  0  0  0  0  0  0
    6.7946   -4.3279    0.0000 C   0  0  0  0  0  0  0  0  0  0  0  0
    7.9320   -7.5184    0.0000 C   0  0  0  0  0  0  0  0  0  0  0  0
    5.7016   -7.5184    0.0000 C   0  0  0  0  0  0  0  0  0  0  0  0
    7.9320   -3.6780    0.0000 C   0  0  0  0  0  0  0  0  0  0  0  0
    6.7946   -8.1535    0.0000 C   0  0  0  0  0  0  0  0  0  0  0  0
    5.7016   -4.9630    0.0000 C   0  0  0  0  0  0  0  0  0  0  0  0
    4.5790   -5.5982    0.0000 C   0  0  0  0  0  0  0  0  0  0  0  0
   10.1919   -3.6336    0.0000 C   0  0  0  0  0  0  0  0  0  0  0  0
   11.3293   -5.5982    0.0000 C   0  0  0  0  0  0  0  0  0  0  0  0
    9.0693   -2.9985    0.0000 C   0  0  0  0  0  0  0  0  0  0  0  0
   11.3293   -4.3279    0.0000 C   0  0  0  0  0  0  0  0  0  0  0  0
    4.5790   -8.2274    0.0000 C   0  0  0  0  0  0  0  0  0  0  0  0
    3.4859   -6.2333    0.0000 C   0  0  0  0  0  0  0  0  0  0  0  0
    3.4859   -7.5184    0.0000 C   0  0  0  0  0  0  0  0  0  0  0  0
    7.9320   -4.9187    0.0000 H   0  0  0  0  0  0  0  0  0  0  0  0
    6.7946   -6.9275    0.0000 H   0  0  0  0  0  0  0  0  0  0  0  0
    9.0693   -6.9275    0.0000 H   0  0  0  0  0  0  0  0  0  0  0  0
    2.3043   -8.1535    0.0000 O   0  0  0  0  0  0  0  0  0  0  0  0
   10.1476   -2.3043    0.0000 O   0  0  0  0  0  0  0  0  0  0  0  0
    2.3043   -5.5982    0.0000 N   0  0  0  0  0  0  0  0  0  0  0  0
    1.1817   -6.2924    0.0000 C   0  0  0  0  0  0  0  0  0  0  0  0
    2.3043   -4.2688    0.0000 C   0  0  0  0  0  0  0  0  0  0  0  0
    0.0000   -5.5982    0.0000 C   0  0  0  0  0  0  0  0  0  0  0  0
    1.1817   -3.5893    0.0000 C   0  0  0  0  0  0  0  0  0  0  0  0
    0.0000   -4.2688    0.0000 C   0  0  0  0  0  0  0  0  0  0  0  0
   12.4666   -3.6336    0.0000 N   0  0  0  0  0  0  0  0  0  0  0  0
   12.4666   -2.3043    0.0000 C   0  0  0  0  0  0  0  0  0  0  0  0
   13.5892   -4.3279    0.0000 C   0  0  0  0  0  0  0  0  0  0  0  0
   13.5892   -1.6100    0.0000 C   0  0  0  0  0  0  0  0  0  0  0  0
   14.7709   -3.6336    0.0000 C   0  0  0  0  0  0  0  0  0  0  0  0
   14.7709   -2.3043    0.0000 C   0  0  0  0  0  0  0  0  0  0  0  0
    2.2599   -9.3204    0.0000 C   0  0  0  0  0  0  0  0  0  0  0  0
    1.0783   -9.9260    0.0000 C   0  0  0  0  0  0  0  0  0  0  0  0
    3.3678  -10.0442    0.0000 O   0  0  0  0  0  0  0  0  0  0  0  0
    5.7016   -8.8034    0.0000 H   0  0  0  0  0  0  0  0  0  0  0  0
   12.0383   -1.1521    0.0000 C   0  0  0  0  0  0  0  0  0  0  0  0
   10.7089   -1.1521    0.0000 C   0  0  0  0  0  0  0  0  0  0  0  0
   12.7030    0.0000    0.0000 C   0  0  0  0  0  0  0  0  0  0  0  0
   10.0590    0.0000    0.0000 O   0  0  0  0  0  0  0  0  0  0  0  0
  1  6  1  0  0  0  0
  1  2  1  0  0  0  0
  1 21  1  6  0  0  0
  1  3  1  0  0  0  0
  2  8  1  0  0  0  0
  2 11  1  1  0  0  0
  2 12  1  0  0  0  0
  3  4  1  0  0  0  0
  3  7  1  0  0  0  0
  3 20  1  1  0  0  0
  4 14  1  0  0  0  0
  4  5  1  0  0  0  0
  4 22  1  6  0  0  0
  5  9  1  0  0  0  0
  5 13  1  0  0  0  0
  5 15  1  1  0  0  0
  6  9  1  0  0  0  0
  7 10  1  0  0  0  0
  8 17  1  0  0  0  0
  8 10  1  0  0  0  0
  8 40  1  6  0  0  0
 12 18  1  0  0  0  0
 13 16  1  0  0  0  0
 13 24  1  1  0  0  0
 14 16  1  0  0  0  0
 16 31  1  1  0  0  0
 17 19  1  0  0  0  0
 18 19  1  0  0  0  0
 18 25  1  1  0  0  0
 19 23  1  6  0  0  0
 23 37  1  0  0  0  0
 24 42  1  0  0  0  0
 25 26  1  0  0  0  0
 25 27  1  0  0  0  0
 26 28  1  0  0  0  0
 27 29  1  0  0  0  0
 28 30  1  0  0  0  0
 29 30  1  0  0  0  0
 31 32  1  0  0  0  0
 31 33  1  0  0  0  0
 32 34  1  0  0  0  0
 33 35  1  0  0  0  0
 34 36  1  0  0  0  0
 35 36  1  0  0  0  0
 37 38  1  0  0  0  0
 37 39  2  0  0  0  0
 41 42  1  0  0  0  0
 41 43  1  0  0  0  0
 42 44  2  0  0  0  0
M  END
> <ID>
13813

> <Formula>
C34H56N2O4

> <FW>
556.8194

> <DSSTox_CID>
28750

> <DSSTox_RID>
83019

> <DSSTox_GSID>
48824

> <DSSTox_FileID_Sort>
7696

> <TS_ChemName>
Androstane-3,17-diol, 2,16-di-1-piperidinyl-, 3-acetate 17-propanoate, (2beta,3alpha,5alpha,16beta,17beta)-

> <TS_ChemName_Synonyms>
Androstane-3,17-diol, 2,16-di-1-piperidinyl-, 3-acetate 17-propanoate, (2?,3?,5?,16?,17?)-

> <TS_CASRN>
13522-19-5

> <CASRN_ChemName_Relationship>
primary

> <TS_Description>
single chemical compound

> <ChemNote>


> <STRUCTURE_Shown>
tested chemical

> <STRUCTURE_Formula>
C34H56N2O4

> <STRUCTURE_MW>
556.8194

> <STRUCTURE_ChemType>
defined organic

> <STRUCTURE_DefinedOrganicForm>
parent

> <STRUCTURE_IUPAC>
(2beta,3alpha,5alpha,16beta,17beta)-3-(acetyloxy)-2,16-di(piperidin-1-yl)androstan-17-yl propanoate

> <STRUCTURE_SMILES>
CC(=O)O[C@H]5C[C@@H]6CC[C@@H]2[C@H](CC[C@]1(C)[C@@H](OC(=O)CC)[C@H](C[C@H]12)N3CCCCC3)[C@@]6(C)C[C@@H]5N4CCCCC4

> <STRUCTURE_SMILES_Desalt>
CC(=O)O[C@H]5C[C@@H]6CC[C@@H]2[C@H](CC[C@]1(C)[C@@H](OC(=O)CC)[C@H](C[C@H]12)N3CCCCC3)[C@@]6(C)C[C@@H]5N4CCCCC4

> <Substance_modify_yyyymmdd>
20111204

$$$$
