13539-59-8
ChemmineR-0915142007XD

 22 24  0  0  0  0  0  0  0  0  1 V2000
    5.7591   -8.8823    0.0000 C   0  0  0  0  0  0  0  0  0  0  0  0
    6.9148   -9.5508    0.0000 C   0  0  0  0  0  0  0  0  0  0  0  0
    4.6035   -9.5508    0.0000 C   0  0  0  0  0  0  0  0  0  0  0  0
    3.4574   -8.8823    0.0000 C   0  0  0  0  0  0  0  0  0  0  0  0
    3.4574   -7.5547    0.0000 C   0  0  0  0  0  0  0  0  0  0  0  0
    4.6035   -6.8861    0.0000 C   0  0  0  0  0  0  0  0  0  0  0  0
    5.7591   -7.5547    0.0000 C   0  0  0  0  0  0  0  0  0  0  0  0
    4.6035   -5.5586    0.0000 N   0  0  0  0  0  0  0  0  0  0  0  0
    3.4574   -4.8996    0.0000 N   0  0  0  0  0  0  0  0  0  0  0  0
    2.3017   -5.5586    0.0000 C   0  0  0  0  0  0  0  0  0  0  0  0
    1.1461   -4.8996    0.0000 N   0  0  0  0  0  0  0  0  0  0  0  0
    0.0000   -5.5586    0.0000 C   0  0  0  0  0  0  0  0  0  0  0  0
    1.1461   -3.5625    0.0000 C   0  0  0  0  0  0  0  0  0  0  0  0
    2.3017   -6.8861    0.0000 N   0  0  0  0  0  0  0  0  0  0  0  0
    3.7439   -3.5911    0.0000 C   0  0  0  0  0  0  0  0  0  0  0  0
    2.8461   -2.6074    0.0000 O   0  0  0  0  0  0  0  0  0  0  0  0
    5.0524   -3.4574    0.0000 C   0  0  0  0  0  0  0  0  0  0  0  0
    5.7209   -2.3017    0.0000 C   0  0  0  0  0  0  0  0  0  0  0  0
    5.0524   -1.1461    0.0000 C   0  0  0  0  0  0  0  0  0  0  0  0
    5.7209    0.0000    0.0000 C   0  0  0  0  0  0  0  0  0  0  0  0
    5.5968   -4.6704    0.0000 C   0  0  0  0  0  0  0  0  0  0  0  0
    6.8957   -4.9473    0.0000 O   0  0  0  0  0  0  0  0  0  0  0  0
  1  2  1  0  0  0  0
  1  3  2  0  0  0  0
  1  7  1  0  0  0  0
  3  4  1  0  0  0  0
  4  5  2  0  0  0  0
  5  6  1  0  0  0  0
  5 14  1  0  0  0  0
  6  7  2  0  0  0  0
  6  8  1  0  0  0  0
  8  9  1  0  0  0  0
  8 21  1  0  0  0  0
  9 10  1  0  0  0  0
  9 15  1  0  0  0  0
 10 11  1  0  0  0  0
 10 14  2  0  0  0  0
 11 12  1  0  0  0  0
 11 13  1  0  0  0  0
 15 16  2  0  0  0  0
 15 17  1  0  0  0  0
 17 18  1  0  0  0  0
 17 21  1  0  0  0  0
 18 19  1  0  0  0  0
 19 20  1  0  0  0  0
 21 22  2  0  0  0  0
M  END
> <ID>
9573

> <Formula>
C16H20N4O2

> <FW>
300.3556

> <DSSTox_CID>
23735

> <DSSTox_RID>
80859

> <DSSTox_GSID>
45408

> <DSSTox_FileID_Sort>
5540

> <TS_ChemName>
Azapropazone

> <TS_ChemName_Synonyms>


> <TS_CASRN>
13539-59-8

> <CASRN_ChemName_Relationship>
primary

> <TS_Description>
single chemical compound

> <ChemNote>


> <STRUCTURE_Shown>
tested chemical

> <STRUCTURE_Formula>
C16H20N4O2

> <STRUCTURE_MW>
300.3556

> <STRUCTURE_ChemType>
defined organic

> <STRUCTURE_DefinedOrganicForm>
parent

> <STRUCTURE_IUPAC>
5-(dimethylamino)-9-methyl-2-propyl-1H-pyrazolo[1,2-a][1,2,4]benzotriazine-1,3(2H)-dione

> <STRUCTURE_SMILES>
CN(C)C2=Nc1ccc(C)cc1N3C(=O)C(CCC)C(=O)N23

> <STRUCTURE_SMILES_Desalt>
CN(C)C2=Nc1ccc(C)cc1N3C(=O)C(CCC)C(=O)N23

> <Substance_modify_yyyymmdd>
20100107

$$$$
