135410-20-7
ChemmineR-0915142007XD

 15 15  0  0  0  0  0  0  0  0  1 V2000
    3.4496   -2.6543    0.0000 C    0  0  0  0  0  0  0  0  0  0  0  0
    3.4496   -3.9867    0.0000 C    0  0  0  0  0  0  0  0  0  0  0  0
    4.5857   -1.9933    0.0000 N    0  0  0  0  0  0  0  0  0  0  0  0
    2.2825   -1.9933    0.0000 N    0  0  0  0  0  0  0  0  0  0  0  0
    5.7528   -2.6543    0.0000 C    0  0  0  0  0  0  0  0  0  0  0  0
    9.1921   -1.9933    0.0000 N    0  0  0  0  0  0  0  0  0  0  0  0
    8.0456   -2.6543    0.0000 C    0  0  0  0  0  0  0  0  0  0  0  0
    9.1921   -0.6507    0.0000 C    0  0  0  0  0  0  0  0  0  0  0  0
    8.0456    0.0000    0.0000 C    0  0  0  0  0  0  0  0  0  0  0  0
    6.8786   -1.9933    0.0000 C    0  0  0  0  0  0  0  0  0  0  0  0
    6.8786   -0.6507    0.0000 C    0  0  0  0  0  0  0  0  0  0  0  0
   10.3282    0.0000    0.0000 Cl   0  0  0  0  0  0  0  0  0  0  0  0
    1.1361   -1.3323    0.0000 C    0  0  0  0  0  0  0  0  0  0  0  0
    0.0000   -0.6300    0.0000 N    0  0  0  0  0  0  0  0  0  0  0  0
    4.5857   -0.6507    0.0000 C    0  0  0  0  0  0  0  0  0  0  0  0
  1  2  1  0  0  0  0
  1  3  1  0  0  0  0
  1  4  2  0  0  0  0
  3  5  1  0  0  0  0
  3 15  1  0  0  0  0
  4 13  1  0  0  0  0
  5 10  1  0  0  0  0
  6  7  1  0  0  0  0
  6  8  2  0  0  0  0
  7 10  2  0  0  0  0
  8  9  1  0  0  0  0
  8 12  1  0  0  0  0
  9 11  2  0  0  0  0
 10 11  1  0  0  0  0
 13 14  3  0  0  0  0
M  END
> <ID>
6726

> <Formula>
C10H11ClN4

> <FW>
222.6741

> <DSSTox_CID>
14300

> <DSSTox_RID>
79140

> <DSSTox_GSID>
34300

> <DSSTox_FileID_Sort>
3822

> <TS_ChemName>
Acetamiprid

> <TS_ChemName_Synonyms>


> <TS_CASRN>
135410-20-7

> <CASRN_ChemName_Relationship>
primary

> <TS_Description>
single chemical compound

> <ChemNote>
tautomers

> <STRUCTURE_Shown>
tested chemical

> <STRUCTURE_Formula>
C10H11ClN4

> <STRUCTURE_MW>
222.6741

> <STRUCTURE_ChemType>
defined organic

> <STRUCTURE_DefinedOrganicForm>
parent

> <STRUCTURE_IUPAC>
N-[(6-chloropyridin-3-yl)methyl]-N'-cyano-N-methylethanimidamide

> <STRUCTURE_SMILES>
Clc1ccc(CN(C)C(/C)=N\C#N)cn1

> <STRUCTURE_SMILES_Desalt>
Clc1ccc(CN(C)C(/C)=N\C#N)cn1

> <Substance_modify_yyyymmdd>
20080429

$$$$
