135729-62-3
ChemmineR-0915142007XD

 24 27  0  0  1  0  0  0  0  0  1 V2000
    6.4574   -4.0886    0.0000 Cl   0  0  0  0  0  0  0  0  0  0  0  0
    3.6019   -3.0502    0.0000 C    0  0  0  0  0  0  0  0  0  0  0  0
    4.8106   -3.7398    0.0000 N    0  0  0  0  0  0  0  0  0  0  0  0
    4.8106   -5.1351    0.0000 C    0  0  0  0  0  0  0  0  0  0  0  0
    3.6019   -5.8409    0.0000 C    0  0  0  0  0  0  0  0  0  0  0  0
    2.4013   -5.1351    0.0000 C    0  0  0  0  0  0  0  0  0  0  0  0
    1.2006   -5.8409    0.0000 C    0  0  0  0  0  0  0  0  0  0  0  0
    0.0000   -5.1351    0.0000 C    0  0  0  0  0  0  0  0  0  0  0  0
    0.0000   -3.7398    0.0000 C    0  0  0  0  0  0  0  0  0  0  0  0
    1.2006   -3.0502    0.0000 C    0  0  0  0  0  0  0  0  0  0  0  0
    2.4013   -3.7398    0.0000 C    0  0  0  0  0  0  0  0  0  0  0  0
    1.2006   -7.2281    0.0000 C    0  0  0  0  0  0  0  0  0  0  0  0
    2.4013   -7.9095    0.0000 C    0  0  0  0  0  0  0  0  0  0  0  0
    3.6019   -7.2281    0.0000 C    0  0  0  0  0  0  0  0  0  0  0  0
    3.6019   -1.6630    0.0000 O    0  0  0  0  0  0  0  0  0  0  0  0
    4.8106   -6.5386    0.0000 H    0  0  0  0  0  0  0  0  0  0  0  0
    6.4737   -1.3791    0.0000 N    0  0  0  0  0  0  0  0  0  0  0  0
    7.6743   -2.0849    0.0000 C    0  0  0  0  0  0  0  0  0  0  0  0
    6.4737    0.0000    0.0000 C    0  0  0  0  0  0  0  0  0  0  0  0
    5.2730   -2.0849    0.0000 C    0  0  0  0  0  0  0  0  0  0  0  0
    6.9117   -2.1660    0.0000 C    0  0  0  0  0  0  0  0  0  0  0  0
    8.1124   -2.8718    0.0000 C    0  0  0  0  0  0  0  0  0  0  0  0
    6.9117   -0.7788    0.0000 C    0  0  0  0  0  0  0  0  0  0  0  0
    5.7111   -2.8718    0.0000 C    0  0  0  0  0  0  0  0  0  0  0  0
  2  3  1  0  0  0  0
  2 11  1  0  0  0  0
  2 15  2  0  0  0  0
  3  4  1  0  0  0  0
 24  3  1  6  0  0  0
  4  5  1  0  0  0  0
  5  6  1  0  0  0  0
  5 14  1  0  0  0  0
  5 16  1  6  0  0  0
  6  7  2  0  0  0  0
  6 11  1  0  0  0  0
  7  8  1  0  0  0  0
  7 12  1  0  0  0  0
  8  9  2  0  0  0  0
  9 10  1  0  0  0  0
 10 11  2  0  0  0  0
 12 13  1  0  0  0  0
 13 14  1  0  0  0  0
 17 18  1  0  0  0  0
 17 19  1  0  0  0  0
 17 20  1  0  0  0  0
 18 22  1  0  0  0  0
 19 23  1  0  0  0  0
 20 24  1  0  0  0  0
 21 22  1  0  0  0  0
 21 23  1  0  0  0  0
 21 24  1  0  0  0  0
M  END
> <ID>
11830

> <Formula>
C19H25ClN2O

> <FW>
332.8676 (36.4609+296.4067)

> <DSSTox_CID>
26610

> <DSSTox_RID>
81765

> <DSSTox_GSID>
46610

> <DSSTox_FileID_Sort>
6446

> <TS_ChemName>
Palonosetron hydrochloride

> <TS_ChemName_Synonyms>


> <TS_CASRN>
135729-62-3

> <CASRN_ChemName_Relationship>
primary

> <TS_Description>
single chemical compound

> <ChemNote>
stereochem; parent [135729-56-5]

> <STRUCTURE_Shown>
tested chemical

> <STRUCTURE_Formula>
C19H25ClN2O

> <STRUCTURE_MW>
332.8676

> <STRUCTURE_ChemType>
defined organic

> <STRUCTURE_DefinedOrganicForm>
complex

> <STRUCTURE_IUPAC>
(3aS)-2-[(3S)-1-azabicyclo[2.2.2]oct-3-yl]-2,3,3a,4,5,6-hexahydro-1H-benzo[de]isoquinolin-1-one hydrochloride (1:1)

> <STRUCTURE_SMILES>
Cl.O=C1N(C[C@H]3CCCc2cccc1c23)[C@@H]5CN4CCC5CC4

> <STRUCTURE_SMILES_Desalt>
O=C1N(C[C@H]3CCCc2cccc1c23)[C@@H]5CN4CCC5CC4

> <Substance_modify_yyyymmdd>
20110809

$$$$
