13593-03-8
ChemmineR-0915142007XD

 19 20  0  0  0  0  0  0  0  0  1 V2000
    2.2862   -1.1588    0.0000 C   0  0  0  0  0  0  0  0  0  0  0  0
    2.2862   -2.4741    0.0000 C   0  0  0  0  0  0  0  0  0  0  0  0
    3.4658   -0.5220    0.0000 N   0  0  0  0  0  0  0  0  0  0  0  0
    1.1588   -0.5220    0.0000 C   0  0  0  0  0  0  0  0  0  0  0  0
    3.4658   -3.1213    0.0000 N   0  0  0  0  0  0  0  0  0  0  0  0
    1.1588   -3.1213    0.0000 C   0  0  0  0  0  0  0  0  0  0  0  0
    4.6246   -1.1588    0.0000 C   0  0  0  0  0  0  0  0  0  0  0  0
    0.0000   -1.1588    0.0000 C   0  0  0  0  0  0  0  0  0  0  0  0
    4.6246   -2.4741    0.0000 C   0  0  0  0  0  0  0  0  0  0  0  0
    0.0000   -2.4741    0.0000 C   0  0  0  0  0  0  0  0  0  0  0  0
    5.7833   -0.5220    0.0000 O   0  0  0  0  0  0  0  0  0  0  0  0
    6.8690   -1.1274    0.0000 P   0  0  0  0  0  0  0  0  0  0  0  0
    8.0695   -1.8269    0.0000 O   0  0  0  0  0  0  0  0  0  0  0  0
    6.2322   -2.3384    0.0000 O   0  0  0  0  0  0  0  0  0  0  0  0
    7.5684    0.0000    0.0000 S   0  0  0  0  0  0  0  0  0  0  0  0
    9.2283   -1.1170    0.0000 C   0  0  0  0  0  0  0  0  0  0  0  0
    7.3283   -3.1109    0.0000 C   0  0  0  0  0  0  0  0  0  0  0  0
   10.4392   -1.1170    0.0000 C   0  0  0  0  0  0  0  0  0  0  0  0
    7.3283   -4.6246    0.0000 C   0  0  0  0  0  0  0  0  0  0  0  0
  1  2  1  0  0  0  0
  1  3  2  0  0  0  0
  1  4  1  0  0  0  0
  2  5  2  0  0  0  0
  2  6  1  0  0  0  0
  3  7  1  0  0  0  0
  4  8  2  0  0  0  0
  5  9  1  0  0  0  0
  6 10  2  0  0  0  0
  7 11  1  0  0  0  0
  7  9  2  0  0  0  0
  8 10  1  0  0  0  0
 11 12  1  0  0  0  0
 12 13  1  0  0  0  0
 12 14  1  0  0  0  0
 12 15  2  0  0  0  0
 13 16  1  0  0  0  0
 14 17  1  0  0  0  0
 16 18  1  0  0  0  0
 17 19  1  0  0  0  0
M  END
> <ID>
3605

> <Formula>
C12H15N2O3PS

> <FW>
298.2979

> <DSSTox_CID>
4291

> <DSSTox_RID>
77358

> <DSSTox_GSID>
24291

> <DSSTox_FileID_Sort>
2041

> <TS_ChemName>
Quinalphos

> <TS_ChemName_Synonyms>


> <TS_CASRN>
13593-03-8

> <CASRN_ChemName_Relationship>
primary

> <TS_Description>
single chemical compound

> <ChemNote>


> <STRUCTURE_Shown>
tested chemical

> <STRUCTURE_Formula>
C12H15N2O3PS

> <STRUCTURE_MW>
298.2979

> <STRUCTURE_ChemType>
defined organic

> <STRUCTURE_DefinedOrganicForm>
parent

> <STRUCTURE_IUPAC>
O,O-diethyl O-quinoxalin-2-yl phosphorothioate

> <STRUCTURE_SMILES>
CCOP(=S)(OCC)Oc1cnc2ccccc2n1

> <STRUCTURE_SMILES_Desalt>
CCOP(=S)(OCC)Oc1cnc2ccccc2n1

> <Substance_modify_yyyymmdd>
20080429

$$$$
