136-47-0
ChemmineR-0915142007XD

 20 19  0  0  0  0  0  0  0  0  1 V2000
   17.5583   -0.7550    0.0000 Cl   0  0  0  0  0  0  0  0  0  0  0  0
    8.0592   -2.0016    0.0000 C    0  0  0  0  0  0  0  0  0  0  0  0
    8.0592   -3.3361    0.0000 C    0  0  0  0  0  0  0  0  0  0  0  0
    6.9180   -1.3169    0.0000 C    0  0  0  0  0  0  0  0  0  0  0  0
    6.9180   -3.9857    0.0000 C    0  0  0  0  0  0  0  0  0  0  0  0
    5.7591   -2.0016    0.0000 C    0  0  0  0  0  0  0  0  0  0  0  0
    5.7591   -3.3361    0.0000 C    0  0  0  0  0  0  0  0  0  0  0  0
    4.6003   -3.9857    0.0000 N    0  0  0  0  0  0  0  0  0  0  0  0
    3.4414   -3.3185    0.0000 C    0  0  0  0  0  0  0  0  0  0  0  0
    2.3001   -3.9857    0.0000 C    0  0  0  0  0  0  0  0  0  0  0  0
    1.1588   -3.3185    0.0000 C    0  0  0  0  0  0  0  0  0  0  0  0
    0.0000   -3.9857    0.0000 C    0  0  0  0  0  0  0  0  0  0  0  0
    9.2181   -1.3169    0.0000 C    0  0  0  0  0  0  0  0  0  0  0  0
   10.3769   -1.9841    0.0000 O    0  0  0  0  0  0  0  0  0  0  0  0
    9.2181    0.0000    0.0000 O    0  0  0  0  0  0  0  0  0  0  0  0
   11.5358   -1.3169    0.0000 C    0  0  0  0  0  0  0  0  0  0  0  0
   12.6595   -1.9841    0.0000 C    0  0  0  0  0  0  0  0  0  0  0  0
   13.8183   -1.3169    0.0000 N    0  0  0  0  0  0  0  0  0  0  0  0
   14.9772   -1.9841    0.0000 C    0  0  0  0  0  0  0  0  0  0  0  0
   13.8183    0.0000    0.0000 C    0  0  0  0  0  0  0  0  0  0  0  0
  2  3  1  0  0  0  0
  2  4  2  0  0  0  0
  2 13  1  0  0  0  0
  3  5  2  0  0  0  0
  4  6  1  0  0  0  0
  5  7  1  0  0  0  0
  6  7  2  0  0  0  0
  7  8  1  0  0  0  0
  8  9  1  0  0  0  0
  9 10  1  0  0  0  0
 10 11  1  0  0  0  0
 11 12  1  0  0  0  0
 13 14  1  0  0  0  0
 13 15  2  0  0  0  0
 14 16  1  0  0  0  0
 16 17  1  0  0  0  0
 17 18  1  0  0  0  0
 18 19  1  0  0  0  0
 18 20  1  0  0  0  0
M  END
> <ID>
9360

> <Formula>
C15H25ClN2O2

> <FW>
300.8242 (36.4609+264.3633)

> <DSSTox_CID>
22448

> <DSSTox_RID>
80027

> <DSSTox_GSID>
42448

> <DSSTox_FileID_Sort>
4709

> <TS_ChemName>
Tetracaine hydrochloride

> <TS_ChemName_Synonyms>


> <TS_CASRN>
136-47-0

> <CASRN_ChemName_Relationship>
primary

> <TS_Description>
single chemical compound

> <ChemNote>
parent [94-24-6]

> <STRUCTURE_Shown>
tested chemical

> <STRUCTURE_Formula>
C15H25ClN2O2

> <STRUCTURE_MW>
300.8242

> <STRUCTURE_ChemType>
defined organic

> <STRUCTURE_DefinedOrganicForm>
complex

> <STRUCTURE_IUPAC>
2-(dimethylamino)ethyl 4-(butylamino)benzoate hydrochloride (1:1)

> <STRUCTURE_SMILES>
Cl.CN(C)CCOC(=O)c1ccc(NCCCC)cc1

> <STRUCTURE_SMILES_Desalt>
CN(C)CCOC(=O)c1ccc(NCCCC)cc1

> <Substance_modify_yyyymmdd>
20080825

$$$$
