136-23-2
ChemmineR-0915142007XD

 25 22  0  0  0  0  0  0  0  0  2 V2000
    4.6011   -5.9828    0.0000 S    0  0  0  0  0  0  0  0  0  0  0  0
    4.6011   -4.6426    0.0000 C    0  0  0  0  0  0  0  0  0  0  0  0
    3.4543   -3.9793    0.0000 N    0  0  0  0  0  0  0  0  0  0  0  0
    2.3075   -4.6426    0.0000 C    0  0  0  0  0  0  0  0  0  0  0  0
    2.3075   -5.9828    0.0000 C    0  0  0  0  0  0  0  0  0  0  0  0
    3.4543   -6.6461    0.0000 C    0  0  0  0  0  0  0  0  0  0  0  0
    3.4543   -7.9725    0.0000 C    0  0  0  0  0  0  0  0  0  0  0  0
    3.4543   -2.6529    0.0000 C    0  0  0  0  0  0  0  0  0  0  0  0
    2.3075   -1.9897    0.0000 C    0  0  0  0  0  0  0  0  0  0  0  0
    1.1468   -2.6529    0.0000 C    0  0  0  0  0  0  0  0  0  0  0  0
    0.0000   -1.9897    0.0000 C    0  0  0  0  0  0  0  0  0  0  0  0
    5.7618   -3.9793    0.0000 S    0  5  0  0  0  0  0  0  0  0  0  0
    8.0554   -3.9793    0.0000 S    0  5  0  0  0  0  0  0  0  0  0  0
    9.2160   -4.6426    0.0000 C    0  0  0  0  0  0  0  0  0  0  0  0
    9.2160   -5.9828    0.0000 S    0  0  0  0  0  0  0  0  0  0  0  0
   10.3629   -3.9793    0.0000 N    0  0  0  0  0  0  0  0  0  0  0  0
   10.3629   -2.6529    0.0000 C    0  0  0  0  0  0  0  0  0  0  0  0
   11.5097   -1.9897    0.0000 C    0  0  0  0  0  0  0  0  0  0  0  0
   11.5097   -0.6632    0.0000 C    0  0  0  0  0  0  0  0  0  0  0  0
   12.6703    0.0000    0.0000 C    0  0  0  0  0  0  0  0  0  0  0  0
   11.5097   -4.6426    0.0000 C    0  0  0  0  0  0  0  0  0  0  0  0
   12.6703   -3.9793    0.0000 C    0  0  0  0  0  0  0  0  0  0  0  0
   12.6703   -2.6529    0.0000 C    0  0  0  0  0  0  0  0  0  0  0  0
   13.8172   -1.9897    0.0000 C    0  0  0  0  0  0  0  0  0  0  0  0
    6.9086   -3.8412    0.0000 Zn   0  2  0  0  0  0  0  0  0  0  0  0
  1  2  2  0  0  0  0
  2  3  1  0  0  0  0
  2 12  1  0  0  0  0
  3  4  1  0  0  0  0
  3  8  1  0  0  0  0
  4  5  1  0  0  0  0
  5  6  1  0  0  0  0
  6  7  1  0  0  0  0
  8  9  1  0  0  0  0
  9 10  1  0  0  0  0
 10 11  1  0  0  0  0
 13 14  1  0  0  0  0
 14 15  2  0  0  0  0
 14 16  1  0  0  0  0
 16 17  1  0  0  0  0
 16 21  1  0  0  0  0
 17 18  1  0  0  0  0
 18 19  1  0  0  0  0
 19 20  1  0  0  0  0
 21 22  1  0  0  0  0
 22 23  1  0  0  0  0
 23 24  1  0  0  0  0
M  END
> <ID>
1403

> <Formula>
C18H36N2S4Zn

> <FW>
474.1608 (204.3765+204.3765+65.4079)

> <DSSTox_CID>
1462

> <DSSTox_RID>
76169

> <DSSTox_GSID>
21462

> <DSSTox_FileID_Sort>
853

> <TS_ChemName>
Zinc dibutyldithiocarbamate

> <TS_ChemName_Synonyms>
Zinc dibutyldithiocarbamate (Zinc, bis(dibutylcarbamodithioato-.kappa.S,.kappa.S')-, (T-4)-)

> <TS_CASRN>
136-23-2

> <CASRN_ChemName_Relationship>
primary

> <TS_Description>
single chemical compound

> <ChemNote>


> <STRUCTURE_Shown>
tested chemical

> <STRUCTURE_Formula>
C18H36N2S4Zn

> <STRUCTURE_MW>
474.1608

> <STRUCTURE_ChemType>
organometallic

> <STRUCTURE_DefinedOrganicForm>


> <STRUCTURE_IUPAC>
zinc bis(dibutylcarbamodithioate)

> <STRUCTURE_SMILES>
[Zn+2].[S-]C(=S)N(CCCC)CCCC.CCCCN(CCCC)C([S-])=S

> <STRUCTURE_SMILES_Desalt>
CCCCN(CCCC)C(=S)S

> <Substance_modify_yyyymmdd>
20080429

$$$$
