136-77-6
ChemmineR-0915142007XD

 14 14  0  0  0  0  0  0  0  0  1 V2000
    7.9795   -4.6042    0.0000 O   0  0  0  0  0  0  0  0  0  0  0  0
    7.3172   -3.4551    0.0000 C   0  0  0  0  0  0  0  0  0  0  0  0
    5.9846   -3.4551    0.0000 C   0  0  0  0  0  0  0  0  0  0  0  0
    5.3223   -2.2981    0.0000 C   0  0  0  0  0  0  0  0  0  0  0  0
    5.9846   -1.1491    0.0000 C   0  0  0  0  0  0  0  0  0  0  0  0
    7.3172   -1.1491    0.0000 C   0  0  0  0  0  0  0  0  0  0  0  0
    7.9795   -2.2981    0.0000 C   0  0  0  0  0  0  0  0  0  0  0  0
    7.9795    0.0000    0.0000 O   0  0  0  0  0  0  0  0  0  0  0  0
    5.3223   -4.6042    0.0000 C   0  0  0  0  0  0  0  0  0  0  0  0
    3.9898   -4.6042    0.0000 C   0  0  0  0  0  0  0  0  0  0  0  0
    3.3275   -3.4551    0.0000 C   0  0  0  0  0  0  0  0  0  0  0  0
    1.9949   -3.4551    0.0000 C   0  0  0  0  0  0  0  0  0  0  0  0
    1.3326   -2.2981    0.0000 C   0  0  0  0  0  0  0  0  0  0  0  0
    0.0000   -2.2981    0.0000 C   0  0  0  0  0  0  0  0  0  0  0  0
  1  2  1  0  0  0  0
  2  3  2  0  0  0  0
  2  7  1  0  0  0  0
  3  4  1  0  0  0  0
  3  9  1  0  0  0  0
  4  5  2  0  0  0  0
  5  6  1  0  0  0  0
  6  7  2  0  0  0  0
  6  8  1  0  0  0  0
  9 10  1  0  0  0  0
 10 11  1  0  0  0  0
 11 12  1  0  0  0  0
 12 13  1  0  0  0  0
 13 14  1  0  0  0  0
M  END
> <ID>
670

> <Formula>
C12H18O2

> <FW>
194.2701

> <DSSTox_CID>
699

> <DSSTox_RID>
75743

> <DSSTox_GSID>
20699

> <DSSTox_FileID_Sort>
427

> <TS_ChemName>
4-Hexylresorcinol

> <TS_ChemName_Synonyms>
4-Hexylresorcinol (p-Hexylresorcinol)

> <TS_CASRN>
136-77-6

> <CASRN_ChemName_Relationship>
primary

> <TS_Description>
single chemical compound

> <ChemNote>


> <STRUCTURE_Shown>
tested chemical

> <STRUCTURE_Formula>
C12H18O2

> <STRUCTURE_MW>
194.2701

> <STRUCTURE_ChemType>
defined organic

> <STRUCTURE_DefinedOrganicForm>
parent

> <STRUCTURE_IUPAC>
4-hexylbenzene-1,3-diol

> <STRUCTURE_SMILES>
Oc1cc(O)ccc1CCCCCC

> <STRUCTURE_SMILES_Desalt>
Oc1cc(O)ccc1CCCCCC

> <Substance_modify_yyyymmdd>
20080429

$$$$
