136-35-6
ChemmineR-0915142007XD

 15 16  0  0  0  0  0  0  0  0  1 V2000
    3.9960   -3.4651    0.0000 N   0  0  0  0  0  0  0  0  0  0  0  0
    5.3187   -3.4651    0.0000 N   0  0  0  0  0  0  0  0  0  0  0  0
    6.6507   -3.4651    0.0000 N   0  0  0  0  0  0  0  0  0  0  0  0
    7.3307   -2.3101    0.0000 C   0  0  0  0  0  0  0  0  0  0  0  0
    6.6507   -1.1550    0.0000 C   0  0  0  0  0  0  0  0  0  0  0  0
    7.3307    0.0000    0.0000 C   0  0  0  0  0  0  0  0  0  0  0  0
    8.6534    0.0000    0.0000 C   0  0  0  0  0  0  0  0  0  0  0  0
    9.3148   -1.1550    0.0000 C   0  0  0  0  0  0  0  0  0  0  0  0
    8.6534   -2.3101    0.0000 C   0  0  0  0  0  0  0  0  0  0  0  0
    2.6640   -3.4651    0.0000 C   0  0  0  0  0  0  0  0  0  0  0  0
    2.0027   -4.6015    0.0000 C   0  0  0  0  0  0  0  0  0  0  0  0
    0.6707   -4.6015    0.0000 C   0  0  0  0  0  0  0  0  0  0  0  0
    0.0000   -3.4651    0.0000 C   0  0  0  0  0  0  0  0  0  0  0  0
    0.6707   -2.3101    0.0000 C   0  0  0  0  0  0  0  0  0  0  0  0
    2.0027   -2.3101    0.0000 C   0  0  0  0  0  0  0  0  0  0  0  0
  1  2  2  0  0  0  0
  1 10  1  0  0  0  0
  2  3  1  0  0  0  0
  3  4  1  0  0  0  0
  4  5  2  0  0  0  0
  4  9  1  0  0  0  0
  5  6  1  0  0  0  0
  6  7  2  0  0  0  0
  7  8  1  0  0  0  0
  8  9  2  0  0  0  0
 10 11  2  0  0  0  0
 10 15  1  0  0  0  0
 11 12  1  0  0  0  0
 12 13  2  0  0  0  0
 13 14  1  0  0  0  0
 14 15  2  0  0  0  0
M  END
> <ID>
3923

> <Formula>
C12H11N3

> <FW>
197.2358

> <DSSTox_CID>
4934

> <DSSTox_RID>
77588

> <DSSTox_GSID>
24934

> <DSSTox_FileID_Sort>
2271

> <TS_ChemName>
Diazoaminobenzene

> <TS_ChemName_Synonyms>


> <TS_CASRN>
136-35-6

> <CASRN_ChemName_Relationship>
primary

> <TS_Description>
single chemical compound

> <ChemNote>


> <STRUCTURE_Shown>
tested chemical

> <STRUCTURE_Formula>
C12H11N3

> <STRUCTURE_MW>
197.2358

> <STRUCTURE_ChemType>
defined organic

> <STRUCTURE_DefinedOrganicForm>
parent

> <STRUCTURE_IUPAC>
1,3-diphenyltriaz-1-ene

> <STRUCTURE_SMILES>
N(=N/Nc1ccccc1)\c2ccccc2

> <STRUCTURE_SMILES_Desalt>
N(=N/Nc1ccccc1)\c2ccccc2

> <Substance_modify_yyyymmdd>
20080429

$$$$
