136-51-6
ChemmineR-0915142007XD

 21 18  0  0  0  0  0  0  0  0  2 V2000
   12.0855   -1.4955    0.0000 C    0  0  0  0  0  0  0  0  0  0  0  0
   13.1811   -2.1041    0.0000 C    0  0  0  0  0  0  0  0  0  0  0  0
   14.2244   -1.4955    0.0000 C    0  0  0  0  0  0  0  0  0  0  0  0
   15.2852   -2.1041    0.0000 C    0  0  0  0  0  0  0  0  0  0  0  0
   16.3285   -1.4955    0.0000 C    0  0  0  0  0  0  0  0  0  0  0  0
   17.3893   -2.1041    0.0000 C    0  0  0  0  0  0  0  0  0  0  0  0
   12.0855   -0.2608    0.0000 O    0  0  0  0  0  0  0  0  0  0  0  0
   11.0422   -2.1041    0.0000 O    0  5  0  0  0  0  0  0  0  0  0  0
   13.1811   -3.3214    0.0000 C    0  0  0  0  0  0  0  0  0  0  0  0
   14.2244   -3.9474    0.0000 C    0  0  0  0  0  0  0  0  0  0  0  0
    8.8337   -1.9998    0.0000 Ca   0  2  0  0  0  0  0  0  0  0  0  0
    6.4166   -1.4955    0.0000 C    0  0  0  0  0  0  0  0  0  0  0  0
    6.4166    0.0000    0.0000 O    0  0  0  0  0  0  0  0  0  0  0  0
    7.7034   -2.2258    0.0000 O    0  5  0  0  0  0  0  0  0  0  0  0
    5.1298   -2.2432    0.0000 C    0  0  0  0  0  0  0  0  0  0  0  0
    3.8430   -1.4955    0.0000 C    0  0  0  0  0  0  0  0  0  0  0  0
    1.2694   -1.4955    0.0000 C    0  0  0  0  0  0  0  0  0  0  0  0
    2.5562   -2.2432    0.0000 C    0  0  0  0  0  0  0  0  0  0  0  0
    0.0000   -2.2432    0.0000 C    0  0  0  0  0  0  0  0  0  0  0  0
    5.1298   -3.4779    0.0000 C    0  0  0  0  0  0  0  0  0  0  0  0
    4.0169   -4.1734    0.0000 C    0  0  0  0  0  0  0  0  0  0  0  0
  1  2  1  0  0  0  0
  1  8  1  0  0  0  0
  1  7  2  0  0  0  0
  2  3  1  0  0  0  0
  2  9  1  0  0  0  0
  3  4  1  0  0  0  0
  4  5  1  0  0  0  0
  5  6  1  0  0  0  0
  9 10  1  0  0  0  0
 12 13  2  0  0  0  0
 12 14  1  0  0  0  0
 12 15  1  0  0  0  0
 15 16  1  0  0  0  0
 15 20  1  0  0  0  0
 16 18  1  0  0  0  0
 17 18  1  0  0  0  0
 17 19  1  0  0  0  0
 20 21  1  0  0  0  0
M  END
> <ID>
4909

> <Formula>
C16H30CaO4

> <FW>
326.4850 (143.2040+40.0769+143.2040)

> <DSSTox_CID>
7063

> <DSSTox_RID>
78297

> <DSSTox_GSID>
27063

> <DSSTox_FileID_Sort>
2980

> <TS_ChemName>
Hexanoic acid, 2-ethyl-, calcium salt

> <TS_ChemName_Synonyms>


> <TS_CASRN>
136-51-6

> <CASRN_ChemName_Relationship>
primary

> <TS_Description>
single chemical compound

> <ChemNote>
parent [149-57-5]

> <STRUCTURE_Shown>
tested chemical

> <STRUCTURE_Formula>
C16H30CaO4

> <STRUCTURE_MW>
326.485

> <STRUCTURE_ChemType>
defined organic

> <STRUCTURE_DefinedOrganicForm>
salt

> <STRUCTURE_IUPAC>
calcium bis(2-ethylhexanoate)

> <STRUCTURE_SMILES>
[Ca+2].[O-]C(=O)C(CC)CCCC.CCC(CCCC)C([O-])=O

> <STRUCTURE_SMILES_Desalt>
CCCCC(CC)C(=O)O

> <Substance_modify_yyyymmdd>
20080429

$$$$
