136-60-7
ChemmineR-0915142007XD

 13 13  0  0  0  0  0  0  0  0  1 V2000
    3.4377   -1.3180    0.0000 C   0  0  0  0  0  0  0  0  0  0  0  0
    3.4377    0.0000    0.0000 O   0  0  0  0  0  0  0  0  0  0  0  0
    2.2765   -1.9908    0.0000 C   0  0  0  0  0  0  0  0  0  0  0  0
    4.6082   -1.9908    0.0000 O   0  0  0  0  0  0  0  0  0  0  0  0
    1.1336   -1.3180    0.0000 C   0  0  0  0  0  0  0  0  0  0  0  0
    2.2765   -3.3179    0.0000 C   0  0  0  0  0  0  0  0  0  0  0  0
    0.0000   -1.9908    0.0000 C   0  0  0  0  0  0  0  0  0  0  0  0
    1.1336   -3.9907    0.0000 C   0  0  0  0  0  0  0  0  0  0  0  0
    0.0000   -3.3179    0.0000 C   0  0  0  0  0  0  0  0  0  0  0  0
    5.7419   -1.3180    0.0000 C   0  0  0  0  0  0  0  0  0  0  0  0
    6.9124   -1.9908    0.0000 C   0  0  0  0  0  0  0  0  0  0  0  0
    8.0460   -1.3180    0.0000 C   0  0  0  0  0  0  0  0  0  0  0  0
    9.2165   -1.9908    0.0000 C   0  0  0  0  0  0  0  0  0  0  0  0
  1  2  2  0  0  0  0
  1  3  1  0  0  0  0
  1  4  1  0  0  0  0
  3  5  2  0  0  0  0
  3  6  1  0  0  0  0
  4 10  1  0  0  0  0
  5  7  1  0  0  0  0
  6  8  2  0  0  0  0
  7  9  2  0  0  0  0
  8  9  1  0  0  0  0
 10 11  1  0  0  0  0
 11 12  1  0  0  0  0
 12 13  1  0  0  0  0
M  END
> <ID>
7891

> <Formula>
C11H14O2

> <FW>
178.2277

> <DSSTox_CID>
20694

> <DSSTox_RID>
79547

> <DSSTox_GSID>
40694

> <DSSTox_FileID_Sort>
4229

> <TS_ChemName>
Butyl benzoate

> <TS_ChemName_Synonyms>


> <TS_CASRN>
136-60-7

> <CASRN_ChemName_Relationship>
primary

> <TS_Description>
single chemical compound

> <ChemNote>


> <STRUCTURE_Shown>
tested chemical

> <STRUCTURE_Formula>
C11H14O2

> <STRUCTURE_MW>
178.2277

> <STRUCTURE_ChemType>
defined organic

> <STRUCTURE_DefinedOrganicForm>
parent

> <STRUCTURE_IUPAC>
butyl benzoate

> <STRUCTURE_SMILES>
O=C(OCCCC)c1ccccc1

> <STRUCTURE_SMILES_Desalt>
O=C(OCCCC)c1ccccc1

> <Substance_modify_yyyymmdd>
20080429

$$$$
