136042-19-8
ChemmineR-0915142007XD

 32 35  0  0  0  0  0  0  0  0  2 V2000
    4.2306   -6.1526    0.0000 Na   0  3  0  0  0  0  0  0  0  0  0  0
    5.7662   -2.6746    0.0000 C    0  0  0  0  0  0  0  0  0  0  0  0
    5.7662   -4.0068    0.0000 C    0  0  0  0  0  0  0  0  0  0  0  0
    4.6170   -2.0034    0.0000 C    0  0  0  0  0  0  0  0  0  0  0  0
    4.6170   -4.6577    0.0000 C    0  0  0  0  0  0  0  0  0  0  0  0
    3.4577   -2.6746    0.0000 C    0  0  0  0  0  0  0  0  0  0  0  0
    3.4577   -4.0068    0.0000 C    0  0  0  0  0  0  0  0  0  0  0  0
    2.3085   -2.0034    0.0000 C    0  0  0  0  0  0  0  0  0  0  0  0
    1.1492   -2.6543    0.0000 C    0  0  0  0  0  0  0  0  0  0  0  0
    2.3085   -0.6712    0.0000 C    0  0  0  0  0  0  0  0  0  0  0  0
    0.0000   -2.0034    0.0000 C    0  0  0  0  0  0  0  0  0  0  0  0
    1.1492    0.0000    0.0000 C    0  0  0  0  0  0  0  0  0  0  0  0
    0.0000   -0.6712    0.0000 C    0  0  0  0  0  0  0  0  0  0  0  0
    1.1492   -4.0068    0.0000 C    0  0  0  0  0  0  0  0  0  0  0  0
    2.2373   -4.7696    0.0000 N    0  5  0  0  0  0  0  0  0  0  0  0
    0.0814   -4.7696    0.0000 N    0  0  0  0  0  0  0  0  0  0  0  0
    1.8305   -6.0408    0.0000 N    0  0  0  0  0  0  0  0  0  0  0  0
    0.4983   -6.0408    0.0000 N    0  0  0  0  0  0  0  0  0  0  0  0
    6.9154   -4.6577    0.0000 C    0  0  0  0  0  0  0  0  0  0  0  0
    8.0747   -4.0068    0.0000 N    0  0  0  0  0  0  0  0  0  0  0  0
    8.1967   -2.6746    0.0000 C    0  0  0  0  0  0  0  0  0  0  0  0
    9.2747   -4.5357    0.0000 C    0  0  0  0  0  0  0  0  0  0  0  0
    9.5086   -2.4000    0.0000 C    0  0  0  0  0  0  0  0  0  0  0  0
   10.1697   -3.5492    0.0000 N    0  0  0  0  0  0  0  0  0  0  0  0
    7.3222   -1.6780    0.0000 N    0  0  0  0  0  0  0  0  0  0  0  0
    7.7188   -0.4170    0.0000 C    0  0  0  0  0  0  0  0  0  0  0  0
    9.9154   -1.1390    0.0000 C    0  0  0  0  0  0  0  0  0  0  0  0
    9.0307   -0.1424    0.0000 C    0  0  0  0  0  0  0  0  0  0  0  0
    9.5595   -5.8272    0.0000 C    0  0  0  0  0  0  0  0  0  0  0  0
    8.5730   -6.7221    0.0000 C    0  0  0  0  0  0  0  0  0  0  0  0
    8.8374   -8.0239    0.0000 C    0  0  0  0  0  0  0  0  0  0  0  0
    7.8612   -8.9188    0.0000 C    0  0  0  0  0  0  0  0  0  0  0  0
  2  3  1  0  0  0  0
  2  4  2  0  0  0  0
  3  5  2  0  0  0  0
  3 19  1  0  0  0  0
  4  6  1  0  0  0  0
  5  7  1  0  0  0  0
  6  7  2  0  0  0  0
  6  8  1  0  0  0  0
  8  9  1  0  0  0  0
  8 10  2  0  0  0  0
  9 11  2  0  0  0  0
  9 14  1  0  0  0  0
 10 12  1  0  0  0  0
 11 13  1  0  0  0  0
 12 13  2  0  0  0  0
 14 15  1  0  0  0  0
 14 16  2  0  0  0  0
 15 17  1  0  0  0  0
 16 18  1  0  0  0  0
 17 18  2  0  0  0  0
 19 20  1  0  0  0  0
 20 21  1  0  0  0  0
 20 22  1  0  0  0  0
 21 25  1  0  0  0  0
 21 23  2  0  0  0  0
 22 24  2  0  0  0  0
 22 29  1  0  0  0  0
 23 24  1  0  0  0  0
 23 27  1  0  0  0  0
 25 26  2  0  0  0  0
 26 28  1  0  0  0  0
 27 28  2  0  0  0  0
 29 30  1  0  0  0  0
 30 31  1  0  0  0  0
 31 32  1  0  0  0  0
M  END
> <ID>
13239

> <Formula>
C24H22N7Na

> <FW>
431.4681 (22.9892+408.4789)

> <DSSTox_CID>
28152

> <DSSTox_RID>
82715

> <DSSTox_GSID>
48178

> <DSSTox_FileID_Sort>
7392

> <TS_ChemName>
FR130739

> <TS_ChemName_Synonyms>


> <TS_CASRN>
136042-19-8

> <CASRN_ChemName_Relationship>
primary

> <TS_Description>
single chemical compound

> <ChemNote>


> <STRUCTURE_Shown>
tested chemical

> <STRUCTURE_Formula>
C24H22N7Na

> <STRUCTURE_MW>
431.4681

> <STRUCTURE_ChemType>
defined organic

> <STRUCTURE_DefinedOrganicForm>
salt

> <STRUCTURE_IUPAC>
sodium 5-{4'-[(2-butyl-3H-imidazo[4,5-b]pyridin-3-yl)methyl]biphenyl-2-yl}tetrazol-1-ide

> <STRUCTURE_SMILES>
[Na+].CCCCc5nc1cccnc1n5Cc2ccc(cc2)c4ccccc4c3[n-]nnn3

> <STRUCTURE_SMILES_Desalt>
CCCCc5nc1cccnc1n5Cc2ccc(cc2)c3ccccc3c4nnnn4

> <Substance_modify_yyyymmdd>
20130910

$$$$
