13609-67-1
ChemmineR-0915142007XD

 34 37  0  0  1  0  0  0  0  0  1 V2000
    6.9570   -3.7086    0.0000 C   0  0  0  0  0  0  0  0  0  0  0  0
    3.4785   -5.7118    0.0000 C   0  0  0  0  0  0  0  0  0  0  0  0
    8.2158   -3.3161    0.0000 C   0  0  0  0  0  0  0  0  0  0  0  0
    5.7930   -5.7118    0.0000 C   0  0  0  0  0  0  0  0  0  0  0  0
    6.9570   -5.0621    0.0000 C   0  0  0  0  0  0  0  0  0  0  0  0
    4.6290   -5.0486    0.0000 C   0  0  0  0  0  0  0  0  0  0  0  0
    3.4785   -7.0382    0.0000 C   0  0  0  0  0  0  0  0  0  0  0  0
    5.7795   -3.0589    0.0000 C   0  0  0  0  0  0  0  0  0  0  0  0
    4.6290   -3.7086    0.0000 C   0  0  0  0  0  0  0  0  0  0  0  0
    2.3416   -7.7015    0.0000 C   0  0  0  0  0  0  0  0  0  0  0  0
    8.2158   -1.9897    0.0000 C   0  0  0  0  0  0  0  0  0  0  0  0
    8.9738   -4.3718    0.0000 C   0  0  0  0  0  0  0  0  0  0  0  0
    8.2158   -5.4411    0.0000 C   0  0  0  0  0  0  0  0  0  0  0  0
    5.7930   -7.0247    0.0000 C   0  0  0  0  0  0  0  0  0  0  0  0
    2.3416   -5.0486    0.0000 C   0  0  0  0  0  0  0  0  0  0  0  0
    4.6290   -7.7015    0.0000 C   0  0  0  0  0  0  0  0  0  0  0  0
    1.1911   -7.0247    0.0000 C   0  0  0  0  0  0  0  0  0  0  0  0
    9.3663   -1.3129    0.0000 O   0  0  0  0  0  0  0  0  0  0  0  0
    0.0000   -7.6744    0.0000 O   0  0  0  0  0  0  0  0  0  0  0  0
    9.5422   -3.3567    0.0000 O   0  0  0  0  0  0  0  0  0  0  0  0
    6.9570   -2.3822    0.0000 C   0  0  0  0  0  0  0  0  0  0  0  0
    1.1911   -5.7118    0.0000 C   0  0  0  0  0  0  0  0  0  0  0  0
    3.4650   -3.0454    0.0000 O   0  0  0  0  0  0  0  0  0  0  0  0
    3.4785   -4.3718    0.0000 C   0  0  0  0  0  0  0  0  0  0  0  0
    7.0789   -1.3264    0.0000 C   0  0  0  0  0  0  0  0  0  0  0  0
    7.0789    0.0000    0.0000 O   0  0  0  0  0  0  0  0  0  0  0  0
    5.7930   -4.3854    0.0000 H   0  0  0  0  0  0  0  0  0  0  0  0
    6.9570   -6.3886    0.0000 H   0  0  0  0  0  0  0  0  0  0  0  0
    4.6290   -6.3750    0.0000 H   0  0  0  0  0  0  0  0  0  0  0  0
   10.1649   -4.5478    0.0000 C   0  0  0  0  0  0  0  0  0  0  0  0
   11.6266   -4.5613    0.0000 C   0  0  0  0  0  0  0  0  0  0  0  0
    9.4610   -5.6712    0.0000 O   0  0  0  0  0  0  0  0  0  0  0  0
   12.2087   -3.4514    0.0000 C   0  0  0  0  0  0  0  0  0  0  0  0
   13.5351   -3.4514    0.0000 C   0  0  0  0  0  0  0  0  0  0  0  0
  1  3  1  0  0  0  0
  1  5  1  0  0  0  0
  1  8  1  0  0  0  0
  1 21  1  1  0  0  0
  2  6  1  0  0  0  0
  2  7  1  0  0  0  0
  2 15  1  0  0  0  0
  2 24  1  1  0  0  0
  3 11  1  0  0  0  0
  3 12  1  0  0  0  0
  3 20  1  6  0  0  0
  4  5  1  0  0  0  0
  4 14  1  0  0  0  0
  4  6  1  0  0  0  0
  4 27  1  1  0  0  0
  5 13  1  0  0  0  0
  5 28  1  6  0  0  0
  6  9  1  0  0  0  0
  6 29  1  6  0  0  0
  7 10  2  0  0  0  0
  7 16  1  0  0  0  0
  8  9  1  0  0  0  0
  9 23  1  1  0  0  0
 10 17  1  0  0  0  0
 11 18  2  0  0  0  0
 11 25  1  0  0  0  0
 12 13  1  0  0  0  0
 14 16  1  0  0  0  0
 15 22  1  0  0  0  0
 17 22  1  0  0  0  0
 17 19  2  0  0  0  0
 20 30  1  0  0  0  0
 25 26  1  0  0  0  0
 30 31  1  0  0  0  0
 30 32  2  0  0  0  0
 31 33  1  0  0  0  0
 33 34  1  0  0  0  0
M  END
> <ID>
11276

> <Formula>
C25H36O6

> <FW>
432.5497

> <DSSTox_CID>
25896

> <DSSTox_RID>
81208

> <DSSTox_GSID>
45896

> <DSSTox_FileID_Sort>
5889

> <TS_ChemName>
Hydrocortisone 17-butyrate

> <TS_ChemName_Synonyms>


> <TS_CASRN>
13609-67-1

> <CASRN_ChemName_Relationship>
primary

> <TS_Description>
single chemical compound

> <ChemNote>
stereochem; tautomers

> <STRUCTURE_Shown>
tested chemical

> <STRUCTURE_Formula>
C25H36O6

> <STRUCTURE_MW>
432.5497

> <STRUCTURE_ChemType>
defined organic

> <STRUCTURE_DefinedOrganicForm>
parent

> <STRUCTURE_IUPAC>
(11beta)-11,21-dihydroxy-3,20-dioxopregn-4-en-17-yl butanoate

> <STRUCTURE_SMILES>
OCC(=O)[C@@]4(OC(=O)CCC)CC[C@@H]2[C@]4(C)C[C@H](O)[C@@H]1[C@@]3(C)CCC(=O)C=C3CC[C@H]12

> <STRUCTURE_SMILES_Desalt>
OCC(=O)[C@@]4(OC(=O)CCC)CC[C@@H]2[C@]4(C)C[C@H](O)[C@@H]1[C@@]3(C)CCC(=O)C=C3CC[C@H]12

> <Substance_modify_yyyymmdd>
20110530

$$$$
