136087-85-9
ChemmineR-0915142007XD

 20 22  0  0  1  0  0  0  0  0  1 V2000
    1.1708   -2.0025    0.0000 C   0  0  0  0  0  0  0  0  0  0  0  0
    1.1708   -3.3347    0.0000 C   0  0  0  0  0  0  0  0  0  0  0  0
    2.3093   -1.3323    0.0000 C   0  0  0  0  0  0  0  0  0  0  0  0
    2.3093   -3.9888    0.0000 C   0  0  0  0  0  0  0  0  0  0  0  0
    3.4639   -2.0025    0.0000 C   0  0  0  0  0  0  0  0  0  0  0  0
    3.4639   -3.3347    0.0000 C   0  0  0  0  0  0  0  0  0  0  0  0
    0.0000   -3.9888    0.0000 F   0  0  0  0  0  0  0  0  0  0  0  0
    5.7652   -2.0025    0.0000 C   0  0  0  0  0  0  0  0  0  0  0  0
    5.7652   -3.3347    0.0000 C   0  0  0  0  0  0  0  0  0  0  0  0
    4.6105   -1.3323    0.0000 O   0  0  0  0  0  0  0  0  0  0  0  0
    4.6105   -3.9888    0.0000 C   0  0  0  0  0  0  0  0  0  0  0  0
    6.9198   -1.3323    0.0000 C   0  0  0  0  0  0  0  0  0  0  0  0
    6.9198    0.0000    0.0000 O   0  0  0  0  0  0  0  0  0  0  0  0
    8.0744   -2.0025    0.0000 N   0  0  0  0  0  0  0  0  0  0  0  0
    3.5285   -4.7720    0.0000 N   0  0  0  0  0  0  0  0  0  0  0  0
    3.9403   -6.0235    0.0000 C   0  0  0  0  0  0  0  0  0  0  0  0
    5.6844   -4.7720    0.0000 C   0  0  0  0  0  0  0  0  0  0  0  0
    5.2726   -6.0235    0.0000 N   0  0  0  0  0  0  0  0  0  0  0  0
    6.9682   -4.3602    0.0000 O   0  0  0  0  0  0  0  0  0  0  0  0
    3.1733   -7.1136    0.0000 O   0  0  0  0  0  0  0  0  0  0  0  0
  1  2  1  0  0  0  0
  1  3  2  0  0  0  0
  2  4  2  0  0  0  0
  2  7  1  0  0  0  0
  3  5  1  0  0  0  0
  4  6  1  0  0  0  0
  5  6  2  0  0  0  0
  5 10  1  0  0  0  0
  6 11  1  0  0  0  0
  8  9  1  0  0  0  0
  8 10  1  0  0  0  0
  8 12  1  6  0  0  0
  9 11  1  0  0  0  0
 11 15  1  0  0  0  0
 11 17  1  1  0  0  0
 12 13  2  0  0  0  0
 12 14  1  0  0  0  0
 15 16  1  0  0  0  0
 16 18  1  0  0  0  0
 16 20  2  0  0  0  0
 17 18  1  0  0  0  0
 17 19  2  0  0  0  0
M  END
> <ID>
11863

> <Formula>
C12H10FN3O4

> <FW>
279.2239

> <DSSTox_CID>
26654

> <DSSTox_RID>
81798

> <DSSTox_GSID>
46654

> <DSSTox_FileID_Sort>
6479

> <TS_ChemName>
Fidarestat

> <TS_ChemName_Synonyms>


> <TS_CASRN>
136087-85-9

> <CASRN_ChemName_Relationship>
primary

> <TS_Description>
single chemical compound

> <ChemNote>
stereochem

> <STRUCTURE_Shown>
tested chemical

> <STRUCTURE_Formula>
C12H10FN3O4

> <STRUCTURE_MW>
279.2239

> <STRUCTURE_ChemType>
defined organic

> <STRUCTURE_DefinedOrganicForm>
parent

> <STRUCTURE_IUPAC>
(2S,4S)-6-fluoro-2',5'-dioxo-2,3-dihydrospiro[chromene-4,4'-imidazolidine]-2-carboxamide

> <STRUCTURE_SMILES>
NC(=O)[C@@H]2C[C@]1(NC(=O)NC1=O)c3cc(F)ccc3O2

> <STRUCTURE_SMILES_Desalt>
NC(=O)[C@@H]2C[C@]1(NC(=O)NC1=O)c3cc(F)ccc3O2

> <Substance_modify_yyyymmdd>
20110808

$$$$
