13614-98-7
ChemmineR-0915142007XD

 36 38  0  0  1  0  0  0  0  0  1 V2000
    6.8238   -3.9906    0.0000 C    0  0  0  0  0  0  0  0  0  0  0  0
    9.1265   -3.9906    0.0000 C    0  0  0  0  0  0  0  0  0  0  0  0
    4.5813   -3.9906    0.0000 C    0  0  0  0  0  0  0  0  0  0  0  0
    5.7387   -4.6416    0.0000 C    0  0  0  0  0  0  0  0  0  0  0  0
    8.0173   -4.6416    0.0000 C    0  0  0  0  0  0  0  0  0  0  0  0
    6.8238   -2.6885    0.0000 C    0  0  0  0  0  0  0  0  0  0  0  0
    9.1265   -2.6885    0.0000 C    0  0  0  0  0  0  0  0  0  0  0  0
    3.4360   -4.6296    0.0000 C    0  0  0  0  0  0  0  0  0  0  0  0
    2.2907   -3.9906    0.0000 C    0  0  0  0  0  0  0  0  0  0  0  0
    2.2907   -2.6885    0.0000 C    0  0  0  0  0  0  0  0  0  0  0  0
    8.0173   -2.0134    0.0000 C    0  0  0  0  0  0  0  0  0  0  0  0
    4.5813   -2.6885    0.0000 C    0  0  0  0  0  0  0  0  0  0  0  0
    5.7387   -2.0134    0.0000 C    0  0  0  0  0  0  0  0  0  0  0  0
    1.1333   -2.0495    0.0000 C    0  0  0  0  0  0  0  0  0  0  0  0
    3.4360   -2.0134    0.0000 C    0  0  0  0  0  0  0  0  0  0  0  0
   10.3080   -4.6296    0.0000 C    0  0  0  0  0  0  0  0  0  0  0  0
    0.0000   -2.7006    0.0000 C    0  0  0  0  0  0  0  0  0  0  0  0
    1.1333   -4.6296    0.0000 C    0  0  0  0  0  0  0  0  0  0  0  0
    8.0173   -5.9919    0.0000 O    0  0  0  0  0  0  0  0  0  0  0  0
    3.4360   -5.9798    0.0000 O    0  0  0  0  0  0  0  0  0  0  0  0
    8.0173   -0.6993    0.0000 N    0  0  0  0  0  0  0  0  0  0  0  0
    1.1333   -0.7234    0.0000 N    0  0  0  0  0  0  0  0  0  0  0  0
    6.8720   -5.3770    0.0000 O    0  0  0  0  0  0  0  0  0  0  0  0
   10.3080   -5.9798    0.0000 O    0  0  0  0  0  0  0  0  0  0  0  0
    5.7387   -5.9919    0.0000 O    0  0  0  0  0  0  0  0  0  0  0  0
   10.3080   -2.0134    0.0000 O    0  0  0  0  0  0  0  0  0  0  0  0
    0.0000   -3.9424    0.0000 C    0  0  0  0  0  0  0  0  0  0  0  0
   11.4654   -3.9906    0.0000 N    0  0  0  0  0  0  0  0  0  0  0  0
    1.1333   -5.9798    0.0000 O    0  0  0  0  0  0  0  0  0  0  0  0
    6.8238   -0.0121    0.0000 C    0  0  0  0  0  0  0  0  0  0  0  0
    9.1265    0.0000    0.0000 C    0  0  0  0  0  0  0  0  0  0  0  0
    2.2907   -0.0482    0.0000 C    0  0  0  0  0  0  0  0  0  0  0  0
    0.0482   -0.0482    0.0000 C    0  0  0  0  0  0  0  0  0  0  0  0
    4.5813   -1.1453    0.0000 H    0  0  0  0  0  0  0  0  0  0  0  0
    6.8238   -1.3382    0.0000 H    0  0  0  0  0  0  0  0  0  0  0  0
   12.0561   -0.9524    0.0000 Cl   0  0  0  0  0  0  0  0  0  0  0  0
  1  4  1  0  0  0  0
  1  5  1  0  0  0  0
  1  6  1  0  0  0  0
  1 23  1  6  0  0  0
  2  5  1  0  0  0  0
  2 16  1  0  0  0  0
  2  7  2  0  0  0  0
  3  4  2  0  0  0  0
  3  8  1  0  0  0  0
  3 12  1  0  0  0  0
  4 25  1  0  0  0  0
  5 19  2  0  0  0  0
  6 11  1  0  0  0  0
  6 13  1  0  0  0  0
  6 35  1  6  0  0  0
  7 11  1  0  0  0  0
  7 26  1  0  0  0  0
  8  9  1  0  0  0  0
  8 20  2  0  0  0  0
  9 18  1  0  0  0  0
  9 10  2  0  0  0  0
 10 15  1  0  0  0  0
 10 14  1  0  0  0  0
 11 21  1  6  0  0  0
 12 13  1  0  0  0  0
 12 15  1  0  0  0  0
 12 34  1  6  0  0  0
 14 17  2  0  0  0  0
 14 22  1  0  0  0  0
 16 24  2  0  0  0  0
 16 28  1  0  0  0  0
 17 27  1  0  0  0  0
 18 27  2  0  0  0  0
 18 29  1  0  0  0  0
 21 30  1  0  0  0  0
 21 31  1  0  0  0  0
 22 32  1  0  0  0  0
 22 33  1  0  0  0  0
M  END
> <ID>
10199

> <Formula>
C23H28ClN3O7

> <FW>
493.9373 (457.4764+36.4609)

> <DSSTox_CID>
24545

> <DSSTox_RID>
80306

> <DSSTox_GSID>
44545

> <DSSTox_FileID_Sort>
4988

> <TS_ChemName>
Minocycline hydrochloride

> <TS_ChemName_Synonyms>


> <TS_CASRN>
13614-98-7

> <CASRN_ChemName_Relationship>
primary

> <TS_Description>
single chemical compound

> <ChemNote>
stereochem; tautomers; parent [10118-90-8]

> <STRUCTURE_Shown>
tested chemical

> <STRUCTURE_Formula>
C23H28ClN3O7

> <STRUCTURE_MW>
493.9373

> <STRUCTURE_ChemType>
defined organic

> <STRUCTURE_DefinedOrganicForm>
complex

> <STRUCTURE_IUPAC>
(4S,4aS,5aR,12aS)-4,7-bis(dimethylamino)-3,10,12,12a-tetrahydroxy-1,11-dioxo-1,4,4a,5,5a,6,11,12a-octahydrotetracene-2-carboxamide hydrochloride (1:1)

> <STRUCTURE_SMILES>
Cl.CN(C)c2ccc(O)c1C(=O)C3=C(O)[C@]4(O)C(=O)C(=C(O)[C@@H](N(C)C)[C@@H]4C[C@@H]3Cc12)C(N)=O

> <STRUCTURE_SMILES_Desalt>
CN(C)c2ccc(O)c1C(=O)C3=C(O)[C@]4(O)C(=O)C(=C(O)[C@@H](N(C)C)[C@@H]4C[C@@H]3Cc12)C(N)=O

> <Substance_modify_yyyymmdd>
20091116

$$$$
