136381-85-6
ChemmineR-0915142007XD

 28 31  0  0  0  0  0  0  0  0  1 V2000
    3.5759   -3.5890    0.0000 N    0  0  0  0  0  0  0  0  0  0  0  0
    4.3488   -4.6631    0.0000 C    0  0  0  0  0  0  0  0  0  0  0  0
    7.6627   -5.7896    0.0000 C    0  0  0  0  0  0  0  0  0  0  0  0
    8.4487   -4.7286    0.0000 N    0  0  0  0  0  0  0  0  0  0  0  0
    5.6848   -4.6631    0.0000 C    0  0  0  0  0  0  0  0  0  0  0  0
    9.7192   -5.1478    0.0000 C    0  0  0  0  0  0  0  0  0  0  0  0
    6.3398   -5.7896    0.0000 N    0  0  0  0  0  0  0  0  0  0  0  0
    3.5759   -5.7110    0.0000 C    0  0  0  0  0  0  0  0  0  0  0  0
    2.3185   -3.9820    0.0000 C    0  0  0  0  0  0  0  0  0  0  0  0
    8.4487   -6.8899    0.0000 S    0  0  0  0  0  0  0  0  0  0  0  0
    2.3185   -5.3181    0.0000 C    0  0  0  0  0  0  0  0  0  0  0  0
   10.7802   -4.3357    0.0000 C    0  0  0  0  0  0  0  0  0  0  0  0
    9.7192   -6.4839    0.0000 C    0  0  0  0  0  0  0  0  0  0  0  0
    3.9951   -2.3054    0.0000 C    0  0  0  0  0  0  0  0  0  0  0  0
    3.3140   -1.1658    0.0000 C    0  0  0  0  0  0  0  0  0  0  0  0
    6.3398   -3.4974    0.0000 O    0  0  0  0  0  0  0  0  0  0  0  0
   10.7802   -3.0127    0.0000 C    0  0  0  0  0  0  0  0  0  0  0  0
    3.9951    0.0000    0.0000 O    0  0  0  0  0  0  0  0  0  0  0  0
    9.6276   -2.3709    0.0000 Cl   0  0  0  0  0  0  0  0  0  0  0  0
    1.9910   -1.1658    0.0000 O    0  0  0  0  0  0  0  0  0  0  0  0
    1.1396   -3.3402    0.0000 C    0  0  0  0  0  0  0  0  0  0  0  0
   11.9198   -5.0168    0.0000 C    0  0  0  0  0  0  0  0  0  0  0  0
    1.1396   -5.9861    0.0000 C    0  0  0  0  0  0  0  0  0  0  0  0
   11.9198   -2.3709    0.0000 C    0  0  0  0  0  0  0  0  0  0  0  0
   13.0987   -4.3357    0.0000 C    0  0  0  0  0  0  0  0  0  0  0  0
    0.0000   -3.9820    0.0000 C    0  0  0  0  0  0  0  0  0  0  0  0
    0.0000   -5.3181    0.0000 C    0  0  0  0  0  0  0  0  0  0  0  0
   13.0987   -3.0127    0.0000 C    0  0  0  0  0  0  0  0  0  0  0  0
  1  2  1  0  0  0  0
  1  9  1  0  0  0  0
  1 14  1  0  0  0  0
  2  5  1  0  0  0  0
  2  8  2  0  0  0  0
  3  7  1  0  0  0  0
  3  4  2  0  0  0  0
  3 10  1  0  0  0  0
  4  6  1  0  0  0  0
  5  7  1  0  0  0  0
  5 16  2  0  0  0  0
  6 12  1  0  0  0  0
  6 13  2  0  0  0  0
  8 11  1  0  0  0  0
  9 11  1  0  0  0  0
  9 21  2  0  0  0  0
 10 13  1  0  0  0  0
 11 23  2  0  0  0  0
 12 17  2  0  0  0  0
 12 22  1  0  0  0  0
 14 15  1  0  0  0  0
 15 18  2  0  0  0  0
 15 20  1  0  0  0  0
 17 19  1  0  0  0  0
 17 24  1  0  0  0  0
 21 26  1  0  0  0  0
 22 25  2  0  0  0  0
 23 27  1  0  0  0  0
 24 28  2  0  0  0  0
 25 28  1  0  0  0  0
 26 27  2  0  0  0  0
M  END
> <ID>
11931

> <Formula>
C20H14ClN3O3S

> <FW>
411.8615

> <DSSTox_CID>
26738

> <DSSTox_RID>
81867

> <DSSTox_GSID>
46738

> <DSSTox_FileID_Sort>
6548

> <TS_ChemName>
Lintitript

> <TS_ChemName_Synonyms>


> <TS_CASRN>
136381-85-6

> <CASRN_ChemName_Relationship>
primary

> <TS_Description>
single chemical compound

> <ChemNote>


> <STRUCTURE_Shown>
tested chemical

> <STRUCTURE_Formula>
C20H14ClN3O3S

> <STRUCTURE_MW>
411.8615

> <STRUCTURE_ChemType>
defined organic

> <STRUCTURE_DefinedOrganicForm>
parent

> <STRUCTURE_IUPAC>
(2-{[4-(2-chlorophenyl)-1,3-thiazol-2-yl]carbamoyl}-1H-indol-1-yl)acetic acid

> <STRUCTURE_SMILES>
O=C(Nc1nc(cs1)c2ccccc2Cl)c4cc3ccccc3n4CC(=O)O

> <STRUCTURE_SMILES_Desalt>
O=C(Nc1nc(cs1)c2ccccc2Cl)c4cc3ccccc3n4CC(=O)O

> <Substance_modify_yyyymmdd>
20110803

$$$$
