136310-93-5
ChemmineR-0915142007XD

 29 32  0  0  1  0  0  0  0  0  2 V2000
    5.8008   -0.3479    0.0000 Br   0  5  0  0  0  0  0  0  0  0  0  0
    3.3564   -3.8170    0.0000 C    0  0  0  0  0  0  0  0  0  0  0  0
    4.0709   -4.7478    0.0000 C    0  0  0  0  0  0  0  0  0  0  0  0
    3.6196   -2.8393    0.0000 C    0  0  0  0  0  0  0  0  0  0  0  0
    2.5196   -2.1906    0.0000 C    0  0  0  0  0  0  0  0  0  0  0  0
    1.2974   -2.6230    0.0000 C    0  0  0  0  0  0  0  0  0  0  0  0
    0.0000   -2.2564    0.0000 O    0  0  0  0  0  0  0  0  0  0  0  0
    0.8649   -3.6572    0.0000 C    0  0  0  0  0  0  0  0  0  0  0  0
    2.0871   -3.2623    0.0000 C    0  0  0  0  0  0  0  0  0  0  0  0
    2.0871   -0.9402    0.0000 N    0  3  0  0  0  0  0  0  0  0  0  0
    0.4325   -4.8512    0.0000 H    0  0  0  0  0  0  0  0  0  0  0  0
    1.2504   -1.3444    0.0000 H    0  0  0  0  0  0  0  0  0  0  0  0
    2.9709   -0.0282    0.0000 C    0  0  0  0  0  0  0  0  0  0  0  0
    1.2222    0.0000    0.0000 C    0  0  0  0  0  0  0  0  0  0  0  0
    4.0521   -5.5751    0.0000 O    0  0  0  0  0  0  0  0  0  0  0  0
    5.1803   -6.1956    0.0000 C    0  0  0  0  0  0  0  0  0  0  0  0
    5.1803   -7.4836    0.0000 O    0  0  0  0  0  0  0  0  0  0  0  0
    6.2802   -5.5469    0.0000 C    0  0  0  0  0  0  0  0  0  0  0  0
    5.6315   -4.4469    0.0000 O    0  0  0  0  0  0  0  0  0  0  0  0
    7.3802   -4.9170    0.0000 C    0  0  0  0  0  0  0  0  0  0  0  0
    7.5024   -3.6290    0.0000 C    0  0  0  0  0  0  0  0  0  0  0  0
    8.5554   -5.4247    0.0000 S    0  0  0  0  0  0  0  0  0  0  0  0
    8.7528   -3.3564    0.0000 C    0  0  0  0  0  0  0  0  0  0  0  0
    9.4015   -4.4657    0.0000 C    0  0  0  0  0  0  0  0  0  0  0  0
    6.9101   -6.6657    0.0000 C    0  0  0  0  0  0  0  0  0  0  0  0
    8.1793   -6.7879    0.0000 S    0  0  0  0  0  0  0  0  0  0  0  0
    6.4025   -7.8221    0.0000 C    0  0  0  0  0  0  0  0  0  0  0  0
    8.4708   -8.0383    0.0000 C    0  0  0  0  0  0  0  0  0  0  0  0
    7.3614   -8.6870    0.0000 C    0  0  0  0  0  0  0  0  0  0  0  0
  2  9  1  0  0  0  0
  2  3  1  0  0  0  0
  3  4  1  0  0  0  0
  3 15  1  0  0  0  0
  4  5  1  0  0  0  0
  5 10  1  1  0  0  0
  5  6  1  0  0  0  0
  6  7  1  0  0  0  0
  6  8  1  0  0  0  0
  6 12  1  6  0  0  0
  7  8  1  0  0  0  0
  8  9  1  0  0  0  0
  8 11  1  6  0  0  0
  9 10  1  6  0  0  0
 10 13  1  0  0  0  0
 10 14  1  0  0  0  0
 15 16  1  0  0  0  0
 16 17  2  0  0  0  0
 16 18  1  0  0  0  0
 18 19  1  0  0  0  0
 18 20  1  0  0  0  0
 18 25  1  0  0  0  0
 20 21  2  0  0  0  0
 20 22  1  0  0  0  0
 21 23  1  0  0  0  0
 22 24  1  0  0  0  0
 23 24  2  0  0  0  0
 25 26  1  0  0  0  0
 25 27  2  0  0  0  0
 26 28  1  0  0  0  0
 27 29  1  0  0  0  0
 28 29  2  0  0  0  0
M  END
> <ID>
9910

> <Formula>
C19H22BrNO4S2

> <FW>
472.4163 (79.9045+392.5117)

> <DSSTox_CID>
24214

> <DSSTox_RID>
80122

> <DSSTox_GSID>
44214

> <DSSTox_FileID_Sort>
4804

> <TS_ChemName>
Tiotropium bromide

> <TS_ChemName_Synonyms>
Tiotropium bromide (tiotropium) (Spiriva)

> <TS_CASRN>
136310-93-5

> <CASRN_ChemName_Relationship>
primary

> <TS_Description>
single chemical compound

> <ChemNote>
ammonium; relative stereochem; parent [186691-13-4]

> <STRUCTURE_Shown>
tested chemical

> <STRUCTURE_Formula>
C19H22BrNO4S2

> <STRUCTURE_MW>
472.4163

> <STRUCTURE_ChemType>
defined organic

> <STRUCTURE_DefinedOrganicForm>
salt

> <STRUCTURE_IUPAC>
(1R,2R,4S,5S)-7-({hydroxy[di(thiophen-2-yl)]acetyl}oxy)-9,9-dimethyl-3-oxa-9-azoniatricyclo[3.3.1.0~2,4~]nonane bromide

> <STRUCTURE_SMILES>
[Br-].OC(C(=O)OC1C[C@@H]2[N+](C)(C)[C@H](C1)[C@H]3O[C@@H]23)(c4cccs4)c5cccs5

> <STRUCTURE_SMILES_Desalt>
OC(C(=O)OC1C[C@@H]2[N+](C)(C)[C@H](C1)[C@H]3O[C@@H]23)(c4cccs4)c5cccs5

> <Substance_modify_yyyymmdd>
20111115

$$$$
