13636-18-5
ChemmineR-0915142007XD

 25 26  0  0  0  0  0  0  0  0  1 V2000
    9.9614   -5.1824    0.0000 Cl   0  0  0  0  0  0  0  0  0  0  0  0
    3.4446   -3.3308    0.0000 C    0  0  0  0  0  0  0  0  0  0  0  0
    2.2964   -4.0032    0.0000 C    0  0  0  0  0  0  0  0  0  0  0  0
    4.5928   -4.0032    0.0000 C    0  0  0  0  0  0  0  0  0  0  0  0
    8.0478   -1.9964    0.0000 C    0  0  0  0  0  0  0  0  0  0  0  0
    5.7514   -1.9964    0.0000 N    0  0  0  0  0  0  0  0  0  0  0  0
    6.8996   -1.3344    0.0000 C    0  0  0  0  0  0  0  0  0  0  0  0
    4.5928   -1.3344    0.0000 C    0  0  0  0  0  0  0  0  0  0  0  0
    3.4446   -1.9964    0.0000 C    0  0  0  0  0  0  0  0  0  0  0  0
    4.5928   -5.3273    0.0000 C    0  0  0  0  0  0  0  0  0  0  0  0
    1.1482   -3.3308    0.0000 C    0  0  0  0  0  0  0  0  0  0  0  0
    5.7514   -3.3308    0.0000 C    0  0  0  0  0  0  0  0  0  0  0  0
    2.2964   -5.3273    0.0000 C    0  0  0  0  0  0  0  0  0  0  0  0
    8.0478   -3.3308    0.0000 C    0  0  0  0  0  0  0  0  0  0  0  0
    9.1960   -1.3344    0.0000 C    0  0  0  0  0  0  0  0  0  0  0  0
    6.8996    0.0000    0.0000 C    0  0  0  0  0  0  0  0  0  0  0  0
    1.1482   -5.9996    0.0000 C    0  0  0  0  0  0  0  0  0  0  0  0
    5.7514   -5.9996    0.0000 C    0  0  0  0  0  0  0  0  0  0  0  0
    6.8996   -4.0032    0.0000 C    0  0  0  0  0  0  0  0  0  0  0  0
    0.0000   -4.0032    0.0000 C    0  0  0  0  0  0  0  0  0  0  0  0
   10.3442   -1.9964    0.0000 C    0  0  0  0  0  0  0  0  0  0  0  0
    9.1960   -4.0032    0.0000 C    0  0  0  0  0  0  0  0  0  0  0  0
    0.0000   -5.3273    0.0000 C    0  0  0  0  0  0  0  0  0  0  0  0
   10.3442   -3.3308    0.0000 C    0  0  0  0  0  0  0  0  0  0  0  0
    6.8996   -5.3273    0.0000 C    0  0  0  0  0  0  0  0  0  0  0  0
  2  3  1  0  0  0  0
  2  4  1  0  0  0  0
  2  9  1  0  0  0  0
  3 11  1  0  0  0  0
  3 13  2  0  0  0  0
  4 10  2  0  0  0  0
  4 12  1  0  0  0  0
  5  7  1  0  0  0  0
  5 14  2  0  0  0  0
  5 15  1  0  0  0  0
  6  8  1  0  0  0  0
  6  7  1  0  0  0  0
  7 16  1  0  0  0  0
  8  9  1  0  0  0  0
 10 18  1  0  0  0  0
 11 20  2  0  0  0  0
 12 19  2  0  0  0  0
 13 17  1  0  0  0  0
 14 22  1  0  0  0  0
 15 21  2  0  0  0  0
 17 23  2  0  0  0  0
 18 25  2  0  0  0  0
 19 25  1  0  0  0  0
 20 23  1  0  0  0  0
 21 24  1  0  0  0  0
 22 24  2  0  0  0  0
M  END
> <ID>
11248

> <Formula>
C23H26ClN

> <FW>
351.9122 (36.4609+315.4513)

> <DSSTox_CID>
25860

> <DSSTox_RID>
81180

> <DSSTox_GSID>
45860

> <DSSTox_FileID_Sort>
5861

> <TS_ChemName>
Fendiline hydrochloride

> <TS_ChemName_Synonyms>


> <TS_CASRN>
13636-18-5

> <CASRN_ChemName_Relationship>
primary

> <TS_Description>
single chemical compound

> <ChemNote>
parent [13042-18-7]

> <STRUCTURE_Shown>
tested chemical

> <STRUCTURE_Formula>
C23H26ClN

> <STRUCTURE_MW>
351.9122

> <STRUCTURE_ChemType>
defined organic

> <STRUCTURE_DefinedOrganicForm>
complex

> <STRUCTURE_IUPAC>
3,3-diphenyl-N-(1-phenylethyl)propan-1-amine hydrochloride (1:1)

> <STRUCTURE_SMILES>
Cl.CC(NCCC(c1ccccc1)c2ccccc2)c3ccccc3

> <STRUCTURE_SMILES_Desalt>
CC(NCCC(c1ccccc1)c2ccccc2)c3ccccc3

> <Substance_modify_yyyymmdd>
20110922

$$$$
