136434-34-9
ChemmineR-0915142007XD

 22 23  0  0  1  0  0  0  0  0  1 V2000
    5.6036   -4.6393    0.0000 C    0  0  0  0  0  0  0  0  0  0  0  0
    5.6036   -5.9987    0.0000 C    0  0  0  0  0  0  0  0  0  0  0  0
    4.4655   -3.9992    0.0000 C    0  0  0  0  0  0  0  0  0  0  0  0
    4.4655   -6.6547    0.0000 C    0  0  0  0  0  0  0  0  0  0  0  0
    3.3116   -4.6393    0.0000 C    0  0  0  0  0  0  0  0  0  0  0  0
    3.3116   -5.9987    0.0000 C    0  0  0  0  0  0  0  0  0  0  0  0
    6.7496   -3.9992    0.0000 C    0  0  0  0  0  0  0  0  0  0  0  0
    7.9035   -4.6709    0.0000 C    0  0  0  0  0  0  0  0  0  0  0  0
    6.7496   -6.6547    0.0000 C    0  0  0  0  0  0  0  0  0  0  0  0
    7.9035   -5.9987    0.0000 C    0  0  0  0  0  0  0  0  0  0  0  0
    4.4655   -2.6556    0.0000 O    0  0  0  0  0  0  0  0  0  0  0  0
    3.3116   -1.9996    0.0000 C    0  0  0  0  0  0  0  0  0  0  0  0
    2.1576   -2.6556    0.0000 C    0  0  0  0  0  0  0  0  0  0  0  0
    0.0000   -2.6556    0.0000 C    0  0  0  0  0  0  0  0  0  0  0  0
    1.0907   -1.8731    0.0000 S    0  0  0  0  0  0  0  0  0  0  0  0
    0.4189   -3.9201    0.0000 C    0  0  0  0  0  0  0  0  0  0  0  0
    1.7467   -3.9359    0.0000 C    0  0  0  0  0  0  0  0  0  0  0  0
    3.3116   -0.6718    0.0000 C    0  0  0  0  0  0  0  0  0  0  0  0
    4.4655    0.0000    0.0000 C    0  0  0  0  0  0  0  0  0  0  0  0
    5.6036   -0.6718    0.0000 N    0  0  0  0  0  0  0  0  0  0  0  0
    6.7496    0.0000    0.0000 C    0  0  0  0  0  0  0  0  0  0  0  0
    6.6389   -2.0944    0.0000 Cl   0  0  0  0  0  0  0  0  0  0  0  0
  1  3  2  0  0  0  0
  1  7  1  0  0  0  0
  1  2  1  0  0  0  0
  2  4  2  0  0  0  0
  2  9  1  0  0  0  0
  3  5  1  0  0  0  0
  3 11  1  0  0  0  0
  4  6  1  0  0  0  0
  5  6  2  0  0  0  0
  7  8  2  0  0  0  0
  8 10  1  0  0  0  0
  9 10  2  0  0  0  0
 11 12  1  0  0  0  0
 12 13  1  0  0  0  0
 12 18  1  6  0  0  0
 13 15  1  0  0  0  0
 13 17  2  0  0  0  0
 14 15  1  0  0  0  0
 14 16  2  0  0  0  0
 16 17  1  0  0  0  0
 18 19  1  0  0  0  0
 19 20  1  0  0  0  0
 20 21  1  0  0  0  0
M  END
> <ID>
11684

> <Formula>
C18H20ClNOS

> <FW>
333.8755 (297.4146+36.4609)

> <DSSTox_CID>
26443

> <DSSTox_RID>
81618

> <DSSTox_GSID>
46443

> <DSSTox_FileID_Sort>
6299

> <TS_ChemName>
Duloxetine hydrochloride

> <TS_ChemName_Synonyms>


> <TS_CASRN>
136434-34-9

> <CASRN_ChemName_Relationship>
primary

> <TS_Description>
single chemical compound

> <ChemNote>
stereochem; parent [116539-59-4]

> <STRUCTURE_Shown>
tested chemical

> <STRUCTURE_Formula>
C18H20ClNOS

> <STRUCTURE_MW>
333.8755

> <STRUCTURE_ChemType>
defined organic

> <STRUCTURE_DefinedOrganicForm>
complex

> <STRUCTURE_IUPAC>
(3S)-N-methyl-3-(naphthalen-1-yloxy)-3-(thiophen-2-yl)propan-1-amine hydrochloride (1:1)

> <STRUCTURE_SMILES>
Cl.CNCC[C@H](Oc1cccc2ccccc12)c3cccs3

> <STRUCTURE_SMILES_Desalt>
CNCC[C@H](Oc1cccc2ccccc12)c3cccs3

> <Substance_modify_yyyymmdd>
20110813

$$$$
