136470-78-5
ChemmineR-0915142007XD

 21 24  0  0  1  0  0  0  0  0  1 V2000
    2.4916   -7.5629    0.0000 C   0  0  0  0  0  0  0  0  0  0  0  0
    2.8966   -8.8043    0.0000 C   0  0  0  0  0  0  0  0  0  0  0  0
    4.1820   -8.8043    0.0000 C   0  0  0  0  0  0  0  0  0  0  0  0
    4.5870   -7.5717    0.0000 C   0  0  0  0  0  0  0  0  0  0  0  0
    3.5305   -6.7969    0.0000 C   0  0  0  0  0  0  0  0  0  0  0  0
    1.2766   -7.1667    0.0000 C   0  0  0  0  0  0  0  0  0  0  0  0
    3.3456   -4.9744    0.0000 C   0  0  0  0  0  0  0  0  0  0  0  0
    3.3456   -3.6978    0.0000 C   0  0  0  0  0  0  0  0  0  0  0  0
    4.5870   -3.3016    0.0000 N   0  0  0  0  0  0  0  0  0  0  0  0
    4.5870   -5.3794    0.0000 N   0  0  0  0  0  0  0  0  0  0  0  0
    5.3530   -4.3405    0.0000 C   0  0  0  0  0  0  0  0  0  0  0  0
    2.2275   -5.6347    0.0000 N   0  0  0  0  0  0  0  0  0  0  0  0
    1.1181   -3.6978    0.0000 N   0  0  0  0  0  0  0  0  0  0  0  0
    1.1181   -4.9744    0.0000 C   0  0  0  0  0  0  0  0  0  0  0  0
    2.2275   -3.0463    0.0000 C   0  0  0  0  0  0  0  0  0  0  0  0
    0.0000   -5.6347    0.0000 N   0  0  0  0  0  0  0  0  0  0  0  0
    2.2275   -1.7609    0.0000 N   0  0  0  0  0  0  0  0  0  0  0  0
    3.3456   -1.1005    0.0000 C   0  0  0  0  0  0  0  0  0  0  0  0
    4.6487   -1.1005    0.0000 C   0  0  0  0  0  0  0  0  0  0  0  0
    3.9971    0.0000    0.0000 C   0  0  0  0  0  0  0  0  0  0  0  0
    0.3082   -8.0383    0.0000 O   0  0  0  0  0  0  0  0  0  0  0  0
  1  2  1  0  0  0  0
  1  5  1  0  0  0  0
  1  6  1  1  0  0  0
  2  3  2  0  0  0  0
  3  4  1  0  0  0  0
  4  5  1  0  0  0  0
  4 10  1  6  0  0  0
  6 21  1  0  0  0  0
  7  8  1  0  0  0  0
  7 10  1  0  0  0  0
  7 12  2  0  0  0  0
  8  9  1  0  0  0  0
  8 15  2  0  0  0  0
  9 11  2  0  0  0  0
 10 11  1  0  0  0  0
 12 14  1  0  0  0  0
 13 14  2  0  0  0  0
 13 15  1  0  0  0  0
 14 16  1  0  0  0  0
 15 17  1  0  0  0  0
 17 18  1  0  0  0  0
 18 19  1  0  0  0  0
 18 20  1  0  0  0  0
 19 20  1  0  0  0  0
M  END
> <ID>
11685

> <Formula>
C14H18N6O

> <FW>
286.3323

> <DSSTox_CID>
26444

> <DSSTox_RID>
81619

> <DSSTox_GSID>
46444

> <DSSTox_FileID_Sort>
6300

> <TS_ChemName>
Abacavir

> <TS_ChemName_Synonyms>


> <TS_CASRN>
136470-78-5

> <CASRN_ChemName_Relationship>
primary

> <TS_Description>
single chemical compound

> <ChemNote>
stereochem

> <STRUCTURE_Shown>
tested chemical

> <STRUCTURE_Formula>
C14H18N6O

> <STRUCTURE_MW>
286.3323

> <STRUCTURE_ChemType>
defined organic

> <STRUCTURE_DefinedOrganicForm>
parent

> <STRUCTURE_IUPAC>
{(1S,4S)-4-[2-amino-6-(cyclopropylamino)-9H-purin-9-yl]cyclopent-2-en-1-yl}methanol

> <STRUCTURE_SMILES>
OC[C@@H]1C=C[C@H](C1)n3cnc2c(nc(N)nc23)NC4CC4

> <STRUCTURE_SMILES_Desalt>
OC[C@@H]1C=C[C@H](C1)n3cnc2c(nc(N)nc23)NC4CC4

> <Substance_modify_yyyymmdd>
20110813

$$$$
