13647-35-3
ChemmineR-0915142007XD

 27 31  0  0  1  0  0  0  0  0  1 V2000
    4.5997   -5.0031    0.0000 C   0  0  0  0  0  0  0  0  0  0  0  0
    3.4397   -5.6890    0.0000 C   0  0  0  0  0  0  0  0  0  0  0  0
    4.5997   -3.6717    0.0000 C   0  0  0  0  0  0  0  0  0  0  0  0
    4.5997   -6.3447    0.0000 O   0  0  0  0  0  0  0  0  0  0  0  0
    2.2897   -5.0031    0.0000 C   0  0  0  0  0  0  0  0  0  0  0  0
    2.2897   -3.6918    0.0000 C   0  0  0  0  0  0  0  0  0  0  0  0
    5.7597   -3.0160    0.0000 C   0  0  0  0  0  0  0  0  0  0  0  0
    8.0393   -1.6744    0.0000 C   0  0  0  0  0  0  0  0  0  0  0  0
    8.0393   -3.0160    0.0000 C   0  0  0  0  0  0  0  0  0  0  0  0
    3.4397   -3.0160    0.0000 C   0  0  0  0  0  0  0  0  0  0  0  0
    6.8894   -3.6918    0.0000 C   0  0  0  0  0  0  0  0  0  0  0  0
    5.7597   -5.6890    0.0000 C   0  0  0  0  0  0  0  0  0  0  0  0
    1.1499   -3.0160    0.0000 C   0  0  0  0  0  0  0  0  0  0  0  0
    6.8894   -1.0087    0.0000 C   0  0  0  0  0  0  0  0  0  0  0  0
    0.0000   -2.3402    0.0000 N   0  0  0  0  0  0  0  0  0  0  0  0
    5.7597   -1.6744    0.0000 C   0  0  0  0  0  0  0  0  0  0  0  0
    6.8894   -5.0031    0.0000 C   0  0  0  0  0  0  0  0  0  0  0  0
    9.3002   -3.4195    0.0000 C   0  0  0  0  0  0  0  0  0  0  0  0
    9.3002   -1.2710    0.0000 C   0  0  0  0  0  0  0  0  0  0  0  0
   10.0870   -2.3402    0.0000 C   0  0  0  0  0  0  0  0  0  0  0  0
    1.1398   -5.6386    0.0000 O   0  0  0  0  0  0  0  0  0  0  0  0
    4.5997   -2.3301    0.0000 C   0  0  0  0  0  0  0  0  0  0  0  0
    8.0393   -0.3430    0.0000 C   0  0  0  0  0  0  0  0  0  0  0  0
    9.7339    0.0000    0.0000 O   0  0  0  0  0  0  0  0  0  0  0  0
    8.0393   -4.3475    0.0000 H   0  0  0  0  0  0  0  0  0  0  0  0
    5.7597   -4.3273    0.0000 H   0  0  0  0  0  0  0  0  0  0  0  0
    6.8894   -2.3603    0.0000 H   0  0  0  0  0  0  0  0  0  0  0  0
  1  2  1  0  0  0  0
  1  3  1  0  0  0  0
  1  4  1  6  0  0  0
  1 12  1  0  0  0  0
  2  5  1  0  0  0  0
  2  4  1  6  0  0  0
  3  7  1  0  0  0  0
  3 10  1  0  0  0  0
  3 22  1  1  0  0  0
  5 21  1  0  0  0  0
  5  6  2  0  0  0  0
  6 10  1  0  0  0  0
  6 13  1  0  0  0  0
  7 16  1  0  0  0  0
  7 26  1  6  0  0  0
  7 11  1  0  0  0  0
  8  9  1  0  0  0  0
  8 19  1  0  0  0  0
  8 23  1  1  0  0  0
  8 14  1  0  0  0  0
  9 11  1  0  0  0  0
  9 18  1  0  0  0  0
  9 25  1  6  0  0  0
 11 17  1  0  0  0  0
 11 27  1  1  0  0  0
 12 17  1  0  0  0  0
 13 15  3  0  0  0  0
 14 16  1  0  0  0  0
 18 20  1  0  0  0  0
 19 24  1  1  0  0  0
 19 20  1  0  0  0  0
M  END
> <ID>
3311

> <Formula>
C20H27NO3

> <FW>
329.4333

> <DSSTox_CID>
3706

> <DSSTox_RID>
77157

> <DSSTox_GSID>
23706

> <DSSTox_FileID_Sort>
1840

> <TS_ChemName>
Trilostane

> <TS_ChemName_Synonyms>


> <TS_CASRN>
13647-35-3

> <CASRN_ChemName_Relationship>
primary

> <TS_Description>
single chemical compound

> <ChemNote>
stereochem

> <STRUCTURE_Shown>
tested chemical

> <STRUCTURE_Formula>
C20H27NO3

> <STRUCTURE_MW>
329.4333

> <STRUCTURE_ChemType>
defined organic

> <STRUCTURE_DefinedOrganicForm>
parent

> <STRUCTURE_IUPAC>
(4alpha,5alpha,17beta)-3,17-dihydroxy-4,5-epoxyandrost-2-ene-2-carbonitrile

> <STRUCTURE_SMILES>
N#CC=2C[C@]4(C)[C@H]5CC[C@]1(C)[C@@H](O)CC[C@H]1[C@@H]5CC[C@@]34O[C@@H]3C=2O

> <STRUCTURE_SMILES_Desalt>
N#CC=2C[C@]4(C)[C@H]5CC[C@]1(C)[C@@H](O)CC[C@H]1[C@@H]5CC[C@@]34O[C@@H]3C=2O

> <Substance_modify_yyyymmdd>
20080429

$$$$
