13655-52-2
ChemmineR-0915142007XD

 18 18  0  0  0  0  0  0  0  0  1 V2000
    3.5218   -2.6932    0.0000 O   0  0  0  0  0  0  0  0  0  0  0  0
    2.3203   -1.9888    0.0000 C   0  0  0  0  0  0  0  0  0  0  0  0
    8.0381   -2.6414    0.0000 N   0  0  0  0  0  0  0  0  0  0  0  0
    2.3203   -0.6940    0.0000 C   0  0  0  0  0  0  0  0  0  0  0  0
    4.5991   -0.6940    0.0000 C   0  0  0  0  0  0  0  0  0  0  0  0
    5.8007    0.0000    0.0000 C   0  0  0  0  0  0  0  0  0  0  0  0
    5.7592   -2.6414    0.0000 C   0  0  0  0  0  0  0  0  0  0  0  0
    4.6716   -2.0199    0.0000 C   0  0  0  0  0  0  0  0  0  0  0  0
    6.8779   -1.9992    0.0000 C   0  0  0  0  0  0  0  0  0  0  0  0
    5.7592   -3.9672    0.0000 O   0  0  0  0  0  0  0  0  0  0  0  0
    3.4804   -0.0207    0.0000 C   0  0  0  0  0  0  0  0  0  0  0  0
    9.1879   -1.9681    0.0000 C   0  0  0  0  0  0  0  0  0  0  0  0
    1.1705   -2.6725    0.0000 C   0  0  0  0  0  0  0  0  0  0  0  0
    1.1809    0.0000    0.0000 C   0  0  0  0  0  0  0  0  0  0  0  0
    9.1879   -0.6422    0.0000 C   0  0  0  0  0  0  0  0  0  0  0  0
   10.3583   -2.5896    0.0000 C   0  0  0  0  0  0  0  0  0  0  0  0
    0.0000   -0.6733    0.0000 C   0  0  0  0  0  0  0  0  0  0  0  0
    0.0000   -1.9992    0.0000 C   0  0  0  0  0  0  0  0  0  0  0  0
  1  2  1  0  0  0  0
  1  8  1  0  0  0  0
  2  4  2  0  0  0  0
  2 13  1  0  0  0  0
  3  9  1  0  0  0  0
  3 12  1  0  0  0  0
  4 11  1  0  0  0  0
  4 14  1  0  0  0  0
  5 11  1  0  0  0  0
  5  6  2  0  0  0  0
  7  8  1  0  0  0  0
  7  9  1  0  0  0  0
  7 10  1  0  0  0  0
 12 15  1  0  0  0  0
 12 16  1  0  0  0  0
 13 18  2  0  0  0  0
 14 17  2  0  0  0  0
 17 18  1  0  0  0  0
M  END
> <ID>
10758

> <Formula>
C15H23NO2

> <FW>
249.3486

> <DSSTox_CID>
25127

> <DSSTox_RID>
80690

> <DSSTox_GSID>
45127

> <DSSTox_FileID_Sort>
5372

> <TS_ChemName>
Alprenolol

> <TS_ChemName_Synonyms>


> <TS_CASRN>
13655-52-2

> <CASRN_ChemName_Relationship>
primary

> <TS_Description>
single chemical compound

> <ChemNote>


> <STRUCTURE_Shown>
tested chemical

> <STRUCTURE_Formula>
C15H23NO2

> <STRUCTURE_MW>
249.3486

> <STRUCTURE_ChemType>
defined organic

> <STRUCTURE_DefinedOrganicForm>
parent

> <STRUCTURE_IUPAC>
1-(propan-2-ylamino)-3-[2-(prop-2-en-1-yl)phenoxy]propan-2-ol

> <STRUCTURE_SMILES>
CC(C)NCC(O)COc1ccccc1CC=C

> <STRUCTURE_SMILES_Desalt>
CC(C)NCC(O)COc1ccccc1CC=C

> <Substance_modify_yyyymmdd>
20100107

$$$$
