136790-76-6
ChemmineR-0915142007XD

 29 30  0  0  1  0  0  0  0  0  1 V2000
   10.5156   -7.3269    0.0000 C   0  0  0  0  0  0  0  0  0  0  0  0
   10.5156   -8.6732    0.0000 C   0  0  0  0  0  0  0  0  0  0  0  0
    9.3535   -6.6608    0.0000 C   0  0  0  0  0  0  0  0  0  0  0  0
    9.3677   -9.3393    0.0000 O   0  0  0  0  0  0  0  0  0  0  0  0
    8.2056   -7.3411    0.0000 C   0  0  0  0  0  0  0  0  0  0  0  0
    8.2056   -8.6732    0.0000 C   0  0  0  0  0  0  0  0  0  0  0  0
    6.9017   -6.9301    0.0000 C   0  0  0  0  0  0  0  0  0  0  0  0
    6.1365   -8.0071    0.0000 C   0  0  0  0  0  0  0  0  0  0  0  0
    6.9301   -9.0984    0.0000 C   0  0  0  0  0  0  0  0  0  0  0  0
    4.7901   -8.0213    0.0000 O   0  0  0  0  0  0  0  0  0  0  0  0
    8.2056  -10.0196    0.0000 H   0  0  0  0  0  0  0  0  0  0  0  0
    8.1914   -5.9947    0.0000 H   0  0  0  0  0  0  0  0  0  0  0  0
    6.5049   -5.6688    0.0000 C   0  0  0  0  0  0  0  0  0  0  0  0
    5.1728   -5.3853    0.0000 C   0  0  0  0  0  0  0  0  0  0  0  0
    4.7759   -4.1099    0.0000 C   0  0  0  0  0  0  0  0  0  0  0  0
    3.4580   -3.8123    0.0000 C   0  0  0  0  0  0  0  0  0  0  0  0
    3.0470   -2.5510    0.0000 C   0  0  0  0  0  0  0  0  0  0  0  0
    1.7290   -2.2675    0.0000 C   0  0  0  0  0  0  0  0  0  0  0  0
    1.3038   -0.9920    0.0000 C   0  0  0  0  0  0  0  0  0  0  0  0
    0.0000   -0.7086    0.0000 O   0  0  0  0  0  0  0  0  0  0  0  0
    2.2108    0.0000    0.0000 O   0  0  0  0  0  0  0  0  0  0  0  0
   10.5298  -10.0621    0.0000 O   0  0  0  0  0  0  0  0  0  0  0  0
   11.8619   -8.6591    0.0000 C   0  0  0  0  0  0  0  0  0  0  0  0
   11.8903   -9.6086    0.0000 F   0  0  0  0  0  0  0  0  0  0  0  0
   11.8619   -7.3269    0.0000 C   0  0  0  0  0  0  0  0  0  0  0  0
   13.2083   -8.6591    0.0000 F   0  0  0  0  0  0  0  0  0  0  0  0
   13.0098   -6.6466    0.0000 C   0  0  0  0  0  0  0  0  0  0  0  0
   13.0098   -5.3003    0.0000 C   0  0  0  0  0  0  0  0  0  0  0  0
   14.1719   -4.6201    0.0000 C   0  0  0  0  0  0  0  0  0  0  0  0
  1  2  1  0  0  0  0
  1  3  1  0  0  0  0
  2  4  1  0  0  0  0
  2 22  1  1  0  0  0
  2 23  1  6  0  0  0
  3  5  1  0  0  0  0
  4  6  1  0  0  0  0
  5  7  1  0  0  0  0
  5  6  1  0  0  0  0
  5 12  1  6  0  0  0
  6  9  1  0  0  0  0
  6 11  1  1  0  0  0
  7  8  1  0  0  0  0
  7 13  1  6  0  0  0
  8  9  1  0  0  0  0
  8 10  2  0  0  0  0
 13 14  1  0  0  0  0
 14 15  1  0  0  0  0
 15 16  1  0  0  0  0
 16 17  1  0  0  0  0
 17 18  1  0  0  0  0
 18 19  1  0  0  0  0
 19 20  1  0  0  0  0
 19 21  2  0  0  0  0
 23 24  1  0  0  0  0
 23 25  1  0  0  0  0
 23 26  1  0  0  0  0
 25 27  1  0  0  0  0
 27 28  1  0  0  0  0
 28 29  1  0  0  0  0
M  END
> <ID>
13636

> <Formula>
C20H32F2O5

> <FW>
390.4619

> <DSSTox_CID>
28565

> <DSSTox_RID>
82837

> <DSSTox_GSID>
48639

> <DSSTox_FileID_Sort>
7514

> <TS_ChemName>
Lubiprostone

> <TS_ChemName_Synonyms>


> <TS_CASRN>
136790-76-6

> <CASRN_ChemName_Relationship>
primary

> <TS_Description>
single chemical compound

> <ChemNote>
stereochem

> <STRUCTURE_Shown>
tested chemical

> <STRUCTURE_Formula>
C20H32F2O5

> <STRUCTURE_MW>
390.4619

> <STRUCTURE_ChemType>
defined organic

> <STRUCTURE_DefinedOrganicForm>
parent

> <STRUCTURE_IUPAC>
(11alpha,15R)-16,16-difluoro-15-hydroxy-9-oxo-11,15-epoxyprostan-1-oic acid

> <STRUCTURE_SMILES>
O=C(O)CCCCCC[C@H]1C(=O)C[C@H]2O[C@](O)(CC[C@H]12)C(F)(F)CCCC

> <STRUCTURE_SMILES_Desalt>
O=C(O)CCCCCC[C@H]1C(=O)C[C@H]2O[C@](O)(CC[C@H]12)C(F)(F)CCCC

> <Substance_modify_yyyymmdd>
20111015

$$$$
