13678-68-7
ChemmineR-0915142007XD

 10 10  0  0  0  0  0  0  0  0  1 V2000
    1.1458   -1.3268    0.0000 C   0  0  0  0  0  0  0  0  0  0  0  0
    1.1458    0.0000    0.0000 O   0  0  0  0  0  0  0  0  0  0  0  0
    0.0000   -1.9968    0.0000 C   0  0  0  0  0  0  0  0  0  0  0  0
    2.3118   -1.9968    0.0000 S   0  0  0  0  0  0  0  0  0  0  0  0
    4.7375   -3.3236    0.0000 O   0  0  0  0  0  0  0  0  0  0  0  0
    6.0441   -3.5916    0.0000 C   0  0  0  0  0  0  0  0  0  0  0  0
    6.7008   -2.4458    0.0000 C   0  0  0  0  0  0  0  0  0  0  0  0
    5.8230   -1.4541    0.0000 C   0  0  0  0  0  0  0  0  0  0  0  0
    4.6101   -1.9968    0.0000 C   0  0  0  0  0  0  0  0  0  0  0  0
    3.4643   -1.3268    0.0000 C   0  0  0  0  0  0  0  0  0  0  0  0
  1  2  2  0  0  0  0
  1  4  1  0  0  0  0
  1  3  1  0  0  0  0
  4 10  1  0  0  0  0
  5  6  1  0  0  0  0
  5  9  1  0  0  0  0
  6  7  2  0  0  0  0
  7  8  1  0  0  0  0
  8  9  2  0  0  0  0
  9 10  1  0  0  0  0
M  END
> <ID>
12782

> <Formula>
C7H8O2S

> <FW>
156.2022

> <DSSTox_CID>
27661

> <DSSTox_RID>
82484

> <DSSTox_GSID>
47661

> <DSSTox_FileID_Sort>
7165

> <TS_ChemName>
S-Furfuryl thioacetate

> <TS_ChemName_Synonyms>


> <TS_CASRN>
13678-68-7

> <CASRN_ChemName_Relationship>
primary

> <TS_Description>
single chemical compound

> <ChemNote>


> <STRUCTURE_Shown>
tested chemical

> <STRUCTURE_Formula>
C7H8O2S

> <STRUCTURE_MW>
156.2022

> <STRUCTURE_ChemType>
defined organic

> <STRUCTURE_DefinedOrganicForm>
parent

> <STRUCTURE_IUPAC>
S-(furan-2-ylmethyl) ethanethioate

> <STRUCTURE_SMILES>
O=C(C)SCc1ccco1

> <STRUCTURE_SMILES_Desalt>
O=C(C)SCc1ccco1

> <Substance_modify_yyyymmdd>
20101214

$$$$
