13679-70-4
ChemmineR-0915142007XD

  8  8  0  0  0  0  0  0  0  0  1 V2000
    3.3731    0.0000    0.0000 S   0  0  0  0  0  0  0  0  0  0  0  0
    4.4197   -0.8362    0.0000 C   0  0  0  0  0  0  0  0  0  0  0  0
    2.2810   -0.7565    0.0000 C   0  0  0  0  0  0  0  0  0  0  0  0
    2.6336   -2.0421    0.0000 C   0  0  0  0  0  0  0  0  0  0  0  0
    3.9704   -2.0591    0.0000 C   0  0  0  0  0  0  0  0  0  0  0  0
    1.0296   -0.3072    0.0000 C   0  0  0  0  0  0  0  0  0  0  0  0
    0.0000   -1.1775    0.0000 O   0  0  0  0  0  0  0  0  0  0  0  0
    5.6882   -0.4664    0.0000 C   0  0  0  0  0  0  0  0  0  0  0  0
  1  2  1  0  0  0  0
  1  3  1  0  0  0  0
  2  5  2  0  0  0  0
  2  8  1  0  0  0  0
  3  4  2  0  0  0  0
  3  6  1  0  0  0  0
  4  5  1  0  0  0  0
  6  7  2  0  0  0  0
M  END
> <ID>
12317

> <Formula>
C6H6OS

> <FW>
126.1762

> <DSSTox_CID>
27169

> <DSSTox_RID>
82170

> <DSSTox_GSID>
47169

> <DSSTox_FileID_Sort>
6851

> <TS_ChemName>
5-Methyl-2-thiophenecarboxaldehyde

> <TS_ChemName_Synonyms>


> <TS_CASRN>
13679-70-4

> <CASRN_ChemName_Relationship>
primary

> <TS_Description>
single chemical compound

> <ChemNote>


> <STRUCTURE_Shown>
tested chemical

> <STRUCTURE_Formula>
C6H6OS

> <STRUCTURE_MW>
126.1762

> <STRUCTURE_ChemType>
defined organic

> <STRUCTURE_DefinedOrganicForm>
parent

> <STRUCTURE_IUPAC>
5-methylthiophene-2-carbaldehyde

> <STRUCTURE_SMILES>
Cc1ccc(C=O)s1

> <STRUCTURE_SMILES_Desalt>
Cc1ccc(C=O)s1

> <Substance_modify_yyyymmdd>
20100503

$$$$
