13676-54-5
ChemmineR-0915142007XD

 27 30  0  0  0  0  0  0  0  0  1 V2000
    0.0000   -3.1130    0.0000 C   0  0  0  0  0  0  0  0  0  0  0  0
    0.8990   -2.1200    0.0000 C   0  0  0  0  0  0  0  0  0  0  0  0
    0.6709   -4.2669    0.0000 C   0  0  0  0  0  0  0  0  0  0  0  0
    2.1200   -2.6568    0.0000 N   0  0  0  0  0  0  0  0  0  0  0  0
    1.9724   -3.9717    0.0000 C   0  0  0  0  0  0  0  0  0  0  0  0
    3.2606   -1.9859    0.0000 C   0  0  0  0  0  0  0  0  0  0  0  0
    3.2606   -0.6575    0.0000 C   0  0  0  0  0  0  0  0  0  0  0  0
    4.4011   -2.6568    0.0000 C   0  0  0  0  0  0  0  0  0  0  0  0
    4.4011    0.0000    0.0000 C   0  0  0  0  0  0  0  0  0  0  0  0
    5.5551   -1.9859    0.0000 C   0  0  0  0  0  0  0  0  0  0  0  0
    5.5551   -0.6575    0.0000 C   0  0  0  0  0  0  0  0  0  0  0  0
    6.7090    0.0000    0.0000 C   0  0  0  0  0  0  0  0  0  0  0  0
    7.8630   -0.6575    0.0000 C   0  0  0  0  0  0  0  0  0  0  0  0
    9.0169    0.0000    0.0000 C   0  0  0  0  0  0  0  0  0  0  0  0
    7.8630   -1.9859    0.0000 C   0  0  0  0  0  0  0  0  0  0  0  0
   10.1708   -0.6575    0.0000 C   0  0  0  0  0  0  0  0  0  0  0  0
    9.0169   -2.6568    0.0000 C   0  0  0  0  0  0  0  0  0  0  0  0
   10.1708   -1.9859    0.0000 C   0  0  0  0  0  0  0  0  0  0  0  0
   11.3248   -2.6568    0.0000 N   0  0  0  0  0  0  0  0  0  0  0  0
   12.5324   -2.1200    0.0000 C   0  0  0  0  0  0  0  0  0  0  0  0
   11.4456   -3.9717    0.0000 C   0  0  0  0  0  0  0  0  0  0  0  0
   13.4180   -3.1130    0.0000 C   0  0  0  0  0  0  0  0  0  0  0  0
   12.7605   -4.2669    0.0000 C   0  0  0  0  0  0  0  0  0  0  0  0
    0.6306   -0.8185    0.0000 O   0  0  0  0  0  0  0  0  0  0  0  0
    2.9654   -4.8707    0.0000 O   0  0  0  0  0  0  0  0  0  0  0  0
   10.4660   -4.8707    0.0000 O   0  0  0  0  0  0  0  0  0  0  0  0
   12.8142   -0.8185    0.0000 O   0  0  0  0  0  0  0  0  0  0  0  0
  1  2  1  0  0  0  0
  1  3  2  0  0  0  0
  2  4  1  0  0  0  0
  2 24  2  0  0  0  0
  3  5  1  0  0  0  0
  4  5  1  0  0  0  0
  4  6  1  0  0  0  0
  5 25  2  0  0  0  0
  6  7  1  0  0  0  0
  6  8  2  0  0  0  0
  7  9  2  0  0  0  0
  8 10  1  0  0  0  0
  9 11  1  0  0  0  0
 10 11  2  0  0  0  0
 11 12  1  0  0  0  0
 12 13  1  0  0  0  0
 13 14  1  0  0  0  0
 13 15  2  0  0  0  0
 14 16  2  0  0  0  0
 15 17  1  0  0  0  0
 16 18  1  0  0  0  0
 17 18  2  0  0  0  0
 18 19  1  0  0  0  0
 19 20  1  0  0  0  0
 19 21  1  0  0  0  0
 20 22  1  0  0  0  0
 20 27  2  0  0  0  0
 21 23  1  0  0  0  0
 21 26  2  0  0  0  0
 22 23  2  0  0  0  0
M  END
> <ID>
10038

> <Formula>
C21H14N2O4

> <FW>
358.3469

> <DSSTox_CID>
24381

> <DSSTox_RID>
80185

> <DSSTox_GSID>
44381

> <DSSTox_FileID_Sort>
4867

> <TS_ChemName>
Bismaleimide

> <TS_ChemName_Synonyms>
Bismaleimide (1H-Pyrrole-2,5-dione, 1,1'-(methylenedi-4,1-phenylene)bis-)

> <TS_CASRN>
13676-54-5

> <CASRN_ChemName_Relationship>
primary

> <TS_Description>
single chemical compound

> <ChemNote>


> <STRUCTURE_Shown>
tested chemical

> <STRUCTURE_Formula>
C21H14N2O4

> <STRUCTURE_MW>
358.3469

> <STRUCTURE_ChemType>
defined organic

> <STRUCTURE_DefinedOrganicForm>
parent

> <STRUCTURE_IUPAC>
1,1'-(methanediyldibenzene-4,1-diyl)bis(1H-pyrrole-2,5-dione)

> <STRUCTURE_SMILES>
O=C1C=CC(=O)N1c2ccc(cc2)Cc3ccc(cc3)N4C(=O)C=CC4=O

> <STRUCTURE_SMILES_Desalt>
O=C1C=CC(=O)N1c2ccc(cc2)Cc3ccc(cc3)N4C(=O)C=CC4=O

> <Substance_modify_yyyymmdd>
20091116

$$$$
