13680-35-8
ChemmineR-0915142007XD

 23 24  0  0  0  0  0  0  0  0  1 V2000
   10.3473   -2.7516    0.0000 N   0  0  0  0  0  0  0  0  0  0  0  0
    9.2143   -2.0695    0.0000 C   0  0  0  0  0  0  0  0  0  0  0  0
    8.0466   -2.7400    0.0000 C   0  0  0  0  0  0  0  0  0  0  0  0
    9.2143   -0.7630    0.0000 C   0  0  0  0  0  0  0  0  0  0  0  0
    6.9252   -2.0579    0.0000 C   0  0  0  0  0  0  0  0  0  0  0  0
    8.0929   -0.0925    0.0000 C   0  0  0  0  0  0  0  0  0  0  0  0
    6.9252   -0.7399    0.0000 C   0  0  0  0  0  0  0  0  0  0  0  0
    8.0466   -4.0580    0.0000 C   0  0  0  0  0  0  0  0  0  0  0  0
    9.2374   -4.7517    0.0000 C   0  0  0  0  0  0  0  0  0  0  0  0
   10.3936   -0.1156    0.0000 C   0  0  0  0  0  0  0  0  0  0  0  0
   11.5612   -0.7168    0.0000 C   0  0  0  0  0  0  0  0  0  0  0  0
    1.1214   -2.6475    0.0000 N   0  0  0  0  0  0  0  0  0  0  0  0
    2.3007   -1.9770    0.0000 C   0  0  0  0  0  0  0  0  0  0  0  0
    2.3007   -0.6706    0.0000 C   0  0  0  0  0  0  0  0  0  0  0  0
    3.4568   -2.7053    0.0000 C   0  0  0  0  0  0  0  0  0  0  0  0
    3.4684   -0.0116    0.0000 C   0  0  0  0  0  0  0  0  0  0  0  0
    4.6245   -2.0463    0.0000 C   0  0  0  0  0  0  0  0  0  0  0  0
    4.6245   -0.7284    0.0000 C   0  0  0  0  0  0  0  0  0  0  0  0
    1.1677    0.0000    0.0000 C   0  0  0  0  0  0  0  0  0  0  0  0
    0.0000   -0.6474    0.0000 C   0  0  0  0  0  0  0  0  0  0  0  0
    3.4568   -4.0233    0.0000 C   0  0  0  0  0  0  0  0  0  0  0  0
    4.5783   -4.7054    0.0000 C   0  0  0  0  0  0  0  0  0  0  0  0
    5.7922   -0.0809    0.0000 C   0  0  0  0  0  0  0  0  0  0  0  0
  1  2  1  0  0  0  0
  2  3  2  0  0  0  0
  2  4  1  0  0  0  0
  3  5  1  0  0  0  0
  3  8  1  0  0  0  0
  4  6  2  0  0  0  0
  4 10  1  0  0  0  0
  5  7  2  0  0  0  0
  6  7  1  0  0  0  0
  7 23  1  0  0  0  0
  8  9  1  0  0  0  0
 10 11  1  0  0  0  0
 12 13  1  0  0  0  0
 13 14  2  0  0  0  0
 13 15  1  0  0  0  0
 14 16  1  0  0  0  0
 14 19  1  0  0  0  0
 15 17  2  0  0  0  0
 15 21  1  0  0  0  0
 16 18  2  0  0  0  0
 17 18  1  0  0  0  0
 18 23  1  0  0  0  0
 19 20  1  0  0  0  0
 21 22  1  0  0  0  0
M  END
> <ID>
13253

> <Formula>
C21H30N2

> <FW>
310.4763

> <DSSTox_CID>
28166

> <DSSTox_RID>
82727

> <DSSTox_GSID>
48191

> <DSSTox_FileID_Sort>
7404

> <TS_ChemName>
4,4'-Methylenebis(2,6-diethylaniline)

> <TS_ChemName_Synonyms>


> <TS_CASRN>
13680-35-8

> <CASRN_ChemName_Relationship>
primary

> <TS_Description>
single chemical compound

> <ChemNote>


> <STRUCTURE_Shown>
tested chemical

> <STRUCTURE_Formula>
C21H30N2

> <STRUCTURE_MW>
310.4763

> <STRUCTURE_ChemType>
defined organic

> <STRUCTURE_DefinedOrganicForm>
parent

> <STRUCTURE_IUPAC>
4,4'-methanediylbis(2,6-diethylaniline)

> <STRUCTURE_SMILES>
CCc1cc(cc(CC)c1N)Cc2cc(CC)c(N)c(CC)c2

> <STRUCTURE_SMILES_Desalt>
CCc1cc(cc(CC)c1N)Cc2cc(CC)c(N)c(CC)c2

> <Substance_modify_yyyymmdd>
20110829

$$$$
