136817-59-9
ChemmineR-0915142007XD

 32 35  0  0  0  0  0  0  0  0  1 V2000
   11.7933   -2.2923    0.0000 C   0  0  0  0  0  0  0  0  0  0  0  0
   11.1452   -3.4621    0.0000 N   0  0  0  0  0  0  0  0  0  0  0  0
   13.1371   -2.2923    0.0000 C   0  0  0  0  0  0  0  0  0  0  0  0
   11.1452   -1.1540    0.0000 N   0  0  0  0  0  0  0  0  0  0  0  0
   11.7933   -4.6162    0.0000 C   0  0  0  0  0  0  0  0  0  0  0  0
    9.8172   -3.4621    0.0000 C   0  0  0  0  0  0  0  0  0  0  0  0
   13.8011   -1.1540    0.0000 C   0  0  0  0  0  0  0  0  0  0  0  0
   13.8011   -3.4621    0.0000 N   0  0  0  0  0  0  0  0  0  0  0  0
   11.7933    0.0000    0.0000 C   0  0  0  0  0  0  0  0  0  0  0  0
   11.1452   -5.7702    0.0000 C   0  0  0  0  0  0  0  0  0  0  0  0
    9.1375   -4.6162    0.0000 C   0  0  0  0  0  0  0  0  0  0  0  0
   13.1371    0.0000    0.0000 C   0  0  0  0  0  0  0  0  0  0  0  0
   15.1290   -3.4621    0.0000 C   0  0  0  0  0  0  0  0  0  0  0  0
    9.8172   -5.7702    0.0000 N   0  0  0  0  0  0  0  0  0  0  0  0
   15.8088   -2.2923    0.0000 C   0  0  0  0  0  0  0  0  0  0  0  0
   15.8088   -4.6162    0.0000 C   0  0  0  0  0  0  0  0  0  0  0  0
    9.1375   -6.9400    0.0000 C   0  0  0  0  0  0  0  0  0  0  0  0
    7.8095   -6.9400    0.0000 C   0  0  0  0  0  0  0  0  0  0  0  0
    9.8172   -8.0941    0.0000 O   0  0  0  0  0  0  0  0  0  0  0  0
    7.0191   -5.8651    0.0000 C   0  0  0  0  0  0  0  0  0  0  0  0
    7.0191   -8.0309    0.0000 N   0  0  0  0  0  0  0  0  0  0  0  0
    5.7544   -6.2603    0.0000 C   0  0  0  0  0  0  0  0  0  0  0  0
    5.7544   -7.5882    0.0000 C   0  0  0  0  0  0  0  0  0  0  0  0
    4.5845   -5.6121    0.0000 C   0  0  0  0  0  0  0  0  0  0  0  0
    4.5845   -8.2522    0.0000 C   0  0  0  0  0  0  0  0  0  0  0  0
    3.4463   -6.2603    0.0000 C   0  0  0  0  0  0  0  0  0  0  0  0
    3.4463   -7.5882    0.0000 C   0  0  0  0  0  0  0  0  0  0  0  0
    2.2765   -5.6121    0.0000 N   0  0  0  0  0  0  0  0  0  0  0  0
    1.1382   -6.1970    0.0000 S   0  0  0  0  0  0  0  0  0  0  0  0
    0.0000   -5.5489    0.0000 C   0  0  0  0  0  0  0  0  0  0  0  0
    1.8180   -7.3353    0.0000 O   0  0  0  0  0  0  0  0  0  0  0  0
    0.4901   -7.3353    0.0000 O   0  0  0  0  0  0  0  0  0  0  0  0
  1  2  1  0  0  0  0
  1  3  1  0  0  0  0
  1  4  2  0  0  0  0
  2  5  1  0  0  0  0
  2  6  1  0  0  0  0
  3  7  2  0  0  0  0
  3  8  1  0  0  0  0
  4  9  1  0  0  0  0
  5 10  1  0  0  0  0
  6 11  1  0  0  0  0
  7 12  1  0  0  0  0
  8 13  1  0  0  0  0
  9 12  2  0  0  0  0
 10 14  1  0  0  0  0
 11 14  1  0  0  0  0
 13 15  1  0  0  0  0
 13 16  1  0  0  0  0
 14 17  1  0  0  0  0
 17 18  1  0  0  0  0
 17 19  2  0  0  0  0
 18 20  2  0  0  0  0
 18 21  1  0  0  0  0
 20 22  1  0  0  0  0
 21 23  1  0  0  0  0
 22 24  2  0  0  0  0
 22 23  1  0  0  0  0
 23 25  2  0  0  0  0
 24 26  1  0  0  0  0
 25 27  1  0  0  0  0
 26 28  1  0  0  0  0
 26 27  2  0  0  0  0
 28 29  1  0  0  0  0
 29 30  1  0  0  0  0
 29 31  2  0  0  0  0
 29 32  2  0  0  0  0
M  END
> <ID>
2608

> <Formula>
C22H28N6O3S

> <FW>
456.5611

> <DSSTox_CID>
2892

> <DSSTox_RID>
76776

> <DSSTox_GSID>
22892

> <DSSTox_FileID_Sort>
1460

> <TS_ChemName>
Delavirdine

> <TS_ChemName_Synonyms>


> <TS_CASRN>
136817-59-9

> <CASRN_ChemName_Relationship>
primary

> <TS_Description>
single chemical compound

> <ChemNote>


> <STRUCTURE_Shown>
tested chemical

> <STRUCTURE_Formula>
C22H28N6O3S

> <STRUCTURE_MW>
456.5611

> <STRUCTURE_ChemType>
defined organic

> <STRUCTURE_DefinedOrganicForm>
parent

> <STRUCTURE_IUPAC>
N-[2-({4-[3-(propan-2-ylamino)pyridin-2-yl]piperazin-1-yl}carbonyl)-1H-indol-5-yl]methanesulfonamide

> <STRUCTURE_SMILES>
O=C(c1cc2cc(NS(C)(=O)=O)ccc2n1)N3CCN(CC3)c4ncccc4NC(C)C

> <STRUCTURE_SMILES_Desalt>
O=C(c1cc2cc(NS(C)(=O)=O)ccc2n1)N3CCN(CC3)c4ncccc4NC(C)C

> <Substance_modify_yyyymmdd>
20080429

$$$$
