13684-56-5
ChemmineR-0915142007XD

 22 23  0  0  0  0  0  0  0  0  1 V2000
   11.4951   -1.9881    0.0000 C   0  0  0  0  0  0  0  0  0  0  0  0
   11.4951   -0.6577    0.0000 O   0  0  0  0  0  0  0  0  0  0  0  0
   12.6461   -2.6608    0.0000 O   0  0  0  0  0  0  0  0  0  0  0  0
   10.3441   -2.6608    0.0000 N   0  0  0  0  0  0  0  0  0  0  0  0
    9.1931   -1.9881    0.0000 C   0  0  0  0  0  0  0  0  0  0  0  0
    8.0570   -2.6608    0.0000 C   0  0  0  0  0  0  0  0  0  0  0  0
    9.1931   -0.6577    0.0000 C   0  0  0  0  0  0  0  0  0  0  0  0
    6.9060   -1.9881    0.0000 C   0  0  0  0  0  0  0  0  0  0  0  0
    8.0570    0.0000    0.0000 C   0  0  0  0  0  0  0  0  0  0  0  0
    6.9060   -0.6577    0.0000 C   0  0  0  0  0  0  0  0  0  0  0  0
    5.7550   -2.6608    0.0000 O   0  0  0  0  0  0  0  0  0  0  0  0
    4.6040   -1.9881    0.0000 C   0  0  0  0  0  0  0  0  0  0  0  0
    4.6040   -0.6577    0.0000 O   0  0  0  0  0  0  0  0  0  0  0  0
    3.4530   -2.6608    0.0000 N   0  0  0  0  0  0  0  0  0  0  0  0
    2.3020   -1.9881    0.0000 C   0  0  0  0  0  0  0  0  0  0  0  0
    1.1510   -2.6608    0.0000 C   0  0  0  0  0  0  0  0  0  0  0  0
    2.3020   -0.6577    0.0000 C   0  0  0  0  0  0  0  0  0  0  0  0
    0.0000   -1.9881    0.0000 C   0  0  0  0  0  0  0  0  0  0  0  0
    1.1510    0.0000    0.0000 C   0  0  0  0  0  0  0  0  0  0  0  0
    0.0000   -0.6577    0.0000 C   0  0  0  0  0  0  0  0  0  0  0  0
   13.7971   -1.9881    0.0000 C   0  0  0  0  0  0  0  0  0  0  0  0
   14.9481   -2.6608    0.0000 C   0  0  0  0  0  0  0  0  0  0  0  0
  1  2  2  0  0  0  0
  1  3  1  0  0  0  0
  1  4  1  0  0  0  0
  3 21  1  0  0  0  0
  4  5  1  0  0  0  0
  5  6  2  0  0  0  0
  5  7  1  0  0  0  0
  6  8  1  0  0  0  0
  7  9  2  0  0  0  0
  8 10  2  0  0  0  0
  8 11  1  0  0  0  0
  9 10  1  0  0  0  0
 11 12  1  0  0  0  0
 12 13  2  0  0  0  0
 12 14  1  0  0  0  0
 14 15  1  0  0  0  0
 15 16  2  0  0  0  0
 15 17  1  0  0  0  0
 16 18  1  0  0  0  0
 17 19  2  0  0  0  0
 18 20  2  0  0  0  0
 19 20  1  0  0  0  0
 21 22  1  0  0  0  0
M  END
> <ID>
6815

> <Formula>
C16H16N2O4

> <FW>
300.3092

> <DSSTox_CID>
14518

> <DSSTox_RID>
79161

> <DSSTox_GSID>
34518

> <DSSTox_FileID_Sort>
3843

> <TS_ChemName>
Desmedipham

> <TS_ChemName_Synonyms>


> <TS_CASRN>
13684-56-5

> <CASRN_ChemName_Relationship>
primary

> <TS_Description>
single chemical compound

> <ChemNote>


> <STRUCTURE_Shown>
tested chemical

> <STRUCTURE_Formula>
C16H16N2O4

> <STRUCTURE_MW>
300.3092

> <STRUCTURE_ChemType>
defined organic

> <STRUCTURE_DefinedOrganicForm>
parent

> <STRUCTURE_IUPAC>
3-[(ethoxycarbonyl)amino]phenyl phenylcarbamate

> <STRUCTURE_SMILES>
O=C(Oc1cccc(c1)NC(=O)OCC)Nc2ccccc2

> <STRUCTURE_SMILES_Desalt>
O=C(Oc1cccc(c1)NC(=O)OCC)Nc2ccccc2

> <Substance_modify_yyyymmdd>
20080429

$$$$
