13684-63-4
ChemmineR-0915142007XD

 22 23  0  0  0  0  0  0  0  0  1 V2000
    8.0682   -0.6724    0.0000 C   0  0  0  0  0  0  0  0  0  0  0  0
    1.1544   -0.6977    0.0000 C   0  0  0  0  0  0  0  0  0  0  0  0
    9.2226    0.0000    0.0000 N   0  0  0  0  0  0  0  0  0  0  0  0
    2.3088   -0.0254    0.0000 N   0  0  0  0  0  0  0  0  0  0  0  0
    6.9138   -0.0127    0.0000 O   0  0  0  0  0  0  0  0  0  0  0  0
    8.0682   -1.9790    0.0000 O   0  0  0  0  0  0  0  0  0  0  0  0
    4.6177   -0.0127    0.0000 C   0  0  0  0  0  0  0  0  0  0  0  0
    3.4632   -0.6850    0.0000 C   0  0  0  0  0  0  0  0  0  0  0  0
    0.0000   -0.0254    0.0000 O   0  0  0  0  0  0  0  0  0  0  0  0
    5.7721   -0.6850    0.0000 C   0  0  0  0  0  0  0  0  0  0  0  0
   10.3771   -0.6724    0.0000 C   0  0  0  0  0  0  0  0  0  0  0  0
   10.3771   -1.9790    0.0000 C   0  0  0  0  0  0  0  0  0  0  0  0
    1.1544   -2.0171    0.0000 O   0  0  0  0  0  0  0  0  0  0  0  0
   11.5442   -2.6514    0.0000 C   0  0  0  0  0  0  0  0  0  0  0  0
    4.6304   -2.6767    0.0000 C   0  0  0  0  0  0  0  0  0  0  0  0
   12.6859   -0.6597    0.0000 C   0  0  0  0  0  0  0  0  0  0  0  0
    3.4632   -2.0044    0.0000 C   0  0  0  0  0  0  0  0  0  0  0  0
    5.7721   -2.0044    0.0000 C   0  0  0  0  0  0  0  0  0  0  0  0
   11.5315    0.0000    0.0000 C   0  0  0  0  0  0  0  0  0  0  0  0
   12.6859   -1.9663    0.0000 C   0  0  0  0  0  0  0  0  0  0  0  0
    2.3342   -2.6767    0.0000 C   0  0  0  0  0  0  0  0  0  0  0  0
   11.5442   -3.9961    0.0000 C   0  0  0  0  0  0  0  0  0  0  0  0
  1  3  1  0  0  0  0
  1  5  1  0  0  0  0
  1  6  2  0  0  0  0
  2  4  1  0  0  0  0
  2  9  2  0  0  0  0
  2 13  1  0  0  0  0
  3 11  1  0  0  0  0
  4  8  1  0  0  0  0
  5 10  1  0  0  0  0
  7 10  1  0  0  0  0
  7  8  2  0  0  0  0
  8 17  1  0  0  0  0
 10 18  2  0  0  0  0
 11 12  1  0  0  0  0
 11 19  2  0  0  0  0
 12 14  2  0  0  0  0
 13 21  1  0  0  0  0
 14 22  1  0  0  0  0
 14 20  1  0  0  0  0
 15 18  1  0  0  0  0
 15 17  2  0  0  0  0
 16 19  1  0  0  0  0
 16 20  2  0  0  0  0
M  END
> <ID>
3586

> <Formula>
C16H16N2O4

> <FW>
300.3092

> <DSSTox_CID>
4255

> <DSSTox_RID>
77343

> <DSSTox_GSID>
24255

> <DSSTox_FileID_Sort>
2026

> <TS_ChemName>
Phenmedipham

> <TS_ChemName_Synonyms>
3-((Methoxycarbonyl)amino)phenyl N-(3-methylphenyl)carbamate

> <TS_CASRN>
13684-63-4

> <CASRN_ChemName_Relationship>
primary

> <TS_Description>
single chemical compound

> <ChemNote>


> <STRUCTURE_Shown>
tested chemical

> <STRUCTURE_Formula>
C16H16N2O4

> <STRUCTURE_MW>
300.3092

> <STRUCTURE_ChemType>
defined organic

> <STRUCTURE_DefinedOrganicForm>
parent

> <STRUCTURE_IUPAC>
3-[(methoxycarbonyl)amino]phenyl (3-methylphenyl)carbamate

> <STRUCTURE_SMILES>
O=C(Oc1cccc(c1)NC(=O)OC)Nc2cc(C)ccc2

> <STRUCTURE_SMILES_Desalt>
O=C(Oc1cccc(c1)NC(=O)OC)Nc2cc(C)ccc2

> <Substance_modify_yyyymmdd>
20080429

$$$$
