137-66-6
ChemmineR-0915142007XD

 29 29  0  0  1  0  0  0  0  0  1 V2000
    8.1116   -4.6435    0.0000 C   0  0  0  0  0  0  0  0  0  0  0  0
    9.1486   -3.8484    0.0000 O   0  0  0  0  0  0  0  0  0  0  0  0
    8.4919   -5.9224    0.0000 C   0  0  0  0  0  0  0  0  0  0  0  0
   10.2087   -4.6435    0.0000 C   0  0  0  0  0  0  0  0  0  0  0  0
    9.7939   -5.9224    0.0000 C   0  0  0  0  0  0  0  0  0  0  0  0
    7.6738   -6.9940    0.0000 O   0  0  0  0  0  0  0  0  0  0  0  0
   10.5659   -6.9940    0.0000 O   0  0  0  0  0  0  0  0  0  0  0  0
   11.5222   -4.2287    0.0000 O   0  0  0  0  0  0  0  0  0  0  0  0
    6.9133   -3.9982    0.0000 C   0  0  0  0  0  0  0  0  0  0  0  0
    5.7611   -4.6435    0.0000 C   0  0  0  0  0  0  0  0  0  0  0  0
    6.9133   -2.6501    0.0000 O   0  0  0  0  0  0  0  0  0  0  0  0
    4.6089   -3.9982    0.0000 O   0  0  0  0  0  0  0  0  0  0  0  0
    3.4682   -4.6435    0.0000 C   0  0  0  0  0  0  0  0  0  0  0  0
    2.2929   -3.9982    0.0000 C   0  0  0  0  0  0  0  0  0  0  0  0
    3.4682   -5.9916    0.0000 O   0  0  0  0  0  0  0  0  0  0  0  0
    1.1522   -4.6435    0.0000 C   0  0  0  0  0  0  0  0  0  0  0  0
    0.0000   -3.9982    0.0000 C   0  0  0  0  0  0  0  0  0  0  0  0
    0.0000   -2.6847    0.0000 C   0  0  0  0  0  0  0  0  0  0  0  0
    1.1522   -1.9933    0.0000 C   0  0  0  0  0  0  0  0  0  0  0  0
    1.1522   -0.6568    0.0000 C   0  0  0  0  0  0  0  0  0  0  0  0
    2.2929    0.0000    0.0000 C   0  0  0  0  0  0  0  0  0  0  0  0
    3.4682   -0.6568    0.0000 C   0  0  0  0  0  0  0  0  0  0  0  0
    4.6089    0.0000    0.0000 C   0  0  0  0  0  0  0  0  0  0  0  0
    5.7611   -0.6568    0.0000 C   0  0  0  0  0  0  0  0  0  0  0  0
    6.9133    0.0000    0.0000 C   0  0  0  0  0  0  0  0  0  0  0  0
    8.0540   -0.6568    0.0000 C   0  0  0  0  0  0  0  0  0  0  0  0
    9.2293    0.0000    0.0000 C   0  0  0  0  0  0  0  0  0  0  0  0
   10.3700   -0.6568    0.0000 C   0  0  0  0  0  0  0  0  0  0  0  0
   11.5222    0.0000    0.0000 C   0  0  0  0  0  0  0  0  0  0  0  0
  1  2  1  1  0  0  0
  1  3  1  0  0  0  0
  1  9  1  0  0  0  0
  2  4  1  0  0  0  0
  3  5  2  0  0  0  0
  3  6  1  0  0  0  0
  4  5  1  0  0  0  0
  4  8  2  0  0  0  0
  5  7  1  0  0  0  0
  9 10  1  0  0  0  0
  9 11  1  6  0  0  0
 10 12  1  0  0  0  0
 12 13  1  0  0  0  0
 13 14  1  0  0  0  0
 13 15  2  0  0  0  0
 14 16  1  0  0  0  0
 16 17  1  0  0  0  0
 17 18  1  0  0  0  0
 18 19  1  0  0  0  0
 19 20  1  0  0  0  0
 20 21  1  0  0  0  0
 21 22  1  0  0  0  0
 22 23  1  0  0  0  0
 23 24  1  0  0  0  0
 24 25  1  0  0  0  0
 25 26  1  0  0  0  0
 26 27  1  0  0  0  0
 27 28  1  0  0  0  0
 28 29  1  0  0  0  0
M  END
> <ID>
8571

> <Formula>
C22H38O7

> <FW>
414.5329

> <DSSTox_CID>
21611

> <DSSTox_RID>
79785

> <DSSTox_GSID>
41611

> <DSSTox_FileID_Sort>
4467

> <TS_ChemName>
Ascorbyl palmitate

> <TS_ChemName_Synonyms>
L-Ascorbic acid, 6-hexadecanoate;  6-O-Palmitoylascorbic acid

> <TS_CASRN>
137-66-6

> <CASRN_ChemName_Relationship>
primary

> <TS_Description>
single chemical compound

> <ChemNote>
stereochem; tautomers

> <STRUCTURE_Shown>
tested chemical

> <STRUCTURE_Formula>
C22H38O7

> <STRUCTURE_MW>
414.5329

> <STRUCTURE_ChemType>
defined organic

> <STRUCTURE_DefinedOrganicForm>
parent

> <STRUCTURE_IUPAC>
(2S)-2-[(2R)-3,4-dihydroxy-5-oxo-2,5-dihydrofuran-2-yl]-2-hydroxyethyl hexadecanoate

> <STRUCTURE_SMILES>
OC=1C(=O)O[C@H]([C@@H](O)COC(=O)CCCCCCCCCCCCCCC)C=1O

> <STRUCTURE_SMILES_Desalt>
OC=1C(=O)O[C@H]([C@@H](O)COC(=O)CCCCCCCCCCCCCCC)C=1O

> <Substance_modify_yyyymmdd>
20131003

$$$$
