137-32-6
ChemmineR-0915142007XD

  6  5  0  0  0  0  0  0  0  0  1 V2000
    1.1683    0.0000    0.0000 C   0  0  0  0  0  0  0  0  0  0  0  0
    2.3228   -0.6604    0.0000 C   0  0  0  0  0  0  0  0  0  0  0  0
    3.4773    0.0000    0.0000 C   0  0  0  0  0  0  0  0  0  0  0  0
    4.6179   -0.6604    0.0000 C   0  0  0  0  0  0  0  0  0  0  0  0
    0.0000   -0.6604    0.0000 O   0  0  0  0  0  0  0  0  0  0  0  0
    2.3228   -1.9903    0.0000 C   0  0  0  0  0  0  0  0  0  0  0  0
  1  2  1  0  0  0  0
  1  5  1  0  0  0  0
  2  3  1  0  0  0  0
  2  6  1  0  0  0  0
  3  4  1  0  0  0  0
M  END
> <ID>
4914

> <Formula>
C5H12O

> <FW>
88.1482

> <DSSTox_CID>
7069

> <DSSTox_RID>
78299

> <DSSTox_GSID>
27069

> <DSSTox_FileID_Sort>
2982

> <TS_ChemName>
2-Methyl-1-butanol

> <TS_ChemName_Synonyms>


> <TS_CASRN>
137-32-6

> <CASRN_ChemName_Relationship>
primary

> <TS_Description>
single chemical compound

> <ChemNote>


> <STRUCTURE_Shown>
tested chemical

> <STRUCTURE_Formula>
C5H12O

> <STRUCTURE_MW>
88.1482

> <STRUCTURE_ChemType>
defined organic

> <STRUCTURE_DefinedOrganicForm>
parent

> <STRUCTURE_IUPAC>
2-methylbutan-1-ol

> <STRUCTURE_SMILES>
CC(CC)CO

> <STRUCTURE_SMILES_Desalt>
CC(CC)CO

> <Substance_modify_yyyymmdd>
20080429

$$$$
