137-08-6
ChemmineR-0915142007XD

 31 28  0  0  1  0  0  0  0  0  2 V2000
    4.5943   -2.0094    0.0000 C    0  0  0  0  0  0  0  0  0  0  0  0
    2.2815   -2.0094    0.0000 C    0  0  0  0  0  0  0  0  0  0  0  0
    3.4431   -1.3291    0.0000 C    0  0  0  0  0  0  0  0  0  0  0  0
    9.1991   -2.0094    0.0000 C    0  0  0  0  0  0  0  0  0  0  0  0
    8.0374   -1.3291    0.0000 C    0  0  0  0  0  0  0  0  0  0  0  0
    9.1991   -3.3280    0.0000 O    0  5  0  0  0  0  0  0  0  0  0  0
    4.5943   -3.3280    0.0000 O    0  0  0  0  0  0  0  0  0  0  0  0
   10.3398   -1.3291    0.0000 O    0  0  0  0  0  0  0  0  0  0  0  0
    5.7560   -1.3291    0.0000 N    0  0  0  0  0  0  0  0  0  0  0  0
    6.8967   -2.0094    0.0000 C    0  0  0  0  0  0  0  0  0  0  0  0
    3.4431    0.0000    0.0000 O    0  0  0  0  0  0  0  0  0  0  0  0
    1.1407   -1.3291    0.0000 C    0  0  0  0  0  0  0  0  0  0  0  0
    2.2815   -3.3280    0.0000 C    0  0  0  0  0  0  0  0  0  0  0  0
    0.0000   -2.0094    0.0000 O    0  0  0  0  0  0  0  0  0  0  0  0
    1.6221   -0.8477    0.0000 C    0  0  0  0  0  0  0  0  0  0  0  0
   10.4654   -4.0815    0.0000 Ca   0  2  0  0  0  0  0  0  0  0  0  0
    4.5943   -6.5095    0.0000 C    0  0  0  0  0  0  0  0  0  0  0  0
    2.2815   -6.5095    0.0000 C    0  0  0  0  0  0  0  0  0  0  0  0
    3.4431   -7.1793    0.0000 C    0  0  0  0  0  0  0  0  0  0  0  0
    9.1991   -6.5095    0.0000 C    0  0  0  0  0  0  0  0  0  0  0  0
    8.0374   -7.1793    0.0000 C    0  0  0  0  0  0  0  0  0  0  0  0
    9.1991   -5.1804    0.0000 O    0  5  0  0  0  0  0  0  0  0  0  0
    4.5943   -5.1804    0.0000 O    0  0  0  0  0  0  0  0  0  0  0  0
   10.3398   -7.1793    0.0000 O    0  0  0  0  0  0  0  0  0  0  0  0
    5.7560   -7.1793    0.0000 N    0  0  0  0  0  0  0  0  0  0  0  0
    6.8967   -6.5095    0.0000 C    0  0  0  0  0  0  0  0  0  0  0  0
    3.4431   -8.5084    0.0000 O    0  0  0  0  0  0  0  0  0  0  0  0
    1.1407   -7.1793    0.0000 C    0  0  0  0  0  0  0  0  0  0  0  0
    2.2815   -5.1804    0.0000 C    0  0  0  0  0  0  0  0  0  0  0  0
    0.0000   -6.5095    0.0000 O    0  0  0  0  0  0  0  0  0  0  0  0
    1.6221   -7.6502    0.0000 C    0  0  0  0  0  0  0  0  0  0  0  0
  1  3  1  0  0  0  0
  1  7  2  0  0  0  0
  1  9  1  0  0  0  0
  2  3  1  0  0  0  0
  2 12  1  0  0  0  0
  2 13  1  0  0  0  0
  2 15  1  0  0  0  0
  3 11  1  1  0  0  0
  4  5  1  0  0  0  0
  4  6  1  0  0  0  0
  4  8  2  0  0  0  0
  5 10  1  0  0  0  0
  9 10  1  0  0  0  0
 12 14  1  0  0  0  0
 17 19  1  0  0  0  0
 17 23  2  0  0  0  0
 17 25  1  0  0  0  0
 18 19  1  0  0  0  0
 18 28  1  0  0  0  0
 18 29  1  0  0  0  0
 18 31  1  0  0  0  0
 19 27  1  6  0  0  0
 20 21  1  0  0  0  0
 20 22  1  0  0  0  0
 20 24  2  0  0  0  0
 21 26  1  0  0  0  0
 25 26  1  0  0  0  0
 28 30  1  0  0  0  0
M  END
> <ID>
7758

> <Formula>
C18H32CaN2O10

> <FW>
476.5321 (218.2276+40.0769+218.2276)

> <DSSTox_CID>
20438

> <DSSTox_RID>
79493

> <DSSTox_GSID>
40438

> <DSSTox_FileID_Sort>
4175

> <TS_ChemName>
Calcium pantothenate

> <TS_ChemName_Synonyms>


> <TS_CASRN>
137-08-6

> <CASRN_ChemName_Relationship>
primary

> <TS_Description>
single chemical compound

> <ChemNote>
stereochem; parent [79-83-4]

> <STRUCTURE_Shown>
tested chemical

> <STRUCTURE_Formula>
C18H32CaN2O10

> <STRUCTURE_MW>
476.5321

> <STRUCTURE_ChemType>
defined organic

> <STRUCTURE_DefinedOrganicForm>
salt

> <STRUCTURE_IUPAC>
calcium bis(3-{[(2R)-2,4-dihydroxy-3,3-dimethylbutanoyl]amino}propanoate)

> <STRUCTURE_SMILES>
[Ca+2].CC(C)(CO)[C@@H](O)C(=O)NCCC([O-])=O.[O-]C(=O)CCNC(=O)[C@H](O)C(C)(C)CO

> <STRUCTURE_SMILES_Desalt>
CC(C)(CO)[C@@H](O)C(=O)NCCC(=O)O

> <Substance_modify_yyyymmdd>
20080429

$$$$
