137-86-0
ChemmineR-0915142007XD

 35 35  0  0  0  0  0  0  0  0  1 V2000
    0.0000   -2.3117    0.0000 C   0  0  0  0  0  0  0  0  0  0  0  0
    0.6576   -3.4676    0.0000 O   0  0  0  0  0  0  0  0  0  0  0  0
    1.9929   -3.4676    0.0000 C   0  0  0  0  0  0  0  0  0  0  0  0
    2.6704   -2.3117    0.0000 O   0  0  0  0  0  0  0  0  0  0  0  0
    2.6704   -4.6234    0.0000 C   0  0  0  0  0  0  0  0  0  0  0  0
    3.9857   -4.6234    0.0000 C   0  0  0  0  0  0  0  0  0  0  0  0
    4.6433   -5.7593    0.0000 C   0  0  0  0  0  0  0  0  0  0  0  0
    5.9786   -5.7593    0.0000 C   0  0  0  0  0  0  0  0  0  0  0  0
    6.6561   -6.9152    0.0000 C   0  0  0  0  0  0  0  0  0  0  0  0
    7.9913   -6.9152    0.0000 C   0  0  0  0  0  0  0  0  0  0  0  0
    8.6490   -5.7593    0.0000 C   0  0  0  0  0  0  0  0  0  0  0  0
    9.9643   -5.7593    0.0000 S   0  0  0  0  0  0  0  0  0  0  0  0
   10.6219   -4.6234    0.0000 S   0  0  0  0  0  0  0  0  0  0  0  0
   11.9571   -4.6234    0.0000 C   0  0  0  0  0  0  0  0  0  0  0  0
   12.6148   -5.7593    0.0000 C   0  0  0  0  0  0  0  0  0  0  0  0
   11.9571   -6.9152    0.0000 C   0  0  0  0  0  0  0  0  0  0  0  0
   12.6148   -8.0711    0.0000 O   0  0  0  0  0  0  0  0  0  0  0  0
   12.6148   -3.4676    0.0000 C   0  0  0  0  0  0  0  0  0  0  0  0
   11.9571   -2.3117    0.0000 C   0  0  0  0  0  0  0  0  0  0  0  0
   13.9500   -3.4676    0.0000 N   0  0  0  0  0  0  0  0  0  0  0  0
   14.6275   -2.3117    0.0000 C   0  0  0  0  0  0  0  0  0  0  0  0
   15.9428   -2.3117    0.0000 C   0  0  0  0  0  0  0  0  0  0  0  0
   16.6005   -1.1559    0.0000 C   0  0  0  0  0  0  0  0  0  0  0  0
   15.9428    0.0000    0.0000 N   0  0  0  0  0  0  0  0  0  0  0  0
   17.9357   -1.1559    0.0000 N   0  0  0  0  0  0  0  0  0  0  0  0
   18.5933   -2.3117    0.0000 C   0  0  0  0  0  0  0  0  0  0  0  0
   19.9285   -2.3117    0.0000 C   0  0  0  0  0  0  0  0  0  0  0  0
   17.9357   -3.4676    0.0000 N   0  0  0  0  0  0  0  0  0  0  0  0
   16.6005   -3.4676    0.0000 C   0  0  0  0  0  0  0  0  0  0  0  0
   14.6275   -4.6234    0.0000 C   0  0  0  0  0  0  0  0  0  0  0  0
   13.9500   -5.7593    0.0000 O   0  0  0  0  0  0  0  0  0  0  0  0
    5.9786   -8.0711    0.0000 S   0  0  0  0  0  0  0  0  0  0  0  0
    4.6433   -8.0711    0.0000 C   0  0  0  0  0  0  0  0  0  0  0  0
    3.9857   -6.9152    0.0000 C   0  0  0  0  0  0  0  0  0  0  0  0
    3.9857   -9.2269    0.0000 O   0  0  0  0  0  0  0  0  0  0  0  0
  1  2  1  0  0  0  0
  2  3  1  0  0  0  0
  3  4  2  0  0  0  0
  3  5  1  0  0  0  0
  5  6  1  0  0  0  0
  6  7  1  0  0  0  0
  7  8  1  0  0  0  0
  8  9  1  0  0  0  0
  9 10  1  0  0  0  0
  9 32  1  0  0  0  0
 10 11  1  0  0  0  0
 11 12  1  0  0  0  0
 12 13  1  0  0  0  0
 13 14  1  0  0  0  0
 14 15  1  0  0  0  0
 14 18  2  0  0  0  0
 15 16  1  0  0  0  0
 16 17  1  0  0  0  0
 18 19  1  0  0  0  0
 18 20  1  0  0  0  0
 20 21  1  0  0  0  0
 20 30  1  0  0  0  0
 21 22  1  0  0  0  0
 22 23  2  0  0  0  0
 22 29  1  0  0  0  0
 23 24  1  0  0  0  0
 23 25  1  0  0  0  0
 25 26  2  0  0  0  0
 26 27  1  0  0  0  0
 26 28  1  0  0  0  0
 28 29  2  0  0  0  0
 30 31  2  0  0  0  0
 32 33  1  0  0  0  0
 33 34  1  0  0  0  0
 33 35  2  0  0  0  0
M  END
> <ID>
16044

> <Formula>
C23H36N4O5S3

> <FW>
544.7507

> <DSSTox_CID>
31429

> <DSSTox_RID>
97315

> <DSSTox_GSID>
57640

> <DSSTox_FileID_Sort>
8382

> <TS_ChemName>
Octotiamine

> <TS_ChemName_Synonyms>


> <TS_CASRN>
137-86-0

> <CASRN_ChemName_Relationship>
primary

> <TS_Description>
single chemical compound

> <ChemNote>


> <STRUCTURE_Shown>
tested chemical

> <STRUCTURE_Formula>
C23H36N4O5S3

> <STRUCTURE_MW>
544.7507

> <STRUCTURE_ChemType>
defined organic

> <STRUCTURE_DefinedOrganicForm>
parent

> <STRUCTURE_IUPAC>
methyl 6-(acetylsulfanyl)-8-{[(2E)-2-{[(4-amino-2-methylpyrimidin-5-yl)methyl](formyl)amino}-5-hydroxypent-2-en-3-yl]disulfanyl}octanoate

> <STRUCTURE_SMILES>
Nc1nc(C)ncc1CN(C=O)C(\C)=C(/CCO)SSCCC(CCCCC(=O)OC)SC(C)=O

> <STRUCTURE_SMILES_Desalt>
Nc1nc(C)ncc1CN(C=O)C(\C)=C(/CCO)SSCCC(CCCCC(=O)OC)SC(C)=O

> <Substance_modify_yyyymmdd>
20131018

$$$$
