137-16-6
ChemmineR-0915142007XD

 20 18  0  0  0  0  0  0  0  0  2 V2000
   16.2101   -1.3428    0.0000 C    0  0  0  0  0  0  0  0  0  0  0  0
   16.2101    0.0000    0.0000 O    0  0  0  0  0  0  0  0  0  0  0  0
   17.3419   -1.9951    0.0000 O    0  5  0  0  0  0  0  0  0  0  0  0
   13.8889   -1.3428    0.0000 N    0  0  0  0  0  0  0  0  0  0  0  0
   15.0591   -1.9951    0.0000 C    0  0  0  0  0  0  0  0  0  0  0  0
   13.8889    0.0000    0.0000 C    0  0  0  0  0  0  0  0  0  0  0  0
   12.7379   -1.9951    0.0000 C    0  0  0  0  0  0  0  0  0  0  0  0
   11.5677   -1.3428    0.0000 C    0  0  0  0  0  0  0  0  0  0  0  0
   10.4166   -1.9951    0.0000 C    0  0  0  0  0  0  0  0  0  0  0  0
    9.2656   -1.3428    0.0000 C    0  0  0  0  0  0  0  0  0  0  0  0
    8.1146   -1.9951    0.0000 C    0  0  0  0  0  0  0  0  0  0  0  0
    6.9444   -1.3428    0.0000 C    0  0  0  0  0  0  0  0  0  0  0  0
    5.7934   -1.9951    0.0000 C    0  0  0  0  0  0  0  0  0  0  0  0
    4.6232   -1.3428    0.0000 C    0  0  0  0  0  0  0  0  0  0  0  0
    3.4722   -1.9951    0.0000 C    0  0  0  0  0  0  0  0  0  0  0  0
    2.3020   -1.3428    0.0000 C    0  0  0  0  0  0  0  0  0  0  0  0
    1.1510   -1.9951    0.0000 C    0  0  0  0  0  0  0  0  0  0  0  0
    0.0000   -1.3428    0.0000 C    0  0  0  0  0  0  0  0  0  0  0  0
   12.7379   -3.3379    0.0000 O    0  0  0  0  0  0  0  0  0  0  0  0
   19.1835   -2.1294    0.0000 Na   0  3  0  0  0  0  0  0  0  0  0  0
  1  2  2  0  0  0  0
  1  3  1  0  0  0  0
  1  5  1  0  0  0  0
  4  5  1  0  0  0  0
  4  6  1  0  0  0  0
  4  7  1  0  0  0  0
  7  8  1  0  0  0  0
  7 19  2  0  0  0  0
  8  9  1  0  0  0  0
  9 10  1  0  0  0  0
 10 11  1  0  0  0  0
 11 12  1  0  0  0  0
 12 13  1  0  0  0  0
 13 14  1  0  0  0  0
 14 15  1  0  0  0  0
 15 16  1  0  0  0  0
 16 17  1  0  0  0  0
 17 18  1  0  0  0  0
M  END
> <ID>
4912

> <Formula>
C15H28NNaO3

> <FW>
293.3775 (270.3883+22.9892)

> <DSSTox_CID>
7066

> <DSSTox_RID>
78298

> <DSSTox_GSID>
27066

> <DSSTox_FileID_Sort>
2981

> <TS_ChemName>
Sodium [dodecanoyl(methyl)amino]acetate

> <TS_ChemName_Synonyms>
sodium [dodecanoyl(methyl)amino]acetate (Sodium N-lauroylsarcosinate) (Glycine, N-methyl-N-(1-oxododecyl)-, sodium salt)

> <TS_CASRN>
137-16-6

> <CASRN_ChemName_Relationship>
primary

> <TS_Description>
single chemical compound

> <ChemNote>
parent [97-78-9]

> <STRUCTURE_Shown>
tested chemical

> <STRUCTURE_Formula>
C15H28NNaO3

> <STRUCTURE_MW>
293.3775

> <STRUCTURE_ChemType>
defined organic

> <STRUCTURE_DefinedOrganicForm>
salt

> <STRUCTURE_IUPAC>
sodium [dodecanoyl(methyl)amino]acetate

> <STRUCTURE_SMILES>
[Na+].O=C(CCCCCCCCCCC)N(C)CC([O-])=O

> <STRUCTURE_SMILES_Desalt>
O=C(CCCCCCCCCCC)N(C)CC(=O)O

> <Substance_modify_yyyymmdd>
20080429

$$$$
