137-58-6
ChemmineR-0915142007XD

 17 17  0  0  0  0  0  0  0  0  1 V2000
    2.2982   -2.0132    0.0000 C   0  0  0  0  0  0  0  0  0  0  0  0
    3.4289   -1.3238    0.0000 N   0  0  0  0  0  0  0  0  0  0  0  0
    4.5964   -2.0132    0.0000 C   0  0  0  0  0  0  0  0  0  0  0  0
    1.1307   -1.3238    0.0000 C   0  0  0  0  0  0  0  0  0  0  0  0
    2.2982   -3.3370    0.0000 C   0  0  0  0  0  0  0  0  0  0  0  0
    4.5964   -3.3370    0.0000 O   0  0  0  0  0  0  0  0  0  0  0  0
    5.7272   -1.3238    0.0000 C   0  0  0  0  0  0  0  0  0  0  0  0
    6.8947   -2.0132    0.0000 N   0  0  0  0  0  0  0  0  0  0  0  0
    0.0000   -3.3370    0.0000 C   0  0  0  0  0  0  0  0  0  0  0  0
    0.0000   -2.0132    0.0000 C   0  0  0  0  0  0  0  0  0  0  0  0
    1.1307   -3.9897    0.0000 C   0  0  0  0  0  0  0  0  0  0  0  0
    1.1307    0.0000    0.0000 C   0  0  0  0  0  0  0  0  0  0  0  0
    3.4289   -3.9897    0.0000 C   0  0  0  0  0  0  0  0  0  0  0  0
    8.0438   -1.3238    0.0000 C   0  0  0  0  0  0  0  0  0  0  0  0
    6.8947   -3.3370    0.0000 C   0  0  0  0  0  0  0  0  0  0  0  0
    9.1929   -2.0132    0.0000 C   0  0  0  0  0  0  0  0  0  0  0  0
    8.0438   -3.9897    0.0000 C   0  0  0  0  0  0  0  0  0  0  0  0
  1  2  1  0  0  0  0
  1  4  2  0  0  0  0
  1  5  1  0  0  0  0
  2  3  1  0  0  0  0
  3  6  2  0  0  0  0
  3  7  1  0  0  0  0
  4 10  1  0  0  0  0
  4 12  1  0  0  0  0
  5 11  2  0  0  0  0
  5 13  1  0  0  0  0
  7  8  1  0  0  0  0
  8 14  1  0  0  0  0
  8 15  1  0  0  0  0
  9 11  1  0  0  0  0
  9 10  2  0  0  0  0
 14 16  1  0  0  0  0
 15 17  1  0  0  0  0
M  END
> <ID>
10785

> <Formula>
C14H22N2O

> <FW>
234.3373

> <DSSTox_CID>
25166

> <DSSTox_RID>
80716

> <DSSTox_GSID>
45166

> <DSSTox_FileID_Sort>
5397

> <TS_ChemName>
Lidocaine

> <TS_ChemName_Synonyms>


> <TS_CASRN>
137-58-6

> <CASRN_ChemName_Relationship>
primary

> <TS_Description>
single chemical compound

> <ChemNote>


> <STRUCTURE_Shown>
tested chemical

> <STRUCTURE_Formula>
C14H22N2O

> <STRUCTURE_MW>
234.3373

> <STRUCTURE_ChemType>
defined organic

> <STRUCTURE_DefinedOrganicForm>
parent

> <STRUCTURE_IUPAC>
N-(2,6-dimethylphenyl)-N~2~,N~2~-diethylglycinamide

> <STRUCTURE_SMILES>
O=C(Nc1c(C)cccc1C)CN(CC)CC

> <STRUCTURE_SMILES_Desalt>
O=C(Nc1c(C)cccc1C)CN(CC)CC

> <Substance_modify_yyyymmdd>
20100107

$$$$
