137071-32-0
ChemmineR-0915142007XD

 58 61  0  0  1  0  0  0  0  0  1 V2000
   11.8118   -1.9577    0.0000 C    0  0  0  0  0  0  0  0  0  0  0  0
   12.9962   -2.6321    0.0000 C    0  0  0  0  0  0  0  0  0  0  0  0
   12.9962   -4.0305    0.0000 C    0  0  0  0  0  0  0  0  0  0  0  0
   14.1971   -4.7214    0.0000 C    0  0  0  0  0  0  0  0  0  0  0  0
   14.1971   -6.1033    0.0000 C    0  0  0  0  0  0  0  0  0  0  0  0
   12.9962   -8.8999    0.0000 C    0  0  0  0  0  0  0  0  0  0  0  0
   10.6108   -8.8999    0.0000 C    0  0  0  0  0  0  0  0  0  0  0  0
    8.2090   -8.1926    0.0000 C    0  0  0  0  0  0  0  0  0  0  0  0
    9.3935   -8.8670    0.0000 C    0  0  0  0  0  0  0  0  0  0  0  0
   15.4145   -6.7942    0.0000 C    0  0  0  0  0  0  0  0  0  0  0  0
   14.1971   -8.8670    0.0000 C    0  0  0  0  0  0  0  0  0  0  0  0
   15.4145   -8.1926    0.0000 C    0  0  0  0  0  0  0  0  0  0  0  0
    8.2090   -4.0305    0.0000 C    0  0  0  0  0  0  0  0  0  0  0  0
    6.9916   -6.1033    0.0000 O    0  0  0  0  0  0  0  0  0  0  0  0
    6.9916   -4.7214    0.0000 C    0  0  0  0  0  0  0  0  0  0  0  0
    8.2090   -2.6321    0.0000 C    0  0  0  0  0  0  0  0  0  0  0  0
    9.3935   -1.9577    0.0000 C    0  0  0  0  0  0  0  0  0  0  0  0
    5.8072   -6.7942    0.0000 C    0  0  0  0  0  0  0  0  0  0  0  0
    5.8072   -8.1926    0.0000 C    0  0  0  0  0  0  0  0  0  0  0  0
    6.9916   -8.8670    0.0000 N    0  0  0  0  0  0  0  0  0  0  0  0
   11.8118   -8.1926    0.0000 O    0  0  0  0  0  0  0  0  0  0  0  0
   12.9962  -10.2818    0.0000 C    0  0  0  0  0  0  0  0  0  0  0  0
   11.8118  -10.9728    0.0000 C    0  0  0  0  0  0  0  0  0  0  0  0
   10.6108  -10.2818    0.0000 C    0  0  0  0  0  0  0  0  0  0  0  0
    4.5898   -8.8670    0.0000 C    0  0  0  0  0  0  0  0  0  0  0  0
    4.5898  -10.2818    0.0000 C    0  0  0  0  0  0  0  0  0  0  0  0
    6.9916  -10.2818    0.0000 C    0  0  0  0  0  0  0  0  0  0  0  0
    5.8072  -10.9563    0.0000 C    0  0  0  0  0  0  0  0  0  0  0  0
    5.8401   -4.0469    0.0000 C    0  0  0  0  0  0  0  0  0  0  0  0
    4.6556   -4.7214    0.0000 C    0  0  0  0  0  0  0  0  0  0  0  0
    3.5040   -4.0469    0.0000 C    0  0  0  0  0  0  0  0  0  0  0  0
    2.3525   -2.0564    0.0000 C    0  0  0  0  0  0  0  0  0  0  0  0
    3.5040   -2.6979    0.0000 C    0  0  0  0  0  0  0  0  0  0  0  0
    1.1680   -2.6979    0.0000 C    0  0  0  0  0  0  0  0  0  0  0  0
    1.1680   -4.0469    0.0000 C    0  0  0  0  0  0  0  0  0  0  0  0
    2.3525   -4.7214    0.0000 C    0  0  0  0  0  0  0  0  0  0  0  0
    0.0000   -2.0564    0.0000 Cl   0  0  0  0  0  0  0  0  0  0  0  0
    2.3525   -0.6909    0.0000 O    0  0  0  0  0  0  0  0  0  0  0  0
    3.5040    0.0000    0.0000 C    0  0  0  0  0  0  0  0  0  0  0  0
    5.8401   -2.8460    0.0000 C    0  0  0  0  0  0  0  0  0  0  0  0
    4.7708   -6.2020    0.0000 O    0  0  0  0  0  0  0  0  0  0  0  0
    4.7543   -7.6003    0.0000 H    0  0  0  0  0  0  0  0  0  0  0  0
    8.2090   -6.9916    0.0000 O    0  0  0  0  0  0  0  0  0  0  0  0
    9.0974  -10.0351    0.0000 O    0  0  0  0  0  0  0  0  0  0  0  0
    9.5744  -10.8905    0.0000 C    0  0  0  0  0  0  0  0  0  0  0  0
   14.0326  -10.8905    0.0000 O    0  0  0  0  0  0  0  0  0  0  0  0
   14.0326  -12.0585    0.0000 C    0  0  0  0  0  0  0  0  0  0  0  0
   13.0127   -7.6990    0.0000 H    0  0  0  0  0  0  0  0  0  0  0  0
   10.5944   -7.6990    0.0000 O    0  0  0  0  0  0  0  0  0  0  0  0
   14.5097  -10.0351    0.0000 O    0  0  0  0  0  0  0  0  0  0  0  0
   15.6777  -10.3312    0.0000 C    0  0  0  0  0  0  0  0  0  0  0  0
   16.4509   -6.2020    0.0000 C    0  0  0  0  0  0  0  0  0  0  0  0
   15.2335   -4.1127    0.0000 C    0  0  0  0  0  0  0  0  0  0  0  0
   14.0326   -2.0564    0.0000 C    0  0  0  0  0  0  0  0  0  0  0  0
   15.0690   -2.6321    0.0000 C    0  0  0  0  0  0  0  0  0  0  0  0
   12.1079   -0.7896    0.0000 O    0  0  0  0  0  0  0  0  0  0  0  0
    7.1561   -2.0564    0.0000 O    0  0  0  0  0  0  0  0  0  0  0  0
    9.2290   -4.6063    0.0000 C    0  0  0  0  0  0  0  0  0  0  0  0
  1 17  1  0  0  0  0
  1  2  1  0  0  0  0
  1 56  2  0  0  0  0
  2  3  1  0  0  0  0
  2 54  1  6  0  0  0
  3  4  2  0  0  0  0
  4  5  1  0  0  0  0
  4 53  1  0  0  0  0
  5 10  1  0  0  0  0
  6 21  1  0  0  0  0
  6 11  1  0  0  0  0
  6 22  1  0  0  0  0
  6 48  1  1  0  0  0
  7  9  1  0  0  0  0
  7 21  1  0  0  0  0
  7 24  1  0  0  0  0
  7 49  1  1  0  0  0
  8  9  1  0  0  0  0
  8 20  1  0  0  0  0
  8 43  2  0  0  0  0
  9 44  2  0  0  0  0
 10 12  1  0  0  0  0
 10 52  1  6  0  0  0
 11 12  1  0  0  0  0
 11 50  1  6  0  0  0
 13 15  1  0  0  0  0
 13 16  1  0  0  0  0
 13 58  1  1  0  0  0
 14 15  1  0  0  0  0
 14 18  1  0  0  0  0
 15 29  1  6  0  0  0
 16 17  1  0  0  0  0
 16 57  1  1  0  0  0
 18 19  1  0  0  0  0
 18 41  2  0  0  0  0
 19 25  1  0  0  0  0
 19 20  1  0  0  0  0
 19 42  1  6  0  0  0
 20 27  1  0  0  0  0
 22 23  1  0  0  0  0
 22 46  1  1  0  0  0
 23 24  1  0  0  0  0
 24 45  1  1  0  0  0
 25 26  1  0  0  0  0
 26 28  1  0  0  0  0
 27 28  1  0  0  0  0
 29 30  2  0  0  0  0
 29 40  1  0  0  0  0
 31 30  1  6  0  0  0
 31 33  1  0  0  0  0
 31 36  1  0  0  0  0
 32 33  1  0  0  0  0
 32 34  1  0  0  0  0
 32 38  1  6  0  0  0
 34 35  1  0  0  0  0
 34 37  1  1  0  0  0
 35 36  1  0  0  0  0
 38 39  1  0  0  0  0
 46 47  1  0  0  0  0
 50 51  1  0  0  0  0
 54 55  1  0  0  0  0
M  END
> <ID>
11876

> <Formula>
C43H68ClNO11

> <FW>
810.4531

> <DSSTox_CID>
26674

> <DSSTox_RID>
81811

> <DSSTox_GSID>
46674

> <DSSTox_FileID_Sort>
6492

> <TS_ChemName>
Pimecrolimus

> <TS_ChemName_Synonyms>


> <TS_CASRN>
137071-32-0

> <CASRN_ChemName_Relationship>
primary

> <TS_Description>
single chemical compound

> <ChemNote>
stereochem

> <STRUCTURE_Shown>
tested chemical

> <STRUCTURE_Formula>
C43H68ClNO11

> <STRUCTURE_MW>
810.4531

> <STRUCTURE_ChemType>
defined organic

> <STRUCTURE_DefinedOrganicForm>
parent

> <STRUCTURE_IUPAC>
(3S,4R,5S,8R,9E,12S,14S,15R,16S,18R,19R,26aS)-3-{(1E)-1-[(1R,3R,4R)-4-chloro-3-methoxycyclohexyl]prop-1-en-2-yl}-8-ethyl-5,19-dihydroxy-14,16-dimethoxy-4,10,12,18-tetramethyl-5,6,8,11,12,13,14,15,16,17,18,19,24,25,26,26a-hexadecahydro-3H-15,19-epoxypyrido

> <STRUCTURE_SMILES>
Cl[C@@H]1CC[C@H](C[C@H]1OC)\C=C(/C)[C@H]2OC(=O)[C@@H]4CCCCN4C(=O)C(=O)[C@]3(O)O[C@H]([C@H](C[C@@H](C)CC(C)=C[C@@H](CC)C(=O)C[C@H](O)[C@H]2C)OC)[C@H](C[C@H]3C)OC

> <STRUCTURE_SMILES_Desalt>
Cl[C@@H]1CC[C@H](C[C@H]1OC)\C=C(/C)[C@H]2OC(=O)[C@@H]4CCCCN4C(=O)C(=O)[C@]3(O)O[C@H]([C@H](C[C@@H](C)CC(C)=C[C@@H](CC)C(=O)C[C@H](O)[C@H]2C)OC)[C@H](C[C@H]3C)OC

> <Substance_modify_yyyymmdd>
20110808

$$$$
