13708-12-8
ChemmineR-0915142007XD

 11 12  0  0  0  0  0  0  0  0  1 V2000
    1.1900    0.0000    0.0000 N   0  0  0  0  0  0  0  0  0  0  0  0
    1.1900   -2.6521    0.0000 N   0  0  0  0  0  0  0  0  0  0  0  0
    2.3293   -1.9926    0.0000 C   0  0  0  0  0  0  0  0  0  0  0  0
    2.3293   -0.6596    0.0000 C   0  0  0  0  0  0  0  0  0  0  0  0
    0.0000   -0.6596    0.0000 C   0  0  0  0  0  0  0  0  0  0  0  0
    0.0000   -1.9926    0.0000 C   0  0  0  0  0  0  0  0  0  0  0  0
    3.4547    0.0000    0.0000 C   0  0  0  0  0  0  0  0  0  0  0  0
    3.4547   -2.6521    0.0000 C   0  0  0  0  0  0  0  0  0  0  0  0
    4.6124   -1.9926    0.0000 C   0  0  0  0  0  0  0  0  0  0  0  0
    4.6124   -0.6596    0.0000 C   0  0  0  0  0  0  0  0  0  0  0  0
    3.4224   -3.9851    0.0000 C   0  0  0  0  0  0  0  0  0  0  0  0
  1  4  2  0  0  0  0
  1  5  1  0  0  0  0
  2  3  2  0  0  0  0
  2  6  1  0  0  0  0
  3  4  1  0  0  0  0
  3  8  1  0  0  0  0
  4  7  1  0  0  0  0
  5  6  2  0  0  0  0
  7 10  2  0  0  0  0
  8  9  2  0  0  0  0
  8 11  1  0  0  0  0
  9 10  1  0  0  0  0
M  END
> <ID>
12241

> <Formula>
C9H8N2

> <FW>
144.1732

> <DSSTox_CID>
27090

> <DSSTox_RID>
82102

> <DSSTox_GSID>
47090

> <DSSTox_FileID_Sort>
6783

> <TS_ChemName>
5-Methylquinoxaline

> <TS_ChemName_Synonyms>


> <TS_CASRN>
13708-12-8

> <CASRN_ChemName_Relationship>
primary

> <TS_Description>
single chemical compound

> <ChemNote>


> <STRUCTURE_Shown>
tested chemical

> <STRUCTURE_Formula>
C9H8N2

> <STRUCTURE_MW>
144.1732

> <STRUCTURE_ChemType>
defined organic

> <STRUCTURE_DefinedOrganicForm>
parent

> <STRUCTURE_IUPAC>
5-methylquinoxaline

> <STRUCTURE_SMILES>
Cc1cccc2nccnc12

> <STRUCTURE_SMILES_Desalt>
Cc1cccc2nccnc12

> <Substance_modify_yyyymmdd>
20100429

$$$$
