137160-11-3
ChemmineR-0915142007XD

 24 25  0  0  0  0  0  0  0  0  1 V2000
    2.2852   -1.9822    0.0000 C    0  0  0  0  0  0  0  0  0  0  0  0
    3.4089   -2.6513    0.0000 C    0  0  0  0  0  0  0  0  0  0  0  0
    1.1363   -2.6513    0.0000 C    0  0  0  0  0  0  0  0  0  0  0  0
    2.2852   -0.6691    0.0000 C    0  0  0  0  0  0  0  0  0  0  0  0
    4.5957   -1.9822    0.0000 N    0  0  0  0  0  0  0  0  0  0  0  0
    3.4089   -4.0023    0.0000 C    0  0  0  0  0  0  0  0  0  0  0  0
    1.1363   -4.0023    0.0000 C    0  0  0  0  0  0  0  0  0  0  0  0
    0.0000   -1.9822    0.0000 C    0  0  0  0  0  0  0  0  0  0  0  0
    1.1363    0.0000    0.0000 C    0  0  0  0  0  0  0  0  0  0  0  0
    5.7572   -2.6513    0.0000 C    0  0  0  0  0  0  0  0  0  0  0  0
    2.2852   -4.6588    0.0000 C    0  0  0  0  0  0  0  0  0  0  0  0
    0.0000   -0.6691    0.0000 C    0  0  0  0  0  0  0  0  0  0  0  0
    6.8682   -1.9822    0.0000 N    0  0  0  0  0  0  0  0  0  0  0  0
    5.7572   -4.0023    0.0000 N    0  0  0  0  0  0  0  0  0  0  0  0
    8.0298   -2.6513    0.0000 C    0  0  0  0  0  0  0  0  0  0  0  0
    6.8682   -0.6691    0.0000 C    0  0  0  0  0  0  0  0  0  0  0  0
    9.1913   -1.9822    0.0000 C    0  0  0  0  0  0  0  0  0  0  0  0
    8.0298   -4.0023    0.0000 C    0  0  0  0  0  0  0  0  0  0  0  0
   10.3529   -2.6513    0.0000 C    0  0  0  0  0  0  0  0  0  0  0  0
    9.1913   -4.6588    0.0000 C    0  0  0  0  0  0  0  0  0  0  0  0
   10.3529   -4.0023    0.0000 C    0  0  0  0  0  0  0  0  0  0  0  0
   11.4765   -1.9822    0.0000 C    0  0  0  0  0  0  0  0  0  0  0  0
   12.6254   -2.6513    0.0000 C    0  0  0  0  0  0  0  0  0  0  0  0
    5.4416   -5.4289    0.0000 Cl   0  0  0  0  0  0  0  0  0  0  0  0
  1  2  1  0  0  0  0
  1  3  2  0  0  0  0
  1  4  1  0  0  0  0
  2  5  1  0  0  0  0
  2  6  2  0  0  0  0
  3  7  1  0  0  0  0
  3  8  1  0  0  0  0
  4  9  2  0  0  0  0
  5 10  1  0  0  0  0
  6 11  1  0  0  0  0
  7 11  2  0  0  0  0
  8 12  2  0  0  0  0
  9 12  1  0  0  0  0
 10 13  1  0  0  0  0
 10 14  2  0  0  0  0
 13 15  1  0  0  0  0
 13 16  1  0  0  0  0
 15 17  2  0  0  0  0
 15 18  1  0  0  0  0
 17 19  1  0  0  0  0
 18 20  2  0  0  0  0
 19 21  2  0  0  0  0
 19 22  1  0  0  0  0
 20 21  1  0  0  0  0
 22 23  1  0  0  0  0
M  END
> <ID>
11172

> <Formula>
C20H22ClN3

> <FW>
339.8618 (303.4008+36.4609)

> <DSSTox_CID>
25762

> <DSSTox_RID>
81104

> <DSSTox_GSID>
45762

> <DSSTox_FileID_Sort>
5785

> <TS_ChemName>
Aptiganel hydrochloride

> <TS_ChemName_Synonyms>


> <TS_CASRN>
137160-11-3

> <CASRN_ChemName_Relationship>
primary

> <TS_Description>
single chemical compound

> <ChemNote>
stereochem; parent [137159-92-3]

> <STRUCTURE_Shown>
tested chemical

> <STRUCTURE_Formula>
C20H22ClN3

> <STRUCTURE_MW>
339.8618

> <STRUCTURE_ChemType>
defined organic

> <STRUCTURE_DefinedOrganicForm>
complex

> <STRUCTURE_IUPAC>
1-(3-ethylphenyl)-1-methyl-3-naphthalen-1-ylguanidine hydrochloride (1:1)

> <STRUCTURE_SMILES>
Cl.CN(C(=N)Nc2cccc1ccccc12)c3cc(CC)ccc3

> <STRUCTURE_SMILES_Desalt>
CN(C(=N)Nc2cccc1ccccc12)c3cc(CC)ccc3

> <Substance_modify_yyyymmdd>
20110826

$$$$
