137215-12-4
ChemmineR-0915142007XD

 26 28  0  0  1  0  0  0  0  0  1 V2000
    2.2645    0.0000    0.0000 C   0  0  0  0  0  0  0  0  0  0  0  0
    2.2645   -1.3104    0.0000 C   0  0  0  0  0  0  0  0  0  0  0  0
    1.1380   -1.9657    0.0000 C   0  0  0  0  0  0  0  0  0  0  0  0
    1.1380   -3.2646    0.0000 C   0  0  0  0  0  0  0  0  0  0  0  0
    0.0000   -3.9198    0.0000 O   0  0  0  0  0  0  0  0  0  0  0  0
    2.2645   -3.9198    0.0000 O   0  0  0  0  0  0  0  0  0  0  0  0
    3.3911   -3.2646    0.0000 C   0  0  0  0  0  0  0  0  0  0  0  0
    4.5291   -3.9198    0.0000 C   0  0  0  0  0  0  0  0  0  0  0  0
    5.6556   -3.2646    0.0000 C   0  0  0  0  0  0  0  0  0  0  0  0
    5.6556   -1.9657    0.0000 C   0  0  0  0  0  0  0  0  0  0  0  0
    4.5291   -1.3104    0.0000 C   0  0  0  0  0  0  0  0  0  0  0  0
    3.3911   -1.9657    0.0000 C   0  0  0  0  0  0  0  0  0  0  0  0
    7.2764   -4.4026    0.0000 O   0  0  0  0  0  0  0  0  0  0  0  0
    7.9202   -3.2646    0.0000 C   0  0  0  0  0  0  0  0  0  0  0  0
    6.6212   -3.2646    0.0000 H   0  0  0  0  0  0  0  0  0  0  0  0
    9.0582   -3.9198    0.0000 S   0  0  0  0  0  0  0  0  0  0  0  0
   10.1847   -3.2646    0.0000 C   0  0  0  0  0  0  0  0  0  0  0  0
   10.1847   -1.9657    0.0000 C   0  0  0  0  0  0  0  0  0  0  0  0
   11.4951   -1.9657    0.0000 H   0  0  0  0  0  0  0  0  0  0  0  0
   10.8399   -0.8277    0.0000 O   0  0  0  0  0  0  0  0  0  0  0  0
    9.0582   -1.3104    0.0000 C   0  0  0  0  0  0  0  0  0  0  0  0
    9.7134   -0.1724    0.0000 H   0  0  0  0  0  0  0  0  0  0  0  0
    8.4030   -0.1724    0.0000 O   0  0  0  0  0  0  0  0  0  0  0  0
    7.9202   -1.9657    0.0000 C   0  0  0  0  0  0  0  0  0  0  0  0
    7.2764   -0.8277    0.0000 H   0  0  0  0  0  0  0  0  0  0  0  0
    6.6212   -1.9657    0.0000 O   0  0  0  0  0  0  0  0  0  0  0  0
  1  2  1  0  0  0  0
  2  3  2  0  0  0  0
  2 12  1  0  0  0  0
  3  4  1  0  0  0  0
  4  5  2  0  0  0  0
  4  6  1  0  0  0  0
  6  7  1  0  0  0  0
  7  8  2  0  0  0  0
  7 12  1  0  0  0  0
  8  9  1  0  0  0  0
  9 10  2  0  0  0  0
  9 13  1  0  0  0  0
 10 11  1  0  0  0  0
 11 12  2  0  0  0  0
 13 14  1  0  0  0  0
 14 15  1  6  0  0  0
 14 16  1  0  0  0  0
 14 24  1  0  0  0  0
 16 17  1  0  0  0  0
 17 18  1  0  0  0  0
 18 19  1  1  0  0  0
 18 20  1  0  0  0  0
 18 21  1  0  0  0  0
 21 22  1  6  0  0  0
 21 23  1  0  0  0  0
 21 24  1  0  0  0  0
 24 25  1  1  0  0  0
 24 26  1  0  0  0  0
M  END
> <ID>
16043

> <Formula>
C15H16O6S

> <FW>
324.3489

> <DSSTox_CID>
31428

> <DSSTox_RID>
97314

> <DSSTox_GSID>
57639

> <DSSTox_FileID_Sort>
8381

> <TS_ChemName>
Odiparcil

> <TS_ChemName_Synonyms>


> <TS_CASRN>
137215-12-4

> <CASRN_ChemName_Relationship>
primary

> <TS_Description>
single chemical compound

> <ChemNote>


> <STRUCTURE_Shown>
tested chemical

> <STRUCTURE_Formula>
C15H16O6S

> <STRUCTURE_MW>
324.3489

> <STRUCTURE_ChemType>
defined organic

> <STRUCTURE_DefinedOrganicForm>
parent

> <STRUCTURE_IUPAC>
4-methyl-2-oxo-2H-chromen-7-yl 5-thio-beta-D-xylopyranoside

> <STRUCTURE_SMILES>
O[C@H]3[C@H](Oc1ccc2C(C)=CC(=O)Oc2c1)SC[C@@H](O)[C@@H]3O

> <STRUCTURE_SMILES_Desalt>
O[C@H]3[C@H](Oc1ccc2C(C)=CC(=O)Oc2c1)SC[C@@H](O)[C@@H]3O

> <Substance_modify_yyyymmdd>
20131018

$$$$
