137234-62-9
ChemmineR-0915142007XD

 25 27  0  0  1  0  0  0  0  0  1 V2000
    2.7447   -5.7944    0.0000 C   0  0  0  0  0  0  0  0  0  0  0  0
    3.4193   -6.9496    0.0000 C   0  0  0  0  0  0  0  0  0  0  0  0
    1.4139   -5.7944    0.0000 C   0  0  0  0  0  0  0  0  0  0  0  0
    2.7447   -8.1048    0.0000 C   0  0  0  0  0  0  0  0  0  0  0  0
    0.7578   -6.9496    0.0000 C   0  0  0  0  0  0  0  0  0  0  0  0
    1.4139   -8.1048    0.0000 C   0  0  0  0  0  0  0  0  0  0  0  0
    3.4378   -4.6485    0.0000 C   0  0  0  0  0  0  0  0  0  0  0  0
    4.5930   -3.9923    0.0000 C   0  0  0  0  0  0  0  0  0  0  0  0
    2.2826   -3.9923    0.0000 C   0  0  0  0  0  0  0  0  0  0  0  0
    1.1275   -4.6485    0.0000 C   0  0  0  0  0  0  0  0  0  0  0  0
    5.7297   -4.6485    0.0000 N   0  0  0  0  0  0  0  0  0  0  0  0
    4.0755   -5.7944    0.0000 O   0  0  0  0  0  0  0  0  0  0  0  0
    6.8202   -3.8629    0.0000 N   0  0  0  0  0  0  0  0  0  0  0  0
    6.1456   -5.9238    0.0000 C   0  0  0  0  0  0  0  0  0  0  0  0
    7.8922   -4.6485    0.0000 C   0  0  0  0  0  0  0  0  0  0  0  0
    7.4764   -5.9238    0.0000 N   0  0  0  0  0  0  0  0  0  0  0  0
    2.2919   -2.6615    0.0000 C   0  0  0  0  0  0  0  0  0  0  0  0
    2.2919    0.0000    0.0000 N   0  0  0  0  0  0  0  0  0  0  0  0
    3.4471   -0.6746    0.0000 C   0  0  0  0  0  0  0  0  0  0  0  0
    1.1367   -0.6746    0.0000 C   0  0  0  0  0  0  0  0  0  0  0  0
    3.4471   -2.0054    0.0000 N   0  0  0  0  0  0  0  0  0  0  0  0
    1.1367   -2.0054    0.0000 C   0  0  0  0  0  0  0  0  0  0  0  0
    0.0000   -2.6615    0.0000 F   0  0  0  0  0  0  0  0  0  0  0  0
    0.7578   -9.2415    0.0000 F   0  0  0  0  0  0  0  0  0  0  0  0
    4.7501   -6.9496    0.0000 F   0  0  0  0  0  0  0  0  0  0  0  0
  1  2  1  0  0  0  0
  1  3  2  0  0  0  0
  1  7  1  0  0  0  0
  2  4  2  0  0  0  0
  2 25  1  0  0  0  0
  3  5  1  0  0  0  0
  4  6  1  0  0  0  0
  5  6  2  0  0  0  0
  6 24  1  0  0  0  0
  7  8  1  0  0  0  0
  7  9  1  0  0  0  0
  7 12  1  1  0  0  0
  8 11  1  0  0  0  0
  9 10  1  0  0  0  0
  9 17  1  1  0  0  0
 11 13  1  0  0  0  0
 11 14  1  0  0  0  0
 13 15  2  0  0  0  0
 14 16  2  0  0  0  0
 15 16  1  0  0  0  0
 17 21  1  0  0  0  0
 17 22  2  0  0  0  0
 18 19  1  0  0  0  0
 18 20  2  0  0  0  0
 19 21  2  0  0  0  0
 20 22  1  0  0  0  0
 22 23  1  0  0  0  0
M  END
> <ID>
11722

> <Formula>
C16H14F3N5O

> <FW>
349.3105

> <DSSTox_CID>
26485

> <DSSTox_RID>
81656

> <DSSTox_GSID>
46485

> <DSSTox_FileID_Sort>
6337

> <TS_ChemName>
Voriconazole

> <TS_ChemName_Synonyms>


> <TS_CASRN>
137234-62-9

> <CASRN_ChemName_Relationship>
primary

> <TS_Description>
single chemical compound

> <ChemNote>
stereochem

> <STRUCTURE_Shown>
tested chemical

> <STRUCTURE_Formula>
C16H14F3N5O

> <STRUCTURE_MW>
349.3105

> <STRUCTURE_ChemType>
defined organic

> <STRUCTURE_DefinedOrganicForm>
parent

> <STRUCTURE_IUPAC>
(2R,3S)-2-(2,4-difluorophenyl)-3-(5-fluoropyrimidin-4-yl)-1-(1H-1,2,4-triazol-1-yl)butan-2-ol

> <STRUCTURE_SMILES>
O[C@](Cn1cncn1)([C@@H](C)c2ncncc2F)c3ccc(F)cc3F

> <STRUCTURE_SMILES_Desalt>
O[C@](Cn1cncn1)([C@@H](C)c2ncncc2F)c3ccc(F)cc3F

> <Substance_modify_yyyymmdd>
20110812

$$$$
