13739-02-1
ChemmineR-0915142007XD

 27 29  0  0  0  0  0  0  0  0  1 V2000
    0.0000   -2.0000    0.0000 C   0  0  0  0  0  0  0  0  0  0  0  0
    1.1502   -1.3368    0.0000 C   0  0  0  0  0  0  0  0  0  0  0  0
    1.1502    0.0000    0.0000 O   0  0  0  0  0  0  0  0  0  0  0  0
    2.3005   -2.0000    0.0000 O   0  0  0  0  0  0  0  0  0  0  0  0
    2.3005   -3.3264    0.0000 C   0  0  0  0  0  0  0  0  0  0  0  0
    1.1502   -3.9896    0.0000 C   0  0  0  0  0  0  0  0  0  0  0  0
    1.1502   -5.3264    0.0000 C   0  0  0  0  0  0  0  0  0  0  0  0
    2.3005   -5.9896    0.0000 C   0  0  0  0  0  0  0  0  0  0  0  0
    3.4507   -5.3264    0.0000 C   0  0  0  0  0  0  0  0  0  0  0  0
    3.4507   -3.9896    0.0000 C   0  0  0  0  0  0  0  0  0  0  0  0
    4.6010   -3.3264    0.0000 C   0  0  0  0  0  0  0  0  0  0  0  0
    4.6010   -2.0000    0.0000 O   0  0  0  0  0  0  0  0  0  0  0  0
    5.7616   -3.9896    0.0000 C   0  0  0  0  0  0  0  0  0  0  0  0
    6.9118   -3.3264    0.0000 C   0  0  0  0  0  0  0  0  0  0  0  0
    6.9118   -2.0000    0.0000 O   0  0  0  0  0  0  0  0  0  0  0  0
    8.0621   -1.3368    0.0000 C   0  0  0  0  0  0  0  0  0  0  0  0
    9.2123   -2.0000    0.0000 C   0  0  0  0  0  0  0  0  0  0  0  0
    8.0621    0.0000    0.0000 O   0  0  0  0  0  0  0  0  0  0  0  0
    8.0621   -3.9896    0.0000 C   0  0  0  0  0  0  0  0  0  0  0  0
    8.0621   -5.3264    0.0000 C   0  0  0  0  0  0  0  0  0  0  0  0
    6.9118   -5.9896    0.0000 C   0  0  0  0  0  0  0  0  0  0  0  0
    5.7616   -5.3264    0.0000 C   0  0  0  0  0  0  0  0  0  0  0  0
    4.6010   -5.9896    0.0000 C   0  0  0  0  0  0  0  0  0  0  0  0
    4.6010   -7.3160    0.0000 O   0  0  0  0  0  0  0  0  0  0  0  0
    9.2123   -5.9896    0.0000 C   0  0  0  0  0  0  0  0  0  0  0  0
   10.3626   -5.3264    0.0000 O   0  0  0  0  0  0  0  0  0  0  0  0
    9.2123   -7.3160    0.0000 O   0  0  0  0  0  0  0  0  0  0  0  0
  1  2  1  0  0  0  0
  2  3  2  0  0  0  0
  2  4  1  0  0  0  0
  4  5  1  0  0  0  0
  5  6  2  0  0  0  0
  5 10  1  0  0  0  0
  6  7  1  0  0  0  0
  7  8  2  0  0  0  0
  8  9  1  0  0  0  0
  9 10  2  0  0  0  0
  9 23  1  0  0  0  0
 10 11  1  0  0  0  0
 11 12  2  0  0  0  0
 11 13  1  0  0  0  0
 13 14  2  0  0  0  0
 13 22  1  0  0  0  0
 14 15  1  0  0  0  0
 14 19  1  0  0  0  0
 15 16  1  0  0  0  0
 16 17  1  0  0  0  0
 16 18  2  0  0  0  0
 19 20  2  0  0  0  0
 20 21  1  0  0  0  0
 20 25  1  0  0  0  0
 21 22  2  0  0  0  0
 22 23  1  0  0  0  0
 23 24  2  0  0  0  0
 25 26  1  0  0  0  0
 25 27  2  0  0  0  0
M  END
> <ID>
11085

> <Formula>
C19H12O8

> <FW>
368.2938

> <DSSTox_CID>
25636

> <DSSTox_RID>
81017

> <DSSTox_GSID>
45636

> <DSSTox_FileID_Sort>
5698

> <TS_ChemName>
Diacerein

> <TS_ChemName_Synonyms>


> <TS_CASRN>
13739-02-1

> <CASRN_ChemName_Relationship>
primary

> <TS_Description>
single chemical compound

> <ChemNote>


> <STRUCTURE_Shown>
tested chemical

> <STRUCTURE_Formula>
C19H12O8

> <STRUCTURE_MW>
368.2938

> <STRUCTURE_ChemType>
defined organic

> <STRUCTURE_DefinedOrganicForm>
parent

> <STRUCTURE_IUPAC>
4,5-bis(acetyloxy)-9,10-dioxo-9,10-dihydroanthracene-2-carboxylic acid

> <STRUCTURE_SMILES>
CC(=O)Oc3cccc2C(=O)c1cc(cc(OC(C)=O)c1C(=O)c23)C(=O)O

> <STRUCTURE_SMILES_Desalt>
CC(=O)Oc3cccc2C(=O)c1cc(cc(OC(C)=O)c1C(=O)c23)C(=O)O

> <Substance_modify_yyyymmdd>
20100107

$$$$
