13755-38-9
ChemmineR-0915142007XD

 17 12  0  0  0  0  0  0  0  0  2 V2000
    4.1764   -2.3156    0.0000 Fe   0  6  0  0  0  0  0  0  0  0  0  0
    2.7787   -3.1239    0.0000 C    0  0  0  0  0  0  0  0  0  0  0  0
    4.1764   -0.6989    0.0000 C    0  0  0  0  0  0  0  0  0  0  0  0
    5.5742   -3.1239    0.0000 C    0  0  0  0  0  0  0  0  0  0  0  0
    4.1764   -3.9323    0.0000 N    0  0  0  0  0  0  0  0  0  0  0  0
    2.7787   -1.5072    0.0000 C    0  0  0  0  0  0  0  0  0  0  0  0
    5.5742   -1.5072    0.0000 C    0  0  0  0  0  0  0  0  0  0  0  0
    1.8777   -2.6019    0.0000 N    0  0  0  0  0  0  0  0  0  0  0  0
    2.7787   -0.4631    0.0000 N    0  0  0  0  0  0  0  0  0  0  0  0
    5.0858   -0.1768    0.0000 N    0  0  0  0  0  0  0  0  0  0  0  0
    6.4836   -2.0293    0.0000 N    0  0  0  0  0  0  0  0  0  0  0  0
    5.5742   -4.1680    0.0000 N    0  0  0  0  0  0  0  0  0  0  0  0
    3.2755   -4.4543    0.0000 O    0  0  0  0  0  0  0  0  0  0  0  0
    0.7157   -0.1179    0.0000 Na   0  3  0  0  0  0  0  0  0  0  0  0
    7.3256    0.0000    0.0000 Na   0  3  0  0  0  0  0  0  0  0  0  0
    0.0000   -1.9619    0.0000 O    0  0  0  0  0  0  0  0  0  0  0  0
    8.4202   -2.2061    0.0000 O    0  0  0  0  0  0  0  0  0  0  0  0
  1  2  1  0  0  0  0
  1  3  1  0  0  0  0
  1  4  1  0  0  0  0
  1  5  1  0  0  0  0
  1  6  1  0  0  0  0
  1  7  1  0  0  0  0
  2  8  3  0  0  0  0
  3 10  3  0  0  0  0
  4 12  3  0  0  0  0
  5 13  2  0  0  0  0
  6  9  3  0  0  0  0
  7 11  3  0  0  0  0
M  END
> <ID>
8123

> <Formula>
C5H4FeN6Na2O3

> <FW>
297.9482 (215.9392+22.9892+22.9892+18.0153+18.0153)

> <DSSTox_CID>
21126

> <DSSTox_RID>
79630

> <DSSTox_GSID>
41126

> <DSSTox_FileID_Sort>
4312

> <TS_ChemName>
Sodium nitroprusside dihydrate

> <TS_ChemName_Synonyms>
Sodium nitoprusside dihydrate

> <TS_CASRN>
13755-38-9

> <CASRN_ChemName_Relationship>
primary

> <TS_Description>
single chemical compound

> <ChemNote>
parent [15078-28-1]

> <STRUCTURE_Shown>
tested chemical

> <STRUCTURE_Formula>
C5H4FeN6Na2O3

> <STRUCTURE_MW>
297.9482

> <STRUCTURE_ChemType>
organometallic

> <STRUCTURE_DefinedOrganicForm>


> <STRUCTURE_IUPAC>
sodium pentacyanonitrosylferrate (II)

> <STRUCTURE_SMILES>
[Na+].[Na+].O.O.N#C[Fe-2](C#N)(C#N)(N=O)(C#N)C#N

> <STRUCTURE_SMILES_Desalt>
N#C[Fe-2](C#N)(C#N)(N=O)(C#N)C#N

> <Substance_modify_yyyymmdd>
20080429

$$$$
