137975-06-5
ChemmineR-0915142007XD

 32 35  0  0  0  0  0  0  0  0  1 V2000
    1.9657    0.0000    0.0000 C   0  0  0  0  0  0  0  0  0  0  0  0
    1.5919   -1.2874    0.0000 N   0  0  0  0  0  0  0  0  0  0  0  0
    0.2907   -1.5643    0.0000 C   0  0  0  0  0  0  0  0  0  0  0  0
    2.4779   -2.2564    0.0000 C   0  0  0  0  0  0  0  0  0  0  0  0
    3.7653   -1.8550    0.0000 C   0  0  0  0  0  0  0  0  0  0  0  0
    4.8589   -2.6163    0.0000 C   0  0  0  0  0  0  0  0  0  0  0  0
    4.9558   -3.9452    0.0000 C   0  0  0  0  0  0  0  0  0  0  0  0
    3.9868   -4.8312    0.0000 N   0  0  0  0  0  0  0  0  0  0  0  0
    4.3744   -6.1047    0.0000 C   0  0  0  0  0  0  0  0  0  0  0  0
    3.4746   -7.0738    0.0000 O   0  0  0  0  0  0  0  0  0  0  0  0
    5.6756   -6.4093    0.0000 C   0  0  0  0  0  0  0  0  0  0  0  0
    6.5754   -5.4264    0.0000 C   0  0  0  0  0  0  0  0  0  0  0  0
    7.8628   -5.7310    0.0000 C   0  0  0  0  0  0  0  0  0  0  0  0
    8.2643   -7.0045    0.0000 C   0  0  0  0  0  0  0  0  0  0  0  0
    9.5655   -7.2952    0.0000 N   0  0  0  0  0  0  0  0  0  0  0  0
    9.9531   -8.5688    0.0000 C   0  0  0  0  0  0  0  0  0  0  0  0
    9.0533   -9.5378    0.0000 O   0  0  0  0  0  0  0  0  0  0  0  0
   11.2543   -8.8595    0.0000 C   0  0  0  0  0  0  0  0  0  0  0  0
   12.1541   -7.8766    0.0000 C   0  0  0  0  0  0  0  0  0  0  0  0
   13.4415   -8.1812    0.0000 C   0  0  0  0  0  0  0  0  0  0  0  0
   13.8430   -9.4547    0.0000 C   0  0  0  0  0  0  0  0  0  0  0  0
   12.9293  -10.4238    0.0000 C   0  0  0  0  0  0  0  0  0  0  0  0
   11.6419  -10.1192    0.0000 C   0  0  0  0  0  0  0  0  0  0  0  0
   10.7283  -11.1021    0.0000 C   0  0  0  0  0  0  0  0  0  0  0  0
    7.3506   -7.9736    0.0000 C   0  0  0  0  0  0  0  0  0  0  0  0
    6.0494   -7.6690    0.0000 C   0  0  0  0  0  0  0  0  0  0  0  0
    2.6579   -4.6512    0.0000 C   0  0  0  0  0  0  0  0  0  0  0  0
    2.0072   -3.4884    0.0000 C   0  0  0  0  0  0  0  0  0  0  0  0
    0.6783   -3.4884    0.0000 C   0  0  0  0  0  0  0  0  0  0  0  0
    0.0000   -4.6512    0.0000 C   0  0  0  0  0  0  0  0  0  0  0  0
    0.6783   -5.8002    0.0000 C   0  0  0  0  0  0  0  0  0  0  0  0
    2.0072   -5.8002    0.0000 C   0  0  0  0  0  0  0  0  0  0  0  0
  1  2  1  0  0  0  0
  2  3  1  0  0  0  0
  2  4  1  0  0  0  0
  4  5  1  0  0  0  0
  4 28  1  0  0  0  0
  5  6  1  0  0  0  0
  6  7  1  0  0  0  0
  7  8  1  0  0  0  0
  8  9  1  0  0  0  0
  8 27  1  0  0  0  0
  9 10  2  0  0  0  0
  9 11  1  0  0  0  0
 11 12  2  0  0  0  0
 11 26  1  0  0  0  0
 12 13  1  0  0  0  0
 13 14  2  0  0  0  0
 14 15  1  0  0  0  0
 14 25  1  0  0  0  0
 15 16  1  0  0  0  0
 16 17  2  0  0  0  0
 16 18  1  0  0  0  0
 18 19  2  0  0  0  0
 18 23  1  0  0  0  0
 19 20  1  0  0  0  0
 20 21  2  0  0  0  0
 21 22  1  0  0  0  0
 22 23  2  0  0  0  0
 23 24  1  0  0  0  0
 25 26  2  0  0  0  0
 27 28  2  0  0  0  0
 27 32  1  0  0  0  0
 28 29  1  0  0  0  0
 29 30  2  0  0  0  0
 30 31  1  0  0  0  0
 31 32  2  0  0  0  0
M  END
> <ID>
16045

> <Formula>
C27H29N3O2

> <FW>
427.5381

> <DSSTox_CID>
31430

> <DSSTox_RID>
97316

> <DSSTox_GSID>
57641

> <DSSTox_FileID_Sort>
8383

> <TS_ChemName>
Mozavaptan

> <TS_ChemName_Synonyms>


> <TS_CASRN>
137975-06-5

> <CASRN_ChemName_Relationship>
primary

> <TS_Description>
single chemical compound

> <ChemNote>


> <STRUCTURE_Shown>
tested chemical

> <STRUCTURE_Formula>
C27H29N3O2

> <STRUCTURE_MW>
427.5381

> <STRUCTURE_ChemType>
defined organic

> <STRUCTURE_DefinedOrganicForm>
parent

> <STRUCTURE_IUPAC>
N-(4-{[5-(dimethylamino)-2,3,4,5-tetrahydro-1H-1-benzazepin-1-yl]carbonyl}phenyl)-2-methylbenzamide

> <STRUCTURE_SMILES>
Cc1ccccc1C(=O)Nc2ccc(cc2)C(=O)N4CCCC(c3ccccc34)N(C)C

> <STRUCTURE_SMILES_Desalt>
Cc1ccccc1C(=O)Nc2ccc(cc2)C(=O)N4CCCC(c3ccccc34)N(C)C

> <Substance_modify_yyyymmdd>
20131018

$$$$
