138-41-0
ChemmineR-0915142007XD

 13 13  0  0  0  0  0  0  0  0  1 V2000
    5.9751   -2.6589    0.0000 N   0  0  0  0  0  0  0  0  0  0  0  0
    5.9751   -1.3294    0.0000 S   0  0  0  0  0  0  0  0  0  0  0  0
    5.9751    0.0000    0.0000 O   0  0  0  0  0  0  0  0  0  0  0  0
    7.3046   -1.3294    0.0000 O   0  0  0  0  0  0  0  0  0  0  0  0
    4.6457   -1.3294    0.0000 C   0  0  0  0  0  0  0  0  0  0  0  0
    3.9883   -2.4836    0.0000 C   0  0  0  0  0  0  0  0  0  0  0  0
    2.6589   -2.4836    0.0000 C   0  0  0  0  0  0  0  0  0  0  0  0
    2.0015   -1.3294    0.0000 C   0  0  0  0  0  0  0  0  0  0  0  0
    2.6589   -0.1753    0.0000 C   0  0  0  0  0  0  0  0  0  0  0  0
    3.9883   -0.1753    0.0000 C   0  0  0  0  0  0  0  0  0  0  0  0
    0.6720   -1.3294    0.0000 C   0  0  0  0  0  0  0  0  0  0  0  0
    0.0000   -2.4836    0.0000 O   0  0  0  0  0  0  0  0  0  0  0  0
    0.0000   -0.1753    0.0000 O   0  0  0  0  0  0  0  0  0  0  0  0
  1  2  1  0  0  0  0
  2  3  2  0  0  0  0
  2  4  2  0  0  0  0
  2  5  1  0  0  0  0
  5  6  2  0  0  0  0
  5 10  1  0  0  0  0
  6  7  1  0  0  0  0
  7  8  2  0  0  0  0
  8  9  1  0  0  0  0
  8 11  1  0  0  0  0
  9 10  2  0  0  0  0
 11 12  1  0  0  0  0
 11 13  2  0  0  0  0
M  END
> <ID>
10732

> <Formula>
C7H7NO4S

> <FW>
201.1998

> <DSSTox_CID>
25089

> <DSSTox_RID>
80663

> <DSSTox_GSID>
45089

> <DSSTox_FileID_Sort>
5345

> <TS_ChemName>
Carzenide

> <TS_ChemName_Synonyms>


> <TS_CASRN>
138-41-0

> <CASRN_ChemName_Relationship>
primary

> <TS_Description>
single chemical compound

> <ChemNote>


> <STRUCTURE_Shown>
tested chemical

> <STRUCTURE_Formula>
C7H7NO4S

> <STRUCTURE_MW>
201.1998

> <STRUCTURE_ChemType>
defined organic

> <STRUCTURE_DefinedOrganicForm>
parent

> <STRUCTURE_IUPAC>
4-sulfamoylbenzoic acid

> <STRUCTURE_SMILES>
O=S(N)(=O)c1ccc(cc1)C(=O)O

> <STRUCTURE_SMILES_Desalt>
O=S(N)(=O)c1ccc(cc1)C(=O)O

> <Substance_modify_yyyymmdd>
20100107

$$$$
