138-22-7
ChemmineR-0915142007XD

 10  9  0  0  0  0  0  0  0  0  1 V2000
    1.1363   -1.9886    0.0000 C   0  0  0  0  0  0  0  0  0  0  0  0
    2.2970   -1.3474    0.0000 C   0  0  0  0  0  0  0  0  0  0  0  0
    0.0000   -1.3474    0.0000 C   0  0  0  0  0  0  0  0  0  0  0  0
    1.1363   -3.3360    0.0000 O   0  0  0  0  0  0  0  0  0  0  0  0
    3.4658   -1.9886    0.0000 O   0  0  0  0  0  0  0  0  0  0  0  0
    2.2970    0.0000    0.0000 O   0  0  0  0  0  0  0  0  0  0  0  0
    4.6184   -1.3474    0.0000 C   0  0  0  0  0  0  0  0  0  0  0  0
    5.7872   -1.9886    0.0000 C   0  0  0  0  0  0  0  0  0  0  0  0
    6.9479   -1.3474    0.0000 C   0  0  0  0  0  0  0  0  0  0  0  0
    8.1167   -1.9886    0.0000 C   0  0  0  0  0  0  0  0  0  0  0  0
  1  2  1  0  0  0  0
  1  4  1  0  0  0  0
  1  3  1  0  0  0  0
  2  5  1  0  0  0  0
  2  6  2  0  0  0  0
  5  7  1  0  0  0  0
  7  8  1  0  0  0  0
  8  9  1  0  0  0  0
  9 10  1  0  0  0  0
M  END
> <ID>
9126

> <Formula>
C7H14O3

> <FW>
146.1843

> <DSSTox_CID>
22196

> <DSSTox_RID>
79953

> <DSSTox_GSID>
42196

> <DSSTox_FileID_Sort>
4635

> <TS_ChemName>
Butyl lactate

> <TS_ChemName_Synonyms>


> <TS_CASRN>
138-22-7

> <CASRN_ChemName_Relationship>
primary

> <TS_Description>
single chemical compound

> <ChemNote>


> <STRUCTURE_Shown>
tested chemical

> <STRUCTURE_Formula>
C7H14O3

> <STRUCTURE_MW>
146.1843

> <STRUCTURE_ChemType>
defined organic

> <STRUCTURE_DefinedOrganicForm>
parent

> <STRUCTURE_IUPAC>
butyl 2-hydroxypropanoate

> <STRUCTURE_SMILES>
OC(C)C(=O)OCCCC

> <STRUCTURE_SMILES_Desalt>
OC(C)C(=O)OCCCC

> <Substance_modify_yyyymmdd>
20080825

$$$$
