138-86-3
ChemmineR-0915142007XD

 10 10  0  0  0  0  0  0  0  0  1 V2000
    1.1532   -1.3325    0.0000 C   0  0  0  0  0  0  0  0  0  0  0  0
    2.3064   -1.9837    0.0000 C   0  0  0  0  0  0  0  0  0  0  0  0
    2.3064   -3.3162    0.0000 C   0  0  0  0  0  0  0  0  0  0  0  0
    1.1532   -3.9914    0.0000 C   0  0  0  0  0  0  0  0  0  0  0  0
    0.0000   -3.3162    0.0000 C   0  0  0  0  0  0  0  0  0  0  0  0
    0.0000   -1.9837    0.0000 C   0  0  0  0  0  0  0  0  0  0  0  0
    1.1532    0.0000    0.0000 C   0  0  0  0  0  0  0  0  0  0  0  0
    1.1532   -5.3179    0.0000 C   0  0  0  0  0  0  0  0  0  0  0  0
    2.3064   -5.9751    0.0000 C   0  0  0  0  0  0  0  0  0  0  0  0
    0.0000   -5.9751    0.0000 C   0  0  0  0  0  0  0  0  0  0  0  0
  1  2  2  0  0  0  0
  1  6  1  0  0  0  0
  1  7  1  0  0  0  0
  2  3  1  0  0  0  0
  3  4  1  0  0  0  0
  4  5  1  0  0  0  0
  4  8  1  0  0  0  0
  5  6  1  0  0  0  0
  8  9  2  0  0  0  0
  8 10  1  0  0  0  0
M  END
> <ID>
6074

> <Formula>
C10H16

> <FW>
136.234

> <DSSTox_CID>
9612

> <DSSTox_RID>
78787

> <DSSTox_GSID>
29612

> <DSSTox_FileID_Sort>
3469

> <TS_ChemName>
Limonene

> <TS_ChemName_Synonyms>
(+/-)-Limonene; Cyclohexene, 1-methyl-4-(1-methylethenyl)-

> <TS_CASRN>
138-86-3

> <CASRN_ChemName_Relationship>
primary

> <TS_Description>
single chemical compound

> <ChemNote>
mixture of (R,S) isomers; structure shown without stereochem

> <STRUCTURE_Shown>
tested chemical

> <STRUCTURE_Formula>
C10H16

> <STRUCTURE_MW>
136.234

> <STRUCTURE_ChemType>
defined organic

> <STRUCTURE_DefinedOrganicForm>
parent

> <STRUCTURE_IUPAC>
1-methyl-4-(prop-1-en-2-yl)cyclohexene

> <STRUCTURE_SMILES>
CC1=CCC(CC1)C(C)=C

> <STRUCTURE_SMILES_Desalt>
CC1=CCC(CC1)C(C)=C

> <Substance_modify_yyyymmdd>
20080429

$$$$
