138-37-4
ChemmineR-0915142007XD

 13 12  0  0  0  0  0  0  0  0  1 V2000
    5.7561   -1.1540    0.0000 S    0  0  0  0  0  0  0  0  0  0  0  0
    4.5952   -1.8105    0.0000 C    0  0  0  0  0  0  0  0  0  0  0  0
    6.9101   -1.8105    0.0000 N    0  0  0  0  0  0  0  0  0  0  0  0
    4.5952   -3.1441    0.0000 C    0  0  0  0  0  0  0  0  0  0  0  0
    3.4412   -1.1540    0.0000 C    0  0  0  0  0  0  0  0  0  0  0  0
    2.3011   -1.8105    0.0000 C    0  0  0  0  0  0  0  0  0  0  0  0
    3.4412   -3.8213    0.0000 C    0  0  0  0  0  0  0  0  0  0  0  0
    2.3011   -3.1441    0.0000 C    0  0  0  0  0  0  0  0  0  0  0  0
    0.0000   -3.1441    0.0000 N    0  0  0  0  0  0  0  0  0  0  0  0
    1.1264   -3.8213    0.0000 C    0  0  0  0  0  0  0  0  0  0  0  0
    5.0790   -0.0138    0.0000 O    0  0  0  0  0  0  0  0  0  0  0  0
    6.4126    0.0000    0.0000 O    0  0  0  0  0  0  0  0  0  0  0  0
    6.0740   -3.3376    0.0000 Cl   0  0  0  0  0  0  0  0  0  0  0  0
  1  2  1  0  0  0  0
  1  3  1  0  0  0  0
  1 11  2  0  0  0  0
  1 12  2  0  0  0  0
  2  4  2  0  0  0  0
  2  5  1  0  0  0  0
  4  7  1  0  0  0  0
  5  6  2  0  0  0  0
  6  8  1  0  0  0  0
  7  8  2  0  0  0  0
  8 10  1  0  0  0  0
  9 10  1  0  0  0  0
M  END
> <ID>
10857

> <Formula>
C7H11ClN2O2S

> <FW>
222.6924 (186.2315+36.4609)

> <DSSTox_CID>
25296

> <DSSTox_RID>
80787

> <DSSTox_GSID>
45296

> <DSSTox_FileID_Sort>
5468

> <TS_ChemName>
Mafenide hydrochloride

> <TS_ChemName_Synonyms>


> <TS_CASRN>
138-37-4

> <CASRN_ChemName_Relationship>
primary

> <TS_Description>
single chemical compound

> <ChemNote>
parent [138-39-6]

> <STRUCTURE_Shown>
tested chemical

> <STRUCTURE_Formula>
C7H11ClN2O2S

> <STRUCTURE_MW>
222.6924

> <STRUCTURE_ChemType>
defined organic

> <STRUCTURE_DefinedOrganicForm>
complex

> <STRUCTURE_IUPAC>
4-(aminomethyl)benzenesulfonamide hydrochloride (1:1)

> <STRUCTURE_SMILES>
Cl.O=S(N)(=O)c1ccc(CN)cc1

> <STRUCTURE_SMILES_Desalt>
O=S(N)(=O)c1ccc(CN)cc1

> <Substance_modify_yyyymmdd>
20100107

$$$$
