138-15-8
ChemmineR-0915142007XD

 11  9  0  0  1  0  0  0  0  0  1 V2000
    5.7861   -1.3331    0.0000 C    0  0  0  0  0  0  0  0  0  0  0  0
    1.1387   -1.3424    0.0000 C    0  0  0  0  0  0  0  0  0  0  0  0
    5.7861    0.0000    0.0000 O    0  0  0  0  0  0  0  0  0  0  0  0
    4.6011   -1.9997    0.0000 C    0  0  0  0  0  0  0  0  0  0  0  0
    0.0000   -1.9997    0.0000 O    0  0  0  0  0  0  0  0  0  0  0  0
    3.4624   -1.3331    0.0000 C    0  0  0  0  0  0  0  0  0  0  0  0
    2.3052   -1.9997    0.0000 C    0  0  0  0  0  0  0  0  0  0  0  0
    1.1572   -0.0185    0.0000 O    0  0  0  0  0  0  0  0  0  0  0  0
    6.9156   -1.9997    0.0000 O    0  0  0  0  0  0  0  0  0  0  0  0
    4.6011   -3.3328    0.0000 N    0  0  0  0  0  0  0  0  0  0  0  0
    9.2578   -0.5647    0.0000 Cl   0  0  0  0  0  0  0  0  0  0  0  0
  1  3  2  0  0  0  0
  1  4  1  0  0  0  0
  1  9  1  0  0  0  0
  2  7  1  0  0  0  0
  2  5  2  0  0  0  0
  2  8  1  0  0  0  0
  4  6  1  0  0  0  0
  4 10  1  1  0  0  0
  6  7  1  0  0  0  0
M  END
> <ID>
12303

> <Formula>
C5H10ClNO4

> <FW>
183.5902 (147.1293+36.4609)

> <DSSTox_CID>
27155

> <DSSTox_RID>
82156

> <DSSTox_GSID>
47155

> <DSSTox_FileID_Sort>
6837

> <TS_ChemName>
L-Glutamic acid hydrochloride

> <TS_ChemName_Synonyms>


> <TS_CASRN>
138-15-8

> <CASRN_ChemName_Relationship>
primary

> <TS_Description>
single chemical compound

> <ChemNote>
stereochem; parent [56-86-0]; dl- parent [617-65-2]

> <STRUCTURE_Shown>
tested chemical

> <STRUCTURE_Formula>
C5H10ClNO4

> <STRUCTURE_MW>
183.5902

> <STRUCTURE_ChemType>
defined organic

> <STRUCTURE_DefinedOrganicForm>
complex

> <STRUCTURE_IUPAC>
L-glutamic acid hydrochloride (1:1)

> <STRUCTURE_SMILES>
Cl.OC(=O)CC[C@H](N)C(=O)O

> <STRUCTURE_SMILES_Desalt>
OC(=O)CC[C@H](N)C(=O)O

> <Substance_modify_yyyymmdd>
20100502

$$$$
