138-14-7
ChemmineR-0915142007XD

 44 42  0  0  0  0  0  0  0  0  1 V2000
    1.1638   -1.9951    0.0000 C   0  0  0  0  0  0  0  0  0  0  0  0
   13.8731   -1.3116    0.0000 C   0  0  0  0  0  0  0  0  0  0  0  0
   10.4002   -5.8928    0.0000 C   0  0  0  0  0  0  0  0  0  0  0  0
    4.6182   -1.3855    0.0000 C   0  0  0  0  0  0  0  0  0  0  0  0
   17.3090   -1.9212    0.0000 C   0  0  0  0  0  0  0  0  0  0  0  0
   12.7093   -1.9581    0.0000 N   0  0  0  0  0  0  0  0  0  0  0  0
    1.1638   -3.3805    0.0000 N   0  0  0  0  0  0  0  0  0  0  0  0
   11.5640   -5.2093    0.0000 N   0  0  0  0  0  0  0  0  0  0  0  0
   13.8731    0.0000    0.0000 O   0  0  0  0  0  0  0  0  0  0  0  0
    0.0000   -1.3670    0.0000 O   0  0  0  0  0  0  0  0  0  0  0  0
   10.4002   -7.2044    0.0000 O   0  0  0  0  0  0  0  0  0  0  0  0
    2.3091   -1.3670    0.0000 C   0  0  0  0  0  0  0  0  0  0  0  0
   15.0184   -1.9396    0.0000 C   0  0  0  0  0  0  0  0  0  0  0  0
    4.6182   -0.0554    0.0000 O   0  0  0  0  0  0  0  0  0  0  0  0
   18.4728   -1.2931    0.0000 O   0  0  0  0  0  0  0  0  0  0  0  0
   17.3090   -3.2882    0.0000 N   0  0  0  0  0  0  0  0  0  0  0  0
    5.7820   -2.0505    0.0000 N   0  0  0  0  0  0  0  0  0  0  0  0
    3.4729   -2.0505    0.0000 C   0  0  0  0  0  0  0  0  0  0  0  0
   16.1637   -1.3116    0.0000 C   0  0  0  0  0  0  0  0  0  0  0  0
   12.7093   -3.3251    0.0000 O   0  0  0  0  0  0  0  0  0  0  0  0
    2.3091   -4.0086    0.0000 O   0  0  0  0  0  0  0  0  0  0  0  0
   11.5640   -3.8423    0.0000 O   0  0  0  0  0  0  0  0  0  0  0  0
    4.5997   -5.3756    0.0000 N   0  0  0  0  0  0  0  0  0  0  0  0
    9.2549   -5.1909    0.0000 C   0  0  0  0  0  0  0  0  0  0  0  0
    0.0000   -4.0271    0.0000 C   0  0  0  0  0  0  0  0  0  0  0  0
   12.7278   -5.8928    0.0000 C   0  0  0  0  0  0  0  0  0  0  0  0
   11.5640   -1.3300    0.0000 C   0  0  0  0  0  0  0  0  0  0  0  0
   16.1637   -3.8978    0.0000 C   0  0  0  0  0  0  0  0  0  0  0  0
    6.9088   -1.3670    0.0000 C   0  0  0  0  0  0  0  0  0  0  0  0
    3.4544   -6.0406    0.0000 C   0  0  0  0  0  0  0  0  0  0  0  0
    0.0000   -5.3571    0.0000 C   0  0  0  0  0  0  0  0  0  0  0  0
   13.8731   -5.2463    0.0000 C   0  0  0  0  0  0  0  0  0  0  0  0
   10.4002   -1.9766    0.0000 C   0  0  0  0  0  0  0  0  0  0  0  0
   16.1637   -5.2463    0.0000 C   0  0  0  0  0  0  0  0  0  0  0  0
    8.0726   -1.9951    0.0000 C   0  0  0  0  0  0  0  0  0  0  0  0
    2.2906   -5.3571    0.0000 C   0  0  0  0  0  0  0  0  0  0  0  0
   15.0184   -5.9298    0.0000 C   0  0  0  0  0  0  0  0  0  0  0  0
    1.1453   -6.0221    0.0000 C   0  0  0  0  0  0  0  0  0  0  0  0
    9.2549   -1.3485    0.0000 C   0  0  0  0  0  0  0  0  0  0  0  0
    5.4495   -7.8694    0.0000 C   0  0  0  0  0  0  0  0  0  0  0  0
    6.7795   -7.8694    0.0000 S   0  0  0  0  0  0  0  0  0  0  0  0
    6.7795   -6.5394    0.0000 O   0  0  0  0  0  0  0  0  0  0  0  0
    6.7795   -9.1995    0.0000 O   0  0  0  0  0  0  0  0  0  0  0  0
    8.1096   -7.8694    0.0000 O   0  0  0  0  0  0  0  0  0  0  0  0
  1  7  1  0  0  0  0
  1 10  2  0  0  0  0
  1 12  1  0  0  0  0
  2  6  1  0  0  0  0
  2  9  2  0  0  0  0
  2 13  1  0  0  0  0
  3  8  1  0  0  0  0
  3 11  2  0  0  0  0
  3 24  1  0  0  0  0
  4 18  1  0  0  0  0
  4 14  2  0  0  0  0
  4 17  1  0  0  0  0
  5 19  1  0  0  0  0
  5 15  2  0  0  0  0
  5 16  1  0  0  0  0
  6 27  1  0  0  0  0
  6 20  1  0  0  0  0
  7 21  1  0  0  0  0
  7 25  1  0  0  0  0
  8 26  1  0  0  0  0
  8 22  1  0  0  0  0
 12 18  1  0  0  0  0
 13 19  1  0  0  0  0
 16 28  1  0  0  0  0
 17 29  1  0  0  0  0
 23 30  1  0  0  0  0
 25 31  1  0  0  0  0
 26 32  1  0  0  0  0
 27 33  1  0  0  0  0
 28 34  1  0  0  0  0
 29 35  1  0  0  0  0
 30 36  1  0  0  0  0
 31 38  1  0  0  0  0
 32 37  1  0  0  0  0
 33 39  1  0  0  0  0
 34 37  1  0  0  0  0
 35 39  1  0  0  0  0
 36 38  1  0  0  0  0
 40 41  1  0  0  0  0
 41 42  2  0  0  0  0
 41 43  2  0  0  0  0
 41 44  1  0  0  0  0
M  END
> <ID>
7384

> <Formula>
C26H52N6O11S

> <FW>
656.7897 (560.6840+96.1057)

> <DSSTox_CID>
17649

> <DSSTox_RID>
79351

> <DSSTox_GSID>
37649

> <DSSTox_FileID_Sort>
4033

> <TS_ChemName>
Deferoxamine mesylate

> <TS_ChemName_Synonyms>
Desferal

> <TS_CASRN>
138-14-7

> <CASRN_ChemName_Relationship>
primary

> <TS_Description>
single chemical compound

> <ChemNote>
parent [70-51-9]

> <STRUCTURE_Shown>
tested chemical

> <STRUCTURE_Formula>
C26H52N6O11S

> <STRUCTURE_MW>
656.7897

> <STRUCTURE_ChemType>
defined organic

> <STRUCTURE_DefinedOrganicForm>
complex

> <STRUCTURE_IUPAC>
N'-{5-[acetyl(hydroxy)amino]pentyl}-N-[5-({4-[(5-aminopentyl)(hydroxy)amino]-4-oxobutanoyl}amino)pentyl]-N-hydroxybutanediamide methanesulfonate (1:1)

> <STRUCTURE_SMILES>
ON(CCCCCNC(=O)CCC(=O)N(O)CCCCCN)C(=O)CCC(=O)NCCCCCN(O)C(C)=O.CS(=O)(=O)O

> <STRUCTURE_SMILES_Desalt>
CC(=O)N(O)CCCCCNC(=O)CCC(=O)N(O)CCCCCNC(=O)CCC(=O)N(O)CCCCCN

> <Substance_modify_yyyymmdd>
20080429

$$$$
