138112-76-2
ChemmineR-0915142007XD

 18 19  0  0  0  0  0  0  0  0  1 V2000
    0.0000   -3.9914    0.0000 C   0  0  0  0  0  0  0  0  0  0  0  0
    0.0000   -2.6610    0.0000 O   0  0  0  0  0  0  0  0  0  0  0  0
    1.1531   -1.9997    0.0000 C   0  0  0  0  0  0  0  0  0  0  0  0
    2.3062   -2.6610    0.0000 C   0  0  0  0  0  0  0  0  0  0  0  0
    3.4592   -1.9997    0.0000 C   0  0  0  0  0  0  0  0  0  0  0  0
    4.6043   -2.6610    0.0000 C   0  0  0  0  0  0  0  0  0  0  0  0
    4.6043   -3.9914    0.0000 C   0  0  0  0  0  0  0  0  0  0  0  0
    5.7573   -4.6607    0.0000 C   0  0  0  0  0  0  0  0  0  0  0  0
    5.7573   -5.9912    0.0000 N   0  0  0  0  0  0  0  0  0  0  0  0
    6.9104   -6.6524    0.0000 C   0  0  0  0  0  0  0  0  0  0  0  0
    6.9104   -7.9829    0.0000 C   0  0  0  0  0  0  0  0  0  0  0  0
    8.0635   -5.9912    0.0000 O   0  0  0  0  0  0  0  0  0  0  0  0
    5.7573   -1.9997    0.0000 C   0  0  0  0  0  0  0  0  0  0  0  0
    5.7573   -0.6693    0.0000 C   0  0  0  0  0  0  0  0  0  0  0  0
    4.6043    0.0000    0.0000 C   0  0  0  0  0  0  0  0  0  0  0  0
    3.4592   -0.6693    0.0000 C   0  0  0  0  0  0  0  0  0  0  0  0
    2.3062    0.0000    0.0000 C   0  0  0  0  0  0  0  0  0  0  0  0
    1.1531   -0.6693    0.0000 C   0  0  0  0  0  0  0  0  0  0  0  0
  1  2  1  0  0  0  0
  2  3  1  0  0  0  0
  3  4  2  0  0  0  0
  3 18  1  0  0  0  0
  4  5  1  0  0  0  0
  5  6  2  0  0  0  0
  5 16  1  0  0  0  0
  6  7  1  0  0  0  0
  6 13  1  0  0  0  0
  7  8  1  0  0  0  0
  8  9  1  0  0  0  0
  9 10  1  0  0  0  0
 10 11  1  0  0  0  0
 10 12  2  0  0  0  0
 13 14  2  0  0  0  0
 14 15  1  0  0  0  0
 15 16  2  0  0  0  0
 16 17  1  0  0  0  0
 17 18  2  0  0  0  0
M  END
> <ID>
16046

> <Formula>
C15H17NO2

> <FW>
243.301

> <DSSTox_CID>
31431

> <DSSTox_RID>
97317

> <DSSTox_GSID>
57642

> <DSSTox_FileID_Sort>
8384

> <TS_ChemName>
Agomelatine

> <TS_ChemName_Synonyms>


> <TS_CASRN>
138112-76-2

> <CASRN_ChemName_Relationship>
primary

> <TS_Description>
single chemical compound

> <ChemNote>


> <STRUCTURE_Shown>
tested chemical

> <STRUCTURE_Formula>
C15H17NO2

> <STRUCTURE_MW>
243.301

> <STRUCTURE_ChemType>
defined organic

> <STRUCTURE_DefinedOrganicForm>
parent

> <STRUCTURE_IUPAC>
N-[2-(7-methoxy-1-naphthyl)ethyl]acetamide

> <STRUCTURE_SMILES>
CC(=O)NCCc1cccc2ccc(OC)cc12

> <STRUCTURE_SMILES_Desalt>
CC(=O)NCCc1cccc2ccc(OC)cc12

> <Substance_modify_yyyymmdd>
20131018

$$$$
