13820-41-2
ChemmineR-0915142007XD

  7  4  0  0  0  0  0  0  0  0  2 V2000
    2.1944   -1.3320    0.0000 Pt   0  2  0  0  0  0  0  0  0  0  0  0
    0.8624   -1.3320    0.0000 Cl   0  5  0  0  0  0  0  0  0  0  0  0
    2.1944   -2.6600    0.0000 Cl   0  5  0  0  0  0  0  0  0  0  0  0
    2.1944    0.0000    0.0000 Cl   0  5  0  0  0  0  0  0  0  0  0  0
    3.5224   -1.3320    0.0000 Cl   0  5  0  0  0  0  0  0  0  0  0  0
    0.0000   -3.7774    0.0000 N    0  3  0  0  0  0  0  0  0  0  0  0
    4.0487   -3.8746    0.0000 N    0  3  0  0  0  0  0  0  0  0  0  0
  1  2  1  0  0  0  0
  1  3  1  0  0  0  0
  1  4  1  0  0  0  0
  1  5  1  0  0  0  0
M  END
> <ID>
14079

> <Formula>
H8Cl4N2Pt

> <FW>
372.9729 (336.8971+18.0379+18.0379)

> <DSSTox_CID>
29072

> <DSSTox_RID>
83291

> <DSSTox_GSID>
49216

> <DSSTox_FileID_Sort>
7966

> <TS_ChemName>
Ammonium tetrachloroplatinate(II)

> <TS_ChemName_Synonyms>


> <TS_CASRN>
13820-41-2

> <CASRN_ChemName_Relationship>
primary

> <TS_Description>
single chemical compound

> <ChemNote>


> <STRUCTURE_Shown>
tested chemical

> <STRUCTURE_Formula>
H8Cl4N2Pt

> <STRUCTURE_MW>
372.9729

> <STRUCTURE_ChemType>
inorganic

> <STRUCTURE_DefinedOrganicForm>


> <STRUCTURE_IUPAC>
diammonium tetrachloroplatinate(2-)

> <STRUCTURE_SMILES>
[NH4+].[NH4+].[Cl-][Pt+2]([Cl-])([Cl-])[Cl-]

> <STRUCTURE_SMILES_Desalt>
[Cl-][Pt+2]([Cl-])([Cl-])[Cl-]

> <Substance_modify_yyyymmdd>
20111204

$$$$
