13838-16-9
ChemmineR-0915142007XD

 10  9  0  0  0  0  0  0  0  0  1 V2000
    2.7910   -0.1799    0.0000 F    0  0  0  0  0  0  0  0  0  0  0  0
    3.4561   -1.3301    0.0000 C    0  0  0  0  0  0  0  0  0  0  0  0
    4.1211   -2.4857    0.0000 C    0  0  0  0  0  0  0  0  0  0  0  0
    3.4561   -3.6359    0.0000 F    0  0  0  0  0  0  0  0  0  0  0  0
    5.4512   -2.4857    0.0000 Cl   0  0  0  0  0  0  0  0  0  0  0  0
    2.3059   -1.9951    0.0000 O    0  0  0  0  0  0  0  0  0  0  0  0
    1.1502   -1.3301    0.0000 C    0  0  0  0  0  0  0  0  0  0  0  0
    1.1502    0.0000    0.0000 F    0  0  0  0  0  0  0  0  0  0  0  0
    0.0000   -1.9951    0.0000 F    0  0  0  0  0  0  0  0  0  0  0  0
    4.6063   -0.6650    0.0000 F    0  0  0  0  0  0  0  0  0  0  0  0
  1  2  1  0  0  0  0
  2  3  1  0  0  0  0
  2  6  1  0  0  0  0
  2 10  1  0  0  0  0
  3  4  1  0  0  0  0
  3  5  1  0  0  0  0
  6  7  1  0  0  0  0
  7  8  1  0  0  0  0
  7  9  1  0  0  0  0
M  END
> <ID>
538

> <Formula>
C3H2ClF5O

> <FW>
184.4924

> <DSSTox_CID>
562

> <DSSTox_RID>
75661

> <DSSTox_GSID>
20562

> <DSSTox_FileID_Sort>
345

> <TS_ChemName>
Enflurane

> <TS_ChemName_Synonyms>


> <TS_CASRN>
13838-16-9

> <CASRN_ChemName_Relationship>
primary

> <TS_Description>
single chemical compound

> <ChemNote>


> <STRUCTURE_Shown>
tested chemical

> <STRUCTURE_Formula>
C3H2ClF5O

> <STRUCTURE_MW>
184.4924

> <STRUCTURE_ChemType>
defined organic

> <STRUCTURE_DefinedOrganicForm>
parent

> <STRUCTURE_IUPAC>
2-chloro-1-(difluoromethoxy)-1,1,2-trifluoroethane

> <STRUCTURE_SMILES>
FC(Cl)C(F)(F)OC(F)F

> <STRUCTURE_SMILES_Desalt>
FC(Cl)C(F)(F)OC(F)F

> <Substance_modify_yyyymmdd>
20080429

$$$$
