13851-11-1
ChemmineR-0915142007XD

 14 15  0  0  0  0  0  0  0  0  1 V2000
    0.0000   -3.4635    0.0000 C   0  0  0  0  0  0  0  0  0  0  0  0
    0.5618   -2.4490    0.0000 C   0  0  0  0  0  0  0  0  0  0  0  0
    1.5490   -1.7508    0.0000 C   0  0  0  0  0  0  0  0  0  0  0  0
    1.1836   -2.8581    0.0000 C   0  0  0  0  0  0  0  0  0  0  0  0
    1.2927   -0.4854    0.0000 C   0  0  0  0  0  0  0  0  0  0  0  0
    2.7653   -2.4599    0.0000 C   0  0  0  0  0  0  0  0  0  0  0  0
    2.3072   -3.4362    0.0000 C   0  0  0  0  0  0  0  0  0  0  0  0
    2.5690   -1.0200    0.0000 C   0  0  0  0  0  0  0  0  0  0  0  0
    2.7217   -4.6198    0.0000 C   0  0  0  0  0  0  0  0  0  0  0  0
    3.5726   -3.4962    0.0000 C   0  0  0  0  0  0  0  0  0  0  0  0
    3.9817   -2.0999    0.0000 O   0  0  0  0  0  0  0  0  0  0  0  0
    4.2544   -0.8672    0.0000 C   0  0  0  0  0  0  0  0  0  0  0  0
    5.4543   -0.4854    0.0000 C   0  0  0  0  0  0  0  0  0  0  0  0
    3.3271    0.0000    0.0000 O   0  0  0  0  0  0  0  0  0  0  0  0
  1  2  1  0  0  0  0
  1  4  1  0  0  0  0
  2  3  1  0  0  0  0
  3  5  1  0  0  0  0
  3  6  1  0  0  0  0
  3  8  1  0  0  0  0
  4  5  1  0  0  0  0
  4  7  1  0  0  0  0
  6  7  1  0  0  0  0
  6 11  1  0  0  0  0
  7  9  1  0  0  0  0
  7 10  1  0  0  0  0
 11 12  1  0  0  0  0
 12 13  1  0  0  0  0
 12 14  2  0  0  0  0
M  END
> <ID>
12343

> <Formula>
C12H20O2

> <FW>
196.286

> <DSSTox_CID>
27197

> <DSSTox_RID>
82192

> <DSSTox_GSID>
47197

> <DSSTox_FileID_Sort>
6873

> <TS_ChemName>
Fenchyl acetate

> <TS_ChemName_Synonyms>


> <TS_CASRN>
13851-11-1

> <CASRN_ChemName_Relationship>
primary

> <TS_Description>
single chemical compound

> <ChemNote>


> <STRUCTURE_Shown>
tested chemical

> <STRUCTURE_Formula>
C12H20O2

> <STRUCTURE_MW>
196.286

> <STRUCTURE_ChemType>
defined organic

> <STRUCTURE_DefinedOrganicForm>
parent

> <STRUCTURE_IUPAC>
1,3,3-trimethylbicyclo[2.2.1]hept-2-yl acetate

> <STRUCTURE_SMILES>
CC(=O)OC2C(C)(C)C1CCC2(C)C1

> <STRUCTURE_SMILES_Desalt>
CC(=O)OC2C(C)(C)C1CCC2(C)C1

> <Substance_modify_yyyymmdd>
20100503

$$$$
