138786-67-1
ChemmineR-0915142007XD

 27 28  0  0  0  0  0  0  0  0  2 V2000
    7.0194   -0.2753    0.0000 N    0  5  0  0  0  0  0  0  0  0  0  0
    7.7901   -1.3213    0.0000 C    0  0  0  0  0  0  0  0  0  0  0  0
    7.0194   -2.4086    0.0000 N    0  0  0  0  0  0  0  0  0  0  0  0
    5.7531   -0.6606    0.0000 C    0  0  0  0  0  0  0  0  0  0  0  0
    5.7531   -1.9957    0.0000 C    0  0  0  0  0  0  0  0  0  0  0  0
    4.6108   -2.6701    0.0000 C    0  0  0  0  0  0  0  0  0  0  0  0
    3.4546   -1.9957    0.0000 C    0  0  0  0  0  0  0  0  0  0  0  0
    3.4546   -0.6606    0.0000 C    0  0  0  0  0  0  0  0  0  0  0  0
    4.6108    0.0000    0.0000 C    0  0  0  0  0  0  0  0  0  0  0  0
    2.3123   -2.6701    0.0000 O    0  0  0  0  0  0  0  0  0  0  0  0
    1.1561   -1.9957    0.0000 C    0  0  0  0  0  0  0  0  0  0  0  0
    1.1561   -0.6606    0.0000 F    0  0  0  0  0  0  0  0  0  0  0  0
    0.0000   -2.6701    0.0000 F    0  0  0  0  0  0  0  0  0  0  0  0
    9.1114   -1.3213    0.0000 S    0  0  0  0  0  0  0  0  0  0  0  0
    9.7858   -2.5049    0.0000 C    0  0  0  0  0  0  0  0  0  0  0  0
    9.7858   -0.1789    0.0000 O    0  0  0  0  0  0  0  0  0  0  0  0
   11.1209   -2.5049    0.0000 C    0  0  0  0  0  0  0  0  0  0  0  0
   11.7677   -1.3213    0.0000 N    0  0  0  0  0  0  0  0  0  0  0  0
   13.1028   -1.3213    0.0000 C    0  0  0  0  0  0  0  0  0  0  0  0
   13.7634   -2.5049    0.0000 C    0  0  0  0  0  0  0  0  0  0  0  0
   13.1028   -3.6198    0.0000 C    0  0  0  0  0  0  0  0  0  0  0  0
   11.7677   -3.6198    0.0000 C    0  0  0  0  0  0  0  0  0  0  0  0
   11.1209   -4.7759    0.0000 O    0  0  0  0  0  0  0  0  0  0  0  0
    9.7858   -4.7759    0.0000 C    0  0  0  0  0  0  0  0  0  0  0  0
   13.7634   -4.7759    0.0000 O    0  0  0  0  0  0  0  0  0  0  0  0
   13.1028   -5.9320    0.0000 C    0  0  0  0  0  0  0  0  0  0  0  0
    8.3957   -3.6198    0.0000 Na   0  3  0  0  0  0  0  0  0  0  0  0
  1  4  1  0  0  0  0
  1  2  1  0  0  0  0
  2 14  1  0  0  0  0
  2  3  2  0  0  0  0
  3  5  1  0  0  0  0
  4  9  1  0  0  0  0
  4  5  2  0  0  0  0
  5  6  1  0  0  0  0
  6  7  2  0  0  0  0
  7  8  1  0  0  0  0
  7 10  1  0  0  0  0
  8  9  2  0  0  0  0
 10 11  1  0  0  0  0
 11 13  1  0  0  0  0
 11 12  1  0  0  0  0
 14 15  1  0  0  0  0
 14 16  2  0  0  0  0
 15 17  1  0  0  0  0
 17 18  2  0  0  0  0
 17 22  1  0  0  0  0
 18 19  1  0  0  0  0
 19 20  2  0  0  0  0
 20 21  1  0  0  0  0
 21 22  2  0  0  0  0
 21 25  1  0  0  0  0
 22 23  1  0  0  0  0
 23 24  1  0  0  0  0
 25 26  1  0  0  0  0
M  END
> <ID>
9911

> <Formula>
C16H14F2N3NaO4S

> <FW>
405.3516 (382.3624+22.9892)

> <DSSTox_CID>
24215

> <DSSTox_RID>
80123

> <DSSTox_GSID>
44215

> <DSSTox_FileID_Sort>
4805

> <TS_ChemName>
Pantoprazole sodium

> <TS_ChemName_Synonyms>


> <TS_CASRN>
138786-67-1

> <CASRN_ChemName_Relationship>
primary

> <TS_Description>
single chemical compound

> <ChemNote>
parent [102625-70-7]

> <STRUCTURE_Shown>
tested chemical

> <STRUCTURE_Formula>
C16H14F2N3NaO4S

> <STRUCTURE_MW>
405.3516

> <STRUCTURE_ChemType>
defined organic

> <STRUCTURE_DefinedOrganicForm>
salt

> <STRUCTURE_IUPAC>
sodium 5-(difluoromethoxy)-2-{[(3,4-dimethoxypyridin-2-yl)methyl]sulfinyl}benzimidazol-1-ide

> <STRUCTURE_SMILES>
[Na+].COc3c(OC)ccnc3CS(=O)c1[n-]c2ccc(cc2n1)OC(F)F

> <STRUCTURE_SMILES_Desalt>
COc3c(OC)ccnc3CS(=O)c1nc2cc(ccc2n1)OC(F)F

> <Substance_modify_yyyymmdd>
20090302

$$$$
