138729-47-2
ChemmineR-0915142007XD

 27 30  0  0  1  0  0  0  0  0  1 V2000
    6.1030   -2.3543    0.0000 N    0  0  0  0  0  0  0  0  0  0  0  0
    5.3258   -3.4172    0.0000 C    0  0  0  0  0  0  0  0  0  0  0  0
    5.3258   -1.2915    0.0000 C    0  0  0  0  0  0  0  0  0  0  0  0
    4.0572   -1.6915    0.0000 C    0  0  0  0  0  0  0  0  0  0  0  0
    4.0572   -3.0286    0.0000 C    0  0  0  0  0  0  0  0  0  0  0  0
    5.9887   -4.5944    0.0000 O    0  0  0  0  0  0  0  0  0  0  0  0
    5.3258   -5.7487    0.0000 C    0  0  0  0  0  0  0  0  0  0  0  0
    7.4173   -2.3543    0.0000 C    0  0  0  0  0  0  0  0  0  0  0  0
    4.0115   -5.7487    0.0000 N    0  0  0  0  0  0  0  0  0  0  0  0
    8.0916   -1.2114    0.0000 N    0  0  0  0  0  0  0  0  0  0  0  0
    2.9143   -1.0172    0.0000 N    0  0  0  0  0  0  0  0  0  0  0  0
    2.9143   -3.6915    0.0000 N    0  0  0  0  0  0  0  0  0  0  0  0
    1.3372   -5.7487    0.0000 N    0  0  0  0  0  0  0  0  0  0  0  0
    5.7258    0.0000    0.0000 O    0  0  0  0  0  0  0  0  0  0  0  0
    5.9887   -6.8915    0.0000 O    0  0  0  0  0  0  0  0  0  0  0  0
    3.3372   -6.8915    0.0000 C    0  0  0  0  0  0  0  0  0  0  0  0
    3.3372   -4.5944    0.0000 C    0  0  0  0  0  0  0  0  0  0  0  0
    8.0916   -3.4972    0.0000 C    0  0  0  0  0  0  0  0  0  0  0  0
    2.0000   -6.8915    0.0000 C    0  0  0  0  0  0  0  0  0  0  0  0
    2.0000   -4.5944    0.0000 C    0  0  0  0  0  0  0  0  0  0  0  0
    9.4287   -1.2114    0.0000 C    0  0  0  0  0  0  0  0  0  0  0  0
   10.0916   -2.3543    0.0000 C    0  0  0  0  0  0  0  0  0  0  0  0
    9.4287   -3.4972    0.0000 C    0  0  0  0  0  0  0  0  0  0  0  0
   11.4288   -2.3543    0.0000 Cl   0  0  0  0  0  0  0  0  0  0  0  0
    0.0000   -5.7487    0.0000 C    0  0  0  0  0  0  0  0  0  0  0  0
    1.7600   -1.6915    0.0000 C    0  0  0  0  0  0  0  0  0  0  0  0
    1.7600   -3.0286    0.0000 C    0  0  0  0  0  0  0  0  0  0  0  0
  1  2  1  0  0  0  0
  1  3  1  0  0  0  0
  1  8  1  0  0  0  0
  2  5  1  0  0  0  0
  2  6  1  1  0  0  0
  3  4  1  0  0  0  0
  3 14  2  0  0  0  0
  4 11  2  0  0  0  0
  4  5  1  0  0  0  0
  5 12  2  0  0  0  0
  6  7  1  0  0  0  0
  7  9  1  0  0  0  0
  7 15  2  0  0  0  0
  8 10  2  0  0  0  0
  8 18  1  0  0  0  0
  9 16  1  0  0  0  0
  9 17  1  0  0  0  0
 10 21  1  0  0  0  0
 11 26  1  0  0  0  0
 12 27  1  0  0  0  0
 13 20  1  0  0  0  0
 13 25  1  0  0  0  0
 13 19  1  0  0  0  0
 16 19  1  0  0  0  0
 17 20  1  0  0  0  0
 18 23  2  0  0  0  0
 21 22  2  0  0  0  0
 22 23  1  0  0  0  0
 22 24  1  0  0  0  0
 26 27  2  0  0  0  0
M  END
> <ID>
11395

> <Formula>
C17H17ClN6O3

> <FW>
388.8083

> <DSSTox_CID>
26086

> <DSSTox_RID>
81327

> <DSSTox_GSID>
46086

> <DSSTox_FileID_Sort>
6008

> <TS_ChemName>
Eszopiclone

> <TS_ChemName_Synonyms>


> <TS_CASRN>
138729-47-2

> <CASRN_ChemName_Relationship>
primary

> <TS_Description>
single chemical compound

> <ChemNote>
stereochem

> <STRUCTURE_Shown>
tested chemical

> <STRUCTURE_Formula>
C17H17ClN6O3

> <STRUCTURE_MW>
388.8083

> <STRUCTURE_ChemType>
defined organic

> <STRUCTURE_DefinedOrganicForm>
parent

> <STRUCTURE_IUPAC>
(5S)-6-(5-chloropyridin-2-yl)-7-oxo-6,7-dihydro-5H-pyrrolo[3,4-b]pyrazin-5-yl 4-methylpiperazine-1-carboxylate

> <STRUCTURE_SMILES>
CN1CCN(CC1)C(=O)O[C@H]4c2nccnc2C(=O)N4c3ccc(Cl)cn3

> <STRUCTURE_SMILES_Desalt>
CN1CCN(CC1)C(=O)O[C@H]4c2nccnc2C(=O)N4c3ccc(Cl)cn3

> <Substance_modify_yyyymmdd>
20110819

$$$$
