13870-90-1
ChemmineR-0915142007XD

109119  0  0  1  0  0  0  0  0  2 V2000
    5.6444  -10.1600    0.0000 C    0  0  0  0  0  0  0  0  0  0  0  0
    5.6444   -8.9056    0.0000 C    0  0  0  0  0  0  0  0  0  0  0  0
    6.7984  -10.7620    0.0000 N    0  0  0  0  0  0  0  0  0  0  0  0
    4.7664  -11.0380    0.0000 C    0  0  0  0  0  0  0  0  0  0  0  0
    4.7162   -8.0527    0.0000 C    0  0  0  0  0  0  0  0  0  0  0  0
    6.7733   -8.3036    0.0000 N    0  0  0  0  0  0  0  0  0  0  0  0
    4.7664   -9.8088    0.0000 C    0  0  0  0  0  0  0  0  0  0  0  0
    6.5977  -11.9913    0.0000 C    0  0  0  0  0  0  0  0  0  0  0  0
    8.0276   -9.2318    0.0000 Co   0  3  0  0  0  0  0  0  0  0  0  0
    5.3685  -12.1920    0.0000 C    0  0  0  0  0  0  0  0  0  0  0  0
    3.6375  -10.4108    0.0000 C    0  0  0  0  0  0  0  0  0  0  0  0
    5.2430   -6.8987    0.0000 C    0  0  0  0  0  0  0  0  0  0  0  0
    3.6375   -7.4506    0.0000 C    0  0  0  0  0  0  0  0  0  0  0  0
    3.8382   -8.9809    0.0000 C    0  0  0  0  0  0  0  0  0  0  0  0
    6.4974   -7.0743    0.0000 C    0  0  0  0  0  0  0  0  0  0  0  0
    7.6012  -12.4930    0.0000 C    0  0  0  0  0  0  0  0  0  0  0  0
    9.2318   -3.0104    0.0000 C    0  0  0  0  0  0  0  0  0  0  0  0
    5.3685  -13.4714    0.0000 C    0  0  0  0  0  0  0  0  0  0  0  0
    4.2647  -12.7940    0.0000 C    0  0  0  0  0  0  0  0  0  0  0  0
    2.5588  -11.0380    0.0000 C    0  0  0  0  0  0  0  0  0  0  0  0
    4.6159   -5.8451    0.0000 C    0  0  0  0  0  0  0  0  0  0  0  0
    2.5086   -8.0527    0.0000 C    0  0  0  0  0  0  0  0  0  0  0  0
    7.6012   -6.4472    0.0000 C    0  0  0  0  0  0  0  0  0  0  0  0
    8.7300  -11.8407    0.0000 C    0  0  0  0  0  0  0  0  0  0  0  0
    7.6012  -13.7222    0.0000 C    0  0  0  0  0  0  0  0  0  0  0  0
   11.0380   -2.4083    0.0000 C    0  0  0  0  0  0  0  0  0  0  0  0
    4.2647  -14.0483    0.0000 C    0  0  0  0  0  0  0  0  0  0  0  0
    1.5804  -10.4108    0.0000 N    0  0  0  0  0  0  0  0  0  0  0  0
    2.5588  -12.3425    0.0000 O    0  0  0  0  0  0  0  0  0  0  0  0
    3.3616   -5.8451    0.0000 C    0  0  0  0  0  0  0  0  0  0  0  0
    1.5052   -7.4506    0.0000 N    0  0  0  0  0  0  0  0  0  0  0  0
    2.5086   -9.3070    0.0000 O    0  0  0  0  0  0  0  0  0  0  0  0
    8.7300   -6.9238    0.0000 C    0  0  0  0  0  0  0  0  0  0  0  0
    7.4005   -5.2430    0.0000 C    0  0  0  0  0  0  0  0  0  0  0  0
    9.8088  -12.4930    0.0000 C    0  0  0  0  0  0  0  0  0  0  0  0
    9.0060  -10.5864    0.0000 N    0  0  0  0  0  0  0  0  0  0  0  0
   12.1418   -3.2110    0.0000 O    0  0  0  0  0  0  0  0  0  0  0  0
   11.4394   -1.1038    0.0000 C    0  0  0  0  0  0  0  0  0  0  0  0
    4.2647  -15.3277    0.0000 C    0  0  0  0  0  0  0  0  0  0  0  0
    2.7344   -4.8166    0.0000 C    0  0  0  0  0  0  0  0  0  0  0  0
    9.8088   -6.2967    0.0000 C    0  0  0  0  0  0  0  0  0  0  0  0
    9.0060   -8.1781    0.0000 N    0  0  0  0  0  0  0  0  0  0  0  0
   10.7369  -11.6401    0.0000 C    0  0  0  0  0  0  0  0  0  0  0  0
   10.6868  -13.3710    0.0000 C    0  0  0  0  0  0  0  0  0  0  0  0
   10.2101  -10.5112    0.0000 C    0  0  0  0  0  0  0  0  0  0  0  0
   13.2456   -2.4083    0.0000 C    0  0  0  0  0  0  0  0  0  0  0  0
   12.8442   -1.1038    0.0000 C    0  0  0  0  0  0  0  0  0  0  0  0
   10.6366    0.0000    0.0000 O    0  0  0  0  0  0  0  0  0  0  0  0
    3.1609  -15.9549    0.0000 N    0  0  0  0  0  0  0  0  0  0  0  0
    5.3685  -15.9549    0.0000 O    0  0  0  0  0  0  0  0  0  0  0  0
    1.5052   -4.8166    0.0000 N    0  0  0  0  0  0  0  0  0  0  0  0
    3.3114   -3.7379    0.0000 O    0  0  0  0  0  0  0  0  0  0  0  0
   10.7369   -7.0994    0.0000 C    0  0  0  0  0  0  0  0  0  0  0  0
   10.6115   -5.3685    0.0000 C    0  0  0  0  0  0  0  0  0  0  0  0
    9.4575   -5.1678    0.0000 C    0  0  0  0  0  0  0  0  0  0  0  0
   10.2101   -8.3036    0.0000 C    0  0  0  0  0  0  0  0  0  0  0  0
   11.9411  -11.2888    0.0000 C    0  0  0  0  0  0  0  0  0  0  0  0
   11.8658  -12.2421    0.0000 C    0  0  0  0  0  0  0  0  0  0  0  0
   11.9411  -12.9195    0.0000 C    0  0  0  0  0  0  0  0  0  0  0  0
   10.8875   -9.4074    0.0000 C    0  0  0  0  0  0  0  0  0  0  0  0
   14.8009   -3.3114    0.0000 N    0  0  0  0  0  0  0  0  0  0  0  0
   13.5968    0.0000    0.0000 O    0  0  0  0  0  0  0  0  0  0  0  0
    2.1073  -15.3277    0.0000 C    0  0  0  0  0  0  0  0  0  0  0  0
   12.0163   -7.0994    0.0000 C    0  0  0  0  0  0  0  0  0  0  0  0
   11.8909   -5.3685    0.0000 C    0  0  0  0  0  0  0  0  0  0  0  0
   13.0449  -13.5717    0.0000 C    0  0  0  0  0  0  0  0  0  0  0  0
   16.0302   -3.7379    0.0000 C    0  0  0  0  0  0  0  0  0  0  0  0
   14.0985   -4.3901    0.0000 C    0  0  0  0  0  0  0  0  0  0  0  0
    1.0285  -15.9549    0.0000 C    0  0  0  0  0  0  0  0  0  0  0  0
   12.6435   -8.2283    0.0000 C    0  0  0  0  0  0  0  0  0  0  0  0
   12.5682   -6.3970    0.0000 N    0  0  0  0  0  0  0  0  0  0  0  0
   12.3425   -4.2145    0.0000 O    0  0  0  0  0  0  0  0  0  0  0  0
   14.1236  -12.9195    0.0000 N    0  0  0  0  0  0  0  0  0  0  0  0
   13.0449  -14.8009    0.0000 O    0  0  0  0  0  0  0  0  0  0  0  0
   16.0302   -5.0173    0.0000 C    0  0  0  0  0  0  0  0  0  0  0  0
   17.1590   -3.0856    0.0000 N    0  0  0  0  0  0  0  0  0  0  0  0
   14.8009   -5.3685    0.0000 N    0  0  0  0  0  0  0  0  0  0  0  0
    1.0285  -17.2343    0.0000 O    0  0  0  0  0  0  0  0  0  0  0  0
    0.0000  -15.3277    0.0000 C    0  0  0  0  0  0  0  0  0  0  0  0
   13.8978   -8.2283    0.0000 C    0  0  0  0  0  0  0  0  0  0  0  0
   17.1590   -5.6193    0.0000 C    0  0  0  0  0  0  0  0  0  0  0  0
   18.2127   -3.7379    0.0000 C    0  0  0  0  0  0  0  0  0  0  0  0
    2.1323  -17.8615    0.0000 P    0  0  0  0  0  0  0  0  0  0  0  0
   14.4999   -9.3070    0.0000 N    0  0  0  0  0  0  0  0  0  0  0  0
   14.4999   -7.0994    0.0000 O    0  0  0  0  0  0  0  0  0  0  0  0
   18.2127   -5.0173    0.0000 N    0  0  0  0  0  0  0  0  0  0  0  0
   17.1590   -6.8486    0.0000 N    0  0  0  0  0  0  0  0  0  0  0  0
    3.5873  -17.8615    0.0000 O    0  0  0  0  0  0  0  0  0  0  0  0
    2.7595  -16.7577    0.0000 O    0  0  0  0  0  0  0  0  0  0  0  0
    1.5052  -18.9903    0.0000 O    0  5  0  0  0  0  0  0  0  0  0  0
    4.3399  -18.8900    0.0000 C    0  0  0  0  0  0  0  0  0  0  0  0
    3.9386  -20.0941    0.0000 C    0  0  0  0  0  0  0  0  0  0  0  0
    5.6193  -18.8900    0.0000 C    0  0  0  0  0  0  0  0  0  0  0  0
    4.9671  -20.8467    0.0000 O    0  0  0  0  0  0  0  0  0  0  0  0
    2.7344  -20.4704    0.0000 C    0  0  0  0  0  0  0  0  0  0  0  0
    5.9956  -20.0941    0.0000 C    0  0  0  0  0  0  0  0  0  0  0  0
    6.3468  -17.8615    0.0000 O    0  0  0  0  0  0  0  0  0  0  0  0
    2.4835  -21.7248    0.0000 O    0  0  0  0  0  0  0  0  0  0  0  0
    7.8520  -20.5959    0.0000 N    0  0  0  0  0  0  0  0  0  0  0  0
    8.2283  -21.7749    0.0000 C    0  0  0  0  0  0  0  0  0  0  0  0
    8.8806  -19.8684    0.0000 C    0  0  0  0  0  0  0  0  0  0  0  0
    9.5077  -21.7749    0.0000 C    0  0  0  0  0  0  0  0  0  0  0  0
    7.6012  -22.8787    0.0000 C    0  0  0  0  0  0  0  0  0  0  0  0
    9.9091  -20.5959    0.0000 N    0  0  0  0  0  0  0  0  0  0  0  0
   10.1349  -22.8787    0.0000 C    0  0  0  0  0  0  0  0  0  0  0  0
    8.2283  -23.9825    0.0000 C    0  0  0  0  0  0  0  0  0  0  0  0
    9.5077  -23.9825    0.0000 C    0  0  0  0  0  0  0  0  0  0  0  0
    7.6012  -25.0863    0.0000 C    0  0  0  0  0  0  0  0  0  0  0  0
   10.1349  -25.0863    0.0000 C    0  0  0  0  0  0  0  0  0  0  0  0
  1  2  1  0  0  0  0
  1  3  1  0  0  0  0
  1  4  1  0  0  0  0
  2  5  1  0  0  0  0
  2  6  1  0  0  0  0
  2  7  1  0  0  0  0
  3  8  1  0  0  0  0
  3  9  1  0  0  0  0
  4 10  1  0  0  0  0
  4 11  1  0  0  0  0
  5 12  1  0  0  0  0
  5 13  1  0  0  0  0
  5 14  1  0  0  0  0
  6 15  2  0  0  0  0
  8 16  2  0  0  0  0
  8 10  1  0  0  0  0
  9 17  1  0  0  0  0
 10 18  1  0  0  0  0
 10 19  1  0  0  0  0
 11 20  1  0  0  0  0
 12 21  1  0  0  0  0
 12 15  1  0  0  0  0
 13 22  1  0  0  0  0
 15 23  1  0  0  0  0
 16 24  1  0  0  0  0
 16 25  1  0  0  0  0
 26 17  1  6  0  0  0
 18 27  1  0  0  0  0
 20 28  1  0  0  0  0
 20 29  2  0  0  0  0
 21 30  1  0  0  0  0
 22 31  1  0  0  0  0
 22 32  2  0  0  0  0
 23 33  2  0  0  0  0
 23 34  1  0  0  0  0
 24 35  1  0  0  0  0
 24 36  2  0  0  0  0
 26 37  1  0  0  0  0
 26 38  1  0  0  0  0
 27 39  1  0  0  0  0
 30 40  1  0  0  0  0
 33 41  1  0  0  0  0
 33 42  1  0  0  0  0
 35 43  1  0  0  0  0
 35 44  1  0  0  0  0
 36 45  1  0  0  0  0
 37 46  1  0  0  0  0
 38 47  1  0  0  0  0
 38 48  1  1  0  0  0
 39 49  1  0  0  0  0
 39 50  2  0  0  0  0
 40 51  1  0  0  0  0
 40 52  2  0  0  0  0
 41 53  1  0  0  0  0
 41 54  1  0  0  0  0
 41 55  1  0  0  0  0
 42 56  2  0  0  0  0
 43 57  1  0  0  0  0
 43 58  1  0  0  0  0
 43 45  1  0  0  0  0
 44 59  1  0  0  0  0
 45 60  2  0  0  0  0
 46 61  1  6  0  0  0
 46 47  1  0  0  0  0
 47 62  1  1  0  0  0
 49 63  1  0  0  0  0
 53 64  1  0  0  0  0
 53 56  1  0  0  0  0
 54 65  1  0  0  0  0
 56 60  1  0  0  0  0
 59 66  1  0  0  0  0
 61 67  1  0  0  0  0
 61 68  1  0  0  0  0
 63 69  1  0  0  0  0
 64 70  1  0  0  0  0
 65 71  1  0  0  0  0
 65 72  2  0  0  0  0
 66 73  1  0  0  0  0
 66 74  2  0  0  0  0
 67 75  2  0  0  0  0
 67 76  1  0  0  0  0
 68 77  2  0  0  0  0
 69 78  1  0  0  0  0
 69 79  1  0  0  0  0
 70 80  1  0  0  0  0
 75 81  1  0  0  0  0
 75 77  1  0  0  0  0
 76 82  2  0  0  0  0
 78 83  1  0  0  0  0
 80 84  1  0  0  0  0
 80 85  2  0  0  0  0
 81 86  2  0  0  0  0
 81 87  1  0  0  0  0
 82 86  1  0  0  0  0
 83 88  1  0  0  0  0
 83 89  2  0  0  0  0
 83 90  1  0  0  0  0
 91 88  1  1  0  0  0
 91 92  1  0  0  0  0
 91 93  1  0  0  0  0
 92 94  1  0  0  0  0
 92 95  1  6  0  0  0
 93 96  1  0  0  0  0
 93 97  1  1  0  0  0
 94 96  1  0  0  0  0
 95 98  1  0  0  0  0
 96 99  1  1  0  0  0
 99100  1  0  0  0  0
 99101  1  0  0  0  0
100102  2  0  0  0  0
100103  1  0  0  0  0
101104  2  0  0  0  0
102105  1  0  0  0  0
102104  1  0  0  0  0
103106  2  0  0  0  0
105107  2  0  0  0  0
106108  1  0  0  0  0
106107  1  0  0  0  0
107109  1  0  0  0  0
M  END
> <ID>
11353

> <Formula>
C72H100CoN18O17P

> <FW>
1579.5818

> <DSSTox_CID>
26009

> <DSSTox_RID>
81285

> <DSSTox_GSID>
46009

> <DSSTox_FileID_Sort>
5966

> <TS_ChemName>
Coenzyme B12

> <TS_ChemName_Synonyms>


> <TS_CASRN>
13870-90-1

> <CASRN_ChemName_Relationship>
primary

> <TS_Description>
single chemical compound

> <ChemNote>
stereochem

> <STRUCTURE_Shown>
tested chemical

> <STRUCTURE_Formula>
C72H100CoN18O17P

> <STRUCTURE_MW>
1579.5818

> <STRUCTURE_ChemType>
organometallic

> <STRUCTURE_DefinedOrganicForm>


> <STRUCTURE_IUPAC>
Desoxy-5'-adenosine-5'alpha-(dimethyl-5,6-benzimidazolyl)cobamide

> <STRUCTURE_SMILES>
NC(=O)CC%11C4N([Co+]C[C@H]3O[C@@H](n2cnc1c2ncnc1N)[C@H](O)[C@@H]3O)C(=C(C)C7=NC(=CC6=NC(=C(C)C5=NC4(C)C(C)(CC(=O)N)C5CCC(=O)N)C(C)(CC(=O)N)C6CCC(=O)N)C(C)(C)C7CCC(=O)N)C%11(C)CCC(=O)NCC(C)OP([O-])(=O)O[C@@H]%10[C@@H](CO)O[C@H](n9cnc8cc(C)c(C)cc89)[C@@H]%1

> <STRUCTURE_SMILES_Desalt>
NC(=O)CC%11C4N([Co+]C[C@H]3O[C@@H](n2cnc1c2ncnc1N)[C@H](O)[C@@H]3O)C(=C(C)C7=NC(=CC6=NC(=C(C)C5=NC4(C)C(C)(CC(=O)N)C5CCC(=O)N)C(C)(CC(=O)N)C6CCC(=O)N)C(C)(C)C7CCC(=O)N)C%11(C)CCC(=O)NCC(C)OP(=O)(O)O[C@@H]%10[C@@H](CO)O[C@H](n9cnc8cc(C)c(C)cc89)[C@@H]%10O

> <Substance_modify_yyyymmdd>
20110824

$$$$
