13889-92-4
ChemmineR-0915142007XD

  7  6  0  0  0  0  0  0  0  0  1 V2000
    4.6110    0.0000    0.0000 O    0  0  0  0  0  0  0  0  0  0  0  0
    4.6110   -1.3314    0.0000 C    0  0  0  0  0  0  0  0  0  0  0  0
    3.4582   -1.9942    0.0000 S    0  0  0  0  0  0  0  0  0  0  0  0
    2.3055   -1.3314    0.0000 C    0  0  0  0  0  0  0  0  0  0  0  0
    1.1527   -1.9942    0.0000 C    0  0  0  0  0  0  0  0  0  0  0  0
    0.0000   -1.3314    0.0000 C    0  0  0  0  0  0  0  0  0  0  0  0
    5.7637   -1.9942    0.0000 Cl   0  0  0  0  0  0  0  0  0  0  0  0
  1  2  2  0  0  0  0
  2  3  1  0  0  0  0
  2  7  1  0  0  0  0
  3  4  1  0  0  0  0
  4  5  1  0  0  0  0
  5  6  1  0  0  0  0
M  END
> <ID>
4483

> <Formula>
C4H7ClOS

> <FW>
138.6158

> <DSSTox_CID>
5963

> <DSSTox_RID>
77974

> <DSSTox_GSID>
25963

> <DSSTox_FileID_Sort>
2657

> <TS_ChemName>
S-(Propyl) chlorothioformate

> <TS_ChemName_Synonyms>
S-(Propyl) chlorothioformate (S-(n-propyl)chlorothioformic acid) (Carbonochloridothioic acid, S-propyl ester)

> <TS_CASRN>
13889-92-4

> <CASRN_ChemName_Relationship>
primary

> <TS_Description>
single chemical compound

> <ChemNote>


> <STRUCTURE_Shown>
tested chemical

> <STRUCTURE_Formula>
C4H7ClOS

> <STRUCTURE_MW>
138.6158

> <STRUCTURE_ChemType>
defined organic

> <STRUCTURE_DefinedOrganicForm>
parent

> <STRUCTURE_IUPAC>
S-propyl carbonochloridothioate

> <STRUCTURE_SMILES>
ClC(=O)SCCC

> <STRUCTURE_SMILES_Desalt>
ClC(=O)SCCC

> <Substance_modify_yyyymmdd>
20080429

$$$$
