138844-81-2
ChemmineR-0915142007XD

 20 18  0  0  0  0  0  0  0  0  2 V2000
    0.0000   -2.9874    0.0000 C    0  0  0  0  0  0  0  0  0  0  0  0
    1.1507   -3.6402    0.0000 C    0  0  0  0  0  0  0  0  0  0  0  0
    2.3014   -2.9874    0.0000 C    0  0  0  0  0  0  0  0  0  0  0  0
    3.4521   -3.6402    0.0000 C    0  0  0  0  0  0  0  0  0  0  0  0
    4.6249   -2.9874    0.0000 C    0  0  0  0  0  0  0  0  0  0  0  0
    5.7535   -3.6402    0.0000 N    0  0  0  0  0  0  0  0  0  0  0  0
    6.9153   -2.9874    0.0000 C    0  0  0  0  0  0  0  0  0  0  0  0
    8.0770   -3.6402    0.0000 C    0  0  0  0  0  0  0  0  0  0  0  0
    9.2388   -2.9874    0.0000 C    0  0  0  0  0  0  0  0  0  0  0  0
   10.3895   -2.3014    0.0000 O    0  0  0  0  0  0  0  0  0  0  0  0
    8.5639   -1.8256    0.0000 P    0  0  0  0  0  0  0  0  0  0  0  0
    7.9221   -0.6749    0.0000 O    0  0  0  0  0  0  0  0  0  0  0  0
    9.7256   -1.1618    0.0000 O    0  5  0  0  0  0  0  0  0  0  0  0
    7.4242   -2.5006    0.0000 O    0  0  0  0  0  0  0  0  0  0  0  0
    9.9027   -4.1270    0.0000 P    0  0  0  0  0  0  0  0  0  0  0  0
   10.5776   -5.2888    0.0000 O    0  0  0  0  0  0  0  0  0  0  0  0
    8.7630   -4.8020    0.0000 O    0  0  0  0  0  0  0  0  0  0  0  0
   11.0644   -3.4632    0.0000 O    0  0  0  0  0  0  0  0  0  0  0  0
    5.7535   -4.9790    0.0000 C    0  0  0  0  0  0  0  0  0  0  0  0
    9.1724    0.0000    0.0000 Na   0  3  0  0  0  0  0  0  0  0  0  0
  1  2  1  0  0  0  0
  2  3  1  0  0  0  0
  3  4  1  0  0  0  0
  4  5  1  0  0  0  0
  5  6  1  0  0  0  0
  6  7  1  0  0  0  0
  6 19  1  0  0  0  0
  7  8  1  0  0  0  0
  8  9  1  0  0  0  0
  9 10  1  0  0  0  0
  9 11  1  0  0  0  0
  9 15  1  0  0  0  0
 11 12  2  0  0  0  0
 11 13  1  0  0  0  0
 11 14  1  0  0  0  0
 15 16  2  0  0  0  0
 15 17  1  0  0  0  0
 15 18  1  0  0  0  0
M  END
> <ID>
11835

> <Formula>
C9H22NNaO7P2

> <FW>
341.2108 (318.2216+22.9892)

> <DSSTox_CID>
26618

> <DSSTox_RID>
81770

> <DSSTox_GSID>
46618

> <DSSTox_FileID_Sort>
6451

> <TS_ChemName>
Ibandronate sodium

> <TS_ChemName_Synonyms>


> <TS_CASRN>
138844-81-2

> <CASRN_ChemName_Relationship>
primary

> <TS_Description>
single chemical compound

> <ChemNote>


> <STRUCTURE_Shown>
tested chemical

> <STRUCTURE_Formula>
C9H22NNaO7P2

> <STRUCTURE_MW>
341.2108

> <STRUCTURE_ChemType>
defined organic

> <STRUCTURE_DefinedOrganicForm>
salt

> <STRUCTURE_IUPAC>
sodium hydrogen {1-hydroxy-3-[methyl(pentyl)amino]-1-phosphonopropyl}phosphonate

> <STRUCTURE_SMILES>
[Na+].OC(CCN(C)CCCCC)(P(O)([O-])=O)P(=O)(O)O

> <STRUCTURE_SMILES_Desalt>
OC(CCN(C)CCCCC)(P(O)(=O)O)P(=O)(O)O

> <Substance_modify_yyyymmdd>
20110809

$$$$
