138890-62-7
ChemmineR-0915142007XD

 23 24  0  0  1  0  0  0  0  0  1 V2000
    3.4489   -1.8290    0.0000 N   0  0  0  0  0  0  0  0  0  0  0  0
    3.4489   -3.1563    0.0000 C   0  0  0  0  0  0  0  0  0  0  0  0
    4.5985   -3.8252    0.0000 C   0  0  0  0  0  0  0  0  0  0  0  0
    4.5985   -1.1601    0.0000 S   0  0  0  0  0  0  0  0  0  0  0  0
    5.7482   -1.8290    0.0000 C   0  0  0  0  0  0  0  0  0  0  0  0
    5.7482   -3.1563    0.0000 C   0  0  0  0  0  0  0  0  0  0  0  0
    7.0128   -3.5639    0.0000 C   0  0  0  0  0  0  0  0  0  0  0  0
    7.7966   -2.4769    0.0000 C   0  0  0  0  0  0  0  0  0  0  0  0
    7.0128   -1.4318    0.0000 S   0  0  0  0  0  0  0  0  0  0  0  0
    4.5985   -5.1525    0.0000 N   0  0  0  0  0  0  0  0  0  0  0  0
    5.7482   -5.8213    0.0000 C   0  0  0  0  0  0  0  0  0  0  0  0
    6.9083   -5.1525    0.0000 C   0  0  0  0  0  0  0  0  0  0  0  0
    2.3202   -1.1601    0.0000 C   0  0  0  0  0  0  0  0  0  0  0  0
    1.1496   -1.8290    0.0000 C   0  0  0  0  0  0  0  0  0  0  0  0
    1.1496   -3.1563    0.0000 C   0  0  0  0  0  0  0  0  0  0  0  0
    0.0000   -3.8252    0.0000 O   0  0  0  0  0  0  0  0  0  0  0  0
    0.0000   -5.1525    0.0000 C   0  0  0  0  0  0  0  0  0  0  0  0
    5.2779    0.0000    0.0000 O   0  0  0  0  0  0  0  0  0  0  0  0
    3.9297    0.0000    0.0000 O   0  0  0  0  0  0  0  0  0  0  0  0
    9.1239   -2.4769    0.0000 S   0  0  0  0  0  0  0  0  0  0  0  0
   10.4512   -2.4769    0.0000 N   0  0  0  0  0  0  0  0  0  0  0  0
    9.1239   -3.8252    0.0000 O   0  0  0  0  0  0  0  0  0  0  0  0
    9.1239   -1.1601    0.0000 O   0  0  0  0  0  0  0  0  0  0  0  0
  1  2  1  0  0  0  0
  1 13  1  0  0  0  0
  1  4  1  0  0  0  0
  2  3  1  0  0  0  0
  3  6  1  0  0  0  0
  3 10  1  1  0  0  0
  4 18  2  0  0  0  0
  4 19  2  0  0  0  0
  4  5  1  0  0  0  0
  5  9  1  0  0  0  0
  5  6  2  0  0  0  0
  6  7  1  0  0  0  0
  7  8  2  0  0  0  0
  8  9  1  0  0  0  0
  8 20  1  0  0  0  0
 10 11  1  0  0  0  0
 11 12  1  0  0  0  0
 13 14  1  0  0  0  0
 14 15  1  0  0  0  0
 15 16  1  0  0  0  0
 16 17  1  0  0  0  0
 20 21  1  0  0  0  0
 20 22  2  0  0  0  0
 20 23  2  0  0  0  0
M  END
> <ID>
11002

> <Formula>
C12H21N3O5S3

> <FW>
383.5072

> <DSSTox_CID>
25531

> <DSSTox_RID>
80934

> <DSSTox_GSID>
45531

> <DSSTox_FileID_Sort>
5615

> <TS_ChemName>
Brinzolamide

> <TS_ChemName_Synonyms>


> <TS_CASRN>
138890-62-7

> <CASRN_ChemName_Relationship>
primary

> <TS_Description>
single chemical compound

> <ChemNote>
stereochem

> <STRUCTURE_Shown>
tested chemical

> <STRUCTURE_Formula>
C12H21N3O5S3

> <STRUCTURE_MW>
383.5072

> <STRUCTURE_ChemType>
defined organic

> <STRUCTURE_DefinedOrganicForm>
parent

> <STRUCTURE_IUPAC>
(4R)-4-(ethylamino)-2-(3-methoxypropyl)-3,4-dihydro-2H-thieno[3,2-e][1,2]thiazine-6-sulfonamide 1,1-dioxide

> <STRUCTURE_SMILES>
NS(=O)(=O)c1cc2[C@H](CN(CCCOC)S(=O)(=O)c2s1)NCC

> <STRUCTURE_SMILES_Desalt>
NS(=O)(=O)c1cc2[C@H](CN(CCCOC)S(=O)(=O)c2s1)NCC

> <Substance_modify_yyyymmdd>
20100107

$$$$
