13893-53-3
ChemmineR-0915142007XD

  8  7  0  0  0  0  0  0  0  0  1 V2000
    1.3303   -1.3303    0.0000 C   0  0  0  0  0  0  0  0  0  0  0  0
    2.6606   -1.3303    0.0000 C   0  0  0  0  0  0  0  0  0  0  0  0
    3.9955   -1.3303    0.0000 C   0  0  0  0  0  0  0  0  0  0  0  0
    4.6514   -2.4838    0.0000 C   0  0  0  0  0  0  0  0  0  0  0  0
    0.0000   -1.3303    0.0000 N   0  0  0  0  0  0  0  0  0  0  0  0
    2.6606   -2.6606    0.0000 N   0  0  0  0  0  0  0  0  0  0  0  0
    2.6606    0.0000    0.0000 C   0  0  0  0  0  0  0  0  0  0  0  0
    4.6514   -0.1768    0.0000 C   0  0  0  0  0  0  0  0  0  0  0  0
  1  2  1  0  0  0  0
  1  5  3  0  0  0  0
  2  3  1  0  0  0  0
  2  6  1  0  0  0  0
  2  7  1  0  0  0  0
  3  4  1  0  0  0  0
  3  8  1  0  0  0  0
M  END
> <ID>
5371

> <Formula>
C6H12N2

> <FW>
112.1729

> <DSSTox_CID>
7759

> <DSSTox_RID>
78557

> <DSSTox_GSID>
27759

> <DSSTox_FileID_Sort>
3240

> <TS_ChemName>
Butanenitrile, 2-amino-2,3-dimethyl-

> <TS_ChemName_Synonyms>


> <TS_CASRN>
13893-53-3

> <CASRN_ChemName_Relationship>
primary

> <TS_Description>
single chemical compound

> <ChemNote>


> <STRUCTURE_Shown>
tested chemical

> <STRUCTURE_Formula>
C6H12N2

> <STRUCTURE_MW>
112.1729

> <STRUCTURE_ChemType>
defined organic

> <STRUCTURE_DefinedOrganicForm>
parent

> <STRUCTURE_IUPAC>
2-amino-2,3-dimethylbutanenitrile

> <STRUCTURE_SMILES>
CC(C)C(C)(N)C#N

> <STRUCTURE_SMILES_Desalt>
CC(C)C(C)(N)C#N

> <Substance_modify_yyyymmdd>
20080429

$$$$
