13898-58-3
ChemmineR-0915142007XD

 19 20  0  0  0  0  0  0  0  0  1 V2000
    0.0000   -2.6608    0.0000 O   0  0  0  0  0  0  0  0  0  0  0  0
    1.1530   -1.9915    0.0000 C   0  0  0  0  0  0  0  0  0  0  0  0
    1.1530   -0.6612    0.0000 O   0  0  0  0  0  0  0  0  0  0  0  0
    2.3060   -2.6608    0.0000 C   0  0  0  0  0  0  0  0  0  0  0  0
    3.4590   -1.9915    0.0000 C   0  0  0  0  0  0  0  0  0  0  0  0
    4.6039   -2.6608    0.0000 C   0  0  0  0  0  0  0  0  0  0  0  0
    4.6039   -3.9911    0.0000 C   0  0  0  0  0  0  0  0  0  0  0  0
    5.7569   -4.6523    0.0000 N   0  0  0  0  0  0  0  0  0  0  0  0
    6.9099   -3.9911    0.0000 C   0  0  0  0  0  0  0  0  0  0  0  0
    8.0629   -4.6523    0.0000 O   0  0  0  0  0  0  0  0  0  0  0  0
    6.9099   -2.6608    0.0000 C   0  0  0  0  0  0  0  0  0  0  0  0
    5.7569   -1.9915    0.0000 C   0  0  0  0  0  0  0  0  0  0  0  0
    5.7569   -0.6612    0.0000 C   0  0  0  0  0  0  0  0  0  0  0  0
    6.9099    0.0000    0.0000 C   0  0  0  0  0  0  0  0  0  0  0  0
    8.0629   -0.6612    0.0000 C   0  0  0  0  0  0  0  0  0  0  0  0
    8.0629   -1.9915    0.0000 C   0  0  0  0  0  0  0  0  0  0  0  0
    3.4590   -4.6523    0.0000 C   0  0  0  0  0  0  0  0  0  0  0  0
    2.3060   -3.9911    0.0000 C   0  0  0  0  0  0  0  0  0  0  0  0
    1.1530   -4.6523    0.0000 O   0  0  0  0  0  0  0  0  0  0  0  0
  1  2  1  0  0  0  0
  2  3  2  0  0  0  0
  2  4  1  0  0  0  0
  4  5  2  0  0  0  0
  4 18  1  0  0  0  0
  5  6  1  0  0  0  0
  6  7  2  0  0  0  0
  7  8  1  0  0  0  0
  7 17  1  0  0  0  0
  8  9  1  0  0  0  0
  9 10  2  0  0  0  0
  9 11  1  0  0  0  0
 11 12  2  0  0  0  0
 11 16  1  0  0  0  0
 12 13  1  0  0  0  0
 13 14  2  0  0  0  0
 14 15  1  0  0  0  0
 15 16  2  0  0  0  0
 17 18  2  0  0  0  0
 18 19  1  0  0  0  0
M  END
> <ID>
11653

> <Formula>
C14H11NO4

> <FW>
257.2414

> <DSSTox_CID>
26406

> <DSSTox_RID>
81586

> <DSSTox_GSID>
46406

> <DSSTox_FileID_Sort>
6267

> <TS_ChemName>
Benzoylpas

> <TS_ChemName_Synonyms>


> <TS_CASRN>
13898-58-3

> <CASRN_ChemName_Relationship>
primary

> <TS_Description>
single chemical compound

> <ChemNote>


> <STRUCTURE_Shown>
tested chemical

> <STRUCTURE_Formula>
C14H11NO4

> <STRUCTURE_MW>
257.2414

> <STRUCTURE_ChemType>
defined organic

> <STRUCTURE_DefinedOrganicForm>
parent

> <STRUCTURE_IUPAC>
4-(benzoylamino)-2-hydroxybenzoic acid

> <STRUCTURE_SMILES>
OC(=O)c1ccc(cc1O)NC(=O)c2ccccc2

> <STRUCTURE_SMILES_Desalt>
OC(=O)c1ccc(cc1O)NC(=O)c2ccccc2

> <Substance_modify_yyyymmdd>
20110813

$$$$
