139-62-8
ChemmineR-0915142007XD

 26 28  0  0  0  0  0  0  0  0  1 V2000
    3.9925   -3.4537    0.0000 C   0  0  0  0  0  0  0  0  0  0  0  0
    3.3294   -2.3071    0.0000 C   0  0  0  0  0  0  0  0  0  0  0  0
    3.9925   -1.1466    0.0000 C   0  0  0  0  0  0  0  0  0  0  0  0
    3.3294    0.0000    0.0000 C   0  0  0  0  0  0  0  0  0  0  0  0
    1.9893    0.0000    0.0000 C   0  0  0  0  0  0  0  0  0  0  0  0
    1.3262   -1.1466    0.0000 C   0  0  0  0  0  0  0  0  0  0  0  0
    1.9893   -2.3071    0.0000 N   0  0  0  0  0  0  0  0  0  0  0  0
    1.3262   -3.4537    0.0000 C   0  0  0  0  0  0  0  0  0  0  0  0
    1.9893   -4.6003    0.0000 C   0  0  0  0  0  0  0  0  0  0  0  0
    1.3262   -5.7607    0.0000 C   0  0  0  0  0  0  0  0  0  0  0  0
    1.9893   -6.9074    0.0000 O   0  0  0  0  0  0  0  0  0  0  0  0
    1.3262   -8.0540    0.0000 C   0  0  0  0  0  0  0  0  0  0  0  0
    0.0000   -8.0540    0.0000 O   0  0  0  0  0  0  0  0  0  0  0  0
    1.9893   -9.2144    0.0000 C   0  0  0  0  0  0  0  0  0  0  0  0
    1.3262  -10.3611    0.0000 C   0  0  0  0  0  0  0  0  0  0  0  0
    1.9893  -11.5077    0.0000 C   0  0  0  0  0  0  0  0  0  0  0  0
    3.3294  -11.5077    0.0000 C   0  0  0  0  0  0  0  0  0  0  0  0
    3.9925  -12.6681    0.0000 O   0  0  0  0  0  0  0  0  0  0  0  0
    5.3187  -12.6681    0.0000 C   0  0  0  0  0  0  0  0  0  0  0  0
    5.9818  -13.8147    0.0000 C   0  0  0  0  0  0  0  0  0  0  0  0
    7.3080  -13.8147    0.0000 C   0  0  0  0  0  0  0  0  0  0  0  0
    7.9711  -12.6681    0.0000 C   0  0  0  0  0  0  0  0  0  0  0  0
    7.3080  -11.5077    0.0000 C   0  0  0  0  0  0  0  0  0  0  0  0
    5.9818  -11.5077    0.0000 C   0  0  0  0  0  0  0  0  0  0  0  0
    3.9925  -10.3611    0.0000 C   0  0  0  0  0  0  0  0  0  0  0  0
    3.3294   -9.2144    0.0000 C   0  0  0  0  0  0  0  0  0  0  0  0
  1  2  1  0  0  0  0
  2  3  1  0  0  0  0
  2  7  1  0  0  0  0
  3  4  1  0  0  0  0
  4  5  1  0  0  0  0
  5  6  1  0  0  0  0
  6  7  1  0  0  0  0
  7  8  1  0  0  0  0
  8  9  1  0  0  0  0
  9 10  1  0  0  0  0
 10 11  1  0  0  0  0
 11 12  1  0  0  0  0
 12 13  2  0  0  0  0
 12 14  1  0  0  0  0
 14 15  2  0  0  0  0
 14 26  1  0  0  0  0
 15 16  1  0  0  0  0
 16 17  2  0  0  0  0
 17 18  1  0  0  0  0
 17 25  1  0  0  0  0
 18 19  1  0  0  0  0
 19 20  1  0  0  0  0
 19 24  1  0  0  0  0
 20 21  1  0  0  0  0
 21 22  1  0  0  0  0
 22 23  1  0  0  0  0
 23 24  1  0  0  0  0
 25 26  2  0  0  0  0
M  END
> <ID>
16047

> <Formula>
C22H33NO3

> <FW>
359.5023

> <DSSTox_CID>
31432

> <DSSTox_RID>
97318

> <DSSTox_GSID>
57643

> <DSSTox_FileID_Sort>
8385

> <TS_ChemName>
Cyclomethycaine

> <TS_ChemName_Synonyms>


> <TS_CASRN>
139-62-8

> <CASRN_ChemName_Relationship>
primary

> <TS_Description>
single chemical compound

> <ChemNote>


> <STRUCTURE_Shown>
tested chemical

> <STRUCTURE_Formula>
C22H33NO3

> <STRUCTURE_MW>
359.5023

> <STRUCTURE_ChemType>
defined organic

> <STRUCTURE_DefinedOrganicForm>
parent

> <STRUCTURE_IUPAC>
3-(2-methylpiperidin-1-yl)propyl 4-(cyclohexyloxy)benzoate

> <STRUCTURE_SMILES>
CC3CCCCN3CCCOC(=O)c2ccc(OC1CCCCC1)cc2

> <STRUCTURE_SMILES_Desalt>
CC3CCCCN3CCCOC(=O)c2ccc(OC1CCCCC1)cc2

> <Substance_modify_yyyymmdd>
20131018

$$$$
