139-96-8
ChemmineR-0915142007XD

 27 25  0  0  0  0  0  0  0  0  1 V2000
    1.0855   -1.3450    0.0000 C   0  0  0  0  0  0  0  0  0  0  0  0
    2.2653   -1.9821    0.0000 C   0  0  0  0  0  0  0  0  0  0  0  0
    1.0855    0.0000    0.0000 O   0  0  0  0  0  0  0  0  0  0  0  0
    4.5542   -3.3272    0.0000 C   0  0  0  0  0  0  0  0  0  0  0  0
    3.4452   -4.0115    0.0000 C   0  0  0  0  0  0  0  0  0  0  0  0
    5.7341   -4.0115    0.0000 O   0  0  0  0  0  0  0  0  0  0  0  0
    1.1799   -5.3565    0.0000 C   0  0  0  0  0  0  0  0  0  0  0  0
    1.0855   -4.0115    0.0000 C   0  0  0  0  0  0  0  0  0  0  0  0
    0.0000   -5.9936    0.0000 O   0  0  0  0  0  0  0  0  0  0  0  0
    2.2653   -3.3272    0.0000 N   0  0  0  0  0  0  0  0  0  0  0  0
   22.2520   -2.6665    0.0000 S   0  0  0  0  0  0  0  0  0  0  0  0
   23.5970   -2.6665    0.0000 O   0  0  0  0  0  0  0  0  0  0  0  0
   20.9306   -2.6665    0.0000 O   0  0  0  0  0  0  0  0  0  0  0  0
   22.2520   -4.0115    0.0000 O   0  0  0  0  0  0  0  0  0  0  0  0
   22.2520   -1.3450    0.0000 O   0  0  0  0  0  0  0  0  0  0  0  0
   21.0721   -4.6486    0.0000 C   0  0  0  0  0  0  0  0  0  0  0  0
   19.9867   -4.0115    0.0000 C   0  0  0  0  0  0  0  0  0  0  0  0
   18.8068   -4.6486    0.0000 C   0  0  0  0  0  0  0  0  0  0  0  0
   17.6270   -4.0115    0.0000 C   0  0  0  0  0  0  0  0  0  0  0  0
   16.5179   -4.6486    0.0000 C   0  0  0  0  0  0  0  0  0  0  0  0
   15.3381   -4.0115    0.0000 C   0  0  0  0  0  0  0  0  0  0  0  0
   14.1582   -4.6486    0.0000 C   0  0  0  0  0  0  0  0  0  0  0  0
   12.9784   -4.0115    0.0000 C   0  0  0  0  0  0  0  0  0  0  0  0
   11.8693   -4.6486    0.0000 C   0  0  0  0  0  0  0  0  0  0  0  0
   10.7130   -4.0115    0.0000 C   0  0  0  0  0  0  0  0  0  0  0  0
    9.5804   -4.6486    0.0000 C   0  0  0  0  0  0  0  0  0  0  0  0
    8.4241   -4.0115    0.0000 C   0  0  0  0  0  0  0  0  0  0  0  0
  1  2  1  0  0  0  0
  1  3  1  0  0  0  0
  2 10  1  0  0  0  0
  4  5  1  0  0  0  0
  4  6  1  0  0  0  0
  5 10  1  0  0  0  0
  7  8  1  0  0  0  0
  7  9  1  0  0  0  0
  8 10  1  0  0  0  0
 11 12  2  0  0  0  0
 11 13  2  0  0  0  0
 11 14  1  0  0  0  0
 11 15  1  0  0  0  0
 14 16  1  0  0  0  0
 16 17  1  0  0  0  0
 17 18  1  0  0  0  0
 18 19  1  0  0  0  0
 19 20  1  0  0  0  0
 20 21  1  0  0  0  0
 21 22  1  0  0  0  0
 22 23  1  0  0  0  0
 23 24  1  0  0  0  0
 24 25  1  0  0  0  0
 25 26  1  0  0  0  0
 26 27  1  0  0  0  0
M  END
> <ID>
4919

> <Formula>
C18H41NO7S

> <FW>
415.5856 (149.1882+266.3974)

> <DSSTox_CID>
7076

> <DSSTox_RID>
78301

> <DSSTox_GSID>
27076

> <DSSTox_FileID_Sort>
2984

> <TS_ChemName>
Dodecyl sulfate triethanolamine

> <TS_ChemName_Synonyms>
Sulfuric acid, monododecyl ester, compd. with 2,2',2''-nitrilotris[ethanol] (1:1) (Sulfuric acid, monododecyl ester, compd. with 2,2',2''-nitrilotris[ethanol] (1:1))

> <TS_CASRN>
139-96-8

> <CASRN_ChemName_Relationship>
primary

> <TS_Description>
single chemical compound

> <ChemNote>
parent [151-41-7]

> <STRUCTURE_Shown>
tested chemical

> <STRUCTURE_Formula>
C18H41NO7S

> <STRUCTURE_MW>
415.5856

> <STRUCTURE_ChemType>
defined organic

> <STRUCTURE_DefinedOrganicForm>
complex

> <STRUCTURE_IUPAC>
dodecyl hydrogen sulfate - 2,2',2''-nitrilotriethanol (1:1)

> <STRUCTURE_SMILES>
OCCN(CCO)CCO.OS(=O)(=O)OCCCCCCCCCCCC

> <STRUCTURE_SMILES_Desalt>
OS(=O)(=O)OCCCCCCCCCCCC

> <Substance_modify_yyyymmdd>
20120607

$$$$
