13909-09-6
ChemmineR-0915142007XD

 16 16  0  0  0  0  0  0  0  0  1 V2000
    5.7541   -1.9905    0.0000 C    0  0  0  0  0  0  0  0  0  0  0  0
    5.7541   -0.6608    0.0000 O    0  0  0  0  0  0  0  0  0  0  0  0
    6.9065   -2.6594    0.0000 N    0  0  0  0  0  0  0  0  0  0  0  0
    4.6016   -2.6594    0.0000 N    0  0  0  0  0  0  0  0  0  0  0  0
    6.9065   -3.9892    0.0000 C    0  0  0  0  0  0  0  0  0  0  0  0
    8.0589   -4.6500    0.0000 C    0  0  0  0  0  0  0  0  0  0  0  0
    8.0589   -5.9797    0.0000 Cl   0  0  0  0  0  0  0  0  0  0  0  0
    3.4573   -1.9905    0.0000 C    0  0  0  0  0  0  0  0  0  0  0  0
    2.3048   -2.6594    0.0000 C    0  0  0  0  0  0  0  0  0  0  0  0
    1.1524   -1.9905    0.0000 C    0  0  0  0  0  0  0  0  0  0  0  0
    1.1524   -0.6608    0.0000 C    0  0  0  0  0  0  0  0  0  0  0  0
    2.3048    0.0000    0.0000 C    0  0  0  0  0  0  0  0  0  0  0  0
    3.4573   -0.6608    0.0000 C    0  0  0  0  0  0  0  0  0  0  0  0
    0.0000    0.0000    0.0000 C    0  0  0  0  0  0  0  0  0  0  0  0
    8.0589   -1.9905    0.0000 N    0  0  0  0  0  0  0  0  0  0  0  0
    8.0589   -0.6608    0.0000 O    0  0  0  0  0  0  0  0  0  0  0  0
  1  2  2  0  0  0  0
  1  3  1  0  0  0  0
  1  4  1  0  0  0  0
  3  5  1  0  0  0  0
  3 15  1  0  0  0  0
  4  8  1  0  0  0  0
  5  6  1  0  0  0  0
  6  7  1  0  0  0  0
  8  9  1  0  0  0  0
  8 13  1  0  0  0  0
  9 10  1  0  0  0  0
 10 11  1  0  0  0  0
 11 12  1  0  0  0  0
 11 14  1  0  0  0  0
 12 13  1  0  0  0  0
 15 16  2  0  0  0  0
M  END
> <ID>
6345

> <Formula>
C10H18ClN3O2

> <FW>
247.7218

> <DSSTox_CID>
11603

> <DSSTox_RID>
78887

> <DSSTox_GSID>
31603

> <DSSTox_FileID_Sort>
3569

> <TS_ChemName>
Semustine

> <TS_ChemName_Synonyms>
N-(2-Chloroethyl)-2-(4-methylcyclohexyl)-N-nitrosoacetamide (Methyl CCNU) (Semustine)

> <TS_CASRN>
13909-09-6

> <CASRN_ChemName_Relationship>
primary

> <TS_Description>
single chemical compound

> <ChemNote>


> <STRUCTURE_Shown>
tested chemical

> <STRUCTURE_Formula>
C10H18ClN3O2

> <STRUCTURE_MW>
247.7218

> <STRUCTURE_ChemType>
defined organic

> <STRUCTURE_DefinedOrganicForm>
parent

> <STRUCTURE_IUPAC>
1-(2-chloroethyl)-3-(4-methylcyclohexyl)-1-nitrosourea

> <STRUCTURE_SMILES>
O=C(NC1CCC(C)CC1)N(CCCl)N=O

> <STRUCTURE_SMILES_Desalt>
O=C(NC1CCC(C)CC1)N(CCCl)N=O

> <Substance_modify_yyyymmdd>
20080429

$$$$
