13912-80-6
ChemmineR-0915142007XD

 16 16  0  0  0  0  0  0  0  0  1 V2000
    2.6566  -12.6504    0.0000 C   0  0  0  0  0  0  0  0  0  0  0  0
    1.9861  -11.4992    0.0000 C   0  0  0  0  0  0  0  0  0  0  0  0
    2.6566  -10.3481    0.0000 C   0  0  0  0  0  0  0  0  0  0  0  0
    1.9861   -9.1969    0.0000 C   0  0  0  0  0  0  0  0  0  0  0  0
    2.6566   -8.0457    0.0000 O   0  0  0  0  0  0  0  0  0  0  0  0
    1.9861   -6.8945    0.0000 C   0  0  0  0  0  0  0  0  0  0  0  0
    2.6566   -5.7559    0.0000 C   0  0  0  0  0  0  0  0  0  0  0  0
    1.9861   -4.6048    0.0000 O   0  0  0  0  0  0  0  0  0  0  0  0
    2.6566   -3.4536    0.0000 C   0  0  0  0  0  0  0  0  0  0  0  0
    3.9849   -3.4536    0.0000 O   0  0  0  0  0  0  0  0  0  0  0  0
    1.9861   -2.3024    0.0000 C   0  0  0  0  0  0  0  0  0  0  0  0
    2.6566   -1.1512    0.0000 C   0  0  0  0  0  0  0  0  0  0  0  0
    1.9861    0.0000    0.0000 C   0  0  0  0  0  0  0  0  0  0  0  0
    0.6578    0.0000    0.0000 C   0  0  0  0  0  0  0  0  0  0  0  0
    0.0000   -1.1512    0.0000 N   0  0  0  0  0  0  0  0  0  0  0  0
    0.6578   -2.3024    0.0000 C   0  0  0  0  0  0  0  0  0  0  0  0
  1  2  1  0  0  0  0
  2  3  1  0  0  0  0
  3  4  1  0  0  0  0
  4  5  1  0  0  0  0
  5  6  1  0  0  0  0
  6  7  1  0  0  0  0
  7  8  1  0  0  0  0
  8  9  1  0  0  0  0
  9 10  2  0  0  0  0
  9 11  1  0  0  0  0
 11 12  2  0  0  0  0
 11 16  1  0  0  0  0
 12 13  1  0  0  0  0
 13 14  2  0  0  0  0
 14 15  1  0  0  0  0
 15 16  2  0  0  0  0
M  END
> <ID>
16039

> <Formula>
C12H17NO3

> <FW>
223.2683

> <DSSTox_CID>
31424

> <DSSTox_RID>
97310

> <DSSTox_GSID>
57635

> <DSSTox_FileID_Sort>
8377

> <TS_ChemName>
Nicoboxil

> <TS_ChemName_Synonyms>
2-Butoxyethyl nicotinate

> <TS_CASRN>
13912-80-6

> <CASRN_ChemName_Relationship>
primary

> <TS_Description>
single chemical compound

> <ChemNote>


> <STRUCTURE_Shown>
tested chemical

> <STRUCTURE_Formula>
C12H17NO3

> <STRUCTURE_MW>
223.2683

> <STRUCTURE_ChemType>
defined organic

> <STRUCTURE_DefinedOrganicForm>
parent

> <STRUCTURE_IUPAC>
2-butoxyethyl nicotinate

> <STRUCTURE_SMILES>
O=C(OCCOCCCC)c1cccnc1

> <STRUCTURE_SMILES_Desalt>
O=C(OCCOCCCC)c1cccnc1

> <Substance_modify_yyyymmdd>
20131121

$$$$
