139149-55-6
ChemmineR-0915142007XD

 22 24  0  0  1  0  0  0  0  0  1 V2000
   11.9376   -2.2562    0.0000 N   0  0  0  0  0  0  0  0  0  0  0  0
   11.0423   -1.2654    0.0000 C   0  0  0  0  0  0  0  0  0  0  0  0
   11.4601    0.0000    0.0000 O   0  0  0  0  0  0  0  0  0  0  0  0
    9.7411   -1.5399    0.0000 N   0  0  0  0  0  0  0  0  0  0  0  0
    8.8577   -0.5491    0.0000 O   0  0  0  0  0  0  0  0  0  0  0  0
    9.3471   -2.8053    0.0000 C   0  0  0  0  0  0  0  0  0  0  0  0
   10.1111   -3.8797    0.0000 C   0  0  0  0  0  0  0  0  0  0  0  0
    9.3471   -4.9541    0.0000 O   0  0  0  0  0  0  0  0  0  0  0  0
    8.0817   -4.5482    0.0000 C   0  0  0  0  0  0  0  0  0  0  0  0
    6.9238   -5.2048    0.0000 C   0  0  0  0  0  0  0  0  0  0  0  0
    5.7659   -4.5482    0.0000 C   0  0  0  0  0  0  0  0  0  0  0  0
    4.6198   -5.2048    0.0000 O   0  0  0  0  0  0  0  0  0  0  0  0
    3.4619   -4.5482    0.0000 C   0  0  0  0  0  0  0  0  0  0  0  0
    2.3040   -5.2048    0.0000 C   0  0  0  0  0  0  0  0  0  0  0  0
    2.3040   -6.5418    0.0000 C   0  0  0  0  0  0  0  0  0  0  0  0
    1.1579   -7.2103    0.0000 C   0  0  0  0  0  0  0  0  0  0  0  0
    0.0000   -6.5418    0.0000 C   0  0  0  0  0  0  0  0  0  0  0  0
    0.0000   -5.2048    0.0000 C   0  0  0  0  0  0  0  0  0  0  0  0
    1.1579   -4.5482    0.0000 C   0  0  0  0  0  0  0  0  0  0  0  0
    5.7659   -3.2231    0.0000 C   0  0  0  0  0  0  0  0  0  0  0  0
    6.9238   -2.5427    0.0000 C   0  0  0  0  0  0  0  0  0  0  0  0
    8.0817   -3.2231    0.0000 C   0  0  0  0  0  0  0  0  0  0  0  0
  1  2  1  0  0  0  0
  2  3  2  0  0  0  0
  2  4  1  0  0  0  0
  4  5  1  0  0  0  0
  6  4  1  6  0  0  0
  6  7  1  0  0  0  0
  6 22  1  0  0  0  0
  7  8  1  0  0  0  0
  8  9  1  0  0  0  0
  9 10  1  0  0  0  0
  9 22  2  0  0  0  0
 10 11  2  0  0  0  0
 11 12  1  0  0  0  0
 11 20  1  0  0  0  0
 12 13  1  0  0  0  0
 13 14  1  0  0  0  0
 14 15  1  0  0  0  0
 14 19  2  0  0  0  0
 15 16  2  0  0  0  0
 16 17  1  0  0  0  0
 17 18  2  0  0  0  0
 18 19  1  0  0  0  0
 20 21  2  0  0  0  0
 21 22  1  0  0  0  0
M  END
> <ID>
12460

> <Formula>
C16H16N2O4

> <FW>
300.3092

> <DSSTox_CID>
27318

> <DSSTox_RID>
82266

> <DSSTox_GSID>
47318

> <DSSTox_FileID_Sort>
6947

> <TS_ChemName>
SB202235

> <TS_ChemName_Synonyms>


> <TS_CASRN>
139149-55-6

> <CASRN_ChemName_Relationship>
primary

> <TS_Description>
single chemical compound

> <ChemNote>
stereochem

> <STRUCTURE_Shown>
tested chemical

> <STRUCTURE_Formula>
C16H16N2O4

> <STRUCTURE_MW>
300.3092

> <STRUCTURE_ChemType>
defined organic

> <STRUCTURE_DefinedOrganicForm>
parent

> <STRUCTURE_IUPAC>
1-[(3S)-6-(benzyloxy)-2,3-dihydro-1-benzofuran-3-yl]-1-hydroxyurea

> <STRUCTURE_SMILES>
NC(=O)N(O)[C@@H]2COc1cc(ccc12)OCc3ccccc3

> <STRUCTURE_SMILES_Desalt>
NC(=O)N(O)[C@@H]2COc1cc(ccc12)OCc3ccccc3

> <Substance_modify_yyyymmdd>
20130910

$$$$
