139264-17-8
ChemmineR-0915142007XD

 21 23  0  0  1  0  0  0  0  0  1 V2000
    0.0000   -2.3694    0.0000 O   0  0  0  0  0  0  0  0  0  0  0  0
    0.6607   -1.2075    0.0000 C   0  0  0  0  0  0  0  0  0  0  0  0
    0.8771   -3.3604    0.0000 C   0  0  0  0  0  0  0  0  0  0  0  0
    1.9593   -1.5036    0.0000 N   0  0  0  0  0  0  0  0  0  0  0  0
    2.0960   -2.8136    0.0000 C   0  0  0  0  0  0  0  0  0  0  0  0
    3.2579   -3.4857    0.0000 C   0  0  0  0  0  0  0  0  0  0  0  0
    4.4084   -2.8136    0.0000 C   0  0  0  0  0  0  0  0  0  0  0  0
    4.4084   -1.4809    0.0000 C   0  0  0  0  0  0  0  0  0  0  0  0
    5.5589   -3.4857    0.0000 C   0  0  0  0  0  0  0  0  0  0  0  0
    5.5589   -0.8316    0.0000 C   0  0  0  0  0  0  0  0  0  0  0  0
    6.6980   -2.8136    0.0000 C   0  0  0  0  0  0  0  0  0  0  0  0
    6.6980   -1.4809    0.0000 C   0  0  0  0  0  0  0  0  0  0  0  0
    7.9625   -3.2351    0.0000 C   0  0  0  0  0  0  0  0  0  0  0  0
    8.7485   -2.1529    0.0000 C   0  0  0  0  0  0  0  0  0  0  0  0
    7.9625   -1.0708    0.0000 N   0  0  0  0  0  0  0  0  0  0  0  0
    8.3839   -4.4995    0.0000 C   0  0  0  0  0  0  0  0  0  0  0  0
    9.6825   -4.7729    0.0000 C   0  0  0  0  0  0  0  0  0  0  0  0
   10.0926   -6.0374    0.0000 N   0  0  0  0  0  0  0  0  0  0  0  0
   11.3912   -6.3107    0.0000 C   0  0  0  0  0  0  0  0  0  0  0  0
    9.1927   -7.0284    0.0000 C   0  0  0  0  0  0  0  0  0  0  0  0
    0.1139    0.0000    0.0000 O   0  0  0  0  0  0  0  0  0  0  0  0
  1  2  1  0  0  0  0
  1  3  1  0  0  0  0
  2  4  1  0  0  0  0
  2 21  2  0  0  0  0
  3  5  1  0  0  0  0
  4  5  1  0  0  0  0
  5  6  1  1  0  0  0
  6  7  1  0  0  0  0
  7  8  1  0  0  0  0
  7  9  2  0  0  0  0
  8 10  2  0  0  0  0
  9 11  1  0  0  0  0
 10 12  1  0  0  0  0
 11 12  2  0  0  0  0
 11 13  1  0  0  0  0
 12 15  1  0  0  0  0
 13 14  2  0  0  0  0
 13 16  1  0  0  0  0
 14 15  1  0  0  0  0
 16 17  1  0  0  0  0
 17 18  1  0  0  0  0
 18 19  1  0  0  0  0
 18 20  1  0  0  0  0
M  END
> <ID>
11300

> <Formula>
C16H21N3O2

> <FW>
287.3568

> <DSSTox_CID>
25933

> <DSSTox_RID>
81232

> <DSSTox_GSID>
45933

> <DSSTox_FileID_Sort>
5913

> <TS_ChemName>
Zolmitriptan

> <TS_ChemName_Synonyms>


> <TS_CASRN>
139264-17-8

> <CASRN_ChemName_Relationship>
primary

> <TS_Description>
single chemical compound

> <ChemNote>
stereochem

> <STRUCTURE_Shown>
tested chemical

> <STRUCTURE_Formula>
C16H21N3O2

> <STRUCTURE_MW>
287.3568

> <STRUCTURE_ChemType>
defined organic

> <STRUCTURE_DefinedOrganicForm>
parent

> <STRUCTURE_IUPAC>
(4S)-4-({3-[2-(dimethylamino)ethyl]-1H-indol-5-yl}methyl)-1,3-oxazolidin-2-one

> <STRUCTURE_SMILES>
CN(C)CCc2cnc1ccc(cc12)C[C@@H]3NC(=O)OC3

> <STRUCTURE_SMILES_Desalt>
CN(C)CCc2cnc1ccc(cc12)C[C@@H]3NC(=O)OC3

> <Substance_modify_yyyymmdd>
20110930

$$$$
