139290-65-6
ChemmineR-0915142007XD

 27 29  0  0  1  0  0  0  0  0  1 V2000
    3.4539   -2.0013    0.0000 C   0  0  0  0  0  0  0  0  0  0  0  0
    4.6160   -2.6631    0.0000 C   0  0  0  0  0  0  0  0  0  0  0  0
    2.3080   -2.6631    0.0000 C   0  0  0  0  0  0  0  0  0  0  0  0
    4.6160   -4.0027    0.0000 C   0  0  0  0  0  0  0  0  0  0  0  0
    2.3080   -4.0027    0.0000 C   0  0  0  0  0  0  0  0  0  0  0  0
    3.4539   -4.6644    0.0000 C   0  0  0  0  0  0  0  0  0  0  0  0
    1.1621   -2.0013    0.0000 O   0  0  0  0  0  0  0  0  0  0  0  0
    0.0000   -2.6631    0.0000 C   0  0  0  0  0  0  0  0  0  0  0  0
    3.4539   -0.6617    0.0000 O   0  0  0  0  0  0  0  0  0  0  0  0
    2.3080    0.0000    0.0000 C   0  0  0  0  0  0  0  0  0  0  0  0
    5.7781   -2.0013    0.0000 C   0  0  0  0  0  0  0  0  0  0  0  0
    6.9240   -2.6631    0.0000 C   0  0  0  0  0  0  0  0  0  0  0  0
    5.7781   -0.6617    0.0000 O   0  0  0  0  0  0  0  0  0  0  0  0
    6.9240   -4.0027    0.0000 C   0  0  0  0  0  0  0  0  0  0  0  0
    8.0699   -4.6483    0.0000 C   0  0  0  0  0  0  0  0  0  0  0  0
    9.2159   -4.0027    0.0000 N   0  0  0  0  0  0  0  0  0  0  0  0
    8.0699   -2.0013    0.0000 C   0  0  0  0  0  0  0  0  0  0  0  0
    9.2320   -2.6792    0.0000 C   0  0  0  0  0  0  0  0  0  0  0  0
   10.3618   -4.6483    0.0000 C   0  0  0  0  0  0  0  0  0  0  0  0
   11.5239   -4.0027    0.0000 C   0  0  0  0  0  0  0  0  0  0  0  0
   13.8480   -4.0027    0.0000 C   0  0  0  0  0  0  0  0  0  0  0  0
   14.9778   -4.6644    0.0000 C   0  0  0  0  0  0  0  0  0  0  0  0
   12.6859   -4.6483    0.0000 C   0  0  0  0  0  0  0  0  0  0  0  0
   14.9778   -6.0040    0.0000 C   0  0  0  0  0  0  0  0  0  0  0  0
   12.6859   -5.9879    0.0000 C   0  0  0  0  0  0  0  0  0  0  0  0
   13.8480   -6.6658    0.0000 C   0  0  0  0  0  0  0  0  0  0  0  0
   16.1399   -6.6658    0.0000 F   0  0  0  0  0  0  0  0  0  0  0  0
  1  2  1  0  0  0  0
  1  3  2  0  0  0  0
  1  9  1  0  0  0  0
  2  4  2  0  0  0  0
  2 11  1  0  0  0  0
  3  5  1  0  0  0  0
  3  7  1  0  0  0  0
  4  6  1  0  0  0  0
  5  6  2  0  0  0  0
  7  8  1  0  0  0  0
  9 10  1  0  0  0  0
 11 12  1  0  0  0  0
 11 13  1  6  0  0  0
 12 14  1  0  0  0  0
 12 17  1  0  0  0  0
 14 15  1  0  0  0  0
 15 16  1  0  0  0  0
 16 18  1  0  0  0  0
 16 19  1  0  0  0  0
 17 18  1  0  0  0  0
 19 20  1  0  0  0  0
 20 23  1  0  0  0  0
 21 22  1  0  0  0  0
 21 23  2  0  0  0  0
 22 24  2  0  0  0  0
 23 25  1  0  0  0  0
 24 26  1  0  0  0  0
 24 27  1  0  0  0  0
 25 26  2  0  0  0  0
M  END
> <ID>
12505

> <Formula>
C22H28FNO3

> <FW>
373.461

> <DSSTox_CID>
27363

> <DSSTox_RID>
82298

> <DSSTox_GSID>
47363

> <DSSTox_FileID_Sort>
6979

> <TS_ChemName>
Volinanserin

> <TS_ChemName_Synonyms>
A000369058; M100907

> <TS_CASRN>
139290-65-6

> <CASRN_ChemName_Relationship>
primary

> <TS_Description>
single chemical compound

> <ChemNote>
stereochem

> <STRUCTURE_Shown>
tested chemical

> <STRUCTURE_Formula>
C22H28FNO3

> <STRUCTURE_MW>
373.461

> <STRUCTURE_ChemType>
defined organic

> <STRUCTURE_DefinedOrganicForm>
parent

> <STRUCTURE_IUPAC>
(R)-(2,3-dimethoxyphenyl){1-[2-(4-fluorophenyl)ethyl]piperidin-4-yl}methanol

> <STRUCTURE_SMILES>
COc1cccc(c1OC)[C@H](O)C3CCN(CCc2ccc(F)cc2)CC3

> <STRUCTURE_SMILES_Desalt>
COc1cccc(c1OC)[C@H](O)C3CCN(CCc2ccc(F)cc2)CC3

> <Substance_modify_yyyymmdd>
20130910

$$$$
