1393-48-2
ChemmineR-0915142007XD

114123  0  0  0  0  0  0  0  0  1 V2000
    7.7297   -9.0993    0.0000 C   0  0  0  0  0  0  0  0  0  0  0  0
    8.7743   -9.7028    0.0000 C   0  0  0  0  0  0  0  0  0  0  0  0
    7.7297  -19.2431    0.0000 C   0  0  0  0  0  0  0  0  0  0  0  0
    6.5691   -9.7028    0.0000 C   0  0  0  0  0  0  0  0  0  0  0  0
    9.9349   -9.0993    0.0000 N   0  0  0  0  0  0  0  0  0  0  0  0
    4.3639  -11.0027    0.0000 C   0  0  0  0  0  0  0  0  0  0  0  0
    9.9349  -16.6897    0.0000 C   0  0  0  0  0  0  0  0  0  0  0  0
    8.7743  -18.5932    0.0000 C   0  0  0  0  0  0  0  0  0  0  0  0
    8.7743  -11.0027    0.0000 C   0  0  0  0  0  0  0  0  0  0  0  0
    7.7297  -10.5384    0.0000 N   0  0  0  0  0  0  0  0  0  0  0  0
    6.5691  -11.0027    0.0000 N   0  0  0  0  0  0  0  0  0  0  0  0
    8.7743  -17.2933    0.0000 N   0  0  0  0  0  0  0  0  0  0  0  0
    9.9349  -12.9061    0.0000 C   0  0  0  0  0  0  0  0  0  0  0  0
   12.0008   -5.2228    0.0000 C   0  0  0  0  0  0  0  0  0  0  0  0
    9.9349  -11.5598    0.0000 N   0  0  0  0  0  0  0  0  0  0  0  0
   16.5040  -15.3898    0.0000 C   0  0  0  0  0  0  0  0  0  0  0  0
    6.5691  -18.5932    0.0000 N   0  0  0  0  0  0  0  0  0  0  0  0
   11.0027  -13.4632    0.0000 C   0  0  0  0  0  0  0  0  0  0  0  0
   11.0027   -5.8263    0.0000 N   0  0  0  0  0  0  0  0  0  0  0  0
   11.0027  -14.7863    0.0000 N   0  0  0  0  0  0  0  0  0  0  0  0
    3.2730  -12.9061    0.0000 N   0  0  0  0  0  0  0  0  0  0  0  0
    2.1355  -18.5932    0.0000 N   0  0  0  0  0  0  0  0  0  0  0  0
   15.3666  -14.7863    0.0000 N   0  0  0  0  0  0  0  0  0  0  0  0
    2.1355  -13.4632    0.0000 C   0  0  0  0  0  0  0  0  0  0  0  0
    2.1355  -14.7863    0.0000 C   0  0  0  0  0  0  0  0  0  0  0  0
    2.1355  -17.2933    0.0000 C   0  0  0  0  0  0  0  0  0  0  0  0
   19.8466  -14.7863    0.0000 N   0  0  0  0  0  0  0  0  0  0  0  0
    9.9349  -15.3898    0.0000 C   0  0  0  0  0  0  0  0  0  0  0  0
    3.2730  -11.5598    0.0000 C   0  0  0  0  0  0  0  0  0  0  0  0
   11.0027   -7.1959    0.0000 C   0  0  0  0  0  0  0  0  0  0  0  0
   16.5040  -16.6897    0.0000 C   0  0  0  0  0  0  0  0  0  0  0  0
   18.7092  -12.9293    0.0000 C   0  0  0  0  0  0  0  0  0  0  0  0
    1.0678  -15.3898    0.0000 N   0  0  0  0  0  0  0  0  0  0  0  0
    5.5013  -19.2431    0.0000 C   0  0  0  0  0  0  0  0  0  0  0  0
   16.5040   -9.0993    0.0000 N   0  0  0  0  0  0  0  0  0  0  0  0
    4.3639  -18.5932    0.0000 C   0  0  0  0  0  0  0  0  0  0  0  0
    7.7297  -20.5430    0.0000 C   0  0  0  0  0  0  0  0  0  0  0  0
   18.7092  -11.5598    0.0000 N   0  0  0  0  0  0  0  0  0  0  0  0
   14.2756   -9.0993    0.0000 C   0  0  0  0  0  0  0  0  0  0  0  0
   11.0027   -9.7028    0.0000 C   0  0  0  0  0  0  0  0  0  0  0  0
   13.1382   -9.7028    0.0000 N   0  0  0  0  0  0  0  0  0  0  0  0
   14.2756  -15.3898    0.0000 C   0  0  0  0  0  0  0  0  0  0  0  0
   12.0008   -3.8997    0.0000 C   0  0  0  0  0  0  0  0  0  0  0  0
   13.1382  -14.7863    0.0000 C   0  0  0  0  0  0  0  0  0  0  0  0
    1.0678  -16.6897    0.0000 C   0  0  0  0  0  0  0  0  0  0  0  0
   15.3666   -9.7028    0.0000 C   0  0  0  0  0  0  0  0  0  0  0  0
   17.6414   -9.7028    0.0000 C   0  0  0  0  0  0  0  0  0  0  0  0
    9.9349   -7.7994    0.0000 C   0  0  0  0  0  0  0  0  0  0  0  0
   17.6414  -14.7863    0.0000 C   0  0  0  0  0  0  0  0  0  0  0  0
   13.1382  -13.4632    0.0000 O   0  0  0  0  0  0  0  0  0  0  0  0
   15.3666  -17.2933    0.0000 C   0  0  0  0  0  0  0  0  0  0  0  0
    5.5013   -9.0993    0.0000 S   0  0  0  0  0  0  0  0  0  0  0  0
   11.0027  -18.5932    0.0000 S   0  0  0  0  0  0  0  0  0  0  0  0
    7.7297  -12.9061    0.0000 S   0  0  0  0  0  0  0  0  0  0  0  0
   18.7092  -15.3898    0.0000 C   0  0  0  0  0  0  0  0  0  0  0  0
   19.8466  -13.4632    0.0000 C   0  0  0  0  0  0  0  0  0  0  0  0
   12.0008   -1.3231    0.0000 C   0  0  0  0  0  0  0  0  0  0  0  0
   13.1382   -7.1959    0.0000 S   0  0  0  0  0  0  0  0  0  0  0  0
   17.6414  -17.2933    0.0000 C   0  0  0  0  0  0  0  0  0  0  0  0
   11.0027   -1.9266    0.0000 C   0  0  0  0  0  0  0  0  0  0  0  0
    3.2730  -16.6897    0.0000 S   0  0  0  0  0  0  0  0  0  0  0  0
   11.0027   -3.2497    0.0000 N   0  0  0  0  0  0  0  0  0  0  0  0
    4.3639   -9.7028    0.0000 C   0  0  0  0  0  0  0  0  0  0  0  0
   11.0027  -17.2933    0.0000 C   0  0  0  0  0  0  0  0  0  0  0  0
   13.1382   -1.9266    0.0000 N   0  0  0  0  0  0  0  0  0  0  0  0
   13.1382   -5.8263    0.0000 C   0  0  0  0  0  0  0  0  0  0  0  0
    7.7297  -11.5598    0.0000 C   0  0  0  0  0  0  0  0  0  0  0  0
   14.2756   -1.3231    0.0000 C   0  0  0  0  0  0  0  0  0  0  0  0
   14.2756  -16.6897    0.0000 C   0  0  0  0  0  0  0  0  0  0  0  0
   12.0008  -12.9061    0.0000 C   0  0  0  0  0  0  0  0  0  0  0  0
   18.7092  -16.6897    0.0000 C   0  0  0  0  0  0  0  0  0  0  0  0
    7.7297   -7.7994    0.0000 C   0  0  0  0  0  0  0  0  0  0  0  0
   15.3666   -1.9266    0.0000 C   0  0  0  0  0  0  0  0  0  0  0  0
   12.0008   -9.0993    0.0000 C   0  0  0  0  0  0  0  0  0  0  0  0
   17.6414  -11.0027    0.0000 C   0  0  0  0  0  0  0  0  0  0  0  0
    4.3639  -17.2933    0.0000 C   0  0  0  0  0  0  0  0  0  0  0  0
    3.2730  -15.3898    0.0000 O   0  0  0  0  0  0  0  0  0  0  0  0
   17.6879  -12.9293    0.0000 O   0  0  0  0  0  0  0  0  0  0  0  0
    8.7743   -7.1959    0.0000 C   0  0  0  0  0  0  0  0  0  0  0  0
    2.1355  -11.0027    0.0000 O   0  0  0  0  0  0  0  0  0  0  0  0
    8.7743  -14.7863    0.0000 O   0  0  0  0  0  0  0  0  0  0  0  0
    5.5013  -20.5430    0.0000 O   0  0  0  0  0  0  0  0  0  0  0  0
   14.2756   -7.7994    0.0000 O   0  0  0  0  0  0  0  0  0  0  0  0
   11.0027  -11.0027    0.0000 O   0  0  0  0  0  0  0  0  0  0  0  0
   12.0008  -15.3898    0.0000 O   0  0  0  0  0  0  0  0  0  0  0  0
   18.7092   -9.0993    0.0000 O   0  0  0  0  0  0  0  0  0  0  0  0
   13.1382   -3.2497    0.0000 O   0  0  0  0  0  0  0  0  0  0  0  0
   12.0008    0.0000    0.0000 O   0  0  0  0  0  0  0  0  0  0  0  0
    0.0000  -17.2933    0.0000 C   0  0  0  0  0  0  0  0  0  0  0  0
   15.3666   -3.2497    0.0000 O   0  0  0  0  0  0  0  0  0  0  0  0
    1.0678  -12.9061    0.0000 C   0  0  0  0  0  0  0  0  0  0  0  0
   15.3666  -11.0027    0.0000 C   0  0  0  0  0  0  0  0  0  0  0  0
    8.7743  -21.1233    0.0000 C   0  0  0  0  0  0  0  0  0  0  0  0
    9.9349   -1.3231    0.0000 C   0  0  0  0  0  0  0  0  0  0  0  0
   14.2756    0.0000    0.0000 C   0  0  0  0  0  0  0  0  0  0  0  0
   15.3666  -18.5932    0.0000 C   0  0  0  0  0  0  0  0  0  0  0  0
    6.6620  -19.8698    0.0000 O   0  0  0  0  0  0  0  0  0  0  0  0
   16.5040   -1.3231    0.0000 N   0  0  0  0  0  0  0  0  0  0  0  0
   20.9376  -12.7900    0.0000 C   0  0  0  0  0  0  0  0  0  0  0  0
   17.6414  -13.7650    0.0000 O   0  0  0  0  0  0  0  0  0  0  0  0
    6.5691  -21.1233    0.0000 C   0  0  0  0  0  0  0  0  0  0  0  0
    9.9349  -20.5430    0.0000 O   0  0  0  0  0  0  0  0  0  0  0  0
    0.0000  -13.4632    0.0000 O   0  0  0  0  0  0  0  0  0  0  0  0
   16.5040  -19.2431    0.0000 O   0  0  0  0  0  0  0  0  0  0  0  0
   12.0008  -11.5598    0.0000 C   0  0  0  0  0  0  0  0  0  0  0  0
   12.0008   -7.7994    0.0000 C   0  0  0  0  0  0  0  0  0  0  0  0
   16.7594  -11.9312    0.0000 C   0  0  0  0  0  0  0  0  0  0  0  0
    0.0000  -18.5932    0.0000 C   0  0  0  0  0  0  0  0  0  0  0  0
   22.0750  -13.4632    0.0000 C   0  0  0  0  0  0  0  0  0  0  0  0
    8.7743  -22.4464    0.0000 C   0  0  0  0  0  0  0  0  0  0  0  0
    1.0678  -11.5598    0.0000 C   0  0  0  0  0  0  0  0  0  0  0  0
   14.2756  -19.2431    0.0000 C   0  0  0  0  0  0  0  0  0  0  0  0
   20.9376  -11.5598    0.0000 C   0  0  0  0  0  0  0  0  0  0  0  0
   23.2124  -12.7900    0.0000 C   0  0  0  0  0  0  0  0  0  0  0  0
  1  2  1  0  0  0  0
  1  4  1  0  0  0  0
  1 10  1  0  0  0  0
  1 72  1  0  0  0  0
  2  5  1  0  0  0  0
  2  9  1  0  0  0  0
  3  8  1  0  0  0  0
  3 17  1  0  0  0  0
  3 37  1  0  0  0  0
  4 11  2  0  0  0  0
  4 52  1  0  0  0  0
  5 48  2  0  0  0  0
  6 11  1  0  0  0  0
  6 29  1  0  0  0  0
  6 63  2  0  0  0  0
  7 28  1  0  0  0  0
  7 12  1  0  0  0  0
  7 64  2  0  0  0  0
  8 12  2  0  0  0  0
  8 53  1  0  0  0  0
  9 15  1  0  0  0  0
  9 67  2  0  0  0  0
 10 40  1  0  0  0  0
 13 15  2  0  0  0  0
 13 18  1  0  0  0  0
 13 54  1  0  0  0  0
 14 19  1  0  0  0  0
 14 43  1  0  0  0  0
 14 66  2  0  0  0  0
 16 23  1  0  0  0  0
 16 49  1  0  0  0  0
 16 31  2  0  0  0  0
 17 34  1  0  0  0  0
 18 20  1  0  0  0  0
 18 70  1  0  0  0  0
 19 30  2  0  0  0  0
 20 28  1  0  0  0  0
 21 29  1  0  0  0  0
 21 24  1  0  0  0  0
 22 26  2  0  0  0  0
 22 36  1  0  0  0  0
 23 42  2  0  0  0  0
 24 25  1  0  0  0  0
 24 91  1  0  0  0  0
 25 33  1  0  0  0  0
 25 77  2  0  0  0  0
 26 45  1  0  0  0  0
 26 61  1  0  0  0  0
 27 56  1  0  0  0  0
 27 55  1  0  0  0  0
 28 81  2  0  0  0  0
 29 80  2  0  0  0  0
 30 48  1  0  0  0  0
 30 58  1  0  0  0  0
 31 51  1  0  0  0  0
 31 59  1  0  0  0  0
 32 38  1  0  0  0  0
 32 56  1  0  0  0  0
 32 78  2  0  0  0  0
 33 45  1  0  0  0  0
 34 36  1  0  0  0  0
 34 82  2  0  0  0  0
 35 46  1  0  0  0  0
 35 47  1  0  0  0  0
 36 76  1  0  0  0  0
 37 93  1  0  0  0  0
 37 97  1  0  0  0  0
 37101  1  0  0  0  0
 38 75  1  0  0  0  0
 39 41  1  0  0  0  0
 39 46  1  0  0  0  0
 39 83  2  0  0  0  0
 40 74  1  0  0  0  0
 40 84  2  0  0  0  0
 41 74  1  0  0  0  0
 42 44  1  0  0  0  0
 42 69  1  0  0  0  0
 43 62  1  0  0  0  0
 43 87  2  0  0  0  0
 44 50  1  0  0  0  0
 44 85  2  0  0  0  0
 45 89  2  0  0  0  0
 46 92  2  0  0  0  0
 47 75  1  0  0  0  0
 47 86  2  0  0  0  0
 48 79  1  0  0  0  0
 49 55  1  0  0  0  0
 49100  1  0  0  0  0
 50 70  1  0  0  0  0
 51 69  2  0  0  0  0
 51 96  1  0  0  0  0
 52 63  1  0  0  0  0
 53 64  1  0  0  0  0
 54 67  1  0  0  0  0
 55 71  1  0  0  0  0
 56 99  1  0  0  0  0
 57 60  1  0  0  0  0
 57 65  1  0  0  0  0
 57 88  2  0  0  0  0
 58 66  1  0  0  0  0
 59 71  2  0  0  0  0
 60 62  1  0  0  0  0
 60 94  2  0  0  0  0
 61 76  1  0  0  0  0
 65 68  1  0  0  0  0
 68 73  1  0  0  0  0
 68 95  2  0  0  0  0
 70105  1  0  0  0  0
 72 79  1  0  0  0  0
 73 90  2  0  0  0  0
 73 98  1  0  0  0  0
 74106  1  0  0  0  0
 75107  1  0  0  0  0
 89108  1  0  0  0  0
 91103  1  0  0  0  0
 91111  1  0  0  0  0
 93102  1  0  0  0  0
 93110  1  0  0  0  0
 96104  1  0  0  0  0
 96112  1  0  0  0  0
 99109  1  0  0  0  0
 99113  1  0  0  0  0
109114  1  0  0  0  0
M  END
> <ID>
7839

> <Formula>
C72H85N19O18S5

> <FW>
1664.8868

> <DSSTox_CID>
20625

> <DSSTox_RID>
79517

> <DSSTox_GSID>
40625

> <DSSTox_FileID_Sort>
4199

> <TS_ChemName>
Thiostrepton

> <TS_ChemName_Synonyms>


> <TS_CASRN>
1393-48-2

> <CASRN_ChemName_Relationship>
primary

> <TS_Description>
single chemical compound

> <ChemNote>
stereochem, tautomers

> <STRUCTURE_Shown>
tested chemical

> <STRUCTURE_Formula>
C72H85N19O18S5

> <STRUCTURE_MW>
1664.8868

> <STRUCTURE_ChemType>
defined organic

> <STRUCTURE_DefinedOrganicForm>
parent

> <STRUCTURE_IUPAC>
N-{3-[(3-amino-3-oxoprop-1-en-2-yl)amino]-3-oxoprop-1-en-2-yl}-2-[(11E)-37-(butan-2-yl)-18-(2,3-dihydroxybutan-2-yl)-11-ethylidene-59-hydroxy-8,31-bis(1-hydroxyethyl)-26,40,46-trimethyl-43-methylidene-6,9,16,23,28,38,41,44,47-nonaoxo-27-oxa-3,13,20,56-tet

> <STRUCTURE_SMILES>
CC(CC)C%10NC2C=Cc1c(cc(nc1C2O)C(=O)OC(C)C7NC(=O)c3nc(sc3)C(NC(=O)C4N=C(SC4)C(/NC(=O)C(NC(=O)c5csc(n5)C8(CCC(=NC8c6nc7sc6)c9nc(cs9)C(=O)NC(=C)C(=O)NC(=C)C(N)=O)NC(=O)C(C)NC(=O)C(=C)NC(=O)C(C)NC%10=O)C(C)O)=C\C)C(C)(O)C(O)C)C(O)C

> <STRUCTURE_SMILES_Desalt>
CC(CC)C%10NC2C=Cc1c(cc(nc1C2O)C(=O)OC(C)C7NC(=O)c3nc(sc3)C(NC(=O)C4N=C(SC4)C(/NC(=O)C(NC(=O)c5csc(n5)C8(CCC(=NC8c6nc7sc6)c9nc(cs9)C(=O)NC(=C)C(=O)NC(=C)C(N)=O)NC(=O)C(C)NC(=O)C(=C)NC(=O)C(C)NC%10=O)C(C)O)=C\C)C(C)(O)C(O)C)C(O)C

> <Substance_modify_yyyymmdd>
20080429

$$$$
