139340-56-0
ChemmineR-0915142007XD

 28 28  0  0  0  0  0  0  0  0  1 V2000
    3.9780   -3.3660    0.0000 C   0  0  0  0  0  0  0  0  0  0  0  0
    3.3278   -2.2313    0.0000 C   0  0  0  0  0  0  0  0  0  0  0  0
    3.3278   -4.5008    0.0000 C   0  0  0  0  0  0  0  0  0  0  0  0
    5.3041   -3.3660    0.0000 C   0  0  0  0  0  0  0  0  0  0  0  0
    1.9890   -2.2313    0.0000 C   0  0  0  0  0  0  0  0  0  0  0  0
    2.0018   -4.5008    0.0000 C   0  0  0  0  0  0  0  0  0  0  0  0
    5.7248   -4.6028    0.0000 C   0  0  0  0  0  0  0  0  0  0  0  0
    1.3388   -3.3660    0.0000 C   0  0  0  0  0  0  0  0  0  0  0  0
    1.3388   -1.0838    0.0000 C   0  0  0  0  0  0  0  0  0  0  0  0
    1.3388   -5.6483    0.0000 C   0  0  0  0  0  0  0  0  0  0  0  0
    6.9998   -4.9853    0.0000 C   0  0  0  0  0  0  0  0  0  0  0  0
    4.9853   -5.6993    0.0000 S   0  0  0  0  0  0  0  0  0  0  0  0
    0.0128   -3.3660    0.0000 O   0  0  0  0  0  0  0  0  0  0  0  0
    2.2823   -0.1275    0.0000 C   0  0  0  0  0  0  0  0  0  0  0  0
    0.0000   -1.4280    0.0000 C   0  0  0  0  0  0  0  0  0  0  0  0
    0.6885    0.0000    0.0000 C   0  0  0  0  0  0  0  0  0  0  0  0
    0.0255   -5.3296    0.0000 C   0  0  0  0  0  0  0  0  0  0  0  0
    2.2950   -6.6301    0.0000 C   0  0  0  0  0  0  0  0  0  0  0  0
    0.7140   -6.7576    0.0000 C   0  0  0  0  0  0  0  0  0  0  0  0
    7.0381   -6.2986    0.0000 N   0  0  0  0  0  0  0  0  0  0  0  0
    8.0581   -4.1820    0.0000 O   0  0  0  0  0  0  0  0  0  0  0  0
    5.7886   -6.7576    0.0000 C   0  0  0  0  0  0  0  0  0  0  0  0
    5.4316   -8.0198    0.0000 N   0  0  0  0  0  0  0  0  0  0  0  0
   12.7501   -2.0400    0.0000 C   0  0  0  0  0  0  0  0  0  0  0  0
   11.3986   -2.0400    0.0000 S   0  0  0  0  0  0  0  0  0  0  0  0
   11.3986   -0.5483    0.0000 O   0  0  0  0  0  0  0  0  0  0  0  0
   10.0726   -2.0400    0.0000 O   0  0  0  0  0  0  0  0  0  0  0  0
   11.3986   -3.3533    0.0000 O   0  0  0  0  0  0  0  0  0  0  0  0
  1  2  1  0  0  0  0
  1  3  2  0  0  0  0
  1  4  1  0  0  0  0
  2  5  2  0  0  0  0
  3  6  1  0  0  0  0
  4  7  2  0  0  0  0
  5  8  1  0  0  0  0
  5  9  1  0  0  0  0
  6 10  1  0  0  0  0
  6  8  2  0  0  0  0
  7 11  1  0  0  0  0
  7 12  1  0  0  0  0
  8 13  1  0  0  0  0
  9 14  1  0  0  0  0
  9 15  1  0  0  0  0
  9 16  1  0  0  0  0
 10 17  1  0  0  0  0
 10 18  1  0  0  0  0
 10 19  1  0  0  0  0
 11 20  1  0  0  0  0
 11 21  2  0  0  0  0
 12 22  1  0  0  0  0
 20 22  1  0  0  0  0
 22 23  2  0  0  0  0
 24 25  1  0  0  0  0
 25 26  2  0  0  0  0
 25 27  1  0  0  0  0
 25 28  2  0  0  0  0
M  END
> <ID>
12388

> <Formula>
C19H28N2O5S2

> <FW>
428.5660 (332.4604+96.1057)

> <DSSTox_CID>
27246

> <DSSTox_RID>
82207

> <DSSTox_GSID>
47246

> <DSSTox_FileID_Sort>
6888

> <TS_ChemName>
Darbufelone mesylate

> <TS_ChemName_Synonyms>
PD-136095-0073

> <TS_CASRN>
139340-56-0

> <CASRN_ChemName_Relationship>
primary

> <TS_Description>
single chemical compound

> <ChemNote>
stereochem

> <STRUCTURE_Shown>
tested chemical

> <STRUCTURE_Formula>
C19H28N2O5S2

> <STRUCTURE_MW>
428.566

> <STRUCTURE_ChemType>
defined organic

> <STRUCTURE_DefinedOrganicForm>
complex

> <STRUCTURE_IUPAC>
(5Z)-5-(3,5-di-tert-butyl-4-hydroxybenzylidene)-2-imino-1,3-thiazolidin-4-one methanesulfonate (1:1)

> <STRUCTURE_SMILES>
O=C2NC(=N)S/C2=C\c1cc(c(O)c(c1)C(C)(C)C)C(C)(C)C.CS(=O)(=O)O

> <STRUCTURE_SMILES_Desalt>
O=C2NC(=N)S/C2=C\c1cc(c(O)c(c1)C(C)(C)C)C(C)(C)C

> <Substance_modify_yyyymmdd>
20131114

$$$$
