1397-89-3
ChemmineR-0915142007XD

 66 68  0  0  1  0  0  0  0  0  1 V2000
    4.5783   -1.9785    0.0000 C   0  0  0  0  0  0  0  0  0  0  0  0
    4.5783   -3.3129    0.0000 O   0  0  0  0  0  0  0  0  0  0  0  0
    3.4279   -1.3114    0.0000 O   0  0  0  0  0  0  0  0  0  0  0  0
    3.4279   -3.9571    0.0000 C   0  0  0  0  0  0  0  0  0  0  0  0
    2.2776   -1.9785    0.0000 C   0  0  0  0  0  0  0  0  0  0  0  0
    2.2776   -3.3129    0.0000 C   0  0  0  0  0  0  0  0  0  0  0  0
    5.7056   -1.3114    0.0000 C   0  0  0  0  0  0  0  0  0  0  0  0
    6.8559   -1.9785    0.0000 C   0  0  0  0  0  0  0  0  0  0  0  0
    6.8559   -3.3129    0.0000 O   0  0  0  0  0  0  0  0  0  0  0  0
    8.0062   -1.3114    0.0000 C   0  0  0  0  0  0  0  0  0  0  0  0
    9.1565   -1.9785    0.0000 C   0  0  0  0  0  0  0  0  0  0  0  0
    9.1565   -3.3129    0.0000 O   0  0  0  0  0  0  0  0  0  0  0  0
   10.3068   -1.3114    0.0000 C   0  0  0  0  0  0  0  0  0  0  0  0
   11.4341   -1.9785    0.0000 C   0  0  0  0  0  0  0  0  0  0  0  0
   12.5845   -1.3114    0.0000 C   0  0  0  0  0  0  0  0  0  0  0  0
   13.7348   -1.9785    0.0000 C   0  0  0  0  0  0  0  0  0  0  0  0
   13.7348   -3.3129    0.0000 O   0  0  0  0  0  0  0  0  0  0  0  0
   14.8621   -1.3114    0.0000 C   0  0  0  0  0  0  0  0  0  0  0  0
   16.0354   -1.9785    0.0000 C   0  0  0  0  0  0  0  0  0  0  0  0
   16.0354   -3.3129    0.0000 O   0  0  0  0  0  0  0  0  0  0  0  0
   17.1857   -1.3114    0.0000 C   0  0  0  0  0  0  0  0  0  0  0  0
   18.3130   -1.9785    0.0000 C   0  0  0  0  0  0  0  0  0  0  0  0
   18.3130   -3.3129    0.0000 O   0  0  0  0  0  0  0  0  0  0  0  0
   19.4634   -1.3114    0.0000 C   0  0  0  0  0  0  0  0  0  0  0  0
   20.5907   -1.9785    0.0000 C   0  0  0  0  0  0  0  0  0  0  0  0
   19.4634   -3.9571    0.0000 C   0  0  0  0  0  0  0  0  0  0  0  0
   20.5907   -3.3129    0.0000 C   0  0  0  0  0  0  0  0  0  0  0  0
   19.4634   -5.2915    0.0000 C   0  0  0  0  0  0  0  0  0  0  0  0
   21.7410   -3.9571    0.0000 C   0  0  0  0  0  0  0  0  0  0  0  0
   21.7410   -5.2915    0.0000 O   0  0  0  0  0  0  0  0  0  0  0  0
   18.3130   -5.9816    0.0000 C   0  0  0  0  0  0  0  0  0  0  0  0
   17.1857   -5.2915    0.0000 C   0  0  0  0  0  0  0  0  0  0  0  0
   16.0354   -5.9816    0.0000 C   0  0  0  0  0  0  0  0  0  0  0  0
   14.8621   -5.2915    0.0000 C   0  0  0  0  0  0  0  0  0  0  0  0
   13.7348   -5.9816    0.0000 C   0  0  0  0  0  0  0  0  0  0  0  0
   12.5845   -5.2915    0.0000 C   0  0  0  0  0  0  0  0  0  0  0  0
   11.4341   -5.9816    0.0000 C   0  0  0  0  0  0  0  0  0  0  0  0
   10.3068   -5.2915    0.0000 C   0  0  0  0  0  0  0  0  0  0  0  0
    9.1565   -5.9816    0.0000 C   0  0  0  0  0  0  0  0  0  0  0  0
    8.0062   -5.2915    0.0000 C   0  0  0  0  0  0  0  0  0  0  0  0
    6.8559   -5.9816    0.0000 C   0  0  0  0  0  0  0  0  0  0  0  0
    5.7056   -5.2684    0.0000 C   0  0  0  0  0  0  0  0  0  0  0  0
    4.5783   -5.9356    0.0000 C   0  0  0  0  0  0  0  0  0  0  0  0
    3.4509   -5.2684    0.0000 C   0  0  0  0  0  0  0  0  0  0  0  0
    1.1733   -3.9801    0.0000 C   0  0  0  0  0  0  0  0  0  0  0  0
    2.3236   -5.9356    0.0000 C   0  0  0  0  0  0  0  0  0  0  0  0
    1.1733   -5.2915    0.0000 C   0  0  0  0  0  0  0  0  0  0  0  0
   22.8913   -3.3129    0.0000 O   0  0  0  0  0  0  0  0  0  0  0  0
    0.0000   -3.3359    0.0000 O   0  0  0  0  0  0  0  0  0  0  0  0
    0.0460   -5.9816    0.0000 C   0  0  0  0  0  0  0  0  0  0  0  0
    1.1733   -1.3114    0.0000 C   0  0  0  0  0  0  0  0  0  0  0  0
   12.5845    0.0000    0.0000 O   0  0  0  0  0  0  0  0  0  0  0  0
   18.3130   -0.6672    0.0000 O   0  0  0  0  0  0  0  0  0  0  0  0
   21.7410   -1.3114    0.0000 O   0  0  0  0  0  0  0  0  0  0  0  0
   20.5907   -4.6243    0.0000 H   0  0  0  0  0  0  0  0  0  0  0  0
   18.3130   -7.2700    0.0000 O   0  0  0  0  0  0  0  0  0  0  0  0
   19.5094   -7.9602    0.0000 C   0  0  0  0  0  0  0  0  0  0  0  0
   19.5094   -9.2946    0.0000 C   0  0  0  0  0  0  0  0  0  0  0  0
   20.6597   -7.2700    0.0000 O   0  0  0  0  0  0  0  0  0  0  0  0
   20.6597   -9.9847    0.0000 C   0  0  0  0  0  0  0  0  0  0  0  0
   18.3130   -9.9847    0.0000 O   0  0  0  0  0  0  0  0  0  0  0  0
   21.8330   -7.9372    0.0000 C   0  0  0  0  0  0  0  0  0  0  0  0
   21.8330   -9.2946    0.0000 C   0  0  0  0  0  0  0  0  0  0  0  0
   20.6827  -11.3191    0.0000 N   0  0  0  0  0  0  0  0  0  0  0  0
   23.0063   -7.2470    0.0000 C   0  0  0  0  0  0  0  0  0  0  0  0
   23.0063   -9.9847    0.0000 O   0  0  0  0  0  0  0  0  0  0  0  0
  1  3  1  0  0  0  0
  1  7  1  0  0  0  0
  1  2  2  0  0  0  0
  3  5  1  0  0  0  0
  6  4  1  6  0  0  0
  5  6  1  0  0  0  0
  5 51  1  6  0  0  0
  6 45  1  0  0  0  0
  7  8  1  0  0  0  0
  8 10  1  0  0  0  0
  8  9  1  1  0  0  0
 10 11  1  0  0  0  0
 11 13  1  0  0  0  0
 11 12  1  1  0  0  0
 13 14  1  0  0  0  0
 14 15  1  0  0  0  0
 15 16  1  0  0  0  0
 15 52  1  1  0  0  0
 16 18  1  0  0  0  0
 16 17  1  1  0  0  0
 18 19  1  0  0  0  0
 19 21  1  0  0  0  0
 19 20  1  1  0  0  0
 21 22  1  0  0  0  0
 22 24  1  0  0  0  0
 22 23  1  0  0  0  0
 22 53  1  1  0  0  0
 23 26  1  0  0  0  0
 24 25  1  0  0  0  0
 25 27  1  0  0  0  0
 25 54  1  6  0  0  0
 26 27  1  0  0  0  0
 26 28  1  0  0  0  0
 26 55  1  1  0  0  0
 27 29  1  1  0  0  0
 28 31  1  0  0  0  0
 29 30  1  0  0  0  0
 29 48  2  0  0  0  0
 31 32  1  0  0  0  0
 31 56  1  1  0  0  0
 32 33  2  0  0  0  0
 33 34  1  0  0  0  0
 34 35  2  0  0  0  0
 35 36  1  0  0  0  0
 36 37  2  0  0  0  0
 37 38  1  0  0  0  0
 38 39  2  0  0  0  0
 39 40  1  0  0  0  0
 40 41  2  0  0  0  0
 41 42  1  0  0  0  0
 42 43  2  0  0  0  0
 43 44  1  0  0  0  0
 44 46  2  0  0  0  0
 45 47  1  0  0  0  0
 45 49  1  1  0  0  0
 46 47  1  0  0  0  0
 47 50  1  6  0  0  0
 57 56  1  6  0  0  0
 57 58  1  0  0  0  0
 57 59  1  0  0  0  0
 58 60  1  0  0  0  0
 58 61  1  6  0  0  0
 59 62  1  0  0  0  0
 60 63  1  0  0  0  0
 60 64  1  6  0  0  0
 62 65  1  6  0  0  0
 62 63  1  0  0  0  0
 63 66  1  1  0  0  0
M  END
> <ID>
2357

> <Formula>
C47H73NO17

> <FW>
924.079

> <DSSTox_CID>
2601

> <DSSTox_RID>
76653

> <DSSTox_GSID>
22601

> <DSSTox_FileID_Sort>
1337

> <TS_ChemName>
Amphotericin B

> <TS_ChemName_Synonyms>
Amphotericin B (AmB) (Fungizone)

> <TS_CASRN>
1397-89-3

> <CASRN_ChemName_Relationship>
primary

> <TS_Description>
single chemical compound

> <ChemNote>
stereochem

> <STRUCTURE_Shown>
tested chemical

> <STRUCTURE_Formula>
C47H73NO17

> <STRUCTURE_MW>
924.079

> <STRUCTURE_ChemType>
defined organic

> <STRUCTURE_DefinedOrganicForm>
parent

> <STRUCTURE_IUPAC>
(1R,3S,5R,6R,9R,11R,15S,16R,17R,18S,19E,21E,23E,25E,27E,29E,31E,33R,35S,36R,37S)-33-[(3-amino-3,6-dideoxy-beta-D-mannopyranosyl)oxy]-1,3,5,6,9,11,17,37-octahydroxy-15,16,18-trimethyl-13-oxo-14,39-dioxabicyclo[33.3.1]nonatriaconta-19,21,23,25,27,29,31-hept

> <STRUCTURE_SMILES>
O=C(O)[C@@H]3[C@@H](O)C[C@@]2(O)C[C@@H](O)C[C@@H](O)[C@H](O)CC[C@@H](O)C[C@@H](O)CC(=O)O[C@@H](C)[C@H](C)[C@H](O)[C@@H](C)C=CC=CC=CC=CC=CC=CC=C[C@H](O[C@@H]1O[C@H](C)[C@@H](O)[C@H](N)[C@@H]1O)C[C@@H]3O2

> <STRUCTURE_SMILES_Desalt>
O=C(O)[C@@H]3[C@@H](O)C[C@@]2(O)C[C@@H](O)C[C@@H](O)[C@H](O)CC[C@@H](O)C[C@@H](O)CC(=O)O[C@@H](C)[C@H](C)[C@H](O)[C@@H](C)C=CC=CC=CC=CC=CC=CC=C[C@H](O[C@@H]1O[C@H](C)[C@@H](O)[C@H](N)[C@@H]1O)C[C@@H]3O2

> <Substance_modify_yyyymmdd>
20080429

$$$$
