13997-19-8
ChemmineR-0915142007XD

 27 29  0  0  0  0  0  0  0  0  1 V2000
   10.3317   -3.9865    0.0000 C   0  0  0  0  0  0  0  0  0  0  0  0
    9.2006   -4.6761    0.0000 C   0  0  0  0  0  0  0  0  0  0  0  0
    8.0419   -3.9865    0.0000 C   0  0  0  0  0  0  0  0  0  0  0  0
   10.3317   -2.6622    0.0000 C   0  0  0  0  0  0  0  0  0  0  0  0
    8.0419   -2.6622    0.0000 C   0  0  0  0  0  0  0  0  0  0  0  0
    9.2006   -2.0139    0.0000 N   0  0  0  0  0  0  0  0  0  0  0  0
   11.4904   -4.6761    0.0000 C   0  0  0  0  0  0  0  0  0  0  0  0
    6.8970   -4.6761    0.0000 C   0  0  0  0  0  0  0  0  0  0  0  0
    6.8970   -2.0139    0.0000 C   0  0  0  0  0  0  0  0  0  0  0  0
    5.7521   -2.6622    0.0000 C   0  0  0  0  0  0  0  0  0  0  0  0
    5.7521   -3.9865    0.0000 C   0  0  0  0  0  0  0  0  0  0  0  0
    9.2006   -6.0004    0.0000 O   0  0  0  0  0  0  0  0  0  0  0  0
    4.5934   -2.0139    0.0000 O   0  0  0  0  0  0  0  0  0  0  0  0
   11.4904   -6.0004    0.0000 O   0  0  0  0  0  0  0  0  0  0  0  0
   12.6491   -3.9865    0.0000 O   0  0  0  0  0  0  0  0  0  0  0  0
    3.4623   -2.6622    0.0000 C   0  0  0  0  0  0  0  0  0  0  0  0
    2.3036   -2.0139    0.0000 C   0  0  0  0  0  0  0  0  0  0  0  0
    4.5934   -4.6761    0.0000 C   0  0  0  0  0  0  0  0  0  0  0  0
   13.7939   -4.6761    0.0000 C   0  0  0  0  0  0  0  0  0  0  0  0
    1.1449   -2.6622    0.0000 C   0  0  0  0  0  0  0  0  0  0  0  0
    2.3036   -0.6897    0.0000 C   0  0  0  0  0  0  0  0  0  0  0  0
    3.4623   -3.9865    0.0000 C   0  0  0  0  0  0  0  0  0  0  0  0
    2.3036   -4.6761    0.0000 C   0  0  0  0  0  0  0  0  0  0  0  0
    1.1449   -3.9865    0.0000 C   0  0  0  0  0  0  0  0  0  0  0  0
    1.1449    0.0000    0.0000 C   0  0  0  0  0  0  0  0  0  0  0  0
    0.0000   -2.0139    0.0000 C   0  0  0  0  0  0  0  0  0  0  0  0
    0.0000   -0.6897    0.0000 C   0  0  0  0  0  0  0  0  0  0  0  0
  1  2  1  0  0  0  0
  1  4  2  0  0  0  0
  1  7  1  0  0  0  0
  2  3  1  0  0  0  0
  2 12  2  0  0  0  0
  3  8  1  0  0  0  0
  3  5  2  0  0  0  0
  4  6  1  0  0  0  0
  5  6  1  0  0  0  0
  5  9  1  0  0  0  0
  7 14  2  0  0  0  0
  7 15  1  0  0  0  0
  8 11  2  0  0  0  0
  9 10  2  0  0  0  0
 10 13  1  0  0  0  0
 10 11  1  0  0  0  0
 11 18  1  0  0  0  0
 13 16  1  0  0  0  0
 15 19  1  0  0  0  0
 16 17  1  0  0  0  0
 17 20  2  0  0  0  0
 17 21  1  0  0  0  0
 18 22  1  0  0  0  0
 20 26  1  0  0  0  0
 21 25  2  0  0  0  0
 22 23  1  0  0  0  0
 23 24  1  0  0  0  0
 25 27  1  0  0  0  0
 26 27  2  0  0  0  0
M  END
> <ID>
13607

> <Formula>
C22H23NO4

> <FW>
365.4223

> <DSSTox_CID>
28536

> <DSSTox_RID>
82808

> <DSSTox_GSID>
48610

> <DSSTox_FileID_Sort>
7485

> <TS_ChemName>
Nequinate

> <TS_ChemName_Synonyms>


> <TS_CASRN>
13997-19-8

> <CASRN_ChemName_Relationship>
primary

> <TS_Description>
single chemical compound

> <ChemNote>


> <STRUCTURE_Shown>
tested chemical

> <STRUCTURE_Formula>
C22H23NO4

> <STRUCTURE_MW>
365.4223

> <STRUCTURE_ChemType>
defined organic

> <STRUCTURE_DefinedOrganicForm>
parent

> <STRUCTURE_IUPAC>
methyl 7-(benzyloxy)-6-butyl-4-oxo-1,4-dihydroquinoline-3-carboxylate

> <STRUCTURE_SMILES>
O=C(OC)C3=CNc2cc(OCc1ccccc1)c(CCCC)cc2C3=O

> <STRUCTURE_SMILES_Desalt>
O=C(OC)C3=CNc2cc(OCc1ccccc1)c(CCCC)cc2C3=O

> <Substance_modify_yyyymmdd>
20111015

$$$$
