140-57-8
ChemmineR-0915142007XD

 21 21  0  0  0  0  0  0  0  0  1 V2000
    8.0682   -5.1439    0.0000 C    0  0  0  0  0  0  0  0  0  0  0  0
    8.0682   -3.8092    0.0000 C    0  0  0  0  0  0  0  0  0  0  0  0
    6.9285   -3.1493    0.0000 C    0  0  0  0  0  0  0  0  0  0  0  0
    5.7737   -3.8092    0.0000 O    0  0  0  0  0  0  0  0  0  0  0  0
    4.6190   -3.1493    0.0000 C    0  0  0  0  0  0  0  0  0  0  0  0
    3.4642   -3.8092    0.0000 C    0  0  0  0  0  0  0  0  0  0  0  0
    2.3095   -3.1493    0.0000 C    0  0  0  0  0  0  0  0  0  0  0  0
    2.3095   -1.8146    0.0000 C    0  0  0  0  0  0  0  0  0  0  0  0
    3.4642   -1.1547    0.0000 C    0  0  0  0  0  0  0  0  0  0  0  0
    4.6190   -1.8146    0.0000 C    0  0  0  0  0  0  0  0  0  0  0  0
    1.1547   -1.1547    0.0000 C    0  0  0  0  0  0  0  0  0  0  0  0
    0.0000   -0.4799    0.0000 C    0  0  0  0  0  0  0  0  0  0  0  0
    1.8146    0.0000    0.0000 C    0  0  0  0  0  0  0  0  0  0  0  0
    0.4949   -2.2945    0.0000 C    0  0  0  0  0  0  0  0  0  0  0  0
    9.2230   -3.1493    0.0000 O    0  0  0  0  0  0  0  0  0  0  0  0
   10.3777   -3.8092    0.0000 S    0  0  0  0  0  0  0  0  0  0  0  0
   10.3777   -5.1439    0.0000 O    0  0  0  0  0  0  0  0  0  0  0  0
   11.5325   -3.1493    0.0000 O    0  0  0  0  0  0  0  0  0  0  0  0
   12.6872   -3.8092    0.0000 C    0  0  0  0  0  0  0  0  0  0  0  0
   13.8420   -3.1493    0.0000 C    0  0  0  0  0  0  0  0  0  0  0  0
   14.9967   -3.8092    0.0000 Cl   0  0  0  0  0  0  0  0  0  0  0  0
  1  2  1  0  0  0  0
  2  3  1  0  0  0  0
  2 15  1  0  0  0  0
  3  4  1  0  0  0  0
  4  5  1  0  0  0  0
  5  6  2  0  0  0  0
  5 10  1  0  0  0  0
  6  7  1  0  0  0  0
  7  8  2  0  0  0  0
  8  9  1  0  0  0  0
  8 11  1  0  0  0  0
  9 10  2  0  0  0  0
 11 12  1  0  0  0  0
 11 13  1  0  0  0  0
 11 14  1  0  0  0  0
 15 16  1  0  0  0  0
 16 17  2  0  0  0  0
 16 18  1  0  0  0  0
 18 19  1  0  0  0  0
 19 20  1  0  0  0  0
 20 21  1  0  0  0  0
M  END
> <ID>
95

> <Formula>
C15H23ClO4S

> <FW>
334.8587

> <DSSTox_CID>
97

> <DSSTox_RID>
75365

> <DSSTox_GSID>
20097

> <DSSTox_FileID_Sort>
49

> <TS_ChemName>
Aramite

> <TS_ChemName_Synonyms>


> <TS_CASRN>
140-57-8

> <CASRN_ChemName_Relationship>
primary

> <TS_Description>
single chemical compound

> <ChemNote>


> <STRUCTURE_Shown>
tested chemical

> <STRUCTURE_Formula>
C15H23ClO4S

> <STRUCTURE_MW>
334.8587

> <STRUCTURE_ChemType>
defined organic

> <STRUCTURE_DefinedOrganicForm>
parent

> <STRUCTURE_IUPAC>
1-(4-tert-butylphenoxy)propan-2-yl 2-chloroethyl sulfite

> <STRUCTURE_SMILES>
CC(C)(C)c1ccc(OCC(C)OS(=O)OCCCl)cc1

> <STRUCTURE_SMILES_Desalt>
CC(C)(C)c1ccc(OCC(C)OS(=O)OCCCl)cc1

> <Substance_modify_yyyymmdd>
20080429

$$$$
