140-66-9
ChemmineR-0915142007XD

 15 15  0  0  0  0  0  0  0  0  1 V2000
    3.1745   -1.1743    0.0000 C   0  0  0  0  0  0  0  0  0  0  0  0
    4.2807   -1.8032    0.0000 C   0  0  0  0  0  0  0  0  0  0  0  0
    5.3792   -1.1743    0.0000 C   0  0  0  0  0  0  0  0  0  0  0  0
    6.4778   -1.8032    0.0000 C   0  0  0  0  0  0  0  0  0  0  0  0
    6.4778   -3.0684    0.0000 C   0  0  0  0  0  0  0  0  0  0  0  0
    5.3792   -3.7124    0.0000 C   0  0  0  0  0  0  0  0  0  0  0  0
    4.2807   -3.0684    0.0000 C   0  0  0  0  0  0  0  0  0  0  0  0
    7.5764   -3.7124    0.0000 O   0  0  0  0  0  0  0  0  0  0  0  0
    2.5381   -2.2729    0.0000 C   0  0  0  0  0  0  0  0  0  0  0  0
    1.2804   -2.2729    0.0000 C   0  0  0  0  0  0  0  0  0  0  0  0
    0.0000   -2.5987    0.0000 C   0  0  0  0  0  0  0  0  0  0  0  0
    0.2728   -0.8258    0.0000 C   0  0  0  0  0  0  0  0  0  0  0  0
    0.9925   -3.7276    0.0000 C   0  0  0  0  0  0  0  0  0  0  0  0
    2.3638    0.0000    0.0000 C   0  0  0  0  0  0  0  0  0  0  0  0
    3.8185   -0.0758    0.0000 C   0  0  0  0  0  0  0  0  0  0  0  0
  1  2  1  0  0  0  0
  1  9  1  0  0  0  0
  1 14  1  0  0  0  0
  1 15  1  0  0  0  0
  2  3  2  0  0  0  0
  2  7  1  0  0  0  0
  3  4  1  0  0  0  0
  4  5  2  0  0  0  0
  5  6  1  0  0  0  0
  5  8  1  0  0  0  0
  6  7  2  0  0  0  0
  9 10  1  0  0  0  0
 10 11  1  0  0  0  0
 10 12  1  0  0  0  0
 10 13  1  0  0  0  0
M  END
> <ID>
2172

> <Formula>
C14H22O

> <FW>
206.3239

> <DSSTox_CID>
2360

> <DSSTox_RID>
76556

> <DSSTox_GSID>
22360

> <DSSTox_FileID_Sort>
1240

> <TS_ChemName>
4-(1,1,3,3-Tetramethylbutyl)phenol

> <TS_ChemName_Synonyms>
4-(1,1,3,3-Tetramethylbutyl)phenol (4-tert-Octylphenol)

> <TS_CASRN>
140-66-9

> <CASRN_ChemName_Relationship>
primary

> <TS_Description>
single chemical compound

> <ChemNote>


> <STRUCTURE_Shown>
tested chemical

> <STRUCTURE_Formula>
C14H22O

> <STRUCTURE_MW>
206.3239

> <STRUCTURE_ChemType>
defined organic

> <STRUCTURE_DefinedOrganicForm>
parent

> <STRUCTURE_IUPAC>
4-(2,4,4-trimethylpentan-2-yl)phenol

> <STRUCTURE_SMILES>
Oc1ccc(cc1)C(C)(C)CC(C)(C)C

> <STRUCTURE_SMILES_Desalt>
Oc1ccc(cc1)C(C)(C)CC(C)(C)C

> <Substance_modify_yyyymmdd>
20080429

$$$$
