140-90-9
ChemmineR-0915142007XD

  7  5  0  0  0  0  0  0  0  0  2 V2000
    3.4637   -1.3245    0.0000 C    0  0  0  0  0  0  0  0  0  0  0  0
    2.2999   -1.9785    0.0000 O    0  0  0  0  0  0  0  0  0  0  0  0
    3.4637    0.0000    0.0000 S    0  0  0  0  0  0  0  0  0  0  0  0
    4.5998   -2.0117    0.0000 S    0  5  0  0  0  0  0  0  0  0  0  0
    1.1638   -1.2913    0.0000 C    0  0  0  0  0  0  0  0  0  0  0  0
    0.0000   -1.9452    0.0000 C    0  0  0  0  0  0  0  0  0  0  0  0
    5.5420   -0.5265    0.0000 Na   0  3  0  0  0  0  0  0  0  0  0  0
  1  2  1  0  0  0  0
  1  4  1  0  0  0  0
  1  3  2  0  0  0  0
  2  5  1  0  0  0  0
  5  6  1  0  0  0  0
M  END
> <ID>
10451

> <Formula>
C3H5NaOS2

> <FW>
144.1910 (121.2017+22.9892)

> <DSSTox_CID>
24801

> <DSSTox_RID>
80486

> <DSSTox_GSID>
44801

> <DSSTox_FileID_Sort>
5168

> <TS_ChemName>
Sodium O-ethyl carbonodithioate

> <TS_ChemName_Synonyms>
Sodium O-ethyl carbonodithioate (Carbonodithioic acid, O-ethyl ester, sodium salt)

> <TS_CASRN>
140-90-9

> <CASRN_ChemName_Relationship>
primary

> <TS_Description>
single chemical compound

> <ChemNote>
parent [151-01-9]

> <STRUCTURE_Shown>
tested chemical

> <STRUCTURE_Formula>
C3H5NaOS2

> <STRUCTURE_MW>
144.191

> <STRUCTURE_ChemType>
defined organic

> <STRUCTURE_DefinedOrganicForm>
salt

> <STRUCTURE_IUPAC>
sodium O-ethyl carbonodithioate

> <STRUCTURE_SMILES>
[Na+].[S-]C(=S)OCC

> <STRUCTURE_SMILES_Desalt>
CCOC(=S)S

> <Substance_modify_yyyymmdd>
20091116

$$$$
