140-72-7
ChemmineR-0915142007XD

 23 22  0  0  0  0  0  0  0  0  2 V2000
    2.7504   -3.4547    0.0000 N    0  3  0  0  0  0  0  0  0  0  0  0
    1.4234   -3.4547    0.0000 C    0  0  0  0  0  0  0  0  0  0  0  0
    3.4251   -2.3056    0.0000 C    0  0  0  0  0  0  0  0  0  0  0  0
    3.4251   -4.6113    0.0000 C    0  0  0  0  0  0  0  0  0  0  0  0
    0.7562   -2.3056    0.0000 C    0  0  0  0  0  0  0  0  0  0  0  0
    3.4251   -6.9169    0.0000 C    0  0  0  0  0  0  0  0  0  0  0  0
    4.7521   -2.3056    0.0000 C    0  0  0  0  0  0  0  0  0  0  0  0
    4.7521   -4.6113    0.0000 C    0  0  0  0  0  0  0  0  0  0  0  0
    4.7521   -6.9169    0.0000 C    0  0  0  0  0  0  0  0  0  0  0  0
    6.7538   -1.1491    0.0000 C    0  0  0  0  0  0  0  0  0  0  0  0
    5.4267   -1.1491    0.0000 C    0  0  0  0  0  0  0  0  0  0  0  0
    2.7504   -1.1491    0.0000 C    0  0  0  0  0  0  0  0  0  0  0  0
    1.4234   -1.1491    0.0000 C    0  0  0  0  0  0  0  0  0  0  0  0
    5.4267   -5.7826    0.0000 C    0  0  0  0  0  0  0  0  0  0  0  0
    4.7521    0.0000    0.0000 C    0  0  0  0  0  0  0  0  0  0  0  0
    3.4251    0.0000    0.0000 C    0  0  0  0  0  0  0  0  0  0  0  0
    6.7538   -5.7826    0.0000 C    0  0  0  0  0  0  0  0  0  0  0  0
    7.4136   -4.6113    0.0000 C    0  0  0  0  0  0  0  0  0  0  0  0
    6.7538   -3.4547    0.0000 C    0  0  0  0  0  0  0  0  0  0  0  0
    7.4136   -2.3056    0.0000 C    0  0  0  0  0  0  0  0  0  0  0  0
    2.7504   -5.7826    0.0000 C    0  0  0  0  0  0  0  0  0  0  0  0
    5.4267   -3.4547    0.0000 C    0  0  0  0  0  0  0  0  0  0  0  0
    0.0000   -4.6113    0.0000 Br   0  5  0  0  0  0  0  0  0  0  0  0
  1  2  1  0  0  0  0
  1  3  2  0  0  0  0
  1  4  1  0  0  0  0
  2  5  1  0  0  0  0
  3  7  1  0  0  0  0
  4  8  2  0  0  0  0
  5 13  1  0  0  0  0
  6  9  1  0  0  0  0
  6 21  1  0  0  0  0
  7 22  2  0  0  0  0
  8 22  1  0  0  0  0
  9 14  1  0  0  0  0
 10 11  1  0  0  0  0
 10 20  1  0  0  0  0
 11 15  1  0  0  0  0
 12 13  1  0  0  0  0
 12 16  1  0  0  0  0
 14 17  1  0  0  0  0
 15 16  1  0  0  0  0
 17 18  1  0  0  0  0
 18 19  1  0  0  0  0
 19 20  1  0  0  0  0
M  END
> <ID>
6609

> <Formula>
C21H38BrN

> <FW>
384.4371 (304.5326+79.9045)

> <DSSTox_CID>
13307

> <DSSTox_RID>
79061

> <DSSTox_GSID>
33307

> <DSSTox_FileID_Sort>
3743

> <TS_ChemName>
Cetylpyridinium bromide

> <TS_ChemName_Synonyms>
Hexadecylpyridinium bromide (Cetylpyridinium bromide)

> <TS_CASRN>
140-72-7

> <CASRN_ChemName_Relationship>
primary

> <TS_Description>
single chemical compound

> <ChemNote>
ammonium; parent [7773-52-6]

> <STRUCTURE_Shown>
tested chemical

> <STRUCTURE_Formula>
C21H38BrN

> <STRUCTURE_MW>
384.4371

> <STRUCTURE_ChemType>
defined organic

> <STRUCTURE_DefinedOrganicForm>
salt

> <STRUCTURE_IUPAC>
1-hexadecylpyridinium bromide

> <STRUCTURE_SMILES>
[Br-].CCCCCCCCCCCCCCCC[n+]1ccccc1

> <STRUCTURE_SMILES_Desalt>
CCCCCCCCCCCCCCCC[n+]1ccccc1

> <Substance_modify_yyyymmdd>
20080429

$$$$
