140-93-2
ChemmineR-0915142007XD

  8  6  0  0  0  0  0  0  0  0  2 V2000
    2.6069   -0.6714    0.0000 C    0  0  0  0  0  0  0  0  0  0  0  0
    3.7622    0.0000    0.0000 O    0  0  0  0  0  0  0  0  0  0  0  0
    2.6069   -2.0021    0.0000 S    0  0  0  0  0  0  0  0  0  0  0  0
    1.4577    0.0000    0.0000 S    0  5  0  0  0  0  0  0  0  0  0  0
    4.9114   -0.6714    0.0000 C    0  0  0  0  0  0  0  0  0  0  0  0
    6.0485    0.0000    0.0000 C    0  0  0  0  0  0  0  0  0  0  0  0
    4.9114   -2.0021    0.0000 C    0  0  0  0  0  0  0  0  0  0  0  0
    0.0000   -1.3125    0.0000 Na   0  3  0  0  0  0  0  0  0  0  0  0
  1  2  1  0  0  0  0
  1  4  1  0  0  0  0
  1  3  2  0  0  0  0
  2  5  1  0  0  0  0
  5  6  1  0  0  0  0
  5  7  1  0  0  0  0
M  END
> <ID>
4921

> <Formula>
C4H7NaOS2

> <FW>
158.2175 (135.2283+22.9892)

> <DSSTox_CID>
7084

> <DSSTox_RID>
78302

> <DSSTox_GSID>
27084

> <DSSTox_FileID_Sort>
2985

> <TS_ChemName>
Proxan-sodium

> <TS_ChemName_Synonyms>
Proxan-sodium (Carbonodithioic acid, O-(1-methylethyl) ester, sodium salt) (Sodium isopropylxanthate)

> <TS_CASRN>
140-93-2

> <CASRN_ChemName_Relationship>
primary

> <TS_Description>
single chemical compound

> <ChemNote>
parent [108-25-8]

> <STRUCTURE_Shown>
tested chemical

> <STRUCTURE_Formula>
C4H7NaOS2

> <STRUCTURE_MW>
158.2175

> <STRUCTURE_ChemType>
defined organic

> <STRUCTURE_DefinedOrganicForm>
salt

> <STRUCTURE_IUPAC>
sodium O-propan-2-yl carbonodithioate

> <STRUCTURE_SMILES>
[Na+].CC(C)OC([S-])=S

> <STRUCTURE_SMILES_Desalt>
CC(C)OC(=S)S

> <Substance_modify_yyyymmdd>
20080429

$$$$
