140-29-4
ChemmineR-0915142007XD

  9  9  0  0  0  0  0  0  0  0  1 V2000
    0.0000   -1.3304    0.0000 N   0  0  0  0  0  0  0  0  0  0  0  0
    1.1518   -1.9984    0.0000 C   0  0  0  0  0  0  0  0  0  0  0  0
    2.3037   -2.6607    0.0000 C   0  0  0  0  0  0  0  0  0  0  0  0
    3.4555   -1.9984    0.0000 C   0  0  0  0  0  0  0  0  0  0  0  0
    3.4555   -0.6681    0.0000 C   0  0  0  0  0  0  0  0  0  0  0  0
    4.6073    0.0000    0.0000 C   0  0  0  0  0  0  0  0  0  0  0  0
    5.7591   -0.6681    0.0000 C   0  0  0  0  0  0  0  0  0  0  0  0
    5.7591   -1.9984    0.0000 C   0  0  0  0  0  0  0  0  0  0  0  0
    4.6073   -2.6607    0.0000 C   0  0  0  0  0  0  0  0  0  0  0  0
  1  2  3  0  0  0  0
  2  3  1  0  0  0  0
  3  4  1  0  0  0  0
  4  5  2  0  0  0  0
  4  9  1  0  0  0  0
  5  6  1  0  0  0  0
  6  7  2  0  0  0  0
  7  8  1  0  0  0  0
  8  9  2  0  0  0  0
M  END
> <ID>
1432

> <Formula>
C8H7N

> <FW>
117.1479

> <DSSTox_CID>
1492

> <DSSTox_RID>
76184

> <DSSTox_GSID>
21492

> <DSSTox_FileID_Sort>
868

> <TS_ChemName>
Benzyl cyanide

> <TS_ChemName_Synonyms>
Benzyl cyanide (Phenylacetonitrile) (Benzeneacetonitrile)

> <TS_CASRN>
140-29-4

> <CASRN_ChemName_Relationship>
primary

> <TS_Description>
single chemical compound

> <ChemNote>


> <STRUCTURE_Shown>
tested chemical

> <STRUCTURE_Formula>
C8H7N

> <STRUCTURE_MW>
117.1479

> <STRUCTURE_ChemType>
defined organic

> <STRUCTURE_DefinedOrganicForm>
parent

> <STRUCTURE_IUPAC>
phenylacetonitrile

> <STRUCTURE_SMILES>
N#CCc1ccccc1

> <STRUCTURE_SMILES_Desalt>
N#CCc1ccccc1

> <Substance_modify_yyyymmdd>
20080429

$$$$
