140-89-6
ChemmineR-0915142007XD

  7  5  0  0  0  0  0  0  0  0  2 V2000
    3.4422   -1.3376    0.0000 C   0  0  0  0  0  0  0  0  0  0  0  0
    3.4422    0.0000    0.0000 S   0  0  0  0  0  0  0  0  0  0  0  0
    4.5896   -2.0064    0.0000 S   0  5  0  0  0  0  0  0  0  0  0  0
    2.3132   -2.0064    0.0000 O   0  0  0  0  0  0  0  0  0  0  0  0
    1.1474   -1.3376    0.0000 C   0  0  0  0  0  0  0  0  0  0  0  0
    0.0000   -2.0064    0.0000 C   0  0  0  0  0  0  0  0  0  0  0  0
    6.1358   -2.0862    0.0000 K   0  3  0  0  0  0  0  0  0  0  0  0
  1  2  2  0  0  0  0
  1  3  1  0  0  0  0
  1  4  1  0  0  0  0
  4  5  1  0  0  0  0
  5  6  1  0  0  0  0
M  END
> <ID>
9237

> <Formula>
C3H5KOS2

> <FW>
160.2995 (121.2017+39.0978)

> <DSSTox_CID>
22315

> <DSSTox_RID>
79992

> <DSSTox_GSID>
42315

> <DSSTox_FileID_Sort>
4674

> <TS_ChemName>
Potassium ethyl xanthate

> <TS_ChemName_Synonyms>


> <TS_CASRN>
140-89-6

> <CASRN_ChemName_Relationship>
primary

> <TS_Description>
single chemical compound

> <ChemNote>
parent [151-01-9]

> <STRUCTURE_Shown>
tested chemical

> <STRUCTURE_Formula>
C3H5KOS2

> <STRUCTURE_MW>
160.2995

> <STRUCTURE_ChemType>
defined organic

> <STRUCTURE_DefinedOrganicForm>
salt

> <STRUCTURE_IUPAC>
potassium O-ethyl carbonodithioate

> <STRUCTURE_SMILES>
[K+].[S-]C(=S)OCC

> <STRUCTURE_SMILES_Desalt>
CCOC(=S)S

> <Substance_modify_yyyymmdd>
20080825

$$$$
