140-95-4
ChemmineR-0915142007XD

  8  7  0  0  0  0  0  0  0  0  1 V2000
    6.9115   -1.9974    0.0000 O   0  0  0  0  0  0  0  0  0  0  0  0
    5.7573   -1.3339    0.0000 C   0  0  0  0  0  0  0  0  0  0  0  0
    4.6100   -1.9974    0.0000 N   0  0  0  0  0  0  0  0  0  0  0  0
    3.4558   -1.3339    0.0000 C   0  0  0  0  0  0  0  0  0  0  0  0
    3.4558    0.0000    0.0000 O   0  0  0  0  0  0  0  0  0  0  0  0
    2.3015   -1.9974    0.0000 N   0  0  0  0  0  0  0  0  0  0  0  0
    1.1542   -1.3339    0.0000 C   0  0  0  0  0  0  0  0  0  0  0  0
    0.0000   -1.9974    0.0000 O   0  0  0  0  0  0  0  0  0  0  0  0
  1  2  1  0  0  0  0
  2  3  1  0  0  0  0
  3  4  1  0  0  0  0
  4  5  2  0  0  0  0
  4  6  1  0  0  0  0
  6  7  1  0  0  0  0
  7  8  1  0  0  0  0
M  END
> <ID>
4041

> <Formula>
C3H8N2O3

> <FW>
120.1072

> <DSSTox_CID>
5141

> <DSSTox_RID>
77684

> <DSSTox_GSID>
25141

> <DSSTox_FileID_Sort>
2367

> <TS_ChemName>
Dimethylolurea

> <TS_ChemName_Synonyms>
N,N-Bis(hydroxymethyl)urea

> <TS_CASRN>
140-95-4

> <CASRN_ChemName_Relationship>
primary

> <TS_Description>
single chemical compound

> <ChemNote>


> <STRUCTURE_Shown>
tested chemical

> <STRUCTURE_Formula>
C3H8N2O3

> <STRUCTURE_MW>
120.1072

> <STRUCTURE_ChemType>
defined organic

> <STRUCTURE_DefinedOrganicForm>
parent

> <STRUCTURE_IUPAC>
1,3-bis(hydroxymethyl)urea

> <STRUCTURE_SMILES>
OCNC(=O)NCO

> <STRUCTURE_SMILES_Desalt>
OCNC(=O)NCO

> <Substance_modify_yyyymmdd>
20080429

$$$$
