140-40-9
ChemmineR-0915142007XD

 12 12  0  0  0  0  0  0  0  0  2 V2000
    2.3053   -1.7269    0.0000 C   0  0  0  0  0  0  0  0  0  0  0  0
    3.4057   -0.9719    0.0000 S   0  0  0  0  0  0  0  0  0  0  0  0
    1.0040   -1.3253    0.0000 N   0  3  0  0  0  0  0  0  0  0  0  0
    4.4177   -1.7109    0.0000 C   0  0  0  0  0  0  0  0  0  0  0  0
    4.0161   -3.0041    0.0000 N   0  0  0  0  0  0  0  0  0  0  0  0
    5.6949   -1.2932    0.0000 N   0  0  0  0  0  0  0  0  0  0  0  0
    2.7229   -3.0041    0.0000 C   0  0  0  0  0  0  0  0  0  0  0  0
    6.8676   -1.8876    0.0000 C   0  0  0  0  0  0  0  0  0  0  0  0
    0.7229    0.0000    0.0000 O   0  5  0  0  0  0  0  0  0  0  0  0
    0.0000   -2.1928    0.0000 O   0  0  0  0  0  0  0  0  0  0  0  0
    8.0323   -1.2289    0.0000 O   0  0  0  0  0  0  0  0  0  0  0  0
    6.8676   -3.2290    0.0000 C   0  0  0  0  0  0  0  0  0  0  0  0
  1  2  1  0  0  0  0
  1  3  1  0  0  0  0
  1  7  2  0  0  0  0
  2  4  1  0  0  0  0
  3  9  1  0  0  0  0
  3 10  2  0  0  0  0
  4  6  1  0  0  0  0
  4  5  2  0  0  0  0
  5  7  1  0  0  0  0
  6  8  1  0  0  0  0
  8 11  2  0  0  0  0
  8 12  1  0  0  0  0
M  END
> <ID>
11638

> <Formula>
C5H5N3O3S

> <FW>
187.1765

> <DSSTox_CID>
26391

> <DSSTox_RID>
81571

> <DSSTox_GSID>
46391

> <DSSTox_FileID_Sort>
6252

> <TS_ChemName>
Nithiamide

> <TS_ChemName_Synonyms>


> <TS_CASRN>
140-40-9

> <CASRN_ChemName_Relationship>
primary

> <TS_Description>
single chemical compound

> <ChemNote>


> <STRUCTURE_Shown>
tested chemical

> <STRUCTURE_Formula>
C5H5N3O3S

> <STRUCTURE_MW>
187.1765

> <STRUCTURE_ChemType>
defined organic

> <STRUCTURE_DefinedOrganicForm>
parent

> <STRUCTURE_IUPAC>
N-(5-nitro-1,3-thiazol-2-yl)acetamide

> <STRUCTURE_SMILES>
O=C(C)Nc1ncc(s1)[N+]([O-])=O

> <STRUCTURE_SMILES_Desalt>
O=C(C)Nc1ncc(s1)[N+]([O-])=O

> <Substance_modify_yyyymmdd>
20110814

$$$$
