140-07-8
ChemmineR-0915142007XD

 16 15  0  0  0  0  0  0  0  0  1 V2000
    8.9105   -2.1366    0.0000 C   0  0  0  0  0  0  0  0  0  0  0  0
    7.6010   -1.7821    0.0000 C   0  0  0  0  0  0  0  0  0  0  0  0
    9.8459   -1.1815    0.0000 O   0  0  0  0  0  0  0  0  0  0  0  0
    0.9354   -3.4953    0.0000 C   0  0  0  0  0  0  0  0  0  0  0  0
    2.1956   -3.8497    0.0000 C   0  0  0  0  0  0  0  0  0  0  0  0
    0.0000   -4.4306    0.0000 O   0  0  0  0  0  0  0  0  0  0  0  0
    8.2804   -4.4011    0.0000 C   0  0  0  0  0  0  0  0  0  0  0  0
    7.0004   -4.0270    0.0000 C   0  0  0  0  0  0  0  0  0  0  0  0
    8.6348   -5.6909    0.0000 O   0  0  0  0  0  0  0  0  0  0  0  0
    1.5360   -1.2800    0.0000 C   0  0  0  0  0  0  0  0  0  0  0  0
    2.8159   -1.6344    0.0000 C   0  0  0  0  0  0  0  0  0  0  0  0
    1.2012    0.0000    0.0000 O   0  0  0  0  0  0  0  0  0  0  0  0
    4.4306   -3.2688    0.0000 C   0  0  0  0  0  0  0  0  0  0  0  0
    5.3660   -2.3729    0.0000 C   0  0  0  0  0  0  0  0  0  0  0  0
    3.1408   -2.9144    0.0000 N   0  0  0  0  0  0  0  0  0  0  0  0
    6.6657   -2.7372    0.0000 N   0  0  0  0  0  0  0  0  0  0  0  0
  1  2  1  0  0  0  0
  1  3  1  0  0  0  0
  2 16  1  0  0  0  0
  4  5  1  0  0  0  0
  4  6  1  0  0  0  0
  5 15  1  0  0  0  0
  7  8  1  0  0  0  0
  7  9  1  0  0  0  0
  8 16  1  0  0  0  0
 10 11  1  0  0  0  0
 10 12  1  0  0  0  0
 11 15  1  0  0  0  0
 13 14  1  0  0  0  0
 13 15  1  0  0  0  0
 14 16  1  0  0  0  0
M  END
> <ID>
8863

> <Formula>
C10H24N2O4

> <FW>
236.3086

> <DSSTox_CID>
21917

> <DSSTox_RID>
79877

> <DSSTox_GSID>
41917

> <DSSTox_FileID_Sort>
4559

> <TS_ChemName>
Ethanol, 2,2',2'',2'''-(1,2-ethanediyldinitrilo)tetrakis-

> <TS_ChemName_Synonyms>


> <TS_CASRN>
140-07-8

> <CASRN_ChemName_Relationship>
primary

> <TS_Description>
single chemical compound

> <ChemNote>


> <STRUCTURE_Shown>
tested chemical

> <STRUCTURE_Formula>
C10H24N2O4

> <STRUCTURE_MW>
236.3086

> <STRUCTURE_ChemType>
defined organic

> <STRUCTURE_DefinedOrganicForm>
parent

> <STRUCTURE_IUPAC>
2,2',2'',2'''-(ethane-1,2-diyldinitrilo)tetraethanol

> <STRUCTURE_SMILES>
OCCN(CCN(CCO)CCO)CCO

> <STRUCTURE_SMILES_Desalt>
OCCN(CCN(CCO)CCO)CCO

> <Substance_modify_yyyymmdd>
20080825

$$$$
