140-38-5
ChemmineR-0915142007XD

 11 11  0  0  0  0  0  0  0  0  1 V2000
    1.1534   -1.9891    0.0000 C    0  0  0  0  0  0  0  0  0  0  0  0
    1.1534   -0.6561    0.0000 O    0  0  0  0  0  0  0  0  0  0  0  0
    2.2930   -2.6590    0.0000 N    0  0  0  0  0  0  0  0  0  0  0  0
    0.0000   -2.6452    0.0000 N    0  0  0  0  0  0  0  0  0  0  0  0
    4.5997    0.0000    0.0000 C    0  0  0  0  0  0  0  0  0  0  0  0
    5.7531   -0.6561    0.0000 C    0  0  0  0  0  0  0  0  0  0  0  0
    5.7531   -1.9891    0.0000 C    0  0  0  0  0  0  0  0  0  0  0  0
    4.5997   -2.6590    0.0000 C    0  0  0  0  0  0  0  0  0  0  0  0
    3.4463   -1.9891    0.0000 C    0  0  0  0  0  0  0  0  0  0  0  0
    3.4463   -0.6561    0.0000 C    0  0  0  0  0  0  0  0  0  0  0  0
    6.9065    0.0000    0.0000 Cl   0  0  0  0  0  0  0  0  0  0  0  0
  1  2  2  0  0  0  0
  1  3  1  0  0  0  0
  1  4  1  0  0  0  0
  3  9  1  0  0  0  0
  5 10  2  0  0  0  0
  5  6  1  0  0  0  0
  6  7  2  0  0  0  0
  6 11  1  0  0  0  0
  7  8  1  0  0  0  0
  8  9  2  0  0  0  0
  9 10  1  0  0  0  0
M  END
> <ID>
8478

> <Formula>
C7H7ClN2O

> <FW>
170.5963

> <DSSTox_CID>
21512

> <DSSTox_RID>
79757

> <DSSTox_GSID>
41512

> <DSSTox_FileID_Sort>
4439

> <TS_ChemName>
4-Chlorophenylurea

> <TS_ChemName_Synonyms>


> <TS_CASRN>
140-38-5

> <CASRN_ChemName_Relationship>
primary

> <TS_Description>
single chemical compound

> <ChemNote>


> <STRUCTURE_Shown>
tested chemical

> <STRUCTURE_Formula>
C7H7ClN2O

> <STRUCTURE_MW>
170.5963

> <STRUCTURE_ChemType>
defined organic

> <STRUCTURE_DefinedOrganicForm>
parent

> <STRUCTURE_IUPAC>
1-(4-chlorophenyl)urea

> <STRUCTURE_SMILES>
Clc1ccc(NC(N)=O)cc1

> <STRUCTURE_SMILES_Desalt>
Clc1ccc(NC(N)=O)cc1

> <Substance_modify_yyyymmdd>
20080825

$$$$
