140-11-4
ChemmineR-0915142007XD

 11 11  0  0  0  0  0  0  0  0  1 V2000
    0.0000   -2.3079    0.0000 C   0  0  0  0  0  0  0  0  0  0  0  0
    0.6651   -1.1573    0.0000 C   0  0  0  0  0  0  0  0  0  0  0  0
    0.0000    0.0000    0.0000 O   0  0  0  0  0  0  0  0  0  0  0  0
    1.9953   -1.1573    0.0000 O   0  0  0  0  0  0  0  0  0  0  0  0
    2.6605   -2.3079    0.0000 C   0  0  0  0  0  0  0  0  0  0  0  0
    3.9907   -2.3079    0.0000 C   0  0  0  0  0  0  0  0  0  0  0  0
    4.6558   -1.1573    0.0000 C   0  0  0  0  0  0  0  0  0  0  0  0
    5.9860   -1.1573    0.0000 C   0  0  0  0  0  0  0  0  0  0  0  0
    6.6511   -2.3079    0.0000 C   0  0  0  0  0  0  0  0  0  0  0  0
    5.9860   -3.4586    0.0000 C   0  0  0  0  0  0  0  0  0  0  0  0
    4.6558   -3.4586    0.0000 C   0  0  0  0  0  0  0  0  0  0  0  0
  1  2  1  0  0  0  0
  2  3  2  0  0  0  0
  2  4  1  0  0  0  0
  4  5  1  0  0  0  0
  5  6  1  0  0  0  0
  6  7  2  0  0  0  0
  6 11  1  0  0  0  0
  7  8  1  0  0  0  0
  8  9  2  0  0  0  0
  9 10  1  0  0  0  0
 10 11  2  0  0  0  0
M  END
> <ID>
148

> <Formula>
C9H10O2

> <FW>
150.1745

> <DSSTox_CID>
151

> <DSSTox_RID>
75403

> <DSSTox_GSID>
20151

> <DSSTox_FileID_Sort>
87

> <TS_ChemName>
Benzyl acetate

> <TS_ChemName_Synonyms>
Benzyl acetate (Acetic acid, phenylmethyl ester)

> <TS_CASRN>
140-11-4

> <CASRN_ChemName_Relationship>
primary

> <TS_Description>
single chemical compound

> <ChemNote>


> <STRUCTURE_Shown>
tested chemical

> <STRUCTURE_Formula>
C9H10O2

> <STRUCTURE_MW>
150.1745

> <STRUCTURE_ChemType>
defined organic

> <STRUCTURE_DefinedOrganicForm>
parent

> <STRUCTURE_IUPAC>
benzyl acetate

> <STRUCTURE_SMILES>
CC(=O)OCc1ccccc1

> <STRUCTURE_SMILES_Desalt>
CC(=O)OCc1ccccc1

> <Substance_modify_yyyymmdd>
20080429

$$$$
