140-08-9
ChemmineR-0915142007XD

 13 12  0  0  0  0  0  0  0  0  1 V2000
    0.0000   -3.4536    0.0000 Cl   0  0  0  0  0  0  0  0  0  0  0  0
    1.3320   -3.4536    0.0000 C    0  0  0  0  0  0  0  0  0  0  0  0
    1.9940   -2.3051    0.0000 C    0  0  0  0  0  0  0  0  0  0  0  0
    3.3260   -2.3051    0.0000 O    0  0  0  0  0  0  0  0  0  0  0  0
    3.9880   -1.1486    0.0000 P    0  0  0  0  0  0  0  0  0  0  0  0
    3.3260    0.0000    0.0000 O    0  0  0  0  0  0  0  0  0  0  0  0
    1.9940    0.0000    0.0000 C    0  0  0  0  0  0  0  0  0  0  0  0
    1.3320   -1.1486    0.0000 C    0  0  0  0  0  0  0  0  0  0  0  0
    0.0000   -1.1486    0.0000 Cl   0  0  0  0  0  0  0  0  0  0  0  0
    5.3201   -1.1486    0.0000 O    0  0  0  0  0  0  0  0  0  0  0  0
    5.9821   -2.3051    0.0000 C    0  0  0  0  0  0  0  0  0  0  0  0
    7.3141   -2.3051    0.0000 C    0  0  0  0  0  0  0  0  0  0  0  0
    7.9761   -3.4536    0.0000 Cl   0  0  0  0  0  0  0  0  0  0  0  0
  1  2  1  0  0  0  0
  2  3  1  0  0  0  0
  3  4  1  0  0  0  0
  4  5  1  0  0  0  0
  5  6  1  0  0  0  0
  5 10  1  0  0  0  0
  6  7  1  0  0  0  0
  7  8  1  0  0  0  0
  8  9  1  0  0  0  0
 10 11  1  0  0  0  0
 11 12  1  0  0  0  0
 12 13  1  0  0  0  0
M  END
> <ID>
4621

> <Formula>
C6H12Cl3O3P

> <FW>
269.4904

> <DSSTox_CID>
6258

> <DSSTox_RID>
78076

> <DSSTox_GSID>
26258

> <DSSTox_FileID_Sort>
2759

> <TS_ChemName>
Tris(2-chloroethyl) phosphite

> <TS_ChemName_Synonyms>
Tris(2-chloroethyl) phosphite (Ethanol, 2-chloro-, phosphite (3:1))

> <TS_CASRN>
140-08-9

> <CASRN_ChemName_Relationship>
primary

> <TS_Description>
single chemical compound

> <ChemNote>


> <STRUCTURE_Shown>
tested chemical

> <STRUCTURE_Formula>
C6H12Cl3O3P

> <STRUCTURE_MW>
269.4904

> <STRUCTURE_ChemType>
defined organic

> <STRUCTURE_DefinedOrganicForm>
parent

> <STRUCTURE_IUPAC>
tris(2-chloroethyl) phosphite

> <STRUCTURE_SMILES>
ClCCOP(OCCCl)OCCCl

> <STRUCTURE_SMILES_Desalt>
ClCCOP(OCCCl)OCCCl

> <Substance_modify_yyyymmdd>
20080429

$$$$
