140-64-7
ChemmineR-0915142007XD

 39 38  0  0  0  0  0  0  0  0  1 V2000
    0.0000   -2.0013    0.0000 N   0  0  0  0  0  0  0  0  0  0  0  0
    1.1620   -1.3342    0.0000 C   0  0  0  0  0  0  0  0  0  0  0  0
    1.1620    0.0000    0.0000 N   0  0  0  0  0  0  0  0  0  0  0  0
    2.3026   -2.0013    0.0000 C   0  0  0  0  0  0  0  0  0  0  0  0
    3.4646   -1.3342    0.0000 C   0  0  0  0  0  0  0  0  0  0  0  0
    4.6051   -2.0013    0.0000 C   0  0  0  0  0  0  0  0  0  0  0  0
    4.6051   -3.3140    0.0000 C   0  0  0  0  0  0  0  0  0  0  0  0
    5.7672   -3.9811    0.0000 O   0  0  0  0  0  0  0  0  0  0  0  0
    6.9292   -3.3140    0.0000 C   0  0  0  0  0  0  0  0  0  0  0  0
    8.0698   -3.9811    0.0000 C   0  0  0  0  0  0  0  0  0  0  0  0
    9.2318   -3.3140    0.0000 C   0  0  0  0  0  0  0  0  0  0  0  0
   10.3723   -3.9811    0.0000 C   0  0  0  0  0  0  0  0  0  0  0  0
   11.5344   -3.3140    0.0000 C   0  0  0  0  0  0  0  0  0  0  0  0
   12.6964   -3.9811    0.0000 O   0  0  0  0  0  0  0  0  0  0  0  0
   13.8369   -3.3140    0.0000 C   0  0  0  0  0  0  0  0  0  0  0  0
   13.8369   -2.0013    0.0000 C   0  0  0  0  0  0  0  0  0  0  0  0
   14.9990   -1.3342    0.0000 C   0  0  0  0  0  0  0  0  0  0  0  0
   16.1395   -2.0013    0.0000 C   0  0  0  0  0  0  0  0  0  0  0  0
   16.1395   -3.3140    0.0000 C   0  0  0  0  0  0  0  0  0  0  0  0
   14.9990   -3.9811    0.0000 C   0  0  0  0  0  0  0  0  0  0  0  0
   17.3016   -1.3342    0.0000 C   0  0  0  0  0  0  0  0  0  0  0  0
   18.4636   -2.0013    0.0000 N   0  0  0  0  0  0  0  0  0  0  0  0
   17.3016    0.0000    0.0000 N   0  0  0  0  0  0  0  0  0  0  0  0
    3.4646   -3.9811    0.0000 C   0  0  0  0  0  0  0  0  0  0  0  0
    2.3026   -3.3140    0.0000 C   0  0  0  0  0  0  0  0  0  0  0  0
    4.9710   -6.1330    0.0000 O   0  0  0  0  0  0  0  0  0  0  0  0
    4.9710   -7.4457    0.0000 C   0  0  0  0  0  0  0  0  0  0  0  0
    3.8304   -8.1128    0.0000 C   0  0  0  0  0  0  0  0  0  0  0  0
    2.6684   -7.4457    0.0000 S   0  0  0  0  0  0  0  0  0  0  0  0
    1.5279   -6.7786    0.0000 O   0  0  0  0  0  0  0  0  0  0  0  0
    3.3355   -6.3052    0.0000 O   0  0  0  0  0  0  0  0  0  0  0  0
    2.0013   -8.6077    0.0000 O   0  0  0  0  0  0  0  0  0  0  0  0
   21.5194   -4.4545    0.0000 O   0  0  0  0  0  0  0  0  0  0  0  0
   21.5194   -5.7887    0.0000 C   0  0  0  0  0  0  0  0  0  0  0  0
   20.3573   -6.4558    0.0000 C   0  0  0  0  0  0  0  0  0  0  0  0
   19.2168   -5.7887    0.0000 S   0  0  0  0  0  0  0  0  0  0  0  0
   18.0547   -5.1216    0.0000 O   0  0  0  0  0  0  0  0  0  0  0  0
   19.8839   -4.6267    0.0000 O   0  0  0  0  0  0  0  0  0  0  0  0
   18.5497   -6.9508    0.0000 O   0  0  0  0  0  0  0  0  0  0  0  0
  1  2  1  0  0  0  0
  2  3  2  0  0  0  0
  2  4  1  0  0  0  0
  4  5  2  0  0  0  0
  4 25  1  0  0  0  0
  5  6  1  0  0  0  0
  6  7  2  0  0  0  0
  7  8  1  0  0  0  0
  7 24  1  0  0  0  0
  8  9  1  0  0  0  0
  9 10  1  0  0  0  0
 10 11  1  0  0  0  0
 11 12  1  0  0  0  0
 12 13  1  0  0  0  0
 13 14  1  0  0  0  0
 14 15  1  0  0  0  0
 15 16  2  0  0  0  0
 15 20  1  0  0  0  0
 16 17  1  0  0  0  0
 17 18  2  0  0  0  0
 18 19  1  0  0  0  0
 18 21  1  0  0  0  0
 19 20  2  0  0  0  0
 21 22  1  0  0  0  0
 21 23  2  0  0  0  0
 24 25  2  0  0  0  0
 26 27  1  0  0  0  0
 27 28  1  0  0  0  0
 28 29  1  0  0  0  0
 29 30  1  0  0  0  0
 29 31  2  0  0  0  0
 29 32  2  0  0  0  0
 33 34  1  0  0  0  0
 34 35  1  0  0  0  0
 35 36  1  0  0  0  0
 36 37  1  0  0  0  0
 36 38  2  0  0  0  0
 36 39  2  0  0  0  0
M  END
> <ID>
3368

> <Formula>
C23H36N4O10S2

> <FW>
592.6827 (340.4195+126.1316+126.1316)

> <DSSTox_CID>
3796

> <DSSTox_RID>
77194

> <DSSTox_GSID>
23796

> <DSSTox_FileID_Sort>
1877

> <TS_ChemName>
Pentamidine isethionate

> <TS_ChemName_Synonyms>


> <TS_CASRN>
140-64-7

> <CASRN_ChemName_Relationship>
primary

> <TS_Description>
single chemical compound

> <ChemNote>
parent [100-33-4]

> <STRUCTURE_Shown>
tested chemical

> <STRUCTURE_Formula>
C23H36N4O10S2

> <STRUCTURE_MW>
592.6827

> <STRUCTURE_ChemType>
defined organic

> <STRUCTURE_DefinedOrganicForm>
complex

> <STRUCTURE_IUPAC>
2-hydroxyethanesulfonic acid - 4,4'-[pentane-1,5-diylbis(oxy)]dibenzenecarboximidamide (2:1)

> <STRUCTURE_SMILES>
OCCS(=O)(=O)O.OCCS(=O)(=O)O.N=C(N)c1ccc(cc1)OCCCCCOc2ccc(cc2)C(=N)N

> <STRUCTURE_SMILES_Desalt>
N=C(N)c1ccc(cc1)OCCCCCOc2ccc(cc2)C(=N)N

> <Substance_modify_yyyymmdd>
20080429

$$$$
