1400-61-9
ChemmineR-0915142007XD

 65 67  0  0  1  0  0  0  0  0  1 V2000
    4.5979   -1.9771    0.0000 C   0  0  0  0  0  0  0  0  0  0  0  0
    3.4484   -1.3104    0.0000 O   0  0  0  0  0  0  0  0  0  0  0  0
    2.2989   -1.9771    0.0000 C   0  0  0  0  0  0  0  0  0  0  0  0
    2.2989   -3.3105    0.0000 C   0  0  0  0  0  0  0  0  0  0  0  0
    5.7474   -1.3104    0.0000 C   0  0  0  0  0  0  0  0  0  0  0  0
    6.8968   -1.9771    0.0000 C   0  0  0  0  0  0  0  0  0  0  0  0
    8.0463   -1.3104    0.0000 C   0  0  0  0  0  0  0  0  0  0  0  0
    9.1958   -1.9771    0.0000 C   0  0  0  0  0  0  0  0  0  0  0  0
   10.3453   -1.3104    0.0000 C   0  0  0  0  0  0  0  0  0  0  0  0
   11.4947   -1.9771    0.0000 C   0  0  0  0  0  0  0  0  0  0  0  0
   12.6442   -1.3334    0.0000 C   0  0  0  0  0  0  0  0  0  0  0  0
   13.7937   -1.9771    0.0000 C   0  0  0  0  0  0  0  0  0  0  0  0
   14.9431   -1.3334    0.0000 C   0  0  0  0  0  0  0  0  0  0  0  0
   16.0926   -1.9771    0.0000 C   0  0  0  0  0  0  0  0  0  0  0  0
   17.2421   -1.3334    0.0000 C   0  0  0  0  0  0  0  0  0  0  0  0
   18.3916   -1.9771    0.0000 C   0  0  0  0  0  0  0  0  0  0  0  0
   18.3916   -3.3105    0.0000 O   0  0  0  0  0  0  0  0  0  0  0  0
    3.4484   -5.3106    0.0000 C   0  0  0  0  0  0  0  0  0  0  0  0
    2.2989   -5.9773    0.0000 C   0  0  0  0  0  0  0  0  0  0  0  0
    1.1495   -3.9772    0.0000 C   0  0  0  0  0  0  0  0  0  0  0  0
    1.1495   -5.3106    0.0000 C   0  0  0  0  0  0  0  0  0  0  0  0
    5.7474   -5.3106    0.0000 C   0  0  0  0  0  0  0  0  0  0  0  0
    4.5979   -5.9773    0.0000 C   0  0  0  0  0  0  0  0  0  0  0  0
    8.0463   -5.3106    0.0000 C   0  0  0  0  0  0  0  0  0  0  0  0
    6.8968   -5.9773    0.0000 C   0  0  0  0  0  0  0  0  0  0  0  0
   10.3453   -5.3106    0.0000 C   0  0  0  0  0  0  0  0  0  0  0  0
    9.1958   -5.9773    0.0000 C   0  0  0  0  0  0  0  0  0  0  0  0
   12.6442   -5.3106    0.0000 C   0  0  0  0  0  0  0  0  0  0  0  0
   11.4947   -5.9773    0.0000 C   0  0  0  0  0  0  0  0  0  0  0  0
   13.7937   -5.9773    0.0000 C   0  0  0  0  0  0  0  0  0  0  0  0
   14.9431   -5.3106    0.0000 C   0  0  0  0  0  0  0  0  0  0  0  0
   16.0926   -5.9773    0.0000 C   0  0  0  0  0  0  0  0  0  0  0  0
   17.2421   -5.3106    0.0000 C   0  0  0  0  0  0  0  0  0  0  0  0
    4.5979   -3.3105    0.0000 O   0  0  0  0  0  0  0  0  0  0  0  0
   19.5410   -1.3334    0.0000 C   0  0  0  0  0  0  0  0  0  0  0  0
   20.6905   -1.9771    0.0000 C   0  0  0  0  0  0  0  0  0  0  0  0
   19.5410   -3.9772    0.0000 C   0  0  0  0  0  0  0  0  0  0  0  0
   20.6905   -3.3105    0.0000 C   0  0  0  0  0  0  0  0  0  0  0  0
   19.5410   -5.3106    0.0000 C   0  0  0  0  0  0  0  0  0  0  0  0
   18.3916   -5.9773    0.0000 C   0  0  0  0  0  0  0  0  0  0  0  0
    6.8968   -3.3105    0.0000 O   0  0  0  0  0  0  0  0  0  0  0  0
    9.1958   -3.3105    0.0000 O   0  0  0  0  0  0  0  0  0  0  0  0
   11.4947   -3.3105    0.0000 O   0  0  0  0  0  0  0  0  0  0  0  0
   14.9431    0.0000    0.0000 O   0  0  0  0  0  0  0  0  0  0  0  0
   16.0926   -3.3105    0.0000 O   0  0  0  0  0  0  0  0  0  0  0  0
   18.3686   -0.4828    0.0000 O   0  0  0  0  0  0  0  0  0  0  0  0
   21.8400   -1.3334    0.0000 O   0  0  0  0  0  0  0  0  0  0  0  0
   21.8400   -3.9772    0.0000 C   0  0  0  0  0  0  0  0  0  0  0  0
   21.8400   -5.3106    0.0000 O   0  0  0  0  0  0  0  0  0  0  0  0
   22.9895   -3.3105    0.0000 O   0  0  0  0  0  0  0  0  0  0  0  0
   18.3916   -7.2877    0.0000 O   0  0  0  0  0  0  0  0  0  0  0  0
   19.5410   -7.9773    0.0000 C   0  0  0  0  0  0  0  0  0  0  0  0
   20.6905   -7.3106    0.0000 O   0  0  0  0  0  0  0  0  0  0  0  0
   19.5410   -9.2877    0.0000 C   0  0  0  0  0  0  0  0  0  0  0  0
   21.8400   -7.9773    0.0000 C   0  0  0  0  0  0  0  0  0  0  0  0
   20.6905   -9.9544    0.0000 C   0  0  0  0  0  0  0  0  0  0  0  0
   21.8400   -9.2877    0.0000 C   0  0  0  0  0  0  0  0  0  0  0  0
    0.0000   -5.9773    0.0000 C   0  0  0  0  0  0  0  0  0  0  0  0
    0.0000   -3.3105    0.0000 O   0  0  0  0  0  0  0  0  0  0  0  0
    3.4484   -3.9772    0.0000 C   0  0  0  0  0  0  0  0  0  0  0  0
    1.1495   -1.3104    0.0000 C   0  0  0  0  0  0  0  0  0  0  0  0
   18.3916   -9.9544    0.0000 O   0  0  0  0  0  0  0  0  0  0  0  0
   20.6905  -11.2878    0.0000 N   0  0  0  0  0  0  0  0  0  0  0  0
   22.9895   -9.9544    0.0000 O   0  0  0  0  0  0  0  0  0  0  0  0
   22.9895   -7.3106    0.0000 C   0  0  0  0  0  0  0  0  0  0  0  0
  1  2  1  0  0  0  0
  1  5  1  0  0  0  0
  1 34  2  0  0  0  0
  2  3  1  0  0  0  0
  3  4  1  0  0  0  0
  3 61  1  6  0  0  0
  4 20  1  0  0  0  0
  4 60  1  6  0  0  0
  5  6  1  0  0  0  0
  6  7  1  0  0  0  0
  6 41  1  1  0  0  0
  7  8  1  0  0  0  0
  8  9  1  0  0  0  0
  8 42  1  1  0  0  0
  9 10  1  0  0  0  0
 10 11  1  0  0  0  0
 10 43  1  1  0  0  0
 11 12  1  0  0  0  0
 12 13  1  0  0  0  0
 13 14  1  0  0  0  0
 13 44  1  1  0  0  0
 14 15  1  0  0  0  0
 14 45  1  1  0  0  0
 15 16  1  0  0  0  0
 16 35  1  0  0  0  0
 16 17  1  0  0  0  0
 16 46  1  1  0  0  0
 17 37  1  0  0  0  0
 18 19  2  0  0  0  0
 18 23  1  0  0  0  0
 19 21  1  0  0  0  0
 20 21  1  0  0  0  0
 20 59  1  1  0  0  0
 21 58  1  6  0  0  0
 22 23  2  0  0  0  0
 22 25  1  0  0  0  0
 24 25  1  0  0  0  0
 24 27  1  0  0  0  0
 26 27  2  0  0  0  0
 26 29  1  0  0  0  0
 28 29  2  0  0  0  0
 28 30  1  0  0  0  0
 30 31  2  0  0  0  0
 31 32  1  0  0  0  0
 32 33  2  0  0  0  0
 33 40  1  0  0  0  0
 35 36  1  0  0  0  0
 36 38  1  0  0  0  0
 36 47  1  6  0  0  0
 37 38  1  0  0  0  0
 37 39  1  0  0  0  0
 38 48  1  1  0  0  0
 39 40  1  0  0  0  0
 40 51  1  1  0  0  0
 48 49  2  0  0  0  0
 48 50  1  0  0  0  0
 52 51  1  1  0  0  0
 52 53  1  0  0  0  0
 52 54  1  0  0  0  0
 53 55  1  0  0  0  0
 54 56  1  0  0  0  0
 54 62  1  1  0  0  0
 55 57  1  0  0  0  0
 55 65  1  1  0  0  0
 56 57  1  0  0  0  0
 56 63  1  1  0  0  0
 57 64  1  6  0  0  0
M  END
> <ID>
7886

> <Formula>
C47H75NO17

> <FW>
926.0949

> <DSSTox_CID>
20688

> <DSSTox_RID>
79544

> <DSSTox_GSID>
40688

> <DSSTox_FileID_Sort>
4226

> <TS_ChemName>
Nystatin

> <TS_ChemName_Synonyms>


> <TS_CASRN>
1400-61-9

> <CASRN_ChemName_Relationship>
primary

> <TS_Description>
mixture or formulation

> <ChemNote>
mixture of nystatin A1, A2 and A3; structure shown A1; stereochem

> <STRUCTURE_Shown>
representative component

> <STRUCTURE_Formula>
C47H75NO17

> <STRUCTURE_MW>
926.0949

> <STRUCTURE_ChemType>
defined organic

> <STRUCTURE_DefinedOrganicForm>
parent

> <STRUCTURE_IUPAC>
(1S,3R,4R,7R,9R,11R,15S,16R,17R,18S,19E,21E,25E,27E,29E,31E,33R,36R,37S)-33-[(3-amino-3,6-dideoxy-beta-L-mannopyranosyl)oxy]-1,3,4,7,9,11,17,37-octahydroxy-15,16,18-trimethyl-13-oxo-14,39-dioxabicyclo[33.3.1]nonatriaconta-19,21,25,27,29,31-hexaene-36-carb

> <STRUCTURE_SMILES>
O=C(O)[C@@H]3[C@@H](O)C[C@@]2(O)C[C@@H](O)[C@H](O)CC[C@@H](O)C[C@@H](O)C[C@@H](O)CC(=O)O[C@@H](C)[C@H](C)[C@H](O)[C@@H](C)C=CC=CCCC=CC=CC=CC=C[C@H](O[C@H]1O[C@@H](C)[C@H](O)[C@@H](N)[C@H]1O)CC3O2

> <STRUCTURE_SMILES_Desalt>
O=C(O)[C@@H]3[C@@H](O)C[C@@]2(O)C[C@@H](O)[C@H](O)CC[C@@H](O)C[C@@H](O)C[C@@H](O)CC(=O)O[C@@H](C)[C@H](C)[C@H](O)[C@@H](C)C=CC=CCCC=CC=CC=CC=C[C@H](O[C@H]1O[C@@H](C)[C@H](O)[C@@H](N)[C@H]1O)CC3O2

> <Substance_modify_yyyymmdd>
20080429

$$$$
