14008-48-1
ChemmineR-0915142007XD

 31 34  0  0  0  0  0  0  0  0  1 V2000
    4.5770   -8.7142    0.0000 C   0  0  0  0  0  0  0  0  0  0  0  0
    4.5770   -7.3589    0.0000 C   0  0  0  0  0  0  0  0  0  0  0  0
    3.4476   -6.6932    0.0000 O   0  0  0  0  0  0  0  0  0  0  0  0
    3.4476   -9.3562    0.0000 N   0  0  0  0  0  0  0  0  0  0  0  0
    2.2945   -7.3589    0.0000 C   0  0  0  0  0  0  0  0  0  0  0  0
    2.2945   -8.7142    0.0000 C   0  0  0  0  0  0  0  0  0  0  0  0
    5.9323   -7.3589    0.0000 C   0  0  0  0  0  0  0  0  0  0  0  0
    4.5770   -6.0036    0.0000 C   0  0  0  0  0  0  0  0  0  0  0  0
    5.7896   -9.3918    0.0000 O   0  0  0  0  0  0  0  0  0  0  0  0
    5.7540   -1.3315    0.0000 C   0  0  0  0  0  0  0  0  0  0  0  0
   10.6401   -8.5715    0.0000 C   0  0  0  0  0  0  0  0  0  0  0  0
    4.5770   -2.0329    0.0000 O   0  0  0  0  0  0  0  0  0  0  0  0
    9.9149   -7.3589    0.0000 O   0  0  0  0  0  0  0  0  0  0  0  0
    6.8358   -1.9972    0.0000 O   0  0  0  0  0  0  0  0  0  0  0  0
    9.9506   -9.6771    0.0000 O   0  0  0  0  0  0  0  0  0  0  0  0
    6.5743   -6.2176    0.0000 C   0  0  0  0  0  0  0  0  0  0  0  0
    5.7540   -5.3379    0.0000 C   0  0  0  0  0  0  0  0  0  0  0  0
    6.5743   -8.5121    0.0000 C   0  0  0  0  0  0  0  0  0  0  0  0
    3.4476   -5.3379    0.0000 C   0  0  0  0  0  0  0  0  0  0  0  0
    8.5834   -7.3589    0.0000 C   0  0  0  0  0  0  0  0  0  0  0  0
    4.5770   -3.3763    0.0000 C   0  0  0  0  0  0  0  0  0  0  0  0
    7.8939   -6.2176    0.0000 C   0  0  0  0  0  0  0  0  0  0  0  0
    3.4476   -4.0064    0.0000 C   0  0  0  0  0  0  0  0  0  0  0  0
    7.8939   -8.5121    0.0000 C   0  0  0  0  0  0  0  0  0  0  0  0
    5.7540   -4.0064    0.0000 C   0  0  0  0  0  0  0  0  0  0  0  0
    1.1413   -6.6932    0.0000 C   0  0  0  0  0  0  0  0  0  0  0  0
    1.1413   -9.3562    0.0000 C   0  0  0  0  0  0  0  0  0  0  0  0
    5.7540    0.0000    0.0000 C   0  0  0  0  0  0  0  0  0  0  0  0
   11.8884   -8.5715    0.0000 C   0  0  0  0  0  0  0  0  0  0  0  0
    0.0000   -7.3589    0.0000 C   0  0  0  0  0  0  0  0  0  0  0  0
    0.0000   -8.7142    0.0000 C   0  0  0  0  0  0  0  0  0  0  0  0
  1  2  1  0  0  0  0
  1  4  1  0  0  0  0
  1  9  2  0  0  0  0
  2  3  1  0  0  0  0
  2  7  1  0  0  0  0
  2  8  1  0  0  0  0
  3  5  1  0  0  0  0
  4  6  1  0  0  0  0
  5  6  2  0  0  0  0
  5 26  1  0  0  0  0
  6 27  1  0  0  0  0
  7 16  2  0  0  0  0
  7 18  1  0  0  0  0
  8 17  1  0  0  0  0
  8 19  2  0  0  0  0
 10 12  1  0  0  0  0
 10 14  2  0  0  0  0
 10 28  1  0  0  0  0
 11 13  1  0  0  0  0
 11 15  2  0  0  0  0
 11 29  1  0  0  0  0
 12 21  1  0  0  0  0
 13 20  1  0  0  0  0
 16 22  1  0  0  0  0
 17 25  2  0  0  0  0
 18 24  2  0  0  0  0
 19 23  1  0  0  0  0
 20 24  1  0  0  0  0
 20 22  2  0  0  0  0
 21 23  2  0  0  0  0
 21 25  1  0  0  0  0
 26 30  2  0  0  0  0
 27 31  2  0  0  0  0
 30 31  1  0  0  0  0
M  END
> <ID>
13828

> <Formula>
C24H19NO6

> <FW>
417.4108

> <DSSTox_CID>
28765

> <DSSTox_RID>
83034

> <DSSTox_GSID>
48839

> <DSSTox_FileID_Sort>
7711

> <TS_ChemName>
Bisoxatin acetate

> <TS_ChemName_Synonyms>


> <TS_CASRN>
14008-48-1

> <CASRN_ChemName_Relationship>
primary

> <TS_Description>
single chemical compound

> <ChemNote>


> <STRUCTURE_Shown>
tested chemical

> <STRUCTURE_Formula>
C24H19NO6

> <STRUCTURE_MW>
417.4108

> <STRUCTURE_ChemType>
defined organic

> <STRUCTURE_DefinedOrganicForm>
parent

> <STRUCTURE_IUPAC>
(3-oxo-3,4-dihydro-2H-1,4-benzoxazine-2,2-diyl)dibenzene-4,1-diyl diacetate

> <STRUCTURE_SMILES>
CC(=O)Oc1ccc(cc1)C2(Oc3ccccc3NC2=O)c4ccc(OC(C)=O)cc4

> <STRUCTURE_SMILES_Desalt>
CC(=O)Oc1ccc(cc1)C2(Oc3ccccc3NC2=O)c4ccc(OC(C)=O)cc4

> <Substance_modify_yyyymmdd>
20121003

$$$$
