1401-55-4
ChemmineR-0915142007XD

122132  0  0  1  0  0  0  0  0  1 V2000
   13.8774  -15.2097    0.0000 O   0  0  0  0  0  0  0  0  0  0  0  0
   12.6007  -15.9313    0.0000 C   0  0  0  0  0  0  0  0  0  0  0  0
   11.4350  -15.2652    0.0000 O   0  0  0  0  0  0  0  0  0  0  0  0
   12.6007  -17.2635    0.0000 C   0  0  0  0  0  0  0  0  0  0  0  0
   11.4350  -17.9296    0.0000 C   0  0  0  0  0  0  0  0  0  0  0  0
   13.7387  -17.9296    0.0000 C   0  0  0  0  0  0  0  0  0  0  0  0
   11.4350  -19.2619    0.0000 C   0  0  0  0  0  0  0  0  0  0  0  0
   13.7387  -19.2619    0.0000 C   0  0  0  0  0  0  0  0  0  0  0  0
   12.6007  -19.9280    0.0000 C   0  0  0  0  0  0  0  0  0  0  0  0
   14.8766  -19.9280    0.0000 O   0  0  0  0  0  0  0  0  0  0  0  0
   12.6007  -21.2602    0.0000 O   0  0  0  0  0  0  0  0  0  0  0  0
   10.2970  -19.9280    0.0000 O   0  0  0  0  0  0  0  0  0  0  0  0
   10.2970  -21.2602    0.0000 C   0  0  0  0  0  0  0  0  0  0  0  0
    9.1313  -21.8986    0.0000 C   0  0  0  0  0  0  0  0  0  0  0  0
    7.9934  -21.2602    0.0000 C   0  0  0  0  0  0  0  0  0  0  0  0
    9.1313  -23.2308    0.0000 C   0  0  0  0  0  0  0  0  0  0  0  0
    6.8277  -21.8986    0.0000 C   0  0  0  0  0  0  0  0  0  0  0  0
    7.9934  -23.9247    0.0000 C   0  0  0  0  0  0  0  0  0  0  0  0
    6.8277  -23.2308    0.0000 C   0  0  0  0  0  0  0  0  0  0  0  0
   11.4350  -21.9263    0.0000 O   0  0  0  0  0  0  0  0  0  0  0  0
    5.6897  -21.2602    0.0000 O   0  0  0  0  0  0  0  0  0  0  0  0
    5.6897  -23.9247    0.0000 O   0  0  0  0  0  0  0  0  0  0  0  0
    7.9934  -25.2292    0.0000 O   0  0  0  0  0  0  0  0  0  0  0  0
   16.2921  -14.1272    0.0000 O   0  0  0  0  0  0  0  0  0  0  0  0
   17.4023  -13.6276    0.0000 C   0  0  0  0  0  0  0  0  0  0  0  0
   17.4023  -12.3232    0.0000 O   0  0  0  0  0  0  0  0  0  0  0  0
   18.5402  -14.3215    0.0000 C   0  0  0  0  0  0  0  0  0  0  0  0
   19.6782  -13.6276    0.0000 C   0  0  0  0  0  0  0  0  0  0  0  0
   18.5402  -15.6260    0.0000 C   0  0  0  0  0  0  0  0  0  0  0  0
   20.8439  -14.3215    0.0000 C   0  0  0  0  0  0  0  0  0  0  0  0
   19.6782  -16.2921    0.0000 C   0  0  0  0  0  0  0  0  0  0  0  0
   20.8439  -15.6260    0.0000 C   0  0  0  0  0  0  0  0  0  0  0  0
   19.6782  -17.6243    0.0000 O   0  0  0  0  0  0  0  0  0  0  0  0
   22.0096  -16.2921    0.0000 O   0  0  0  0  0  0  0  0  0  0  0  0
   22.0096  -13.6276    0.0000 O   0  0  0  0  0  0  0  0  0  0  0  0
   23.1475  -14.3215    0.0000 C   0  0  0  0  0  0  0  0  0  0  0  0
   24.3132  -13.6276    0.0000 C   0  0  0  0  0  0  0  0  0  0  0  0
   25.4512  -14.3215    0.0000 C   0  0  0  0  0  0  0  0  0  0  0  0
   24.3132  -12.3232    0.0000 C   0  0  0  0  0  0  0  0  0  0  0  0
   26.5891  -13.6276    0.0000 C   0  0  0  0  0  0  0  0  0  0  0  0
   25.4512  -11.6570    0.0000 C   0  0  0  0  0  0  0  0  0  0  0  0
   26.5891  -12.3232    0.0000 C   0  0  0  0  0  0  0  0  0  0  0  0
   23.1475  -15.6260    0.0000 O   0  0  0  0  0  0  0  0  0  0  0  0
   27.7549  -14.3215    0.0000 O   0  0  0  0  0  0  0  0  0  0  0  0
   27.7549  -11.6570    0.0000 O   0  0  0  0  0  0  0  0  0  0  0  0
   25.4512  -10.3248    0.0000 O   0  0  0  0  0  0  0  0  0  0  0  0
   12.8783  -12.0456    0.0000 C   0  0  0  0  0  0  0  0  0  0  0  0
   12.8783  -13.3778    0.0000 C   0  0  0  0  0  0  0  0  0  0  0  0
   14.0440  -11.3795    0.0000 O   0  0  0  0  0  0  0  0  0  0  0  0
   14.0440  -14.0162    0.0000 C   0  0  0  0  0  0  0  0  0  0  0  0
   15.1819  -12.0456    0.0000 C   0  0  0  0  0  0  0  0  0  0  0  0
   15.1819  -13.3778    0.0000 C   0  0  0  0  0  0  0  0  0  0  0  0
   11.5738  -13.6554    0.0000 O   0  0  0  0  0  0  0  0  0  0  0  0
   10.3526  -12.9060    0.0000 C   0  0  0  0  0  0  0  0  0  0  0  0
   10.3526  -11.6015    0.0000 O   0  0  0  0  0  0  0  0  0  0  0  0
    9.2146  -13.5721    0.0000 C   0  0  0  0  0  0  0  0  0  0  0  0
    8.0489  -12.9060    0.0000 C   0  0  0  0  0  0  0  0  0  0  0  0
    9.2146  -14.9044    0.0000 C   0  0  0  0  0  0  0  0  0  0  0  0
    6.8832  -13.5721    0.0000 C   0  0  0  0  0  0  0  0  0  0  0  0
    8.0489  -15.5705    0.0000 C   0  0  0  0  0  0  0  0  0  0  0  0
    6.8832  -14.9044    0.0000 C   0  0  0  0  0  0  0  0  0  0  0  0
    8.0489  -16.9027    0.0000 O   0  0  0  0  0  0  0  0  0  0  0  0
    5.7453  -15.5705    0.0000 O   0  0  0  0  0  0  0  0  0  0  0  0
    5.7453  -12.9060    0.0000 O   0  0  0  0  0  0  0  0  0  0  0  0
    4.6073  -13.5721    0.0000 C   0  0  0  0  0  0  0  0  0  0  0  0
    3.4416  -12.9060    0.0000 C   0  0  0  0  0  0  0  0  0  0  0  0
    3.4416  -11.6015    0.0000 C   0  0  0  0  0  0  0  0  0  0  0  0
    2.3037  -13.5721    0.0000 C   0  0  0  0  0  0  0  0  0  0  0  0
    2.3037  -10.9354    0.0000 C   0  0  0  0  0  0  0  0  0  0  0  0
    1.1379  -12.9060    0.0000 C   0  0  0  0  0  0  0  0  0  0  0  0
    1.1379  -11.5738    0.0000 C   0  0  0  0  0  0  0  0  0  0  0  0
    4.6073  -14.9044    0.0000 O   0  0  0  0  0  0  0  0  0  0  0  0
    2.3037   -9.6032    0.0000 O   0  0  0  0  0  0  0  0  0  0  0  0
    0.0000  -10.9354    0.0000 O   0  0  0  0  0  0  0  0  0  0  0  0
    0.0000  -13.5721    0.0000 O   0  0  0  0  0  0  0  0  0  0  0  0
   16.5419  -11.3517    0.0000 O   0  0  0  0  0  0  0  0  0  0  0  0
   16.5974   -9.9917    0.0000 C   0  0  0  0  0  0  0  0  0  0  0  0
   15.4595   -9.3256    0.0000 O   0  0  0  0  0  0  0  0  0  0  0  0
   17.7631   -9.3256    0.0000 C   0  0  0  0  0  0  0  0  0  0  0  0
   17.7631   -7.9934    0.0000 C   0  0  0  0  0  0  0  0  0  0  0  0
   18.9288   -9.9917    0.0000 C   0  0  0  0  0  0  0  0  0  0  0  0
   18.9288   -7.3273    0.0000 C   0  0  0  0  0  0  0  0  0  0  0  0
   20.0668   -9.3256    0.0000 C   0  0  0  0  0  0  0  0  0  0  0  0
   20.0668   -7.9934    0.0000 C   0  0  0  0  0  0  0  0  0  0  0  0
   21.2325   -9.9917    0.0000 O   0  0  0  0  0  0  0  0  0  0  0  0
   21.2325   -7.3273    0.0000 O   0  0  0  0  0  0  0  0  0  0  0  0
   18.9288   -5.9950    0.0000 O   0  0  0  0  0  0  0  0  0  0  0  0
   20.0668   -5.3289    0.0000 C   0  0  0  0  0  0  0  0  0  0  0  0
   20.0668   -3.9967    0.0000 C   0  0  0  0  0  0  0  0  0  0  0  0
   18.9288   -3.3306    0.0000 C   0  0  0  0  0  0  0  0  0  0  0  0
   21.2325   -3.3306    0.0000 C   0  0  0  0  0  0  0  0  0  0  0  0
   18.9288   -1.9983    0.0000 C   0  0  0  0  0  0  0  0  0  0  0  0
   21.2325   -1.9983    0.0000 C   0  0  0  0  0  0  0  0  0  0  0  0
   20.0668   -1.3322    0.0000 C   0  0  0  0  0  0  0  0  0  0  0  0
   21.2325   -5.9950    0.0000 O   0  0  0  0  0  0  0  0  0  0  0  0
   17.7631   -1.3322    0.0000 O   0  0  0  0  0  0  0  0  0  0  0  0
   20.0668    0.0000    0.0000 O   0  0  0  0  0  0  0  0  0  0  0  0
   22.3704   -1.3322    0.0000 O   0  0  0  0  0  0  0  0  0  0  0  0
   11.7403  -11.3795    0.0000 C   0  0  0  0  0  0  0  0  0  0  0  0
   11.7403  -10.1028    0.0000 O   0  0  0  0  0  0  0  0  0  0  0  0
   10.7134   -9.3534    0.0000 C   0  0  0  0  0  0  0  0  0  0  0  0
   10.7134   -8.0212    0.0000 C   0  0  0  0  0  0  0  0  0  0  0  0
    9.5754   -7.3550    0.0000 C   0  0  0  0  0  0  0  0  0  0  0  0
   11.8791   -7.3550    0.0000 C   0  0  0  0  0  0  0  0  0  0  0  0
    9.5754   -6.0228    0.0000 C   0  0  0  0  0  0  0  0  0  0  0  0
   11.8791   -6.0228    0.0000 C   0  0  0  0  0  0  0  0  0  0  0  0
   10.7134   -5.3567    0.0000 C   0  0  0  0  0  0  0  0  0  0  0  0
    9.5754  -10.0195    0.0000 O   0  0  0  0  0  0  0  0  0  0  0  0
   10.7134   -4.0245    0.0000 O   0  0  0  0  0  0  0  0  0  0  0  0
   13.0448   -5.3567    0.0000 O   0  0  0  0  0  0  0  0  0  0  0  0
    8.4097   -5.3567    0.0000 O   0  0  0  0  0  0  0  0  0  0  0  0
    8.4097   -4.0245    0.0000 C   0  0  0  0  0  0  0  0  0  0  0  0
    7.2718   -3.3861    0.0000 C   0  0  0  0  0  0  0  0  0  0  0  0
    7.2718   -2.0539    0.0000 C   0  0  0  0  0  0  0  0  0  0  0  0
    6.1338   -4.0245    0.0000 C   0  0  0  0  0  0  0  0  0  0  0  0
    6.1338   -1.3877    0.0000 C   0  0  0  0  0  0  0  0  0  0  0  0
    4.9681   -3.3861    0.0000 C   0  0  0  0  0  0  0  0  0  0  0  0
    4.9681   -2.0539    0.0000 C   0  0  0  0  0  0  0  0  0  0  0  0
    9.5754   -3.3861    0.0000 O   0  0  0  0  0  0  0  0  0  0  0  0
    6.1338   -0.0555    0.0000 O   0  0  0  0  0  0  0  0  0  0  0  0
    3.8024   -1.3877    0.0000 O   0  0  0  0  0  0  0  0  0  0  0  0
    3.8024   -4.0245    0.0000 O   0  0  0  0  0  0  0  0  0  0  0  0
  1  2  1  0  0  0  0
 50  1  1  1  0  0  0
  2  3  2  0  0  0  0
  2  4  1  0  0  0  0
  4  5  1  0  0  0  0
  4  6  2  0  0  0  0
  5  7  2  0  0  0  0
  6  8  1  0  0  0  0
  7  9  1  0  0  0  0
  7 12  1  0  0  0  0
  8  9  2  0  0  0  0
  8 10  1  0  0  0  0
  9 11  1  0  0  0  0
 12 13  1  0  0  0  0
 13 14  1  0  0  0  0
 13 20  2  0  0  0  0
 14 15  1  0  0  0  0
 14 16  2  0  0  0  0
 15 17  2  0  0  0  0
 16 18  1  0  0  0  0
 17 19  1  0  0  0  0
 17 21  1  0  0  0  0
 18 19  2  0  0  0  0
 18 23  1  0  0  0  0
 19 22  1  0  0  0  0
 24 25  1  0  0  0  0
 52 24  1  6  0  0  0
 25 26  2  0  0  0  0
 25 27  1  0  0  0  0
 27 28  1  0  0  0  0
 27 29  2  0  0  0  0
 28 30  2  0  0  0  0
 29 31  1  0  0  0  0
 30 32  1  0  0  0  0
 30 35  1  0  0  0  0
 31 32  2  0  0  0  0
 31 33  1  0  0  0  0
 32 34  1  0  0  0  0
 35 36  1  0  0  0  0
 36 37  1  0  0  0  0
 36 43  2  0  0  0  0
 37 38  1  0  0  0  0
 37 39  2  0  0  0  0
 38 40  2  0  0  0  0
 39 41  1  0  0  0  0
 40 42  1  0  0  0  0
 40 44  1  0  0  0  0
 41 42  2  0  0  0  0
 41 46  1  0  0  0  0
 42 45  1  0  0  0  0
 47 48  1  0  0  0  0
 47 49  1  0  0  0  0
 47 99  1  1  0  0  0
 48 50  1  0  0  0  0
 48 53  1  6  0  0  0
 49 51  1  0  0  0  0
 50 52  1  0  0  0  0
 51 52  1  0  0  0  0
 51 76  1  1  0  0  0
 53 54  1  0  0  0  0
 54 55  2  0  0  0  0
 54 56  1  0  0  0  0
 56 57  1  0  0  0  0
 56 58  2  0  0  0  0
 57 59  2  0  0  0  0
 58 60  1  0  0  0  0
 59 61  1  0  0  0  0
 59 64  1  0  0  0  0
 60 61  2  0  0  0  0
 60 62  1  0  0  0  0
 61 63  1  0  0  0  0
 64 65  1  0  0  0  0
 65 66  1  0  0  0  0
 65 72  2  0  0  0  0
 66 67  1  0  0  0  0
 66 68  2  0  0  0  0
 67 69  2  0  0  0  0
 68 70  1  0  0  0  0
 69 71  1  0  0  0  0
 69 73  1  0  0  0  0
 70 71  2  0  0  0  0
 70 75  1  0  0  0  0
 71 74  1  0  0  0  0
 76 77  1  0  0  0  0
 77 78  2  0  0  0  0
 77 79  1  0  0  0  0
 79 80  1  0  0  0  0
 79 81  2  0  0  0  0
 80 82  2  0  0  0  0
 81 83  1  0  0  0  0
 82 84  1  0  0  0  0
 82 87  1  0  0  0  0
 83 84  2  0  0  0  0
 83 85  1  0  0  0  0
 84 86  1  0  0  0  0
 87 88  1  0  0  0  0
 88 89  1  0  0  0  0
 88 95  2  0  0  0  0
 89 90  1  0  0  0  0
 89 91  2  0  0  0  0
 90 92  2  0  0  0  0
 91 93  1  0  0  0  0
 92 94  1  0  0  0  0
 92 96  1  0  0  0  0
 93 94  2  0  0  0  0
 93 98  1  0  0  0  0
 94 97  1  0  0  0  0
 99100  1  0  0  0  0
100101  1  0  0  0  0
101102  1  0  0  0  0
101108  2  0  0  0  0
102103  1  0  0  0  0
102104  2  0  0  0  0
103105  2  0  0  0  0
104106  1  0  0  0  0
105107  1  0  0  0  0
105111  1  0  0  0  0
106107  2  0  0  0  0
106110  1  0  0  0  0
107109  1  0  0  0  0
111112  1  0  0  0  0
112113  1  0  0  0  0
112119  2  0  0  0  0
113114  1  0  0  0  0
113115  2  0  0  0  0
114116  2  0  0  0  0
115117  1  0  0  0  0
116118  1  0  0  0  0
116120  1  0  0  0  0
117118  2  0  0  0  0
117122  1  0  0  0  0
118121  1  0  0  0  0
M  END
> <ID>
4529

> <Formula>
C76H52O46

> <FW>
1701.1985

> <DSSTox_CID>
6076

> <DSSTox_RID>
78006

> <DSSTox_GSID>
26076

> <DSSTox_FileID_Sort>
2689

> <TS_ChemName>
Tannic acid

> <TS_ChemName_Synonyms>


> <TS_CASRN>
1401-55-4

> <CASRN_ChemName_Relationship>
primary

> <TS_Description>
single chemical compound

> <ChemNote>
gallic acid derivatives found in nutgalls; bark and other plant parts; especially oak bark; stereochem

> <STRUCTURE_Shown>
tested chemical

> <STRUCTURE_Formula>
C76H52O46

> <STRUCTURE_MW>
1701.1985

> <STRUCTURE_ChemType>
defined organic

> <STRUCTURE_DefinedOrganicForm>
parent

> <STRUCTURE_IUPAC>
1,2,3,4,6-pentakis-O-{3,4-dihydroxy-5-[(3,4,5-trihydroxybenzoyl)oxy]benzoyl}-beta-D-glucopyranose

> <STRUCTURE_SMILES>
O=C(O[C@@H]9O[C@H](COC(=O)c2cc(O)c(O)c(OC(=O)c1cc(O)c(O)c(O)c1)c2)[C@@H](OC(=O)c4cc(O)c(O)c(OC(=O)c3cc(O)c(O)c(O)c3)c4)[C@H](OC(=O)c6cc(O)c(O)c(OC(=O)c5cc(O)c(O)c(O)c5)c6)[C@H]9OC(=O)c8cc(O)c(O)c(OC(=O)c7cc(O)c(O)c(O)c7)c8)c%11cc(O)c(O)c(OC(=O)c%10cc(O)c(

> <STRUCTURE_SMILES_Desalt>
O=C(O[C@@H]9O[C@H](COC(=O)c2cc(O)c(O)c(OC(=O)c1cc(O)c(O)c(O)c1)c2)[C@@H](OC(=O)c4cc(O)c(O)c(OC(=O)c3cc(O)c(O)c(O)c3)c4)[C@H](OC(=O)c6cc(O)c(O)c(OC(=O)c5cc(O)c(O)c(O)c5)c6)[C@H]9OC(=O)c8cc(O)c(O)c(OC(=O)c7cc(O)c(O)c(O)c7)c8)c%11cc(O)c(O)c(OC(=O)c%10cc(O)c(

> <Substance_modify_yyyymmdd>
20100223

$$$$
