1404-88-2
ChemmineR-0915142007XD

 93 98  0  0  1  0  0  0  0  0  1 V2000
    1.1507   -6.8448    0.0000 C   0  0  0  0  0  0  0  0  0  0  0  0
    2.1626   -7.7376    0.0000 C   0  0  0  0  0  0  0  0  0  0  0  0
    1.8848   -9.0470    0.0000 C   0  0  0  0  0  0  0  0  0  0  0  0
    3.4521   -6.9638    0.0000 C   0  0  0  0  0  0  0  0  0  0  0  0
    4.7021   -7.1820    0.0000 C   0  0  0  0  0  0  0  0  0  0  0  0
    5.1385   -8.4320    0.0000 N   0  0  0  0  0  0  0  0  0  0  0  0
    4.3449   -9.4835    0.0000 C   0  0  0  0  0  0  0  0  0  0  0  0
    3.0553   -9.1462    0.0000 O   0  0  0  0  0  0  0  0  0  0  0  0
    4.4045  -10.8524    0.0000 C   0  0  0  0  0  0  0  0  0  0  0  0
    3.1347  -11.2096    0.0000 C   0  0  0  0  0  0  0  0  0  0  0  0
    2.1824  -10.2771    0.0000 C   0  0  0  0  0  0  0  0  0  0  0  0
    0.9325  -10.6342    0.0000 C   0  0  0  0  0  0  0  0  0  0  0  0
    0.0000   -9.7216    0.0000 N   0  0  0  0  0  0  0  0  0  0  0  0
    5.4361  -11.6659    0.0000 N   0  0  0  0  0  0  0  0  0  0  0  0
    5.4361  -12.9753    0.0000 C   0  0  0  0  0  0  0  0  0  0  0  0
    4.1664  -13.3324    0.0000 O   0  0  0  0  0  0  0  0  0  0  0  0
    6.2297  -14.1062    0.0000 C   0  0  0  0  0  0  0  0  0  0  0  0
    7.5590  -14.1657    0.0000 N   0  0  0  0  0  0  0  0  0  0  0  0
    8.4518  -15.1180    0.0000 C   0  0  0  0  0  0  0  0  0  0  0  0
    7.7971  -16.3084    0.0000 O   0  0  0  0  0  0  0  0  0  0  0  0
    9.8009  -15.4950    0.0000 C   0  0  0  0  0  0  0  0  0  0  0  0
    9.7017  -16.8044    0.0000 C   0  0  0  0  0  0  0  0  0  0  0  0
   10.7532  -17.5782    0.0000 C   0  0  0  0  0  0  0  0  0  0  0  0
   10.6540  -18.8678    0.0000 C   0  0  0  0  0  0  0  0  0  0  0  0
   11.7056  -19.6415    0.0000 C   0  0  0  0  0  0  0  0  0  0  0  0
   12.9158  -19.0860    0.0000 C   0  0  0  0  0  0  0  0  0  0  0  0
   13.9871  -19.8399    0.0000 O   0  0  0  0  0  0  0  0  0  0  0  0
   13.0348  -17.7766    0.0000 C   0  0  0  0  0  0  0  0  0  0  0  0
   11.9436  -17.0226    0.0000 C   0  0  0  0  0  0  0  0  0  0  0  0
   10.9120  -14.7212    0.0000 N   0  0  0  0  0  0  0  0  0  0  0  0
   12.2015  -14.8403    0.0000 C   0  0  0  0  0  0  0  0  0  0  0  0
   12.4991  -16.1299    0.0000 O   0  0  0  0  0  0  0  0  0  0  0  0
   13.5308  -14.4633    0.0000 C   0  0  0  0  0  0  0  0  0  0  0  0
   14.2847  -15.5347    0.0000 C   0  0  0  0  0  0  0  0  0  0  0  0
   15.5942  -15.4355    0.0000 C   0  0  0  0  0  0  0  0  0  0  0  0
   16.3283  -16.5266    0.0000 C   0  0  0  0  0  0  0  0  0  0  0  0
   17.6575  -16.4076    0.0000 O   0  0  0  0  0  0  0  0  0  0  0  0
   15.7727  -17.7170    0.0000 O   0  0  0  0  0  0  0  0  0  0  0  0
   14.1062  -13.2729    0.0000 N   0  0  0  0  0  0  0  0  0  0  0  0
   15.3561  -12.8959    0.0000 C   0  0  0  0  0  0  0  0  0  0  0  0
   16.2291  -13.9276    0.0000 O   0  0  0  0  0  0  0  0  0  0  0  0
   16.1299  -11.7452    0.0000 C   0  0  0  0  0  0  0  0  0  0  0  0
   17.3401  -12.0825    0.0000 C   0  0  0  0  0  0  0  0  0  0  0  0
   18.5305  -11.4873    0.0000 C   0  0  0  0  0  0  0  0  0  0  0  0
   19.6415  -12.2214    0.0000 O   0  0  0  0  0  0  0  0  0  0  0  0
   18.6297  -10.1779    0.0000 O   0  0  0  0  0  0  0  0  0  0  0  0
   15.6537  -10.4953    0.0000 N   0  0  0  0  0  0  0  0  0  0  0  0
   16.3679   -9.3843    0.0000 C   0  0  0  0  0  0  0  0  0  0  0  0
   17.6575   -9.7216    0.0000 O   0  0  0  0  0  0  0  0  0  0  0  0
   16.3679   -7.9756    0.0000 C   0  0  0  0  0  0  0  0  0  0  0  0
   17.6575   -7.7177    0.0000 C   0  0  0  0  0  0  0  0  0  0  0  0
   18.0543   -6.4678    0.0000 C   0  0  0  0  0  0  0  0  0  0  0  0
   19.3638   -6.1702    0.0000 C   0  0  0  0  0  0  0  0  0  0  0  0
   19.7804   -4.9203    0.0000 C   0  0  0  0  0  0  0  0  0  0  0  0
   18.8876   -3.9283    0.0000 C   0  0  0  0  0  0  0  0  0  0  0  0
   17.5782   -4.2259    0.0000 C   0  0  0  0  0  0  0  0  0  0  0  0
   17.1814   -5.4758    0.0000 C   0  0  0  0  0  0  0  0  0  0  0  0
   15.2966   -7.2019    0.0000 N   0  0  0  0  0  0  0  0  0  0  0  0
   15.0387   -5.9321    0.0000 C   0  0  0  0  0  0  0  0  0  0  0  0
   16.1695   -5.2774    0.0000 O   0  0  0  0  0  0  0  0  0  0  0  0
   14.3244   -4.7616    0.0000 C   0  0  0  0  0  0  0  0  0  0  0  0
   15.1379   -3.7497    0.0000 C   0  0  0  0  0  0  0  0  0  0  0  0
   14.6617   -2.4998    0.0000 C   0  0  0  0  0  0  0  0  0  0  0  0
   13.3721   -2.2816    0.0000 C   0  0  0  0  0  0  0  0  0  0  0  0
   12.8959   -1.0317    0.0000 C   0  0  0  0  0  0  0  0  0  0  0  0
   13.7491    0.0000    0.0000 C   0  0  0  0  0  0  0  0  0  0  0  0
   15.0387   -0.2182    0.0000 C   0  0  0  0  0  0  0  0  0  0  0  0
   15.5148   -1.4682    0.0000 C   0  0  0  0  0  0  0  0  0  0  0  0
   12.9753   -4.8806    0.0000 N   0  0  0  0  0  0  0  0  0  0  0  0
   12.1023   -3.9085    0.0000 C   0  0  0  0  0  0  0  0  0  0  0  0
   12.9356   -2.8966    0.0000 O   0  0  0  0  0  0  0  0  0  0  0  0
   11.0310   -3.1149    0.0000 C   0  0  0  0  0  0  0  0  0  0  0  0
   11.4873   -1.7856    0.0000 C   0  0  0  0  0  0  0  0  0  0  0  0
   10.4358   -0.9523    0.0000 C   0  0  0  0  0  0  0  0  0  0  0  0
    9.3644   -1.7261    0.0000 C   0  0  0  0  0  0  0  0  0  0  0  0
    9.6620   -3.1149    0.0000 N   0  0  0  0  0  0  0  0  0  0  0  0
    8.3724   -3.5712    0.0000 C   0  0  0  0  0  0  0  0  0  0  0  0
    7.8169   -2.2816    0.0000 O   0  0  0  0  0  0  0  0  0  0  0  0
    7.1225   -4.1862    0.0000 C   0  0  0  0  0  0  0  0  0  0  0  0
    6.3686   -3.1347    0.0000 C   0  0  0  0  0  0  0  0  0  0  0  0
    5.0393   -3.2537    0.0000 C   0  0  0  0  0  0  0  0  0  0  0  0
    4.5037   -4.4640    0.0000 C   0  0  0  0  0  0  0  0  0  0  0  0
    3.2141   -4.5830    0.0000 C   0  0  0  0  0  0  0  0  0  0  0  0
    2.4205   -3.5315    0.0000 C   0  0  0  0  0  0  0  0  0  0  0  0
    2.9760   -2.3213    0.0000 C   0  0  0  0  0  0  0  0  0  0  0  0
    4.2854   -2.1824    0.0000 C   0  0  0  0  0  0  0  0  0  0  0  0
    6.6464   -5.4163    0.0000 N   0  0  0  0  0  0  0  0  0  0  0  0
    5.5155   -6.0313    0.0000 C   0  0  0  0  0  0  0  0  0  0  0  0
    4.4243   -5.2774    0.0000 O   0  0  0  0  0  0  0  0  0  0  0  0
    5.4560  -15.1974    0.0000 C   0  0  0  0  0  0  0  0  0  0  0  0
    5.8726  -16.4671    0.0000 C   0  0  0  0  0  0  0  0  0  0  0  0
    4.1267  -15.2569    0.0000 C   0  0  0  0  0  0  0  0  0  0  0  0
   10.6144   -4.1465    0.0000 H   0  0  0  0  0  0  0  0  0  0  0  0
  1  2  1  0  0  0  0
  2  3  1  0  0  0  0
  2  4  1  0  0  0  0
  5  4  1  1  0  0  0
  5  6  1  0  0  0  0
  5 88  1  0  0  0  0
  6  7  1  0  0  0  0
  7  8  2  0  0  0  0
  7  9  1  0  0  0  0
  9 10  1  1  0  0  0
  9 14  1  0  0  0  0
 10 11  1  0  0  0  0
 11 12  1  0  0  0  0
 12 13  1  0  0  0  0
 14 15  1  0  0  0  0
 15 16  2  0  0  0  0
 15 17  1  0  0  0  0
 17 18  1  0  0  0  0
 17 90  1  1  0  0  0
 18 19  1  0  0  0  0
 19 20  2  0  0  0  0
 19 21  1  0  0  0  0
 21 22  1  1  0  0  0
 21 30  1  0  0  0  0
 22 23  1  0  0  0  0
 23 24  2  0  0  0  0
 23 29  1  0  0  0  0
 24 25  1  0  0  0  0
 25 26  2  0  0  0  0
 26 27  1  0  0  0  0
 26 28  1  0  0  0  0
 28 29  2  0  0  0  0
 30 31  1  0  0  0  0
 31 32  2  0  0  0  0
 31 33  1  0  0  0  0
 33 34  1  1  0  0  0
 33 39  1  0  0  0  0
 34 35  1  0  0  0  0
 35 36  1  0  0  0  0
 36 37  1  0  0  0  0
 36 38  2  0  0  0  0
 39 40  1  0  0  0  0
 40 41  2  0  0  0  0
 40 42  1  0  0  0  0
 42 43  1  1  0  0  0
 42 47  1  0  0  0  0
 43 44  1  0  0  0  0
 44 45  1  0  0  0  0
 44 46  2  0  0  0  0
 47 48  1  0  0  0  0
 48 49  2  0  0  0  0
 48 50  1  0  0  0  0
 51 50  1  6  0  0  0
 50 58  1  0  0  0  0
 51 52  1  0  0  0  0
 52 53  2  0  0  0  0
 52 57  1  0  0  0  0
 53 54  1  0  0  0  0
 54 55  2  0  0  0  0
 55 56  1  0  0  0  0
 56 57  2  0  0  0  0
 58 59  1  0  0  0  0
 59 60  2  0  0  0  0
 59 61  1  0  0  0  0
 61 62  1  1  0  0  0
 61 69  1  0  0  0  0
 62 63  1  0  0  0  0
 63 64  2  0  0  0  0
 63 68  1  0  0  0  0
 64 65  1  0  0  0  0
 65 66  2  0  0  0  0
 66 67  1  0  0  0  0
 67 68  2  0  0  0  0
 69 70  1  0  0  0  0
 70 71  2  0  0  0  0
 70 72  1  0  0  0  0
 72 73  1  0  0  0  0
 72 76  1  0  0  0  0
 72 93  1  6  0  0  0
 73 74  1  0  0  0  0
 74 75  1  0  0  0  0
 75 76  1  0  0  0  0
 76 77  1  0  0  0  0
 77 78  2  0  0  0  0
 77 79  1  0  0  0  0
 79 80  1  6  0  0  0
 79 87  1  0  0  0  0
 80 81  1  0  0  0  0
 81 82  2  0  0  0  0
 81 86  1  0  0  0  0
 82 83  1  0  0  0  0
 83 84  2  0  0  0  0
 84 85  1  0  0  0  0
 85 86  2  0  0  0  0
 87 88  1  0  0  0  0
 88 89  2  0  0  0  0
 90 91  1  0  0  0  0
 90 92  1  0  0  0  0
M  END
> <ID>
11236

> <Formula>
C66H85N11O15

> <FW>
1272.4458

> <DSSTox_CID>
25846

> <DSSTox_RID>
81168

> <DSSTox_GSID>
45846

> <DSSTox_FileID_Sort>
5849

> <TS_ChemName>
Tyrothricin

> <TS_ChemName_Synonyms>


> <TS_CASRN>
1404-88-2

> <CASRN_ChemName_Relationship>
primary

> <TS_Description>
mixture or formulation

> <ChemNote>
stereochem; mixture of three tyrocidines (60%) and several gramicidins (20%); structure shown tyrocidine A

> <STRUCTURE_Shown>
representative component

> <STRUCTURE_Formula>
C66H85N11O15

> <STRUCTURE_MW>
1272.4458

> <STRUCTURE_ChemType>
defined organic

> <STRUCTURE_DefinedOrganicForm>
parent

> <STRUCTURE_IUPAC>
cyclo(L-alpha-aspartyl-L-alpha-glutamyl-L-tyrosyl-L-valyl-L-ornithyl-L-leucyl-D-phenylalanyl-L-prolyl-L-phenylalanyl-D-phenylalanyl)

> <STRUCTURE_SMILES>
CC(C)C[C@@H]4NC(=O)[C@H](CCCN)NC(=O)[C@@H](NC(=O)[C@H](Cc1ccc(O)cc1)NC(=O)[C@H](CCC(=O)O)NC(=O)[C@H](CC(=O)O)NC(=O)C(Cc2ccccc2)NC(=O)[C@@H](NC(=O)[C@@H]5CCCN5C(=O)[C@@H](Cc3ccccc3)NC4=O)Cc6ccccc6)C(C)C

> <STRUCTURE_SMILES_Desalt>
CC(C)C[C@@H]4NC(=O)[C@H](CCCN)NC(=O)[C@@H](NC(=O)[C@H](Cc1ccc(O)cc1)NC(=O)[C@H](CCC(=O)O)NC(=O)[C@H](CC(=O)O)NC(=O)C(Cc2ccccc2)NC(=O)[C@@H](NC(=O)[C@@H]5CCCN5C(=O)[C@@H](Cc3ccccc3)NC4=O)Cc6ccccc6)C(C)C

> <Substance_modify_yyyymmdd>
20110925

$$$$
