140462-76-6
ChemmineR-0915142007XD

 26 27  0  0  0  0  0  0  0  0  1 V2000
    4.9354   -2.3274    0.0000 C    0  0  0  0  0  0  0  0  0  0  0  0
    3.7405   -2.8989    0.0000 C    0  0  0  0  0  0  0  0  0  0  0  0
    5.2263   -1.0286    0.0000 C    0  0  0  0  0  0  0  0  0  0  0  0
    5.9120   -3.2418    0.0000 C    0  0  0  0  0  0  0  0  0  0  0  0
    2.5456   -2.3274    0.0000 C    0  0  0  0  0  0  0  0  0  0  0  0
    3.7405   -4.2288    0.0000 C    0  0  0  0  0  0  0  0  0  0  0  0
    4.4055    0.0000    0.0000 O    0  0  0  0  0  0  0  0  0  0  0  0
    6.5147   -0.6234    0.0000 C    0  0  0  0  0  0  0  0  0  0  0  0
    7.1797   -2.8573    0.0000 C    0  0  0  0  0  0  0  0  0  0  0  0
    2.2443   -1.0286    0.0000 C    0  0  0  0  0  0  0  0  0  0  0  0
    1.5689   -3.2418    0.0000 C    0  0  0  0  0  0  0  0  0  0  0  0
    4.8938   -4.9042    0.0000 C    0  0  0  0  0  0  0  0  0  0  0  0
    3.0755    0.0000    0.0000 C    0  0  0  0  0  0  0  0  0  0  0  0
    7.4602   -1.5378    0.0000 C    0  0  0  0  0  0  0  0  0  0  0  0
    8.1460   -3.7301    0.0000 C    0  0  0  0  0  0  0  0  0  0  0  0
    0.9767   -0.6234    0.0000 C    0  0  0  0  0  0  0  0  0  0  0  0
    0.3013   -2.8573    0.0000 C    0  0  0  0  0  0  0  0  0  0  0  0
    4.8938   -6.2238    0.0000 C    0  0  0  0  0  0  0  0  0  0  0  0
    9.4136   -3.3457    0.0000 C    0  0  0  0  0  0  0  0  0  0  0  0
    0.0000   -1.5378    0.0000 C    0  0  0  0  0  0  0  0  0  0  0  0
    6.0471   -6.8783    0.0000 N    0  0  0  0  0  0  0  0  0  0  0  0
    9.7149   -2.0469    0.0000 O    0  0  0  0  0  0  0  0  0  0  0  0
   10.3902   -4.2600    0.0000 O    0  0  0  0  0  0  0  0  0  0  0  0
    6.0471   -8.2083    0.0000 C    0  0  0  0  0  0  0  0  0  0  0  0
    7.2004   -6.2238    0.0000 C    0  0  0  0  0  0  0  0  0  0  0  0
    1.3300   -4.6340    0.0000 Cl   0  0  0  0  0  0  0  0  0  0  0  0
  1  2  1  0  0  0  0
  1  3  2  0  0  0  0
  1  4  1  0  0  0  0
  2  5  1  0  0  0  0
  2  6  2  0  0  0  0
  3  7  1  0  0  0  0
  3  8  1  0  0  0  0
  4  9  2  0  0  0  0
  5 10  2  0  0  0  0
  5 11  1  0  0  0  0
  6 12  1  0  0  0  0
  7 13  1  0  0  0  0
  8 14  2  0  0  0  0
  9 15  1  0  0  0  0
  9 14  1  0  0  0  0
 10 16  1  0  0  0  0
 10 13  1  0  0  0  0
 11 17  2  0  0  0  0
 12 18  1  0  0  0  0
 15 19  1  0  0  0  0
 16 20  2  0  0  0  0
 17 20  1  0  0  0  0
 18 21  1  0  0  0  0
 19 22  1  0  0  0  0
 19 23  2  0  0  0  0
 21 24  1  0  0  0  0
 21 25  1  0  0  0  0
M  END
> <ID>
11723

> <Formula>
C21H24ClNO3

> <FW>
373.8732 (337.4122+36.4609)

> <DSSTox_CID>
26486

> <DSSTox_RID>
81657

> <DSSTox_GSID>
46486

> <DSSTox_FileID_Sort>
6338

> <TS_ChemName>
Olopatadine hydrochloride

> <TS_ChemName_Synonyms>


> <TS_CASRN>
140462-76-6

> <CASRN_ChemName_Relationship>
primary

> <TS_Description>
single chemical compound

> <ChemNote>
stereochem; parent [113806-05-6]

> <STRUCTURE_Shown>
tested chemical

> <STRUCTURE_Formula>
C21H24ClNO3

> <STRUCTURE_MW>
373.8732

> <STRUCTURE_ChemType>
defined organic

> <STRUCTURE_DefinedOrganicForm>
complex

> <STRUCTURE_IUPAC>
{(11Z)-11-[3-(dimethylamino)propylidene]-6,11-dihydrodibenzo[b,e]oxepin-2-yl}acetic acid hydrochloride (1:1)

> <STRUCTURE_SMILES>
Cl.O=C(O)Cc1ccc2OCc3ccccc3C(=C\CCN(C)C)\c2c1

> <STRUCTURE_SMILES_Desalt>
O=C(O)Cc1ccc2OCc3ccccc3C(=C\CCN(C)C)\c2c1

> <Substance_modify_yyyymmdd>
20110812

$$$$
