1404-93-9
ChemmineR-0915142007XD

102110  0  0  1  0  0  0  0  0  1 V2000
    2.3650  -10.4989    0.0000 C    0  0  0  0  0  0  0  0  0  0  0  0
   16.2457  -10.4989    0.0000 C    0  0  0  0  0  0  0  0  0  0  0  0
    3.5144  -11.2062    0.0000 N    0  0  0  0  0  0  0  0  0  0  0  0
    8.2444   -3.3154    0.0000 C    0  0  0  0  0  0  0  0  0  0  0  0
    9.3938   -3.9785    0.0000 C    0  0  0  0  0  0  0  0  0  0  0  0
    1.1715  -12.5103    0.0000 N    0  0  0  0  0  0  0  0  0  0  0  0
    1.1715  -11.2062    0.0000 C    0  0  0  0  0  0  0  0  0  0  0  0
    6.9845  -10.4989    0.0000 N    0  0  0  0  0  0  0  0  0  0  0  0
   10.4989  -11.2062    0.0000 N    0  0  0  0  0  0  0  0  0  0  0  0
   15.0963  -11.2062    0.0000 C    0  0  0  0  0  0  0  0  0  0  0  0
    3.5144  -15.1848    0.0000 C    0  0  0  0  0  0  0  0  0  0  0  0
    4.6858  -10.4989    0.0000 C    0  0  0  0  0  0  0  0  0  0  0  0
    2.3650  -14.5438    0.0000 C    0  0  0  0  0  0  0  0  0  0  0  0
    8.1781  -11.2062    0.0000 C    0  0  0  0  0  0  0  0  0  0  0  0
    4.6858  -14.5438    0.0000 C    0  0  0  0  0  0  0  0  0  0  0  0
    9.3054   -6.6088    0.0000 C    0  0  0  0  0  0  0  0  0  0  0  0
    2.3650  -13.1955    0.0000 C    0  0  0  0  0  0  0  0  0  0  0  0
    8.2444   -2.0114    0.0000 C    0  0  0  0  0  0  0  0  0  0  0  0
   13.9028  -10.4989    0.0000 N    0  0  0  0  0  0  0  0  0  0  0  0
    9.3054  -10.4989    0.0000 C    0  0  0  0  0  0  0  0  0  0  0  0
   17.4172  -11.2062    0.0000 N    0  0  0  0  0  0  0  0  0  0  0  0
   10.4989   -7.2277    0.0000 C    0  0  0  0  0  0  0  0  0  0  0  0
    8.1781   -7.2277    0.0000 C    0  0  0  0  0  0  0  0  0  0  0  0
   11.5820  -10.4989    0.0000 C    0  0  0  0  0  0  0  0  0  0  0  0
    5.8794  -11.2062    0.0000 C    0  0  0  0  0  0  0  0  0  0  0  0
   10.6315   -3.3154    0.0000 O    0  0  0  0  0  0  0  0  0  0  0  0
    9.3938   -5.2605    0.0000 O    0  0  0  0  0  0  0  0  0  0  0  0
    4.7300   -1.3483    0.0000 C    0  0  0  0  0  0  0  0  0  0  0  0
    9.3054   -9.1948    0.0000 C    0  0  0  0  0  0  0  0  0  0  0  0
    9.3938   -1.3483    0.0000 C    0  0  0  0  0  0  0  0  0  0  0  0
   11.5820   -6.6088    0.0000 O    0  0  0  0  0  0  0  0  0  0  0  0
    6.9845   -6.6088    0.0000 O    0  0  0  0  0  0  0  0  0  0  0  0
   12.7534  -11.2062    0.0000 C    0  0  0  0  0  0  0  0  0  0  0  0
    3.5144  -16.5109    0.0000 C    0  0  0  0  0  0  0  0  0  0  0  0
    5.8352   -3.3597    0.0000 C    0  0  0  0  0  0  0  0  0  0  0  0
   18.5886  -10.4989    0.0000 C    0  0  0  0  0  0  0  0  0  0  0  0
   10.6315   -2.0556    0.0000 C    0  0  0  0  0  0  0  0  0  0  0  0
    2.3650   -9.1948    0.0000 C    0  0  0  0  0  0  0  0  0  0  0  0
   16.2457   -9.1948    0.0000 C    0  0  0  0  0  0  0  0  0  0  0  0
    5.8352   -1.9672    0.0000 C    0  0  0  0  0  0  0  0  0  0  0  0
    4.6858  -13.1955    0.0000 C    0  0  0  0  0  0  0  0  0  0  0  0
    4.7300   -4.0227    0.0000 O    0  0  0  0  0  0  0  0  0  0  0  0
    5.8794  -12.5103    0.0000 C    0  0  0  0  0  0  0  0  0  0  0  0
    3.5144   -2.0114    0.0000 C    0  0  0  0  0  0  0  0  0  0  0  0
   12.7534  -12.5103    0.0000 C    0  0  0  0  0  0  0  0  0  0  0  0
    3.5144   -8.5981    0.0000 C    0  0  0  0  0  0  0  0  0  0  0  0
   15.0963   -8.5981    0.0000 C    0  0  0  0  0  0  0  0  0  0  0  0
    7.0288   -4.0227    0.0000 O    0  0  0  0  0  0  0  0  0  0  0  0
    3.3154  -12.5103    0.0000 C    0  0  0  0  0  0  0  0  0  0  0  0
    8.1781   -8.5981    0.0000 C    0  0  0  0  0  0  0  0  0  0  0  0
   10.4989   -8.5981    0.0000 C    0  0  0  0  0  0  0  0  0  0  0  0
    5.8794   -7.2277    0.0000 C    0  0  0  0  0  0  0  0  0  0  0  0
   12.7534   -7.2277    0.0000 C    0  0  0  0  0  0  0  0  0  0  0  0
    3.5144   -3.3154    0.0000 C    0  0  0  0  0  0  0  0  0  0  0  0
    2.3650  -17.2182    0.0000 C    0  0  0  0  0  0  0  0  0  0  0  0
    5.8794   -8.5981    0.0000 C    0  0  0  0  0  0  0  0  0  0  0  0
   13.9028   -6.6088    0.0000 C    0  0  0  0  0  0  0  0  0  0  0  0
   11.5820  -13.1955    0.0000 C    0  0  0  0  0  0  0  0  0  0  0  0
    4.6858   -9.1948    0.0000 C    0  0  0  0  0  0  0  0  0  0  0  0
   15.0963   -7.2277    0.0000 C    0  0  0  0  0  0  0  0  0  0  0  0
    5.8794  -15.1848    0.0000 C    0  0  0  0  0  0  0  0  0  0  0  0
    1.1715  -15.1848    0.0000 C    0  0  0  0  0  0  0  0  0  0  0  0
   19.7380  -11.2062    0.0000 C    0  0  0  0  0  0  0  0  0  0  0  0
    0.0000  -10.4989    0.0000 O    0  0  0  0  0  0  0  0  0  0  0  0
   15.0963  -12.5103    0.0000 O    0  0  0  0  0  0  0  0  0  0  0  0
    4.6858   -9.6590    0.0000 O    0  0  0  0  0  0  0  0  0  0  0  0
    8.1781  -12.5103    0.0000 O    0  0  0  0  0  0  0  0  0  0  0  0
    1.1715  -16.5109    0.0000 C    0  0  0  0  0  0  0  0  0  0  0  0
   11.5820   -9.1948    0.0000 O    0  0  0  0  0  0  0  0  0  0  0  0
   18.5886   -9.1948    0.0000 O    0  0  0  0  0  0  0  0  0  0  0  0
    6.9845  -13.1955    0.0000 C    0  0  0  0  0  0  0  0  0  0  0  0
   13.9028   -9.1948    0.0000 C    0  0  0  0  0  0  0  0  0  0  0  0
    3.5144   -7.2277    0.0000 C    0  0  0  0  0  0  0  0  0  0  0  0
    4.3322  -12.7534    0.0000 O    0  0  0  0  0  0  0  0  0  0  0  0
    4.6858   -6.6088    0.0000 C    0  0  0  0  0  0  0  0  0  0  0  0
   12.7534   -8.5981    0.0000 C    0  0  0  0  0  0  0  0  0  0  0  0
   10.4989  -12.5103    0.0000 O    0  0  0  0  0  0  0  0  0  0  0  0
   19.7380  -12.5103    0.0000 C    0  0  0  0  0  0  0  0  0  0  0  0
    5.6363   -0.3536    0.0000 N    0  0  0  0  0  0  0  0  0  0  0  0
    6.9845  -14.5438    0.0000 C    0  0  0  0  0  0  0  0  0  0  0  0
    7.0288   -1.3483    0.0000 O    0  0  0  0  0  0  0  0  0  0  0  0
    9.3938    0.0000    0.0000 O    0  0  0  0  0  0  0  0  0  0  0  0
    4.6858  -17.2182    0.0000 O    0  0  0  0  0  0  0  0  0  0  0  0
   20.9315  -10.4989    0.0000 N    0  0  0  0  0  0  0  0  0  0  0  0
   11.5820  -14.5438    0.0000 N    0  0  0  0  0  0  0  0  0  0  0  0
    2.2324   -1.3483    0.0000 O    0  0  0  0  0  0  0  0  0  0  0  0
   13.9028   -5.1942    0.0000 Cl   0  0  0  0  0  0  0  0  0  0  0  0
    1.1715   -8.5981    0.0000 O    0  0  0  0  0  0  0  0  0  0  0  0
    6.9845   -9.1948    0.0000 Cl   0  0  0  0  0  0  0  0  0  0  0  0
   17.4172   -8.5981    0.0000 O    0  0  0  0  0  0  0  0  0  0  0  0
    2.6524  -11.6262    0.0000 O    0  0  0  0  0  0  0  0  0  0  0  0
    5.8794  -16.5330    0.0000 O    0  0  0  0  0  0  0  0  0  0  0  0
   11.8251   -1.4146    0.0000 C    0  0  0  0  0  0  0  0  0  0  0  0
    0.0000  -17.2182    0.0000 O    0  0  0  0  0  0  0  0  0  0  0  0
    3.7133   -0.3758    0.0000 C    0  0  0  0  0  0  0  0  0  0  0  0
   12.9082   -2.1440    0.0000 O    0  0  0  0  0  0  0  0  0  0  0  0
    2.2324   -3.9785    0.0000 C    0  0  0  0  0  0  0  0  0  0  0  0
   18.5886  -13.1955    0.0000 C    0  0  0  0  0  0  0  0  0  0  0  0
   22.1030  -11.2062    0.0000 C    0  0  0  0  0  0  0  0  0  0  0  0
   17.4172  -12.5103    0.0000 C    0  0  0  0  0  0  0  0  0  0  0  0
   18.5886  -14.5438    0.0000 C    0  0  0  0  0  0  0  0  0  0  0  0
   13.4165  -17.1740    0.0000 Cl   0  0  0  0  0  0  0  0  0  0  0  0
  1  3  1  6  0  0  0
  1  7  1  0  0  0  0
  1 38  1  0  0  0  0
  2 10  1  0  0  0  0
  2 21  1  1  0  0  0
  2 39  1  0  0  0  0
  3 12  1  0  0  0  0
  4  5  1  0  0  0  0
  4 18  1  0  0  0  0
  4 48  1  6  0  0  0
  5 27  1  1  0  0  0
  5 26  1  0  0  0  0
  6  7  1  0  0  0  0
  6 17  1  0  0  0  0
  7 64  2  0  0  0  0
  8 25  1  0  0  0  0
  8 14  1  0  0  0  0
 20  9  1  1  0  0  0
  9 24  1  0  0  0  0
 10 19  1  0  0  0  0
 10 65  2  0  0  0  0
 11 13  2  0  0  0  0
 11 15  1  0  0  0  0
 11 34  1  0  0  0  0
 25 12  1  6  0  0  0
 12 66  2  0  0  0  0
 13 17  1  0  0  0  0
 13 62  1  0  0  0  0
 14 20  1  0  0  0  0
 14 67  2  0  0  0  0
 15 61  1  0  0  0  0
 15 41  2  0  0  0  0
 16 23  1  0  0  0  0
 16 22  2  0  0  0  0
 16 27  1  0  0  0  0
 17 49  1  1  0  0  0
 18 81  1  1  0  0  0
 18 30  1  0  0  0  0
 19 33  1  0  0  0  0
 20 29  1  0  0  0  0
 21 36  1  0  0  0  0
 22 31  1  0  0  0  0
 22 51  1  0  0  0  0
 23 32  1  0  0  0  0
 23 50  2  0  0  0  0
 24 33  1  0  0  0  0
 24 69  2  0  0  0  0
 25 43  1  0  0  0  0
 26 37  1  0  0  0  0
 28 40  1  0  0  0  0
 28 79  1  1  0  0  0
 28 95  1  6  0  0  0
 28 44  1  0  0  0  0
 29 51  2  0  0  0  0
 29 50  1  0  0  0  0
 30 37  1  0  0  0  0
 30 82  1  6  0  0  0
 31 53  1  0  0  0  0
 32 52  1  0  0  0  0
 33 45  1  1  0  0  0
 34 83  1  0  0  0  0
 34 55  2  0  0  0  0
 35 48  1  6  0  0  0
 35 40  1  0  0  0  0
 35 42  1  0  0  0  0
 36 63  1  0  0  0  0
 36 70  2  0  0  0  0
 37 93  1  1  0  0  0
 38 46  1  0  0  0  0
 38 88  1  6  0  0  0
 39 90  1  1  0  0  0
 39 47  1  0  0  0  0
 41 43  1  0  0  0  0
 42 54  1  0  0  0  0
 43 71  2  0  0  0  0
 44 54  1  0  0  0  0
 44 86  1  0  0  0  0
 45 58  1  0  0  0  0
 46 59  2  0  0  0  0
 46 73  1  0  0  0  0
 47 72  2  0  0  0  0
 47 60  1  0  0  0  0
 49 74  2  0  0  0  0
 49 91  1  0  0  0  0
 52 75  1  0  0  0  0
 52 56  2  0  0  0  0
 53 57  1  0  0  0  0
 53 76  2  0  0  0  0
 54 97  1  1  0  0  0
 55 68  1  0  0  0  0
 56 59  1  0  0  0  0
 56 89  1  0  0  0  0
 57 60  2  0  0  0  0
 57 87  1  0  0  0  0
 58 77  2  0  0  0  0
 58 85  1  0  0  0  0
 61 92  1  0  0  0  0
 61 80  2  0  0  0  0
 62 68  2  0  0  0  0
 63 78  1  0  0  0  0
 63 84  1  6  0  0  0
 68 94  1  0  0  0  0
 71 80  1  0  0  0  0
 72 76  1  0  0  0  0
 73 75  2  0  0  0  0
 78 98  1  0  0  0  0
 84 99  1  0  0  0  0
 93 96  1  0  0  0  0
 98100  1  0  0  0  0
 98101  1  0  0  0  0
M  END
> <ID>
10890

> <Formula>
C66H76Cl3N9O24

> <FW>
1485.7145 (1449.2536+36.4609)

> <DSSTox_CID>
25354

> <DSSTox_RID>
80820

> <DSSTox_GSID>
45354

> <DSSTox_FileID_Sort>
5501

> <TS_ChemName>
Vancomycin hydrochloride

> <TS_ChemName_Synonyms>


> <TS_CASRN>
1404-93-9

> <CASRN_ChemName_Relationship>
primary

> <TS_Description>
single chemical compound

> <ChemNote>
parent [1404-90-6]

> <STRUCTURE_Shown>
tested chemical

> <STRUCTURE_Formula>
C66H76Cl3N9O24

> <STRUCTURE_MW>
1485.7145

> <STRUCTURE_ChemType>
defined organic

> <STRUCTURE_DefinedOrganicForm>
complex

> <STRUCTURE_IUPAC>
(1S,2R,18R,19R,22S,25R,28R,40R)-48-{[(2S,3R,4S,5S,6R)-3-{[(2S,4S,6S)-4-amino-5-hydroxy-4,6-dimethyltetrahydro-2H-pyran-2-yl]oxy}-4,5-dihydroxy-6-(hydroxymethyl)tetrahydro-2H-pyran-2-yl]oxy}-22-(2-amino-2-oxoethyl)-5,15-dichloro-2,18,32,35,37-pentahydroxy-

> <STRUCTURE_SMILES>
Cl.O=C(O)[C@@H]%10NC(=O)[C@H]2NC(=O)[C@H](NC(=O)[C@@H]6NC(=O)[C@H](CC(N)=O)NC(=O)[C@H](NC(=O)[C@@H](CC(C)C)NC)[C@H](O)c7ccc(Oc5cc6cc(Oc1ccc(cc1Cl)[C@H]2O)c5O[C@@H]4O[C@H](CO)[C@@H](O)[C@H](O)[C@H]4O[C@H]3C[C@](C)(N)C(O)[C@H](C)O3)c(Cl)c7)c8ccc(O)c(c8)c9c(

> <STRUCTURE_SMILES_Desalt>
O=C(O)[C@@H]%10NC(=O)[C@H]2NC(=O)[C@H](NC(=O)[C@@H]6NC(=O)[C@H](CC(N)=O)NC(=O)[C@H](NC(=O)[C@@H](CC(C)C)NC)[C@H](O)c7ccc(Oc5cc6cc(Oc1ccc(cc1Cl)[C@H]2O)c5O[C@@H]4O[C@H](CO)[C@@H](O)[C@H](O)[C@H]4O[C@H]3C[C@](C)(N)C(O)[C@H](C)O3)c(Cl)c7)c8ccc(O)c(c8)c9c(O)c

> <Substance_modify_yyyymmdd>
20100107

$$$$
