14051-33-3
ChemmineR-0915142007XD

 27 30  0  0  0  0  0  0  0  0  1 V2000
    9.4431   -3.4763    0.0000 C   0  0  0  0  0  0  0  0  0  0  0  0
   10.0530   -2.2667    0.0000 N   0  0  0  0  0  0  0  0  0  0  0  0
    8.1216   -3.4763    0.0000 C   0  0  0  0  0  0  0  0  0  0  0  0
    9.3922   -1.1791    0.0000 C   0  0  0  0  0  0  0  0  0  0  0  0
    3.9338   -3.4459    0.0000 N   0  0  0  0  0  0  0  0  0  0  0  0
    7.4609   -2.3277    0.0000 C   0  0  0  0  0  0  0  0  0  0  0  0
   10.1648   -4.5945    0.0000 O   0  0  0  0  0  0  0  0  0  0  0  0
    6.4953   -3.4763    0.0000 C   0  0  0  0  0  0  0  0  0  0  0  0
    8.1216   -4.9706    0.0000 C   0  0  0  0  0  0  0  0  0  0  0  0
   10.0225    0.0000    0.0000 O   0  0  0  0  0  0  0  0  0  0  0  0
    8.0912   -1.1791    0.0000 C   0  0  0  0  0  0  0  0  0  0  0  0
    2.6327   -3.4459    0.0000 C   0  0  0  0  0  0  0  0  0  0  0  0
    5.8651   -2.2972    0.0000 C   0  0  0  0  0  0  0  0  0  0  0  0
    5.8651   -4.5945    0.0000 C   0  0  0  0  0  0  0  0  0  0  0  0
    4.5741   -4.5945    0.0000 C   0  0  0  0  0  0  0  0  0  0  0  0
    4.5741   -2.2972    0.0000 C   0  0  0  0  0  0  0  0  0  0  0  0
    1.9313   -2.3277    0.0000 C   0  0  0  0  0  0  0  0  0  0  0  0
    9.2499   -5.6313    0.0000 C   0  0  0  0  0  0  0  0  0  0  0  0
    6.9832   -5.6516    0.0000 C   0  0  0  0  0  0  0  0  0  0  0  0
    2.5920   -1.1588    0.0000 C   0  0  0  0  0  0  0  0  0  0  0  0
    0.6099   -2.3277    0.0000 C   0  0  0  0  0  0  0  0  0  0  0  0
    6.9832   -6.9425    0.0000 C   0  0  0  0  0  0  0  0  0  0  0  0
    9.2499   -6.9425    0.0000 C   0  0  0  0  0  0  0  0  0  0  0  0
    0.0000   -1.1588    0.0000 C   0  0  0  0  0  0  0  0  0  0  0  0
    2.0025   -0.0102    0.0000 C   0  0  0  0  0  0  0  0  0  0  0  0
    8.1318   -7.5829    0.0000 C   0  0  0  0  0  0  0  0  0  0  0  0
    0.6404   -0.0305    0.0000 C   0  0  0  0  0  0  0  0  0  0  0  0
  1  2  1  0  0  0  0
  1  3  1  0  0  0  0
  1  7  2  0  0  0  0
  2  4  1  0  0  0  0
  3  6  1  0  0  0  0
  3  8  1  0  0  0  0
  3  9  1  0  0  0  0
  4 10  2  0  0  0  0
  4 11  1  0  0  0  0
  5 15  1  0  0  0  0
  5 12  1  0  0  0  0
  5 16  1  0  0  0  0
  6 11  1  0  0  0  0
  8 13  1  0  0  0  0
  8 14  1  0  0  0  0
  9 18  2  0  0  0  0
  9 19  1  0  0  0  0
 12 17  1  0  0  0  0
 13 16  1  0  0  0  0
 14 15  1  0  0  0  0
 17 20  1  0  0  0  0
 17 21  2  0  0  0  0
 18 23  1  0  0  0  0
 19 22  2  0  0  0  0
 20 25  2  0  0  0  0
 21 24  1  0  0  0  0
 22 26  1  0  0  0  0
 23 26  2  0  0  0  0
 24 27  2  0  0  0  0
 25 27  1  0  0  0  0
M  END
> <ID>
11471

> <Formula>
C23H26N2O2

> <FW>
362.4647

> <DSSTox_CID>
26173

> <DSSTox_RID>
81404

> <DSSTox_GSID>
46173

> <DSSTox_FileID_Sort>
6085

> <TS_ChemName>
Benzetimide

> <TS_ChemName_Synonyms>


> <TS_CASRN>
14051-33-3

> <CASRN_ChemName_Relationship>
primary

> <TS_Description>
single chemical compound

> <ChemNote>


> <STRUCTURE_Shown>
tested chemical

> <STRUCTURE_Formula>
C23H26N2O2

> <STRUCTURE_MW>
362.4647

> <STRUCTURE_ChemType>
defined organic

> <STRUCTURE_DefinedOrganicForm>
parent

> <STRUCTURE_IUPAC>
1'-benzyl-3-phenyl-3,4'-bipiperidine-2,6-dione

> <STRUCTURE_SMILES>
O=C4NC(=O)CCC4(C2CCN(Cc1ccccc1)CC2)c3ccccc3

> <STRUCTURE_SMILES_Desalt>
O=C4NC(=O)CCC4(C2CCN(Cc1ccccc1)CC2)c3ccccc3

> <Substance_modify_yyyymmdd>
20110808

$$$$
