1405-10-3
ChemmineR-0915142007XD

 57 57  0  0  1  0  0  0  0  0  1 V2000
   14.9687   -3.5410    0.0000 N   0  0  0  0  0  0  0  0  0  0  0  0
   14.2099   -4.5757    0.0000 C   0  0  0  0  0  0  0  0  0  0  0  0
   14.7387   -5.7713    0.0000 C   0  0  0  0  0  0  0  0  0  0  0  0
   16.0264   -5.9093    0.0000 O   0  0  0  0  0  0  0  0  0  0  0  0
   13.9570   -6.8290    0.0000 C   0  0  0  0  0  0  0  0  0  0  0  0
   14.4858   -8.0017    0.0000 O   0  0  0  0  0  0  0  0  0  0  0  0
   12.6923   -6.6911    0.0000 C   0  0  0  0  0  0  0  0  0  0  0  0
   11.9106   -7.7488    0.0000 C   0  0  0  0  0  0  0  0  0  0  0  0
   12.4394   -8.9444    0.0000 N   0  0  0  0  0  0  0  0  0  0  0  0
   12.1635   -5.5184    0.0000 O   0  0  0  0  0  0  0  0  0  0  0  0
   12.8993   -4.4607    0.0000 C   0  0  0  0  0  0  0  0  0  0  0  0
   12.3704   -3.2651    0.0000 O   0  0  0  0  0  0  0  0  0  0  0  0
   11.0828   -3.1271    0.0000 C   0  0  0  0  0  0  0  0  0  0  0  0
   10.2091   -4.0928    0.0000 C   0  0  0  0  0  0  0  0  0  0  0  0
   10.4850   -5.3575    0.0000 O   0  0  0  0  0  0  0  0  0  0  0  0
    9.0364   -3.5640    0.0000 C   0  0  0  0  0  0  0  0  0  0  0  0
    9.1514   -2.2763    0.0000 O   0  0  0  0  0  0  0  0  0  0  0  0
   10.4390   -2.0004    0.0000 C   0  0  0  0  0  0  0  0  0  0  0  0
   10.9678   -0.8048    0.0000 C   0  0  0  0  0  0  0  0  0  0  0  0
   12.2555   -0.6668    0.0000 O   0  0  0  0  0  0  0  0  0  0  0  0
    7.9097   -4.2078    0.0000 O   0  0  0  0  0  0  0  0  0  0  0  0
    6.7600   -3.5640    0.0000 C   0  0  0  0  0  0  0  0  0  0  0  0
    5.6334   -4.2078    0.0000 C   0  0  0  0  0  0  0  0  0  0  0  0
    5.6334   -5.5184    0.0000 O   0  0  0  0  0  0  0  0  0  0  0  0
    4.5067   -6.1622    0.0000 C   0  0  0  0  0  0  0  0  0  0  0  0
    3.3800   -5.5184    0.0000 O   0  0  0  0  0  0  0  0  0  0  0  0
    2.2534   -6.1622    0.0000 C   0  0  0  0  0  0  0  0  0  0  0  0
    1.1267   -5.5184    0.0000 C   0  0  0  0  0  0  0  0  0  0  0  0
    0.0000   -6.1622    0.0000 N   0  0  0  0  0  0  0  0  0  0  0  0
    2.2534   -7.4728    0.0000 C   0  0  0  0  0  0  0  0  0  0  0  0
    1.1267   -8.1167    0.0000 O   0  0  0  0  0  0  0  0  0  0  0  0
    3.3800   -8.1167    0.0000 C   0  0  0  0  0  0  0  0  0  0  0  0
    3.3800   -9.4273    0.0000 O   0  0  0  0  0  0  0  0  0  0  0  0
    4.5067   -7.4728    0.0000 C   0  0  0  0  0  0  0  0  0  0  0  0
    5.6334   -8.1167    0.0000 N   0  0  0  0  0  0  0  0  0  0  0  0
    4.5067   -3.5640    0.0000 C   0  0  0  0  0  0  0  0  0  0  0  0
    3.3800   -4.2078    0.0000 N   0  0  0  0  0  0  0  0  0  0  0  0
    4.5067   -2.2534    0.0000 C   0  0  0  0  0  0  0  0  0  0  0  0
    5.6334   -1.6095    0.0000 C   0  0  0  0  0  0  0  0  0  0  0  0
    5.6334   -0.2989    0.0000 N   0  0  0  0  0  0  0  0  0  0  0  0
    6.7600   -2.2534    0.0000 C   0  0  0  0  0  0  0  0  0  0  0  0
    7.9097   -1.6095    0.0000 O   0  0  0  0  0  0  0  0  0  0  0  0
   21.4758   -1.4486    0.0000 S   0  0  0  0  0  0  0  0  0  0  0  0
   22.9244   -1.4486    0.0000 O   0  0  0  0  0  0  0  0  0  0  0  0
   20.0502   -1.4486    0.0000 O   0  0  0  0  0  0  0  0  0  0  0  0
   21.4758   -2.8742    0.0000 O   0  0  0  0  0  0  0  0  0  0  0  0
   21.4758    0.0000    0.0000 O   0  0  0  0  0  0  0  0  0  0  0  0
   21.5448   -5.9553    0.0000 S   0  0  0  0  0  0  0  0  0  0  0  0
   22.9934   -5.9553    0.0000 O   0  0  0  0  0  0  0  0  0  0  0  0
   20.1192   -5.9553    0.0000 O   0  0  0  0  0  0  0  0  0  0  0  0
   21.5448   -7.4039    0.0000 O   0  0  0  0  0  0  0  0  0  0  0  0
   21.5448   -4.5067    0.0000 O   0  0  0  0  0  0  0  0  0  0  0  0
   18.8776   -8.8754    0.0000 S   0  0  0  0  0  0  0  0  0  0  0  0
   20.3261   -8.8754    0.0000 O   0  0  0  0  0  0  0  0  0  0  0  0
   17.4520   -8.8754    0.0000 O   0  0  0  0  0  0  0  0  0  0  0  0
   18.8776  -10.3240    0.0000 O   0  0  0  0  0  0  0  0  0  0  0  0
   18.8776   -7.4499    0.0000 O   0  0  0  0  0  0  0  0  0  0  0  0
  2  1  1  6  0  0  0
  2  3  1  0  0  0  0
  2 11  1  0  0  0  0
  3  4  1  1  0  0  0
  3  5  1  0  0  0  0
  5  6  1  6  0  0  0
  5  7  1  0  0  0  0
  7  8  1  6  0  0  0
  7 10  1  0  0  0  0
  8  9  1  0  0  0  0
 10 11  1  0  0  0  0
 11 12  1  6  0  0  0
 13 12  1  1  0  0  0
 13 14  1  0  0  0  0
 13 18  1  0  0  0  0
 14 15  1  1  0  0  0
 14 16  1  0  0  0  0
 16 17  1  0  0  0  0
 16 21  1  6  0  0  0
 17 18  1  0  0  0  0
 18 19  1  6  0  0  0
 19 20  1  0  0  0  0
 22 21  1  1  0  0  0
 22 23  1  0  0  0  0
 22 41  1  0  0  0  0
 23 24  1  6  0  0  0
 23 36  1  0  0  0  0
 25 24  1  6  0  0  0
 25 26  1  0  0  0  0
 25 34  1  0  0  0  0
 26 27  1  0  0  0  0
 27 28  1  1  0  0  0
 27 30  1  0  0  0  0
 28 29  1  0  0  0  0
 30 31  1  6  0  0  0
 30 32  1  0  0  0  0
 32 33  1  1  0  0  0
 32 34  1  0  0  0  0
 34 35  1  6  0  0  0
 36 37  1  1  0  0  0
 36 38  1  0  0  0  0
 38 39  1  0  0  0  0
 39 40  1  1  0  0  0
 39 41  1  0  0  0  0
 41 42  1  6  0  0  0
 43 44  2  0  0  0  0
 43 45  2  0  0  0  0
 43 46  1  0  0  0  0
 43 47  1  0  0  0  0
 48 49  2  0  0  0  0
 48 50  2  0  0  0  0
 48 51  1  0  0  0  0
 48 52  1  0  0  0  0
 53 54  2  0  0  0  0
 53 55  2  0  0  0  0
 53 56  1  0  0  0  0
 53 57  1  0  0  0  0
M  END
> <ID>
8086

> <Formula>
C23H52N6O25S3

> <FW>
908.8792 (614.6437+98.0785+98.0785+98.0785)

> <DSSTox_CID>
21074

> <DSSTox_RID>
79620

> <DSSTox_GSID>
41074

> <DSSTox_FileID_Sort>
4302

> <TS_ChemName>
Neomycin sulfate

> <TS_ChemName_Synonyms>
Neomycin trisulfate

> <TS_CASRN>
1405-10-3

> <CASRN_ChemName_Relationship>
primary

> <TS_Description>
single chemical compound

> <ChemNote>
stereochem; parent [1404-04-2]

> <STRUCTURE_Shown>
tested chemical

> <STRUCTURE_Formula>
C23H52N6O25S3

> <STRUCTURE_MW>
908.8792

> <STRUCTURE_ChemType>
defined organic

> <STRUCTURE_DefinedOrganicForm>
complex

> <STRUCTURE_IUPAC>
(1R,2R,3S,4R,6S)-4,6-diamino-2-{[3-O-(2,6-diamino-2,6-dideoxy-beta-L-idopyranosyl)-beta-D-ribofuranosyl]oxy}-3-hydroxycyclohexyl 2,6-diamino-2,6-dideoxy-alpha-D-glucopyranoside sulfate (1:3)

> <STRUCTURE_SMILES>
O=S(=O)(O)O.O=S(=O)(O)O.O=S(=O)(O)O.N[C@@H]4[C@@H](O)[C@H](O)[C@@H](CN)O[C@@H]4O[C@@H]3[C@@H](N)C[C@@H](N)[C@H](O)[C@H]3O[C@@H]2O[C@H](CO)[C@@H](O[C@H]1O[C@@H](CN)[C@@H](O)[C@H](O)[C@H]1N)[C@H]2O

> <STRUCTURE_SMILES_Desalt>
N[C@@H]4[C@@H](O)[C@H](O)[C@@H](CN)O[C@@H]4O[C@@H]3[C@@H](N)C[C@@H](N)[C@H](O)[C@H]3O[C@@H]2O[C@H](CO)[C@@H](O[C@H]1O[C@@H](CN)[C@@H](O)[C@H](O)[C@H]1N)[C@H]2O

> <Substance_modify_yyyymmdd>
20080429

$$$$
