1405-86-3
ChemmineR-0915142007XD

 61 67  0  0  1  0  0  0  0  0  1 V2000
   12.5985   -4.8131    0.0000 C   0  0  0  0  0  0  0  0  0  0  0  0
   11.4838   -6.8059    0.0000 C   0  0  0  0  0  0  0  0  0  0  0  0
   12.5985   -6.1641    0.0000 C   0  0  0  0  0  0  0  0  0  0  0  0
    9.2040   -6.8059    0.0000 C   0  0  0  0  0  0  0  0  0  0  0  0
   10.3692   -6.1641    0.0000 C   0  0  0  0  0  0  0  0  0  0  0  0
   11.4838   -4.1713    0.0000 C   0  0  0  0  0  0  0  0  0  0  0  0
   10.3692   -4.8131    0.0000 C   0  0  0  0  0  0  0  0  0  0  0  0
    9.2040   -8.1062    0.0000 C   0  0  0  0  0  0  0  0  0  0  0  0
   13.7806   -4.1713    0.0000 C   0  0  0  0  0  0  0  0  0  0  0  0
    8.0894   -8.7818    0.0000 C   0  0  0  0  0  0  0  0  0  0  0  0
   14.8783   -2.2123    0.0000 C   0  0  0  0  0  0  0  0  0  0  0  0
   13.7806   -2.8878    0.0000 C   0  0  0  0  0  0  0  0  0  0  0  0
   14.8783   -4.8131    0.0000 C   0  0  0  0  0  0  0  0  0  0  0  0
    4.6104   -9.5248    0.0000 O   0  0  0  0  0  0  0  0  0  0  0  0
    6.9579   -8.1062    0.0000 C   0  0  0  0  0  0  0  0  0  0  0  0
   11.4838   -8.1062    0.0000 C   0  0  0  0  0  0  0  0  0  0  0  0
   15.6383   -1.0639    0.0000 C   0  0  0  0  0  0  0  0  0  0  0  0
    8.0894   -6.1641    0.0000 C   0  0  0  0  0  0  0  0  0  0  0  0
   13.7806   -6.8059    0.0000 C   0  0  0  0  0  0  0  0  0  0  0  0
   10.3692   -8.7818    0.0000 C   0  0  0  0  0  0  0  0  0  0  0  0
    9.2040   -4.2389    0.0000 O   0  0  0  0  0  0  0  0  0  0  0  0
   14.8783   -6.1641    0.0000 C   0  0  0  0  0  0  0  0  0  0  0  0
    6.9579   -6.8059    0.0000 C   0  0  0  0  0  0  0  0  0  0  0  0
   15.9929   -2.8878    0.0000 C   0  0  0  0  0  0  0  0  0  0  0  0
   15.9929   -4.1713    0.0000 C   0  0  0  0  0  0  0  0  0  0  0  0
   15.0134    0.0000    0.0000 O   0  0  0  0  0  0  0  0  0  0  0  0
   11.5007   -5.6406    0.0000 C   0  0  0  0  0  0  0  0  0  0  0  0
    9.2040   -5.4548    0.0000 C   0  0  0  0  0  0  0  0  0  0  0  0
   12.6660   -7.3801    0.0000 C   0  0  0  0  0  0  0  0  0  0  0  0
   16.8880   -1.0639    0.0000 O   0  0  0  0  0  0  0  0  0  0  0  0
    7.5827   -9.9302    0.0000 C   0  0  0  0  0  0  0  0  0  0  0  0
    8.5453   -9.8795    0.0000 C   0  0  0  0  0  0  0  0  0  0  0  0
   14.1015   -1.0639    0.0000 C   0  0  0  0  0  0  0  0  0  0  0  0
   14.8783   -3.4620    0.0000 C   0  0  0  0  0  0  0  0  0  0  0  0
   10.3017   -7.2956    0.0000 H   0  0  0  0  0  0  0  0  0  0  0  0
    9.1533   -9.3897    0.0000 H   0  0  0  0  0  0  0  0  0  0  0  0
   13.7300   -5.4548    0.0000 H   0  0  0  0  0  0  0  0  0  0  0  0
    4.6104  -10.8252    0.0000 C   0  0  0  0  0  0  0  0  0  0  0  0
    3.4789  -11.4838    0.0000 C   0  0  0  0  0  0  0  0  0  0  0  0
    5.7757  -11.4838    0.0000 O   0  0  0  0  0  0  0  0  0  0  0  0
    3.4789  -12.8349    0.0000 C   0  0  0  0  0  0  0  0  0  0  0  0
    5.7757  -12.8349    0.0000 C   0  0  0  0  0  0  0  0  0  0  0  0
    4.6104  -13.4766    0.0000 C   0  0  0  0  0  0  0  0  0  0  0  0
    2.3305  -13.4766    0.0000 O   0  0  0  0  0  0  0  0  0  0  0  0
    4.6104  -14.8108    0.0000 O   0  0  0  0  0  0  0  0  0  0  0  0
    6.9072  -13.4766    0.0000 C   0  0  0  0  0  0  0  0  0  0  0  0
    6.9072  -14.8108    0.0000 O   0  0  0  0  0  0  0  0  0  0  0  0
    8.0894  -12.8349    0.0000 O   0  0  0  0  0  0  0  0  0  0  0  0
    2.2968  -10.8252    0.0000 O   0  0  0  0  0  0  0  0  0  0  0  0
    2.2968   -9.4742    0.0000 C   0  0  0  0  0  0  0  0  0  0  0  0
    1.1484   -8.8324    0.0000 C   0  0  0  0  0  0  0  0  0  0  0  0
    3.4452   -8.8324    0.0000 O   0  0  0  0  0  0  0  0  0  0  0  0
    1.1484   -7.4814    0.0000 C   0  0  0  0  0  0  0  0  0  0  0  0
    3.4452   -7.4814    0.0000 C   0  0  0  0  0  0  0  0  0  0  0  0
    2.2968   -6.8059    0.0000 C   0  0  0  0  0  0  0  0  0  0  0  0
    0.0000   -9.4742    0.0000 O   0  0  0  0  0  0  0  0  0  0  0  0
    0.0000   -6.8059    0.0000 O   0  0  0  0  0  0  0  0  0  0  0  0
    2.2968   -5.4717    0.0000 O   0  0  0  0  0  0  0  0  0  0  0  0
    4.6104   -6.8059    0.0000 C   0  0  0  0  0  0  0  0  0  0  0  0
    4.6104   -5.4717    0.0000 O   0  0  0  0  0  0  0  0  0  0  0  0
    5.7757   -7.4814    0.0000 O   0  0  0  0  0  0  0  0  0  0  0  0
  1  3  1  0  0  0  0
  1  6  2  0  0  0  0
  1  9  1  0  0  0  0
  2  3  1  0  0  0  0
  2 16  1  0  0  0  0
  2 27  1  1  0  0  0
  2  5  1  0  0  0  0
  3 19  1  0  0  0  0
  3 29  1  6  0  0  0
  4  5  1  0  0  0  0
  4  8  1  0  0  0  0
  4 18  1  0  0  0  0
  4 28  1  1  0  0  0
  5  7  1  0  0  0  0
  5 35  1  6  0  0  0
  6  7  1  0  0  0  0
  7 21  2  0  0  0  0
  8 10  1  0  0  0  0
  8 36  1  6  0  0  0
  8 20  1  0  0  0  0
  9 12  1  0  0  0  0
  9 13  1  0  0  0  0
  9 37  1  1  0  0  0
 10 31  1  0  0  0  0
 10 32  1  0  0  0  0
 10 15  1  0  0  0  0
 11 12  1  0  0  0  0
 11 17  1  1  0  0  0
 11 33  1  6  0  0  0
 11 24  1  0  0  0  0
 13 22  1  0  0  0  0
 13 25  1  0  0  0  0
 13 34  1  1  0  0  0
 15 14  1  1  0  0  0
 38 14  1  1  0  0  0
 15 23  1  0  0  0  0
 16 20  1  0  0  0  0
 17 26  2  0  0  0  0
 17 30  1  0  0  0  0
 18 23  1  0  0  0  0
 19 22  1  0  0  0  0
 24 25  1  0  0  0  0
 38 39  1  0  0  0  0
 38 40  1  0  0  0  0
 39 41  1  0  0  0  0
 39 49  1  1  0  0  0
 40 42  1  0  0  0  0
 41 43  1  0  0  0  0
 41 44  1  6  0  0  0
 42 43  1  0  0  0  0
 42 46  1  6  0  0  0
 43 45  1  1  0  0  0
 46 47  1  0  0  0  0
 46 48  2  0  0  0  0
 50 49  1  1  0  0  0
 50 51  1  0  0  0  0
 50 52  1  0  0  0  0
 51 53  1  0  0  0  0
 51 56  1  6  0  0  0
 52 54  1  0  0  0  0
 53 55  1  0  0  0  0
 53 57  1  1  0  0  0
 54 55  1  0  0  0  0
 54 59  1  1  0  0  0
 55 58  1  6  0  0  0
 59 60  1  0  0  0  0
 59 61  2  0  0  0  0
M  END
> <ID>
12160

> <Formula>
C42H62O16

> <FW>
822.9321

> <DSSTox_CID>
27006

> <DSSTox_RID>
82047

> <DSSTox_GSID>
47006

> <DSSTox_FileID_Sort>
6728

> <TS_ChemName>
Glycyrrhizin

> <TS_ChemName_Synonyms>


> <TS_CASRN>
1405-86-3

> <CASRN_ChemName_Relationship>
primary

> <TS_Description>
single chemical compound

> <ChemNote>
stereochem

> <STRUCTURE_Shown>
tested chemical

> <STRUCTURE_Formula>
C42H62O16

> <STRUCTURE_MW>
822.9321

> <STRUCTURE_ChemType>
defined organic

> <STRUCTURE_DefinedOrganicForm>
parent

> <STRUCTURE_IUPAC>
(3beta)-30-hydroxy-11,30-dioxoolean-12-en-3-yl 2-O-beta-D-glucopyranuronosyl-alpha-D-glucopyranosiduronic acid

> <STRUCTURE_SMILES>
O=C(O)[C@H]7O[C@@H](O[C@@H]6[C@@H](O)[C@H](O)[C@H](O[C@@H]6O[C@H]2CC[C@]3(C)[C@H]4C(=O)C=C1[C@@H]5C[C@](C)(CC[C@]5(C)CC[C@@]1(C)[C@]4(C)CC[C@H]3C2(C)C)C(=O)O)C(=O)O)[C@H](O)[C@@H](O)[C@@H]7O

> <STRUCTURE_SMILES_Desalt>
O=C(O)[C@H]7O[C@@H](O[C@@H]6[C@@H](O)[C@H](O)[C@H](O[C@@H]6O[C@H]2CC[C@]3(C)[C@H]4C(=O)C=C1[C@@H]5C[C@](C)(CC[C@]5(C)CC[C@@]1(C)[C@]4(C)CC[C@H]3C2(C)C)C(=O)O)C(=O)O)[C@H](O)[C@@H](O)[C@@H]7O

> <Substance_modify_yyyymmdd>
20100330

$$$$
