1405-41-0
ChemmineR-0915142007XD

 38 39  0  0  1  0  0  0  0  0  1 V2000
    6.9378   -2.6881    0.0000 C   0  0  0  0  0  0  0  0  0  0  0  0
    6.9378   -4.0125    0.0000 C   0  0  0  0  0  0  0  0  0  0  0  0
    5.7716   -2.0161    0.0000 C   0  0  0  0  0  0  0  0  0  0  0  0
    5.7716   -4.6845    0.0000 C   0  0  0  0  0  0  0  0  0  0  0  0
    4.6054   -2.6881    0.0000 C   0  0  0  0  0  0  0  0  0  0  0  0
    4.6054   -4.0125    0.0000 C   0  0  0  0  0  0  0  0  0  0  0  0
    8.0842   -2.0161    0.0000 N   0  0  0  0  0  0  0  0  0  0  0  0
    8.0842   -4.6845    0.0000 O   0  0  0  0  0  0  0  0  0  0  0  0
    5.7716   -6.0088    0.0000 O   0  0  0  0  0  0  0  0  0  0  0  0
    3.4590   -4.6845    0.0000 O   0  0  0  0  0  0  0  0  0  0  0  0
    3.4590   -2.0161    0.0000 N   0  0  0  0  0  0  0  0  0  0  0  0
    9.2504   -4.0125    0.0000 C   0  0  0  0  0  0  0  0  0  0  0  0
    9.2504   -2.6881    0.0000 O   0  0  0  0  0  0  0  0  0  0  0  0
   10.3770   -4.6845    0.0000 C   0  0  0  0  0  0  0  0  0  0  0  0
   10.3770   -2.0161    0.0000 C   0  0  0  0  0  0  0  0  0  0  0  0
   11.5432   -4.0125    0.0000 C   0  0  0  0  0  0  0  0  0  0  0  0
   11.5432   -2.6881    0.0000 C   0  0  0  0  0  0  0  0  0  0  0  0
    2.3126   -4.0125    0.0000 C   0  0  0  0  0  0  0  0  0  0  0  0
    2.3126   -2.6881    0.0000 O   0  0  0  0  0  0  0  0  0  0  0  0
    1.1662   -4.6845    0.0000 C   0  0  0  0  0  0  0  0  0  0  0  0
    1.1662   -2.0161    0.0000 C   0  0  0  0  0  0  0  0  0  0  0  0
    0.0198   -4.0125    0.0000 C   0  0  0  0  0  0  0  0  0  0  0  0
    0.0198   -2.6881    0.0000 C   0  0  0  0  0  0  0  0  0  0  0  0
   12.6896   -4.6845    0.0000 N   0  0  0  0  0  0  0  0  0  0  0  0
   10.3770   -6.0088    0.0000 O   0  0  0  0  0  0  0  0  0  0  0  0
    1.1662   -6.0088    0.0000 N   0  0  0  0  0  0  0  0  0  0  0  0
    1.1662   -0.6720    0.0000 C   0  0  0  0  0  0  0  0  0  0  0  0
    2.2928    0.0000    0.0000 N   0  0  0  0  0  0  0  0  0  0  0  0
   12.6896   -6.0088    0.0000 C   0  0  0  0  0  0  0  0  0  0  0  0
   12.8675   -2.6881    0.0000 C   0  0  0  0  0  0  0  0  0  0  0  0
   11.8990   -1.4034    0.0000 O   0  0  0  0  0  0  0  0  0  0  0  0
    0.0000   -0.0198    0.0000 C   0  0  0  0  0  0  0  0  0  0  0  0
    3.4590   -0.6720    0.0000 C   0  0  0  0  0  0  0  0  0  0  0  0
   18.4415   -2.6486    0.0000 S   0  0  0  0  0  0  0  0  0  0  0  0
   19.7658   -2.6486    0.0000 O   0  0  0  0  0  0  0  0  0  0  0  0
   17.1172   -2.6486    0.0000 O   0  0  0  0  0  0  0  0  0  0  0  0
   18.4415   -3.9729    0.0000 O   0  0  0  0  0  0  0  0  0  0  0  0
   18.4415   -1.3243    0.0000 O   0  0  0  0  0  0  0  0  0  0  0  0
  1  2  1  0  0  0  0
  1  3  1  0  0  0  0
  1  7  1  1  0  0  0
  2  4  1  0  0  0  0
  2  8  1  6  0  0  0
  3  5  1  0  0  0  0
  4  6  1  0  0  0  0
  4  9  1  1  0  0  0
  5  6  1  0  0  0  0
  5 11  1  1  0  0  0
  6 10  1  6  0  0  0
 12  8  1  1  0  0  0
 18 10  1  6  0  0  0
 12 13  1  0  0  0  0
 12 14  1  0  0  0  0
 13 15  1  0  0  0  0
 14 16  1  0  0  0  0
 14 25  1  1  0  0  0
 15 17  1  0  0  0  0
 16 17  1  0  0  0  0
 16 24  1  6  0  0  0
 17 30  1  0  0  0  0
 17 31  1  6  0  0  0
 18 19  1  0  0  0  0
 18 20  1  0  0  0  0
 19 21  1  0  0  0  0
 20 22  1  0  0  0  0
 20 26  1  6  0  0  0
 21 23  1  0  0  0  0
 21 27  1  1  0  0  0
 22 23  1  0  0  0  0
 24 29  1  0  0  0  0
 27 28  1  0  0  0  0
 27 32  1  0  0  0  0
 28 33  1  0  0  0  0
 34 35  2  0  0  0  0
 34 36  2  0  0  0  0
 34 37  1  0  0  0  0
 34 38  1  0  0  0  0
M  END
> <ID>
7280

> <Formula>
C21H45N5O11S

> <FW>
575.6739 (477.5954+98.0785)

> <DSSTox_CID>
17235

> <DSSTox_RID>
79311

> <DSSTox_GSID>
37235

> <DSSTox_FileID_Sort>
3993

> <TS_ChemName>
Gentamicin sulfate

> <TS_ChemName_Synonyms>


> <TS_CASRN>
1405-41-0

> <CASRN_ChemName_Relationship>
primary

> <TS_Description>
mixture or formulation

> <ChemNote>
mixture of gentamicins sulfates; usually including C1;C1a;C2; structure shown C1; stereochem; parent [1403-66-3]

> <STRUCTURE_Shown>
representative component

> <STRUCTURE_Formula>
C21H45N5O11S

> <STRUCTURE_MW>
575.6739

> <STRUCTURE_ChemType>
defined organic

> <STRUCTURE_DefinedOrganicForm>
complex

> <STRUCTURE_IUPAC>
(1R,2S,3S,4R,6S)-4,6-diamino-3-{[3-deoxy-4-C-methyl-3-(methylamino)-b-L-arabinopyranosyl]oxy}-2-hydroxycyclohexyl 2-amino-2,3,4,6,7-pentadeoxy-6-(methylamino)-a-D-glycero-heptopyranoside sulfate (salt)

> <STRUCTURE_SMILES>
O=S(=O)(O)O.CC(NC)[C@@H]1CC[C@@H](N)[C@H](O1)O[C@H]3[C@H](O)[C@@H](O[C@H]2OC[C@](C)(O)[C@H](NC)[C@H]2O)[C@H](N)C[C@@H]3N

> <STRUCTURE_SMILES_Desalt>
CC(NC)[C@@H]1CC[C@@H](N)[C@H](O1)O[C@H]3[C@H](O)[C@@H](O[C@H]2OC[C@](C)(O)[C@H](NC)[C@H]2O)[C@H](N)C[C@@H]3N

> <Substance_modify_yyyymmdd>
20080429

$$$$
