1405-87-4
ChemmineR-0915142007XD

102105  0  0  1  0  0  0  0  0  1 V2000
    0.0000  -19.6383    0.0000 C   0  0  0  0  0  0  0  0  0  0  0  0
    1.0962  -20.4080    0.0000 C   0  0  0  0  0  0  0  0  0  0  0  0
    2.3090  -19.8482    0.0000 C   0  0  0  0  0  0  0  0  0  0  0  0
    2.3790  -18.5188    0.0000 C   0  0  0  0  0  0  0  0  0  0  0  0
    3.3819  -20.6179    0.0000 C   0  0  0  0  0  0  0  0  0  0  0  0
    3.2420  -21.9240    0.0000 N   0  0  0  0  0  0  0  0  0  0  0  0
    4.5947  -20.0815    0.0000 C   0  0  0  0  0  0  0  0  0  0  0  0
    4.8513  -18.7520    0.0000 N   0  0  0  0  0  0  0  0  0  0  0  0
    6.1807  -18.5421    0.0000 C   0  0  0  0  0  0  0  0  0  0  0  0
    6.7405  -19.8016    0.0000 C   0  0  0  0  0  0  0  0  0  0  0  0
    5.7609  -20.7579    0.0000 S   0  0  0  0  0  0  0  0  0  0  0  0
    6.9037  -17.4693    0.0000 C   0  0  0  0  0  0  0  0  0  0  0  0
    6.3207  -16.2798    0.0000 O   0  0  0  0  0  0  0  0  0  0  0  0
    8.2099  -17.5625    0.0000 N   0  0  0  0  0  0  0  0  0  0  0  0
    8.8629  -18.7054    0.0000 C   0  0  0  0  0  0  0  0  0  0  0  0
    8.5364  -19.9182    0.0000 C   0  0  0  0  0  0  0  0  0  0  0  0
    8.9096  -21.1310    0.0000 C   0  0  0  0  0  0  0  0  0  0  0  0
    7.9533  -22.1106    0.0000 C   0  0  0  0  0  0  0  0  0  0  0  0
   10.1457  -21.6208    0.0000 C   0  0  0  0  0  0  0  0  0  0  0  0
   10.2157  -18.4955    0.0000 C   0  0  0  0  0  0  0  0  0  0  0  0
   10.4256  -17.1894    0.0000 O   0  0  0  0  0  0  0  0  0  0  0  0
   10.9154  -19.6150    0.0000 N   0  0  0  0  0  0  0  0  0  0  0  0
   12.1982  -19.8016    0.0000 C   0  0  0  0  0  0  0  0  0  0  0  0
   12.8046  -21.0144    0.0000 C   0  0  0  0  0  0  0  0  0  0  0  0
   14.1340  -21.0144    0.0000 C   0  0  0  0  0  0  0  0  0  0  0  0
   14.8104  -22.1573    0.0000 C   0  0  0  0  0  0  0  0  0  0  0  0
   14.2040  -23.3234    0.0000 O   0  0  0  0  0  0  0  0  0  0  0  0
   16.1398  -22.1106    0.0000 O   0  0  0  0  0  0  0  0  0  0  0  0
   12.9678  -18.7287    0.0000 C   0  0  0  0  0  0  0  0  0  0  0  0
   12.2448  -17.6325    0.0000 O   0  0  0  0  0  0  0  0  0  0  0  0
   14.2739  -18.6121    0.0000 N   0  0  0  0  0  0  0  0  0  0  0  0
   14.9037  -17.4459    0.0000 C   0  0  0  0  0  0  0  0  0  0  0  0
   16.2798  -17.5859    0.0000 C   0  0  0  0  0  0  0  0  0  0  0  0
   16.2798  -18.9386    0.0000 H   0  0  0  0  0  0  0  0  0  0  0  0
   16.5596  -16.2798    0.0000 C   0  0  0  0  0  0  0  0  0  0  0  0
   17.6092  -17.5859    0.0000 C   0  0  0  0  0  0  0  0  0  0  0  0
   18.3322  -18.6588    0.0000 C   0  0  0  0  0  0  0  0  0  0  0  0
   14.2973  -16.2798    0.0000 C   0  0  0  0  0  0  0  0  0  0  0  0
   12.9912  -15.9999    0.0000 O   0  0  0  0  0  0  0  0  0  0  0  0
   14.9037  -15.0903    0.0000 N   0  0  0  0  0  0  0  0  0  0  0  0
   14.3206  -13.9241    0.0000 C   0  0  0  0  0  0  0  0  0  0  0  0
   13.1078  -13.5276    0.0000 C   0  0  0  0  0  0  0  0  0  0  0  0
   11.8950  -14.0407    0.0000 C   0  0  0  0  0  0  0  0  0  0  0  0
   10.8687  -13.2011    0.0000 C   0  0  0  0  0  0  0  0  0  0  0  0
    9.5859  -13.2477    0.0000 C   0  0  0  0  0  0  0  0  0  0  0  0
    8.8396  -12.1515    0.0000 N   0  0  0  0  0  0  0  0  0  0  0  0
    7.5335  -12.0349    0.0000 C   0  0  0  0  0  0  0  0  0  0  0  0
    6.8571  -13.2244    0.0000 O   0  0  0  0  0  0  0  0  0  0  0  0
    6.6705  -10.9387    0.0000 C   0  0  0  0  0  0  0  0  0  0  0  0
    5.4577  -11.3352    0.0000 C   0  0  0  0  0  0  0  0  0  0  0  0
    4.2449  -10.9853    0.0000 C   0  0  0  0  0  0  0  0  0  0  0  0
    3.3586  -12.0349    0.0000 N   0  0  0  0  0  0  0  0  0  0  0  0
    3.6151   -9.8425    0.0000 O   0  0  0  0  0  0  0  0  0  0  0  0
    7.1603   -9.7025    0.0000 N   0  0  0  0  0  0  0  0  0  0  0  0
    6.5772   -8.5131    0.0000 C   0  0  0  0  0  0  0  0  0  0  0  0
    5.2245   -8.5597    0.0000 O   0  0  0  0  0  0  0  0  0  0  0  0
    6.9504   -7.1836    0.0000 C   0  0  0  0  0  0  0  0  0  0  0  0
    5.9008   -6.4606    0.0000 C   0  0  0  0  0  0  0  0  0  0  0  0
    5.1545   -5.4577    0.0000 C   0  0  0  0  0  0  0  0  0  0  0  0
    3.8250   -5.6676    0.0000 O   0  0  0  0  0  0  0  0  0  0  0  0
    5.4344   -4.1516    0.0000 O   0  0  0  0  0  0  0  0  0  0  0  0
    8.2099   -6.7405    0.0000 N   0  0  0  0  0  0  0  0  0  0  0  0
    8.5597   -5.4577    0.0000 C   0  0  0  0  0  0  0  0  0  0  0  0
    7.4635   -4.6647    0.0000 O   0  0  0  0  0  0  0  0  0  0  0  0
    9.6792   -4.6180    0.0000 C   0  0  0  0  0  0  0  0  0  0  0  0
    9.2128   -3.4052    0.0000 C   0  0  0  0  0  0  0  0  0  0  0  0
    9.7025   -2.2157    0.0000 C   0  0  0  0  0  0  0  0  0  0  0  0
   11.0320   -2.0525    0.0000 C   0  0  0  0  0  0  0  0  0  0  0  0
   11.4285   -0.7230    0.0000 N   0  0  0  0  0  0  0  0  0  0  0  0
   10.2157    0.0000    0.0000 C   0  0  0  0  0  0  0  0  0  0  0  0
    9.1894   -0.9563    0.0000 N   0  0  0  0  0  0  0  0  0  0  0  0
   10.9154   -5.1078    0.0000 N   0  0  0  0  0  0  0  0  0  0  0  0
   12.1049   -4.5947    0.0000 C   0  0  0  0  0  0  0  0  0  0  0  0
   12.1748   -3.2653    0.0000 O   0  0  0  0  0  0  0  0  0  0  0  0
   13.4809   -4.8280    0.0000 C   0  0  0  0  0  0  0  0  0  0  0  0
   14.0407   -3.6618    0.0000 C   0  0  0  0  0  0  0  0  0  0  0  0
   15.1136   -2.9388    0.0000 C   0  0  0  0  0  0  0  0  0  0  0  0
   16.2331   -3.6385    0.0000 C   0  0  0  0  0  0  0  0  0  0  0  0
   17.4693   -3.2420    0.0000 C   0  0  0  0  0  0  0  0  0  0  0  0
   17.7025   -1.9125    0.0000 C   0  0  0  0  0  0  0  0  0  0  0  0
   16.5830   -1.1428    0.0000 C   0  0  0  0  0  0  0  0  0  0  0  0
   15.3468   -1.6326    0.0000 C   0  0  0  0  0  0  0  0  0  0  0  0
   13.8774   -6.1341    0.0000 N   0  0  0  0  0  0  0  0  0  0  0  0
   15.1602   -6.4606    0.0000 C   0  0  0  0  0  0  0  0  0  0  0  0
   15.6267   -5.2245    0.0000 O   0  0  0  0  0  0  0  0  0  0  0  0
   16.2331   -7.3002    0.0000 C   0  0  0  0  0  0  0  0  0  0  0  0
   15.9766   -8.6063    0.0000 N   0  0  0  0  0  0  0  0  0  0  0  0
   16.6996   -9.6559    0.0000 C   0  0  0  0  0  0  0  0  0  0  0  0
   18.0523   -9.6093    0.0000 O   0  0  0  0  0  0  0  0  0  0  0  0
   16.5130  -11.0087    0.0000 C   0  0  0  0  0  0  0  0  0  0  0  0
   17.7025  -11.5451    0.0000 C   0  0  0  0  0  0  0  0  0  0  0  0
   18.1690  -12.7346    0.0000 C   0  0  0  0  0  0  0  0  0  0  0  0
   19.4517  -13.0611    0.0000 C   0  0  0  0  0  0  0  0  0  0  0  0
   19.8249  -14.3439    0.0000 N   0  0  0  0  0  0  0  0  0  0  0  0
   15.3701  -11.6850    0.0000 N   0  0  0  0  0  0  0  0  0  0  0  0
   15.3235  -13.0145    0.0000 C   0  0  0  0  0  0  0  0  0  0  0  0
   16.4897  -13.6909    0.0000 O   0  0  0  0  0  0  0  0  0  0  0  0
   17.4926   -6.7871    0.0000 C   0  0  0  0  0  0  0  0  0  0  0  0
   18.2389   -7.8833    0.0000 C   0  0  0  0  0  0  0  0  0  0  0  0
   18.7054   -6.2040    0.0000 C   0  0  0  0  0  0  0  0  0  0  0  0
   19.8716   -6.7638    0.0000 C   0  0  0  0  0  0  0  0  0  0  0  0
   17.3993   -5.4577    0.0000 H   0  0  0  0  0  0  0  0  0  0  0  0
  1  2  1  0  0  0  0
  2  3  1  0  0  0  0
  3  4  1  1  0  0  0
  3  5  1  0  0  0  0
  5  6  1  6  0  0  0
  5  7  1  0  0  0  0
  7  8  2  0  0  0  0
  7 11  1  0  0  0  0
  8  9  1  0  0  0  0
  9 10  1  0  0  0  0
  9 12  1  6  0  0  0
 10 11  1  0  0  0  0
 12 13  2  0  0  0  0
 12 14  1  0  0  0  0
 14 15  1  0  0  0  0
 15 16  1  6  0  0  0
 15 20  1  0  0  0  0
 16 17  1  0  0  0  0
 17 18  1  0  0  0  0
 17 19  1  0  0  0  0
 20 21  2  0  0  0  0
 20 22  1  0  0  0  0
 22 23  1  0  0  0  0
 23 24  1  6  0  0  0
 23 29  1  0  0  0  0
 24 25  1  0  0  0  0
 25 26  1  0  0  0  0
 26 27  1  0  0  0  0
 26 28  2  0  0  0  0
 29 30  2  0  0  0  0
 29 31  1  0  0  0  0
 31 32  1  0  0  0  0
 32 33  1  1  0  0  0
 32 38  1  0  0  0  0
 33 34  1  6  0  0  0
 33 35  1  0  0  0  0
 33 36  1  0  0  0  0
 36 37  1  0  0  0  0
 38 39  2  0  0  0  0
 38 40  1  0  0  0  0
 41 40  1  6  0  0  0
 41 42  1  0  0  0  0
 41 96  1  0  0  0  0
 42 43  1  0  0  0  0
 43 44  1  0  0  0  0
 44 45  1  0  0  0  0
 45 46  1  0  0  0  0
 46 47  1  0  0  0  0
 47 48  2  0  0  0  0
 47 49  1  0  0  0  0
 49 50  1  1  0  0  0
 49 54  1  0  0  0  0
 50 51  1  0  0  0  0
 51 52  1  0  0  0  0
 51 53  2  0  0  0  0
 54 55  1  0  0  0  0
 55 56  2  0  0  0  0
 55 57  1  0  0  0  0
 57 58  1  1  0  0  0
 57 62  1  0  0  0  0
 58 59  1  0  0  0  0
 59 60  1  0  0  0  0
 59 61  2  0  0  0  0
 62 63  1  0  0  0  0
 63 64  2  0  0  0  0
 63 65  1  0  0  0  0
 65 66  1  1  0  0  0
 65 72  1  0  0  0  0
 66 67  1  0  0  0  0
 67 68  2  0  0  0  0
 67 71  1  0  0  0  0
 68 69  1  0  0  0  0
 69 70  2  0  0  0  0
 70 71  1  0  0  0  0
 72 73  1  0  0  0  0
 73 74  2  0  0  0  0
 73 75  1  0  0  0  0
 75 76  1  1  0  0  0
 75 83  1  0  0  0  0
 76 77  1  0  0  0  0
 77 78  2  0  0  0  0
 77 82  1  0  0  0  0
 78 79  1  0  0  0  0
 79 80  2  0  0  0  0
 80 81  1  0  0  0  0
 81 82  2  0  0  0  0
 83 84  1  0  0  0  0
 84 85  2  0  0  0  0
 84 86  1  0  0  0  0
 86 87  1  0  0  0  0
 86 98  1  1  0  0  0
 87 88  1  0  0  0  0
 88 89  2  0  0  0  0
 88 90  1  0  0  0  0
 90 91  1  1  0  0  0
 90 95  1  0  0  0  0
 91 92  1  0  0  0  0
 92 93  1  0  0  0  0
 93 94  1  0  0  0  0
 95 96  1  0  0  0  0
 96 97  2  0  0  0  0
 98 99  1  0  0  0  0
 98100  1  0  0  0  0
 98102  1  6  0  0  0
100101  1  0  0  0  0
M  END
> <ID>
10891

> <Formula>
C66H103N17O16S

> <FW>
1422.6933

> <DSSTox_CID>
25355

> <DSSTox_RID>
80821

> <DSSTox_GSID>
45355

> <DSSTox_FileID_Sort>
5502

> <TS_ChemName>
Bacitracin

> <TS_ChemName_Synonyms>


> <TS_CASRN>
1405-87-4

> <CASRN_ChemName_Relationship>
primary

> <TS_Description>
single chemical compound

> <ChemNote>
stereochem; tautomers

> <STRUCTURE_Shown>
tested chemical

> <STRUCTURE_Formula>
C66H103N17O16S

> <STRUCTURE_MW>
1422.6933

> <STRUCTURE_ChemType>
defined organic

> <STRUCTURE_DefinedOrganicForm>
parent

> <STRUCTURE_IUPAC>
N-({(4R)-2-[(1S,2S)-1-amino-2-methylbutyl]-4,5-dihydro-1,3-thiazol-4-yl}carbonyl)-L-leucyl-L-a-glutamyl-N-[(3R,6R,9R,12R,15R,18R,21R)-3-(2-amino-2-oxoethyl)-18-(3-aminopropyl)-12-benzyl-15-[(2S)-butan-2-yl]-6-(carboxymethyl)-9-(1H-imidazol-5-ylmethyl)-2,5

> <STRUCTURE_SMILES>
O=C(O)C[C@H]3NC(=O)[C@@H](Cc1cncn1)NC(=O)[C@@H](Cc2ccccc2)NC(=O)[C@H](NC(=O)[C@@H](CCCN)NC(=O)[C@@H](CCCCNC(=O)[C@@H](CC(N)=O)NC3=O)NC(=O)[C@H](NC(=O)[C@H](CCC(=O)O)NC(=O)[C@H](CC(C)C)NC(=O)[C@H]4N=C(SC4)[C@H](N)[C@H](C)CC)[C@@H](C)CC)[C@H](C)CC

> <STRUCTURE_SMILES_Desalt>
O=C(O)C[C@H]3NC(=O)[C@@H](Cc1cncn1)NC(=O)[C@@H](Cc2ccccc2)NC(=O)[C@H](NC(=O)[C@@H](CCCN)NC(=O)[C@@H](CCCCNC(=O)[C@@H](CC(N)=O)NC3=O)NC(=O)[C@H](NC(=O)[C@H](CCC(=O)O)NC(=O)[C@H](CC(C)C)NC(=O)[C@H]4N=C(SC4)[C@H](N)[C@H](C)CC)[C@@H](C)CC)[C@H](C)CC

> <Substance_modify_yyyymmdd>
20100107

$$$$
