1405-20-5
ChemmineR-0915142007XD

 90 90  0  0  1  0  0  0  0  0  1 V2000
    6.7436   -4.5508    0.0000 N   0  0  0  0  0  0  0  0  0  0  0  0
    5.6118   -3.8905    0.0000 C   0  0  0  0  0  0  0  0  0  0  0  0
    4.4800   -4.5508    0.0000 C   0  0  0  0  0  0  0  0  0  0  0  0
    4.4800   -5.8476    0.0000 N   0  0  0  0  0  0  0  0  0  0  0  0
    9.1723   -3.4425    0.0000 C   0  0  0  0  0  0  0  0  0  0  0  0
   10.3040   -4.1028    0.0000 C   0  0  0  0  0  0  0  0  0  0  0  0
   11.4123   -3.4425    0.0000 N   0  0  0  0  0  0  0  0  0  0  0  0
   12.5205   -4.1028    0.0000 C   0  0  0  0  0  0  0  0  0  0  0  0
   12.5205   -5.3996    0.0000 C   0  0  0  0  0  0  0  0  0  0  0  0
    4.4800   -8.4413    0.0000 N   0  0  0  0  0  0  0  0  0  0  0  0
    3.3482   -6.4842    0.0000 C   0  0  0  0  0  0  0  0  0  0  0  0
    3.3482   -7.7811    0.0000 C   0  0  0  0  0  0  0  0  0  0  0  0
   12.5205   -7.9697    0.0000 C   0  0  0  0  0  0  0  0  0  0  0  0
   13.6523   -6.0362    0.0000 N   0  0  0  0  0  0  0  0  0  0  0  0
   13.6523   -7.3331    0.0000 C   0  0  0  0  0  0  0  0  0  0  0  0
    5.6118   -2.5937    0.0000 O   0  0  0  0  0  0  0  0  0  0  0  0
   10.3040   -5.3996    0.0000 O   0  0  0  0  0  0  0  0  0  0  0  0
    3.3482   -3.8905    0.0000 C   0  0  0  0  0  0  0  0  0  0  0  0
    3.3482   -2.5937    0.0000 C   0  0  0  0  0  0  0  0  0  0  0  0
    2.2400   -1.9571    0.0000 C   0  0  0  0  0  0  0  0  0  0  0  0
    4.4800   -1.9571    0.0000 C   0  0  0  0  0  0  0  0  0  0  0  0
    2.2400   -0.6602    0.0000 C   0  0  0  0  0  0  0  0  0  0  0  0
    4.4800   -0.6602    0.0000 C   0  0  0  0  0  0  0  0  0  0  0  0
    3.3482    0.0000    0.0000 C   0  0  0  0  0  0  0  0  0  0  0  0
    9.1723   -2.1457    0.0000 C   0  0  0  0  0  0  0  0  0  0  0  0
   10.3040   -1.5091    0.0000 C   0  0  0  0  0  0  0  0  0  0  0  0
   10.3040   -0.2122    0.0000 C   0  0  0  0  0  0  0  0  0  0  0  0
   11.4123   -2.1457    0.0000 C   0  0  0  0  0  0  0  0  0  0  0  0
    6.7436   -9.7382    0.0000 C   0  0  0  0  0  0  0  0  0  0  0  0
    4.4800   -9.7382    0.0000 C   0  0  0  0  0  0  0  0  0  0  0  0
    5.6118  -10.3748    0.0000 C   0  0  0  0  0  0  0  0  0  0  0  0
    8.8893   -9.2901    0.0000 N   0  0  0  0  0  0  0  0  0  0  0  0
   10.3040   -8.9600    0.0000 C   0  0  0  0  0  0  0  0  0  0  0  0
   11.4123   -9.9268    0.0000 C   0  0  0  0  0  0  0  0  0  0  0  0
   12.5205   -9.2901    0.0000 N   0  0  0  0  0  0  0  0  0  0  0  0
    2.2400   -5.8476    0.0000 O   0  0  0  0  0  0  0  0  0  0  0  0
    2.2400   -8.4413    0.0000 C   0  0  0  0  0  0  0  0  0  0  0  0
    1.1082   -7.7811    0.0000 C   0  0  0  0  0  0  0  0  0  0  0  0
    0.0000   -8.4413    0.0000 N   0  0  0  0  0  0  0  0  0  0  0  0
    3.3482  -10.3748    0.0000 O   0  0  0  0  0  0  0  0  0  0  0  0
   13.6523   -3.4425    0.0000 C   0  0  0  0  0  0  0  0  0  0  0  0
   14.7841   -4.1028    0.0000 C   0  0  0  0  0  0  0  0  0  0  0  0
   15.9159   -3.4425    0.0000 N   0  0  0  0  0  0  0  0  0  0  0  0
   11.4123   -6.0362    0.0000 O   0  0  0  0  0  0  0  0  0  0  0  0
   14.7841   -7.9697    0.0000 C   0  0  0  0  0  0  0  0  0  0  0  0
   14.7841   -9.2666    0.0000 C   0  0  0  0  0  0  0  0  0  0  0  0
   15.9159   -9.9268    0.0000 N   0  0  0  0  0  0  0  0  0  0  0  0
   11.4123   -7.3331    0.0000 O   0  0  0  0  0  0  0  0  0  0  0  0
   11.4123  -11.2236    0.0000 C   0  0  0  0  0  0  0  0  0  0  0  0
   10.3040  -11.8838    0.0000 O   0  0  0  0  0  0  0  0  0  0  0  0
   12.5205  -11.8838    0.0000 C   0  0  0  0  0  0  0  0  0  0  0  0
   10.3984   -7.8518    0.0000 O   0  0  0  0  0  0  0  0  0  0  0  0
    5.6118  -12.9921    0.0000 N   0  0  0  0  0  0  0  0  0  0  0  0
    6.7436  -13.6287    0.0000 C   0  0  0  0  0  0  0  0  0  0  0  0
    6.7436  -14.9255    0.0000 C   0  0  0  0  0  0  0  0  0  0  0  0
    7.8518  -12.9921    0.0000 O   0  0  0  0  0  0  0  0  0  0  0  0
    5.6118  -15.5858    0.0000 C   0  0  0  0  0  0  0  0  0  0  0  0
    7.8518  -15.5858    0.0000 N   0  0  0  0  0  0  0  0  0  0  0  0
    4.4800  -14.9255    0.0000 C   0  0  0  0  0  0  0  0  0  0  0  0
    3.3482  -15.5858    0.0000 N   0  0  0  0  0  0  0  0  0  0  0  0
    8.9836  -14.9491    0.0000 C   0  0  0  0  0  0  0  0  0  0  0  0
   10.0918  -15.5858    0.0000 C   0  0  0  0  0  0  0  0  0  0  0  0
    8.9836  -13.6523    0.0000 O   0  0  0  0  0  0  0  0  0  0  0  0
   10.0918  -16.8826    0.0000 C   0  0  0  0  0  0  0  0  0  0  0  0
   11.2236  -14.9491    0.0000 N   0  0  0  0  0  0  0  0  0  0  0  0
   12.3554  -15.5858    0.0000 C   0  0  0  0  0  0  0  0  0  0  0  0
    8.9836  -17.5428    0.0000 O   0  0  0  0  0  0  0  0  0  0  0  0
   13.4636  -14.9491    0.0000 C   0  0  0  0  0  0  0  0  0  0  0  0
   14.5954  -15.5858    0.0000 N   0  0  0  0  0  0  0  0  0  0  0  0
   15.7272  -14.9491    0.0000 C   0  0  0  0  0  0  0  0  0  0  0  0
   16.8354  -15.5858    0.0000 C   0  0  0  0  0  0  0  0  0  0  0  0
   17.9672  -14.9491    0.0000 C   0  0  0  0  0  0  0  0  0  0  0  0
    7.8518  -10.3748    0.0000 C   0  0  0  0  0  0  0  0  0  0  0  0
   12.3554  -16.8826    0.0000 O   0  0  0  0  0  0  0  0  0  0  0  0
   13.4636  -13.6523    0.0000 C   0  0  0  0  0  0  0  0  0  0  0  0
   14.5954  -12.9921    0.0000 C   0  0  0  0  0  0  0  0  0  0  0  0
   14.5954  -11.6952    0.0000 N   0  0  0  0  0  0  0  0  0  0  0  0
   15.7272  -13.6523    0.0000 O   0  0  0  0  0  0  0  0  0  0  0  0
   19.0755  -15.5858    0.0000 C   0  0  0  0  0  0  0  0  0  0  0  0
   20.2073  -14.9491    0.0000 C   0  0  0  0  0  0  0  0  0  0  0  0
   21.3390  -15.5858    0.0000 C   0  0  0  0  0  0  0  0  0  0  0  0
   22.4473  -14.9491    0.0000 C   0  0  0  0  0  0  0  0  0  0  0  0
   23.5791  -15.5858    0.0000 C   0  0  0  0  0  0  0  0  0  0  0  0
   21.3390  -16.8826    0.0000 C   0  0  0  0  0  0  0  0  0  0  0  0
   11.2236  -17.5428    0.0000 C   0  0  0  0  0  0  0  0  0  0  0  0
   18.9576  -12.9213    0.0000 O   0  0  0  0  0  0  0  0  0  0  0  0
   18.9576  -11.6245    0.0000 S   0  0  0  0  0  0  0  0  0  0  0  0
   17.6607  -11.6245    0.0000 O   0  0  0  0  0  0  0  0  0  0  0  0
   18.9576  -10.3276    0.0000 O   0  0  0  0  0  0  0  0  0  0  0  0
   20.2308  -11.6245    0.0000 O   0  0  0  0  0  0  0  0  0  0  0  0
  1  2  1  0  0  0  0
  1  5  1  0  0  0  0
  2  3  1  0  0  0  0
  2 16  2  0  0  0  0
  3  4  1  0  0  0  0
  3 18  1  6  0  0  0
  4 11  1  0  0  0  0
  5  6  1  0  0  0  0
  5 25  1  6  0  0  0
  6  7  1  0  0  0  0
  6 17  2  0  0  0  0
  7  8  1  0  0  0  0
  8  9  1  0  0  0  0
  8 41  1  6  0  0  0
  9 14  1  0  0  0  0
  9 44  2  0  0  0  0
 10 12  1  0  0  0  0
 10 30  1  0  0  0  0
 11 12  1  0  0  0  0
 11 36  2  0  0  0  0
 12 37  1  6  0  0  0
 13 15  1  0  0  0  0
 13 35  1  0  0  0  0
 13 48  2  0  0  0  0
 14 15  1  0  0  0  0
 15 45  1  6  0  0  0
 18 19  1  0  0  0  0
 19 20  1  0  0  0  0
 19 21  2  0  0  0  0
 20 22  2  0  0  0  0
 21 23  1  0  0  0  0
 22 24  1  0  0  0  0
 23 24  2  0  0  0  0
 25 26  1  0  0  0  0
 26 27  1  0  0  0  0
 26 28  1  0  0  0  0
 29 31  1  0  0  0  0
 29 73  1  0  0  0  0
 30 31  1  0  0  0  0
 30 40  2  0  0  0  0
 31 53  1  1  0  0  0
 32 33  1  0  0  0  0
 32 73  1  0  0  0  0
 33 34  1  0  0  0  0
 33 52  2  0  0  0  0
 34 35  1  0  0  0  0
 34 49  1  0  0  0  0
 37 38  1  0  0  0  0
 38 39  1  0  0  0  0
 41 42  1  0  0  0  0
 42 43  1  0  0  0  0
 45 46  1  0  0  0  0
 46 47  1  0  0  0  0
 49 50  1  1  0  0  0
 49 51  1  0  0  0  0
 53 54  1  0  0  0  0
 54 55  1  0  0  0  0
 54 56  2  0  0  0  0
 55 57  1  6  0  0  0
 55 58  1  0  0  0  0
 57 59  1  0  0  0  0
 58 61  1  0  0  0  0
 59 60  1  0  0  0  0
 62 61  1  6  0  0  0
 61 63  2  0  0  0  0
 62 64  1  0  0  0  0
 62 65  1  0  0  0  0
 64 67  1  1  0  0  0
 64 85  1  0  0  0  0
 65 66  1  0  0  0  0
 66 68  1  0  0  0  0
 66 74  2  0  0  0  0
 68 69  1  0  0  0  0
 68 75  1  1  0  0  0
 69 70  1  0  0  0  0
 70 71  1  0  0  0  0
 70 78  2  0  0  0  0
 71 72  1  0  0  0  0
 72 79  1  0  0  0  0
 75 76  1  0  0  0  0
 76 77  1  0  0  0  0
 79 80  1  0  0  0  0
 80 81  1  0  0  0  0
 81 82  1  0  0  0  0
 81 84  1  1  0  0  0
 82 83  1  0  0  0  0
 86 87  1  0  0  0  0
 87 88  1  0  0  0  0
 87 89  2  0  0  0  0
 87 90  2  0  0  0  0
M  END
> <ID>
11233

> <Formula>
C56H100N16O17S

> <FW>
1301.5552 (1203.4767+98.0785)

> <DSSTox_CID>
25839

> <DSSTox_RID>
81165

> <DSSTox_GSID>
45839

> <DSSTox_FileID_Sort>
5846

> <TS_ChemName>
Polymycin B sulfate

> <TS_ChemName_Synonyms>


> <TS_CASRN>
1405-20-5

> <CASRN_ChemName_Relationship>
primary

> <TS_Description>
polymer

> <ChemNote>
stereochem; mixture of polymyxin B1 and B2; structure shown B1; parent [1404-26-8]

> <STRUCTURE_Shown>
monomer of polymer

> <STRUCTURE_Formula>
C56H100N16O17S

> <STRUCTURE_MW>
1301.5552

> <STRUCTURE_ChemType>
defined organic

> <STRUCTURE_DefinedOrganicForm>
complex

> <STRUCTURE_IUPAC>
(6R)-N-[(2R)-4-amino-1-{[(2R,3R)-1-{[(2R)-4-amino-1-oxo-1-{[(6R,9R,12R,15R,18R,21R)-6,9,18-tris(2-aminoethyl)-15-benzyl-3-[(1R)-1-hydroxyethyl]-12-(2-methylpropyl)-2,5,8,11,14,17,20-heptaoxo-1,4,7,10,13,16,19-heptaazacyclotricosan-21-yl]amino}butan-2-yl]a

> <STRUCTURE_SMILES>
O=S(=O)(O)O.C[C@H](CC)CCCCC(=O)N[C@H](CCN)C(=O)N[C@H]([C@@H](C)O)C(=O)N[C@H](CCN)C(=O)N[C@@H]2CCNC(=O)C(NC(=O)[C@@H](CCN)NC(=O)[C@@H](CCN)NC(=O)[C@@H](CC(C)C)NC(=O)[C@@H](Cc1ccccc1)NC(=O)[C@H](NC2=O)CCN)[C@@H](C)O

> <STRUCTURE_SMILES_Desalt>
C[C@H](CC)CCCCC(=O)N[C@H](CCN)C(=O)N[C@H]([C@@H](C)O)C(=O)N[C@H](CCN)C(=O)N[C@@H]2CCNC(=O)C(NC(=O)[C@@H](CCN)NC(=O)[C@@H](CCN)NC(=O)[C@@H](CC(C)C)NC(=O)[C@@H](Cc1ccccc1)NC(=O)[C@H](NC2=O)CCN)[C@@H](C)O

> <Substance_modify_yyyymmdd>
20110922

$$$$
