14062-23-8
ChemmineR-0915142007XD

 18 19  0  0  0  0  0  0  0  0  1 V2000
    0.0000   -4.6452    0.0000 C   0  0  0  0  0  0  0  0  0  0  0  0
    1.1526   -3.9882    0.0000 C   0  0  0  0  0  0  0  0  0  0  0  0
    2.3053   -4.6452    0.0000 O   0  0  0  0  0  0  0  0  0  0  0  0
    3.4579   -3.9882    0.0000 C   0  0  0  0  0  0  0  0  0  0  0  0
    3.4579   -2.6626    0.0000 O   0  0  0  0  0  0  0  0  0  0  0  0
    4.6221   -4.6452    0.0000 C   0  0  0  0  0  0  0  0  0  0  0  0
    5.7517   -3.9882    0.0000 C   0  0  0  0  0  0  0  0  0  0  0  0
    5.7517   -2.6626    0.0000 C   0  0  0  0  0  0  0  0  0  0  0  0
    6.9044   -1.9826    0.0000 C   0  0  0  0  0  0  0  0  0  0  0  0
    8.0685   -2.6626    0.0000 C   0  0  0  0  0  0  0  0  0  0  0  0
    8.0685   -3.9882    0.0000 C   0  0  0  0  0  0  0  0  0  0  0  0
    6.9044   -4.6452    0.0000 C   0  0  0  0  0  0  0  0  0  0  0  0
    9.2212   -1.9826    0.0000 C   0  0  0  0  0  0  0  0  0  0  0  0
    9.2212   -0.6570    0.0000 C   0  0  0  0  0  0  0  0  0  0  0  0
   10.3738    0.0000    0.0000 C   0  0  0  0  0  0  0  0  0  0  0  0
   11.5265   -0.6570    0.0000 C   0  0  0  0  0  0  0  0  0  0  0  0
   11.5265   -1.9826    0.0000 C   0  0  0  0  0  0  0  0  0  0  0  0
   10.3738   -2.6626    0.0000 C   0  0  0  0  0  0  0  0  0  0  0  0
  1  2  1  0  0  0  0
  2  3  1  0  0  0  0
  3  4  1  0  0  0  0
  4  5  2  0  0  0  0
  4  6  1  0  0  0  0
  6  7  1  0  0  0  0
  7  8  2  0  0  0  0
  7 12  1  0  0  0  0
  8  9  1  0  0  0  0
  9 10  2  0  0  0  0
 10 11  1  0  0  0  0
 10 13  1  0  0  0  0
 11 12  2  0  0  0  0
 13 14  2  0  0  0  0
 13 18  1  0  0  0  0
 14 15  1  0  0  0  0
 15 16  2  0  0  0  0
 16 17  1  0  0  0  0
 17 18  2  0  0  0  0
M  END
> <ID>
11459

> <Formula>
C16H16O2

> <FW>
240.297

> <DSSTox_CID>
26160

> <DSSTox_RID>
81391

> <DSSTox_GSID>
46160

> <DSSTox_FileID_Sort>
6072

> <TS_ChemName>
Felbinac ethyl

> <TS_ChemName_Synonyms>


> <TS_CASRN>
14062-23-8

> <CASRN_ChemName_Relationship>
primary

> <TS_Description>
single chemical compound

> <ChemNote>


> <STRUCTURE_Shown>
tested chemical

> <STRUCTURE_Formula>
C16H16O2

> <STRUCTURE_MW>
240.297

> <STRUCTURE_ChemType>
defined organic

> <STRUCTURE_DefinedOrganicForm>
parent

> <STRUCTURE_IUPAC>
ethyl biphenyl-4-ylacetate

> <STRUCTURE_SMILES>
O=C(OCC)Cc1ccc(cc1)c2ccccc2

> <STRUCTURE_SMILES_Desalt>
O=C(OCC)Cc1ccc(cc1)c2ccccc2

> <Substance_modify_yyyymmdd>
20110818

$$$$
