14075-53-7
ChemmineR-0915142007XD

  6  4  0  0  0  0  0  0  0  0  2 V2000
    1.3282   -1.6727    0.0000 B   0  5  0  0  0  0  0  0  0  0  0  0
    0.0000   -1.6727    0.0000 F   0  0  0  0  0  0  0  0  0  0  0  0
    1.3282   -0.3409    0.0000 F   0  0  0  0  0  0  0  0  0  0  0  0
    1.3282   -3.0009    0.0000 F   0  0  0  0  0  0  0  0  0  0  0  0
    2.6600   -1.6727    0.0000 F   0  0  0  0  0  0  0  0  0  0  0  0
    3.5514    0.0000    0.0000 K   0  3  0  0  0  0  0  0  0  0  0  0
  1  2  1  0  0  0  0
  1  3  1  0  0  0  0
  1  4  1  0  0  0  0
  1  5  1  0  0  0  0
M  END
> <ID>
7234

> <Formula>
BF4K

> <FW>
125.9029 (86.8052+39.0978)

> <DSSTox_CID>
17015

> <DSSTox_RID>
79295

> <DSSTox_GSID>
37015

> <DSSTox_FileID_Sort>
3977

> <TS_ChemName>
Potassium tetrafluoroborate

> <TS_ChemName_Synonyms>


> <TS_CASRN>
14075-53-7

> <CASRN_ChemName_Relationship>
primary

> <TS_Description>
single chemical compound

> <ChemNote>


> <STRUCTURE_Shown>
tested chemical

> <STRUCTURE_Formula>
BF4K

> <STRUCTURE_MW>
125.9029

> <STRUCTURE_ChemType>
inorganic

> <STRUCTURE_DefinedOrganicForm>


> <STRUCTURE_IUPAC>
potassium tetrafluoroborate

> <STRUCTURE_SMILES>
[K+].F[B-](F)(F)F

> <STRUCTURE_SMILES_Desalt>
F[B-](F)(F)F

> <Substance_modify_yyyymmdd>
20080429

$$$$
