140923-17-7
ChemmineR-0915142007XD

 23 23  0  0  1  0  0  0  0  0  1 V2000
   10.3244   -1.9849    0.0000 C   0  0  0  0  0  0  0  0  0  0  0  0
   10.3244   -0.6479    0.0000 O   0  0  0  0  0  0  0  0  0  0  0  0
   11.4823   -2.6604    0.0000 O   0  0  0  0  0  0  0  0  0  0  0  0
    9.1941   -2.6604    0.0000 N   0  0  0  0  0  0  0  0  0  0  0  0
    8.0362   -1.9849    0.0000 C   0  0  0  0  0  0  0  0  0  0  0  0
    8.0362   -0.6754    0.0000 C   0  0  0  0  0  0  0  0  0  0  0  0
    6.8783    0.0000    0.0000 C   0  0  0  0  0  0  0  0  0  0  0  0
    9.1941    0.0000    0.0000 C   0  0  0  0  0  0  0  0  0  0  0  0
    6.9059   -2.6328    0.0000 C   0  0  0  0  0  0  0  0  0  0  0  0
    6.9059   -3.9699    0.0000 O   0  0  0  0  0  0  0  0  0  0  0  0
    5.7618   -1.9849    0.0000 N   0  0  0  0  0  0  0  0  0  0  0  0
    4.6039   -2.6604    0.0000 C   0  0  0  0  0  0  0  0  0  0  0  0
    4.6039   -3.9836    0.0000 C   0  0  0  0  0  0  0  0  0  0  0  0
    3.4598   -1.9849    0.0000 C   0  0  0  0  0  0  0  0  0  0  0  0
    2.3020   -2.6604    0.0000 C   0  0  0  0  0  0  0  0  0  0  0  0
    3.4598   -0.6479    0.0000 C   0  0  0  0  0  0  0  0  0  0  0  0
    1.1579   -1.9849    0.0000 C   0  0  0  0  0  0  0  0  0  0  0  0
    2.3020    0.0000    0.0000 C   0  0  0  0  0  0  0  0  0  0  0  0
    1.1579   -0.6479    0.0000 C   0  0  0  0  0  0  0  0  0  0  0  0
    0.0000    0.0000    0.0000 C   0  0  0  0  0  0  0  0  0  0  0  0
   12.6264   -1.9849    0.0000 C   0  0  0  0  0  0  0  0  0  0  0  0
   12.6264   -0.6479    0.0000 C   0  0  0  0  0  0  0  0  0  0  0  0
   13.7842   -2.6604    0.0000 C   0  0  0  0  0  0  0  0  0  0  0  0
  1  2  2  0  0  0  0
  1  3  1  0  0  0  0
  1  4  1  0  0  0  0
  3 21  1  0  0  0  0
  4  5  1  0  0  0  0
  5  6  1  6  0  0  0
  5  9  1  0  0  0  0
  6  7  1  0  0  0  0
  6  8  1  0  0  0  0
  9 10  2  0  0  0  0
  9 11  1  0  0  0  0
 11 12  1  0  0  0  0
 12 13  1  0  0  0  0
 12 14  1  0  0  0  0
 14 15  2  0  0  0  0
 14 16  1  0  0  0  0
 15 17  1  0  0  0  0
 16 18  2  0  0  0  0
 17 19  2  0  0  0  0
 18 19  1  0  0  0  0
 19 20  1  0  0  0  0
 21 22  1  0  0  0  0
 21 23  1  0  0  0  0
M  END
> <ID>
12783

> <Formula>
C18H28N2O3

> <FW>
320.4265

> <DSSTox_CID>
27662

> <DSSTox_RID>
82485

> <DSSTox_GSID>
47662

> <DSSTox_FileID_Sort>
7166

> <TS_ChemName>
Iprovalicarb

> <TS_ChemName_Synonyms>


> <TS_CASRN>
140923-17-7

> <CASRN_ChemName_Relationship>
primary

> <TS_Description>
single chemical compound

> <ChemNote>
stereochem

> <STRUCTURE_Shown>
tested chemical

> <STRUCTURE_Formula>
C18H28N2O3

> <STRUCTURE_MW>
320.4265

> <STRUCTURE_ChemType>
defined organic

> <STRUCTURE_DefinedOrganicForm>
parent

> <STRUCTURE_IUPAC>
propan-2-yl [(2S)-3-methyl-1-{[1-(4-methylphenyl)ethyl]amino}-1-oxobutan-2-yl]carbamate

> <STRUCTURE_SMILES>
CC(C)[C@H](NC(=O)OC(C)C)C(=O)NC(C)c1ccc(C)cc1

> <STRUCTURE_SMILES_Desalt>
CC(C)[C@H](NC(=O)OC(C)C)C(=O)NC(C)c1ccc(C)cc1

> <Substance_modify_yyyymmdd>
20101214

$$$$
