141-22-0
ChemmineR-0915142007XD

 21 20  0  0  1  0  0  0  0  0  1 V2000
    1.1536   -1.3727    0.0000 C   0  0  0  0  0  0  0  0  0  0  0  0
    2.2956   -2.0187    0.0000 C   0  0  0  0  0  0  0  0  0  0  0  0
    3.4145   -1.3727    0.0000 C   0  0  0  0  0  0  0  0  0  0  0  0
    4.6257   -2.0187    0.0000 C   0  0  0  0  0  0  0  0  0  0  0  0
    5.7793   -1.3727    0.0000 C   0  0  0  0  0  0  0  0  0  0  0  0
    6.9213   -2.0187    0.0000 C   0  0  0  0  0  0  0  0  0  0  0  0
    8.0749   -1.3727    0.0000 C   0  0  0  0  0  0  0  0  0  0  0  0
    9.2400   -2.0187    0.0000 C   0  0  0  0  0  0  0  0  0  0  0  0
   10.3820   -1.3727    0.0000 C   0  0  0  0  0  0  0  0  0  0  0  0
   11.5355   -2.0187    0.0000 C   0  0  0  0  0  0  0  0  0  0  0  0
   11.5355   -3.3568    0.0000 C   0  0  0  0  0  0  0  0  0  0  0  0
   10.3820   -4.0605    0.0000 C   0  0  0  0  0  0  0  0  0  0  0  0
   10.3820   -5.3756    0.0000 C   0  0  0  0  0  0  0  0  0  0  0  0
    9.2400   -6.0215    0.0000 C   0  0  0  0  0  0  0  0  0  0  0  0
    9.2400   -7.3827    0.0000 C   0  0  0  0  0  0  0  0  0  0  0  0
    8.0749   -8.0864    0.0000 C   0  0  0  0  0  0  0  0  0  0  0  0
    8.0749   -9.3784    0.0000 C   0  0  0  0  0  0  0  0  0  0  0  0
    6.9213  -10.0474    0.0000 C   0  0  0  0  0  0  0  0  0  0  0  0
    1.1536    0.0000    0.0000 O   0  0  0  0  0  0  0  0  0  0  0  0
    0.0000   -2.0187    0.0000 O   0  0  0  0  0  0  0  0  0  0  0  0
    9.2400   -3.3568    0.0000 O   0  0  0  0  0  0  0  0  0  0  0  0
  1  2  1  0  0  0  0
  1 20  1  0  0  0  0
  1 19  2  0  0  0  0
  2  3  1  0  0  0  0
  3  4  1  0  0  0  0
  4  5  1  0  0  0  0
  5  6  1  0  0  0  0
  6  7  1  0  0  0  0
  7  8  1  0  0  0  0
  8  9  1  0  0  0  0
  9 10  2  0  0  0  0
 10 11  1  0  0  0  0
 11 12  1  0  0  0  0
 12 13  1  0  0  0  0
 12 21  1  1  0  0  0
 13 14  1  0  0  0  0
 14 15  1  0  0  0  0
 15 16  1  0  0  0  0
 16 17  1  0  0  0  0
 17 18  1  0  0  0  0
M  END
> <ID>
8532

> <Formula>
C18H34O3

> <FW>
298.4608

> <DSSTox_CID>
21567

> <DSSTox_RID>
79777

> <DSSTox_GSID>
41567

> <DSSTox_FileID_Sort>
4459

> <TS_ChemName>
9-Octadecenoic acid, 12-hydroxy-, (9Z,12R)-

> <TS_ChemName_Synonyms>
9-Octadecenoic acid, 12-hydroxy-, (9Z,12R)- (Ricinoleic acid)

> <TS_CASRN>
141-22-0

> <CASRN_ChemName_Relationship>
primary

> <TS_Description>
single chemical compound

> <ChemNote>
stereochem

> <STRUCTURE_Shown>
tested chemical

> <STRUCTURE_Formula>
C18H34O3

> <STRUCTURE_MW>
298.4608

> <STRUCTURE_ChemType>
defined organic

> <STRUCTURE_DefinedOrganicForm>
parent

> <STRUCTURE_IUPAC>
(9Z,12R)-12-hydroxyoctadec-9-enoic acid

> <STRUCTURE_SMILES>
CCCCCC[C@@H](O)C/C=C\CCCCCCCC(=O)O

> <STRUCTURE_SMILES_Desalt>
CCCCCC[C@@H](O)C/C=C\CCCCCCCC(=O)O

> <Substance_modify_yyyymmdd>
20080825

$$$$
