141-92-4
ChemmineR-0915142007XD

 15 14  0  0  0  0  0  0  0  0  1 V2000
    0.4879   -3.1244    0.0000 C   0  0  0  0  0  0  0  0  0  0  0  0
    1.1418   -1.9930    0.0000 C   0  0  0  0  0  0  0  0  0  0  0  0
    2.3044   -2.6573    0.0000 C   0  0  0  0  0  0  0  0  0  0  0  0
    3.4669   -1.9930    0.0000 C   0  0  0  0  0  0  0  0  0  0  0  0
    4.6087   -2.6573    0.0000 C   0  0  0  0  0  0  0  0  0  0  0  0
    5.7713   -1.9930    0.0000 C   0  0  0  0  0  0  0  0  0  0  0  0
    6.9131   -2.6573    0.0000 C   0  0  0  0  0  0  0  0  0  0  0  0
    8.0757   -1.9930    0.0000 C   0  0  0  0  0  0  0  0  0  0  0  0
    9.2175   -2.6573    0.0000 O   0  0  0  0  0  0  0  0  0  0  0  0
    8.0757   -0.6539    0.0000 O   0  0  0  0  0  0  0  0  0  0  0  0
    5.7713   -0.6539    0.0000 C   0  0  0  0  0  0  0  0  0  0  0  0
    1.8165   -0.8408    0.0000 C   0  0  0  0  0  0  0  0  0  0  0  0
    0.0000   -1.3183    0.0000 O   0  0  0  0  0  0  0  0  0  0  0  0
    9.2175    0.0000    0.0000 C   0  0  0  0  0  0  0  0  0  0  0  0
   10.3800   -1.9930    0.0000 C   0  0  0  0  0  0  0  0  0  0  0  0
  1  2  1  0  0  0  0
  2  3  1  0  0  0  0
  2 12  1  0  0  0  0
  2 13  1  0  0  0  0
  3  4  1  0  0  0  0
  4  5  1  0  0  0  0
  5  6  1  0  0  0  0
  6  7  1  0  0  0  0
  6 11  1  0  0  0  0
  7  8  1  0  0  0  0
  8  9  1  0  0  0  0
  8 10  1  0  0  0  0
  9 15  1  0  0  0  0
 10 14  1  0  0  0  0
M  END
> <ID>
12671

> <Formula>
C12H26O3

> <FW>
218.333

> <DSSTox_CID>
27547

> <DSSTox_RID>
82410

> <DSSTox_GSID>
47547

> <DSSTox_FileID_Sort>
7091

> <TS_ChemName>
Hydroxycitronellal dimethyl acetal

> <TS_ChemName_Synonyms>


> <TS_CASRN>
141-92-4

> <CASRN_ChemName_Relationship>
primary

> <TS_Description>
single chemical compound

> <ChemNote>


> <STRUCTURE_Shown>
tested chemical

> <STRUCTURE_Formula>
C12H26O3

> <STRUCTURE_MW>
218.333

> <STRUCTURE_ChemType>
defined organic

> <STRUCTURE_DefinedOrganicForm>
parent

> <STRUCTURE_IUPAC>
8,8-dimethoxy-2,6-dimethyloctan-2-ol

> <STRUCTURE_SMILES>
COC(CC(C)CCCC(C)(C)O)OC

> <STRUCTURE_SMILES_Desalt>
COC(CC(C)CCCC(C)(C)O)OC

> <Substance_modify_yyyymmdd>
20100921

$$$$
