141-24-2
ChemmineR-0915142007XD

 22 21  0  0  1  0  0  0  0  0  1 V2000
    2.3070   -1.3563    0.0000 C   0  0  0  0  0  0  0  0  0  0  0  0
    3.4986   -2.0028    0.0000 C   0  0  0  0  0  0  0  0  0  0  0  0
    4.6394   -1.3563    0.0000 C   0  0  0  0  0  0  0  0  0  0  0  0
    5.7803   -2.0028    0.0000 C   0  0  0  0  0  0  0  0  0  0  0  0
    6.9465   -1.3563    0.0000 C   0  0  0  0  0  0  0  0  0  0  0  0
    8.0873   -2.0028    0.0000 C   0  0  0  0  0  0  0  0  0  0  0  0
    9.2282   -1.3563    0.0000 C   0  0  0  0  0  0  0  0  0  0  0  0
   10.3690   -2.0028    0.0000 C   0  0  0  0  0  0  0  0  0  0  0  0
   11.5352   -1.3563    0.0000 C   0  0  0  0  0  0  0  0  0  0  0  0
   12.6761   -2.0028    0.0000 C   0  0  0  0  0  0  0  0  0  0  0  0
   12.6761   -3.3338    0.0000 C   0  0  0  0  0  0  0  0  0  0  0  0
   11.5352   -3.9930    0.0000 C   0  0  0  0  0  0  0  0  0  0  0  0
   11.5352   -5.3366    0.0000 C   0  0  0  0  0  0  0  0  0  0  0  0
   10.3690   -5.9831    0.0000 C   0  0  0  0  0  0  0  0  0  0  0  0
   10.3690   -7.3394    0.0000 C   0  0  0  0  0  0  0  0  0  0  0  0
    9.2282   -7.9732    0.0000 C   0  0  0  0  0  0  0  0  0  0  0  0
    9.2282   -9.3296    0.0000 C   0  0  0  0  0  0  0  0  0  0  0  0
    8.0366   -9.9761    0.0000 C   0  0  0  0  0  0  0  0  0  0  0  0
    2.3070    0.0000    0.0000 O   0  0  0  0  0  0  0  0  0  0  0  0
    1.1916   -2.0028    0.0000 O   0  0  0  0  0  0  0  0  0  0  0  0
   10.3690   -3.3338    0.0000 O   0  0  0  0  0  0  0  0  0  0  0  0
    0.0000   -1.3563    0.0000 C   0  0  0  0  0  0  0  0  0  0  0  0
  1  2  1  0  0  0  0
  1 20  1  0  0  0  0
  1 19  2  0  0  0  0
  2  3  1  0  0  0  0
  3  4  1  0  0  0  0
  4  5  1  0  0  0  0
  5  6  1  0  0  0  0
  6  7  1  0  0  0  0
  7  8  1  0  0  0  0
  8  9  1  0  0  0  0
  9 10  2  0  0  0  0
 10 11  1  0  0  0  0
 11 12  1  0  0  0  0
 12 13  1  0  0  0  0
 12 21  1  1  0  0  0
 13 14  1  0  0  0  0
 14 15  1  0  0  0  0
 15 16  1  0  0  0  0
 16 17  1  0  0  0  0
 17 18  1  0  0  0  0
 20 22  1  0  0  0  0
M  END
> <ID>
5828

> <Formula>
C19H36O3

> <FW>
312.4873

> <DSSTox_CID>
9169

> <DSSTox_RID>
78696

> <DSSTox_GSID>
29169

> <DSSTox_FileID_Sort>
3378

> <TS_ChemName>
Methyl ricinoleate

> <TS_ChemName_Synonyms>
Methyl ricinoleate (9-Octadecenoic acid, 12-hydroxy-, methyl ester, (9Z,12R)-)

> <TS_CASRN>
141-24-2

> <CASRN_ChemName_Relationship>
primary

> <TS_Description>
single chemical compound

> <ChemNote>
stereochem

> <STRUCTURE_Shown>
tested chemical

> <STRUCTURE_Formula>
C19H36O3

> <STRUCTURE_MW>
312.4873

> <STRUCTURE_ChemType>
defined organic

> <STRUCTURE_DefinedOrganicForm>
parent

> <STRUCTURE_IUPAC>
methyl (9Z,12R)-12-hydroxyoctadec-9-enoate

> <STRUCTURE_SMILES>
O=C(CCCCCCC/C=C\C[C@H](O)CCCCCC)OC

> <STRUCTURE_SMILES_Desalt>
O=C(CCCCCCC/C=C\C[C@H](O)CCCCCC)OC

> <Substance_modify_yyyymmdd>
20080429

$$$$
