141-19-5
ChemmineR-0915142007XD

 28 27  0  0  0  0  0  0  0  0  1 V2000
    9.1331   -1.3129    0.0000 C   0  0  0  0  0  0  0  0  0  0  0  0
   10.2748   -1.9979    0.0000 C   0  0  0  0  0  0  0  0  0  0  0  0
   11.4164   -1.3129    0.0000 C   0  0  0  0  0  0  0  0  0  0  0  0
   12.5580   -1.9979    0.0000 C   0  0  0  0  0  0  0  0  0  0  0  0
   13.6997   -1.3129    0.0000 C   0  0  0  0  0  0  0  0  0  0  0  0
   14.8413   -1.9979    0.0000 C   0  0  0  0  0  0  0  0  0  0  0  0
   15.9830   -1.3129    0.0000 C   0  0  0  0  0  0  0  0  0  0  0  0
   17.1246   -1.9979    0.0000 C   0  0  0  0  0  0  0  0  0  0  0  0
   18.2662   -1.3129    0.0000 C   0  0  0  0  0  0  0  0  0  0  0  0
   19.4079   -1.9979    0.0000 C   0  0  0  0  0  0  0  0  0  0  0  0
    9.1331    0.0000    0.0000 O   0  0  0  0  0  0  0  0  0  0  0  0
    7.9915   -1.9979    0.0000 O   0  0  0  0  0  0  0  0  0  0  0  0
   19.4079   -3.3108    0.0000 O   0  0  0  0  0  0  0  0  0  0  0  0
   20.5495   -1.3129    0.0000 O   0  0  0  0  0  0  0  0  0  0  0  0
    6.8498   -1.3129    0.0000 C   0  0  0  0  0  0  0  0  0  0  0  0
    5.7082   -1.9979    0.0000 C   0  0  0  0  0  0  0  0  0  0  0  0
    4.5666   -1.3129    0.0000 O   0  0  0  0  0  0  0  0  0  0  0  0
    3.4249   -1.9979    0.0000 C   0  0  0  0  0  0  0  0  0  0  0  0
    2.2833   -1.3129    0.0000 C   0  0  0  0  0  0  0  0  0  0  0  0
    1.1416   -1.9979    0.0000 C   0  0  0  0  0  0  0  0  0  0  0  0
    0.0000   -1.3129    0.0000 C   0  0  0  0  0  0  0  0  0  0  0  0
   21.6912   -1.9979    0.0000 C   0  0  0  0  0  0  0  0  0  0  0  0
   22.8328   -1.3129    0.0000 C   0  0  0  0  0  0  0  0  0  0  0  0
   23.9744   -1.9979    0.0000 O   0  0  0  0  0  0  0  0  0  0  0  0
   25.1161   -1.3129    0.0000 C   0  0  0  0  0  0  0  0  0  0  0  0
   26.2577   -1.9979    0.0000 C   0  0  0  0  0  0  0  0  0  0  0  0
   27.3994   -1.3129    0.0000 C   0  0  0  0  0  0  0  0  0  0  0  0
   28.5410   -1.9979    0.0000 C   0  0  0  0  0  0  0  0  0  0  0  0
  1  2  1  0  0  0  0
  1 12  1  0  0  0  0
  1 11  2  0  0  0  0
  2  3  1  0  0  0  0
  3  4  1  0  0  0  0
  4  5  1  0  0  0  0
  5  6  1  0  0  0  0
  6  7  1  0  0  0  0
  7  8  1  0  0  0  0
  8  9  1  0  0  0  0
  9 10  1  0  0  0  0
 10 14  1  0  0  0  0
 10 13  2  0  0  0  0
 12 15  1  0  0  0  0
 14 22  1  0  0  0  0
 15 16  1  0  0  0  0
 16 17  1  0  0  0  0
 17 18  1  0  0  0  0
 18 19  1  0  0  0  0
 19 20  1  0  0  0  0
 20 21  1  0  0  0  0
 22 23  1  0  0  0  0
 23 24  1  0  0  0  0
 24 25  1  0  0  0  0
 25 26  1  0  0  0  0
 26 27  1  0  0  0  0
 27 28  1  0  0  0  0
M  END
> <ID>
10452

> <Formula>
C22H42O6

> <FW>
402.5653

> <DSSTox_CID>
24802

> <DSSTox_RID>
80487

> <DSSTox_GSID>
44802

> <DSSTox_FileID_Sort>
5169

> <TS_ChemName>
Bis(2-butoxyethyl) decanedioate

> <TS_ChemName_Synonyms>
Bis(2-butoxyethyl) decanedioate (Decanedioic acid, bis(2-butoxyethyl) ester)

> <TS_CASRN>
141-19-5

> <CASRN_ChemName_Relationship>
primary

> <TS_Description>
single chemical compound

> <ChemNote>


> <STRUCTURE_Shown>
tested chemical

> <STRUCTURE_Formula>
C22H42O6

> <STRUCTURE_MW>
402.5653

> <STRUCTURE_ChemType>
defined organic

> <STRUCTURE_DefinedOrganicForm>
parent

> <STRUCTURE_IUPAC>
bis(2-butoxyethyl) decanedioate

> <STRUCTURE_SMILES>
O=C(OCCOCCCC)CCCCCCCCC(=O)OCCOCCCC

> <STRUCTURE_SMILES_Desalt>
O=C(OCCOCCCC)CCCCCCCCC(=O)OCCOCCCC

> <Substance_modify_yyyymmdd>
20091116

$$$$
