141-86-6
ChemmineR-0915142007XD

  8  8  0  0  0  0  0  0  0  0  1 V2000
    2.3040   -2.6588    0.0000 N   0  0  0  0  0  0  0  0  0  0  0  0
    1.1520   -1.9953    0.0000 C   0  0  0  0  0  0  0  0  0  0  0  0
    3.4560   -1.9953    0.0000 C   0  0  0  0  0  0  0  0  0  0  0  0
    3.4560   -0.6635    0.0000 C   0  0  0  0  0  0  0  0  0  0  0  0
    1.1520   -0.6635    0.0000 C   0  0  0  0  0  0  0  0  0  0  0  0
    2.3040    0.0000    0.0000 C   0  0  0  0  0  0  0  0  0  0  0  0
    4.6080   -2.6588    0.0000 N   0  0  0  0  0  0  0  0  0  0  0  0
    0.0000   -2.6588    0.0000 N   0  0  0  0  0  0  0  0  0  0  0  0
  1  2  2  0  0  0  0
  1  3  1  0  0  0  0
  2  5  1  0  0  0  0
  2  8  1  0  0  0  0
  3  4  2  0  0  0  0
  3  7  1  0  0  0  0
  4  6  1  0  0  0  0
  5  6  2  0  0  0  0
M  END
> <ID>
7580

> <Formula>
C5H7N3

> <FW>
109.1292

> <DSSTox_CID>
20127

> <DSSTox_RID>
79444

> <DSSTox_GSID>
40127

> <DSSTox_FileID_Sort>
4126

> <TS_ChemName>
2,6-Diaminopyridine

> <TS_ChemName_Synonyms>


> <TS_CASRN>
141-86-6

> <CASRN_ChemName_Relationship>
primary

> <TS_Description>
single chemical compound

> <ChemNote>


> <STRUCTURE_Shown>
tested chemical

> <STRUCTURE_Formula>
C5H7N3

> <STRUCTURE_MW>
109.1292

> <STRUCTURE_ChemType>
defined organic

> <STRUCTURE_DefinedOrganicForm>
parent

> <STRUCTURE_IUPAC>
pyridine-2,6-diamine

> <STRUCTURE_SMILES>
Nc1cccc(N)n1

> <STRUCTURE_SMILES_Desalt>
Nc1cccc(N)n1

> <Substance_modify_yyyymmdd>
20080429

$$$$
