141-12-8
ChemmineR-0915142007XD

 15 14  0  0  0  0  0  0  0  0  1 V2000
    8.6515   -3.4626    0.0000 C   0  0  0  0  0  0  0  0  0  0  0  0
    7.9829   -4.6102    0.0000 O   0  0  0  0  0  0  0  0  0  0  0  0
    4.6501   -1.1575    0.0000 C   0  0  0  0  0  0  0  0  0  0  0  0
    0.6686   -3.4626    0.0000 C   0  0  0  0  0  0  0  0  0  0  0  0
    5.9772   -1.1575    0.0000 C   0  0  0  0  0  0  0  0  0  0  0  0
    1.9957   -3.4626    0.0000 C   0  0  0  0  0  0  0  0  0  0  0  0
    7.9829   -2.3250    0.0000 O   0  0  0  0  0  0  0  0  0  0  0  0
    6.6558   -2.3250    0.0000 C   0  0  0  0  0  0  0  0  0  0  0  0
    2.6543   -2.3250    0.0000 C   0  0  0  0  0  0  0  0  0  0  0  0
    4.0015   -2.3250    0.0000 C   0  0  0  0  0  0  0  0  0  0  0  0
    9.9787   -3.4626    0.0000 C   0  0  0  0  0  0  0  0  0  0  0  0
    0.0000   -4.6102    0.0000 C   0  0  0  0  0  0  0  0  0  0  0  0
    0.0000   -2.3250    0.0000 C   0  0  0  0  0  0  0  0  0  0  0  0
    4.0015    0.0000    0.0000 C   0  0  0  0  0  0  0  0  0  0  0  0
    6.6558    0.0000    0.0000 H   0  0  0  0  0  0  0  0  0  0  0  0
  1  2  2  0  0  0  0
  1  7  1  0  0  0  0
  1 11  1  0  0  0  0
  3  5  2  0  0  0  0
  3 10  1  0  0  0  0
  3 14  1  0  0  0  0
  4  6  2  0  0  0  0
  4 12  1  0  0  0  0
  4 13  1  0  0  0  0
  5  8  1  0  0  0  0
  5 15  1  0  0  0  0
  6  9  1  0  0  0  0
  7  8  1  0  0  0  0
  9 10  1  0  0  0  0
M  END
> <ID>
12222

> <Formula>
C12H20O2

> <FW>
196.286

> <DSSTox_CID>
27068

> <DSSTox_RID>
82084

> <DSSTox_GSID>
47068

> <DSSTox_FileID_Sort>
6765

> <TS_ChemName>
cis-3,7-Dimethyl-2,6-octadien-1-yl acetate

> <TS_ChemName_Synonyms>


> <TS_CASRN>
141-12-8

> <CASRN_ChemName_Relationship>
primary

> <TS_Description>
single chemical compound

> <ChemNote>


> <STRUCTURE_Shown>
tested chemical

> <STRUCTURE_Formula>
C12H20O2

> <STRUCTURE_MW>
196.286

> <STRUCTURE_ChemType>
defined organic

> <STRUCTURE_DefinedOrganicForm>
parent

> <STRUCTURE_IUPAC>
(2Z)-3,7-dimethylocta-2,6-dien-1-yl acetate

> <STRUCTURE_SMILES>
C\C(C)=C\CCC(\C)=C/COC(C)=O

> <STRUCTURE_SMILES_Desalt>
C\C(C)=C\CCC(\C)=C/COC(C)=O

> <Substance_modify_yyyymmdd>
20100429

$$$$
