141-75-3
ChemmineR-0915142007XD

  6  5  0  0  0  0  0  0  0  0  1 V2000
    0.0000    0.0000    0.0000 C    0  0  0  0  0  0  0  0  0  0  0  0
    0.0000   -1.3307    0.0000 C    0  0  0  0  0  0  0  0  0  0  0  0
    1.1509   -1.9943    0.0000 C    0  0  0  0  0  0  0  0  0  0  0  0
    2.3053   -1.3307    0.0000 C    0  0  0  0  0  0  0  0  0  0  0  0
    3.4563   -1.9943    0.0000 Cl   0  0  0  0  0  0  0  0  0  0  0  0
    2.3053    0.0000    0.0000 O    0  0  0  0  0  0  0  0  0  0  0  0
  1  2  1  0  0  0  0
  2  3  1  0  0  0  0
  3  4  1  0  0  0  0
  4  5  1  0  0  0  0
  4  6  2  0  0  0  0
M  END
> <ID>
3822

> <Formula>
C4H7ClO

> <FW>
106.5508

> <DSSTox_CID>
4710

> <DSSTox_RID>
77508

> <DSSTox_GSID>
24710

> <DSSTox_FileID_Sort>
2191

> <TS_ChemName>
Butyryl chloride

> <TS_ChemName_Synonyms>


> <TS_CASRN>
141-75-3

> <CASRN_ChemName_Relationship>
primary

> <TS_Description>
single chemical compound

> <ChemNote>


> <STRUCTURE_Shown>
tested chemical

> <STRUCTURE_Formula>
C4H7ClO

> <STRUCTURE_MW>
106.5508

> <STRUCTURE_ChemType>
defined organic

> <STRUCTURE_DefinedOrganicForm>
parent

> <STRUCTURE_IUPAC>
butanoyl chloride

> <STRUCTURE_SMILES>
CCCC(Cl)=O

> <STRUCTURE_SMILES_Desalt>
CCCC(Cl)=O

> <Substance_modify_yyyymmdd>
20080429

$$$$
