141-82-2
ChemmineR-0915142007XD

  7  6  0  0  0  0  0  0  0  0  1 V2000
    3.4555    0.0000    0.0000 O   0  0  0  0  0  0  0  0  0  0  0  0
    3.4555   -1.3315    0.0000 C   0  0  0  0  0  0  0  0  0  0  0  0
    4.6073   -1.9950    0.0000 O   0  0  0  0  0  0  0  0  0  0  0  0
    2.3037   -1.9950    0.0000 C   0  0  0  0  0  0  0  0  0  0  0  0
    1.1518   -1.3315    0.0000 C   0  0  0  0  0  0  0  0  0  0  0  0
    0.0000   -1.9950    0.0000 O   0  0  0  0  0  0  0  0  0  0  0  0
    1.1518    0.0000    0.0000 O   0  0  0  0  0  0  0  0  0  0  0  0
  1  2  2  0  0  0  0
  2  3  1  0  0  0  0
  2  4  1  0  0  0  0
  4  5  1  0  0  0  0
  5  6  1  0  0  0  0
  5  7  2  0  0  0  0
M  END
> <ID>
1596

> <Formula>
C3H4O4

> <FW>
104.0615

> <DSSTox_CID>
1659

> <DSSTox_RID>
76271

> <DSSTox_GSID>
21659

> <DSSTox_FileID_Sort>
955

> <TS_ChemName>
Propanedioic acid

> <TS_ChemName_Synonyms>
Propanedioic acid (Malonic acid)

> <TS_CASRN>
141-82-2

> <CASRN_ChemName_Relationship>
primary

> <TS_Description>
single chemical compound

> <ChemNote>


> <STRUCTURE_Shown>
tested chemical

> <STRUCTURE_Formula>
C3H4O4

> <STRUCTURE_MW>
104.0615

> <STRUCTURE_ChemType>
defined organic

> <STRUCTURE_DefinedOrganicForm>
parent

> <STRUCTURE_IUPAC>
propanedioic acid

> <STRUCTURE_SMILES>
O=C(O)CC(=O)O

> <STRUCTURE_SMILES_Desalt>
O=C(O)CC(=O)O

> <Substance_modify_yyyymmdd>
20080429

$$$$
