141-32-2
ChemmineR-0915142007XD

  9  8  0  0  0  0  0  0  0  0  1 V2000
    1.1530    0.0000    0.0000 O   0  0  0  0  0  0  0  0  0  0  0  0
    1.1530   -1.3257    0.0000 C   0  0  0  0  0  0  0  0  0  0  0  0
    2.2992   -1.9954    0.0000 O   0  0  0  0  0  0  0  0  0  0  0  0
    3.4522   -1.3257    0.0000 C   0  0  0  0  0  0  0  0  0  0  0  0
    4.6053   -1.9954    0.0000 C   0  0  0  0  0  0  0  0  0  0  0  0
    5.7514   -1.3257    0.0000 C   0  0  0  0  0  0  0  0  0  0  0  0
    6.9045   -1.9954    0.0000 C   0  0  0  0  0  0  0  0  0  0  0  0
    0.0000   -1.9954    0.0000 C   0  0  0  0  0  0  0  0  0  0  0  0
    0.0000   -3.3210    0.0000 C   0  0  0  0  0  0  0  0  0  0  0  0
  1  2  2  0  0  0  0
  2  3  1  0  0  0  0
  2  8  1  0  0  0  0
  3  4  1  0  0  0  0
  4  5  1  0  0  0  0
  5  6  1  0  0  0  0
  6  7  1  0  0  0  0
  8  9  2  0  0  0  0
M  END
> <ID>
3806

> <Formula>
C7H12O2

> <FW>
128.169

> <DSSTox_CID>
4676

> <DSSTox_RID>
77496

> <DSSTox_GSID>
24676

> <DSSTox_FileID_Sort>
2179

> <TS_ChemName>
Butyl acrylate

> <TS_ChemName_Synonyms>
Butyl acrylate (n-Butyl acrylate) (2-Propenoic acid, butyl ester)

> <TS_CASRN>
141-32-2

> <CASRN_ChemName_Relationship>
primary

> <TS_Description>
single chemical compound

> <ChemNote>


> <STRUCTURE_Shown>
tested chemical

> <STRUCTURE_Formula>
C7H12O2

> <STRUCTURE_MW>
128.169

> <STRUCTURE_ChemType>
defined organic

> <STRUCTURE_DefinedOrganicForm>
parent

> <STRUCTURE_IUPAC>
butyl prop-2-enoate

> <STRUCTURE_SMILES>
C=CC(=O)OCCCC

> <STRUCTURE_SMILES_Desalt>
C=CC(=O)OCCCC

> <Substance_modify_yyyymmdd>
20080429

$$$$
