141-03-7
ChemmineR-0915142007XD

 16 15  0  0  0  0  0  0  0  0  1 V2000
   12.6865   -3.3366    0.0000 C   0  0  0  0  0  0  0  0  0  0  0  0
   11.5320   -3.9963    0.0000 C   0  0  0  0  0  0  0  0  0  0  0  0
   10.3776   -3.3366    0.0000 C   0  0  0  0  0  0  0  0  0  0  0  0
    9.2231   -3.9963    0.0000 C   0  0  0  0  0  0  0  0  0  0  0  0
    8.0686   -3.3366    0.0000 O   0  0  0  0  0  0  0  0  0  0  0  0
    6.9142   -3.9963    0.0000 C   0  0  0  0  0  0  0  0  0  0  0  0
    6.9142   -5.3283    0.0000 O   0  0  0  0  0  0  0  0  0  0  0  0
    5.7724   -3.3366    0.0000 C   0  0  0  0  0  0  0  0  0  0  0  0
    4.6179   -3.9963    0.0000 C   0  0  0  0  0  0  0  0  0  0  0  0
    3.4634   -3.3366    0.0000 C   0  0  0  0  0  0  0  0  0  0  0  0
    3.4634   -2.0045    0.0000 O   0  0  0  0  0  0  0  0  0  0  0  0
    2.3089   -3.9963    0.0000 O   0  0  0  0  0  0  0  0  0  0  0  0
    1.1545   -3.3366    0.0000 C   0  0  0  0  0  0  0  0  0  0  0  0
    1.1545   -2.0045    0.0000 C   0  0  0  0  0  0  0  0  0  0  0  0
    0.0000   -1.3321    0.0000 C   0  0  0  0  0  0  0  0  0  0  0  0
    0.0000    0.0000    0.0000 C   0  0  0  0  0  0  0  0  0  0  0  0
  1  2  1  0  0  0  0
  2  3  1  0  0  0  0
  3  4  1  0  0  0  0
  4  5  1  0  0  0  0
  5  6  1  0  0  0  0
  6  7  2  0  0  0  0
  6  8  1  0  0  0  0
  8  9  1  0  0  0  0
  9 10  1  0  0  0  0
 10 11  2  0  0  0  0
 10 12  1  0  0  0  0
 12 13  1  0  0  0  0
 13 14  1  0  0  0  0
 14 15  1  0  0  0  0
 15 16  1  0  0  0  0
M  END
> <ID>
1850

> <Formula>
C12H22O4

> <FW>
230.3007

> <DSSTox_CID>
1998

> <DSSTox_RID>
76451

> <DSSTox_GSID>
21998

> <DSSTox_FileID_Sort>
1135

> <TS_ChemName>
Dibutyl butanedioate

> <TS_ChemName_Synonyms>
Dibutyl butanedioate (dibutyl succinate)

> <TS_CASRN>
141-03-7

> <CASRN_ChemName_Relationship>
primary

> <TS_Description>
single chemical compound

> <ChemNote>


> <STRUCTURE_Shown>
tested chemical

> <STRUCTURE_Formula>
C12H22O4

> <STRUCTURE_MW>
230.3007

> <STRUCTURE_ChemType>
defined organic

> <STRUCTURE_DefinedOrganicForm>
parent

> <STRUCTURE_IUPAC>
dibutyl butanedioate

> <STRUCTURE_SMILES>
O=C(CCC(=O)OCCCC)OCCCC

> <STRUCTURE_SMILES_Desalt>
O=C(CCC(=O)OCCCC)OCCCC

> <Substance_modify_yyyymmdd>
20080429

$$$$
