141-97-9
ChemmineR-0915142007XD

  9  8  0  0  0  0  0  0  0  0  1 V2000
    3.4522   -1.3257    0.0000 C   0  0  0  0  0  0  0  0  0  0  0  0
    4.6053   -1.9954    0.0000 C   0  0  0  0  0  0  0  0  0  0  0  0
    5.7514   -1.3257    0.0000 C   0  0  0  0  0  0  0  0  0  0  0  0
    6.9045   -1.9954    0.0000 C   0  0  0  0  0  0  0  0  0  0  0  0
    3.4522    0.0000    0.0000 O   0  0  0  0  0  0  0  0  0  0  0  0
    2.2992   -1.9954    0.0000 O   0  0  0  0  0  0  0  0  0  0  0  0
    5.7514    0.0000    0.0000 O   0  0  0  0  0  0  0  0  0  0  0  0
    1.1530   -1.3257    0.0000 C   0  0  0  0  0  0  0  0  0  0  0  0
    0.0000   -1.9954    0.0000 C   0  0  0  0  0  0  0  0  0  0  0  0
  1  2  1  0  0  0  0
  1  6  1  0  0  0  0
  1  5  2  0  0  0  0
  2  3  1  0  0  0  0
  3  4  1  0  0  0  0
  3  7  2  0  0  0  0
  6  8  1  0  0  0  0
  8  9  1  0  0  0  0
M  END
> <ID>
4926

> <Formula>
C6H10O3

> <FW>
130.1418

> <DSSTox_CID>
7092

> <DSSTox_RID>
78305

> <DSSTox_GSID>
27092

> <DSSTox_FileID_Sort>
2988

> <TS_ChemName>
Ethyl acetoacetate

> <TS_ChemName_Synonyms>
Ethyl acetoacetate (Butanoic acid, 3-oxo-, ethyl ester)

> <TS_CASRN>
141-97-9

> <CASRN_ChemName_Relationship>
primary

> <TS_Description>
single chemical compound

> <ChemNote>
tautomers

> <STRUCTURE_Shown>
tested chemical

> <STRUCTURE_Formula>
C6H10O3

> <STRUCTURE_MW>
130.1418

> <STRUCTURE_ChemType>
defined organic

> <STRUCTURE_DefinedOrganicForm>
parent

> <STRUCTURE_IUPAC>
ethyl 3-oxobutanoate

> <STRUCTURE_SMILES>
CC(=O)CC(=O)OCC

> <STRUCTURE_SMILES_Desalt>
CC(=O)CC(=O)OCC

> <Substance_modify_yyyymmdd>
20080429

$$$$
