141-17-3
ChemmineR-0915142007XD

 30 29  0  0  0  0  0  0  0  0  1 V2000
   12.7050   -1.3423    0.0000 C   0  0  0  0  0  0  0  0  0  0  0  0
   13.8600   -1.9978    0.0000 C   0  0  0  0  0  0  0  0  0  0  0  0
   15.0150   -1.3423    0.0000 C   0  0  0  0  0  0  0  0  0  0  0  0
   16.2012   -1.9978    0.0000 C   0  0  0  0  0  0  0  0  0  0  0  0
   17.3562   -1.3423    0.0000 C   0  0  0  0  0  0  0  0  0  0  0  0
   18.5112   -1.9978    0.0000 C   0  0  0  0  0  0  0  0  0  0  0  0
   12.7050    0.0000    0.0000 O   0  0  0  0  0  0  0  0  0  0  0  0
   11.5500   -1.9978    0.0000 O   0  0  0  0  0  0  0  0  0  0  0  0
   18.5112   -3.3401    0.0000 O   0  0  0  0  0  0  0  0  0  0  0  0
   19.6662   -1.3423    0.0000 O   0  0  0  0  0  0  0  0  0  0  0  0
   10.4262   -1.3423    0.0000 C   0  0  0  0  0  0  0  0  0  0  0  0
    9.2400   -1.9978    0.0000 C   0  0  0  0  0  0  0  0  0  0  0  0
    8.0850   -1.3423    0.0000 O   0  0  0  0  0  0  0  0  0  0  0  0
    6.9300   -1.9978    0.0000 C   0  0  0  0  0  0  0  0  0  0  0  0
    5.7750   -1.3423    0.0000 C   0  0  0  0  0  0  0  0  0  0  0  0
    4.6200   -1.9978    0.0000 O   0  0  0  0  0  0  0  0  0  0  0  0
    3.4650   -1.3423    0.0000 C   0  0  0  0  0  0  0  0  0  0  0  0
    2.3100   -1.9978    0.0000 C   0  0  0  0  0  0  0  0  0  0  0  0
    1.1550   -1.3423    0.0000 C   0  0  0  0  0  0  0  0  0  0  0  0
    0.0000   -1.9978    0.0000 C   0  0  0  0  0  0  0  0  0  0  0  0
   20.7900   -1.9978    0.0000 C   0  0  0  0  0  0  0  0  0  0  0  0
   21.9762   -1.3423    0.0000 C   0  0  0  0  0  0  0  0  0  0  0  0
   23.1312   -1.9978    0.0000 O   0  0  0  0  0  0  0  0  0  0  0  0
   24.2863   -1.3423    0.0000 C   0  0  0  0  0  0  0  0  0  0  0  0
   25.4413   -1.9978    0.0000 C   0  0  0  0  0  0  0  0  0  0  0  0
   26.5963   -1.3423    0.0000 O   0  0  0  0  0  0  0  0  0  0  0  0
   27.7513   -1.9978    0.0000 C   0  0  0  0  0  0  0  0  0  0  0  0
   28.9063   -1.3423    0.0000 C   0  0  0  0  0  0  0  0  0  0  0  0
   30.0613   -1.9978    0.0000 C   0  0  0  0  0  0  0  0  0  0  0  0
   31.2163   -1.3423    0.0000 C   0  0  0  0  0  0  0  0  0  0  0  0
  1  2  1  0  0  0  0
  1  8  1  0  0  0  0
  1  7  2  0  0  0  0
  2  3  1  0  0  0  0
  3  4  1  0  0  0  0
  4  5  1  0  0  0  0
  5  6  1  0  0  0  0
  6 10  1  0  0  0  0
  6  9  2  0  0  0  0
  8 11  1  0  0  0  0
 10 21  1  0  0  0  0
 11 12  1  0  0  0  0
 12 13  1  0  0  0  0
 13 14  1  0  0  0  0
 14 15  1  0  0  0  0
 15 16  1  0  0  0  0
 16 17  1  0  0  0  0
 17 18  1  0  0  0  0
 18 19  1  0  0  0  0
 19 20  1  0  0  0  0
 21 22  1  0  0  0  0
 22 23  1  0  0  0  0
 23 24  1  0  0  0  0
 24 25  1  0  0  0  0
 25 26  1  0  0  0  0
 26 27  1  0  0  0  0
 27 28  1  0  0  0  0
 28 29  1  0  0  0  0
 29 30  1  0  0  0  0
M  END
> <ID>
4922

> <Formula>
C22H42O8

> <FW>
434.5641

> <DSSTox_CID>
7085

> <DSSTox_RID>
78303

> <DSSTox_GSID>
27085

> <DSSTox_FileID_Sort>
2986

> <TS_ChemName>
Bis[2-(2-butoxyethoxy)ethyl] hexandioate

> <TS_ChemName_Synonyms>
Bis[2-(2-butoxyethoxy)ethyl] hexandioate (Bis[2-(2-butoxyethoxy)ethyl] adipate) (Hexanedioic acid, bis[2-(2-butoxyethoxy)ethyl] ester)

> <TS_CASRN>
141-17-3

> <CASRN_ChemName_Relationship>
primary

> <TS_Description>
single chemical compound

> <ChemNote>


> <STRUCTURE_Shown>
tested chemical

> <STRUCTURE_Formula>
C22H42O8

> <STRUCTURE_MW>
434.5641

> <STRUCTURE_ChemType>
defined organic

> <STRUCTURE_DefinedOrganicForm>
parent

> <STRUCTURE_IUPAC>
bis[2-(2-butoxyethoxy)ethyl] hexanedioate

> <STRUCTURE_SMILES>
CCCCOCCOCCOC(=O)CCCCC(=O)OCCOCCOCCCC

> <STRUCTURE_SMILES_Desalt>
CCCCOCCOCCOC(=O)CCCCC(=O)OCCOCCOCCCC

> <Substance_modify_yyyymmdd>
20080429

$$$$
