141-16-2
ChemmineR-0915142007XD

 16 15  0  0  0  0  0  0  0  0  1 V2000
    3.4448   -0.6641    0.0000 C   0  0  0  0  0  0  0  0  0  0  0  0
    3.4448   -1.9922    0.0000 O   0  0  0  0  0  0  0  0  0  0  0  0
    4.6069    0.0000    0.0000 O   0  0  0  0  0  0  0  0  0  0  0  0
    2.2965    0.0000    0.0000 C   0  0  0  0  0  0  0  0  0  0  0  0
    1.1621   -0.6641    0.0000 C   0  0  0  0  0  0  0  0  0  0  0  0
    0.0000    0.0000    0.0000 C   0  0  0  0  0  0  0  0  0  0  0  0
   12.6725   -0.6641    0.0000 C   0  0  0  0  0  0  0  0  0  0  0  0
   11.5381    0.0000    0.0000 C   0  0  0  0  0  0  0  0  0  0  0  0
    5.7552   -0.6641    0.0000 C   0  0  0  0  0  0  0  0  0  0  0  0
   10.3898   -0.6641    0.0000 C   0  0  0  0  0  0  0  0  0  0  0  0
   12.6725   -1.9922    0.0000 C   0  0  0  0  0  0  0  0  0  0  0  0
   13.8346    0.0000    0.0000 C   0  0  0  0  0  0  0  0  0  0  0  0
    6.9173    0.0000    0.0000 C   0  0  0  0  0  0  0  0  0  0  0  0
    9.2277    0.0000    0.0000 C   0  0  0  0  0  0  0  0  0  0  0  0
    8.0794   -0.6641    0.0000 C   0  0  0  0  0  0  0  0  0  0  0  0
    8.0794   -1.9922    0.0000 C   0  0  0  0  0  0  0  0  0  0  0  0
  1  2  2  0  0  0  0
  1  3  1  0  0  0  0
  1  4  1  0  0  0  0
  3  9  1  0  0  0  0
  4  5  1  0  0  0  0
  5  6  1  0  0  0  0
  7  8  2  0  0  0  0
  7 11  1  0  0  0  0
  7 12  1  0  0  0  0
  8 10  1  0  0  0  0
  9 13  1  0  0  0  0
 10 14  1  0  0  0  0
 13 15  1  0  0  0  0
 14 15  1  0  0  0  0
 15 16  1  0  0  0  0
M  END
> <ID>
12547

> <Formula>
C14H26O2

> <FW>
226.355

> <DSSTox_CID>
27405

> <DSSTox_RID>
82321

> <DSSTox_GSID>
47405

> <DSSTox_FileID_Sort>
7002

> <TS_ChemName>
Citronellyl butyrate

> <TS_ChemName_Synonyms>


> <TS_CASRN>
141-16-2

> <CASRN_ChemName_Relationship>
primary

> <TS_Description>
single chemical compound

> <ChemNote>
mixture of (3R,S) isomers; structure shown without stereochem

> <STRUCTURE_Shown>
tested chemical

> <STRUCTURE_Formula>
C14H26O2

> <STRUCTURE_MW>
226.355

> <STRUCTURE_ChemType>
defined organic

> <STRUCTURE_DefinedOrganicForm>
parent

> <STRUCTURE_IUPAC>
3,7-dimethyloct-6-en-1-yl butanoate

> <STRUCTURE_SMILES>
C\C(C)=C\CCC(C)CCOC(=O)CCC

> <STRUCTURE_SMILES_Desalt>
C\C(C)=C\CCC(C)CCOC(=O)CCC

> <Substance_modify_yyyymmdd>
20100617

$$$$
