141-94-6
ChemmineR-0915142007XD

 24 24  0  0  0  0  0  0  0  0  1 V2000
    9.2251   -0.6612    0.0000 N   0  0  0  0  0  0  0  0  0  0  0  0
    9.2251   -1.9998    0.0000 C   0  0  0  0  0  0  0  0  0  0  0  0
    8.0639    0.0000    0.0000 C   0  0  0  0  0  0  0  0  0  0  0  0
    8.0639   -2.6611    0.0000 C   0  0  0  0  0  0  0  0  0  0  0  0
    6.9027   -0.6612    0.0000 N   0  0  0  0  0  0  0  0  0  0  0  0
    6.9027   -1.9998    0.0000 C   0  0  0  0  0  0  0  0  0  0  0  0
    8.7412   -3.8061    0.0000 N   0  0  0  0  0  0  0  0  0  0  0  0
    7.4026   -3.8061    0.0000 C   0  0  0  0  0  0  0  0  0  0  0  0
    5.7576    0.0000    0.0000 C   0  0  0  0  0  0  0  0  0  0  0  0
    4.5964   -0.6612    0.0000 C   0  0  0  0  0  0  0  0  0  0  0  0
    3.4513    0.0000    0.0000 C   0  0  0  0  0  0  0  0  0  0  0  0
    2.3063   -0.6612    0.0000 C   0  0  0  0  0  0  0  0  0  0  0  0
    1.1612    0.0000    0.0000 C   0  0  0  0  0  0  0  0  0  0  0  0
    0.0000   -0.6612    0.0000 C   0  0  0  0  0  0  0  0  0  0  0  0
    4.5964   -1.9998    0.0000 C   0  0  0  0  0  0  0  0  0  0  0  0
    3.4513   -2.6611    0.0000 C   0  0  0  0  0  0  0  0  0  0  0  0
   10.3701    0.0000    0.0000 C   0  0  0  0  0  0  0  0  0  0  0  0
   11.5313   -0.6612    0.0000 C   0  0  0  0  0  0  0  0  0  0  0  0
   12.6764    0.0000    0.0000 C   0  0  0  0  0  0  0  0  0  0  0  0
   13.8215   -0.6612    0.0000 C   0  0  0  0  0  0  0  0  0  0  0  0
   14.9665    0.0000    0.0000 C   0  0  0  0  0  0  0  0  0  0  0  0
   16.1277   -0.6612    0.0000 C   0  0  0  0  0  0  0  0  0  0  0  0
   11.5313   -1.9998    0.0000 C   0  0  0  0  0  0  0  0  0  0  0  0
   12.6764   -2.6611    0.0000 C   0  0  0  0  0  0  0  0  0  0  0  0
  1  2  1  0  0  0  0
  1  3  1  0  0  0  0
  1 17  1  0  0  0  0
  2  4  1  0  0  0  0
  3  5  1  0  0  0  0
  4  6  1  0  0  0  0
  4  7  1  0  0  0  0
  4  8  1  0  0  0  0
  5  6  1  0  0  0  0
  5  9  1  0  0  0  0
  9 10  1  0  0  0  0
 10 11  1  0  0  0  0
 10 15  1  0  0  0  0
 11 12  1  0  0  0  0
 12 13  1  0  0  0  0
 13 14  1  0  0  0  0
 15 16  1  0  0  0  0
 17 18  1  0  0  0  0
 18 19  1  0  0  0  0
 18 23  1  0  0  0  0
 19 20  1  0  0  0  0
 20 21  1  0  0  0  0
 21 22  1  0  0  0  0
 23 24  1  0  0  0  0
M  END
> <ID>
10858

> <Formula>
C21H45N3

> <FW>
339.6021

> <DSSTox_CID>
25297

> <DSSTox_RID>
80788

> <DSSTox_GSID>
45297

> <DSSTox_FileID_Sort>
5469

> <TS_ChemName>
Hexetidine

> <TS_ChemName_Synonyms>


> <TS_CASRN>
141-94-6

> <CASRN_ChemName_Relationship>
primary

> <TS_Description>
single chemical compound

> <ChemNote>


> <STRUCTURE_Shown>
tested chemical

> <STRUCTURE_Formula>
C21H45N3

> <STRUCTURE_MW>
339.6021

> <STRUCTURE_ChemType>
defined organic

> <STRUCTURE_DefinedOrganicForm>
parent

> <STRUCTURE_IUPAC>
1,3-bis(2-ethylhexyl)-5-methylhexahydropyrimidin-5-amine

> <STRUCTURE_SMILES>
CCC(CCCC)CN1CC(C)(N)CN(CC(CCCC)CC)C1

> <STRUCTURE_SMILES_Desalt>
CCC(CCCC)CN1CC(C)(N)CN(CC(CCCC)CC)C1

> <Substance_modify_yyyymmdd>
20110718

$$$$
