141-79-7
ChemmineR-0915142007XD

  7  6  0  0  0  0  0  0  0  0  1 V2000
    0.0000    0.0000    0.0000 C   0  0  0  0  0  0  0  0  0  0  0  0
    1.1413   -0.6627    0.0000 C   0  0  0  0  0  0  0  0  0  0  0  0
    2.2826    0.0000    0.0000 C   0  0  0  0  0  0  0  0  0  0  0  0
    3.4607   -0.6627    0.0000 C   0  0  0  0  0  0  0  0  0  0  0  0
    4.6020    0.0000    0.0000 C   0  0  0  0  0  0  0  0  0  0  0  0
    1.1413   -1.9972    0.0000 O   0  0  0  0  0  0  0  0  0  0  0  0
    3.4607   -1.9972    0.0000 C   0  0  0  0  0  0  0  0  0  0  0  0
  1  2  1  0  0  0  0
  2  3  1  0  0  0  0
  2  6  2  0  0  0  0
  3  4  2  0  0  0  0
  4  5  1  0  0  0  0
  4  7  1  0  0  0  0
M  END
> <ID>
5829

> <Formula>
C6H10O

> <FW>
98.143

> <DSSTox_CID>
9170

> <DSSTox_RID>
78697

> <DSSTox_GSID>
29170

> <DSSTox_FileID_Sort>
3379

> <TS_ChemName>
4-Methylpent-3-en-2-one

> <TS_ChemName_Synonyms>
4-Methylpent-3-en-2-one (Mesityl oxide)

> <TS_CASRN>
141-79-7

> <CASRN_ChemName_Relationship>
primary

> <TS_Description>
single chemical compound

> <ChemNote>


> <STRUCTURE_Shown>
tested chemical

> <STRUCTURE_Formula>
C6H10O

> <STRUCTURE_MW>
98.143

> <STRUCTURE_ChemType>
defined organic

> <STRUCTURE_DefinedOrganicForm>
parent

> <STRUCTURE_IUPAC>
4-methylpent-3-en-2-one

> <STRUCTURE_SMILES>
C\C(C)=C/C(C)=O

> <STRUCTURE_SMILES_Desalt>
C\C(C)=C/C(C)=O

> <Substance_modify_yyyymmdd>
20080429

$$$$
