141-23-1
ChemmineR-0915142007XD

 22 21  0  0  0  0  0  0  0  0  1 V2000
    2.2790   -1.3367    0.0000 C   0  0  0  0  0  0  0  0  0  0  0  0
    3.4186   -1.9942    0.0000 C   0  0  0  0  0  0  0  0  0  0  0  0
    4.5581   -1.3367    0.0000 C   0  0  0  0  0  0  0  0  0  0  0  0
    5.6976   -1.9942    0.0000 C   0  0  0  0  0  0  0  0  0  0  0  0
    6.8590   -1.3367    0.0000 C   0  0  0  0  0  0  0  0  0  0  0  0
    7.9986   -1.9942    0.0000 C   0  0  0  0  0  0  0  0  0  0  0  0
    9.1162   -1.3367    0.0000 C   0  0  0  0  0  0  0  0  0  0  0  0
   10.2557   -1.9942    0.0000 C   0  0  0  0  0  0  0  0  0  0  0  0
   11.3952   -1.3367    0.0000 C   0  0  0  0  0  0  0  0  0  0  0  0
   12.5347   -1.9942    0.0000 C   0  0  0  0  0  0  0  0  0  0  0  0
   13.6742   -1.3367    0.0000 C   0  0  0  0  0  0  0  0  0  0  0  0
   14.8357   -1.9942    0.0000 C   0  0  0  0  0  0  0  0  0  0  0  0
   15.9752   -1.3367    0.0000 C   0  0  0  0  0  0  0  0  0  0  0  0
   17.1586   -2.0161    0.0000 C   0  0  0  0  0  0  0  0  0  0  0  0
   18.3419   -1.3367    0.0000 C   0  0  0  0  0  0  0  0  0  0  0  0
   19.5253   -2.0161    0.0000 C   0  0  0  0  0  0  0  0  0  0  0  0
   20.7305   -1.3367    0.0000 C   0  0  0  0  0  0  0  0  0  0  0  0
   21.9139   -2.0161    0.0000 C   0  0  0  0  0  0  0  0  0  0  0  0
    2.2790    0.0000    0.0000 O   0  0  0  0  0  0  0  0  0  0  0  0
    1.1395   -1.9942    0.0000 O   0  0  0  0  0  0  0  0  0  0  0  0
   14.8357   -3.3090    0.0000 O   0  0  0  0  0  0  0  0  0  0  0  0
    0.0000   -1.3367    0.0000 C   0  0  0  0  0  0  0  0  0  0  0  0
  1  2  1  0  0  0  0
  1 20  1  0  0  0  0
  1 19  2  0  0  0  0
  2  3  1  0  0  0  0
  3  4  1  0  0  0  0
  4  5  1  0  0  0  0
  5  6  1  0  0  0  0
  6  7  1  0  0  0  0
  7  8  1  0  0  0  0
  8  9  1  0  0  0  0
  9 10  1  0  0  0  0
 10 11  1  0  0  0  0
 11 12  1  0  0  0  0
 12 13  1  0  0  0  0
 12 21  1  0  0  0  0
 13 14  1  0  0  0  0
 14 15  1  0  0  0  0
 15 16  1  0  0  0  0
 16 17  1  0  0  0  0
 17 18  1  0  0  0  0
 20 22  1  0  0  0  0
M  END
> <ID>
4923

> <Formula>
C19H38O3

> <FW>
314.5032

> <DSSTox_CID>
7086

> <DSSTox_RID>
78304

> <DSSTox_GSID>
27086

> <DSSTox_FileID_Sort>
2987

> <TS_ChemName>
Methyl 12-hydroxyoctadecanoate

> <TS_ChemName_Synonyms>
Octadecanoic acid, 12-hydroxy-, methyl ester

> <TS_CASRN>
141-23-1

> <CASRN_ChemName_Relationship>
primary

> <TS_Description>
single chemical compound

> <ChemNote>


> <STRUCTURE_Shown>
tested chemical

> <STRUCTURE_Formula>
C19H38O3

> <STRUCTURE_MW>
314.5032

> <STRUCTURE_ChemType>
defined organic

> <STRUCTURE_DefinedOrganicForm>
parent

> <STRUCTURE_IUPAC>
methyl 12-hydroxyoctadecanoate

> <STRUCTURE_SMILES>
O=C(CCCCCCCCCCC(O)CCCCCC)OC

> <STRUCTURE_SMILES_Desalt>
O=C(CCCCCCCCCCC(O)CCCCCC)OC

> <Substance_modify_yyyymmdd>
20080429

$$$$
