141200-24-0
ChemmineR-0915142007XD

 30 33  0  0  0  0  0  0  0  0  1 V2000
    8.2913  -11.0016    0.0000 C   0  0  0  0  0  0  0  0  0  0  0  0
    6.9828  -10.7213    0.0000 C   0  0  0  0  0  0  0  0  0  0  0  0
    6.4488   -9.5063    0.0000 C   0  0  0  0  0  0  0  0  0  0  0  0
    7.1164   -8.3580    0.0000 C   0  0  0  0  0  0  0  0  0  0  0  0
    6.4488   -7.2098    0.0000 C   0  0  0  0  0  0  0  0  0  0  0  0
    7.1164   -6.0482    0.0000 C   0  0  0  0  0  0  0  0  0  0  0  0
    8.4382   -6.0482    0.0000 O   0  0  0  0  0  0  0  0  0  0  0  0
    6.4488   -4.9000    0.0000 C   0  0  0  0  0  0  0  0  0  0  0  0
    7.1164   -3.7518    0.0000 C   0  0  0  0  0  0  0  0  0  0  0  0
    6.4488   -2.6035    0.0000 C   0  0  0  0  0  0  0  0  0  0  0  0
    5.1136   -2.6035    0.0000 C   0  0  0  0  0  0  0  0  0  0  0  0
    4.4461   -1.4420    0.0000 C   0  0  0  0  0  0  0  0  0  0  0  0
    3.1243   -1.4420    0.0000 C   0  0  0  0  0  0  0  0  0  0  0  0
    2.3365   -0.3738    0.0000 S   0  0  0  0  0  0  0  0  0  0  0  0
    1.0815   -0.7744    0.0000 C   0  0  0  0  0  0  0  0  0  0  0  0
    0.0000    0.0000    0.0000 O   0  0  0  0  0  0  0  0  0  0  0  0
    1.0815   -2.1095    0.0000 N   0  0  0  0  0  0  0  0  0  0  0  0
    2.3365   -2.5234    0.0000 C   0  0  0  0  0  0  0  0  0  0  0  0
    2.7504   -3.7918    0.0000 O   0  0  0  0  0  0  0  0  0  0  0  0
    4.4461   -3.7518    0.0000 C   0  0  0  0  0  0  0  0  0  0  0  0
    5.1136   -4.9000    0.0000 C   0  0  0  0  0  0  0  0  0  0  0  0
    5.1270   -9.6398    0.0000 N   0  0  0  0  0  0  0  0  0  0  0  0
    4.8466  -10.9482    0.0000 C   0  0  0  0  0  0  0  0  0  0  0  0
    5.9948  -11.6158    0.0000 O   0  0  0  0  0  0  0  0  0  0  0  0
    3.6316  -11.4823    0.0000 C   0  0  0  0  0  0  0  0  0  0  0  0
    2.5635  -10.7079    0.0000 C   0  0  0  0  0  0  0  0  0  0  0  0
    1.3485  -11.2420    0.0000 C   0  0  0  0  0  0  0  0  0  0  0  0
    1.2016  -12.5638    0.0000 C   0  0  0  0  0  0  0  0  0  0  0  0
    2.2831  -13.3515    0.0000 C   0  0  0  0  0  0  0  0  0  0  0  0
    3.4981  -12.8041    0.0000 C   0  0  0  0  0  0  0  0  0  0  0  0
  1  2  1  0  0  0  0
  2  3  2  0  0  0  0
  2 24  1  0  0  0  0
  3  4  1  0  0  0  0
  3 22  1  0  0  0  0
  4  5  1  0  0  0  0
  5  6  1  0  0  0  0
  6  7  2  0  0  0  0
  6  8  1  0  0  0  0
  8  9  2  0  0  0  0
  8 21  1  0  0  0  0
  9 10  1  0  0  0  0
 10 11  2  0  0  0  0
 11 12  1  0  0  0  0
 11 20  1  0  0  0  0
 12 13  1  0  0  0  0
 13 14  1  0  0  0  0
 13 18  1  0  0  0  0
 14 15  1  0  0  0  0
 15 16  2  0  0  0  0
 15 17  1  0  0  0  0
 17 18  1  0  0  0  0
 18 19  2  0  0  0  0
 20 21  2  0  0  0  0
 22 23  2  0  0  0  0
 23 24  1  0  0  0  0
 23 25  1  0  0  0  0
 25 26  2  0  0  0  0
 25 30  1  0  0  0  0
 26 27  1  0  0  0  0
 27 28  2  0  0  0  0
 28 29  1  0  0  0  0
 29 30  2  0  0  0  0
M  END
> <ID>
16048

> <Formula>
C23H20N2O4S

> <FW>
420.4809

> <DSSTox_CID>
31433

> <DSSTox_RID>
97319

> <DSSTox_GSID>
57644

> <DSSTox_FileID_Sort>
8386

> <TS_ChemName>
Darglitazone

> <TS_ChemName_Synonyms>


> <TS_CASRN>
141200-24-0

> <CASRN_ChemName_Relationship>
primary

> <TS_Description>
single chemical compound

> <ChemNote>


> <STRUCTURE_Shown>
tested chemical

> <STRUCTURE_Formula>
C23H20N2O4S

> <STRUCTURE_MW>
420.4809

> <STRUCTURE_ChemType>
defined organic

> <STRUCTURE_DefinedOrganicForm>
parent

> <STRUCTURE_IUPAC>
5-{4-[3-(5-methyl-2-phenyl-1,3-oxazol-4-yl)propanoyl]benzyl}-1,3-thiazolidine-2,4-dione

> <STRUCTURE_SMILES>
Cc3oc(nc3CCC(=O)c2ccc(CC1SC(=O)NC1=O)cc2)c4ccccc4

> <STRUCTURE_SMILES_Desalt>
Cc3oc(nc3CCC(=O)c2ccc(CC1SC(=O)NC1=O)cc2)c4ccccc4

> <Substance_modify_yyyymmdd>
20131018

$$$$
