14149-43-0
ChemmineR-0915142007XD

 31 30  0  0  0  0  0  0  0  0  2 V2000
    3.3325   -1.8727    0.0000 C   0  0  0  0  0  0  0  0  0  0  0  0
    5.0578   -3.1556    0.0000 N   0  3  0  0  0  0  0  0  0  0  0  0
    4.2173   -2.4625    0.0000 C   0  0  0  0  0  0  0  0  0  0  0  0
    2.6395   -2.4625    0.0000 C   0  0  0  0  0  0  0  0  0  0  0  0
    2.4036   -1.1354    0.0000 C   0  0  0  0  0  0  0  0  0  0  0  0
    4.8219   -1.8875    0.0000 C   0  0  0  0  0  0  0  0  0  0  0  0
    1.7990   -3.6275    0.0000 C   0  0  0  0  0  0  0  0  0  0  0  0
    2.7869   -3.0081    0.0000 C   0  0  0  0  0  0  0  0  0  0  0  0
    3.7454   -0.5898    0.0000 C   0  0  0  0  0  0  0  0  0  0  0  0
    1.7253    0.0000    0.0000 C   0  0  0  0  0  0  0  0  0  0  0  0
    1.1502   -1.6073    0.0000 C   0  0  0  0  0  0  0  0  0  0  0  0
    5.7214   -4.3205    0.0000 C   0  0  0  0  0  0  0  0  0  0  0  0
    6.3112   -2.7132    0.0000 C   0  0  0  0  0  0  0  0  0  0  0  0
    7.3286   -3.5832    0.0000 C   0  0  0  0  0  0  0  0  0  0  0  0
    8.6115   -3.1261    0.0000 C   0  0  0  0  0  0  0  0  0  0  0  0
    9.6290   -3.9814    0.0000 N   0  3  0  0  0  0  0  0  0  0  0  0
   10.8824   -3.5242    0.0000 C   0  0  0  0  0  0  0  0  0  0  0  0
    9.3783   -5.3085    0.0000 C   0  0  0  0  0  0  0  0  0  0  0  0
    9.8649   -2.6690    0.0000 C   0  0  0  0  0  0  0  0  0  0  0  0
   12.4307   -6.1932    0.0000 S   0  0  0  0  0  0  0  0  0  0  0  0
   13.0795   -7.3581    0.0000 O   0  0  0  0  0  0  0  0  0  0  0  0
   11.7524   -5.0430    0.0000 O   0  0  0  0  0  0  0  0  0  0  0  0
   11.2805   -6.8568    0.0000 O   0  5  0  0  0  0  0  0  0  0  0  0
   13.5808   -5.5297    0.0000 O   0  0  0  0  0  0  0  0  0  0  0  0
   14.7458   -6.1932    0.0000 C   0  0  0  0  0  0  0  0  0  0  0  0
    1.1649   -5.6919    0.0000 S   0  0  0  0  0  0  0  0  0  0  0  0
    1.8137   -6.8568    0.0000 O   0  0  0  0  0  0  0  0  0  0  0  0
    0.4866   -4.5417    0.0000 O   0  0  0  0  0  0  0  0  0  0  0  0
    0.0000   -6.3554    0.0000 O   0  5  0  0  0  0  0  0  0  0  0  0
    2.3151   -5.0283    0.0000 O   0  0  0  0  0  0  0  0  0  0  0  0
    3.4653   -5.6919    0.0000 C   0  0  0  0  0  0  0  0  0  0  0  0
  1  5  1  0  0  0  0
  1  6  1  0  0  0  0
  1  8  1  0  0  0  0
  1  9  1  0  0  0  0
  2  3  1  0  0  0  0
  2  6  1  0  0  0  0
  2 12  1  0  0  0  0
  2 13  1  0  0  0  0
  3  4  1  0  0  0  0
  4  5  1  0  0  0  0
  4  7  1  0  0  0  0
  5 10  1  0  0  0  0
  5 11  1  0  0  0  0
  7  8  1  0  0  0  0
 13 14  1  0  0  0  0
 14 15  1  0  0  0  0
 15 16  1  0  0  0  0
 16 17  1  0  0  0  0
 16 18  1  0  0  0  0
 16 19  1  0  0  0  0
 20 21  2  0  0  0  0
 20 22  2  0  0  0  0
 20 23  1  0  0  0  0
 20 24  1  0  0  0  0
 24 25  1  0  0  0  0
 26 27  2  0  0  0  0
 26 28  2  0  0  0  0
 26 29  1  0  0  0  0
 26 30  1  0  0  0  0
 30 31  1  0  0  0  0
M  END
> <ID>
11419

> <Formula>
C19H42N2O8S2

> <FW>
490.6754 (268.4800+111.0977+111.0977)

> <DSSTox_CID>
26115

> <DSSTox_RID>
81351

> <DSSTox_GSID>
46115

> <DSSTox_FileID_Sort>
6032

> <TS_ChemName>
Trimethidinium methyl sulfate

> <TS_ChemName_Synonyms>
Trimethidinium methosulfate

> <TS_CASRN>
14149-43-0

> <CASRN_ChemName_Relationship>
primary

> <TS_Description>
single chemical compound

> <ChemNote>
parent [2624-50-2]

> <STRUCTURE_Shown>
tested chemical

> <STRUCTURE_Formula>
C19H42N2O8S2

> <STRUCTURE_MW>
490.6754

> <STRUCTURE_ChemType>
defined organic

> <STRUCTURE_DefinedOrganicForm>
complex

> <STRUCTURE_IUPAC>
1,3,8,8-tetramethyl-3-[3-(trimethylammonio)propyl]-3-azoniabicyclo[3.2.1]octane bis(methyl sulfate)

> <STRUCTURE_SMILES>
CC12CCC(C[N+](C)(CCC[N+](C)(C)C)C1)C2(C)C.[O-]S(=O)(=O)OC.[O-]S(=O)(=O)OC

> <STRUCTURE_SMILES_Desalt>
CC12CCC(C[N+](C)(CCC[N+](C)(C)C)C1)C2(C)C

> <Substance_modify_yyyymmdd>
20110818

$$$$
