141517-21-7
ChemmineR-0915142007XD

 29 30  0  0  0  0  0  0  0  0  1 V2000
    4.5939   -6.6314    0.0000 C   0  0  0  0  0  0  0  0  0  0  0  0
    4.5939   -7.9602    0.0000 C   0  0  0  0  0  0  0  0  0  0  0  0
    3.4422   -5.9733    0.0000 C   0  0  0  0  0  0  0  0  0  0  0  0
    3.4422   -8.6309    0.0000 C   0  0  0  0  0  0  0  0  0  0  0  0
    2.2906   -6.6314    0.0000 C   0  0  0  0  0  0  0  0  0  0  0  0
    2.2906   -7.9602    0.0000 C   0  0  0  0  0  0  0  0  0  0  0  0
    5.7455   -5.9733    0.0000 C   0  0  0  0  0  0  0  0  0  0  0  0
    6.9098   -6.6314    0.0000 O   0  0  0  0  0  0  0  0  0  0  0  0
    8.0361   -5.9733    0.0000 N   0  0  0  0  0  0  0  0  0  0  0  0
    9.2004   -5.3152    0.0000 C   0  0  0  0  0  0  0  0  0  0  0  0
   10.3520   -5.9733    0.0000 C   0  0  0  0  0  0  0  0  0  0  0  0
    9.2004   -3.9864    0.0000 C   0  0  0  0  0  0  0  0  0  0  0  0
    8.0361   -3.3157    0.0000 C   0  0  0  0  0  0  0  0  0  0  0  0
   10.3520   -3.3157    0.0000 C   0  0  0  0  0  0  0  0  0  0  0  0
    8.0361   -1.9869    0.0000 C   0  0  0  0  0  0  0  0  0  0  0  0
   10.3520   -1.9869    0.0000 C   0  0  0  0  0  0  0  0  0  0  0  0
    9.2004   -1.3161    0.0000 C   0  0  0  0  0  0  0  0  0  0  0  0
   11.5036   -1.3288    0.0000 C   0  0  0  0  0  0  0  0  0  0  0  0
   12.6553   -1.9869    0.0000 F   0  0  0  0  0  0  0  0  0  0  0  0
   11.5036    0.0000    0.0000 F   0  0  0  0  0  0  0  0  0  0  0  0
   10.3520   -0.6581    0.0000 F   0  0  0  0  0  0  0  0  0  0  0  0
    3.4422   -4.6445    0.0000 C   0  0  0  0  0  0  0  0  0  0  0  0
    4.5939   -3.9738    0.0000 C   0  0  0  0  0  0  0  0  0  0  0  0
    2.2906   -3.9864    0.0000 N   0  0  0  0  0  0  0  0  0  0  0  0
    5.7455   -4.6445    0.0000 O   0  0  0  0  0  0  0  0  0  0  0  0
    4.5939   -2.6450    0.0000 O   0  0  0  0  0  0  0  0  0  0  0  0
    5.7455   -1.9869    0.0000 C   0  0  0  0  0  0  0  0  0  0  0  0
    1.0884   -3.4043    0.0000 O   0  0  0  0  0  0  0  0  0  0  0  0
    0.0000   -4.1636    0.0000 C   0  0  0  0  0  0  0  0  0  0  0  0
  1  2  1  0  0  0  0
  1  3  2  0  0  0  0
  1  7  1  0  0  0  0
  2  4  2  0  0  0  0
  3  5  1  0  0  0  0
  3 22  1  0  0  0  0
  4  6  1  0  0  0  0
  5  6  2  0  0  0  0
  7  8  1  0  0  0  0
  8  9  1  0  0  0  0
  9 10  2  0  0  0  0
 10 11  1  0  0  0  0
 10 12  1  0  0  0  0
 12 13  1  0  0  0  0
 12 14  2  0  0  0  0
 13 15  2  0  0  0  0
 14 16  1  0  0  0  0
 15 17  1  0  0  0  0
 16 17  2  0  0  0  0
 16 18  1  0  0  0  0
 18 19  1  0  0  0  0
 18 20  1  0  0  0  0
 18 21  1  0  0  0  0
 22 23  1  0  0  0  0
 22 24  2  0  0  0  0
 23 25  2  0  0  0  0
 23 26  1  0  0  0  0
 24 28  1  0  0  0  0
 26 27  1  0  0  0  0
 28 29  1  0  0  0  0
M  END
> <ID>
6529

> <Formula>
C20H19F3N2O4

> <FW>
408.3711

> <DSSTox_CID>
12580

> <DSSTox_RID>
78995

> <DSSTox_GSID>
32580

> <DSSTox_FileID_Sort>
3677

> <TS_ChemName>
Trifloxystrobin

> <TS_ChemName_Synonyms>
Trifloxystrobin (Benzeneacetic acid,.alpha.-(methoxyimino)-2-{{{{1- {3-(trifluoromethyl)phenyl}ethylidene}amino}oxy}me thyl}-, methyl ester, (E,E)-)

> <TS_CASRN>
141517-21-7

> <CASRN_ChemName_Relationship>
primary

> <TS_Description>
single chemical compound

> <ChemNote>


> <STRUCTURE_Shown>
tested chemical

> <STRUCTURE_Formula>
C20H19F3N2O4

> <STRUCTURE_MW>
408.3711

> <STRUCTURE_ChemType>
defined organic

> <STRUCTURE_DefinedOrganicForm>
parent

> <STRUCTURE_IUPAC>
methyl (methoxyimino)(2-{[({1-[3-(trifluoromethyl)phenyl]ethylidene}amino)oxy]methyl}phenyl)acetate

> <STRUCTURE_SMILES>
FC(F)(F)c1cccc(c1)C(\C)=N\OCc2ccccc2C(=N\OC)/C(=O)OC

> <STRUCTURE_SMILES_Desalt>
FC(F)(F)c1cccc(c1)C(\C)=N\OCc2ccccc2C(=N\OC)/C(=O)OC

> <Substance_modify_yyyymmdd>
20080429

$$$$
