141505-33-1
ChemmineR-0915142007XD

 21 22  0  0  1  0  0  0  0  0  1 V2000
    3.9894    0.0000    0.0000 C   0  0  0  0  0  0  0  0  0  0  0  0
    3.3203   -1.1488    0.0000 C   0  0  0  0  0  0  0  0  0  0  0  0
    3.9894   -2.3103    0.0000 C   0  0  0  0  0  0  0  0  0  0  0  0
    3.3203   -3.4592    0.0000 N   0  0  0  0  0  0  0  0  0  0  0  0
    1.9947   -3.4592    0.0000 N   0  0  0  0  0  0  0  0  0  0  0  0
    1.3256   -2.3103    0.0000 C   0  0  0  0  0  0  0  0  0  0  0  0
    0.0000   -2.3103    0.0000 O   0  0  0  0  0  0  0  0  0  0  0  0
    1.9947   -1.1488    0.0000 C   0  0  0  0  0  0  0  0  0  0  0  0
    5.3276   -2.3103    0.0000 C   0  0  0  0  0  0  0  0  0  0  0  0
    5.9715   -1.1488    0.0000 C   0  0  0  0  0  0  0  0  0  0  0  0
    7.2971   -1.1488    0.0000 C   0  0  0  0  0  0  0  0  0  0  0  0
    7.9788   -2.3103    0.0000 C   0  0  0  0  0  0  0  0  0  0  0  0
    9.3044   -2.3103    0.0000 N   0  0  0  0  0  0  0  0  0  0  0  0
    9.9735   -3.4592    0.0000 N   0  0  0  0  0  0  0  0  0  0  0  0
   11.2991   -3.4592    0.0000 C   0  0  0  0  0  0  0  0  0  0  0  0
   11.9555   -4.6080    0.0000 C   0  0  0  0  0  0  0  0  0  0  0  0
   12.6247   -5.7568    0.0000 N   0  0  0  0  0  0  0  0  0  0  0  0
   11.9555   -2.3103    0.0000 C   0  0  0  0  0  0  0  0  0  0  0  0
   12.6247   -1.1488    0.0000 N   0  0  0  0  0  0  0  0  0  0  0  0
    7.2971   -3.4592    0.0000 C   0  0  0  0  0  0  0  0  0  0  0  0
    5.9715   -3.4592    0.0000 C   0  0  0  0  0  0  0  0  0  0  0  0
  2  1  1  1  0  0  0
  2  3  1  0  0  0  0
  2  8  1  0  0  0  0
  3  4  2  0  0  0  0
  3  9  1  0  0  0  0
  4  5  1  0  0  0  0
  5  6  1  0  0  0  0
  6  7  2  0  0  0  0
  6  8  1  0  0  0  0
  9 10  2  0  0  0  0
  9 21  1  0  0  0  0
 10 11  1  0  0  0  0
 11 12  2  0  0  0  0
 12 13  1  0  0  0  0
 12 20  1  0  0  0  0
 13 14  1  0  0  0  0
 14 15  2  0  0  0  0
 15 16  1  0  0  0  0
 15 18  1  0  0  0  0
 16 17  3  0  0  0  0
 18 19  3  0  0  0  0
 20 21  2  0  0  0  0
M  END
> <ID>
11686

> <Formula>
C14H12N6O

> <FW>
280.2847

> <DSSTox_CID>
26445

> <DSSTox_RID>
81620

> <DSSTox_GSID>
46445

> <DSSTox_FileID_Sort>
6301

> <TS_ChemName>
Levosimendan

> <TS_ChemName_Synonyms>


> <TS_CASRN>
141505-33-1

> <CASRN_ChemName_Relationship>
primary

> <TS_Description>
single chemical compound

> <ChemNote>
stereochem; tautomers

> <STRUCTURE_Shown>
tested chemical

> <STRUCTURE_Formula>
C14H12N6O

> <STRUCTURE_MW>
280.2847

> <STRUCTURE_ChemType>
defined organic

> <STRUCTURE_DefinedOrganicForm>
parent

> <STRUCTURE_IUPAC>
(2-{4-[(4R)-4-methyl-6-oxo-1,4,5,6-tetrahydropyridazin-3-yl]phenyl}hydrazinylidene)propanedinitrile

> <STRUCTURE_SMILES>
N#C/C(C#N)=N\Nc1ccc(cc1)C2=NNC(=O)C[C@H]2C

> <STRUCTURE_SMILES_Desalt>
N#C/C(C#N)=N\Nc1ccc(cc1)C2=NNC(=O)C[C@H]2C

> <Substance_modify_yyyymmdd>
20110813

$$$$
