141626-36-0
ChemmineR-0915142007XD

 39 41  0  0  0  0  0  0  0  0  1 V2000
    5.7118   -1.6738    0.0000 C   0  0  0  0  0  0  0  0  0  0  0  0
    5.7118   -2.9919    0.0000 C   0  0  0  0  0  0  0  0  0  0  0  0
    4.6030   -0.9624    0.0000 C   0  0  0  0  0  0  0  0  0  0  0  0
    4.6030   -3.6196    0.0000 C   0  0  0  0  0  0  0  0  0  0  0  0
    3.4731   -1.6738    0.0000 C   0  0  0  0  0  0  0  0  0  0  0  0
    3.4731   -2.9919    0.0000 C   0  0  0  0  0  0  0  0  0  0  0  0
    6.9881   -1.2554    0.0000 O   0  0  0  0  0  0  0  0  0  0  0  0
    7.8041   -2.3015    0.0000 C   0  0  0  0  0  0  0  0  0  0  0  0
    6.9881   -3.4104    0.0000 C   0  0  0  0  0  0  0  0  0  0  0  0
    9.1431   -2.3015    0.0000 C   0  0  0  0  0  0  0  0  0  0  0  0
    9.7499   -1.1717    0.0000 C   0  0  0  0  0  0  0  0  0  0  0  0
   11.0889   -1.1717    0.0000 C   0  0  0  0  0  0  0  0  0  0  0  0
   11.7794    0.0000    0.0000 C   0  0  0  0  0  0  0  0  0  0  0  0
    7.6576   -4.6030    0.0000 C   0  0  0  0  0  0  0  0  0  0  0  0
    6.9881   -5.7118    0.0000 O   0  0  0  0  0  0  0  0  0  0  0  0
    8.9967   -4.6030    0.0000 C   0  0  0  0  0  0  0  0  0  0  0  0
    9.6244   -3.4104    0.0000 C   0  0  0  0  0  0  0  0  0  0  0  0
    9.6244   -5.7118    0.0000 C   0  0  0  0  0  0  0  0  0  0  0  0
   11.0262   -3.4104    0.0000 C   0  0  0  0  0  0  0  0  0  0  0  0
   11.0262   -5.7118    0.0000 C   0  0  0  0  0  0  0  0  0  0  0  0
   11.6329   -4.6030    0.0000 C   0  0  0  0  0  0  0  0  0  0  0  0
   12.9720   -4.6030    0.0000 O   0  0  0  0  0  0  0  0  0  0  0  0
   13.5996   -3.4104    0.0000 C   0  0  0  0  0  0  0  0  0  0  0  0
   15.0014   -3.4104    0.0000 C   0  0  0  0  0  0  0  0  0  0  0  0
   15.6291   -2.3015    0.0000 C   0  0  0  0  0  0  0  0  0  0  0  0
   16.9472   -2.3015    0.0000 N   0  0  0  0  0  0  0  0  0  0  0  0
   17.6586   -1.1089    0.0000 C   0  0  0  0  0  0  0  0  0  0  0  0
   17.6586   -3.4104    0.0000 C   0  0  0  0  0  0  0  0  0  0  0  0
   18.9767   -1.1089    0.0000 C   0  0  0  0  0  0  0  0  0  0  0  0
   19.6044    0.0000    0.0000 C   0  0  0  0  0  0  0  0  0  0  0  0
   20.9225    0.0000    0.0000 C   0  0  0  0  0  0  0  0  0  0  0  0
   18.9767   -3.4104    0.0000 C   0  0  0  0  0  0  0  0  0  0  0  0
   19.6044   -4.6030    0.0000 C   0  0  0  0  0  0  0  0  0  0  0  0
   20.9225   -4.6030    0.0000 C   0  0  0  0  0  0  0  0  0  0  0  0
    2.3015   -3.6196    0.0000 N   0  0  0  0  0  0  0  0  0  0  0  0
    1.1717   -2.9919    0.0000 S   0  0  0  0  0  0  0  0  0  0  0  0
    0.4812   -4.1217    0.0000 O   0  0  0  0  0  0  0  0  0  0  0  0
    1.7993   -1.7993    0.0000 O   0  0  0  0  0  0  0  0  0  0  0  0
    0.0000   -2.3015    0.0000 C   0  0  0  0  0  0  0  0  0  0  0  0
  1  3  2  0  0  0  0
  1  7  1  0  0  0  0
  1  2  1  0  0  0  0
  2  4  2  0  0  0  0
  2  9  1  0  0  0  0
  3  5  1  0  0  0  0
  4  6  1  0  0  0  0
  5  6  2  0  0  0  0
  6 35  1  0  0  0  0
  7  8  1  0  0  0  0
  8  9  2  0  0  0  0
  8 10  1  0  0  0  0
  9 14  1  0  0  0  0
 10 11  1  0  0  0  0
 11 12  1  0  0  0  0
 12 13  1  0  0  0  0
 14 15  2  0  0  0  0
 14 16  1  0  0  0  0
 16 17  1  0  0  0  0
 16 18  2  0  0  0  0
 17 19  2  0  0  0  0
 18 20  1  0  0  0  0
 19 21  1  0  0  0  0
 20 21  2  0  0  0  0
 21 22  1  0  0  0  0
 22 23  1  0  0  0  0
 23 24  1  0  0  0  0
 24 25  1  0  0  0  0
 25 26  1  0  0  0  0
 26 27  1  0  0  0  0
 26 28  1  0  0  0  0
 27 29  1  0  0  0  0
 28 32  1  0  0  0  0
 29 30  1  0  0  0  0
 30 31  1  0  0  0  0
 32 33  1  0  0  0  0
 33 34  1  0  0  0  0
 35 36  1  0  0  0  0
 36 37  2  0  0  0  0
 36 38  2  0  0  0  0
 36 39  1  0  0  0  0
M  END
> <ID>
13648

> <Formula>
C31H44N2O5S

> <FW>
556.7565

> <DSSTox_CID>
28579

> <DSSTox_RID>
82850

> <DSSTox_GSID>
48653

> <DSSTox_FileID_Sort>
7527

> <TS_ChemName>
Dronedarone

> <TS_ChemName_Synonyms>


> <TS_CASRN>
141626-36-0

> <CASRN_ChemName_Relationship>
primary

> <TS_Description>
single chemical compound

> <ChemNote>


> <STRUCTURE_Shown>
tested chemical

> <STRUCTURE_Formula>
C31H44N2O5S

> <STRUCTURE_MW>
556.7565

> <STRUCTURE_ChemType>
defined organic

> <STRUCTURE_DefinedOrganicForm>
parent

> <STRUCTURE_IUPAC>
N-(2-butyl-3-{4-[3-(dibutylamino)propoxy]benzoyl}-1-benzofuran-5-yl)methanesulfonamide

> <STRUCTURE_SMILES>
CCCCN(CCCC)CCCOc1ccc(cc1)C(=O)c2c3cc(ccc3oc2CCCC)NS(C)(=O)=O

> <STRUCTURE_SMILES_Desalt>
CCCCN(CCCC)CCCOc1ccc(cc1)C(=O)c2c3cc(ccc3oc2CCCC)NS(C)(=O)=O

> <Substance_modify_yyyymmdd>
20111204

$$$$
