14176-50-2
ChemmineR-0915142007XD

 16 16  0  0  0  0  0  0  0  0  1 V2000
    2.6693   -2.6569    0.0000 C    0  0  0  0  0  0  0  0  0  0  0  0
    3.8239   -3.3273    0.0000 C    0  0  0  0  0  0  0  0  0  0  0  0
    1.9989   -1.5023    0.0000 C    0  0  0  0  0  0  0  0  0  0  0  0
    1.9989   -3.8115    0.0000 C    0  0  0  0  0  0  0  0  0  0  0  0
    3.8239   -1.9989    0.0000 N    0  0  0  0  0  0  0  0  0  0  0  0
    3.9667   -4.6433    0.0000 C    0  0  0  0  0  0  0  0  0  0  0  0
    5.0406   -2.7872    0.0000 S    0  0  0  0  0  0  0  0  0  0  0  0
    0.6704   -1.5023    0.0000 C    0  0  0  0  0  0  0  0  0  0  0  0
    2.6693   -0.3663    0.0000 O    0  0  0  0  0  0  0  0  0  0  0  0
    0.6704   -3.8115    0.0000 C    0  0  0  0  0  0  0  0  0  0  0  0
    3.8239   -0.6704    0.0000 C    0  0  0  0  0  0  0  0  0  0  0  0
    5.2641   -4.9289    0.0000 C    0  0  0  0  0  0  0  0  0  0  0  0
    5.9221   -3.7743    0.0000 C    0  0  0  0  0  0  0  0  0  0  0  0
    0.0000   -2.6569    0.0000 C    0  0  0  0  0  0  0  0  0  0  0  0
    4.9786    0.0000    0.0000 C    0  0  0  0  0  0  0  0  0  0  0  0
    6.2077   -1.7133    0.0000 Cl   0  0  0  0  0  0  0  0  0  0  0  0
  1  2  1  0  0  0  0
  1  3  1  0  0  0  0
  1  4  1  0  0  0  0
  1  5  1  0  0  0  0
  2  6  2  0  0  0  0
  2  7  1  0  0  0  0
  3  8  1  0  0  0  0
  3  9  2  0  0  0  0
  4 10  1  0  0  0  0
  5 11  1  0  0  0  0
  6 12  1  0  0  0  0
  7 13  1  0  0  0  0
  8 14  1  0  0  0  0
 10 14  1  0  0  0  0
 11 15  1  0  0  0  0
 12 13  2  0  0  0  0
M  END
> <ID>
11009

> <Formula>
C12H18ClNOS

> <FW>
259.7954 (223.3345+36.4609)

> <DSSTox_CID>
25539

> <DSSTox_RID>
80941

> <DSSTox_GSID>
45539

> <DSSTox_FileID_Sort>
5622

> <TS_ChemName>
Tiletamine hydrochloride

> <TS_ChemName_Synonyms>


> <TS_CASRN>
14176-50-2

> <CASRN_ChemName_Relationship>
primary

> <TS_Description>
single chemical compound

> <ChemNote>
parent [14176-49-9]

> <STRUCTURE_Shown>
tested chemical

> <STRUCTURE_Formula>
C12H18ClNOS

> <STRUCTURE_MW>
259.7954

> <STRUCTURE_ChemType>
defined organic

> <STRUCTURE_DefinedOrganicForm>
complex

> <STRUCTURE_IUPAC>
2-(ethylamino)-2-(thiophen-2-yl)cyclohexanone hydrochloride (1:1)

> <STRUCTURE_SMILES>
Cl.O=C2CCCCC2(NCC)c1cccs1

> <STRUCTURE_SMILES_Desalt>
O=C2CCCCC2(NCC)c1cccs1

> <Substance_modify_yyyymmdd>
20100107

$$$$
