141845-82-1
ChemmineR-0915142007XD

 43 48  0  0  1  0  0  0  0  0  1 V2000
    6.9048   -6.3781    0.0000 C   0  0  0  0  0  0  0  0  0  0  0  0
    6.9048   -7.6736    0.0000 C   0  0  0  0  0  0  0  0  0  0  0  0
    4.5842   -7.6736    0.0000 C   0  0  0  0  0  0  0  0  0  0  0  0
    5.7516   -8.3285    0.0000 C   0  0  0  0  0  0  0  0  0  0  0  0
    3.4453   -8.3285    0.0000 C   0  0  0  0  0  0  0  0  0  0  0  0
    8.1434   -5.9652    0.0000 C   0  0  0  0  0  0  0  0  0  0  0  0
    5.7516   -5.7089    0.0000 C   0  0  0  0  0  0  0  0  0  0  0  0
    4.5842   -6.3781    0.0000 C   0  0  0  0  0  0  0  0  0  0  0  0
    8.1434   -8.1007    0.0000 C   0  0  0  0  0  0  0  0  0  0  0  0
    8.9122   -7.0330    0.0000 C   0  0  0  0  0  0  0  0  0  0  0  0
    5.7516   -9.6668    0.0000 C   0  0  0  0  0  0  0  0  0  0  0  0
    3.4453   -9.6668    0.0000 C   0  0  0  0  0  0  0  0  0  0  0  0
    4.5842  -10.3216    0.0000 C   0  0  0  0  0  0  0  0  0  0  0  0
    6.9048   -5.0256    0.0000 C   0  0  0  0  0  0  0  0  0  0  0  0
    3.4453   -7.0187    0.0000 C   0  0  0  0  0  0  0  0  0  0  0  0
    2.3206   -7.6736    0.0000 C   0  0  0  0  0  0  0  0  0  0  0  0
    2.3206  -10.3216    0.0000 C   0  0  0  0  0  0  0  0  0  0  0  0
    1.1674   -8.3285    0.0000 C   0  0  0  0  0  0  0  0  0  0  0  0
    1.1674   -9.6668    0.0000 C   0  0  0  0  0  0  0  0  0  0  0  0
    6.9048   -9.0119    0.0000 H   0  0  0  0  0  0  0  0  0  0  0  0
    5.7659   -7.0045    0.0000 H   0  0  0  0  0  0  0  0  0  0  0  0
    4.5842   -9.0119    0.0000 H   0  0  0  0  0  0  0  0  0  0  0  0
    9.2254   -4.9544    0.0000 O   0  0  0  0  0  0  0  0  0  0  0  0
    3.4453   -5.7089    0.0000 O   0  0  0  0  0  0  0  0  0  0  0  0
   10.1223   -7.0330    0.0000 O   0  0  0  0  0  0  0  0  0  0  0  0
    8.1434   -4.6412    0.0000 C   0  0  0  0  0  0  0  0  0  0  0  0
    9.2824   -3.9721    0.0000 C   0  0  0  0  0  0  0  0  0  0  0  0
    9.2824   -2.6480    0.0000 O   0  0  0  0  0  0  0  0  0  0  0  0
    0.0000  -10.3359    0.0000 O   0  0  0  0  0  0  0  0  0  0  0  0
    7.0045   -3.9863    0.0000 O   0  0  0  0  0  0  0  0  0  0  0  0
   10.4925   -5.6805    0.0000 C   0  0  0  0  0  0  0  0  0  0  0  0
   11.7311   -5.2391    0.0000 C   0  0  0  0  0  0  0  0  0  0  0  0
   11.9731   -3.9293    0.0000 C   0  0  0  0  0  0  0  0  0  0  0  0
   12.7419   -6.1076    0.0000 C   0  0  0  0  0  0  0  0  0  0  0  0
   13.2117   -3.4880    0.0000 C   0  0  0  0  0  0  0  0  0  0  0  0
   13.9805   -5.6662    0.0000 C   0  0  0  0  0  0  0  0  0  0  0  0
   14.2367   -4.3564    0.0000 C   0  0  0  0  0  0  0  0  0  0  0  0
   10.4213   -0.6691    0.0000 C   0  0  0  0  0  0  0  0  0  0  0  0
    9.2824    0.0000    0.0000 C   0  0  0  0  0  0  0  0  0  0  0  0
   11.5887    0.0000    0.0000 C   0  0  0  0  0  0  0  0  0  0  0  0
   10.4213   -1.9931    0.0000 C   0  0  0  0  0  0  0  0  0  0  0  0
   11.5887   -2.6480    0.0000 O   0  0  0  0  0  0  0  0  0  0  0  0
    9.5671   -8.1861    0.0000 H   0  0  0  0  0  0  0  0  0  0  0  0
  1  2  1  0  0  0  0
  1  6  1  0  0  0  0
  1  7  1  0  0  0  0
  1 14  1  1  0  0  0
  2  4  1  0  0  0  0
  2  9  1  0  0  0  0
  2 20  1  6  0  0  0
  3  8  1  0  0  0  0
  3  5  1  0  0  0  0
  3  4  1  0  0  0  0
  3 22  1  6  0  0  0
  4 11  1  0  0  0  0
  4 21  1  1  0  0  0
  5 12  1  0  0  0  0
  5 15  1  1  0  0  0
  5 16  1  0  0  0  0
  6 10  1  0  0  0  0
  6 23  1  6  0  0  0
  6 26  1  1  0  0  0
  7  8  1  0  0  0  0
  8 24  1  1  0  0  0
  9 10  1  0  0  0  0
 10 25  1  0  0  0  0
 10 43  1  1  0  0  0
 11 13  1  0  0  0  0
 12 17  2  0  0  0  0
 12 13  1  0  0  0  0
 16 18  2  0  0  0  0
 17 19  1  0  0  0  0
 18 19  1  0  0  0  0
 19 29  2  0  0  0  0
 23 31  1  0  0  0  0
 25 31  1  0  0  0  0
 26 27  1  0  0  0  0
 26 30  2  0  0  0  0
 27 28  1  0  0  0  0
 28 41  1  0  0  0  0
 31 32  1  6  0  0  0
 32 33  1  0  0  0  0
 32 34  1  0  0  0  0
 33 35  1  0  0  0  0
 34 36  1  0  0  0  0
 35 37  1  0  0  0  0
 36 37  1  0  0  0  0
 38 39  1  0  0  0  0
 38 40  1  0  0  0  0
 38 41  1  0  0  0  0
 41 42  2  0  0  0  0
M  END
> <ID>
11867

> <Formula>
C32H44O7

> <FW>
540.6876

> <DSSTox_CID>
26659

> <DSSTox_RID>
81802

> <DSSTox_GSID>
46659

> <DSSTox_FileID_Sort>
6483

> <TS_ChemName>
Ciclesonide

> <TS_ChemName_Synonyms>


> <TS_CASRN>
141845-82-1

> <CASRN_ChemName_Relationship>
primary

> <TS_Description>
single chemical compound

> <ChemNote>
stereochem; tautomers

> <STRUCTURE_Shown>
tested chemical

> <STRUCTURE_Formula>
C32H44O7

> <STRUCTURE_MW>
540.6876

> <STRUCTURE_ChemType>
defined organic

> <STRUCTURE_DefinedOrganicForm>
parent

> <STRUCTURE_IUPAC>
2-[(4aR,4bS,5S,6aS,6bS,8R,9aR,10aS,10bS)-8-cyclohexyl-5-hydroxy-4a,6a-dimethyl-2-oxo-2,4a,4b,5,6,6a,9a,10,10a,10b,11,12-dodecahydro-6bH-naphtho[2',1':4,5]indeno[1,2-d][1,3]dioxol-6b-yl]-2-oxoethyl 2-methylpropanoate

> <STRUCTURE_SMILES>
CC(C)C(=O)OCC(=O)[C@]35O[C@@H](O[C@@H]5C[C@H]2[C@@H]4CCC1=CC(=O)C=C[C@]1(C)[C@H]4[C@@H](O)C[C@@]23C)C6CCCCC6

> <STRUCTURE_SMILES_Desalt>
CC(C)C(=O)OCC(=O)[C@]35O[C@@H](O[C@@H]5C[C@H]2[C@@H]4CCC1=CC(=O)C=C[C@]1(C)[C@H]4[C@@H](O)C[C@@]23C)C6CCCCC6

> <Substance_modify_yyyymmdd>
20110808

$$$$
