142-84-7
ChemmineR-0915142007XD

  7  6  0  0  0  0  0  0  0  0  1 V2000
    3.4575    0.0000    0.0000 N   0  0  0  0  0  0  0  0  0  0  0  0
    2.3027   -0.6638    0.0000 C   0  0  0  0  0  0  0  0  0  0  0  0
    1.1548    0.0000    0.0000 C   0  0  0  0  0  0  0  0  0  0  0  0
    0.0000   -0.6638    0.0000 C   0  0  0  0  0  0  0  0  0  0  0  0
    4.6122   -0.6638    0.0000 C   0  0  0  0  0  0  0  0  0  0  0  0
    5.7601    0.0000    0.0000 C   0  0  0  0  0  0  0  0  0  0  0  0
    6.9149   -0.6638    0.0000 C   0  0  0  0  0  0  0  0  0  0  0  0
  1  2  1  0  0  0  0
  1  5  1  0  0  0  0
  2  3  1  0  0  0  0
  3  4  1  0  0  0  0
  5  6  1  0  0  0  0
  6  7  1  0  0  0  0
M  END
> <ID>
4066

> <Formula>
C6H15N

> <FW>
101.19

> <DSSTox_CID>
5185

> <DSSTox_RID>
77699

> <DSSTox_GSID>
25185

> <DSSTox_FileID_Sort>
2382

> <TS_ChemName>
Dipropylamine

> <TS_ChemName_Synonyms>
Dipropylamine (Di-n-propylamine) (1-Propanamine, N-propyl-)

> <TS_CASRN>
142-84-7

> <CASRN_ChemName_Relationship>
primary

> <TS_Description>
single chemical compound

> <ChemNote>


> <STRUCTURE_Shown>
tested chemical

> <STRUCTURE_Formula>
C6H15N

> <STRUCTURE_MW>
101.19

> <STRUCTURE_ChemType>
defined organic

> <STRUCTURE_DefinedOrganicForm>
parent

> <STRUCTURE_IUPAC>
N-propylpropan-1-amine

> <STRUCTURE_SMILES>
CCCNCCC

> <STRUCTURE_SMILES_Desalt>
CCCNCCC

> <Substance_modify_yyyymmdd>
20080429

$$$$
