142-73-4
ChemmineR-0915142007XD

  9  8  0  0  0  0  0  0  0  0  1 V2000
    5.7662   -0.6853    0.0000 C   0  0  0  0  0  0  0  0  0  0  0  0
    5.7662   -2.0213    0.0000 O   0  0  0  0  0  0  0  0  0  0  0  0
    6.9223   -0.0138    0.0000 O   0  0  0  0  0  0  0  0  0  0  0  0
    3.4542   -0.6715    0.0000 N   0  0  0  0  0  0  0  0  0  0  0  0
    4.6102   -0.0138    0.0000 C   0  0  0  0  0  0  0  0  0  0  0  0
    2.3120   -0.0138    0.0000 C   0  0  0  0  0  0  0  0  0  0  0  0
    1.1422   -0.6576    0.0000 C   0  0  0  0  0  0  0  0  0  0  0  0
    0.0000    0.0000    0.0000 O   0  0  0  0  0  0  0  0  0  0  0  0
    1.1422   -1.9867    0.0000 O   0  0  0  0  0  0  0  0  0  0  0  0
  1  2  2  0  0  0  0
  1  3  1  0  0  0  0
  1  5  1  0  0  0  0
  4  5  1  0  0  0  0
  4  6  1  0  0  0  0
  6  7  1  0  0  0  0
  7  8  2  0  0  0  0
  7  9  1  0  0  0  0
M  END
> <ID>
4932

> <Formula>
C4H7NO4

> <FW>
133.1027

> <DSSTox_CID>
7098

> <DSSTox_RID>
78309

> <DSSTox_GSID>
27098

> <DSSTox_FileID_Sort>
2992

> <TS_ChemName>
Glycine, N-(carboxymethyl)-

> <TS_ChemName_Synonyms>


> <TS_CASRN>
142-73-4

> <CASRN_ChemName_Relationship>
primary

> <TS_Description>
single chemical compound

> <ChemNote>


> <STRUCTURE_Shown>
tested chemical

> <STRUCTURE_Formula>
C4H7NO4

> <STRUCTURE_MW>
133.1027

> <STRUCTURE_ChemType>
defined organic

> <STRUCTURE_DefinedOrganicForm>
parent

> <STRUCTURE_IUPAC>
2,2'-iminodiacetic acid

> <STRUCTURE_SMILES>
O=C(O)CNCC(=O)O

> <STRUCTURE_SMILES_Desalt>
O=C(O)CNCC(=O)O

> <Substance_modify_yyyymmdd>
20080429

$$$$
