142-87-0
ChemmineR-0915142007XD

 16 14  0  0  0  0  0  0  0  0  2 V2000
    1.1610   -2.1700    0.0000 S    0  0  0  0  0  0  0  0  0  0  0  0
    0.0000   -2.8472    0.0000 O    0  0  0  0  0  0  0  0  0  0  0  0
    1.8106   -3.3310    0.0000 O    0  0  0  0  0  0  0  0  0  0  0  0
    0.4838   -1.0228    0.0000 O    0  5  0  0  0  0  0  0  0  0  0  0
    2.2944   -1.5065    0.0000 O    0  0  0  0  0  0  0  0  0  0  0  0
    3.4416   -2.1700    0.0000 C    0  0  0  0  0  0  0  0  0  0  0  0
    4.6026   -1.5065    0.0000 C    0  0  0  0  0  0  0  0  0  0  0  0
    5.7498   -2.1700    0.0000 C    0  0  0  0  0  0  0  0  0  0  0  0
    6.9108   -1.5065    0.0000 C    0  0  0  0  0  0  0  0  0  0  0  0
    8.0718   -2.1700    0.0000 C    0  0  0  0  0  0  0  0  0  0  0  0
    9.2190   -1.5065    0.0000 C    0  0  0  0  0  0  0  0  0  0  0  0
   10.3800   -2.1700    0.0000 C    0  0  0  0  0  0  0  0  0  0  0  0
   11.5272   -1.5065    0.0000 C    0  0  0  0  0  0  0  0  0  0  0  0
   12.6605   -2.1700    0.0000 C    0  0  0  0  0  0  0  0  0  0  0  0
   13.8215   -1.5065    0.0000 C    0  0  0  0  0  0  0  0  0  0  0  0
    2.0871    0.0000    0.0000 Na   0  3  0  0  0  0  0  0  0  0  0  0
  1  2  2  0  0  0  0
  1  3  2  0  0  0  0
  1  4  1  0  0  0  0
  1  5  1  0  0  0  0
  5  6  1  0  0  0  0
  6  7  1  0  0  0  0
  7  8  1  0  0  0  0
  8  9  1  0  0  0  0
  9 10  1  0  0  0  0
 10 11  1  0  0  0  0
 11 12  1  0  0  0  0
 12 13  1  0  0  0  0
 13 14  1  0  0  0  0
 14 15  1  0  0  0  0
M  END
> <ID>
7103

> <Formula>
C10H21NaO4S

> <FW>
260.3261 (237.3369+22.9892)

> <DSSTox_CID>
16229

> <DSSTox_RID>
79275

> <DSSTox_GSID>
36229

> <DSSTox_FileID_Sort>
3957

> <TS_ChemName>
Sodium decyl sulfate

> <TS_ChemName_Synonyms>


> <TS_CASRN>
142-87-0

> <CASRN_ChemName_Relationship>
primary

> <TS_Description>
single chemical compound

> <ChemNote>
parent [142-98-3]

> <STRUCTURE_Shown>
tested chemical

> <STRUCTURE_Formula>
C10H21NaO4S

> <STRUCTURE_MW>
260.3261

> <STRUCTURE_ChemType>
defined organic

> <STRUCTURE_DefinedOrganicForm>
salt

> <STRUCTURE_IUPAC>
sodium decyl sulfate

> <STRUCTURE_SMILES>
[Na+].[O-]S(=O)(=O)OCCCCCCCCCC

> <STRUCTURE_SMILES_Desalt>
OS(=O)(=O)OCCCCCCCCCC

> <Substance_modify_yyyymmdd>
20080429

$$$$
