142-03-0
ChemmineR-0915142007XD

 10  9  0  0  0  0  0  0  0  0  1 V2000
    3.4715   -0.6596    0.0000 Al   0  0  0  0  0  0  0  0  0  0  0  0
    1.1595   -0.6596    0.0000 C    0  0  0  0  0  0  0  0  0  0  0  0
    1.1595   -1.9857    0.0000 O    0  0  0  0  0  0  0  0  0  0  0  0
    2.3120    0.0000    0.0000 O    0  0  0  0  0  0  0  0  0  0  0  0
    0.0000    0.0000    0.0000 C    0  0  0  0  0  0  0  0  0  0  0  0
    5.7835   -0.6596    0.0000 C    0  0  0  0  0  0  0  0  0  0  0  0
    5.7835   -1.9857    0.0000 O    0  0  0  0  0  0  0  0  0  0  0  0
    4.6171    0.0000    0.0000 O    0  0  0  0  0  0  0  0  0  0  0  0
    6.9430    0.0000    0.0000 C    0  0  0  0  0  0  0  0  0  0  0  0
    3.4715   -1.9857    0.0000 O    0  0  0  0  0  0  0  0  0  0  0  0
  1  4  1  0  0  0  0
  1  8  1  0  0  0  0
  1 10  1  0  0  0  0
  2  3  2  0  0  0  0
  2  4  1  0  0  0  0
  2  5  1  0  0  0  0
  6  7  2  0  0  0  0
  6  8  1  0  0  0  0
  6  9  1  0  0  0  0
M  END
> <ID>
10206

> <Formula>
C4H7AlO5

> <FW>
162.0769

> <DSSTox_CID>
24552

> <DSSTox_RID>
80309

> <DSSTox_GSID>
44552

> <DSSTox_FileID_Sort>
4991

> <TS_ChemName>
Aluminum hydroxide acetate (1:1:2)

> <TS_ChemName_Synonyms>
Bis(acetato-O)hydroxyaluminium

> <TS_CASRN>
142-03-0

> <CASRN_ChemName_Relationship>
primary

> <TS_Description>
single chemical compound

> <ChemNote>


> <STRUCTURE_Shown>
tested chemical

> <STRUCTURE_Formula>
C4H7AlO5

> <STRUCTURE_MW>
162.0769

> <STRUCTURE_ChemType>
organometallic

> <STRUCTURE_DefinedOrganicForm>


> <STRUCTURE_IUPAC>
aluminium hydroxide acetate (1:1:2)

> <STRUCTURE_SMILES>
O[Al](OC(=O)C)OC(C)=O

> <STRUCTURE_SMILES_Desalt>
O[Al](OC(=O)C)OC(C)=O

> <Substance_modify_yyyymmdd>
20091116

$$$$
