142-26-7
ChemmineR-0915142007XD

  7  6  0  0  0  0  0  0  0  0  1 V2000
    4.6074   -1.3156    0.0000 C   0  0  0  0  0  0  0  0  0  0  0  0
    4.6074    0.0000    0.0000 O   0  0  0  0  0  0  0  0  0  0  0  0
    5.7448   -1.9877    0.0000 C   0  0  0  0  0  0  0  0  0  0  0  0
    3.4526   -1.9877    0.0000 N   0  0  0  0  0  0  0  0  0  0  0  0
    2.2922   -1.3156    0.0000 C   0  0  0  0  0  0  0  0  0  0  0  0
    1.1260   -2.0049    0.0000 C   0  0  0  0  0  0  0  0  0  0  0  0
    0.0000   -1.3328    0.0000 O   0  0  0  0  0  0  0  0  0  0  0  0
  1  2  2  0  0  0  0
  1  4  1  0  0  0  0
  1  3  1  0  0  0  0
  4  5  1  0  0  0  0
  5  6  1  0  0  0  0
  6  7  1  0  0  0  0
M  END
> <ID>
10454

> <Formula>
C4H9NO2

> <FW>
103.1198

> <DSSTox_CID>
24804

> <DSSTox_RID>
80488

> <DSSTox_GSID>
44804

> <DSSTox_FileID_Sort>
5170

> <TS_ChemName>
N-(2-Hydroxyethyl)acetamide

> <TS_ChemName_Synonyms>
N-(2-Hydroxyethyl)acetamide (Acetamide, N-(2-hydroxyethyl)-)

> <TS_CASRN>
142-26-7

> <CASRN_ChemName_Relationship>
primary

> <TS_Description>
single chemical compound

> <ChemNote>


> <STRUCTURE_Shown>
tested chemical

> <STRUCTURE_Formula>
C4H9NO2

> <STRUCTURE_MW>
103.1198

> <STRUCTURE_ChemType>
defined organic

> <STRUCTURE_DefinedOrganicForm>
parent

> <STRUCTURE_IUPAC>
N-(2-hydroxyethyl)acetamide

> <STRUCTURE_SMILES>
CC(=O)NCCO

> <STRUCTURE_SMILES_Desalt>
CC(=O)NCCO

> <Substance_modify_yyyymmdd>
20091116

$$$$
