142-31-4
ChemmineR-0915142007XD

 14 12  0  0  0  0  0  0  0  0  2 V2000
    1.1350   -2.7858    0.0000 S    0  0  0  0  0  0  0  0  0  0  0  0
    0.0000   -3.4507    0.0000 O    0  0  0  0  0  0  0  0  0  0  0  0
    1.7999   -3.9322    0.0000 O    0  0  0  0  0  0  0  0  0  0  0  0
    0.4815   -1.6279    0.0000 O    0  5  0  0  0  0  0  0  0  0  0  0
    2.2814   -2.1094    0.0000 O    0  0  0  0  0  0  0  0  0  0  0  0
    3.4278   -2.7858    0.0000 C    0  0  0  0  0  0  0  0  0  0  0  0
    4.5857   -2.1094    0.0000 C    0  0  0  0  0  0  0  0  0  0  0  0
    5.7321   -2.7858    0.0000 C    0  0  0  0  0  0  0  0  0  0  0  0
    6.8786   -2.1094    0.0000 C    0  0  0  0  0  0  0  0  0  0  0  0
    8.0365   -2.7858    0.0000 C    0  0  0  0  0  0  0  0  0  0  0  0
    9.1829   -2.1094    0.0000 C    0  0  0  0  0  0  0  0  0  0  0  0
   10.3293   -2.7858    0.0000 C    0  0  0  0  0  0  0  0  0  0  0  0
   11.4643   -2.1094    0.0000 C    0  0  0  0  0  0  0  0  0  0  0  0
    1.9145    0.0000    0.0000 Na   0  3  0  0  0  0  0  0  0  0  0  0
  1  2  2  0  0  0  0
  1  3  2  0  0  0  0
  1  4  1  0  0  0  0
  1  5  1  0  0  0  0
  5  6  1  0  0  0  0
  6  7  1  0  0  0  0
  7  8  1  0  0  0  0
  8  9  1  0  0  0  0
  9 10  1  0  0  0  0
 10 11  1  0  0  0  0
 11 12  1  0  0  0  0
 12 13  1  0  0  0  0
M  END
> <ID>
7102

> <Formula>
C8H17NaO4S

> <FW>
232.2729 (209.2837+22.9892)

> <DSSTox_CID>
16226

> <DSSTox_RID>
79274

> <DSSTox_GSID>
36226

> <DSSTox_FileID_Sort>
3956

> <TS_ChemName>
Sodium octyl sulfate

> <TS_ChemName_Synonyms>


> <TS_CASRN>
142-31-4

> <CASRN_ChemName_Relationship>
primary

> <TS_Description>
single chemical compound

> <ChemNote>
parent [110-11-2]

> <STRUCTURE_Shown>
tested chemical

> <STRUCTURE_Formula>
C8H17NaO4S

> <STRUCTURE_MW>
232.2729

> <STRUCTURE_ChemType>
defined organic

> <STRUCTURE_DefinedOrganicForm>
salt

> <STRUCTURE_IUPAC>
sodium octyl sulfate

> <STRUCTURE_SMILES>
[Na+].[O-]S(=O)(=O)OCCCCCCCC

> <STRUCTURE_SMILES_Desalt>
OS(=O)(=O)OCCCCCCCC

> <Substance_modify_yyyymmdd>
20080429

$$$$
