142-18-7
ChemmineR-0915142007XD

 19 18  0  0  0  0  0  0  0  0  1 V2000
    0.0000   -1.9985    0.0000 C   0  0  0  0  0  0  0  0  0  0  0  0
    1.1543   -1.3266    0.0000 C   0  0  0  0  0  0  0  0  0  0  0  0
    2.2914   -1.9985    0.0000 C   0  0  0  0  0  0  0  0  0  0  0  0
    3.4284   -1.3266    0.0000 C   0  0  0  0  0  0  0  0  0  0  0  0
    4.5827   -1.9985    0.0000 C   0  0  0  0  0  0  0  0  0  0  0  0
    5.7370   -1.3266    0.0000 C   0  0  0  0  0  0  0  0  0  0  0  0
    6.8913   -1.9985    0.0000 C   0  0  0  0  0  0  0  0  0  0  0  0
    8.0456   -1.3266    0.0000 C   0  0  0  0  0  0  0  0  0  0  0  0
    9.1827   -1.9985    0.0000 C   0  0  0  0  0  0  0  0  0  0  0  0
   10.3370   -1.3266    0.0000 C   0  0  0  0  0  0  0  0  0  0  0  0
   11.4740   -1.9985    0.0000 C   0  0  0  0  0  0  0  0  0  0  0  0
   16.0740   -3.3251    0.0000 C   0  0  0  0  0  0  0  0  0  0  0  0
   14.9197   -1.3266    0.0000 C   0  0  0  0  0  0  0  0  0  0  0  0
   16.0740   -1.9985    0.0000 C   0  0  0  0  0  0  0  0  0  0  0  0
   12.6283   -1.3266    0.0000 C   0  0  0  0  0  0  0  0  0  0  0  0
   14.9197   -3.9797    0.0000 O   0  0  0  0  0  0  0  0  0  0  0  0
   17.2283   -1.3266    0.0000 O   0  0  0  0  0  0  0  0  0  0  0  0
   12.6283    0.0000    0.0000 O   0  0  0  0  0  0  0  0  0  0  0  0
   13.7826   -1.9985    0.0000 O   0  0  0  0  0  0  0  0  0  0  0  0
  1  2  1  0  0  0  0
  2  3  1  0  0  0  0
  3  4  1  0  0  0  0
  4  5  1  0  0  0  0
  5  6  1  0  0  0  0
  6  7  1  0  0  0  0
  7  8  1  0  0  0  0
  8  9  1  0  0  0  0
  9 10  1  0  0  0  0
 10 11  1  0  0  0  0
 11 15  1  0  0  0  0
 12 14  1  0  0  0  0
 12 16  1  0  0  0  0
 13 14  1  0  0  0  0
 13 19  1  0  0  0  0
 14 17  1  0  0  0  0
 15 18  2  0  0  0  0
 15 19  1  0  0  0  0
M  END
> <ID>
8244

> <Formula>
C15H30O4

> <FW>
274.3963

> <DSSTox_CID>
21275

> <DSSTox_RID>
79676

> <DSSTox_GSID>
41275

> <DSSTox_FileID_Sort>
4358

> <TS_ChemName>
1-Monolaurin

> <TS_ChemName_Synonyms>
1-Lauroyl-rac-glycerol; 2,3-dihydroxypropyl dodecanoate

> <TS_CASRN>
142-18-7

> <CASRN_ChemName_Relationship>
primary

> <TS_Description>
single chemical compound

> <ChemNote>


> <STRUCTURE_Shown>
tested chemical

> <STRUCTURE_Formula>
C15H30O4

> <STRUCTURE_MW>
274.3963

> <STRUCTURE_ChemType>
defined organic

> <STRUCTURE_DefinedOrganicForm>
parent

> <STRUCTURE_IUPAC>
2,3-dihydroxypropyl dodecanoate

> <STRUCTURE_SMILES>
OCC(O)COC(=O)CCCCCCCCCCC

> <STRUCTURE_SMILES_Desalt>
OCC(O)COC(=O)CCCCCCCCCCC

> <Substance_modify_yyyymmdd>
20080825

$$$$
