142-28-9
ChemmineR-0915142007XD

  5  4  0  0  0  0  0  0  0  0  1 V2000
    0.0000   -0.6638    0.0000 Cl   0  0  0  0  0  0  0  0  0  0  0  0
    1.1525    0.0000    0.0000 C    0  0  0  0  0  0  0  0  0  0  0  0
    2.3050   -0.6638    0.0000 C    0  0  0  0  0  0  0  0  0  0  0  0
    3.4575    0.0000    0.0000 C    0  0  0  0  0  0  0  0  0  0  0  0
    4.6099   -0.6638    0.0000 Cl   0  0  0  0  0  0  0  0  0  0  0  0
  1  2  1  0  0  0  0
  2  3  1  0  0  0  0
  3  4  1  0  0  0  0
  4  5  1  0  0  0  0
M  END
> <ID>
1856

> <Formula>
C3H6Cl2

> <FW>
112.9857

> <DSSTox_CID>
2004

> <DSSTox_RID>
76454

> <DSSTox_GSID>
22004

> <DSSTox_FileID_Sort>
1138

> <TS_ChemName>
1,3-Dichloropropane

> <TS_ChemName_Synonyms>


> <TS_CASRN>
142-28-9

> <CASRN_ChemName_Relationship>
primary

> <TS_Description>
single chemical compound

> <ChemNote>


> <STRUCTURE_Shown>
tested chemical

> <STRUCTURE_Formula>
C3H6Cl2

> <STRUCTURE_MW>
112.9857

> <STRUCTURE_ChemType>
defined organic

> <STRUCTURE_DefinedOrganicForm>
parent

> <STRUCTURE_IUPAC>
1,3-dichloropropane

> <STRUCTURE_SMILES>
ClCCCCl

> <STRUCTURE_SMILES_Desalt>
ClCCCCl

> <Substance_modify_yyyymmdd>
20080429

$$$$
