142-72-3
ChemmineR-0915142007XD

  9  6  0  0  0  0  0  0  0  0  2 V2000
   10.2187   -1.6291    0.0000 C    0  0  0  0  0  0  0  0  0  0  0  0
   10.2187   -0.3076    0.0000 O    0  0  0  0  0  0  0  0  0  0  0  0
    9.0795   -2.2898    0.0000 O    0  5  0  0  0  0  0  0  0  0  0  0
   11.3921   -2.2898    0.0000 C    0  0  0  0  0  0  0  0  0  0  0  0
    5.0353   -0.2848    0.0000 Mg   0  2  0  0  0  0  0  0  0  0  0  0
    1.1734   -0.6607    0.0000 C    0  0  0  0  0  0  0  0  0  0  0  0
    1.1734   -1.9822    0.0000 O    0  0  0  0  0  0  0  0  0  0  0  0
    2.3240    0.0000    0.0000 O    0  5  0  0  0  0  0  0  0  0  0  0
    0.0000    0.0000    0.0000 C    0  0  0  0  0  0  0  0  0  0  0  0
  1  2  2  0  0  0  0
  1  3  1  0  0  0  0
  1  4  1  0  0  0  0
  6  7  2  0  0  0  0
  6  8  1  0  0  0  0
  6  9  1  0  0  0  0
M  END
> <ID>
4931

> <Formula>
C4H6MgO4

> <FW>
142.3930 (59.0446+24.3039+59.0446)

> <DSSTox_CID>
7097

> <DSSTox_RID>
78308

> <DSSTox_GSID>
27097

> <DSSTox_FileID_Sort>
2991

> <TS_ChemName>
Magnesium acetate

> <TS_ChemName_Synonyms>


> <TS_CASRN>
142-72-3

> <CASRN_ChemName_Relationship>
primary

> <TS_Description>
single chemical compound

> <ChemNote>
parent [64-19-7]

> <STRUCTURE_Shown>
tested chemical

> <STRUCTURE_Formula>
C4H6MgO4

> <STRUCTURE_MW>
142.393

> <STRUCTURE_ChemType>
organometallic

> <STRUCTURE_DefinedOrganicForm>


> <STRUCTURE_IUPAC>
magnesium diacetate

> <STRUCTURE_SMILES>
[Mg+2].[O-]C(C)=O.[O-]C(C)=O

> <STRUCTURE_SMILES_Desalt>
CC(=O)O

> <Substance_modify_yyyymmdd>
20080429

$$$$
