142-46-1
ChemmineR-0915142007XD

  8  7  0  0  0  0  0  0  0  0  1 V2000
    5.7628   -1.9939    0.0000 N   0  0  0  0  0  0  0  0  0  0  0  0
    4.6103   -1.3312    0.0000 C   0  0  0  0  0  0  0  0  0  0  0  0
    4.6103    0.0000    0.0000 S   0  0  0  0  0  0  0  0  0  0  0  0
    3.4577   -1.9939    0.0000 N   0  0  0  0  0  0  0  0  0  0  0  0
    2.3051   -1.3312    0.0000 N   0  0  0  0  0  0  0  0  0  0  0  0
    1.1526   -1.9939    0.0000 C   0  0  0  0  0  0  0  0  0  0  0  0
    1.1526   -3.3252    0.0000 S   0  0  0  0  0  0  0  0  0  0  0  0
    0.0000   -1.3312    0.0000 N   0  0  0  0  0  0  0  0  0  0  0  0
  1  2  1  0  0  0  0
  2  3  2  0  0  0  0
  2  4  1  0  0  0  0
  4  5  1  0  0  0  0
  5  6  1  0  0  0  0
  6  7  2  0  0  0  0
  6  8  1  0  0  0  0
M  END
> <ID>
524

> <Formula>
C2H6N4S2

> <FW>
150.2258

> <DSSTox_CID>
545

> <DSSTox_RID>
75652

> <DSSTox_GSID>
20545

> <DSSTox_FileID_Sort>
336

> <TS_ChemName>
2,5-Dithiobiurea

> <TS_ChemName_Synonyms>


> <TS_CASRN>
142-46-1

> <CASRN_ChemName_Relationship>
primary

> <TS_Description>
single chemical compound

> <ChemNote>


> <STRUCTURE_Shown>
tested chemical

> <STRUCTURE_Formula>
C2H6N4S2

> <STRUCTURE_MW>
150.2258

> <STRUCTURE_ChemType>
defined organic

> <STRUCTURE_DefinedOrganicForm>
parent

> <STRUCTURE_IUPAC>
hydrazine-1,2-dicarbothioamide

> <STRUCTURE_SMILES>
NC(=S)NNC(N)=S

> <STRUCTURE_SMILES_Desalt>
NC(=S)NNC(N)=S

> <Substance_modify_yyyymmdd>
20080429

$$$$
