142-91-6
ChemmineR-0915142007XD

 21 20  0  0  0  0  0  0  0  0  1 V2000
    3.4962   -1.4027    0.0000 C   0  0  0  0  0  0  0  0  0  0  0  0
    4.6685   -2.0307    0.0000 C   0  0  0  0  0  0  0  0  0  0  0  0
    5.8619   -1.4027    0.0000 C   0  0  0  0  0  0  0  0  0  0  0  0
    6.9714   -2.0307    0.0000 C   0  0  0  0  0  0  0  0  0  0  0  0
    8.1647   -1.4027    0.0000 C   0  0  0  0  0  0  0  0  0  0  0  0
    9.3580   -2.0307    0.0000 C   0  0  0  0  0  0  0  0  0  0  0  0
   10.4676   -1.4027    0.0000 C   0  0  0  0  0  0  0  0  0  0  0  0
   11.6400   -2.0307    0.0000 C   0  0  0  0  0  0  0  0  0  0  0  0
   12.8542   -1.4027    0.0000 C   0  0  0  0  0  0  0  0  0  0  0  0
   13.9638   -2.0307    0.0000 C   0  0  0  0  0  0  0  0  0  0  0  0
   15.1361   -1.4027    0.0000 C   0  0  0  0  0  0  0  0  0  0  0  0
   16.3294   -2.0307    0.0000 C   0  0  0  0  0  0  0  0  0  0  0  0
   17.4390   -1.4027    0.0000 C   0  0  0  0  0  0  0  0  0  0  0  0
   18.6323   -2.0307    0.0000 C   0  0  0  0  0  0  0  0  0  0  0  0
   19.8256   -1.4027    0.0000 C   0  0  0  0  0  0  0  0  0  0  0  0
   20.9352   -2.0307    0.0000 C   0  0  0  0  0  0  0  0  0  0  0  0
    3.4962    0.0000    0.0000 O   0  0  0  0  0  0  0  0  0  0  0  0
    2.3657   -2.0307    0.0000 O   0  0  0  0  0  0  0  0  0  0  0  0
    1.1724   -1.4027    0.0000 C   0  0  0  0  0  0  0  0  0  0  0  0
    0.0000   -2.0307    0.0000 C   0  0  0  0  0  0  0  0  0  0  0  0
    1.1724    0.0000    0.0000 C   0  0  0  0  0  0  0  0  0  0  0  0
  1  2  1  0  0  0  0
  1 18  1  0  0  0  0
  1 17  2  0  0  0  0
  2  3  1  0  0  0  0
  3  4  1  0  0  0  0
  4  5  1  0  0  0  0
  5  6  1  0  0  0  0
  6  7  1  0  0  0  0
  7  8  1  0  0  0  0
  8  9  1  0  0  0  0
  9 10  1  0  0  0  0
 10 11  1  0  0  0  0
 11 12  1  0  0  0  0
 12 13  1  0  0  0  0
 13 14  1  0  0  0  0
 14 15  1  0  0  0  0
 15 16  1  0  0  0  0
 18 19  1  0  0  0  0
 19 20  1  0  0  0  0
 19 21  1  0  0  0  0
M  END
> <ID>
4935

> <Formula>
C19H38O2

> <FW>
298.5038

> <DSSTox_CID>
7104

> <DSSTox_RID>
78312

> <DSSTox_GSID>
27104

> <DSSTox_FileID_Sort>
2995

> <TS_ChemName>
Hexadecanoic acid, 1-methylethyl ester

> <TS_ChemName_Synonyms>


> <TS_CASRN>
142-91-6

> <CASRN_ChemName_Relationship>
primary

> <TS_Description>
single chemical compound

> <ChemNote>


> <STRUCTURE_Shown>
tested chemical

> <STRUCTURE_Formula>
C19H38O2

> <STRUCTURE_MW>
298.5038

> <STRUCTURE_ChemType>
defined organic

> <STRUCTURE_DefinedOrganicForm>
parent

> <STRUCTURE_IUPAC>
propan-2-yl hexadecanoate

> <STRUCTURE_SMILES>
CC(C)OC(=O)CCCCCCCCCCCCCCC

> <STRUCTURE_SMILES_Desalt>
CC(C)OC(=O)CCCCCCCCCCCCCCC

> <Substance_modify_yyyymmdd>
20080429

$$$$
