142-16-5
ChemmineR-0915142007XD

 24 23  0  0  0  0  0  0  0  0  1 V2000
    1.1540   -7.3201    0.0000 C   0  0  0  0  0  0  0  0  0  0  0  0
    0.0000   -7.9763    0.0000 C   0  0  0  0  0  0  0  0  0  0  0  0
    0.0000   -9.3114    0.0000 C   0  0  0  0  0  0  0  0  0  0  0  0
    1.1540   -9.9789    0.0000 C   0  0  0  0  0  0  0  0  0  0  0  0
    2.3080   -7.9763    0.0000 O   0  0  0  0  0  0  0  0  0  0  0  0
    1.1540   -5.9964    0.0000 O   0  0  0  0  0  0  0  0  0  0  0  0
    1.1540  -11.3139    0.0000 O   0  0  0  0  0  0  0  0  0  0  0  0
    2.3080   -9.3114    0.0000 O   0  0  0  0  0  0  0  0  0  0  0  0
    2.3080   -5.3176    0.0000 C   0  0  0  0  0  0  0  0  0  0  0  0
    2.3080   -3.9938    0.0000 C   0  0  0  0  0  0  0  0  0  0  0  0
    1.1540   -3.3376    0.0000 C   0  0  0  0  0  0  0  0  0  0  0  0
    1.1540   -2.0026    0.0000 C   0  0  0  0  0  0  0  0  0  0  0  0
    0.0000   -1.3350    0.0000 C   0  0  0  0  0  0  0  0  0  0  0  0
    0.0000    0.0000    0.0000 C   0  0  0  0  0  0  0  0  0  0  0  0
    3.4621   -3.3376    0.0000 C   0  0  0  0  0  0  0  0  0  0  0  0
    3.4621   -2.0026    0.0000 C   0  0  0  0  0  0  0  0  0  0  0  0
    3.4621   -9.9789    0.0000 C   0  0  0  0  0  0  0  0  0  0  0  0
    4.6161   -9.3114    0.0000 C   0  0  0  0  0  0  0  0  0  0  0  0
    4.6161   -7.9763    0.0000 C   0  0  0  0  0  0  0  0  0  0  0  0
    5.7475   -7.3201    0.0000 C   0  0  0  0  0  0  0  0  0  0  0  0
    5.7475   -5.9964    0.0000 C   0  0  0  0  0  0  0  0  0  0  0  0
    6.9015   -5.3176    0.0000 C   0  0  0  0  0  0  0  0  0  0  0  0
    5.7475   -9.9789    0.0000 C   0  0  0  0  0  0  0  0  0  0  0  0
    6.9015   -9.3114    0.0000 C   0  0  0  0  0  0  0  0  0  0  0  0
  1  2  1  0  0  0  0
  1  6  1  0  0  0  0
  1  5  2  0  0  0  0
  2  3  2  0  0  0  0
  3  4  1  0  0  0  0
  4  8  1  0  0  0  0
  4  7  2  0  0  0  0
  6  9  1  0  0  0  0
  8 17  1  0  0  0  0
  9 10  1  0  0  0  0
 10 11  1  0  0  0  0
 10 15  1  0  0  0  0
 11 12  1  0  0  0  0
 12 13  1  0  0  0  0
 13 14  1  0  0  0  0
 15 16  1  0  0  0  0
 17 18  1  0  0  0  0
 18 19  1  0  0  0  0
 18 23  1  0  0  0  0
 19 20  1  0  0  0  0
 20 21  1  0  0  0  0
 21 22  1  0  0  0  0
 23 24  1  0  0  0  0
M  END
> <ID>
4928

> <Formula>
C20H36O4

> <FW>
340.4974

> <DSSTox_CID>
7094

> <DSSTox_RID>
78306

> <DSSTox_GSID>
27094

> <DSSTox_FileID_Sort>
2989

> <TS_ChemName>
Bis(2-ethylhexyl) maleate

> <TS_ChemName_Synonyms>
Bis(2-ethylhexyl) (2Z)-but-2-enedioate

> <TS_CASRN>
142-16-5

> <CASRN_ChemName_Relationship>
primary

> <TS_Description>
single chemical compound

> <ChemNote>
stereochem

> <STRUCTURE_Shown>
tested chemical

> <STRUCTURE_Formula>
C20H36O4

> <STRUCTURE_MW>
340.4974

> <STRUCTURE_ChemType>
defined organic

> <STRUCTURE_DefinedOrganicForm>
parent

> <STRUCTURE_IUPAC>
bis(2-ethylhexyl) (2Z)-but-2-enedioate

> <STRUCTURE_SMILES>
O=C(\C=C/C(=O)OCC(CC)CCCC)OCC(CCCC)CC

> <STRUCTURE_SMILES_Desalt>
O=C(\C=C/C(=O)OCC(CC)CCCC)OCC(CCCC)CC

> <Substance_modify_yyyymmdd>
20080429

$$$$
