142-77-8
ChemmineR-0915142007XD

 24 23  0  0  0  0  0  0  0  0  1 V2000
    5.7749   -1.3200    0.0000 C   0  0  0  0  0  0  0  0  0  0  0  0
    6.9093   -2.0006    0.0000 C   0  0  0  0  0  0  0  0  0  0  0  0
    8.0643   -1.3612    0.0000 C   0  0  0  0  0  0  0  0  0  0  0  0
    9.1987   -2.0419    0.0000 C   0  0  0  0  0  0  0  0  0  0  0  0
   10.3743   -1.4025    0.0000 C   0  0  0  0  0  0  0  0  0  0  0  0
   11.5086   -2.0625    0.0000 C   0  0  0  0  0  0  0  0  0  0  0  0
   12.6843   -1.4025    0.0000 C   0  0  0  0  0  0  0  0  0  0  0  0
   13.8186   -2.1037    0.0000 C   0  0  0  0  0  0  0  0  0  0  0  0
   14.9736   -1.4437    0.0000 C   0  0  0  0  0  0  0  0  0  0  0  0
   16.1286   -2.1244    0.0000 C   0  0  0  0  0  0  0  0  0  0  0  0
   16.1080   -3.4650    0.0000 C   0  0  0  0  0  0  0  0  0  0  0  0
   17.2423   -4.1250    0.0000 C   0  0  0  0  0  0  0  0  0  0  0  0
   17.2217   -5.4656    0.0000 C   0  0  0  0  0  0  0  0  0  0  0  0
   18.3767   -6.1462    0.0000 C   0  0  0  0  0  0  0  0  0  0  0  0
   18.3561   -7.4868    0.0000 C   0  0  0  0  0  0  0  0  0  0  0  0
   19.4904   -8.1468    0.0000 C   0  0  0  0  0  0  0  0  0  0  0  0
   19.4698   -9.4874    0.0000 C   0  0  0  0  0  0  0  0  0  0  0  0
   20.6248  -10.1680    0.0000 C   0  0  0  0  0  0  0  0  0  0  0  0
    5.7749    0.0000    0.0000 O   0  0  0  0  0  0  0  0  0  0  0  0
    4.6200   -1.9594    0.0000 O   0  0  0  0  0  0  0  0  0  0  0  0
    3.4650   -1.2994    0.0000 C   0  0  0  0  0  0  0  0  0  0  0  0
    2.3100   -1.9387    0.0000 C   0  0  0  0  0  0  0  0  0  0  0  0
    1.1756   -1.2581    0.0000 C   0  0  0  0  0  0  0  0  0  0  0  0
    0.0000   -1.8975    0.0000 C   0  0  0  0  0  0  0  0  0  0  0  0
  1  2  1  0  0  0  0
  1 20  1  0  0  0  0
  1 19  2  0  0  0  0
  2  3  1  0  0  0  0
  3  4  1  0  0  0  0
  4  5  1  0  0  0  0
  5  6  1  0  0  0  0
  6  7  1  0  0  0  0
  7  8  1  0  0  0  0
  8  9  1  0  0  0  0
  9 10  2  0  0  0  0
 10 11  1  0  0  0  0
 11 12  1  0  0  0  0
 12 13  1  0  0  0  0
 13 14  1  0  0  0  0
 14 15  1  0  0  0  0
 15 16  1  0  0  0  0
 16 17  1  0  0  0  0
 17 18  1  0  0  0  0
 20 21  1  0  0  0  0
 21 22  1  0  0  0  0
 22 23  1  0  0  0  0
 23 24  1  0  0  0  0
M  END
> <ID>
4933

> <Formula>
C22H42O2

> <FW>
338.5677

> <DSSTox_CID>
7099

> <DSSTox_RID>
78310

> <DSSTox_GSID>
27099

> <DSSTox_FileID_Sort>
2993

> <TS_ChemName>
9-Octadecenoic acid (9Z)-, butyl ester

> <TS_ChemName_Synonyms>


> <TS_CASRN>
142-77-8

> <CASRN_ChemName_Relationship>
primary

> <TS_Description>
single chemical compound

> <ChemNote>
stereochem

> <STRUCTURE_Shown>
tested chemical

> <STRUCTURE_Formula>
C22H42O2

> <STRUCTURE_MW>
338.5677

> <STRUCTURE_ChemType>
defined organic

> <STRUCTURE_DefinedOrganicForm>
parent

> <STRUCTURE_IUPAC>
butyl (9Z)-octadec-9-enoate

> <STRUCTURE_SMILES>
O=C(CCCCCCC/C=C\CCCCCCCC)OCCCC

> <STRUCTURE_SMILES_Desalt>
O=C(CCCCCCC/C=C\CCCCCCCC)OCCCC

> <Substance_modify_yyyymmdd>
20080429

$$$$
