142-09-6
ChemmineR-0915142007XD

 12 11  0  0  0  0  0  0  0  0  1 V2000
    0.0000   -2.0011    0.0000 C   0  0  0  0  0  0  0  0  0  0  0  0
    1.1509   -1.3375    0.0000 C   0  0  0  0  0  0  0  0  0  0  0  0
    2.3018   -2.0011    0.0000 C   0  0  0  0  0  0  0  0  0  0  0  0
    3.4527   -1.3375    0.0000 C   0  0  0  0  0  0  0  0  0  0  0  0
    4.6035   -2.0011    0.0000 C   0  0  0  0  0  0  0  0  0  0  0  0
    5.7648   -1.3375    0.0000 C   0  0  0  0  0  0  0  0  0  0  0  0
    6.9157   -2.0011    0.0000 O   0  0  0  0  0  0  0  0  0  0  0  0
    8.0666   -1.3375    0.0000 C   0  0  0  0  0  0  0  0  0  0  0  0
    8.0666    0.0000    0.0000 O   0  0  0  0  0  0  0  0  0  0  0  0
    9.2175   -2.0011    0.0000 C   0  0  0  0  0  0  0  0  0  0  0  0
   10.3683   -1.3375    0.0000 C   0  0  0  0  0  0  0  0  0  0  0  0
    9.2175   -3.3282    0.0000 C   0  0  0  0  0  0  0  0  0  0  0  0
  1  2  1  0  0  0  0
  2  3  1  0  0  0  0
  3  4  1  0  0  0  0
  4  5  1  0  0  0  0
  5  6  1  0  0  0  0
  6  7  1  0  0  0  0
  7  8  1  0  0  0  0
  8  9  2  0  0  0  0
  8 10  1  0  0  0  0
 10 11  1  0  0  0  0
 10 12  2  0  0  0  0
M  END
> <ID>
4179

> <Formula>
C10H18O2

> <FW>
170.2487

> <DSSTox_CID>
5406

> <DSSTox_RID>
77775

> <DSSTox_GSID>
25406

> <DSSTox_FileID_Sort>
2458

> <TS_ChemName>
Hexyl methacrylate

> <TS_ChemName_Synonyms>


> <TS_CASRN>
142-09-6

> <CASRN_ChemName_Relationship>
primary

> <TS_Description>
single chemical compound

> <ChemNote>


> <STRUCTURE_Shown>
tested chemical

> <STRUCTURE_Formula>
C10H18O2

> <STRUCTURE_MW>
170.2487

> <STRUCTURE_ChemType>
defined organic

> <STRUCTURE_DefinedOrganicForm>
parent

> <STRUCTURE_IUPAC>
hexyl 2-methylprop-2-enoate

> <STRUCTURE_SMILES>
O=C(OCCCCCC)C(=C)C

> <STRUCTURE_SMILES_Desalt>
O=C(OCCCCCC)C(=C)C

> <Substance_modify_yyyymmdd>
20080429

$$$$
