142-19-8
ChemmineR-0915142007XD

 12 11  0  0  0  0  0  0  0  0  1 V2000
    4.6186   -1.3394    0.0000 C   0  0  0  0  0  0  0  0  0  0  0  0
    5.7733   -1.9976    0.0000 C   0  0  0  0  0  0  0  0  0  0  0  0
    6.9279   -1.3394    0.0000 C   0  0  0  0  0  0  0  0  0  0  0  0
    8.0941   -1.9976    0.0000 C   0  0  0  0  0  0  0  0  0  0  0  0
    9.2488   -1.3394    0.0000 C   0  0  0  0  0  0  0  0  0  0  0  0
   10.4034   -1.9976    0.0000 C   0  0  0  0  0  0  0  0  0  0  0  0
   11.5465   -1.3394    0.0000 C   0  0  0  0  0  0  0  0  0  0  0  0
    4.6186    0.0000    0.0000 O   0  0  0  0  0  0  0  0  0  0  0  0
    3.4524   -1.9976    0.0000 O   0  0  0  0  0  0  0  0  0  0  0  0
    2.2978   -1.3394    0.0000 C   0  0  0  0  0  0  0  0  0  0  0  0
    1.1431   -1.9976    0.0000 C   0  0  0  0  0  0  0  0  0  0  0  0
    0.0000   -1.3394    0.0000 C   0  0  0  0  0  0  0  0  0  0  0  0
  1  2  1  0  0  0  0
  1  9  1  0  0  0  0
  1  8  2  0  0  0  0
  2  3  1  0  0  0  0
  3  4  1  0  0  0  0
  4  5  1  0  0  0  0
  5  6  1  0  0  0  0
  6  7  1  0  0  0  0
  9 10  1  0  0  0  0
 10 11  1  0  0  0  0
 11 12  2  0  0  0  0
M  END
> <ID>
10405

> <Formula>
C10H18O2

> <FW>
170.2487

> <DSSTox_CID>
24754

> <DSSTox_RID>
80447

> <DSSTox_GSID>
44754

> <DSSTox_FileID_Sort>
5129

> <TS_ChemName>
Prop-2-en-1-yl heptanoate

> <TS_ChemName_Synonyms>
Prop-2-en-1-yl heptanoate (Heptanoic acid, 2-propenyl ester) (Allyl heptanoate)

> <TS_CASRN>
142-19-8

> <CASRN_ChemName_Relationship>
primary

> <TS_Description>
single chemical compound

> <ChemNote>


> <STRUCTURE_Shown>
tested chemical

> <STRUCTURE_Formula>
C10H18O2

> <STRUCTURE_MW>
170.2487

> <STRUCTURE_ChemType>
defined organic

> <STRUCTURE_DefinedOrganicForm>
parent

> <STRUCTURE_IUPAC>
prop-2-en-1-yl heptanoate

> <STRUCTURE_SMILES>
O=C(CCCCCC)OCC=C

> <STRUCTURE_SMILES_Desalt>
O=C(CCCCCC)OCC=C

> <Substance_modify_yyyymmdd>
20091116

$$$$
