142-90-5
ChemmineR-0915142007XD

 18 17  0  0  0  0  0  0  0  0  1 V2000
    2.2911   -1.9982    0.0000 C   0  0  0  0  0  0  0  0  0  0  0  0
    1.1541   -1.3264    0.0000 C   0  0  0  0  0  0  0  0  0  0  0  0
    0.0000   -1.9982    0.0000 C   0  0  0  0  0  0  0  0  0  0  0  0
    2.2911   -3.3246    0.0000 O   0  0  0  0  0  0  0  0  0  0  0  0
    3.4280   -1.3264    0.0000 O   0  0  0  0  0  0  0  0  0  0  0  0
    1.1541    0.0000    0.0000 C   0  0  0  0  0  0  0  0  0  0  0  0
    4.5821   -1.9982    0.0000 C   0  0  0  0  0  0  0  0  0  0  0  0
    5.7363   -1.3264    0.0000 C   0  0  0  0  0  0  0  0  0  0  0  0
    6.8904   -1.9982    0.0000 C   0  0  0  0  0  0  0  0  0  0  0  0
    8.0445   -1.3264    0.0000 C   0  0  0  0  0  0  0  0  0  0  0  0
    9.1815   -1.9982    0.0000 C   0  0  0  0  0  0  0  0  0  0  0  0
   10.3356   -1.3264    0.0000 C   0  0  0  0  0  0  0  0  0  0  0  0
   11.4725   -1.9982    0.0000 C   0  0  0  0  0  0  0  0  0  0  0  0
   12.6267   -1.3264    0.0000 C   0  0  0  0  0  0  0  0  0  0  0  0
   13.7808   -1.9982    0.0000 C   0  0  0  0  0  0  0  0  0  0  0  0
   14.9177   -1.3264    0.0000 C   0  0  0  0  0  0  0  0  0  0  0  0
   16.0719   -1.9982    0.0000 C   0  0  0  0  0  0  0  0  0  0  0  0
   17.2260   -1.3264    0.0000 C   0  0  0  0  0  0  0  0  0  0  0  0
  1  2  1  0  0  0  0
  1  5  1  0  0  0  0
  1  4  2  0  0  0  0
  2  3  2  0  0  0  0
  2  6  1  0  0  0  0
  5  7  1  0  0  0  0
  7  8  1  0  0  0  0
  8  9  1  0  0  0  0
  9 10  1  0  0  0  0
 10 11  1  0  0  0  0
 11 12  1  0  0  0  0
 12 13  1  0  0  0  0
 13 14  1  0  0  0  0
 14 15  1  0  0  0  0
 15 16  1  0  0  0  0
 16 17  1  0  0  0  0
 17 18  1  0  0  0  0
M  END
> <ID>
4934

> <Formula>
C16H30O2

> <FW>
254.4082

> <DSSTox_CID>
7103

> <DSSTox_RID>
78311

> <DSSTox_GSID>
27103

> <DSSTox_FileID_Sort>
2994

> <TS_ChemName>
Dodecyl 2-methylacrylate

> <TS_ChemName_Synonyms>
Dodecyl 2-methylacrylate (2-Propenoic acid, 2-methyl-, dodecyl ester) (Lauryl methacrylate)

> <TS_CASRN>
142-90-5

> <CASRN_ChemName_Relationship>
primary

> <TS_Description>
single chemical compound

> <ChemNote>


> <STRUCTURE_Shown>
tested chemical

> <STRUCTURE_Formula>
C16H30O2

> <STRUCTURE_MW>
254.4082

> <STRUCTURE_ChemType>
defined organic

> <STRUCTURE_DefinedOrganicForm>
parent

> <STRUCTURE_IUPAC>
dodecyl 2-methylprop-2-enoate

> <STRUCTURE_SMILES>
C=C(C)C(=O)OCCCCCCCCCCCC

> <STRUCTURE_SMILES_Desalt>
C=C(C)C(=O)OCCCCCCCCCCCC

> <Substance_modify_yyyymmdd>
20080429

$$$$
