14205-39-1
ChemmineR-0915142007XD

  8  7  0  0  0  0  0  0  0  0  1 V2000
    2.2736   -1.3229    0.0000 C   0  0  0  0  0  0  0  0  0  0  0  0
    3.4362   -2.0044    0.0000 C   0  0  0  0  0  0  0  0  0  0  0  0
    4.5644   -1.3229    0.0000 C   0  0  0  0  0  0  0  0  0  0  0  0
    5.7270   -2.0044    0.0000 C   0  0  0  0  0  0  0  0  0  0  0  0
    2.2736    0.0000    0.0000 O   0  0  0  0  0  0  0  0  0  0  0  0
    1.1454   -2.0044    0.0000 O   0  0  0  0  0  0  0  0  0  0  0  0
    4.5644    0.0000    0.0000 N   0  0  0  0  0  0  0  0  0  0  0  0
    0.0000   -1.3229    0.0000 C   0  0  0  0  0  0  0  0  0  0  0  0
  1  2  1  0  0  0  0
  1  6  1  0  0  0  0
  1  5  2  0  0  0  0
  2  3  2  3  0  0  0
  3  4  1  0  0  0  0
  3  7  1  0  0  0  0
  6  8  1  0  0  0  0
M  END
> <ID>
14895

> <Formula>
C5H9NO2

> <FW>
115.1305

> <DSSTox_CID>
30270

> <DSSTox_RID>
97274

> <DSSTox_GSID>
51715

> <DSSTox_FileID_Sort>
8341

> <TS_ChemName>
Methyl 3-aminobut-2-enoate

> <TS_ChemName_Synonyms>
Methyl 3-aminocrotonate

> <TS_CASRN>
14205-39-1

> <CASRN_ChemName_Relationship>
primary

> <TS_Description>
mixture of Z,E isomers

> <ChemNote>
mixture of Z,E isomers

> <STRUCTURE_Shown>
representative isomer in mixture

> <STRUCTURE_Formula>
C5H9NO2

> <STRUCTURE_MW>
115.1305

> <STRUCTURE_ChemType>
defined organic

> <STRUCTURE_DefinedOrganicForm>
parent

> <STRUCTURE_IUPAC>
methyl 3-aminobut-2-enoate

> <STRUCTURE_SMILES>
CC(N)=CC(=O)OC

> <STRUCTURE_SMILES_Desalt>
CC(N)=CC(=O)OC

> <Substance_modify_yyyymmdd>
20131121

$$$$
