1420-07-1
ChemmineR-0915142007XD

 17 17  0  0  0  0  0  0  0  0  2 V2000
    3.4476   -1.3308    0.0000 C   0  0  0  0  0  0  0  0  0  0  0  0
    3.4476    0.0000    0.0000 O   0  0  0  0  0  0  0  0  0  0  0  0
    4.5853   -2.0065    0.0000 C   0  0  0  0  0  0  0  0  0  0  0  0
    2.2961   -2.0065    0.0000 C   0  0  0  0  0  0  0  0  0  0  0  0
    2.2961   -3.3372    0.0000 C   0  0  0  0  0  0  0  0  0  0  0  0
    4.5853   -3.3372    0.0000 C   0  0  0  0  0  0  0  0  0  0  0  0
    3.4476   -3.9923    0.0000 C   0  0  0  0  0  0  0  0  0  0  0  0
    5.7436   -1.3308    0.0000 C   0  0  0  0  0  0  0  0  0  0  0  0
    3.4476   -5.3230    0.0000 N   0  3  0  0  0  0  0  0  0  0  0  0
    2.2961   -5.9988    0.0000 O   0  5  0  0  0  0  0  0  0  0  0  0
    4.5853   -5.9988    0.0000 O   0  0  0  0  0  0  0  0  0  0  0  0
    1.1515   -1.3308    0.0000 N   0  3  0  0  0  0  0  0  0  0  0  0
    1.1515    0.0000    0.0000 O   0  5  0  0  0  0  0  0  0  0  0  0
    0.0000   -2.0065    0.0000 O   0  0  0  0  0  0  0  0  0  0  0  0
    6.8951   -2.0065    0.0000 C   0  0  0  0  0  0  0  0  0  0  0  0
    5.7436    0.0000    0.0000 C   0  0  0  0  0  0  0  0  0  0  0  0
    4.5853   -0.6757    0.0000 C   0  0  0  0  0  0  0  0  0  0  0  0
  1  2  1  0  0  0  0
  1  3  1  0  0  0  0
  1  4  2  0  0  0  0
  3  6  2  0  0  0  0
  3  8  1  0  0  0  0
  4  5  1  0  0  0  0
  4 12  1  0  0  0  0
  5  7  2  0  0  0  0
  6  7  1  0  0  0  0
  7  9  1  0  0  0  0
  8 15  1  0  0  0  0
  8 16  1  0  0  0  0
  8 17  1  0  0  0  0
  9 10  1  0  0  0  0
  9 11  2  0  0  0  0
 12 13  1  0  0  0  0
 12 14  2  0  0  0  0
M  END
> <ID>
8829

> <Formula>
C10H12N2O5

> <FW>
240.2127

> <DSSTox_CID>
21883

> <DSSTox_RID>
79864

> <DSSTox_GSID>
41883

> <DSSTox_FileID_Sort>
4546

> <TS_ChemName>
Dinoterb

> <TS_ChemName_Synonyms>


> <TS_CASRN>
1420-07-1

> <CASRN_ChemName_Relationship>
primary

> <TS_Description>
single chemical compound

> <ChemNote>


> <STRUCTURE_Shown>
tested chemical

> <STRUCTURE_Formula>
C10H12N2O5

> <STRUCTURE_MW>
240.2127

> <STRUCTURE_ChemType>
defined organic

> <STRUCTURE_DefinedOrganicForm>
parent

> <STRUCTURE_IUPAC>
2-tert-butyl-4,6-dinitrophenol

> <STRUCTURE_SMILES>
O=[N+]([O-])c1cc(cc(c1O)C(C)(C)C)[N+]([O-])=O

> <STRUCTURE_SMILES_Desalt>
O=[N+]([O-])c1cc(cc(c1O)C(C)(C)C)[N+]([O-])=O

> <Substance_modify_yyyymmdd>
20080825

$$$$
