1421-14-3
ChemmineR-0915142007XD

 24 24  0  0  0  0  0  0  0  0  1 V2000
    3.4563   -1.9865    0.0000 C   0  0  0  0  0  0  0  0  0  0  0  0
    8.0264   -1.9865    0.0000 C   0  0  0  0  0  0  0  0  0  0  0  0
   10.3345   -5.9595    0.0000 C   0  0  0  0  0  0  0  0  0  0  0  0
    6.8896   -2.6410    0.0000 C   0  0  0  0  0  0  0  0  0  0  0  0
    2.2851   -2.6410    0.0000 N   0  0  0  0  0  0  0  0  0  0  0  0
    5.7414   -1.9865    0.0000 O   0  0  0  0  0  0  0  0  0  0  0  0
    4.5931   -2.6410    0.0000 C   0  0  0  0  0  0  0  0  0  0  0  0
    9.1977   -2.6410    0.0000 C   0  0  0  0  0  0  0  0  0  0  0  0
    3.4563   -0.6545    0.0000 O   0  0  0  0  0  0  0  0  0  0  0  0
    9.1977   -3.9730    0.0000 C   0  0  0  0  0  0  0  0  0  0  0  0
   11.4827   -6.6485    0.0000 O   0  0  0  0  0  0  0  0  0  0  0  0
    6.8896   -3.9730    0.0000 C   0  0  0  0  0  0  0  0  0  0  0  0
   10.3345   -4.6275    0.0000 C   0  0  0  0  0  0  0  0  0  0  0  0
    8.0264   -4.6275    0.0000 C   0  0  0  0  0  0  0  0  0  0  0  0
    8.0264   -0.6545    0.0000 O   0  0  0  0  0  0  0  0  0  0  0  0
    9.1977   -6.6485    0.0000 O   0  0  0  0  0  0  0  0  0  0  0  0
    1.1483   -1.9865    0.0000 C   0  0  0  0  0  0  0  0  0  0  0  0
    2.2851   -3.9730    0.0000 C   0  0  0  0  0  0  0  0  0  0  0  0
    8.0264   -5.9595    0.0000 C   0  0  0  0  0  0  0  0  0  0  0  0
    9.1977    0.0000    0.0000 C   0  0  0  0  0  0  0  0  0  0  0  0
    6.8896   -6.6485    0.0000 C   0  0  0  0  0  0  0  0  0  0  0  0
    0.0000   -2.6410    0.0000 C   0  0  0  0  0  0  0  0  0  0  0  0
    3.4563   -4.6275    0.0000 C   0  0  0  0  0  0  0  0  0  0  0  0
    5.7414   -5.9595    0.0000 C   0  0  0  0  0  0  0  0  0  0  0  0
  1  5  1  0  0  0  0
  1  7  1  0  0  0  0
  1  9  2  0  0  0  0
  2  4  2  0  0  0  0
  2  8  1  0  0  0  0
  2 15  1  0  0  0  0
  3 13  1  0  0  0  0
  3 11  2  0  0  0  0
  3 16  1  0  0  0  0
  4  6  1  0  0  0  0
  4 12  1  0  0  0  0
  5 17  1  0  0  0  0
  5 18  1  0  0  0  0
  6  7  1  0  0  0  0
  8 10  2  0  0  0  0
 10 14  1  0  0  0  0
 10 13  1  0  0  0  0
 12 14  2  0  0  0  0
 15 20  1  0  0  0  0
 16 19  1  0  0  0  0
 17 22  1  0  0  0  0
 18 23  1  0  0  0  0
 19 21  1  0  0  0  0
 21 24  1  0  0  0  0
M  END
> <ID>
13814

> <Formula>
C18H27NO5

> <FW>
337.4107

> <DSSTox_CID>
28751

> <DSSTox_RID>
83020

> <DSSTox_GSID>
48825

> <DSSTox_FileID_Sort>
7697

> <TS_ChemName>
Propanidid

> <TS_ChemName_Synonyms>


> <TS_CASRN>
1421-14-3

> <CASRN_ChemName_Relationship>
primary

> <TS_Description>
single chemical compound

> <ChemNote>


> <STRUCTURE_Shown>
tested chemical

> <STRUCTURE_Formula>
C18H27NO5

> <STRUCTURE_MW>
337.4107

> <STRUCTURE_ChemType>
defined organic

> <STRUCTURE_DefinedOrganicForm>
parent

> <STRUCTURE_IUPAC>
propyl {4-[2-(diethylamino)-2-oxoethoxy]-3-methoxyphenyl}acetate

> <STRUCTURE_SMILES>
COc1cc(ccc1OCC(=O)N(CC)CC)CC(=O)OCCC

> <STRUCTURE_SMILES_Desalt>
COc1cc(ccc1OCC(=O)N(CC)CC)CC(=O)OCCC

> <Substance_modify_yyyymmdd>
20111204

$$$$
