1421-63-2
ChemmineR-0915142007XD

 14 14  0  0  0  0  0  0  0  0  1 V2000
    3.4580   -1.3300    0.0000 C   0  0  0  0  0  0  0  0  0  0  0  0
    3.4580    0.0000    0.0000 O   0  0  0  0  0  0  0  0  0  0  0  0
    2.3053   -1.9990    0.0000 C   0  0  0  0  0  0  0  0  0  0  0  0
    1.1527   -1.3300    0.0000 C   0  0  0  0  0  0  0  0  0  0  0  0
    0.0000   -1.9990    0.0000 C   0  0  0  0  0  0  0  0  0  0  0  0
    4.6025   -1.9990    0.0000 C   0  0  0  0  0  0  0  0  0  0  0  0
    5.7552   -1.3300    0.0000 C   0  0  0  0  0  0  0  0  0  0  0  0
    6.9078   -1.9990    0.0000 C   0  0  0  0  0  0  0  0  0  0  0  0
    8.0605   -1.3300    0.0000 O   0  0  0  0  0  0  0  0  0  0  0  0
    6.9078   -3.3290    0.0000 C   0  0  0  0  0  0  0  0  0  0  0  0
    8.0605   -3.9899    0.0000 O   0  0  0  0  0  0  0  0  0  0  0  0
    5.7552   -3.9899    0.0000 C   0  0  0  0  0  0  0  0  0  0  0  0
    4.6025   -3.3290    0.0000 C   0  0  0  0  0  0  0  0  0  0  0  0
    3.4580   -3.9899    0.0000 O   0  0  0  0  0  0  0  0  0  0  0  0
  1  2  2  0  0  0  0
  1  3  1  0  0  0  0
  1  6  1  0  0  0  0
  3  4  1  0  0  0  0
  4  5  1  0  0  0  0
  6  7  2  0  0  0  0
  6 13  1  0  0  0  0
  7  8  1  0  0  0  0
  8  9  1  0  0  0  0
  8 10  2  0  0  0  0
 10 11  1  0  0  0  0
 10 12  1  0  0  0  0
 12 13  2  0  0  0  0
 13 14  1  0  0  0  0
M  END
> <ID>
4609

> <Formula>
C10H12O4

> <FW>
196.1999

> <DSSTox_CID>
6232

> <DSSTox_RID>
78069

> <DSSTox_GSID>
26232

> <DSSTox_FileID_Sort>
2752

> <TS_ChemName>
2',4',5'-Trihydroxybutyrophenone

> <TS_ChemName_Synonyms>


> <TS_CASRN>
1421-63-2

> <CASRN_ChemName_Relationship>
primary

> <TS_Description>
single chemical compound

> <ChemNote>


> <STRUCTURE_Shown>
tested chemical

> <STRUCTURE_Formula>
C10H12O4

> <STRUCTURE_MW>
196.1999

> <STRUCTURE_ChemType>
defined organic

> <STRUCTURE_DefinedOrganicForm>
parent

> <STRUCTURE_IUPAC>
1-(2,4,5-trihydroxyphenyl)butan-1-one

> <STRUCTURE_SMILES>
Oc1cc(C(=O)CCC)c(O)cc1O

> <STRUCTURE_SMILES_Desalt>
Oc1cc(C(=O)CCC)c(O)cc1O

> <Substance_modify_yyyymmdd>
20080429

$$$$
