14222-60-7
ChemmineR-0915142007XD

 12 12  0  0  0  0  0  0  0  0  1 V2000
    8.0694   -2.6629    0.0000 C   0  0  0  0  0  0  0  0  0  0  0  0
    6.9154   -2.0012    0.0000 C   0  0  0  0  0  0  0  0  0  0  0  0
    5.7615   -2.6629    0.0000 C   0  0  0  0  0  0  0  0  0  0  0  0
    4.6076   -2.0012    0.0000 C   0  0  0  0  0  0  0  0  0  0  0  0
    3.4618   -2.6629    0.0000 C   0  0  0  0  0  0  0  0  0  0  0  0
    2.3078   -2.0012    0.0000 C   0  0  0  0  0  0  0  0  0  0  0  0
    2.3078   -0.6698    0.0000 C   0  0  0  0  0  0  0  0  0  0  0  0
    3.4618    0.0000    0.0000 C   0  0  0  0  0  0  0  0  0  0  0  0
    4.6076   -0.6698    0.0000 N   0  0  0  0  0  0  0  0  0  0  0  0
    1.1539   -2.6629    0.0000 C   0  0  0  0  0  0  0  0  0  0  0  0
    0.0000   -2.0012    0.0000 N   0  0  0  0  0  0  0  0  0  0  0  0
    1.1539   -3.9943    0.0000 S   0  0  0  0  0  0  0  0  0  0  0  0
  1  2  1  0  0  0  0
  2  3  1  0  0  0  0
  3  4  1  0  0  0  0
  4  5  2  0  0  0  0
  4  9  1  0  0  0  0
  5  6  1  0  0  0  0
  6  7  2  0  0  0  0
  6 10  1  0  0  0  0
  7  8  1  0  0  0  0
  8  9  2  0  0  0  0
 10 11  1  0  0  0  0
 10 12  2  0  0  0  0
M  END
> <ID>
11306

> <Formula>
C9H12N2S

> <FW>
180.27

> <DSSTox_CID>
25940

> <DSSTox_RID>
81238

> <DSSTox_GSID>
45940

> <DSSTox_FileID_Sort>
5919

> <TS_ChemName>
Prothionamide

> <TS_ChemName_Synonyms>


> <TS_CASRN>
14222-60-7

> <CASRN_ChemName_Relationship>
primary

> <TS_Description>
single chemical compound

> <ChemNote>


> <STRUCTURE_Shown>
tested chemical

> <STRUCTURE_Formula>
C9H12N2S

> <STRUCTURE_MW>
180.27

> <STRUCTURE_ChemType>
defined organic

> <STRUCTURE_DefinedOrganicForm>
parent

> <STRUCTURE_IUPAC>
2-propylpyridine-4-carbothioamide

> <STRUCTURE_SMILES>
CCCc1cc(ccn1)C(N)=S

> <STRUCTURE_SMILES_Desalt>
CCCc1cc(ccn1)C(N)=S

> <Substance_modify_yyyymmdd>
20110930

$$$$
