1422-07-7
ChemmineR-0915142007XD

 24 27  0  0  1  0  0  0  0  0  1 V2000
    2.2818   -5.2846    0.0000 C    0  0  0  0  0  0  0  0  0  0  0  0
    2.2818   -3.9456    0.0000 C    0  0  0  0  0  0  0  0  0  0  0  0
    3.3989   -5.9264    0.0000 C    0  0  0  0  0  0  0  0  0  0  0  0
    1.1330   -3.2880    0.0000 C    0  0  0  0  0  0  0  0  0  0  0  0
    1.1330   -5.9264    0.0000 C    0  0  0  0  0  0  0  0  0  0  0  0
    0.3803   -4.5715    0.0000 O    0  0  0  0  0  0  0  0  0  0  0  0
    4.5240   -5.2529    0.0000 C    0  0  0  0  0  0  0  0  0  0  0  0
    3.3989   -3.2880    0.0000 C    0  0  0  0  0  0  0  0  0  0  0  0
    3.3989   -7.2336    0.0000 C    0  0  0  0  0  0  0  0  0  0  0  0
    4.5240   -3.9456    0.0000 C    0  0  0  0  0  0  0  0  0  0  0  0
    5.1578   -5.8630    0.0000 N    0  0  0  0  0  0  0  0  0  0  0  0
    2.2818   -6.5840    0.0000 C    0  0  0  0  0  0  0  0  0  0  0  0
    2.2818   -7.8912    0.0000 C    0  0  0  0  0  0  0  0  0  0  0  0
    1.1330   -7.2653    0.0000 C    0  0  0  0  0  0  0  0  0  0  0  0
    1.1330   -1.9966    0.0000 C    0  0  0  0  0  0  0  0  0  0  0  0
    4.7775   -6.5840    0.0000 C    0  0  0  0  0  0  0  0  0  0  0  0
    3.3989   -1.9966    0.0000 C    0  0  0  0  0  0  0  0  0  0  0  0
    2.2818   -1.3231    0.0000 C    0  0  0  0  0  0  0  0  0  0  0  0
    0.0317   -7.9229    0.0000 O    0  0  0  0  0  0  0  0  0  0  0  0
    0.0000   -1.3231    0.0000 O    0  0  0  0  0  0  0  0  0  0  0  0
    6.3859   -5.8630    0.0000 C    0  0  0  0  0  0  0  0  0  0  0  0
    0.0000    0.0000    0.0000 C    0  0  0  0  0  0  0  0  0  0  0  0
    3.3989   -4.6508    0.0000 H    0  0  0  0  0  0  0  0  0  0  0  0
    5.6728   -2.5750    0.0000 Cl   0  0  0  0  0  0  0  0  0  0  0  0
  1  2  1  0  0  0  0
  1  3  1  0  0  0  0
  1  5  1  0  0  0  0
  1 12  1  1  0  0  0
  2  4  1  0  0  0  0
  2  8  2  0  0  0  0
  3  7  1  0  0  0  0
  3  9  1  0  0  0  0
  3 23  1  1  0  0  0
  4 15  2  0  0  0  0
  4  6  1  0  0  0  0
  5  6  1  6  0  0  0
  5 14  1  0  0  0  0
  7 10  1  0  0  0  0
  7 11  1  1  0  0  0
  8 17  1  0  0  0  0
  8 10  1  0  0  0  0
  9 13  2  0  0  0  0
 11 16  1  0  0  0  0
 11 21  1  0  0  0  0
 12 16  1  0  0  0  0
 13 14  1  0  0  0  0
 14 19  1  6  0  0  0
 15 20  1  0  0  0  0
 15 18  1  0  0  0  0
 17 18  2  0  0  0  0
 20 22  1  0  0  0  0
M  END
> <ID>
13893

> <Formula>
C18H22ClNO3

> <FW>
335.8252 (299.3642+36.4609)

> <DSSTox_CID>
28830

> <DSSTox_RID>
83099

> <DSSTox_GSID>
48904

> <DSSTox_FileID_Sort>
7776

> <TS_ChemName>
Codeine hydrochloride

> <TS_ChemName_Synonyms>


> <TS_CASRN>
1422-07-7

> <CASRN_ChemName_Relationship>
primary

> <TS_Description>
single chemical compound

> <ChemNote>


> <STRUCTURE_Shown>
tested chemical

> <STRUCTURE_Formula>
C18H22ClNO3

> <STRUCTURE_MW>
335.8252

> <STRUCTURE_ChemType>
defined organic

> <STRUCTURE_DefinedOrganicForm>
complex

> <STRUCTURE_IUPAC>
(5alpha,6alpha)-3-methoxy-17-methyl-7,8-didehydro-4,5-epoxymorphinan-6-ol hydrochloride (1:1)

> <STRUCTURE_SMILES>
Cl.COc1ccc2C[C@H]4N(C)CC[C@@]35[C@@H](Oc1c23)[C@@H](O)C=C[C@@H]45

> <STRUCTURE_SMILES_Desalt>
COc1ccc2C[C@H]4N(C)CC[C@@]35[C@@H](Oc1c23)[C@@H](O)C=C[C@@H]45

> <Substance_modify_yyyymmdd>
20111204

$$$$
