14228-73-0
ChemmineR-0915142007XD

 18 20  0  0  0  0  0  0  0  0  1 V2000
    0.6655   -0.8354    0.0000 O   0  0  0  0  0  0  0  0  0  0  0  0
    1.3309   -1.9964    0.0000 C   0  0  0  0  0  0  0  0  0  0  0  0
    0.0000   -1.9964    0.0000 C   0  0  0  0  0  0  0  0  0  0  0  0
   13.5073   -1.8123    0.0000 O   0  0  0  0  0  0  0  0  0  0  0  0
   12.8277   -0.6655    0.0000 C   0  0  0  0  0  0  0  0  0  0  0  0
   14.1586   -0.6655    0.0000 C   0  0  0  0  0  0  0  0  0  0  0  0
    8.2403   -0.6655    0.0000 C   0  0  0  0  0  0  0  0  0  0  0  0
    8.2403   -1.9964    0.0000 C   0  0  0  0  0  0  0  0  0  0  0  0
    7.0935   -2.6618    0.0000 C   0  0  0  0  0  0  0  0  0  0  0  0
    5.9325   -1.9964    0.0000 C   0  0  0  0  0  0  0  0  0  0  0  0
    5.9325   -0.6655    0.0000 C   0  0  0  0  0  0  0  0  0  0  0  0
    7.0935    0.0000    0.0000 C   0  0  0  0  0  0  0  0  0  0  0  0
    9.3872    0.0000    0.0000 C   0  0  0  0  0  0  0  0  0  0  0  0
    4.7856   -2.6618    0.0000 C   0  0  0  0  0  0  0  0  0  0  0  0
   10.5340   -0.6655    0.0000 O   0  0  0  0  0  0  0  0  0  0  0  0
    3.6246   -1.9964    0.0000 O   0  0  0  0  0  0  0  0  0  0  0  0
   11.6809    0.0000    0.0000 C   0  0  0  0  0  0  0  0  0  0  0  0
    2.4778   -2.6618    0.0000 C   0  0  0  0  0  0  0  0  0  0  0  0
  1  2  1  0  0  0  0
  1  3  1  0  0  0  0
  2  3  1  0  0  0  0
  2 18  1  0  0  0  0
  4  5  1  0  0  0  0
  4  6  1  0  0  0  0
  5  6  1  0  0  0  0
  5 17  1  0  0  0  0
  7  8  1  0  0  0  0
  7 12  1  0  0  0  0
  7 13  1  0  0  0  0
  8  9  1  0  0  0  0
  9 10  1  0  0  0  0
 10 11  1  0  0  0  0
 10 14  1  0  0  0  0
 11 12  1  0  0  0  0
 13 15  1  0  0  0  0
 14 16  1  0  0  0  0
 15 17  1  0  0  0  0
 16 18  1  0  0  0  0
M  END
> <ID>
10455

> <Formula>
C14H24O4

> <FW>
256.338

> <DSSTox_CID>
24805

> <DSSTox_RID>
80489

> <DSSTox_GSID>
44805

> <DSSTox_FileID_Sort>
5171

> <TS_ChemName>
2,2'-[Cyclohexane-1,4-diylbis(methanediyloxymethanediyl)]dioxirane

> <TS_ChemName_Synonyms>
2,2'-[Cyclohexane-1,4-diylbis(methanediyloxymethanediyl)]dioxirane (Oxirane, 2,2'-[1,4-cyclohexanediylbis(methyleneoxymethylene)]bis-)

> <TS_CASRN>
14228-73-0

> <CASRN_ChemName_Relationship>
primary

> <TS_Description>
single chemical compound

> <ChemNote>


> <STRUCTURE_Shown>
tested chemical

> <STRUCTURE_Formula>
C14H24O4

> <STRUCTURE_MW>
256.338

> <STRUCTURE_ChemType>
defined organic

> <STRUCTURE_DefinedOrganicForm>
parent

> <STRUCTURE_IUPAC>
2,2'-[cyclohexane-1,4-diylbis(methanediyloxymethanediyl)]dioxirane

> <STRUCTURE_SMILES>
C2CC(COCC1CO1)CCC2COCC3CO3

> <STRUCTURE_SMILES_Desalt>
C2CC(COCC1CO1)CCC2COCC3CO3

> <Substance_modify_yyyymmdd>
20091116

$$$$
