142340-99-6
ChemmineR-0915142007XD

 34 35  0  0  0  0  0  0  0  0  1 V2000
    9.2387   -3.3205    0.0000 C   0  0  0  0  0  0  0  0  0  0  0  0
    9.2387   -1.9991    0.0000 C   0  0  0  0  0  0  0  0  0  0  0  0
   10.4923   -3.7610    0.0000 N   0  0  0  0  0  0  0  0  0  0  0  0
    8.0641   -4.0320    0.0000 N   0  0  0  0  0  0  0  0  0  0  0  0
   10.4923   -1.6264    0.0000 N   0  0  0  0  0  0  0  0  0  0  0  0
    8.0641   -1.3214    0.0000 C   0  0  0  0  0  0  0  0  0  0  0  0
   11.2942   -2.6541    0.0000 C   0  0  0  0  0  0  0  0  0  0  0  0
   10.4923   -5.0598    0.0000 C   0  0  0  0  0  0  0  0  0  0  0  0
    6.9460   -3.3205    0.0000 C   0  0  0  0  0  0  0  0  0  0  0  0
    6.9460   -1.9991    0.0000 N   0  0  0  0  0  0  0  0  0  0  0  0
    8.0641    0.0000    0.0000 N   0  0  0  0  0  0  0  0  0  0  0  0
    9.3855   -5.7149    0.0000 C   0  0  0  0  0  0  0  0  0  0  0  0
    8.2335   -5.0259    0.0000 O   0  0  0  0  0  0  0  0  0  0  0  0
    7.0589   -5.7149    0.0000 C   0  0  0  0  0  0  0  0  0  0  0  0
    5.9408   -5.0259    0.0000 P   0  0  0  0  0  0  0  0  0  0  0  0
    4.6193   -5.3648    0.0000 O   0  0  0  0  0  0  0  0  0  0  0  0
    5.2744   -6.1667    0.0000 O   0  0  0  0  0  0  0  0  0  0  0  0
    5.9408   -3.6932    0.0000 O   0  0  0  0  0  0  0  0  0  0  0  0
    3.4673   -4.6871    0.0000 C   0  0  0  0  0  0  0  0  0  0  0  0
    5.9521   -7.2848    0.0000 C   0  0  0  0  0  0  0  0  0  0  0  0
    2.3153   -5.3648    0.0000 O   0  0  0  0  0  0  0  0  0  0  0  0
    7.2848   -7.2848    0.0000 O   0  0  0  0  0  0  0  0  0  0  0  0
    2.3153   -6.6975    0.0000 C   0  0  0  0  0  0  0  0  0  0  0  0
    7.9398   -8.4255    0.0000 C   0  0  0  0  0  0  0  0  0  0  0  0
    3.4673   -7.3525    0.0000 O   0  0  0  0  0  0  0  0  0  0  0  0
    7.2848   -9.6001    0.0000 O   0  0  0  0  0  0  0  0  0  0  0  0
    1.1407   -7.3525    0.0000 C   0  0  0  0  0  0  0  0  0  0  0  0
    9.2726   -8.4255    0.0000 C   0  0  0  0  0  0  0  0  0  0  0  0
    9.2726   -9.7582    0.0000 C   0  0  0  0  0  0  0  0  0  0  0  0
    9.2726   -7.0928    0.0000 C   0  0  0  0  0  0  0  0  0  0  0  0
   10.6053   -8.4255    0.0000 C   0  0  0  0  0  0  0  0  0  0  0  0
    1.8297   -8.5046    0.0000 C   0  0  0  0  0  0  0  0  0  0  0  0
    0.4969   -6.2005    0.0000 C   0  0  0  0  0  0  0  0  0  0  0  0
    0.0000   -8.0302    0.0000 C   0  0  0  0  0  0  0  0  0  0  0  0
  1  2  2  0  0  0  0
  1  3  1  0  0  0  0
  1  4  1  0  0  0  0
  2  5  1  0  0  0  0
  2  6  1  0  0  0  0
  3  7  1  0  0  0  0
  3  8  1  0  0  0  0
  4  9  2  0  0  0  0
  5  7  2  0  0  0  0
  6 10  2  0  0  0  0
  6 11  1  0  0  0  0
  8 12  1  0  0  0  0
  9 10  1  0  0  0  0
 12 13  1  0  0  0  0
 13 14  1  0  0  0  0
 14 15  1  0  0  0  0
 15 16  1  0  0  0  0
 15 17  1  0  0  0  0
 15 18  2  0  0  0  0
 16 19  1  0  0  0  0
 17 20  1  0  0  0  0
 19 21  1  0  0  0  0
 20 22  1  0  0  0  0
 21 23  1  0  0  0  0
 22 24  1  0  0  0  0
 23 25  2  0  0  0  0
 23 27  1  0  0  0  0
 24 26  2  0  0  0  0
 24 28  1  0  0  0  0
 27 32  1  0  0  0  0
 27 33  1  0  0  0  0
 27 34  1  0  0  0  0
 28 29  1  0  0  0  0
 28 30  1  0  0  0  0
 28 31  1  0  0  0  0
M  END
> <ID>
11724

> <Formula>
C20H32N5O8P

> <FW>
501.4705

> <DSSTox_CID>
26487

> <DSSTox_RID>
81658

> <DSSTox_GSID>
46487

> <DSSTox_FileID_Sort>
6339

> <TS_ChemName>
Adefovir dipivoxil

> <TS_ChemName_Synonyms>


> <TS_CASRN>
142340-99-6

> <CASRN_ChemName_Relationship>
primary

> <TS_Description>
single chemical compound

> <ChemNote>


> <STRUCTURE_Shown>
tested chemical

> <STRUCTURE_Formula>
C20H32N5O8P

> <STRUCTURE_MW>
501.4705

> <STRUCTURE_ChemType>
defined organic

> <STRUCTURE_DefinedOrganicForm>
parent

> <STRUCTURE_IUPAC>
({[2-(6-amino-9H-purin-9-yl)ethoxy]methyl}phosphoryl)bis(oxymethanediyl) bis(2,2-dimethylpropanoate)

> <STRUCTURE_SMILES>
CC(C)(C)C(=O)OCOP(=O)(OCOC(=O)C(C)(C)C)COCCn2cnc1c(N)ncnc12

> <STRUCTURE_SMILES_Desalt>
CC(C)(C)C(=O)OCOP(=O)(OCOC(=O)C(C)(C)C)COCCn2cnc1c(N)ncnc12

> <Substance_modify_yyyymmdd>
20110812

$$$$
