14233-37-5
ChemmineR-0915142007XD

 24 26  0  0  0  0  0  0  0  0  1 V2000
    3.4666   -5.9733    0.0000 C   0  0  0  0  0  0  0  0  0  0  0  0
    3.4666   -3.3268    0.0000 C   0  0  0  0  0  0  0  0  0  0  0  0
    2.3110   -3.9977    0.0000 C   0  0  0  0  0  0  0  0  0  0  0  0
    2.3110   -5.3210    0.0000 C   0  0  0  0  0  0  0  0  0  0  0  0
    4.5941   -3.9977    0.0000 C   0  0  0  0  0  0  0  0  0  0  0  0
    4.5941   -5.3210    0.0000 C   0  0  0  0  0  0  0  0  0  0  0  0
    3.4666   -1.9942    0.0000 O   0  0  0  0  0  0  0  0  0  0  0  0
    3.4666   -7.3059    0.0000 O   0  0  0  0  0  0  0  0  0  0  0  0
    5.7497   -5.9733    0.0000 C   0  0  0  0  0  0  0  0  0  0  0  0
    5.7497   -3.3454    0.0000 C   0  0  0  0  0  0  0  0  0  0  0  0
    1.1555   -5.9733    0.0000 C   0  0  0  0  0  0  0  0  0  0  0  0
    1.1555   -3.3268    0.0000 C   0  0  0  0  0  0  0  0  0  0  0  0
    6.9052   -3.9977    0.0000 C   0  0  0  0  0  0  0  0  0  0  0  0
    0.0000   -5.3210    0.0000 C   0  0  0  0  0  0  0  0  0  0  0  0
    0.0000   -3.9977    0.0000 C   0  0  0  0  0  0  0  0  0  0  0  0
    6.9052   -5.3210    0.0000 C   0  0  0  0  0  0  0  0  0  0  0  0
    5.7497   -2.0128    0.0000 N   0  0  0  0  0  0  0  0  0  0  0  0
    6.9052   -1.3326    0.0000 C   0  0  0  0  0  0  0  0  0  0  0  0
    8.0700   -2.0128    0.0000 C   0  0  0  0  0  0  0  0  0  0  0  0
    6.9052    0.0000    0.0000 C   0  0  0  0  0  0  0  0  0  0  0  0
    5.7497   -7.3059    0.0000 N   0  0  0  0  0  0  0  0  0  0  0  0
    6.9052   -7.9862    0.0000 C   0  0  0  0  0  0  0  0  0  0  0  0
    8.0700   -7.3059    0.0000 C   0  0  0  0  0  0  0  0  0  0  0  0
    6.9052   -9.3187    0.0000 C   0  0  0  0  0  0  0  0  0  0  0  0
  1  4  1  0  0  0  0
  1  6  1  0  0  0  0
  1  8  2  0  0  0  0
  2  5  1  0  0  0  0
  2  7  2  0  0  0  0
  2  3  1  0  0  0  0
  3 12  2  0  0  0  0
  3  4  1  0  0  0  0
  4 11  2  0  0  0  0
  5  6  2  0  0  0  0
  5 10  1  0  0  0  0
  6  9  1  0  0  0  0
  9 16  2  0  0  0  0
  9 21  1  0  0  0  0
 10 13  2  0  0  0  0
 10 17  1  0  0  0  0
 11 14  1  0  0  0  0
 12 15  1  0  0  0  0
 13 16  1  0  0  0  0
 14 15  2  0  0  0  0
 17 18  1  0  0  0  0
 18 19  1  0  0  0  0
 18 20  1  0  0  0  0
 21 22  1  0  0  0  0
 22 23  1  0  0  0  0
 22 24  1  0  0  0  0
M  END
> <ID>
8223

> <Formula>
C20H22N2O2

> <FW>
322.4009

> <DSSTox_CID>
21250

> <DSSTox_RID>
79663

> <DSSTox_GSID>
41250

> <DSSTox_FileID_Sort>
4345

> <TS_ChemName>
1,4-Bis(N-isopropylamino)anthraquinone

> <TS_ChemName_Synonyms>
1,4-Bis(N-isopropylamino)anthraquinone (Unisol Blue AS)

> <TS_CASRN>
14233-37-5

> <CASRN_ChemName_Relationship>
primary

> <TS_Description>
single chemical compound

> <ChemNote>
C.I. Disperse Blue 134; C.I. 61551

> <STRUCTURE_Shown>
tested chemical

> <STRUCTURE_Formula>
C20H22N2O2

> <STRUCTURE_MW>
322.4009

> <STRUCTURE_ChemType>
defined organic

> <STRUCTURE_DefinedOrganicForm>
parent

> <STRUCTURE_IUPAC>
1,4-bis(propan-2-ylamino)anthracene-9,10-dione

> <STRUCTURE_SMILES>
CC(C)Nc3ccc(NC(C)C)c2c3C(=O)c1ccccc1C2=O

> <STRUCTURE_SMILES_Desalt>
CC(C)Nc3ccc(NC(C)C)c2c3C(=O)c1ccccc1C2=O

> <Substance_modify_yyyymmdd>
20080825

$$$$
