142459-58-3
ChemmineR-0915142007XD

 24 25  0  0  0  0  0  0  0  0  1 V2000
    9.3736   -1.9848    0.0000 C   0  0  0  0  0  0  0  0  0  0  0  0
    8.2083   -2.6635    0.0000 N   0  0  0  0  0  0  0  0  0  0  0  0
    9.3736   -0.6659    0.0000 C   0  0  0  0  0  0  0  0  0  0  0  0
   10.5004   -2.6635    0.0000 C   0  0  0  0  0  0  0  0  0  0  0  0
    7.0686   -1.9848    0.0000 C   0  0  0  0  0  0  0  0  0  0  0  0
    8.2083   -3.9953    0.0000 C   0  0  0  0  0  0  0  0  0  0  0  0
   10.5004    0.0000    0.0000 C   0  0  0  0  0  0  0  0  0  0  0  0
   11.6657   -1.9848    0.0000 C   0  0  0  0  0  0  0  0  0  0  0  0
    5.9033   -2.6635    0.0000 C   0  0  0  0  0  0  0  0  0  0  0  0
    7.0686   -0.6659    0.0000 O   0  0  0  0  0  0  0  0  0  0  0  0
    7.0686   -4.6612    0.0000 C   0  0  0  0  0  0  0  0  0  0  0  0
    9.3736   -4.6612    0.0000 C   0  0  0  0  0  0  0  0  0  0  0  0
   11.6657   -0.6659    0.0000 C   0  0  0  0  0  0  0  0  0  0  0  0
    4.7380   -1.9848    0.0000 O   0  0  0  0  0  0  0  0  0  0  0  0
   12.8054    0.0000    0.0000 F   0  0  0  0  0  0  0  0  0  0  0  0
    3.5983   -2.6507    0.0000 C   0  0  0  0  0  0  0  0  0  0  0  0
    3.1885   -3.9185    0.0000 S   0  0  0  0  0  0  0  0  0  0  0  0
    2.4971   -1.8824    0.0000 N   0  0  0  0  0  0  0  0  0  0  0  0
    1.8568   -3.9185    0.0000 C   0  0  0  0  0  0  0  0  0  0  0  0
    1.4342   -2.6507    0.0000 N   0  0  0  0  0  0  0  0  0  0  0  0
    1.0628   -5.0069    0.0000 C   0  0  0  0  0  0  0  0  0  0  0  0
    2.1513   -5.7752    0.0000 F   0  0  0  0  0  0  0  0  0  0  0  0
    0.2945   -6.0698    0.0000 F   0  0  0  0  0  0  0  0  0  0  0  0
    0.0000   -4.2130    0.0000 F   0  0  0  0  0  0  0  0  0  0  0  0
  1  2  1  0  0  0  0
  1  3  1  0  0  0  0
  1  4  2  0  0  0  0
  2  5  1  0  0  0  0
  2  6  1  0  0  0  0
  3  7  2  0  0  0  0
  4  8  1  0  0  0  0
  5  9  1  0  0  0  0
  5 10  2  0  0  0  0
  6 11  1  0  0  0  0
  6 12  1  0  0  0  0
  7 13  1  0  0  0  0
  8 13  2  0  0  0  0
  9 14  1  0  0  0  0
 13 15  1  0  0  0  0
 14 16  1  0  0  0  0
 16 17  1  0  0  0  0
 16 18  2  0  0  0  0
 17 19  1  0  0  0  0
 18 20  1  0  0  0  0
 19 21  1  0  0  0  0
 19 20  2  0  0  0  0
 21 22  1  0  0  0  0
 21 23  1  0  0  0  0
 21 24  1  0  0  0  0
M  END
> <ID>
6514

> <Formula>
C14H13F4N3O2S

> <FW>
363.3305

> <DSSTox_CID>
12552

> <DSSTox_RID>
78981

> <DSSTox_GSID>
32552

> <DSSTox_FileID_Sort>
3663

> <TS_ChemName>
Flufenacet

> <TS_ChemName_Synonyms>
Flufenacet (Acetamide, N-(4-fluorophenyl)-N-(1-methylethyl)-2-((5-(trifluoromethyl)-1,3,4-thiadiazol-2-yl)oxy)-) (thiafluamide)

> <TS_CASRN>
142459-58-3

> <CASRN_ChemName_Relationship>
primary

> <TS_Description>
single chemical compound

> <ChemNote>


> <STRUCTURE_Shown>
tested chemical

> <STRUCTURE_Formula>
C14H13F4N3O2S

> <STRUCTURE_MW>
363.3305

> <STRUCTURE_ChemType>
defined organic

> <STRUCTURE_DefinedOrganicForm>
parent

> <STRUCTURE_IUPAC>
N-(4-fluorophenyl)-N-(propan-2-yl)-2-{[5-(trifluoromethyl)-1,3,4-thiadiazol-2-yl]oxy}acetamide

> <STRUCTURE_SMILES>
O=C(COc1nnc(s1)C(F)(F)F)N(c2ccc(F)cc2)C(C)C

> <STRUCTURE_SMILES_Desalt>
O=C(COc1nnc(s1)C(F)(F)F)N(c2ccc(F)cc2)C(C)C

> <Substance_modify_yyyymmdd>
20080429

$$$$
