14255-87-9
ChemmineR-0915142007XD

 18 19  0  0  0  0  0  0  0  0  1 V2000
   11.7988   -0.9675    0.0000 C   0  0  0  0  0  0  0  0  0  0  0  0
   10.6425   -1.6400    0.0000 C   0  0  0  0  0  0  0  0  0  0  0  0
   10.6425   -2.9733    0.0000 C   0  0  0  0  0  0  0  0  0  0  0  0
    9.4980   -3.6340    0.0000 C   0  0  0  0  0  0  0  0  0  0  0  0
    8.3417   -2.9733    0.0000 C   0  0  0  0  0  0  0  0  0  0  0  0
    7.1855   -3.6340    0.0000 C   0  0  0  0  0  0  0  0  0  0  0  0
    6.0410   -2.9733    0.0000 C   0  0  0  0  0  0  0  0  0  0  0  0
    6.0410   -1.6400    0.0000 C   0  0  0  0  0  0  0  0  0  0  0  0
    4.7785   -1.2271    0.0000 N   0  0  0  0  0  0  0  0  0  0  0  0
    3.9880   -2.3008    0.0000 C   0  0  0  0  0  0  0  0  0  0  0  0
    4.7785   -3.3745    0.0000 N   0  0  0  0  0  0  0  0  0  0  0  0
    2.6665   -2.3008    0.0000 N   0  0  0  0  0  0  0  0  0  0  0  0
    1.9940   -1.1563    0.0000 C   0  0  0  0  0  0  0  0  0  0  0  0
    2.6665    0.0000    0.0000 O   0  0  0  0  0  0  0  0  0  0  0  0
    0.6607   -1.1563    0.0000 O   0  0  0  0  0  0  0  0  0  0  0  0
    0.0000   -2.3008    0.0000 C   0  0  0  0  0  0  0  0  0  0  0  0
    7.1855   -0.9675    0.0000 C   0  0  0  0  0  0  0  0  0  0  0  0
    8.3417   -1.6400    0.0000 C   0  0  0  0  0  0  0  0  0  0  0  0
  1  2  1  0  0  0  0
  2  3  1  0  0  0  0
  3  4  1  0  0  0  0
  4  5  1  0  0  0  0
  5  6  2  0  0  0  0
  5 18  1  0  0  0  0
  6  7  1  0  0  0  0
  7  8  2  0  0  0  0
  7 11  1  0  0  0  0
  8  9  1  0  0  0  0
  8 17  1  0  0  0  0
  9 10  1  0  0  0  0
 10 11  2  0  0  0  0
 10 12  1  0  0  0  0
 12 13  1  0  0  0  0
 13 14  2  0  0  0  0
 13 15  1  0  0  0  0
 15 16  1  0  0  0  0
 17 18  2  0  0  0  0
M  END
> <ID>
10929

> <Formula>
C13H17N3O2

> <FW>
247.293

> <DSSTox_CID>
25410

> <DSSTox_RID>
80861

> <DSSTox_GSID>
45410

> <DSSTox_FileID_Sort>
5542

> <TS_ChemName>
Parbendazole

> <TS_ChemName_Synonyms>


> <TS_CASRN>
14255-87-9

> <CASRN_ChemName_Relationship>
primary

> <TS_Description>
single chemical compound

> <ChemNote>


> <STRUCTURE_Shown>
tested chemical

> <STRUCTURE_Formula>
C13H17N3O2

> <STRUCTURE_MW>
247.293

> <STRUCTURE_ChemType>
defined organic

> <STRUCTURE_DefinedOrganicForm>
parent

> <STRUCTURE_IUPAC>
methyl (5-butyl-1H-benzimidazol-2-yl)carbamate

> <STRUCTURE_SMILES>
O=C(OC)Nc1nc2cc(ccc2n1)CCCC

> <STRUCTURE_SMILES_Desalt>
O=C(OC)Nc1nc2cc(ccc2n1)CCCC

> <Substance_modify_yyyymmdd>
20100107

$$$$
