142880-36-2
ChemmineR-0915142007XD

 28 29  0  0  1  0  0  0  0  0  1 V2000
    0.0000   -3.3136    0.0000 O   0  0  0  0  0  0  0  0  0  0  0  0
    1.1506   -3.9810    0.0000 N   0  0  0  0  0  0  0  0  0  0  0  0
    2.3011   -3.3136    0.0000 C   0  0  0  0  0  0  0  0  0  0  0  0
    3.4517   -3.9810    0.0000 C   0  0  0  0  0  0  0  0  0  0  0  0
    2.3011   -1.9790    0.0000 O   0  0  0  0  0  0  0  0  0  0  0  0
    4.6138   -3.3136    0.0000 C   0  0  0  0  0  0  0  0  0  0  0  0
    5.7643   -3.9810    0.0000 C   0  0  0  0  0  0  0  0  0  0  0  0
    4.6138   -1.9790    0.0000 C   0  0  0  0  0  0  0  0  0  0  0  0
    5.7643   -1.3232    0.0000 C   0  0  0  0  0  0  0  0  0  0  0  0
    5.7643    0.0000    0.0000 C   0  0  0  0  0  0  0  0  0  0  0  0
    6.9149   -1.9790    0.0000 C   0  0  0  0  0  0  0  0  0  0  0  0
    5.7643   -5.3156    0.0000 O   0  0  0  0  0  0  0  0  0  0  0  0
    6.9149   -3.3136    0.0000 N   0  0  0  0  0  0  0  0  0  0  0  0
    8.0540   -3.9810    0.0000 C   0  0  0  0  0  0  0  0  0  0  0  0
    9.2046   -3.3136    0.0000 C   0  0  0  0  0  0  0  0  0  0  0  0
    8.0540   -5.3156    0.0000 C   0  0  0  0  0  0  0  0  0  0  0  0
    9.2046   -5.9715    0.0000 C   0  0  0  0  0  0  0  0  0  0  0  0
   10.4126   -5.4307    0.0000 C   0  0  0  0  0  0  0  0  0  0  0  0
    9.3426   -7.2946    0.0000 C   0  0  0  0  0  0  0  0  0  0  0  0
   11.3101   -6.4202    0.0000 N   0  0  0  0  0  0  0  0  0  0  0  0
   10.6428   -7.5707    0.0000 C   0  0  0  0  0  0  0  0  0  0  0  0
    8.4452   -8.2726    0.0000 C   0  0  0  0  0  0  0  0  0  0  0  0
    8.8709   -9.5382    0.0000 C   0  0  0  0  0  0  0  0  0  0  0  0
   11.0570   -8.8364    0.0000 C   0  0  0  0  0  0  0  0  0  0  0  0
   10.1595   -9.8259    0.0000 C   0  0  0  0  0  0  0  0  0  0  0  0
   10.3551   -3.9810    0.0000 N   0  0  0  0  0  0  0  0  0  0  0  0
    9.2046   -1.9790    0.0000 O   0  0  0  0  0  0  0  0  0  0  0  0
   11.5057   -3.3136    0.0000 C   0  0  0  0  0  0  0  0  0  0  0  0
  1  2  1  0  0  0  0
  2  3  1  0  0  0  0
  3  4  1  0  0  0  0
  3  5  2  0  0  0  0
  4  6  1  0  0  0  0
  6  7  1  0  0  0  0
  6  8  1  1  0  0  0
  7 12  2  0  0  0  0
  7 13  1  0  0  0  0
  8  9  1  0  0  0  0
  9 10  1  0  0  0  0
  9 11  1  0  0  0  0
 13 14  1  0  0  0  0
 14 15  1  0  0  0  0
 14 16  1  6  0  0  0
 15 26  1  0  0  0  0
 15 27  2  0  0  0  0
 16 17  1  0  0  0  0
 17 18  2  0  0  0  0
 17 19  1  0  0  0  0
 18 20  1  0  0  0  0
 19 22  1  0  0  0  0
 19 21  2  0  0  0  0
 20 21  1  0  0  0  0
 21 24  1  0  0  0  0
 22 23  2  0  0  0  0
 23 25  1  0  0  0  0
 24 25  2  0  0  0  0
 26 28  1  0  0  0  0
M  END
> <ID>
11623

> <Formula>
C20H28N4O4

> <FW>
388.4607

> <DSSTox_CID>
26353

> <DSSTox_RID>
81556

> <DSSTox_GSID>
46353

> <DSSTox_FileID_Sort>
6237

> <TS_ChemName>
Ilomastat

> <TS_ChemName_Synonyms>


> <TS_CASRN>
142880-36-2

> <CASRN_ChemName_Relationship>
primary

> <TS_Description>
single chemical compound

> <ChemNote>
stereochem

> <STRUCTURE_Shown>
tested chemical

> <STRUCTURE_Formula>
C20H28N4O4

> <STRUCTURE_MW>
388.4607

> <STRUCTURE_ChemType>
defined organic

> <STRUCTURE_DefinedOrganicForm>
parent

> <STRUCTURE_IUPAC>
(2R)-N~4~-hydroxy-N~1~-[(2S)-3-(1H-indol-3-yl)-1-(methylamino)-1-oxopropan-2-yl]-2-(2-methylpropyl)butanediamide

> <STRUCTURE_SMILES>
ONC(=O)C[C@@H](CC(C)C)C(=O)N[C@@H](Cc2cnc1ccccc12)C(=O)NC

> <STRUCTURE_SMILES_Desalt>
ONC(=O)C[C@@H](CC(C)C)C(=O)N[C@@H](Cc2cnc1ccccc12)C(=O)NC

> <Substance_modify_yyyymmdd>
20110814

$$$$
