14293-44-8
ChemmineR-0915142007XD

 23 24  0  0  0  0  0  0  0  0  1 V2000
    2.3367   -2.0210    0.0000 C    0  0  0  0  0  0  0  0  0  0  0  0
    1.1684   -2.6946    0.0000 S    0  0  0  0  0  0  0  0  0  0  0  0
    0.0000   -3.3788    0.0000 N    0  0  0  0  0  0  0  0  0  0  0  0
    0.5052   -1.5157    0.0000 O    0  0  0  0  0  0  0  0  0  0  0  0
    1.8315   -3.8630    0.0000 O    0  0  0  0  0  0  0  0  0  0  0  0
    2.3367   -0.6737    0.0000 C    0  0  0  0  0  0  0  0  0  0  0  0
    1.1684    0.0000    0.0000 Cl   0  0  0  0  0  0  0  0  0  0  0  0
    3.5051    0.0000    0.0000 C    0  0  0  0  0  0  0  0  0  0  0  0
    4.6735   -0.6737    0.0000 C    0  0  0  0  0  0  0  0  0  0  0  0
    5.8523    0.0000    0.0000 O    0  0  0  0  0  0  0  0  0  0  0  0
    4.6735   -2.0210    0.0000 C    0  0  0  0  0  0  0  0  0  0  0  0
    5.8523   -2.6946    0.0000 C    0  0  0  0  0  0  0  0  0  0  0  0
    5.8523   -4.0419    0.0000 O    0  0  0  0  0  0  0  0  0  0  0  0
    7.0207   -2.0210    0.0000 N    0  0  0  0  0  0  0  0  0  0  0  0
    8.1891   -2.6946    0.0000 C    0  0  0  0  0  0  0  0  0  0  0  0
    9.3574   -2.0210    0.0000 C    0  0  0  0  0  0  0  0  0  0  0  0
    9.3574   -0.6737    0.0000 C    0  0  0  0  0  0  0  0  0  0  0  0
   10.5258   -2.6946    0.0000 C    0  0  0  0  0  0  0  0  0  0  0  0
   10.5258   -4.0419    0.0000 C    0  0  0  0  0  0  0  0  0  0  0  0
    9.3574   -4.7261    0.0000 C    0  0  0  0  0  0  0  0  0  0  0  0
    8.1891   -4.0419    0.0000 C    0  0  0  0  0  0  0  0  0  0  0  0
    7.6417   -4.7261    0.0000 C    0  0  0  0  0  0  0  0  0  0  0  0
    3.5051   -2.6946    0.0000 C    0  0  0  0  0  0  0  0  0  0  0  0
  1  2  1  0  0  0  0
  1  6  2  0  0  0  0
  1 23  1  0  0  0  0
  2  3  1  0  0  0  0
  2  4  2  0  0  0  0
  2  5  2  0  0  0  0
  6  7  1  0  0  0  0
  6  8  1  0  0  0  0
  8  9  2  0  0  0  0
  9 10  1  0  0  0  0
  9 11  1  0  0  0  0
 11 12  1  0  0  0  0
 11 23  2  0  0  0  0
 12 13  2  0  0  0  0
 12 14  1  0  0  0  0
 14 15  1  0  0  0  0
 15 16  2  0  0  0  0
 15 21  1  0  0  0  0
 16 17  1  0  0  0  0
 16 18  1  0  0  0  0
 18 19  2  0  0  0  0
 19 20  1  0  0  0  0
 20 21  2  0  0  0  0
 21 22  1  0  0  0  0
M  END
> <ID>
3346

> <Formula>
C15H15ClN2O4S

> <FW>
354.8086

> <DSSTox_CID>
3744

> <DSSTox_RID>
77179

> <DSSTox_GSID>
23744

> <DSSTox_FileID_Sort>
1862

> <TS_ChemName>
Xipamide

> <TS_ChemName_Synonyms>


> <TS_CASRN>
14293-44-8

> <CASRN_ChemName_Relationship>
primary

> <TS_Description>
single chemical compound

> <ChemNote>


> <STRUCTURE_Shown>
tested chemical

> <STRUCTURE_Formula>
C15H15ClN2O4S

> <STRUCTURE_MW>
354.8086

> <STRUCTURE_ChemType>
defined organic

> <STRUCTURE_DefinedOrganicForm>
parent

> <STRUCTURE_IUPAC>
4-chloro-N-(2,6-dimethylphenyl)-2-hydroxy-5-sulfamoylbenzamide

> <STRUCTURE_SMILES>
O=S(N)(=O)c1cc(c(O)cc1Cl)C(=O)Nc2c(C)cccc2C

> <STRUCTURE_SMILES_Desalt>
O=S(N)(=O)c1cc(c(O)cc1Cl)C(=O)Nc2c(C)cccc2C

> <Substance_modify_yyyymmdd>
20080429

$$$$
