143-23-7
ChemmineR-0915142007XD

 15 14  0  0  0  0  0  0  0  0  1 V2000
    9.2371    0.0000    0.0000 C   0  0  0  0  0  0  0  0  0  0  0  0
   10.3836   -0.6621    0.0000 C   0  0  0  0  0  0  0  0  0  0  0  0
   11.5463    0.0000    0.0000 C   0  0  0  0  0  0  0  0  0  0  0  0
   12.6929   -0.6621    0.0000 C   0  0  0  0  0  0  0  0  0  0  0  0
   13.8394    0.0000    0.0000 C   0  0  0  0  0  0  0  0  0  0  0  0
   14.9860   -0.6621    0.0000 C   0  0  0  0  0  0  0  0  0  0  0  0
    8.0743   -0.6621    0.0000 N   0  0  0  0  0  0  0  0  0  0  0  0
   16.1487    0.0000    0.0000 N   0  0  0  0  0  0  0  0  0  0  0  0
    6.9116    0.0000    0.0000 C   0  0  0  0  0  0  0  0  0  0  0  0
    5.7651   -0.6621    0.0000 C   0  0  0  0  0  0  0  0  0  0  0  0
    4.6024    0.0000    0.0000 C   0  0  0  0  0  0  0  0  0  0  0  0
    3.4558   -0.6621    0.0000 C   0  0  0  0  0  0  0  0  0  0  0  0
    2.3093    0.0000    0.0000 C   0  0  0  0  0  0  0  0  0  0  0  0
    1.1627   -0.6621    0.0000 C   0  0  0  0  0  0  0  0  0  0  0  0
    0.0000    0.0000    0.0000 N   0  0  0  0  0  0  0  0  0  0  0  0
  1  2  1  0  0  0  0
  1  7  1  0  0  0  0
  2  3  1  0  0  0  0
  3  4  1  0  0  0  0
  4  5  1  0  0  0  0
  5  6  1  0  0  0  0
  6  8  1  0  0  0  0
  7  9  1  0  0  0  0
  9 10  1  0  0  0  0
 10 11  1  0  0  0  0
 11 12  1  0  0  0  0
 12 13  1  0  0  0  0
 13 14  1  0  0  0  0
 14 15  1  0  0  0  0
M  END
> <ID>
4936

> <Formula>
C12H29N3

> <FW>
215.3788

> <DSSTox_CID>
7109

> <DSSTox_RID>
78313

> <DSSTox_GSID>
27109

> <DSSTox_FileID_Sort>
2996

> <TS_ChemName>
N-(6-Aminohexyl)hexane-1,6-diamine

> <TS_ChemName_Synonyms>


> <TS_CASRN>
143-23-7

> <CASRN_ChemName_Relationship>
primary

> <TS_Description>
single chemical compound

> <ChemNote>


> <STRUCTURE_Shown>
tested chemical

> <STRUCTURE_Formula>
C12H29N3

> <STRUCTURE_MW>
215.3788

> <STRUCTURE_ChemType>
defined organic

> <STRUCTURE_DefinedOrganicForm>
parent

> <STRUCTURE_IUPAC>
N-(6-aminohexyl)hexane-1,6-diamine

> <STRUCTURE_SMILES>
NCCCCCCNCCCCCCN

> <STRUCTURE_SMILES_Desalt>
NCCCCCCNCCCCCCN

> <Substance_modify_yyyymmdd>
20080429

$$$$
