143-98-6
ChemmineR-0915142007XD

 30 32  0  0  1  0  0  0  0  0  1 V2000
    3.8825   -4.0281    0.0000 C   0  0  0  0  0  0  0  0  0  0  0  0
    2.5916   -4.0281    0.0000 C   0  0  0  0  0  0  0  0  0  0  0  0
    4.5426   -2.9216    0.0000 C   0  0  0  0  0  0  0  0  0  0  0  0
    3.8825   -1.8054    0.0000 C   0  0  0  0  0  0  0  0  0  0  0  0
    1.9995   -2.9216    0.0000 C   0  0  0  0  0  0  0  0  0  0  0  0
    2.5916   -1.8054    0.0000 C   0  0  0  0  0  0  0  0  0  0  0  0
    4.5426   -0.6989    0.0000 N   0  0  0  0  0  0  0  0  0  0  0  0
    3.2419   -3.0575    0.0000 C   0  0  0  0  0  0  0  0  0  0  0  0
    3.2419   -0.6989    0.0000 C   0  0  0  0  0  0  0  0  0  0  0  0
    4.5426   -5.1346    0.0000 C   0  0  0  0  0  0  0  0  0  0  0  0
    1.9995   -5.1346    0.0000 C   0  0  0  0  0  0  0  0  0  0  0  0
    5.7850   -2.9216    0.0000 C   0  0  0  0  0  0  0  0  0  0  0  0
    0.6989   -2.9216    0.0000 C   0  0  0  0  0  0  0  0  0  0  0  0
    5.7850   -5.1346    0.0000 C   0  0  0  0  0  0  0  0  0  0  0  0
    0.6989   -5.1346    0.0000 C   0  0  0  0  0  0  0  0  0  0  0  0
    6.4741   -4.0281    0.0000 C   0  0  0  0  0  0  0  0  0  0  0  0
    0.0971   -4.0281    0.0000 C   0  0  0  0  0  0  0  0  0  0  0  0
    5.1832   -1.7665    0.0000 H   0  0  0  0  0  0  0  0  0  0  0  0
    0.0000   -6.3091    0.0000 O   0  0  0  0  0  0  0  0  0  0  0  0
    5.6976    0.0000    0.0000 C   0  0  0  0  0  0  0  0  0  0  0  0
    1.9316   -7.7068    0.0000 C   0  0  0  0  0  0  0  0  0  0  0  0
    3.0866   -8.4154    0.0000 C   0  0  0  0  0  0  0  0  0  0  0  0
    0.8250   -8.4154    0.0000 O   0  0  0  0  0  0  0  0  0  0  0  0
    1.9316   -6.3673    0.0000 O   0  0  0  0  0  0  0  0  0  0  0  0
    3.0866   -9.7063    0.0000 O   0  0  0  0  0  0  0  0  0  0  0  0
    4.2417   -7.7068    0.0000 C   0  0  0  0  0  0  0  0  0  0  0  0
    5.4161   -8.4154    0.0000 C   0  0  0  0  0  0  0  0  0  0  0  0
    6.5226   -7.7068    0.0000 O   0  0  0  0  0  0  0  0  0  0  0  0
    5.4161   -9.7063    0.0000 O   0  0  0  0  0  0  0  0  0  0  0  0
    4.2417   -6.3673    0.0000 O   0  0  0  0  0  0  0  0  0  0  0  0
  1  2  1  0  0  0  0
  1  3  1  0  0  0  0
  1  8  1  6  0  0  0
  1 10  1  0  0  0  0
  2  5  2  0  0  0  0
  2 11  1  0  0  0  0
  3  4  1  0  0  0  0
  3 12  1  0  0  0  0
  3 18  1  6  0  0  0
  4  6  1  0  0  0  0
  4  7  1  6  0  0  0
  5 13  1  0  0  0  0
  5  6  1  0  0  0  0
  7  9  1  0  0  0  0
  7 20  1  0  0  0  0
  8  9  1  0  0  0  0
 10 14  1  0  0  0  0
 11 15  2  0  0  0  0
 12 16  1  0  0  0  0
 13 17  2  0  0  0  0
 14 16  1  0  0  0  0
 15 17  1  0  0  0  0
 15 19  1  0  0  0  0
 21 22  1  0  0  0  0
 21 23  1  0  0  0  0
 21 24  2  0  0  0  0
 22 25  1  1  0  0  0
 22 26  1  0  0  0  0
 26 27  1  0  0  0  0
 26 30  1  1  0  0  0
 27 28  1  0  0  0  0
 27 29  2  0  0  0  0
M  END
> <ID>
13982

> <Formula>
C21H29NO7

> <FW>
407.4575 (257.3706+150.0868)

> <DSSTox_CID>
28923

> <DSSTox_RID>
83189

> <DSSTox_GSID>
48997

> <DSSTox_FileID_Sort>
7865

> <TS_ChemName>
Dextrorphan tartrate

> <TS_ChemName_Synonyms>


> <TS_CASRN>
143-98-6

> <CASRN_ChemName_Relationship>
primary

> <TS_Description>
single chemical compound

> <ChemNote>


> <STRUCTURE_Shown>
tested chemical

> <STRUCTURE_Formula>
C21H29NO7

> <STRUCTURE_MW>
407.4575

> <STRUCTURE_ChemType>
defined organic

> <STRUCTURE_DefinedOrganicForm>
complex

> <STRUCTURE_IUPAC>
(2R,3R)-2,3-dihydroxybutanedioic acid - (9alpha,13alpha,14alpha)-17-methylmorphinan-3-ol (1:1)

> <STRUCTURE_SMILES>
O=C(O)[C@H](O)[C@@H](O)C(=O)O.Oc3ccc4C[C@@H]1N(C)CC[C@]2(CCCC[C@H]12)c4c3

> <STRUCTURE_SMILES_Desalt>
Oc3ccc4C[C@@H]1N(C)CC[C@]2(CCCC[C@H]12)c4c3

> <Substance_modify_yyyymmdd>
20111204

$$$$
