143-74-8
ChemmineR-0915142007XD

 25 28  0  0  0  0  0  0  0  0  1 V2000
    1.4291   -5.3770    0.0000 S   0  0  0  0  0  0  0  0  0  0  0  0
    2.7477   -5.5191    0.0000 O   0  0  0  0  0  0  0  0  0  0  0  0
    3.2925   -4.3032    0.0000 C   0  0  0  0  0  0  0  0  0  0  0  0
    4.4453   -4.9664    0.0000 C   0  0  0  0  0  0  0  0  0  0  0  0
    5.5902   -4.3032    0.0000 C   0  0  0  0  0  0  0  0  0  0  0  0
    6.7430   -4.9664    0.0000 C   0  0  0  0  0  0  0  0  0  0  0  0
    6.7430   -6.3008    0.0000 C   0  0  0  0  0  0  0  0  0  0  0  0
    5.5902   -6.9640    0.0000 C   0  0  0  0  0  0  0  0  0  0  0  0
    4.4453   -6.3008    0.0000 C   0  0  0  0  0  0  0  0  0  0  0  0
    7.8957   -6.9640    0.0000 O   0  0  0  0  0  0  0  0  0  0  0  0
    4.0742   -3.2294    0.0000 C   0  0  0  0  0  0  0  0  0  0  0  0
    3.5294   -2.0134    0.0000 C   0  0  0  0  0  0  0  0  0  0  0  0
    4.3111   -0.9396    0.0000 C   0  0  0  0  0  0  0  0  0  0  0  0
    5.6375   -1.0817    0.0000 C   0  0  0  0  0  0  0  0  0  0  0  0
    6.1745   -2.2898    0.0000 C   0  0  0  0  0  0  0  0  0  0  0  0
    5.3928   -3.3715    0.0000 C   0  0  0  0  0  0  0  0  0  0  0  0
    6.4192    0.0000    0.0000 O   0  0  0  0  0  0  0  0  0  0  0  0
    2.3056   -3.4189    0.0000 C   0  0  0  0  0  0  0  0  0  0  0  0
    1.1528   -4.0821    0.0000 C   0  0  0  0  0  0  0  0  0  0  0  0
    0.0000   -3.4189    0.0000 C   0  0  0  0  0  0  0  0  0  0  0  0
    0.0000   -2.0845    0.0000 C   0  0  0  0  0  0  0  0  0  0  0  0
    1.1528   -1.4212    0.0000 C   0  0  0  0  0  0  0  0  0  0  0  0
    2.3056   -2.0845    0.0000 C   0  0  0  0  0  0  0  0  0  0  0  0
    1.4291   -6.7114    0.0000 O   0  0  0  0  0  0  0  0  0  0  0  0
    0.1026   -5.5191    0.0000 O   0  0  0  0  0  0  0  0  0  0  0  0
  1  2  1  0  0  0  0
  1 19  1  0  0  0  0
  1 24  2  0  0  0  0
  1 25  2  0  0  0  0
  2  3  1  0  0  0  0
  3  4  1  0  0  0  0
  3 11  1  0  0  0  0
  3 18  1  0  0  0  0
  4  5  1  0  0  0  0
  4  9  2  0  0  0  0
  5  6  2  0  0  0  0
  6  7  1  0  0  0  0
  7  8  2  0  0  0  0
  7 10  1  0  0  0  0
  8  9  1  0  0  0  0
 11 12  2  0  0  0  0
 11 16  1  0  0  0  0
 12 13  1  0  0  0  0
 13 14  2  0  0  0  0
 14 15  1  0  0  0  0
 14 17  1  0  0  0  0
 15 16  2  0  0  0  0
 18 19  2  0  0  0  0
 18 23  1  0  0  0  0
 19 20  1  0  0  0  0
 20 21  2  0  0  0  0
 21 22  1  0  0  0  0
 22 23  2  0  0  0  0
M  END
> <ID>
2208

> <Formula>
C19H14O5S

> <FW>
354.3765

> <DSSTox_CID>
2408

> <DSSTox_RID>
76578

> <DSSTox_GSID>
22408

> <DSSTox_FileID_Sort>
1262

> <TS_ChemName>
Phenol red

> <TS_ChemName_Synonyms>


> <TS_CASRN>
143-74-8

> <CASRN_ChemName_Relationship>
primary

> <TS_Description>
single chemical compound

> <ChemNote>


> <STRUCTURE_Shown>
tested chemical

> <STRUCTURE_Formula>
C19H14O5S

> <STRUCTURE_MW>
354.3765

> <STRUCTURE_ChemType>
defined organic

> <STRUCTURE_DefinedOrganicForm>
parent

> <STRUCTURE_IUPAC>
4,4'-(1,1-dioxido-3H-2,1-benzoxathiole-3,3-diyl)diphenol

> <STRUCTURE_SMILES>
Oc1ccc(cc1)C3(OS(=O)(=O)c2ccccc23)c4ccc(O)cc4

> <STRUCTURE_SMILES_Desalt>
Oc1ccc(cc1)C3(OS(=O)(=O)c2ccccc23)c4ccc(O)cc4

> <Substance_modify_yyyymmdd>
20080429

$$$$
