143-13-5
ChemmineR-0915142007XD

 13 12  0  0  0  0  0  0  0  0  1 V2000
   11.5412   -1.3331    0.0000 C   0  0  0  0  0  0  0  0  0  0  0  0
   11.5412    0.0000    0.0000 O   0  0  0  0  0  0  0  0  0  0  0  0
   10.3858   -1.9934    0.0000 O   0  0  0  0  0  0  0  0  0  0  0  0
   12.6965   -1.9934    0.0000 C   0  0  0  0  0  0  0  0  0  0  0  0
    9.2304   -1.3331    0.0000 C   0  0  0  0  0  0  0  0  0  0  0  0
    8.0750   -1.9934    0.0000 C   0  0  0  0  0  0  0  0  0  0  0  0
    6.9196   -1.3331    0.0000 C   0  0  0  0  0  0  0  0  0  0  0  0
    5.7642   -1.9934    0.0000 C   0  0  0  0  0  0  0  0  0  0  0  0
    4.6088   -1.3331    0.0000 C   0  0  0  0  0  0  0  0  0  0  0  0
    3.4662   -1.9934    0.0000 C   0  0  0  0  0  0  0  0  0  0  0  0
    2.3108   -1.3331    0.0000 C   0  0  0  0  0  0  0  0  0  0  0  0
    1.1554   -1.9934    0.0000 C   0  0  0  0  0  0  0  0  0  0  0  0
    0.0000   -1.3331    0.0000 C   0  0  0  0  0  0  0  0  0  0  0  0
  1  2  2  0  0  0  0
  1  3  1  0  0  0  0
  1  4  1  0  0  0  0
  3  5  1  0  0  0  0
  5  6  1  0  0  0  0
  6  7  1  0  0  0  0
  7  8  1  0  0  0  0
  8  9  1  0  0  0  0
  9 10  1  0  0  0  0
 10 11  1  0  0  0  0
 11 12  1  0  0  0  0
 12 13  1  0  0  0  0
M  END
> <ID>
12273

> <Formula>
C11H22O2

> <FW>
186.2912

> <DSSTox_CID>
27123

> <DSSTox_RID>
82130

> <DSSTox_GSID>
47123

> <DSSTox_FileID_Sort>
6811

> <TS_ChemName>
Nonyl acetate

> <TS_ChemName_Synonyms>


> <TS_CASRN>
143-13-5

> <CASRN_ChemName_Relationship>
primary

> <TS_Description>
single chemical compound

> <ChemNote>


> <STRUCTURE_Shown>
tested chemical

> <STRUCTURE_Formula>
C11H22O2

> <STRUCTURE_MW>
186.2912

> <STRUCTURE_ChemType>
defined organic

> <STRUCTURE_DefinedOrganicForm>
parent

> <STRUCTURE_IUPAC>
nonyl acetate

> <STRUCTURE_SMILES>
CC(=O)OCCCCCCCCC

> <STRUCTURE_SMILES_Desalt>
CC(=O)OCCCCCCCCC

> <Substance_modify_yyyymmdd>


$$$$
