143-27-1
ChemmineR-0915142007XD

 17 16  0  0  0  0  0  0  0  0  1 V2000
    0.0000   -0.6638    0.0000 N   0  0  0  0  0  0  0  0  0  0  0  0
    1.1433    0.0000    0.0000 C   0  0  0  0  0  0  0  0  0  0  0  0
    2.3050   -0.6638    0.0000 C   0  0  0  0  0  0  0  0  0  0  0  0
    3.4667    0.0000    0.0000 C   0  0  0  0  0  0  0  0  0  0  0  0
    4.6099   -0.6638    0.0000 C   0  0  0  0  0  0  0  0  0  0  0  0
    5.7532    0.0000    0.0000 C   0  0  0  0  0  0  0  0  0  0  0  0
    6.9149   -0.6638    0.0000 C   0  0  0  0  0  0  0  0  0  0  0  0
    8.0581    0.0000    0.0000 C   0  0  0  0  0  0  0  0  0  0  0  0
    9.2198   -0.6638    0.0000 C   0  0  0  0  0  0  0  0  0  0  0  0
   10.3815    0.0000    0.0000 C   0  0  0  0  0  0  0  0  0  0  0  0
   11.5248   -0.6638    0.0000 C   0  0  0  0  0  0  0  0  0  0  0  0
   12.6681    0.0000    0.0000 C   0  0  0  0  0  0  0  0  0  0  0  0
   13.8298   -0.6638    0.0000 C   0  0  0  0  0  0  0  0  0  0  0  0
   14.9730    0.0000    0.0000 C   0  0  0  0  0  0  0  0  0  0  0  0
   16.1347   -0.6638    0.0000 C   0  0  0  0  0  0  0  0  0  0  0  0
   17.2964    0.0000    0.0000 C   0  0  0  0  0  0  0  0  0  0  0  0
   18.4397   -0.6638    0.0000 C   0  0  0  0  0  0  0  0  0  0  0  0
  1  2  1  0  0  0  0
  2  3  1  0  0  0  0
  3  4  1  0  0  0  0
  4  5  1  0  0  0  0
  5  6  1  0  0  0  0
  6  7  1  0  0  0  0
  7  8  1  0  0  0  0
  8  9  1  0  0  0  0
  9 10  1  0  0  0  0
 10 11  1  0  0  0  0
 11 12  1  0  0  0  0
 12 13  1  0  0  0  0
 13 14  1  0  0  0  0
 14 15  1  0  0  0  0
 15 16  1  0  0  0  0
 16 17  1  0  0  0  0
M  END
> <ID>
4169

> <Formula>
C16H35N

> <FW>
241.4558

> <DSSTox_CID>
5390

> <DSSTox_RID>
77768

> <DSSTox_GSID>
25390

> <DSSTox_FileID_Sort>
2451

> <TS_ChemName>
Hexadecylamine

> <TS_ChemName_Synonyms>
Hexadecylamine (1-Hexadecanamine)

> <TS_CASRN>
143-27-1

> <CASRN_ChemName_Relationship>
primary

> <TS_Description>
single chemical compound

> <ChemNote>


> <STRUCTURE_Shown>
tested chemical

> <STRUCTURE_Formula>
C16H35N

> <STRUCTURE_MW>
241.4558

> <STRUCTURE_ChemType>
defined organic

> <STRUCTURE_DefinedOrganicForm>
parent

> <STRUCTURE_IUPAC>
hexadecan-1-amine

> <STRUCTURE_SMILES>
CCCCCCCCCCCCCCCCN

> <STRUCTURE_SMILES_Desalt>
CCCCCCCCCCCCCCCCN

> <Substance_modify_yyyymmdd>
20080429

$$$$
