143-24-8
ChemmineR-0915142007XD

 15 14  0  0  0  0  0  0  0  0  1 V2000
    1.1375   -0.1602    0.0000 O   0  0  0  0  0  0  0  0  0  0  0  0
   14.8678    0.0000    0.0000 O   0  0  0  0  0  0  0  0  0  0  0  0
    7.9947   -0.0801    0.0000 O   0  0  0  0  0  0  0  0  0  0  0  0
   11.4553   -0.7210    0.0000 O   0  0  0  0  0  0  0  0  0  0  0  0
    4.5661   -0.8011    0.0000 O   0  0  0  0  0  0  0  0  0  0  0  0
   13.7303   -0.7049    0.0000 C   0  0  0  0  0  0  0  0  0  0  0  0
    2.2750   -0.8171    0.0000 C   0  0  0  0  0  0  0  0  0  0  0  0
    9.1482   -0.7530    0.0000 C   0  0  0  0  0  0  0  0  0  0  0  0
   10.2857   -0.0641    0.0000 C   0  0  0  0  0  0  0  0  0  0  0  0
    5.7036   -0.1121    0.0000 C   0  0  0  0  0  0  0  0  0  0  0  0
   12.5607   -0.0320    0.0000 C   0  0  0  0  0  0  0  0  0  0  0  0
    6.8571   -0.7690    0.0000 C   0  0  0  0  0  0  0  0  0  0  0  0
    3.4125   -0.1282    0.0000 C   0  0  0  0  0  0  0  0  0  0  0  0
    0.0000   -0.8331    0.0000 C   0  0  0  0  0  0  0  0  0  0  0  0
   16.0213   -0.6729    0.0000 C   0  0  0  0  0  0  0  0  0  0  0  0
  1  7  1  0  0  0  0
  1 14  1  0  0  0  0
  2  6  1  0  0  0  0
  2 15  1  0  0  0  0
  3 12  1  0  0  0  0
  3  8  1  0  0  0  0
  4  9  1  0  0  0  0
  4 11  1  0  0  0  0
  5 13  1  0  0  0  0
  5 10  1  0  0  0  0
  6 11  1  0  0  0  0
  7 13  1  0  0  0  0
  8  9  1  0  0  0  0
 10 12  1  0  0  0  0
M  END
> <ID>
10053

> <Formula>
C10H22O5

> <FW>
222.2787

> <DSSTox_CID>
24396

> <DSSTox_RID>
80197

> <DSSTox_GSID>
44396

> <DSSTox_FileID_Sort>
4879

> <TS_ChemName>
2,5,8,11,14-Pentaoxapentadecane

> <TS_ChemName_Synonyms>
2,5,8,11,14-Pentaoxapentadecane (Tetraglyme)

> <TS_CASRN>
143-24-8

> <CASRN_ChemName_Relationship>
primary

> <TS_Description>
single chemical compound

> <ChemNote>


> <STRUCTURE_Shown>
tested chemical

> <STRUCTURE_Formula>
C10H22O5

> <STRUCTURE_MW>
222.2787

> <STRUCTURE_ChemType>
defined organic

> <STRUCTURE_DefinedOrganicForm>
parent

> <STRUCTURE_IUPAC>
2,5,8,11,14-pentaoxapentadecane

> <STRUCTURE_SMILES>
COCCOCCOCCOCCOC

> <STRUCTURE_SMILES_Desalt>
COCCOCCOCCOCCOC

> <Substance_modify_yyyymmdd>
20091116

$$$$
