143201-11-0
ChemmineR-0915142007XD

 34 34  0  0  1  0  0  0  0  0  2 V2000
    0.0000   -4.2487    0.0000 Na   0  3  0  0  0  0  0  0  0  0  0  0
   13.3731   -9.3282    0.0000 C    0  0  0  0  0  0  0  0  0  0  0  0
   13.3731   -7.9956    0.0000 C    0  0  0  0  0  0  0  0  0  0  0  0
   14.5176   -7.3372    0.0000 C    0  0  0  0  0  0  0  0  0  0  0  0
   12.2129   -7.3372    0.0000 C    0  0  0  0  0  0  0  0  0  0  0  0
   11.0685   -7.9956    0.0000 N    0  0  0  0  0  0  0  0  0  0  0  0
    9.9083   -7.3372    0.0000 C    0  0  0  0  0  0  0  0  0  0  0  0
    9.9083   -5.9889    0.0000 C    0  0  0  0  0  0  0  0  0  0  0  0
    8.7482   -5.3304    0.0000 C    0  0  0  0  0  0  0  0  0  0  0  0
    7.6037   -5.9889    0.0000 C    0  0  0  0  0  0  0  0  0  0  0  0
    6.4435   -5.3304    0.0000 C    0  0  0  0  0  0  0  0  0  0  0  0
    6.4435   -4.0135    0.0000 O    0  0  0  0  0  0  0  0  0  0  0  0
    5.2834   -5.9889    0.0000 C    0  0  0  0  0  0  0  0  0  0  0  0
    4.1389   -5.3304    0.0000 C    0  0  0  0  0  0  0  0  0  0  0  0
    4.1389   -4.0135    0.0000 O    0  0  0  0  0  0  0  0  0  0  0  0
    2.9788   -5.9889    0.0000 C    0  0  0  0  0  0  0  0  0  0  0  0
    1.8343   -5.3304    0.0000 C    0  0  0  0  0  0  0  0  0  0  0  0
    0.6741   -5.9889    0.0000 O    0  5  0  0  0  0  0  0  0  0  0  0
    1.8343   -4.0135    0.0000 O    0  0  0  0  0  0  0  0  0  0  0  0
   11.0685   -5.3304    0.0000 C    0  0  0  0  0  0  0  0  0  0  0  0
   12.2129   -5.9889    0.0000 C    0  0  0  0  0  0  0  0  0  0  0  0
   13.3731   -5.3304    0.0000 C    0  0  0  0  0  0  0  0  0  0  0  0
   14.5176   -5.9889    0.0000 O    0  0  0  0  0  0  0  0  0  0  0  0
   15.6777   -5.3304    0.0000 C    0  0  0  0  0  0  0  0  0  0  0  0
   11.0685   -4.0135    0.0000 C    0  0  0  0  0  0  0  0  0  0  0  0
    9.9083   -3.3394    0.0000 C    0  0  0  0  0  0  0  0  0  0  0  0
    9.9083   -1.9911    0.0000 C    0  0  0  0  0  0  0  0  0  0  0  0
   11.0685   -1.3326    0.0000 C    0  0  0  0  0  0  0  0  0  0  0  0
   11.0685    0.0000    0.0000 F    0  0  0  0  0  0  0  0  0  0  0  0
   12.2129   -1.9911    0.0000 C    0  0  0  0  0  0  0  0  0  0  0  0
   12.2129   -3.3394    0.0000 C    0  0  0  0  0  0  0  0  0  0  0  0
    8.7482   -7.9956    0.0000 C    0  0  0  0  0  0  0  0  0  0  0  0
    8.7482   -9.3282    0.0000 C    0  0  0  0  0  0  0  0  0  0  0  0
    7.6037   -7.3372    0.0000 C    0  0  0  0  0  0  0  0  0  0  0  0
  2  3  1  0  0  0  0
  3  4  1  0  0  0  0
  3  5  1  0  0  0  0
  5  6  2  0  0  0  0
  5 21  1  0  0  0  0
  6  7  1  0  0  0  0
  7  8  2  0  0  0  0
  7 32  1  0  0  0  0
  8  9  1  0  0  0  0
  8 20  1  0  0  0  0
  9 10  2  0  0  0  0
 10 11  1  0  0  0  0
 11 12  1  6  0  0  0
 11 13  1  0  0  0  0
 13 14  1  0  0  0  0
 14 15  1  6  0  0  0
 14 16  1  0  0  0  0
 16 17  1  0  0  0  0
 17 18  1  0  0  0  0
 17 19  2  0  0  0  0
 20 21  2  0  0  0  0
 20 25  1  0  0  0  0
 21 22  1  0  0  0  0
 22 23  1  0  0  0  0
 23 24  1  0  0  0  0
 25 26  2  0  0  0  0
 25 31  1  0  0  0  0
 26 27  1  0  0  0  0
 27 28  2  0  0  0  0
 28 29  1  0  0  0  0
 28 30  1  0  0  0  0
 30 31  2  0  0  0  0
 32 33  1  0  0  0  0
 32 34  1  0  0  0  0
M  END
> <ID>
11725

> <Formula>
C26H33FNNaO5

> <FW>
481.5321 (22.9892+458.5429)

> <DSSTox_CID>
26488

> <DSSTox_RID>
81659

> <DSSTox_GSID>
46488

> <DSSTox_FileID_Sort>
6340

> <TS_ChemName>
Cerivastatin sodium

> <TS_ChemName_Synonyms>


> <TS_CASRN>
143201-11-0

> <CASRN_ChemName_Relationship>
primary

> <TS_Description>
single chemical compound

> <ChemNote>
stereochem; parent [145599-86-6]

> <STRUCTURE_Shown>
tested chemical

> <STRUCTURE_Formula>
C26H33FNNaO5

> <STRUCTURE_MW>
481.5321

> <STRUCTURE_ChemType>
defined organic

> <STRUCTURE_DefinedOrganicForm>
salt

> <STRUCTURE_IUPAC>
sodium (3R,5S,6E)-7-[4-(4-fluorophenyl)-5-(methoxymethyl)-2,6-di(propan-2-yl)pyridin-3-yl]-3,5-dihydroxyhept-6-enoate

> <STRUCTURE_SMILES>
[Na+].CC(C)c1nc(c(/C=C/[C@@H](O)C[C@@H](O)CC([O-])=O)c(c1COC)c2ccc(F)cc2)C(C)C

> <STRUCTURE_SMILES_Desalt>
CC(C)c1nc(c(/C=C/[C@@H](O)C[C@@H](O)CC(=O)O)c(c1COC)c2ccc(F)cc2)C(C)C

> <Substance_modify_yyyymmdd>
20110812

$$$$
