143322-58-1
ChemmineR-0915142007XD

 27 30  0  0  1  0  0  0  0  0  1 V2000
   12.7428   -2.3023    0.0000 C   0  0  0  0  0  0  0  0  0  0  0  0
   12.7428   -3.6294    0.0000 N   0  0  0  0  0  0  0  0  0  0  0  0
   13.8300   -4.3968    0.0000 C   0  0  0  0  0  0  0  0  0  0  0  0
   13.4143   -5.6759    0.0000 C   0  0  0  0  0  0  0  0  0  0  0  0
   12.0873   -5.6759    0.0000 C   0  0  0  0  0  0  0  0  0  0  0  0
   11.6716   -4.3968    0.0000 C   0  0  0  0  0  0  0  0  0  0  0  0
   10.4085   -3.9971    0.0000 C   0  0  0  0  0  0  0  0  0  0  0  0
    9.4172   -4.8765    0.0000 C   0  0  0  0  0  0  0  0  0  0  0  0
    9.5451   -6.2035    0.0000 C   0  0  0  0  0  0  0  0  0  0  0  0
    8.3300   -6.7471    0.0000 N   0  0  0  0  0  0  0  0  0  0  0  0
    7.4506   -5.7558    0.0000 C   0  0  0  0  0  0  0  0  0  0  0  0
    6.1236   -5.7558    0.0000 C   0  0  0  0  0  0  0  0  0  0  0  0
    5.4521   -4.6047    0.0000 C   0  0  0  0  0  0  0  0  0  0  0  0
    6.1236   -3.4535    0.0000 C   0  0  0  0  0  0  0  0  0  0  0  0
    5.4521   -2.3023    0.0000 C   0  0  0  0  0  0  0  0  0  0  0  0
    4.1250   -2.3023    0.0000 C   0  0  0  0  0  0  0  0  0  0  0  0
    3.4535   -1.1512    0.0000 S   0  0  0  0  0  0  0  0  0  0  0  0
    2.7980    0.0000    0.0000 O   0  0  0  0  0  0  0  0  0  0  0  0
    4.6047   -0.4797    0.0000 O   0  0  0  0  0  0  0  0  0  0  0  0
    2.3023   -1.8067    0.0000 C   0  0  0  0  0  0  0  0  0  0  0  0
    2.3023   -3.1337    0.0000 C   0  0  0  0  0  0  0  0  0  0  0  0
    1.1512   -3.8212    0.0000 C   0  0  0  0  0  0  0  0  0  0  0  0
    0.0000   -3.1337    0.0000 C   0  0  0  0  0  0  0  0  0  0  0  0
    0.0000   -1.8067    0.0000 C   0  0  0  0  0  0  0  0  0  0  0  0
    1.1512   -1.1512    0.0000 C   0  0  0  0  0  0  0  0  0  0  0  0
    7.4506   -3.4535    0.0000 C   0  0  0  0  0  0  0  0  0  0  0  0
    8.1221   -4.6047    0.0000 C   0  0  0  0  0  0  0  0  0  0  0  0
  1  2  1  0  0  0  0
  2  3  1  0  0  0  0
  2  6  1  0  0  0  0
  3  4  1  0  0  0  0
  4  5  1  0  0  0  0
  5  6  1  0  0  0  0
  6  7  1  6  0  0  0
  7  8  1  0  0  0  0
  8  9  2  0  0  0  0
  8 27  1  0  0  0  0
  9 10  1  0  0  0  0
 10 11  1  0  0  0  0
 11 12  2  0  0  0  0
 11 27  1  0  0  0  0
 12 13  1  0  0  0  0
 13 14  2  0  0  0  0
 14 15  1  0  0  0  0
 14 26  1  0  0  0  0
 15 16  1  0  0  0  0
 16 17  1  0  0  0  0
 17 18  2  0  0  0  0
 17 19  2  0  0  0  0
 17 20  1  0  0  0  0
 20 21  2  0  0  0  0
 20 25  1  0  0  0  0
 21 22  1  0  0  0  0
 22 23  2  0  0  0  0
 23 24  1  0  0  0  0
 24 25  2  0  0  0  0
 26 27  2  0  0  0  0
M  END
> <ID>
12031

> <Formula>
C22H26N2O2S

> <FW>
382.519

> <DSSTox_CID>
26861

> <DSSTox_RID>
81968

> <DSSTox_GSID>
46861

> <DSSTox_FileID_Sort>
6649

> <TS_ChemName>
Eletriptan

> <TS_ChemName_Synonyms>


> <TS_CASRN>
143322-58-1

> <CASRN_ChemName_Relationship>
primary

> <TS_Description>
single chemical compound

> <ChemNote>
stereochem; ammonium

> <STRUCTURE_Shown>
tested chemical

> <STRUCTURE_Formula>
C22H26N2O2S

> <STRUCTURE_MW>
382.519

> <STRUCTURE_ChemType>
defined organic

> <STRUCTURE_DefinedOrganicForm>
parent

> <STRUCTURE_IUPAC>
3-{[(2R)-1-methylpyrrolidin-2-yl]methyl}-5-[2-(phenylsulfonyl)ethyl]-1H-indole

> <STRUCTURE_SMILES>
CN4CCC[C@@H]4Cc2cnc3ccc(CCS(=O)(=O)c1ccccc1)cc23

> <STRUCTURE_SMILES_Desalt>
CN4CCC[C@@H]4Cc2cnc3ccc(CCS(=O)(=O)c1ccccc1)cc23

> <Substance_modify_yyyymmdd>
20110728

$$$$
