143343-83-3
ChemmineR-0915142007XD

 28 30  0  0  0  0  0  0  0  0  1 V2000
   12.6880   -4.0077    0.0000 C   0  0  0  0  0  0  0  0  0  0  0  0
   12.6880   -2.6595    0.0000 C   0  0  0  0  0  0  0  0  0  0  0  0
   13.8515   -2.0316    0.0000 C   0  0  0  0  0  0  0  0  0  0  0  0
   13.8515   -4.6910    0.0000 C   0  0  0  0  0  0  0  0  0  0  0  0
    0.0000   -0.6833    0.0000 C   0  0  0  0  0  0  0  0  0  0  0  0
    1.1635    0.0000    0.0000 O   0  0  0  0  0  0  0  0  0  0  0  0
    2.3455   -0.6833    0.0000 C   0  0  0  0  0  0  0  0  0  0  0  0
    2.3455   -2.0316    0.0000 C   0  0  0  0  0  0  0  0  0  0  0  0
    3.5090   -2.6595    0.0000 C   0  0  0  0  0  0  0  0  0  0  0  0
    4.6172   -2.0316    0.0000 C   0  0  0  0  0  0  0  0  0  0  0  0
    4.6172   -0.6833    0.0000 C   0  0  0  0  0  0  0  0  0  0  0  0
    3.5090    0.0000    0.0000 C   0  0  0  0  0  0  0  0  0  0  0  0
    1.1635   -2.6595    0.0000 O   0  0  0  0  0  0  0  0  0  0  0  0
    1.1635   -4.0077    0.0000 C   0  0  0  0  0  0  0  0  0  0  0  0
    5.7807   -2.6595    0.0000 C   0  0  0  0  0  0  0  0  0  0  0  0
    6.9627   -2.0316    0.0000 N   0  0  0  0  0  0  0  0  0  0  0  0
    8.0708   -2.6595    0.0000 C   0  0  0  0  0  0  0  0  0  0  0  0
    9.2343   -2.0316    0.0000 C   0  0  0  0  0  0  0  0  0  0  0  0
    9.2343   -0.6833    0.0000 O   0  0  0  0  0  0  0  0  0  0  0  0
   10.3979   -2.6595    0.0000 C   0  0  0  0  0  0  0  0  0  0  0  0
   11.5799   -2.0316    0.0000 O   0  0  0  0  0  0  0  0  0  0  0  0
   15.0150   -4.0077    0.0000 C   0  0  0  0  0  0  0  0  0  0  0  0
   15.0150   -2.6595    0.0000 C   0  0  0  0  0  0  0  0  0  0  0  0
   16.1970   -2.0316    0.0000 C   0  0  0  0  0  0  0  0  0  0  0  0
   17.3052   -2.6595    0.0000 C   0  0  0  0  0  0  0  0  0  0  0  0
   17.3052   -4.0077    0.0000 C   0  0  0  0  0  0  0  0  0  0  0  0
   16.1970   -4.6910    0.0000 N   0  0  0  0  0  0  0  0  0  0  0  0
   18.4687   -4.6910    0.0000 O   0  0  0  0  0  0  0  0  0  0  0  0
  1  2  2  0  0  0  0
  1  4  1  0  0  0  0
  2 21  1  0  0  0  0
  2  3  1  0  0  0  0
  3 23  2  0  0  0  0
  4 22  2  0  0  0  0
  5  6  1  0  0  0  0
  6  7  1  0  0  0  0
  7  8  2  0  0  0  0
  7 12  1  0  0  0  0
  8  9  1  0  0  0  0
  8 13  1  0  0  0  0
  9 10  2  0  0  0  0
 10 15  1  0  0  0  0
 10 11  1  0  0  0  0
 11 12  2  0  0  0  0
 13 14  1  0  0  0  0
 15 16  1  0  0  0  0
 16 17  1  0  0  0  0
 17 18  1  0  0  0  0
 18 19  1  0  0  0  0
 18 20  1  0  0  0  0
 20 21  1  0  0  0  0
 22 23  1  0  0  0  0
 22 27  1  0  0  0  0
 23 24  1  0  0  0  0
 24 25  2  0  0  0  0
 25 26  1  0  0  0  0
 26 27  1  0  0  0  0
 26 28  2  0  0  0  0
M  END
> <ID>
13802

> <Formula>
C21H24N2O5

> <FW>
384.4257

> <DSSTox_CID>
28739

> <DSSTox_RID>
83008

> <DSSTox_GSID>
48813

> <DSSTox_FileID_Sort>
7685

> <TS_ChemName>
Toborinone

> <TS_ChemName_Synonyms>


> <TS_CASRN>
143343-83-3

> <CASRN_ChemName_Relationship>
primary

> <TS_Description>
single chemical compound

> <ChemNote>


> <STRUCTURE_Shown>
tested chemical

> <STRUCTURE_Formula>
C21H24N2O5

> <STRUCTURE_MW>
384.4257

> <STRUCTURE_ChemType>
defined organic

> <STRUCTURE_DefinedOrganicForm>
parent

> <STRUCTURE_IUPAC>
6-{3-[(3,4-dimethoxybenzyl)amino]-2-hydroxypropoxy}quinolin-2(1H)-one

> <STRUCTURE_SMILES>
COc1ccc(cc1OC)CNCC(O)COc2ccc3NC(=O)C=Cc3c2

> <STRUCTURE_SMILES_Desalt>
COc1ccc(cc1OC)CNCC(O)COc2ccc3NC(=O)C=Cc3c2

> <Substance_modify_yyyymmdd>
20111204

$$$$
