143388-64-1
ChemmineR-0915142007XD

 24 25  0  0  0  0  0  0  0  0  1 V2000
    8.0549   -5.4691    0.0000 C    0  0  0  0  0  0  0  0  0  0  0  0
    9.3249   -5.0686    0.0000 C    0  0  0  0  0  0  0  0  0  0  0  0
    8.0549   -6.7963    0.0000 C    0  0  0  0  0  0  0  0  0  0  0  0
    6.9107   -4.8055    0.0000 C    0  0  0  0  0  0  0  0  0  0  0  0
    9.7253   -3.7986    0.0000 C    0  0  0  0  0  0  0  0  0  0  0  0
   10.1143   -6.1441    0.0000 C    0  0  0  0  0  0  0  0  0  0  0  0
    9.3249   -7.2196    0.0000 N    0  0  0  0  0  0  0  0  0  0  0  0
    6.9107   -7.4713    0.0000 C    0  0  0  0  0  0  0  0  0  0  0  0
    5.7551   -5.4691    0.0000 C    0  0  0  0  0  0  0  0  0  0  0  0
    8.8443   -2.8032    0.0000 C    0  0  0  0  0  0  0  0  0  0  0  0
   11.0411   -3.5240    0.0000 C    0  0  0  0  0  0  0  0  0  0  0  0
    5.7551   -6.7963    0.0000 C    0  0  0  0  0  0  0  0  0  0  0  0
    4.5995   -4.8055    0.0000 C    0  0  0  0  0  0  0  0  0  0  0  0
    9.2677   -1.5446    0.0000 C    0  0  0  0  0  0  0  0  0  0  0  0
   11.4416   -2.2654    0.0000 C    0  0  0  0  0  0  0  0  0  0  0  0
    3.4439   -5.4691    0.0000 C    0  0  0  0  0  0  0  0  0  0  0  0
   10.5606   -1.2700    0.0000 N    0  0  0  0  0  0  0  0  0  0  0  0
    2.2883   -4.8055    0.0000 S    0  0  0  0  0  0  0  0  0  0  0  0
   10.9610    0.0000    0.0000 C    0  0  0  0  0  0  0  0  0  0  0  0
    1.1556   -4.1418    0.0000 N    0  0  0  0  0  0  0  0  0  0  0  0
    2.9634   -3.6613    0.0000 O    0  0  0  0  0  0  0  0  0  0  0  0
    1.6361   -5.9610    0.0000 O    0  0  0  0  0  0  0  0  0  0  0  0
    0.0000   -4.8055    0.0000 C    0  0  0  0  0  0  0  0  0  0  0  0
    4.5080   -8.1922    0.0000 Cl   0  0  0  0  0  0  0  0  0  0  0  0
  1  2  1  0  0  0  0
  1  3  2  0  0  0  0
  1  4  1  0  0  0  0
  2  5  1  0  0  0  0
  2  6  2  0  0  0  0
  3  7  1  0  0  0  0
  3  8  1  0  0  0  0
  4  9  2  0  0  0  0
  5 10  1  0  0  0  0
  5 11  1  0  0  0  0
  6  7  1  0  0  0  0
  8 12  2  0  0  0  0
  9 13  1  0  0  0  0
  9 12  1  0  0  0  0
 10 14  1  0  0  0  0
 11 15  1  0  0  0  0
 13 16  1  0  0  0  0
 14 17  1  0  0  0  0
 15 17  1  0  0  0  0
 16 18  1  0  0  0  0
 17 19  1  0  0  0  0
 18 20  1  0  0  0  0
 18 21  2  0  0  0  0
 18 22  2  0  0  0  0
 20 23  1  0  0  0  0
M  END
> <ID>
14048

> <Formula>
C17H26ClN3O2S

> <FW>
371.9252 (335.4643+36.4609)

> <DSSTox_CID>
28990

> <DSSTox_RID>
83255

> <DSSTox_GSID>
49064

> <DSSTox_FileID_Sort>
7930

> <TS_ChemName>
Naratriptan hydrochloride

> <TS_ChemName_Synonyms>


> <TS_CASRN>
143388-64-1

> <CASRN_ChemName_Relationship>
primary

> <TS_Description>
single chemical compound

> <ChemNote>


> <STRUCTURE_Shown>
tested chemical

> <STRUCTURE_Formula>
C17H26ClN3O2S

> <STRUCTURE_MW>
371.9252

> <STRUCTURE_ChemType>
defined organic

> <STRUCTURE_DefinedOrganicForm>
complex

> <STRUCTURE_IUPAC>
N-methyl-2-[3-(1-methylpiperidin-4-yl)-1H-indol-5-yl]ethanesulfonamide hydrochloride (1:1)

> <STRUCTURE_SMILES>
Cl.CN1CCC(CC1)c2cnc3ccc(CCS(=O)(=O)NC)cc23

> <STRUCTURE_SMILES_Desalt>
CN1CCC(CC1)c2cnc3ccc(CCS(=O)(=O)NC)cc23

> <Substance_modify_yyyymmdd>
20111204

$$$$
