143390-89-0
ChemmineR-0915142007XD

 23 24  0  0  0  0  0  0  0  0  1 V2000
    4.5945   -1.9971    0.0000 C   0  0  0  0  0  0  0  0  0  0  0  0
    5.7534   -2.6594    0.0000 O   0  0  0  0  0  0  0  0  0  0  0  0
    4.5945   -0.6519    0.0000 O   0  0  0  0  0  0  0  0  0  0  0  0
    3.4458   -2.6594    0.0000 C   0  0  0  0  0  0  0  0  0  0  0  0
    2.2869   -1.9971    0.0000 N   0  0  0  0  0  0  0  0  0  0  0  0
    1.1383   -2.6594    0.0000 O   0  0  0  0  0  0  0  0  0  0  0  0
    0.0000   -1.9971    0.0000 C   0  0  0  0  0  0  0  0  0  0  0  0
    3.4458   -3.9839    0.0000 C   0  0  0  0  0  0  0  0  0  0  0  0
    4.5945   -4.6565    0.0000 C   0  0  0  0  0  0  0  0  0  0  0  0
    2.2869   -4.6565    0.0000 C   0  0  0  0  0  0  0  0  0  0  0  0
    4.5945   -5.9914    0.0000 C   0  0  0  0  0  0  0  0  0  0  0  0
    2.2869   -5.9914    0.0000 C   0  0  0  0  0  0  0  0  0  0  0  0
    3.4458   -6.6433    0.0000 C   0  0  0  0  0  0  0  0  0  0  0  0
    5.7534   -3.9839    0.0000 C   0  0  0  0  0  0  0  0  0  0  0  0
    6.9020   -4.6565    0.0000 O   0  0  0  0  0  0  0  0  0  0  0  0
    8.0610   -3.9839    0.0000 C   0  0  0  0  0  0  0  0  0  0  0  0
    8.0610   -2.6594    0.0000 C   0  0  0  0  0  0  0  0  0  0  0  0
    9.2096   -4.6565    0.0000 C   0  0  0  0  0  0  0  0  0  0  0  0
    9.2096   -1.9971    0.0000 C   0  0  0  0  0  0  0  0  0  0  0  0
   10.3479   -3.9839    0.0000 C   0  0  0  0  0  0  0  0  0  0  0  0
   10.3479   -2.6594    0.0000 C   0  0  0  0  0  0  0  0  0  0  0  0
    6.9020   -1.9971    0.0000 C   0  0  0  0  0  0  0  0  0  0  0  0
    5.7534    0.0000    0.0000 C   0  0  0  0  0  0  0  0  0  0  0  0
  1  2  2  0  0  0  0
  1  3  1  0  0  0  0
  1  4  1  0  0  0  0
  3 23  1  0  0  0  0
  4  5  2  0  0  0  0
  4  8  1  0  0  0  0
  5  6  1  0  0  0  0
  6  7  1  0  0  0  0
  8  9  2  0  0  0  0
  8 10  1  0  0  0  0
  9 11  1  0  0  0  0
  9 14  1  0  0  0  0
 10 12  2  0  0  0  0
 11 13  2  0  0  0  0
 12 13  1  0  0  0  0
 14 15  1  0  0  0  0
 15 16  1  0  0  0  0
 16 17  2  0  0  0  0
 16 18  1  0  0  0  0
 17 19  1  0  0  0  0
 17 22  1  0  0  0  0
 18 20  2  0  0  0  0
 19 21  2  0  0  0  0
 20 21  1  0  0  0  0
M  END
> <ID>
6519

> <Formula>
C18H19NO4

> <FW>
313.3478

> <DSSTox_CID>
12558

> <DSSTox_RID>
78986

> <DSSTox_GSID>
32558

> <DSSTox_FileID_Sort>
3668

> <TS_ChemName>
Kresoxim-methyl

> <TS_ChemName_Synonyms>
Kresoxim-methyl (Benzeneacetic acid, .alpha.-(methoxyimino)-2-{(2-methylphenoxy)methyl}-, methyl ester, (E)-)

> <TS_CASRN>
143390-89-0

> <CASRN_ChemName_Relationship>
primary

> <TS_Description>
single chemical compound

> <ChemNote>
stereochem

> <STRUCTURE_Shown>
tested chemical

> <STRUCTURE_Formula>
C18H19NO4

> <STRUCTURE_MW>
313.3478

> <STRUCTURE_ChemType>
defined organic

> <STRUCTURE_DefinedOrganicForm>
parent

> <STRUCTURE_IUPAC>
methyl (2E)-(methoxyimino){2-[(2-methylphenoxy)methyl]phenyl}acetate

> <STRUCTURE_SMILES>
O=C(OC)\C(=N\OC)c2ccccc2COc1ccccc1C

> <STRUCTURE_SMILES_Desalt>
O=C(OC)\C(=N\OC)c2ccccc2COc1ccccc1C

> <Substance_modify_yyyymmdd>
20080429

$$$$
