143482-60-4
ChemmineR-0915142007XD

 53 56  0  0  0  0  0  0  0  0  1 V2000
    3.4648    0.0000    0.0000 C    0  0  0  0  0  0  0  0  0  0  0  0
    3.4648   -1.3273    0.0000 O    0  0  0  0  0  0  0  0  0  0  0  0
    4.6244   -2.0118    0.0000 C    0  0  0  0  0  0  0  0  0  0  0  0
    4.6244   -3.3391    0.0000 C    0  0  0  0  0  0  0  0  0  0  0  0
    3.4648   -3.9957    0.0000 O    0  0  0  0  0  0  0  0  0  0  0  0
    2.3052   -3.3391    0.0000 C    0  0  0  0  0  0  0  0  0  0  0  0
    5.7701   -3.9957    0.0000 C    0  0  0  0  0  0  0  0  0  0  0  0
    6.9157   -3.3391    0.0000 C    0  0  0  0  0  0  0  0  0  0  0  0
    6.9157   -2.0118    0.0000 C    0  0  0  0  0  0  0  0  0  0  0  0
    5.7701   -1.3273    0.0000 C    0  0  0  0  0  0  0  0  0  0  0  0
    8.0474   -1.3273    0.0000 C    0  0  0  0  0  0  0  0  0  0  0  0
    9.2070   -2.0118    0.0000 C    0  0  0  0  0  0  0  0  0  0  0  0
    9.2070   -3.3391    0.0000 N    0  0  0  0  0  0  0  0  0  0  0  0
    8.0474   -3.9957    0.0000 C    0  0  0  0  0  0  0  0  0  0  0  0
    8.0474   -5.3230    0.0000 C    0  0  0  0  0  0  0  0  0  0  0  0
    6.9157   -5.9936    0.0000 C    0  0  0  0  0  0  0  0  0  0  0  0
    5.7701   -5.3230    0.0000 O    0  0  0  0  0  0  0  0  0  0  0  0
    6.9157   -7.3209    0.0000 N    0  0  0  0  0  0  0  0  0  0  0  0
    8.0474   -7.9915    0.0000 C    0  0  0  0  0  0  0  0  0  0  0  0
    8.0474   -9.3048    0.0000 C    0  0  0  0  0  0  0  0  0  0  0  0
    9.2070   -9.9754    0.0000 C    0  0  0  0  0  0  0  0  0  0  0  0
   10.3666   -9.3048    0.0000 C    0  0  0  0  0  0  0  0  0  0  0  0
   11.5122   -9.9754    0.0000 C    0  0  0  0  0  0  0  0  0  0  0  0
   11.5122  -11.3026    0.0000 C    0  0  0  0  0  0  0  0  0  0  0  0
   12.6718  -11.9593    0.0000 O    0  0  0  0  0  0  0  0  0  0  0  0
   13.8314  -11.3026    0.0000 C    0  0  0  0  0  0  0  0  0  0  0  0
   10.3666  -11.9593    0.0000 C    0  0  0  0  0  0  0  0  0  0  0  0
    9.2070  -11.3026    0.0000 C    0  0  0  0  0  0  0  0  0  0  0  0
    8.0474  -11.9593    0.0000 O    0  0  0  0  0  0  0  0  0  0  0  0
    8.0474  -13.3005    0.0000 C    0  0  0  0  0  0  0  0  0  0  0  0
   10.3666  -13.3005    0.0000 O    0  0  0  0  0  0  0  0  0  0  0  0
   11.5122  -13.9711    0.0000 C    0  0  0  0  0  0  0  0  0  0  0  0
    5.7701   -7.9915    0.0000 C    0  0  0  0  0  0  0  0  0  0  0  0
    5.7701   -9.3048    0.0000 C    0  0  0  0  0  0  0  0  0  0  0  0
    4.6244   -9.9754    0.0000 C    0  0  0  0  0  0  0  0  0  0  0  0
    4.6244  -11.3026    0.0000 C    0  0  0  0  0  0  0  0  0  0  0  0
    5.7701  -11.9593    0.0000 O    0  0  0  0  0  0  0  0  0  0  0  0
    5.7701  -13.3005    0.0000 C    0  0  0  0  0  0  0  0  0  0  0  0
    3.4648  -11.9593    0.0000 C    0  0  0  0  0  0  0  0  0  0  0  0
    2.3052  -11.3026    0.0000 C    0  0  0  0  0  0  0  0  0  0  0  0
    1.1596  -11.9593    0.0000 O    0  0  0  0  0  0  0  0  0  0  0  0
    0.0000  -11.3026    0.0000 C    0  0  0  0  0  0  0  0  0  0  0  0
    2.3052   -9.9754    0.0000 C    0  0  0  0  0  0  0  0  0  0  0  0
    3.4648   -9.3048    0.0000 C    0  0  0  0  0  0  0  0  0  0  0  0
    3.4648  -13.3005    0.0000 O    0  0  0  0  0  0  0  0  0  0  0  0
    2.3052  -13.9711    0.0000 C    0  0  0  0  0  0  0  0  0  0  0  0
    9.2070   -5.9936    0.0000 C    0  0  0  0  0  0  0  0  0  0  0  0
    9.2070   -7.3209    0.0000 C    0  0  0  0  0  0  0  0  0  0  0  0
   10.3666   -7.9915    0.0000 C    0  0  0  0  0  0  0  0  0  0  0  0
   11.5122   -7.3209    0.0000 C    0  0  0  0  0  0  0  0  0  0  0  0
   11.5122   -5.9936    0.0000 C    0  0  0  0  0  0  0  0  0  0  0  0
   10.3666   -5.3230    0.0000 C    0  0  0  0  0  0  0  0  0  0  0  0
    3.0317   -6.8319    0.0000 Cl   0  0  0  0  0  0  0  0  0  0  0  0
  1  2  1  0  0  0  0
  2  3  1  0  0  0  0
  3  4  2  0  0  0  0
  3 10  1  0  0  0  0
  4  5  1  0  0  0  0
  4  7  1  0  0  0  0
  5  6  1  0  0  0  0
  7  8  2  0  0  0  0
  8  9  1  0  0  0  0
  8 14  1  0  0  0  0
  9 10  2  0  0  0  0
  9 11  1  0  0  0  0
 11 12  1  0  0  0  0
 12 13  1  0  0  0  0
 13 14  2  0  0  0  0
 14 15  1  0  0  0  0
 15 16  1  0  0  0  0
 15 47  1  0  0  0  0
 16 17  2  0  0  0  0
 16 18  1  0  0  0  0
 18 19  1  0  0  0  0
 18 33  1  0  0  0  0
 19 20  1  0  0  0  0
 20 21  1  0  0  0  0
 21 22  2  0  0  0  0
 21 28  1  0  0  0  0
 22 23  1  0  0  0  0
 23 24  2  0  0  0  0
 24 25  1  0  0  0  0
 24 27  1  0  0  0  0
 25 26  1  0  0  0  0
 27 28  2  0  0  0  0
 27 31  1  0  0  0  0
 28 29  1  0  0  0  0
 29 30  1  0  0  0  0
 31 32  1  0  0  0  0
 33 34  1  0  0  0  0
 34 35  1  0  0  0  0
 35 36  2  0  0  0  0
 35 44  1  0  0  0  0
 36 37  1  0  0  0  0
 36 39  1  0  0  0  0
 37 38  1  0  0  0  0
 39 40  2  0  0  0  0
 39 45  1  0  0  0  0
 40 41  1  0  0  0  0
 40 43  1  0  0  0  0
 41 42  1  0  0  0  0
 43 44  2  0  0  0  0
 45 46  1  0  0  0  0
 47 48  2  0  0  0  0
 47 52  1  0  0  0  0
 48 49  1  0  0  0  0
 49 50  2  0  0  0  0
 50 51  1  0  0  0  0
 51 52  2  0  0  0  0
M  END
> <ID>
11593

> <Formula>
C41H49ClN2O9

> <FW>
749.2888 (712.8278+36.4609)

> <DSSTox_CID>
26305

> <DSSTox_RID>
81526

> <DSSTox_GSID>
46305

> <DSSTox_FileID_Sort>
6207

> <TS_ChemName>
Pinokalant hydrochloride

> <TS_ChemName_Synonyms>


> <TS_CASRN>
143482-60-4

> <CASRN_ChemName_Relationship>
primary

> <TS_Description>
single chemical compound

> <ChemNote>
tautomers; parent [149759-26-2]

> <STRUCTURE_Shown>
tested chemical

> <STRUCTURE_Formula>
C41H49ClN2O9

> <STRUCTURE_MW>
749.2888

> <STRUCTURE_ChemType>
defined organic

> <STRUCTURE_DefinedOrganicForm>
complex

> <STRUCTURE_IUPAC>
2-(6,7-dimethoxy-3,4-dihydroisoquinolin-1-yl)-2-phenyl-N,N-bis[2-(2,3,4-trimethoxyphenyl)ethyl]acetamide hydrochloride (1:1)

> <STRUCTURE_SMILES>
Cl.COc5ccc(CCN(CCc1ccc(OC)c(OC)c1OC)C(=O)C(C2=NCCc3cc(OC)c(OC)cc23)c4ccccc4)c(OC)c5OC

> <STRUCTURE_SMILES_Desalt>
COc5ccc(CCN(CCc1ccc(OC)c(OC)c1OC)C(=O)C(C2=NCCc3cc(OC)c(OC)cc23)c4ccccc4)c(OC)c5OC

> <Substance_modify_yyyymmdd>
20100815

$$$$
