1434-54-4
ChemmineR-0915142007XD

 28 31  0  0  1  0  0  0  0  0  1 V2000
    6.9305   -2.6318    0.0000 C   0  0  0  0  0  0  0  0  0  0  0  0
    3.4762   -4.6496    0.0000 C   0  0  0  0  0  0  0  0  0  0  0  0
    3.4762   -5.9765    0.0000 C   0  0  0  0  0  0  0  0  0  0  0  0
    6.9305   -3.9916    0.0000 C   0  0  0  0  0  0  0  0  0  0  0  0
    4.6167   -3.9916    0.0000 C   0  0  0  0  0  0  0  0  0  0  0  0
    5.7681   -4.6496    0.0000 C   0  0  0  0  0  0  0  0  0  0  0  0
    8.1807   -2.2371    0.0000 C   0  0  0  0  0  0  0  0  0  0  0  0
    4.6167   -6.6454    0.0000 C   0  0  0  0  0  0  0  0  0  0  0  0
    5.7681   -1.9739    0.0000 C   0  0  0  0  0  0  0  0  0  0  0  0
    5.7681   -5.9765    0.0000 C   0  0  0  0  0  0  0  0  0  0  0  0
    4.6167   -2.6318    0.0000 C   0  0  0  0  0  0  0  0  0  0  0  0
    8.1807   -4.3864    0.0000 C   0  0  0  0  0  0  0  0  0  0  0  0
    2.3138   -3.9916    0.0000 C   0  0  0  0  0  0  0  0  0  0  0  0
    8.9702   -3.3117    0.0000 C   0  0  0  0  0  0  0  0  0  0  0  0
    8.5864   -0.9431    0.0000 C   0  0  0  0  0  0  0  0  0  0  0  0
    2.3138   -6.6454    0.0000 C   0  0  0  0  0  0  0  0  0  0  0  0
    7.6872    0.0000    0.0000 O   0  0  0  0  0  0  0  0  0  0  0  0
    6.9305   -1.3159    0.0000 C   0  0  0  0  0  0  0  0  0  0  0  0
    1.1734   -4.6496    0.0000 C   0  0  0  0  0  0  0  0  0  0  0  0
    1.1734   -5.9765    0.0000 C   0  0  0  0  0  0  0  0  0  0  0  0
    3.4762   -3.3117    0.0000 C   0  0  0  0  0  0  0  0  0  0  0  0
    0.0000   -6.6564    0.0000 O   0  0  0  0  0  0  0  0  0  0  0  0
    9.8694   -0.6909    0.0000 C   0  0  0  0  0  0  0  0  0  0  0  0
    5.7681   -3.3227    0.0000 H   0  0  0  0  0  0  0  0  0  0  0  0
    6.9305   -5.3185    0.0000 H   0  0  0  0  0  0  0  0  0  0  0  0
    4.6167   -5.3185    0.0000 H   0  0  0  0  0  0  0  0  0  0  0  0
   10.3081   -3.3117    0.0000 C   0  0  0  0  0  0  0  0  0  0  0  0
   10.9660   -4.4741    0.0000 N   0  0  0  0  0  0  0  0  0  0  0  0
  1  4  1  0  0  0  0
  1  7  1  0  0  0  0
  1  9  1  0  0  0  0
  1 18  1  1  0  0  0
  2  5  1  0  0  0  0
  2  3  1  0  0  0  0
  2 13  1  0  0  0  0
  2 21  1  1  0  0  0
  3 16  1  0  0  0  0
  3  8  2  0  0  0  0
  4  6  1  0  0  0  0
  4 12  1  0  0  0  0
  4 25  1  6  0  0  0
  5 11  1  0  0  0  0
  5  6  1  0  0  0  0
  5 26  1  6  0  0  0
  6 10  1  0  0  0  0
  6 24  1  1  0  0  0
  7 14  1  0  0  0  0
  7 15  1  1  0  0  0
  8 10  1  0  0  0  0
  9 11  1  0  0  0  0
 12 14  1  0  0  0  0
 13 19  1  0  0  0  0
 14 27  1  6  0  0  0
 15 17  2  0  0  0  0
 15 23  1  0  0  0  0
 16 20  1  0  0  0  0
 19 20  1  0  0  0  0
 20 22  1  1  0  0  0
 27 28  3  0  0  0  0
M  END
> <ID>
7291

> <Formula>
C22H31NO2

> <FW>
341.487

> <DSSTox_CID>
17262

> <DSSTox_RID>
79317

> <DSSTox_GSID>
37262

> <DSSTox_FileID_Sort>
3999

> <TS_ChemName>
Pregnenolone carbonitrile

> <TS_ChemName_Synonyms>
Pregnenolone carbonitrile (PCN) (Pregnenolone 16alpha-carbonite) (PCNA)

> <TS_CASRN>
1434-54-4

> <CASRN_ChemName_Relationship>
primary

> <TS_Description>
single chemical compound

> <ChemNote>
stereochem

> <STRUCTURE_Shown>
tested chemical

> <STRUCTURE_Formula>
C22H31NO2

> <STRUCTURE_MW>
341.487

> <STRUCTURE_ChemType>
defined organic

> <STRUCTURE_DefinedOrganicForm>
parent

> <STRUCTURE_IUPAC>
(3beta,16alpha)-3-hydroxy-20-oxopregn-5-ene-16-carbonitrile

> <STRUCTURE_SMILES>
CC(=O)[C@H]4[C@H](C#N)C[C@@H]3[C@]4(C)CC[C@H]2[C@H]3CC=C1C[C@@H](O)CC[C@@]12C

> <STRUCTURE_SMILES_Desalt>
CC(=O)[C@H]4[C@H](C#N)C[C@@H]3[C@]4(C)CC[C@H]2[C@H]3CC=C1C[C@@H](O)CC[C@@]12C

> <Substance_modify_yyyymmdd>
20080429

$$$$
