14351-66-7
ChemmineR-0915142007XD

 25 26  0  0  1  0  0  0  0  0  2 V2000
    4.3891   -3.9725    0.0000 C    0  0  0  0  0  0  0  0  0  0  0  0
    6.6750   -3.9725    0.0000 C    0  0  0  0  0  0  0  0  0  0  0  0
    4.3891   -5.3035    0.0000 C    0  0  0  0  0  0  0  0  0  0  0  0
    3.2308   -5.9740    0.0000 C    0  0  0  0  0  0  0  0  0  0  0  0
    5.5473   -3.3223    0.0000 C    0  0  0  0  0  0  0  0  0  0  0  0
    7.8231   -3.3223    0.0000 C    0  0  0  0  0  0  0  0  0  0  0  0
    7.8231   -1.9812    0.0000 C    0  0  0  0  0  0  0  0  0  0  0  0
    3.2308   -7.2948    0.0000 C    0  0  0  0  0  0  0  0  0  0  0  0
    6.6750   -5.3035    0.0000 C    0  0  0  0  0  0  0  0  0  0  0  0
    5.5473   -5.9740    0.0000 C    0  0  0  0  0  0  0  0  0  0  0  0
    5.5473   -1.9812    0.0000 C    0  0  0  0  0  0  0  0  0  0  0  0
    6.6750   -1.2903    0.0000 C    0  0  0  0  0  0  0  0  0  0  0  0
    4.3586   -7.9958    0.0000 O    0  0  0  0  0  0  0  0  0  0  0  0
    8.9610   -1.2903    0.0000 C    0  0  0  0  0  0  0  0  0  0  0  0
    3.2308   -3.3223    0.0000 C    0  0  0  0  0  0  0  0  0  0  0  0
    2.0929   -8.0162    0.0000 O    0  5  0  0  0  0  0  0  0  0  0  0
    4.3891   -2.5806    0.0000 C    0  0  0  0  0  0  0  0  0  0  0  0
    2.0726   -5.3035    0.0000 C    0  0  0  0  0  0  0  0  0  0  0  0
    2.0117   -6.5734    0.0000 C    0  0  0  0  0  0  0  0  0  0  0  0
    2.0726   -3.9725    0.0000 C    0  0  0  0  0  0  0  0  0  0  0  0
    8.9610    0.0000    0.0000 C    0  0  0  0  0  0  0  0  0  0  0  0
   10.1599   -1.9304    0.0000 C    0  0  0  0  0  0  0  0  0  0  0  0
    4.4602   -6.6852    0.0000 H    0  0  0  0  0  0  0  0  0  0  0  0
    5.5575   -4.5212    0.0000 H    0  0  0  0  0  0  0  0  0  0  0  0
    0.0000   -8.1584    0.0000 Na   0  3  0  0  0  0  0  0  0  0  0  0
  1  3  1  0  0  0  0
  1  5  1  0  0  0  0
  1 15  1  0  0  0  0
  1 17  1  1  0  0  0
  2  5  1  0  0  0  0
  2  6  1  0  0  0  0
  2  9  2  0  0  0  0
  3  4  1  0  0  0  0
  3 10  1  0  0  0  0
  3 23  1  6  0  0  0
  4  8  1  6  0  0  0
  4 19  1  1  0  0  0
  4 18  1  0  0  0  0
  5 11  1  0  0  0  0
  5 24  1  6  0  0  0
  6  7  2  0  0  0  0
  7 12  1  0  0  0  0
  7 14  1  6  0  0  0
  8 13  2  0  0  0  0
  8 16  1  0  0  0  0
  9 10  1  0  0  0  0
 11 12  1  0  0  0  0
 14 21  1  0  0  0  0
 14 22  1  0  0  0  0
 15 20  1  0  0  0  0
 18 20  1  0  0  0  0
M  END
> <ID>
9318

> <Formula>
C20H29NaO2

> <FW>
324.4328 (301.4436+22.9892)

> <DSSTox_CID>
22399

> <DSSTox_RID>
80013

> <DSSTox_GSID>
42399

> <DSSTox_FileID_Sort>
4695

> <TS_ChemName>
Sodium abietate

> <TS_ChemName_Synonyms>


> <TS_CASRN>
14351-66-7

> <CASRN_ChemName_Relationship>
primary

> <TS_Description>
single chemical compound

> <ChemNote>
stereochem; parent [514-10-3]

> <STRUCTURE_Shown>
tested chemical

> <STRUCTURE_Formula>
C20H29NaO2

> <STRUCTURE_MW>
324.4328

> <STRUCTURE_ChemType>
defined organic

> <STRUCTURE_DefinedOrganicForm>
salt

> <STRUCTURE_IUPAC>
sodium abieta-7,13-dien-18-oate

> <STRUCTURE_SMILES>
[Na+].CC(C)C=3CC[C@H]1C(=CC[C@H]2[C@@](C)(CCC[C@]12C)C([O-])=O)C=3

> <STRUCTURE_SMILES_Desalt>
CC(C)C=3CC[C@H]1C(=CC[C@H]2[C@@](C)(CCC[C@]12C)C(=O)O)C=3

> <Substance_modify_yyyymmdd>
20080825

$$$$
