14368-24-2
ChemmineR-0915142007XD

 22 23  0  0  0  0  0  0  0  0  1 V2000
    7.7909   -6.5399    0.0000 C   0  0  0  0  0  0  0  0  0  0  0  0
    6.6411   -7.2022    0.0000 O   0  0  0  0  0  0  0  0  0  0  0  0
    5.4913   -6.5399    0.0000 C   0  0  0  0  0  0  0  0  0  0  0  0
    4.3324   -7.2022    0.0000 C   0  0  0  0  0  0  0  0  0  0  0  0
    4.3324   -8.5360    0.0000 O   0  0  0  0  0  0  0  0  0  0  0  0
    3.1826   -9.1982    0.0000 C   0  0  0  0  0  0  0  0  0  0  0  0
    3.1826   -6.5399    0.0000 C   0  0  0  0  0  0  0  0  0  0  0  0
    3.1826   -5.2062    0.0000 C   0  0  0  0  0  0  0  0  0  0  0  0
    4.3324   -4.5439    0.0000 C   0  0  0  0  0  0  0  0  0  0  0  0
    5.4913   -5.2062    0.0000 C   0  0  0  0  0  0  0  0  0  0  0  0
    4.3324   -3.2102    0.0000 C   0  0  0  0  0  0  0  0  0  0  0  0
    5.4913   -2.5479    0.0000 O   0  0  0  0  0  0  0  0  0  0  0  0
    3.1826   -2.5479    0.0000 N   0  0  0  0  0  0  0  0  0  0  0  0
    2.1248   -3.3574    0.0000 C   0  0  0  0  0  0  0  0  0  0  0  0
    0.8094   -3.1826    0.0000 C   0  0  0  0  0  0  0  0  0  0  0  0
    0.0000   -2.1248    0.0000 C   0  0  0  0  0  0  0  0  0  0  0  0
    0.1748   -0.8094    0.0000 C   0  0  0  0  0  0  0  0  0  0  0  0
    1.2326    0.0000    0.0000 C   0  0  0  0  0  0  0  0  0  0  0  0
    2.5479   -0.1748    0.0000 C   0  0  0  0  0  0  0  0  0  0  0  0
    3.3574   -1.2326    0.0000 C   0  0  0  0  0  0  0  0  0  0  0  0
    2.0328   -7.2022    0.0000 O   0  0  0  0  0  0  0  0  0  0  0  0
    0.8830   -6.5399    0.0000 C   0  0  0  0  0  0  0  0  0  0  0  0
  1  2  1  0  0  0  0
  2  3  1  0  0  0  0
  3  4  2  0  0  0  0
  3 10  1  0  0  0  0
  4  5  1  0  0  0  0
  4  7  1  0  0  0  0
  5  6  1  0  0  0  0
  7  8  2  0  0  0  0
  7 21  1  0  0  0  0
  8  9  1  0  0  0  0
  9 10  2  0  0  0  0
  9 11  1  0  0  0  0
 11 12  2  0  0  0  0
 11 13  1  0  0  0  0
 13 14  1  0  0  0  0
 13 20  1  0  0  0  0
 14 15  1  0  0  0  0
 15 16  1  0  0  0  0
 16 17  1  0  0  0  0
 17 18  1  0  0  0  0
 18 19  1  0  0  0  0
 19 20  1  0  0  0  0
 21 22  1  0  0  0  0
M  END
> <ID>
11712

> <Formula>
C17H25NO4

> <FW>
307.3847

> <DSSTox_CID>
26475

> <DSSTox_RID>
81646

> <DSSTox_GSID>
46475

> <DSSTox_FileID_Sort>
6327

> <TS_ChemName>
Trocimine

> <TS_ChemName_Synonyms>


> <TS_CASRN>
14368-24-2

> <CASRN_ChemName_Relationship>
primary

> <TS_Description>
single chemical compound

> <ChemNote>


> <STRUCTURE_Shown>
tested chemical

> <STRUCTURE_Formula>
C17H25NO4

> <STRUCTURE_MW>
307.3847

> <STRUCTURE_ChemType>
defined organic

> <STRUCTURE_DefinedOrganicForm>
parent

> <STRUCTURE_IUPAC>
azocan-1-yl(3,4,5-trimethoxyphenyl)methanone

> <STRUCTURE_SMILES>
COc1cc(cc(OC)c1OC)C(=O)N2CCCCCCC2

> <STRUCTURE_SMILES_Desalt>
COc1cc(cc(OC)c1OC)C(=O)N2CCCCCCC2

> <Substance_modify_yyyymmdd>
20110812

$$$$
