14375-45-2
ChemmineR-0915142007XD

 19 19  0  0  0  0  0  0  0  0  1 V2000
    3.4811   -1.9197    0.0000 C   0  0  0  0  0  0  0  0  0  0  0  0
    2.2963   -1.2767    0.0000 C   0  0  0  0  0  0  0  0  0  0  0  0
    3.4811   -3.3066    0.0000 C   0  0  0  0  0  0  0  0  0  0  0  0
    4.5925   -1.2767    0.0000 C   0  0  0  0  0  0  0  0  0  0  0  0
    4.5925   -2.6637    0.0000 O   0  0  0  0  0  0  0  0  0  0  0  0
    1.1849   -1.9197    0.0000 C   0  0  0  0  0  0  0  0  0  0  0  0
    2.9392   -0.0827    0.0000 C   0  0  0  0  0  0  0  0  0  0  0  0
    1.6533   -0.0827    0.0000 C   0  0  0  0  0  0  0  0  0  0  0  0
    2.2963   -3.9680    0.0000 C   0  0  0  0  0  0  0  0  0  0  0  0
    4.5925   -3.9680    0.0000 C   0  0  0  0  0  0  0  0  0  0  0  0
    5.7039   -1.9197    0.0000 C   0  0  0  0  0  0  0  0  0  0  0  0
    1.1849   -3.3066    0.0000 C   0  0  0  0  0  0  0  0  0  0  0  0
    6.8888   -1.2767    0.0000 C   0  0  0  0  0  0  0  0  0  0  0  0
    0.0000   -3.9680    0.0000 O   0  0  0  0  0  0  0  0  0  0  0  0
    8.0002   -1.9197    0.0000 C   0  0  0  0  0  0  0  0  0  0  0  0
    6.8888    0.0000    0.0000 C   0  0  0  0  0  0  0  0  0  0  0  0
    8.0002   -3.3066    0.0000 C   0  0  0  0  0  0  0  0  0  0  0  0
    6.8888   -3.9680    0.0000 O   0  0  0  0  0  0  0  0  0  0  0  0
    9.1851   -3.9680    0.0000 O   0  0  0  0  0  0  0  0  0  0  0  0
  1  2  1  0  0  0  0
  1  3  1  0  0  0  0
  1  4  1  0  0  0  0
  1  5  1  0  0  0  0
  2  6  1  0  0  0  0
  2  7  1  0  0  0  0
  2  8  1  0  0  0  0
  3  9  2  0  0  0  0
  3 10  1  0  0  0  0
  4 11  2  0  0  0  0
  6 12  1  0  0  0  0
  9 12  1  0  0  0  0
 11 13  1  0  0  0  0
 12 14  2  0  0  0  0
 13 15  2  0  0  0  0
 13 16  1  0  0  0  0
 15 17  1  0  0  0  0
 17 18  1  0  0  0  0
 17 19  2  0  0  0  0
M  END
> <ID>
6277

> <Formula>
C15H20O4

> <FW>
264.3169

> <DSSTox_CID>
10604

> <DSSTox_RID>
78851

> <DSSTox_GSID>
30604

> <DSSTox_FileID_Sort>
3533

> <TS_ChemName>
Abscisic acid

> <TS_ChemName_Synonyms>


> <TS_CASRN>
14375-45-2

> <CASRN_ChemName_Relationship>
primary

> <TS_Description>
single chemical compound

> <ChemNote>
mixture of (1R,S) isomers; structure shown without stereochem

> <STRUCTURE_Shown>
tested chemical

> <STRUCTURE_Formula>
C15H20O4

> <STRUCTURE_MW>
264.3169

> <STRUCTURE_ChemType>
defined organic

> <STRUCTURE_DefinedOrganicForm>
parent

> <STRUCTURE_IUPAC>
(2Z,4E)-5-(1-hydroxy-2,6,6-trimethyl-4-oxocyclohex-2-en-1-yl)-3-methylpenta-2,4-dienoic acid

> <STRUCTURE_SMILES>
OC1(/C=C/C(/C)=C\C(=O)O)C(C)=CC(=O)CC1(C)C

> <STRUCTURE_SMILES_Desalt>
OC1(/C=C/C(/C)=C\C(=O)O)C(C)=CC(=O)CC1(C)C

> <Substance_modify_yyyymmdd>
20080429

$$$$
