1438-94-4
ChemmineR-0915142007XD

 11 12  0  0  0  0  0  0  0  0  1 V2000
    4.4146   -0.6772    0.0000 N   0  0  0  0  0  0  0  0  0  0  0  0
    5.6387   -0.1302    0.0000 C   0  0  0  0  0  0  0  0  0  0  0  0
    4.5448   -2.0119    0.0000 C   0  0  0  0  0  0  0  0  0  0  0  0
    6.5112   -1.1460    0.0000 C   0  0  0  0  0  0  0  0  0  0  0  0
    5.8535   -2.2724    0.0000 C   0  0  0  0  0  0  0  0  0  0  0  0
    0.9051   -0.1302    0.0000 O   0  0  0  0  0  0  0  0  0  0  0  0
    0.0000   -1.1134    0.0000 C   0  0  0  0  0  0  0  0  0  0  0  0
    0.6576   -2.2594    0.0000 C   0  0  0  0  0  0  0  0  0  0  0  0
    1.9664   -1.9794    0.0000 C   0  0  0  0  0  0  0  0  0  0  0  0
    2.0966   -0.6772    0.0000 C   0  0  0  0  0  0  0  0  0  0  0  0
    3.2686    0.0000    0.0000 C   0  0  0  0  0  0  0  0  0  0  0  0
  1  2  1  0  0  0  0
  1  3  1  0  0  0  0
  1 11  1  0  0  0  0
  2  4  2  0  0  0  0
  3  5  2  0  0  0  0
  4  5  1  0  0  0  0
  6  7  1  0  0  0  0
  6 10  1  0  0  0  0
  7  8  2  0  0  0  0
  8  9  1  0  0  0  0
  9 10  2  0  0  0  0
 10 11  1  0  0  0  0
M  END
> <ID>
12784

> <Formula>
C9H9NO

> <FW>
147.1739

> <DSSTox_CID>
27663

> <DSSTox_RID>
82486

> <DSSTox_GSID>
47663

> <DSSTox_FileID_Sort>
7167

> <TS_ChemName>
1-Furfurylpyrrole

> <TS_ChemName_Synonyms>


> <TS_CASRN>
1438-94-4

> <CASRN_ChemName_Relationship>
primary

> <TS_Description>
single chemical compound

> <ChemNote>


> <STRUCTURE_Shown>
tested chemical

> <STRUCTURE_Formula>
C9H9NO

> <STRUCTURE_MW>
147.1739

> <STRUCTURE_ChemType>
defined organic

> <STRUCTURE_DefinedOrganicForm>
parent

> <STRUCTURE_IUPAC>
1-(furan-2-ylmethyl)-1H-pyrrole

> <STRUCTURE_SMILES>
c2cn(Cc1ccco1)cc2

> <STRUCTURE_SMILES_Desalt>
c2cn(Cc1ccco1)cc2

> <Substance_modify_yyyymmdd>
20101215

$$$$
