144-19-4
ChemmineR-0915142007XD

 10  9  0  0  0  0  0  0  0  0  1 V2000
    1.3287   -0.8495    0.0000 C   0  0  0  0  0  0  0  0  0  0  0  0
    1.9876   -2.0039    0.0000 C   0  0  0  0  0  0  0  0  0  0  0  0
    3.1366   -1.3287    0.0000 C   0  0  0  0  0  0  0  0  0  0  0  0
    4.2911   -2.0039    0.0000 C   0  0  0  0  0  0  0  0  0  0  0  0
    5.4455   -1.3287    0.0000 C   0  0  0  0  0  0  0  0  0  0  0  0
    0.0000   -0.8495    0.0000 O   0  0  0  0  0  0  0  0  0  0  0  0
    3.1366    0.0000    0.0000 O   0  0  0  0  0  0  0  0  0  0  0  0
    2.6574   -3.1584    0.0000 C   0  0  0  0  0  0  0  0  0  0  0  0
    0.8495   -2.6574    0.0000 C   0  0  0  0  0  0  0  0  0  0  0  0
    4.2911   -3.3327    0.0000 C   0  0  0  0  0  0  0  0  0  0  0  0
  1  2  1  0  0  0  0
  1  6  1  0  0  0  0
  2  3  1  0  0  0  0
  2  8  1  0  0  0  0
  2  9  1  0  0  0  0
  3  4  1  0  0  0  0
  3  7  1  0  0  0  0
  4  5  1  0  0  0  0
  4 10  1  0  0  0  0
M  END
> <ID>
4938

> <Formula>
C8H18O2

> <FW>
146.2273

> <DSSTox_CID>
7113

> <DSSTox_RID>
78314

> <DSSTox_GSID>
27113

> <DSSTox_FileID_Sort>
2997

> <TS_ChemName>
2,2,4-Trimethyl-1,3-pentanediol

> <TS_ChemName_Synonyms>


> <TS_CASRN>
144-19-4

> <CASRN_ChemName_Relationship>
primary

> <TS_Description>
single chemical compound

> <ChemNote>


> <STRUCTURE_Shown>
tested chemical

> <STRUCTURE_Formula>
C8H18O2

> <STRUCTURE_MW>
146.2273

> <STRUCTURE_ChemType>
defined organic

> <STRUCTURE_DefinedOrganicForm>
parent

> <STRUCTURE_IUPAC>
2,2,4-trimethylpentane-1,3-diol

> <STRUCTURE_SMILES>
CC(C)(CO)C(O)C(C)C

> <STRUCTURE_SMILES_Desalt>
CC(C)(CO)C(O)C(C)C

> <Substance_modify_yyyymmdd>
20080429

$$$$
