144-39-8
ChemmineR-0915142007XD

 15 14  0  0  0  0  0  0  0  0  1 V2000
    0.0000   -1.3280    0.0000 C   0  0  0  0  0  0  0  0  0  0  0  0
    1.1413   -1.9920    0.0000 C   0  0  0  0  0  0  0  0  0  0  0  0
    2.2929   -1.3280    0.0000 C   0  0  0  0  0  0  0  0  0  0  0  0
    3.4549   -1.9920    0.0000 O   0  0  0  0  0  0  0  0  0  0  0  0
    4.6066   -1.3280    0.0000 C   0  0  0  0  0  0  0  0  0  0  0  0
    5.7686   -1.9920    0.0000 C   0  0  0  0  0  0  0  0  0  0  0  0
    6.9203   -1.3280    0.0000 C   0  0  0  0  0  0  0  0  0  0  0  0
    8.0823   -1.9920    0.0000 C   0  0  0  0  0  0  0  0  0  0  0  0
    2.2929    0.0000    0.0000 O   0  0  0  0  0  0  0  0  0  0  0  0
    4.6066    0.0000    0.0000 C   0  0  0  0  0  0  0  0  0  0  0  0
    4.6066   -2.6664    0.0000 C   0  0  0  0  0  0  0  0  0  0  0  0
    3.4549   -3.3201    0.0000 C   0  0  0  0  0  0  0  0  0  0  0  0
    9.2339   -1.3280    0.0000 C   0  0  0  0  0  0  0  0  0  0  0  0
   10.3752   -1.9920    0.0000 C   0  0  0  0  0  0  0  0  0  0  0  0
    9.2339    0.0000    0.0000 C   0  0  0  0  0  0  0  0  0  0  0  0
  1  2  1  0  0  0  0
  2  3  1  0  0  0  0
  3  4  1  0  0  0  0
  3  9  2  0  0  0  0
  4  5  1  0  0  0  0
  5  6  1  0  0  0  0
  5 10  1  0  0  0  0
  5 11  1  0  0  0  0
  6  7  1  0  0  0  0
  7  8  1  0  0  0  0
  8 13  2  0  0  0  0
 11 12  2  0  0  0  0
 13 14  1  0  0  0  0
 13 15  1  0  0  0  0
M  END
> <ID>
12696

> <Formula>
C13H22O2

> <FW>
210.3126

> <DSSTox_CID>
27574

> <DSSTox_RID>
82427

> <DSSTox_GSID>
47574

> <DSSTox_FileID_Sort>
7108

> <TS_ChemName>
3,7-Dimethylocta-1,6-dien-3-yl propanoate

> <TS_ChemName_Synonyms>


> <TS_CASRN>
144-39-8

> <CASRN_ChemName_Relationship>
primary

> <TS_Description>
single chemical compound

> <ChemNote>


> <STRUCTURE_Shown>
tested chemical

> <STRUCTURE_Formula>
C13H22O2

> <STRUCTURE_MW>
210.3126

> <STRUCTURE_ChemType>
defined organic

> <STRUCTURE_DefinedOrganicForm>
parent

> <STRUCTURE_IUPAC>
3,7-dimethylocta-1,6-dien-3-yl propanoate

> <STRUCTURE_SMILES>
O=C(CC)OC(C)(CC\C=C(\C)C)C=C

> <STRUCTURE_SMILES_Desalt>
O=C(CC)OC(C)(CC\C=C(\C)C)C=C

> <Substance_modify_yyyymmdd>
20100930

$$$$
