144-48-9
ChemmineR-0915142007XD

  5  4  0  0  0  0  0  0  0  0  1 V2000
    3.4567   -1.9945    0.0000 N   0  0  0  0  0  0  0  0  0  0  0  0
    2.3056   -1.3308    0.0000 C   0  0  0  0  0  0  0  0  0  0  0  0
    2.3056    0.0000    0.0000 O   0  0  0  0  0  0  0  0  0  0  0  0
    1.1511   -1.9945    0.0000 C   0  0  0  0  0  0  0  0  0  0  0  0
    0.0000   -1.3308    0.0000 I   0  0  0  0  0  0  0  0  0  0  0  0
  1  2  1  0  0  0  0
  2  3  2  0  0  0  0
  2  4  1  0  0  0  0
  4  5  1  0  0  0  0
M  END
> <ID>
712

> <Formula>
C2H4INO

> <FW>
184.9637

> <DSSTox_CID>
742

> <DSSTox_RID>
75764

> <DSSTox_GSID>
20742

> <DSSTox_FileID_Sort>
448

> <TS_ChemName>
Iodoacetamide

> <TS_ChemName_Synonyms>


> <TS_CASRN>
144-48-9

> <CASRN_ChemName_Relationship>
primary

> <TS_Description>
single chemical compound

> <ChemNote>


> <STRUCTURE_Shown>
tested chemical

> <STRUCTURE_Formula>
C2H4INO

> <STRUCTURE_MW>
184.9637

> <STRUCTURE_ChemType>
defined organic

> <STRUCTURE_DefinedOrganicForm>
parent

> <STRUCTURE_IUPAC>
2-iodoacetamide

> <STRUCTURE_SMILES>
ICC(N)=O

> <STRUCTURE_SMILES_Desalt>
ICC(N)=O

> <Substance_modify_yyyymmdd>
20080429

$$$$
