144-75-2
ChemmineR-0915142007XD

 27 26  0  0  0  0  0  0  0  0  2 V2000
    0.0000   -6.9079    0.0000 Na   0  3  0  0  0  0  0  0  0  0  0  0
    0.0000   -8.2343    0.0000 Na   0  3  0  0  0  0  0  0  0  0  0  0
    1.3263   -1.1467    0.0000 O    0  5  0  0  0  0  0  0  0  0  0  0
    2.6527   -1.1467    0.0000 S    0  0  0  0  0  0  0  0  0  0  0  0
    3.3296    0.0000    0.0000 O    0  0  0  0  0  0  0  0  0  0  0  0
    3.3296   -2.3073    0.0000 C    0  0  0  0  0  0  0  0  0  0  0  0
    4.6560   -2.3073    0.0000 N    0  0  0  0  0  0  0  0  0  0  0  0
    5.3191   -3.4540    0.0000 C    0  0  0  0  0  0  0  0  0  0  0  0
    6.6454   -3.4540    0.0000 C    0  0  0  0  0  0  0  0  0  0  0  0
    7.3086   -4.6007    0.0000 C    0  0  0  0  0  0  0  0  0  0  0  0
    6.6454   -5.7612    0.0000 C    0  0  0  0  0  0  0  0  0  0  0  0
    5.3191   -5.7612    0.0000 C    0  0  0  0  0  0  0  0  0  0  0  0
    4.6560   -4.6007    0.0000 C    0  0  0  0  0  0  0  0  0  0  0  0
    7.3086   -6.9079    0.0000 S    0  0  0  0  0  0  0  0  0  0  0  0
    6.1619   -7.5711    0.0000 O    0  0  0  0  0  0  0  0  0  0  0  0
    8.4691   -6.2448    0.0000 O    0  0  0  0  0  0  0  0  0  0  0  0
    7.9718   -8.0547    0.0000 C    0  0  0  0  0  0  0  0  0  0  0  0
    7.3086   -9.2152    0.0000 C    0  0  0  0  0  0  0  0  0  0  0  0
    7.9718  -10.3619    0.0000 C    0  0  0  0  0  0  0  0  0  0  0  0
    9.3119  -10.3619    0.0000 C    0  0  0  0  0  0  0  0  0  0  0  0
    9.9751  -11.5086    0.0000 N    0  0  0  0  0  0  0  0  0  0  0  0
   11.3014  -11.5086    0.0000 C    0  0  0  0  0  0  0  0  0  0  0  0
   11.9646  -12.6692    0.0000 S    0  0  0  0  0  0  0  0  0  0  0  0
   13.2909  -12.6692    0.0000 O    0  5  0  0  0  0  0  0  0  0  0  0
   11.3014  -13.8159    0.0000 O    0  0  0  0  0  0  0  0  0  0  0  0
    9.9751   -9.2152    0.0000 C    0  0  0  0  0  0  0  0  0  0  0  0
    9.3119   -8.0547    0.0000 C    0  0  0  0  0  0  0  0  0  0  0  0
  3  4  1  0  0  0  0
  4  5  2  0  0  0  0
  4  6  1  0  0  0  0
  6  7  1  0  0  0  0
  7  8  1  0  0  0  0
  8  9  2  0  0  0  0
  8 13  1  0  0  0  0
  9 10  1  0  0  0  0
 10 11  2  0  0  0  0
 11 12  1  0  0  0  0
 11 14  1  0  0  0  0
 12 13  2  0  0  0  0
 14 15  2  0  0  0  0
 14 16  2  0  0  0  0
 14 17  1  0  0  0  0
 17 18  2  0  0  0  0
 17 27  1  0  0  0  0
 18 19  1  0  0  0  0
 19 20  2  0  0  0  0
 20 21  1  0  0  0  0
 20 26  1  0  0  0  0
 21 22  1  0  0  0  0
 22 23  1  0  0  0  0
 23 24  1  0  0  0  0
 23 25  2  0  0  0  0
 26 27  2  0  0  0  0
M  END
> <ID>
3240

> <Formula>
C14H14N2Na2O6S3

> <FW>
448.4453 (22.9892+22.9892+402.4669)

> <DSSTox_CID>
3623

> <DSSTox_RID>
77116

> <DSSTox_GSID>
23623

> <DSSTox_FileID_Sort>
1799

> <TS_ChemName>
Adesulfone sodium

> <TS_ChemName_Synonyms>
Sulfoxone

> <TS_CASRN>
144-75-2

> <CASRN_ChemName_Relationship>
primary

> <TS_Description>
single chemical compound

> <ChemNote>


> <STRUCTURE_Shown>
tested chemical

> <STRUCTURE_Formula>
C14H14N2Na2O6S3

> <STRUCTURE_MW>
448.4453

> <STRUCTURE_ChemType>
defined organic

> <STRUCTURE_DefinedOrganicForm>
salt

> <STRUCTURE_IUPAC>
disodium [sulfonylbis(benzene-4,1-diylimino)]dimethanesulfinate

> <STRUCTURE_SMILES>
[Na+].[Na+].O=S(=O)(c1ccc(NCS([O-])=O)cc1)c2ccc(NCS([O-])=O)cc2

> <STRUCTURE_SMILES_Desalt>
O=S(=O)(c1ccc(NCS(=O)O)cc1)c2ccc(NCS(=O)O)cc2

> <Substance_modify_yyyymmdd>
20080429

$$$$
