144-83-2
ChemmineR-0915142007XD

 17 18  0  0  0  0  0  0  0  0  1 V2000
    4.6504   -4.6065    0.0000 S   0  0  0  0  0  0  0  0  0  0  0  0
    3.5024   -3.9411    0.0000 O   0  0  0  0  0  0  0  0  0  0  0  0
    5.8056   -5.2719    0.0000 O   0  0  0  0  0  0  0  0  0  0  0  0
    3.9850   -5.7618    0.0000 N   0  0  0  0  0  0  0  0  0  0  0  0
    2.6615   -5.7618    0.0000 C   0  0  0  0  0  0  0  0  0  0  0  0
    1.9961   -6.9097    0.0000 C   0  0  0  0  0  0  0  0  0  0  0  0
    0.6654   -6.9097    0.0000 C   0  0  0  0  0  0  0  0  0  0  0  0
    0.0000   -5.7618    0.0000 C   0  0  0  0  0  0  0  0  0  0  0  0
    0.6654   -4.6065    0.0000 C   0  0  0  0  0  0  0  0  0  0  0  0
    1.9961   -4.6065    0.0000 N   0  0  0  0  0  0  0  0  0  0  0  0
    5.3157   -3.4585    0.0000 C   0  0  0  0  0  0  0  0  0  0  0  0
    6.6465   -3.4585    0.0000 C   0  0  0  0  0  0  0  0  0  0  0  0
    7.3119   -2.3032    0.0000 C   0  0  0  0  0  0  0  0  0  0  0  0
    6.6465   -1.1553    0.0000 C   0  0  0  0  0  0  0  0  0  0  0  0
    7.3119    0.0000    0.0000 N   0  0  0  0  0  0  0  0  0  0  0  0
    5.3157   -1.1553    0.0000 C   0  0  0  0  0  0  0  0  0  0  0  0
    4.6504   -2.3032    0.0000 C   0  0  0  0  0  0  0  0  0  0  0  0
  1  2  2  0  0  0  0
  1  3  2  0  0  0  0
  1  4  1  0  0  0  0
  1 11  1  0  0  0  0
  4  5  1  0  0  0  0
  5  6  2  0  0  0  0
  5 10  1  0  0  0  0
  6  7  1  0  0  0  0
  7  8  2  0  0  0  0
  8  9  1  0  0  0  0
  9 10  2  0  0  0  0
 11 12  2  0  0  0  0
 11 17  1  0  0  0  0
 12 13  1  0  0  0  0
 13 14  2  0  0  0  0
 14 15  1  0  0  0  0
 14 16  1  0  0  0  0
 16 17  2  0  0  0  0
M  END
> <ID>
4523

> <Formula>
C11H11N3O2S

> <FW>
249.2889

> <DSSTox_CID>
6067

> <DSSTox_RID>
78003

> <DSSTox_GSID>
26067

> <DSSTox_FileID_Sort>
2686

> <TS_ChemName>
Sulfapyridine

> <TS_ChemName_Synonyms>


> <TS_CASRN>
144-83-2

> <CASRN_ChemName_Relationship>
primary

> <TS_Description>
single chemical compound

> <ChemNote>


> <STRUCTURE_Shown>
tested chemical

> <STRUCTURE_Formula>
C11H11N3O2S

> <STRUCTURE_MW>
249.2889

> <STRUCTURE_ChemType>
defined organic

> <STRUCTURE_DefinedOrganicForm>
parent

> <STRUCTURE_IUPAC>
4-amino-N-(pyridin-2-yl)benzenesulfonamide

> <STRUCTURE_SMILES>
O=S(=O)(Nc1ccccn1)c2ccc(N)cc2

> <STRUCTURE_SMILES_Desalt>
O=S(=O)(Nc1ccccn1)c2ccc(N)cc2

> <Substance_modify_yyyymmdd>
20080429

$$$$
