144-49-0
ChemmineR-0915142007XD

  5  4  0  0  0  0  0  0  0  0  1 V2000
    2.3061   -1.3360    0.0000 C   0  0  0  0  0  0  0  0  0  0  0  0
    2.3061    0.0000    0.0000 O   0  0  0  0  0  0  0  0  0  0  0  0
    3.4522   -1.9988    0.0000 O   0  0  0  0  0  0  0  0  0  0  0  0
    0.0000   -1.3360    0.0000 F   0  0  0  0  0  0  0  0  0  0  0  0
    1.1461   -1.9988    0.0000 C   0  0  0  0  0  0  0  0  0  0  0  0
  1  2  2  0  0  0  0
  1  3  1  0  0  0  0
  1  5  1  0  0  0  0
  4  5  1  0  0  0  0
M  END
> <ID>
8916

> <Formula>
C2H3FO2

> <FW>
78.0424

> <DSSTox_CID>
21981

> <DSSTox_RID>
79894

> <DSSTox_GSID>
41981

> <DSSTox_FileID_Sort>
4576

> <TS_ChemName>
Fluoroacetic acid

> <TS_ChemName_Synonyms>


> <TS_CASRN>
144-49-0

> <CASRN_ChemName_Relationship>
primary

> <TS_Description>
single chemical compound

> <ChemNote>


> <STRUCTURE_Shown>
tested chemical

> <STRUCTURE_Formula>
C2H3FO2

> <STRUCTURE_MW>
78.0424

> <STRUCTURE_ChemType>
defined organic

> <STRUCTURE_DefinedOrganicForm>
parent

> <STRUCTURE_IUPAC>
fluoroacetic acid

> <STRUCTURE_SMILES>
FCC(=O)O

> <STRUCTURE_SMILES_Desalt>
FCC(=O)O

> <Substance_modify_yyyymmdd>
20080825

$$$$
