144-14-9
ChemmineR-0915142007XD

 26 28  0  0  0  0  0  0  0  0  1 V2000
   13.1514   -5.2342    0.0000 C   0  0  0  0  0  0  0  0  0  0  0  0
   12.2965   -6.2600    0.0000 C   0  0  0  0  0  0  0  0  0  0  0  0
   10.9814   -6.0233    0.0000 C   0  0  0  0  0  0  0  0  0  0  0  0
   10.5342   -4.7739    0.0000 C   0  0  0  0  0  0  0  0  0  0  0  0
    9.2191   -4.5372    0.0000 C   0  0  0  0  0  0  0  0  0  0  0  0
    9.6794   -3.2878    0.0000 C   0  0  0  0  0  0  0  0  0  0  0  0
   10.9814   -3.0643    0.0000 O   0  0  0  0  0  0  0  0  0  0  0  0
    8.8246   -2.2752    0.0000 O   0  0  0  0  0  0  0  0  0  0  0  0
    9.2717   -1.0258    0.0000 C   0  0  0  0  0  0  0  0  0  0  0  0
    8.4169    0.0000    0.0000 C   0  0  0  0  0  0  0  0  0  0  0  0
    9.2191   -5.8787    0.0000 C   0  0  0  0  0  0  0  0  0  0  0  0
    8.0618   -6.5362    0.0000 C   0  0  0  0  0  0  0  0  0  0  0  0
    6.9176   -5.8787    0.0000 N   0  0  0  0  0  0  0  0  0  0  0  0
    5.7603   -6.5362    0.0000 C   0  0  0  0  0  0  0  0  0  0  0  0
    4.6161   -5.8787    0.0000 C   0  0  0  0  0  0  0  0  0  0  0  0
    3.4588   -6.5362    0.0000 C   0  0  0  0  0  0  0  0  0  0  0  0
    3.4588   -7.8645    0.0000 C   0  0  0  0  0  0  0  0  0  0  0  0
    2.3015   -8.5352    0.0000 C   0  0  0  0  0  0  0  0  0  0  0  0
    1.1573   -7.8645    0.0000 C   0  0  0  0  0  0  0  0  0  0  0  0
    0.0000   -8.5352    0.0000 N   0  0  0  0  0  0  0  0  0  0  0  0
    1.1573   -6.5362    0.0000 C   0  0  0  0  0  0  0  0  0  0  0  0
    2.3015   -5.8787    0.0000 C   0  0  0  0  0  0  0  0  0  0  0  0
    6.9176   -4.5372    0.0000 C   0  0  0  0  0  0  0  0  0  0  0  0
    8.0618   -3.8796    0.0000 C   0  0  0  0  0  0  0  0  0  0  0  0
   11.3891   -3.7481    0.0000 C   0  0  0  0  0  0  0  0  0  0  0  0
   12.6911   -3.9849    0.0000 C   0  0  0  0  0  0  0  0  0  0  0  0
  1  2  2  0  0  0  0
  1 26  1  0  0  0  0
  2  3  1  0  0  0  0
  3  4  2  0  0  0  0
  4  5  1  0  0  0  0
  4 25  1  0  0  0  0
  5  6  1  0  0  0  0
  5 11  1  0  0  0  0
  5 24  1  0  0  0  0
  6  7  2  0  0  0  0
  6  8  1  0  0  0  0
  8  9  1  0  0  0  0
  9 10  1  0  0  0  0
 11 12  1  0  0  0  0
 12 13  1  0  0  0  0
 13 14  1  0  0  0  0
 13 23  1  0  0  0  0
 14 15  1  0  0  0  0
 15 16  1  0  0  0  0
 16 17  2  0  0  0  0
 16 22  1  0  0  0  0
 17 18  1  0  0  0  0
 18 19  2  0  0  0  0
 19 20  1  0  0  0  0
 19 21  1  0  0  0  0
 21 22  2  0  0  0  0
 23 24  1  0  0  0  0
 25 26  2  0  0  0  0
M  END
> <ID>
2365

> <Formula>
C22H28N2O2

> <FW>
352.4699

> <DSSTox_CID>
2610

> <DSSTox_RID>
97535

> <DSSTox_GSID>
22610

> <DSSTox_FileID_Sort>
8309

> <TS_ChemName>
Anileridine

> <TS_ChemName_Synonyms>


> <TS_CASRN>
144-14-9

> <CASRN_ChemName_Relationship>
primary

> <TS_Description>
single chemical compound

> <ChemNote>


> <STRUCTURE_Shown>
tested chemical

> <STRUCTURE_Formula>
C22H28N2O2

> <STRUCTURE_MW>
352.4699

> <STRUCTURE_ChemType>
defined organic

> <STRUCTURE_DefinedOrganicForm>
parent

> <STRUCTURE_IUPAC>
ethyl 1-[2-(4-aminophenyl)ethyl]-4-phenylpiperidine-4-carboxylate

> <STRUCTURE_SMILES>
O=C(OCC)C2(CCN(CCc1ccc(N)cc1)CC2)c3ccccc3

> <STRUCTURE_SMILES_Desalt>
O=C(OCC)C2(CCN(CCc1ccc(N)cc1)CC2)c3ccccc3

> <Substance_modify_yyyymmdd>
20080429

$$$$
