144-79-6
ChemmineR-0915142007XD

 15 16  0  0  0  0  0  0  0  0  1 V2000
    3.1689   -0.9488    0.0000 Si   0  0  0  0  0  0  0  0  0  0  0  0
    4.0987    0.0000    0.0000 C    0  0  0  0  0  0  0  0  0  0  0  0
    2.2265   -1.8912    0.0000 C    0  0  0  0  0  0  0  0  0  0  0  0
    2.5807   -3.1753    0.0000 C    0  0  0  0  0  0  0  0  0  0  0  0
    0.9425   -1.5370    0.0000 C    0  0  0  0  0  0  0  0  0  0  0  0
    1.6319   -4.1177    0.0000 C    0  0  0  0  0  0  0  0  0  0  0  0
    0.0000   -2.4858    0.0000 C    0  0  0  0  0  0  0  0  0  0  0  0
    0.3542   -3.7635    0.0000 C    0  0  0  0  0  0  0  0  0  0  0  0
    4.0987   -1.8912    0.0000 C    0  0  0  0  0  0  0  0  0  0  0  0
    5.3954   -1.5370    0.0000 C    0  0  0  0  0  0  0  0  0  0  0  0
    3.7635   -3.1753    0.0000 C    0  0  0  0  0  0  0  0  0  0  0  0
    6.3252   -2.4858    0.0000 C    0  0  0  0  0  0  0  0  0  0  0  0
    4.7060   -4.0987    0.0000 C    0  0  0  0  0  0  0  0  0  0  0  0
    5.9900   -3.7635    0.0000 C    0  0  0  0  0  0  0  0  0  0  0  0
    2.2265    0.0000    0.0000 Cl   0  0  0  0  0  0  0  0  0  0  0  0
  1  2  1  0  0  0  0
  1  3  1  0  0  0  0
  1  9  1  0  0  0  0
  1 15  1  0  0  0  0
  3  4  2  0  0  0  0
  3  5  1  0  0  0  0
  4  6  1  0  0  0  0
  5  7  2  0  0  0  0
  6  8  2  0  0  0  0
  7  8  1  0  0  0  0
  9 10  2  0  0  0  0
  9 11  1  0  0  0  0
 10 12  1  0  0  0  0
 11 13  2  0  0  0  0
 12 14  2  0  0  0  0
 13 14  1  0  0  0  0
M  END
> <ID>
4940

> <Formula>
C13H13ClSi

> <FW>
232.7808

> <DSSTox_CID>
7116

> <DSSTox_RID>
78315

> <DSSTox_GSID>
27116

> <DSSTox_FileID_Sort>
2998

> <TS_ChemName>
Chloro(methyl)diphenylsilane

> <TS_ChemName_Synonyms>


> <TS_CASRN>
144-79-6

> <CASRN_ChemName_Relationship>
primary

> <TS_Description>
single chemical compound

> <ChemNote>


> <STRUCTURE_Shown>
tested chemical

> <STRUCTURE_Formula>
C13H13ClSi

> <STRUCTURE_MW>
232.7808

> <STRUCTURE_ChemType>
organometallic

> <STRUCTURE_DefinedOrganicForm>


> <STRUCTURE_IUPAC>
chloro(methyl)diphenylsilane

> <STRUCTURE_SMILES>
C[Si](Cl)(c1ccccc1)c2ccccc2

> <STRUCTURE_SMILES_Desalt>
C[Si](Cl)(c1ccccc1)c2ccccc2

> <Substance_modify_yyyymmdd>
20080429

$$$$
