144-62-7
ChemmineR-0915142007XD

  6  5  0  0  0  0  0  0  0  0  1 V2000
    1.9943   -1.1509    0.0000 C   0  0  0  0  0  0  0  0  0  0  0  0
    3.3250   -1.1509    0.0000 O   0  0  0  0  0  0  0  0  0  0  0  0
    1.3307    0.0000    0.0000 O   0  0  0  0  0  0  0  0  0  0  0  0
    1.3307   -2.3053    0.0000 C   0  0  0  0  0  0  0  0  0  0  0  0
    1.9943   -3.4563    0.0000 O   0  0  0  0  0  0  0  0  0  0  0  0
    0.0000   -2.3053    0.0000 O   0  0  0  0  0  0  0  0  0  0  0  0
  1  2  2  0  0  0  0
  1  3  1  0  0  0  0
  1  4  1  0  0  0  0
  4  5  2  0  0  0  0
  4  6  1  0  0  0  0
M  END
> <ID>
4421

> <Formula>
C2H2O4

> <FW>
90.0349

> <DSSTox_CID>
5816

> <DSSTox_RID>
77935

> <DSSTox_GSID>
25816

> <DSSTox_FileID_Sort>
2618

> <TS_ChemName>
Oxalic acid

> <TS_ChemName_Synonyms>
Oxalic acid (Ethanedioic acid)

> <TS_CASRN>
144-62-7

> <CASRN_ChemName_Relationship>
primary

> <TS_Description>
single chemical compound

> <ChemNote>


> <STRUCTURE_Shown>
tested chemical

> <STRUCTURE_Formula>
C2H2O4

> <STRUCTURE_MW>
90.0349

> <STRUCTURE_ChemType>
defined organic

> <STRUCTURE_DefinedOrganicForm>
parent

> <STRUCTURE_IUPAC>
ethanedioic acid

> <STRUCTURE_SMILES>
O=C(O)C(=O)O

> <STRUCTURE_SMILES_Desalt>
O=C(O)C(=O)O

> <Substance_modify_yyyymmdd>
20080429

$$$$
