144-68-3
ChemmineR-0915142007XD

 42 43  0  0  1  0  0  0  0  0  1 V2000
    3.4559   -3.9742    0.0000 C   0  0  0  0  0  0  0  0  0  0  0  0
    3.4559   -2.6495    0.0000 C   0  0  0  0  0  0  0  0  0  0  0  0
    2.3039   -4.6366    0.0000 C   0  0  0  0  0  0  0  0  0  0  0  0
    2.3039   -1.9871    0.0000 C   0  0  0  0  0  0  0  0  0  0  0  0
    1.1520   -3.9742    0.0000 C   0  0  0  0  0  0  0  0  0  0  0  0
    1.1520   -2.6495    0.0000 C   0  0  0  0  0  0  0  0  0  0  0  0
    4.6078   -1.9871    0.0000 C   0  0  0  0  0  0  0  0  0  0  0  0
    5.7598   -2.6495    0.0000 C   0  0  0  0  0  0  0  0  0  0  0  0
    6.9117   -1.9871    0.0000 C   0  0  0  0  0  0  0  0  0  0  0  0
    8.0637   -2.6495    0.0000 C   0  0  0  0  0  0  0  0  0  0  0  0
    9.2156   -1.9871    0.0000 C   0  0  0  0  0  0  0  0  0  0  0  0
   10.3676   -2.6495    0.0000 C   0  0  0  0  0  0  0  0  0  0  0  0
   11.5195   -1.9871    0.0000 C   0  0  0  0  0  0  0  0  0  0  0  0
   12.6715   -2.6495    0.0000 C   0  0  0  0  0  0  0  0  0  0  0  0
   13.8234   -1.9871    0.0000 C   0  0  0  0  0  0  0  0  0  0  0  0
   14.9754   -2.6495    0.0000 C   0  0  0  0  0  0  0  0  0  0  0  0
   16.1273   -1.9871    0.0000 C   0  0  0  0  0  0  0  0  0  0  0  0
   17.2793   -2.6495    0.0000 C   0  0  0  0  0  0  0  0  0  0  0  0
   18.4312   -1.9871    0.0000 C   0  0  0  0  0  0  0  0  0  0  0  0
   19.5832   -2.6495    0.0000 C   0  0  0  0  0  0  0  0  0  0  0  0
   20.7351   -1.9871    0.0000 C   0  0  0  0  0  0  0  0  0  0  0  0
   21.8871   -2.6495    0.0000 C   0  0  0  0  0  0  0  0  0  0  0  0
   23.0390   -1.9871    0.0000 C   0  0  0  0  0  0  0  0  0  0  0  0
   24.1910   -2.6495    0.0000 C   0  0  0  0  0  0  0  0  0  0  0  0
   25.3429   -1.9871    0.0000 C   0  0  0  0  0  0  0  0  0  0  0  0
    0.0000   -4.6366    0.0000 O   0  0  0  0  0  0  0  0  0  0  0  0
    1.6415   -0.8064    0.0000 C   0  0  0  0  0  0  0  0  0  0  0  0
    2.9663   -0.8352    0.0000 C   0  0  0  0  0  0  0  0  0  0  0  0
    4.6078   -4.6366    0.0000 C   0  0  0  0  0  0  0  0  0  0  0  0
    6.9117   -0.6336    0.0000 C   0  0  0  0  0  0  0  0  0  0  0  0
   11.5195   -0.6336    0.0000 C   0  0  0  0  0  0  0  0  0  0  0  0
   17.2793   -3.9742    0.0000 C   0  0  0  0  0  0  0  0  0  0  0  0
   21.8871   -3.9742    0.0000 C   0  0  0  0  0  0  0  0  0  0  0  0
   27.6468   -0.6336    0.0000 C   0  0  0  0  0  0  0  0  0  0  0  0
   27.6468   -1.9871    0.0000 C   0  0  0  0  0  0  0  0  0  0  0  0
   26.4949    0.0000    0.0000 C   0  0  0  0  0  0  0  0  0  0  0  0
   26.4949   -2.6495    0.0000 C   0  0  0  0  0  0  0  0  0  0  0  0
   25.3429   -0.6336    0.0000 C   0  0  0  0  0  0  0  0  0  0  0  0
   24.1910    0.0000    0.0000 C   0  0  0  0  0  0  0  0  0  0  0  0
   28.7988    0.0000    0.0000 O   0  0  0  0  0  0  0  0  0  0  0  0
   27.1573   -3.8014    0.0000 C   0  0  0  0  0  0  0  0  0  0  0  0
   25.8325   -3.8014    0.0000 C   0  0  0  0  0  0  0  0  0  0  0  0
  1  2  2  0  0  0  0
  1  3  1  0  0  0  0
  1 29  1  0  0  0  0
  2  4  1  0  0  0  0
  2  7  1  0  0  0  0
  3  5  1  0  0  0  0
  4  6  1  0  0  0  0
  4 27  1  0  0  0  0
  4 28  1  0  0  0  0
  5  6  1  0  0  0  0
  5 26  1  1  0  0  0
  7  8  2  0  0  0  0
  8  9  1  0  0  0  0
  9 10  2  0  0  0  0
  9 30  1  0  0  0  0
 10 11  1  0  0  0  0
 11 12  2  0  0  0  0
 12 13  1  0  0  0  0
 13 14  2  0  0  0  0
 13 31  1  0  0  0  0
 14 15  1  0  0  0  0
 15 16  2  0  0  0  0
 16 17  1  0  0  0  0
 17 18  2  0  0  0  0
 18 19  1  0  0  0  0
 18 32  1  0  0  0  0
 19 20  2  0  0  0  0
 20 21  1  0  0  0  0
 21 22  2  0  0  0  0
 22 23  1  0  0  0  0
 22 33  1  0  0  0  0
 23 24  2  0  0  0  0
 24 25  1  0  0  0  0
 25 37  1  0  0  0  0
 25 38  2  0  0  0  0
 34 35  1  0  0  0  0
 34 36  1  0  0  0  0
 34 40  1  1  0  0  0
 35 37  1  0  0  0  0
 36 38  1  0  0  0  0
 37 41  1  0  0  0  0
 37 42  1  0  0  0  0
 38 39  1  0  0  0  0
M  END
> <ID>
11985

> <Formula>
C40H56O2

> <FW>
568.8714

> <DSSTox_CID>
26807

> <DSSTox_RID>
81921

> <DSSTox_GSID>
46807

> <DSSTox_FileID_Sort>
6602

> <TS_ChemName>
Zeaxanthin

> <TS_ChemName_Synonyms>


> <TS_CASRN>
144-68-3

> <CASRN_ChemName_Relationship>
primary

> <TS_Description>
single chemical compound

> <ChemNote>
stereochem

> <STRUCTURE_Shown>
tested chemical

> <STRUCTURE_Formula>
C40H56O2

> <STRUCTURE_MW>
568.8714

> <STRUCTURE_ChemType>
defined organic

> <STRUCTURE_DefinedOrganicForm>
parent

> <STRUCTURE_IUPAC>
(3R,3'R)-beta,beta-carotene-3,3'-diol

> <STRUCTURE_SMILES>
CC2(C)C[C@H](O)CC(C)=C2/C=CC(\C)=C\C=C\C(\C)=C\C=C\C=C(/C)\C=C\C=C(/C)\C=C\C1=C(C)C[C@@H](O)CC1(C)C

> <STRUCTURE_SMILES_Desalt>
CC2(C)C[C@H](O)CC(C)=C2/C=CC(\C)=C\C=C\C(\C)=C\C=C\C=C(/C)\C=C\C=C(/C)\C=C\C1=C(C)C[C@@H](O)CC1(C)C

> <Substance_modify_yyyymmdd>
20110801

$$$$
