144-67-2
ChemmineR-0915142007XD

 76 77  0  0  1  0  0  0  0  0  1 V2000
    5.8101   -4.6748    0.0000 C   0  0  0  0  0  0  0  0  0  0  0  0
   27.5812   -4.0070    0.0000 C   0  0  0  0  0  0  0  0  0  0  0  0
    6.9120   -4.0070    0.0000 C   0  0  0  0  0  0  0  0  0  0  0  0
   26.4793   -4.6748    0.0000 C   0  0  0  0  0  0  0  0  0  0  0  0
    5.8101   -6.0104    0.0000 C   0  0  0  0  0  0  0  0  0  0  0  0
   27.5812   -2.6713    0.0000 C   0  0  0  0  0  0  0  0  0  0  0  0
    4.5746   -4.0070    0.0000 C   0  0  0  0  0  0  0  0  0  0  0  0
   25.3774   -4.0070    0.0000 C   0  0  0  0  0  0  0  0  0  0  0  0
    8.0139   -4.6748    0.0000 C   0  0  0  0  0  0  0  0  0  0  0  0
   11.4532   -4.0070    0.0000 C   0  0  0  0  0  0  0  0  0  0  0  0
   21.8045   -4.6748    0.0000 C   0  0  0  0  0  0  0  0  0  0  0  0
    9.2494   -4.0070    0.0000 C   0  0  0  0  0  0  0  0  0  0  0  0
   24.1419   -4.6748    0.0000 C   0  0  0  0  0  0  0  0  0  0  0  0
   13.7906   -4.0070    0.0000 C   0  0  0  0  0  0  0  0  0  0  0  0
   19.6007   -4.6748    0.0000 C   0  0  0  0  0  0  0  0  0  0  0  0
   23.0400   -4.0070    0.0000 C   0  0  0  0  0  0  0  0  0  0  0  0
   10.3513   -4.6748    0.0000 C   0  0  0  0  0  0  0  0  0  0  0  0
   20.7026   -4.0070    0.0000 C   0  0  0  0  0  0  0  0  0  0  0  0
   12.6887   -4.6748    0.0000 C   0  0  0  0  0  0  0  0  0  0  0  0
   18.4654   -4.0070    0.0000 C   0  0  0  0  0  0  0  0  0  0  0  0
   14.9259   -4.6748    0.0000 C   0  0  0  0  0  0  0  0  0  0  0  0
   16.1280   -4.0070    0.0000 C   0  0  0  0  0  0  0  0  0  0  0  0
   17.2633   -4.6748    0.0000 C   0  0  0  0  0  0  0  0  0  0  0  0
    4.5746   -6.6783    0.0000 C   0  0  0  0  0  0  0  0  0  0  0  0
   28.8167   -2.0035    0.0000 C   0  0  0  0  0  0  0  0  0  0  0  0
    3.4393   -4.6748    0.0000 C   0  0  0  0  0  0  0  0  0  0  0  0
   29.9520   -4.0070    0.0000 C   0  0  0  0  0  0  0  0  0  0  0  0
    6.9120   -6.6783    0.0000 C   0  0  0  0  0  0  0  0  0  0  0  0
   26.4793   -2.0035    0.0000 C   0  0  0  0  0  0  0  0  0  0  0  0
    5.2424   -2.8717    0.0000 C   0  0  0  0  0  0  0  0  0  0  0  0
    3.9068   -2.8717    0.0000 C   0  0  0  0  0  0  0  0  0  0  0  0
   28.1489   -5.7767    0.0000 C   0  0  0  0  0  0  0  0  0  0  0  0
   29.4845   -5.7767    0.0000 C   0  0  0  0  0  0  0  0  0  0  0  0
    3.4393   -6.0104    0.0000 C   0  0  0  0  0  0  0  0  0  0  0  0
   29.9520   -2.6713    0.0000 C   0  0  0  0  0  0  0  0  0  0  0  0
   24.1419   -6.0104    0.0000 C   0  0  0  0  0  0  0  0  0  0  0  0
    9.2494   -2.6713    0.0000 C   0  0  0  0  0  0  0  0  0  0  0  0
   13.7906   -2.6713    0.0000 C   0  0  0  0  0  0  0  0  0  0  0  0
   19.6007   -6.0104    0.0000 C   0  0  0  0  0  0  0  0  0  0  0  0
   28.8167   -4.6748    0.0000 C   0  0  0  0  0  0  0  0  0  0  0  0
    2.3374   -6.6783    0.0000 O   0  0  0  0  0  0  0  0  0  0  0  0
    1.1353   -6.0104    0.0000 C   0  0  0  0  0  0  0  0  0  0  0  0
    1.1353   -4.6748    0.0000 O   0  0  0  0  0  0  0  0  0  0  0  0
    0.0000   -6.6783    0.0000 C   0  0  0  0  0  0  0  0  0  0  0  0
    0.0000   -8.0139    0.0000 C   0  0  0  0  0  0  0  0  0  0  0  0
   13.7906   -8.0139    0.0000 C   0  0  0  0  0  0  0  0  0  0  0  0
   12.6887   -8.6817    0.0000 C   0  0  0  0  0  0  0  0  0  0  0  0
    3.4393   -8.6817    0.0000 C   0  0  0  0  0  0  0  0  0  0  0  0
    4.5746   -8.0139    0.0000 C   0  0  0  0  0  0  0  0  0  0  0  0
    5.8101   -8.6817    0.0000 C   0  0  0  0  0  0  0  0  0  0  0  0
    6.9120   -8.0139    0.0000 C   0  0  0  0  0  0  0  0  0  0  0  0
    8.0139   -8.6817    0.0000 C   0  0  0  0  0  0  0  0  0  0  0  0
    9.2494   -8.0139    0.0000 C   0  0  0  0  0  0  0  0  0  0  0  0
   10.3513   -8.6817    0.0000 C   0  0  0  0  0  0  0  0  0  0  0  0
   11.4532   -8.0139    0.0000 C   0  0  0  0  0  0  0  0  0  0  0  0
    1.1353   -8.6817    0.0000 C   0  0  0  0  0  0  0  0  0  0  0  0
    2.3374   -8.0139    0.0000 C   0  0  0  0  0  0  0  0  0  0  0  0
   14.9259   -8.6817    0.0000 C   0  0  0  0  0  0  0  0  0  0  0  0
   31.0539   -2.0035    0.0000 O   0  0  0  0  0  0  0  0  0  0  0  0
   32.2560   -2.6713    0.0000 C   0  0  0  0  0  0  0  0  0  0  0  0
   32.2560   -4.0070    0.0000 O   0  0  0  0  0  0  0  0  0  0  0  0
   33.3913   -2.0035    0.0000 C   0  0  0  0  0  0  0  0  0  0  0  0
   33.3913   -0.6678    0.0000 C   0  0  0  0  0  0  0  0  0  0  0  0
   19.6007   -0.6678    0.0000 C   0  0  0  0  0  0  0  0  0  0  0  0
   20.7026    0.0000    0.0000 C   0  0  0  0  0  0  0  0  0  0  0  0
   29.9520    0.0000    0.0000 C   0  0  0  0  0  0  0  0  0  0  0  0
   28.8167   -0.6678    0.0000 C   0  0  0  0  0  0  0  0  0  0  0  0
   27.5812    0.0000    0.0000 C   0  0  0  0  0  0  0  0  0  0  0  0
   26.4793   -0.6678    0.0000 C   0  0  0  0  0  0  0  0  0  0  0  0
   25.3774    0.0000    0.0000 C   0  0  0  0  0  0  0  0  0  0  0  0
   24.1419   -0.6678    0.0000 C   0  0  0  0  0  0  0  0  0  0  0  0
   23.0400    0.0000    0.0000 C   0  0  0  0  0  0  0  0  0  0  0  0
   21.8045   -0.6678    0.0000 C   0  0  0  0  0  0  0  0  0  0  0  0
   32.2560    0.0000    0.0000 C   0  0  0  0  0  0  0  0  0  0  0  0
   31.0539   -0.6678    0.0000 C   0  0  0  0  0  0  0  0  0  0  0  0
   18.4654    0.0000    0.0000 C   0  0  0  0  0  0  0  0  0  0  0  0
  1  3  1  0  0  0  0
  1  5  2  0  0  0  0
  1  7  1  0  0  0  0
  2  4  1  0  0  0  0
  2  6  2  0  0  0  0
  2 40  1  0  0  0  0
  3  9  2  0  0  0  0
  4  8  2  0  0  0  0
  5 24  1  0  0  0  0
  5 28  1  0  0  0  0
  6 25  1  0  0  0  0
  6 29  1  0  0  0  0
  7 26  1  0  0  0  0
  7 30  1  0  0  0  0
  7 31  1  0  0  0  0
  8 13  1  0  0  0  0
  9 12  1  0  0  0  0
 10 17  1  0  0  0  0
 10 19  2  0  0  0  0
 11 18  2  0  0  0  0
 11 16  1  0  0  0  0
 12 17  2  0  0  0  0
 12 37  1  0  0  0  0
 13 16  2  0  0  0  0
 13 36  1  0  0  0  0
 14 19  1  0  0  0  0
 14 21  2  0  0  0  0
 14 38  1  0  0  0  0
 15 20  2  0  0  0  0
 15 18  1  0  0  0  0
 15 39  1  0  0  0  0
 20 23  1  0  0  0  0
 21 22  1  0  0  0  0
 22 23  2  0  0  0  0
 24 34  1  0  0  0  0
 25 35  1  0  0  0  0
 26 34  1  0  0  0  0
 27 40  1  0  0  0  0
 27 35  1  0  0  0  0
 32 40  1  0  0  0  0
 33 40  1  0  0  0  0
 34 41  1  1  0  0  0
 35 59  1  1  0  0  0
 41 42  1  0  0  0  0
 42 43  2  0  0  0  0
 42 44  1  0  0  0  0
 44 45  1  0  0  0  0
 45 56  1  0  0  0  0
 46 47  1  0  0  0  0
 46 58  1  0  0  0  0
 47 55  1  0  0  0  0
 48 57  1  0  0  0  0
 48 49  1  0  0  0  0
 49 50  1  0  0  0  0
 50 51  1  0  0  0  0
 51 52  1  0  0  0  0
 52 53  1  0  0  0  0
 53 54  1  0  0  0  0
 54 55  1  0  0  0  0
 56 57  1  0  0  0  0
 59 60  1  0  0  0  0
 60 61  2  0  0  0  0
 60 62  1  0  0  0  0
 62 63  1  0  0  0  0
 63 74  1  0  0  0  0
 64 65  1  0  0  0  0
 64 76  1  0  0  0  0
 65 73  1  0  0  0  0
 66 75  1  0  0  0  0
 66 67  1  0  0  0  0
 67 68  1  0  0  0  0
 68 69  1  0  0  0  0
 69 70  1  0  0  0  0
 70 71  1  0  0  0  0
 71 72  1  0  0  0  0
 72 73  1  0  0  0  0
 74 75  1  0  0  0  0
M  END
> <ID>
13699

> <Formula>
C72H116O4

> <FW>
1045.689

> <DSSTox_CID>
28633

> <DSSTox_RID>
82903

> <DSSTox_GSID>
48707

> <DSSTox_FileID_Sort>
7580

> <TS_ChemName>
Physalien

> <TS_ChemName_Synonyms>
PHYSALIEN with TLC

> <TS_CASRN>
144-67-2

> <CASRN_ChemName_Relationship>
primary

> <TS_Description>
mixture or formulation

> <ChemNote>


> <STRUCTURE_Shown>
representative component

> <STRUCTURE_Formula>
C72H116O4

> <STRUCTURE_MW>
1045.689

> <STRUCTURE_ChemType>
defined organic

> <STRUCTURE_DefinedOrganicForm>
parent

> <STRUCTURE_IUPAC>
(3R,3'R)-beta,beta-carotene-3,3'-diyl dihexadecanoate

> <STRUCTURE_SMILES>
O=C(O[C@@H]2CC(C)=C(/C=CC(\C)=C\C=C\C(\C)=C\C=C\C=C(/C)\C=C\C=C(/C)\C=C\C1=C(C)C[C@@H](OC(=O)CCCCCCCCCCCCCCC)CC1(C)C)C(C)(C)C2)CCCCCCCCCCCCCCC

> <STRUCTURE_SMILES_Desalt>
O=C(O[C@@H]2CC(C)=C(/C=CC(\C)=C\C=C\C(\C)=C\C=C\C=C(/C)\C=C\C=C(/C)\C=C\C1=C(C)C[C@@H](OC(=O)CCCCCCCCCCCCCCC)CC1(C)C)C(C)(C)C2)CCCCCCCCCCCCCCC

> <Substance_modify_yyyymmdd>
20111204

$$$$
