144-80-9
ChemmineR-0915142007XD

 14 14  0  0  0  0  0  0  0  0  1 V2000
    4.6008   -2.6590    0.0000 S   0  0  0  0  0  0  0  0  0  0  0  0
    3.9401   -3.8112    0.0000 O   0  0  0  0  0  0  0  0  0  0  0  0
    5.2696   -1.5067    0.0000 O   0  0  0  0  0  0  0  0  0  0  0  0
    5.7530   -3.3277    0.0000 N   0  0  0  0  0  0  0  0  0  0  0  0
    6.9053   -2.6590    0.0000 C   0  0  0  0  0  0  0  0  0  0  0  0
    8.0575   -3.3277    0.0000 C   0  0  0  0  0  0  0  0  0  0  0  0
    6.9053   -1.3295    0.0000 O   0  0  0  0  0  0  0  0  0  0  0  0
    3.4567   -1.9983    0.0000 C   0  0  0  0  0  0  0  0  0  0  0  0
    2.3044   -2.6590    0.0000 C   0  0  0  0  0  0  0  0  0  0  0  0
    1.1522   -1.9983    0.0000 C   0  0  0  0  0  0  0  0  0  0  0  0
    1.1522   -0.6688    0.0000 C   0  0  0  0  0  0  0  0  0  0  0  0
    0.0000    0.0000    0.0000 N   0  0  0  0  0  0  0  0  0  0  0  0
    2.3044    0.0000    0.0000 C   0  0  0  0  0  0  0  0  0  0  0  0
    3.4567   -0.6688    0.0000 C   0  0  0  0  0  0  0  0  0  0  0  0
  1  2  2  0  0  0  0
  1  3  2  0  0  0  0
  1  4  1  0  0  0  0
  1  8  1  0  0  0  0
  4  5  1  0  0  0  0
  5  6  1  0  0  0  0
  5  7  2  0  0  0  0
  8  9  2  0  0  0  0
  8 14  1  0  0  0  0
  9 10  1  0  0  0  0
 10 11  2  0  0  0  0
 11 12  1  0  0  0  0
 11 13  1  0  0  0  0
 13 14  2  0  0  0  0
M  END
> <ID>
4520

> <Formula>
C8H10N2O3S

> <FW>
214.2416

> <DSSTox_CID>
6060

> <DSSTox_RID>
78000

> <DSSTox_GSID>
26060

> <DSSTox_FileID_Sort>
2683

> <TS_ChemName>
Sulfacetamide

> <TS_ChemName_Synonyms>


> <TS_CASRN>
144-80-9

> <CASRN_ChemName_Relationship>
primary

> <TS_Description>
single chemical compound

> <ChemNote>


> <STRUCTURE_Shown>
tested chemical

> <STRUCTURE_Formula>
C8H10N2O3S

> <STRUCTURE_MW>
214.2416

> <STRUCTURE_ChemType>
defined organic

> <STRUCTURE_DefinedOrganicForm>
parent

> <STRUCTURE_IUPAC>
N-[(4-aminophenyl)sulfonyl]acetamide

> <STRUCTURE_SMILES>
Nc1ccc(cc1)S(=O)(=O)NC(C)=O

> <STRUCTURE_SMILES_Desalt>
Nc1ccc(cc1)S(=O)(=O)NC(C)=O

> <Substance_modify_yyyymmdd>
20080429

$$$$
