144060-53-7
ChemmineR-0915142007XD

 22 23  0  0  0  0  0  0  0  0  1 V2000
    5.9890   -2.2921    0.0000 C   0  0  0  0  0  0  0  0  0  0  0  0
    6.6545   -3.4505    0.0000 C   0  0  0  0  0  0  0  0  0  0  0  0
    4.6581   -2.2921    0.0000 C   0  0  0  0  0  0  0  0  0  0  0  0
    5.9890   -4.5965    0.0000 C   0  0  0  0  0  0  0  0  0  0  0  0
    3.9927   -3.4505    0.0000 C   0  0  0  0  0  0  0  0  0  0  0  0
    4.6581   -4.5965    0.0000 C   0  0  0  0  0  0  0  0  0  0  0  0
    7.9853   -3.4505    0.0000 C   0  0  0  0  0  0  0  0  0  0  0  0
    8.7617   -2.3784    0.0000 S   0  0  0  0  0  0  0  0  0  0  0  0
    8.7617   -4.5226    0.0000 N   0  0  0  0  0  0  0  0  0  0  0  0
   10.0310   -2.7850    0.0000 C   0  0  0  0  0  0  0  0  0  0  0  0
   10.0310   -4.1159    0.0000 C   0  0  0  0  0  0  0  0  0  0  0  0
   11.1031   -4.9046    0.0000 C   0  0  0  0  0  0  0  0  0  0  0  0
   11.1031   -2.0087    0.0000 C   0  0  0  0  0  0  0  0  0  0  0  0
   12.3231   -2.5509    0.0000 O   0  0  0  0  0  0  0  0  0  0  0  0
   10.9798   -0.6778    0.0000 O   0  0  0  0  0  0  0  0  0  0  0  0
    3.9927   -1.1337    0.0000 C   0  0  0  0  0  0  0  0  0  0  0  0
    4.6581    0.0000    0.0000 N   0  0  0  0  0  0  0  0  0  0  0  0
    2.6618   -3.4505    0.0000 O   0  0  0  0  0  0  0  0  0  0  0  0
    2.0087   -4.5965    0.0000 C   0  0  0  0  0  0  0  0  0  0  0  0
    0.6778   -4.5965    0.0000 C   0  0  0  0  0  0  0  0  0  0  0  0
    0.0000   -5.7549    0.0000 C   0  0  0  0  0  0  0  0  0  0  0  0
    0.0000   -3.4505    0.0000 C   0  0  0  0  0  0  0  0  0  0  0  0
  1  2  1  0  0  0  0
  1  3  2  0  0  0  0
  2  4  2  0  0  0  0
  2  7  1  0  0  0  0
  3  5  1  0  0  0  0
  3 16  1  0  0  0  0
  4  6  1  0  0  0  0
  5  6  2  0  0  0  0
  5 18  1  0  0  0  0
  7  8  1  0  0  0  0
  7  9  2  0  0  0  0
  8 10  1  0  0  0  0
  9 11  1  0  0  0  0
 10 11  2  0  0  0  0
 10 13  1  0  0  0  0
 11 12  1  0  0  0  0
 13 14  1  0  0  0  0
 13 15  2  0  0  0  0
 16 17  3  0  0  0  0
 18 19  1  0  0  0  0
 19 20  1  0  0  0  0
 20 21  1  0  0  0  0
 20 22  1  0  0  0  0
M  END
> <ID>
13646

> <Formula>
C16H16N2O3S

> <FW>
316.3748

> <DSSTox_CID>
28576

> <DSSTox_RID>
82848

> <DSSTox_GSID>
48650

> <DSSTox_FileID_Sort>
7525

> <TS_ChemName>
Febuxostat

> <TS_ChemName_Synonyms>


> <TS_CASRN>
144060-53-7

> <CASRN_ChemName_Relationship>
primary

> <TS_Description>
single chemical compound

> <ChemNote>


> <STRUCTURE_Shown>
tested chemical

> <STRUCTURE_Formula>
C16H16N2O3S

> <STRUCTURE_MW>
316.3748

> <STRUCTURE_ChemType>
defined organic

> <STRUCTURE_DefinedOrganicForm>
parent

> <STRUCTURE_IUPAC>
2-[3-cyano-4-(2-methylpropoxy)phenyl]-4-methyl-1,3-thiazole-5-carboxylic acid

> <STRUCTURE_SMILES>
CC(C)COc1ccc(cc1C#N)c2nc(C)c(s2)C(=O)O

> <STRUCTURE_SMILES_Desalt>
CC(C)COc1ccc(cc1C#N)c2nc(C)c(s2)C(=O)O

> <Substance_modify_yyyymmdd>
20111016

$$$$
