144143-96-4
ChemmineR-0915142007XD

 35 36  0  0  0  0  0  0  0  0  1 V2000
    8.8073   -9.2023    0.0000 S   0  0  0  0  0  0  0  0  0  0  0  0
    8.3992  -10.4925    0.0000 C   0  0  0  0  0  0  0  0  0  0  0  0
    7.0696  -10.5056    0.0000 C   0  0  0  0  0  0  0  0  0  0  0  0
    6.6483   -9.2286    0.0000 C   0  0  0  0  0  0  0  0  0  0  0  0
    7.7147   -8.4387    0.0000 C   0  0  0  0  0  0  0  0  0  0  0  0
    7.3197   -4.0416    0.0000 C   0  0  0  0  0  0  0  0  0  0  0  0
    8.6494   -4.0416    0.0000 C   0  0  0  0  0  0  0  0  0  0  0  0
    9.0575   -2.7910    0.0000 N   0  0  0  0  0  0  0  0  0  0  0  0
    8.0043   -1.9879    0.0000 C   0  0  0  0  0  0  0  0  0  0  0  0
    6.9248   -2.7910    0.0000 N   0  0  0  0  0  0  0  0  0  0  0  0
    1.1453   -4.7789    0.0000 C   0  0  0  0  0  0  0  0  0  0  0  0
    2.3170   -4.1075    0.0000 C   0  0  0  0  0  0  0  0  0  0  0  0
    3.4492   -4.7789    0.0000 C   0  0  0  0  0  0  0  0  0  0  0  0
    4.6077   -4.1075    0.0000 C   0  0  0  0  0  0  0  0  0  0  0  0
    4.6077   -2.7910    0.0000 C   0  0  0  0  0  0  0  0  0  0  0  0
    3.4492   -2.1196    0.0000 C   0  0  0  0  0  0  0  0  0  0  0  0
    2.3170   -2.7910    0.0000 C   0  0  0  0  0  0  0  0  0  0  0  0
    1.1453   -6.0954    0.0000 O   0  0  0  0  0  0  0  0  0  0  0  0
    0.0000   -4.1075    0.0000 O   0  0  0  0  0  0  0  0  0  0  0  0
    5.7531   -2.1196    0.0000 C   0  0  0  0  0  0  0  0  0  0  0  0
    8.0043   -0.6714    0.0000 C   0  0  0  0  0  0  0  0  0  0  0  0
    6.8326    0.0000    0.0000 C   0  0  0  0  0  0  0  0  0  0  0  0
    5.6873   -0.6714    0.0000 C   0  0  0  0  0  0  0  0  0  0  0  0
    4.5287    0.0000    0.0000 C   0  0  0  0  0  0  0  0  0  0  0  0
    6.5561   -5.1212    0.0000 C   0  0  0  0  0  0  0  0  0  0  0  0
    6.5561   -6.4508    0.0000 C   0  0  0  0  0  0  0  0  0  0  0  0
    5.4108   -7.1222    0.0000 C   0  0  0  0  0  0  0  0  0  0  0  0
    7.7015   -7.1091    0.0000 C   0  0  0  0  0  0  0  0  0  0  0  0
    4.2391   -6.4508    0.0000 O   0  0  0  0  0  0  0  0  0  0  0  0
    5.4108   -8.4387    0.0000 O   0  0  0  0  0  0  0  0  0  0  0  0
   11.8353   -5.7004    0.0000 S   0  0  0  0  0  0  0  0  0  0  0  0
   13.1649   -5.7004    0.0000 C   0  0  0  0  0  0  0  0  0  0  0  0
   11.8353   -4.3708    0.0000 O   0  0  0  0  0  0  0  0  0  0  0  0
   11.8353   -7.0301    0.0000 O   0  0  0  0  0  0  0  0  0  0  0  0
   10.5056   -5.7004    0.0000 O   0  0  0  0  0  0  0  0  0  0  0  0
  1  2  1  0  0  0  0
  1  5  1  0  0  0  0
  2  3  2  0  0  0  0
  3  4  1  0  0  0  0
  4  5  2  0  0  0  0
  5 28  1  0  0  0  0
  6 10  1  0  0  0  0
  6  7  2  0  0  0  0
  6 25  1  0  0  0  0
  7  8  1  0  0  0  0
  8  9  2  0  0  0  0
  9 10  1  0  0  0  0
  9 21  1  0  0  0  0
 10 20  1  0  0  0  0
 11 18  1  0  0  0  0
 11 19  2  0  0  0  0
 11 12  1  0  0  0  0
 12 17  1  0  0  0  0
 12 13  2  0  0  0  0
 13 14  1  0  0  0  0
 14 15  2  0  0  0  0
 15 16  1  0  0  0  0
 15 20  1  0  0  0  0
 16 17  2  0  0  0  0
 21 22  1  0  0  0  0
 22 23  1  0  0  0  0
 23 24  1  0  0  0  0
 25 26  2  0  0  0  0
 26 27  1  0  0  0  0
 26 28  1  0  0  0  0
 27 29  1  0  0  0  0
 27 30  2  0  0  0  0
 31 32  1  0  0  0  0
 31 33  2  0  0  0  0
 31 34  2  0  0  0  0
 31 35  1  0  0  0  0
M  END
> <ID>
9912

> <Formula>
C24H28N2O7S2

> <FW>
520.6183 (424.5127+96.1057)

> <DSSTox_CID>
24217

> <DSSTox_RID>
80124

> <DSSTox_GSID>
44217

> <DSSTox_FileID_Sort>
4806

> <TS_ChemName>
Eprosartan mesylate

> <TS_ChemName_Synonyms>


> <TS_CASRN>
144143-96-4

> <CASRN_ChemName_Relationship>
primary

> <TS_Description>
single chemical compound

> <ChemNote>
parent [133040-01-4]

> <STRUCTURE_Shown>
tested chemical

> <STRUCTURE_Formula>
C24H28N2O7S2

> <STRUCTURE_MW>
520.6183

> <STRUCTURE_ChemType>
defined organic

> <STRUCTURE_DefinedOrganicForm>
complex

> <STRUCTURE_IUPAC>
4-({2-butyl-5-[(1E)-2-carboxy-3-(thiophen-2-yl)prop-1-en-1-yl]-1H-imidazol-1-yl}methyl)benzoic acid methanesulfonate (1:1)

> <STRUCTURE_SMILES>
OC(=O)C(/Cc1cccs1)=C/c3cnc(CCCC)n3Cc2ccc(cc2)C(=O)O.CS(=O)(=O)O

> <STRUCTURE_SMILES_Desalt>
OC(=O)C(/Cc1cccs1)=C/c3cnc(CCCC)n3Cc2ccc(cc2)C(=O)O

> <Substance_modify_yyyymmdd>
20090302

$$$$
