14417-88-0
ChemmineR-0915142007XD

 32 32  0  0  0  0  0  0  0  0  1 V2000
   13.7742   -3.9429    0.0000 N   0  0  0  0  0  0  0  0  0  0  0  0
   12.6895   -4.6316    0.0000 C   0  0  0  0  0  0  0  0  0  0  0  0
   13.7742   -2.6343    0.0000 C   0  0  0  0  0  0  0  0  0  0  0  0
   12.6895   -5.9574    0.0000 O   0  0  0  0  0  0  0  0  0  0  0  0
   14.9106   -2.0145    0.0000 C   0  0  0  0  0  0  0  0  0  0  0  0
    2.3072   -3.9429    0.0000 C   0  0  0  0  0  0  0  0  0  0  0  0
    1.1364   -1.9456    0.0000 C   0  0  0  0  0  0  0  0  0  0  0  0
    1.1364   -0.6887    0.0000 C   0  0  0  0  0  0  0  0  0  0  0  0
    3.4436   -4.6316    0.0000 C   0  0  0  0  0  0  0  0  0  0  0  0
    2.3072   -2.6343    0.0000 C   0  0  0  0  0  0  0  0  0  0  0  0
   11.4843   -3.9429    0.0000 C   0  0  0  0  0  0  0  0  0  0  0  0
   12.6895   -1.9456    0.0000 C   0  0  0  0  0  0  0  0  0  0  0  0
    2.3072    0.0000    0.0000 C   0  0  0  0  0  0  0  0  0  0  0  0
    4.5972   -3.9429    0.0000 C   0  0  0  0  0  0  0  0  0  0  0  0
   14.9106   -0.6887    0.0000 C   0  0  0  0  0  0  0  0  0  0  0  0
   16.0814   -2.6860    0.0000 C   0  0  0  0  0  0  0  0  0  0  0  0
   10.3307   -4.6316    0.0000 C   0  0  0  0  0  0  0  0  0  0  0  0
    3.4436   -0.6887    0.0000 C   0  0  0  0  0  0  0  0  0  0  0  0
    5.7335   -4.6316    0.0000 C   0  0  0  0  0  0  0  0  0  0  0  0
    5.7335   -0.6887    0.0000 C   0  0  0  0  0  0  0  0  0  0  0  0
    4.5972    0.0000    0.0000 C   0  0  0  0  0  0  0  0  0  0  0  0
    8.0235   -4.6316    0.0000 C   0  0  0  0  0  0  0  0  0  0  0  0
    6.8871   -3.9429    0.0000 C   0  0  0  0  0  0  0  0  0  0  0  0
    9.2460   -3.9429    0.0000 C   0  0  0  0  0  0  0  0  0  0  0  0
    6.9560    0.0000    0.0000 C   0  0  0  0  0  0  0  0  0  0  0  0
   17.2178   -2.0489    0.0000 C   0  0  0  0  0  0  0  0  0  0  0  0
   16.1159    0.0000    0.0000 C   0  0  0  0  0  0  0  0  0  0  0  0
   17.2178   -0.6887    0.0000 C   0  0  0  0  0  0  0  0  0  0  0  0
    0.0000   -0.0517    0.0000 H   0  0  0  0  0  0  0  0  0  0  0  0
    0.0000   -2.5655    0.0000 H   0  0  0  0  0  0  0  0  0  0  0  0
    1.1364   -4.5799    0.0000 H   0  0  0  0  0  0  0  0  0  0  0  0
    3.4436   -5.9574    0.0000 H   0  0  0  0  0  0  0  0  0  0  0  0
  1  2  1  0  0  0  0
  1  3  1  0  0  0  0
  2  4  2  0  0  0  0
  2 11  1  0  0  0  0
  3  5  1  0  0  0  0
  3 12  1  0  0  0  0
  5 15  2  0  0  0  0
  5 16  1  0  0  0  0
  6  9  2  0  0  0  0
  6 10  1  0  0  0  0
  6 31  1  0  0  0  0
  7 10  1  0  0  0  0
  7  8  2  0  0  0  0
  7 30  1  0  0  0  0
  8 13  1  0  0  0  0
  8 29  1  0  0  0  0
  9 14  1  0  0  0  0
  9 32  1  0  0  0  0
 11 17  1  0  0  0  0
 13 18  1  0  0  0  0
 14 19  1  0  0  0  0
 15 27  1  0  0  0  0
 16 26  2  0  0  0  0
 17 24  1  0  0  0  0
 18 21  1  0  0  0  0
 19 23  1  0  0  0  0
 20 21  1  0  0  0  0
 20 25  1  0  0  0  0
 22 24  1  0  0  0  0
 22 23  1  0  0  0  0
 26 28  1  0  0  0  0
 27 28  2  0  0  0  0
M  END
> <ID>
13798

> <Formula>
C26H41NO

> <FW>
383.6098

> <DSSTox_CID>
28735

> <DSSTox_RID>
83004

> <DSSTox_GSID>
48809

> <DSSTox_FileID_Sort>
7681

> <TS_ChemName>
Melinamide

> <TS_ChemName_Synonyms>


> <TS_CASRN>
14417-88-0

> <CASRN_ChemName_Relationship>
primary

> <TS_Description>
single chemical compound

> <ChemNote>
stereochem

> <STRUCTURE_Shown>
tested chemical

> <STRUCTURE_Formula>
C26H41NO

> <STRUCTURE_MW>
383.6098

> <STRUCTURE_ChemType>
defined organic

> <STRUCTURE_DefinedOrganicForm>
parent

> <STRUCTURE_IUPAC>
(9Z,12Z)-N-(1-phenylethyl)octadeca-9,12-dienamide

> <STRUCTURE_SMILES>
CCCCC\C=C/C\C=C/CCCCCCCC(=O)NC(C)c1ccccc1

> <STRUCTURE_SMILES_Desalt>
CCCCC\C=C/C\C=C/CCCCCCCC(=O)NC(C)c1ccccc1

> <Substance_modify_yyyymmdd>
20111204

$$$$
