1443-44-3
ChemmineR-0915142007XD

 27 28  0  0  0  0  0  0  0  0  1 V2000
    0.5796   -5.4747    0.0000 Cl   0  0  0  0  0  0  0  0  0  0  0  0
    6.9029   -2.0077    0.0000 N    0  0  0  0  0  0  0  0  0  0  0  0
    6.9029   -3.3428    0.0000 C    0  0  0  0  0  0  0  0  0  0  0  0
    5.7438   -1.3350    0.0000 C    0  0  0  0  0  0  0  0  0  0  0  0
    5.7438   -4.0051    0.0000 C    0  0  0  0  0  0  0  0  0  0  0  0
    4.5847   -2.0077    0.0000 C    0  0  0  0  0  0  0  0  0  0  0  0
    4.5847   -3.3428    0.0000 C    0  0  0  0  0  0  0  0  0  0  0  0
    3.4359   -4.0051    0.0000 N    0  0  0  0  0  0  0  0  0  0  0  0
    2.2975   -3.3221    0.0000 C    0  0  0  0  0  0  0  0  0  0  0  0
    3.4359   -5.3194    0.0000 C    0  0  0  0  0  0  0  0  0  0  0  0
    4.5847   -5.9921    0.0000 C    0  0  0  0  0  0  0  0  0  0  0  0
    2.2975   -5.9921    0.0000 C    0  0  0  0  0  0  0  0  0  0  0  0
    4.5847   -7.3168    0.0000 C    0  0  0  0  0  0  0  0  0  0  0  0
    2.2975   -7.3168    0.0000 C    0  0  0  0  0  0  0  0  0  0  0  0
    3.4359   -7.9792    0.0000 C    0  0  0  0  0  0  0  0  0  0  0  0
    2.2975   -1.9974    0.0000 O    0  0  0  0  0  0  0  0  0  0  0  0
    1.1384   -4.0051    0.0000 C    0  0  0  0  0  0  0  0  0  0  0  0
    0.0000   -3.3221    0.0000 C    0  0  0  0  0  0  0  0  0  0  0  0
    8.0413   -1.3350    0.0000 C    0  0  0  0  0  0  0  0  0  0  0  0
    9.2107   -1.9974    0.0000 C    0  0  0  0  0  0  0  0  0  0  0  0
    8.0413    0.0000    0.0000 C    0  0  0  0  0  0  0  0  0  0  0  0
    9.2107   -3.3221    0.0000 C    0  0  0  0  0  0  0  0  0  0  0  0
   10.3491   -4.0051    0.0000 C    0  0  0  0  0  0  0  0  0  0  0  0
    8.0413   -4.0051    0.0000 C    0  0  0  0  0  0  0  0  0  0  0  0
   10.3491   -5.3194    0.0000 C    0  0  0  0  0  0  0  0  0  0  0  0
    8.0413   -5.3194    0.0000 C    0  0  0  0  0  0  0  0  0  0  0  0
    9.2107   -5.9921    0.0000 C    0  0  0  0  0  0  0  0  0  0  0  0
  2  3  1  0  0  0  0
  2  4  1  0  0  0  0
  2 19  1  0  0  0  0
  3  5  1  0  0  0  0
  4  6  1  0  0  0  0
  5  7  1  0  0  0  0
  6  7  1  0  0  0  0
  7  8  1  0  0  0  0
  8  9  1  0  0  0  0
  8 10  1  0  0  0  0
  9 16  2  0  0  0  0
  9 17  1  0  0  0  0
 10 11  1  0  0  0  0
 10 12  2  0  0  0  0
 11 13  2  0  0  0  0
 12 14  1  0  0  0  0
 13 15  1  0  0  0  0
 14 15  2  0  0  0  0
 17 18  1  0  0  0  0
 19 20  1  0  0  0  0
 19 21  1  0  0  0  0
 20 22  1  0  0  0  0
 22 23  1  0  0  0  0
 22 24  2  0  0  0  0
 23 25  2  0  0  0  0
 24 26  1  0  0  0  0
 25 27  1  0  0  0  0
 26 27  2  0  0  0  0
M  END
> <ID>
13921

> <Formula>
C23H31ClN2O

> <FW>
386.9580 (36.4609+350.4971)

> <DSSTox_CID>
28858

> <DSSTox_RID>
83127

> <DSSTox_GSID>
48932

> <DSSTox_FileID_Sort>
7804

> <TS_ChemName>
alpha-Methylfentanyl hydrochloride

> <TS_ChemName_Synonyms>
?-Methylfentanyl hydrochloride

> <TS_CASRN>
1443-44-3

> <CASRN_ChemName_Relationship>
primary

> <TS_Description>
single chemical compound

> <ChemNote>
parent [79704-88-4]

> <STRUCTURE_Shown>
tested chemical

> <STRUCTURE_Formula>
C23H31ClN2O

> <STRUCTURE_MW>
386.958

> <STRUCTURE_ChemType>
defined organic

> <STRUCTURE_DefinedOrganicForm>
complex

> <STRUCTURE_IUPAC>
N-phenyl-N-[1-(1-phenylpropan-2-yl)piperidin-4-yl]propanamide hydrochloride (1:1)

> <STRUCTURE_SMILES>
Cl.CCC(=O)N(C1CCN(CC1)C(C)Cc2ccccc2)c3ccccc3

> <STRUCTURE_SMILES_Desalt>
CCC(=O)N(C1CCN(CC1)C(C)Cc2ccccc2)c3ccccc3

> <Substance_modify_yyyymmdd>
20111204

$$$$
