14433-76-2
ChemmineR-0915142007XD

 14 13  0  0  0  0  0  0  0  0  1 V2000
    2.2824   -1.3060    0.0000 C   0  0  0  0  0  0  0  0  0  0  0  0
    3.4616   -1.9781    0.0000 C   0  0  0  0  0  0  0  0  0  0  0  0
    4.6155   -1.3060    0.0000 C   0  0  0  0  0  0  0  0  0  0  0  0
    5.7440   -1.9781    0.0000 C   0  0  0  0  0  0  0  0  0  0  0  0
    6.9359   -1.3060    0.0000 C   0  0  0  0  0  0  0  0  0  0  0  0
    8.0644   -1.9781    0.0000 C   0  0  0  0  0  0  0  0  0  0  0  0
    9.2183   -1.3060    0.0000 C   0  0  0  0  0  0  0  0  0  0  0  0
   10.3468   -1.9781    0.0000 C   0  0  0  0  0  0  0  0  0  0  0  0
   11.5260   -1.3060    0.0000 C   0  0  0  0  0  0  0  0  0  0  0  0
   12.6799   -1.9781    0.0000 C   0  0  0  0  0  0  0  0  0  0  0  0
    2.2824    0.0000    0.0000 O   0  0  0  0  0  0  0  0  0  0  0  0
    1.1539   -1.9781    0.0000 N   0  0  0  0  0  0  0  0  0  0  0  0
    0.0000   -1.3060    0.0000 C   0  0  0  0  0  0  0  0  0  0  0  0
    1.1539   -3.2841    0.0000 C   0  0  0  0  0  0  0  0  0  0  0  0
  1  2  1  0  0  0  0
  1 12  1  0  0  0  0
  1 11  2  0  0  0  0
  2  3  1  0  0  0  0
  3  4  1  0  0  0  0
  4  5  1  0  0  0  0
  5  6  1  0  0  0  0
  6  7  1  0  0  0  0
  7  8  1  0  0  0  0
  8  9  1  0  0  0  0
  9 10  1  0  0  0  0
 12 13  1  0  0  0  0
 12 14  1  0  0  0  0
M  END
> <ID>
5374

> <Formula>
C12H25NO

> <FW>
199.333

> <DSSTox_CID>
7764

> <DSSTox_RID>
78558

> <DSSTox_GSID>
27764

> <DSSTox_FileID_Sort>
3241

> <TS_ChemName>
N,N-Dimethyldecanamide

> <TS_ChemName_Synonyms>


> <TS_CASRN>
14433-76-2

> <CASRN_ChemName_Relationship>
primary

> <TS_Description>
single chemical compound

> <ChemNote>


> <STRUCTURE_Shown>
tested chemical

> <STRUCTURE_Formula>
C12H25NO

> <STRUCTURE_MW>
199.333

> <STRUCTURE_ChemType>
defined organic

> <STRUCTURE_DefinedOrganicForm>
parent

> <STRUCTURE_IUPAC>
N,N-dimethyldecanamide

> <STRUCTURE_SMILES>
CN(C)C(=O)CCCCCCCCC

> <STRUCTURE_SMILES_Desalt>
CN(C)C(=O)CCCCCCCCC

> <Substance_modify_yyyymmdd>
20080429

$$$$
