1444-64-0
ChemmineR-0915142007XD

 13 14  0  0  0  0  0  0  0  0  1 V2000
    2.0207   -1.1614    0.0000 C   0  0  0  0  0  0  0  0  0  0  0  0
    2.7054   -2.3094    0.0000 C   0  0  0  0  0  0  0  0  0  0  0  0
    2.0207   -3.4372    0.0000 C   0  0  0  0  0  0  0  0  0  0  0  0
    0.6982   -3.4372    0.0000 C   0  0  0  0  0  0  0  0  0  0  0  0
    0.0000   -2.3094    0.0000 C   0  0  0  0  0  0  0  0  0  0  0  0
    0.6982   -1.1614    0.0000 C   0  0  0  0  0  0  0  0  0  0  0  0
    2.6585    0.0000    0.0000 O   0  0  0  0  0  0  0  0  0  0  0  0
    6.0419   -3.4372    0.0000 C   0  0  0  0  0  0  0  0  0  0  0  0
    6.7133   -2.3094    0.0000 C   0  0  0  0  0  0  0  0  0  0  0  0
    6.0419   -1.1278    0.0000 C   0  0  0  0  0  0  0  0  0  0  0  0
    4.7261   -1.1278    0.0000 C   0  0  0  0  0  0  0  0  0  0  0  0
    4.0548   -2.3094    0.0000 C   0  0  0  0  0  0  0  0  0  0  0  0
    4.7261   -3.4372    0.0000 C   0  0  0  0  0  0  0  0  0  0  0  0
  1  2  1  0  0  0  0
  1  6  1  0  0  0  0
  1  7  1  0  0  0  0
  2  3  1  0  0  0  0
  2 12  1  0  0  0  0
  3  4  1  0  0  0  0
  4  5  1  0  0  0  0
  5  6  1  0  0  0  0
  8 13  2  0  0  0  0
  8  9  1  0  0  0  0
  9 10  2  0  0  0  0
 10 11  1  0  0  0  0
 11 12  2  0  0  0  0
 12 13  1  0  0  0  0
M  END
> <ID>
8412

> <Formula>
C12H16O

> <FW>
176.2548

> <DSSTox_CID>
21446

> <DSSTox_RID>
79738

> <DSSTox_GSID>
41446

> <DSSTox_FileID_Sort>
4420

> <TS_ChemName>
2-Phenylcyclohexanol

> <TS_ChemName_Synonyms>


> <TS_CASRN>
1444-64-0

> <CASRN_ChemName_Relationship>
primary

> <TS_Description>
single chemical compound

> <ChemNote>


> <STRUCTURE_Shown>
tested chemical

> <STRUCTURE_Formula>
C12H16O

> <STRUCTURE_MW>
176.2548

> <STRUCTURE_ChemType>
defined organic

> <STRUCTURE_DefinedOrganicForm>
parent

> <STRUCTURE_IUPAC>
2-phenylcyclohexanol

> <STRUCTURE_SMILES>
OC2CCCCC2c1ccccc1

> <STRUCTURE_SMILES_Desalt>
OC2CCCCC2c1ccccc1

> <Substance_modify_yyyymmdd>
20080825

$$$$
