144481-98-1
ChemmineR-0915142007XD

 37 38  0  0  1  0  0  0  0  0  1 V2000
    2.3065   -2.0277    0.0000 C    0  0  0  0  0  0  0  0  0  0  0  0
    2.3065   -3.3457    0.0000 N    0  0  0  0  0  0  0  0  0  0  0  0
    1.1406   -1.3433    0.0000 C    0  0  0  0  0  0  0  0  0  0  0  0
    1.1406   -3.9793    0.0000 C    0  0  0  0  0  0  0  0  0  0  0  0
    0.0000   -2.0277    0.0000 O    0  0  0  0  0  0  0  0  0  0  0  0
    0.0000   -3.3457    0.0000 C    0  0  0  0  0  0  0  0  0  0  0  0
    3.4471   -3.9793    0.0000 C    0  0  0  0  0  0  0  0  0  0  0  0
    3.4471   -5.3480    0.0000 O    0  0  0  0  0  0  0  0  0  0  0  0
    4.6130   -3.3457    0.0000 N    0  0  0  0  0  0  0  0  0  0  0  0
    5.7789   -3.9793    0.0000 C    0  0  0  0  0  0  0  0  0  0  0  0
    6.9194   -3.3457    0.0000 C    0  0  0  0  0  0  0  0  0  0  0  0
    8.0854   -3.9793    0.0000 N    0  0  0  0  0  0  0  0  0  0  0  0
    9.2259   -3.3457    0.0000 C    0  0  0  0  0  0  0  0  0  0  0  0
   10.3918   -3.9793    0.0000 C    0  0  0  0  0  0  0  0  0  0  0  0
   10.3918   -5.3480    0.0000 O    0  0  0  0  0  0  0  0  0  0  0  0
   11.5324   -3.3457    0.0000 C    0  0  0  0  0  0  0  0  0  0  0  0
   12.6983   -3.9793    0.0000 O    0  0  0  0  0  0  0  0  0  0  0  0
   13.8642   -3.3457    0.0000 C    0  0  0  0  0  0  0  0  0  0  0  0
   13.8642   -2.0277    0.0000 C    0  0  0  0  0  0  0  0  0  0  0  0
   15.0302   -3.9793    0.0000 C    0  0  0  0  0  0  0  0  0  0  0  0
   15.0302   -1.3433    0.0000 C    0  0  0  0  0  0  0  0  0  0  0  0
   16.1707   -3.3457    0.0000 C    0  0  0  0  0  0  0  0  0  0  0  0
   16.1707   -2.0277    0.0000 C    0  0  0  0  0  0  0  0  0  0  0  0
   17.3366   -1.3433    0.0000 C    0  0  0  0  0  0  0  0  0  0  0  0
   18.4772   -2.0277    0.0000 C    0  0  0  0  0  0  0  0  0  0  0  0
   19.6431   -1.3433    0.0000 C    0  0  0  0  0  0  0  0  0  0  0  0
   20.7837   -2.0277    0.0000 O    0  0  0  0  0  0  0  0  0  0  0  0
   19.6431    0.0000    0.0000 O    0  0  0  0  0  0  0  0  0  0  0  0
   21.9496   -1.3433    0.0000 C    0  0  0  0  0  0  0  0  0  0  0  0
   23.0902   -2.0277    0.0000 C    0  0  0  0  0  0  0  0  0  0  0  0
   24.3575   -1.5968    0.0000 C    0  0  0  0  0  0  0  0  0  0  0  0
   23.0902   -3.3457    0.0000 O    0  0  0  0  0  0  0  0  0  0  0  0
   25.1432   -2.6867    0.0000 O    0  0  0  0  0  0  0  0  0  0  0  0
   24.3575   -3.7765    0.0000 C    0  0  0  0  0  0  0  0  0  0  0  0
   24.0787   -5.0692    0.0000 C    0  0  0  0  0  0  0  0  0  0  0  0
   25.3460   -4.6637    0.0000 C    0  0  0  0  0  0  0  0  0  0  0  0
   18.0970   -3.6245    0.0000 Cl   0  0  0  0  0  0  0  0  0  0  0  0
  1  2  1  0  0  0  0
  1  3  1  0  0  0  0
  2  4  1  0  0  0  0
  2  7  1  0  0  0  0
  3  5  1  0  0  0  0
  4  6  1  0  0  0  0
  5  6  1  0  0  0  0
  7  8  2  0  0  0  0
  7  9  1  0  0  0  0
  9 10  1  0  0  0  0
 10 11  1  0  0  0  0
 11 12  1  0  0  0  0
 12 13  1  0  0  0  0
 13 14  1  0  0  0  0
 14 15  1  1  0  0  0
 14 16  1  0  0  0  0
 16 17  1  0  0  0  0
 17 18  1  0  0  0  0
 18 19  1  0  0  0  0
 18 20  2  0  0  0  0
 19 21  2  0  0  0  0
 20 22  1  0  0  0  0
 21 23  1  0  0  0  0
 22 23  2  0  0  0  0
 23 24  1  0  0  0  0
 24 25  1  0  0  0  0
 25 26  1  0  0  0  0
 26 27  1  0  0  0  0
 26 28  2  0  0  0  0
 27 29  1  0  0  0  0
 30 29  1  6  0  0  0
 30 31  1  0  0  0  0
 30 32  1  0  0  0  0
 31 33  1  0  0  0  0
 32 34  1  0  0  0  0
 33 34  1  0  0  0  0
 34 35  1  0  0  0  0
 34 36  1  0  0  0  0
M  END
> <ID>
13603

> <Formula>
C25H40ClN3O8

> <FW>
546.0534 (509.5925+36.4609)

> <DSSTox_CID>
28531

> <DSSTox_RID>
82803

> <DSSTox_GSID>
48605

> <DSSTox_FileID_Sort>
7480

> <TS_ChemName>
Landiolol hydrochloride

> <TS_ChemName_Synonyms>


> <TS_CASRN>
144481-98-1

> <CASRN_ChemName_Relationship>
primary

> <TS_Description>
single chemical compound

> <ChemNote>
stereochem; parent [133242-30-5]

> <STRUCTURE_Shown>
tested chemical

> <STRUCTURE_Formula>
C25H40ClN3O8

> <STRUCTURE_MW>
546.0534

> <STRUCTURE_ChemType>
defined organic

> <STRUCTURE_DefinedOrganicForm>
complex

> <STRUCTURE_IUPAC>
[(4S)-2,2-dimethyl-1,3-dioxolan-4-yl]methyl 3-{4-[(2S)-2-hydroxy-3-({2-[(morpholin-4-ylcarbonyl)amino]ethyl}amino)propoxy]phenyl}propanoate hydrochloride (1:1)

> <STRUCTURE_SMILES>
Cl.CC3(C)OC[C@@H](COC(=O)CCc2ccc(OC[C@@H](O)CNCCNC(=O)N1CCOCC1)cc2)O3

> <STRUCTURE_SMILES_Desalt>
CC3(C)OC[C@@H](COC(=O)CCc2ccc(OC[C@@H](O)CNCCNC(=O)N1CCOCC1)cc2)O3

> <Substance_modify_yyyymmdd>
20111014

$$$$
