1445-45-0
ChemmineR-0915142007XD

  8  7  0  0  0  0  0  0  0  0  1 V2000
    1.7045   -2.0086    0.0000 C   0  0  0  0  0  0  0  0  0  0  0  0
    3.0369   -2.0086    0.0000 C   0  0  0  0  0  0  0  0  0  0  0  0
    1.7045   -0.6762    0.0000 O   0  0  0  0  0  0  0  0  0  0  0  0
    0.5482    0.0000    0.0000 C   0  0  0  0  0  0  0  0  0  0  0  0
    1.7045   -3.3410    0.0000 O   0  0  0  0  0  0  0  0  0  0  0  0
    2.8608   -4.0012    0.0000 C   0  0  0  0  0  0  0  0  0  0  0  0
    0.3681   -2.0086    0.0000 O   0  0  0  0  0  0  0  0  0  0  0  0
    0.0000   -3.2610    0.0000 C   0  0  0  0  0  0  0  0  0  0  0  0
  1  2  1  0  0  0  0
  1  3  1  0  0  0  0
  1  5  1  0  0  0  0
  1  7  1  0  0  0  0
  3  4  1  0  0  0  0
  5  6  1  0  0  0  0
  7  8  1  0  0  0  0
M  END
> <ID>
5132

> <Formula>
C5H12O3

> <FW>
120.147

> <DSSTox_CID>
7400

> <DSSTox_RID>
78438

> <DSSTox_GSID>
27400

> <DSSTox_FileID_Sort>
3121

> <TS_ChemName>
1,1,1-Trimethoxyethane

> <TS_ChemName_Synonyms>
Trimethyl orthoacetate

> <TS_CASRN>
1445-45-0

> <CASRN_ChemName_Relationship>
primary

> <TS_Description>
single chemical compound

> <ChemNote>


> <STRUCTURE_Shown>
tested chemical

> <STRUCTURE_Formula>
C5H12O3

> <STRUCTURE_MW>
120.147

> <STRUCTURE_ChemType>
defined organic

> <STRUCTURE_DefinedOrganicForm>
parent

> <STRUCTURE_IUPAC>
1,1,1-trimethoxyethane

> <STRUCTURE_SMILES>
CC(OC)(OC)OC

> <STRUCTURE_SMILES_Desalt>
CC(OC)(OC)OC

> <Substance_modify_yyyymmdd>
20080429

$$$$
