144598-75-4
ChemmineR-0915142007XD

 31 35  0  0  1  0  0  0  0  0  1 V2000
   15.3713   -4.8795    0.0000 C   0  0  0  0  0  0  0  0  0  0  0  0
   14.4221   -3.8803    0.0000 C   0  0  0  0  0  0  0  0  0  0  0  0
   13.1564   -4.1468    0.0000 C   0  0  0  0  0  0  0  0  0  0  0  0
   14.9217   -6.0952    0.0000 C   0  0  0  0  0  0  0  0  0  0  0  0
   13.6393   -6.4283    0.0000 C   0  0  0  0  0  0  0  0  0  0  0  0
   12.7734   -5.4291    0.0000 C   0  0  0  0  0  0  0  0  0  0  0  0
   11.5410   -5.9787    0.0000 C   0  0  0  0  0  0  0  0  0  0  0  0
   11.6576   -7.3110    0.0000 N   0  0  0  0  0  0  0  0  0  0  0  0
   12.9898   -7.5275    0.0000 O   0  0  0  0  0  0  0  0  0  0  0  0
   10.3752   -5.3125    0.0000 C   0  0  0  0  0  0  0  0  0  0  0  0
   10.3752   -3.9802    0.0000 C   0  0  0  0  0  0  0  0  0  0  0  0
    9.2095   -3.3307    0.0000 C   0  0  0  0  0  0  0  0  0  0  0  0
    8.0437   -3.9802    0.0000 N   0  0  0  0  0  0  0  0  0  0  0  0
    8.0437   -5.3125    0.0000 C   0  0  0  0  0  0  0  0  0  0  0  0
    9.2095   -5.9787    0.0000 C   0  0  0  0  0  0  0  0  0  0  0  0
   16.6537   -4.5798    0.0000 F   0  0  0  0  0  0  0  0  0  0  0  0
    6.9446   -3.3307    0.0000 C   0  0  0  0  0  0  0  0  0  0  0  0
    5.7788   -3.9802    0.0000 C   0  0  0  0  0  0  0  0  0  0  0  0
    4.6131   -3.3307    0.0000 C   0  0  0  0  0  0  0  0  0  0  0  0
    4.6131   -1.9818    0.0000 C   0  0  0  0  0  0  0  0  0  0  0  0
    3.4473   -1.3156    0.0000 N   0  0  0  0  0  0  0  0  0  0  0  0
    3.4473   -3.9802    0.0000 C   0  0  0  0  0  0  0  0  0  0  0  0
    3.4473   -5.3125    0.0000 O   0  0  0  0  0  0  0  0  0  0  0  0
    5.7788   -1.3156    0.0000 C   0  0  0  0  0  0  0  0  0  0  0  0
    2.3315   -3.3307    0.0000 N   0  0  0  0  0  0  0  0  0  0  0  0
    2.3315   -1.9818    0.0000 C   0  0  0  0  0  0  0  0  0  0  0  0
    1.1658   -1.3156    0.0000 C   0  0  0  0  0  0  0  0  0  0  0  0
    0.0000   -1.9818    0.0000 C   0  0  0  0  0  0  0  0  0  0  0  0
    0.0000   -3.3307    0.0000 C   0  0  0  0  0  0  0  0  0  0  0  0
    1.1658   -3.9802    0.0000 C   0  0  0  0  0  0  0  0  0  0  0  0
    1.1658    0.0000    0.0000 O   0  0  0  0  0  0  0  0  0  0  0  0
  1 16  1  0  0  0  0
  1  4  1  0  0  0  0
  1  2  2  0  0  0  0
  2  3  1  0  0  0  0
  3  6  2  0  0  0  0
  4  5  2  0  0  0  0
  5  9  1  0  0  0  0
  5  6  1  0  0  0  0
  6  7  1  0  0  0  0
  7  8  2  0  0  0  0
  7 10  1  0  0  0  0
  8  9  1  0  0  0  0
 10 11  1  0  0  0  0
 10 15  1  0  0  0  0
 11 12  1  0  0  0  0
 12 13  1  0  0  0  0
 13 14  1  0  0  0  0
 13 17  1  0  0  0  0
 14 15  1  0  0  0  0
 17 18  1  0  0  0  0
 18 19  1  0  0  0  0
 19 20  2  0  0  0  0
 19 22  1  0  0  0  0
 20 21  1  0  0  0  0
 20 24  1  0  0  0  0
 21 26  2  0  0  0  0
 22 25  1  0  0  0  0
 22 23  2  0  0  0  0
 25 26  1  0  0  0  0
 25 30  1  0  0  0  0
 26 27  1  0  0  0  0
 27 28  1  0  0  0  0
 27 31  1  1  0  0  0
 28 29  1  0  0  0  0
 29 30  1  0  0  0  0
M  END
> <ID>
14043

> <Formula>
C23H27FN4O3

> <FW>
426.4839

> <DSSTox_CID>
28985

> <DSSTox_RID>
83250

> <DSSTox_GSID>
49059

> <DSSTox_FileID_Sort>
7925

> <TS_ChemName>
Paliperidone

> <TS_ChemName_Synonyms>
rac 9-Hydroxy Risperidone

> <TS_CASRN>
144598-75-4

> <CASRN_ChemName_Relationship>
primary

> <TS_Description>
single chemical compound

> <ChemNote>
racemic mixture of (9R,S) isomers; structure shown 9R; stereochem

> <STRUCTURE_Shown>
tested chemical

> <STRUCTURE_Formula>
C23H27FN4O3

> <STRUCTURE_MW>
426.4839

> <STRUCTURE_ChemType>
defined organic

> <STRUCTURE_DefinedOrganicForm>
parent

> <STRUCTURE_IUPAC>
(9R)-3-{2-[4-(6-fluoro-1,2-benzoxazol-3-yl)piperidin-1-yl]ethyl}-9-hydroxy-2-methyl-6,7,8,9-tetrahydro-4H-pyrido[1,2-a]pyrimidin-4-one

> <STRUCTURE_SMILES>
CC=5N=C1[C@H](O)CCCN1C(=O)C=5CCN2CCC(CC2)c4noc3cc(F)ccc34

> <STRUCTURE_SMILES_Desalt>
CC=5N=C1[C@H](O)CCCN1C(=O)C=5CCN2CCC(CC2)c4noc3cc(F)ccc34

> <Substance_modify_yyyymmdd>
20111204

$$$$
