144550-36-7
ChemmineR-0915142007XD

 28 28  0  0  0  0  0  0  0  0  2 V2000
    7.3848   -7.2038    0.0000 C    0  0  0  0  0  0  0  0  0  0  0  0
    7.3848   -5.8885    0.0000 O    0  0  0  0  0  0  0  0  0  0  0  0
    6.2023   -7.8675    0.0000 C    0  0  0  0  0  0  0  0  0  0  0  0
    8.5794   -7.9157    0.0000 O    0  0  0  0  0  0  0  0  0  0  0  0
    5.0801   -7.1676    0.0000 C    0  0  0  0  0  0  0  0  0  0  0  0
    6.2023   -9.1827    0.0000 C    0  0  0  0  0  0  0  0  0  0  0  0
    3.9458   -7.8675    0.0000 C    0  0  0  0  0  0  0  0  0  0  0  0
    5.0801   -9.8464    0.0000 C    0  0  0  0  0  0  0  0  0  0  0  0
    3.9458   -9.1827    0.0000 C    0  0  0  0  0  0  0  0  0  0  0  0
    2.7512   -9.8464    0.0000 I    0  0  0  0  0  0  0  0  0  0  0  0
    5.0801   -5.8403    0.0000 S    0  0  0  0  0  0  0  0  0  0  0  0
    3.7045   -5.8403    0.0000 O    0  0  0  0  0  0  0  0  0  0  0  0
    6.3953   -5.8403    0.0000 O    0  0  0  0  0  0  0  0  0  0  0  0
    5.0801   -4.5250    0.0000 N    0  5  0  0  0  0  0  0  0  0  0  0
    6.2505   -3.8734    0.0000 C    0  0  0  0  0  0  0  0  0  0  0  0
    6.2505   -2.4978    0.0000 O    0  0  0  0  0  0  0  0  0  0  0  0
    7.3969   -4.4767    0.0000 N    0  0  0  0  0  0  0  0  0  0  0  0
    9.7981   -4.5371    0.0000 N    0  0  0  0  0  0  0  0  0  0  0  0
    8.6639   -3.8975    0.0000 C    0  0  0  0  0  0  0  0  0  0  0  0
    8.6639   -2.5943    0.0000 N    0  0  0  0  0  0  0  0  0  0  0  0
    9.7981   -1.9548    0.0000 C    0  0  0  0  0  0  0  0  0  0  0  0
   10.9083   -2.5943    0.0000 N    0  0  0  0  0  0  0  0  0  0  0  0
   10.9083   -3.8975    0.0000 C    0  0  0  0  0  0  0  0  0  0  0  0
    9.7981   -0.6516    0.0000 O    0  0  0  0  0  0  0  0  0  0  0  0
    8.6639    0.0000    0.0000 C    0  0  0  0  0  0  0  0  0  0  0  0
   12.0667   -4.5371    0.0000 C    0  0  0  0  0  0  0  0  0  0  0  0
    9.8705   -7.2279    0.0000 C    0  0  0  0  0  0  0  0  0  0  0  0
    0.0000   -4.4164    0.0000 Na   0  3  0  0  0  0  0  0  0  0  0  0
  1  2  2  0  0  0  0
  1  3  1  0  0  0  0
  1  4  1  0  0  0  0
  3  5  2  0  0  0  0
  3  6  1  0  0  0  0
  4 27  1  0  0  0  0
  5  7  1  0  0  0  0
  5 11  1  0  0  0  0
  6  8  2  0  0  0  0
  7  9  2  0  0  0  0
  8  9  1  0  0  0  0
  9 10  1  0  0  0  0
 11 12  2  0  0  0  0
 11 13  2  0  0  0  0
 11 14  1  0  0  0  0
 14 15  1  0  0  0  0
 15 16  2  0  0  0  0
 15 17  1  0  0  0  0
 17 19  1  0  0  0  0
 18 19  1  0  0  0  0
 18 23  2  0  0  0  0
 19 20  2  0  0  0  0
 20 21  1  0  0  0  0
 21 22  2  0  0  0  0
 21 24  1  0  0  0  0
 22 23  1  0  0  0  0
 23 26  1  0  0  0  0
 24 25  1  0  0  0  0
M  END
> <ID>
6864

> <Formula>
C14H13IN5NaO6S

> <FW>
529.2422 (506.2529+22.9892)

> <DSSTox_CID>
14673

> <DSSTox_RID>
79189

> <DSSTox_GSID>
34673

> <DSSTox_FileID_Sort>
3871

> <TS_ChemName>
Iodosulfuron-methyl-sodium

> <TS_ChemName_Synonyms>
Iodosulfuron-methyl-sodium (Benzoic acid, 4-iodo-2-[[[[(4-methoxy-6-methyl-1,3,5-triazin-2-yl)amino]carbonyl]amino]sulfonyl]-, methyl ester, monosodium salt)

> <TS_CASRN>
144550-36-7

> <CASRN_ChemName_Relationship>
primary

> <TS_Description>
single chemical compound

> <ChemNote>
parent [185119-76-0]

> <STRUCTURE_Shown>
tested chemical

> <STRUCTURE_Formula>
C14H13IN5NaO6S

> <STRUCTURE_MW>
529.2422

> <STRUCTURE_ChemType>
defined organic

> <STRUCTURE_DefinedOrganicForm>
salt

> <STRUCTURE_IUPAC>
sodium {[5-iodo-2-(methoxycarbonyl)phenyl]sulfonyl}[(4-methoxy-6-methyl-1,3,5-triazin-2-yl)carbamoyl]azanide

> <STRUCTURE_SMILES>
[Na+].Cc2nc(NC(=O)[N-]S(=O)(=O)c1cc(I)ccc1C(=O)OC)nc(OC)n2

> <STRUCTURE_SMILES_Desalt>
Cc2nc(NC(=O)NS(=O)(=O)c1cc(I)ccc1C(=O)OC)nc(OC)n2

> <Substance_modify_yyyymmdd>
20080429

$$$$
