144689-63-4
ChemmineR-0915142007XD

 41 45  0  0  0  0  0  0  0  0  1 V2000
    5.0973   -0.1695    0.0000 C   0  0  0  0  0  0  0  0  0  0  0  0
    6.3879   -0.4432    0.0000 C   0  0  0  0  0  0  0  0  0  0  0  0
    6.8051   -1.7208    0.0000 C   0  0  0  0  0  0  0  0  0  0  0  0
    8.0957   -1.9946    0.0000 C   0  0  0  0  0  0  0  0  0  0  0  0
    9.0865   -1.0951    0.0000 N   0  0  0  0  0  0  0  0  0  0  0  0
   10.2468   -1.7730    0.0000 C   0  0  0  0  0  0  0  0  0  0  0  0
    9.9600   -3.0636    0.0000 C   0  0  0  0  0  0  0  0  0  0  0  0
    8.6302   -3.2070    0.0000 N   0  0  0  0  0  0  0  0  0  0  0  0
    7.9654   -4.3673    0.0000 C   0  0  0  0  0  0  0  0  0  0  0  0
    6.6356   -4.3673    0.0000 C   0  0  0  0  0  0  0  0  0  0  0  0
    5.9838   -5.5014    0.0000 C   0  0  0  0  0  0  0  0  0  0  0  0
    4.6541   -5.5014    0.0000 C   0  0  0  0  0  0  0  0  0  0  0  0
    3.9892   -4.3673    0.0000 C   0  0  0  0  0  0  0  0  0  0  0  0
    4.6541   -3.2070    0.0000 C   0  0  0  0  0  0  0  0  0  0  0  0
    5.9838   -3.2070    0.0000 C   0  0  0  0  0  0  0  0  0  0  0  0
    2.6595   -4.3673    0.0000 C   0  0  0  0  0  0  0  0  0  0  0  0
    1.9946   -3.2070    0.0000 C   0  0  0  0  0  0  0  0  0  0  0  0
    0.6518   -3.2070    0.0000 C   0  0  0  0  0  0  0  0  0  0  0  0
    0.0000   -4.3673    0.0000 C   0  0  0  0  0  0  0  0  0  0  0  0
    0.6518   -5.5014    0.0000 C   0  0  0  0  0  0  0  0  0  0  0  0
    1.9946   -5.5014    0.0000 C   0  0  0  0  0  0  0  0  0  0  0  0
    2.6595   -6.6617    0.0000 C   0  0  0  0  0  0  0  0  0  0  0  0
    2.1119   -7.8741    0.0000 N   0  0  0  0  0  0  0  0  0  0  0  0
    3.1157   -8.7606    0.0000 N   0  0  0  0  0  0  0  0  0  0  0  0
    4.2630   -8.0827    0.0000 N   0  0  0  0  0  0  0  0  0  0  0  0
    3.9762   -6.8051    0.0000 N   0  0  0  0  0  0  0  0  0  0  0  0
   10.8595   -4.0674    0.0000 C   0  0  0  0  0  0  0  0  0  0  0  0
   12.1501   -3.7937    0.0000 O   0  0  0  0  0  0  0  0  0  0  0  0
   10.4423   -5.3059    0.0000 O   0  0  0  0  0  0  0  0  0  0  0  0
   11.3418   -6.3097    0.0000 C   0  0  0  0  0  0  0  0  0  0  0  0
   10.9247   -7.5743    0.0000 C   0  0  0  0  0  0  0  0  0  0  0  0
   11.7069   -8.6433    0.0000 C   0  0  0  0  0  0  0  0  0  0  0  0
   13.0366   -8.6433    0.0000 C   0  0  0  0  0  0  0  0  0  0  0  0
   10.9247   -9.7253    0.0000 O   0  0  0  0  0  0  0  0  0  0  0  0
    9.6471   -9.3081    0.0000 C   0  0  0  0  0  0  0  0  0  0  0  0
    8.5781  -10.0903    0.0000 O   0  0  0  0  0  0  0  0  0  0  0  0
    9.6471   -7.9784    0.0000 O   0  0  0  0  0  0  0  0  0  0  0  0
   11.4461   -1.2254    0.0000 C   0  0  0  0  0  0  0  0  0  0  0  0
   11.9937   -2.4378    0.0000 C   0  0  0  0  0  0  0  0  0  0  0  0
   10.9247    0.0000    0.0000 C   0  0  0  0  0  0  0  0  0  0  0  0
   12.6716   -0.6779    0.0000 O   0  0  0  0  0  0  0  0  0  0  0  0
  1  2  1  0  0  0  0
  2  3  1  0  0  0  0
  3  4  1  0  0  0  0
  4  5  2  0  0  0  0
  4  8  1  0  0  0  0
  5  6  1  0  0  0  0
  6  7  2  0  0  0  0
  6 38  1  0  0  0  0
  7  8  1  0  0  0  0
  7 27  1  0  0  0  0
  8  9  1  0  0  0  0
  9 10  1  0  0  0  0
 10 11  2  0  0  0  0
 10 15  1  0  0  0  0
 11 12  1  0  0  0  0
 12 13  2  0  0  0  0
 13 14  1  0  0  0  0
 13 16  1  0  0  0  0
 14 15  2  0  0  0  0
 16 17  2  0  0  0  0
 16 21  1  0  0  0  0
 17 18  1  0  0  0  0
 18 19  2  0  0  0  0
 19 20  1  0  0  0  0
 20 21  2  0  0  0  0
 21 22  1  0  0  0  0
 22 23  2  0  0  0  0
 22 26  1  0  0  0  0
 23 24  1  0  0  0  0
 24 25  1  0  0  0  0
 25 26  2  0  0  0  0
 27 28  2  0  0  0  0
 27 29  1  0  0  0  0
 29 30  1  0  0  0  0
 30 31  1  0  0  0  0
 31 32  2  0  0  0  0
 31 37  1  0  0  0  0
 32 33  1  0  0  0  0
 32 34  1  0  0  0  0
 34 35  1  0  0  0  0
 35 36  2  0  0  0  0
 35 37  1  0  0  0  0
 38 39  1  0  0  0  0
 38 40  1  0  0  0  0
 38 41  1  0  0  0  0
M  END
> <ID>
11294

> <Formula>
C29H30N6O6

> <FW>
558.5851

> <DSSTox_CID>
25924

> <DSSTox_RID>
81226

> <DSSTox_GSID>
45924

> <DSSTox_FileID_Sort>
5907

> <TS_ChemName>
Olmesartan medoxomil

> <TS_ChemName_Synonyms>


> <TS_CASRN>
144689-63-4

> <CASRN_ChemName_Relationship>
primary

> <TS_Description>
single chemical compound

> <ChemNote>
tautomers

> <STRUCTURE_Shown>
tested chemical

> <STRUCTURE_Formula>
C29H30N6O6

> <STRUCTURE_MW>
558.5851

> <STRUCTURE_ChemType>
defined organic

> <STRUCTURE_DefinedOrganicForm>
parent

> <STRUCTURE_IUPAC>
(5-methyl-2-oxo-1,3-dioxol-4-yl)methyl 4-(2-hydroxypropan-2-yl)-2-propyl-1-{[2'-(2H-tetrazol-5-yl)biphenyl-4-yl]methyl}-1H-imidazole-5-carboxylate

> <STRUCTURE_SMILES>
CC=5OC(=O)OC=5COC(=O)c4c(nc(CCC)n4Cc1ccc(cc1)c3ccccc3c2nnnn2)C(C)(C)O

> <STRUCTURE_SMILES_Desalt>
CC=5OC(=O)OC=5COC(=O)c4c(nc(CCC)n4Cc1ccc(cc1)c3ccccc3c2nnnn2)C(C)(C)O

> <Substance_modify_yyyymmdd>
20110930

$$$$
