14484-47-0
ChemmineR-0915142007XD

 35 39  0  0  1  0  0  0  0  0  1 V2000
    8.0241   -4.4523    0.0000 C   0  0  0  0  0  0  0  0  0  0  0  0
    6.7916   -4.8673    0.0000 C   0  0  0  0  0  0  0  0  0  0  0  0
    6.7916   -6.2005    0.0000 C   0  0  0  0  0  0  0  0  0  0  0  0
    3.3958   -6.8167    0.0000 C   0  0  0  0  0  0  0  0  0  0  0  0
    8.7913   -3.4084    0.0000 N   0  0  0  0  0  0  0  0  0  0  0  0
    5.6848   -6.8293    0.0000 C   0  0  0  0  0  0  0  0  0  0  0  0
    8.7536   -5.5339    0.0000 C   0  0  0  0  0  0  0  0  0  0  0  0
    4.5277   -6.1879    0.0000 C   0  0  0  0  0  0  0  0  0  0  0  0
    3.3958   -8.1122    0.0000 C   0  0  0  0  0  0  0  0  0  0  0  0
    5.6848   -4.2133    0.0000 C   0  0  0  0  0  0  0  0  0  0  0  0
    4.5277   -4.8673    0.0000 C   0  0  0  0  0  0  0  0  0  0  0  0
    2.2890   -6.1879    0.0000 C   0  0  0  0  0  0  0  0  0  0  0  0
   10.0113   -5.1314    0.0000 O   0  0  0  0  0  0  0  0  0  0  0  0
    8.0241   -6.5904    0.0000 C   0  0  0  0  0  0  0  0  0  0  0  0
   10.0113   -3.8234    0.0000 C   0  0  0  0  0  0  0  0  0  0  0  0
    8.0241   -2.1381    0.0000 C   0  0  0  0  0  0  0  0  0  0  0  0
    2.2890   -8.7536    0.0000 C   0  0  0  0  0  0  0  0  0  0  0  0
    5.6848   -8.1122    0.0000 C   0  0  0  0  0  0  0  0  0  0  0  0
    1.1697   -6.8293    0.0000 C   0  0  0  0  0  0  0  0  0  0  0  0
    1.1697   -8.1122    0.0000 C   0  0  0  0  0  0  0  0  0  0  0  0
    4.5277   -8.7536    0.0000 C   0  0  0  0  0  0  0  0  0  0  0  0
   11.4074   -1.2954    0.0000 C   0  0  0  0  0  0  0  0  0  0  0  0
    9.0806   -1.4715    0.0000 C   0  0  0  0  0  0  0  0  0  0  0  0
    6.9677   -1.4715    0.0000 O   0  0  0  0  0  0  0  0  0  0  0  0
   10.2377   -2.1004    0.0000 O   0  0  0  0  0  0  0  0  0  0  0  0
   11.4074    0.0000    0.0000 O   0  0  0  0  0  0  0  0  0  0  0  0
    0.0000   -8.7410    0.0000 O   0  0  0  0  0  0  0  0  0  0  0  0
    6.7916   -3.5593    0.0000 C   0  0  0  0  0  0  0  0  0  0  0  0
    3.3958   -4.2133    0.0000 O   0  0  0  0  0  0  0  0  0  0  0  0
    3.3958   -5.4836    0.0000 C   0  0  0  0  0  0  0  0  0  0  0  0
   11.0678   -3.0688    0.0000 C   0  0  0  0  0  0  0  0  0  0  0  0
   12.5770   -1.8740    0.0000 C   0  0  0  0  0  0  0  0  0  0  0  0
    4.5277   -7.5085    0.0000 H   0  0  0  0  0  0  0  0  0  0  0  0
    5.6848   -5.4962    0.0000 H   0  0  0  0  0  0  0  0  0  0  0  0
    6.7916   -7.5211    0.0000 H   0  0  0  0  0  0  0  0  0  0  0  0
  1  2  1  0  0  0  0
  1  5  1  6  0  0  0
  1  7  1  0  0  0  0
  1 16  1  0  0  0  0
  2  3  1  0  0  0  0
  2 10  1  0  0  0  0
  2 28  1  1  0  0  0
  3  6  1  0  0  0  0
  3 14  1  0  0  0  0
  3 35  1  6  0  0  0
  4  8  1  0  0  0  0
  4  9  1  0  0  0  0
  4 12  1  0  0  0  0
  4 30  1  1  0  0  0
  5 15  2  0  0  0  0
  6 18  1  0  0  0  0
  6  8  1  0  0  0  0
  6 34  1  1  0  0  0
  7 13  1  6  0  0  0
  7 14  1  0  0  0  0
  8 11  1  0  0  0  0
  8 33  1  6  0  0  0
  9 17  2  0  0  0  0
  9 21  1  0  0  0  0
 10 11  1  0  0  0  0
 11 29  1  1  0  0  0
 12 19  2  0  0  0  0
 13 15  1  0  0  0  0
 15 31  1  0  0  0  0
 16 23  1  0  0  0  0
 16 24  2  0  0  0  0
 17 20  1  0  0  0  0
 18 21  1  0  0  0  0
 19 20  1  0  0  0  0
 20 27  2  0  0  0  0
 22 25  1  0  0  0  0
 22 26  2  0  0  0  0
 22 32  1  0  0  0  0
 23 25  1  0  0  0  0
M  END
> <ID>
367

> <Formula>
C25H31NO6

> <FW>
441.5167

> <DSSTox_CID>
378

> <DSSTox_RID>
75552

> <DSSTox_GSID>
20378

> <DSSTox_FileID_Sort>
236

> <TS_ChemName>
Deflazacort

> <TS_ChemName_Synonyms>


> <TS_CASRN>
14484-47-0

> <CASRN_ChemName_Relationship>
primary

> <TS_Description>
single chemical compound

> <ChemNote>
stereochem; tautomers

> <STRUCTURE_Shown>
tested chemical

> <STRUCTURE_Formula>
C25H31NO6

> <STRUCTURE_MW>
441.5167

> <STRUCTURE_ChemType>
defined organic

> <STRUCTURE_DefinedOrganicForm>
parent

> <STRUCTURE_IUPAC>
2-[(4aR,4bS,5S,6aS,6bS,9aR,10aS,10bS)-5-hydroxy-4a,6a,8-trimethyl-2-oxo-2,4a,4b,5,6,6a,9a,10,10a,10b,11,12-dodecahydro-6bH-naphtho[2',1':4,5]indeno[1,2-d][1,3]oxazol-6b-yl]-2-oxoethyl acetate

> <STRUCTURE_SMILES>
CC(=O)OCC(=O)[C@@]54N=C(C)O[C@@H]5C[C@@H]3[C@]4(C)C[C@H](O)[C@H]2[C@H]3CCC1=CC(=O)C=C[C@@]12C

> <STRUCTURE_SMILES_Desalt>
CC(=O)OCC(=O)[C@@]54N=C(C)O[C@@H]5C[C@@H]3[C@]4(C)C[C@H](O)[C@H]2[C@H]3CCC1=CC(=O)C=C[C@@]12C

> <Substance_modify_yyyymmdd>
20080429

$$$$
