145-63-1
ChemmineR-0915142007XD

 86 93  0  0  0  0  0  0  0  0  1 V2000
   24.0291  -12.9328    0.0000 C   0  0  0  0  0  0  0  0  0  0  0  0
   24.0291  -11.6319    0.0000 C   0  0  0  0  0  0  0  0  0  0  0  0
   22.8812  -10.9687    0.0000 C   0  0  0  0  0  0  0  0  0  0  0  0
   21.7333  -11.6319    0.0000 N   0  0  0  0  0  0  0  0  0  0  0  0
   21.7333  -12.9328    0.0000 C   0  0  0  0  0  0  0  0  0  0  0  0
   22.8812  -13.5961    0.0000 O   0  0  0  0  0  0  0  0  0  0  0  0
   20.5854  -13.5961    0.0000 C   0  0  0  0  0  0  0  0  0  0  0  0
   20.5854  -14.9225    0.0000 C   0  0  0  0  0  0  0  0  0  0  0  0
   19.4375  -15.5857    0.0000 C   0  0  0  0  0  0  0  0  0  0  0  0
   18.2896  -14.9225    0.0000 C   0  0  0  0  0  0  0  0  0  0  0  0
   18.2896  -13.5961    0.0000 C   0  0  0  0  0  0  0  0  0  0  0  0
   19.4375  -12.9328    0.0000 C   0  0  0  0  0  0  0  0  0  0  0  0
   17.1673  -12.9328    0.0000 N   0  0  0  0  0  0  0  0  0  0  0  0
   16.0194  -13.5961    0.0000 C   0  0  0  0  0  0  0  0  0  0  0  0
   16.0194  -14.9225    0.0000 O   0  0  0  0  0  0  0  0  0  0  0  0
   14.8715  -12.9328    0.0000 N   0  0  0  0  0  0  0  0  0  0  0  0
   13.7236  -13.5961    0.0000 C   0  0  0  0  0  0  0  0  0  0  0  0
   13.7236  -14.9225    0.0000 C   0  0  0  0  0  0  0  0  0  0  0  0
   12.5757  -15.5857    0.0000 C   0  0  0  0  0  0  0  0  0  0  0  0
   11.4278  -14.9225    0.0000 C   0  0  0  0  0  0  0  0  0  0  0  0
   11.4278  -13.5961    0.0000 C   0  0  0  0  0  0  0  0  0  0  0  0
   12.5757  -12.9328    0.0000 C   0  0  0  0  0  0  0  0  0  0  0  0
   10.3055  -12.9328    0.0000 C   0  0  0  0  0  0  0  0  0  0  0  0
    9.1576  -13.5961    0.0000 O   0  0  0  0  0  0  0  0  0  0  0  0
   10.3055  -11.6319    0.0000 N   0  0  0  0  0  0  0  0  0  0  0  0
    9.1576  -10.9687    0.0000 C   0  0  0  0  0  0  0  0  0  0  0  0
    9.1576   -9.6422    0.0000 C   0  0  0  0  0  0  0  0  0  0  0  0
    8.0097   -8.9790    0.0000 C   0  0  0  0  0  0  0  0  0  0  0  0
    6.8618   -9.6422    0.0000 C   0  0  0  0  0  0  0  0  0  0  0  0
    6.8618  -10.9687    0.0000 C   0  0  0  0  0  0  0  0  0  0  0  0
    8.0097  -11.6319    0.0000 C   0  0  0  0  0  0  0  0  0  0  0  0
    8.0097  -12.9328    0.0000 C   0  0  0  0  0  0  0  0  0  0  0  0
    8.0097   -7.6526    0.0000 C   0  0  0  0  0  0  0  0  0  0  0  0
    9.1576   -6.9893    0.0000 O   0  0  0  0  0  0  0  0  0  0  0  0
    6.8618   -6.9893    0.0000 N   0  0  0  0  0  0  0  0  0  0  0  0
    5.7139   -7.6526    0.0000 C   0  0  0  0  0  0  0  0  0  0  0  0
    5.7139   -8.9790    0.0000 C   0  0  0  0  0  0  0  0  0  0  0  0
    4.5660   -9.6422    0.0000 C   0  0  0  0  0  0  0  0  0  0  0  0
    3.4437   -8.9790    0.0000 C   0  0  0  0  0  0  0  0  0  0  0  0
    3.4437   -7.6526    0.0000 C   0  0  0  0  0  0  0  0  0  0  0  0
    4.5660   -6.9893    0.0000 C   0  0  0  0  0  0  0  0  0  0  0  0
    4.5660   -5.6884    0.0000 C   0  0  0  0  0  0  0  0  0  0  0  0
    3.4437   -5.0252    0.0000 C   0  0  0  0  0  0  0  0  0  0  0  0
    2.2958   -5.6884    0.0000 C   0  0  0  0  0  0  0  0  0  0  0  0
    2.2958   -6.9893    0.0000 C   0  0  0  0  0  0  0  0  0  0  0  0
    1.1479   -5.0252    0.0000 S   0  0  0  0  0  0  0  0  0  0  0  0
    0.0000   -4.3620    0.0000 O   0  0  0  0  0  0  0  0  0  0  0  0
    0.4847   -6.1731    0.0000 O   0  0  0  0  0  0  0  0  0  0  0  0
    1.8111   -3.8773    0.0000 O   0  0  0  0  0  0  0  0  0  0  0  0
    5.7139   -5.0252    0.0000 S   0  0  0  0  0  0  0  0  0  0  0  0
    6.8618   -4.3620    0.0000 O   0  0  0  0  0  0  0  0  0  0  0  0
    5.0507   -3.8773    0.0000 O   0  0  0  0  0  0  0  0  0  0  0  0
    6.3771   -6.1731    0.0000 O   0  0  0  0  0  0  0  0  0  0  0  0
    2.2958   -9.6422    0.0000 S   0  0  0  0  0  0  0  0  0  0  0  0
    2.9590  -10.7901    0.0000 O   0  0  0  0  0  0  0  0  0  0  0  0
    1.6325   -8.4943    0.0000 O   0  0  0  0  0  0  0  0  0  0  0  0
    1.1479  -10.3055    0.0000 O   0  0  0  0  0  0  0  0  0  0  0  0
   22.8812   -9.6422    0.0000 C   0  0  0  0  0  0  0  0  0  0  0  0
   24.0291   -8.9790    0.0000 C   0  0  0  0  0  0  0  0  0  0  0  0
   25.1769   -9.6422    0.0000 C   0  0  0  0  0  0  0  0  0  0  0  0
   25.1769  -10.9687    0.0000 C   0  0  0  0  0  0  0  0  0  0  0  0
   24.0291   -7.6526    0.0000 C   0  0  0  0  0  0  0  0  0  0  0  0
   25.5086   -6.8108    0.0000 O   0  0  0  0  0  0  0  0  0  0  0  0
   22.8812   -6.9893    0.0000 N   0  0  0  0  0  0  0  0  0  0  0  0
   22.8812   -5.2803    0.0000 C   0  0  0  0  0  0  0  0  0  0  0  0
   24.0291   -4.6170    0.0000 C   0  0  0  0  0  0  0  0  0  0  0  0
   24.0291   -3.2906    0.0000 C   0  0  0  0  0  0  0  0  0  0  0  0
   22.8812   -2.6529    0.0000 C   0  0  0  0  0  0  0  0  0  0  0  0
   21.7333   -3.2906    0.0000 C   0  0  0  0  0  0  0  0  0  0  0  0
   20.5854   -2.6529    0.0000 C   0  0  0  0  0  0  0  0  0  0  0  0
   19.4375   -3.2906    0.0000 C   0  0  0  0  0  0  0  0  0  0  0  0
   19.4375   -4.6170    0.0000 C   0  0  0  0  0  0  0  0  0  0  0  0
   20.5854   -5.2803    0.0000 C   0  0  0  0  0  0  0  0  0  0  0  0
   21.7333   -4.6170    0.0000 C   0  0  0  0  0  0  0  0  0  0  0  0
   20.5854   -6.6067    0.0000 S   0  0  0  0  0  0  0  0  0  0  0  0
   19.2590   -6.6067    0.0000 O   0  0  0  0  0  0  0  0  0  0  0  0
   20.5854   -7.9332    0.0000 O   0  0  0  0  0  0  0  0  0  0  0  0
   21.9118   -6.6067    0.0000 O   0  0  0  0  0  0  0  0  0  0  0  0
   18.2896   -2.6529    0.0000 S   0  0  0  0  0  0  0  0  0  0  0  0
   17.6519   -3.7753    0.0000 O   0  0  0  0  0  0  0  0  0  0  0  0
   18.9529   -1.5050    0.0000 O   0  0  0  0  0  0  0  0  0  0  0  0
   17.1673   -1.9897    0.0000 O   0  0  0  0  0  0  0  0  0  0  0  0
   22.8812   -1.3264    0.0000 S   0  0  0  0  0  0  0  0  0  0  0  0
   24.2076   -1.3264    0.0000 O   0  0  0  0  0  0  0  0  0  0  0  0
   22.8812    0.0000    0.0000 O   0  0  0  0  0  0  0  0  0  0  0  0
   21.5547   -1.3264    0.0000 O   0  0  0  0  0  0  0  0  0  0  0  0
  1  2  1  0  0  0  0
  2  3  2  0  0  0  0
  2 61  1  0  0  0  0
  3  4  1  0  0  0  0
  3 58  1  0  0  0  0
  4  5  1  0  0  0  0
  5  6  2  0  0  0  0
  5  7  1  0  0  0  0
  7  8  2  0  0  0  0
  7 12  1  0  0  0  0
  8  9  1  0  0  0  0
  9 10  2  0  0  0  0
 10 11  1  0  0  0  0
 11 12  2  0  0  0  0
 11 13  1  0  0  0  0
 13 14  1  0  0  0  0
 14 15  2  0  0  0  0
 14 16  1  0  0  0  0
 16 17  1  0  0  0  0
 17 18  2  0  0  0  0
 17 22  1  0  0  0  0
 18 19  1  0  0  0  0
 19 20  2  0  0  0  0
 20 21  1  0  0  0  0
 21 22  2  0  0  0  0
 21 23  1  0  0  0  0
 23 24  2  0  0  0  0
 23 25  1  0  0  0  0
 25 26  1  0  0  0  0
 26 27  2  0  0  0  0
 26 31  1  0  0  0  0
 27 28  1  0  0  0  0
 28 29  2  0  0  0  0
 28 33  1  0  0  0  0
 29 30  1  0  0  0  0
 30 31  2  0  0  0  0
 31 32  1  0  0  0  0
 33 34  2  0  0  0  0
 33 35  1  0  0  0  0
 35 36  1  0  0  0  0
 36 37  2  0  0  0  0
 36 41  1  0  0  0  0
 37 38  1  0  0  0  0
 38 39  2  0  0  0  0
 39 40  1  0  0  0  0
 39 54  1  0  0  0  0
 40 41  2  0  0  0  0
 40 45  1  0  0  0  0
 41 42  1  0  0  0  0
 42 43  2  0  0  0  0
 42 50  1  0  0  0  0
 43 44  1  0  0  0  0
 44 45  2  0  0  0  0
 44 46  1  0  0  0  0
 46 47  1  0  0  0  0
 46 48  2  0  0  0  0
 46 49  2  0  0  0  0
 50 51  1  0  0  0  0
 50 52  2  0  0  0  0
 50 53  2  0  0  0  0
 54 55  1  0  0  0  0
 54 56  2  0  0  0  0
 54 57  2  0  0  0  0
 58 59  2  0  0  0  0
 59 60  1  0  0  0  0
 59 62  1  0  0  0  0
 60 61  2  0  0  0  0
 62 63  2  0  0  0  0
 62 64  1  0  0  0  0
 64 65  1  0  0  0  0
 65 66  2  0  0  0  0
 65 74  1  0  0  0  0
 66 67  1  0  0  0  0
 67 68  2  0  0  0  0
 68 69  1  0  0  0  0
 68 83  1  0  0  0  0
 69 70  2  0  0  0  0
 69 74  1  0  0  0  0
 70 71  1  0  0  0  0
 71 72  2  0  0  0  0
 71 79  1  0  0  0  0
 72 73  1  0  0  0  0
 73 74  2  0  0  0  0
 73 75  1  0  0  0  0
 75 76  1  0  0  0  0
 75 77  2  0  0  0  0
 75 78  2  0  0  0  0
 79 80  1  0  0  0  0
 79 81  2  0  0  0  0
 79 82  2  0  0  0  0
 83 84  1  0  0  0  0
 83 85  2  0  0  0  0
 83 86  2  0  0  0  0
M  END
> <ID>
11615

> <Formula>
C51H40N6O23S6

> <FW>
1297.2797

> <DSSTox_CID>
26344

> <DSSTox_RID>
81548

> <DSSTox_GSID>
46344

> <DSSTox_FileID_Sort>
6229

> <TS_ChemName>
Suramin

> <TS_ChemName_Synonyms>


> <TS_CASRN>
145-63-1

> <CASRN_ChemName_Relationship>
primary

> <TS_Description>
single chemical compound

> <ChemNote>


> <STRUCTURE_Shown>
tested chemical

> <STRUCTURE_Formula>
C51H40N6O23S6

> <STRUCTURE_MW>
1297.2797

> <STRUCTURE_ChemType>
defined organic

> <STRUCTURE_DefinedOrganicForm>
parent

> <STRUCTURE_IUPAC>
8,8'-{carbonylbis[iminobenzene-3,1-diylcarbonylimino(4-methylbenzene-3,1-diyl)carbonylimino]}dinaphthalene-1,3,5-trisulfonic acid

> <STRUCTURE_SMILES>
O=S(=O)(O)c1cc(cc2c1c(ccc2S(=O)(=O)O)NC(=O)c8cc(NC(=O)c3cc(ccc3)NC(=O)Nc4cccc(c4)C(=O)Nc5cc(ccc5C)C(=O)Nc7ccc(c6cc(cc(c67)S(=O)(=O)O)S(=O)(=O)O)S(=O)(=O)O)c(C)cc8)S(=O)(=O)O

> <STRUCTURE_SMILES_Desalt>
O=S(=O)(O)c1cc(cc2c1c(ccc2S(=O)(=O)O)NC(=O)c8cc(NC(=O)c3cc(ccc3)NC(=O)Nc4cccc(c4)C(=O)Nc5cc(ccc5C)C(=O)Nc7ccc(c6cc(cc(c67)S(=O)(=O)O)S(=O)(=O)O)S(=O)(=O)O)c(C)cc8)S(=O)(=O)O

> <Substance_modify_yyyymmdd>
20110814

$$$$
