145-39-1
ChemmineR-0915142007XD

 19 19  0  0  0  0  0  0  0  0  2 V2000
    2.3076   -2.6612    0.0000 C   0  0  0  0  0  0  0  0  0  0  0  0
    3.4644   -2.0019    0.0000 C   0  0  0  0  0  0  0  0  0  0  0  0
    4.5972   -2.6612    0.0000 C   0  0  0  0  0  0  0  0  0  0  0  0
    4.5972   -3.9918    0.0000 C   0  0  0  0  0  0  0  0  0  0  0  0
    3.4644   -4.6631    0.0000 C   0  0  0  0  0  0  0  0  0  0  0  0
    2.3076   -3.9918    0.0000 C   0  0  0  0  0  0  0  0  0  0  0  0
    1.1568   -2.0019    0.0000 C   0  0  0  0  0  0  0  0  0  0  0  0
    1.8101   -0.8511    0.0000 C   0  0  0  0  0  0  0  0  0  0  0  0
    0.4795   -3.1587    0.0000 C   0  0  0  0  0  0  0  0  0  0  0  0
    0.0000   -1.3306    0.0000 C   0  0  0  0  0  0  0  0  0  0  0  0
    3.4644   -5.9937    0.0000 C   0  0  0  0  0  0  0  0  0  0  0  0
    5.7540   -4.6631    0.0000 C   0  0  0  0  0  0  0  0  0  0  0  0
    5.7540   -2.0019    0.0000 C   0  0  0  0  0  0  0  0  0  0  0  0
    1.1568   -4.6631    0.0000 N   0  3  0  0  0  0  0  0  0  0  0  0
    1.1568   -5.9937    0.0000 O   0  5  0  0  0  0  0  0  0  0  0  0
    0.0000   -3.9918    0.0000 O   0  0  0  0  0  0  0  0  0  0  0  0
    3.4644   -0.6713    0.0000 N   0  3  0  0  0  0  0  0  0  0  0  0
    4.5972    0.0000    0.0000 O   0  5  0  0  0  0  0  0  0  0  0  0
    2.3076    0.0000    0.0000 O   0  0  0  0  0  0  0  0  0  0  0  0
  1  2  2  0  0  0  0
  1  6  1  0  0  0  0
  1  7  1  0  0  0  0
  2  3  1  0  0  0  0
  2 17  1  0  0  0  0
  3  4  2  0  0  0  0
  3 13  1  0  0  0  0
  4  5  1  0  0  0  0
  4 12  1  0  0  0  0
  5  6  2  0  0  0  0
  5 11  1  0  0  0  0
  6 14  1  0  0  0  0
  7  8  1  0  0  0  0
  7  9  1  0  0  0  0
  7 10  1  0  0  0  0
 14 15  1  0  0  0  0
 14 16  2  0  0  0  0
 17 18  1  0  0  0  0
 17 19  2  0  0  0  0
M  END
> <ID>
10236

> <Formula>
C13H18N2O4

> <FW>
266.293

> <DSSTox_CID>
24582

> <DSSTox_RID>
80330

> <DSSTox_GSID>
44582

> <DSSTox_FileID_Sort>
5012

> <TS_ChemName>
1-tert-Butyl-3,4,5-trimethyl-2,6-dinitrobenzene

> <TS_ChemName_Synonyms>
Musk tibetine

> <TS_CASRN>
145-39-1

> <CASRN_ChemName_Relationship>
primary

> <TS_Description>
single chemical compound

> <ChemNote>


> <STRUCTURE_Shown>
tested chemical

> <STRUCTURE_Formula>
C13H18N2O4

> <STRUCTURE_MW>
266.293

> <STRUCTURE_ChemType>
defined organic

> <STRUCTURE_DefinedOrganicForm>
parent

> <STRUCTURE_IUPAC>
1-tert-butyl-3,4,5-trimethyl-2,6-dinitrobenzene

> <STRUCTURE_SMILES>
O=[N+]([O-])c1c(C)c(C)c(C)c(c1C(C)(C)C)[N+]([O-])=O

> <STRUCTURE_SMILES_Desalt>
O=[N+]([O-])c1c(C)c(C)c(C)c(c1C(C)(C)C)[N+]([O-])=O

> <Substance_modify_yyyymmdd>
20091116

$$$$
