145-94-8
ChemmineR-0915142007XD

 11 12  0  0  0  0  0  0  0  0  1 V2000
    2.3112   -2.0077    0.0000 C    0  0  0  0  0  0  0  0  0  0  0  0
    2.3112   -3.3177    0.0000 C    0  0  0  0  0  0  0  0  0  0  0  0
    1.1663   -1.3260    0.0000 C    0  0  0  0  0  0  0  0  0  0  0  0
    1.1663   -3.9994    0.0000 C    0  0  0  0  0  0  0  0  0  0  0  0
    0.0000   -2.0077    0.0000 C    0  0  0  0  0  0  0  0  0  0  0  0
    0.0000   -3.3177    0.0000 C    0  0  0  0  0  0  0  0  0  0  0  0
    1.1663    0.0000    0.0000 Cl   0  0  0  0  0  0  0  0  0  0  0  0
    1.1663   -5.3254    0.0000 O    0  0  0  0  0  0  0  0  0  0  0  0
    3.5734   -3.7491    0.0000 C    0  0  0  0  0  0  0  0  0  0  0  0
    3.5734   -1.5763    0.0000 C    0  0  0  0  0  0  0  0  0  0  0  0
    4.3349   -2.6627    0.0000 C    0  0  0  0  0  0  0  0  0  0  0  0
  1  2  2  0  0  0  0
  1  3  1  0  0  0  0
  1 10  1  0  0  0  0
  2  4  1  0  0  0  0
  2  9  1  0  0  0  0
  3  5  2  0  0  0  0
  3  7  1  0  0  0  0
  4  8  1  0  0  0  0
  4  6  2  0  0  0  0
  5  6  1  0  0  0  0
  9 11  1  0  0  0  0
 10 11  1  0  0  0  0
M  END
> <ID>
8726

> <Formula>
C9H9ClO

> <FW>
168.6202

> <DSSTox_CID>
21774

> <DSSTox_RID>
79840

> <DSSTox_GSID>
41774

> <DSSTox_FileID_Sort>
4522

> <TS_ChemName>
Chlorindanol

> <TS_ChemName_Synonyms>


> <TS_CASRN>
145-94-8

> <CASRN_ChemName_Relationship>
primary

> <TS_Description>
single chemical compound

> <ChemNote>


> <STRUCTURE_Shown>
tested chemical

> <STRUCTURE_Formula>
C9H9ClO

> <STRUCTURE_MW>
168.6202

> <STRUCTURE_ChemType>
defined organic

> <STRUCTURE_DefinedOrganicForm>
parent

> <STRUCTURE_IUPAC>
7-chloro-2,3-dihydro-1H-inden-4-ol

> <STRUCTURE_SMILES>
Oc1ccc(Cl)c2CCCc12

> <STRUCTURE_SMILES_Desalt>
Oc1ccc(Cl)c2CCCc12

> <Substance_modify_yyyymmdd>
20080825

$$$$
