145-73-3
ChemmineR-0915142007XD

 13 14  0  0  0  0  0  0  0  0  1 V2000
    2.2994   -1.9967    0.0000 C   0  0  0  0  0  0  0  0  0  0  0  0
    2.2994   -3.3137    0.0000 C   0  0  0  0  0  0  0  0  0  0  0  0
    1.1524   -1.3276    0.0000 C   0  0  0  0  0  0  0  0  0  0  0  0
    1.1524   -3.9828    0.0000 C   0  0  0  0  0  0  0  0  0  0  0  0
    0.9718   -2.6658    0.0000 O   0  0  0  0  0  0  0  0  0  0  0  0
    3.4412   -3.9828    0.0000 C   0  0  0  0  0  0  0  0  0  0  0  0
    3.4412   -1.3276    0.0000 C   0  0  0  0  0  0  0  0  0  0  0  0
    0.0000   -3.3137    0.0000 C   0  0  0  0  0  0  0  0  0  0  0  0
    0.0000   -1.9967    0.0000 C   0  0  0  0  0  0  0  0  0  0  0  0
    4.6041   -3.3137    0.0000 O   0  0  0  0  0  0  0  0  0  0  0  0
    3.4412    0.0000    0.0000 O   0  0  0  0  0  0  0  0  0  0  0  0
    3.4412   -5.3104    0.0000 O   0  0  0  0  0  0  0  0  0  0  0  0
    4.6041   -1.9967    0.0000 O   0  0  0  0  0  0  0  0  0  0  0  0
  1  2  1  0  0  0  0
  1  3  1  0  0  0  0
  1  7  1  0  0  0  0
  2  4  1  0  0  0  0
  2  6  1  0  0  0  0
  3  5  1  0  0  0  0
  3  9  1  0  0  0  0
  4  5  1  0  0  0  0
  4  8  1  0  0  0  0
  6 10  2  0  0  0  0
  6 12  1  0  0  0  0
  7 11  2  0  0  0  0
  7 13  1  0  0  0  0
  8  9  1  0  0  0  0
M  END
> <ID>
3494

> <Formula>
C8H10O5

> <FW>
186.162

> <DSSTox_CID>
4081

> <DSSTox_RID>
77281

> <DSSTox_GSID>
24081

> <DSSTox_FileID_Sort>
1964

> <TS_ChemName>
Endothal

> <TS_ChemName_Synonyms>
Endothall; Aquathol

> <TS_CASRN>
145-73-3

> <CASRN_ChemName_Relationship>
primary

> <TS_Description>
single chemical compound

> <ChemNote>


> <STRUCTURE_Shown>
tested chemical

> <STRUCTURE_Formula>
C8H10O5

> <STRUCTURE_MW>
186.162

> <STRUCTURE_ChemType>
defined organic

> <STRUCTURE_DefinedOrganicForm>
parent

> <STRUCTURE_IUPAC>
7-oxabicyclo[2.2.1]heptane-2,3-dicarboxylic acid

> <STRUCTURE_SMILES>
OC(=O)C2C(C1CCC2O1)C(=O)O

> <STRUCTURE_SMILES_Desalt>
OC(=O)C2C(C1CCC2O1)C(=O)O

> <Substance_modify_yyyymmdd>
20080429

$$$$
