145-13-1
ChemmineR-0915142007XD

 26 29  0  0  1  0  0  0  0  0  1 V2000
    6.9332   -2.6370    0.0000 C   0  0  0  0  0  0  0  0  0  0  0  0
    3.4765   -4.6419    0.0000 C   0  0  0  0  0  0  0  0  0  0  0  0
    3.4765   -5.9851    0.0000 C   0  0  0  0  0  0  0  0  0  0  0  0
    6.9332   -3.9901    0.0000 C   0  0  0  0  0  0  0  0  0  0  0  0
    4.6123   -3.9901    0.0000 C   0  0  0  0  0  0  0  0  0  0  0  0
    5.7777   -4.6419    0.0000 C   0  0  0  0  0  0  0  0  0  0  0  0
    8.1875   -2.2321    0.0000 C   0  0  0  0  0  0  0  0  0  0  0  0
    4.6123   -6.6369    0.0000 C   0  0  0  0  0  0  0  0  0  0  0  0
    5.7777   -1.9753    0.0000 C   0  0  0  0  0  0  0  0  0  0  0  0
    5.7777   -5.9851    0.0000 C   0  0  0  0  0  0  0  0  0  0  0  0
    4.6123   -2.6370    0.0000 C   0  0  0  0  0  0  0  0  0  0  0  0
    8.1875   -4.3851    0.0000 C   0  0  0  0  0  0  0  0  0  0  0  0
    2.3210   -3.9901    0.0000 C   0  0  0  0  0  0  0  0  0  0  0  0
    8.9776   -3.3086    0.0000 C   0  0  0  0  0  0  0  0  0  0  0  0
    8.5925   -0.9481    0.0000 C   0  0  0  0  0  0  0  0  0  0  0  0
    2.3210   -6.6369    0.0000 C   0  0  0  0  0  0  0  0  0  0  0  0
    7.6937    0.0000    0.0000 O   0  0  0  0  0  0  0  0  0  0  0  0
    6.9332   -1.3136    0.0000 C   0  0  0  0  0  0  0  0  0  0  0  0
    1.1753   -4.6419    0.0000 C   0  0  0  0  0  0  0  0  0  0  0  0
    1.1753   -5.9851    0.0000 C   0  0  0  0  0  0  0  0  0  0  0  0
    3.4765   -3.3086    0.0000 C   0  0  0  0  0  0  0  0  0  0  0  0
    0.0000   -6.6567    0.0000 O   0  0  0  0  0  0  0  0  0  0  0  0
    9.8764   -0.6913    0.0000 C   0  0  0  0  0  0  0  0  0  0  0  0
    5.7777   -3.3283    0.0000 H   0  0  0  0  0  0  0  0  0  0  0  0
    6.9332   -5.3234    0.0000 H   0  0  0  0  0  0  0  0  0  0  0  0
    4.6123   -5.3234    0.0000 H   0  0  0  0  0  0  0  0  0  0  0  0
  1  4  1  0  0  0  0
  1  7  1  0  0  0  0
  1  9  1  0  0  0  0
  1 18  1  1  0  0  0
  2  5  1  0  0  0  0
  2  3  1  0  0  0  0
  2 13  1  0  0  0  0
  2 21  1  1  0  0  0
  3 16  1  0  0  0  0
  3  8  2  0  0  0  0
  4  6  1  0  0  0  0
  4 12  1  0  0  0  0
  4 25  1  6  0  0  0
  5 11  1  0  0  0  0
  5  6  1  0  0  0  0
  5 26  1  6  0  0  0
  6 10  1  0  0  0  0
  6 24  1  1  0  0  0
  7 14  1  0  0  0  0
  7 15  1  1  0  0  0
  8 10  1  0  0  0  0
  9 11  1  0  0  0  0
 12 14  1  0  0  0  0
 13 19  1  0  0  0  0
 15 17  2  0  0  0  0
 15 23  1  0  0  0  0
 16 20  1  0  0  0  0
 19 20  1  0  0  0  0
 20 22  1  1  0  0  0
M  END
> <ID>
7141

> <Formula>
C21H32O2

> <FW>
316.4776

> <DSSTox_CID>
16541

> <DSSTox_RID>
79287

> <DSSTox_GSID>
36541

> <DSSTox_FileID_Sort>
3969

> <TS_ChemName>
Pregnenolone

> <TS_ChemName_Synonyms>


> <TS_CASRN>
145-13-1

> <CASRN_ChemName_Relationship>
primary

> <TS_Description>
single chemical compound

> <ChemNote>
stereochem

> <STRUCTURE_Shown>
tested chemical

> <STRUCTURE_Formula>
C21H32O2

> <STRUCTURE_MW>
316.4776

> <STRUCTURE_ChemType>
defined organic

> <STRUCTURE_DefinedOrganicForm>
parent

> <STRUCTURE_IUPAC>
(3beta)-3-hydroxypregn-5-en-20-one

> <STRUCTURE_SMILES>
CC(=O)[C@H]4CC[C@@H]3[C@]4(C)CC[C@H]2[C@H]3CC=C1C[C@@H](O)CC[C@@]12C

> <STRUCTURE_SMILES_Desalt>
CC(=O)[C@H]4CC[C@@H]3[C@]4(C)CC[C@H]2[C@H]3CC=C1C[C@@H](O)CC[C@@]12C

> <Substance_modify_yyyymmdd>
20080429

$$$$
