145022-44-2
ChemmineR-0915142007XD

 16 15  0  0  0  0  0  0  0  0  2 V2000
    2.2819   -0.4039    0.0000 C   0  0  0  0  0  0  0  0  0  0  0  0
    3.5439    0.0000    0.0000 C   0  0  0  0  0  0  0  0  0  0  0  0
    2.2819   -1.7265    0.0000 N   0  0  0  0  0  0  0  0  0  0  0  0
    4.3113   -1.0602    0.0000 N   0  3  0  0  0  0  0  0  0  0  0  0
    3.5338   -2.1304    0.0000 C   0  0  0  0  0  0  0  0  0  0  0  0
    5.6440   -1.0602    0.0000 C   0  0  0  0  0  0  0  0  0  0  0  0
    1.2116   -2.5141    0.0000 C   0  0  0  0  0  0  0  0  0  0  0  0
    0.0000   -1.9890    0.0000 C   0  0  0  0  0  0  0  0  0  0  0  0
    8.7740   -2.7059    0.0000 C   0  0  0  0  0  0  0  0  0  0  0  0
    7.4413   -2.7059    0.0000 S   0  0  0  0  0  0  0  0  0  0  0  0
    7.4413   -1.2318    0.0000 O   0  0  0  0  0  0  0  0  0  0  0  0
    6.1489   -2.7059    0.0000 O   0  5  0  0  0  0  0  0  0  0  0  0
    7.4413   -3.9983    0.0000 O   0  0  0  0  0  0  0  0  0  0  0  0
    9.4303   -3.8367    0.0000 F   0  0  0  0  0  0  0  0  0  0  0  0
    9.4303   -1.5246    0.0000 F   0  0  0  0  0  0  0  0  0  0  0  0
   10.0967   -2.7059    0.0000 F   0  0  0  0  0  0  0  0  0  0  0  0
  1  2  2  0  0  0  0
  1  3  1  0  0  0  0
  2  4  1  0  0  0  0
  3  5  1  0  0  0  0
  3  7  1  0  0  0  0
  4  5  2  0  0  0  0
  4  6  1  0  0  0  0
  7  8  1  0  0  0  0
  9 10  1  0  0  0  0
  9 14  1  0  0  0  0
  9 15  1  0  0  0  0
  9 16  1  0  0  0  0
 10 11  2  0  0  0  0
 10 12  1  0  0  0  0
 10 13  2  0  0  0  0
M  END
> <ID>
13039

> <Formula>
C7H11F3N2O3S

> <FW>
260.2340 (111.1644+149.0697)

> <DSSTox_CID>
27941

> <DSSTox_RID>
82693

> <DSSTox_GSID>
47965

> <DSSTox_FileID_Sort>
7370

> <TS_ChemName>
1-Ethyl-3-methylimidazolium trifluoromethanesulfonate

> <TS_ChemName_Synonyms>


> <TS_CASRN>
145022-44-2

> <CASRN_ChemName_Relationship>
primary

> <TS_Description>
single chemical compound

> <ChemNote>
ammonium; parent [65039-03-4]

> <STRUCTURE_Shown>
tested chemical

> <STRUCTURE_Formula>
C7H11F3N2O3S

> <STRUCTURE_MW>
260.234

> <STRUCTURE_ChemType>
defined organic

> <STRUCTURE_DefinedOrganicForm>
salt

> <STRUCTURE_IUPAC>
1-ethyl-3-methyl-1H-imidazol-3-ium trifluoromethanesulfonate

> <STRUCTURE_SMILES>
C[n+]1ccn(CC)c1.FC(F)(F)S([O-])(=O)=O

> <STRUCTURE_SMILES_Desalt>
C[n+]1ccn(CC)c1

> <Substance_modify_yyyymmdd>
20110418

$$$$
