1450-85-7
ChemmineR-0915142007XD

  7  7  0  0  0  0  0  0  0  0  1 V2000
    1.1571   -2.0067    0.0000 C   0  0  0  0  0  0  0  0  0  0  0  0
    1.1571   -0.6735    0.0000 N   0  0  0  0  0  0  0  0  0  0  0  0
    2.2969    0.0000    0.0000 C   0  0  0  0  0  0  0  0  0  0  0  0
    3.4539   -0.6735    0.0000 C   0  0  0  0  0  0  0  0  0  0  0  0
    3.4539   -2.0067    0.0000 C   0  0  0  0  0  0  0  0  0  0  0  0
    2.3141   -2.6664    0.0000 N   0  0  0  0  0  0  0  0  0  0  0  0
    0.0000   -2.6664    0.0000 S   0  0  0  0  0  0  0  0  0  0  0  0
  1  2  1  0  0  0  0
  1  6  1  0  0  0  0
  1  7  2  0  0  0  0
  2  3  2  0  0  0  0
  3  4  1  0  0  0  0
  4  5  2  0  0  0  0
  5  6  1  0  0  0  0
M  END
> <ID>
14083

> <Formula>
C4H4N2S

> <FW>
112.153

> <DSSTox_CID>
29076

> <DSSTox_RID>
83295

> <DSSTox_GSID>
49220

> <DSSTox_FileID_Sort>
7970

> <TS_ChemName>
Pyrimidine-2-thiol

> <TS_ChemName_Synonyms>


> <TS_CASRN>
1450-85-7

> <CASRN_ChemName_Relationship>
primary

> <TS_Description>
single chemical compound

> <ChemNote>


> <STRUCTURE_Shown>
tested chemical

> <STRUCTURE_Formula>
C4H4N2S

> <STRUCTURE_MW>
112.153

> <STRUCTURE_ChemType>
defined organic

> <STRUCTURE_DefinedOrganicForm>
parent

> <STRUCTURE_IUPAC>
pyrimidine-2(1H)-thione

> <STRUCTURE_SMILES>
S=C1N=CC=CN1

> <STRUCTURE_SMILES_Desalt>
S=C1N=CC=CN1

> <Substance_modify_yyyymmdd>
20111204

$$$$
