145022-45-3
ChemmineR-0915142007XD

 13 12  0  0  0  0  0  0  0  0  2 V2000
    2.4193   -5.1187    0.0000 C   0  0  0  0  0  0  0  0  0  0  0  0
    2.7079    0.0000    0.0000 C   0  0  0  0  0  0  0  0  0  0  0  0
    1.2648   -4.4481    0.0000 C   0  0  0  0  0  0  0  0  0  0  0  0
    0.5942   -1.0781    0.0000 C   0  0  0  0  0  0  0  0  0  0  0  0
    0.1952   -2.3259    0.0000 C   0  0  0  0  0  0  0  0  0  0  0  0
    2.3429   -2.3429    0.0000 C   0  0  0  0  0  0  0  0  0  0  0  0
    1.9270   -1.0781    0.0000 N   0  3  0  0  0  0  0  0  0  0  0  0
    1.2648   -3.1154    0.0000 N   0  0  0  0  0  0  0  0  0  0  0  0
    0.0000   -7.1561    0.0000 C   0  0  0  0  0  0  0  0  0  0  0  0
    1.3327   -8.4888    0.0000 O   0  5  0  0  0  0  0  0  0  0  0  0
    1.3327   -5.8233    0.0000 O   0  0  0  0  0  0  0  0  0  0  0  0
    2.6655   -7.1561    0.0000 O   0  0  0  0  0  0  0  0  0  0  0  0
    1.3327   -7.1561    0.0000 S   0  0  0  0  0  0  0  0  0  0  0  0
  1  3  1  0  0  0  0
  2  7  1  0  0  0  0
  3  8  1  0  0  0  0
  4  5  2  0  0  0  0
  4  7  1  0  0  0  0
  5  8  1  0  0  0  0
  6  7  2  0  0  0  0
  6  8  1  0  0  0  0
  9 13  1  0  0  0  0
 10 13  1  0  0  0  0
 11 13  2  0  0  0  0
 12 13  2  0  0  0  0
M  END
> <ID>
14082

> <Formula>
C7H14N2O3S

> <FW>
206.2627 (111.1644+95.0983)

> <DSSTox_CID>
29075

> <DSSTox_RID>
83294

> <DSSTox_GSID>
49219

> <DSSTox_FileID_Sort>
7969

> <TS_ChemName>
1-Ethyl-3-methylimidazolium methanesulfonate

> <TS_ChemName_Synonyms>


> <TS_CASRN>
145022-45-3

> <CASRN_ChemName_Relationship>
primary

> <TS_Description>
single chemical compound

> <ChemNote>


> <STRUCTURE_Shown>
tested chemical

> <STRUCTURE_Formula>
C7H14N2O3S

> <STRUCTURE_MW>
206.2627

> <STRUCTURE_ChemType>
defined organic

> <STRUCTURE_DefinedOrganicForm>
complex

> <STRUCTURE_IUPAC>
1-ethyl-3-methyl-1H-imidazol-3-ium methanesulfonate

> <STRUCTURE_SMILES>
C[n+]1ccn(CC)c1.[O-]S(C)(=O)=O

> <STRUCTURE_SMILES_Desalt>
C[n+]1ccn(CC)c1

> <Substance_modify_yyyymmdd>
20111204

$$$$
