145040-37-5
ChemmineR-0915142007XD

 45 50  0  0  0  0  0  0  0  0  1 V2000
    8.0526   -7.3096    0.0000 C   0  0  0  0  0  0  0  0  0  0  0  0
    8.0526   -6.0043    0.0000 C   0  0  0  0  0  0  0  0  0  0  0  0
    9.2173   -5.3216    0.0000 C   0  0  0  0  0  0  0  0  0  0  0  0
    9.2173   -7.9924    0.0000 C   0  0  0  0  0  0  0  0  0  0  0  0
   10.3620   -7.3096    0.0000 C   0  0  0  0  0  0  0  0  0  0  0  0
   10.3620   -6.0043    0.0000 C   0  0  0  0  0  0  0  0  0  0  0  0
   11.6271   -5.6027    0.0000 N   0  0  0  0  0  0  0  0  0  0  0  0
   12.4103   -6.6670    0.0000 C   0  0  0  0  0  0  0  0  0  0  0  0
   11.6271   -7.7514    0.0000 N   0  0  0  0  0  0  0  0  0  0  0  0
   13.7557   -6.6670    0.0000 O   0  0  0  0  0  0  0  0  0  0  0  0
   14.3983   -7.8317    0.0000 C   0  0  0  0  0  0  0  0  0  0  0  0
   15.7438   -7.8317    0.0000 C   0  0  0  0  0  0  0  0  0  0  0  0
   12.1291   -4.3577    0.0000 C   0  0  0  0  0  0  0  0  0  0  0  0
   13.4344   -4.3577    0.0000 C   0  0  0  0  0  0  0  0  0  0  0  0
   14.0770   -3.1729    0.0000 C   0  0  0  0  0  0  0  0  0  0  0  0
   15.4225   -3.1729    0.0000 C   0  0  0  0  0  0  0  0  0  0  0  0
   16.0852   -4.3577    0.0000 C   0  0  0  0  0  0  0  0  0  0  0  0
   15.4225   -5.4822    0.0000 C   0  0  0  0  0  0  0  0  0  0  0  0
   14.0770   -5.4822    0.0000 C   0  0  0  0  0  0  0  0  0  0  0  0
   17.4306   -4.3577    0.0000 C   0  0  0  0  0  0  0  0  0  0  0  0
   18.0732   -3.1729    0.0000 C   0  0  0  0  0  0  0  0  0  0  0  0
   19.3986   -3.1729    0.0000 C   0  0  0  0  0  0  0  0  0  0  0  0
   20.0814   -4.3577    0.0000 C   0  0  0  0  0  0  0  0  0  0  0  0
   19.3986   -5.4822    0.0000 C   0  0  0  0  0  0  0  0  0  0  0  0
   18.0732   -5.4822    0.0000 C   0  0  0  0  0  0  0  0  0  0  0  0
   17.4306   -2.0483    0.0000 C   0  0  0  0  0  0  0  0  0  0  0  0
   16.0852   -2.0483    0.0000 N   0  0  0  0  0  0  0  0  0  0  0  0
   15.6835   -0.7832    0.0000 N   0  0  0  0  0  0  0  0  0  0  0  0
   16.7479    0.0000    0.0000 N   0  0  0  0  0  0  0  0  0  0  0  0
   17.8122   -0.7832    0.0000 N   0  0  0  0  0  0  0  0  0  0  0  0
    9.2173   -3.9761    0.0000 C   0  0  0  0  0  0  0  0  0  0  0  0
    8.0526   -3.3335    0.0000 O   0  0  0  0  0  0  0  0  0  0  0  0
   10.3620   -3.3335    0.0000 O   0  0  0  0  0  0  0  0  0  0  0  0
    6.9080   -3.9761    0.0000 C   0  0  0  0  0  0  0  0  0  0  0  0
    5.7433   -3.3335    0.0000 O   0  0  0  0  0  0  0  0  0  0  0  0
    4.5786   -3.9761    0.0000 C   0  0  0  0  0  0  0  0  0  0  0  0
    3.4540   -3.3335    0.0000 O   0  0  0  0  0  0  0  0  0  0  0  0
    2.3094   -3.9761    0.0000 C   0  0  0  0  0  0  0  0  0  0  0  0
    6.9080   -5.3216    0.0000 C   0  0  0  0  0  0  0  0  0  0  0  0
    4.5786   -5.3216    0.0000 O   0  0  0  0  0  0  0  0  0  0  0  0
    2.3094   -5.3216    0.0000 C   0  0  0  0  0  0  0  0  0  0  0  0
    1.1446   -6.0043    0.0000 C   0  0  0  0  0  0  0  0  0  0  0  0
    0.0000   -5.3216    0.0000 C   0  0  0  0  0  0  0  0  0  0  0  0
    0.0000   -3.9761    0.0000 C   0  0  0  0  0  0  0  0  0  0  0  0
    1.1446   -3.3335    0.0000 C   0  0  0  0  0  0  0  0  0  0  0  0
  1  2  2  0  0  0  0
  1  4  1  0  0  0  0
  2  3  1  0  0  0  0
  3  6  2  0  0  0  0
  3 31  1  0  0  0  0
  4  5  2  0  0  0  0
  5  6  1  0  0  0  0
  5  9  1  0  0  0  0
  6  7  1  0  0  0  0
  7 13  1  0  0  0  0
  7  8  1  0  0  0  0
  8 10  1  0  0  0  0
  8  9  2  0  0  0  0
 10 11  1  0  0  0  0
 11 12  1  0  0  0  0
 13 14  1  0  0  0  0
 14 15  2  0  0  0  0
 14 19  1  0  0  0  0
 15 16  1  0  0  0  0
 16 17  2  0  0  0  0
 17 18  1  0  0  0  0
 17 20  1  0  0  0  0
 18 19  2  0  0  0  0
 20 25  1  0  0  0  0
 20 21  2  0  0  0  0
 21 22  1  0  0  0  0
 21 26  1  0  0  0  0
 22 23  2  0  0  0  0
 23 24  1  0  0  0  0
 24 25  2  0  0  0  0
 26 27  2  0  0  0  0
 26 30  1  0  0  0  0
 27 28  1  0  0  0  0
 28 29  2  0  0  0  0
 29 30  1  0  0  0  0
 31 32  1  0  0  0  0
 31 33  2  0  0  0  0
 32 34  1  0  0  0  0
 34 35  1  0  0  0  0
 34 39  1  0  0  0  0
 35 36  1  0  0  0  0
 36 37  1  0  0  0  0
 36 40  2  0  0  0  0
 37 38  1  0  0  0  0
 38 41  1  0  0  0  0
 38 45  1  0  0  0  0
 41 42  1  0  0  0  0
 42 43  1  0  0  0  0
 43 44  1  0  0  0  0
 44 45  1  0  0  0  0
M  END
> <ID>
235

> <Formula>
C33H34N6O6

> <FW>
610.6597

> <DSSTox_CID>
239

> <DSSTox_RID>
85567

> <DSSTox_GSID>
20239

> <DSSTox_FileID_Sort>
8304

> <TS_ChemName>
Candesartan cilexetil

> <TS_ChemName_Synonyms>


> <TS_CASRN>
145040-37-5

> <CASRN_ChemName_Relationship>
primary

> <TS_Description>
single chemical compound

> <ChemNote>
tautomers

> <STRUCTURE_Shown>
tested chemical

> <STRUCTURE_Formula>
C33H34N6O6

> <STRUCTURE_MW>
610.6597

> <STRUCTURE_ChemType>
defined organic

> <STRUCTURE_DefinedOrganicForm>
parent

> <STRUCTURE_IUPAC>
1-{[(cyclohexyloxy)carbonyl]oxy}ethyl 2-ethoxy-1-{[2'-(1H-tetrazol-5-yl)biphenyl-4-yl]methyl}-1H-benzimidazole-7-carboxylate

> <STRUCTURE_SMILES>
O=C(OC1CCCCC1)OC(C)OC(=O)c5cccc6nc(OCC)n(Cc2ccc(cc2)c3ccccc3c4nnnn4)c56

> <STRUCTURE_SMILES_Desalt>
O=C(OC1CCCCC1)OC(C)OC(=O)c5cccc6nc(OCC)n(Cc2ccc(cc2)c3ccccc3c4nnnn4)c56

> <Substance_modify_yyyymmdd>
20080429

$$$$
