145158-71-0
ChemmineR-0915142007XD

 22 23  0  0  0  0  0  0  0  0  1 V2000
   15.8481   -2.5040    0.0000 C   0  0  0  0  0  0  0  0  0  0  0  0
   14.5644   -2.8368    0.0000 C   0  0  0  0  0  0  0  0  0  0  0  0
   13.6294   -1.9018    0.0000 C   0  0  0  0  0  0  0  0  0  0  0  0
   12.3457   -2.2504    0.0000 C   0  0  0  0  0  0  0  0  0  0  0  0
   11.3948   -1.2995    0.0000 C   0  0  0  0  0  0  0  0  0  0  0  0
   10.1111   -1.6482    0.0000 N   0  0  0  0  0  0  0  0  0  0  0  0
    9.7624   -2.9319    0.0000 C   0  0  0  0  0  0  0  0  0  0  0  0
   10.7133   -3.8669    0.0000 N   0  0  0  0  0  0  0  0  0  0  0  0
    8.4787   -3.2806    0.0000 N   0  0  0  0  0  0  0  0  0  0  0  0
    7.5437   -2.3297    0.0000 N   0  0  0  0  0  0  0  0  0  0  0  0
    6.2759   -2.7417    0.0000 C   0  0  0  0  0  0  0  0  0  0  0  0
    5.2933   -1.8542    0.0000 C   0  0  0  0  0  0  0  0  0  0  0  0
    5.4359   -0.5388    0.0000 C   0  0  0  0  0  0  0  0  0  0  0  0
    4.2156    0.0000    0.0000 N   0  0  0  0  0  0  0  0  0  0  0  0
    3.3281   -0.9826    0.0000 C   0  0  0  0  0  0  0  0  0  0  0  0
    3.9937   -2.1395    0.0000 C   0  0  0  0  0  0  0  0  0  0  0  0
    3.3281   -3.2806    0.0000 C   0  0  0  0  0  0  0  0  0  0  0  0
    1.9969   -3.2806    0.0000 C   0  0  0  0  0  0  0  0  0  0  0  0
    1.3312   -4.4375    0.0000 O   0  0  0  0  0  0  0  0  0  0  0  0
    0.0000   -4.4375    0.0000 C   0  0  0  0  0  0  0  0  0  0  0  0
    1.3312   -2.1395    0.0000 C   0  0  0  0  0  0  0  0  0  0  0  0
    1.9969   -0.9826    0.0000 C   0  0  0  0  0  0  0  0  0  0  0  0
  1  2  1  0  0  0  0
  2  3  1  0  0  0  0
  3  4  1  0  0  0  0
  4  5  1  0  0  0  0
  5  6  1  0  0  0  0
  6  7  1  0  0  0  0
  7  8  2  0  0  0  0
  7  9  1  0  0  0  0
  9 10  1  0  0  0  0
 10 11  2  0  0  0  0
 11 12  1  0  0  0  0
 12 13  2  0  0  0  0
 12 16  1  0  0  0  0
 13 14  1  0  0  0  0
 14 15  1  0  0  0  0
 15 16  2  0  0  0  0
 15 22  1  0  0  0  0
 16 17  1  0  0  0  0
 17 18  2  0  0  0  0
 18 19  1  0  0  0  0
 18 21  1  0  0  0  0
 19 20  1  0  0  0  0
 21 22  2  0  0  0  0
M  END
> <ID>
11319

> <Formula>
C16H23N5O

> <FW>
301.3867

> <DSSTox_CID>
25955

> <DSSTox_RID>
81251

> <DSSTox_GSID>
45955

> <DSSTox_FileID_Sort>
5932

> <TS_ChemName>
Tegaserod

> <TS_ChemName_Synonyms>


> <TS_CASRN>
145158-71-0

> <CASRN_ChemName_Relationship>
primary

> <TS_Description>
single chemical compound

> <ChemNote>
stereochem

> <STRUCTURE_Shown>
tested chemical

> <STRUCTURE_Formula>
C16H23N5O

> <STRUCTURE_MW>
301.3867

> <STRUCTURE_ChemType>
defined organic

> <STRUCTURE_DefinedOrganicForm>
parent

> <STRUCTURE_IUPAC>
(2E)-2-[(5-methoxy-1H-indol-3-yl)methylidene]-N-pentylhydrazinecarboximidamide

> <STRUCTURE_SMILES>
N=C(NCCCCC)N\N=C\c2cnc1ccc(cc12)OC

> <STRUCTURE_SMILES_Desalt>
N=C(NCCCCC)N\N=C\c2cnc1ccc(cc12)OC

> <Substance_modify_yyyymmdd>
20110930

$$$$
