1452-15-9
ChemmineR-0915142007XD

  7  7  0  0  0  0  0  0  0  0  1 V2000
    2.2213   -2.7837    0.0000 N   0  0  0  0  0  0  0  0  0  0  0  0
    0.4815   -4.0461    0.0000 S   0  0  0  0  0  0  0  0  0  0  0  0
    1.8248   -4.0461    0.0000 C   0  0  0  0  0  0  0  0  0  0  0  0
    1.1531   -1.9826    0.0000 C   0  0  0  0  0  0  0  0  0  0  0  0
    0.0809   -2.7837    0.0000 C   0  0  0  0  0  0  0  0  0  0  0  0
    1.1531   -0.6717    0.0000 C   0  0  0  0  0  0  0  0  0  0  0  0
    0.0000    0.0000    0.0000 N   0  0  0  0  0  0  0  0  0  0  0  0
  1  3  2  0  0  0  0
  1  4  1  0  0  0  0
  2  3  1  0  0  0  0
  2  5  1  0  0  0  0
  4  5  2  0  0  0  0
  4  6  1  0  0  0  0
  6  7  3  0  0  0  0
M  END
> <ID>
5133

> <Formula>
C4H2N2S

> <FW>
110.1371

> <DSSTox_CID>
7401

> <DSSTox_RID>
78439

> <DSSTox_GSID>
27401

> <DSSTox_FileID_Sort>
3122

> <TS_ChemName>
4-Thiazolecarbonitrile

> <TS_ChemName_Synonyms>
4-Thiazolecarbonitrile (4-Cyanothiazole)

> <TS_CASRN>
1452-15-9

> <CASRN_ChemName_Relationship>
primary

> <TS_Description>
single chemical compound

> <ChemNote>


> <STRUCTURE_Shown>
tested chemical

> <STRUCTURE_Formula>
C4H2N2S

> <STRUCTURE_MW>
110.1371

> <STRUCTURE_ChemType>
defined organic

> <STRUCTURE_DefinedOrganicForm>
parent

> <STRUCTURE_IUPAC>
1,3-thiazole-4-carbonitrile

> <STRUCTURE_SMILES>
N#Cc1cscn1

> <STRUCTURE_SMILES_Desalt>
N#Cc1cscn1

> <Substance_modify_yyyymmdd>
20080429

$$$$
