14556-46-8
ChemmineR-0915142007XD

 18 18  0  0  0  0  0  0  0  0  1 V2000
   10.3634   -1.9921    0.0000 C    0  0  0  0  0  0  0  0  0  0  0  0
   11.5149   -1.3242    0.0000 C    0  0  0  0  0  0  0  0  0  0  0  0
   10.3634   -3.3163    0.0000 C    0  0  0  0  0  0  0  0  0  0  0  0
    9.2119   -3.9842    0.0000 C    0  0  0  0  0  0  0  0  0  0  0  0
    8.0604   -3.3163    0.0000 C    0  0  0  0  0  0  0  0  0  0  0  0
    6.9090   -3.9842    0.0000 Cl   0  0  0  0  0  0  0  0  0  0  0  0
    8.0604   -1.9921    0.0000 C    0  0  0  0  0  0  0  0  0  0  0  0
    6.9090   -1.3242    0.0000 O    0  0  0  0  0  0  0  0  0  0  0  0
    5.7575   -1.9921    0.0000 C    0  0  0  0  0  0  0  0  0  0  0  0
    4.6060   -1.3242    0.0000 C    0  0  0  0  0  0  0  0  0  0  0  0
    4.6060    0.0000    0.0000 O    0  0  0  0  0  0  0  0  0  0  0  0
    3.4545   -1.9921    0.0000 C    0  0  0  0  0  0  0  0  0  0  0  0
    2.3030   -1.3242    0.0000 N    0  0  0  0  0  0  0  0  0  0  0  0
    1.1515   -1.9921    0.0000 C    0  0  0  0  0  0  0  0  0  0  0  0
    0.4836   -0.8406    0.0000 C    0  0  0  0  0  0  0  0  0  0  0  0
    1.8194   -3.1436    0.0000 C    0  0  0  0  0  0  0  0  0  0  0  0
    0.0000   -2.6599    0.0000 C    0  0  0  0  0  0  0  0  0  0  0  0
    9.2119   -1.3242    0.0000 C    0  0  0  0  0  0  0  0  0  0  0  0
  1  2  1  0  0  0  0
  1  3  2  0  0  0  0
  1 18  1  0  0  0  0
  3  4  1  0  0  0  0
  4  5  2  0  0  0  0
  5  6  1  0  0  0  0
  5  7  1  0  0  0  0
  7  8  1  0  0  0  0
  7 18  2  0  0  0  0
  8  9  1  0  0  0  0
  9 10  1  0  0  0  0
 10 11  1  0  0  0  0
 10 12  1  0  0  0  0
 12 13  1  0  0  0  0
 13 14  1  0  0  0  0
 14 15  1  0  0  0  0
 14 16  1  0  0  0  0
 14 17  1  0  0  0  0
M  END
> <ID>
2447

> <Formula>
C14H22ClNO2

> <FW>
271.783

> <DSSTox_CID>
2704

> <DSSTox_RID>
97540

> <DSSTox_GSID>
22704

> <DSSTox_FileID_Sort>
8314

> <TS_ChemName>
Bupranolol

> <TS_ChemName_Synonyms>


> <TS_CASRN>
14556-46-8

> <CASRN_ChemName_Relationship>
primary

> <TS_Description>
single chemical compound

> <ChemNote>


> <STRUCTURE_Shown>
tested chemical

> <STRUCTURE_Formula>
C14H22ClNO2

> <STRUCTURE_MW>
271.783

> <STRUCTURE_ChemType>
defined organic

> <STRUCTURE_DefinedOrganicForm>
parent

> <STRUCTURE_IUPAC>
1-(tert-butylamino)-3-(2-chloro-5-methylphenoxy)propan-2-ol

> <STRUCTURE_SMILES>
Clc1ccc(C)cc1OCC(O)CNC(C)(C)C

> <STRUCTURE_SMILES_Desalt>
Clc1ccc(C)cc1OCC(O)CNC(C)(C)C

> <Substance_modify_yyyymmdd>
20080429

$$$$
