1455-77-2
ChemmineR-0915142007XD

  7  7  0  0  0  0  0  0  0  0  1 V2000
    2.3521    0.0000    0.0000 N   0  0  0  0  0  0  0  0  0  0  0  0
    1.2890   -0.7762    0.0000 C   0  0  0  0  0  0  0  0  0  0  0  0
    3.4153   -0.7762    0.0000 C   0  0  0  0  0  0  0  0  0  0  0  0
    1.7076   -2.0416    0.0000 N   0  0  0  0  0  0  0  0  0  0  0  0
    3.0201   -2.0416    0.0000 N   0  0  0  0  0  0  0  0  0  0  0  0
    0.0000   -0.3763    0.0000 N   0  0  0  0  0  0  0  0  0  0  0  0
    4.7042   -0.3528    0.0000 N   0  0  0  0  0  0  0  0  0  0  0  0
  1  2  1  0  0  0  0
  1  3  1  0  0  0  0
  2  4  2  0  0  0  0
  2  6  1  0  0  0  0
  3  5  2  0  0  0  0
  3  7  1  0  0  0  0
  4  5  1  0  0  0  0
M  END
> <ID>
4163

> <Formula>
C2H5N5

> <FW>
99.0946

> <DSSTox_CID>
5367

> <DSSTox_RID>
77765

> <DSSTox_GSID>
25367

> <DSSTox_FileID_Sort>
2448

> <TS_ChemName>
Guanazole

> <TS_ChemName_Synonyms>


> <TS_CASRN>
1455-77-2

> <CASRN_ChemName_Relationship>
primary

> <TS_Description>
single chemical compound

> <ChemNote>
tautomers

> <STRUCTURE_Shown>
tested chemical

> <STRUCTURE_Formula>
C2H5N5

> <STRUCTURE_MW>
99.0946

> <STRUCTURE_ChemType>
defined organic

> <STRUCTURE_DefinedOrganicForm>
parent

> <STRUCTURE_IUPAC>
4H-1,2,4-triazole-3,5-diamine

> <STRUCTURE_SMILES>
Nc1nnc(N)n1

> <STRUCTURE_SMILES_Desalt>
Nc1nnc(N)n1

> <Substance_modify_yyyymmdd>
20080429

$$$$
