145742-28-5
ChemmineR-0915142007XD

 27 29  0  0  1  0  0  0  0  0  1 V2000
    1.8062   -6.6263    0.0000 C   0  0  0  0  0  0  0  0  0  0  0  0
    2.6320   -5.5942    0.0000 C   0  0  0  0  0  0  0  0  0  0  0  0
    2.3017   -7.8649    0.0000 C   0  0  0  0  0  0  0  0  0  0  0  0
    0.4748   -6.4406    0.0000 N   0  0  0  0  0  0  0  0  0  0  0  0
    3.9325   -5.7800    0.0000 N   0  0  0  0  0  0  0  0  0  0  0  0
    2.1365   -4.3453    0.0000 C   0  0  0  0  0  0  0  0  0  0  0  0
    3.5918   -8.0404    0.0000 C   0  0  0  0  0  0  0  0  0  0  0  0
    1.4656   -8.8970    0.0000 C   0  0  0  0  0  0  0  0  0  0  0  0
    0.0000   -5.2123    0.0000 C   0  0  0  0  0  0  0  0  0  0  0  0
    4.6033   -4.6137    0.0000 C   0  0  0  0  0  0  0  0  0  0  0  0
    0.8257   -4.1698    0.0000 C   0  0  0  0  0  0  0  0  0  0  0  0
    4.0873   -9.2789    0.0000 C   0  0  0  0  0  0  0  0  0  0  0  0
    1.9507  -10.1253    0.0000 C   0  0  0  0  0  0  0  0  0  0  0  0
    5.9245   -4.6137    0.0000 C   0  0  0  0  0  0  0  0  0  0  0  0
    3.2616  -10.3214    0.0000 C   0  0  0  0  0  0  0  0  0  0  0  0
    6.5954   -5.7800    0.0000 C   0  0  0  0  0  0  0  0  0  0  0  0
    6.5954   -3.4680    0.0000 C   0  0  0  0  0  0  0  0  0  0  0  0
    7.9268   -5.7800    0.0000 C   0  0  0  0  0  0  0  0  0  0  0  0
    6.2444   -7.0495    0.0000 O   0  0  0  0  0  0  0  0  0  0  0  0
    7.9268   -3.4680    0.0000 C   0  0  0  0  0  0  0  0  0  0  0  0
    8.5977   -4.6343    0.0000 C   0  0  0  0  0  0  0  0  0  0  0  0
    7.1734   -7.9888    0.0000 C   0  0  0  0  0  0  0  0  0  0  0  0
    8.5977   -2.3017    0.0000 O   0  0  0  0  0  0  0  0  0  0  0  0
    7.9062   -1.1457    0.0000 C   0  0  0  0  0  0  0  0  0  0  0  0
    8.5771    0.0000    0.0000 F   0  0  0  0  0  0  0  0  0  0  0  0
    6.5644   -1.1663    0.0000 F   0  0  0  0  0  0  0  0  0  0  0  0
    9.1860   -0.7947    0.0000 F   0  0  0  0  0  0  0  0  0  0  0  0
  1  2  1  0  0  0  0
  1  3  1  6  0  0  0
  1  4  1  0  0  0  0
  2  5  1  6  0  0  0
  2  6  1  0  0  0  0
  3  7  1  0  0  0  0
  3  8  2  0  0  0  0
  4  9  1  0  0  0  0
  5 10  1  0  0  0  0
  6 11  1  0  0  0  0
  7 12  2  0  0  0  0
  8 13  1  0  0  0  0
  9 11  1  0  0  0  0
 10 14  1  0  0  0  0
 12 15  1  0  0  0  0
 13 15  2  0  0  0  0
 14 16  2  0  0  0  0
 14 17  1  0  0  0  0
 16 18  1  0  0  0  0
 16 19  1  0  0  0  0
 17 20  2  0  0  0  0
 18 21  2  0  0  0  0
 19 22  1  0  0  0  0
 20 23  1  0  0  0  0
 20 21  1  0  0  0  0
 23 24  1  0  0  0  0
 24 25  1  0  0  0  0
 24 26  1  0  0  0  0
 24 27  1  0  0  0  0
M  END
> <ID>
12393

> <Formula>
C20H23F3N2O2

> <FW>
380.404

> <DSSTox_CID>
27251

> <DSSTox_RID>
82210

> <DSSTox_GSID>
47251

> <DSSTox_FileID_Sort>
6891

> <TS_ChemName>
CP-122721

> <TS_ChemName_Synonyms>


> <TS_CASRN>
145742-28-5

> <CASRN_ChemName_Relationship>
primary

> <TS_Description>
single chemical compound

> <ChemNote>
stereochem

> <STRUCTURE_Shown>
tested chemical

> <STRUCTURE_Formula>
C20H23F3N2O2

> <STRUCTURE_MW>
380.404

> <STRUCTURE_ChemType>
defined organic

> <STRUCTURE_DefinedOrganicForm>
parent

> <STRUCTURE_IUPAC>
(2S,3S)-N-[2-methoxy-5-(trifluoromethoxy)benzyl]-2-phenylpiperidin-3-amine

> <STRUCTURE_SMILES>
FC(F)(F)Oc3cc(CN[C@H]1CCCN[C@H]1c2ccccc2)c(OC)cc3

> <STRUCTURE_SMILES_Desalt>
FC(F)(F)Oc3cc(CN[C@H]1CCCN[C@H]1c2ccccc2)c(OC)cc3

> <Substance_modify_yyyymmdd>
20130910

$$$$
