145781-92-6
ChemmineR-0915142007XD

 95 99  0  0  1  0  0  0  0  0  1 V2000
    6.9452   -5.2290    0.0000 C   0  0  0  0  0  0  0  0  0  0  0  0
    7.9910   -4.4514    0.0000 C   0  0  0  0  0  0  0  0  0  0  0  0
    6.9452   -6.5429    0.0000 C   0  0  0  0  0  0  0  0  0  0  0  0
    5.8994   -4.4514    0.0000 C   0  0  0  0  0  0  0  0  0  0  0  0
    7.6156   -3.2178    0.0000 C   0  0  0  0  0  0  0  0  0  0  0  0
    9.2781   -4.7463    0.0000 C   0  0  0  0  0  0  0  0  0  0  0  0
    5.9262   -7.2133    0.0000 C   0  0  0  0  0  0  0  0  0  0  0  0
    6.3016   -3.2178    0.0000 N   0  0  0  0  0  0  0  0  0  0  0  0
    8.4737   -2.2525    0.0000 C   0  0  0  0  0  0  0  0  0  0  0  0
   10.1630   -3.7542    0.0000 C   0  0  0  0  0  0  0  0  0  0  0  0
    4.7195   -6.5429    0.0000 N   0  0  0  0  0  0  0  0  0  0  0  0
    5.9262   -8.5273    0.0000 C   0  0  0  0  0  0  0  0  0  0  0  0
    9.7608   -2.5206    0.0000 C   0  0  0  0  0  0  0  0  0  0  0  0
    3.5396   -7.2133    0.0000 C   0  0  0  0  0  0  0  0  0  0  0  0
    7.1061   -9.1977    0.0000 N   0  0  0  0  0  0  0  0  0  0  0  0
    4.8536   -9.1977    0.0000 O   0  0  0  0  0  0  0  0  0  0  0  0
    2.3329   -6.5429    0.0000 C   0  0  0  0  0  0  0  0  0  0  0  0
    3.5396   -8.4737    0.0000 O   0  0  0  0  0  0  0  0  0  0  0  0
    8.3128   -8.5273    0.0000 C   0  0  0  0  0  0  0  0  0  0  0  0
    1.2067   -7.2401    0.0000 C   0  0  0  0  0  0  0  0  0  0  0  0
    2.3329   -5.2022    0.0000 N   0  0  0  0  0  0  0  0  0  0  0  0
    9.4926   -9.1977    0.0000 C   0  0  0  0  0  0  0  0  0  0  0  0
    8.3128   -7.2670    0.0000 C   0  0  0  0  0  0  0  0  0  0  0  0
    1.2067   -8.6077    0.0000 C   0  0  0  0  0  0  0  0  0  0  0  0
    1.1799   -4.5318    0.0000 C   0  0  0  0  0  0  0  0  0  0  0  0
   10.6189   -8.5273    0.0000 N   0  0  0  0  0  0  0  0  0  0  0  0
    9.4926  -10.4580    0.0000 O   0  0  0  0  0  0  0  0  0  0  0  0
    9.4926   -6.6502    0.0000 O   0  0  0  0  0  0  0  0  0  0  0  0
    0.1341   -9.4122    0.0000 C   0  0  0  0  0  0  0  0  0  0  0  0
    2.3329   -9.3854    0.0000 N   0  0  0  0  0  0  0  0  0  0  0  0
    1.1531   -3.1910    0.0000 C   0  0  0  0  0  0  0  0  0  0  0  0
    0.0000   -5.2290    0.0000 O   0  0  0  0  0  0  0  0  0  0  0  0
   11.8256   -9.1977    0.0000 C   0  0  0  0  0  0  0  0  0  0  0  0
    0.5899  -10.6725    0.0000 N   0  0  0  0  0  0  0  0  0  0  0  0
    1.9307  -10.6457    0.0000 C   0  0  0  0  0  0  0  0  0  0  0  0
    0.0536   -2.4134    0.0000 C   0  0  0  0  0  0  0  0  0  0  0  0
    2.2257   -2.3866    0.0000 N   0  0  0  0  0  0  0  0  0  0  0  0
   11.8256  -10.4580    0.0000 C   0  0  0  0  0  0  0  0  0  0  0  0
   13.0055   -8.5273    0.0000 C   0  0  0  0  0  0  0  0  0  0  0  0
    0.4290   -1.1262    0.0000 C   0  0  0  0  0  0  0  0  0  0  0  0
    1.7698   -1.0994    0.0000 C   0  0  0  0  0  0  0  0  0  0  0  0
   12.9786  -11.0747    0.0000 C   0  0  0  0  0  0  0  0  0  0  0  0
   14.1853   -9.1977    0.0000 N   0  0  0  0  0  0  0  0  0  0  0  0
   13.0055   -7.2670    0.0000 O   0  0  0  0  0  0  0  0  0  0  0  0
    2.5475    0.0000    0.0000 O   0  0  0  0  0  0  0  0  0  0  0  0
   12.9786  -12.3619    0.0000 C   0  0  0  0  0  0  0  0  0  0  0  0
   14.1853  -10.4580    0.0000 C   0  0  0  0  0  0  0  0  0  0  0  0
   15.3384   -8.5273    0.0000 C   0  0  0  0  0  0  0  0  0  0  0  0
   14.1853  -12.9786    0.0000 C   0  0  0  0  0  0  0  0  0  0  0  0
   15.3116  -11.0747    0.0000 C   0  0  0  0  0  0  0  0  0  0  0  0
   16.5183   -9.1977    0.0000 C   0  0  0  0  0  0  0  0  0  0  0  0
   15.3384   -7.2670    0.0000 C   0  0  0  0  0  0  0  0  0  0  0  0
   15.3116  -12.3619    0.0000 C   0  0  0  0  0  0  0  0  0  0  0  0
   17.6981   -8.5273    0.0000 N   0  0  0  0  0  0  0  0  0  0  0  0
   16.5183  -10.4580    0.0000 O   0  0  0  0  0  0  0  0  0  0  0  0
   16.5183   -6.6502    0.0000 O   0  0  0  0  0  0  0  0  0  0  0  0
   16.5183  -12.9786    0.0000 O   0  0  0  0  0  0  0  0  0  0  0  0
   18.8512   -9.1977    0.0000 C   0  0  0  0  0  0  0  0  0  0  0  0
   16.5183   -5.2290    0.0000 C   0  0  0  0  0  0  0  0  0  0  0  0
   20.0311   -8.5273    0.0000 C   0  0  0  0  0  0  0  0  0  0  0  0
   18.8512  -10.4580    0.0000 C   0  0  0  0  0  0  0  0  0  0  0  0
   17.8859   -5.2290    0.0000 C   0  0  0  0  0  0  0  0  0  0  0  0
   16.5183   -3.8346    0.0000 C   0  0  0  0  0  0  0  0  0  0  0  0
   15.0971   -5.2290    0.0000 C   0  0  0  0  0  0  0  0  0  0  0  0
   21.2110   -9.1977    0.0000 N   0  0  0  0  0  0  0  0  0  0  0  0
   20.0311   -7.2670    0.0000 O   0  0  0  0  0  0  0  0  0  0  0  0
   20.0311  -11.0747    0.0000 C   0  0  0  0  0  0  0  0  0  0  0  0
   22.3908   -8.5273    0.0000 C   0  0  0  0  0  0  0  0  0  0  0  0
   20.0311  -12.3619    0.0000 C   0  0  0  0  0  0  0  0  0  0  0  0
   21.2110  -10.4580    0.0000 C   0  0  0  0  0  0  0  0  0  0  0  0
   22.3908   -7.2133    0.0000 C   0  0  0  0  0  0  0  0  0  0  0  0
   23.3830   -9.2513    0.0000 C   0  0  0  0  0  0  0  0  0  0  0  0
   23.6243   -6.5698    0.0000 N   0  0  0  0  0  0  0  0  0  0  0  0
   21.2378   -6.4625    0.0000 O   0  0  0  0  0  0  0  0  0  0  0  0
   23.3830  -10.5653    0.0000 C   0  0  0  0  0  0  0  0  0  0  0  0
   23.6243   -5.2022    0.0000 C   0  0  0  0  0  0  0  0  0  0  0  0
   24.8847   -7.0524    0.0000 C   0  0  0  0  0  0  0  0  0  0  0  0
   24.5361  -11.2088    0.0000 C   0  0  0  0  0  0  0  0  0  0  0  0
   24.9651   -4.8268    0.0000 C   0  0  0  0  0  0  0  0  0  0  0  0
   22.4713   -4.5050    0.0000 C   0  0  0  0  0  0  0  0  0  0  0  0
   25.7159   -5.9530    0.0000 C   0  0  0  0  0  0  0  0  0  0  0  0
   24.5361  -12.5228    0.0000 N   0  0  0  0  0  0  0  0  0  0  0  0
   22.4713   -3.1106    0.0000 N   0  0  0  0  0  0  0  0  0  0  0  0
   21.2646   -5.1754    0.0000 O   0  0  0  0  0  0  0  0  0  0  0  0
   25.6623  -13.1932    0.0000 C   0  0  0  0  0  0  0  0  0  0  0  0
   25.6623  -14.5071    0.0000 N   0  0  0  0  0  0  0  0  0  0  0  0
   26.8154  -12.5228    0.0000 N   0  0  0  0  0  0  0  0  0  0  0  0
   23.6243   -2.4670    0.0000 N   0  0  0  0  0  0  0  0  0  0  0  0
   24.8042   -3.1106    0.0000 C   0  0  0  0  0  0  0  0  0  0  0  0
   25.9305   -2.4402    0.0000 O   0  0  0  0  0  0  0  0  0  0  0  0
   24.8042   -4.4514    0.0000 N   0  0  0  0  0  0  0  0  0  0  0  0
    5.7921  -12.5764    0.0000 C   0  0  0  0  0  0  0  0  0  0  0  0
    5.7921  -11.2356    0.0000 O   0  0  0  0  0  0  0  0  0  0  0  0
    6.9184  -13.2200    0.0000 O   0  0  0  0  0  0  0  0  0  0  0  0
    4.6122  -13.2200    0.0000 C   0  0  0  0  0  0  0  0  0  0  0  0
  1  2  1  0  0  0  0
  1  3  1  0  0  0  0
  1  4  2  0  0  0  0
  2  5  2  0  0  0  0
  2  6  1  0  0  0  0
  7  3  1  1  0  0  0
  4  8  1  0  0  0  0
  5  9  1  0  0  0  0
  5  8  1  0  0  0  0
  6 10  2  0  0  0  0
  7 11  1  0  0  0  0
  7 12  1  0  0  0  0
  9 13  2  0  0  0  0
 10 13  1  0  0  0  0
 11 14  1  0  0  0  0
 12 15  1  0  0  0  0
 12 16  2  0  0  0  0
 14 17  1  0  0  0  0
 14 18  2  0  0  0  0
 15 19  1  0  0  0  0
 17 20  1  6  0  0  0
 17 21  1  0  0  0  0
 19 22  1  0  0  0  0
 19 23  1  1  0  0  0
 20 24  1  0  0  0  0
 21 25  1  0  0  0  0
 22 26  1  0  0  0  0
 22 27  2  0  0  0  0
 23 28  1  0  0  0  0
 24 29  2  0  0  0  0
 24 30  1  0  0  0  0
 31 25  1  6  0  0  0
 25 32  2  0  0  0  0
 26 33  1  0  0  0  0
 29 34  1  0  0  0  0
 30 35  2  0  0  0  0
 31 36  1  0  0  0  0
 31 37  1  0  0  0  0
 33 38  1  6  0  0  0
 33 39  1  0  0  0  0
 34 35  1  0  0  0  0
 36 40  1  0  0  0  0
 37 41  1  0  0  0  0
 38 42  1  0  0  0  0
 39 43  1  0  0  0  0
 39 44  2  0  0  0  0
 40 41  1  0  0  0  0
 41 45  2  0  0  0  0
 42 46  2  0  0  0  0
 42 47  1  0  0  0  0
 43 48  1  0  0  0  0
 46 49  1  0  0  0  0
 47 50  2  0  0  0  0
 48 51  1  0  0  0  0
 48 52  1  6  0  0  0
 49 53  2  0  0  0  0
 50 53  1  0  0  0  0
 51 54  1  0  0  0  0
 51 55  2  0  0  0  0
 52 56  1  0  0  0  0
 53 57  1  0  0  0  0
 54 58  1  0  0  0  0
 56 59  1  0  0  0  0
 58 60  1  0  0  0  0
 58 61  1  6  0  0  0
 59 62  1  0  0  0  0
 59 63  1  0  0  0  0
 59 64  1  0  0  0  0
 60 65  1  0  0  0  0
 60 66  2  0  0  0  0
 61 67  1  0  0  0  0
 65 68  1  0  0  0  0
 67 69  1  0  0  0  0
 67 70  1  0  0  0  0
 68 71  1  0  0  0  0
 68 72  1  6  0  0  0
 71 73  1  0  0  0  0
 71 74  2  0  0  0  0
 72 75  1  0  0  0  0
 73 76  1  0  0  0  0
 73 77  1  0  0  0  0
 75 78  1  0  0  0  0
 76 79  1  0  0  0  0
 76 80  1  6  0  0  0
 77 81  1  0  0  0  0
 78 82  1  0  0  0  0
 79 81  1  0  0  0  0
 80 83  1  0  0  0  0
 80 84  2  0  0  0  0
 82 85  1  0  0  0  0
 83 88  1  0  0  0  0
 85 86  1  0  0  0  0
 85 87  2  0  0  0  0
 88 89  1  0  0  0  0
 89 90  2  0  0  0  0
 89 91  1  0  0  0  0
 92 93  2  0  0  0  0
 92 94  1  0  0  0  0
 92 95  1  0  0  0  0
M  END
> <ID>
11929

> <Formula>
C61H88N18O16

> <FW>
1329.4624 (1269.4105+60.0520)

> <DSSTox_CID>
26736

> <DSSTox_RID>
81865

> <DSSTox_GSID>
46736

> <DSSTox_FileID_Sort>
6546

> <TS_ChemName>
Goserelin acetate

> <TS_ChemName_Synonyms>


> <TS_CASRN>
145781-92-6

> <CASRN_ChemName_Relationship>
primary

> <TS_Description>
single chemical compound

> <ChemNote>
stereochem; tautomers; Pyr-His-Trp-Ser-Tyr-D-Ser(tBu)-Leu-Arg-Pro-Azagly-NH2 acetate; parent [65807-02-5]

> <STRUCTURE_Shown>
tested chemical

> <STRUCTURE_Formula>
C61H88N18O16

> <STRUCTURE_MW>
1329.4624

> <STRUCTURE_ChemType>
defined organic

> <STRUCTURE_DefinedOrganicForm>
complex

> <STRUCTURE_IUPAC>
(2S)-N-[(2S,5S,8S,11S,14R,17S,20S)-25-amino-14-(tert-butoxymethyl)-20-({(2S)-2-[(2-carbamoylhydrazinyl)carbonyl]pyrrolidin-1-yl}carbonyl)-11-(4-hydroxybenzyl)-8-(hydroxymethyl)-1-(1H-imidazol-4-yl)-25-imino-5-(1H-indol-3-ylmethyl)-17-(2-methylpropyl)-3,6,

> <STRUCTURE_SMILES>
CC(=O)O.O=C1CC[C@H](N1)C(=O)N[C@@H](Cc2cncn2)C(=O)N[C@@H](Cc4cnc3ccccc34)C(=O)N[C@@H](CO)C(=O)N[C@@H](Cc5ccc(O)cc5)C(=O)N[C@H](COC(C)(C)C)C(=O)N[C@@H](CC(C)C)C(=O)N[C@@H](CCCNC(=N)N)C(=O)N6CCC[C@H]6C(=O)NNC(N)=O

> <STRUCTURE_SMILES_Desalt>
O=C1CC[C@H](N1)C(=O)N[C@@H](Cc2cncn2)C(=O)N[C@@H](Cc4cnc3ccccc34)C(=O)N[C@@H](CO)C(=O)N[C@@H](Cc5ccc(O)cc5)C(=O)N[C@H](COC(C)(C)C)C(=O)N[C@@H](CC(C)C)C(=O)N[C@@H](CCCNC(=N)N)C(=O)N6CCC[C@H]6C(=O)NNC(N)=O

> <Substance_modify_yyyymmdd>
20110804

$$$$
