145701-21-9
ChemmineR-0915142007XD

 25 27  0  0  0  0  0  0  0  0  1 V2000
    1.1500   -4.0046    0.0000 N    0  0  0  0  0  0  0  0  0  0  0  0
    3.4398   -4.0046    0.0000 N    0  0  0  0  0  0  0  0  0  0  0  0
    2.3001   -3.3166    0.0000 C    0  0  0  0  0  0  0  0  0  0  0  0
    2.3001   -5.9863    0.0000 C    0  0  0  0  0  0  0  0  0  0  0  0
    1.1500   -5.3086    0.0000 C    0  0  0  0  0  0  0  0  0  0  0  0
    3.4398   -5.3086    0.0000 C    0  0  0  0  0  0  0  0  0  0  0  0
    4.7233   -3.5733    0.0000 N    0  0  0  0  0  0  0  0  0  0  0  0
    5.5037   -4.6617    0.0000 C    0  0  0  0  0  0  0  0  0  0  0  0
    4.7233   -5.7296    0.0000 N    0  0  0  0  0  0  0  0  0  0  0  0
    6.8078   -4.6617    0.0000 S    0  0  0  0  0  0  0  0  0  0  0  0
    6.8078   -3.3166    0.0000 O    0  0  0  0  0  0  0  0  0  0  0  0
    8.1426   -4.6617    0.0000 O    0  0  0  0  0  0  0  0  0  0  0  0
    6.8078   -5.9863    0.0000 N    0  0  0  0  0  0  0  0  0  0  0  0
    7.9578   -6.6332    0.0000 C    0  0  0  0  0  0  0  0  0  0  0  0
    9.1181   -5.9863    0.0000 C    0  0  0  0  0  0  0  0  0  0  0  0
    7.9578   -7.9578    0.0000 C    0  0  0  0  0  0  0  0  0  0  0  0
   10.2681   -6.6332    0.0000 C    0  0  0  0  0  0  0  0  0  0  0  0
    9.1181   -8.6457    0.0000 C    0  0  0  0  0  0  0  0  0  0  0  0
   10.2681   -7.9578    0.0000 C    0  0  0  0  0  0  0  0  0  0  0  0
    9.1181   -4.6617    0.0000 Cl   0  0  0  0  0  0  0  0  0  0  0  0
    6.8078   -8.6457    0.0000 Cl   0  0  0  0  0  0  0  0  0  0  0  0
    2.3001   -1.9920    0.0000 O    0  0  0  0  0  0  0  0  0  0  0  0
    1.1500   -1.3451    0.0000 C    0  0  0  0  0  0  0  0  0  0  0  0
    1.1500    0.0000    0.0000 C    0  0  0  0  0  0  0  0  0  0  0  0
    0.0000   -5.9863    0.0000 F    0  0  0  0  0  0  0  0  0  0  0  0
  1  3  2  0  0  0  0
  1  5  1  0  0  0  0
  2  3  1  0  0  0  0
  2  6  1  0  0  0  0
  2  7  1  0  0  0  0
  3 22  1  0  0  0  0
  4  5  2  0  0  0  0
  4  6  1  0  0  0  0
  5 25  1  0  0  0  0
  6  9  2  0  0  0  0
  7  8  2  0  0  0  0
  8  9  1  0  0  0  0
  8 10  1  0  0  0  0
 10 11  2  0  0  0  0
 10 13  1  0  0  0  0
 10 12  2  0  0  0  0
 13 14  1  0  0  0  0
 14 15  2  0  0  0  0
 14 16  1  0  0  0  0
 15 17  1  0  0  0  0
 15 20  1  0  0  0  0
 16 18  2  0  0  0  0
 16 21  1  0  0  0  0
 17 19  2  0  0  0  0
 18 19  1  0  0  0  0
 22 23  1  0  0  0  0
 23 24  1  0  0  0  0
M  END
> <ID>
6818

> <Formula>
C13H10Cl2FN5O3S

> <FW>
406.2196

> <DSSTox_CID>
14528

> <DSSTox_RID>
79162

> <DSSTox_GSID>
34528

> <DSSTox_FileID_Sort>
3844

> <TS_ChemName>
Diclosulam

> <TS_ChemName_Synonyms>
Diclosulam ((1,2,4)Triazolo(1,5-c)pyrimidine-2-sulfonamide, N-(2,6-dichlorophenyl)-5-ethoxy-7-fluoro-)

> <TS_CASRN>
145701-21-9

> <CASRN_ChemName_Relationship>
primary

> <TS_Description>
single chemical compound

> <ChemNote>


> <STRUCTURE_Shown>
tested chemical

> <STRUCTURE_Formula>
C13H10Cl2FN5O3S

> <STRUCTURE_MW>
406.2196

> <STRUCTURE_ChemType>
defined organic

> <STRUCTURE_DefinedOrganicForm>
parent

> <STRUCTURE_IUPAC>
N-(2,6-dichlorophenyl)-5-ethoxy-7-fluoro[1,2,4]triazolo[1,5-c]pyrimidine-2-sulfonamide

> <STRUCTURE_SMILES>
Clc3cccc(Cl)c3NS(=O)(=O)c1nc2cc(F)nc(OCC)n2n1

> <STRUCTURE_SMILES_Desalt>
Clc3cccc(Cl)c3NS(=O)(=O)c1nc2cc(F)nc(OCC)n2n1

> <Substance_modify_yyyymmdd>
20080429

$$$$
