145701-23-1
ChemmineR-0915142007XD

 24 26  0  0  0  0  0  0  0  0  1 V2000
    0.0678   -4.1729    0.0000 N   0  0  0  0  0  0  0  0  0  0  0  0
    2.3430   -4.1729    0.0000 N   0  0  0  0  0  0  0  0  0  0  0  0
    1.1618   -4.8120    0.0000 C   0  0  0  0  0  0  0  0  0  0  0  0
    1.1618   -2.1397    0.0000 C   0  0  0  0  0  0  0  0  0  0  0  0
    0.0678   -2.7884    0.0000 C   0  0  0  0  0  0  0  0  0  0  0  0
    2.3430   -2.7884    0.0000 C   0  0  0  0  0  0  0  0  0  0  0  0
    3.5823   -4.5409    0.0000 N   0  0  0  0  0  0  0  0  0  0  0  0
    4.3956   -3.4565    0.0000 C   0  0  0  0  0  0  0  0  0  0  0  0
    3.5823   -2.4108    0.0000 N   0  0  0  0  0  0  0  0  0  0  0  0
    5.7124   -3.4565    0.0000 S   0  0  0  0  0  0  0  0  0  0  0  0
    5.7124   -2.0139    0.0000 O   0  0  0  0  0  0  0  0  0  0  0  0
    5.7124   -4.7442    0.0000 O   0  0  0  0  0  0  0  0  0  0  0  0
    7.0098   -3.4565    0.0000 N   0  0  0  0  0  0  0  0  0  0  0  0
    7.6875    0.0000    0.0000 C   0  0  0  0  0  0  0  0  0  0  0  0
    9.0139    0.0000    0.0000 C   0  0  0  0  0  0  0  0  0  0  0  0
    9.6820   -1.1618    0.0000 C   0  0  0  0  0  0  0  0  0  0  0  0
    9.0139   -2.3140    0.0000 C   0  0  0  0  0  0  0  0  0  0  0  0
    7.6875   -2.3140    0.0000 C   0  0  0  0  0  0  0  0  0  0  0  0
    7.0098   -1.1618    0.0000 C   0  0  0  0  0  0  0  0  0  0  0  0
    5.6833   -1.1618    0.0000 F   0  0  0  0  0  0  0  0  0  0  0  0
    9.6820   -3.4565    0.0000 F   0  0  0  0  0  0  0  0  0  0  0  0
    1.1618   -0.8133    0.0000 F   0  0  0  0  0  0  0  0  0  0  0  0
    1.1618   -6.1384    0.0000 O   0  0  0  0  0  0  0  0  0  0  0  0
    0.0000   -6.7871    0.0000 C   0  0  0  0  0  0  0  0  0  0  0  0
  1  3  2  0  0  0  0
  1  5  1  0  0  0  0
  2  3  1  0  0  0  0
  2  6  1  0  0  0  0
  2  7  1  0  0  0  0
  3 23  1  0  0  0  0
  4  5  2  0  0  0  0
  4  6  1  0  0  0  0
  4 22  1  0  0  0  0
  6  9  2  0  0  0  0
  7  8  2  0  0  0  0
  8  9  1  0  0  0  0
  8 10  1  0  0  0  0
 10 11  2  0  0  0  0
 10 13  1  0  0  0  0
 10 12  2  0  0  0  0
 13 18  1  0  0  0  0
 14 19  2  0  0  0  0
 14 15  1  0  0  0  0
 15 16  2  0  0  0  0
 16 17  1  0  0  0  0
 17 18  2  0  0  0  0
 17 21  1  0  0  0  0
 18 19  1  0  0  0  0
 19 20  1  0  0  0  0
 23 24  1  0  0  0  0
M  END
> <ID>
9998

> <Formula>
C12H8F3N5O3S

> <FW>
359.2838

> <DSSTox_CID>
24340

> <DSSTox_RID>
80157

> <DSSTox_GSID>
44340

> <DSSTox_FileID_Sort>
4839

> <TS_ChemName>
Florasulam

> <TS_ChemName_Synonyms>


> <TS_CASRN>
145701-23-1

> <CASRN_ChemName_Relationship>
primary

> <TS_Description>
single chemical compound

> <ChemNote>


> <STRUCTURE_Shown>
tested chemical

> <STRUCTURE_Formula>
C12H8F3N5O3S

> <STRUCTURE_MW>
359.2838

> <STRUCTURE_ChemType>
defined organic

> <STRUCTURE_DefinedOrganicForm>
parent

> <STRUCTURE_IUPAC>
N-(2,6-difluorophenyl)-8-fluoro-5-methoxy[1,2,4]triazolo[1,5-c]pyrimidine-2-sulfonamide

> <STRUCTURE_SMILES>
Fc3cccc(F)c3NS(=O)(=O)c1nc2c(F)cnc(OC)n2n1

> <STRUCTURE_SMILES_Desalt>
Fc3cccc(F)c3NS(=O)(=O)c1nc2c(F)cnc(OC)n2n1

> <Substance_modify_yyyymmdd>
20091022

$$$$
