145858-50-0
ChemmineR-0915142007XD

 23 25  0  0  0  0  0  0  0  0  1 V2000
    0.1107   -1.1548    0.0000 Cl   0  0  0  0  0  0  0  0  0  0  0  0
    1.4474   -1.1548    0.0000 C    0  0  0  0  0  0  0  0  0  0  0  0
    2.1039    0.0000    0.0000 C    0  0  0  0  0  0  0  0  0  0  0  0
    3.4326    0.0000    0.0000 C    0  0  0  0  0  0  0  0  0  0  0  0
    4.1049   -1.1548    0.0000 C    0  0  0  0  0  0  0  0  0  0  0  0
    3.4326   -2.3095    0.0000 C    0  0  0  0  0  0  0  0  0  0  0  0
    2.1039   -2.3095    0.0000 C    0  0  0  0  0  0  0  0  0  0  0  0
    4.1049   -3.4643    0.0000 C    0  0  0  0  0  0  0  0  0  0  0  0
    5.4416   -3.4643    0.0000 N    0  0  0  0  0  0  0  0  0  0  0  0
    6.2088   -2.3886    0.0000 C    0  0  0  0  0  0  0  0  0  0  0  0
    7.4742   -2.7920    0.0000 C    0  0  0  0  0  0  0  0  0  0  0  0
    7.4742   -4.1207    0.0000 N    0  0  0  0  0  0  0  0  0  0  0  0
    6.2088   -4.5399    0.0000 C    0  0  0  0  0  0  0  0  0  0  0  0
    3.4326   -4.6190    0.0000 C    0  0  0  0  0  0  0  0  0  0  0  0
    4.1049   -5.7579    0.0000 C    0  0  0  0  0  0  0  0  0  0  0  0
    3.4326   -6.9127    0.0000 C    0  0  0  0  0  0  0  0  0  0  0  0
    2.1039   -6.9127    0.0000 C    0  0  0  0  0  0  0  0  0  0  0  0
    1.2180   -7.9092    0.0000 N    0  0  0  0  0  0  0  0  0  0  0  0
    0.0000   -7.3635    0.0000 C    0  0  0  0  0  0  0  0  0  0  0  0
    0.1424   -6.0506    0.0000 N    0  0  0  0  0  0  0  0  0  0  0  0
    1.4474   -5.7579    0.0000 C    0  0  0  0  0  0  0  0  0  0  0  0
    2.1039   -4.6190    0.0000 C    0  0  0  0  0  0  0  0  0  0  0  0
    0.1107   -3.4643    0.0000 Cl   0  0  0  0  0  0  0  0  0  0  0  0
  1  2  1  0  0  0  0
  2  3  2  0  0  0  0
  2  7  1  0  0  0  0
  3  4  1  0  0  0  0
  4  5  2  0  0  0  0
  5  6  1  0  0  0  0
  6  7  2  0  0  0  0
  6  8  1  0  0  0  0
  8  9  1  0  0  0  0
  8 14  1  0  0  0  0
  9 10  1  0  0  0  0
  9 13  1  0  0  0  0
 10 11  2  0  0  0  0
 11 12  1  0  0  0  0
 12 13  2  0  0  0  0
 14 15  2  0  0  0  0
 14 22  1  0  0  0  0
 15 16  1  0  0  0  0
 16 17  2  0  0  0  0
 17 18  1  0  0  0  0
 17 21  1  0  0  0  0
 18 19  2  0  0  0  0
 19 20  1  0  0  0  0
 20 21  1  0  0  0  0
 21 22  2  0  0  0  0
M  END
> <ID>
11993

> <Formula>
C17H14Cl2N4

> <FW>
345.2259 (308.7649+36.4609)

> <DSSTox_CID>
26817

> <DSSTox_RID>
81929

> <DSSTox_GSID>
46817

> <DSSTox_FileID_Sort>
6610

> <TS_ChemName>
Liarozole hydrochloride

> <TS_ChemName_Synonyms>


> <TS_CASRN>
145858-50-0

> <CASRN_ChemName_Relationship>
primary

> <TS_Description>
single chemical compound

> <ChemNote>
tautomers; parent [115575-11-6]

> <STRUCTURE_Shown>
tested chemical

> <STRUCTURE_Formula>
C17H14Cl2N4

> <STRUCTURE_MW>
345.2259

> <STRUCTURE_ChemType>
defined organic

> <STRUCTURE_DefinedOrganicForm>
complex

> <STRUCTURE_IUPAC>
6-[(3-chlorophenyl)(1H-imidazol-1-yl)methyl]-1H-benzimidazole hydrochloride (1:1)

> <STRUCTURE_SMILES>
Cl.Clc1cc(ccc1)C(c2ccc3ncnc3c2)n4ccnc4

> <STRUCTURE_SMILES_Desalt>
Clc1cc(ccc1)C(c2ccc3ncnc3c2)n4ccnc4

> <Substance_modify_yyyymmdd>
20110801

$$$$
