145821-59-6
ChemmineR-0915142007XD

 26 27  0  0  1  0  0  0  0  0  1 V2000
    3.2664   -3.3911    0.0000 C    0  0  0  0  0  0  0  0  0  0  0  0
    2.1070   -4.0519    0.0000 C    0  0  0  0  0  0  0  0  0  0  0  0
    3.2664   -2.0571    0.0000 C    0  0  0  0  0  0  0  0  0  0  0  0
    4.4259   -4.0519    0.0000 C    0  0  0  0  0  0  0  0  0  0  0  0
    1.9574   -5.3609    0.0000 C    0  0  0  0  0  0  0  0  0  0  0  0
    0.8976   -3.5158    0.0000 S    0  0  0  0  0  0  0  0  0  0  0  0
    2.1818   -1.2841    0.0000 C    0  0  0  0  0  0  0  0  0  0  0  0
    4.3386   -1.2841    0.0000 S    0  0  0  0  0  0  0  0  0  0  0  0
    5.5604   -3.3911    0.0000 C    0  0  0  0  0  0  0  0  0  0  0  0
    0.6732   -5.6477    0.0000 C    0  0  0  0  0  0  0  0  0  0  0  0
    2.9547   -6.2586    0.0000 C    0  0  0  0  0  0  0  0  0  0  0  0
    0.0000   -4.5007    0.0000 C    0  0  0  0  0  0  0  0  0  0  0  0
    2.6057    0.0000    0.0000 C    0  0  0  0  0  0  0  0  0  0  0  0
    0.9226   -1.6831    0.0000 C    0  0  0  0  0  0  0  0  0  0  0  0
    3.9272    0.0000    0.0000 C    0  0  0  0  0  0  0  0  0  0  0  0
    6.7199   -4.0519    0.0000 C    0  0  0  0  0  0  0  0  0  0  0  0
    7.8668   -3.3911    0.0000 N    0  0  0  0  0  0  0  0  0  0  0  0
    9.0138   -4.0519    0.0000 C    0  0  0  0  0  0  0  0  0  0  0  0
    7.8668   -2.0571    0.0000 C    0  0  0  0  0  0  0  0  0  0  0  0
   10.1733   -3.3911    0.0000 C    0  0  0  0  0  0  0  0  0  0  0  0
    9.0138   -1.3839    0.0000 C    0  0  0  0  0  0  0  0  0  0  0  0
   10.1733   -2.0571    0.0000 C    0  0  0  0  0  0  0  0  0  0  0  0
   11.3203   -4.0394    0.0000 C    0  0  0  0  0  0  0  0  0  0  0  0
   11.3203   -5.3859    0.0000 O    0  0  0  0  0  0  0  0  0  0  0  0
   12.4673   -3.3911    0.0000 O    0  0  0  0  0  0  0  0  0  0  0  0
    7.8045   -5.1614    0.0000 Cl   0  0  0  0  0  0  0  0  0  0  0  0
  1  2  1  0  0  0  0
  1  3  1  0  0  0  0
  1  4  2  0  0  0  0
  2  5  2  0  0  0  0
  2  6  1  0  0  0  0
  3  7  2  0  0  0  0
  3  8  1  0  0  0  0
  4  9  1  0  0  0  0
  5 10  1  0  0  0  0
  5 11  1  0  0  0  0
  6 12  1  0  0  0  0
  7 13  1  0  0  0  0
  7 14  1  0  0  0  0
  8 15  1  0  0  0  0
  9 16  1  0  0  0  0
 10 12  2  0  0  0  0
 13 15  2  0  0  0  0
 16 17  1  0  0  0  0
 17 18  1  0  0  0  0
 17 19  1  0  0  0  0
 18 20  1  0  0  0  0
 19 21  1  0  0  0  0
 20 22  1  0  0  0  0
 20 23  1  1  0  0  0
 21 22  1  0  0  0  0
 23 24  1  0  0  0  0
 23 25  2  0  0  0  0
M  END
> <ID>
9913

> <Formula>
C20H26ClNO2S2

> <FW>
412.0089 (375.5480+36.4609)

> <DSSTox_CID>
24218

> <DSSTox_RID>
80125

> <DSSTox_GSID>
44218

> <DSSTox_FileID_Sort>
4807

> <TS_ChemName>
Tiagabine hydrochloride

> <TS_ChemName_Synonyms>


> <TS_CASRN>
145821-59-6

> <CASRN_ChemName_Relationship>
primary

> <TS_Description>
single chemical compound

> <ChemNote>
stereochem; parent [115103-54-3]

> <STRUCTURE_Shown>
tested chemical

> <STRUCTURE_Formula>
C20H26ClNO2S2

> <STRUCTURE_MW>
412.0089

> <STRUCTURE_ChemType>
defined organic

> <STRUCTURE_DefinedOrganicForm>
complex

> <STRUCTURE_IUPAC>
(3R)-1-[4,4-bis(3-methylthiophen-2-yl)but-3-en-1-yl]piperidine-3-carboxylic acid hydrochloride (1:1)

> <STRUCTURE_SMILES>
Cl.Cc3ccsc3C(=C\CCN1CCC[C@H](C1)C(=O)O)\c2sccc2C

> <STRUCTURE_SMILES_Desalt>
Cc3ccsc3C(=C\CCN1CCC[C@H](C1)C(=O)O)\c2sccc2C

> <Substance_modify_yyyymmdd>
20090302

$$$$
