14587-50-9
ChemmineR-0915142007XD

 28 30  0  0  0  0  0  0  0  0  1 V2000
    2.2894   -4.6593    0.0000 C   0  0  0  0  0  0  0  0  0  0  0  0
    2.2894   -5.9938    0.0000 C   0  0  0  0  0  0  0  0  0  0  0  0
    1.1389   -4.0036    0.0000 C   0  0  0  0  0  0  0  0  0  0  0  0
    1.1389   -6.6611    0.0000 C   0  0  0  0  0  0  0  0  0  0  0  0
    0.0000   -4.6593    0.0000 C   0  0  0  0  0  0  0  0  0  0  0  0
    0.0000   -5.9938    0.0000 C   0  0  0  0  0  0  0  0  0  0  0  0
    1.1389   -2.6690    0.0000 C   0  0  0  0  0  0  0  0  0  0  0  0
    2.2894   -2.0018    0.0000 C   0  0  0  0  0  0  0  0  0  0  0  0
    0.0000   -2.0018    0.0000 O   0  0  0  0  0  0  0  0  0  0  0  0
    3.4398   -2.6690    0.0000 N   0  0  0  0  0  0  0  0  0  0  0  0
    2.2894   -0.6673    0.0000 C   0  0  0  0  0  0  0  0  0  0  0  0
    3.4398   -4.0036    0.0000 C   0  0  0  0  0  0  0  0  0  0  0  0
    4.6018   -2.0018    0.0000 C   0  0  0  0  0  0  0  0  0  0  0  0
    5.7523   -2.6690    0.0000 C   0  0  0  0  0  0  0  0  0  0  0  0
    6.9027   -2.0018    0.0000 O   0  0  0  0  0  0  0  0  0  0  0  0
    8.0647   -2.6690    0.0000 C   0  0  0  0  0  0  0  0  0  0  0  0
    8.0647   -4.0036    0.0000 C   0  0  0  0  0  0  0  0  0  0  0  0
    9.2151   -4.6593    0.0000 C   0  0  0  0  0  0  0  0  0  0  0  0
    6.9027   -4.6593    0.0000 C   0  0  0  0  0  0  0  0  0  0  0  0
    9.2151   -5.9938    0.0000 C   0  0  0  0  0  0  0  0  0  0  0  0
    6.9027   -5.9938    0.0000 C   0  0  0  0  0  0  0  0  0  0  0  0
    8.0647   -6.6611    0.0000 C   0  0  0  0  0  0  0  0  0  0  0  0
    9.2151   -2.0018    0.0000 C   0  0  0  0  0  0  0  0  0  0  0  0
    9.2151   -0.6673    0.0000 C   0  0  0  0  0  0  0  0  0  0  0  0
   10.3656   -2.6575    0.0000 C   0  0  0  0  0  0  0  0  0  0  0  0
   10.3656    0.0000    0.0000 C   0  0  0  0  0  0  0  0  0  0  0  0
   11.5045   -2.0018    0.0000 C   0  0  0  0  0  0  0  0  0  0  0  0
   11.5045   -0.6673    0.0000 C   0  0  0  0  0  0  0  0  0  0  0  0
  1  2  1  0  0  0  0
  1  3  2  0  0  0  0
  2  4  2  0  0  0  0
  3  5  1  0  0  0  0
  3  7  1  0  0  0  0
  4  6  1  0  0  0  0
  5  6  2  0  0  0  0
  7  8  1  0  0  0  0
  7  9  1  0  0  0  0
  8 10  1  0  0  0  0
  8 11  1  0  0  0  0
 10 12  1  0  0  0  0
 10 13  1  0  0  0  0
 13 14  1  0  0  0  0
 14 15  1  0  0  0  0
 15 16  1  0  0  0  0
 16 17  1  0  0  0  0
 16 23  1  0  0  0  0
 17 18  1  0  0  0  0
 17 19  2  0  0  0  0
 18 20  2  0  0  0  0
 19 21  1  0  0  0  0
 20 22  1  0  0  0  0
 21 22  2  0  0  0  0
 23 24  1  0  0  0  0
 23 25  2  0  0  0  0
 24 26  2  0  0  0  0
 25 27  1  0  0  0  0
 26 28  1  0  0  0  0
 27 28  2  0  0  0  0
M  END
> <ID>
13838

> <Formula>
C25H29NO2

> <FW>
375.5033

> <DSSTox_CID>
28775

> <DSSTox_RID>
83044

> <DSSTox_GSID>
48849

> <DSSTox_FileID_Sort>
7721

> <TS_ChemName>
Difeterol

> <TS_ChemName_Synonyms>


> <TS_CASRN>
14587-50-9

> <CASRN_ChemName_Relationship>
primary

> <TS_Description>
single chemical compound

> <ChemNote>


> <STRUCTURE_Shown>
tested chemical

> <STRUCTURE_Formula>
C25H29NO2

> <STRUCTURE_MW>
375.5033

> <STRUCTURE_ChemType>
defined organic

> <STRUCTURE_DefinedOrganicForm>
parent

> <STRUCTURE_IUPAC>
2-{[2-(diphenylmethoxy)ethyl](methyl)amino}-1-phenylpropan-1-ol

> <STRUCTURE_SMILES>
OC(C(C)N(C)CCOC(c1ccccc1)c2ccccc2)c3ccccc3

> <STRUCTURE_SMILES_Desalt>
OC(C(C)N(C)CCOC(c1ccccc1)c2ccccc2)c3ccccc3

> <Substance_modify_yyyymmdd>
20111204

$$$$
