1458-18-0
ChemmineR-0915142007XD

 13 13  0  0  0  0  0  0  0  0  1 V2000
    2.6609   -6.9114    0.0000 C    0  0  0  0  0  0  0  0  0  0  0  0
    1.9974   -5.7572    0.0000 O    0  0  0  0  0  0  0  0  0  0  0  0
    2.6609   -4.6099    0.0000 C    0  0  0  0  0  0  0  0  0  0  0  0
    3.9879   -4.6099    0.0000 O    0  0  0  0  0  0  0  0  0  0  0  0
    1.9974   -3.4557    0.0000 C    0  0  0  0  0  0  0  0  0  0  0  0
    2.6609   -2.3015    0.0000 N    0  0  0  0  0  0  0  0  0  0  0  0
    1.9974   -1.1542    0.0000 C    0  0  0  0  0  0  0  0  0  0  0  0
    0.6635   -1.1542    0.0000 C    0  0  0  0  0  0  0  0  0  0  0  0
    0.0000    0.0000    0.0000 Cl   0  0  0  0  0  0  0  0  0  0  0  0
    0.0000   -2.3015    0.0000 N    0  0  0  0  0  0  0  0  0  0  0  0
    0.6635   -3.4557    0.0000 C    0  0  0  0  0  0  0  0  0  0  0  0
    0.0000   -4.6099    0.0000 N    0  0  0  0  0  0  0  0  0  0  0  0
    2.6609    0.0000    0.0000 Cl   0  0  0  0  0  0  0  0  0  0  0  0
  1  2  1  0  0  0  0
  2  3  1  0  0  0  0
  3  4  2  0  0  0  0
  3  5  1  0  0  0  0
  5  6  2  0  0  0  0
  5 11  1  0  0  0  0
  6  7  1  0  0  0  0
  7  8  2  0  0  0  0
  7 13  1  0  0  0  0
  8  9  1  0  0  0  0
  8 10  1  0  0  0  0
 10 11  2  0  0  0  0
 11 12  1  0  0  0  0
M  END
> <ID>
16049

> <Formula>
C6H5Cl2N3O2

> <FW>
222.0288

> <DSSTox_CID>
31434

> <DSSTox_RID>
97320

> <DSSTox_GSID>
57645

> <DSSTox_FileID_Sort>
8387

> <TS_ChemName>
Methyl 3-amino-5,6-dichloropyrazine-2-carboxylate

> <TS_ChemName_Synonyms>


> <TS_CASRN>
1458-18-0

> <CASRN_ChemName_Relationship>
primary

> <TS_Description>
single chemical compound

> <ChemNote>


> <STRUCTURE_Shown>
tested chemical

> <STRUCTURE_Formula>
C6H5Cl2N3O2

> <STRUCTURE_MW>
222.0288

> <STRUCTURE_ChemType>
defined organic

> <STRUCTURE_DefinedOrganicForm>
parent

> <STRUCTURE_IUPAC>
methyl 3-amino-5,6-dichloropyrazine-2-carboxylate

> <STRUCTURE_SMILES>
Clc1nc(C(=O)OC)c(N)nc1Cl

> <STRUCTURE_SMILES_Desalt>
Clc1nc(C(=O)OC)c(N)nc1Cl

> <Substance_modify_yyyymmdd>
20131018

$$$$
