14586-35-7
ChemmineR-0915142007XD

 11  9  0  0  0  0  0  0  0  0  2 V2000
    1.1583   -1.1583    0.0000 N   0  3  0  0  0  0  0  0  0  0  0  0
    4.6003   -0.4936    0.0000 O   0  0  0  0  0  0  0  0  0  0  0  0
    2.3034   -0.4936    0.0000 C   0  0  0  0  0  0  0  0  0  0  0  0
    0.0000   -1.8296    0.0000 C   0  0  0  0  0  0  0  0  0  0  0  0
    0.5002    0.0000    0.0000 C   0  0  0  0  0  0  0  0  0  0  0  0
    1.8164   -2.3166    0.0000 C   0  0  0  0  0  0  0  0  0  0  0  0
    3.4420   -1.1583    0.0000 C   0  0  0  0  0  0  0  0  0  0  0  0
    5.4361   -2.6193    0.0000 C   0  0  0  0  0  0  0  0  0  0  0  0
    5.4361   -3.9553    0.0000 O   0  0  0  0  0  0  0  0  0  0  0  0
    6.5812   -1.9612    0.0000 O   0  5  0  0  0  0  0  0  0  0  0  0
    4.2778   -1.9612    0.0000 C   0  0  0  0  0  0  0  0  0  0  0  0
  1  3  1  0  0  0  0
  1  4  1  0  0  0  0
  1  5  1  0  0  0  0
  1  6  1  0  0  0  0
  2  7  1  0  0  0  0
  3  7  1  0  0  0  0
  8  9  2  0  0  0  0
  8 10  1  0  0  0  0
  8 11  1  0  0  0  0
M  END
> <ID>
13976

> <Formula>
C7H17NO3

> <FW>
163.2148 (104.1702+59.0446)

> <DSSTox_CID>
28916

> <DSSTox_RID>
83183

> <DSSTox_GSID>
48990

> <DSSTox_FileID_Sort>
7859

> <TS_ChemName>
Cholin acetate

> <TS_ChemName_Synonyms>


> <TS_CASRN>
14586-35-7

> <CASRN_ChemName_Relationship>
primary

> <TS_Description>
single chemical compound

> <ChemNote>


> <STRUCTURE_Shown>
tested chemical

> <STRUCTURE_Formula>
C7H17NO3

> <STRUCTURE_MW>
163.2148

> <STRUCTURE_ChemType>
defined organic

> <STRUCTURE_DefinedOrganicForm>
complex

> <STRUCTURE_IUPAC>
2-hydroxy-N,N,N-trimethylethanaminium acetate

> <STRUCTURE_SMILES>
O=C([O-])C.C[N+](C)(C)CCO

> <STRUCTURE_SMILES_Desalt>
C[N+](C)(C)CCO

> <Substance_modify_yyyymmdd>
20111204

$$$$
