1459-93-4
ChemmineR-0915142007XD

 14 14  0  0  0  0  0  0  0  0  1 V2000
    5.7505   -2.6578    0.0000 C   0  0  0  0  0  0  0  0  0  0  0  0
    5.7505   -3.9867    0.0000 C   0  0  0  0  0  0  0  0  0  0  0  0
    4.5988   -4.6471    0.0000 C   0  0  0  0  0  0  0  0  0  0  0  0
    3.4390   -3.9867    0.0000 C   0  0  0  0  0  0  0  0  0  0  0  0
    3.4390   -2.6578    0.0000 C   0  0  0  0  0  0  0  0  0  0  0  0
    4.5988   -1.9893    0.0000 C   0  0  0  0  0  0  0  0  0  0  0  0
    6.9022   -1.9893    0.0000 C   0  0  0  0  0  0  0  0  0  0  0  0
    8.0539   -2.6578    0.0000 O   0  0  0  0  0  0  0  0  0  0  0  0
    6.9022   -0.6604    0.0000 O   0  0  0  0  0  0  0  0  0  0  0  0
    2.2873   -1.9893    0.0000 C   0  0  0  0  0  0  0  0  0  0  0  0
    2.2873   -0.6604    0.0000 O   0  0  0  0  0  0  0  0  0  0  0  0
    1.1517   -2.6578    0.0000 O   0  0  0  0  0  0  0  0  0  0  0  0
    8.0539    0.0000    0.0000 C   0  0  0  0  0  0  0  0  0  0  0  0
    0.0000   -1.9893    0.0000 C   0  0  0  0  0  0  0  0  0  0  0  0
  1  2  2  0  0  0  0
  1  6  1  0  0  0  0
  1  7  1  0  0  0  0
  2  3  1  0  0  0  0
  3  4  2  0  0  0  0
  4  5  1  0  0  0  0
  5  6  2  0  0  0  0
  5 10  1  0  0  0  0
  7  8  2  0  0  0  0
  7  9  1  0  0  0  0
  9 13  1  0  0  0  0
 10 11  2  0  0  0  0
 10 12  1  0  0  0  0
 12 14  1  0  0  0  0
M  END
> <ID>
5134

> <Formula>
C10H10O4

> <FW>
194.184

> <DSSTox_CID>
7402

> <DSSTox_RID>
78440

> <DSSTox_GSID>
27402

> <DSSTox_FileID_Sort>
3123

> <TS_ChemName>
Dimethyl isophthalate

> <TS_ChemName_Synonyms>
Dimethyl isophthalate (1,3-Benzenedicarboxylic acid, dimethyl ester)

> <TS_CASRN>
1459-93-4

> <CASRN_ChemName_Relationship>
primary

> <TS_Description>
single chemical compound

> <ChemNote>


> <STRUCTURE_Shown>
tested chemical

> <STRUCTURE_Formula>
C10H10O4

> <STRUCTURE_MW>
194.184

> <STRUCTURE_ChemType>
defined organic

> <STRUCTURE_DefinedOrganicForm>
parent

> <STRUCTURE_IUPAC>
dimethyl benzene-1,3-dicarboxylate

> <STRUCTURE_SMILES>
COC(=O)c1cccc(c1)C(=O)OC

> <STRUCTURE_SMILES_Desalt>
COC(=O)c1cccc(c1)C(=O)OC

> <Substance_modify_yyyymmdd>
20080429

$$$$
