145918-75-8
ChemmineR-0915142007XD

 15 16  0  0  1  0  0  0  0  0  1 V2000
    3.3766   -6.0983    0.0000 O   0  0  0  0  0  0  0  0  0  0  0  0
    2.3064   -5.3141    0.0000 C   0  0  0  0  0  0  0  0  0  0  0  0
    1.2363   -6.0983    0.0000 C   0  0  0  0  0  0  0  0  0  0  0  0
    1.6330   -7.3714    0.0000 O   0  0  0  0  0  0  0  0  0  0  0  0
    2.9615   -7.3714    0.0000 C   0  0  0  0  0  0  0  0  0  0  0  0
    3.1091   -8.6815    0.0000 C   0  0  0  0  0  0  0  0  0  0  0  0
    4.3269   -9.2258    0.0000 O   0  0  0  0  0  0  0  0  0  0  0  0
    2.3064   -3.9855    0.0000 N   0  0  0  0  0  0  0  0  0  0  0  0
    3.4597   -3.3121    0.0000 C   0  0  0  0  0  0  0  0  0  0  0  0
    3.4597   -1.9835    0.0000 C   0  0  0  0  0  0  0  0  0  0  0  0
    2.3064   -1.3285    0.0000 C   0  0  0  0  0  0  0  0  0  0  0  0
    1.1532   -1.9835    0.0000 N   0  0  0  0  0  0  0  0  0  0  0  0
    1.1532   -3.3121    0.0000 C   0  0  0  0  0  0  0  0  0  0  0  0
    0.0000   -3.9855    0.0000 O   0  0  0  0  0  0  0  0  0  0  0  0
    2.3064    0.0000    0.0000 N   0  0  0  0  0  0  0  0  0  0  0  0
  1  2  1  0  0  0  0
  1  5  1  0  0  0  0
  2  3  1  0  0  0  0
  8  2  1  1  0  0  0
  3  4  1  0  0  0  0
  4  5  1  0  0  0  0
  5  6  1  1  0  0  0
  6  7  1  0  0  0  0
  8  9  1  0  0  0  0
  8 13  1  0  0  0  0
  9 10  2  0  0  0  0
 10 11  1  0  0  0  0
 11 12  2  0  0  0  0
 11 15  1  0  0  0  0
 12 13  1  0  0  0  0
 13 14  2  0  0  0  0
M  END
> <ID>
13780

> <Formula>
C8H11N3O4

> <FW>
213.1906

> <DSSTox_CID>
28717

> <DSSTox_RID>
82986

> <DSSTox_GSID>
48791

> <DSSTox_FileID_Sort>
7663

> <TS_ChemName>
Troxacitabine

> <TS_ChemName_Synonyms>
TROXACITABINE (Troxatyl)

> <TS_CASRN>
145918-75-8

> <CASRN_ChemName_Relationship>
primary

> <TS_Description>
single chemical compound

> <ChemNote>


> <STRUCTURE_Shown>
tested chemical

> <STRUCTURE_Formula>
C8H11N3O4

> <STRUCTURE_MW>
213.1906

> <STRUCTURE_ChemType>
defined organic

> <STRUCTURE_DefinedOrganicForm>
parent

> <STRUCTURE_IUPAC>
4-amino-1-[(2S,4S)-2-(hydroxymethyl)-1,3-dioxolan-4-yl]pyrimidin-2(1H)-one

> <STRUCTURE_SMILES>
OC[C@H]1OCC(O1)[N@@]2C=CC(N)=NC2=O

> <STRUCTURE_SMILES_Desalt>
OC[C@H]1OCC(O1)[N@@]2C=CC(N)=NC2=O

> <Substance_modify_yyyymmdd>
20111204

$$$$
