146-48-5
ChemmineR-0915142007XD

 29 33  0  0  1  0  0  0  0  0  1 V2000
    4.3712   -1.9029    0.0000 C   0  0  0  0  0  0  0  0  0  0  0  0
    4.3712   -0.6373    0.0000 C   0  0  0  0  0  0  0  0  0  0  0  0
    3.2492   -2.5581    0.0000 N   0  0  0  0  0  0  0  0  0  0  0  0
    5.4214   -2.5581    0.0000 C   0  0  0  0  0  0  0  0  0  0  0  0
    6.5434   -4.5597    0.0000 C   0  0  0  0  0  0  0  0  0  0  0  0
    6.5254   -1.9029    0.0000 N   0  0  0  0  0  0  0  0  0  0  0  0
    6.5434   -5.8702    0.0000 C   0  0  0  0  0  0  0  0  0  0  0  0
    5.4214   -3.9045    0.0000 C   0  0  0  0  0  0  0  0  0  0  0  0
    2.1901   -0.6373    0.0000 C   0  0  0  0  0  0  0  0  0  0  0  0
    2.1901   -1.9029    0.0000 C   0  0  0  0  0  0  0  0  0  0  0  0
    7.7012   -3.8865    0.0000 C   0  0  0  0  0  0  0  0  0  0  0  0
    5.4214   -6.5254    0.0000 C   0  0  0  0  0  0  0  0  0  0  0  0
    7.7012   -2.5222    0.0000 C   0  0  0  0  0  0  0  0  0  0  0  0
    5.4214    0.0000    0.0000 C   0  0  0  0  0  0  0  0  0  0  0  0
    6.5254   -0.6373    0.0000 C   0  0  0  0  0  0  0  0  0  0  0  0
    7.7012   -6.5254    0.0000 C   0  0  0  0  0  0  0  0  0  0  0  0
    5.4214   -7.8538    0.0000 O   0  0  0  0  0  0  0  0  0  0  0  0
    8.8591   -4.5238    0.0000 C   0  0  0  0  0  0  0  0  0  0  0  0
    8.8591   -5.8522    0.0000 C   0  0  0  0  0  0  0  0  0  0  0  0
    4.2815   -5.8522    0.0000 O   0  0  0  0  0  0  0  0  0  0  0  0
    7.7012   -7.8538    0.0000 O   0  0  0  0  0  0  0  0  0  0  0  0
    1.0861    0.0000    0.0000 C   0  0  0  0  0  0  0  0  0  0  0  0
    1.0861   -2.5581    0.0000 C   0  0  0  0  0  0  0  0  0  0  0  0
    3.1236   -6.5254    0.0000 C   0  0  0  0  0  0  0  0  0  0  0  0
    0.0000   -0.6373    0.0000 C   0  0  0  0  0  0  0  0  0  0  0  0
    0.0000   -1.9029    0.0000 C   0  0  0  0  0  0  0  0  0  0  0  0
    8.9758   -3.2313    0.0000 H   0  0  0  0  0  0  0  0  0  0  0  0
    5.4214   -5.2149    0.0000 H   0  0  0  0  0  0  0  0  0  0  0  0
    4.2635   -3.2133    0.0000 H   0  0  0  0  0  0  0  0  0  0  0  0
  1  2  2  0  0  0  0
  1  3  1  0  0  0  0
  1  4  1  0  0  0  0
  2  9  1  0  0  0  0
  2 14  1  0  0  0  0
  3 10  1  0  0  0  0
  4  6  1  0  0  0  0
  4  8  1  0  0  0  0
  4 29  1  6  0  0  0
  5  8  1  0  0  0  0
  5  7  1  0  0  0  0
  5 11  1  0  0  0  0
  5 28  1  6  0  0  0
  6 13  1  0  0  0  0
  6 15  1  0  0  0  0
  7 12  1  6  0  0  0
  7 16  1  0  0  0  0
  9 22  1  0  0  0  0
  9 10  2  0  0  0  0
 10 23  1  0  0  0  0
 11 18  1  0  0  0  0
 11 27  1  1  0  0  0
 11 13  1  0  0  0  0
 12 17  2  0  0  0  0
 12 20  1  0  0  0  0
 14 15  1  0  0  0  0
 16 21  1  6  0  0  0
 16 19  1  0  0  0  0
 18 19  1  0  0  0  0
 20 24  1  0  0  0  0
 22 25  2  0  0  0  0
 23 26  2  0  0  0  0
 25 26  1  0  0  0  0
M  END
> <ID>
7582

> <Formula>
C21H26N2O3

> <FW>
354.4427

> <DSSTox_CID>
20130

> <DSSTox_RID>
79446

> <DSSTox_GSID>
40130

> <DSSTox_FileID_Sort>
4128

> <TS_ChemName>
Yohimbine

> <TS_ChemName_Synonyms>


> <TS_CASRN>
146-48-5

> <CASRN_ChemName_Relationship>
primary

> <TS_Description>
single chemical compound

> <ChemNote>
stereochem

> <STRUCTURE_Shown>
tested chemical

> <STRUCTURE_Formula>
C21H26N2O3

> <STRUCTURE_MW>
354.4427

> <STRUCTURE_ChemType>
defined organic

> <STRUCTURE_DefinedOrganicForm>
parent

> <STRUCTURE_IUPAC>
methyl (16alpha,17alpha)-17-hydroxyyohimban-16-carboxylate

> <STRUCTURE_SMILES>
O=C(OC)[C@H]2[C@@H](O)CC[C@H]3CN4CCc1c5ccccc5nc1[C@@H]4C[C@H]23

> <STRUCTURE_SMILES_Desalt>
O=C(OC)[C@H]2[C@@H](O)CC[C@H]3CN4CCc1c5ccccc5nc1[C@@H]4C[C@H]23

> <Substance_modify_yyyymmdd>
20080429

$$$$
