146011-65-6
ChemmineR-0915142007XD

 38 42  0  0  0  0  0  0  0  0  1 V2000
    5.7654   -7.5291    0.0000 C    0  0  0  0  0  0  0  0  0  0  0  0
    5.7654   -8.8548    0.0000 O    0  0  0  0  0  0  0  0  0  0  0  0
    6.9087   -6.8722    0.0000 N    0  0  0  0  0  0  0  0  0  0  0  0
    4.6099   -6.8722    0.0000 N    0  0  0  0  0  0  0  0  0  0  0  0
    8.0642   -7.5291    0.0000 C    0  0  0  0  0  0  0  0  0  0  0  0
    8.0642   -8.8548    0.0000 C    0  0  0  0  0  0  0  0  0  0  0  0
    9.2197   -9.5360    0.0000 C    0  0  0  0  0  0  0  0  0  0  0  0
    6.9087   -9.5360    0.0000 C    0  0  0  0  0  0  0  0  0  0  0  0
    9.2197  -10.8618    0.0000 C    0  0  0  0  0  0  0  0  0  0  0  0
    6.9087  -10.8618    0.0000 C    0  0  0  0  0  0  0  0  0  0  0  0
    8.0642  -11.5186    0.0000 C    0  0  0  0  0  0  0  0  0  0  0  0
    6.9087   -5.5464    0.0000 C    0  0  0  0  0  0  0  0  0  0  0  0
    9.2806   -5.4126    0.0000 O    0  0  0  0  0  0  0  0  0  0  0  0
   10.1806   -4.4153    0.0000 C    0  0  0  0  0  0  0  0  0  0  0  0
    8.0642   -4.8653    0.0000 C    0  0  0  0  0  0  0  0  0  0  0  0
    9.4995   -3.2841    0.0000 C    0  0  0  0  0  0  0  0  0  0  0  0
    8.2102   -3.5517    0.0000 C    0  0  0  0  0  0  0  0  0  0  0  0
   11.5064   -4.4153    0.0000 C    0  0  0  0  0  0  0  0  0  0  0  0
   12.1633   -3.2841    0.0000 C    0  0  0  0  0  0  0  0  0  0  0  0
   11.5064   -2.1286    0.0000 C    0  0  0  0  0  0  0  0  0  0  0  0
   10.1806   -2.1286    0.0000 C    0  0  0  0  0  0  0  0  0  0  0  0
    4.9626   -2.1772    0.0000 C    0  0  0  0  0  0  0  0  0  0  0  0
    5.2424   -0.8758    0.0000 C    0  0  0  0  0  0  0  0  0  0  0  0
    6.5073   -0.4622    0.0000 C    0  0  0  0  0  0  0  0  0  0  0  0
    7.5047   -1.3623    0.0000 C    0  0  0  0  0  0  0  0  0  0  0  0
    7.2128   -2.6516    0.0000 C    0  0  0  0  0  0  0  0  0  0  0  0
    5.9478   -3.0773    0.0000 C    0  0  0  0  0  0  0  0  0  0  0  0
    4.2450    0.0000    0.0000 Cl   0  0  0  0  0  0  0  0  0  0  0  0
   12.1633   -0.9731    0.0000 C    0  0  0  0  0  0  0  0  0  0  0  0
    2.3110   -9.5360    0.0000 C    0  0  0  0  0  0  0  0  0  0  0  0
    1.1555   -8.8548    0.0000 C    0  0  0  0  0  0  0  0  0  0  0  0
    1.1555   -7.5291    0.0000 C    0  0  0  0  0  0  0  0  0  0  0  0
    2.3110   -6.8722    0.0000 C    0  0  0  0  0  0  0  0  0  0  0  0
    3.4665   -7.5291    0.0000 C    0  0  0  0  0  0  0  0  0  0  0  0
    3.4665   -8.8548    0.0000 C    0  0  0  0  0  0  0  0  0  0  0  0
    4.6099   -9.5360    0.0000 F    0  0  0  0  0  0  0  0  0  0  0  0
    0.0000   -9.5360    0.0000 F    0  0  0  0  0  0  0  0  0  0  0  0
    2.3110   -5.5464    0.0000 F    0  0  0  0  0  0  0  0  0  0  0  0
  1  2  2  0  0  0  0
  1  3  1  0  0  0  0
  1  4  1  0  0  0  0
  3  5  1  0  0  0  0
  3 12  1  0  0  0  0
  4 34  1  0  0  0  0
  5  6  1  0  0  0  0
  6  7  2  0  0  0  0
  6  8  1  0  0  0  0
  7  9  1  0  0  0  0
  8 10  2  0  0  0  0
  9 11  2  0  0  0  0
 10 11  1  0  0  0  0
 12 15  1  0  0  0  0
 13 14  1  0  0  0  0
 13 15  1  0  0  0  0
 14 16  2  0  0  0  0
 14 18  1  0  0  0  0
 15 17  2  0  0  0  0
 16 17  1  0  0  0  0
 16 21  1  0  0  0  0
 17 26  1  0  0  0  0
 18 19  2  0  0  0  0
 19 20  1  0  0  0  0
 20 21  2  0  0  0  0
 20 29  1  0  0  0  0
 22 27  2  0  0  0  0
 22 23  1  0  0  0  0
 23 24  2  0  0  0  0
 23 28  1  0  0  0  0
 24 25  1  0  0  0  0
 25 26  2  0  0  0  0
 26 27  1  0  0  0  0
 30 35  2  0  0  0  0
 30 31  1  0  0  0  0
 31 32  2  0  0  0  0
 31 37  1  0  0  0  0
 32 33  1  0  0  0  0
 33 34  2  0  0  0  0
 33 38  1  0  0  0  0
 34 35  1  0  0  0  0
 35 36  1  0  0  0  0
M  END
> <ID>
13232

> <Formula>
C30H22ClF3N2O2

> <FW>
534.9561

> <DSSTox_CID>
28145

> <DSSTox_RID>
82710

> <DSSTox_GSID>
48171

> <DSSTox_FileID_Sort>
7387

> <TS_ChemName>
FR145237

> <TS_ChemName_Synonyms>


> <TS_CASRN>
146011-65-6

> <CASRN_ChemName_Relationship>
primary

> <TS_Description>
single chemical compound

> <ChemNote>


> <STRUCTURE_Shown>
tested chemical

> <STRUCTURE_Formula>
C30H22ClF3N2O2

> <STRUCTURE_MW>
534.9561

> <STRUCTURE_ChemType>
defined organic

> <STRUCTURE_DefinedOrganicForm>
parent

> <STRUCTURE_IUPAC>
1-benzyl-1-{[3-(4-chlorophenyl)-5-methyl-1-benzofuran-2-yl]methyl}-3-(2,4,6-trifluorophenyl)urea

> <STRUCTURE_SMILES>
Fc5cc(F)cc(F)c5NC(=O)N(Cc1ccccc1)Cc3oc2ccc(C)cc2c3c4ccc(Cl)cc4

> <STRUCTURE_SMILES_Desalt>
Fc5cc(F)cc(F)c5NC(=O)N(Cc1ccccc1)Cc3oc2ccc(C)cc2c3c4ccc(Cl)cc4

> <Substance_modify_yyyymmdd>
20130910

$$$$
