14611-52-0
ChemmineR-0915142007XD

 15 14  0  0  1  0  0  0  0  0  1 V2000
    6.9055   -1.9983    0.0000 C    0  0  0  0  0  0  0  0  0  0  0  0
    8.0578   -1.3295    0.0000 C    0  0  0  0  0  0  0  0  0  0  0  0
    4.5849   -1.9983    0.0000 N    0  0  0  0  0  0  0  0  0  0  0  0
    4.5849   -0.6769    0.0000 C    0  0  0  0  0  0  0  0  0  0  0  0
    3.4407    0.0000    0.0000 C    0  0  0  0  0  0  0  0  0  0  0  0
    5.7533   -2.6591    0.0000 C    0  0  0  0  0  0  0  0  0  0  0  0
    2.3045   -0.6769    0.0000 C    0  0  0  0  0  0  0  0  0  0  0  0
    3.4407   -2.6591    0.0000 C    0  0  0  0  0  0  0  0  0  0  0  0
    5.7533    0.0000    0.0000 C    0  0  0  0  0  0  0  0  0  0  0  0
    2.3045   -1.9983    0.0000 C    0  0  0  0  0  0  0  0  0  0  0  0
    1.1523    0.0000    0.0000 C    0  0  0  0  0  0  0  0  0  0  0  0
    0.0000   -0.6769    0.0000 C    0  0  0  0  0  0  0  0  0  0  0  0
    1.1523   -2.6591    0.0000 C    0  0  0  0  0  0  0  0  0  0  0  0
    0.0000   -1.9983    0.0000 C    0  0  0  0  0  0  0  0  0  0  0  0
    4.6494   -3.4568    0.0000 Cl   0  0  0  0  0  0  0  0  0  0  0  0
  1  2  3  0  0  0  0
  1  6  1  0  0  0  0
  3  6  1  0  0  0  0
  4  3  1  1  0  0  0
  3  8  1  0  0  0  0
  4  5  1  0  0  0  0
  4  9  1  0  0  0  0
  5  7  1  0  0  0  0
  7 10  2  0  0  0  0
  7 11  1  0  0  0  0
 10 13  1  0  0  0  0
 11 12  2  0  0  0  0
 12 14  1  0  0  0  0
 13 14  2  0  0  0  0
M  END
> <ID>
10238

> <Formula>
C13H18ClN

> <FW>
223.7417 (187.2808+36.4609)

> <DSSTox_CID>
24584

> <DSSTox_RID>
80331

> <DSSTox_GSID>
44584

> <DSSTox_FileID_Sort>
5013

> <TS_ChemName>
Selegiline hydrochloride

> <TS_ChemName_Synonyms>


> <TS_CASRN>
14611-52-0

> <CASRN_ChemName_Relationship>
primary

> <TS_Description>
single chemical compound

> <ChemNote>
stereochem; parent [14611-51-9]

> <STRUCTURE_Shown>
tested chemical

> <STRUCTURE_Formula>
C13H18ClN

> <STRUCTURE_MW>
223.7417

> <STRUCTURE_ChemType>
defined organic

> <STRUCTURE_DefinedOrganicForm>
complex

> <STRUCTURE_IUPAC>
N-methyl-N-[(2R)-1-phenylpropan-2-yl]prop-2-yn-1-amine hydrochloride (1:1)

> <STRUCTURE_SMILES>
Cl.C#CCN(C)[C@H](C)Cc1ccccc1

> <STRUCTURE_SMILES_Desalt>
C#CCN(C)[C@H](C)Cc1ccccc1

> <Substance_modify_yyyymmdd>
20091116

$$$$
