1461-15-0
ChemmineR-0915142007XD

 45 49  0  0  0  0  0  0  0  0  1 V2000
    0.0000   -2.0159    0.0000 O   0  0  0  0  0  0  0  0  0  0  0  0
    1.1612   -1.3386    0.0000 C   0  0  0  0  0  0  0  0  0  0  0  0
    1.1612    0.0000    0.0000 O   0  0  0  0  0  0  0  0  0  0  0  0
    2.3062   -2.0159    0.0000 C   0  0  0  0  0  0  0  0  0  0  0  0
    2.3062   -3.3222    0.0000 N   0  0  0  0  0  0  0  0  0  0  0  0
    1.1612   -3.9996    0.0000 C   0  0  0  0  0  0  0  0  0  0  0  0
    1.1612   -5.3382    0.0000 C   0  0  0  0  0  0  0  0  0  0  0  0
    2.3062   -5.9833    0.0000 O   0  0  0  0  0  0  0  0  0  0  0  0
    0.0000   -5.9994    0.0000 O   0  0  0  0  0  0  0  0  0  0  0  0
    3.4674   -3.9996    0.0000 C   0  0  0  0  0  0  0  0  0  0  0  0
    4.6124   -3.3222    0.0000 C   0  0  0  0  0  0  0  0  0  0  0  0
    5.7575   -3.9996    0.0000 C   0  0  0  0  0  0  0  0  0  0  0  0
    6.9186   -3.3222    0.0000 C   0  0  0  0  0  0  0  0  0  0  0  0
    6.9186   -1.9998    0.0000 C   0  0  0  0  0  0  0  0  0  0  0  0
    8.0637   -1.3386    0.0000 O   0  0  0  0  0  0  0  0  0  0  0  0
    9.2087   -1.9998    0.0000 C   0  0  0  0  0  0  0  0  0  0  0  0
   10.3699   -1.3386    0.0000 C   0  0  0  0  0  0  0  0  0  0  0  0
   11.5150   -1.9998    0.0000 C   0  0  0  0  0  0  0  0  0  0  0  0
   12.6761   -1.3386    0.0000 O   0  0  0  0  0  0  0  0  0  0  0  0
   11.5150   -3.3061    0.0000 C   0  0  0  0  0  0  0  0  0  0  0  0
   10.3699   -3.9835    0.0000 C   0  0  0  0  0  0  0  0  0  0  0  0
    9.2087   -3.3222    0.0000 C   0  0  0  0  0  0  0  0  0  0  0  0
    8.0476   -3.9835    0.0000 C   0  0  0  0  0  0  0  0  0  0  0  0
    9.1120   -4.7737    0.0000 C   0  0  0  0  0  0  0  0  0  0  0  0
   10.4183   -4.4834    0.0000 C   0  0  0  0  0  0  0  0  0  0  0  0
   11.3053   -5.4833    0.0000 C   0  0  0  0  0  0  0  0  0  0  0  0
   10.9021   -6.7412    0.0000 C   0  0  0  0  0  0  0  0  0  0  0  0
    9.5958   -7.0154    0.0000 C   0  0  0  0  0  0  0  0  0  0  0  0
    8.6927   -6.0316    0.0000 C   0  0  0  0  0  0  0  0  0  0  0  0
    7.3702   -6.0316    0.0000 C   0  0  0  0  0  0  0  0  0  0  0  0
    6.9509   -4.7737    0.0000 O   0  0  0  0  0  0  0  0  0  0  0  0
    6.5800   -7.1122    0.0000 O   0  0  0  0  0  0  0  0  0  0  0  0
   12.6761   -3.9835    0.0000 C   0  0  0  0  0  0  0  0  0  0  0  0
   13.8373   -3.3061    0.0000 N   0  0  0  0  0  0  0  0  0  0  0  0
   13.8373   -1.9837    0.0000 C   0  0  0  0  0  0  0  0  0  0  0  0
   14.9662   -1.3224    0.0000 C   0  0  0  0  0  0  0  0  0  0  0  0
   16.1274   -1.9837    0.0000 O   0  0  0  0  0  0  0  0  0  0  0  0
   14.9823    0.0000    0.0000 O   0  0  0  0  0  0  0  0  0  0  0  0
   14.8533   -4.1770    0.0000 C   0  0  0  0  0  0  0  0  0  0  0  0
   14.6114   -5.4833    0.0000 C   0  0  0  0  0  0  0  0  0  0  0  0
   13.3696   -5.9349    0.0000 O   0  0  0  0  0  0  0  0  0  0  0  0
   15.6436   -6.3381    0.0000 O   0  0  0  0  0  0  0  0  0  0  0  0
    5.7575   -1.3386    0.0000 C   0  0  0  0  0  0  0  0  0  0  0  0
    4.6124   -1.9998    0.0000 C   0  0  0  0  0  0  0  0  0  0  0  0
    3.4513   -1.3386    0.0000 O   0  0  0  0  0  0  0  0  0  0  0  0
  1  2  1  0  0  0  0
  2  3  2  0  0  0  0
  2  4  1  0  0  0  0
  4  5  1  0  0  0  0
  5  6  1  0  0  0  0
  5 10  1  0  0  0  0
  6  7  1  0  0  0  0
  7  8  1  0  0  0  0
  7  9  2  0  0  0  0
 10 11  1  0  0  0  0
 11 12  2  0  0  0  0
 11 44  1  0  0  0  0
 12 13  1  0  0  0  0
 13 14  2  0  0  0  0
 13 23  1  0  0  0  0
 14 15  1  0  0  0  0
 14 43  1  0  0  0  0
 15 16  1  0  0  0  0
 16 17  2  0  0  0  0
 16 22  1  0  0  0  0
 17 18  1  0  0  0  0
 18 19  2  0  0  0  0
 18 20  1  0  0  0  0
 20 21  2  0  0  0  0
 20 33  1  0  0  0  0
 21 22  1  0  0  0  0
 22 23  1  0  0  0  0
 23 24  1  0  0  0  0
 23 31  1  0  0  0  0
 24 25  2  0  0  0  0
 24 29  1  0  0  0  0
 25 26  1  0  0  0  0
 26 27  2  0  0  0  0
 27 28  1  0  0  0  0
 28 29  2  0  0  0  0
 29 30  1  0  0  0  0
 30 31  1  0  0  0  0
 30 32  2  0  0  0  0
 33 34  1  0  0  0  0
 34 35  1  0  0  0  0
 34 39  1  0  0  0  0
 35 36  1  0  0  0  0
 36 37  1  0  0  0  0
 36 38  2  0  0  0  0
 39 40  1  0  0  0  0
 40 41  1  0  0  0  0
 40 42  2  0  0  0  0
 43 44  2  0  0  0  0
 44 45  1  0  0  0  0
M  END
> <ID>
11245

> <Formula>
C30H26N2O13

> <FW>
622.533

> <DSSTox_CID>
25856

> <DSSTox_RID>
81177

> <DSSTox_GSID>
45856

> <DSSTox_FileID_Sort>
5858

> <TS_ChemName>
Oftasceine

> <TS_ChemName_Synonyms>


> <TS_CASRN>
1461-15-0

> <CASRN_ChemName_Relationship>
primary

> <TS_Description>
single chemical compound

> <ChemNote>
tautomers

> <STRUCTURE_Shown>
tested chemical

> <STRUCTURE_Formula>
C30H26N2O13

> <STRUCTURE_MW>
622.533

> <STRUCTURE_ChemType>
defined organic

> <STRUCTURE_DefinedOrganicForm>
parent

> <STRUCTURE_IUPAC>
2,2',2'',2'''-[(6'-hydroxy-3,3'-dioxo-3',9a'-dihydro-3H-spiro[2-benzofuran-1,9'-xanthene]-2',7'-diyl)bis(methanediylnitrilo)]tetraacetic acid

> <STRUCTURE_SMILES>
O=C(O)CN(CC(=O)O)CC5=CC4C(Oc1cc(O)c(cc1C43OC(=O)c2ccccc23)CN(CC(=O)O)CC(=O)O)=CC5=O

> <STRUCTURE_SMILES_Desalt>
O=C(O)CN(CC(=O)O)CC5=CC4C(Oc1cc(O)c(cc1C43OC(=O)c2ccccc23)CN(CC(=O)O)CC(=O)O)=CC5=O

> <Substance_modify_yyyymmdd>
20110922

$$$$
