1461-22-9
ChemmineR-0915142007XD

 14 13  0  0  0  0  0  0  0  0  1 V2000
    3.9923   -3.9923    0.0000 Sn   0  0  0  0  0  0  0  0  0  0  0  0
    2.6589   -3.9923    0.0000 C    0  0  0  0  0  0  0  0  0  0  0  0
    2.0042   -5.1421    0.0000 C    0  0  0  0  0  0  0  0  0  0  0  0
    0.6707   -5.1421    0.0000 C    0  0  0  0  0  0  0  0  0  0  0  0
    0.0000   -6.2840    0.0000 C    0  0  0  0  0  0  0  0  0  0  0  0
    3.9923   -2.6589    0.0000 C    0  0  0  0  0  0  0  0  0  0  0  0
    2.8346   -1.9882    0.0000 C    0  0  0  0  0  0  0  0  0  0  0  0
    2.8346   -0.6547    0.0000 C    0  0  0  0  0  0  0  0  0  0  0  0
    1.6848    0.0000    0.0000 C    0  0  0  0  0  0  0  0  0  0  0  0
    5.3258   -3.9923    0.0000 C    0  0  0  0  0  0  0  0  0  0  0  0
    5.9965   -5.1421    0.0000 C    0  0  0  0  0  0  0  0  0  0  0  0
    7.3299   -5.1421    0.0000 C    0  0  0  0  0  0  0  0  0  0  0  0
    7.9847   -6.2840    0.0000 C    0  0  0  0  0  0  0  0  0  0  0  0
    3.9923   -5.3258    0.0000 Cl   0  0  0  0  0  0  0  0  0  0  0  0
  1  2  1  0  0  0  0
  1  6  1  0  0  0  0
  1 10  1  0  0  0  0
  1 14  1  0  0  0  0
  2  3  1  0  0  0  0
  3  4  1  0  0  0  0
  4  5  1  0  0  0  0
  6  7  1  0  0  0  0
  7  8  1  0  0  0  0
  8  9  1  0  0  0  0
 10 11  1  0  0  0  0
 11 12  1  0  0  0  0
 12 13  1  0  0  0  0
M  END
> <ID>
5135

> <Formula>
C12H27ClSn

> <FW>
325.5058

> <DSSTox_CID>
7403

> <DSSTox_RID>
78441

> <DSSTox_GSID>
27403

> <DSSTox_FileID_Sort>
3124

> <TS_ChemName>
Tributyltin chloride

> <TS_ChemName_Synonyms>
Tributyltin chloride (Stannane, tributylchloro-)

> <TS_CASRN>
1461-22-9

> <CASRN_ChemName_Relationship>
primary

> <TS_Description>
single chemical compound

> <ChemNote>


> <STRUCTURE_Shown>
tested chemical

> <STRUCTURE_Formula>
C12H27ClSn

> <STRUCTURE_MW>
325.5058

> <STRUCTURE_ChemType>
organometallic

> <STRUCTURE_DefinedOrganicForm>


> <STRUCTURE_IUPAC>
tributyl(chloro)stannane

> <STRUCTURE_SMILES>
CCCC[Sn](Cl)(CCCC)CCCC

> <STRUCTURE_SMILES_Desalt>
CCCC[Sn](Cl)(CCCC)CCCC

> <Substance_modify_yyyymmdd>
20080429

$$$$
