14636-12-5
ChemmineR-0915142007XD

 93 96  0  0  1  0  0  0  0  0  1 V2000
    5.5241  -23.3474    0.0000 N   0  0  0  0  0  0  0  0  0  0  0  0
    6.7280  -22.8044    0.0000 C   0  0  0  0  0  0  0  0  0  0  0  0
    6.8697  -21.5060    0.0000 C   0  0  0  0  0  0  0  0  0  0  0  0
    5.7601  -20.7742    0.0000 N   0  0  0  0  0  0  0  0  0  0  0  0
    5.8546  -19.4522    0.0000 C   0  0  0  0  0  0  0  0  0  0  0  0
    4.7450  -18.7204    0.0000 C   0  0  0  0  0  0  0  0  0  0  0  0
    5.6893  -17.7761    0.0000 H   0  0  0  0  0  0  0  0  0  0  0  0
    3.5883  -18.0358    0.0000 N   0  0  0  0  0  0  0  0  0  0  0  0
    3.5175  -16.7610    0.0000 C   0  0  0  0  0  0  0  0  0  0  0  0
    2.6440  -15.7459    0.0000 C   0  0  0  0  0  0  0  0  0  0  0  0
    1.7941  -16.8082    0.0000 H   0  0  0  0  0  0  0  0  0  0  0  0
    3.5647  -14.7072    0.0000 N   0  0  0  0  0  0  0  0  0  0  0  0
    4.9103  -14.4711    0.0000 C   0  0  0  0  0  0  0  0  0  0  0  0
    5.7601  -13.3616    0.0000 C   0  0  0  0  0  0  0  0  0  0  0  0
    4.5089  -12.9839    0.0000 H   0  0  0  0  0  0  0  0  0  0  0  0
    7.0821  -13.4324    0.0000 N   0  0  0  0  0  0  0  0  0  0  0  0
    8.0500  -14.2823    0.0000 C   0  0  0  0  0  0  0  0  0  0  0  0
    9.4428  -14.1642    0.0000 C   0  0  0  0  0  0  0  0  0  0  0  0
   10.6704  -14.6600    0.0000 H   0  0  0  0  0  0  0  0  0  0  0  0
    9.9386  -12.9131    0.0000 N   0  0  0  0  0  0  0  0  0  0  0  0
   11.2134  -12.5826    0.0000 C   0  0  0  0  0  0  0  0  0  0  0  0
   12.0632  -13.6449    0.0000 O   0  0  0  0  0  0  0  0  0  0  0  0
   11.9452  -11.4258    0.0000 C   0  0  0  0  0  0  0  0  0  0  0  0
   13.1019  -10.7648    0.0000 H   0  0  0  0  0  0  0  0  0  0  0  0
   13.0075  -12.2521    0.0000 C   0  0  0  0  0  0  0  0  0  0  0  0
   14.2823  -12.2049    0.0000 C   0  0  0  0  0  0  0  0  0  0  0  0
   15.0849  -13.2200    0.0000 C   0  0  0  0  0  0  0  0  0  0  0  0
   16.4069  -13.0547    0.0000 O   0  0  0  0  0  0  0  0  0  0  0  0
   14.6128  -14.4711    0.0000 N   0  0  0  0  0  0  0  0  0  0  0  0
   11.2370  -10.2927    0.0000 N   0  0  0  0  0  0  0  0  0  0  0  0
   11.7563   -9.0651    0.0000 C   0  0  0  0  0  0  0  0  0  0  0  0
   11.2370   -7.7431    0.0000 C   0  0  0  0  0  0  0  0  0  0  0  0
   12.4881   -7.7195    0.0000 H   0  0  0  0  0  0  0  0  0  0  0  0
    9.8914   -7.6959    0.0000 N   0  0  0  0  0  0  0  0  0  0  0  0
    9.2068   -6.5628    0.0000 C   0  0  0  0  0  0  0  0  0  0  0  0
    7.8848   -6.1378    0.0000 C   0  0  0  0  0  0  0  0  0  0  0  0
    8.6638   -5.1227    0.0000 H   0  0  0  0  0  0  0  0  0  0  0  0
    6.9877   -7.1293    0.0000 N   0  0  0  0  0  0  0  0  0  0  0  0
    5.6893   -6.9641    0.0000 C   0  0  0  0  0  0  0  0  0  0  0  0
    4.5798   -7.7903    0.0000 C   0  0  0  0  0  0  0  0  0  0  0  0
    4.2021   -6.6100    0.0000 H   0  0  0  0  0  0  0  0  0  0  0  0
    3.2106   -7.9084    0.0000 N   0  0  0  0  0  0  0  0  0  0  0  0
    2.3843   -6.8933    0.0000 C   0  0  0  0  0  0  0  0  0  0  0  0
    1.0623   -6.6808    0.0000 C   0  0  0  0  0  0  0  0  0  0  0  0
    0.5194   -5.5004    0.0000 N   0  0  0  0  0  0  0  0  0  0  0  0
    1.0387   -4.3201    0.0000 C   0  0  0  0  0  0  0  0  0  0  0  0
    0.5666   -3.0689    0.0000 C   0  0  0  0  0  0  0  0  0  0  0  0
    1.4164   -2.0538    0.0000 N   0  0  0  0  0  0  0  0  0  0  0  0
    2.6912   -1.9830    0.0000 C   0  0  0  0  0  0  0  0  0  0  0  0
    3.2578   -0.7554    0.0000 C   0  0  0  0  0  0  0  0  0  0  0  0
    4.5798   -0.6846    0.0000 N   0  0  0  0  0  0  0  0  0  0  0  0
    3.7063   -2.8328    0.0000 O   0  0  0  0  0  0  0  0  0  0  0  0
    2.3371   -4.0840    0.0000 O   0  0  0  0  0  0  0  0  0  0  0  0
    2.8801   -5.6421    0.0000 O   0  0  0  0  0  0  0  0  0  0  0  0
    5.0047   -9.0415    0.0000 C   0  0  0  0  0  0  0  0  0  0  0  0
    4.2729  -10.1038    0.0000 S   0  0  0  0  0  0  0  0  0  0  0  0
    4.6506  -11.3078    0.0000 S   0  0  0  0  0  0  0  0  0  0  0  0
    5.7601  -11.9688    0.0000 C   0  0  0  0  0  0  0  0  0  0  0  0
    5.4768   -5.6185    0.0000 O   0  0  0  0  0  0  0  0  0  0  0  0
    7.2002   -4.9811    0.0000 C   0  0  0  0  0  0  0  0  0  0  0  0
    7.6251   -3.7299    0.0000 C   0  0  0  0  0  0  0  0  0  0  0  0
    8.9471   -3.4702    0.0000 C   0  0  0  0  0  0  0  0  0  0  0  0
    9.4900   -2.2899    0.0000 C   0  0  0  0  0  0  0  0  0  0  0  0
    8.7110   -1.2040    0.0000 C   0  0  0  0  0  0  0  0  0  0  0  0
    7.4126   -1.4164    0.0000 C   0  0  0  0  0  0  0  0  0  0  0  0
    6.8933   -2.6204    0.0000 C   0  0  0  0  0  0  0  0  0  0  0  0
    9.2068    0.0000    0.0000 O   0  0  0  0  0  0  0  0  0  0  0  0
   10.1746   -5.6185    0.0000 O   0  0  0  0  0  0  0  0  0  0  0  0
   11.8035   -6.4919    0.0000 C   0  0  0  0  0  0  0  0  0  0  0  0
   13.0783   -6.1378    0.0000 C   0  0  0  0  0  0  0  0  0  0  0  0
   13.5268   -4.8867    0.0000 C   0  0  0  0  0  0  0  0  0  0  0  0
   14.8016   -4.6034    0.0000 C   0  0  0  0  0  0  0  0  0  0  0  0
   15.7459   -5.5241    0.0000 C   0  0  0  0  0  0  0  0  0  0  0  0
   15.3446   -6.7988    0.0000 C   0  0  0  0  0  0  0  0  0  0  0  0
   14.0698   -7.0349    0.0000 C   0  0  0  0  0  0  0  0  0  0  0  0
   13.1255   -9.1359    0.0000 O   0  0  0  0  0  0  0  0  0  0  0  0
    9.4428  -15.4862    0.0000 C   0  0  0  0  0  0  0  0  0  0  0  0
   10.1274  -16.5249    0.0000 C   0  0  0  0  0  0  0  0  0  0  0  0
    9.4900  -17.7289    0.0000 O   0  0  0  0  0  0  0  0  0  0  0  0
   11.4494  -16.6430    0.0000 N   0  0  0  0  0  0  0  0  0  0  0  0
    7.6723  -15.5807    0.0000 O   0  0  0  0  0  0  0  0  0  0  0  0
    5.9254  -15.3446    0.0000 O   0  0  0  0  0  0  0  0  0  0  0  0
    2.8092  -13.5741    0.0000 C   0  0  0  0  0  0  0  0  0  0  0  0
    1.4636  -13.8573    0.0000 C   0  0  0  0  0  0  0  0  0  0  0  0
    1.3928  -15.2266    0.0000 C   0  0  0  0  0  0  0  0  0  0  0  0
    4.7450  -16.3597    0.0000 O   0  0  0  0  0  0  0  0  0  0  0  0
    3.9424  -19.7827    0.0000 C   0  0  0  0  0  0  0  0  0  0  0  0
    2.6204  -19.6883    0.0000 C   0  0  0  0  0  0  0  0  0  0  0  0
    1.8414  -20.7270    0.0000 C   0  0  0  0  0  0  0  0  0  0  0  0
    0.5194  -20.5854    0.0000 C   0  0  0  0  0  0  0  0  0  0  0  0
    0.0000  -19.3578    0.0000 N   0  0  0  0  0  0  0  0  0  0  0  0
    7.1293  -19.0745    0.0000 O   0  0  0  0  0  0  0  0  0  0  0  0
    7.7903  -23.6071    0.0000 O   0  0  0  0  0  0  0  0  0  0  0  0
  1  2  1  0  0  0  0
  2  3  1  0  0  0  0
  2 93  2  0  0  0  0
  3  4  1  0  0  0  0
  4  5  1  0  0  0  0
  5  6  1  0  0  0  0
  5 92  2  0  0  0  0
  6  7  1  1  0  0  0
  6  8  1  0  0  0  0
  6 87  1  0  0  0  0
  8  9  1  0  0  0  0
  9 10  1  0  0  0  0
  9 86  2  0  0  0  0
 10 11  1  1  0  0  0
 10 12  1  0  0  0  0
 10 85  1  0  0  0  0
 12 13  1  0  0  0  0
 12 83  1  0  0  0  0
 14 13  1  6  0  0  0
 13 82  2  0  0  0  0
 14 15  1  0  0  0  0
 14 16  1  0  0  0  0
 14 58  1  0  0  0  0
 16 17  1  0  0  0  0
 17 18  1  0  0  0  0
 17 81  2  0  0  0  0
 18 19  1  0  0  0  0
 18 20  1  0  0  0  0
 18 77  1  1  0  0  0
 20 21  1  0  0  0  0
 21 22  2  0  0  0  0
 21 23  1  0  0  0  0
 23 24  1  0  0  0  0
 23 25  1  1  0  0  0
 23 30  1  0  0  0  0
 25 26  1  0  0  0  0
 26 27  1  0  0  0  0
 27 28  2  0  0  0  0
 27 29  1  0  0  0  0
 30 31  1  0  0  0  0
 31 32  1  0  0  0  0
 31 76  2  0  0  0  0
 32 33  1  0  0  0  0
 32 34  1  0  0  0  0
 32 69  1  1  0  0  0
 34 35  1  0  0  0  0
 35 36  1  0  0  0  0
 35 68  2  0  0  0  0
 36 37  1  0  0  0  0
 36 38  1  0  0  0  0
 36 60  1  1  0  0  0
 38 39  1  0  0  0  0
 39 40  1  0  0  0  0
 39 59  2  0  0  0  0
 40 41  1  1  0  0  0
 40 42  1  0  0  0  0
 40 55  1  0  0  0  0
 42 43  1  0  0  0  0
 43 44  1  0  0  0  0
 43 54  2  0  0  0  0
 44 45  1  0  0  0  0
 45 46  1  0  0  0  0
 46 47  1  0  0  0  0
 46 53  2  0  0  0  0
 47 48  1  0  0  0  0
 48 49  1  0  0  0  0
 49 50  1  0  0  0  0
 49 52  2  0  0  0  0
 50 51  1  0  0  0  0
 55 56  1  0  0  0  0
 56 57  1  0  0  0  0
 57 58  1  0  0  0  0
 60 61  1  0  0  0  0
 61 62  1  0  0  0  0
 61 66  2  0  0  0  0
 62 63  2  0  0  0  0
 63 64  1  0  0  0  0
 64 65  2  0  0  0  0
 64 67  1  0  0  0  0
 65 66  1  0  0  0  0
 69 70  1  0  0  0  0
 70 71  1  0  0  0  0
 70 75  2  0  0  0  0
 71 72  2  0  0  0  0
 72 73  1  0  0  0  0
 73 74  2  0  0  0  0
 74 75  1  0  0  0  0
 77 78  1  0  0  0  0
 78 79  2  0  0  0  0
 78 80  1  0  0  0  0
 83 84  1  0  0  0  0
 84 85  1  0  0  0  0
 87 88  1  0  0  0  0
 88 89  1  0  0  0  0
 89 90  1  0  0  0  0
 90 91  1  0  0  0  0
M  END
> <ID>
13940

> <Formula>
C52H74N16O15S2

> <FW>
1227.3722

> <DSSTox_CID>
28878

> <DSSTox_RID>
83146

> <DSSTox_GSID>
48952

> <DSSTox_FileID_Sort>
7823

> <TS_ChemName>
Terlipressin

> <TS_ChemName_Synonyms>


> <TS_CASRN>
14636-12-5

> <CASRN_ChemName_Relationship>
primary

> <TS_Description>
single chemical compound

> <ChemNote>


> <STRUCTURE_Shown>
tested chemical

> <STRUCTURE_Formula>
C52H74N16O15S2

> <STRUCTURE_MW>
1227.3722

> <STRUCTURE_ChemType>
defined organic

> <STRUCTURE_DefinedOrganicForm>
parent

> <STRUCTURE_IUPAC>
(2S)-1-{[(4R,7S,10S,13S,16S,19R)-19-{[({[(aminoacetyl)amino]acetyl}amino)acetyl]amino}-7-(2-amino-2-oxoethyl)-10-(3-amino-3-oxopropyl)-13-benzyl-16-(4-hydroxybenzyl)-6,9,12,15,18-pentaoxo-1,2-dithia-5,8,11,14,17-pentaazacycloicosan-4-yl]carbonyl}-N-{(2S)-

> <STRUCTURE_SMILES>
NC(=O)CNC(=O)[C@H](CCCCN)NC(=O)[C@@H]4CCCN4C(=O)[C@@H]3CSSC[C@H](NC(=O)CNC(=O)CNC(=O)CN)C(=O)N[C@@H](Cc1ccc(O)cc1)C(=O)N[C@@H](Cc2ccccc2)C(=O)N[C@@H](CCC(N)=O)C(=O)N[C@@H](CC(N)=O)C(=O)N3

> <STRUCTURE_SMILES_Desalt>
NC(=O)CNC(=O)[C@H](CCCCN)NC(=O)[C@@H]4CCCN4C(=O)[C@@H]3CSSC[C@H](NC(=O)CNC(=O)CNC(=O)CN)C(=O)N[C@@H](Cc1ccc(O)cc1)C(=O)N[C@@H](Cc2ccccc2)C(=O)N[C@@H](CCC(N)=O)C(=O)N[C@@H](CC(N)=O)C(=O)N3

> <Substance_modify_yyyymmdd>
20111204

$$$$
