14639-25-9
ChemmineR-0915142007XD

 28 27  0  0  0  0  0  0  0  0  2 V2000
    4.5156   -5.4922    0.0000 Cr   0  1  0  0  0  0  0  0  0  0  0  0
    7.8445   -1.1552    0.0000 C    0  0  0  0  0  0  0  0  0  0  0  0
    8.5061    0.0000    0.0000 C    0  0  0  0  0  0  0  0  0  0  0  0
    9.8398    0.0000    0.0000 C    0  0  0  0  0  0  0  0  0  0  0  0
   10.5014   -1.1552    0.0000 C    0  0  0  0  0  0  0  0  0  0  0  0
    9.8398   -2.3103    0.0000 C    0  0  0  0  0  0  0  0  0  0  0  0
    8.5061   -2.3103    0.0000 N    0  0  0  0  0  0  0  0  0  0  0  0
    6.5109   -1.1552    0.0000 C    0  0  0  0  0  0  0  0  0  0  0  0
    5.8493   -2.3103    0.0000 O    0  0  0  0  0  0  0  0  0  0  0  0
    5.8493    0.0000    0.0000 O    0  5  0  0  0  0  0  0  0  0  0  0
    7.8445   -4.8727    0.0000 C    0  0  0  0  0  0  0  0  0  0  0  0
    8.5061   -3.7280    0.0000 C    0  0  0  0  0  0  0  0  0  0  0  0
    9.8398   -3.7280    0.0000 C    0  0  0  0  0  0  0  0  0  0  0  0
   10.5014   -4.8727    0.0000 C    0  0  0  0  0  0  0  0  0  0  0  0
    9.8398   -6.0278    0.0000 C    0  0  0  0  0  0  0  0  0  0  0  0
    8.5061   -6.0278    0.0000 N    0  0  0  0  0  0  0  0  0  0  0  0
    6.5109   -4.8727    0.0000 C    0  0  0  0  0  0  0  0  0  0  0  0
    5.8493   -6.0278    0.0000 O    0  0  0  0  0  0  0  0  0  0  0  0
    5.8493   -3.7280    0.0000 O    0  5  0  0  0  0  0  0  0  0  0  0
    1.9953   -3.0139    0.0000 C    0  0  0  0  0  0  0  0  0  0  0  0
    2.6569   -1.8692    0.0000 C    0  0  0  0  0  0  0  0  0  0  0  0
    3.9905   -1.8692    0.0000 C    0  0  0  0  0  0  0  0  0  0  0  0
    4.6521   -3.0139    0.0000 C    0  0  0  0  0  0  0  0  0  0  0  0
    3.9905   -4.1691    0.0000 C    0  0  0  0  0  0  0  0  0  0  0  0
    2.6569   -4.1691    0.0000 N    0  0  0  0  0  0  0  0  0  0  0  0
    0.6616   -3.0139    0.0000 C    0  0  0  0  0  0  0  0  0  0  0  0
    0.0000   -4.1691    0.0000 O    0  0  0  0  0  0  0  0  0  0  0  0
    0.0000   -1.8692    0.0000 O    0  5  0  0  0  0  0  0  0  0  0  0
  2  3  1  0  0  0  0
  2  7  2  0  0  0  0
  2  8  1  0  0  0  0
  3  4  2  0  0  0  0
  4  5  1  0  0  0  0
  5  6  2  0  0  0  0
  6  7  1  0  0  0  0
  8  9  2  0  0  0  0
  8 10  1  0  0  0  0
 11 12  1  0  0  0  0
 11 16  2  0  0  0  0
 11 17  1  0  0  0  0
 12 13  2  0  0  0  0
 13 14  1  0  0  0  0
 14 15  2  0  0  0  0
 15 16  1  0  0  0  0
 17 18  2  0  0  0  0
 17 19  1  0  0  0  0
 20 21  1  0  0  0  0
 20 25  2  0  0  0  0
 20 26  1  0  0  0  0
 21 22  2  0  0  0  0
 22 23  1  0  0  0  0
 23 24  2  0  0  0  0
 24 25  1  0  0  0  0
 26 27  2  0  0  0  0
 26 28  1  0  0  0  0
M  END
> <ID>
3872

> <Formula>
C18H12CrN3O6

> <FW>
418.3005 (51.9945+122.1020+122.1020+122.1020)

> <DSSTox_CID>
4831

> <DSSTox_RID>
77546

> <DSSTox_GSID>
24831

> <DSSTox_FileID_Sort>
2229

> <TS_ChemName>
Chromium picolinate

> <TS_ChemName_Synonyms>


> <TS_CASRN>
14639-25-9

> <CASRN_ChemName_Relationship>
primary

> <TS_Description>
single chemical compound

> <ChemNote>


> <STRUCTURE_Shown>
tested chemical

> <STRUCTURE_Formula>
C18H12CrN3O6

> <STRUCTURE_MW>
418.3005

> <STRUCTURE_ChemType>
organometallic

> <STRUCTURE_DefinedOrganicForm>


> <STRUCTURE_IUPAC>
chromium(3+) tripyridine-2-carboxylate

> <STRUCTURE_SMILES>
[Cr+3].[O-]C(=O)c1ccccn1.[O-]C(=O)c1ccccn1.[O-]C(=O)c1ccccn1

> <STRUCTURE_SMILES_Desalt>
O=C(O)c1ccccn1

> <Substance_modify_yyyymmdd>
20080429

$$$$
