14648-14-7
ChemmineR-0915142007XD

 23 26  0  0  1  0  0  0  0  0  1 V2000
    2.6401   -2.2776    0.0000 C    0  0  0  0  0  0  0  0  0  0  0  0
    3.9483   -2.2776    0.0000 C    0  0  0  0  0  0  0  0  0  0  0  0
    4.6261   -1.1427    0.0000 C    0  0  0  0  0  0  0  0  0  0  0  0
    1.9702   -1.1427    0.0000 C    0  0  0  0  0  0  0  0  0  0  0  0
    3.3336   -0.3625    0.0000 O    0  0  0  0  0  0  0  0  0  0  0  0
    1.9781   -3.3966    0.0000 C    0  0  0  0  0  0  0  0  0  0  0  0
    4.6261   -3.3966    0.0000 C    0  0  0  0  0  0  0  0  0  0  0  0
    0.6935   -3.3966    0.0000 C    0  0  0  0  0  0  0  0  0  0  0  0
    2.6558   -4.5078    0.0000 C    0  0  0  0  0  0  0  0  0  0  0  0
    0.0315   -2.2776    0.0000 C    0  0  0  0  0  0  0  0  0  0  0  0
    3.9956   -4.4763    0.0000 C    0  0  0  0  0  0  0  0  0  0  0  0
    0.6778   -1.1427    0.0000 C    0  0  0  0  0  0  0  0  0  0  0  0
    2.0254   -5.1383    0.0000 N    0  0  0  0  0  0  0  0  0  0  0  0
    5.9264   -1.1427    0.0000 C    0  0  0  0  0  0  0  0  0  0  0  0
    5.9264   -3.3966    0.0000 C    0  0  0  0  0  0  0  0  0  0  0  0
    6.5726   -2.2776    0.0000 C    0  0  0  0  0  0  0  0  0  0  0  0
    1.3555   -2.2776    0.0000 C    0  0  0  0  0  0  0  0  0  0  0  0
    1.3555   -4.7758    0.0000 C    0  0  0  0  0  0  0  0  0  0  0  0
    0.0000   -0.0315    0.0000 O    0  0  0  0  0  0  0  0  0  0  0  0
    6.5726   -0.0158    0.0000 O    0  0  0  0  0  0  0  0  0  0  0  0
    7.8808    0.0000    0.0000 C    0  0  0  0  0  0  0  0  0  0  0  0
    3.3021   -3.3966    0.0000 H    0  0  0  0  0  0  0  0  0  0  0  0
    3.7592   -6.3835    0.0000 Cl   0  0  0  0  0  0  0  0  0  0  0  0
  1  2  1  0  0  0  0
  1  4  1  0  0  0  0
  1  6  1  0  0  0  0
  1 17  1  1  0  0  0
  2  3  1  0  0  0  0
  2  7  2  0  0  0  0
  3 14  2  0  0  0  0
  3  5  1  0  0  0  0
  4  5  1  6  0  0  0
  4 12  1  0  0  0  0
  6  8  1  0  0  0  0
  6  9  1  0  0  0  0
  6 22  1  1  0  0  0
  7 15  1  0  0  0  0
  7 11  1  0  0  0  0
  8 10  2  0  0  0  0
  9 11  1  0  0  0  0
  9 13  1  1  0  0  0
 10 12  1  0  0  0  0
 12 19  1  6  0  0  0
 13 18  1  0  0  0  0
 14 20  1  0  0  0  0
 14 16  1  0  0  0  0
 15 16  2  0  0  0  0
 17 18  1  0  0  0  0
 20 21  1  0  0  0  0
M  END
> <ID>
13895

> <Formula>
C17H20ClNO3

> <FW>
321.7986 (285.3377+36.4609)

> <DSSTox_CID>
28832

> <DSSTox_RID>
83101

> <DSSTox_GSID>
48906

> <DSSTox_FileID_Sort>
7778

> <TS_ChemName>
N-Norcodeine hydrochloride

> <TS_ChemName_Synonyms>


> <TS_CASRN>
14648-14-7

> <CASRN_ChemName_Relationship>
primary

> <TS_Description>
single chemical compound

> <ChemNote>


> <STRUCTURE_Shown>
tested chemical

> <STRUCTURE_Formula>
C17H20ClNO3

> <STRUCTURE_MW>
321.7986

> <STRUCTURE_ChemType>
defined organic

> <STRUCTURE_DefinedOrganicForm>
complex

> <STRUCTURE_IUPAC>
(5alpha,6alpha)-3-methoxy-7,8-didehydro-4,5-epoxymorphinan-6-ol hydrochloride (1:1)

> <STRUCTURE_SMILES>
Cl.COc1ccc2C[C@H]4NCC[C@@]35[C@@H](Oc1c23)[C@@H](O)C=C[C@@H]45

> <STRUCTURE_SMILES_Desalt>
COc1ccc2C[C@H]4NCC[C@@]35[C@@H](Oc1c23)[C@@H](O)C=C[C@@H]45

> <Substance_modify_yyyymmdd>
20111204

$$$$
