1464-42-2
ChemmineR-0915142007XD

  9  8  0  0  0  0  0  0  0  0  1 V2000
    1.1607   -0.6583    0.0000 C    0  0  0  0  0  0  0  0  0  0  0  0
    0.0173    0.0000    0.0000 O    0  0  0  0  0  0  0  0  0  0  0  0
    1.1607   -1.9865    0.0000 C    0  0  0  0  0  0  0  0  0  0  0  0
    2.3042    0.0000    0.0000 O    0  0  0  0  0  0  0  0  0  0  0  0
    0.0000   -2.6564    0.0000 N    0  0  0  0  0  0  0  0  0  0  0  0
    4.6141   -2.6507    0.0000 Se   0  0  0  0  0  0  0  0  0  0  0  0
    2.3042   -2.6507    0.0000 C    0  0  0  0  0  0  0  0  0  0  0  0
    3.4591   -1.9808    0.0000 C    0  0  0  0  0  0  0  0  0  0  0  0
    5.7748   -1.9808    0.0000 C    0  0  0  0  0  0  0  0  0  0  0  0
  1  2  2  0  0  0  0
  1  3  1  0  0  0  0
  1  4  1  0  0  0  0
  3  5  1  0  0  0  0
  3  7  1  0  0  0  0
  6  8  1  0  0  0  0
  6  9  1  0  0  0  0
  7  8  1  0  0  0  0
M  END
> <ID>
7826

> <Formula>
C5H11NO2Se

> <FW>
196.1063

> <DSSTox_CID>
20609

> <DSSTox_RID>
79510

> <DSSTox_GSID>
40609

> <DSSTox_FileID_Sort>
4192

> <TS_ChemName>
Selenomethionine

> <TS_ChemName_Synonyms>


> <TS_CASRN>
1464-42-2

> <CASRN_ChemName_Relationship>
primary

> <TS_Description>
single chemical compound

> <ChemNote>


> <STRUCTURE_Shown>
tested chemical

> <STRUCTURE_Formula>
C5H11NO2Se

> <STRUCTURE_MW>
196.1063

> <STRUCTURE_ChemType>
organometallic

> <STRUCTURE_DefinedOrganicForm>


> <STRUCTURE_IUPAC>
2-amino-4-(methylselanyl)butanoic acid

> <STRUCTURE_SMILES>
O=C(O)C(N)CC[Se]C

> <STRUCTURE_SMILES_Desalt>
O=C(O)C(N)CC[Se]C

> <Substance_modify_yyyymmdd>
20080429

$$$$
