146464-95-1
ChemmineR-0915142007XD

 35 37  0  0  1  0  0  0  0  0  1 V2000
    3.4625   -6.6488    0.0000 C   0  0  0  0  0  0  0  0  0  0  0  0
    3.4625   -7.9749    0.0000 C   0  0  0  0  0  0  0  0  0  0  0  0
    2.3022   -5.9674    0.0000 C   0  0  0  0  0  0  0  0  0  0  0  0
    2.3022   -8.6379    0.0000 N   0  0  0  0  0  0  0  0  0  0  0  0
    1.1603   -6.6488    0.0000 N   0  0  0  0  0  0  0  0  0  0  0  0
    1.1603   -7.9749    0.0000 C   0  0  0  0  0  0  0  0  0  0  0  0
    4.6044   -5.9674    0.0000 N   0  0  0  0  0  0  0  0  0  0  0  0
    5.7648   -6.6488    0.0000 C   0  0  0  0  0  0  0  0  0  0  0  0
    4.6044   -8.6379    0.0000 N   0  0  0  0  0  0  0  0  0  0  0  0
    5.7648   -7.9749    0.0000 C   0  0  0  0  0  0  0  0  0  0  0  0
    6.9251   -5.9674    0.0000 C   0  0  0  0  0  0  0  0  0  0  0  0
    8.0486   -6.6488    0.0000 C   0  0  0  0  0  0  0  0  0  0  0  0
    9.2089   -5.9674    0.0000 C   0  0  0  0  0  0  0  0  0  0  0  0
    9.2089   -4.6413    0.0000 C   0  0  0  0  0  0  0  0  0  0  0  0
   10.3692   -6.6488    0.0000 C   0  0  0  0  0  0  0  0  0  0  0  0
   10.3692   -3.9967    0.0000 C   0  0  0  0  0  0  0  0  0  0  0  0
   11.5111   -5.9674    0.0000 C   0  0  0  0  0  0  0  0  0  0  0  0
   11.5111   -4.6413    0.0000 C   0  0  0  0  0  0  0  0  0  0  0  0
   12.6714   -3.9967    0.0000 C   0  0  0  0  0  0  0  0  0  0  0  0
   13.8133   -4.6413    0.0000 O   0  0  0  0  0  0  0  0  0  0  0  0
   12.6714   -2.6522    0.0000 N   0  0  0  0  0  0  0  0  0  0  0  0
   13.8133   -1.9891    0.0000 C   0  0  0  0  0  0  0  0  0  0  0  0
   13.8133   -0.6630    0.0000 C   0  0  0  0  0  0  0  0  0  0  0  0
   14.9736    0.0000    0.0000 O   0  0  0  0  0  0  0  0  0  0  0  0
   12.6714    0.0000    0.0000 O   0  0  0  0  0  0  0  0  0  0  0  0
   14.9736   -2.6522    0.0000 C   0  0  0  0  0  0  0  0  0  0  0  0
   16.1340   -1.9891    0.0000 C   0  0  0  0  0  0  0  0  0  0  0  0
   17.2574   -2.6522    0.0000 C   0  0  0  0  0  0  0  0  0  0  0  0
   18.4178   -1.9891    0.0000 O   0  0  0  0  0  0  0  0  0  0  0  0
   17.2574   -3.9967    0.0000 O   0  0  0  0  0  0  0  0  0  0  0  0
    8.0486   -7.9749    0.0000 C   0  0  0  0  0  0  0  0  0  0  0  0
    9.2089   -8.6379    0.0000 C   0  0  0  0  0  0  0  0  0  0  0  0
    9.2089   -9.9640    0.0000 C   0  0  0  0  0  0  0  0  0  0  0  0
    2.3022   -4.6413    0.0000 N   0  0  0  0  0  0  0  0  0  0  0  0
    0.0000   -8.6379    0.0000 N   0  0  0  0  0  0  0  0  0  0  0  0
  1  3  2  0  0  0  0
  1  7  1  0  0  0  0
  1  2  1  0  0  0  0
  2  4  2  0  0  0  0
  2  9  1  0  0  0  0
  3  5  1  0  0  0  0
  3 34  1  0  0  0  0
  4  6  1  0  0  0  0
  5  6  2  0  0  0  0
  6 35  1  0  0  0  0
  7  8  2  0  0  0  0
  8 10  1  0  0  0  0
  8 11  1  0  0  0  0
  9 10  2  0  0  0  0
 11 12  1  0  0  0  0
 12 13  1  0  0  0  0
 12 31  1  0  0  0  0
 13 14  1  0  0  0  0
 13 15  2  0  0  0  0
 14 16  2  0  0  0  0
 15 17  1  0  0  0  0
 16 18  1  0  0  0  0
 17 18  2  0  0  0  0
 18 19  1  0  0  0  0
 19 20  2  0  0  0  0
 19 21  1  0  0  0  0
 21 22  1  0  0  0  0
 22 23  1  6  0  0  0
 22 26  1  0  0  0  0
 23 24  1  0  0  0  0
 23 25  2  0  0  0  0
 26 27  1  0  0  0  0
 27 28  1  0  0  0  0
 28 29  1  0  0  0  0
 28 30  2  0  0  0  0
 31 32  1  0  0  0  0
 32 33  3  0  0  0  0
M  END
> <ID>
13577

> <Formula>
C23H23N7O5

> <FW>
477.4726

> <DSSTox_CID>
28504

> <DSSTox_RID>
82776

> <DSSTox_GSID>
48578

> <DSSTox_FileID_Sort>
7453

> <TS_ChemName>
Pralatrexate

> <TS_ChemName_Synonyms>


> <TS_CASRN>
146464-95-1

> <CASRN_ChemName_Relationship>
primary

> <TS_Description>
single chemical compound

> <ChemNote>
stereochem

> <STRUCTURE_Shown>
tested chemical

> <STRUCTURE_Formula>
C23H23N7O5

> <STRUCTURE_MW>
477.4726

> <STRUCTURE_ChemType>
defined organic

> <STRUCTURE_DefinedOrganicForm>
parent

> <STRUCTURE_IUPAC>
N-{4-[1-(2,4-diaminopteridin-6-yl)pent-4-yn-2-yl]benzoyl}-L-glutamic acid

> <STRUCTURE_SMILES>
O=C(O)[C@H](CCC(=O)O)NC(=O)c1ccc(cc1)C(CC#C)Cc2nc3c(nc2)nc(N)nc3N

> <STRUCTURE_SMILES_Desalt>
O=C(O)[C@H](CCC(=O)O)NC(=O)c1ccc(cc1)C(CC#C)Cc2nc3c(nc2)nc(N)nc3N

> <Substance_modify_yyyymmdd>
20110113

$$$$
