146653-56-7
ChemmineR-0915142007XD

 21 22  0  0  0  0  0  0  0  0  1 V2000
   11.5218   -0.6591    0.0000 C   0  0  0  0  0  0  0  0  0  0  0  0
   12.6752    0.0000    0.0000 N   0  0  0  0  0  0  0  0  0  0  0  0
   10.3683   -1.3309    0.0000 C   0  0  0  0  0  0  0  0  0  0  0  0
   10.3683   -2.6618    0.0000 C   0  0  0  0  0  0  0  0  0  0  0  0
    9.2149   -0.6591    0.0000 C   0  0  0  0  0  0  0  0  0  0  0  0
    9.2149   -3.3209    0.0000 C   0  0  0  0  0  0  0  0  0  0  0  0
    8.0488   -1.3309    0.0000 C   0  0  0  0  0  0  0  0  0  0  0  0
    8.0741   -2.6491    0.0000 C   0  0  0  0  0  0  0  0  0  0  0  0
    6.9207   -3.3082    0.0000 C   0  0  0  0  0  0  0  0  0  0  0  0
    5.7545   -2.6491    0.0000 C   0  0  0  0  0  0  0  0  0  0  0  0
    5.7545   -1.3309    0.0000 O   0  0  0  0  0  0  0  0  0  0  0  0
    2.3069   -3.3209    0.0000 C   0  0  0  0  0  0  0  0  0  0  0  0
    2.3069   -4.6518    0.0000 C   0  0  0  0  0  0  0  0  0  0  0  0
    3.4603   -5.3109    0.0000 C   0  0  0  0  0  0  0  0  0  0  0  0
    4.6011   -4.6518    0.0000 C   0  0  0  0  0  0  0  0  0  0  0  0
    4.6265   -3.3209    0.0000 C   0  0  0  0  0  0  0  0  0  0  0  0
    3.4603   -2.6491    0.0000 C   0  0  0  0  0  0  0  0  0  0  0  0
    1.1534   -2.6491    0.0000 C   0  0  0  0  0  0  0  0  0  0  0  0
    1.8126   -1.4957    0.0000 F   0  0  0  0  0  0  0  0  0  0  0  0
    0.4817   -3.8026    0.0000 F   0  0  0  0  0  0  0  0  0  0  0  0
    0.0000   -1.9900    0.0000 F   0  0  0  0  0  0  0  0  0  0  0  0
  1  2  3  0  0  0  0
  1  3  1  0  0  0  0
  3  4  2  0  0  0  0
  3  5  1  0  0  0  0
  4  6  1  0  0  0  0
  5  7  2  0  0  0  0
  6  8  2  0  0  0  0
  7  8  1  0  0  0  0
  8  9  1  0  0  0  0
  9 10  1  0  0  0  0
 10 11  2  0  0  0  0
 10 16  1  0  0  0  0
 12 17  2  0  0  0  0
 12 13  1  0  0  0  0
 12 18  1  0  0  0  0
 13 14  2  0  0  0  0
 14 15  1  0  0  0  0
 15 16  2  0  0  0  0
 16 17  1  0  0  0  0
 18 19  1  0  0  0  0
 18 20  1  0  0  0  0
 18 21  1  0  0  0  0
M  END
> <ID>
10483

> <Formula>
C16H10F3NO

> <FW>
289.2519

> <DSSTox_CID>
24835

> <DSSTox_RID>
80516

> <DSSTox_GSID>
44835

> <DSSTox_FileID_Sort>
5198

> <TS_ChemName>
4-{2-Oxo-2-[3-(trifluoromethyl)phenyl]ethyl}benzonitrile

> <TS_ChemName_Synonyms>
4-{2-Oxo-2-[3-(trifluoromethyl)phenyl]ethyl}benzonitrile (Benzonitrile, 4-[2-oxo-2-[3-(trifluoromethyl)phenyl]ethyl]-)

> <TS_CASRN>
146653-56-7

> <CASRN_ChemName_Relationship>
primary

> <TS_Description>
single chemical compound

> <ChemNote>
tautomers

> <STRUCTURE_Shown>
tested chemical

> <STRUCTURE_Formula>
C16H10F3NO

> <STRUCTURE_MW>
289.2519

> <STRUCTURE_ChemType>
defined organic

> <STRUCTURE_DefinedOrganicForm>
parent

> <STRUCTURE_IUPAC>
4-{2-oxo-2-[3-(trifluoromethyl)phenyl]ethyl}benzonitrile

> <STRUCTURE_SMILES>
FC(F)(F)c1cccc(c1)C(=O)Cc2ccc(C#N)cc2

> <STRUCTURE_SMILES_Desalt>
FC(F)(F)c1cccc(c1)C(=O)Cc2ccc(C#N)cc2

> <Substance_modify_yyyymmdd>
20091116

$$$$
