14667-55-1
ChemmineR-0915142007XD

  9  9  0  0  0  0  0  0  0  0  1 V2000
    2.2450   -0.0966    0.0000 N   0  0  0  0  0  0  0  0  0  0  0  0
    2.3232   -2.7280    0.0000 N   0  0  0  0  0  0  0  0  0  0  0  0
    3.4365   -0.7085    0.0000 C   0  0  0  0  0  0  0  0  0  0  0  0
    1.1317   -2.1162    0.0000 C   0  0  0  0  0  0  0  0  0  0  0  0
    3.4365   -2.0518    0.0000 C   0  0  0  0  0  0  0  0  0  0  0  0
    1.1317   -0.7729    0.0000 C   0  0  0  0  0  0  0  0  0  0  0  0
    4.5866    0.0000    0.0000 C   0  0  0  0  0  0  0  0  0  0  0  0
    4.6004   -2.6958    0.0000 C   0  0  0  0  0  0  0  0  0  0  0  0
    0.0000   -2.7924    0.0000 C   0  0  0  0  0  0  0  0  0  0  0  0
  1  3  2  0  0  0  0
  1  6  1  0  0  0  0
  2  4  1  0  0  0  0
  2  5  2  0  0  0  0
  3  5  1  0  0  0  0
  3  7  1  0  0  0  0
  4  6  2  0  0  0  0
  4  9  1  0  0  0  0
  5  8  1  0  0  0  0
M  END
> <ID>
12227

> <Formula>
C7H10N2

> <FW>
122.1677

> <DSSTox_CID>
27075

> <DSSTox_RID>
82089

> <DSSTox_GSID>
47075

> <DSSTox_FileID_Sort>
6770

> <TS_ChemName>
2,3,5-Trimethylpyrazine

> <TS_ChemName_Synonyms>


> <TS_CASRN>
14667-55-1

> <CASRN_ChemName_Relationship>
primary

> <TS_Description>
single chemical compound

> <ChemNote>


> <STRUCTURE_Shown>
tested chemical

> <STRUCTURE_Formula>
C7H10N2

> <STRUCTURE_MW>
122.1677

> <STRUCTURE_ChemType>
defined organic

> <STRUCTURE_DefinedOrganicForm>
parent

> <STRUCTURE_IUPAC>
2,3,5-trimethylpyrazine

> <STRUCTURE_SMILES>
Cc1cnc(C)c(C)n1

> <STRUCTURE_SMILES_Desalt>
Cc1cnc(C)c(C)n1

> <Substance_modify_yyyymmdd>
20100429

$$$$
