14663-23-1
ChemmineR-0915142007XD

 24 25  0  0  0  0  0  0  0  0  2 V2000
   11.6629   -4.7367    0.0000 C    0  0  0  0  0  0  0  0  0  0  0  0
   13.0510   -5.0229    0.0000 N    0  5  0  0  0  0  0  0  0  0  0  0
   11.0046   -5.9102    0.0000 N    0  0  0  0  0  0  0  0  0  0  0  0
    1.2736   -1.4167    0.0000 N    0  3  0  0  0  0  0  0  0  0  0  0
   13.0510   -6.3538    0.0000 C    0  0  0  0  0  0  0  0  0  0  0  0
    4.9943   -5.1660    0.0000 C    0  0  0  0  0  0  0  0  0  0  0  0
   11.9491   -6.8546    0.0000 C    0  0  0  0  0  0  0  0  0  0  0  0
    9.6594   -5.9102    0.0000 N    0  0  0  0  0  0  0  0  0  0  0  0
    6.2679   -4.8655    0.0000 O    0  0  0  0  0  0  0  0  0  0  0  0
    4.9943   -6.5398    0.0000 C    0  0  0  0  0  0  0  0  0  0  0  0
    6.9977   -5.9102    0.0000 C    0  0  0  0  0  0  0  0  0  0  0  0
    8.4145   -5.9102    0.0000 C    0  0  0  0  0  0  0  0  0  0  0  0
    2.2324   -2.3898    0.0000 C    0  0  0  0  0  0  0  0  0  0  0  0
    6.1964   -6.9548    0.0000 C    0  0  0  0  0  0  0  0  0  0  0  0
    0.0000   -1.7315    0.0000 O    0  5  0  0  0  0  0  0  0  0  0  0
    4.0069   -4.3217    0.0000 C    0  0  0  0  0  0  0  0  0  0  0  0
    1.7315    0.0000    0.0000 O    0  0  0  0  0  0  0  0  0  0  0  0
   11.1048   -3.5490    0.0000 O    0  0  0  0  0  0  0  0  0  0  0  0
   14.3103   -6.9548    0.0000 O    0  0  0  0  0  0  0  0  0  0  0  0
    1.8460   -3.6491    0.0000 C    0  0  0  0  0  0  0  0  0  0  0  0
    3.5060   -2.0893    0.0000 C    0  0  0  0  0  0  0  0  0  0  0  0
    2.7476   -4.6079    0.0000 C    0  0  0  0  0  0  0  0  0  0  0  0
    4.4076   -3.0481    0.0000 C    0  0  0  0  0  0  0  0  0  0  0  0
   14.2101   -4.6222    0.0000 Na   0  3  0  0  0  0  0  0  0  0  0  0
  1  2  1  0  0  0  0
  1  3  1  0  0  0  0
  1 18  2  0  0  0  0
  2  5  1  0  0  0  0
  3  7  1  0  0  0  0
  3  8  1  0  0  0  0
  4 13  1  0  0  0  0
  4 15  1  0  0  0  0
  4 17  2  0  0  0  0
  5 19  2  0  0  0  0
  5  7  1  0  0  0  0
  6  9  1  0  0  0  0
  6 16  1  0  0  0  0
  6 10  2  0  0  0  0
  8 12  2  0  0  0  0
  9 11  1  0  0  0  0
 10 14  1  0  0  0  0
 11 12  1  0  0  0  0
 11 14  2  0  0  0  0
 13 21  2  0  0  0  0
 13 20  1  0  0  0  0
 16 22  1  0  0  0  0
 16 23  2  0  0  0  0
 20 22  2  0  0  0  0
 21 23  1  0  0  0  0
M  END
> <ID>
10239

> <Formula>
C14H9N4NaO5

> <FW>
336.2348 (313.2456+22.9892)

> <DSSTox_CID>
24585

> <DSSTox_RID>
80332

> <DSSTox_GSID>
44585

> <DSSTox_FileID_Sort>
5014

> <TS_ChemName>
Dantrolene sodium

> <TS_ChemName_Synonyms>
(1-[[5-(4-nitrophenyl)furfurylidene]amino]imidazolidine-2,4-dione, sodium salt)

> <TS_CASRN>
14663-23-1

> <CASRN_ChemName_Relationship>
primary

> <TS_Description>
single chemical compound

> <ChemNote>
parent [7261-97-4]

> <STRUCTURE_Shown>
tested chemical

> <STRUCTURE_Formula>
C14H9N4NaO5

> <STRUCTURE_MW>
336.2348

> <STRUCTURE_ChemType>
defined organic

> <STRUCTURE_DefinedOrganicForm>
salt

> <STRUCTURE_IUPAC>
sodium 3-({[5-(4-nitrophenyl)furan-2-yl]methylidene}amino)-2,5-dioxoimidazolidin-1-ide

> <STRUCTURE_SMILES>
[Na+].[O-][N+](=O)c1ccc(cc1)c3ccc(/C=N/N2CC(=O)[N-]C2=O)o3

> <STRUCTURE_SMILES_Desalt>
[O-][N+](=O)c1ccc(cc1)c3ccc(/C=N/N2CC(=O)NC2=O)o3

> <Substance_modify_yyyymmdd>
20091116

$$$$
