1466-76-8
ChemmineR-0915142007XD

 13 13  0  0  0  0  0  0  0  0  1 V2000
    3.4462   -0.6686    0.0000 C   0  0  0  0  0  0  0  0  0  0  0  0
    2.2952    0.0000    0.0000 O   0  0  0  0  0  0  0  0  0  0  0  0
    3.4462   -1.9919    0.0000 C   0  0  0  0  0  0  0  0  0  0  0  0
    4.5972    0.0000    0.0000 O   0  0  0  0  0  0  0  0  0  0  0  0
    2.2952   -2.6673    0.0000 C   0  0  0  0  0  0  0  0  0  0  0  0
    4.5972   -2.6673    0.0000 C   0  0  0  0  0  0  0  0  0  0  0  0
    2.2952   -3.9907    0.0000 C   0  0  0  0  0  0  0  0  0  0  0  0
    4.5972   -3.9907    0.0000 C   0  0  0  0  0  0  0  0  0  0  0  0
    3.4462   -4.6592    0.0000 C   0  0  0  0  0  0  0  0  0  0  0  0
    1.1510   -1.9919    0.0000 O   0  0  0  0  0  0  0  0  0  0  0  0
    0.0000   -2.6673    0.0000 C   0  0  0  0  0  0  0  0  0  0  0  0
    5.7413   -1.9919    0.0000 O   0  0  0  0  0  0  0  0  0  0  0  0
    6.8924   -2.6673    0.0000 C   0  0  0  0  0  0  0  0  0  0  0  0
  1  2  2  0  0  0  0
  1  3  1  0  0  0  0
  1  4  1  0  0  0  0
  3  5  2  0  0  0  0
  3  6  1  0  0  0  0
  5  7  1  0  0  0  0
  5 10  1  0  0  0  0
  6  8  2  0  0  0  0
  6 12  1  0  0  0  0
  7  9  2  0  0  0  0
  8  9  1  0  0  0  0
 10 11  1  0  0  0  0
 12 13  1  0  0  0  0
M  END
> <ID>
12155

> <Formula>
C9H10O4

> <FW>
182.1733

> <DSSTox_CID>
26999

> <DSSTox_RID>
82043

> <DSSTox_GSID>
46999

> <DSSTox_FileID_Sort>
6724

> <TS_ChemName>
2,6-Dimethoxybenzoic acid

> <TS_ChemName_Synonyms>


> <TS_CASRN>
1466-76-8

> <CASRN_ChemName_Relationship>
primary

> <TS_Description>
single chemical compound

> <ChemNote>


> <STRUCTURE_Shown>
tested chemical

> <STRUCTURE_Formula>
C9H10O4

> <STRUCTURE_MW>
182.1733

> <STRUCTURE_ChemType>
defined organic

> <STRUCTURE_DefinedOrganicForm>
parent

> <STRUCTURE_IUPAC>
2,6-dimethoxybenzoic acid

> <STRUCTURE_SMILES>
COc1cccc(OC)c1C(=O)O

> <STRUCTURE_SMILES_Desalt>
COc1cccc(OC)c1C(=O)O

> <Substance_modify_yyyymmdd>
20100317

$$$$
