1468-95-7
ChemmineR-0915142007XD

 16 18  0  0  0  0  0  0  0  0  1 V2000
    6.9087   -3.9932    0.0000 C   0  0  0  0  0  0  0  0  0  0  0  0
    0.0000   -3.9932    0.0000 C   0  0  0  0  0  0  0  0  0  0  0  0
    6.9087   -2.6599    0.0000 C   0  0  0  0  0  0  0  0  0  0  0  0
    0.0000   -2.6599    0.0000 C   0  0  0  0  0  0  0  0  0  0  0  0
    5.7550   -4.6565    0.0000 C   0  0  0  0  0  0  0  0  0  0  0  0
    1.1538   -4.6565    0.0000 C   0  0  0  0  0  0  0  0  0  0  0  0
    5.7550   -1.9966    0.0000 C   0  0  0  0  0  0  0  0  0  0  0  0
    1.1538   -1.9966    0.0000 C   0  0  0  0  0  0  0  0  0  0  0  0
    3.4544   -4.6565    0.0000 C   0  0  0  0  0  0  0  0  0  0  0  0
    3.4544   -0.6701    0.0000 C   0  0  0  0  0  0  0  0  0  0  0  0
    4.6081   -3.9932    0.0000 C   0  0  0  0  0  0  0  0  0  0  0  0
    2.3006   -3.9932    0.0000 C   0  0  0  0  0  0  0  0  0  0  0  0
    4.6081   -2.6599    0.0000 C   0  0  0  0  0  0  0  0  0  0  0  0
    2.3006   -2.6599    0.0000 C   0  0  0  0  0  0  0  0  0  0  0  0
    3.4544   -1.9966    0.0000 C   0  0  0  0  0  0  0  0  0  0  0  0
    2.3006    0.0000    0.0000 O   0  0  0  0  0  0  0  0  0  0  0  0
  1  3  1  0  0  0  0
  1  5  2  0  0  0  0
  2  4  2  0  0  0  0
  2  6  1  0  0  0  0
  3  7  2  0  0  0  0
  4  8  1  0  0  0  0
  5 11  1  0  0  0  0
  6 12  2  0  0  0  0
  7 13  1  0  0  0  0
  8 14  2  0  0  0  0
  9 11  2  0  0  0  0
  9 12  1  0  0  0  0
 10 15  1  0  0  0  0
 10 16  1  0  0  0  0
 11 13  1  0  0  0  0
 12 14  1  0  0  0  0
 13 15  2  0  0  0  0
 14 15  1  0  0  0  0
M  END
> <ID>
14084

> <Formula>
C15H12O

> <FW>
208.2552

> <DSSTox_CID>
29077

> <DSSTox_RID>
83296

> <DSSTox_GSID>
49221

> <DSSTox_FileID_Sort>
7971

> <TS_ChemName>
9-Anthracenemethanol

> <TS_ChemName_Synonyms>


> <TS_CASRN>
1468-95-7

> <CASRN_ChemName_Relationship>
primary

> <TS_Description>
single chemical compound

> <ChemNote>


> <STRUCTURE_Shown>
tested chemical

> <STRUCTURE_Formula>
C15H12O

> <STRUCTURE_MW>
208.2552

> <STRUCTURE_ChemType>
defined organic

> <STRUCTURE_DefinedOrganicForm>
parent

> <STRUCTURE_IUPAC>
anthracen-9-ylmethanol

> <STRUCTURE_SMILES>
OCc2c3ccccc3cc1ccccc12

> <STRUCTURE_SMILES_Desalt>
OCc2c3ccccc3cc1ccccc12

> <Substance_modify_yyyymmdd>
20111204

$$$$
