146939-27-7
ChemmineR-0915142007XD

 28 32  0  0  0  0  0  0  0  0  1 V2000
    0.0000   -0.6550    0.0000 C    0  0  0  0  0  0  0  0  0  0  0  0
    1.1463    0.0000    0.0000 C    0  0  0  0  0  0  0  0  0  0  0  0
    2.3090   -0.6550    0.0000 C    0  0  0  0  0  0  0  0  0  0  0  0
    2.3090   -1.9815    0.0000 C    0  0  0  0  0  0  0  0  0  0  0  0
    1.1463   -2.6529    0.0000 C    0  0  0  0  0  0  0  0  0  0  0  0
    0.0000   -1.9815    0.0000 C    0  0  0  0  0  0  0  0  0  0  0  0
    1.4247   -3.9630    0.0000 S    0  0  0  0  0  0  0  0  0  0  0  0
    2.7512   -4.0940    0.0000 N    0  0  0  0  0  0  0  0  0  0  0  0
    3.2916   -2.8822    0.0000 C    0  0  0  0  0  0  0  0  0  0  0  0
    4.5853   -2.6038    0.0000 N    0  0  0  0  0  0  0  0  0  0  0  0
    4.9947   -1.3428    0.0000 C    0  0  0  0  0  0  0  0  0  0  0  0
    6.3048   -1.0644    0.0000 C    0  0  0  0  0  0  0  0  0  0  0  0
    7.1891   -2.0470    0.0000 N    0  0  0  0  0  0  0  0  0  0  0  0
    8.4992   -1.7686    0.0000 C    0  0  0  0  0  0  0  0  0  0  0  0
    9.4327   -2.7184    0.0000 C    0  0  0  0  0  0  0  0  0  0  0  0
   10.7264   -2.3745    0.0000 C    0  0  0  0  0  0  0  0  0  0  0  0
   11.0703   -1.0808    0.0000 C    0  0  0  0  0  0  0  0  0  0  0  0
   10.1205   -0.1474    0.0000 Cl   0  0  0  0  0  0  0  0  0  0  0  0
   12.3476   -0.7369    0.0000 C    0  0  0  0  0  0  0  0  0  0  0  0
   13.2811   -1.6867    0.0000 C    0  0  0  0  0  0  0  0  0  0  0  0
   12.9372   -2.9641    0.0000 C    0  0  0  0  0  0  0  0  0  0  0  0
   11.6598   -3.3080    0.0000 C    0  0  0  0  0  0  0  0  0  0  0  0
   14.0507   -3.6846    0.0000 C    0  0  0  0  0  0  0  0  0  0  0  0
   15.0988   -2.8494    0.0000 C    0  0  0  0  0  0  0  0  0  0  0  0
   16.3761   -3.1933    0.0000 O    0  0  0  0  0  0  0  0  0  0  0  0
   14.6075   -1.6049    0.0000 N    0  0  0  0  0  0  0  0  0  0  0  0
    6.7797   -3.3080    0.0000 C    0  0  0  0  0  0  0  0  0  0  0  0
    5.4860   -3.5864    0.0000 C    0  0  0  0  0  0  0  0  0  0  0  0
  1  2  2  0  0  0  0
  1  6  1  0  0  0  0
  2  3  1  0  0  0  0
  3  4  2  0  0  0  0
  4  5  1  0  0  0  0
  4  9  1  0  0  0  0
  5  6  2  0  0  0  0
  5  7  1  0  0  0  0
  7  8  1  0  0  0  0
  8  9  2  0  0  0  0
  9 10  1  0  0  0  0
 10 11  1  0  0  0  0
 10 28  1  0  0  0  0
 11 12  1  0  0  0  0
 12 13  1  0  0  0  0
 13 14  1  0  0  0  0
 13 27  1  0  0  0  0
 14 15  1  0  0  0  0
 15 16  1  0  0  0  0
 16 17  2  0  0  0  0
 16 22  1  0  0  0  0
 17 18  1  0  0  0  0
 17 19  1  0  0  0  0
 19 20  2  0  0  0  0
 20 21  1  0  0  0  0
 20 26  1  0  0  0  0
 21 22  2  0  0  0  0
 21 23  1  0  0  0  0
 23 24  1  0  0  0  0
 24 25  2  0  0  0  0
 24 26  1  0  0  0  0
 27 28  1  0  0  0  0
M  END
> <ID>
3353

> <Formula>
C21H21ClN4OS

> <FW>
412.9356

> <DSSTox_CID>
3753

> <DSSTox_RID>
77186

> <DSSTox_GSID>
23753

> <DSSTox_FileID_Sort>
1869

> <TS_ChemName>
Ziprasidone

> <TS_ChemName_Synonyms>


> <TS_CASRN>
146939-27-7

> <CASRN_ChemName_Relationship>
primary

> <TS_Description>
single chemical compound

> <ChemNote>


> <STRUCTURE_Shown>
tested chemical

> <STRUCTURE_Formula>
C21H21ClN4OS

> <STRUCTURE_MW>
412.9356

> <STRUCTURE_ChemType>
defined organic

> <STRUCTURE_DefinedOrganicForm>
parent

> <STRUCTURE_IUPAC>
5-{2-[4-(1,2-benzothiazol-3-yl)piperazin-1-yl]ethyl}-6-chloro-1,3-dihydro-2H-indol-2-one

> <STRUCTURE_SMILES>
O=C4Cc5cc(CCN1CCN(CC1)c3nsc2ccccc23)c(Cl)cc5N4

> <STRUCTURE_SMILES_Desalt>
O=C4Cc5cc(CCN1CCN(CC1)c3nsc2ccccc23)c(Cl)cc5N4

> <Substance_modify_yyyymmdd>
20080429

$$$$
