14698-29-4
ChemmineR-0915142007XD

 19 21  0  0  0  0  0  0  0  0  1 V2000
    5.4994   -5.9830    0.0000 O   0  0  0  0  0  0  0  0  0  0  0  0
    5.4994   -4.6574    0.0000 C   0  0  0  0  0  0  0  0  0  0  0  0
    4.3529   -3.9857    0.0000 C   0  0  0  0  0  0  0  0  0  0  0  0
    3.1975   -4.6574    0.0000 C   0  0  0  0  0  0  0  0  0  0  0  0
    2.0421   -3.9857    0.0000 C   0  0  0  0  0  0  0  0  0  0  0  0
    2.0421   -2.6601    0.0000 C   0  0  0  0  0  0  0  0  0  0  0  0
    3.1975   -1.9973    0.0000 C   0  0  0  0  0  0  0  0  0  0  0  0
    4.3529   -2.6601    0.0000 C   0  0  0  0  0  0  0  0  0  0  0  0
    5.4994   -1.9973    0.0000 N   0  0  0  0  0  0  0  0  0  0  0  0
    6.6548   -2.6601    0.0000 C   0  0  0  0  0  0  0  0  0  0  0  0
    6.6548   -3.9857    0.0000 C   0  0  0  0  0  0  0  0  0  0  0  0
    7.8012   -4.6574    0.0000 C   0  0  0  0  0  0  0  0  0  0  0  0
    7.8012   -5.9830    0.0000 O   0  0  0  0  0  0  0  0  0  0  0  0
    8.9566   -3.9857    0.0000 O   0  0  0  0  0  0  0  0  0  0  0  0
    5.4994   -0.6628    0.0000 C   0  0  0  0  0  0  0  0  0  0  0  0
    6.6548    0.0000    0.0000 C   0  0  0  0  0  0  0  0  0  0  0  0
    0.7792   -2.2481    0.0000 O   0  0  0  0  0  0  0  0  0  0  0  0
    0.0000   -3.3229    0.0000 C   0  0  0  0  0  0  0  0  0  0  0  0
    0.7792   -4.3977    0.0000 O   0  0  0  0  0  0  0  0  0  0  0  0
  1  2  2  0  0  0  0
  2  3  1  0  0  0  0
  2 11  1  0  0  0  0
  3  4  2  0  0  0  0
  3  8  1  0  0  0  0
  4  5  1  0  0  0  0
  5  6  2  0  0  0  0
  5 19  1  0  0  0  0
  6  7  1  0  0  0  0
  6 17  1  0  0  0  0
  7  8  2  0  0  0  0
  8  9  1  0  0  0  0
  9 10  1  0  0  0  0
  9 15  1  0  0  0  0
 10 11  2  0  0  0  0
 11 12  1  0  0  0  0
 12 13  2  0  0  0  0
 12 14  1  0  0  0  0
 15 16  1  0  0  0  0
 17 18  1  0  0  0  0
 18 19  1  0  0  0  0
M  END
> <ID>
1048

> <Formula>
C13H11NO5

> <FW>
261.2301

> <DSSTox_CID>
1089

> <DSSTox_RID>
75935

> <DSSTox_GSID>
21089

> <DSSTox_FileID_Sort>
619

> <TS_ChemName>
Oxolinic acid

> <TS_ChemName_Synonyms>


> <TS_CASRN>
14698-29-4

> <CASRN_ChemName_Relationship>
primary

> <TS_Description>
single chemical compound

> <ChemNote>


> <STRUCTURE_Shown>
tested chemical

> <STRUCTURE_Formula>
C13H11NO5

> <STRUCTURE_MW>
261.2301

> <STRUCTURE_ChemType>
defined organic

> <STRUCTURE_DefinedOrganicForm>
parent

> <STRUCTURE_IUPAC>
5-ethyl-8-oxo-5,8-dihydro[1,3]dioxolo[4,5-g]quinoline-7-carboxylic acid

> <STRUCTURE_SMILES>
O=C(O)C2=CN(CC)c1cc3OCOc3cc1C2=O

> <STRUCTURE_SMILES_Desalt>
O=C(O)C2=CN(CC)c1cc3OCOc3cc1C2=O

> <Substance_modify_yyyymmdd>
20080429

$$$$
