146961-77-5
ChemmineR-0915142007XD

 48 51  0  0  1  0  0  0  0  0  1 V2000
    3.8748   -4.5552    0.0000 C   0  0  0  0  0  0  0  0  0  0  0  0
    2.5517    0.0000    0.0000 C   0  0  0  0  0  0  0  0  0  0  0  0
    1.9090   -1.1341    0.0000 C   0  0  0  0  0  0  0  0  0  0  0  0
    0.5859   -1.1341    0.0000 N   0  0  0  0  0  0  0  0  0  0  0  0
    2.5517   -2.2871    0.0000 C   0  0  0  0  0  0  0  0  0  0  0  0
    1.9090   -3.4211    0.0000 O   0  0  0  0  0  0  0  0  0  0  0  0
    3.8748   -2.2871    0.0000 N   0  0  0  0  0  0  0  0  0  0  0  0
    4.5363   -3.4211    0.0000 C   0  0  0  0  0  0  0  0  0  0  0  0
    5.8405   -3.4022    0.0000 C   0  0  0  0  0  0  0  0  0  0  0  0
    6.5209   -2.2871    0.0000 O   0  0  0  0  0  0  0  0  0  0  0  0
    6.5209   -4.5552    0.0000 N   0  0  0  0  0  0  0  0  0  0  0  0
    7.8251   -4.5552    0.0000 C   0  0  0  0  0  0  0  0  0  0  0  0
    8.9781   -3.8937    0.0000 C   0  0  0  0  0  0  0  0  0  0  0  0
    8.9781   -2.5895    0.0000 H   0  0  0  0  0  0  0  0  0  0  0  0
   10.2067   -3.4967    0.0000 C   0  0  0  0  0  0  0  0  0  0  0  0
   11.0005   -4.5741    0.0000 N   0  0  0  0  0  0  0  0  0  0  0  0
   10.2067   -5.6137    0.0000 C   0  0  0  0  0  0  0  0  0  0  0  0
    8.9781   -5.2167    0.0000 C   0  0  0  0  0  0  0  0  0  0  0  0
    8.9592   -6.5209    0.0000 H   0  0  0  0  0  0  0  0  0  0  0  0
   12.3047   -4.5741    0.0000 C   0  0  0  0  0  0  0  0  0  0  0  0
   12.9663   -3.4211    0.0000 C   0  0  0  0  0  0  0  0  0  0  0  0
   12.3047   -2.2871    0.0000 F   0  0  0  0  0  0  0  0  0  0  0  0
   14.2704   -3.4211    0.0000 C   0  0  0  0  0  0  0  0  0  0  0  0
   14.9320   -4.5741    0.0000 C   0  0  0  0  0  0  0  0  0  0  0  0
   16.2551   -4.5741    0.0000 C   0  0  0  0  0  0  0  0  0  0  0  0
   16.9166   -3.4211    0.0000 O   0  0  0  0  0  0  0  0  0  0  0  0
   16.9166   -5.7082    0.0000 C   0  0  0  0  0  0  0  0  0  0  0  0
   16.2551   -6.8423    0.0000 C   0  0  0  0  0  0  0  0  0  0  0  0
   14.9320   -6.8423    0.0000 N   0  0  0  0  0  0  0  0  0  0  0  0
   14.2704   -7.9763    0.0000 C   0  0  0  0  0  0  0  0  0  0  0  0
   12.9852   -7.9574    0.0000 C   0  0  0  0  0  0  0  0  0  0  0  0
   12.3047   -9.1104    0.0000 C   0  0  0  0  0  0  0  0  0  0  0  0
   12.9663  -10.2445    0.0000 C   0  0  0  0  0  0  0  0  0  0  0  0
   12.3047  -11.3975    0.0000 F   0  0  0  0  0  0  0  0  0  0  0  0
   14.2704  -10.2445    0.0000 C   0  0  0  0  0  0  0  0  0  0  0  0
   14.9509   -9.1293    0.0000 C   0  0  0  0  0  0  0  0  0  0  0  0
   16.2740   -9.1293    0.0000 F   0  0  0  0  0  0  0  0  0  0  0  0
   14.2704   -5.6893    0.0000 C   0  0  0  0  0  0  0  0  0  0  0  0
   12.9663   -5.7082    0.0000 N   0  0  0  0  0  0  0  0  0  0  0  0
   18.2397   -5.6893    0.0000 C   0  0  0  0  0  0  0  0  0  0  0  0
   18.9013   -4.5552    0.0000 O   0  0  0  0  0  0  0  0  0  0  0  0
   18.9013   -6.8423    0.0000 O   0  0  0  0  0  0  0  0  0  0  0  0
    7.5038   -3.2888    0.0000 C   0  0  0  0  0  0  0  0  0  0  0  0
    1.4932   -6.6910    0.0000 O   0  0  0  0  0  0  0  0  0  0  0  0
    0.0000   -8.2031    0.0000 O   0  0  0  0  0  0  0  0  0  0  0  0
    1.4932   -9.6963    0.0000 O   0  0  0  0  0  0  0  0  0  0  0  0
    3.0053   -8.2031    0.0000 C   0  0  0  0  0  0  0  0  0  0  0  0
    1.4932   -8.2031    0.0000 S   0  0  0  0  0  0  0  0  0  0  0  0
  1  8  1  0  0  0  0
  2  3  1  0  0  0  0
  3  4  1  1  0  0  0
  3  5  1  0  0  0  0
  5  6  2  0  0  0  0
  5  7  1  0  0  0  0
  8  7  1  6  0  0  0
  8  9  1  0  0  0  0
  9 10  2  0  0  0  0
  9 11  1  0  0  0  0
 12 11  1  6  0  0  0
 12 13  1  0  0  0  0
 12 18  1  0  0  0  0
 12 43  1  0  0  0  0
 13 14  1  6  0  0  0
 13 15  1  0  0  0  0
 13 18  1  0  0  0  0
 15 16  1  0  0  0  0
 16 17  1  0  0  0  0
 16 20  1  0  0  0  0
 17 18  1  0  0  0  0
 18 19  1  6  0  0  0
 20 21  1  0  0  0  0
 20 39  2  0  0  0  0
 21 22  1  0  0  0  0
 21 23  2  0  0  0  0
 23 24  1  0  0  0  0
 24 25  1  0  0  0  0
 24 38  2  0  0  0  0
 25 26  2  0  0  0  0
 25 27  1  0  0  0  0
 27 28  2  0  0  0  0
 27 40  1  0  0  0  0
 28 29  1  0  0  0  0
 29 30  1  0  0  0  0
 29 38  1  0  0  0  0
 30 31  2  0  0  0  0
 30 36  1  0  0  0  0
 31 32  1  0  0  0  0
 32 33  2  0  0  0  0
 33 34  1  0  0  0  0
 33 35  1  0  0  0  0
 35 36  2  0  0  0  0
 36 37  1  0  0  0  0
 38 39  1  0  0  0  0
 40 41  1  0  0  0  0
 40 42  2  0  0  0  0
 44 48  2  0  0  0  0
 45 48  1  0  0  0  0
 46 48  2  0  0  0  0
 47 48  1  0  0  0  0
M  END
> <ID>
16059

> <Formula>
C28H31F3N6O8S

> <FW>
668.6413 (572.5357+96.1057)

> <DSSTox_CID>
31444

> <DSSTox_RID>
97330

> <DSSTox_GSID>
57655

> <DSSTox_FileID_Sort>
8397

> <TS_ChemName>
Alatrofloxacin mesylate

> <TS_ChemName_Synonyms>


> <TS_CASRN>
146961-77-5

> <CASRN_ChemName_Relationship>
primary

> <TS_Description>
single chemical compound

> <ChemNote>


> <STRUCTURE_Shown>
tested chemical

> <STRUCTURE_Formula>
C28H31F3N6O8S

> <STRUCTURE_MW>
668.6413

> <STRUCTURE_ChemType>
defined organic

> <STRUCTURE_DefinedOrganicForm>
complex

> <STRUCTURE_IUPAC>
L-alanyl-N-{(1R,5S,6s)-3-[6-carboxy-8-(2,4-difluorophenyl)-3-fluoro-5-oxo-5,8-dihydro-1,8-naphthyridin-2-yl]-6-methyl-3-azabicyclo[3.1.0]hex-6-yl}-L-alaninamide methanesulfonate (1:1)

> <STRUCTURE_SMILES>
CS(=O)(=O)O.C[C@H](N)C(=O)N[C@@H](C)C(=O)N[C@@]2(C)[C@@H]1CN(C[C@@H]12)c3nc4c(cc3F)C(=O)C(=CN4c5ccc(F)cc5F)C(=O)O

> <STRUCTURE_SMILES_Desalt>
C[C@H](N)C(=O)N[C@@H](C)C(=O)N[C@@]2(C)[C@@H]1CN(C[C@@H]12)c3nc4c(cc3F)C(=O)C(=CN4c5ccc(F)cc5F)C(=O)O

> <Substance_modify_yyyymmdd>
20131121

$$$$
