147-58-0
ChemmineR-0915142007XD

 14 14  0  0  0  0  0  0  0  0  1 V2000
    0.0000   -1.3294    0.0000 O   0  0  0  0  0  0  0  0  0  0  0  0
    1.1521   -1.9981    0.0000 C   0  0  0  0  0  0  0  0  0  0  0  0
    1.1521   -3.3275    0.0000 O   0  0  0  0  0  0  0  0  0  0  0  0
    2.3043   -1.3294    0.0000 C   0  0  0  0  0  0  0  0  0  0  0  0
    3.4564   -1.9981    0.0000 N   0  0  0  0  0  0  0  0  0  0  0  0
    4.6005   -1.3294    0.0000 C   0  0  0  0  0  0  0  0  0  0  0  0
    4.6005    0.0000    0.0000 O   0  0  0  0  0  0  0  0  0  0  0  0
    5.7526   -1.9981    0.0000 C   0  0  0  0  0  0  0  0  0  0  0  0
    6.9048   -1.3294    0.0000 C   0  0  0  0  0  0  0  0  0  0  0  0
    8.0569   -1.9981    0.0000 C   0  0  0  0  0  0  0  0  0  0  0  0
    8.0569   -3.3275    0.0000 C   0  0  0  0  0  0  0  0  0  0  0  0
    6.9048   -3.9882    0.0000 C   0  0  0  0  0  0  0  0  0  0  0  0
    5.7526   -3.3275    0.0000 C   0  0  0  0  0  0  0  0  0  0  0  0
    4.6005   -3.9882    0.0000 I   0  0  0  0  0  0  0  0  0  0  0  0
  1  2  1  0  0  0  0
  2  3  2  0  0  0  0
  2  4  1  0  0  0  0
  4  5  1  0  0  0  0
  5  6  1  0  0  0  0
  6  7  2  0  0  0  0
  6  8  1  0  0  0  0
  8  9  2  0  0  0  0
  8 13  1  0  0  0  0
  9 10  1  0  0  0  0
 10 11  2  0  0  0  0
 11 12  1  0  0  0  0
 12 13  2  0  0  0  0
 13 14  1  0  0  0  0
M  END
> <ID>
11460

> <Formula>
C9H8INO3

> <FW>
305.0692

> <DSSTox_CID>
26161

> <DSSTox_RID>
81392

> <DSSTox_GSID>
46161

> <DSSTox_FileID_Sort>
6073

> <TS_ChemName>
2-Iodohippuric acid

> <TS_ChemName_Synonyms>


> <TS_CASRN>
147-58-0

> <CASRN_ChemName_Relationship>
primary

> <TS_Description>
single chemical compound

> <ChemNote>


> <STRUCTURE_Shown>
tested chemical

> <STRUCTURE_Formula>
C9H8INO3

> <STRUCTURE_MW>
305.0692

> <STRUCTURE_ChemType>
defined organic

> <STRUCTURE_DefinedOrganicForm>
parent

> <STRUCTURE_IUPAC>
N-(2-iodobenzoyl)glycine

> <STRUCTURE_SMILES>
O=C(NCC(=O)O)c1ccccc1I

> <STRUCTURE_SMILES_Desalt>
O=C(NCC(=O)O)c1ccccc1I

> <Substance_modify_yyyymmdd>
20110818

$$$$
