1470-57-1
ChemmineR-0915142007XD

 16 17  0  0  0  0  0  0  0  0  1 V2000
    4.6165   -2.0026    0.0000 C   0  0  0  0  0  0  0  0  0  0  0  0
    4.6165   -3.3458    0.0000 C   0  0  0  0  0  0  0  0  0  0  0  0
    5.7667   -4.0214    0.0000 C   0  0  0  0  0  0  0  0  0  0  0  0
    6.9087   -3.3458    0.0000 C   0  0  0  0  0  0  0  0  0  0  0  0
    6.9087   -2.0026    0.0000 C   0  0  0  0  0  0  0  0  0  0  0  0
    5.7667   -1.3592    0.0000 C   0  0  0  0  0  0  0  0  0  0  0  0
    3.4584   -1.3431    0.0000 C   0  0  0  0  0  0  0  0  0  0  0  0
    3.4584    0.0000    0.0000 O   0  0  0  0  0  0  0  0  0  0  0  0
    2.3083   -2.0026    0.0000 C   0  0  0  0  0  0  0  0  0  0  0  0
    2.3083   -3.3458    0.0000 C   0  0  0  0  0  0  0  0  0  0  0  0
    1.1823   -3.9892    0.0000 C   0  0  0  0  0  0  0  0  0  0  0  0
    0.0000   -3.3458    0.0000 C   0  0  0  0  0  0  0  0  0  0  0  0
    0.0000   -2.0026    0.0000 C   0  0  0  0  0  0  0  0  0  0  0  0
    1.1823   -1.3431    0.0000 C   0  0  0  0  0  0  0  0  0  0  0  0
    3.4584   -4.0214    0.0000 O   0  0  0  0  0  0  0  0  0  0  0  0
    8.0428   -1.3592    0.0000 C   0  0  0  0  0  0  0  0  0  0  0  0
  1  7  1  0  0  0  0
  1  6  2  0  0  0  0
  1  2  1  0  0  0  0
  2  3  2  0  0  0  0
  2 15  1  0  0  0  0
  3  4  1  0  0  0  0
  4  5  2  0  0  0  0
  5  6  1  0  0  0  0
  5 16  1  0  0  0  0
  7  8  2  0  0  0  0
  7  9  1  0  0  0  0
  9 10  2  0  0  0  0
  9 14  1  0  0  0  0
 10 11  1  0  0  0  0
 11 12  2  0  0  0  0
 12 13  1  0  0  0  0
 13 14  2  0  0  0  0
M  END
> <ID>
12956

> <Formula>
C14H12O2

> <FW>
212.2439

> <DSSTox_CID>
27857

> <DSSTox_RID>
82610

> <DSSTox_GSID>
47881

> <DSSTox_FileID_Sort>
7287

> <TS_ChemName>
2-Hydroxy-5-methylbenzophenone

> <TS_ChemName_Synonyms>


> <TS_CASRN>
1470-57-1

> <CASRN_ChemName_Relationship>
primary

> <TS_Description>
single chemical compound

> <ChemNote>


> <STRUCTURE_Shown>
tested chemical

> <STRUCTURE_Formula>
C14H12O2

> <STRUCTURE_MW>
212.2439

> <STRUCTURE_ChemType>
defined organic

> <STRUCTURE_DefinedOrganicForm>
parent

> <STRUCTURE_IUPAC>
(2-hydroxy-5-methylphenyl)(phenyl)methanone

> <STRUCTURE_SMILES>
O=C(c1cc(C)ccc1O)c2ccccc2

> <STRUCTURE_SMILES_Desalt>
O=C(c1cc(C)ccc1O)c2ccccc2

> <Substance_modify_yyyymmdd>


$$$$
