147086-81-5
ChemmineR-0915142007XD

 15 16  0  0  1  0  0  0  0  0  1 V2000
    0.0000   -1.8271    0.0000 C   0  0  0  0  0  0  0  0  0  0  0  0
    1.3278   -1.8271    0.0000 C   0  0  0  0  0  0  0  0  0  0  0  0
    0.6582   -0.6752    0.0000 H   0  0  0  0  0  0  0  0  0  0  0  0
    1.3278   -3.1605    0.0000 C   0  0  0  0  0  0  0  0  0  0  0  0
    2.4853   -3.8187    0.0000 C   0  0  0  0  0  0  0  0  0  0  0  0
    1.8101   -4.9706    0.0000 H   0  0  0  0  0  0  0  0  0  0  0  0
    3.1435   -4.9706    0.0000 O   0  0  0  0  0  0  0  0  0  0  0  0
    3.6372   -3.1605    0.0000 C   0  0  0  0  0  0  0  0  0  0  0  0
    3.6372   -1.8271    0.0000 C   0  0  0  0  0  0  0  0  0  0  0  0
    4.8911   -1.4129    0.0000 S   0  0  0  0  0  0  0  0  0  0  0  0
    5.6742   -2.4853    0.0000 C   0  0  0  0  0  0  0  0  0  0  0  0
    4.8911   -3.5577    0.0000 C   0  0  0  0  0  0  0  0  0  0  0  0
    2.4853   -1.1575    0.0000 S   0  0  0  0  0  0  0  0  0  0  0  0
    3.1435    0.0000    0.0000 O   0  0  0  0  0  0  0  0  0  0  0  0
    1.8101    0.0000    0.0000 O   0  0  0  0  0  0  0  0  0  0  0  0
  1  2  1  0  0  0  0
  2  3  1  1  0  0  0
  2  4  1  0  0  0  0
  2 13  1  0  0  0  0
  4  5  1  0  0  0  0
  5  6  1  6  0  0  0
  5  7  1  0  0  0  0
  5  8  1  0  0  0  0
  8  9  2  0  0  0  0
  8 12  1  0  0  0  0
  9 10  1  0  0  0  0
  9 13  1  0  0  0  0
 10 11  1  0  0  0  0
 11 12  2  0  0  0  0
 13 14  2  0  0  0  0
 13 15  2  0  0  0  0
M  END
> <ID>
16050

> <Formula>
C8H10O3S2

> <FW>
218.2932

> <DSSTox_CID>
31435

> <DSSTox_RID>
97321

> <DSSTox_GSID>
57646

> <DSSTox_FileID_Sort>
8388

> <TS_ChemName>
(4S,6s)-5,6-dihydro-6-methyl-4h-thieno[2,3-b]thiopyran-4-ol 7,7-dioxide

> <TS_ChemName_Synonyms>


> <TS_CASRN>
147086-81-5

> <CASRN_ChemName_Relationship>
primary

> <TS_Description>
single chemical compound

> <ChemNote>


> <STRUCTURE_Shown>
tested chemical

> <STRUCTURE_Formula>
C8H10O3S2

> <STRUCTURE_MW>
218.2932

> <STRUCTURE_ChemType>
defined organic

> <STRUCTURE_DefinedOrganicForm>
parent

> <STRUCTURE_IUPAC>
(4S,6S)-6-methyl-5,6-dihydro-4H-thieno[2,3-b]thiopyran-4-ol 7,7-dioxide

> <STRUCTURE_SMILES>
O[C@H]2C[C@H](C)S(=O)(=O)c1sccc12

> <STRUCTURE_SMILES_Desalt>
O[C@H]2C[C@H](C)S(=O)(=O)c1sccc12

> <Substance_modify_yyyymmdd>
20131018

$$$$
