147098-20-2
ChemmineR-0915142007XD

 67 68  0  0  0  0  0  0  0  0  2 V2000
   30.4856   -2.7437    0.0000 O    0  5  0  0  0  0  0  0  0  0  0  0
   29.3272   -0.7621    0.0000 O    0  0  0  0  0  0  0  0  0  0  0  0
   27.0103   -0.7621    0.0000 O    0  0  0  0  0  0  0  0  0  0  0  0
   24.7238   -0.7621    0.0000 O    0  0  0  0  0  0  0  0  0  0  0  0
   25.8823   -2.7437    0.0000 C    0  0  0  0  0  0  0  0  0  0  0  0
   27.0103   -2.0730    0.0000 C    0  0  0  0  0  0  0  0  0  0  0  0
   28.1687   -2.7437    0.0000 C    0  0  0  0  0  0  0  0  0  0  0  0
   29.3272   -2.0730    0.0000 C    0  0  0  0  0  0  0  0  0  0  0  0
   24.7238   -2.0730    0.0000 C    0  0  0  0  0  0  0  0  0  0  0  0
   23.5654   -2.7437    0.0000 C    0  0  0  0  0  0  0  0  0  0  0  0
   16.6452   -4.0851    0.0000 C    0  0  0  0  0  0  0  0  0  0  0  0
   17.8036   -7.4080    0.0000 O    0  0  0  0  0  0  0  0  0  0  0  0
   16.4927   -6.0666    0.0000 O    0  0  0  0  0  0  0  0  0  0  0  0
   19.1145   -6.0666    0.0000 C    0  0  0  0  0  0  0  0  0  0  0  0
   17.8036   -6.0666    0.0000 S    0  0  0  0  0  0  0  0  0  0  0  0
   21.2485   -0.0915    0.0000 C    0  0  0  0  0  0  0  0  0  0  0  0
   18.9621   -0.0915    0.0000 C    0  0  0  0  0  0  0  0  0  0  0  0
   20.0900   -0.7621    0.0000 C    0  0  0  0  0  0  0  0  0  0  0  0
   22.4069   -2.0730    0.0000 C    0  0  0  0  0  0  0  0  0  0  0  0
   20.0900   -2.0730    0.0000 C    0  0  0  0  0  0  0  0  0  0  0  0
   21.2485   -2.7437    0.0000 C    0  0  0  0  0  0  0  0  0  0  0  0
   21.2485   -4.0851    0.0000 C    0  0  0  0  0  0  0  0  0  0  0  0
   20.0900   -4.7558    0.0000 N    0  0  0  0  0  0  0  0  0  0  0  0
   18.9621   -4.0851    0.0000 C    0  0  0  0  0  0  0  0  0  0  0  0
   18.9621   -2.7437    0.0000 N    0  0  0  0  0  0  0  0  0  0  0  0
   17.8036   -4.7558    0.0000 N    0  0  0  0  0  0  0  0  0  0  0  0
   22.4069   -4.7558    0.0000 C    0  0  0  0  0  0  0  0  0  0  0  0
   23.5654   -4.0851    0.0000 C    0  0  0  0  0  0  0  0  0  0  0  0
   24.7238   -4.7558    0.0000 C    0  0  0  0  0  0  0  0  0  0  0  0
   24.7238   -6.0666    0.0000 C    0  0  0  0  0  0  0  0  0  0  0  0
   25.8823   -6.7373    0.0000 F    0  0  0  0  0  0  0  0  0  0  0  0
   23.5654   -6.7373    0.0000 C    0  0  0  0  0  0  0  0  0  0  0  0
   22.4069   -6.0666    0.0000 C    0  0  0  0  0  0  0  0  0  0  0  0
   14.0234   -2.6522    0.0000 O    0  5  0  0  0  0  0  0  0  0  0  0
   12.8649   -0.6402    0.0000 O    0  0  0  0  0  0  0  0  0  0  0  0
   10.5480   -0.6402    0.0000 O    0  0  0  0  0  0  0  0  0  0  0  0
    8.2616   -0.6402    0.0000 O    0  0  0  0  0  0  0  0  0  0  0  0
    9.4201   -2.6522    0.0000 C    0  0  0  0  0  0  0  0  0  0  0  0
   10.5480   -1.9816    0.0000 C    0  0  0  0  0  0  0  0  0  0  0  0
   11.7065   -2.6522    0.0000 C    0  0  0  0  0  0  0  0  0  0  0  0
   12.8649   -1.9816    0.0000 C    0  0  0  0  0  0  0  0  0  0  0  0
    8.2616   -1.9816    0.0000 C    0  0  0  0  0  0  0  0  0  0  0  0
    7.1032   -2.6522    0.0000 C    0  0  0  0  0  0  0  0  0  0  0  0
    0.1829   -3.9936    0.0000 C    0  0  0  0  0  0  0  0  0  0  0  0
    1.3414   -7.3165    0.0000 O    0  0  0  0  0  0  0  0  0  0  0  0
    0.0000   -5.9752    0.0000 O    0  0  0  0  0  0  0  0  0  0  0  0
    2.6522   -5.9752    0.0000 C    0  0  0  0  0  0  0  0  0  0  0  0
    1.3414   -5.9752    0.0000 S    0  0  0  0  0  0  0  0  0  0  0  0
    4.7862    0.0000    0.0000 C    0  0  0  0  0  0  0  0  0  0  0  0
    2.4998    0.0000    0.0000 C    0  0  0  0  0  0  0  0  0  0  0  0
    3.6278   -0.6402    0.0000 C    0  0  0  0  0  0  0  0  0  0  0  0
    5.9447   -1.9816    0.0000 C    0  0  0  0  0  0  0  0  0  0  0  0
    3.6278   -1.9816    0.0000 C    0  0  0  0  0  0  0  0  0  0  0  0
    4.7862   -2.6522    0.0000 C    0  0  0  0  0  0  0  0  0  0  0  0
    4.7862   -3.9936    0.0000 C    0  0  0  0  0  0  0  0  0  0  0  0
    3.6278   -4.6338    0.0000 N    0  0  0  0  0  0  0  0  0  0  0  0
    2.4998   -3.9936    0.0000 C    0  0  0  0  0  0  0  0  0  0  0  0
    2.4998   -2.6522    0.0000 N    0  0  0  0  0  0  0  0  0  0  0  0
    1.3414   -4.6338    0.0000 N    0  0  0  0  0  0  0  0  0  0  0  0
    5.9447   -4.6338    0.0000 C    0  0  0  0  0  0  0  0  0  0  0  0
    7.1032   -3.9936    0.0000 C    0  0  0  0  0  0  0  0  0  0  0  0
    8.2616   -4.6338    0.0000 C    0  0  0  0  0  0  0  0  0  0  0  0
    8.2616   -5.9752    0.0000 C    0  0  0  0  0  0  0  0  0  0  0  0
    9.4201   -6.6459    0.0000 F    0  0  0  0  0  0  0  0  0  0  0  0
    7.1032   -6.6459    0.0000 C    0  0  0  0  0  0  0  0  0  0  0  0
    5.9447   -5.9752    0.0000 C    0  0  0  0  0  0  0  0  0  0  0  0
   13.7795   -5.0606    0.0000 Ca   0  2  0  0  0  0  0  0  0  0  0  0
  1  8  1  0  0  0  0
  2  8  2  0  0  0  0
  3  6  1  0  0  0  0
  4  9  1  0  0  0  0
  5  6  1  0  0  0  0
  5  9  1  0  0  0  0
  6  7  1  0  0  0  0
  7  8  1  0  0  0  0
  9 10  1  0  0  0  0
 10 19  2  0  0  0  0
 11 26  1  0  0  0  0
 12 15  2  0  0  0  0
 13 15  2  0  0  0  0
 14 15  1  0  0  0  0
 15 26  1  0  0  0  0
 16 18  1  0  0  0  0
 17 18  1  0  0  0  0
 18 20  1  0  0  0  0
 19 21  1  0  0  0  0
 20 21  2  0  0  0  0
 20 25  1  0  0  0  0
 21 22  1  0  0  0  0
 22 23  2  0  0  0  0
 22 27  1  0  0  0  0
 23 24  1  0  0  0  0
 24 25  2  0  0  0  0
 24 26  1  0  0  0  0
 27 28  1  0  0  0  0
 27 33  2  0  0  0  0
 28 29  2  0  0  0  0
 29 30  1  0  0  0  0
 30 31  1  0  0  0  0
 30 32  2  0  0  0  0
 32 33  1  0  0  0  0
 34 41  1  0  0  0  0
 35 41  2  0  0  0  0
 36 39  1  0  0  0  0
 37 42  1  0  0  0  0
 38 39  1  0  0  0  0
 38 42  1  0  0  0  0
 39 40  1  0  0  0  0
 40 41  1  0  0  0  0
 42 43  1  0  0  0  0
 43 52  2  0  0  0  0
 44 59  1  0  0  0  0
 45 48  2  0  0  0  0
 46 48  2  0  0  0  0
 47 48  1  0  0  0  0
 48 59  1  0  0  0  0
 49 51  1  0  0  0  0
 50 51  1  0  0  0  0
 51 53  1  0  0  0  0
 52 54  1  0  0  0  0
 53 54  2  0  0  0  0
 53 58  1  0  0  0  0
 54 55  1  0  0  0  0
 55 56  2  0  0  0  0
 55 60  1  0  0  0  0
 56 57  1  0  0  0  0
 57 58  2  0  0  0  0
 57 59  1  0  0  0  0
 60 61  1  0  0  0  0
 60 66  2  0  0  0  0
 61 62  2  0  0  0  0
 62 63  1  0  0  0  0
 63 64  1  0  0  0  0
 63 65  2  0  0  0  0
 65 66  1  0  0  0  0
M  END
> <ID>
11297

> <Formula>
C44H54CaF2N6O12S2

> <FW>
1001.1374 (480.5302+480.5302+40.0769)

> <DSSTox_CID>
25928

> <DSSTox_RID>
81229

> <DSSTox_GSID>
45928

> <DSSTox_FileID_Sort>
5910

> <TS_ChemName>
Rosuvastatin calcium

> <TS_ChemName_Synonyms>


> <TS_CASRN>
147098-20-2

> <CASRN_ChemName_Relationship>
primary

> <TS_Description>
single chemical compound

> <ChemNote>
stereochem; parent [287714-41-4]

> <STRUCTURE_Shown>
tested chemical

> <STRUCTURE_Formula>
C44H54CaF2N6O12S2

> <STRUCTURE_MW>
1001.1374

> <STRUCTURE_ChemType>
defined organic

> <STRUCTURE_DefinedOrganicForm>
salt

> <STRUCTURE_IUPAC>
calcium bis{(6E)-7-[4-(4-fluorophenyl)-2-[methyl(methylsulfonyl)amino]-6-(propan-2-yl)pyrimidin-5-yl]-3,5-dihydroxyhept-6-enoate}

> <STRUCTURE_SMILES>
[Ca+2].O=S(C)(=O)N(C)c1nc(c(/C=C/C(O)CC(O)CC([O-])=O)c(n1)C(C)C)c2ccc(F)cc2.[O-]C(=O)CC(O)CC(O)/C=C/c2c(nc(nc2c1ccc(F)cc1)N(C)S(C)(=O)=O)C(C)C

> <STRUCTURE_SMILES_Desalt>
O=S(C)(=O)N(C)c1nc(c(/C=C/C(O)CC(O)CC(=O)O)c(n1)C(C)C)c2ccc(F)cc2

> <Substance_modify_yyyymmdd>
20110930

$$$$
