1470-79-7
ChemmineR-0915142007XD

 17 18  0  0  0  0  0  0  0  0  1 V2000
    4.5967   -1.3265    0.0000 C   0  0  0  0  0  0  0  0  0  0  0  0
    4.5967    0.0000    0.0000 O   0  0  0  0  0  0  0  0  0  0  0  0
    2.3030   -3.9887    0.0000 C   0  0  0  0  0  0  0  0  0  0  0  0
    1.1515   -3.3163    0.0000 C   0  0  0  0  0  0  0  0  0  0  0  0
    1.1515   -1.9898    0.0000 C   0  0  0  0  0  0  0  0  0  0  0  0
    2.3030   -1.3265    0.0000 C   0  0  0  0  0  0  0  0  0  0  0  0
    3.4637   -1.9898    0.0000 C   0  0  0  0  0  0  0  0  0  0  0  0
    3.4637   -3.3163    0.0000 C   0  0  0  0  0  0  0  0  0  0  0  0
    4.5967   -3.9887    0.0000 O   0  0  0  0  0  0  0  0  0  0  0  0
    0.0000   -3.9887    0.0000 O   0  0  0  0  0  0  0  0  0  0  0  0
    8.0604   -1.9898    0.0000 C   0  0  0  0  0  0  0  0  0  0  0  0
    8.0604   -3.3163    0.0000 C   0  0  0  0  0  0  0  0  0  0  0  0
    6.9089   -3.9887    0.0000 C   0  0  0  0  0  0  0  0  0  0  0  0
    5.7482   -3.3163    0.0000 C   0  0  0  0  0  0  0  0  0  0  0  0
    5.7482   -1.9898    0.0000 C   0  0  0  0  0  0  0  0  0  0  0  0
    6.9089   -1.3265    0.0000 C   0  0  0  0  0  0  0  0  0  0  0  0
    9.2119   -3.9887    0.0000 O   0  0  0  0  0  0  0  0  0  0  0  0
  1  2  2  0  0  0  0
  1  7  1  0  0  0  0
  1 15  1  0  0  0  0
  3  8  2  0  0  0  0
  3  4  1  0  0  0  0
  4  5  2  0  0  0  0
  4 10  1  0  0  0  0
  5  6  1  0  0  0  0
  6  7  2  0  0  0  0
  7  8  1  0  0  0  0
  8  9  1  0  0  0  0
 11 16  2  0  0  0  0
 11 12  1  0  0  0  0
 12 13  2  0  0  0  0
 12 17  1  0  0  0  0
 13 14  1  0  0  0  0
 14 15  2  0  0  0  0
 15 16  1  0  0  0  0
M  END
> <ID>
10484

> <Formula>
C13H10O4

> <FW>
230.2161

> <DSSTox_CID>
24836

> <DSSTox_RID>
80517

> <DSSTox_GSID>
44836

> <DSSTox_FileID_Sort>
5199

> <TS_ChemName>
2,4,4'-Trihydroxybenzophenone

> <TS_ChemName_Synonyms>
Methanone, (2,4-dihydroxyphenyl)(4-hydroxyphenyl)-

> <TS_CASRN>
1470-79-7

> <CASRN_ChemName_Relationship>
primary

> <TS_Description>
single chemical compound

> <ChemNote>


> <STRUCTURE_Shown>
tested chemical

> <STRUCTURE_Formula>
C13H10O4

> <STRUCTURE_MW>
230.2161

> <STRUCTURE_ChemType>
defined organic

> <STRUCTURE_DefinedOrganicForm>
parent

> <STRUCTURE_IUPAC>
(2,4-dihydroxyphenyl)(4-hydroxyphenyl)methanone

> <STRUCTURE_SMILES>
O=C(c1ccc(O)cc1O)c2ccc(O)cc2

> <STRUCTURE_SMILES_Desalt>
O=C(c1ccc(O)cc1O)c2ccc(O)cc2

> <Substance_modify_yyyymmdd>
20091116

$$$$
