147059-75-4
ChemmineR-0915142007XD

 37 40  0  0  1  0  0  0  0  0  1 V2000
    5.0441   -7.2944    0.0000 C   0  0  0  0  0  0  0  0  0  0  0  0
    5.0441   -5.9544    0.0000 C   0  0  0  0  0  0  0  0  0  0  0  0
    6.1946   -5.2970    0.0000 N   0  0  0  0  0  0  0  0  0  0  0  0
    6.1946   -7.9391    0.0000 C   0  0  0  0  0  0  0  0  0  0  0  0
    7.3450   -7.2944    0.0000 C   0  0  0  0  0  0  0  0  0  0  0  0
    7.3450   -5.9544    0.0000 C   0  0  0  0  0  0  0  0  0  0  0  0
    8.4827   -5.2970    0.0000 N   0  0  0  0  0  0  0  0  0  0  0  0
    9.6458   -5.9544    0.0000 C   0  0  0  0  0  0  0  0  0  0  0  0
    9.6458   -7.2944    0.0000 C   0  0  0  0  0  0  0  0  0  0  0  0
    8.4827   -7.9391    0.0000 C   0  0  0  0  0  0  0  0  0  0  0  0
    8.4827   -3.9696    0.0000 C   0  0  0  0  0  0  0  0  0  0  0  0
    7.3450   -3.3122    0.0000 C   0  0  0  0  0  0  0  0  0  0  0  0
    7.3450   -1.9721    0.0000 C   0  0  0  0  0  0  0  0  0  0  0  0
    8.4827   -1.3274    0.0000 C   0  0  0  0  0  0  0  0  0  0  0  0
    9.6458   -1.9721    0.0000 C   0  0  0  0  0  0  0  0  0  0  0  0
    9.6458   -3.3122    0.0000 C   0  0  0  0  0  0  0  0  0  0  0  0
   10.7836   -3.9696    0.0000 F   0  0  0  0  0  0  0  0  0  0  0  0
    8.4827    0.0000    0.0000 F   0  0  0  0  0  0  0  0  0  0  0  0
    8.4827   -9.2665    0.0000 O   0  0  0  0  0  0  0  0  0  0  0  0
   10.7836   -7.9391    0.0000 C   0  0  0  0  0  0  0  0  0  0  0  0
   11.9466   -7.2944    0.0000 O   0  0  0  0  0  0  0  0  0  0  0  0
   10.7836   -9.2665    0.0000 O   0  0  0  0  0  0  0  0  0  0  0  0
    3.9190   -7.9391    0.0000 F   0  0  0  0  0  0  0  0  0  0  0  0
    3.9190   -5.2970    0.0000 N   0  0  0  0  0  0  0  0  0  0  0  0
    2.6927   -5.8279    0.0000 C   0  0  0  0  0  0  0  0  0  0  0  0
    3.7547   -3.9822    0.0000 C   0  0  0  0  0  0  0  0  0  0  0  0
    2.4652   -3.6914    0.0000 C   0  0  0  0  0  0  0  0  0  0  0  0
    1.8204   -4.8545    0.0000 C   0  0  0  0  0  0  0  0  0  0  0  0
    1.1631   -3.6914    0.0000 C   0  0  0  0  0  0  0  0  0  0  0  0
    0.0000   -3.0467    0.0000 N   0  0  0  0  0  0  0  0  0  0  0  0
    2.6548   -2.3893    0.0000 H   0  0  0  0  0  0  0  0  0  0  0  0
    0.7585   -5.6636    0.0000 H   0  0  0  0  0  0  0  0  0  0  0  0
    5.1453  -11.1249    0.0000 S   0  0  0  0  0  0  0  0  0  0  0  0
    5.1453  -12.6419    0.0000 O   0  0  0  0  0  0  0  0  0  0  0  0
    6.4600  -11.1249    0.0000 O   0  0  0  0  0  0  0  0  0  0  0  0
    5.1453   -9.8102    0.0000 O   0  0  0  0  0  0  0  0  0  0  0  0
    3.7547  -11.1249    0.0000 C   0  0  0  0  0  0  0  0  0  0  0  0
  1  4  1  0  0  0  0
  1 23  1  0  0  0  0
  1  2  2  0  0  0  0
  2 24  1  0  0  0  0
  2  3  1  0  0  0  0
  3  6  2  0  0  0  0
  4  5  2  0  0  0  0
  5 10  1  0  0  0  0
  5  6  1  0  0  0  0
  6  7  1  0  0  0  0
  7  8  1  0  0  0  0
  7 11  1  0  0  0  0
  8  9  2  0  0  0  0
  9 20  1  0  0  0  0
  9 10  1  0  0  0  0
 10 19  2  0  0  0  0
 11 16  1  0  0  0  0
 11 12  2  0  0  0  0
 12 13  1  0  0  0  0
 13 14  2  0  0  0  0
 14 18  1  0  0  0  0
 14 15  1  0  0  0  0
 15 16  2  0  0  0  0
 16 17  1  0  0  0  0
 20 21  1  0  0  0  0
 20 22  2  0  0  0  0
 24 25  1  0  0  0  0
 24 26  1  0  0  0  0
 25 28  1  0  0  0  0
 26 27  1  0  0  0  0
 27 28  1  0  0  0  0
 27 29  1  0  0  0  0
 27 31  1  1  0  0  0
 28 29  1  0  0  0  0
 28 32  1  1  0  0  0
 29 30  1  1  0  0  0
 33 34  2  0  0  0  0
 33 35  1  0  0  0  0
 33 36  2  0  0  0  0
 33 37  1  0  0  0  0
M  END
> <ID>
11142

> <Formula>
C21H19F3N4O6S

> <FW>
512.4590 (416.3533+96.1057)

> <DSSTox_CID>
25701

> <DSSTox_RID>
81073

> <DSSTox_GSID>
45701

> <DSSTox_FileID_Sort>
5754

> <TS_ChemName>
Trovafloxacin mesylate

> <TS_ChemName_Synonyms>


> <TS_CASRN>
147059-75-4

> <CASRN_ChemName_Relationship>
primary

> <TS_Description>
single chemical compound

> <ChemNote>


> <STRUCTURE_Shown>
tested chemical

> <STRUCTURE_Formula>
C21H19F3N4O6S

> <STRUCTURE_MW>
512.459

> <STRUCTURE_ChemType>
defined organic

> <STRUCTURE_DefinedOrganicForm>
complex

> <STRUCTURE_IUPAC>
7-[(1R,5S,6s)-6-amino-3-azabicyclo[3.1.0]hex-3-yl]-1-(2,4-difluorophenyl)-6-fluoro-4-oxo-1,4-dihydro-1,8-naphthyridine-3-carboxylic acid methanesulfonate (1:1)

> <STRUCTURE_SMILES>
CS(=O)(=O)O.O=C(O)C2=CN(c1nc(c(F)cc1C2=O)N3C[C@H]4[C@H](N)[C@H]4C3)c5ccc(F)cc5F

> <STRUCTURE_SMILES_Desalt>
O=C(O)C2=CN(c1nc(c(F)cc1C2=O)N3C[C@H]4[C@H](N)[C@H]4C3)c5ccc(F)cc5F

> <Substance_modify_yyyymmdd>
20110819

$$$$
