147228-81-7
ChemmineR-0915142007XD

 27 24  0  0  0  0  0  0  0  0  2 V2000
    8.7693   -3.9917    0.0000 O    0  0  0  0  0  0  0  0  0  0  0  0
   16.6907    0.0000    0.0000 Cl   0  5  0  0  0  0  0  0  0  0  0  0
   10.9824   -3.9917    0.0000 O    0  0  0  0  0  0  0  0  0  0  0  0
    0.0000   -1.8407    0.0000 C    0  0  0  0  0  0  0  0  0  0  0  0
    1.1582   -2.5233    0.0000 C    0  0  0  0  0  0  0  0  0  0  0  0
    2.2957   -1.8407    0.0000 C    0  0  0  0  0  0  0  0  0  0  0  0
    3.4540   -2.5233    0.0000 C    0  0  0  0  0  0  0  0  0  0  0  0
    4.6122   -1.8407    0.0000 C    0  0  0  0  0  0  0  0  0  0  0  0
    5.7497   -2.5233    0.0000 C    0  0  0  0  0  0  0  0  0  0  0  0
    6.9079   -1.8407    0.0000 C    0  0  0  0  0  0  0  0  0  0  0  0
    8.0455   -2.5233    0.0000 C    0  0  0  0  0  0  0  0  0  0  0  0
    9.2037   -1.8407    0.0000 C    0  0  0  0  0  0  0  0  0  0  0  0
   10.3412   -2.5233    0.0000 C    0  0  0  0  0  0  0  0  0  0  0  0
   11.4787   -1.8614    0.0000 C    0  0  0  0  0  0  0  0  0  0  0  0
   12.6370   -2.5233    0.0000 C    0  0  0  0  0  0  0  0  0  0  0  0
   13.7745   -1.8614    0.0000 C    0  0  0  0  0  0  0  0  0  0  0  0
   14.9327   -2.5233    0.0000 C    0  0  0  0  0  0  0  0  0  0  0  0
   16.0909   -1.8614    0.0000 N    0  3  0  0  0  0  0  0  0  0  0  0
   17.2284   -1.1996    0.0000 C    0  0  0  0  0  0  0  0  0  0  0  0
   15.4084   -0.7032    0.0000 C    0  0  0  0  0  0  0  0  0  0  0  0
   16.7528   -2.9989    0.0000 C    0  0  0  0  0  0  0  0  0  0  0  0
   18.3867   -1.8614    0.0000 C    0  0  0  0  0  0  0  0  0  0  0  0
   19.5242   -1.1996    0.0000 C    0  0  0  0  0  0  0  0  0  0  0  0
   18.3867   -3.1851    0.0000 C    0  0  0  0  0  0  0  0  0  0  0  0
   20.6824   -1.8614    0.0000 C    0  0  0  0  0  0  0  0  0  0  0  0
   19.5242   -3.8469    0.0000 C    0  0  0  0  0  0  0  0  0  0  0  0
   20.6824   -3.1851    0.0000 C    0  0  0  0  0  0  0  0  0  0  0  0
  4  5  1  0  0  0  0
  5  6  1  0  0  0  0
  6  7  1  0  0  0  0
  7  8  1  0  0  0  0
  8  9  1  0  0  0  0
  9 10  1  0  0  0  0
 10 11  1  0  0  0  0
 11 12  1  0  0  0  0
 12 13  1  0  0  0  0
 13 14  1  0  0  0  0
 14 15  1  0  0  0  0
 15 16  1  0  0  0  0
 16 17  1  0  0  0  0
 17 18  1  0  0  0  0
 18 19  1  0  0  0  0
 18 20  1  0  0  0  0
 18 21  1  0  0  0  0
 19 22  1  0  0  0  0
 22 23  1  0  0  0  0
 22 24  2  0  0  0  0
 23 25  2  0  0  0  0
 24 26  1  0  0  0  0
 25 27  1  0  0  0  0
 26 27  2  0  0  0  0
M  END
> <ID>
11826

> <Formula>
C23H46ClNO2

> <FW>
404.0698 (18.0153+35.4535+18.0153+332.5857)

> <DSSTox_CID>
26606

> <DSSTox_RID>
81761

> <DSSTox_GSID>
46606

> <DSSTox_FileID_Sort>
6442

> <TS_ChemName>
Benzyldimethyltetradecylammonium chloride dihydrate

> <TS_ChemName_Synonyms>


> <TS_CASRN>
147228-81-7

> <CASRN_ChemName_Relationship>
primary

> <TS_Description>
single chemical compound

> <ChemNote>
ammonium; parent [16287-71-1]

> <STRUCTURE_Shown>
tested chemical

> <STRUCTURE_Formula>
C23H46ClNO2

> <STRUCTURE_MW>
404.0698

> <STRUCTURE_ChemType>
defined organic

> <STRUCTURE_DefinedOrganicForm>
salt complex

> <STRUCTURE_IUPAC>
N-benzyl-N,N-dimethyltetradecan-1-aminium chloride hydrate (1:1:2)

> <STRUCTURE_SMILES>
[Cl-].O.O.C[N+](C)(Cc1ccccc1)CCCCCCCCCCCCCC

> <STRUCTURE_SMILES_Desalt>
C[N+](C)(Cc1ccccc1)CCCCCCCCCCCCCC

> <Substance_modify_yyyymmdd>
20110809

$$$$
