14721-76-7
ChemmineR-0915142007XD

 12 10  0  0  0  0  0  0  0  0  2 V2000
    5.3972   -2.8194    0.0000 Cl   0  5  0  0  0  0  0  0  0  0  0  0
    0.0000   -1.3211    0.0000 C    0  0  0  0  0  0  0  0  0  0  0  0
    1.1439   -1.9978    0.0000 N    0  0  0  0  0  0  0  0  0  0  0  0
    2.3039   -1.3211    0.0000 C    0  0  0  0  0  0  0  0  0  0  0  0
    2.3039    0.0000    0.0000 O    0  0  0  0  0  0  0  0  0  0  0  0
    3.4638   -1.9978    0.0000 O    0  0  0  0  0  0  0  0  0  0  0  0
    4.6077   -1.3211    0.0000 C    0  0  0  0  0  0  0  0  0  0  0  0
    5.7355   -1.9978    0.0000 C    0  0  0  0  0  0  0  0  0  0  0  0
    6.8955   -1.3211    0.0000 N    0  3  0  0  0  0  0  0  0  0  0  0
    7.5721   -2.4650    0.0000 C    0  0  0  0  0  0  0  0  0  0  0  0
    6.2349   -0.1772    0.0000 C    0  0  0  0  0  0  0  0  0  0  0  0
    8.0555   -0.6767    0.0000 C    0  0  0  0  0  0  0  0  0  0  0  0
  2  3  1  0  0  0  0
  3  4  1  0  0  0  0
  4  5  2  0  0  0  0
  4  6  1  0  0  0  0
  6  7  1  0  0  0  0
  7  8  1  0  0  0  0
  8  9  1  0  0  0  0
  9 10  1  0  0  0  0
  9 11  1  0  0  0  0
  9 12  1  0  0  0  0
M  END
> <ID>
11198

> <Formula>
C7H17ClN2O2

> <FW>
196.6751 (35.4535+161.2215)

> <DSSTox_CID>
25789

> <DSSTox_RID>
81130

> <DSSTox_GSID>
45789

> <DSSTox_FileID_Sort>
5811

> <TS_ChemName>
Methylcarbamylcholine chloride

> <TS_ChemName_Synonyms>


> <TS_CASRN>
14721-76-7

> <CASRN_ChemName_Relationship>
primary

> <TS_Description>
single chemical compound

> <ChemNote>
parent [14721-69-8]

> <STRUCTURE_Shown>
tested chemical

> <STRUCTURE_Formula>
C7H17ClN2O2

> <STRUCTURE_MW>
196.6751

> <STRUCTURE_ChemType>
defined organic

> <STRUCTURE_DefinedOrganicForm>
salt

> <STRUCTURE_IUPAC>
N,N,N-trimethyl-2-[(methylcarbamoyl)oxy]ethanaminium chloride

> <STRUCTURE_SMILES>
[Cl-].C[N+](C)(C)CCOC(=O)NC

> <STRUCTURE_SMILES_Desalt>
C[N+](C)(C)CCOC(=O)NC

> <Substance_modify_yyyymmdd>
20110902

$$$$
