147526-32-7
ChemmineR-0915142007XD

 63 68  0  0  1  0  0  0  0  0  2 V2000
    3.4477   -3.9994    0.0000 O    0  0  0  0  0  0  0  0  0  0  0  0
    3.4477   -5.3194    0.0000 C    0  0  0  0  0  0  0  0  0  0  0  0
    4.6101   -5.9892    0.0000 C    0  0  0  0  0  0  0  0  0  0  0  0
    5.7528   -5.3194    0.0000 C    0  0  0  0  0  0  0  0  0  0  0  0
    5.7528   -3.9994    0.0000 O    0  0  0  0  0  0  0  0  0  0  0  0
    6.9152   -5.9892    0.0000 C    0  0  0  0  0  0  0  0  0  0  0  0
    8.0578   -5.3194    0.0000 C    0  0  0  0  0  0  0  0  0  0  0  0
    9.2202   -5.9892    0.0000 C    0  0  0  0  0  0  0  0  0  0  0  0
   10.3629   -5.3194    0.0000 C    0  0  0  0  0  0  0  0  0  0  0  0
   10.3629   -3.9994    0.0000 C    0  0  0  0  0  0  0  0  0  0  0  0
    9.2202   -3.3295    0.0000 C    0  0  0  0  0  0  0  0  0  0  0  0
    9.2202   -2.0095    0.0000 C    0  0  0  0  0  0  0  0  0  0  0  0
   10.3629   -1.3397    0.0000 C    0  0  0  0  0  0  0  0  0  0  0  0
   10.3629    0.0000    0.0000 F    0  0  0  0  0  0  0  0  0  0  0  0
   11.5056   -2.0095    0.0000 C    0  0  0  0  0  0  0  0  0  0  0  0
   11.5056   -3.3295    0.0000 C    0  0  0  0  0  0  0  0  0  0  0  0
   11.5056   -5.9892    0.0000 C    0  0  0  0  0  0  0  0  0  0  0  0
   11.5056   -7.3289    0.0000 C    0  0  0  0  0  0  0  0  0  0  0  0
   12.6680   -7.9790    0.0000 C    0  0  0  0  0  0  0  0  0  0  0  0
   13.8106   -7.3289    0.0000 C    0  0  0  0  0  0  0  0  0  0  0  0
   13.8106   -5.9892    0.0000 C    0  0  0  0  0  0  0  0  0  0  0  0
   12.6680   -5.3194    0.0000 C    0  0  0  0  0  0  0  0  0  0  0  0
   10.3629   -7.9790    0.0000 N    0  0  0  0  0  0  0  0  0  0  0  0
    9.2202   -7.3289    0.0000 C    0  0  0  0  0  0  0  0  0  0  0  0
    8.0578   -7.9790    0.0000 C    0  0  0  0  0  0  0  0  0  0  0  0
    7.3880   -9.1414    0.0000 C    0  0  0  0  0  0  0  0  0  0  0  0
    6.7379   -7.9790    0.0000 C    0  0  0  0  0  0  0  0  0  0  0  0
    2.2854   -5.9892    0.0000 C    0  0  0  0  0  0  0  0  0  0  0  0
    1.1427   -5.3194    0.0000 C    0  0  0  0  0  0  0  0  0  0  0  0
    0.0000   -5.9892    0.0000 O    0  5  0  0  0  0  0  0  0  0  0  0
    1.1427   -3.9994    0.0000 O    0  0  0  0  0  0  0  0  0  0  0  0
    3.9206  -14.5593    0.0000 O    0  0  0  0  0  0  0  0  0  0  0  0
    3.9206  -15.8793    0.0000 C    0  0  0  0  0  0  0  0  0  0  0  0
    5.0632  -16.5688    0.0000 C    0  0  0  0  0  0  0  0  0  0  0  0
    6.2256  -15.8793    0.0000 C    0  0  0  0  0  0  0  0  0  0  0  0
    6.2256  -14.5593    0.0000 O    0  0  0  0  0  0  0  0  0  0  0  0
    7.3683  -16.5688    0.0000 C    0  0  0  0  0  0  0  0  0  0  0  0
    8.5307  -15.8793    0.0000 C    0  0  0  0  0  0  0  0  0  0  0  0
    9.6734  -16.5688    0.0000 C    0  0  0  0  0  0  0  0  0  0  0  0
   10.8160  -15.8793    0.0000 C    0  0  0  0  0  0  0  0  0  0  0  0
   10.8160  -14.5593    0.0000 C    0  0  0  0  0  0  0  0  0  0  0  0
    9.6734  -13.8894    0.0000 C    0  0  0  0  0  0  0  0  0  0  0  0
    9.6734  -12.5695    0.0000 C    0  0  0  0  0  0  0  0  0  0  0  0
   10.8160  -11.8996    0.0000 C    0  0  0  0  0  0  0  0  0  0  0  0
   10.8160  -10.5599    0.0000 F    0  0  0  0  0  0  0  0  0  0  0  0
   11.9784  -12.5695    0.0000 C    0  0  0  0  0  0  0  0  0  0  0  0
   11.9784  -13.8894    0.0000 C    0  0  0  0  0  0  0  0  0  0  0  0
   11.9784  -16.5688    0.0000 C    0  0  0  0  0  0  0  0  0  0  0  0
   11.9784  -17.8888    0.0000 C    0  0  0  0  0  0  0  0  0  0  0  0
   13.1211  -18.5390    0.0000 C    0  0  0  0  0  0  0  0  0  0  0  0
   14.2835  -17.8888    0.0000 C    0  0  0  0  0  0  0  0  0  0  0  0
   14.2835  -16.5688    0.0000 C    0  0  0  0  0  0  0  0  0  0  0  0
   13.1211  -15.8793    0.0000 C    0  0  0  0  0  0  0  0  0  0  0  0
   10.8160  -18.5390    0.0000 N    0  0  0  0  0  0  0  0  0  0  0  0
    9.6734  -17.8888    0.0000 C    0  0  0  0  0  0  0  0  0  0  0  0
    8.5307  -18.5390    0.0000 C    0  0  0  0  0  0  0  0  0  0  0  0
    7.8608  -19.7013    0.0000 C    0  0  0  0  0  0  0  0  0  0  0  0
    7.1910  -18.5390    0.0000 C    0  0  0  0  0  0  0  0  0  0  0  0
    2.7582  -16.5688    0.0000 C    0  0  0  0  0  0  0  0  0  0  0  0
    1.5958  -15.8793    0.0000 C    0  0  0  0  0  0  0  0  0  0  0  0
    0.4728  -16.5688    0.0000 O    0  5  0  0  0  0  0  0  0  0  0  0
    1.5958  -14.5593    0.0000 O    0  0  0  0  0  0  0  0  0  0  0  0
    3.8221  -10.3629    0.0000 Ca   0  2  0  0  0  0  0  0  0  0  0  0
  2  1  1  6  0  0  0
  2  3  1  0  0  0  0
  2 28  1  0  0  0  0
  3  4  1  0  0  0  0
  5  4  1  6  0  0  0
  4  6  1  0  0  0  0
  6  7  2  0  0  0  0
  7  8  1  0  0  0  0
  8  9  2  0  0  0  0
  8 24  1  0  0  0  0
  9 10  1  0  0  0  0
  9 17  1  0  0  0  0
 10 11  2  0  0  0  0
 10 16  1  0  0  0  0
 11 12  1  0  0  0  0
 12 13  2  0  0  0  0
 13 14  1  0  0  0  0
 13 15  1  0  0  0  0
 15 16  2  0  0  0  0
 17 18  2  0  0  0  0
 17 22  1  0  0  0  0
 18 19  1  0  0  0  0
 18 23  1  0  0  0  0
 19 20  2  0  0  0  0
 20 21  1  0  0  0  0
 21 22  2  0  0  0  0
 23 24  2  0  0  0  0
 24 25  1  0  0  0  0
 25 26  1  0  0  0  0
 25 27  1  0  0  0  0
 26 27  1  0  0  0  0
 28 29  1  0  0  0  0
 29 30  1  0  0  0  0
 29 31  2  0  0  0  0
 33 32  1  6  0  0  0
 33 34  1  0  0  0  0
 33 59  1  0  0  0  0
 34 35  1  0  0  0  0
 35 36  1  6  0  0  0
 35 37  1  0  0  0  0
 37 38  2  0  0  0  0
 38 39  1  0  0  0  0
 39 40  2  0  0  0  0
 39 55  1  0  0  0  0
 40 41  1  0  0  0  0
 40 48  1  0  0  0  0
 41 42  2  0  0  0  0
 41 47  1  0  0  0  0
 42 43  1  0  0  0  0
 43 44  2  0  0  0  0
 44 45  1  0  0  0  0
 44 46  1  0  0  0  0
 46 47  2  0  0  0  0
 48 49  2  0  0  0  0
 48 53  1  0  0  0  0
 49 50  1  0  0  0  0
 49 54  1  0  0  0  0
 50 51  2  0  0  0  0
 51 52  1  0  0  0  0
 52 53  2  0  0  0  0
 54 55  2  0  0  0  0
 55 56  1  0  0  0  0
 56 57  1  0  0  0  0
 56 58  1  0  0  0  0
 57 58  1  0  0  0  0
 59 60  1  0  0  0  0
 60 61  1  0  0  0  0
 60 62  2  0  0  0  0
M  END
> <ID>
11688

> <Formula>
C50H46CaF2N2O8

> <FW>
880.9836 (420.4534+420.4534+40.0769)

> <DSSTox_CID>
26448

> <DSSTox_RID>
81622

> <DSSTox_GSID>
46448

> <DSSTox_FileID_Sort>
6303

> <TS_ChemName>
Pitavastatin calcium

> <TS_ChemName_Synonyms>


> <TS_CASRN>
147526-32-7

> <CASRN_ChemName_Relationship>
primary

> <TS_Description>
single chemical compound

> <ChemNote>
stereochem; parent [147511-69-1]

> <STRUCTURE_Shown>
tested chemical

> <STRUCTURE_Formula>
C50H46CaF2N2O8

> <STRUCTURE_MW>
880.9836

> <STRUCTURE_ChemType>
defined organic

> <STRUCTURE_DefinedOrganicForm>
salt

> <STRUCTURE_IUPAC>
calcium bis{(3R,5S,6E)-7-[2-cyclopropyl-4-(4-fluorophenyl)quinolin-3-yl]-3,5-dihydroxyhept-6-enoate}

> <STRUCTURE_SMILES>
[Ca+2].[O-]C(=O)C[C@H](O)C[C@H](O)/C=C/c3c(c1ccc(F)cc1)c4ccccc4nc3C2CC2.[O-]C(=O)C[C@H](O)CC(O)/C=C/c1c(c3ccccc3nc1C2CC2)c4ccc(F)cc4

> <STRUCTURE_SMILES_Desalt>
O=C(O)C[C@H](O)C[C@H](O)/C=C/c1c(c3ccccc3nc1C2CC2)c4ccc(F)cc4

> <Substance_modify_yyyymmdd>
20110813

$$$$
