147536-97-8
ChemmineR-0915142007XD

 39 42  0  0  0  0  0  0  0  0  1 V2000
    0.0000   -5.7471    0.0000 C   0  0  0  0  0  0  0  0  0  0  0  0
    1.1544   -6.4174    0.0000 O   0  0  0  0  0  0  0  0  0  0  0  0
    1.1544   -7.7580    0.0000 C   0  0  0  0  0  0  0  0  0  0  0  0
    0.0000   -8.4035    0.0000 C   0  0  0  0  0  0  0  0  0  0  0  0
    0.0000   -9.7565    0.0000 C   0  0  0  0  0  0  0  0  0  0  0  0
    1.1544  -10.4144    0.0000 C   0  0  0  0  0  0  0  0  0  0  0  0
    2.3088   -9.7565    0.0000 C   0  0  0  0  0  0  0  0  0  0  0  0
    2.3088   -8.4035    0.0000 C   0  0  0  0  0  0  0  0  0  0  0  0
    3.4632   -7.7580    0.0000 O   0  0  0  0  0  0  0  0  0  0  0  0
    4.6176   -8.4035    0.0000 C   0  0  0  0  0  0  0  0  0  0  0  0
    5.7720   -7.7580    0.0000 C   0  0  0  0  0  0  0  0  0  0  0  0
    5.7720   -6.4174    0.0000 N   0  0  0  0  0  0  0  0  0  0  0  0
    6.9139   -5.7471    0.0000 S   0  0  0  0  0  0  0  0  0  0  0  0
    8.0683   -5.0893    0.0000 O   0  0  0  0  0  0  0  0  0  0  0  0
    7.5966   -6.9015    0.0000 O   0  0  0  0  0  0  0  0  0  0  0  0
    6.2436   -4.5927    0.0000 C   0  0  0  0  0  0  0  0  0  0  0  0
    4.9155   -4.5927    0.0000 C   0  0  0  0  0  0  0  0  0  0  0  0
    4.2576   -3.4384    0.0000 C   0  0  0  0  0  0  0  0  0  0  0  0
    4.9155   -2.3088    0.0000 C   0  0  0  0  0  0  0  0  0  0  0  0
    6.2436   -2.3088    0.0000 C   0  0  0  0  0  0  0  0  0  0  0  0
    6.9139   -3.4384    0.0000 C   0  0  0  0  0  0  0  0  0  0  0  0
    4.2576   -1.1544    0.0000 C   0  0  0  0  0  0  0  0  0  0  0  0
    3.1032   -1.8123    0.0000 C   0  0  0  0  0  0  0  0  0  0  0  0
    3.5873    0.0000    0.0000 C   0  0  0  0  0  0  0  0  0  0  0  0
    5.3996   -0.4841    0.0000 C   0  0  0  0  0  0  0  0  0  0  0  0
    6.9139   -8.4035    0.0000 N   0  0  0  0  0  0  0  0  0  0  0  0
    6.9139   -9.7565    0.0000 C   0  0  0  0  0  0  0  0  0  0  0  0
    5.7720  -10.4144    0.0000 N   0  0  0  0  0  0  0  0  0  0  0  0
    4.6176   -9.7565    0.0000 C   0  0  0  0  0  0  0  0  0  0  0  0
    3.4632  -10.4144    0.0000 O   0  0  0  0  0  0  0  0  0  0  0  0
    3.4632  -11.7425    0.0000 C   0  0  0  0  0  0  0  0  0  0  0  0
    2.3088  -12.4128    0.0000 C   0  0  0  0  0  0  0  0  0  0  0  0
    1.1544  -11.7425    0.0000 O   0  0  0  0  0  0  0  0  0  0  0  0
    8.0683  -10.4144    0.0000 C   0  0  0  0  0  0  0  0  0  0  0  0
    9.2227   -9.7565    0.0000 N   0  0  0  0  0  0  0  0  0  0  0  0
   10.3647  -10.4144    0.0000 C   0  0  0  0  0  0  0  0  0  0  0  0
   10.3647  -11.7425    0.0000 C   0  0  0  0  0  0  0  0  0  0  0  0
    9.2227  -12.4128    0.0000 C   0  0  0  0  0  0  0  0  0  0  0  0
    8.0683  -11.7425    0.0000 N   0  0  0  0  0  0  0  0  0  0  0  0
  1  2  1  0  0  0  0
  2  3  1  0  0  0  0
  3  4  2  0  0  0  0
  3  8  1  0  0  0  0
  4  5  1  0  0  0  0
  5  6  2  0  0  0  0
  6  7  1  0  0  0  0
  7  8  2  0  0  0  0
  8  9  1  0  0  0  0
  9 10  1  0  0  0  0
 10 11  2  0  0  0  0
 10 29  1  0  0  0  0
 11 12  1  0  0  0  0
 11 26  1  0  0  0  0
 12 13  1  0  0  0  0
 13 14  2  0  0  0  0
 13 15  2  0  0  0  0
 13 16  1  0  0  0  0
 16 17  2  0  0  0  0
 16 21  1  0  0  0  0
 17 18  1  0  0  0  0
 18 19  2  0  0  0  0
 19 20  1  0  0  0  0
 19 22  1  0  0  0  0
 20 21  2  0  0  0  0
 22 23  1  0  0  0  0
 22 24  1  0  0  0  0
 22 25  1  0  0  0  0
 26 27  2  0  0  0  0
 27 28  1  0  0  0  0
 27 34  1  0  0  0  0
 28 29  2  0  0  0  0
 29 30  1  0  0  0  0
 30 31  1  0  0  0  0
 31 32  1  0  0  0  0
 32 33  1  0  0  0  0
 34 35  2  0  0  0  0
 34 39  1  0  0  0  0
 35 36  1  0  0  0  0
 36 37  2  0  0  0  0
 37 38  1  0  0  0  0
 38 39  2  0  0  0  0
M  END
> <ID>
11841

> <Formula>
C27H29N5O6S

> <FW>
551.6141

> <DSSTox_CID>
26627

> <DSSTox_RID>
81776

> <DSSTox_GSID>
46627

> <DSSTox_FileID_Sort>
6457

> <TS_ChemName>
Bosentan

> <TS_ChemName_Synonyms>


> <TS_CASRN>
147536-97-8

> <CASRN_ChemName_Relationship>
primary

> <TS_Description>
single chemical compound

> <ChemNote>


> <STRUCTURE_Shown>
tested chemical

> <STRUCTURE_Formula>
C27H29N5O6S

> <STRUCTURE_MW>
551.6141

> <STRUCTURE_ChemType>
defined organic

> <STRUCTURE_DefinedOrganicForm>
parent

> <STRUCTURE_IUPAC>
4-tert-butyl-N-[6-(2-hydroxyethoxy)-5-(2-methoxyphenoxy)-2,2'-bipyrimidin-4-yl]benzenesulfonamide

> <STRUCTURE_SMILES>
CC(C)(C)c1ccc(cc1)S(=O)(=O)Nc3nc(nc(OCCO)c3Oc2ccccc2OC)c4ncccn4

> <STRUCTURE_SMILES_Desalt>
CC(C)(C)c1ccc(cc1)S(=O)(=O)Nc3nc(nc(OCCO)c3Oc2ccccc2OC)c4ncccn4

> <Substance_modify_yyyymmdd>
20110809

$$$$
