14769-73-4_1
ChemmineR-0915142007XD

 24 26  0  0  1  0  0  0  0  0  1 V2000
    2.3777   -3.9899    0.0000 C   0  0  0  0  0  0  0  0  0  0  0  0
    4.6576   -3.9899    0.0000 C   0  0  0  0  0  0  0  0  0  0  0  0
    2.3777   -5.3172    0.0000 C   0  0  0  0  0  0  0  0  0  0  0  0
    1.2133   -5.9849    0.0000 C   0  0  0  0  0  0  0  0  0  0  0  0
    3.5258   -3.3304    0.0000 C   0  0  0  0  0  0  0  0  0  0  0  0
    5.8139   -3.3304    0.0000 C   0  0  0  0  0  0  0  0  0  0  0  0
    5.8139   -1.9868    0.0000 C   0  0  0  0  0  0  0  0  0  0  0  0
    1.2133   -7.3122    0.0000 C   0  0  0  0  0  0  0  0  0  0  0  0
    4.6576   -5.3172    0.0000 C   0  0  0  0  0  0  0  0  0  0  0  0
    3.5258   -5.9849    0.0000 C   0  0  0  0  0  0  0  0  0  0  0  0
    3.5258   -1.9868    0.0000 C   0  0  0  0  0  0  0  0  0  0  0  0
    4.6576   -1.3028    0.0000 C   0  0  0  0  0  0  0  0  0  0  0  0
    2.3451   -8.0043    0.0000 O   0  0  0  0  0  0  0  0  0  0  0  0
    6.9539   -1.3028    0.0000 C   0  0  0  0  0  0  0  0  0  0  0  0
    1.2133   -3.3304    0.0000 C   0  0  0  0  0  0  0  0  0  0  0  0
    0.0814   -8.0287    0.0000 O   0  0  0  0  0  0  0  0  0  0  0  0
    2.3777   -2.5975    0.0000 C   0  0  0  0  0  0  0  0  0  0  0  0
    0.0570   -5.3172    0.0000 C   0  0  0  0  0  0  0  0  0  0  0  0
    0.0000   -6.5956    0.0000 C   0  0  0  0  0  0  0  0  0  0  0  0
    0.0570   -3.9899    0.0000 C   0  0  0  0  0  0  0  0  0  0  0  0
    6.9539    0.0000    0.0000 C   0  0  0  0  0  0  0  0  0  0  0  0
    8.1427   -1.9380    0.0000 C   0  0  0  0  0  0  0  0  0  0  0  0
    2.4347   -6.6933    0.0000 H   0  0  0  0  0  0  0  0  0  0  0  0
    3.5502   -4.5192    0.0000 H   0  0  0  0  0  0  0  0  0  0  0  0
  1  3  1  0  0  0  0
  1  5  1  0  0  0  0
  1 15  1  0  0  0  0
  1 17  1  1  0  0  0
  2  5  1  0  0  0  0
  2  6  1  0  0  0  0
  2  9  2  0  0  0  0
  3  4  1  0  0  0  0
  3 10  1  0  0  0  0
  3 23  1  6  0  0  0
  4  8  1  6  0  0  0
  4 19  1  1  0  0  0
  4 18  1  0  0  0  0
  5 11  1  0  0  0  0
  5 24  1  6  0  0  0
  6  7  2  0  0  0  0
  7 12  1  0  0  0  0
  7 14  1  6  0  0  0
  8 13  2  0  0  0  0
  8 16  1  0  0  0  0
  9 10  1  0  0  0  0
 11 12  1  0  0  0  0
 14 21  1  0  0  0  0
 14 22  1  0  0  0  0
 15 20  1  0  0  0  0
 18 20  1  0  0  0  0
M  END
> <ID>
1893

> <Formula>
C20H30O2

> <FW>
302.451

> <DSSTox_CID>
2047

> <DSSTox_RID>
82575

> <DSSTox_GSID>
47831

> <DSSTox_FileID_Sort>
7252

> <TS_ChemName>
Levamisole resinate

> <TS_ChemName_Synonyms>


> <TS_CASRN>
14769-73-4_1

> <CASRN_ChemName_Relationship>
CAS for active ingredient

> <TS_Description>
mixture or formulation

> <ChemNote>
levamoisole (abietic acid) adsorbed onto resin; CAS and structure shown for Levamisole

> <STRUCTURE_Shown>
active ingredient of formulation

> <STRUCTURE_Formula>
C20H30O2

> <STRUCTURE_MW>
302.451

> <STRUCTURE_ChemType>
defined organic

> <STRUCTURE_DefinedOrganicForm>
parent

> <STRUCTURE_IUPAC>
abieta-7,13-dien-18-oic acid

> <STRUCTURE_SMILES>
CC(C)C=3CC[C@H]1C(=CC[C@H]2[C@@](C)(CCC[C@]12C)C(=O)O)C=3

> <STRUCTURE_SMILES_Desalt>
CC(C)C=3CC[C@H]1C(=CC[C@H]2[C@@](C)(CCC[C@]12C)C(=O)O)C=3

> <Substance_modify_yyyymmdd>
20130906

$$$$
