1477-42-5
ChemmineR-0915142007XD

 11 12  0  0  0  0  0  0  0  0  1 V2000
    0.0000   -3.4558    0.0000 C   0  0  0  0  0  0  0  0  0  0  0  0
    0.6670   -2.3056    0.0000 C   0  0  0  0  0  0  0  0  0  0  0  0
    0.0000   -1.1502    0.0000 C   0  0  0  0  0  0  0  0  0  0  0  0
    0.6670    0.0000    0.0000 C   0  0  0  0  0  0  0  0  0  0  0  0
    1.9957    0.0000    0.0000 C   0  0  0  0  0  0  0  0  0  0  0  0
    2.6575   -1.1502    0.0000 C   0  0  0  0  0  0  0  0  0  0  0  0
    3.9600   -1.4285    0.0000 S   0  0  0  0  0  0  0  0  0  0  0  0
    4.1018   -2.7520    0.0000 C   0  0  0  0  0  0  0  0  0  0  0  0
    5.2520   -3.4138    0.0000 N   0  0  0  0  0  0  0  0  0  0  0  0
    2.8833   -3.2930    0.0000 N   0  0  0  0  0  0  0  0  0  0  0  0
    1.9957   -2.3056    0.0000 C   0  0  0  0  0  0  0  0  0  0  0  0
  1  2  1  0  0  0  0
  2  3  2  0  0  0  0
  2 11  1  0  0  0  0
  3  4  1  0  0  0  0
  4  5  2  0  0  0  0
  5  6  1  0  0  0  0
  6  7  1  0  0  0  0
  6 11  2  0  0  0  0
  7  8  1  0  0  0  0
  8  9  1  0  0  0  0
  8 10  2  0  0  0  0
 10 11  1  0  0  0  0
M  END
> <ID>
3707

> <Formula>
C8H8N2S

> <FW>
164.2275

> <DSSTox_CID>
4487

> <DSSTox_RID>
77423

> <DSSTox_GSID>
24487

> <DSSTox_FileID_Sort>
2106

> <TS_ChemName>
2-Amino-4-methylbenzothiazole

> <TS_ChemName_Synonyms>


> <TS_CASRN>
1477-42-5

> <CASRN_ChemName_Relationship>
primary

> <TS_Description>
single chemical compound

> <ChemNote>


> <STRUCTURE_Shown>
tested chemical

> <STRUCTURE_Formula>
C8H8N2S

> <STRUCTURE_MW>
164.2275

> <STRUCTURE_ChemType>
defined organic

> <STRUCTURE_DefinedOrganicForm>
parent

> <STRUCTURE_IUPAC>
4-methyl-1,3-benzothiazol-2-amine

> <STRUCTURE_SMILES>
Cc1cccc2sc(N)nc12

> <STRUCTURE_SMILES_Desalt>
Cc1cccc2sc(N)nc12

> <Substance_modify_yyyymmdd>
20080429

$$$$
