147816-23-7
ChemmineR-0915142007XD

 41 42  0  0  1  0  0  0  0  0  1 V2000
    9.5085   -3.7783    0.0000 N    0  0  0  0  0  0  0  0  0  0  0  0
    9.5085   -2.4532    0.0000 C    0  0  0  0  0  0  0  0  0  0  0  0
   10.6366   -4.4767    0.0000 C    0  0  0  0  0  0  0  0  0  0  0  0
    8.1475   -3.7783    0.0000 C    0  0  0  0  0  0  0  0  0  0  0  0
    8.1475   -2.4532    0.0000 C    0  0  0  0  0  0  0  0  0  0  0  0
   10.6366   -1.7907    0.0000 S    0  0  0  0  0  0  0  0  0  0  0  0
   11.8363   -3.7783    0.0000 C    0  0  0  0  0  0  0  0  0  0  0  0
   10.6366   -5.8018    0.0000 C    0  0  0  0  0  0  0  0  0  0  0  0
    7.2164   -4.7990    0.0000 O    0  0  0  0  0  0  0  0  0  0  0  0
    6.8225   -2.3637    0.0000 N    0  0  0  0  0  0  0  0  0  0  0  0
   11.8363   -2.4532    0.0000 C    0  0  0  0  0  0  0  0  0  0  0  0
   12.9824   -4.4767    0.0000 C    0  0  0  0  0  0  0  0  0  0  0  0
   11.8363   -6.5180    0.0000 O    0  0  0  0  0  0  0  0  0  0  0  0
    9.5085   -6.5180    0.0000 O    0  0  0  0  0  0  0  0  0  0  0  0
    5.6406   -1.6474    0.0000 C    0  0  0  0  0  0  0  0  0  0  0  0
   14.1463   -3.7783    0.0000 O    0  0  0  0  0  0  0  0  0  0  0  0
   12.9824   -5.8018    0.0000 C    0  0  0  0  0  0  0  0  0  0  0  0
    4.4767   -2.3637    0.0000 C    0  0  0  0  0  0  0  0  0  0  0  0
    5.6406   -0.3760    0.0000 O    0  0  0  0  0  0  0  0  0  0  0  0
   14.1463   -2.4532    0.0000 C    0  0  0  0  0  0  0  0  0  0  0  0
   14.1463   -6.5180    0.0000 O    0  0  0  0  0  0  0  0  0  0  0  0
    3.3665   -1.7190    0.0000 C    0  0  0  0  0  0  0  0  0  0  0  0
    4.4767   -3.7067    0.0000 C    0  0  0  0  0  0  0  0  0  0  0  0
   15.3281   -1.7907    0.0000 N    0  0  0  0  0  0  0  0  0  0  0  0
   12.9824   -1.7907    0.0000 O    0  0  0  0  0  0  0  0  0  0  0  0
   15.3281   -5.8018    0.0000 C    0  0  0  0  0  0  0  0  0  0  0  0
    3.3665   -0.3760    0.0000 C    0  0  0  0  0  0  0  0  0  0  0  0
    2.1130   -2.1488    0.0000 N    0  0  0  0  0  0  0  0  0  0  0  0
    5.6406   -4.3692    0.0000 C    0  0  0  0  0  0  0  0  0  0  0  0
   16.5100   -6.5180    0.0000 C    0  0  0  0  0  0  0  0  0  0  0  0
   15.3281   -4.4767    0.0000 O    0  0  0  0  0  0  0  0  0  0  0  0
    2.1130    0.0000    0.0000 S    0  0  0  0  0  0  0  0  0  0  0  0
    1.3251   -1.0386    0.0000 C    0  0  0  0  0  0  0  0  0  0  0  0
    5.6406   -5.7122    0.0000 C    0  0  0  0  0  0  0  0  0  0  0  0
   15.7937   -7.6641    0.0000 C    0  0  0  0  0  0  0  0  0  0  0  0
   17.6560   -7.1806    0.0000 C    0  0  0  0  0  0  0  0  0  0  0  0
   17.1725   -5.3362    0.0000 C    0  0  0  0  0  0  0  0  0  0  0  0
    0.0000   -1.0386    0.0000 N    0  0  0  0  0  0  0  0  0  0  0  0
    8.1475   -1.3788    0.0000 H    0  0  0  0  0  0  0  0  0  0  0  0
    9.5085   -1.3788    0.0000 H    0  0  0  0  0  0  0  0  0  0  0  0
   17.9067   -3.0441    0.0000 Cl   0  0  0  0  0  0  0  0  0  0  0  0
  1  2  1  0  0  0  0
  1  3  1  0  0  0  0
  1  4  1  0  0  0  0
  2  5  1  0  0  0  0
  2  6  1  0  0  0  0
  2 40  1  6  0  0  0
  3  7  2  0  0  0  0
  3  8  1  0  0  0  0
  4  9  2  0  0  0  0
  4  5  1  0  0  0  0
  5 10  1  1  0  0  0
  5 39  1  6  0  0  0
  6 11  1  0  0  0  0
  7 12  1  0  0  0  0
  7 11  1  0  0  0  0
  8 13  1  0  0  0  0
  8 14  2  0  0  0  0
 10 15  1  0  0  0  0
 12 16  1  0  0  0  0
 13 17  1  0  0  0  0
 15 18  1  0  0  0  0
 15 19  2  0  0  0  0
 16 20  1  0  0  0  0
 17 21  1  0  0  0  0
 18 22  1  0  0  0  0
 18 23  2  0  0  0  0
 20 24  1  0  0  0  0
 20 25  2  0  0  0  0
 21 26  1  0  0  0  0
 22 27  2  0  0  0  0
 22 28  1  0  0  0  0
 23 29  1  0  0  0  0
 26 30  1  0  0  0  0
 26 31  2  0  0  0  0
 27 32  1  0  0  0  0
 28 33  2  0  0  0  0
 29 34  1  0  0  0  0
 30 35  1  0  0  0  0
 30 36  1  0  0  0  0
 30 37  1  0  0  0  0
 32 33  1  0  0  0  0
 33 38  1  0  0  0  0
M  END
> <ID>
13581

> <Formula>
C23H30ClN5O8S2

> <FW>
604.0960 (567.6351+36.4609)

> <DSSTox_CID>
28508

> <DSSTox_RID>
82780

> <DSSTox_GSID>
48582

> <DSSTox_FileID_Sort>
7457

> <TS_ChemName>
Cefcapene pivoxil hydrochloride

> <TS_ChemName_Synonyms>


> <TS_CASRN>
147816-23-7

> <CASRN_ChemName_Relationship>
primary

> <TS_Description>
single chemical compound

> <ChemNote>
stereochem; parent [105889-45-0]

> <STRUCTURE_Shown>
tested chemical

> <STRUCTURE_Formula>
C23H30ClN5O8S2

> <STRUCTURE_MW>
604.096

> <STRUCTURE_ChemType>
defined organic

> <STRUCTURE_DefinedOrganicForm>
complex

> <STRUCTURE_IUPAC>
[(2,2-dimethylpropanoyl)oxy]methyl (6R,7R)-7-{[(2Z)-2-(2-amino-1,3-thiazol-4-yl)pent-2-enoyl]amino}-3-[(carbamoyloxy)methyl]-8-oxo-5-thia-1-azabicyclo[4.2.0]oct-2-ene-2-carboxylate hydrochloride (1:1)

> <STRUCTURE_SMILES>
Cl.Nc1scc(n1)\C(=C\CC)C(=O)N[C@@H]3C(=O)N2C(=C(COC(N)=O)CS[C@@H]23)C(=O)OCOC(=O)C(C)(C)C

> <STRUCTURE_SMILES_Desalt>
Nc1scc(n1)\C(=C\CC)C(=O)N[C@@H]3C(=O)N2C(=C(COC(N)=O)CS[C@@H]23)C(=O)OCOC(=O)C(C)(C)C

> <Substance_modify_yyyymmdd>
20111014

$$$$
