1478-61-1
ChemmineR-0915142007XD

 23 24  0  0  0  0  0  0  0  0  1 V2000
    6.6449   -5.4027    0.0000 C   0  0  0  0  0  0  0  0  0  0  0  0
    7.4830   -6.4354    0.0000 O   0  0  0  0  0  0  0  0  0  0  0  0
    5.3279   -5.6123    0.0000 C   0  0  0  0  0  0  0  0  0  0  0  0
    7.1238   -4.1606    0.0000 C   0  0  0  0  0  0  0  0  0  0  0  0
    6.2857   -3.1279    0.0000 C   0  0  0  0  0  0  0  0  0  0  0  0
    4.4898   -4.5796    0.0000 C   0  0  0  0  0  0  0  0  0  0  0  0
    4.9687   -3.3374    0.0000 C   0  0  0  0  0  0  0  0  0  0  0  0
    1.0327   -4.8191    0.0000 C   0  0  0  0  0  0  0  0  0  0  0  0
    0.0000   -5.6572    0.0000 O   0  0  0  0  0  0  0  0  0  0  0  0
    0.8231   -3.5020    0.0000 C   0  0  0  0  0  0  0  0  0  0  0  0
    2.2748   -5.2905    0.0000 C   0  0  0  0  0  0  0  0  0  0  0  0
    3.3075   -4.4524    0.0000 C   0  0  0  0  0  0  0  0  0  0  0  0
    1.8558   -2.6640    0.0000 C   0  0  0  0  0  0  0  0  0  0  0  0
    3.0980   -3.1429    0.0000 C   0  0  0  0  0  0  0  0  0  0  0  0
    4.1306   -2.3048    0.0000 C   0  0  0  0  0  0  0  0  0  0  0  0
    5.1633   -1.4667    0.0000 C   0  0  0  0  0  0  0  0  0  0  0  0
    6.4952   -1.4592    0.0000 F   0  0  0  0  0  0  0  0  0  0  0  0
    4.9163   -0.0299    0.0000 F   0  0  0  0  0  0  0  0  0  0  0  0
    3.2925   -1.2721    0.0000 C   0  0  0  0  0  0  0  0  0  0  0  0
    3.6592    0.0000    0.0000 F   0  0  0  0  0  0  0  0  0  0  0  0
    2.1027   -1.4068    0.0000 F   0  0  0  0  0  0  0  0  0  0  0  0
    2.4544   -0.2395    0.0000 F   0  0  0  0  0  0  0  0  0  0  0  0
    6.1959   -0.6286    0.0000 F   0  0  0  0  0  0  0  0  0  0  0  0
  1  2  1  0  0  0  0
  1  3  2  0  0  0  0
  1  4  1  0  0  0  0
  3  6  1  0  0  0  0
  4  5  2  0  0  0  0
  5  7  1  0  0  0  0
  6  7  2  0  0  0  0
  7 15  1  0  0  0  0
  8  9  1  0  0  0  0
  8 10  2  0  0  0  0
  8 11  1  0  0  0  0
 10 13  1  0  0  0  0
 11 12  2  0  0  0  0
 12 14  1  0  0  0  0
 13 14  2  0  0  0  0
 14 15  1  0  0  0  0
 15 16  1  0  0  0  0
 15 19  1  0  0  0  0
 16 17  1  0  0  0  0
 16 18  1  0  0  0  0
 16 23  1  0  0  0  0
 19 20  1  0  0  0  0
 19 21  1  0  0  0  0
 19 22  1  0  0  0  0
M  END
> <ID>
7415

> <Formula>
C15H10F6O2

> <FW>
336.2291

> <DSSTox_CID>
17717

> <DSSTox_RID>
79364

> <DSSTox_GSID>
37717

> <DSSTox_FileID_Sort>
4046

> <TS_ChemName>
Bisphenol AF

> <TS_ChemName_Synonyms>
Bisphenol AF (phenol,4,4-(2,2,2-triflouro-1-(trifluromethyl)ethylidene) (4,4’-(1,1,1,3,3,3-Hexafluoropropane-2,2-diyl)diphenol)

> <TS_CASRN>
1478-61-1

> <CASRN_ChemName_Relationship>
primary

> <TS_Description>
single chemical compound

> <ChemNote>


> <STRUCTURE_Shown>
tested chemical

> <STRUCTURE_Formula>
C15H10F6O2

> <STRUCTURE_MW>
336.2291

> <STRUCTURE_ChemType>
defined organic

> <STRUCTURE_DefinedOrganicForm>
parent

> <STRUCTURE_IUPAC>
4,4'-(1,1,1,3,3,3-hexafluoropropane-2,2-diyl)diphenol

> <STRUCTURE_SMILES>
Oc1ccc(cc1)C(c2ccc(O)cc2)(C(F)(F)F)C(F)(F)F

> <STRUCTURE_SMILES_Desalt>
Oc1ccc(cc1)C(c2ccc(O)cc2)(C(F)(F)F)C(F)(F)F

> <Substance_modify_yyyymmdd>
20080429

$$$$
