148-01-6
ChemmineR-0915142007XD

 16 16  0  0  0  0  0  0  0  0  2 V2000
    5.7530   -4.6453    0.0000 N   0  3  0  0  0  0  0  0  0  0  0  0
    4.6176   -3.9738    0.0000 C   0  0  0  0  0  0  0  0  0  0  0  0
    1.1700   -4.6453    0.0000 N   0  3  0  0  0  0  0  0  0  0  0  0
    3.4615   -1.9869    0.0000 C   0  0  0  0  0  0  0  0  0  0  0  0
    2.3053   -3.9738    0.0000 C   0  0  0  0  0  0  0  0  0  0  0  0
    4.6176   -2.6446    0.0000 C   0  0  0  0  0  0  0  0  0  0  0  0
    3.4615   -4.6453    0.0000 C   0  0  0  0  0  0  0  0  0  0  0  0
    2.3053   -2.6446    0.0000 C   0  0  0  0  0  0  0  0  0  0  0  0
    3.4615   -0.6577    0.0000 C   0  0  0  0  0  0  0  0  0  0  0  0
    6.9230   -3.9738    0.0000 O   0  5  0  0  0  0  0  0  0  0  0  0
    1.1700   -5.9607    0.0000 O   0  5  0  0  0  0  0  0  0  0  0  0
    5.7530   -5.9607    0.0000 O   0  0  0  0  0  0  0  0  0  0  0  0
    0.0000   -3.9738    0.0000 O   0  0  0  0  0  0  0  0  0  0  0  0
    4.6176    0.0000    0.0000 O   0  0  0  0  0  0  0  0  0  0  0  0
    2.3053    0.0000    0.0000 N   0  0  0  0  0  0  0  0  0  0  0  0
    5.7668   -1.9730    0.0000 C   0  0  0  0  0  0  0  0  0  0  0  0
  1  2  1  0  0  0  0
  1 10  1  0  0  0  0
  1 12  2  0  0  0  0
  2  6  2  0  0  0  0
  2  7  1  0  0  0  0
  3  5  1  0  0  0  0
  3 11  1  0  0  0  0
  3 13  2  0  0  0  0
  4  6  1  0  0  0  0
  4  9  1  0  0  0  0
  4  8  2  0  0  0  0
  5  7  2  0  0  0  0
  5  8  1  0  0  0  0
  6 16  1  0  0  0  0
  9 14  2  0  0  0  0
  9 15  1  0  0  0  0
M  END
> <ID>
9427

> <Formula>
C8H7N3O5

> <FW>
225.1583

> <DSSTox_CID>
22521

> <DSSTox_RID>
80047

> <DSSTox_GSID>
42521

> <DSSTox_FileID_Sort>
4729

> <TS_ChemName>
Zoalene

> <TS_ChemName_Synonyms>


> <TS_CASRN>
148-01-6

> <CASRN_ChemName_Relationship>
primary

> <TS_Description>
single chemical compound

> <ChemNote>


> <STRUCTURE_Shown>
tested chemical

> <STRUCTURE_Formula>
C8H7N3O5

> <STRUCTURE_MW>
225.1583

> <STRUCTURE_ChemType>
defined organic

> <STRUCTURE_DefinedOrganicForm>
parent

> <STRUCTURE_IUPAC>
2-methyl-3,5-dinitrobenzamide

> <STRUCTURE_SMILES>
Cc1c(cc(cc1[N+](=O)[O-])[N+]([O-])=O)C(N)=O

> <STRUCTURE_SMILES_Desalt>
Cc1c(cc(cc1[N+](=O)[O-])[N+]([O-])=O)C(N)=O

> <Substance_modify_yyyymmdd>
20080825

$$$$
