1480-19-9
ChemmineR-0915142007XD

 26 28  0  0  0  0  0  0  0  0  1 V2000
    8.0441   -2.0426    0.0000 N   0  0  0  0  0  0  0  0  0  0  0  0
    9.1686   -2.7196    0.0000 C   0  0  0  0  0  0  0  0  0  0  0  0
    5.7490   -0.7000    0.0000 N   0  0  0  0  0  0  0  0  0  0  0  0
    1.1475   -0.6770    0.0000 C   0  0  0  0  0  0  0  0  0  0  0  0
    1.1475   -1.9852    0.0000 C   0  0  0  0  0  0  0  0  0  0  0  0
    6.9080   -2.7196    0.0000 C   0  0  0  0  0  0  0  0  0  0  0  0
    8.0441   -0.7000    0.0000 C   0  0  0  0  0  0  0  0  0  0  0  0
    9.1686   -4.0392    0.0000 C   0  0  0  0  0  0  0  0  0  0  0  0
    0.0000    0.0000    0.0000 O   0  0  0  0  0  0  0  0  0  0  0  0
    2.3065   -2.6508    0.0000 C   0  0  0  0  0  0  0  0  0  0  0  0
    0.0000   -2.6508    0.0000 C   0  0  0  0  0  0  0  0  0  0  0  0
    6.9080   -0.0459    0.0000 C   0  0  0  0  0  0  0  0  0  0  0  0
    5.7490   -2.0426    0.0000 C   0  0  0  0  0  0  0  0  0  0  0  0
    1.1475   -4.6474    0.0000 C   0  0  0  0  0  0  0  0  0  0  0  0
    0.0000   -3.9933    0.0000 C   0  0  0  0  0  0  0  0  0  0  0  0
    2.3065   -3.9933    0.0000 C   0  0  0  0  0  0  0  0  0  0  0  0
    1.1475   -5.9785    0.0000 F   0  0  0  0  0  0  0  0  0  0  0  0
    8.0441   -4.7278    0.0000 O   0  0  0  0  0  0  0  0  0  0  0  0
    4.5901   -0.0230    0.0000 C   0  0  0  0  0  0  0  0  0  0  0  0
    3.4311   -0.6885    0.0000 C   0  0  0  0  0  0  0  0  0  0  0  0
    2.3065   -0.0230    0.0000 C   0  0  0  0  0  0  0  0  0  0  0  0
   10.3276   -2.0426    0.0000 C   0  0  0  0  0  0  0  0  0  0  0  0
   10.3276   -4.7163    0.0000 C   0  0  0  0  0  0  0  0  0  0  0  0
    6.8736   -4.0737    0.0000 C   0  0  0  0  0  0  0  0  0  0  0  0
   11.4751   -2.7196    0.0000 C   0  0  0  0  0  0  0  0  0  0  0  0
   11.4751   -4.0392    0.0000 C   0  0  0  0  0  0  0  0  0  0  0  0
  1  2  1  0  0  0  0
  1  6  1  0  0  0  0
  1  7  1  0  0  0  0
  2  8  1  0  0  0  0
  2 22  2  0  0  0  0
  3 12  1  0  0  0  0
  3 19  1  0  0  0  0
  3 13  1  0  0  0  0
  4 21  1  0  0  0  0
  4  5  1  0  0  0  0
  4  9  2  0  0  0  0
  5 10  2  0  0  0  0
  5 11  1  0  0  0  0
  6 13  1  0  0  0  0
  7 12  1  0  0  0  0
  8 18  1  0  0  0  0
  8 23  2  0  0  0  0
 10 16  1  0  0  0  0
 11 15  2  0  0  0  0
 14 15  1  0  0  0  0
 14 17  1  0  0  0  0
 14 16  2  0  0  0  0
 18 24  1  0  0  0  0
 19 20  1  0  0  0  0
 20 21  1  0  0  0  0
 22 25  1  0  0  0  0
 23 26  1  0  0  0  0
 25 26  2  0  0  0  0
M  END
> <ID>
11152

> <Formula>
C21H25FN2O2

> <FW>
356.4338

> <DSSTox_CID>
25711

> <DSSTox_RID>
81083

> <DSSTox_GSID>
45711

> <DSSTox_FileID_Sort>
5764

> <TS_ChemName>
Fluanisone

> <TS_ChemName_Synonyms>


> <TS_CASRN>
1480-19-9

> <CASRN_ChemName_Relationship>
primary

> <TS_Description>
single chemical compound

> <ChemNote>


> <STRUCTURE_Shown>
tested chemical

> <STRUCTURE_Formula>
C21H25FN2O2

> <STRUCTURE_MW>
356.4338

> <STRUCTURE_ChemType>
defined organic

> <STRUCTURE_DefinedOrganicForm>
parent

> <STRUCTURE_IUPAC>
1-(4-fluorophenyl)-4-[4-(2-methoxyphenyl)piperazin-1-yl]butan-1-one

> <STRUCTURE_SMILES>
Fc1ccc(cc1)C(=O)CCCN2CCN(CC2)c3ccccc3OC

> <STRUCTURE_SMILES_Desalt>
Fc1ccc(cc1)C(=O)CCCN2CCN(CC2)c3ccccc3OC

> <Substance_modify_yyyymmdd>
20110819

$$$$
