148016-81-3
ChemmineR-0915142007XD

 29 31  0  0  1  0  0  0  0  0  1 V2000
    1.6458    0.0000    0.0000 O   0  0  0  0  0  0  0  0  0  0  0  0
    1.3017   -1.3167    0.0000 C   0  0  0  0  0  0  0  0  0  0  0  0
    0.0000   -1.6757    0.0000 C   0  0  0  0  0  0  0  0  0  0  0  0
    2.2443   -2.2593    0.0000 C   0  0  0  0  0  0  0  0  0  0  0  0
    3.6059   -2.2593    0.0000 C   0  0  0  0  0  0  0  0  0  0  0  0
    4.8926   -1.8553    0.0000 C   0  0  0  0  0  0  0  0  0  0  0  0
    5.3115   -0.5536    0.0000 C   0  0  0  0  0  0  0  0  0  0  0  0
    5.6856   -2.9475    0.0000 C   0  0  0  0  0  0  0  0  0  0  0  0
    4.8926   -4.0248    0.0000 C   0  0  0  0  0  0  0  0  0  0  0  0
    3.6059   -3.6059    0.0000 N   0  0  0  0  0  0  0  0  0  0  0  0
    2.2443   -3.6208    0.0000 C   0  0  0  0  0  0  0  0  0  0  0  0
    1.3017   -4.5634    0.0000 O   0  0  0  0  0  0  0  0  0  0  0  0
    5.3115   -5.2966    0.0000 C   0  0  0  0  0  0  0  0  0  0  0  0
    6.6132   -5.5808    0.0000 O   0  0  0  0  0  0  0  0  0  0  0  0
    4.3988   -6.3140    0.0000 O   0  0  0  0  0  0  0  0  0  0  0  0
    6.6282   -2.1396    0.0000 S   0  0  0  0  0  0  0  0  0  0  0  0
    7.9299   -2.5435    0.0000 C   0  0  0  0  0  0  0  0  0  0  0  0
    8.3488   -3.8153    0.0000 C   0  0  0  0  0  0  0  0  0  0  0  0
    9.6954   -3.8004    0.0000 N   0  0  0  0  0  0  0  0  0  0  0  0
   10.0994   -2.5136    0.0000 C   0  0  0  0  0  0  0  0  0  0  0  0
   11.3861   -2.0947    0.0000 C   0  0  0  0  0  0  0  0  0  0  0  0
   12.4035   -2.9924    0.0000 N   0  0  0  0  0  0  0  0  0  0  0  0
   13.6753   -2.5435    0.0000 S   0  0  0  0  0  0  0  0  0  0  0  0
   13.2564   -1.2718    0.0000 N   0  0  0  0  0  0  0  0  0  0  0  0
   14.1092   -3.8153    0.0000 O   0  0  0  0  0  0  0  0  0  0  0  0
   14.9620   -2.1096    0.0000 O   0  0  0  0  0  0  0  0  0  0  0  0
    9.0071   -1.7356    0.0000 C   0  0  0  0  0  0  0  0  0  0  0  0
    3.5759   -1.1371    0.0000 H   0  0  0  0  0  0  0  0  0  0  0  0
    2.1994   -1.1820    0.0000 H   0  0  0  0  0  0  0  0  0  0  0  0
  2  1  1  1  0  0  0
  2  3  1  0  0  0  0
  2  4  1  0  0  0  0
  4  5  1  0  0  0  0
  4 11  1  0  0  0  0
  4 29  1  1  0  0  0
  5  6  1  0  0  0  0
  5 10  1  0  0  0  0
  5 28  1  6  0  0  0
  6  7  1  1  0  0  0
  6  8  1  0  0  0  0
  8  9  2  0  0  0  0
  8 16  1  0  0  0  0
  9 10  1  0  0  0  0
  9 13  1  0  0  0  0
 10 11  1  0  0  0  0
 11 12  2  0  0  0  0
 13 14  1  0  0  0  0
 13 15  2  0  0  0  0
 17 16  1  1  0  0  0
 17 18  1  0  0  0  0
 17 27  1  0  0  0  0
 18 19  1  0  0  0  0
 19 20  1  0  0  0  0
 20 21  1  1  0  0  0
 20 27  1  0  0  0  0
 21 22  1  0  0  0  0
 22 23  1  0  0  0  0
 23 24  1  0  0  0  0
 23 25  2  0  0  0  0
 23 26  2  0  0  0  0
M  END
> <ID>
11879

> <Formula>
C15H24N4O6S2

> <FW>
420.5043

> <DSSTox_CID>
26678

> <DSSTox_RID>
81814

> <DSSTox_GSID>
46678

> <DSSTox_FileID_Sort>
6495

> <TS_ChemName>
Doripenem

> <TS_ChemName_Synonyms>


> <TS_CASRN>
148016-81-3

> <CASRN_ChemName_Relationship>
primary

> <TS_Description>
single chemical compound

> <ChemNote>
stereochem

> <STRUCTURE_Shown>
tested chemical

> <STRUCTURE_Formula>
C15H24N4O6S2

> <STRUCTURE_MW>
420.5043

> <STRUCTURE_ChemType>
defined organic

> <STRUCTURE_DefinedOrganicForm>
parent

> <STRUCTURE_IUPAC>
(4R,5S,6S)-6-[(1R)-1-hydroxyethyl]-4-methyl-7-oxo-3-({(3S,5S)-5-[(sulfamoylamino)methyl]pyrrolidin-3-yl}sulfanyl)-1-azabicyclo[3.2.0]hept-2-ene-2-carboxylic acid

> <STRUCTURE_SMILES>
O[C@H](C)[C@H]3C(=O)N2C(=C(S[C@H]1C[C@@H](CNS(N)(=O)=O)NC1)[C@H](C)[C@@H]23)C(=O)O

> <STRUCTURE_SMILES_Desalt>
O[C@H](C)[C@H]3C(=O)N2C(=C(S[C@H]1C[C@@H](CNS(N)(=O)=O)NC1)[C@H](C)[C@@H]23)C(=O)O

> <Substance_modify_yyyymmdd>
20110805

$$$$
