14814-09-6
ChemmineR-0915142007XD

 14 13  0  0  0  0  0  0  0  0  1 V2000
    1.3301   -0.3176    0.0000 C    0  0  0  0  0  0  0  0  0  0  0  0
    1.9852   -1.4757    0.0000 C    0  0  0  0  0  0  0  0  0  0  0  0
    3.3153   -1.4889    0.0000 C    0  0  0  0  0  0  0  0  0  0  0  0
    0.0000   -0.3044    0.0000 S    0  0  0  0  0  0  0  0  0  0  0  0
    3.9705   -2.6404    0.0000 Si   0  0  0  0  0  0  0  0  0  0  0  0
    2.8190   -3.3021    0.0000 O    0  0  0  0  0  0  0  0  0  0  0  0
    2.8058   -4.6322    0.0000 C    0  0  0  0  0  0  0  0  0  0  0  0
    1.6477   -5.2873    0.0000 C    0  0  0  0  0  0  0  0  0  0  0  0
    5.1285   -1.9852    0.0000 O    0  0  0  0  0  0  0  0  0  0  0  0
    5.1417   -0.6551    0.0000 C    0  0  0  0  0  0  0  0  0  0  0  0
    6.2998    0.0000    0.0000 C    0  0  0  0  0  0  0  0  0  0  0  0
    4.6322   -3.7984    0.0000 O    0  0  0  0  0  0  0  0  0  0  0  0
    5.9623   -3.8116    0.0000 C    0  0  0  0  0  0  0  0  0  0  0  0
    6.6174   -4.9697    0.0000 C    0  0  0  0  0  0  0  0  0  0  0  0
  1  2  1  0  0  0  0
  1  4  1  0  0  0  0
  2  3  1  0  0  0  0
  3  5  1  0  0  0  0
  5  6  1  0  0  0  0
  5  9  1  0  0  0  0
  5 12  1  0  0  0  0
  6  7  1  0  0  0  0
  7  8  1  0  0  0  0
  9 10  1  0  0  0  0
 10 11  1  0  0  0  0
 12 13  1  0  0  0  0
 13 14  1  0  0  0  0
M  END
> <ID>
10135

> <Formula>
C9H22O3SSi

> <FW>
238.4197

> <DSSTox_CID>
24479

> <DSSTox_RID>
80258

> <DSSTox_GSID>
44479

> <DSSTox_FileID_Sort>
4940

> <TS_ChemName>
3-(Triethoxysilyl)propane-1-thiol

> <TS_ChemName_Synonyms>
3-(Triethoxysilyl)propane-1-thiol (1-Propanethiol, 3-(triethoxysilyl)-)

> <TS_CASRN>
14814-09-6

> <CASRN_ChemName_Relationship>
primary

> <TS_Description>
single chemical compound

> <ChemNote>


> <STRUCTURE_Shown>
tested chemical

> <STRUCTURE_Formula>
C9H22O3SSi

> <STRUCTURE_MW>
238.4197

> <STRUCTURE_ChemType>
organometallic

> <STRUCTURE_DefinedOrganicForm>


> <STRUCTURE_IUPAC>
3-(triethoxysilyl)propane-1-thiol

> <STRUCTURE_SMILES>
CCO[Si](OCC)(OCC)CCCS

> <STRUCTURE_SMILES_Desalt>
CCO[Si](OCC)(OCC)CCCS

> <Substance_modify_yyyymmdd>
20091116

$$$$
