14816-18-3
ChemmineR-0915142007XD

 19 19  0  0  0  0  0  0  0  0  1 V2000
   10.3685   -3.4527    0.0000 C   0  0  0  0  0  0  0  0  0  0  0  0
   10.3685   -4.7799    0.0000 C   0  0  0  0  0  0  0  0  0  0  0  0
    9.2176   -2.7891    0.0000 C   0  0  0  0  0  0  0  0  0  0  0  0
    9.2176   -5.4538    0.0000 C   0  0  0  0  0  0  0  0  0  0  0  0
    8.0563   -3.4527    0.0000 C   0  0  0  0  0  0  0  0  0  0  0  0
    8.0563   -4.7799    0.0000 C   0  0  0  0  0  0  0  0  0  0  0  0
    6.9054   -2.7891    0.0000 C   0  0  0  0  0  0  0  0  0  0  0  0
    6.9054   -1.4620    0.0000 C   0  0  0  0  0  0  0  0  0  0  0  0
    5.7545   -3.4527    0.0000 N   0  0  0  0  0  0  0  0  0  0  0  0
    6.9054   -0.1348    0.0000 N   0  0  0  0  0  0  0  0  0  0  0  0
    4.6036   -2.7891    0.0000 O   0  0  0  0  0  0  0  0  0  0  0  0
    3.4423   -3.4527    0.0000 P   0  0  0  0  0  0  0  0  0  0  0  0
    2.7891   -2.3018    0.0000 O   0  0  0  0  0  0  0  0  0  0  0  0
    2.2914   -4.1267    0.0000 O   0  0  0  0  0  0  0  0  0  0  0  0
    4.1163   -4.6036    0.0000 S   0  0  0  0  0  0  0  0  0  0  0  0
    3.4423   -1.1613    0.0000 C   0  0  0  0  0  0  0  0  0  0  0  0
    2.7891    0.0000    0.0000 C   0  0  0  0  0  0  0  0  0  0  0  0
    1.1405   -3.4527    0.0000 C   0  0  0  0  0  0  0  0  0  0  0  0
    0.0000   -4.1267    0.0000 C   0  0  0  0  0  0  0  0  0  0  0  0
  1  2  1  0  0  0  0
  1  3  2  0  0  0  0
  2  4  2  0  0  0  0
  3  5  1  0  0  0  0
  4  6  1  0  0  0  0
  5  6  2  0  0  0  0
  5  7  1  0  0  0  0
  7  8  1  0  0  0  0
  7  9  2  0  0  0  0
  8 10  3  0  0  0  0
  9 11  1  0  0  0  0
 11 12  1  0  0  0  0
 12 13  1  0  0  0  0
 12 14  1  0  0  0  0
 12 15  2  0  0  0  0
 13 16  1  0  0  0  0
 14 18  1  0  0  0  0
 16 17  1  0  0  0  0
 18 19  1  0  0  0  0
M  END
> <ID>
6739

> <Formula>
C12H15N2O3PS

> <FW>
298.2979

> <DSSTox_CID>
14324

> <DSSTox_RID>
79143

> <DSSTox_GSID>
34324

> <DSSTox_FileID_Sort>
3825

> <TS_ChemName>
Phoxim

> <TS_ChemName_Synonyms>
Phoxim (alpha-(((Diethoxyphosphinothioyl)oxy)imino)benzeneacetonitrile)

> <TS_CASRN>
14816-18-3

> <CASRN_ChemName_Relationship>
primary

> <TS_Description>
single chemical compound

> <ChemNote>


> <STRUCTURE_Shown>
tested chemical

> <STRUCTURE_Formula>
C12H15N2O3PS

> <STRUCTURE_MW>
298.2979

> <STRUCTURE_ChemType>
defined organic

> <STRUCTURE_DefinedOrganicForm>
parent

> <STRUCTURE_IUPAC>
4-ethoxy-7-phenyl-3,5-dioxa-6-aza-4-phosphaoct-6-ene-8-nitrile 4-sulfide

> <STRUCTURE_SMILES>
CCOP(=S)(O\N=C(/C#N)c1ccccc1)OCC

> <STRUCTURE_SMILES_Desalt>
CCOP(=S)(O\N=C(/C#N)c1ccccc1)OCC

> <Substance_modify_yyyymmdd>
20080429

$$$$
