14838-45-0
ChemmineR-0915142007XD

 33 34  0  0  0  0  0  0  0  0  1 V2000
    2.2432   -2.6384    0.0000 C   0  0  0  0  0  0  0  0  0  0  0  0
    0.0000   -2.6384    0.0000 N   0  0  0  0  0  0  0  0  0  0  0  0
    2.2432   -3.9416    0.0000 C   0  0  0  0  0  0  0  0  0  0  0  0
    1.1109   -4.6039    0.0000 C   0  0  0  0  0  0  0  0  0  0  0  0
    0.0000   -3.9416    0.0000 O   0  0  0  0  0  0  0  0  0  0  0  0
    3.4182   -1.9548    0.0000 C   0  0  0  0  0  0  0  0  0  0  0  0
    5.6507   -1.9548    0.0000 N   0  0  0  0  0  0  0  0  0  0  0  0
    4.5291   -2.6064    0.0000 C   0  0  0  0  0  0  0  0  0  0  0  0
    1.1109   -5.8964    0.0000 C   0  0  0  0  0  0  0  0  0  0  0  0
    3.4182   -0.6409    0.0000 O   0  0  0  0  0  0  0  0  0  0  0  0
    5.6507   -0.6516    0.0000 C   0  0  0  0  0  0  0  0  0  0  0  0
    6.7830   -2.6064    0.0000 C   0  0  0  0  0  0  0  0  0  0  0  0
    2.2432   -6.5587    0.0000 C   0  0  0  0  0  0  0  0  0  0  0  0
    0.0000   -6.5587    0.0000 C   0  0  0  0  0  0  0  0  0  0  0  0
    6.7830    0.0000    0.0000 C   0  0  0  0  0  0  0  0  0  0  0  0
    7.8939   -1.9548    0.0000 C   0  0  0  0  0  0  0  0  0  0  0  0
    0.0000   -7.8619    0.0000 C   0  0  0  0  0  0  0  0  0  0  0  0
    2.2432   -7.8619    0.0000 C   0  0  0  0  0  0  0  0  0  0  0  0
    1.1109   -8.5135    0.0000 C   0  0  0  0  0  0  0  0  0  0  0  0
    7.8939   -0.6516    0.0000 C   0  0  0  0  0  0  0  0  0  0  0  0
    7.4346   -6.6655    0.0000 C   0  0  0  0  0  0  0  0  0  0  0  0
    8.7378   -6.6655    0.0000 C   0  0  0  0  0  0  0  0  0  0  0  0
    6.1207   -6.6655    0.0000 C   0  0  0  0  0  0  0  0  0  0  0  0
    7.4346   -7.9687    0.0000 C   0  0  0  0  0  0  0  0  0  0  0  0
    6.3130   -8.6096    0.0000 O   0  0  0  0  0  0  0  0  0  0  0  0
    5.4798   -5.5546    0.0000 C   0  0  0  0  0  0  0  0  0  0  0  0
    4.1766   -5.5546    0.0000 O   0  0  0  0  0  0  0  0  0  0  0  0
    6.1207   -4.4116    0.0000 O   0  0  0  0  0  0  0  0  0  0  0  0
    9.3787   -5.5439    0.0000 C   0  0  0  0  0  0  0  0  0  0  0  0
    8.7271   -4.4116    0.0000 O   0  0  0  0  0  0  0  0  0  0  0  0
   10.6819   -5.5439    0.0000 O   0  0  0  0  0  0  0  0  0  0  0  0
    7.4346   -5.3623    0.0000 O   0  0  0  0  0  0  0  0  0  0  0  0
    8.5669   -8.6096    0.0000 O   0  0  0  0  0  0  0  0  0  0  0  0
  1  2  2  0  0  0  0
  1  3  1  0  0  0  0
  1  6  1  0  0  0  0
  2  5  1  0  0  0  0
  3  4  2  0  0  0  0
  4  9  1  0  0  0  0
  4  5  1  0  0  0  0
  6  8  1  0  0  0  0
  6 10  1  0  0  0  0
  7  8  1  0  0  0  0
  7 11  1  0  0  0  0
  7 12  1  0  0  0  0
  9 13  2  0  0  0  0
  9 14  1  0  0  0  0
 11 15  1  0  0  0  0
 12 16  1  0  0  0  0
 13 18  1  0  0  0  0
 14 17  2  0  0  0  0
 15 20  1  0  0  0  0
 16 20  1  0  0  0  0
 17 19  1  0  0  0  0
 18 19  2  0  0  0  0
 21 24  1  0  0  0  0
 21 23  1  0  0  0  0
 21 32  1  0  0  0  0
 21 22  1  0  0  0  0
 22 29  1  0  0  0  0
 23 26  1  0  0  0  0
 24 25  1  0  0  0  0
 24 33  2  0  0  0  0
 26 27  1  0  0  0  0
 26 28  2  0  0  0  0
 29 30  2  0  0  0  0
 29 31  1  0  0  0  0
M  END
> <ID>
13805

> <Formula>
C22H28N2O9

> <FW>
464.4657 (272.3422+192.1235)

> <DSSTox_CID>
28742

> <DSSTox_RID>
83011

> <DSSTox_GSID>
48816

> <DSSTox_FileID_Sort>
7688

> <TS_ChemName>
Perisoxal citrate

> <TS_ChemName_Synonyms>
1-Piperidineethanol, ?-(5-phenyl-3-isoxazolyl)-, 2-hydroxy-1,2,3-propanetricarboxylate (1:1)

> <TS_CASRN>
14838-45-0

> <CASRN_ChemName_Relationship>
primary

> <TS_Description>
single chemical compound

> <ChemNote>
parent [2055-44-9]

> <STRUCTURE_Shown>
tested chemical

> <STRUCTURE_Formula>
C22H28N2O9

> <STRUCTURE_MW>
464.4657

> <STRUCTURE_ChemType>
defined organic

> <STRUCTURE_DefinedOrganicForm>
complex

> <STRUCTURE_IUPAC>
1-(5-phenyl-1,2-oxazol-3-yl)-2-(piperidin-1-yl)ethanol 2-hydroxypropane-1,2,3-tricarboxylate (1:1)

> <STRUCTURE_SMILES>
OC(CN1CCCCC1)c2cc(on2)c3ccccc3.O=C(O)C(O)(CC(=O)O)CC(=O)O

> <STRUCTURE_SMILES_Desalt>
OC(CN1CCCCC1)c2cc(on2)c3ccccc3

> <Substance_modify_yyyymmdd>
20100107

$$$$
