1484-84-0
ChemmineR-0915142007XD

  9  9  0  0  0  0  0  0  0  0  1 V2000
    4.6829    0.0000    0.0000 C   0  0  0  0  0  0  0  0  0  0  0  0
    4.0096   -1.1542    0.0000 C   0  0  0  0  0  0  0  0  0  0  0  0
    6.0114    0.0000    0.0000 O   0  0  0  0  0  0  0  0  0  0  0  0
    2.0018    0.0000    0.0000 N   0  0  0  0  0  0  0  0  0  0  0  0
    2.6751   -1.1542    0.0000 C   0  0  0  0  0  0  0  0  0  0  0  0
    0.6733    0.0000    0.0000 C   0  0  0  0  0  0  0  0  0  0  0  0
    2.0018   -2.2903    0.0000 C   0  0  0  0  0  0  0  0  0  0  0  0
    0.0000   -1.1542    0.0000 C   0  0  0  0  0  0  0  0  0  0  0  0
    0.6733   -2.2903    0.0000 C   0  0  0  0  0  0  0  0  0  0  0  0
  1  2  1  0  0  0  0
  1  3  1  0  0  0  0
  2  5  1  0  0  0  0
  4  5  1  0  0  0  0
  4  6  1  0  0  0  0
  5  7  1  0  0  0  0
  6  8  1  0  0  0  0
  7  9  1  0  0  0  0
  8  9  1  0  0  0  0
M  END
> <ID>
10485

> <Formula>
C7H15NO

> <FW>
129.2001

> <DSSTox_CID>
24837

> <DSSTox_RID>
80518

> <DSSTox_GSID>
44837

> <DSSTox_FileID_Sort>
5200

> <TS_ChemName>
2-(Piperidin-2-yl)ethanol

> <TS_ChemName_Synonyms>


> <TS_CASRN>
1484-84-0

> <CASRN_ChemName_Relationship>
primary

> <TS_Description>
single chemical compound

> <ChemNote>


> <STRUCTURE_Shown>
tested chemical

> <STRUCTURE_Formula>
C7H15NO

> <STRUCTURE_MW>
129.2001

> <STRUCTURE_ChemType>
defined organic

> <STRUCTURE_DefinedOrganicForm>
parent

> <STRUCTURE_IUPAC>
2-(piperidin-2-yl)ethanol

> <STRUCTURE_SMILES>
OCCC1CCCCN1

> <STRUCTURE_SMILES_Desalt>
OCCC1CCCCN1

> <Substance_modify_yyyymmdd>
20091116

$$$$
