148477-71-8
ChemmineR-0915142007XD

 27 29  0  0  0  0  0  0  0  0  1 V2000
    7.6595   -2.0257    0.0000 C    0  0  0  0  0  0  0  0  0  0  0  0
    7.8856   -3.3820    0.0000 C    0  0  0  0  0  0  0  0  0  0  0  0
    6.3728   -1.5649    0.0000 C    0  0  0  0  0  0  0  0  0  0  0  0
    6.8510   -4.2514    0.0000 C    0  0  0  0  0  0  0  0  0  0  0  0
    5.3208   -2.4604    0.0000 C    0  0  0  0  0  0  0  0  0  0  0  0
    5.5643   -3.7906    0.0000 C    0  0  0  0  0  0  0  0  0  0  0  0
    2.0431   -2.6865    0.0000 C    0  0  0  0  0  0  0  0  0  0  0  0
    2.7300   -1.5041    0.0000 C    0  0  0  0  0  0  0  0  0  0  0  0
    0.6781   -2.6865    0.0000 C    0  0  0  0  0  0  0  0  0  0  0  0
    2.0431   -0.3304    0.0000 C    0  0  0  0  0  0  0  0  0  0  0  0
    0.0000   -1.5041    0.0000 C    0  0  0  0  0  0  0  0  0  0  0  0
    0.6781   -0.3304    0.0000 C    0  0  0  0  0  0  0  0  0  0  0  0
    3.3125   -2.6169    0.0000 C    0  0  0  0  0  0  0  0  0  0  0  0
    3.3125   -0.3999    0.0000 O    0  0  0  0  0  0  0  0  0  0  0  0
    4.6079   -0.8259    0.0000 C    0  0  0  0  0  0  0  0  0  0  0  0
    4.6079   -2.1909    0.0000 C    0  0  0  0  0  0  0  0  0  0  0  0
    5.6947    0.0000    0.0000 O    0  0  0  0  0  0  0  0  0  0  0  0
    3.0430   -3.7733    0.0000 O    0  0  0  0  0  0  0  0  0  0  0  0
    3.9558   -4.8079    0.0000 C    0  0  0  0  0  0  0  0  0  0  0  0
    5.2860   -4.5470    0.0000 O    0  0  0  0  0  0  0  0  0  0  0  0
    3.5037   -6.0946    0.0000 C    0  0  0  0  0  0  0  0  0  0  0  0
    8.6941   -1.1563    0.0000 Cl   0  0  0  0  0  0  0  0  0  0  0  0
    7.0944   -5.5990    0.0000 Cl   0  0  0  0  0  0  0  0  0  0  0  0
    2.2257   -5.6686    0.0000 C    0  0  0  0  0  0  0  0  0  0  0  0
    3.0777   -7.3987    0.0000 C    0  0  0  0  0  0  0  0  0  0  0  0
    4.8079   -6.5380    0.0000 C    0  0  0  0  0  0  0  0  0  0  0  0
    1.7301   -7.6595    0.0000 C    0  0  0  0  0  0  0  0  0  0  0  0
  1  2  1  0  0  0  0
  1  3  2  0  0  0  0
  1 22  1  0  0  0  0
  2  4  2  0  0  0  0
  3  5  1  0  0  0  0
  4  6  1  0  0  0  0
  4 23  1  0  0  0  0
  5  6  2  0  0  0  0
  5 16  1  0  0  0  0
  7  8  1  0  0  0  0
  7  9  1  0  0  0  0
  8 10  1  0  0  0  0
  8 13  1  0  0  0  0
  8 14  1  0  0  0  0
  9 11  1  0  0  0  0
 10 12  1  0  0  0  0
 11 12  1  0  0  0  0
 13 16  2  0  0  0  0
 13 18  1  0  0  0  0
 14 15  1  0  0  0  0
 15 16  1  0  0  0  0
 15 17  2  0  0  0  0
 18 19  1  0  0  0  0
 19 20  2  0  0  0  0
 19 21  1  0  0  0  0
 21 24  1  0  0  0  0
 21 25  1  0  0  0  0
 21 26  1  0  0  0  0
 25 27  1  0  0  0  0
M  END
> <ID>
6952

> <Formula>
C21H24Cl2O4

> <FW>
411.3189

> <DSSTox_CID>
14928

> <DSSTox_RID>
79221

> <DSSTox_GSID>
34928

> <DSSTox_FileID_Sort>
3903

> <TS_ChemName>
Spirodiclofen

> <TS_ChemName_Synonyms>


> <TS_CASRN>
148477-71-8

> <CASRN_ChemName_Relationship>
primary

> <TS_Description>
single chemical compound

> <ChemNote>


> <STRUCTURE_Shown>
tested chemical

> <STRUCTURE_Formula>
C21H24Cl2O4

> <STRUCTURE_MW>
411.3189

> <STRUCTURE_ChemType>
defined organic

> <STRUCTURE_DefinedOrganicForm>
parent

> <STRUCTURE_IUPAC>
3-(3,5-dichlorophenyl)-2-oxo-1-oxaspiro[4.5]dec-3-en-4-yl 2,2-dimethylbutanoate

> <STRUCTURE_SMILES>
CC(C)(CC)C(=O)OC2=C(C(=O)OC12CCCCC1)c3cc(Cl)cc(Cl)c3

> <STRUCTURE_SMILES_Desalt>
CC(C)(CC)C(=O)OC2=C(C(=O)OC12CCCCC1)c3cc(Cl)cc(Cl)c3

> <Substance_modify_yyyymmdd>
20080429

$$$$
