148553-50-8
ChemmineR-0915142007XD

 11 10  0  0  1  0  0  0  0  0  1 V2000
    2.3073   -0.6543    0.0000 C   0  0  0  0  0  0  0  0  0  0  0  0
    2.3073   -1.9859    0.0000 C   0  0  0  0  0  0  0  0  0  0  0  0
    3.4610   -2.6632    0.0000 C   0  0  0  0  0  0  0  0  0  0  0  0
    4.6032   -1.9859    0.0000 C   0  0  0  0  0  0  0  0  0  0  0  0
    4.6032   -0.6543    0.0000 O   0  0  0  0  0  0  0  0  0  0  0  0
    5.7396   -2.6632    0.0000 O   0  0  0  0  0  0  0  0  0  0  0  0
    1.1537   -2.6632    0.0000 C   0  0  0  0  0  0  0  0  0  0  0  0
    1.1537   -3.9890    0.0000 C   0  0  0  0  0  0  0  0  0  0  0  0
    2.3073   -4.6491    0.0000 C   0  0  0  0  0  0  0  0  0  0  0  0
    0.0000   -4.6491    0.0000 C   0  0  0  0  0  0  0  0  0  0  0  0
    1.1537    0.0000    0.0000 N   0  0  0  0  0  0  0  0  0  0  0  0
  2  1  1  6  0  0  0
  1 11  1  0  0  0  0
  2  7  1  0  0  0  0
  2  3  1  0  0  0  0
  3  4  1  0  0  0  0
  4  6  1  0  0  0  0
  4  5  2  0  0  0  0
  7  8  1  0  0  0  0
  8  9  1  0  0  0  0
  8 10  1  0  0  0  0
M  END
> <ID>
11314

> <Formula>
C8H17NO2

> <FW>
159.2261

> <DSSTox_CID>
25950

> <DSSTox_RID>
81246

> <DSSTox_GSID>
45950

> <DSSTox_FileID_Sort>
5927

> <TS_ChemName>
Pregabalin

> <TS_ChemName_Synonyms>


> <TS_CASRN>
148553-50-8

> <CASRN_ChemName_Relationship>
primary

> <TS_Description>
single chemical compound

> <ChemNote>
stereochem

> <STRUCTURE_Shown>
tested chemical

> <STRUCTURE_Formula>
C8H17NO2

> <STRUCTURE_MW>
159.2261

> <STRUCTURE_ChemType>
defined organic

> <STRUCTURE_DefinedOrganicForm>
parent

> <STRUCTURE_IUPAC>
(3S)-3-(aminomethyl)-5-methylhexanoic acid

> <STRUCTURE_SMILES>
NC[C@@H](CC(C)C)CC(=O)O

> <STRUCTURE_SMILES_Desalt>
NC[C@@H](CC(C)C)CC(=O)O

> <Substance_modify_yyyymmdd>
20110930

$$$$
