14866-33-2
ChemmineR-0915142007XD

 34 32  0  0  0  0  0  0  0  0  2 V2000
    9.2230   -4.5930    0.0000 N    0  3  0  0  0  0  0  0  0  0  0  0
    8.5589   -3.4494    0.0000 C    0  0  0  0  0  0  0  0  0  0  0  0
    7.2308   -3.4494    0.0000 C    0  0  0  0  0  0  0  0  0  0  0  0
    6.5483   -2.2873    0.0000 C    0  0  0  0  0  0  0  0  0  0  0  0
    5.2202   -2.2873    0.0000 C    0  0  0  0  0  0  0  0  0  0  0  0
    4.5746   -1.1621    0.0000 C    0  0  0  0  0  0  0  0  0  0  0  0
    3.2465   -1.1621    0.0000 C    0  0  0  0  0  0  0  0  0  0  0  0
    2.5640    0.0000    0.0000 C    0  0  0  0  0  0  0  0  0  0  0  0
    1.2359    0.0000    0.0000 C    0  0  0  0  0  0  0  0  0  0  0  0
    8.0793   -5.2755    0.0000 C    0  0  0  0  0  0  0  0  0  0  0  0
    6.9172   -4.5930    0.0000 C    0  0  0  0  0  0  0  0  0  0  0  0
    5.7736   -5.2755    0.0000 C    0  0  0  0  0  0  0  0  0  0  0  0
    4.6115   -4.5930    0.0000 C    0  0  0  0  0  0  0  0  0  0  0  0
    3.4678   -5.2755    0.0000 C    0  0  0  0  0  0  0  0  0  0  0  0
    2.3057   -4.5930    0.0000 C    0  0  0  0  0  0  0  0  0  0  0  0
    1.1621   -5.2755    0.0000 C    0  0  0  0  0  0  0  0  0  0  0  0
    0.0000   -4.5930    0.0000 C    0  0  0  0  0  0  0  0  0  0  0  0
   10.3666   -3.9474    0.0000 C    0  0  0  0  0  0  0  0  0  0  0  0
   11.5287   -4.5930    0.0000 C    0  0  0  0  0  0  0  0  0  0  0  0
   12.6724   -3.9474    0.0000 C    0  0  0  0  0  0  0  0  0  0  0  0
   13.8345   -4.5930    0.0000 C    0  0  0  0  0  0  0  0  0  0  0  0
   14.9781   -3.9474    0.0000 C    0  0  0  0  0  0  0  0  0  0  0  0
   16.1402   -4.5930    0.0000 C    0  0  0  0  0  0  0  0  0  0  0  0
   17.2839   -3.9474    0.0000 C    0  0  0  0  0  0  0  0  0  0  0  0
   18.4460   -4.5930    0.0000 C    0  0  0  0  0  0  0  0  0  0  0  0
    9.8870   -5.7551    0.0000 C    0  0  0  0  0  0  0  0  0  0  0  0
    9.2230   -6.9172    0.0000 C    0  0  0  0  0  0  0  0  0  0  0  0
    9.8870   -8.0609    0.0000 C    0  0  0  0  0  0  0  0  0  0  0  0
    9.2230   -9.2230    0.0000 C    0  0  0  0  0  0  0  0  0  0  0  0
    9.8870  -10.3666    0.0000 C    0  0  0  0  0  0  0  0  0  0  0  0
    9.2230  -11.5287    0.0000 C    0  0  0  0  0  0  0  0  0  0  0  0
    9.8870  -12.6539    0.0000 C    0  0  0  0  0  0  0  0  0  0  0  0
    9.2230  -13.8160    0.0000 C    0  0  0  0  0  0  0  0  0  0  0  0
    9.7948   -2.8591    0.0000 Br   0  5  0  0  0  0  0  0  0  0  0  0
  1  2  1  0  0  0  0
  1 10  1  0  0  0  0
  1 18  1  0  0  0  0
  1 26  1  0  0  0  0
  2  3  1  0  0  0  0
  3  4  1  0  0  0  0
  4  5  1  0  0  0  0
  5  6  1  0  0  0  0
  6  7  1  0  0  0  0
  7  8  1  0  0  0  0
  8  9  1  0  0  0  0
 10 11  1  0  0  0  0
 11 12  1  0  0  0  0
 12 13  1  0  0  0  0
 13 14  1  0  0  0  0
 14 15  1  0  0  0  0
 15 16  1  0  0  0  0
 16 17  1  0  0  0  0
 18 19  1  0  0  0  0
 19 20  1  0  0  0  0
 20 21  1  0  0  0  0
 21 22  1  0  0  0  0
 22 23  1  0  0  0  0
 23 24  1  0  0  0  0
 24 25  1  0  0  0  0
 26 27  1  0  0  0  0
 27 28  1  0  0  0  0
 28 29  1  0  0  0  0
 29 30  1  0  0  0  0
 30 31  1  0  0  0  0
 31 32  1  0  0  0  0
 32 33  1  0  0  0  0
M  END
> <ID>
6656

> <Formula>
C32H68BrN

> <FW>
546.7930 (466.8885+79.9045)

> <DSSTox_CID>
14042

> <DSSTox_RID>
79108

> <DSSTox_GSID>
34042

> <DSSTox_FileID_Sort>
3790

> <TS_ChemName>
Tetra-N-octylammonium bromide

> <TS_ChemName_Synonyms>


> <TS_CASRN>
14866-33-2

> <CASRN_ChemName_Relationship>
primary

> <TS_Description>
single chemical compound

> <ChemNote>
ammonium; parent [19524-73-3]

> <STRUCTURE_Shown>
tested chemical

> <STRUCTURE_Formula>
C32H68BrN

> <STRUCTURE_MW>
546.793

> <STRUCTURE_ChemType>
defined organic

> <STRUCTURE_DefinedOrganicForm>
salt

> <STRUCTURE_IUPAC>
N,N,N-trioctyloctan-1-aminium bromide

> <STRUCTURE_SMILES>
[Br-].CCCCCCCC[N+](CCCCCCCC)(CCCCCCCC)CCCCCCCC

> <STRUCTURE_SMILES_Desalt>
CCCCCCCC[N+](CCCCCCCC)(CCCCCCCC)CCCCCCCC

> <Substance_modify_yyyymmdd>
20080429

$$$$
