148849-67-6
ChemmineR-0915142007XD

 35 37  0  0  1  0  0  0  0  0  1 V2000
   10.4123   -6.1852    0.0000 Cl   0  0  0  0  0  0  0  0  0  0  0  0
   16.9268   -6.4413    0.0000 C    0  0  0  0  0  0  0  0  0  0  0  0
   17.2745   -5.1604    0.0000 O    0  0  0  0  0  0  0  0  0  0  0  0
   16.3229   -4.2271    0.0000 C    0  0  0  0  0  0  0  0  0  0  0  0
   16.6706   -2.9462    0.0000 C    0  0  0  0  0  0  0  0  0  0  0  0
   17.9699   -2.5802    0.0000 O    0  0  0  0  0  0  0  0  0  0  0  0
   18.2993   -1.2992    0.0000 C    0  0  0  0  0  0  0  0  0  0  0  0
   15.7374   -2.0129    0.0000 C    0  0  0  0  0  0  0  0  0  0  0  0
   14.4381   -2.3423    0.0000 C    0  0  0  0  0  0  0  0  0  0  0  0
   13.6513   -1.2809    0.0000 C    0  0  0  0  0  0  0  0  0  0  0  0
   12.3337   -1.2444    0.0000 C    0  0  0  0  0  0  0  0  0  0  0  0
   11.7847    0.0000    0.0000 O    0  0  0  0  0  0  0  0  0  0  0  0
   11.4553   -2.2325    0.0000 N    0  0  0  0  0  0  0  0  0  0  0  0
   10.1744   -1.9031    0.0000 C    0  0  0  0  0  0  0  0  0  0  0  0
    9.2411   -2.8364    0.0000 C    0  0  0  0  0  0  0  0  0  0  0  0
    7.9602   -2.4887    0.0000 C    0  0  0  0  0  0  0  0  0  0  0  0
    7.0086   -3.4403    0.0000 N    0  0  0  0  0  0  0  0  0  0  0  0
    7.3563   -4.7212    0.0000 C    0  0  0  0  0  0  0  0  0  0  0  0
    5.7277   -3.0926    0.0000 C    0  0  0  0  0  0  0  0  0  0  0  0
    4.7944   -4.0258    0.0000 C    0  0  0  0  0  0  0  0  0  0  0  0
    4.7944   -5.3617    0.0000 C    0  0  0  0  0  0  0  0  0  0  0  0
    3.4586   -5.3617    0.0000 C    0  0  0  0  0  0  0  0  0  0  0  0
    2.3057   -6.0205    0.0000 C    0  0  0  0  0  0  0  0  0  0  0  0
    1.1712   -5.3800    0.0000 C    0  0  0  0  0  0  0  0  0  0  0  0
    1.1529   -4.0441    0.0000 C    0  0  0  0  0  0  0  0  0  0  0  0
    0.0000   -3.3671    0.0000 O    0  0  0  0  0  0  0  0  0  0  0  0
    0.0000   -2.0495    0.0000 C    0  0  0  0  0  0  0  0  0  0  0  0
    2.3057   -3.3671    0.0000 C    0  0  0  0  0  0  0  0  0  0  0  0
    3.4586   -4.0258    0.0000 C    0  0  0  0  0  0  0  0  0  0  0  0
    0.0000   -6.0205    0.0000 O    0  0  0  0  0  0  0  0  0  0  0  0
    0.0000   -7.3563    0.0000 C    0  0  0  0  0  0  0  0  0  0  0  0
   11.7115   -3.5501    0.0000 C    0  0  0  0  0  0  0  0  0  0  0  0
   12.8827   -4.1539    0.0000 C    0  0  0  0  0  0  0  0  0  0  0  0
   14.1087   -3.6233    0.0000 C    0  0  0  0  0  0  0  0  0  0  0  0
   15.0420   -4.5748    0.0000 C    0  0  0  0  0  0  0  0  0  0  0  0
  2  3  1  0  0  0  0
  3  4  1  0  0  0  0
  4  5  2  0  0  0  0
  4 35  1  0  0  0  0
  5  6  1  0  0  0  0
  5  8  1  0  0  0  0
  6  7  1  0  0  0  0
  8  9  2  0  0  0  0
  9 10  1  0  0  0  0
  9 34  1  0  0  0  0
 10 11  1  0  0  0  0
 11 12  2  0  0  0  0
 11 13  1  0  0  0  0
 13 14  1  0  0  0  0
 13 32  1  0  0  0  0
 14 15  1  0  0  0  0
 15 16  1  0  0  0  0
 16 17  1  0  0  0  0
 17 18  1  0  0  0  0
 17 19  1  0  0  0  0
 20 19  1  1  0  0  0
 20 21  1  0  0  0  0
 20 29  1  0  0  0  0
 21 22  1  0  0  0  0
 22 23  2  0  0  0  0
 22 29  1  0  0  0  0
 23 24  1  0  0  0  0
 24 25  2  0  0  0  0
 24 30  1  0  0  0  0
 25 26  1  0  0  0  0
 25 28  1  0  0  0  0
 26 27  1  0  0  0  0
 28 29  2  0  0  0  0
 30 31  1  0  0  0  0
 32 33  1  0  0  0  0
 33 34  1  0  0  0  0
 34 35  2  0  0  0  0
M  END
> <ID>
12073

> <Formula>
C27H37ClN2O5

> <FW>
505.0461 (36.4609+468.5851)

> <DSSTox_CID>
26913

> <DSSTox_RID>
82011

> <DSSTox_GSID>
46913

> <DSSTox_FileID_Sort>
6692

> <TS_ChemName>
Ivabradine hydrochloride

> <TS_ChemName_Synonyms>


> <TS_CASRN>
148849-67-6

> <CASRN_ChemName_Relationship>
primary

> <TS_Description>
single chemical compound

> <ChemNote>
stereochem; parent [155974-00-8]

> <STRUCTURE_Shown>
tested chemical

> <STRUCTURE_Formula>
C27H37ClN2O5

> <STRUCTURE_MW>
505.0461

> <STRUCTURE_ChemType>
defined organic

> <STRUCTURE_DefinedOrganicForm>
complex

> <STRUCTURE_IUPAC>
3-{3-[{[(7S)-3,4-dimethoxybicyclo[4.2.0]octa-1,3,5-trien-7-yl]methyl}(methyl)amino]propyl}-7,8-dimethoxy-1,3,4,5-tetrahydro-2H-3-benzazepin-2-one hydrochloride (1:1)

> <STRUCTURE_SMILES>
Cl.COc3cc4C[C@H](CN(C)CCCN1CCc2cc(OC)c(OC)cc2CC1=O)c4cc3OC

> <STRUCTURE_SMILES_Desalt>
COc3cc4C[C@H](CN(C)CCCN1CCc2cc(OC)c(OC)cc2CC1=O)c4cc3OC

> <Substance_modify_yyyymmdd>
20110725

$$$$
