14882-18-9
ChemmineR-0915142007XD

 12 13  0  0  0  0  0  0  0  0  1 V2000
    4.6986   -3.4197    0.0000 Bi   0  0  0  0  0  0  0  0  0  0  0  0
    3.7756   -1.3734    0.0000 C    0  0  0  0  0  0  0  0  0  0  0  0
    2.5189   -1.9462    0.0000 C    0  0  0  0  0  0  0  0  0  0  0  0
    2.3855   -3.3252    0.0000 C    0  0  0  0  0  0  0  0  0  0  0  0
    3.5087   -4.1259    0.0000 O    0  0  0  0  0  0  0  0  0  0  0  0
    1.1232   -3.8979    0.0000 C    0  0  0  0  0  0  0  0  0  0  0  0
    0.0000   -3.0916    0.0000 C    0  0  0  0  0  0  0  0  0  0  0  0
    0.1335   -1.7182    0.0000 C    0  0  0  0  0  0  0  0  0  0  0  0
    1.3901   -1.1455    0.0000 C    0  0  0  0  0  0  0  0  0  0  0  0
    3.9090    0.0000    0.0000 O    0  0  0  0  0  0  0  0  0  0  0  0
    4.7542   -2.3521    0.0000 O    0  0  0  0  0  0  0  0  0  0  0  0
    5.5605   -3.9535    0.0000 O    0  0  0  0  0  0  0  0  0  0  0  0
  1 11  1  0  0  0  0
  1  5  1  0  0  0  0
  1 12  1  0  0  0  0
  2  3  1  0  0  0  0
  2 10  2  0  0  0  0
  2 11  1  0  0  0  0
  3  4  1  0  0  0  0
  3  9  2  0  0  0  0
  4  5  1  0  0  0  0
  4  6  2  0  0  0  0
  6  7  1  0  0  0  0
  7  8  2  0  0  0  0
  8  9  1  0  0  0  0
M  END
> <ID>
3771

> <Formula>
C7H5BiO4

> <FW>
362.0926

> <DSSTox_CID>
4622

> <DSSTox_RID>
77471

> <DSSTox_GSID>
24622

> <DSSTox_FileID_Sort>
2154

> <TS_ChemName>
Bismuth subsalicylate

> <TS_ChemName_Synonyms>


> <TS_CASRN>
14882-18-9

> <CASRN_ChemName_Relationship>
primary

> <TS_Description>
single chemical compound

> <ChemNote>


> <STRUCTURE_Shown>
tested chemical

> <STRUCTURE_Formula>
C7H5BiO4

> <STRUCTURE_MW>
362.0926

> <STRUCTURE_ChemType>
organometallic

> <STRUCTURE_DefinedOrganicForm>


> <STRUCTURE_IUPAC>
2-hydroxy-4H-1,3,2-benzodioxabismin-4-one

> <STRUCTURE_SMILES>
O[Bi]2Oc1ccccc1C(=O)O2

> <STRUCTURE_SMILES_Desalt>
O[Bi]2Oc1ccccc1C(=O)O2

> <Substance_modify_yyyymmdd>
20080429

$$$$
