14897-39-3
ChemmineR-0915142007XD

 51 53  0  0  1  0  0  0  0  0  2 V2000
    5.6176   -7.7858    0.0000 C    0  0  0  0  0  0  0  0  0  0  0  0
    4.4842   -7.1329    0.0000 C    0  0  0  0  0  0  0  0  0  0  0  0
    3.3755   -9.0917    0.0000 C    0  0  0  0  0  0  0  0  0  0  0  0
    6.7017   -5.8517    0.0000 C    0  0  0  0  0  0  0  0  0  0  0  0
    6.7017   -7.1329    0.0000 C    0  0  0  0  0  0  0  0  0  0  0  0
    3.3755   -7.7858    0.0000 O    0  0  0  0  0  0  0  0  0  0  0  0
    5.6176   -5.2234    0.0000 C    0  0  0  0  0  0  0  0  0  0  0  0
    5.6176   -9.0917    0.0000 C    0  0  0  0  0  0  0  0  0  0  0  0
    4.4842   -5.8517    0.0000 C    0  0  0  0  0  0  0  0  0  0  0  0
    3.3755   -3.8806    0.0000 C    0  0  0  0  0  0  0  0  0  0  0  0
   10.0526   -5.2234    0.0000 N    0  0  0  0  0  0  0  0  0  0  0  0
    8.9315   -5.8517    0.0000 C    0  0  0  0  0  0  0  0  0  0  0  0
    4.4842   -3.2646    0.0000 C    0  0  0  0  0  0  0  0  0  0  0  0
   10.0526   -3.8806    0.0000 C    0  0  0  0  0  0  0  0  0  0  0  0
    5.6176   -1.2935    0.0000 C    0  0  0  0  0  0  0  0  0  0  0  0
    7.8351   -7.7858    0.0000 C    0  0  0  0  0  0  0  0  0  0  0  0
    4.4842   -1.9465    0.0000 C    0  0  0  0  0  0  0  0  0  0  0  0
    7.8351   -5.2234    0.0000 C    0  0  0  0  0  0  0  0  0  0  0  0
    3.3755   -5.2234    0.0000 C    0  0  0  0  0  0  0  0  0  0  0  0
    8.9315   -7.1329    0.0000 C    0  0  0  0  0  0  0  0  0  0  0  0
    6.7017   -1.9465    0.0000 C    0  0  0  0  0  0  0  0  0  0  0  0
   11.1736   -3.2646    0.0000 C    0  0  0  0  0  0  0  0  0  0  0  0
    1.1457   -9.0917    0.0000 O    0  0  0  0  0  0  0  0  0  0  0  0
    2.2544   -3.2646    0.0000 O    0  0  0  0  0  0  0  0  0  0  0  0
    1.1457   -7.7858    0.0000 C    0  0  0  0  0  0  0  0  0  0  0  0
    0.9363   -3.2646    0.0000 C    0  0  0  0  0  0  0  0  0  0  0  0
    2.2544   -7.1329    0.0000 C    0  0  0  0  0  0  0  0  0  0  0  0
    2.2544   -5.8517    0.0000 C    0  0  0  0  0  0  0  0  0  0  0  0
   10.0526   -1.2935    0.0000 C    0  0  0  0  0  0  0  0  0  0  0  0
    6.7017   -9.7200    0.0000 O    0  0  0  0  0  0  0  0  0  0  0  0
   11.1736   -1.9465    0.0000 C    0  0  0  0  0  0  0  0  0  0  0  0
    8.9315   -3.2646    0.0000 O    0  0  0  0  0  0  0  0  0  0  0  0
    7.8351   -1.2935    0.0000 C    0  0  0  0  0  0  0  0  0  0  0  0
    8.9315   -1.9465    0.0000 C    0  0  0  0  0  0  0  0  0  0  0  0
    0.2833   -2.1066    0.0000 O    0  0  0  0  0  0  0  0  0  0  0  0
    5.6176   -3.8806    0.0000 O    0  0  0  0  0  0  0  0  0  0  0  0
    7.8351   -9.0917    0.0000 O    0  5  0  0  0  0  0  0  0  0  0  0
    3.3262   -1.2443    0.0000 O    0  0  0  0  0  0  0  0  0  0  0  0
    7.8351   -3.8806    0.0000 O    0  0  0  0  0  0  0  0  0  0  0  0
    6.7017   -3.2646    0.0000 O    0  0  0  0  0  0  0  0  0  0  0  0
    3.3755  -10.3852    0.0000 C    0  0  0  0  0  0  0  0  0  0  0  0
    4.4842   -4.4842    0.0000 C    0  0  0  0  0  0  0  0  0  0  0  0
    5.4944   -2.5378    0.0000 C    0  0  0  0  0  0  0  0  0  0  0  0
    5.6176    0.0000    0.0000 C    0  0  0  0  0  0  0  0  0  0  0  0
    1.1457   -5.2234    0.0000 O    0  0  0  0  0  0  0  0  0  0  0  0
    3.4001   -6.3075    0.0000 C    0  0  0  0  0  0  0  0  0  0  0  0
   12.3193   -3.9422    0.0000 C    0  0  0  0  0  0  0  0  0  0  0  0
    0.2710   -4.3980    0.0000 C    0  0  0  0  0  0  0  0  0  0  0  0
    7.8351    0.0000    0.0000 C    0  0  0  0  0  0  0  0  0  0  0  0
    0.0000   -5.8886    0.0000 C    0  0  0  0  0  0  0  0  0  0  0  0
    9.8555   -9.1902    0.0000 Na   0  3  0  0  0  0  0  0  0  0  0  0
  1  2  2  0  0  0  0
  1  5  1  0  0  0  0
  1  8  1  0  0  0  0
  2  6  1  0  0  0  0
  2  9  1  0  0  0  0
  3  8  1  0  0  0  0
  3 23  1  0  0  0  0
  3 41  1  6  0  0  0
  3  6  1  0  0  0  0
  4  5  2  0  0  0  0
  4  7  1  0  0  0  0
  4 18  1  0  0  0  0
  5 16  1  0  0  0  0
  7 36  1  0  0  0  0
  7  9  2  0  0  0  0
  8 30  2  0  0  0  0
  9 42  1  0  0  0  0
 10 19  1  0  0  0  0
 10 13  1  0  0  0  0
 10 24  1  1  0  0  0
 11 12  1  0  0  0  0
 11 14  1  0  0  0  0
 12 20  1  0  0  0  0
 12 18  2  0  0  0  0
 13 17  1  0  0  0  0
 13 43  1  1  0  0  0
 14 22  1  0  0  0  0
 14 32  2  0  0  0  0
 15 17  1  0  0  0  0
 15 21  1  0  0  0  0
 15 44  1  6  0  0  0
 16 20  2  0  0  0  0
 16 37  1  0  0  0  0
 17 38  1  6  0  0  0
 18 39  1  0  0  0  0
 19 28  1  0  0  0  0
 19 46  1  6  0  0  0
 21 40  1  6  0  0  0
 21 33  1  0  0  0  0
 22 31  2  0  0  0  0
 22 47  1  0  0  0  0
 23 25  1  0  0  0  0
 24 26  1  0  0  0  0
 25 27  2  0  0  0  0
 26 35  2  0  0  0  0
 26 48  1  0  0  0  0
 27 28  1  0  0  0  0
 28 45  1  6  0  0  0
 29 31  1  0  0  0  0
 29 34  2  0  0  0  0
 33 34  1  0  0  0  0
 33 49  1  1  0  0  0
 45 50  1  0  0  0  0
M  END
> <ID>
7611

> <Formula>
C37H46NNaO12

> <FW>
719.7504 (696.7612+22.9892)

> <DSSTox_CID>
20208

> <DSSTox_RID>
79452

> <DSSTox_GSID>
40208

> <DSSTox_FileID_Sort>
4134

> <TS_ChemName>
Rifamycin SV sodium salt

> <TS_ChemName_Synonyms>


> <TS_CASRN>
14897-39-3

> <CASRN_ChemName_Relationship>
primary

> <TS_Description>
single chemical compound

> <ChemNote>
parent [6998-60-3]

> <STRUCTURE_Shown>
tested chemical

> <STRUCTURE_Formula>
C37H46NNaO12

> <STRUCTURE_MW>
719.7504

> <STRUCTURE_ChemType>
defined organic

> <STRUCTURE_DefinedOrganicForm>
salt

> <STRUCTURE_IUPAC>
sodium (2S,12Z,14E,16S,17S,18R,19R,20R,21S,22R,23S,24E)-21-(acetyloxy)-5,6,17,19-tetrahydroxy-23-methoxy-2,4,12,16,18,20,22-heptamethyl-1,11-dioxo-1,2-dihydro-2,7-(epoxypentadeca[1,11,13]trienoimino)naphtho[2,1-b]furan-9-olate

> <STRUCTURE_SMILES>
[Na+].CC(=O)O[C@@H]4[C@H](C)[C@@H](OC)C=CO[C@@]3(C)Oc2c(C)c(O)c1c(O)c(cc([O-])c1c2C3=O)NC(=O)C(C)=CC=C[C@H](C)[C@H](O)[C@@H](C)[C@@H](O)[C@H]4C

> <STRUCTURE_SMILES_Desalt>
CC(=O)O[C@@H]4[C@H](C)[C@@H](OC)C=CO[C@@]3(C)Oc2c(C)c(O)c1c(O)c(cc(O)c1c2C3=O)NC(=O)C(C)=CC=C[C@H](C)[C@H](O)[C@@H](C)[C@@H](O)[C@H]4C

> <Substance_modify_yyyymmdd>
20080429

$$$$
