149-16-6
ChemmineR-0915142007XD

 22 22  0  0  0  0  0  0  0  0  1 V2000
   12.6606    0.0000    0.0000 C   0  0  0  0  0  0  0  0  0  0  0  0
   11.5009   -0.6627    0.0000 C   0  0  0  0  0  0  0  0  0  0  0  0
   11.5009   -1.9881    0.0000 C   0  0  0  0  0  0  0  0  0  0  0  0
   10.3549   -2.6509    0.0000 C   0  0  0  0  0  0  0  0  0  0  0  0
   10.3549   -3.9901    0.0000 N   0  0  0  0  0  0  0  0  0  0  0  0
   11.5009   -4.6528    0.0000 C   0  0  0  0  0  0  0  0  0  0  0  0
   12.6606   -3.9901    0.0000 C   0  0  0  0  0  0  0  0  0  0  0  0
   12.6606   -2.6509    0.0000 C   0  0  0  0  0  0  0  0  0  0  0  0
   13.8066   -1.9881    0.0000 C   0  0  0  0  0  0  0  0  0  0  0  0
    9.2090   -4.6528    0.0000 C   0  0  0  0  0  0  0  0  0  0  0  0
    8.0492   -3.9901    0.0000 C   0  0  0  0  0  0  0  0  0  0  0  0
    6.9033   -4.6528    0.0000 C   0  0  0  0  0  0  0  0  0  0  0  0
    5.7573   -3.9901    0.0000 O   0  0  0  0  0  0  0  0  0  0  0  0
    4.5976   -4.6528    0.0000 C   0  0  0  0  0  0  0  0  0  0  0  0
    4.5976   -5.9782    0.0000 O   0  0  0  0  0  0  0  0  0  0  0  0
    3.4516   -3.9901    0.0000 C   0  0  0  0  0  0  0  0  0  0  0  0
    2.3057   -4.6528    0.0000 C   0  0  0  0  0  0  0  0  0  0  0  0
    1.1459   -3.9901    0.0000 C   0  0  0  0  0  0  0  0  0  0  0  0
    1.1459   -2.6509    0.0000 C   0  0  0  0  0  0  0  0  0  0  0  0
    0.0000   -1.9881    0.0000 N   0  0  0  0  0  0  0  0  0  0  0  0
    2.3057   -1.9881    0.0000 C   0  0  0  0  0  0  0  0  0  0  0  0
    3.4516   -2.6509    0.0000 C   0  0  0  0  0  0  0  0  0  0  0  0
  1  2  1  0  0  0  0
  2  3  1  0  0  0  0
  3  4  1  0  0  0  0
  4  5  1  0  0  0  0
  5  6  1  0  0  0  0
  5 10  1  0  0  0  0
  6  7  1  0  0  0  0
  7  8  1  0  0  0  0
  8  9  1  0  0  0  0
 10 11  1  0  0  0  0
 11 12  1  0  0  0  0
 12 13  1  0  0  0  0
 13 14  1  0  0  0  0
 14 15  2  0  0  0  0
 14 16  1  0  0  0  0
 16 17  2  0  0  0  0
 16 22  1  0  0  0  0
 17 18  1  0  0  0  0
 18 19  2  0  0  0  0
 19 20  1  0  0  0  0
 19 21  1  0  0  0  0
 21 22  2  0  0  0  0
M  END
> <ID>
10859

> <Formula>
C18H30N2O2

> <FW>
306.443

> <DSSTox_CID>
25300

> <DSSTox_RID>
80789

> <DSSTox_GSID>
45300

> <DSSTox_FileID_Sort>
5470

> <TS_ChemName>
Butacaine

> <TS_ChemName_Synonyms>


> <TS_CASRN>
149-16-6

> <CASRN_ChemName_Relationship>
primary

> <TS_Description>
single chemical compound

> <ChemNote>


> <STRUCTURE_Shown>
tested chemical

> <STRUCTURE_Formula>
C18H30N2O2

> <STRUCTURE_MW>
306.443

> <STRUCTURE_ChemType>
defined organic

> <STRUCTURE_DefinedOrganicForm>
parent

> <STRUCTURE_IUPAC>
3-(dibutylamino)propyl 4-aminobenzoate

> <STRUCTURE_SMILES>
Nc1ccc(cc1)C(=O)OCCCN(CCCC)CCCC

> <STRUCTURE_SMILES_Desalt>
Nc1ccc(cc1)C(=O)OCCCN(CCCC)CCCC

> <Substance_modify_yyyymmdd>
20100107

$$$$
