149-64-4
ChemmineR-0915142007XD

 27 29  0  0  1  0  0  0  0  0  2 V2000
    5.4106   -4.0187    0.0000 C    0  0  0  0  0  0  0  0  0  0  0  0
    6.1118   -4.9396    0.0000 C    0  0  0  0  0  0  0  0  0  0  0  0
    5.6722   -3.0559    0.0000 C    0  0  0  0  0  0  0  0  0  0  0  0
    4.5629   -2.4175    0.0000 C    0  0  0  0  0  0  0  0  0  0  0  0
    3.3803   -2.8466    0.0000 C    0  0  0  0  0  0  0  0  0  0  0  0
    2.0931   -2.4698    0.0000 O    0  0  0  0  0  0  0  0  0  0  0  0
    2.9512   -3.8617    0.0000 C    0  0  0  0  0  0  0  0  0  0  0  0
    4.1443   -3.4640    0.0000 C    0  0  0  0  0  0  0  0  0  0  0  0
    4.1443   -1.1721    0.0000 N    0  3  0  0  0  0  0  0  0  0  0  0
    6.1746   -6.0385    0.0000 O    0  0  0  0  0  0  0  0  0  0  0  0
    7.2734   -6.6560    0.0000 C    0  0  0  0  0  0  0  0  0  0  0  0
    7.2734   -7.9327    0.0000 C    0  0  0  0  0  0  0  0  0  0  0  0
    8.3618   -6.0385    0.0000 O    0  0  0  0  0  0  0  0  0  0  0  0
    8.3618   -8.5711    0.0000 C    0  0  0  0  0  0  0  0  0  0  0  0
    8.3618   -9.8374    0.0000 O    0  0  0  0  0  0  0  0  0  0  0  0
    6.1746   -8.5711    0.0000 C    0  0  0  0  0  0  0  0  0  0  0  0
    6.1746   -9.8374    0.0000 C    0  0  0  0  0  0  0  0  0  0  0  0
    5.0757   -7.9327    0.0000 C    0  0  0  0  0  0  0  0  0  0  0  0
    5.0757  -10.4653    0.0000 C    0  0  0  0  0  0  0  0  0  0  0  0
    3.9768   -8.5711    0.0000 C    0  0  0  0  0  0  0  0  0  0  0  0
    3.9768   -9.8374    0.0000 C    0  0  0  0  0  0  0  0  0  0  0  0
    4.5943    0.0000    0.0000 C    0  0  0  0  0  0  0  0  0  0  0  0
    2.8989   -0.9523    0.0000 C    0  0  0  0  0  0  0  0  0  0  0  0
    2.0826   -1.9047    0.0000 C    0  0  0  0  0  0  0  0  0  0  0  0
    0.8268   -1.6640    0.0000 C    0  0  0  0  0  0  0  0  0  0  0  0
    0.0000   -2.6268    0.0000 C    0  0  0  0  0  0  0  0  0  0  0  0
    5.9443   -0.9523    0.0000 Br   0  5  0  0  0  0  0  0  0  0  0  0
  1  8  1  0  0  0  0
  1  2  1  0  0  0  0
  2  3  1  0  0  0  0
  2 10  1  6  0  0  0
  3  4  1  0  0  0  0
  4  9  1  1  0  0  0
  4  5  1  0  0  0  0
  5  6  1  1  0  0  0
  5  7  1  0  0  0  0
  7  6  1  1  0  0  0
  7  8  1  0  0  0  0
  8  9  1  6  0  0  0
  9 22  1  0  0  0  0
  9 23  1  0  0  0  0
 10 11  1  0  0  0  0
 11 12  1  0  0  0  0
 11 13  2  0  0  0  0
 12 14  1  0  0  0  0
 12 16  1  6  0  0  0
 14 15  1  0  0  0  0
 16 17  1  0  0  0  0
 16 18  2  0  0  0  0
 17 19  2  0  0  0  0
 18 20  1  0  0  0  0
 19 21  1  0  0  0  0
 20 21  2  0  0  0  0
 23 24  1  0  0  0  0
 24 25  1  0  0  0  0
 25 26  1  0  0  0  0
M  END
> <ID>
2459

> <Formula>
C21H30BrNO4

> <FW>
440.3712 (360.4667+79.9045)

> <DSSTox_CID>
2718

> <DSSTox_RID>
76697

> <DSSTox_GSID>
22718

> <DSSTox_FileID_Sort>
1381

> <TS_ChemName>
Butylscopolammonium bromide

> <TS_ChemName_Synonyms>


> <TS_CASRN>
149-64-4

> <CASRN_ChemName_Relationship>
primary

> <TS_Description>
single chemical compound

> <ChemNote>
stereochem; ammonium

> <STRUCTURE_Shown>
tested chemical

> <STRUCTURE_Formula>
C21H30BrNO4

> <STRUCTURE_MW>
440.3712

> <STRUCTURE_ChemType>
defined organic

> <STRUCTURE_DefinedOrganicForm>
salt

> <STRUCTURE_IUPAC>
(1R,2R,4S,5S,7s)-9-butyl-7-{[(2S)-3-hydroxy-2-phenylpropanoyl]oxy}-9-methyl-3-oxa-9-azoniatricyclo[3.3.1.02,4]nonane bromide

> <STRUCTURE_SMILES>
[Br-].OC[C@H](c1ccccc1)C(=O)O[C@@H]2C[C@@H]3[C@H]4O[C@H]4[C@H](C2)[N+]3(C)CCCC

> <STRUCTURE_SMILES_Desalt>
OC[C@H](c1ccccc1)C(=O)O[C@@H]2C[C@@H]3[C@H]4O[C@H]4[C@H](C2)[N+]3(C)CCCC

> <Substance_modify_yyyymmdd>
20080429

$$$$
