149-57-5
ChemmineR-0915142007XD

 10  9  0  0  0  0  0  0  0  0  1 V2000
    3.9925   -1.1493    0.0000 O   0  0  0  0  0  0  0  0  0  0  0  0
    2.6577   -1.1493    0.0000 C   0  0  0  0  0  0  0  0  0  0  0  0
    1.9933    0.0000    0.0000 O   0  0  0  0  0  0  0  0  0  0  0  0
    1.9933   -2.3045    0.0000 C   0  0  0  0  0  0  0  0  0  0  0  0
    2.6577   -3.4538    0.0000 C   0  0  0  0  0  0  0  0  0  0  0  0
    3.9925   -3.4538    0.0000 C   0  0  0  0  0  0  0  0  0  0  0  0
    4.6569   -2.3045    0.0000 C   0  0  0  0  0  0  0  0  0  0  0  0
    5.9857   -2.3045    0.0000 C   0  0  0  0  0  0  0  0  0  0  0  0
    0.6644   -2.3045    0.0000 C   0  0  0  0  0  0  0  0  0  0  0  0
    0.0000   -3.4538    0.0000 C   0  0  0  0  0  0  0  0  0  0  0  0
  1  2  2  0  0  0  0
  2  3  1  0  0  0  0
  2  4  1  0  0  0  0
  4  5  1  0  0  0  0
  4  9  1  0  0  0  0
  5  6  1  0  0  0  0
  6  7  1  0  0  0  0
  7  8  1  0  0  0  0
  9 10  1  0  0  0  0
M  END
> <ID>
4123

> <Formula>
C8H16O2

> <FW>
144.2114

> <DSSTox_CID>
5293

> <DSSTox_RID>
77730

> <DSSTox_GSID>
25293

> <DSSTox_FileID_Sort>
2413

> <TS_ChemName>
2-Ethylhexanoic acid

> <TS_ChemName_Synonyms>


> <TS_CASRN>
149-57-5

> <CASRN_ChemName_Relationship>
primary

> <TS_Description>
single chemical compound

> <ChemNote>


> <STRUCTURE_Shown>
tested chemical

> <STRUCTURE_Formula>
C8H16O2

> <STRUCTURE_MW>
144.2114

> <STRUCTURE_ChemType>
defined organic

> <STRUCTURE_DefinedOrganicForm>
parent

> <STRUCTURE_IUPAC>
2-ethylhexanoic acid

> <STRUCTURE_SMILES>
CCCCC(CC)C(=O)O

> <STRUCTURE_SMILES_Desalt>
CCCCC(CC)C(=O)O

> <Substance_modify_yyyymmdd>
20080429

$$$$
