149-32-6
ChemmineR-0915142007XD

  8  7  0  0  1  0  0  0  0  0  1 V2000
    2.2944   -1.9954    0.0000 C   0  0  0  0  0  0  0  0  0  0  0  0
    3.4444   -1.3398    0.0000 C   0  0  0  0  0  0  0  0  0  0  0  0
    2.2944   -3.3294    0.0000 O   0  0  0  0  0  0  0  0  0  0  0  0
    3.4444    0.0000    0.0000 O   0  0  0  0  0  0  0  0  0  0  0  0
    0.0000   -2.0011    0.0000 O   0  0  0  0  0  0  0  0  0  0  0  0
    5.7503   -1.3456    0.0000 O   0  0  0  0  0  0  0  0  0  0  0  0
    4.6060   -2.0011    0.0000 C   0  0  0  0  0  0  0  0  0  0  0  0
    1.1443   -1.3283    0.0000 C   0  0  0  0  0  0  0  0  0  0  0  0
  1  2  1  0  0  0  0
  1  3  1  1  0  0  0
  1  8  1  0  0  0  0
  2  4  1  6  0  0  0
  2  7  1  0  0  0  0
  5  8  1  0  0  0  0
  6  7  1  0  0  0  0
M  END
> <ID>
9745

> <Formula>
C4H10O4

> <FW>
122.1198

> <DSSTox_CID>
23919

> <DSSTox_RID>
80090

> <DSSTox_GSID>
43919

> <DSSTox_FileID_Sort>
4772

> <TS_ChemName>
Erythritol

> <TS_ChemName_Synonyms>
Erythritol (Erythrol)

> <TS_CASRN>
149-32-6

> <CASRN_ChemName_Relationship>
primary

> <TS_Description>
single chemical compound

> <ChemNote>
stereochem

> <STRUCTURE_Shown>
tested chemical

> <STRUCTURE_Formula>
C4H10O4

> <STRUCTURE_MW>
122.1198

> <STRUCTURE_ChemType>
defined organic

> <STRUCTURE_DefinedOrganicForm>
parent

> <STRUCTURE_IUPAC>
(2R,3S)-butane-1,2,3,4-tetrol

> <STRUCTURE_SMILES>
OC[C@@H](O)[C@@H](O)CO

> <STRUCTURE_SMILES_Desalt>
OC[C@@H](O)[C@@H](O)CO

> <Substance_modify_yyyymmdd>
20090108

$$$$
