149-30-4
ChemmineR-0915142007XD

 10 11  0  0  0  0  0  0  0  0  1 V2000
    0.0000   -1.3294    0.0000 S   0  0  0  0  0  0  0  0  0  0  0  0
    1.3294   -1.3294    0.0000 C   0  0  0  0  0  0  0  0  0  0  0  0
    2.1134   -2.4032    0.0000 N   0  0  0  0  0  0  0  0  0  0  0  0
    3.3747   -1.9941    0.0000 C   0  0  0  0  0  0  0  0  0  0  0  0
    3.3747   -0.6647    0.0000 C   0  0  0  0  0  0  0  0  0  0  0  0
    4.5280    0.0000    0.0000 C   0  0  0  0  0  0  0  0  0  0  0  0
    5.6812   -0.6647    0.0000 C   0  0  0  0  0  0  0  0  0  0  0  0
    5.6812   -1.9941    0.0000 C   0  0  0  0  0  0  0  0  0  0  0  0
    4.5280   -2.6588    0.0000 C   0  0  0  0  0  0  0  0  0  0  0  0
    2.1134   -0.2500    0.0000 S   0  0  0  0  0  0  0  0  0  0  0  0
  1  2  1  0  0  0  0
  2  3  2  0  0  0  0
  2 10  1  0  0  0  0
  3  4  1  0  0  0  0
  4  5  2  0  0  0  0
  4  9  1  0  0  0  0
  5  6  1  0  0  0  0
  5 10  1  0  0  0  0
  6  7  2  0  0  0  0
  7  8  1  0  0  0  0
  8  9  2  0  0  0  0
M  END
> <ID>
773

> <Formula>
C7H5NS2

> <FW>
167.2513

> <DSSTox_CID>
807

> <DSSTox_RID>
75799

> <DSSTox_GSID>
20807

> <DSSTox_FileID_Sort>
483

> <TS_ChemName>
2-Mercaptobenzothiazole

> <TS_ChemName_Synonyms>
2-Mercaptobenzothiazole (2(3H)-Benzothiazolethione)

> <TS_CASRN>
149-30-4

> <CASRN_ChemName_Relationship>
primary

> <TS_Description>
single chemical compound

> <ChemNote>
tautomers

> <STRUCTURE_Shown>
tested chemical

> <STRUCTURE_Formula>
C7H5NS2

> <STRUCTURE_MW>
167.2513

> <STRUCTURE_ChemType>
defined organic

> <STRUCTURE_DefinedOrganicForm>
parent

> <STRUCTURE_IUPAC>
1,3-benzothiazole-2-thiol

> <STRUCTURE_SMILES>
Sc1nc2ccccc2s1

> <STRUCTURE_SMILES_Desalt>
Sc1nc2ccccc2s1

> <Substance_modify_yyyymmdd>
20080429

$$$$
