149062-75-9
ChemmineR-0915142007XD

 18 19  0  0  0  0  0  0  0  0  1 V2000
    3.4711   -1.9918    0.0000 C    0  0  0  0  0  0  0  0  0  0  0  0
    3.4711   -3.3197    0.0000 C    0  0  0  0  0  0  0  0  0  0  0  0
    4.6126   -1.3279    0.0000 C    0  0  0  0  0  0  0  0  0  0  0  0
    2.3063   -1.3279    0.0000 C    0  0  0  0  0  0  0  0  0  0  0  0
    4.6126   -3.9836    0.0000 N    0  0  0  0  0  0  0  0  0  0  0  0
    2.3063   -3.9836    0.0000 C    0  0  0  0  0  0  0  0  0  0  0  0
    5.7658   -1.9918    0.0000 N    0  0  0  0  0  0  0  0  0  0  0  0
    1.1648   -1.9918    0.0000 C    0  0  0  0  0  0  0  0  0  0  0  0
    2.3063    0.0000    0.0000 Cl   0  0  0  0  0  0  0  0  0  0  0  0
    5.7658   -3.3197    0.0000 C    0  0  0  0  0  0  0  0  0  0  0  0
    1.1648   -3.3197    0.0000 C    0  0  0  0  0  0  0  0  0  0  0  0
    6.8025   -1.1532    0.0000 C    0  0  0  0  0  0  0  0  0  0  0  0
    6.8025   -4.1467    0.0000 C    0  0  0  0  0  0  0  0  0  0  0  0
    0.0000   -3.9836    0.0000 Cl   0  0  0  0  0  0  0  0  0  0  0  0
    8.1071   -1.4560    0.0000 C    0  0  0  0  0  0  0  0  0  0  0  0
    8.1071   -3.8555    0.0000 C    0  0  0  0  0  0  0  0  0  0  0  0
    8.6778   -2.6558    0.0000 C    0  0  0  0  0  0  0  0  0  0  0  0
   11.6481   -2.6907    0.0000 Cl   0  0  0  0  0  0  0  0  0  0  0  0
  1  2  2  0  0  0  0
  1  3  1  0  0  0  0
  1  4  1  0  0  0  0
  2  5  1  0  0  0  0
  2  6  1  0  0  0  0
  3  7  1  0  0  0  0
  4  8  2  0  0  0  0
  4  9  1  0  0  0  0
  5 10  2  0  0  0  0
  6 11  2  0  0  0  0
  7 12  1  0  0  0  0
  7 10  1  0  0  0  0
  8 11  1  0  0  0  0
 10 13  1  0  0  0  0
 11 14  1  0  0  0  0
 12 15  1  0  0  0  0
 13 16  1  0  0  0  0
 15 17  1  0  0  0  0
 16 17  1  0  0  0  0
M  END
> <ID>
12401

> <Formula>
C13H15Cl3N2

> <FW>
305.6306 (269.1697+36.4609)

> <DSSTox_CID>
27259

> <DSSTox_RID>
82217

> <DSSTox_GSID>
47259

> <DSSTox_FileID_Sort>
6898

> <TS_ChemName>
PharmaGSID_47259

> <TS_ChemName_Synonyms>
0142676; 1,3-dichloro-6,7,8,9,10,12-hexahydroazepino[2,1-b]quinazoline hydrochloride (1:1)

> <TS_CASRN>
149062-75-9

> <CASRN_ChemName_Relationship>
primary

> <TS_Description>
single chemical compound

> <ChemNote>


> <STRUCTURE_Shown>
tested chemical

> <STRUCTURE_Formula>
C13H15Cl3N2

> <STRUCTURE_MW>
305.6306

> <STRUCTURE_ChemType>
defined organic

> <STRUCTURE_DefinedOrganicForm>
complex

> <STRUCTURE_IUPAC>
1,3-dichloro-6,7,8,9,10,12-hexahydroazepino[2,1-b]quinazoline hydrochloride (1:1)

> <STRUCTURE_SMILES>
Cl.Clc2cc(Cl)cc1N=C3CCCCCN3Cc12

> <STRUCTURE_SMILES_Desalt>
Clc2cc(Cl)cc1N=C3CCCCCN3Cc12

> <Substance_modify_yyyymmdd>
20130910

$$$$
