1490-04-6
ChemmineR-0915142007XD

 11 11  0  0  0  0  0  0  0  0  1 V2000
    3.4492   -3.9743    0.0000 O   0  0  0  0  0  0  0  0  0  0  0  0
    2.3154   -3.3179    0.0000 C   0  0  0  0  0  0  0  0  0  0  0  0
    2.3154   -1.9812    0.0000 C   0  0  0  0  0  0  0  0  0  0  0  0
    1.1517   -1.3248    0.0000 C   0  0  0  0  0  0  0  0  0  0  0  0
    0.0000   -1.9812    0.0000 C   0  0  0  0  0  0  0  0  0  0  0  0
    1.1517    0.0000    0.0000 C   0  0  0  0  0  0  0  0  0  0  0  0
    1.1517   -3.9743    0.0000 C   0  0  0  0  0  0  0  0  0  0  0  0
    0.0000   -3.3179    0.0000 C   0  0  0  0  0  0  0  0  0  0  0  0
    1.1517   -5.2991    0.0000 C   0  0  0  0  0  0  0  0  0  0  0  0
    0.0000   -5.9675    0.0000 C   0  0  0  0  0  0  0  0  0  0  0  0
    2.3154   -5.9675    0.0000 C   0  0  0  0  0  0  0  0  0  0  0  0
  1  2  1  0  0  0  0
  2  3  1  0  0  0  0
  2  7  1  0  0  0  0
  3  4  1  0  0  0  0
  4  5  1  0  0  0  0
  4  6  1  0  0  0  0
  5  8  1  0  0  0  0
  7  8  1  0  0  0  0
  7  9  1  0  0  0  0
  9 10  1  0  0  0  0
  9 11  1  0  0  0  0
M  END
> <ID>
771

> <Formula>
C10H20O

> <FW>
156.2652

> <DSSTox_CID>
805

> <DSSTox_RID>
78794

> <DSSTox_GSID>
29650

> <DSSTox_FileID_Sort>
3476

> <TS_ChemName>
Menthol

> <TS_ChemName_Synonyms>
Menthol (Cyclohexanol, 5-methyl-2-(1-methylethyl)-)

> <TS_CASRN>
1490-04-6

> <CASRN_ChemName_Relationship>
primary

> <TS_Description>
single chemical compound

> <ChemNote>
mixture of stereoisomers; structure shown without stereochem

> <STRUCTURE_Shown>
tested chemical

> <STRUCTURE_Formula>
C10H20O

> <STRUCTURE_MW>
156.2652

> <STRUCTURE_ChemType>
defined organic

> <STRUCTURE_DefinedOrganicForm>
parent

> <STRUCTURE_IUPAC>
5-methyl-2-(propan-2-yl)cyclohexanol

> <STRUCTURE_SMILES>
CC(C)C1CCC(C)CC1O

> <STRUCTURE_SMILES_Desalt>
CC(C)C1CCC(C)CC1O

> <Substance_modify_yyyymmdd>
20080429

$$$$
