14919-77-8
ChemmineR-0915142007XD

 19 18  0  0  0  0  0  0  0  0  1 V2000
   10.3239   -2.0119    0.0000 C    0  0  0  0  0  0  0  0  0  0  0  0
    3.4030   -2.0004    0.0000 C    0  0  0  0  0  0  0  0  0  0  0  0
    9.1857   -1.3681    0.0000 C    0  0  0  0  0  0  0  0  0  0  0  0
    2.2763   -1.3336    0.0000 C    0  0  0  0  0  0  0  0  0  0  0  0
    8.0476   -2.0119    0.0000 C    0  0  0  0  0  0  0  0  0  0  0  0
   10.3239   -3.3455    0.0000 C    0  0  0  0  0  0  0  0  0  0  0  0
    3.4030   -3.3225    0.0000 O    0  0  0  0  0  0  0  0  0  0  0  0
    4.5411   -1.3336    0.0000 N    0  0  0  0  0  0  0  0  0  0  0  0
    8.0476   -3.3455    0.0000 C    0  0  0  0  0  0  0  0  0  0  0  0
    5.7023   -2.0004    0.0000 N    0  0  0  0  0  0  0  0  0  0  0  0
    9.1857   -4.0123    0.0000 C    0  0  0  0  0  0  0  0  0  0  0  0
   11.4966   -1.3336    0.0000 O    0  0  0  0  0  0  0  0  0  0  0  0
    2.2763    0.0000    0.0000 N    0  0  0  0  0  0  0  0  0  0  0  0
    9.1857   -0.0230    0.0000 O    0  0  0  0  0  0  0  0  0  0  0  0
   11.4966   -4.0238    0.0000 O    0  0  0  0  0  0  0  0  0  0  0  0
    6.8749   -1.3336    0.0000 C    0  0  0  0  0  0  0  0  0  0  0  0
    1.1382   -2.0004    0.0000 C    0  0  0  0  0  0  0  0  0  0  0  0
    0.0000   -1.3336    0.0000 O    0  0  0  0  0  0  0  0  0  0  0  0
    5.5758   -3.3915    0.0000 Cl   0  0  0  0  0  0  0  0  0  0  0  0
  1  3  1  0  0  0  0
  1  6  2  0  0  0  0
  1 12  1  0  0  0  0
  2  8  1  0  0  0  0
  2  4  1  0  0  0  0
  2  7  2  0  0  0  0
  3  5  2  0  0  0  0
  3 14  1  0  0  0  0
  4 13  1  0  0  0  0
  4 17  1  0  0  0  0
  5 16  1  0  0  0  0
  5  9  1  0  0  0  0
  6 11  1  0  0  0  0
  6 15  1  0  0  0  0
  8 10  1  0  0  0  0
  9 11  2  0  0  0  0
 10 16  1  0  0  0  0
 17 18  1  0  0  0  0
M  END
> <ID>
10930

> <Formula>
C10H16ClN3O5

> <FW>
293.7041 (257.2432+36.4609)

> <DSSTox_CID>
25412

> <DSSTox_RID>
80862

> <DSSTox_GSID>
45412

> <DSSTox_FileID_Sort>
5543

> <TS_ChemName>
Benserazide hydrochloride

> <TS_ChemName_Synonyms>


> <TS_CASRN>
14919-77-8

> <CASRN_ChemName_Relationship>
primary

> <TS_Description>
single chemical compound

> <ChemNote>
parent [322-35-0]

> <STRUCTURE_Shown>
tested chemical

> <STRUCTURE_Formula>
C10H16ClN3O5

> <STRUCTURE_MW>
293.7041

> <STRUCTURE_ChemType>
defined organic

> <STRUCTURE_DefinedOrganicForm>
complex

> <STRUCTURE_IUPAC>
2-amino-3-hydroxy-N'-(2,3,4-trihydroxybenzyl)propanehydrazide hydrochloride (1:1)

> <STRUCTURE_SMILES>
Cl.Oc1ccc(CNNC(=O)C(N)CO)c(O)c1O

> <STRUCTURE_SMILES_Desalt>
Oc1ccc(CNNC(=O)C(N)CO)c(O)c1O

> <Substance_modify_yyyymmdd>
20100107

$$$$
