14929-11-4
ChemmineR-0915142007XD

 31 32  0  0  0  0  0  0  0  0  1 V2000
    3.9944  -12.8726    0.0000 C    0  0  0  0  0  0  0  0  0  0  0  0
    3.9944  -11.5465    0.0000 C    0  0  0  0  0  0  0  0  0  0  0  0
    3.9944  -10.2205    0.0000 C    0  0  0  0  0  0  0  0  0  0  0  0
    2.6683  -11.5465    0.0000 O    0  0  0  0  0  0  0  0  0  0  0  0
    1.9891  -12.7109    0.0000 C    0  0  0  0  0  0  0  0  0  0  0  0
    2.6683  -13.8591    0.0000 C    0  0  0  0  0  0  0  0  0  0  0  0
    1.9891  -15.0073    0.0000 C    0  0  0  0  0  0  0  0  0  0  0  0
    0.6630  -15.0073    0.0000 C    0  0  0  0  0  0  0  0  0  0  0  0
    0.0000  -16.1716    0.0000 Cl   0  0  0  0  0  0  0  0  0  0  0  0
    0.0000  -13.8591    0.0000 C    0  0  0  0  0  0  0  0  0  0  0  0
    0.6630  -12.7109    0.0000 C    0  0  0  0  0  0  0  0  0  0  0  0
    5.3366  -11.5465    0.0000 C    0  0  0  0  0  0  0  0  0  0  0  0
    5.9835  -12.7109    0.0000 O    0  0  0  0  0  0  0  0  0  0  0  0
    5.9835  -10.3984    0.0000 O    0  0  0  0  0  0  0  0  0  0  0  0
    5.3366   -9.2340    0.0000 C    0  0  0  0  0  0  0  0  0  0  0  0
    5.9835   -8.0858    0.0000 C    0  0  0  0  0  0  0  0  0  0  0  0
    5.3366   -6.9376    0.0000 C    0  0  0  0  0  0  0  0  0  0  0  0
    5.9835   -5.7733    0.0000 O    0  0  0  0  0  0  0  0  0  0  0  0
    5.3366   -4.6251    0.0000 C    0  0  0  0  0  0  0  0  0  0  0  0
    5.9835   -3.4607    0.0000 O    0  0  0  0  0  0  0  0  0  0  0  0
    3.9944   -4.6251    0.0000 C    0  0  0  0  0  0  0  0  0  0  0  0
    3.9944   -3.2990    0.0000 C    0  0  0  0  0  0  0  0  0  0  0  0
    3.9944   -5.9512    0.0000 C    0  0  0  0  0  0  0  0  0  0  0  0
    2.6683   -4.6251    0.0000 O    0  0  0  0  0  0  0  0  0  0  0  0
    1.9891   -3.4607    0.0000 C    0  0  0  0  0  0  0  0  0  0  0  0
    0.6630   -3.4607    0.0000 C    0  0  0  0  0  0  0  0  0  0  0  0
    0.0000   -2.3125    0.0000 C    0  0  0  0  0  0  0  0  0  0  0  0
    0.6630   -1.1644    0.0000 C    0  0  0  0  0  0  0  0  0  0  0  0
    0.0000    0.0000    0.0000 Cl   0  0  0  0  0  0  0  0  0  0  0  0
    1.9891   -1.1644    0.0000 C    0  0  0  0  0  0  0  0  0  0  0  0
    2.6683   -2.3125    0.0000 C    0  0  0  0  0  0  0  0  0  0  0  0
  1  2  1  0  0  0  0
  2  3  1  0  0  0  0
  2  4  1  0  0  0  0
  2 12  1  0  0  0  0
  4  5  1  0  0  0  0
  5  6  2  0  0  0  0
  5 11  1  0  0  0  0
  6  7  1  0  0  0  0
  7  8  2  0  0  0  0
  8  9  1  0  0  0  0
  8 10  1  0  0  0  0
 10 11  2  0  0  0  0
 12 13  2  0  0  0  0
 12 14  1  0  0  0  0
 14 15  1  0  0  0  0
 15 16  1  0  0  0  0
 16 17  1  0  0  0  0
 17 18  1  0  0  0  0
 18 19  1  0  0  0  0
 19 20  2  0  0  0  0
 19 21  1  0  0  0  0
 21 22  1  0  0  0  0
 21 23  1  0  0  0  0
 21 24  1  0  0  0  0
 24 25  1  0  0  0  0
 25 26  2  0  0  0  0
 25 31  1  0  0  0  0
 26 27  1  0  0  0  0
 27 28  2  0  0  0  0
 28 29  1  0  0  0  0
 28 30  1  0  0  0  0
 30 31  2  0  0  0  0
M  END
> <ID>
16051

> <Formula>
C23H26Cl2O6

> <FW>
469.3549

> <DSSTox_CID>
31436

> <DSSTox_RID>
97322

> <DSSTox_GSID>
57647

> <DSSTox_FileID_Sort>
8389

> <TS_ChemName>
Cholesolvin

> <TS_ChemName_Synonyms>


> <TS_CASRN>
14929-11-4

> <CASRN_ChemName_Relationship>
primary

> <TS_Description>
single chemical compound

> <ChemNote>


> <STRUCTURE_Shown>
tested chemical

> <STRUCTURE_Formula>
C23H26Cl2O6

> <STRUCTURE_MW>
469.3549

> <STRUCTURE_ChemType>
defined organic

> <STRUCTURE_DefinedOrganicForm>
parent

> <STRUCTURE_IUPAC>
propane-1,3-diyl bis[2-(4-chlorophenoxy)-2-methylpropanoate]

> <STRUCTURE_SMILES>
Clc2ccc(OC(C)(C)C(=O)OCCCOC(=O)C(C)(C)Oc1ccc(Cl)cc1)cc2

> <STRUCTURE_SMILES_Desalt>
Clc2ccc(OC(C)(C)C(=O)OCCCOC(=O)C(C)(C)Oc1ccc(Cl)cc1)cc2

> <Substance_modify_yyyymmdd>
20131018

$$$$
