14933-08-5
ChemmineR-0915142007XD

 22 21  0  0  0  0  0  0  0  0  2 V2000
    0.0000  -12.6760    0.0000 C   0  0  0  0  0  0  0  0  0  0  0  0
   13.1222   -6.4299    0.0000 C   0  0  0  0  0  0  0  0  0  0  0  0
   10.8127   -5.0914    0.0000 C   0  0  0  0  0  0  0  0  0  0  0  0
    1.3253  -12.6760    0.0000 C   0  0  0  0  0  0  0  0  0  0  0  0
    2.0077  -11.5213    0.0000 C   0  0  0  0  0  0  0  0  0  0  0  0
    3.3330  -11.5213    0.0000 C   0  0  0  0  0  0  0  0  0  0  0  0
    3.9891  -10.3665    0.0000 C   0  0  0  0  0  0  0  0  0  0  0  0
    5.3145  -10.3665    0.0000 C   0  0  0  0  0  0  0  0  0  0  0  0
    5.9968   -9.2118    0.0000 C   0  0  0  0  0  0  0  0  0  0  0  0
    7.3222   -9.2118    0.0000 C   0  0  0  0  0  0  0  0  0  0  0  0
    7.9783   -8.0570    0.0000 C   0  0  0  0  0  0  0  0  0  0  0  0
    9.3036   -8.0570    0.0000 C   0  0  0  0  0  0  0  0  0  0  0  0
    9.9729   -6.9023    0.0000 C   0  0  0  0  0  0  0  0  0  0  0  0
   11.9543   -3.4643    0.0000 C   0  0  0  0  0  0  0  0  0  0  0  0
   11.2982   -6.9023    0.0000 C   0  0  0  0  0  0  0  0  0  0  0  0
   12.6236   -4.6190    0.0000 C   0  0  0  0  0  0  0  0  0  0  0  0
   12.6236   -2.3095    0.0000 C   0  0  0  0  0  0  0  0  0  0  0  0
   11.9543   -5.7606    0.0000 N   0  3  0  0  0  0  0  0  0  0  0  0
   13.1222   -0.4986    0.0000 O   0  5  0  0  0  0  0  0  0  0  0  0
   10.8127   -1.8240    0.0000 O   0  0  0  0  0  0  0  0  0  0  0  0
   11.2982    0.0000    0.0000 O   0  0  0  0  0  0  0  0  0  0  0  0
   11.9543   -1.1548    0.0000 S   0  0  0  0  0  0  0  0  0  0  0  0
  1  4  1  0  0  0  0
  2 18  1  0  0  0  0
  3 18  1  0  0  0  0
  4  5  1  0  0  0  0
  5  6  1  0  0  0  0
  6  7  1  0  0  0  0
  7  8  1  0  0  0  0
  8  9  1  0  0  0  0
  9 10  1  0  0  0  0
 10 11  1  0  0  0  0
 11 12  1  0  0  0  0
 12 13  1  0  0  0  0
 13 15  1  0  0  0  0
 14 16  1  0  0  0  0
 14 17  1  0  0  0  0
 15 18  1  0  0  0  0
 16 18  1  0  0  0  0
 17 22  1  0  0  0  0
 19 22  1  0  0  0  0
 20 22  2  0  0  0  0
 21 22  2  0  0  0  0
M  END
> <ID>
14085

> <Formula>
C17H37NO3S

> <FW>
335.5456

> <DSSTox_CID>
29078

> <DSSTox_RID>
83297

> <DSSTox_GSID>
49222

> <DSSTox_FileID_Sort>
7972

> <TS_ChemName>
N-Dodecyl-N,N-dimethyl-3-ammonio-1-propanesulfonate

> <TS_ChemName_Synonyms>


> <TS_CASRN>
14933-08-5

> <CASRN_ChemName_Relationship>
primary

> <TS_Description>
single chemical compound

> <ChemNote>
ammonium

> <STRUCTURE_Shown>
tested chemical

> <STRUCTURE_Formula>
C17H37NO3S

> <STRUCTURE_MW>
335.5456

> <STRUCTURE_ChemType>
defined organic

> <STRUCTURE_DefinedOrganicForm>
parent

> <STRUCTURE_IUPAC>
3-[dodecyl(dimethyl)ammonio]propane-1-sulfonate

> <STRUCTURE_SMILES>
[O-]S(=O)(=O)CCC[N+](C)(C)CCCCCCCCCCCC

> <STRUCTURE_SMILES_Desalt>
C[N+](C)(CCCS(=O)(=O)O)CCCCCCCCCCCC

> <Substance_modify_yyyymmdd>
20111204

$$$$
