149358-73-6
ChemmineR-0915142007XD

 15 12  0  0  0  0  0  0  0  0  2 V2000
    4.6146   -1.1629    0.0000 S    0  0  0  0  0  0  0  0  0  0  0  0
    5.2791   -2.3165    0.0000 N    0  5  0  0  0  0  0  0  0  0  0  0
    3.4609   -1.8181    0.0000 C    0  0  0  0  0  0  0  0  0  0  0  0
    3.9408    0.0000    0.0000 O    0  0  0  0  0  0  0  0  0  0  0  0
    5.7590   -0.4799    0.0000 O    0  0  0  0  0  0  0  0  0  0  0  0
    3.4609   -3.1379    0.0000 C    0  0  0  0  0  0  0  0  0  0  0  0
    2.3165   -1.1629    0.0000 C    0  0  0  0  0  0  0  0  0  0  0  0
    6.6173   -2.3165    0.0000 Cl   0  0  0  0  0  0  0  0  0  0  0  0
    1.1536   -1.8366    0.0000 C    0  0  0  0  0  0  0  0  0  0  0  0
    2.3165   -3.8024    0.0000 C    0  0  0  0  0  0  0  0  0  0  0  0
    1.1536   -3.1379    0.0000 C    0  0  0  0  0  0  0  0  0  0  0  0
    0.0000   -3.8209    0.0000 C    0  0  0  0  0  0  0  0  0  0  0  0
    5.2514   -3.8209    0.0000 Na   0  3  0  0  0  0  0  0  0  0  0  0
    9.2291   -0.3322    0.0000 O    0  0  0  0  0  0  0  0  0  0  0  0
    9.2291   -2.8426    0.0000 O    0  0  0  0  0  0  0  0  0  0  0  0
  1  2  1  0  0  0  0
  1  3  1  0  0  0  0
  1  4  2  0  0  0  0
  1  5  2  0  0  0  0
  2  8  1  0  0  0  0
  3  6  1  0  0  0  0
  3  7  2  0  0  0  0
  6 10  2  0  0  0  0
  7  9  1  0  0  0  0
  9 11  2  0  0  0  0
 10 11  1  0  0  0  0
 11 12  1  0  0  0  0
M  END
> <ID>
9983

> <Formula>
C7H11ClNNaO4S

> <FW>
263.6743 (204.6545+22.9892+18.0153+18.0153)

> <DSSTox_CID>
24318

> <DSSTox_RID>
80151

> <DSSTox_GSID>
44318

> <DSSTox_FileID_Sort>
4833

> <TS_ChemName>
Chloramine T hydrate (1:x)

> <TS_ChemName_Synonyms>
Chloramine T hydrate

> <TS_CASRN>
149358-73-6

> <CASRN_ChemName_Relationship>
primary

> <TS_Description>
single chemical compound

> <ChemNote>
CAS is for a compound containing x water; structure shown dihydrate [873201-86-6]; parent [144-86-5]

> <STRUCTURE_Shown>
tested chemical

> <STRUCTURE_Formula>
C7H11ClNNaO4S

> <STRUCTURE_MW>
263.6743

> <STRUCTURE_ChemType>
defined organic

> <STRUCTURE_DefinedOrganicForm>
complex

> <STRUCTURE_IUPAC>
sodium chloro[(4-methylphenyl)sulfonyl]azanide hydrate (1:1:2)

> <STRUCTURE_SMILES>
[Na+].O.O.Cc1ccc(cc1)S(=O)(=O)[N-]Cl

> <STRUCTURE_SMILES_Desalt>
Cc1ccc(cc1)S(=O)(=O)NCl

> <Substance_modify_yyyymmdd>
20090518

$$$$
