1493-13-6
ChemmineR-0915142007XD

  8  7  0  0  0  0  0  0  0  0  1 V2000
    1.3277   -2.6714    0.0000 S   0  0  0  0  0  0  0  0  0  0  0  0
    1.3277   -1.3277    0.0000 C   0  0  0  0  0  0  0  0  0  0  0  0
    2.6554   -2.6714    0.0000 O   0  0  0  0  0  0  0  0  0  0  0  0
    1.3277   -3.9991    0.0000 O   0  0  0  0  0  0  0  0  0  0  0  0
    0.0000   -2.6714    0.0000 O   0  0  0  0  0  0  0  0  0  0  0  0
    0.0000   -1.3277    0.0000 F   0  0  0  0  0  0  0  0  0  0  0  0
    2.6554   -1.3277    0.0000 F   0  0  0  0  0  0  0  0  0  0  0  0
    1.3277    0.0000    0.0000 F   0  0  0  0  0  0  0  0  0  0  0  0
  1  2  1  0  0  0  0
  1  3  2  0  0  0  0
  1  4  2  0  0  0  0
  1  5  1  0  0  0  0
  2  6  1  0  0  0  0
  2  7  1  0  0  0  0
  2  8  1  0  0  0  0
M  END
> <ID>
10054

> <Formula>
CHF3O3S

> <FW>
150.077

> <DSSTox_CID>
24397

> <DSSTox_RID>
80198

> <DSSTox_GSID>
44397

> <DSSTox_FileID_Sort>
4880

> <TS_ChemName>
Trifluoromethanesulfonic acid

> <TS_ChemName_Synonyms>
trifluoromethanesulfonic acid (Methanesulfonic acid, trifluoro-)

> <TS_CASRN>
1493-13-6

> <CASRN_ChemName_Relationship>
primary

> <TS_Description>
single chemical compound

> <ChemNote>


> <STRUCTURE_Shown>
tested chemical

> <STRUCTURE_Formula>
CHF3O3S

> <STRUCTURE_MW>
150.077

> <STRUCTURE_ChemType>
defined organic

> <STRUCTURE_DefinedOrganicForm>
parent

> <STRUCTURE_IUPAC>
trifluoromethanesulfonic acid

> <STRUCTURE_SMILES>
FC(F)(F)S(=O)(=O)O

> <STRUCTURE_SMILES_Desalt>
FC(F)(F)S(=O)(=O)O

> <Substance_modify_yyyymmdd>
20091116

$$$$
