149413-74-1
ChemmineR-0915142007XD

 30 33  0  0  0  0  0  0  0  0  1 V2000
    1.1597   -1.3278    0.0000 C   0  0  0  0  0  0  0  0  0  0  0  0
    0.0000   -1.9833    0.0000 O   0  0  0  0  0  0  0  0  0  0  0  0
    1.1597    0.0000    0.0000 O   0  0  0  0  0  0  0  0  0  0  0  0
    2.3195   -1.9833    0.0000 C   0  0  0  0  0  0  0  0  0  0  0  0
    3.4624   -5.3112    0.0000 C   0  0  0  0  0  0  0  0  0  0  0  0
    2.3195   -6.0003    0.0000 C   0  0  0  0  0  0  0  0  0  0  0  0
    1.1597   -5.3112    0.0000 C   0  0  0  0  0  0  0  0  0  0  0  0
    1.1597   -3.9834    0.0000 C   0  0  0  0  0  0  0  0  0  0  0  0
    2.3195   -3.3279    0.0000 C   0  0  0  0  0  0  0  0  0  0  0  0
    3.4624   -3.9834    0.0000 C   0  0  0  0  0  0  0  0  0  0  0  0
    4.6221   -3.3279    0.0000 C   0  0  0  0  0  0  0  0  0  0  0  0
    5.7818   -3.9834    0.0000 O   0  0  0  0  0  0  0  0  0  0  0  0
   10.4880   -1.5967    0.0000 O   0  0  0  0  0  0  0  0  0  0  0  0
    9.2274   -1.9833    0.0000 C   0  0  0  0  0  0  0  0  0  0  0  0
   11.2947   -2.6724    0.0000 C   0  0  0  0  0  0  0  0  0  0  0  0
    9.2274   -3.3279    0.0000 C   0  0  0  0  0  0  0  0  0  0  0  0
   10.4880   -3.7313    0.0000 C   0  0  0  0  0  0  0  0  0  0  0  0
    8.0677   -1.3278    0.0000 C   0  0  0  0  0  0  0  0  0  0  0  0
    6.9248   -1.9833    0.0000 C   0  0  0  0  0  0  0  0  0  0  0  0
    6.9248   -3.3279    0.0000 C   0  0  0  0  0  0  0  0  0  0  0  0
    8.0677   -3.9834    0.0000 C   0  0  0  0  0  0  0  0  0  0  0  0
   13.3957   -3.7313    0.0000 S   0  0  0  0  0  0  0  0  0  0  0  0
   12.6057   -2.6724    0.0000 C   0  0  0  0  0  0  0  0  0  0  0  0
   13.3957   -1.5967    0.0000 N   0  0  0  0  0  0  0  0  0  0  0  0
   14.6563   -1.9833    0.0000 C   0  0  0  0  0  0  0  0  0  0  0  0
   14.6563   -3.3279    0.0000 C   0  0  0  0  0  0  0  0  0  0  0  0
   15.7320   -1.2270    0.0000 C   0  0  0  0  0  0  0  0  0  0  0  0
   14.9588   -0.1345    0.0000 C   0  0  0  0  0  0  0  0  0  0  0  0
   16.5219   -2.3026    0.0000 C   0  0  0  0  0  0  0  0  0  0  0  0
   16.8077   -0.4370    0.0000 C   0  0  0  0  0  0  0  0  0  0  0  0
  1  2  2  0  0  0  0
  1  3  1  0  0  0  0
  1  4  1  0  0  0  0
  4  9  1  0  0  0  0
  5 10  2  0  0  0  0
  5  6  1  0  0  0  0
  6  7  2  0  0  0  0
  7  8  1  0  0  0  0
  8  9  2  0  0  0  0
  9 10  1  0  0  0  0
 10 11  1  0  0  0  0
 11 12  1  0  0  0  0
 12 20  1  0  0  0  0
 13 14  1  0  0  0  0
 13 15  1  0  0  0  0
 14 16  2  0  0  0  0
 14 18  1  0  0  0  0
 15 17  2  0  0  0  0
 15 23  1  0  0  0  0
 16 17  1  0  0  0  0
 16 21  1  0  0  0  0
 18 19  2  0  0  0  0
 19 20  1  0  0  0  0
 20 21  2  0  0  0  0
 22 23  1  0  0  0  0
 22 26  1  0  0  0  0
 23 24  2  0  0  0  0
 24 25  1  0  0  0  0
 25 26  2  0  0  0  0
 25 27  1  0  0  0  0
 27 28  1  0  0  0  0
 27 29  1  0  0  0  0
 27 30  1  0  0  0  0
M  END
> <ID>
13231

> <Formula>
C24H23NO4S

> <FW>
421.5087

> <DSSTox_CID>
28144

> <DSSTox_RID>
82709

> <DSSTox_GSID>
48170

> <DSSTox_FileID_Sort>
7386

> <TS_ChemName>
FR150011

> <TS_ChemName_Synonyms>


> <TS_CASRN>
149413-74-1

> <CASRN_ChemName_Relationship>
primary

> <TS_Description>
single chemical compound

> <ChemNote>


> <STRUCTURE_Shown>
tested chemical

> <STRUCTURE_Formula>
C24H23NO4S

> <STRUCTURE_MW>
421.5087

> <STRUCTURE_ChemType>
defined organic

> <STRUCTURE_DefinedOrganicForm>
parent

> <STRUCTURE_IUPAC>
[2-({[2-(4-tert-butyl-1,3-thiazol-2-yl)-1-benzofuran-5-yl]oxy}methyl)phenyl]acetic acid

> <STRUCTURE_SMILES>
O=C(O)Cc4ccccc4COc1cc2cc(oc2cc1)c3nc(cs3)C(C)(C)C

> <STRUCTURE_SMILES_Desalt>
O=C(O)Cc4ccccc4COc1cc2cc(oc2cc1)c3nc(cs3)C(C)(C)C

> <Substance_modify_yyyymmdd>
20130910

$$$$
