14952-06-8
ChemmineR-0915142007XD

 12 11  0  0  0  0  0  0  0  0  1 V2000
    2.2941   -1.3603    0.0000 C   0  0  0  0  0  0  0  0  0  0  0  0
    3.4699   -2.0174    0.0000 C   0  0  0  0  0  0  0  0  0  0  0  0
    4.6112   -1.3603    0.0000 C   0  0  0  0  0  0  0  0  0  0  0  0
    5.7640   -2.0174    0.0000 C   0  0  0  0  0  0  0  0  0  0  0  0
    6.9168   -1.3603    0.0000 C   0  0  0  0  0  0  0  0  0  0  0  0
    8.1158   -2.0174    0.0000 C   0  0  0  0  0  0  0  0  0  0  0  0
    9.2340   -1.3603    0.0000 C   0  0  0  0  0  0  0  0  0  0  0  0
   10.3753   -2.0174    0.0000 C   0  0  0  0  0  0  0  0  0  0  0  0
   11.5281   -1.3603    0.0000 C   0  0  0  0  0  0  0  0  0  0  0  0
    2.2941    0.0000    0.0000 O   0  0  0  0  0  0  0  0  0  0  0  0
    1.1528   -2.0174    0.0000 O   0  0  0  0  0  0  0  0  0  0  0  0
    0.0000   -1.3603    0.0000 C   0  0  0  0  0  0  0  0  0  0  0  0
  1  2  1  0  0  0  0
  1 11  1  0  0  0  0
  1 10  2  0  0  0  0
  2  3  2  0  0  0  0
  3  4  1  0  0  0  0
  4  5  1  0  0  0  0
  5  6  1  0  0  0  0
  6  7  1  0  0  0  0
  7  8  1  0  0  0  0
  8  9  1  0  0  0  0
 11 12  1  0  0  0  0
M  END
> <ID>
12758

> <Formula>
C10H18O2

> <FW>
170.2487

> <DSSTox_CID>
27637

> <DSSTox_RID>
82466

> <DSSTox_GSID>
47637

> <DSSTox_FileID_Sort>
7147

> <TS_ChemName>
Methyl (2E)-non-2-enoate

> <TS_ChemName_Synonyms>


> <TS_CASRN>
14952-06-8

> <CASRN_ChemName_Relationship>
primary

> <TS_Description>
single chemical compound

> <ChemNote>
stereochem

> <STRUCTURE_Shown>
tested chemical

> <STRUCTURE_Formula>
C10H18O2

> <STRUCTURE_MW>
170.2487

> <STRUCTURE_ChemType>
defined organic

> <STRUCTURE_DefinedOrganicForm>
parent

> <STRUCTURE_IUPAC>
methyl (2E)-non-2-enoate

> <STRUCTURE_SMILES>
O=C(\C=C\CCCCCC)OC

> <STRUCTURE_SMILES_Desalt>
O=C(\C=C\CCCCCC)OC

> <Substance_modify_yyyymmdd>
20101214

$$$$
