149647-78-9
ChemmineR-0915142007XD

 19 19  0  0  0  0  0  0  0  0  1 V2000
    2.2938   -0.6746    0.0000 C   0  0  0  0  0  0  0  0  0  0  0  0
    2.2938   -2.0089    0.0000 C   0  0  0  0  0  0  0  0  0  0  0  0
    1.1394    0.0000    0.0000 C   0  0  0  0  0  0  0  0  0  0  0  0
    1.1394   -2.6686    0.0000 C   0  0  0  0  0  0  0  0  0  0  0  0
    0.0000   -0.6746    0.0000 C   0  0  0  0  0  0  0  0  0  0  0  0
    0.0000   -2.0089    0.0000 C   0  0  0  0  0  0  0  0  0  0  0  0
    3.4482   -2.6686    0.0000 N   0  0  0  0  0  0  0  0  0  0  0  0
    4.6026   -2.0089    0.0000 C   0  0  0  0  0  0  0  0  0  0  0  0
    5.7570   -2.6686    0.0000 C   0  0  0  0  0  0  0  0  0  0  0  0
    4.6026   -0.6746    0.0000 O   0  0  0  0  0  0  0  0  0  0  0  0
    6.9114   -2.0089    0.0000 C   0  0  0  0  0  0  0  0  0  0  0  0
    8.0658   -2.6686    0.0000 C   0  0  0  0  0  0  0  0  0  0  0  0
    9.2202   -2.0089    0.0000 C   0  0  0  0  0  0  0  0  0  0  0  0
   10.3746   -2.6686    0.0000 C   0  0  0  0  0  0  0  0  0  0  0  0
   11.5140   -2.0089    0.0000 C   0  0  0  0  0  0  0  0  0  0  0  0
   12.6833   -2.6686    0.0000 C   0  0  0  0  0  0  0  0  0  0  0  0
   13.8228   -2.0089    0.0000 N   0  0  0  0  0  0  0  0  0  0  0  0
   12.6833   -4.0029    0.0000 O   0  0  0  0  0  0  0  0  0  0  0  0
   14.9921   -2.6686    0.0000 O   0  0  0  0  0  0  0  0  0  0  0  0
  1  2  1  0  0  0  0
  1  3  2  0  0  0  0
  2  4  2  0  0  0  0
  2  7  1  0  0  0  0
  3  5  1  0  0  0  0
  4  6  1  0  0  0  0
  5  6  2  0  0  0  0
  7  8  1  0  0  0  0
  8  9  1  0  0  0  0
  8 10  2  0  0  0  0
  9 11  1  0  0  0  0
 11 12  1  0  0  0  0
 12 13  1  0  0  0  0
 13 14  1  0  0  0  0
 14 15  1  0  0  0  0
 15 16  1  0  0  0  0
 16 17  1  0  0  0  0
 16 18  2  0  0  0  0
 17 19  1  0  0  0  0
M  END
> <ID>
8128

> <Formula>
C14H20N2O3

> <FW>
264.3202

> <DSSTox_CID>
21133

> <DSSTox_RID>
79632

> <DSSTox_GSID>
41133

> <DSSTox_FileID_Sort>
4314

> <TS_ChemName>
Suberoylanilide hydroxamic acid

> <TS_ChemName_Synonyms>
Suberoylanilide hydroxamic acid (vorinostat) (SAHA)

> <TS_CASRN>
149647-78-9

> <CASRN_ChemName_Relationship>
primary

> <TS_Description>
single chemical compound

> <ChemNote>


> <STRUCTURE_Shown>
tested chemical

> <STRUCTURE_Formula>
C14H20N2O3

> <STRUCTURE_MW>
264.3202

> <STRUCTURE_ChemType>
defined organic

> <STRUCTURE_DefinedOrganicForm>
parent

> <STRUCTURE_IUPAC>
N-hydroxy-N'-phenyloctanediamide

> <STRUCTURE_SMILES>
O=C(Nc1ccccc1)CCCCCCC(=O)NO

> <STRUCTURE_SMILES_Desalt>
O=C(Nc1ccccc1)CCCCCCC(=O)NO

> <Substance_modify_yyyymmdd>
20080429

$$$$
