14976-57-9
ChemmineR-0915142007XD

 32 33  0  0  1  0  0  0  0  0  1 V2000
    9.3640   -2.6553    0.0000 C    0  0  0  0  0  0  0  0  0  0  0  0
    3.6815   -1.8728    0.0000 N    0  0  0  0  0  0  0  0  0  0  0  0
    8.6970   -3.7969    0.0000 C    0  0  0  0  0  0  0  0  0  0  0  0
    4.7718   -2.6553    0.0000 C    0  0  0  0  0  0  0  0  0  0  0  0
   10.5185   -1.9883    0.0000 C    0  0  0  0  0  0  0  0  0  0  0  0
    9.3512   -4.9257    0.0000 C    0  0  0  0  0  0  0  0  0  0  0  0
    7.3630   -3.7969    0.0000 C    0  0  0  0  0  0  0  0  0  0  0  0
    8.2096   -1.9883    0.0000 O    0  0  0  0  0  0  0  0  0  0  0  0
    7.3630   -6.0930    0.0000 C    0  0  0  0  0  0  0  0  0  0  0  0
    5.9135   -1.9883    0.0000 C    0  0  0  0  0  0  0  0  0  0  0  0
    6.6959   -4.9257    0.0000 C    0  0  0  0  0  0  0  0  0  0  0  0
    8.6970   -6.0930    0.0000 C    0  0  0  0  0  0  0  0  0  0  0  0
    6.6959   -7.2347    0.0000 Cl   0  0  0  0  0  0  0  0  0  0  0  0
    2.6040   -2.6553    0.0000 C    0  0  0  0  0  0  0  0  0  0  0  0
    7.0808   -2.6553    0.0000 C    0  0  0  0  0  0  0  0  0  0  0  0
    3.6815   -0.5388    0.0000 C    0  0  0  0  0  0  0  0  0  0  0  0
    3.0273   -3.8995    0.0000 C    0  0  0  0  0  0  0  0  0  0  0  0
    4.3613   -3.8995    0.0000 C    0  0  0  0  0  0  0  0  0  0  0  0
   10.5185   -0.6542    0.0000 C    0  0  0  0  0  0  0  0  0  0  0  0
   11.6730   -2.6553    0.0000 C    0  0  0  0  0  0  0  0  0  0  0  0
   11.6730    0.0000    0.0000 C    0  0  0  0  0  0  0  0  0  0  0  0
   12.8275   -1.9883    0.0000 C    0  0  0  0  0  0  0  0  0  0  0  0
   12.8275   -0.6542    0.0000 C    0  0  0  0  0  0  0  0  0  0  0  0
   10.0567   -3.7969    0.0000 C    0  0  0  0  0  0  0  0  0  0  0  0
    4.6435   -6.0546    0.0000 C    0  0  0  0  0  0  0  0  0  0  0  0
    1.1545   -5.3875    0.0000 C    0  0  0  0  0  0  0  0  0  0  0  0
    2.2961   -6.0546    0.0000 C    0  0  0  0  0  0  0  0  0  0  0  0
    3.4762   -5.3747    0.0000 C    0  0  0  0  0  0  0  0  0  0  0  0
    4.6564   -7.3630    0.0000 O    0  0  0  0  0  0  0  0  0  0  0  0
    1.1545   -4.0663    0.0000 O    0  0  0  0  0  0  0  0  0  0  0  0
    5.7980   -5.3747    0.0000 O    0  0  0  0  0  0  0  0  0  0  0  0
    0.0000   -6.0674    0.0000 O    0  0  0  0  0  0  0  0  0  0  0  0
  1  3  1  6  0  0  0
  1  5  1  0  0  0  0
  1  8  1  0  0  0  0
  1 24  1  1  0  0  0
  2  4  1  0  0  0  0
  2 14  1  0  0  0  0
  2 16  1  0  0  0  0
  3  6  1  0  0  0  0
  3  7  2  0  0  0  0
  4 10  1  1  0  0  0
  4 18  1  0  0  0  0
  5 19  2  0  0  0  0
  5 20  1  0  0  0  0
  6 12  2  0  0  0  0
  7 11  1  0  0  0  0
  8 15  1  0  0  0  0
  9 11  2  0  0  0  0
  9 13  1  0  0  0  0
  9 12  1  0  0  0  0
 10 15  1  0  0  0  0
 14 17  1  0  0  0  0
 17 18  1  0  0  0  0
 19 21  1  0  0  0  0
 20 22  2  0  0  0  0
 21 23  2  0  0  0  0
 22 23  1  0  0  0  0
 25 28  1  0  0  0  0
 25 29  2  0  0  0  0
 25 31  1  0  0  0  0
 26 27  1  0  0  0  0
 26 30  2  0  0  0  0
 26 32  1  0  0  0  0
 27 28  2  0  0  0  0
M  END
> <ID>
12886

> <Formula>
C25H30ClNO5

> <FW>
459.9624 (343.8902+116.0722)

> <DSSTox_CID>
27765

> <DSSTox_RID>
82542

> <DSSTox_GSID>
47785

> <DSSTox_FileID_Sort>
7223

> <TS_ChemName>
Clemastine fumarate

> <TS_ChemName_Synonyms>


> <TS_CASRN>
14976-57-9

> <CASRN_ChemName_Relationship>
primary

> <TS_Description>
single chemical compound

> <ChemNote>
stereochem; parent [15686-51-8]

> <STRUCTURE_Shown>
tested chemical

> <STRUCTURE_Formula>
C25H30ClNO5

> <STRUCTURE_MW>
459.9624

> <STRUCTURE_ChemType>
defined organic

> <STRUCTURE_DefinedOrganicForm>
complex

> <STRUCTURE_IUPAC>
(2R)-2-{2-[(1R)-1-(4-chlorophenyl)-1-phenylethoxy]ethyl}-1-methylpyrrolidine (2E)-but-2-enedioate (1:1)

> <STRUCTURE_SMILES>
CN3CCC[C@@H]3CCO[C@](C)(c1ccccc1)c2ccc(Cl)cc2.O=C(O)/C=C/C(=O)O

> <STRUCTURE_SMILES_Desalt>
CN3CCC[C@@H]3CCO[C@](C)(c1ccccc1)c2ccc(Cl)cc2

> <Substance_modify_yyyymmdd>


$$$$
