1497-49-0
ChemmineR-0915142007XD

 20 20  0  0  0  0  0  0  0  0  1 V2000
    2.3144   -0.6514    0.0000 C    0  0  0  0  0  0  0  0  0  0  0  0
    2.3144   -1.9818    0.0000 C    0  0  0  0  0  0  0  0  0  0  0  0
    1.1503    0.0000    0.0000 C    0  0  0  0  0  0  0  0  0  0  0  0
    1.1503   -2.6609    0.0000 C    0  0  0  0  0  0  0  0  0  0  0  0
    0.0000   -0.6514    0.0000 C    0  0  0  0  0  0  0  0  0  0  0  0
    0.0000   -1.9818    0.0000 C    0  0  0  0  0  0  0  0  0  0  0  0
    3.4647    0.0000    0.0000 N    0  0  0  0  0  0  0  0  0  0  0  0
    4.6289   -0.6514    0.0000 C    0  0  0  0  0  0  0  0  0  0  0  0
    5.7653    0.0000    0.0000 C    0  0  0  0  0  0  0  0  0  0  0  0
    6.9156   -0.6514    0.0000 C    0  0  0  0  0  0  0  0  0  0  0  0
    8.0797    0.0000    0.0000 C    0  0  0  0  0  0  0  0  0  0  0  0
    9.2300   -0.6514    0.0000 C    0  0  0  0  0  0  0  0  0  0  0  0
   10.3941    0.0000    0.0000 N    0  0  0  0  0  0  0  0  0  0  0  0
   11.5444   -0.6514    0.0000 C    0  0  0  0  0  0  0  0  0  0  0  0
   12.7086    0.0000    0.0000 C    0  0  0  0  0  0  0  0  0  0  0  0
   11.5444   -1.9818    0.0000 C    0  0  0  0  0  0  0  0  0  0  0  0
   13.8588   -0.6514    0.0000 C    0  0  0  0  0  0  0  0  0  0  0  0
   12.7086   -2.6609    0.0000 C    0  0  0  0  0  0  0  0  0  0  0  0
   13.8588   -1.9818    0.0000 C    0  0  0  0  0  0  0  0  0  0  0  0
    6.0563   -2.7718    0.0000 Cl   0  0  0  0  0  0  0  0  0  0  0  0
  1  2  1  0  0  0  0
  1  3  2  0  0  0  0
  1  7  1  0  0  0  0
  2  4  2  0  0  0  0
  3  5  1  0  0  0  0
  4  6  1  0  0  0  0
  5  6  2  0  0  0  0
  7  8  2  0  0  0  0
  8  9  1  0  0  0  0
  9 10  2  0  0  0  0
 10 11  1  0  0  0  0
 11 12  2  0  0  0  0
 12 13  1  0  0  0  0
 13 14  1  0  0  0  0
 14 15  1  0  0  0  0
 14 16  2  0  0  0  0
 15 17  2  0  0  0  0
 16 18  1  0  0  0  0
 17 19  1  0  0  0  0
 18 19  2  0  0  0  0
M  END
> <ID>
10055

> <Formula>
C17H17ClN2

> <FW>
284.7833 (248.3223+36.4609)

> <DSSTox_CID>
24398

> <DSSTox_RID>
80199

> <DSSTox_GSID>
44398

> <DSSTox_FileID_Sort>
4881

> <TS_ChemName>
N,N'-Penta-1,3-dien-1-yl-5-ylidenedianiline hydrochloride

> <TS_ChemName_Synonyms>
N,N'-Penta-1,3-dien-1-yl-5-ylidenedianiline hydrochloride (Benzenamine, N-[5-(phenylamino)-2,4-pentadienylidene]-, monohydrochloride)

> <TS_CASRN>
1497-49-0

> <CASRN_ChemName_Relationship>
primary

> <TS_Description>
mixture or formulation

> <ChemNote>
mixture of Z,E isomers; structure shown all E-; parent [5608-83-3]

> <STRUCTURE_Shown>
representative isomer in mixture

> <STRUCTURE_Formula>
C17H17ClN2

> <STRUCTURE_MW>
284.7833

> <STRUCTURE_ChemType>
defined organic

> <STRUCTURE_DefinedOrganicForm>
complex

> <STRUCTURE_IUPAC>
N-[(1E,3E,5E)-5-(phenylimino)penta-1,3-dien-1-yl]aniline hydrochloride (1:1)

> <STRUCTURE_SMILES>
Cl.C(=C/Nc1ccccc1)\C=C\C=N\c2ccccc2

> <STRUCTURE_SMILES_Desalt>
C(=C/Nc1ccccc1)\C=C\C=N\c2ccccc2

> <Substance_modify_yyyymmdd>
20091116

$$$$
