14970-87-7
ChemmineR-0915142007XD

 10  9  0  0  0  0  0  0  0  0  1 V2000
    9.1851    0.0000    0.0000 C   0  0  0  0  0  0  0  0  0  0  0  0
    8.0382   -0.6716    0.0000 C   0  0  0  0  0  0  0  0  0  0  0  0
   10.3319   -0.6716    0.0000 S   0  0  0  0  0  0  0  0  0  0  0  0
    1.1468   -0.6716    0.0000 C   0  0  0  0  0  0  0  0  0  0  0  0
    2.2937    0.0000    0.0000 C   0  0  0  0  0  0  0  0  0  0  0  0
    0.0000    0.0000    0.0000 S   0  0  0  0  0  0  0  0  0  0  0  0
    4.5874    0.0000    0.0000 C   0  0  0  0  0  0  0  0  0  0  0  0
    5.7445   -0.6716    0.0000 C   0  0  0  0  0  0  0  0  0  0  0  0
    3.4405   -0.6716    0.0000 O   0  0  0  0  0  0  0  0  0  0  0  0
    6.8914    0.0000    0.0000 O   0  0  0  0  0  0  0  0  0  0  0  0
  1  2  1  0  0  0  0
  1  3  1  0  0  0  0
  2 10  1  0  0  0  0
  4  5  1  0  0  0  0
  4  6  1  0  0  0  0
  5  9  1  0  0  0  0
  7  8  1  0  0  0  0
  7  9  1  0  0  0  0
  8 10  1  0  0  0  0
M  END
> <ID>
10242

> <Formula>
C6H14O2S2

> <FW>
182.3042

> <DSSTox_CID>
24588

> <DSSTox_RID>
80334

> <DSSTox_GSID>
44588

> <DSSTox_FileID_Sort>
5016

> <TS_ChemName>
2,2'-[Ethane-1,2-diylbis(oxy)]diethanethiol

> <TS_ChemName_Synonyms>
2,2'-[Ethane-1,2-diylbis(oxy)]diethanethiol (Ethanethiol, 2,2'-[1,2-ethanediylbis(oxy)]bis-)

> <TS_CASRN>
14970-87-7

> <CASRN_ChemName_Relationship>
primary

> <TS_Description>
single chemical compound

> <ChemNote>


> <STRUCTURE_Shown>
tested chemical

> <STRUCTURE_Formula>
C6H14O2S2

> <STRUCTURE_MW>
182.3042

> <STRUCTURE_ChemType>
defined organic

> <STRUCTURE_DefinedOrganicForm>
parent

> <STRUCTURE_IUPAC>
2,2'-[ethane-1,2-diylbis(oxy)]diethanethiol

> <STRUCTURE_SMILES>
SCCOCCOCCS

> <STRUCTURE_SMILES_Desalt>
SCCOCCOCCS

> <Substance_modify_yyyymmdd>
20091116

$$$$
