14979-39-6
ChemmineR-0915142007XD

  9  8  0  0  0  0  0  0  0  0  1 V2000
    0.0000   -1.3411    0.0000 C   0  0  0  0  0  0  0  0  0  0  0  0
    1.1813   -1.9874    0.0000 C   0  0  0  0  0  0  0  0  0  0  0  0
    2.3140   -1.3411    0.0000 C   0  0  0  0  0  0  0  0  0  0  0  0
    3.4744   -1.9874    0.0000 C   0  0  0  0  0  0  0  0  0  0  0  0
    4.6558   -1.3411    0.0000 C   0  0  0  0  0  0  0  0  0  0  0  0
    5.8162   -1.9874    0.0000 C   0  0  0  0  0  0  0  0  0  0  0  0
    6.9489   -1.3411    0.0000 C   0  0  0  0  0  0  0  0  0  0  0  0
    2.3140    0.0000    0.0000 O   0  0  0  0  0  0  0  0  0  0  0  0
    3.4744   -3.3285    0.0000 C   0  0  0  0  0  0  0  0  0  0  0  0
  1  2  1  0  0  0  0
  2  3  1  0  0  0  0
  3  4  1  0  0  0  0
  3  8  1  0  0  0  0
  4  5  1  0  0  0  0
  4  9  1  0  0  0  0
  5  6  1  0  0  0  0
  6  7  1  0  0  0  0
M  END
> <ID>
8485

> <Formula>
C8H18O

> <FW>
130.2279

> <DSSTox_CID>
21519

> <DSSTox_RID>
79763

> <DSSTox_GSID>
41519

> <DSSTox_FileID_Sort>
4445

> <TS_ChemName>
4-Methyl-3-heptanol

> <TS_ChemName_Synonyms>


> <TS_CASRN>
14979-39-6

> <CASRN_ChemName_Relationship>
primary

> <TS_Description>
single chemical compound

> <ChemNote>


> <STRUCTURE_Shown>
tested chemical

> <STRUCTURE_Formula>
C8H18O

> <STRUCTURE_MW>
130.2279

> <STRUCTURE_ChemType>
defined organic

> <STRUCTURE_DefinedOrganicForm>
parent

> <STRUCTURE_IUPAC>
4-methylheptan-3-ol

> <STRUCTURE_SMILES>
CC(CCC)C(O)CC

> <STRUCTURE_SMILES_Desalt>
CC(CCC)C(O)CC

> <Substance_modify_yyyymmdd>
20080825

$$$$
