149845-06-7
ChemmineR-0915142007XD

 56 59  0  0  1  0  0  0  0  0  1 V2000
   14.9741   -5.7352    0.0000 N   0  0  0  0  0  0  0  0  0  0  0  0
   16.1289   -5.0696    0.0000 C   0  0  0  0  0  0  0  0  0  0  0  0
   14.9741   -7.0662    0.0000 C   0  0  0  0  0  0  0  0  0  0  0  0
   13.8192   -5.0696    0.0000 C   0  0  0  0  0  0  0  0  0  0  0  0
   17.2642   -5.7352    0.0000 C   0  0  0  0  0  0  0  0  0  0  0  0
   16.1289   -3.7386    0.0000 C   0  0  0  0  0  0  0  0  0  0  0  0
   16.1289   -7.7317    0.0000 C   0  0  0  0  0  0  0  0  0  0  0  0
   12.6643   -5.7352    0.0000 C   0  0  0  0  0  0  0  0  0  0  0  0
   17.2642   -7.0662    0.0000 C   0  0  0  0  0  0  0  0  0  0  0  0
   17.2642   -3.0927    0.0000 N   0  0  0  0  0  0  0  0  0  0  0  0
   14.9741   -3.0927    0.0000 O   0  0  0  0  0  0  0  0  0  0  0  0
   16.1289   -9.0627    0.0000 C   0  0  0  0  0  0  0  0  0  0  0  0
   11.5290   -5.0696    0.0000 C   0  0  0  0  0  0  0  0  0  0  0  0
   12.6643   -7.0662    0.0000 O   0  0  0  0  0  0  0  0  0  0  0  0
   18.4191   -7.7317    0.0000 C   0  0  0  0  0  0  0  0  0  0  0  0
   18.4191   -3.7386    0.0000 C   0  0  0  0  0  0  0  0  0  0  0  0
   17.2642   -9.7282    0.0000 C   0  0  0  0  0  0  0  0  0  0  0  0
   11.5290   -2.9165    0.0000 C   0  0  0  0  0  0  0  0  0  0  0  0
   10.3546   -5.7352    0.0000 N   0  0  0  0  0  0  0  0  0  0  0  0
   18.4191   -9.0627    0.0000 C   0  0  0  0  0  0  0  0  0  0  0  0
   19.0846   -2.5838    0.0000 C   0  0  0  0  0  0  0  0  0  0  0  0
   17.7536   -4.8935    0.0000 C   0  0  0  0  0  0  0  0  0  0  0  0
   19.5739   -4.4041    0.0000 C   0  0  0  0  0  0  0  0  0  0  0  0
   10.3546   -2.4272    0.0000 C   0  0  0  0  0  0  0  0  0  0  0  0
    9.2193   -5.0696    0.0000 C   0  0  0  0  0  0  0  0  0  0  0  0
   10.3546   -1.0961    0.0000 C   0  0  0  0  0  0  0  0  0  0  0  0
    9.2193   -3.0927    0.0000 C   0  0  0  0  0  0  0  0  0  0  0  0
    8.0645   -5.7352    0.0000 C   0  0  0  0  0  0  0  0  0  0  0  0
    9.2193   -3.7386    0.0000 O   0  0  0  0  0  0  0  0  0  0  0  0
    9.2193   -0.4306    0.0000 C   0  0  0  0  0  0  0  0  0  0  0  0
    8.0645   -2.4272    0.0000 C   0  0  0  0  0  0  0  0  0  0  0  0
    6.9096   -5.0696    0.0000 N   0  0  0  0  0  0  0  0  0  0  0  0
    8.0645   -7.0662    0.0000 C   0  0  0  0  0  0  0  0  0  0  0  0
    8.0645   -1.0961    0.0000 C   0  0  0  0  0  0  0  0  0  0  0  0
    5.7547   -5.7352    0.0000 C   0  0  0  0  0  0  0  0  0  0  0  0
    9.2193   -7.7317    0.0000 C   0  0  0  0  0  0  0  0  0  0  0  0
    4.6194   -5.0696    0.0000 C   0  0  0  0  0  0  0  0  0  0  0  0
    5.7547   -7.0662    0.0000 O   0  0  0  0  0  0  0  0  0  0  0  0
    9.2193   -9.0627    0.0000 N   0  0  0  0  0  0  0  0  0  0  0  0
   10.3546   -7.0662    0.0000 O   0  0  0  0  0  0  0  0  0  0  0  0
    3.4450   -5.7352    0.0000 N   0  0  0  0  0  0  0  0  0  0  0  0
    4.6194   -3.7386    0.0000 C   0  0  0  0  0  0  0  0  0  0  0  0
    2.3097   -5.0696    0.0000 C   0  0  0  0  0  0  0  0  0  0  0  0
    3.4450   -3.0927    0.0000 C   0  0  0  0  0  0  0  0  0  0  0  0
    2.3097   -3.7386    0.0000 C   0  0  0  0  0  0  0  0  0  0  0  0
    1.1549   -5.7352    0.0000 C   0  0  0  0  0  0  0  0  0  0  0  0
    1.1549   -3.0927    0.0000 C   0  0  0  0  0  0  0  0  0  0  0  0
    0.0000   -5.0696    0.0000 C   0  0  0  0  0  0  0  0  0  0  0  0
    0.0000   -3.7386    0.0000 C   0  0  0  0  0  0  0  0  0  0  0  0
   18.4191   -6.4007    0.0000 H   0  0  0  0  0  0  0  0  0  0  0  0
   14.9741   -8.3776    0.0000 H   0  0  0  0  0  0  0  0  0  0  0  0
    5.9505   -1.1744    0.0000 S   0  0  0  0  0  0  0  0  0  0  0  0
    5.9505    0.0000    0.0000 O   0  0  0  0  0  0  0  0  0  0  0  0
    5.9505   -2.3293    0.0000 O   0  0  0  0  0  0  0  0  0  0  0  0
    7.1053   -1.1744    0.0000 O   0  0  0  0  0  0  0  0  0  0  0  0
    4.7760   -1.1744    0.0000 C   0  0  0  0  0  0  0  0  0  0  0  0
  1  2  1  0  0  0  0
  1  3  1  0  0  0  0
  1  4  1  0  0  0  0
  2  5  1  0  0  0  0
  2  6  1  6  0  0  0
  3  7  1  0  0  0  0
  4  8  1  0  0  0  0
  5  9  1  0  0  0  0
  6 10  1  0  0  0  0
  6 11  2  0  0  0  0
  7 12  1  0  0  0  0
  7  9  1  0  0  0  0
  7 51  1  1  0  0  0
  8 13  1  0  0  0  0
  8 14  1  1  0  0  0
  9 15  1  0  0  0  0
  9 50  1  1  0  0  0
 10 16  1  0  0  0  0
 12 17  1  0  0  0  0
 13 18  1  1  0  0  0
 13 19  1  0  0  0  0
 15 20  1  0  0  0  0
 16 21  1  0  0  0  0
 16 22  1  0  0  0  0
 16 23  1  0  0  0  0
 17 20  1  0  0  0  0
 18 24  1  0  0  0  0
 19 25  1  0  0  0  0
 24 26  2  0  0  0  0
 24 27  1  0  0  0  0
 25 28  1  0  0  0  0
 25 29  2  0  0  0  0
 26 30  1  0  0  0  0
 27 31  2  0  0  0  0
 28 32  1  0  0  0  0
 28 33  1  6  0  0  0
 30 34  2  0  0  0  0
 31 34  1  0  0  0  0
 32 35  1  0  0  0  0
 33 36  1  0  0  0  0
 35 37  1  0  0  0  0
 35 38  2  0  0  0  0
 36 39  1  0  0  0  0
 36 40  2  0  0  0  0
 37 41  2  0  0  0  0
 37 42  1  0  0  0  0
 41 43  1  0  0  0  0
 42 44  2  0  0  0  0
 43 45  2  0  0  0  0
 43 46  1  0  0  0  0
 44 45  1  0  0  0  0
 45 47  1  0  0  0  0
 46 48  2  0  0  0  0
 47 49  2  0  0  0  0
 48 49  1  0  0  0  0
 52 53  2  0  0  0  0
 52 54  2  0  0  0  0
 52 55  1  0  0  0  0
 52 56  1  0  0  0  0
M  END
> <ID>
3383

> <Formula>
C39H54N6O8S

> <FW>
766.9465 (670.8408+96.1057)

> <DSSTox_CID>
3835

> <DSSTox_RID>
77202

> <DSSTox_GSID>
23835

> <DSSTox_FileID_Sort>
1885

> <TS_ChemName>
Saquinavir mesylate

> <TS_ChemName_Synonyms>


> <TS_CASRN>
149845-06-7

> <CASRN_ChemName_Relationship>
primary

> <TS_Description>
single chemical compound

> <ChemNote>
stereochem; parent [127779-20-8]

> <STRUCTURE_Shown>
tested chemical

> <STRUCTURE_Formula>
C39H54N6O8S

> <STRUCTURE_MW>
766.9465

> <STRUCTURE_ChemType>
defined organic

> <STRUCTURE_DefinedOrganicForm>
complex

> <STRUCTURE_IUPAC>
N~1~-{(2S,3R)-4-[(3S,4aS,8aS)-3-(tert-butylcarbamoyl)octahydroisoquinolin-2(1H)-yl]-3-hydroxy-1-phenylbutan-2-yl}-N~2~-(quinolin-2-ylcarbonyl)-L-aspartamide methanesulfonate (1:1)

> <STRUCTURE_SMILES>
CS(=O)(=O)O.NC(=O)C[C@H](NC(=O)c1ccc2ccccc2n1)C(=O)N[C@@H](Cc3ccccc3)[C@H](O)CN4C[C@H]5CCCC[C@H]5C[C@H]4C(=O)NC(C)(C)C

> <STRUCTURE_SMILES_Desalt>
NC(=O)C[C@H](NC(=O)c1ccc2ccccc2n1)C(=O)N[C@@H](Cc3ccccc3)[C@H](O)CN4C[C@H]5CCCC[C@H]5C[C@H]4C(=O)NC(C)(C)C

> <Substance_modify_yyyymmdd>
20080429

$$$$
