14984-68-0
ChemmineR-0915142007XD

 24 25  0  0  0  0  0  0  0  0  1 V2000
    9.2181   -2.7390    0.0000 N    0  0  0  0  0  0  0  0  0  0  0  0
    4.6148   -2.7044    0.0000 C    0  0  0  0  0  0  0  0  0  0  0  0
    3.4410   -2.0139    0.0000 C    0  0  0  0  0  0  0  0  0  0  0  0
    4.6148   -4.0394    0.0000 C    0  0  0  0  0  0  0  0  0  0  0  0
    2.3132   -2.6929    0.0000 C    0  0  0  0  0  0  0  0  0  0  0  0
    3.4410   -0.6905    0.0000 C    0  0  0  0  0  0  0  0  0  0  0  0
    1.1738   -0.6905    0.0000 C    0  0  0  0  0  0  0  0  0  0  0  0
    5.7656   -2.0485    0.0000 O    0  0  0  0  0  0  0  0  0  0  0  0
    1.1738   -2.0139    0.0000 C    0  0  0  0  0  0  0  0  0  0  0  0
    2.3132   -0.0115    0.0000 C    0  0  0  0  0  0  0  0  0  0  0  0
    0.0000    0.0000    0.0000 Cl   0  0  0  0  0  0  0  0  0  0  0  0
    8.0673   -2.0600    0.0000 C    0  0  0  0  0  0  0  0  0  0  0  0
    6.9280   -2.7275    0.0000 C    0  0  0  0  0  0  0  0  0  0  0  0
    9.2181   -4.0739    0.0000 C    0  0  0  0  0  0  0  0  0  0  0  0
   10.3574   -2.0830    0.0000 C    0  0  0  0  0  0  0  0  0  0  0  0
    3.4640   -4.6954    0.0000 C    0  0  0  0  0  0  0  0  0  0  0  0
    5.7541   -4.6954    0.0000 C    0  0  0  0  0  0  0  0  0  0  0  0
   10.3574   -4.7414    0.0000 C    0  0  0  0  0  0  0  0  0  0  0  0
   11.5082   -2.7505    0.0000 C    0  0  0  0  0  0  0  0  0  0  0  0
    5.7541   -6.0418    0.0000 C    0  0  0  0  0  0  0  0  0  0  0  0
    3.4640   -6.0418    0.0000 C    0  0  0  0  0  0  0  0  0  0  0  0
    4.6148   -6.6978    0.0000 C    0  0  0  0  0  0  0  0  0  0  0  0
   11.5082   -4.0854    0.0000 C    0  0  0  0  0  0  0  0  0  0  0  0
    8.4585   -5.6851    0.0000 Cl   0  0  0  0  0  0  0  0  0  0  0  0
  1 12  1  0  0  0  0
  1 14  1  0  0  0  0
  1 15  1  0  0  0  0
  2  8  1  0  0  0  0
  2  3  1  0  0  0  0
  2  4  1  0  0  0  0
  3  5  1  0  0  0  0
  3  6  2  0  0  0  0
  4 16  2  0  0  0  0
  4 17  1  0  0  0  0
  5  9  2  0  0  0  0
  6 10  1  0  0  0  0
  7 10  2  0  0  0  0
  7 11  1  0  0  0  0
  7  9  1  0  0  0  0
  8 13  1  0  0  0  0
 12 13  1  0  0  0  0
 14 18  1  0  0  0  0
 15 19  1  0  0  0  0
 16 21  1  0  0  0  0
 17 20  2  0  0  0  0
 18 23  1  0  0  0  0
 19 23  1  0  0  0  0
 20 22  1  0  0  0  0
 21 22  2  0  0  0  0
M  END
> <ID>
10931

> <Formula>
C20H25Cl2NO

> <FW>
366.3246 (329.8637+36.4609)

> <DSSTox_CID>
25413

> <DSSTox_RID>
80863

> <DSSTox_GSID>
45413

> <DSSTox_FileID_Sort>
5544

> <TS_ChemName>
Cloperastine hydrochloride

> <TS_ChemName_Synonyms>


> <TS_CASRN>
14984-68-0

> <CASRN_ChemName_Relationship>
primary

> <TS_Description>
single chemical compound

> <ChemNote>
parent [3703-76-2 ]

> <STRUCTURE_Shown>
tested chemical

> <STRUCTURE_Formula>
C20H25Cl2NO

> <STRUCTURE_MW>
366.3246

> <STRUCTURE_ChemType>
defined organic

> <STRUCTURE_DefinedOrganicForm>
complex

> <STRUCTURE_IUPAC>
1-{2-[(4-chlorophenyl)(phenyl)methoxy]ethyl}piperidine hydrochloride (1:1)

> <STRUCTURE_SMILES>
Cl.Clc1ccc(cc1)C(OCCN2CCCCC2)c3ccccc3

> <STRUCTURE_SMILES_Desalt>
Clc1ccc(cc1)C(OCCN2CCCCC2)c3ccccc3

> <Substance_modify_yyyymmdd>
20100107

$$$$
