1498-51-7
ChemmineR-0915142007XD

  7  6  0  0  0  0  0  0  0  0  1 V2000
    1.3302   -1.3302    0.0000 P    0  0  0  0  0  0  0  0  0  0  0  0
    1.3302    0.0000    0.0000 O    0  0  0  0  0  0  0  0  0  0  0  0
    1.3302   -2.6603    0.0000 O    0  0  0  0  0  0  0  0  0  0  0  0
    2.6603   -1.3302    0.0000 Cl   0  0  0  0  0  0  0  0  0  0  0  0
    0.0000   -1.3302    0.0000 Cl   0  0  0  0  0  0  0  0  0  0  0  0
    0.1767   -3.3208    0.0000 C    0  0  0  0  0  0  0  0  0  0  0  0
    0.1767   -4.6510    0.0000 C    0  0  0  0  0  0  0  0  0  0  0  0
  1  2  2  0  0  0  0
  1  3  1  0  0  0  0
  1  5  1  0  0  0  0
  1  4  1  0  0  0  0
  3  6  1  0  0  0  0
  6  7  1  0  0  0  0
M  END
> <ID>
5137

> <Formula>
C2H5Cl2O2P

> <FW>
162.9397

> <DSSTox_CID>
7407

> <DSSTox_RID>
78443

> <DSSTox_GSID>
27407

> <DSSTox_FileID_Sort>
3126

> <TS_ChemName>
Ethyl dichlorophosphate

> <TS_ChemName_Synonyms>
Ethyl dichlorophosphate (Phosphorodichloridic acid, ethyl ester)

> <TS_CASRN>
1498-51-7

> <CASRN_ChemName_Relationship>
primary

> <TS_Description>
single chemical compound

> <ChemNote>


> <STRUCTURE_Shown>
tested chemical

> <STRUCTURE_Formula>
C2H5Cl2O2P

> <STRUCTURE_MW>
162.9397

> <STRUCTURE_ChemType>
defined organic

> <STRUCTURE_DefinedOrganicForm>
parent

> <STRUCTURE_IUPAC>
ethyl phosphorodichloridate

> <STRUCTURE_SMILES>
ClP(Cl)(=O)OCC

> <STRUCTURE_SMILES_Desalt>
ClP(Cl)(=O)OCC

> <Substance_modify_yyyymmdd>
20080429

$$$$
