149877-41-8
ChemmineR-0915142007XD

 22 23  0  0  0  0  0  0  0  0  1 V2000
    2.2940   -3.3333    0.0000 O   0  0  0  0  0  0  0  0  0  0  0  0
    3.4474   -3.9923    0.0000 C   0  0  0  0  0  0  0  0  0  0  0  0
    4.6007   -3.3333    0.0000 N   0  0  0  0  0  0  0  0  0  0  0  0
    5.7540   -3.9923    0.0000 N   0  0  0  0  0  0  0  0  0  0  0  0
    9.2267   -3.3333    0.0000 C   0  0  0  0  0  0  0  0  0  0  0  0
    8.0734   -3.9923    0.0000 C   0  0  0  0  0  0  0  0  0  0  0  0
    9.2267   -2.0025    0.0000 C   0  0  0  0  0  0  0  0  0  0  0  0
    6.9201   -3.3333    0.0000 C   0  0  0  0  0  0  0  0  0  0  0  0
    8.0734   -1.3308    0.0000 C   0  0  0  0  0  0  0  0  0  0  0  0
    6.9201   -2.0025    0.0000 C   0  0  0  0  0  0  0  0  0  0  0  0
   10.3801   -3.9923    0.0000 C   0  0  0  0  0  0  0  0  0  0  0  0
   11.5207   -3.3333    0.0000 C   0  0  0  0  0  0  0  0  0  0  0  0
   10.3801   -5.3231    0.0000 C   0  0  0  0  0  0  0  0  0  0  0  0
   12.6741   -3.9923    0.0000 C   0  0  0  0  0  0  0  0  0  0  0  0
   11.5207   -5.9948    0.0000 C   0  0  0  0  0  0  0  0  0  0  0  0
   12.6741   -5.3231    0.0000 C   0  0  0  0  0  0  0  0  0  0  0  0
    5.7540   -1.3308    0.0000 O   0  0  0  0  0  0  0  0  0  0  0  0
    5.7540    0.0000    0.0000 C   0  0  0  0  0  0  0  0  0  0  0  0
    3.4474   -5.3231    0.0000 O   0  0  0  0  0  0  0  0  0  0  0  0
    1.1533   -3.9923    0.0000 C   0  0  0  0  0  0  0  0  0  0  0  0
    0.0000   -3.3333    0.0000 C   0  0  0  0  0  0  0  0  0  0  0  0
    1.1533   -5.3231    0.0000 C   0  0  0  0  0  0  0  0  0  0  0  0
  1  2  1  0  0  0  0
  1 20  1  0  0  0  0
  2  3  1  0  0  0  0
  2 19  2  0  0  0  0
  3  4  1  0  0  0  0
  4  8  1  0  0  0  0
  5 11  1  0  0  0  0
  5  6  2  0  0  0  0
  5  7  1  0  0  0  0
  6  8  1  0  0  0  0
  7  9  2  0  0  0  0
  8 10  2  0  0  0  0
  9 10  1  0  0  0  0
 10 17  1  0  0  0  0
 11 12  2  0  0  0  0
 11 13  1  0  0  0  0
 12 14  1  0  0  0  0
 13 15  2  0  0  0  0
 14 16  2  0  0  0  0
 15 16  1  0  0  0  0
 17 18  1  0  0  0  0
 20 21  1  0  0  0  0
 20 22  1  0  0  0  0
M  END
> <ID>
6494

> <Formula>
C17H20N2O3

> <FW>
300.3523

> <DSSTox_CID>
12525

> <DSSTox_RID>
78968

> <DSSTox_GSID>
32525

> <DSSTox_FileID_Sort>
3650

> <TS_ChemName>
Bifenazate

> <TS_ChemName_Synonyms>
Bifenazate (Hydrazinecarboxylic acid, 2-(4-methoxy{1,1'-biphenyl}-3-yl)-, 1-methylethyl ester) (isopropyl 2-(4-methoxybiphenyl-3-yl)hydrazinoformate)

> <TS_CASRN>
149877-41-8

> <CASRN_ChemName_Relationship>
primary

> <TS_Description>
single chemical compound

> <ChemNote>


> <STRUCTURE_Shown>
tested chemical

> <STRUCTURE_Formula>
C17H20N2O3

> <STRUCTURE_MW>
300.3523

> <STRUCTURE_ChemType>
defined organic

> <STRUCTURE_DefinedOrganicForm>
parent

> <STRUCTURE_IUPAC>
propan-2-yl 2-(4-methoxybiphenyl-3-yl)hydrazinecarboxylate

> <STRUCTURE_SMILES>
COc1ccc(cc1NNC(=O)OC(C)C)c2ccccc2

> <STRUCTURE_SMILES_Desalt>
COc1ccc(cc1NNC(=O)OC(C)C)c2ccccc2

> <Substance_modify_yyyymmdd>
20080429

$$$$
