149838-23-3
ChemmineR-0915142007XD

 17 17  0  0  1  0  0  0  0  0  2 V2000
    6.8721   -6.8721    0.0000 C   0  0  0  0  0  0  0  0  0  0  0  0
    5.5612   -6.5953    0.0000 C   0  0  0  0  0  0  0  0  0  0  0  0
    5.1541   -5.3251    0.0000 C   0  0  0  0  0  0  0  0  0  0  0  0
    6.0335   -4.3480    0.0000 C   0  0  0  0  0  0  0  0  0  0  0  0
    7.3444   -4.6249    0.0000 O   0  0  0  0  0  0  0  0  0  0  0  0
    3.8513   -5.0564    0.0000 O   0  0  0  0  0  0  0  0  0  0  0  0
    3.4442   -3.7943    0.0000 C   0  0  0  0  0  0  0  0  0  0  0  0
    2.1414   -3.5175    0.0000 N   0  0  0  0  0  0  0  0  0  0  0  0
    1.1562   -4.4050    0.0000 C   0  0  0  0  0  0  0  0  0  0  0  0
    0.0000   -3.7373    0.0000 C   0  0  0  0  0  0  0  0  0  0  0  0
    0.2687   -2.4346    0.0000 N   0  0  0  0  0  0  0  0  0  0  0  0
    1.5959   -2.3124    0.0000 C   0  0  0  0  0  0  0  0  0  0  0  0
    2.2636   -1.1562    0.0000 N   0  3  0  0  0  0  0  0  0  0  0  0
    3.5826   -1.1481    0.0000 O   0  0  0  0  0  0  0  0  0  0  0  0
    1.5959    0.0000    0.0000 O   0  5  0  0  0  0  0  0  0  0  0  0
    4.6737   -7.5805    0.0000 O   0  0  0  0  0  0  0  0  0  0  0  0
    7.2711   -8.1424    0.0000 O   0  0  0  0  0  0  0  0  0  0  0  0
  1  2  1  0  0  0  0
  1 17  1  0  0  0  0
  2  3  1  0  0  0  0
  2 16  1  1  0  0  0
  3  4  1  1  0  0  0
  3  6  1  0  0  0  0
  4  5  1  0  0  0  0
  6  7  1  0  0  0  0
  7  8  1  0  0  0  0
  8  9  1  0  0  0  0
  8 12  1  0  0  0  0
  9 10  2  0  0  0  0
 10 11  1  0  0  0  0
 11 12  2  0  0  0  0
 12 13  1  0  0  0  0
 13 14  2  0  0  0  0
 13 15  1  0  0  0  0
M  END
> <ID>
13806

> <Formula>
C8H13N3O6

> <FW>
247.2053

> <DSSTox_CID>
28743

> <DSSTox_RID>
83012

> <DSSTox_GSID>
48817

> <DSSTox_FileID_Sort>
7689

> <TS_ChemName>
Doranidazole

> <TS_ChemName_Synonyms>


> <TS_CASRN>
149838-23-3

> <CASRN_ChemName_Relationship>
primary

> <TS_Description>
single chemical compound

> <ChemNote>
stereochem

> <STRUCTURE_Shown>
tested chemical

> <STRUCTURE_Formula>
C8H13N3O6

> <STRUCTURE_MW>
247.2053

> <STRUCTURE_ChemType>
defined organic

> <STRUCTURE_DefinedOrganicForm>
parent

> <STRUCTURE_IUPAC>
(2R,3S)-3-[(2-nitro-1H-imidazol-1-yl)methoxy]butane-1,2,4-triol

> <STRUCTURE_SMILES>
OC[C@@H](O)[C@H](CO)OCn1ccnc1[N+]([O-])=O

> <STRUCTURE_SMILES_Desalt>
OC[C@@H](O)[C@H](CO)OCn1ccnc1[N+]([O-])=O

> <Substance_modify_yyyymmdd>
20111204

$$$$
