14992-59-7
ChemmineR-0915142007XD

 23 23  0  0  0  0  0  0  0  0  2 V2000
    4.4714   -3.4171    0.0000 C    0  0  0  0  0  0  0  0  0  0  0  0
    4.4714   -4.7804    0.0000 C    0  0  0  0  0  0  0  0  0  0  0  0
    3.2899   -2.7446    0.0000 C    0  0  0  0  0  0  0  0  0  0  0  0
    3.2899   -5.4711    0.0000 C    0  0  0  0  0  0  0  0  0  0  0  0
    2.0994   -3.4171    0.0000 C    0  0  0  0  0  0  0  0  0  0  0  0
    2.0994   -4.7985    0.0000 C    0  0  0  0  0  0  0  0  0  0  0  0
    5.6346   -2.7264    0.0000 C    0  0  0  0  0  0  0  0  0  0  0  0
    6.8161   -3.4171    0.0000 C    0  0  0  0  0  0  0  0  0  0  0  0
    5.6528   -5.4711    0.0000 C    0  0  0  0  0  0  0  0  0  0  0  0
    6.8161   -4.7804    0.0000 C    0  0  0  0  0  0  0  0  0  0  0  0
    7.7431   -3.2535    0.0000 C    0  0  0  0  0  0  0  0  0  0  0  0
    8.8064   -4.0897    0.0000 C    0  0  0  0  0  0  0  0  0  0  0  0
    8.1884   -1.9358    0.0000 C    0  0  0  0  0  0  0  0  0  0  0  0
    1.3450   -5.2620    0.0000 C    0  0  0  0  0  0  0  0  0  0  0  0
    1.3178   -6.6071    0.0000 C    0  0  0  0  0  0  0  0  0  0  0  0
    0.0000   -4.6713    0.0000 C    0  0  0  0  0  0  0  0  0  0  0  0
    5.6165   -1.3632    0.0000 S    0  0  0  0  0  0  0  0  0  0  0  0
    5.6165    0.0000    0.0000 O    0  0  0  0  0  0  0  0  0  0  0  0
    4.2532   -1.3814    0.0000 O    0  0  0  0  0  0  0  0  0  0  0  0
    6.9888   -1.3632    0.0000 O    0  5  0  0  0  0  0  0  0  0  0  0
    0.1636   -5.9527    0.0000 C    0  0  0  0  0  0  0  0  0  0  0  0
    9.0881   -3.0445    0.0000 C    0  0  0  0  0  0  0  0  0  0  0  0
    7.2978   -0.0636    0.0000 Na   0  3  0  0  0  0  0  0  0  0  0  0
  1  3  2  0  0  0  0
  1  7  1  0  0  0  0
  1  2  1  0  0  0  0
  2  4  2  0  0  0  0
  2  9  1  0  0  0  0
  3  5  1  0  0  0  0
  4  6  1  0  0  0  0
  5  6  2  0  0  0  0
  6 14  1  0  0  0  0
  7  8  2  0  0  0  0
  7 17  1  0  0  0  0
  8 10  1  0  0  0  0
  8 11  1  0  0  0  0
  9 10  2  0  0  0  0
 11 12  1  0  0  0  0
 11 13  1  0  0  0  0
 11 22  1  0  0  0  0
 14 15  1  0  0  0  0
 14 16  1  0  0  0  0
 14 21  1  0  0  0  0
 17 18  2  0  0  0  0
 17 19  2  0  0  0  0
 17 20  1  0  0  0  0
M  END
> <ID>
12066

> <Formula>
C18H23NaO3S

> <FW>
342.4282 (319.4390+22.9892)

> <DSSTox_CID>
26905

> <DSSTox_RID>
82004

> <DSSTox_GSID>
46905

> <DSSTox_FileID_Sort>
6685

> <TS_ChemName>
Sodium dibunate

> <TS_ChemName_Synonyms>


> <TS_CASRN>
14992-59-7

> <CASRN_ChemName_Relationship>
primary

> <TS_Description>
single chemical compound

> <ChemNote>
parent [14992-58-6]

> <STRUCTURE_Shown>
tested chemical

> <STRUCTURE_Formula>
C18H23NaO3S

> <STRUCTURE_MW>
342.4282

> <STRUCTURE_ChemType>
defined organic

> <STRUCTURE_DefinedOrganicForm>
salt

> <STRUCTURE_IUPAC>
sodium 2,6-di-tert-butylnaphthalene-1-sulfonate

> <STRUCTURE_SMILES>
[Na+].CC(C)(C)c1ccc2c(c1)ccc(c2S([O-])(=O)=O)C(C)(C)C

> <STRUCTURE_SMILES_Desalt>
CC(C)(C)c1ccc2c(c1)ccc(c2S(=O)(=O)O)C(C)(C)C

> <Substance_modify_yyyymmdd>
20110726

$$$$
