149979-41-9
ChemmineR-0915142007XD

 23 24  0  0  0  0  0  0  0  0  1 V2000
    4.5938   -1.8961    0.0000 C    0  0  0  0  0  0  0  0  0  0  0  0
    5.7518   -2.5960    0.0000 C    0  0  0  0  0  0  0  0  0  0  0  0
    5.7518   -3.9321    0.0000 C    0  0  0  0  0  0  0  0  0  0  0  0
    4.5938   -4.6447    0.0000 C    0  0  0  0  0  0  0  0  0  0  0  0
    3.4358   -3.9321    0.0000 C    0  0  0  0  0  0  0  0  0  0  0  0
    3.4358   -2.5960    0.0000 C    0  0  0  0  0  0  0  0  0  0  0  0
    4.5938   -0.6108    0.0000 O    0  0  0  0  0  0  0  0  0  0  0  0
    6.9098   -1.9597    0.0000 C    0  0  0  0  0  0  0  0  0  0  0  0
    6.9098   -0.6490    0.0000 C    0  0  0  0  0  0  0  0  0  0  0  0
    8.0806    0.0000    0.0000 C    0  0  0  0  0  0  0  0  0  0  0  0
    8.0551   -2.6596    0.0000 N    0  0  0  0  0  0  0  0  0  0  0  0
    9.2895   -2.0233    0.0000 O    0  0  0  0  0  0  0  0  0  0  0  0
   10.4220   -2.6596    0.0000 C    0  0  0  0  0  0  0  0  0  0  0  0
   11.5673   -2.0233    0.0000 C    0  0  0  0  0  0  0  0  0  0  0  0
   11.5673   -0.6744    0.0000 C    0  0  0  0  0  0  0  0  0  0  0  0
   12.7253   -0.0382    0.0000 Cl   0  0  0  0  0  0  0  0  0  0  0  0
    6.9098   -4.5811    0.0000 O    0  0  0  0  0  0  0  0  0  0  0  0
    0.0000   -5.8918    0.0000 O    0  0  0  0  0  0  0  0  0  0  0  0
    0.0000   -4.5811    0.0000 C    0  0  0  0  0  0  0  0  0  0  0  0
    1.1325   -3.9194    0.0000 C    0  0  0  0  0  0  0  0  0  0  0  0
    2.2906   -4.5811    0.0000 C    0  0  0  0  0  0  0  0  0  0  0  0
    2.2906   -5.8918    0.0000 C    0  0  0  0  0  0  0  0  0  0  0  0
    1.1325   -6.5535    0.0000 C    0  0  0  0  0  0  0  0  0  0  0  0
  1  2  1  0  0  0  0
  1  6  1  0  0  0  0
  1  7  2  0  0  0  0
  2  3  2  0  0  0  0
  2  8  1  0  0  0  0
  3  4  1  0  0  0  0
  3 17  1  0  0  0  0
  4  5  1  0  0  0  0
  5  6  1  0  0  0  0
  5 21  1  0  0  0  0
  8  9  1  0  0  0  0
  8 11  2  0  0  0  0
  9 10  1  0  0  0  0
 11 12  1  0  0  0  0
 12 13  1  0  0  0  0
 13 14  1  0  0  0  0
 14 15  2  0  0  0  0
 15 16  1  0  0  0  0
 18 19  1  0  0  0  0
 18 23  1  0  0  0  0
 19 20  1  0  0  0  0
 20 21  1  0  0  0  0
 21 22  1  0  0  0  0
 22 23  1  0  0  0  0
M  END
> <ID>
6697

> <Formula>
C17H24ClNO4

> <FW>
341.8298

> <DSSTox_CID>
14252

> <DSSTox_RID>
79131

> <DSSTox_GSID>
34252

> <DSSTox_FileID_Sort>
3813

> <TS_ChemName>
Tepraloxydim

> <TS_ChemName_Synonyms>
Tepraloxydim (2-Cyclohexen-1-one, 2-{1-{{(3-chloro-2-propenyl)oxy}imino}propyl}-3-hydroxy-5-(tetrahydro-2H-pyran-4-yl)-,(E,Z)-)

> <TS_CASRN>
149979-41-9

> <CASRN_ChemName_Relationship>
primary

> <TS_Description>
single chemical compound

> <ChemNote>
stereochem

> <STRUCTURE_Shown>
tested chemical

> <STRUCTURE_Formula>
C17H24ClNO4

> <STRUCTURE_MW>
341.8298

> <STRUCTURE_ChemType>
defined organic

> <STRUCTURE_DefinedOrganicForm>
parent

> <STRUCTURE_IUPAC>
2-[(1E)-N-{[(2E)-3-chloroprop-2-en-1-yl]oxy}propanimidoyl]-3-hydroxy-5-(tetrahydro-2H-pyran-4-yl)cyclohex-2-en-1-one

> <STRUCTURE_SMILES>
CC/C(=N\OC\C=C\Cl)C=1C(=O)CC(CC=1O)C2CCOCC2

> <STRUCTURE_SMILES_Desalt>
CC/C(=N\OC\C=C\Cl)C=1C(=O)CC(CC=1O)C2CCOCC2

> <Substance_modify_yyyymmdd>
20080429

$$$$
