150-78-7
ChemmineR-0915142007XD

 10 10  0  0  0  0  0  0  0  0  1 V2000
    0.0000    0.0000    0.0000 C   0  0  0  0  0  0  0  0  0  0  0  0
    0.6654   -1.1511    0.0000 O   0  0  0  0  0  0  0  0  0  0  0  0
    1.9961   -1.1511    0.0000 C   0  0  0  0  0  0  0  0  0  0  0  0
    2.6614    0.0000    0.0000 C   0  0  0  0  0  0  0  0  0  0  0  0
    3.9921    0.0000    0.0000 C   0  0  0  0  0  0  0  0  0  0  0  0
    4.6575   -1.1511    0.0000 C   0  0  0  0  0  0  0  0  0  0  0  0
    5.9882   -1.1511    0.0000 O   0  0  0  0  0  0  0  0  0  0  0  0
    6.6535   -2.3021    0.0000 C   0  0  0  0  0  0  0  0  0  0  0  0
    3.9921   -2.3021    0.0000 C   0  0  0  0  0  0  0  0  0  0  0  0
    2.6614   -2.3021    0.0000 C   0  0  0  0  0  0  0  0  0  0  0  0
  1  2  1  0  0  0  0
  2  3  1  0  0  0  0
  3  4  2  0  0  0  0
  3 10  1  0  0  0  0
  4  5  1  0  0  0  0
  5  6  2  0  0  0  0
  6  7  1  0  0  0  0
  6  9  1  0  0  0  0
  7  8  1  0  0  0  0
  9 10  2  0  0  0  0
M  END
> <ID>
1864

> <Formula>
C8H10O2

> <FW>
138.1638

> <DSSTox_CID>
2014

> <DSSTox_RID>
76460

> <DSSTox_GSID>
22014

> <DSSTox_FileID_Sort>
1144

> <TS_ChemName>
Hydroquinone dimethyl ether

> <TS_ChemName_Synonyms>
Hydroquinone dimethyl ether (p-Dimethoxybenzene) (1,4-Dimethoxy-benzene)

> <TS_CASRN>
150-78-7

> <CASRN_ChemName_Relationship>
primary

> <TS_Description>
single chemical compound

> <ChemNote>


> <STRUCTURE_Shown>
tested chemical

> <STRUCTURE_Formula>
C8H10O2

> <STRUCTURE_MW>
138.1638

> <STRUCTURE_ChemType>
defined organic

> <STRUCTURE_DefinedOrganicForm>
parent

> <STRUCTURE_IUPAC>
1,4-dimethoxybenzene

> <STRUCTURE_SMILES>
COc1ccc(OC)cc1

> <STRUCTURE_SMILES_Desalt>
COc1ccc(OC)cc1

> <Substance_modify_yyyymmdd>
20080429

$$$$
