150-69-6
ChemmineR-0915142007XD

 13 13  0  0  0  0  0  0  0  0  1 V2000
    8.0390   -0.6982    0.0000 C   0  0  0  0  0  0  0  0  0  0  0  0
    6.8998    0.0000    0.0000 N   0  0  0  0  0  0  0  0  0  0  0  0
    8.0390   -2.0304    0.0000 O   0  0  0  0  0  0  0  0  0  0  0  0
    9.1874    0.0000    0.0000 N   0  0  0  0  0  0  0  0  0  0  0  0
    5.7330   -0.6891    0.0000 C   0  0  0  0  0  0  0  0  0  0  0  0
    3.4545   -2.0304    0.0000 C   0  0  0  0  0  0  0  0  0  0  0  0
    4.5937   -0.0276    0.0000 C   0  0  0  0  0  0  0  0  0  0  0  0
    5.7330   -2.0304    0.0000 C   0  0  0  0  0  0  0  0  0  0  0  0
    3.4545   -0.6891    0.0000 C   0  0  0  0  0  0  0  0  0  0  0  0
    4.5937   -2.6735    0.0000 C   0  0  0  0  0  0  0  0  0  0  0  0
    2.2877   -2.7011    0.0000 O   0  0  0  0  0  0  0  0  0  0  0  0
    1.1392   -2.0488    0.0000 C   0  0  0  0  0  0  0  0  0  0  0  0
    0.0000   -2.7195    0.0000 C   0  0  0  0  0  0  0  0  0  0  0  0
  1  2  1  0  0  0  0
  1  3  2  0  0  0  0
  1  4  1  0  0  0  0
  2  5  1  0  0  0  0
  5  7  2  0  0  0  0
  5  8  1  0  0  0  0
  6 10  1  0  0  0  0
  6 11  1  0  0  0  0
  6  9  2  0  0  0  0
  7  9  1  0  0  0  0
  8 10  2  0  0  0  0
 11 12  1  0  0  0  0
 12 13  1  0  0  0  0
M  END
> <ID>
555

> <Formula>
C9H12N2O2

> <FW>
180.2038

> <DSSTox_CID>
580

> <DSSTox_RID>
75670

> <DSSTox_GSID>
20580

> <DSSTox_FileID_Sort>
354

> <TS_ChemName>
Dulcin

> <TS_ChemName_Synonyms>
Dulcin (4-Ethoxy-phenylurea)

> <TS_CASRN>
150-69-6

> <CASRN_ChemName_Relationship>
primary

> <TS_Description>
single chemical compound

> <ChemNote>


> <STRUCTURE_Shown>
tested chemical

> <STRUCTURE_Formula>
C9H12N2O2

> <STRUCTURE_MW>
180.2038

> <STRUCTURE_ChemType>
defined organic

> <STRUCTURE_DefinedOrganicForm>
parent

> <STRUCTURE_IUPAC>
1-(4-ethoxyphenyl)urea

> <STRUCTURE_SMILES>
CCOc1ccc(cc1)NC(N)=O

> <STRUCTURE_SMILES_Desalt>
CCOc1ccc(cc1)NC(N)=O

> <Substance_modify_yyyymmdd>
20080429

$$$$
