150-76-5
ChemmineR-0915142007XD

  9  9  0  0  0  0  0  0  0  0  1 V2000
    0.0000    0.0000    0.0000 C   0  0  0  0  0  0  0  0  0  0  0  0
    0.6638   -1.1542    0.0000 O   0  0  0  0  0  0  0  0  0  0  0  0
    1.9915   -1.1542    0.0000 C   0  0  0  0  0  0  0  0  0  0  0  0
    2.6554    0.0000    0.0000 C   0  0  0  0  0  0  0  0  0  0  0  0
    3.9890    0.0000    0.0000 C   0  0  0  0  0  0  0  0  0  0  0  0
    4.6529   -1.1542    0.0000 C   0  0  0  0  0  0  0  0  0  0  0  0
    3.9890   -2.3025    0.0000 C   0  0  0  0  0  0  0  0  0  0  0  0
    2.6554   -2.3025    0.0000 C   0  0  0  0  0  0  0  0  0  0  0  0
    5.9806   -1.1542    0.0000 O   0  0  0  0  0  0  0  0  0  0  0  0
  1  2  1  0  0  0  0
  2  3  1  0  0  0  0
  3  4  2  0  0  0  0
  3  8  1  0  0  0  0
  4  5  1  0  0  0  0
  5  6  2  0  0  0  0
  6  7  1  0  0  0  0
  6  9  1  0  0  0  0
  7  8  2  0  0  0  0
M  END
> <ID>
794

> <Formula>
C7H8O2

> <FW>
124.1372

> <DSSTox_CID>
828

> <DSSTox_RID>
75814

> <DSSTox_GSID>
20828

> <DSSTox_FileID_Sort>
498

> <TS_ChemName>
4-Methoxyphenol

> <TS_ChemName_Synonyms>
4-Methoxyphenol (Hydroquinone monomethyl ether) (p-Methoxyphenol)

> <TS_CASRN>
150-76-5

> <CASRN_ChemName_Relationship>
primary

> <TS_Description>
single chemical compound

> <ChemNote>


> <STRUCTURE_Shown>
tested chemical

> <STRUCTURE_Formula>
C7H8O2

> <STRUCTURE_MW>
124.1372

> <STRUCTURE_ChemType>
defined organic

> <STRUCTURE_DefinedOrganicForm>
parent

> <STRUCTURE_IUPAC>
4-methoxyphenol

> <STRUCTURE_SMILES>
Oc1ccc(OC)cc1

> <STRUCTURE_SMILES_Desalt>
Oc1ccc(OC)cc1

> <Substance_modify_yyyymmdd>
20080429

$$$$
