1501-27-5
ChemmineR-0915142007XD

 10  9  0  0  0  0  0  0  0  0  1 V2000
    2.2845   -1.3353    0.0000 C   0  0  0  0  0  0  0  0  0  0  0  0
    3.4267   -2.0110    0.0000 C   0  0  0  0  0  0  0  0  0  0  0  0
    4.5851   -1.3353    0.0000 C   0  0  0  0  0  0  0  0  0  0  0  0
    5.7434   -2.0110    0.0000 C   0  0  0  0  0  0  0  0  0  0  0  0
    6.9017   -1.3353    0.0000 C   0  0  0  0  0  0  0  0  0  0  0  0
    2.2845    0.0000    0.0000 O   0  0  0  0  0  0  0  0  0  0  0  0
    1.1422   -2.0110    0.0000 O   0  0  0  0  0  0  0  0  0  0  0  0
    8.0440   -2.0110    0.0000 O   0  0  0  0  0  0  0  0  0  0  0  0
    6.9017   -0.0322    0.0000 O   0  0  0  0  0  0  0  0  0  0  0  0
    0.0000   -1.3353    0.0000 C   0  0  0  0  0  0  0  0  0  0  0  0
  1  2  1  0  0  0  0
  1  7  1  0  0  0  0
  1  6  2  0  0  0  0
  2  3  1  0  0  0  0
  3  4  1  0  0  0  0
  4  5  1  0  0  0  0
  5  9  1  0  0  0  0
  5  8  2  0  0  0  0
  7 10  1  0  0  0  0
M  END
> <ID>
10243

> <Formula>
C6H10O4

> <FW>
146.1412

> <DSSTox_CID>
24589

> <DSSTox_RID>
80335

> <DSSTox_GSID>
44589

> <DSSTox_FileID_Sort>
5017

> <TS_ChemName>
5-Methoxy-5-oxopentanoic acid

> <TS_ChemName_Synonyms>
5-Methoxy-5-oxopentanoic acid (Pentanedioic acid, monomethyl ester)

> <TS_CASRN>
1501-27-5

> <CASRN_ChemName_Relationship>
primary

> <TS_Description>
single chemical compound

> <ChemNote>


> <STRUCTURE_Shown>
tested chemical

> <STRUCTURE_Formula>
C6H10O4

> <STRUCTURE_MW>
146.1412

> <STRUCTURE_ChemType>
defined organic

> <STRUCTURE_DefinedOrganicForm>
parent

> <STRUCTURE_IUPAC>
5-methoxy-5-oxopentanoic acid

> <STRUCTURE_SMILES>
OC(=O)CCCC(=O)OC

> <STRUCTURE_SMILES_Desalt>
OC(=O)CCCC(=O)OC

> <Substance_modify_yyyymmdd>
20091116

$$$$
