1501-84-4
ChemmineR-0915142007XD

 14 15  0  0  0  0  0  0  0  0  1 V2000
    0.0000   -2.7766    0.0000 C    0  0  0  0  0  0  0  0  0  0  0  0
    0.8117   -1.3883    0.0000 C    0  0  0  0  0  0  0  0  0  0  0  0
    0.0000    0.0000    0.0000 N    0  0  0  0  0  0  0  0  0  0  0  0
    2.4127   -1.3883    0.0000 C    0  0  0  0  0  0  0  0  0  0  0  0
    2.8773   -1.0412    0.0000 C    0  0  0  0  0  0  0  0  0  0  0  0
    3.3755   -1.3883    0.0000 C    0  0  0  0  0  0  0  0  0  0  0  0
    3.7842   -2.3903    0.0000 C    0  0  0  0  0  0  0  0  0  0  0  0
    4.8086   -2.7766    0.0000 C    0  0  0  0  0  0  0  0  0  0  0  0
    5.5979   -1.3883    0.0000 C    0  0  0  0  0  0  0  0  0  0  0  0
    4.8086    0.0000    0.0000 C    0  0  0  0  0  0  0  0  0  0  0  0
    3.7842   -0.4030    0.0000 C    0  0  0  0  0  0  0  0  0  0  0  0
    3.2020    0.0000    0.0000 C    0  0  0  0  0  0  0  0  0  0  0  0
    3.2020   -2.7766    0.0000 C    0  0  0  0  0  0  0  0  0  0  0  0
    1.2763   -3.8794    0.0000 Cl   0  0  0  0  0  0  0  0  0  0  0  0
  1  2  1  0  0  0  0
  2  3  1  0  0  0  0
  2  4  1  0  0  0  0
  4  5  1  0  0  0  0
  4 12  1  0  0  0  0
  4 13  1  0  0  0  0
  5  6  1  0  0  0  0
  6  7  1  0  0  0  0
  6 11  1  0  0  0  0
  7  8  1  0  0  0  0
  8  9  1  0  0  0  0
  8 13  1  0  0  0  0
  9 10  1  0  0  0  0
 10 11  1  0  0  0  0
 10 12  1  0  0  0  0
M  END
> <ID>
12903

> <Formula>
C12H22ClN

> <FW>
215.7628 (179.3018+36.4609)

> <DSSTox_CID>
27790

> <DSSTox_RID>
82564

> <DSSTox_GSID>
47813

> <DSSTox_FileID_Sort>
7242

> <TS_ChemName>
Rimantadine hydrochloride

> <TS_ChemName_Synonyms>


> <TS_CASRN>
1501-84-4

> <CASRN_ChemName_Relationship>
primary

> <TS_Description>
single chemical compound

> <ChemNote>
parent [13392-28-4]

> <STRUCTURE_Shown>
tested chemical

> <STRUCTURE_Formula>
C12H22ClN

> <STRUCTURE_MW>
215.7628

> <STRUCTURE_ChemType>
defined organic

> <STRUCTURE_DefinedOrganicForm>
complex

> <STRUCTURE_IUPAC>
1-(tricyclo[3.3.1.1~3,7~]dec-1-yl)ethanamine hydrochloride (1:1)

> <STRUCTURE_SMILES>
Cl.CC(N)C12CC3CC(C1)CC(C2)C3

> <STRUCTURE_SMILES_Desalt>
CC(N)C12CC3CC(C1)CC(C2)C3

> <Substance_modify_yyyymmdd>
20110819

$$$$
