1502-95-0
ChemmineR-0915142007XD

 29 32  0  0  1  0  0  0  0  0  1 V2000
    3.6208   -5.2266    0.0000 C    0  0  0  0  0  0  0  0  0  0  0  0
    4.7648   -5.8458    0.0000 C    0  0  0  0  0  0  0  0  0  0  0  0
    5.8878   -5.1426    0.0000 C    0  0  0  0  0  0  0  0  0  0  0  0
    3.5789   -3.9252    0.0000 C    0  0  0  0  0  0  0  0  0  0  0  0
    2.5188   -5.8878    0.0000 C    0  0  0  0  0  0  0  0  0  0  0  0
    5.1636   -3.8832    0.0000 O    0  0  0  0  0  0  0  0  0  0  0  0
    2.5503   -7.2207    0.0000 C    0  0  0  0  0  0  0  0  0  0  0  0
    4.8173   -7.1367    0.0000 C    0  0  0  0  0  0  0  0  0  0  0  0
    1.3644   -5.2581    0.0000 C    0  0  0  0  0  0  0  0  0  0  0  0
    3.6838   -7.8504    0.0000 C    0  0  0  0  0  0  0  0  0  0  0  0
    1.7212   -7.4726    0.0000 N    0  0  0  0  0  0  0  0  0  0  0  0
    2.4244   -3.2955    0.0000 C    0  0  0  0  0  0  0  0  0  0  0  0
    7.0633   -5.7933    0.0000 C    0  0  0  0  0  0  0  0  0  0  0  0
    1.3329   -3.9777    0.0000 C    0  0  0  0  0  0  0  0  0  0  0  0
    2.4979   -4.6074    0.0000 C    0  0  0  0  0  0  0  0  0  0  0  0
    8.1862   -5.1321    0.0000 O    0  0  0  0  0  0  0  0  0  0  0  0
    2.3404   -1.9941    0.0000 O    0  0  0  0  0  0  0  0  0  0  0  0
    9.3407   -5.7514    0.0000 C    0  0  0  0  0  0  0  0  0  0  0  0
    1.1125   -1.3119    0.0000 C    0  0  0  0  0  0  0  0  0  0  0  0
    1.2804   -6.8219    0.0000 C    0  0  0  0  0  0  0  0  0  0  0  0
    5.9823   -7.7874    0.0000 C    0  0  0  0  0  0  0  0  0  0  0  0
    7.0633   -7.1052    0.0000 C    0  0  0  0  0  0  0  0  0  0  0  0
   10.4952   -5.1636    0.0000 O    0  0  0  0  0  0  0  0  0  0  0  0
    1.0495    0.0000    0.0000 O    0  0  0  0  0  0  0  0  0  0  0  0
    1.1440   -8.5641    0.0000 C    0  0  0  0  0  0  0  0  0  0  0  0
    9.3512   -7.0318    0.0000 C    0  0  0  0  0  0  0  0  0  0  0  0
    0.0000   -2.0571    0.0000 C    0  0  0  0  0  0  0  0  0  0  0  0
    3.6838   -6.5385    0.0000 H    0  0  0  0  0  0  0  0  0  0  0  0
    7.3256   -2.9282    0.0000 Cl   0  0  0  0  0  0  0  0  0  0  0  0
  1  2  1  0  0  0  0
  1  4  1  0  0  0  0
  1  5  1  0  0  0  0
  1 15  1  1  0  0  0
  2  3  1  0  0  0  0
  2  8  2  0  0  0  0
  3 13  2  0  0  0  0
  3  6  1  0  0  0  0
  4  6  1  6  0  0  0
  4 12  1  0  0  0  0
  5  7  1  0  0  0  0
  5  9  1  0  0  0  0
  5 28  1  1  0  0  0
  7 10  1  0  0  0  0
  7 11  1  1  0  0  0
  8 21  1  0  0  0  0
  8 10  1  0  0  0  0
  9 14  2  0  0  0  0
 11 20  1  0  0  0  0
 11 25  1  0  0  0  0
 12 17  1  6  0  0  0
 12 14  1  0  0  0  0
 13 16  1  0  0  0  0
 13 22  1  0  0  0  0
 15 20  1  0  0  0  0
 16 18  1  0  0  0  0
 17 19  1  0  0  0  0
 18 23  2  0  0  0  0
 18 26  1  0  0  0  0
 19 24  2  0  0  0  0
 19 27  1  0  0  0  0
 21 22  2  0  0  0  0
M  END
> <ID>
13898

> <Formula>
C21H24ClNO5

> <FW>
405.8720 (369.4110+36.4609)

> <DSSTox_CID>
28835

> <DSSTox_RID>
83104

> <DSSTox_GSID>
48909

> <DSSTox_FileID_Sort>
7781

> <TS_ChemName>
(-)-Heroin hydrochloride

> <TS_ChemName_Synonyms>
3,6-Diacetylmorphine hydrochloride

> <TS_CASRN>
1502-95-0

> <CASRN_ChemName_Relationship>
primary

> <TS_Description>
single chemical compound

> <ChemNote>


> <STRUCTURE_Shown>
tested chemical

> <STRUCTURE_Formula>
C21H24ClNO5

> <STRUCTURE_MW>
405.872

> <STRUCTURE_ChemType>
defined organic

> <STRUCTURE_DefinedOrganicForm>
complex

> <STRUCTURE_IUPAC>
(5alpha,6alpha)-17-methyl-7,8-didehydro-4,5-epoxymorphinan-3,6-diyl diacetate hydrochloride (1:1)

> <STRUCTURE_SMILES>
Cl.CC(=O)Oc1ccc2C[C@H]4N(C)CC[C@@]35[C@@H](Oc1c23)[C@H](C=C[C@@H]45)OC(C)=O

> <STRUCTURE_SMILES_Desalt>
CC(=O)Oc1ccc2C[C@H]4N(C)CC[C@@]35[C@@H](Oc1c23)[C@H](C=C[C@@H]45)OC(C)=O

> <Substance_modify_yyyymmdd>
20111204

$$$$
