150399-23-8
ChemmineR-0915142007XD

 33 33  0  0  1  0  0  0  0  0  2 V2000
    3.9074   -5.1173    0.0000 C    0  0  0  0  0  0  0  0  0  0  0  0
    5.1173   -5.6330    0.0000 C    0  0  0  0  0  0  0  0  0  0  0  0
    3.0148   -6.1090    0.0000 C    0  0  0  0  0  0  0  0  0  0  0  0
    3.4908   -3.8479    0.0000 C    0  0  0  0  0  0  0  0  0  0  0  0
    4.9586   -6.9817    0.0000 C    0  0  0  0  0  0  0  0  0  0  0  0
    6.2875   -4.9983    0.0000 C    0  0  0  0  0  0  0  0  0  0  0  0
    3.6694   -7.2594    0.0000 N    0  0  0  0  0  0  0  0  0  0  0  0
    1.7058   -5.8313    0.0000 N    0  0  0  0  0  0  0  0  0  0  0  0
    2.1818   -3.5702    0.0000 N    0  0  0  0  0  0  0  0  0  0  0  0
    4.3834   -2.8561    0.0000 O    0  0  0  0  0  0  0  0  0  0  0  0
    7.4379   -5.6330    0.0000 C    0  0  0  0  0  0  0  0  0  0  0  0
    1.3091   -4.5619    0.0000 C    0  0  0  0  0  0  0  0  0  0  0  0
    8.6081   -4.9983    0.0000 C    0  0  0  0  0  0  0  0  0  0  0  0
    0.0000   -4.2842    0.0000 N    0  0  0  0  0  0  0  0  0  0  0  0
    8.6081   -3.6495    0.0000 C    0  0  0  0  0  0  0  0  0  0  0  0
    9.7585   -5.6330    0.0000 C    0  0  0  0  0  0  0  0  0  0  0  0
    9.7585   -2.9950    0.0000 C    0  0  0  0  0  0  0  0  0  0  0  0
   10.8891   -4.9983    0.0000 C    0  0  0  0  0  0  0  0  0  0  0  0
   10.8891   -3.6495    0.0000 C    0  0  0  0  0  0  0  0  0  0  0  0
   12.0394   -2.9950    0.0000 C    0  0  0  0  0  0  0  0  0  0  0  0
   13.1700   -3.6495    0.0000 N    0  0  0  0  0  0  0  0  0  0  0  0
   12.0394   -1.6661    0.0000 O    0  0  0  0  0  0  0  0  0  0  0  0
   14.3204   -2.9950    0.0000 C    0  0  0  0  0  0  0  0  0  0  0  0
   15.5105   -3.6495    0.0000 C    0  0  0  0  0  0  0  0  0  0  0  0
   14.3204   -1.6661    0.0000 C    0  0  0  0  0  0  0  0  0  0  0  0
   16.6608   -2.9950    0.0000 C    0  0  0  0  0  0  0  0  0  0  0  0
   13.1700   -0.9917    0.0000 O    0  0  0  0  0  0  0  0  0  0  0  0
   15.5105   -0.9917    0.0000 O    0  5  0  0  0  0  0  0  0  0  0  0
   17.8112   -3.6495    0.0000 C    0  0  0  0  0  0  0  0  0  0  0  0
   18.9616   -2.9950    0.0000 O    0  0  0  0  0  0  0  0  0  0  0  0
   17.8112   -4.9983    0.0000 O    0  5  0  0  0  0  0  0  0  0  0  0
   19.8343   -4.3636    0.0000 Na   0  3  0  0  0  0  0  0  0  0  0  0
   14.6377    0.0000    0.0000 Na   0  3  0  0  0  0  0  0  0  0  0  0
  1  2  1  0  0  0  0
  1  3  2  0  0  0  0
  1  4  1  0  0  0  0
  2  5  2  0  0  0  0
  2  6  1  0  0  0  0
  3  7  1  0  0  0  0
  3  8  1  0  0  0  0
  4  9  1  0  0  0  0
  4 10  2  0  0  0  0
  5  7  1  0  0  0  0
  6 11  1  0  0  0  0
  8 12  1  0  0  0  0
  9 12  2  0  0  0  0
 11 13  1  0  0  0  0
 12 14  1  0  0  0  0
 13 15  1  0  0  0  0
 13 16  2  0  0  0  0
 15 17  2  0  0  0  0
 16 18  1  0  0  0  0
 17 19  1  0  0  0  0
 18 19  2  0  0  0  0
 19 20  1  0  0  0  0
 20 21  1  0  0  0  0
 20 22  2  0  0  0  0
 21 23  1  0  0  0  0
 23 24  1  0  0  0  0
 23 25  1  6  0  0  0
 24 26  1  0  0  0  0
 25 27  2  0  0  0  0
 25 28  1  0  0  0  0
 26 29  1  0  0  0  0
 29 30  2  0  0  0  0
 29 31  1  0  0  0  0
M  END
> <ID>
11868

> <Formula>
C20H19N5Na2O6

> <FW>
471.3743 (425.3959+22.9892+22.9892)

> <DSSTox_CID>
26660

> <DSSTox_RID>
81803

> <DSSTox_GSID>
46660

> <DSSTox_FileID_Sort>
6484

> <TS_ChemName>
Pemetrexed disodium

> <TS_ChemName_Synonyms>


> <TS_CASRN>
150399-23-8

> <CASRN_ChemName_Relationship>
primary

> <TS_Description>
single chemical compound

> <ChemNote>
stereochem; tautomers; parent [137281-23-3]

> <STRUCTURE_Shown>
tested chemical

> <STRUCTURE_Formula>
C20H19N5Na2O6

> <STRUCTURE_MW>
471.3743

> <STRUCTURE_ChemType>
defined organic

> <STRUCTURE_DefinedOrganicForm>
salt complex

> <STRUCTURE_IUPAC>
disodium (2S)-2-({4-[2-(2-amino-4-oxo-4,7-dihydro-1H-pyrrolo[2,3-d]pyrimidin-5-yl)ethyl]benzoyl}amino)pentanedioate

> <STRUCTURE_SMILES>
[Na+].[Na+].[O-]C(=O)[C@H](CCC([O-])=O)NC(=O)c1ccc(cc1)CCc2cnc3NC(N)=NC(=O)c23

> <STRUCTURE_SMILES_Desalt>
O=C(O)[C@H](CCC(=O)O)NC(=O)c1ccc(cc1)CCc2cnc3NC(N)=NC(=O)c23

> <Substance_modify_yyyymmdd>
20110808

$$$$
