150375-75-0
ChemmineR-0915142007XD

 41 45  0  0  1  0  0  0  0  0  1 V2000
   10.1584   -1.2560    0.0000 Cl   0  0  0  0  0  0  0  0  0  0  0  0
    7.7204   -6.3413    0.0000 O    0  0  0  0  0  0  0  0  0  0  0  0
    5.2331  -12.3132    0.0000 C    0  0  0  0  0  0  0  0  0  0  0  0
    6.4029  -11.6483    0.0000 O    0  0  0  0  0  0  0  0  0  0  0  0
    6.4029  -10.3185    0.0000 C    0  0  0  0  0  0  0  0  0  0  0  0
    7.5480   -9.6536    0.0000 C    0  0  0  0  0  0  0  0  0  0  0  0
    8.6931  -10.3431    0.0000 O    0  0  0  0  0  0  0  0  0  0  0  0
    8.6931  -11.6483    0.0000 C    0  0  0  0  0  0  0  0  0  0  0  0
    7.5480   -8.3237    0.0000 C    0  0  0  0  0  0  0  0  0  0  0  0
    6.4029   -7.6465    0.0000 C    0  0  0  0  0  0  0  0  0  0  0  0
    5.2331   -8.3237    0.0000 C    0  0  0  0  0  0  0  0  0  0  0  0
    5.2331   -9.6536    0.0000 C    0  0  0  0  0  0  0  0  0  0  0  0
    6.4029   -6.3167    0.0000 S    0  0  0  0  0  0  0  0  0  0  0  0
    5.0731   -6.3167    0.0000 O    0  0  0  0  0  0  0  0  0  0  0  0
    6.4029   -4.9992    0.0000 N    0  0  0  0  0  0  0  0  0  0  0  0
    5.3193   -4.2111    0.0000 C    0  0  0  0  0  0  0  0  0  0  0  0
    4.0511   -4.6298    0.0000 C    0  0  0  0  0  0  0  0  0  0  0  0
    3.0783   -3.7309    0.0000 O    0  0  0  0  0  0  0  0  0  0  0  0
    3.5708   -5.8488    0.0000 N    0  0  0  0  0  0  0  0  0  0  0  0
    4.2604   -6.9939    0.0000 C    0  0  0  0  0  0  0  0  0  0  0  0
    3.3985   -8.0036    0.0000 C    0  0  0  0  0  0  0  0  0  0  0  0
    2.1671   -7.4988    0.0000 C    0  0  0  0  0  0  0  0  0  0  0  0
    2.2779   -6.1936    0.0000 C    0  0  0  0  0  0  0  0  0  0  0  0
    1.2436   -5.3316    0.0000 C    0  0  0  0  0  0  0  0  0  0  0  0
    1.4776   -4.0264    0.0000 N    0  0  0  0  0  0  0  0  0  0  0  0
    0.0000   -5.7872    0.0000 O    0  0  0  0  0  0  0  0  0  0  0  0
    5.7133   -2.9552    0.0000 C    0  0  0  0  0  0  0  0  0  0  0  0
    5.7133   -1.6253    0.0000 O    0  0  0  0  0  0  0  0  0  0  0  0
    4.6790   -2.1302    0.0000 C    0  0  0  0  0  0  0  0  0  0  0  0
    3.4600   -2.6350    0.0000 C    0  0  0  0  0  0  0  0  0  0  0  0
    2.4011   -1.8100    0.0000 C    0  0  0  0  0  0  0  0  0  0  0  0
    2.5981   -0.5048    0.0000 C    0  0  0  0  0  0  0  0  0  0  0  0
    3.8294    0.0000    0.0000 C    0  0  0  0  0  0  0  0  0  0  0  0
    4.8514   -0.8250    0.0000 C    0  0  0  0  0  0  0  0  0  0  0  0
    6.0951   -0.3078    0.0000 Cl   0  0  0  0  0  0  0  0  0  0  0  0
    7.0555   -2.9552    0.0000 C    0  0  0  0  0  0  0  0  0  0  0  0
    7.4741   -4.2111    0.0000 C    0  0  0  0  0  0  0  0  0  0  0  0
    8.7670   -4.5066    0.0000 C    0  0  0  0  0  0  0  0  0  0  0  0
    9.6782   -3.4970    0.0000 C    0  0  0  0  0  0  0  0  0  0  0  0
    7.9544   -1.9578    0.0000 C    0  0  0  0  0  0  0  0  0  0  0  0
    9.2596   -2.2287    0.0000 C    0  0  0  0  0  0  0  0  0  0  0  0
  1 41  1  0  0  0  0
  2 13  2  0  0  0  0
  3  4  1  0  0  0  0
  4  5  1  0  0  0  0
  5  6  1  0  0  0  0
  5 12  2  0  0  0  0
  6  7  1  0  0  0  0
  6  9  2  0  0  0  0
  7  8  1  0  0  0  0
  9 10  1  0  0  0  0
 10 11  2  0  0  0  0
 10 13  1  0  0  0  0
 11 12  1  0  0  0  0
 13 14  2  0  0  0  0
 13 15  1  0  0  0  0
 15 16  1  0  0  0  0
 15 37  1  0  0  0  0
 16 17  1  6  0  0  0
 16 27  1  0  0  0  0
 17 18  2  0  0  0  0
 17 19  1  0  0  0  0
 19 20  1  0  0  0  0
 19 23  1  0  0  0  0
 20 21  1  0  0  0  0
 21 22  1  0  0  0  0
 22 23  1  0  0  0  0
 23 24  1  6  0  0  0
 24 25  1  0  0  0  0
 24 26  2  0  0  0  0
 27 28  1  1  0  0  0
 27 29  1  6  0  0  0
 27 36  1  0  0  0  0
 29 30  2  0  0  0  0
 29 34  1  0  0  0  0
 30 31  1  0  0  0  0
 31 32  2  0  0  0  0
 32 33  1  0  0  0  0
 33 34  2  0  0  0  0
 34 35  1  0  0  0  0
 36 37  2  0  0  0  0
 36 40  1  0  0  0  0
 37 38  1  0  0  0  0
 38 39  2  0  0  0  0
 39 41  1  0  0  0  0
 40 41  2  0  0  0  0
M  END
> <ID>
11159

> <Formula>
C28H27Cl2N3O7S

> <FW>
620.5009

> <DSSTox_CID>
25746

> <DSSTox_RID>
81091

> <DSSTox_GSID>
45746

> <DSSTox_FileID_Sort>
5772

> <TS_ChemName>
Relcovaptan

> <TS_ChemName_Synonyms>


> <TS_CASRN>
150375-75-0

> <CASRN_ChemName_Relationship>
primary

> <TS_Description>
single chemical compound

> <ChemNote>
stereochem

> <STRUCTURE_Shown>
tested chemical

> <STRUCTURE_Formula>
C28H27Cl2N3O7S

> <STRUCTURE_MW>
620.5009

> <STRUCTURE_ChemType>
defined organic

> <STRUCTURE_DefinedOrganicForm>
parent

> <STRUCTURE_IUPAC>
1-({(2S,3R)-5-chloro-3-(2-chlorophenyl)-1-[(3,4-dimethoxyphenyl)sulfonyl]-3-hydroxy-2,3-dihydro-1H-indol-2-yl}carbonyl)-D-prolinamide

> <STRUCTURE_SMILES>
NC(=O)[C@H]1CCCN1C(=O)[C@H]3N(c2ccc(Cl)cc2[C@@]3(O)c4ccccc4Cl)S(=O)(=O)c5cc(OC)c(OC)cc5

> <STRUCTURE_SMILES_Desalt>
NC(=O)[C@H]1CCCN1C(=O)[C@H]3N(c2ccc(Cl)cc2[C@@]3(O)c4ccccc4Cl)S(=O)(=O)c5cc(OC)c(OC)cc5

> <Substance_modify_yyyymmdd>
20110826

$$$$
