150408-73-4
ChemmineR-0915142007XD

 33 38  0  0  1  0  0  0  0  0  1 V2000
    2.3162   -3.2555    0.0000 C   0  0  0  0  0  0  0  0  0  0  0  0
    2.3162   -4.5809    0.0000 C   0  0  0  0  0  0  0  0  0  0  0  0
    1.1452   -2.5607    0.0000 C   0  0  0  0  0  0  0  0  0  0  0  0
    1.1452   -5.2243    0.0000 C   0  0  0  0  0  0  0  0  0  0  0  0
    0.0000   -3.2555    0.0000 C   0  0  0  0  0  0  0  0  0  0  0  0
    0.0000   -4.5809    0.0000 C   0  0  0  0  0  0  0  0  0  0  0  0
    3.5643   -2.8180    0.0000 N   0  0  0  0  0  0  0  0  0  0  0  0
    4.3235   -3.8860    0.0000 C   0  0  0  0  0  0  0  0  0  0  0  0
    3.5643   -4.9798    0.0000 C   0  0  0  0  0  0  0  0  0  0  0  0
    5.6618   -3.8860    0.0000 C   0  0  0  0  0  0  0  0  0  0  0  0
    6.3566   -5.0570    0.0000 O   0  0  0  0  0  0  0  0  0  0  0  0
    6.3566   -2.7408    0.0000 N   0  0  0  0  0  0  0  0  0  0  0  0
    7.6305   -2.7408    0.0000 C   0  0  0  0  0  0  0  0  0  0  0  0
    8.2353   -1.5441    0.0000 C   0  0  0  0  0  0  0  0  0  0  0  0
    8.2353   -3.9375    0.0000 N   0  0  0  0  0  0  0  0  0  0  0  0
    9.5092   -1.2353    0.0000 N   0  0  0  0  0  0  0  0  0  0  0  0
    9.5092   -4.2463    0.0000 C   0  0  0  0  0  0  0  0  0  0  0  0
   10.5515   -3.4228    0.0000 C   0  0  0  0  0  0  0  0  0  0  0  0
   10.5515   -2.0974    0.0000 C   0  0  0  0  0  0  0  0  0  0  0  0
    7.4246   -0.5018    0.0000 O   0  0  0  0  0  0  0  0  0  0  0  0
   12.8676   -2.0974    0.0000 C   0  0  0  0  0  0  0  0  0  0  0  0
   12.8676   -3.4228    0.0000 C   0  0  0  0  0  0  0  0  0  0  0  0
   11.7224   -1.4154    0.0000 C   0  0  0  0  0  0  0  0  0  0  0  0
   11.7224   -4.0662    0.0000 C   0  0  0  0  0  0  0  0  0  0  0  0
    9.9981    0.0000    0.0000 C   0  0  0  0  0  0  0  0  0  0  0  0
   11.3621   -0.1158    0.0000 C   0  0  0  0  0  0  0  0  0  0  0  0
   10.6801   -6.2151    0.0000 C   0  0  0  0  0  0  0  0  0  0  0  0
   10.6801   -7.5404    0.0000 C   0  0  0  0  0  0  0  0  0  0  0  0
    9.5092   -5.5717    0.0000 C   0  0  0  0  0  0  0  0  0  0  0  0
    9.5092   -8.1838    0.0000 C   0  0  0  0  0  0  0  0  0  0  0  0
    8.3640   -6.2151    0.0000 C   0  0  0  0  0  0  0  0  0  0  0  0
    8.3640   -7.5404    0.0000 C   0  0  0  0  0  0  0  0  0  0  0  0
   11.8511   -5.5717    0.0000 F   0  0  0  0  0  0  0  0  0  0  0  0
  1  3  2  0  0  0  0
  1  7  1  0  0  0  0
  1  2  1  0  0  0  0
  2  4  2  0  0  0  0
  2  9  1  0  0  0  0
  3  5  1  0  0  0  0
  4  6  1  0  0  0  0
  5  6  2  0  0  0  0
  7  8  1  0  0  0  0
  8  9  2  0  0  0  0
  8 10  1  0  0  0  0
 10 11  2  0  0  0  0
 10 12  1  0  0  0  0
 13 12  1  6  0  0  0
 13 14  1  0  0  0  0
 13 15  1  0  0  0  0
 14 16  1  0  0  0  0
 14 20  2  0  0  0  0
 15 17  2  0  0  0  0
 16 25  1  0  0  0  0
 16 19  1  0  0  0  0
 17 18  1  0  0  0  0
 17 29  1  0  0  0  0
 18 24  1  0  0  0  0
 18 19  2  0  0  0  0
 19 23  1  0  0  0  0
 21 22  1  0  0  0  0
 21 23  2  0  0  0  0
 22 24  2  0  0  0  0
 23 26  1  0  0  0  0
 25 26  1  0  0  0  0
 27 28  1  0  0  0  0
 27 29  2  0  0  0  0
 27 33  1  0  0  0  0
 28 30  2  0  0  0  0
 29 31  1  0  0  0  0
 30 32  1  0  0  0  0
 31 32  2  0  0  0  0
M  END
> <ID>
13774

> <Formula>
C26H19FN4O2

> <FW>
438.4531

> <DSSTox_CID>
28711

> <DSSTox_RID>
82980

> <DSSTox_GSID>
48785

> <DSSTox_FileID_Sort>
7657

> <TS_ChemName>
Pranazepide

> <TS_ChemName_Synonyms>


> <TS_CASRN>
150408-73-4

> <CASRN_ChemName_Relationship>
primary

> <TS_Description>
single chemical compound

> <ChemNote>
absolute stereochem; tautomers

> <STRUCTURE_Shown>
tested chemical

> <STRUCTURE_Formula>
C26H19FN4O2

> <STRUCTURE_MW>
438.4531

> <STRUCTURE_ChemType>
defined organic

> <STRUCTURE_DefinedOrganicForm>
parent

> <STRUCTURE_IUPAC>
N-[(3S)-1-(2-fluorophenyl)-4-oxo-3,4,6,7-tetrahydro[1,4]diazepino[6,7,1-hi]indol-3-yl]-1H-indole-2-carboxamide

> <STRUCTURE_SMILES>
Fc6ccccc6C3=N[C@H](NC(=O)c1cc2ccccc2n1)C(=O)N5CCc4cccc3c45

> <STRUCTURE_SMILES_Desalt>
Fc6ccccc6C3=N[C@H](NC(=O)c1cc2ccccc2n1)C(=O)N5CCc4cccc3c45

> <Substance_modify_yyyymmdd>
20111212

$$$$
