15046-75-0
ChemmineR-0915142007XD

 12 11  0  0  0  0  0  0  0  0  2 V2000
    2.3062   -2.6569    0.0000 C    0  0  0  0  0  0  0  0  0  0  0  0
    3.4593   -3.3318    0.0000 C    0  0  0  0  0  0  0  0  0  0  0  0
    3.4593   -4.6603    0.0000 C    0  0  0  0  0  0  0  0  0  0  0  0
    2.3062   -5.3139    0.0000 C    0  0  0  0  0  0  0  0  0  0  0  0
    1.1531   -4.6603    0.0000 C    0  0  0  0  0  0  0  0  0  0  0  0
    1.1531   -3.3318    0.0000 C    0  0  0  0  0  0  0  0  0  0  0  0
    2.3062   -1.3285    0.0000 S    0  0  0  0  0  0  0  0  0  0  0  0
    3.6347   -1.3285    0.0000 O    0  0  0  0  0  0  0  0  0  0  0  0
    0.9778   -1.3285    0.0000 O    0  5  0  0  0  0  0  0  0  0  0  0
    2.3062    0.0000    0.0000 O    0  0  0  0  0  0  0  0  0  0  0  0
    0.0000   -2.6569    0.0000 C    0  0  0  0  0  0  0  0  0  0  0  0
    3.7622   -0.1435    0.0000 Na   0  3  0  0  0  0  0  0  0  0  0  0
  1  2  2  0  0  0  0
  1  6  1  0  0  0  0
  1  7  1  0  0  0  0
  2  3  1  0  0  0  0
  3  4  2  0  0  0  0
  4  5  1  0  0  0  0
  5  6  2  0  0  0  0
  6 11  1  0  0  0  0
  7  8  2  0  0  0  0
  7  9  1  0  0  0  0
  7 10  2  0  0  0  0
M  END
> <ID>
10207

> <Formula>
C7H7NaO3S

> <FW>
194.1834 (171.1942+22.9892)

> <DSSTox_CID>
24553

> <DSSTox_RID>
80310

> <DSSTox_GSID>
44553

> <DSSTox_FileID_Sort>
4992

> <TS_ChemName>
Sodium 2-methylbenzenesulfonate

> <TS_ChemName_Synonyms>
Sodium 2-methylbenzenesulfonate (Benzenesulfonic acid, 2-methyl-, sodium salt)

> <TS_CASRN>
15046-75-0

> <CASRN_ChemName_Relationship>
primary

> <TS_Description>
single chemical compound

> <ChemNote>
parent [88-20-0]

> <STRUCTURE_Shown>
tested chemical

> <STRUCTURE_Formula>
C7H7NaO3S

> <STRUCTURE_MW>
194.1834

> <STRUCTURE_ChemType>
defined organic

> <STRUCTURE_DefinedOrganicForm>
salt

> <STRUCTURE_IUPAC>
sodium 2-methylbenzenesulfonate

> <STRUCTURE_SMILES>
[Na+].Cc1ccccc1S(=O)([O-])=O

> <STRUCTURE_SMILES_Desalt>
Cc1ccccc1S(O)(=O)=O

> <Substance_modify_yyyymmdd>
20091116

$$$$
