150683-30-0
ChemmineR-0915142007XD

 32 35  0  0  0  0  0  0  0  0  1 V2000
    0.0000   -5.8126    0.0000 C    0  0  0  0  0  0  0  0  0  0  0  0
    0.0000   -7.1303    0.0000 C    0  0  0  0  0  0  0  0  0  0  0  0
    1.1274   -7.8185    0.0000 C    0  0  0  0  0  0  0  0  0  0  0  0
    2.2841   -7.1303    0.0000 C    0  0  0  0  0  0  0  0  0  0  0  0
    2.2841   -5.8126    0.0000 C    0  0  0  0  0  0  0  0  0  0  0  0
    1.1274   -5.1391    0.0000 C    0  0  0  0  0  0  0  0  0  0  0  0
    3.4554   -5.1391    0.0000 C    0  0  0  0  0  0  0  0  0  0  0  0
    3.4554   -3.8214    0.0000 O    0  0  0  0  0  0  0  0  0  0  0  0
    4.5827   -5.8126    0.0000 N    0  0  0  0  0  0  0  0  0  0  0  0
    5.7687   -5.1391    0.0000 C    0  0  0  0  0  0  0  0  0  0  0  0
    6.9254   -5.8126    0.0000 C    0  0  0  0  0  0  0  0  0  0  0  0
    8.0527   -5.1391    0.0000 C    0  0  0  0  0  0  0  0  0  0  0  0
    8.0527   -3.8214    0.0000 C    0  0  0  0  0  0  0  0  0  0  0  0
    6.9254   -3.1333    0.0000 C    0  0  0  0  0  0  0  0  0  0  0  0
    5.7687   -3.8214    0.0000 C    0  0  0  0  0  0  0  0  0  0  0  0
    3.4554   -7.8185    0.0000 C    0  0  0  0  0  0  0  0  0  0  0  0
    9.1801   -3.1333    0.0000 C    0  0  0  0  0  0  0  0  0  0  0  0
    9.1801   -1.8155    0.0000 O    0  0  0  0  0  0  0  0  0  0  0  0
   10.3514   -3.8214    0.0000 N    0  0  0  0  0  0  0  0  0  0  0  0
   10.3954   -5.1391    0.0000 C    0  0  0  0  0  0  0  0  0  0  0  0
   11.4203   -5.9590    0.0000 C    0  0  0  0  0  0  0  0  0  0  0  0
   12.7380   -5.6223    0.0000 C    0  0  0  0  0  0  0  0  0  0  0  0
   13.2797   -4.4510    0.0000 C    0  0  0  0  0  0  0  0  0  0  0  0
   12.6941   -3.2357    0.0000 C    0  0  0  0  0  0  0  0  0  0  0  0
   11.3763   -2.9868    0.0000 C    0  0  0  0  0  0  0  0  0  0  0  0
   10.9957   -1.7277    0.0000 C    0  0  0  0  0  0  0  0  0  0  0  0
   11.8595   -0.6881    0.0000 C    0  0  0  0  0  0  0  0  0  0  0  0
   13.1772   -0.9956    0.0000 C    0  0  0  0  0  0  0  0  0  0  0  0
   13.5579   -2.2401    0.0000 C    0  0  0  0  0  0  0  0  0  0  0  0
   14.6414   -4.4070    0.0000 O    0  0  0  0  0  0  0  0  0  0  0  0
    6.9254   -1.8155    0.0000 C    0  0  0  0  0  0  0  0  0  0  0  0
   14.0557    0.0000    0.0000 Cl   0  0  0  0  0  0  0  0  0  0  0  0
  1  6  1  0  0  0  0
  1  2  2  0  0  0  0
  2  3  1  0  0  0  0
  3  4  2  0  0  0  0
  4 16  1  0  0  0  0
  4  5  1  0  0  0  0
  5  6  2  0  0  0  0
  5  7  1  0  0  0  0
  7  8  2  0  0  0  0
  7  9  1  0  0  0  0
  9 10  1  0  0  0  0
 10 11  2  0  0  0  0
 10 15  1  0  0  0  0
 11 12  1  0  0  0  0
 12 13  2  0  0  0  0
 13 17  1  0  0  0  0
 13 14  1  0  0  0  0
 14 15  2  0  0  0  0
 14 31  1  0  0  0  0
 17 18  2  0  0  0  0
 17 19  1  0  0  0  0
 19 20  1  0  0  0  0
 19 25  1  0  0  0  0
 20 21  1  0  0  0  0
 21 22  1  0  0  0  0
 22 23  1  0  0  0  0
 23 24  1  0  0  0  0
 23 30  1  0  0  0  0
 24 25  2  0  0  0  0
 24 29  1  0  0  0  0
 25 26  1  0  0  0  0
 26 27  2  0  0  0  0
 27 28  1  0  0  0  0
 28 29  2  0  0  0  0
 28 32  1  0  0  0  0
M  END
> <ID>
13769

> <Formula>
C26H25ClN2O3

> <FW>
448.9413

> <DSSTox_CID>
28706

> <DSSTox_RID>
82975

> <DSSTox_GSID>
48780

> <DSSTox_FileID_Sort>
7652

> <TS_ChemName>
Tolvaptan

> <TS_ChemName_Synonyms>


> <TS_CASRN>
150683-30-0

> <CASRN_ChemName_Relationship>
primary

> <TS_Description>
single chemical compound

> <ChemNote>


> <STRUCTURE_Shown>
tested chemical

> <STRUCTURE_Formula>
C26H25ClN2O3

> <STRUCTURE_MW>
448.9413

> <STRUCTURE_ChemType>
defined organic

> <STRUCTURE_DefinedOrganicForm>
parent

> <STRUCTURE_IUPAC>
N-{4-[(7-chloro-5-hydroxy-2,3,4,5-tetrahydro-1H-1-benzazepin-1-yl)carbonyl]-3-methylphenyl}-2-methylbenzamide

> <STRUCTURE_SMILES>
Cc1ccccc1C(=O)Nc2ccc(c(C)c2)C(=O)N4CCCC(O)c3cc(Cl)ccc34

> <STRUCTURE_SMILES_Desalt>
Cc1ccccc1C(=O)Nc2ccc(c(C)c2)C(=O)N4CCCC(O)c3cc(Cl)ccc34

> <Substance_modify_yyyymmdd>
20111204

$$$$
