1508-75-4
ChemmineR-0915142007XD

 21 22  0  0  0  0  0  0  0  0  1 V2000
    4.5961   -1.3362    0.0000 C   0  0  0  0  0  0  0  0  0  0  0  0
    5.7552   -1.9882    0.0000 C   0  0  0  0  0  0  0  0  0  0  0  0
    3.4531   -1.9882    0.0000 N   0  0  0  0  0  0  0  0  0  0  0  0
    4.5961    0.0000    0.0000 O   0  0  0  0  0  0  0  0  0  0  0  0
    3.4531   -3.3565    0.0000 C   0  0  0  0  0  0  0  0  0  0  0  0
    5.7552   -3.3404    0.0000 C   0  0  0  0  0  0  0  0  0  0  0  0
    0.0000   -5.3930    0.0000 N   0  0  0  0  0  0  0  0  0  0  0  0
    6.8901   -1.3362    0.0000 C   0  0  0  0  0  0  0  0  0  0  0  0
    2.2940   -4.0407    0.0000 C   0  0  0  0  0  0  0  0  0  0  0  0
    2.3262   -1.3362    0.0000 C   0  0  0  0  0  0  0  0  0  0  0  0
    8.0492   -1.9882    0.0000 O   0  0  0  0  0  0  0  0  0  0  0  0
    1.1430   -6.0450    0.0000 C   0  0  0  0  0  0  0  0  0  0  0  0
    0.0000   -4.0407    0.0000 C   0  0  0  0  0  0  0  0  0  0  0  0
    6.8901   -4.0085    0.0000 C   0  0  0  0  0  0  0  0  0  0  0  0
    4.5961   -4.0085    0.0000 C   0  0  0  0  0  0  0  0  0  0  0  0
    2.2940   -5.3930    0.0000 C   0  0  0  0  0  0  0  0  0  0  0  0
    1.1430   -3.3887    0.0000 C   0  0  0  0  0  0  0  0  0  0  0  0
    1.1752   -1.9882    0.0000 C   0  0  0  0  0  0  0  0  0  0  0  0
    4.5961   -5.3447    0.0000 C   0  0  0  0  0  0  0  0  0  0  0  0
    6.8901   -5.3447    0.0000 C   0  0  0  0  0  0  0  0  0  0  0  0
    5.7552   -5.9967    0.0000 C   0  0  0  0  0  0  0  0  0  0  0  0
  1  2  1  0  0  0  0
  1  3  1  0  0  0  0
  1  4  2  0  0  0  0
  2  6  1  0  0  0  0
  2  8  1  0  0  0  0
  3  5  1  0  0  0  0
  3 10  1  0  0  0  0
  5  9  1  0  0  0  0
  6 14  2  0  0  0  0
  6 15  1  0  0  0  0
  7 13  1  0  0  0  0
  7 12  2  0  0  0  0
  8 11  1  0  0  0  0
  9 16  2  0  0  0  0
  9 17  1  0  0  0  0
 10 18  1  0  0  0  0
 12 16  1  0  0  0  0
 13 17  2  0  0  0  0
 14 20  1  0  0  0  0
 15 19  2  0  0  0  0
 19 21  1  0  0  0  0
 20 21  2  0  0  0  0
M  END
> <ID>
10827

> <Formula>
C17H20N2O2

> <FW>
284.3529

> <DSSTox_CID>
25220

> <DSSTox_RID>
80757

> <DSSTox_GSID>
45220

> <DSSTox_FileID_Sort>
5438

> <TS_ChemName>
Tropicamide

> <TS_ChemName_Synonyms>


> <TS_CASRN>
1508-75-4

> <CASRN_ChemName_Relationship>
primary

> <TS_Description>
single chemical compound

> <ChemNote>


> <STRUCTURE_Shown>
tested chemical

> <STRUCTURE_Formula>
C17H20N2O2

> <STRUCTURE_MW>
284.3529

> <STRUCTURE_ChemType>
defined organic

> <STRUCTURE_DefinedOrganicForm>
parent

> <STRUCTURE_IUPAC>
N-ethyl-3-hydroxy-2-phenyl-N-(pyridin-4-ylmethyl)propanamide

> <STRUCTURE_SMILES>
OCC(c1ccccc1)C(=O)N(CC)Cc2ccncc2

> <STRUCTURE_SMILES_Desalt>
OCC(c1ccccc1)C(=O)N(CC)Cc2ccncc2

> <Substance_modify_yyyymmdd>
20100107

$$$$
