1508-76-5
ChemmineR-0915142007XD

 22 23  0  0  0  0  0  0  0  0  1 V2000
    3.9913   -5.3124    0.0000 O    0  0  0  0  0  0  0  0  0  0  0  0
    3.9913   -3.9820    0.0000 C    0  0  0  0  0  0  0  0  0  0  0  0
    5.3218   -3.9820    0.0000 C    0  0  0  0  0  0  0  0  0  0  0  0
    5.9870   -5.1344    0.0000 C    0  0  0  0  0  0  0  0  0  0  0  0
    7.3175   -5.1344    0.0000 N    0  0  0  0  0  0  0  0  0  0  0  0
    8.1045   -4.0663    0.0000 C    0  0  0  0  0  0  0  0  0  0  0  0
    9.3694   -4.4692    0.0000 C    0  0  0  0  0  0  0  0  0  0  0  0
    9.3694   -5.7996    0.0000 C    0  0  0  0  0  0  0  0  0  0  0  0
    8.1045   -6.2119    0.0000 C    0  0  0  0  0  0  0  0  0  0  0  0
    2.6609   -3.9820    0.0000 C    0  0  0  0  0  0  0  0  0  0  0  0
    2.0050   -5.1344    0.0000 C    0  0  0  0  0  0  0  0  0  0  0  0
    0.6746   -5.1344    0.0000 C    0  0  0  0  0  0  0  0  0  0  0  0
    0.0000   -3.9820    0.0000 C    0  0  0  0  0  0  0  0  0  0  0  0
    0.6746   -2.8295    0.0000 C    0  0  0  0  0  0  0  0  0  0  0  0
    2.0050   -2.8295    0.0000 C    0  0  0  0  0  0  0  0  0  0  0  0
    3.9913   -2.6609    0.0000 C    0  0  0  0  0  0  0  0  0  0  0  0
    2.8389   -1.9863    0.0000 C    0  0  0  0  0  0  0  0  0  0  0  0
    2.8389   -0.6559    0.0000 C    0  0  0  0  0  0  0  0  0  0  0  0
    3.9913    0.0000    0.0000 C    0  0  0  0  0  0  0  0  0  0  0  0
    5.1438   -0.6559    0.0000 C    0  0  0  0  0  0  0  0  0  0  0  0
    5.1438   -1.9863    0.0000 C    0  0  0  0  0  0  0  0  0  0  0  0
    7.8984   -2.0613    0.0000 Cl   0  0  0  0  0  0  0  0  0  0  0  0
  1  2  1  0  0  0  0
  2  3  1  0  0  0  0
  2 10  1  0  0  0  0
  2 16  1  0  0  0  0
  3  4  1  0  0  0  0
  4  5  1  0  0  0  0
  5  6  1  0  0  0  0
  5  9  1  0  0  0  0
  6  7  1  0  0  0  0
  7  8  1  0  0  0  0
  8  9  1  0  0  0  0
 10 11  1  0  0  0  0
 10 15  1  0  0  0  0
 11 12  1  0  0  0  0
 12 13  1  0  0  0  0
 13 14  1  0  0  0  0
 14 15  1  0  0  0  0
 16 17  2  0  0  0  0
 16 21  1  0  0  0  0
 17 18  1  0  0  0  0
 18 19  2  0  0  0  0
 19 20  1  0  0  0  0
 20 21  2  0  0  0  0
M  END
> <ID>
10893

> <Formula>
C19H30ClNO

> <FW>
323.9006 (287.4397+36.4609)

> <DSSTox_CID>
25357

> <DSSTox_RID>
80823

> <DSSTox_GSID>
45357

> <DSSTox_FileID_Sort>
5504

> <TS_ChemName>
Procyclidine hydrochloride

> <TS_ChemName_Synonyms>


> <TS_CASRN>
1508-76-5

> <CASRN_ChemName_Relationship>
primary

> <TS_Description>
single chemical compound

> <ChemNote>
parent [77-37-2]

> <STRUCTURE_Shown>
tested chemical

> <STRUCTURE_Formula>
C19H30ClNO

> <STRUCTURE_MW>
323.9006

> <STRUCTURE_ChemType>
defined organic

> <STRUCTURE_DefinedOrganicForm>
complex

> <STRUCTURE_IUPAC>
1-cyclohexyl-1-phenyl-3-(pyrrolidin-1-yl)propan-1-ol hydrochloride (1:1)

> <STRUCTURE_SMILES>
Cl.OC(CCN1CCCC1)(c2ccccc2)C3CCCCC3

> <STRUCTURE_SMILES_Desalt>
OC(CCN1CCCC1)(c2ccccc2)C3CCCCC3

> <Substance_modify_yyyymmdd>
20100107

$$$$
