150824-47-8
ChemmineR-0915142007XD

 18 18  0  0  0  0  0  0  0  0  2 V2000
    7.9821   -1.1574    0.0000 C    0  0  0  0  0  0  0  0  0  0  0  0
    9.3092   -1.1574    0.0000 N    0  3  0  0  0  0  0  0  0  0  0  0
    7.3136   -2.3048    0.0000 C    0  0  0  0  0  0  0  0  0  0  0  0
    5.9866   -2.3048    0.0000 N    0  0  0  0  0  0  0  0  0  0  0  0
    1.9955   -2.3048    0.0000 N    0  0  0  0  0  0  0  0  0  0  0  0
    9.9777   -2.3048    0.0000 O    0  5  0  0  0  0  0  0  0  0  0  0
    1.3270   -1.1574    0.0000 C    0  0  0  0  0  0  0  0  0  0  0  0
    9.9777    0.0000    0.0000 O    0  0  0  0  0  0  0  0  0  0  0  0
    5.3181   -1.1574    0.0000 C    0  0  0  0  0  0  0  0  0  0  0  0
    3.9911   -1.1574    0.0000 C    0  0  0  0  0  0  0  0  0  0  0  0
    7.9821   -3.4623    0.0000 N    0  0  0  0  0  0  0  0  0  0  0  0
    3.3226   -2.3048    0.0000 C    0  0  0  0  0  0  0  0  0  0  0  0
    0.0000   -1.1574    0.0000 Cl   0  0  0  0  0  0  0  0  0  0  0  0
    1.9955    0.0000    0.0000 C    0  0  0  0  0  0  0  0  0  0  0  0
    3.3226    0.0000    0.0000 C    0  0  0  0  0  0  0  0  0  0  0  0
    5.3181   -3.4623    0.0000 C    0  0  0  0  0  0  0  0  0  0  0  0
    7.3136   -4.6097    0.0000 C    0  0  0  0  0  0  0  0  0  0  0  0
    3.9911   -3.4623    0.0000 C    0  0  0  0  0  0  0  0  0  0  0  0
  1  2  1  0  0  0  0
  1  3  2  0  0  0  0
  2  6  1  0  0  0  0
  2  8  2  0  0  0  0
  3  4  1  0  0  0  0
  3 11  1  0  0  0  0
  4  9  1  0  0  0  0
  4 16  1  0  0  0  0
  5 12  2  0  0  0  0
  5  7  1  0  0  0  0
  7 14  2  0  0  0  0
  7 13  1  0  0  0  0
  9 10  1  0  0  0  0
 10 12  1  0  0  0  0
 10 15  2  0  0  0  0
 11 17  1  0  0  0  0
 14 15  1  0  0  0  0
 16 18  1  0  0  0  0
M  END
> <ID>
8090

> <Formula>
C11H15ClN4O2

> <FW>
270.7154

> <DSSTox_CID>
21080

> <DSSTox_RID>
79622

> <DSSTox_GSID>
41080

> <DSSTox_FileID_Sort>
4304

> <TS_ChemName>
Nitenpyram

> <TS_ChemName_Synonyms>


> <TS_CASRN>
150824-47-8

> <CASRN_ChemName_Relationship>
primary

> <TS_Description>
single chemical compound

> <ChemNote>
stereochem; tautomers

> <STRUCTURE_Shown>
tested chemical

> <STRUCTURE_Formula>
C11H15ClN4O2

> <STRUCTURE_MW>
270.7154

> <STRUCTURE_ChemType>
defined organic

> <STRUCTURE_DefinedOrganicForm>
parent

> <STRUCTURE_IUPAC>
(E)-N-[(6-chloropyridin-3-yl)methyl]-N-ethyl-N'-methyl-2-nitroethene-1,1-diamine

> <STRUCTURE_SMILES>
Clc1ccc(CN(CC)C(=C\[N+]([O-])=O)\NC)cn1

> <STRUCTURE_SMILES_Desalt>
Clc1ccc(CN(CC)C(=C\[N+]([O-])=O)\NC)cn1

> <Substance_modify_yyyymmdd>
20080429

$$$$
