1508-65-2
ChemmineR-0915142007XD

 27 27  0  0  0  0  0  0  0  0  1 V2000
    0.0000   -1.9866    0.0000 C    0  0  0  0  0  0  0  0  0  0  0  0
    0.0000   -3.3197    0.0000 C    0  0  0  0  0  0  0  0  0  0  0  0
    1.1501   -3.9732    0.0000 N    0  0  0  0  0  0  0  0  0  0  0  0
    1.1501   -5.3063    0.0000 C    0  0  0  0  0  0  0  0  0  0  0  0
    2.3133   -5.9729    0.0000 C    0  0  0  0  0  0  0  0  0  0  0  0
    2.3133   -3.3197    0.0000 C    0  0  0  0  0  0  0  0  0  0  0  0
    3.4504   -3.9732    0.0000 C    0  0  0  0  0  0  0  0  0  0  0  0
    4.6005   -4.6398    0.0000 C    0  0  0  0  0  0  0  0  0  0  0  0
    5.7507   -5.3063    0.0000 C    0  0  0  0  0  0  0  0  0  0  0  0
    6.9139   -4.6398    0.0000 O    0  0  0  0  0  0  0  0  0  0  0  0
    6.9139   -3.3197    0.0000 C    0  0  0  0  0  0  0  0  0  0  0  0
    5.7507   -2.6532    0.0000 O    0  0  0  0  0  0  0  0  0  0  0  0
    8.0640   -2.6532    0.0000 C    0  0  0  0  0  0  0  0  0  0  0  0
    7.3975   -1.5030    0.0000 O    0  0  0  0  0  0  0  0  0  0  0  0
    9.2011   -1.9866    0.0000 C    0  0  0  0  0  0  0  0  0  0  0  0
    9.2011   -0.6535    0.0000 C    0  0  0  0  0  0  0  0  0  0  0  0
   10.3643    0.0000    0.0000 C    0  0  0  0  0  0  0  0  0  0  0  0
   11.5144   -0.6535    0.0000 C    0  0  0  0  0  0  0  0  0  0  0  0
   11.5144   -1.9866    0.0000 C    0  0  0  0  0  0  0  0  0  0  0  0
   10.3643   -2.6532    0.0000 C    0  0  0  0  0  0  0  0  0  0  0  0
    8.7175   -3.7902    0.0000 C    0  0  0  0  0  0  0  0  0  0  0  0
   10.0506   -3.7902    0.0000 C    0  0  0  0  0  0  0  0  0  0  0  0
   10.7172   -4.9534    0.0000 C    0  0  0  0  0  0  0  0  0  0  0  0
   10.0506   -6.1036    0.0000 C    0  0  0  0  0  0  0  0  0  0  0  0
    8.7175   -6.1036    0.0000 C    0  0  0  0  0  0  0  0  0  0  0  0
    8.0640   -4.9534    0.0000 C    0  0  0  0  0  0  0  0  0  0  0  0
   13.0697   -3.9601    0.0000 Cl   0  0  0  0  0  0  0  0  0  0  0  0
  1  2  1  0  0  0  0
  2  3  1  0  0  0  0
  3  4  1  0  0  0  0
  3  6  1  0  0  0  0
  4  5  1  0  0  0  0
  6  7  1  0  0  0  0
  7  8  3  0  0  0  0
  8  9  1  0  0  0  0
  9 10  1  0  0  0  0
 10 11  1  0  0  0  0
 11 12  2  0  0  0  0
 11 13  1  0  0  0  0
 13 14  1  0  0  0  0
 13 15  1  0  0  0  0
 13 21  1  0  0  0  0
 15 16  1  0  0  0  0
 15 20  1  0  0  0  0
 16 17  1  0  0  0  0
 17 18  1  0  0  0  0
 18 19  1  0  0  0  0
 19 20  1  0  0  0  0
 21 22  2  0  0  0  0
 21 26  1  0  0  0  0
 22 23  1  0  0  0  0
 23 24  2  0  0  0  0
 24 25  1  0  0  0  0
 25 26  2  0  0  0  0
M  END
> <ID>
10892

> <Formula>
C22H32ClNO3

> <FW>
393.9474 (357.4864+36.4609)

> <DSSTox_CID>
25356

> <DSSTox_RID>
80822

> <DSSTox_GSID>
45356

> <DSSTox_FileID_Sort>
5503

> <TS_ChemName>
Oxybutynin chloride

> <TS_ChemName_Synonyms>


> <TS_CASRN>
1508-65-2

> <CASRN_ChemName_Relationship>
primary

> <TS_Description>
single chemical compound

> <ChemNote>
parent [5633-20-5]

> <STRUCTURE_Shown>
tested chemical

> <STRUCTURE_Formula>
C22H32ClNO3

> <STRUCTURE_MW>
393.9474

> <STRUCTURE_ChemType>
defined organic

> <STRUCTURE_DefinedOrganicForm>
complex

> <STRUCTURE_IUPAC>
4-(diethylamino)but-2-yn-1-yl cyclohexyl(hydroxy)phenylacetate hydrochloride (1:1)

> <STRUCTURE_SMILES>
Cl.OC(C(=O)OCC#CCN(CC)CC)(c1ccccc1)C2CCCCC2

> <STRUCTURE_SMILES_Desalt>
OC(C(=O)OCC#CCN(CC)CC)(c1ccccc1)C2CCCCC2

> <Substance_modify_yyyymmdd>
20100107

$$$$
