15086-94-9
ChemmineR-0915142007XD

 29 33  0  0  0  0  0  0  0  0  1 V2000
    5.7574   -1.9990    0.0000 C    0  0  0  0  0  0  0  0  0  0  0  0
    5.7574   -3.3163    0.0000 C    0  0  0  0  0  0  0  0  0  0  0  0
    4.6520   -4.1177    0.0000 C    0  0  0  0  0  0  0  0  0  0  0  0
    6.8997   -1.3265    0.0000 C    0  0  0  0  0  0  0  0  0  0  0  0
    3.4729   -1.9990    0.0000 C    0  0  0  0  0  0  0  0  0  0  0  0
    3.4729   -3.3163    0.0000 C    0  0  0  0  0  0  0  0  0  0  0  0
    4.6244   -1.3265    0.0000 O    0  0  0  0  0  0  0  0  0  0  0  0
    8.0512   -1.9990    0.0000 C    0  0  0  0  0  0  0  0  0  0  0  0
    6.8997   -3.9703    0.0000 C    0  0  0  0  0  0  0  0  0  0  0  0
    2.3122   -1.3265    0.0000 C    0  0  0  0  0  0  0  0  0  0  0  0
    3.6203   -4.9284    0.0000 C    0  0  0  0  0  0  0  0  0  0  0  0
    8.0512   -3.3163    0.0000 C    0  0  0  0  0  0  0  0  0  0  0  0
    1.1791   -1.9990    0.0000 C    0  0  0  0  0  0  0  0  0  0  0  0
    2.3122   -3.9703    0.0000 C    0  0  0  0  0  0  0  0  0  0  0  0
    4.0624   -6.1535    0.0000 C    0  0  0  0  0  0  0  0  0  0  0  0
    1.1791   -3.3163    0.0000 C    0  0  0  0  0  0  0  0  0  0  0  0
    5.3889   -6.1075    0.0000 C    0  0  0  0  0  0  0  0  0  0  0  0
    0.0000   -1.2989    0.0000 O    0  0  0  0  0  0  0  0  0  0  0  0
    9.2119   -1.2989    0.0000 O    0  0  0  0  0  0  0  0  0  0  0  0
    6.1996   -7.1484    0.0000 O    0  0  0  0  0  0  0  0  0  0  0  0
    6.8997    0.0000    0.0000 Br   0  0  0  0  0  0  0  0  0  0  0  0
    5.7390   -4.8454    0.0000 O    0  0  0  0  0  0  0  0  0  0  0  0
    2.3122    0.0000    0.0000 Br   0  0  0  0  0  0  0  0  0  0  0  0
    9.2119   -4.0072    0.0000 Br   0  0  0  0  0  0  0  0  0  0  0  0
    0.0000   -4.0072    0.0000 Br   0  0  0  0  0  0  0  0  0  0  0  0
    2.3122   -4.7073    0.0000 C    0  0  0  0  0  0  0  0  0  0  0  0
    3.2149   -7.1761    0.0000 C    0  0  0  0  0  0  0  0  0  0  0  0
    1.4647   -5.7114    0.0000 C    0  0  0  0  0  0  0  0  0  0  0  0
    1.9253   -6.9550    0.0000 C    0  0  0  0  0  0  0  0  0  0  0  0
  1  2  1  0  0  0  0
  1  4  2  0  0  0  0
  1  7  1  0  0  0  0
  2  3  1  0  0  0  0
  2  9  2  0  0  0  0
  3 11  1  0  0  0  0
  3  6  1  0  0  0  0
  3 22  1  0  0  0  0
  4  8  1  0  0  0  0
  4 21  1  0  0  0  0
  5  7  1  0  0  0  0
  5  6  2  0  0  0  0
  5 10  1  0  0  0  0
  6 14  1  0  0  0  0
  8 12  2  0  0  0  0
  8 19  1  0  0  0  0
  9 12  1  0  0  0  0
 10 13  2  0  0  0  0
 10 23  1  0  0  0  0
 11 15  1  0  0  0  0
 11 26  2  0  0  0  0
 12 24  1  0  0  0  0
 13 16  1  0  0  0  0
 13 18  1  0  0  0  0
 14 16  2  0  0  0  0
 15 17  1  0  0  0  0
 15 27  2  0  0  0  0
 16 25  1  0  0  0  0
 17 20  2  0  0  0  0
 17 22  1  0  0  0  0
 26 28  1  0  0  0  0
 27 29  1  0  0  0  0
 28 29  2  0  0  0  0
M  END
> <ID>
10244

> <Formula>
C20H8Br4O5

> <FW>
647.8905

> <DSSTox_CID>
24590

> <DSSTox_RID>
80336

> <DSSTox_GSID>
44590

> <DSSTox_FileID_Sort>
5018

> <TS_ChemName>
2',4',5',7'-Tetrabromofluorescein

> <TS_ChemName_Synonyms>
Spiro[isobenzofuran-1(3H),9'-[9H]xanthen]-3-one, 2',4',5',7'-tetrabromo-3',6'-dihydroxy-

> <TS_CASRN>
15086-94-9

> <CASRN_ChemName_Relationship>
primary

> <TS_Description>
single chemical compound

> <ChemNote>


> <STRUCTURE_Shown>
tested chemical

> <STRUCTURE_Formula>
C20H8Br4O5

> <STRUCTURE_MW>
647.8905

> <STRUCTURE_ChemType>
defined organic

> <STRUCTURE_DefinedOrganicForm>
parent

> <STRUCTURE_IUPAC>
2',4',5',7'-tetrabromo-3',6'-dihydroxy-3H-spiro[2-benzofuran-1,9'-xanthen]-3-one

> <STRUCTURE_SMILES>
Brc4c5Oc1c(Br)c(O)c(Br)cc1C3(OC(=O)c2ccccc23)c5cc(Br)c4O

> <STRUCTURE_SMILES_Desalt>
Brc4c5Oc1c(Br)c(O)c(Br)cc1C3(OC(=O)c2ccccc23)c5cc(Br)c4O

> <Substance_modify_yyyymmdd>
20091116

$$$$
