15091-98-2
ChemmineR-0915142007XD

 24 12  0  0  0  0  0  0  0  0  3 V2000
    2.0070   -1.9866    0.0000 O    0  5  0  0  0  0  0  0  0  0  0  0
    3.1642   -1.3312    0.0000 P    0  0  0  0  0  0  0  0  0  0  0  0
    4.3213   -1.9866    0.0000 O    0  0  0  0  0  0  0  0  0  0  0  0
    5.4682   -1.3312    0.0000 P    0  0  0  0  0  0  0  0  0  0  0  0
    6.6253   -1.9866    0.0000 O    0  0  0  0  0  0  0  0  0  0  0  0
    7.7824   -1.3312    0.0000 P    0  0  0  0  0  0  0  0  0  0  0  0
    3.1642    0.0000    0.0000 O    0  0  0  0  0  0  0  0  0  0  0  0
    3.1642   -2.6624    0.0000 O    0  5  0  0  0  0  0  0  0  0  0  0
    5.4682    0.0000    0.0000 O    0  0  0  0  0  0  0  0  0  0  0  0
    5.4682   -2.6624    0.0000 O    0  5  0  0  0  0  0  0  0  0  0  0
    8.9191   -1.9866    0.0000 O    0  5  0  0  0  0  0  0  0  0  0  0
    7.7824    0.0000    0.0000 O    0  0  0  0  0  0  0  0  0  0  0  0
    7.7722   -2.6829    0.0000 O    0  5  0  0  0  0  0  0  0  0  0  0
    0.4506   -1.9866    0.0000 Na   0  3  0  0  0  0  0  0  0  0  0  0
    3.0618   -3.6454    0.0000 Na   0  3  0  0  0  0  0  0  0  0  0  0
    5.6218   -3.5942    0.0000 Na   0  3  0  0  0  0  0  0  0  0  0  0
    7.8848   -3.6454    0.0000 Na   0  3  0  0  0  0  0  0  0  0  0  0
   10.2400   -2.0378    0.0000 Na   0  3  0  0  0  0  0  0  0  0  0  0
    0.0000   -4.8435    0.0000 O    0  0  0  0  0  0  0  0  0  0  0  0
    1.7510   -4.8026    0.0000 O    0  0  0  0  0  0  0  0  0  0  0  0
    3.4714   -4.8947    0.0000 O    0  0  0  0  0  0  0  0  0  0  0  0
    5.0688   -4.8435    0.0000 O    0  0  0  0  0  0  0  0  0  0  0  0
    6.7687   -4.8026    0.0000 O    0  0  0  0  0  0  0  0  0  0  0  0
    8.5709   -4.8435    0.0000 O    0  0  0  0  0  0  0  0  0  0  0  0
  1  2  1  0  0  0  0
  2  3  1  0  0  0  0
  2  7  2  0  0  0  0
  2  8  1  0  0  0  0
  3  4  1  0  0  0  0
  4  5  1  0  0  0  0
  4  9  2  0  0  0  0
  4 10  1  0  0  0  0
  5  6  1  0  0  0  0
  6 11  1  0  0  0  0
  6 12  2  0  0  0  0
  6 13  1  0  0  0  0
M  END
> <ID>
11825

> <Formula>
H12Na5O16P3

> <FW>
475.9558 (252.9180+22.9892+22.9892+22.9892+22.9892+22.9892+18.0153+18.0153+18.0153+18.0153+18.0153+18.0153)

> <DSSTox_CID>
26605

> <DSSTox_RID>
81760

> <DSSTox_GSID>
46605

> <DSSTox_FileID_Sort>
6441

> <TS_ChemName>
Sodium triphosphate hydrate (5:1:6)

> <TS_ChemName_Synonyms>


> <TS_CASRN>
15091-98-2

> <CASRN_ChemName_Relationship>
primary

> <TS_Description>
single chemical compound

> <ChemNote>


> <STRUCTURE_Shown>
tested chemical

> <STRUCTURE_Formula>
H12Na5O16P3

> <STRUCTURE_MW>
475.9558

> <STRUCTURE_ChemType>
inorganic

> <STRUCTURE_DefinedOrganicForm>


> <STRUCTURE_IUPAC>
sodium triphosphate hydrate (5:1:6)

> <STRUCTURE_SMILES>
[Na+].[Na+].[Na+].[Na+].[Na+].O.O.O.O.O.O.[O-]P(=O)(OP(=O)([O-])[O-])OP(=O)([O-])[O-]

> <STRUCTURE_SMILES_Desalt>
O=P(O)(OP(O)(=O)O)OP(O)(=O)O

> <Substance_modify_yyyymmdd>
20110809

$$$$
