150915-40-5
ChemmineR-0915142007XD

 32 31  0  0  1  0  0  0  0  0  1 V2000
   11.6029   -3.3546    0.0000 C    0  0  0  0  0  0  0  0  0  0  0  0
   11.6029   -2.0128    0.0000 C    0  0  0  0  0  0  0  0  0  0  0  0
   10.4387   -1.3221    0.0000 C    0  0  0  0  0  0  0  0  0  0  0  0
    9.2942   -2.0128    0.0000 C    0  0  0  0  0  0  0  0  0  0  0  0
    9.2942   -3.3546    0.0000 C    0  0  0  0  0  0  0  0  0  0  0  0
   10.4387   -4.0255    0.0000 C    0  0  0  0  0  0  0  0  0  0  0  0
    8.1299   -4.0255    0.0000 O    0  0  0  0  0  0  0  0  0  0  0  0
    6.9657   -3.3546    0.0000 C    0  0  0  0  0  0  0  0  0  0  0  0
    5.8015   -4.0255    0.0000 C    0  0  0  0  0  0  0  0  0  0  0  0
    4.6570   -3.3546    0.0000 C    0  0  0  0  0  0  0  0  0  0  0  0
    3.4730   -4.0255    0.0000 C    0  0  0  0  0  0  0  0  0  0  0  0
    2.3087   -3.3546    0.0000 C    0  0  0  0  0  0  0  0  0  0  0  0
    2.3087   -2.0128    0.0000 C    0  0  0  0  0  0  0  0  0  0  0  0
    1.1445   -1.3221    0.0000 C    0  0  0  0  0  0  0  0  0  0  0  0
    0.0000   -2.0128    0.0000 N    0  0  0  0  0  0  0  0  0  0  0  0
    0.0000   -3.3546    0.0000 C    0  0  0  0  0  0  0  0  0  0  0  0
    1.1445   -4.0255    0.0000 C    0  0  0  0  0  0  0  0  0  0  0  0
   12.7672   -1.3221    0.0000 C    0  0  0  0  0  0  0  0  0  0  0  0
   13.9314   -2.0128    0.0000 C    0  0  0  0  0  0  0  0  0  0  0  0
   15.0759   -1.3221    0.0000 C    0  0  0  0  0  0  0  0  0  0  0  0
   16.2599   -2.0128    0.0000 O    0  0  0  0  0  0  0  0  0  0  0  0
   15.0759    0.0000    0.0000 O    0  0  0  0  0  0  0  0  0  0  0  0
   13.9314   -3.3546    0.0000 N    0  0  0  0  0  0  0  0  0  0  0  0
   15.0759   -4.0255    0.0000 S    0  0  0  0  0  0  0  0  0  0  0  0
   16.2599   -3.3546    0.0000 C    0  0  0  0  0  0  0  0  0  0  0  0
   17.4241   -4.0255    0.0000 C    0  0  0  0  0  0  0  0  0  0  0  0
   18.5884   -3.3546    0.0000 C    0  0  0  0  0  0  0  0  0  0  0  0
   19.7329   -4.0255    0.0000 C    0  0  0  0  0  0  0  0  0  0  0  0
   14.5037   -5.0122    0.0000 O    0  0  0  0  0  0  0  0  0  0  0  0
   15.6482   -5.0319    0.0000 O    0  0  0  0  0  0  0  0  0  0  0  0
    4.4202   -5.0713    0.0000 Cl   0  0  0  0  0  0  0  0  0  0  0  0
   11.6029   -5.1700    0.0000 O    0  0  0  0  0  0  0  0  0  0  0  0
  1  2  2  0  0  0  0
  1  6  1  0  0  0  0
  2 18  1  0  0  0  0
  2  3  1  0  0  0  0
  3  4  2  0  0  0  0
  4  5  1  0  0  0  0
  5  6  2  0  0  0  0
  5  7  1  0  0  0  0
  7  8  1  0  0  0  0
  8  9  1  0  0  0  0
  9 10  1  0  0  0  0
 10 11  1  0  0  0  0
 11 12  1  0  0  0  0
 12 17  1  0  0  0  0
 12 13  1  0  0  0  0
 13 14  1  0  0  0  0
 14 15  1  0  0  0  0
 15 16  1  0  0  0  0
 16 17  1  0  0  0  0
 18 19  1  0  0  0  0
 19 20  1  0  0  0  0
 19 23  1  1  0  0  0
 20 21  1  0  0  0  0
 20 22  2  0  0  0  0
 23 24  1  0  0  0  0
 24 25  1  0  0  0  0
 24 29  2  0  0  0  0
 24 30  2  0  0  0  0
 25 26  1  0  0  0  0
 26 27  1  0  0  0  0
 27 28  1  0  0  0  0
M  END
> <ID>
13632

> <Formula>
C22H39ClN2O6S

> <FW>
495.0729 (440.5966+36.4609+18.0153)

> <DSSTox_CID>
28561

> <DSSTox_RID>
82833

> <DSSTox_GSID>
48635

> <DSSTox_FileID_Sort>
7510

> <TS_ChemName>
Tirofiban hydrochloride monohydrate

> <TS_ChemName_Synonyms>
Tirofiban

> <TS_CASRN>
150915-40-5

> <CASRN_ChemName_Relationship>
primary

> <TS_Description>
single chemical compound

> <ChemNote>
absolute stereochem

> <STRUCTURE_Shown>
tested chemical

> <STRUCTURE_Formula>
C22H39ClN2O6S

> <STRUCTURE_MW>
495.0729

> <STRUCTURE_ChemType>
defined organic

> <STRUCTURE_DefinedOrganicForm>
complex

> <STRUCTURE_IUPAC>
N-(butylsulfonyl)-O-[4-(piperidin-4-yl)butyl]-L-tyrosine hydrochloride hydrate

> <STRUCTURE_SMILES>
Cl.O.O=C(O)[C@@H](NS(=O)(=O)CCCC)Cc1ccc(cc1)OCCCCC2CCNCC2

> <STRUCTURE_SMILES_Desalt>
O=C(O)[C@@H](NS(=O)(=O)CCCC)Cc1ccc(cc1)OCCCCC2CCNCC2

> <Substance_modify_yyyymmdd>
20111018

$$$$
