1509-34-8
ChemmineR-0915142007XD

  9  8  0  0  1  0  0  0  0  0  1 V2000
    5.7622   -1.9937    0.0000 C   0  0  0  0  0  0  0  0  0  0  0  0
    4.6097   -1.3311    0.0000 C   0  0  0  0  0  0  0  0  0  0  0  0
    3.4573   -1.9937    0.0000 C   0  0  0  0  0  0  0  0  0  0  0  0
    3.4573   -3.3248    0.0000 C   0  0  0  0  0  0  0  0  0  0  0  0
    2.3049   -1.3311    0.0000 C   0  0  0  0  0  0  0  0  0  0  0  0
    2.3049    0.0000    0.0000 N   0  0  0  0  0  0  0  0  0  0  0  0
    1.1524   -1.9937    0.0000 C   0  0  0  0  0  0  0  0  0  0  0  0
    0.0000   -1.3311    0.0000 O   0  0  0  0  0  0  0  0  0  0  0  0
    1.1524   -3.3248    0.0000 O   0  0  0  0  0  0  0  0  0  0  0  0
  1  2  1  0  0  0  0
  2  3  1  0  0  0  0
  3  4  1  1  0  0  0
  3  5  1  0  0  0  0
  5  6  1  1  0  0  0
  5  7  1  0  0  0  0
  7  8  1  0  0  0  0
  7  9  2  0  0  0  0
M  END
> <ID>
11761

> <Formula>
C6H13NO2

> <FW>
131.1729

> <DSSTox_CID>
26530

> <DSSTox_RID>
81695

> <DSSTox_GSID>
46530

> <DSSTox_FileID_Sort>
6376

> <TS_ChemName>
L-Alloisoleucine

> <TS_ChemName_Synonyms>


> <TS_CASRN>
1509-34-8

> <CASRN_ChemName_Relationship>
primary

> <TS_Description>
single chemical compound

> <ChemNote>
stereochem

> <STRUCTURE_Shown>
tested chemical

> <STRUCTURE_Formula>
C6H13NO2

> <STRUCTURE_MW>
131.1729

> <STRUCTURE_ChemType>
defined organic

> <STRUCTURE_DefinedOrganicForm>
parent

> <STRUCTURE_IUPAC>
L-alloisoleucine

> <STRUCTURE_SMILES>
C[C@H](CC)[C@H](N)C(=O)O

> <STRUCTURE_SMILES_Desalt>
C[C@H](CC)[C@H](N)C(=O)O

> <Substance_modify_yyyymmdd>
20110811

$$$$
