151-05-3
ChemmineR-0915142007XD

 14 14  0  0  0  0  0  0  0  0  1 V2000
    2.6570   -3.4548    0.0000 C   0  0  0  0  0  0  0  0  0  0  0  0
    2.0055   -2.3056    0.0000 C   0  0  0  0  0  0  0  0  0  0  0  0
    2.6570   -1.1492    0.0000 C   0  0  0  0  0  0  0  0  0  0  0  0
    2.0055    0.0000    0.0000 C   0  0  0  0  0  0  0  0  0  0  0  0
    0.6734    0.0000    0.0000 C   0  0  0  0  0  0  0  0  0  0  0  0
    0.0000   -1.1492    0.0000 C   0  0  0  0  0  0  0  0  0  0  0  0
    0.6734   -2.3056    0.0000 C   0  0  0  0  0  0  0  0  0  0  0  0
    3.9891   -3.4548    0.0000 C   0  0  0  0  0  0  0  0  0  0  0  0
    5.3140   -3.4548    0.0000 O   0  0  0  0  0  0  0  0  0  0  0  0
    5.9873   -2.3056    0.0000 C   0  0  0  0  0  0  0  0  0  0  0  0
    7.3195   -2.3056    0.0000 C   0  0  0  0  0  0  0  0  0  0  0  0
    5.3140   -1.1492    0.0000 O   0  0  0  0  0  0  0  0  0  0  0  0
    3.9891   -4.7869    0.0000 C   0  0  0  0  0  0  0  0  0  0  0  0
    3.9891   -2.1300    0.0000 C   0  0  0  0  0  0  0  0  0  0  0  0
  1  2  1  0  0  0  0
  1  8  1  0  0  0  0
  2  3  1  0  0  0  0
  2  7  2  0  0  0  0
  3  4  2  0  0  0  0
  4  5  1  0  0  0  0
  5  6  2  0  0  0  0
  6  7  1  0  0  0  0
  8  9  1  0  0  0  0
  8 13  1  0  0  0  0
  8 14  1  0  0  0  0
  9 10  1  0  0  0  0
 10 11  1  0  0  0  0
 10 12  2  0  0  0  0
M  END
> <ID>
8823

> <Formula>
C12H16O2

> <FW>
192.2542

> <DSSTox_CID>
21877

> <DSSTox_RID>
79862

> <DSSTox_GSID>
41877

> <DSSTox_FileID_Sort>
4544

> <TS_ChemName>
Dimethylbenzylcarbinyl acetate

> <TS_ChemName_Synonyms>
alpha,alpha-Dimethylphenethyl acetate

> <TS_CASRN>
151-05-3

> <CASRN_ChemName_Relationship>
primary

> <TS_Description>
single chemical compound

> <ChemNote>


> <STRUCTURE_Shown>
tested chemical

> <STRUCTURE_Formula>
C12H16O2

> <STRUCTURE_MW>
192.2542

> <STRUCTURE_ChemType>
defined organic

> <STRUCTURE_DefinedOrganicForm>
parent

> <STRUCTURE_IUPAC>
2-methyl-1-phenylpropan-2-yl acetate

> <STRUCTURE_SMILES>
CC(=O)OC(C)(C)Cc1ccccc1

> <STRUCTURE_SMILES_Desalt>
CC(=O)OC(C)(C)Cc1ccccc1

> <Substance_modify_yyyymmdd>
20080825

$$$$
