151-21-3
ChemmineR-0915142007XD

 18 16  0  0  0  0  0  0  0  0  2 V2000
    1.3330   -2.1661    0.0000 S    0  0  0  0  0  0  0  0  0  0  0  0
    2.6660   -2.1661    0.0000 O    0  0  0  0  0  0  0  0  0  0  0  0
    0.0000   -2.1661    0.0000 O    0  0  0  0  0  0  0  0  0  0  0  0
    1.3330   -0.8483    0.0000 O    0  5  0  0  0  0  0  0  0  0  0  0
    1.3330   -3.4992    0.0000 O    0  0  0  0  0  0  0  0  0  0  0  0
    2.4842   -4.1657    0.0000 C    0  0  0  0  0  0  0  0  0  0  0  0
    3.6355   -3.4992    0.0000 C    0  0  0  0  0  0  0  0  0  0  0  0
    4.7867   -4.1657    0.0000 C    0  0  0  0  0  0  0  0  0  0  0  0
    5.9380   -3.4992    0.0000 C    0  0  0  0  0  0  0  0  0  0  0  0
    7.0892   -4.1657    0.0000 C    0  0  0  0  0  0  0  0  0  0  0  0
    8.2404   -3.4992    0.0000 C    0  0  0  0  0  0  0  0  0  0  0  0
    9.3917   -4.1657    0.0000 C    0  0  0  0  0  0  0  0  0  0  0  0
   10.5429   -3.4992    0.0000 C    0  0  0  0  0  0  0  0  0  0  0  0
   11.6941   -4.1657    0.0000 C    0  0  0  0  0  0  0  0  0  0  0  0
   12.8605   -3.4992    0.0000 C    0  0  0  0  0  0  0  0  0  0  0  0
   14.0118   -4.1657    0.0000 C    0  0  0  0  0  0  0  0  0  0  0  0
   15.1479   -3.4992    0.0000 C    0  0  0  0  0  0  0  0  0  0  0  0
    4.0899    0.0000    0.0000 Na   0  3  0  0  0  0  0  0  0  0  0  0
  1  2  2  0  0  0  0
  1  3  2  0  0  0  0
  1  4  1  0  0  0  0
  1  5  1  0  0  0  0
  5  6  1  0  0  0  0
  6  7  1  0  0  0  0
  7  8  1  0  0  0  0
  8  9  1  0  0  0  0
  9 10  1  0  0  0  0
 10 11  1  0  0  0  0
 11 12  1  0  0  0  0
 12 13  1  0  0  0  0
 13 14  1  0  0  0  0
 14 15  1  0  0  0  0
 15 16  1  0  0  0  0
 16 17  1  0  0  0  0
M  END
> <ID>
4507

> <Formula>
C12H25NaO4S

> <FW>
288.3793 (265.3900+22.9892)

> <DSSTox_CID>
6031

> <DSSTox_RID>
77989

> <DSSTox_GSID>
26031

> <DSSTox_FileID_Sort>
2672

> <TS_ChemName>
Sodium dodecyl sulfate

> <TS_ChemName_Synonyms>
Sodium dodecyl sulfate (Sodium lauryl sulfate) (SDS)

> <TS_CASRN>
151-21-3

> <CASRN_ChemName_Relationship>
primary

> <TS_Description>
single chemical compound

> <ChemNote>
parent [151-41-7]

> <STRUCTURE_Shown>
tested chemical

> <STRUCTURE_Formula>
C12H25NaO4S

> <STRUCTURE_MW>
288.3793

> <STRUCTURE_ChemType>
defined organic

> <STRUCTURE_DefinedOrganicForm>
salt

> <STRUCTURE_IUPAC>
sodium dodecyl sulfate

> <STRUCTURE_SMILES>
[Na+].[O-]S(=O)(=O)OCCCCCCCCCCCC

> <STRUCTURE_SMILES_Desalt>
OS(=O)(=O)OCCCCCCCCCCCC

> <Substance_modify_yyyymmdd>
20080429

$$$$
