151-73-5
ChemmineR-0915142007XD

 36 37  0  0  1  0  0  0  0  0  2 V2000
    9.6987    0.0000    0.0000 Na   0  3  0  0  0  0  0  0  0  0  0  0
   13.5836   -2.4043    0.0000 Na   0  3  0  0  0  0  0  0  0  0  0  0
    6.9548   -3.5861    0.0000 C    0  0  0  0  0  0  0  0  0  0  0  0
    4.6592   -4.9308    0.0000 C    0  0  0  0  0  0  0  0  0  0  0  0
    3.4910   -5.5693    0.0000 C    0  0  0  0  0  0  0  0  0  0  0  0
    6.9548   -4.9308    0.0000 C    0  0  0  0  0  0  0  0  0  0  0  0
    5.8002   -5.5693    0.0000 C    0  0  0  0  0  0  0  0  0  0  0  0
    8.2588   -3.1921    0.0000 C    0  0  0  0  0  0  0  0  0  0  0  0
    3.4910   -6.9276    0.0000 C    0  0  0  0  0  0  0  0  0  0  0  0
    4.6592   -3.5861    0.0000 C    0  0  0  0  0  0  0  0  0  0  0  0
    5.8002   -2.9476    0.0000 C    0  0  0  0  0  0  0  0  0  0  0  0
    9.0195   -4.2517    0.0000 C    0  0  0  0  0  0  0  0  0  0  0  0
    2.3635   -4.9308    0.0000 C    0  0  0  0  0  0  0  0  0  0  0  0
    8.2316   -5.3383    0.0000 C    0  0  0  0  0  0  0  0  0  0  0  0
    2.3635   -7.6068    0.0000 C    0  0  0  0  0  0  0  0  0  0  0  0
    8.2588   -1.8338    0.0000 C    0  0  0  0  0  0  0  0  0  0  0  0
    5.8002   -6.9276    0.0000 C    0  0  0  0  0  0  0  0  0  0  0  0
    1.1954   -5.5693    0.0000 C    0  0  0  0  0  0  0  0  0  0  0  0
    1.1954   -6.9276    0.0000 C    0  0  0  0  0  0  0  0  0  0  0  0
    4.6592   -7.6068    0.0000 C    0  0  0  0  0  0  0  0  0  0  0  0
    4.6184   -6.0719    0.0000 F    0  0  0  0  0  0  0  0  0  0  0  0
    7.1042   -1.1546    0.0000 O    0  0  0  0  0  0  0  0  0  0  0  0
    0.0000   -7.6340    0.0000 O    0  0  0  0  0  0  0  0  0  0  0  0
    9.5628   -3.1650    0.0000 O    0  0  0  0  0  0  0  0  0  0  0  0
    6.9548   -2.2277    0.0000 C    0  0  0  0  0  0  0  0  0  0  0  0
    3.4774   -2.9069    0.0000 O    0  0  0  0  0  0  0  0  0  0  0  0
    3.4910   -4.2517    0.0000 C    0  0  0  0  0  0  0  0  0  0  0  0
   10.3507   -4.2517    0.0000 C    0  0  0  0  0  0  0  0  0  0  0  0
    9.3998   -1.1818    0.0000 C    0  0  0  0  0  0  0  0  0  0  0  0
   10.5816   -1.8609    0.0000 O    0  0  0  0  0  0  0  0  0  0  0  0
    5.8002   -4.2517    0.0000 H    0  0  0  0  0  0  0  0  0  0  0  0
    6.9548   -6.2484    0.0000 H    0  0  0  0  0  0  0  0  0  0  0  0
   11.7226   -1.2361    0.0000 P    0  0  0  0  0  0  0  0  0  0  0  0
   12.8908   -0.5569    0.0000 O    0  0  0  0  0  0  0  0  0  0  0  0
   11.0706   -0.0543    0.0000 O    0  5  0  0  0  0  0  0  0  0  0  0
   12.3882   -2.3771    0.0000 O    0  5  0  0  0  0  0  0  0  0  0  0
  3  6  1  0  0  0  0
  3  8  1  0  0  0  0
  3 11  1  0  0  0  0
  3 25  1  1  0  0  0
  4 10  1  0  0  0  0
  4  5  1  0  0  0  0
  4 21  1  6  0  0  0
  4  7  1  0  0  0  0
  5  9  1  0  0  0  0
  5 13  1  0  0  0  0
  5 27  1  1  0  0  0
  6  7  1  0  0  0  0
  6 14  1  0  0  0  0
  6 32  1  6  0  0  0
  7 17  1  0  0  0  0
  7 31  1  1  0  0  0
  8 12  1  0  0  0  0
  8 16  1  0  0  0  0
  8 24  1  6  0  0  0
  9 15  2  0  0  0  0
  9 20  1  0  0  0  0
 10 11  1  0  0  0  0
 10 26  1  1  0  0  0
 12 28  1  1  0  0  0
 12 14  1  0  0  0  0
 13 18  2  0  0  0  0
 15 19  1  0  0  0  0
 16 22  2  0  0  0  0
 16 29  1  0  0  0  0
 17 20  1  0  0  0  0
 18 19  1  0  0  0  0
 19 23  2  0  0  0  0
 29 30  1  0  0  0  0
 30 33  1  0  0  0  0
 33 34  2  0  0  0  0
 33 35  1  0  0  0  0
 33 36  1  0  0  0  0
M  END
> <ID>
12287

> <Formula>
C22H28FNa2O8P

> <FW>
516.4046 (22.9892+22.9892+470.4262)

> <DSSTox_CID>
27137

> <DSSTox_RID>
82144

> <DSSTox_GSID>
47137

> <DSSTox_FileID_Sort>
6825

> <TS_ChemName>
Betamethasone 21-phosphate disodium

> <TS_ChemName_Synonyms>


> <TS_CASRN>
151-73-5

> <CASRN_ChemName_Relationship>
primary

> <TS_Description>
single chemical compound

> <ChemNote>
stereochem; parent [360-63-4]

> <STRUCTURE_Shown>
tested chemical

> <STRUCTURE_Formula>
C22H28FNa2O8P

> <STRUCTURE_MW>
516.4046

> <STRUCTURE_ChemType>
defined organic

> <STRUCTURE_DefinedOrganicForm>
salt

> <STRUCTURE_IUPAC>
disodium (11beta,16beta)-9-fluoro-11,17-dihydroxy-16-methyl-3,20-dioxopregna-1,4-dien-21-yl phosphate

> <STRUCTURE_SMILES>
[Na+].[Na+].[O-]P([O-])(=O)OCC(=O)[C@@]4(O)[C@@H](C)C[C@@H]3[C@]4(C)C[C@H](O)[C@@]2(F)[C@H]3CCC1=CC(=O)C=C[C@@]12C

> <STRUCTURE_SMILES_Desalt>
O=P(O)(O)OCC(=O)[C@@]4(O)[C@@H](C)C[C@@H]3[C@]4(C)C[C@H](O)[C@@]2(F)[C@H]3CCC1=CC(=O)C=C[C@@]12C

> <Substance_modify_yyyymmdd>
20100502

$$$$
