151-67-7
ChemmineR-0915142007XD

  7  6  0  0  0  0  0  0  0  0  1 V2000
    0.0000   -1.9956    0.0000 F    0  0  0  0  0  0  0  0  0  0  0  0
    1.3304   -1.9956    0.0000 C    0  0  0  0  0  0  0  0  0  0  0  0
    2.6608   -1.9956    0.0000 F    0  0  0  0  0  0  0  0  0  0  0  0
    1.3304   -3.3260    0.0000 F    0  0  0  0  0  0  0  0  0  0  0  0
    1.3304   -0.6652    0.0000 C    0  0  0  0  0  0  0  0  0  0  0  0
    0.1796    0.0000    0.0000 Cl   0  0  0  0  0  0  0  0  0  0  0  0
    2.4812    0.0000    0.0000 Br   0  0  0  0  0  0  0  0  0  0  0  0
  1  2  1  0  0  0  0
  2  3  1  0  0  0  0
  2  4  1  0  0  0  0
  2  5  1  0  0  0  0
  5  6  1  0  0  0  0
  5  7  1  0  0  0  0
M  END
> <ID>
4165

> <Formula>
C2HBrClF3

> <FW>
197.3815

> <DSSTox_CID>
5371

> <DSSTox_RID>
77767

> <DSSTox_GSID>
25371

> <DSSTox_FileID_Sort>
2450

> <TS_ChemName>
Halothane

> <TS_ChemName_Synonyms>


> <TS_CASRN>
151-67-7

> <CASRN_ChemName_Relationship>
primary

> <TS_Description>
single chemical compound

> <ChemNote>


> <STRUCTURE_Shown>
tested chemical

> <STRUCTURE_Formula>
C2HBrClF3

> <STRUCTURE_MW>
197.3815

> <STRUCTURE_ChemType>
defined organic

> <STRUCTURE_DefinedOrganicForm>
parent

> <STRUCTURE_IUPAC>
2-bromo-2-chloro-1,1,1-trifluoroethane

> <STRUCTURE_SMILES>
BrC(Cl)C(F)(F)F

> <STRUCTURE_SMILES_Desalt>
BrC(Cl)C(F)(F)F

> <Substance_modify_yyyymmdd>
20080429

$$$$
