151-10-0
ChemmineR-0915142007XD

 10 10  0  0  0  0  0  0  0  0  1 V2000
    3.4535    0.0000    0.0000 C   0  0  0  0  0  0  0  0  0  0  0  0
    4.6139   -0.6769    0.0000 C   0  0  0  0  0  0  0  0  0  0  0  0
    2.2931   -0.6631    0.0000 C   0  0  0  0  0  0  0  0  0  0  0  0
    1.1604    0.0000    0.0000 O   0  0  0  0  0  0  0  0  0  0  0  0
    5.7466    0.0000    0.0000 O   0  0  0  0  0  0  0  0  0  0  0  0
    3.4535   -2.6454    0.0000 C   0  0  0  0  0  0  0  0  0  0  0  0
    2.2931   -1.9823    0.0000 C   0  0  0  0  0  0  0  0  0  0  0  0
    4.6139   -2.0030    0.0000 C   0  0  0  0  0  0  0  0  0  0  0  0
    6.9070   -0.6769    0.0000 C   0  0  0  0  0  0  0  0  0  0  0  0
    0.0000   -0.6631    0.0000 C   0  0  0  0  0  0  0  0  0  0  0  0
  1  2  2  0  0  0  0
  1  3  1  0  0  0  0
  2  5  1  0  0  0  0
  2  8  1  0  0  0  0
  3  4  1  0  0  0  0
  3  7  2  0  0  0  0
  4 10  1  0  0  0  0
  5  9  1  0  0  0  0
  6  7  1  0  0  0  0
  6  8  2  0  0  0  0
M  END
> <ID>
12214

> <Formula>
C8H10O2

> <FW>
138.1638

> <DSSTox_CID>
27060

> <DSSTox_RID>
82077

> <DSSTox_GSID>
47060

> <DSSTox_FileID_Sort>
6758

> <TS_ChemName>
1,3-Dimethoxybenzene

> <TS_ChemName_Synonyms>


> <TS_CASRN>
151-10-0

> <CASRN_ChemName_Relationship>
primary

> <TS_Description>
single chemical compound

> <ChemNote>


> <STRUCTURE_Shown>
tested chemical

> <STRUCTURE_Formula>
C8H10O2

> <STRUCTURE_MW>
138.1638

> <STRUCTURE_ChemType>
defined organic

> <STRUCTURE_DefinedOrganicForm>
parent

> <STRUCTURE_IUPAC>
1,3-dimethoxybenzene

> <STRUCTURE_SMILES>
COc1cccc(OC)c1

> <STRUCTURE_SMILES_Desalt>
COc1cccc(OC)c1

> <Substance_modify_yyyymmdd>
20100429

$$$$
