151-06-4
ChemmineR-0915142007XD

 13 12  0  0  0  0  0  0  0  0  1 V2000
    6.3527   -1.1578    0.0000 C    0  0  0  0  0  0  0  0  0  0  0  0
    5.2100   -0.4812    0.0000 C    0  0  0  0  0  0  0  0  0  0  0  0
    7.5180   -1.8043    0.0000 N    0  0  0  0  0  0  0  0  0  0  0  0
    4.0522   -1.1578    0.0000 C    0  0  0  0  0  0  0  0  0  0  0  0
    1.7291   -2.4659    0.0000 C    0  0  0  0  0  0  0  0  0  0  0  0
    0.5789   -3.1125    0.0000 Cl   0  0  0  0  0  0  0  0  0  0  0  0
    1.7291   -1.1578    0.0000 C    0  0  0  0  0  0  0  0  0  0  0  0
    2.9019   -3.1275    0.0000 C    0  0  0  0  0  0  0  0  0  0  0  0
    2.9019   -0.4962    0.0000 C    0  0  0  0  0  0  0  0  0  0  0  0
    4.0522   -2.4809    0.0000 C    0  0  0  0  0  0  0  0  0  0  0  0
    5.6986   -2.3080    0.0000 C    0  0  0  0  0  0  0  0  0  0  0  0
    7.0368    0.0000    0.0000 C    0  0  0  0  0  0  0  0  0  0  0  0
    0.0000   -1.4510    0.0000 Cl   0  0  0  0  0  0  0  0  0  0  0  0
  1  2  1  0  0  0  0
  1  3  1  0  0  0  0
  1 11  1  0  0  0  0
  1 12  1  0  0  0  0
  2  4  1  0  0  0  0
  4  9  1  0  0  0  0
  4 10  2  0  0  0  0
  5  8  2  0  0  0  0
  5  6  1  0  0  0  0
  5  7  1  0  0  0  0
  7  9  2  0  0  0  0
  8 10  1  0  0  0  0
M  END
> <ID>
12904

> <Formula>
C10H15Cl2N

> <FW>
220.1388 (183.6779+36.4609)

> <DSSTox_CID>
27792

> <DSSTox_RID>
82565

> <DSSTox_GSID>
47815

> <DSSTox_FileID_Sort>
7243

> <TS_ChemName>
Chlorphentermine hydrochloride

> <TS_ChemName_Synonyms>


> <TS_CASRN>
151-06-4

> <CASRN_ChemName_Relationship>
primary

> <TS_Description>
single chemical compound

> <ChemNote>
parent [461-78-9]

> <STRUCTURE_Shown>
tested chemical

> <STRUCTURE_Formula>
C10H15Cl2N

> <STRUCTURE_MW>
220.1388

> <STRUCTURE_ChemType>
defined organic

> <STRUCTURE_DefinedOrganicForm>
complex

> <STRUCTURE_IUPAC>
1-(4-chlorophenyl)-2-methylpropan-2-amine hydrochloride (1:1)

> <STRUCTURE_SMILES>
Cl.Clc1ccc(CC(C)(C)N)cc1

> <STRUCTURE_SMILES_Desalt>
Clc1ccc(CC(C)(C)N)cc1

> <Substance_modify_yyyymmdd>
20110808

$$$$
