151287-22-8
ChemmineR-0915142007XD

 39 42  0  0  1  0  0  0  0  0  1 V2000
    2.4433  -18.6113    0.0000 C   0  0  0  0  0  0  0  0  0  0  0  0
    3.7032  -18.1914    0.0000 C   0  0  0  0  0  0  0  0  0  0  0  0
    4.6958  -19.0885    0.0000 C   0  0  0  0  0  0  0  0  0  0  0  0
    3.9895  -16.8933    0.0000 C   0  0  0  0  0  0  0  0  0  0  0  0
    5.2493  -16.4734    0.0000 O   0  0  0  0  0  0  0  0  0  0  0  0
    2.9969  -15.9962    0.0000 O   0  0  0  0  0  0  0  0  0  0  0  0
    3.2641  -14.6982    0.0000 C   0  0  0  0  0  0  0  0  0  0  0  0
    2.2715  -13.8201    0.0000 C   0  0  0  0  0  0  0  0  0  0  0  0
    1.0308  -14.2209    0.0000 C   0  0  0  0  0  0  0  0  0  0  0  0
    0.0382  -13.3429    0.0000 C   0  0  0  0  0  0  0  0  0  0  0  0
    0.3054  -12.0449    0.0000 C   0  0  0  0  0  0  0  0  0  0  0  0
    1.5653  -11.6249    0.0000 C   0  0  0  0  0  0  0  0  0  0  0  0
    2.5579  -12.5030    0.0000 C   0  0  0  0  0  0  0  0  0  0  0  0
    1.8516  -10.3269    0.0000 O   0  0  0  0  0  0  0  0  0  0  0  0
    3.1114   -9.9069    0.0000 C   0  0  0  0  0  0  0  0  0  0  0  0
    4.1040  -10.8041    0.0000 O   0  0  0  0  0  0  0  0  0  0  0  0
    3.3978   -8.6089    0.0000 C   0  0  0  0  0  0  0  0  0  0  0  0
    2.1379   -9.0289    0.0000 H   0  0  0  0  0  0  0  0  0  0  0  0
    3.1114   -7.3109    0.0000 N   0  0  0  0  0  0  0  0  0  0  0  0
    4.2567   -6.6428    0.0000 C   0  0  0  0  0  0  0  0  0  0  0  0
    5.2684   -5.7647    0.0000 H   0  0  0  0  0  0  0  0  0  0  0  0
    5.2493   -7.5400    0.0000 S   0  0  0  0  0  0  0  0  0  0  0  0
    4.7149   -8.7425    0.0000 C   0  0  0  0  0  0  0  0  0  0  0  0
    4.7149  -10.0787    0.0000 C   0  0  0  0  0  0  0  0  0  0  0  0
    5.8602   -9.4106    0.0000 C   0  0  0  0  0  0  0  0  0  0  0  0
    3.6077   -5.4784    0.0000 C   0  0  0  0  0  0  0  0  0  0  0  0
    4.5431   -4.5431    0.0000 H   0  0  0  0  0  0  0  0  0  0  0  0
    3.2450   -4.1995    0.0000 N   0  0  0  0  0  0  0  0  0  0  0  0
    4.1995   -3.2450    0.0000 C   0  0  0  0  0  0  0  0  0  0  0  0
    5.4784   -3.6077    0.0000 O   0  0  0  0  0  0  0  0  0  0  0  0
    3.8559   -1.9661    0.0000 C   0  0  0  0  0  0  0  0  0  0  0  0
    2.5579   -1.6416    0.0000 C   0  0  0  0  0  0  0  0  0  0  0  0
    1.6416   -2.5579    0.0000 C   0  0  0  0  0  0  0  0  0  0  0  0
    0.3436   -2.2334    0.0000 C   0  0  0  0  0  0  0  0  0  0  0  0
    0.0000   -0.9544    0.0000 C   0  0  0  0  0  0  0  0  0  0  0  0
    0.9544    0.0000    0.0000 C   0  0  0  0  0  0  0  0  0  0  0  0
    2.2334   -0.3436    0.0000 C   0  0  0  0  0  0  0  0  0  0  0  0
    2.4433   -6.1465    0.0000 C   0  0  0  0  0  0  0  0  0  0  0  0
    1.1644   -5.8029    0.0000 O   0  0  0  0  0  0  0  0  0  0  0  0
  1  2  1  0  0  0  0
  2  3  1  0  0  0  0
  2  4  1  0  0  0  0
  4  5  2  0  0  0  0
  4  6  1  0  0  0  0
  6  7  1  0  0  0  0
  7  8  1  0  0  0  0
  8  9  2  0  0  0  0
  8 13  1  0  0  0  0
  9 10  1  0  0  0  0
 10 11  2  0  0  0  0
 11 12  1  0  0  0  0
 12 13  2  0  0  0  0
 12 14  1  0  0  0  0
 14 15  1  0  0  0  0
 15 16  2  0  0  0  0
 15 17  1  0  0  0  0
 17 18  1  1  0  0  0
 17 19  1  0  0  0  0
 17 23  1  0  0  0  0
 19 20  1  0  0  0  0
 19 38  1  0  0  0  0
 20 21  1  6  0  0  0
 20 22  1  0  0  0  0
 20 26  1  0  0  0  0
 22 23  1  0  0  0  0
 23 24  1  0  0  0  0
 23 25  1  0  0  0  0
 26 27  1  6  0  0  0
 26 28  1  0  0  0  0
 26 38  1  0  0  0  0
 28 29  1  0  0  0  0
 29 30  2  0  0  0  0
 29 31  1  0  0  0  0
 31 32  1  0  0  0  0
 32 33  2  0  0  0  0
 32 37  1  0  0  0  0
 33 34  1  0  0  0  0
 34 35  2  0  0  0  0
 35 36  1  0  0  0  0
 36 37  2  0  0  0  0
 38 39  2  0  0  0  0
M  END
> <ID>
16052

> <Formula>
C27H30N2O6S

> <FW>
510.6019

> <DSSTox_CID>
31437

> <DSSTox_RID>
97323

> <DSSTox_GSID>
57648

> <DSSTox_FileID_Sort>
8390

> <TS_ChemName>
Tobicillin

> <TS_ChemName_Synonyms>


> <TS_CASRN>
151287-22-8

> <CASRN_ChemName_Relationship>
primary

> <TS_Description>
single chemical compound

> <ChemNote>


> <STRUCTURE_Shown>
tested chemical

> <STRUCTURE_Formula>
C27H30N2O6S

> <STRUCTURE_MW>
510.6019

> <STRUCTURE_ChemType>
defined organic

> <STRUCTURE_DefinedOrganicForm>
parent

> <STRUCTURE_IUPAC>
3-[(isobutyryloxy)methyl]phenyl (2S,5R,6R)-3,3-dimethyl-7-oxo-6-[(phenylacetyl)amino]-4-thia-1-azabicyclo[3.2.0]heptane-2-carboxylate

> <STRUCTURE_SMILES>
CC(C)C(=O)OCc4cc(OC(=O)[C@@H]2N3C(=O)[C@@H](NC(=O)Cc1ccccc1)[C@H]3SC2(C)C)ccc4

> <STRUCTURE_SMILES_Desalt>
CC(C)C(=O)OCc4cc(OC(=O)[C@@H]2N3C(=O)[C@@H](NC(=O)Cc1ccccc1)[C@H]3SC2(C)C)ccc4

> <Substance_modify_yyyymmdd>
20131018

$$$$
