151319-34-5
ChemmineR-0915142007XD

 23 25  0  0  0  0  0  0  0  0  1 V2000
    5.1438    0.0000    0.0000 C   0  0  0  0  0  0  0  0  0  0  0  0
    6.0780   -0.9466    0.0000 C   0  0  0  0  0  0  0  0  0  0  0  0
    5.7292   -2.2294    0.0000 C   0  0  0  0  0  0  0  0  0  0  0  0
    6.6758   -3.1635    0.0000 C   0  0  0  0  0  0  0  0  0  0  0  0
    6.3271   -4.4464    0.0000 C   0  0  0  0  0  0  0  0  0  0  0  0
    7.2736   -5.3929    0.0000 C   0  0  0  0  0  0  0  0  0  0  0  0
    8.5565   -5.0442    0.0000 N   0  0  0  0  0  0  0  0  0  0  0  0
    8.9052   -3.7614    0.0000 C   0  0  0  0  0  0  0  0  0  0  0  0
    7.9586   -2.8272    0.0000 N   0  0  0  0  0  0  0  0  0  0  0  0
    8.5689   -1.6440    0.0000 N   0  0  0  0  0  0  0  0  0  0  0  0
    9.8767   -1.8433    0.0000 C   0  0  0  0  0  0  0  0  0  0  0  0
   10.0884   -3.1635    0.0000 C   0  0  0  0  0  0  0  0  0  0  0  0
   11.2716   -3.7614    0.0000 C   0  0  0  0  0  0  0  0  0  0  0  0
   12.4548   -4.3716    0.0000 N   0  0  0  0  0  0  0  0  0  0  0  0
    4.4464   -2.5657    0.0000 C   0  0  0  0  0  0  0  0  0  0  0  0
    3.5123   -1.6316    0.0000 C   0  0  0  0  0  0  0  0  0  0  0  0
    2.2294   -1.9803    0.0000 N   0  0  0  0  0  0  0  0  0  0  0  0
    1.2828   -1.0338    0.0000 C   0  0  0  0  0  0  0  0  0  0  0  0
    0.0000   -1.3825    0.0000 C   0  0  0  0  0  0  0  0  0  0  0  0
    1.8184   -3.2383    0.0000 C   0  0  0  0  0  0  0  0  0  0  0  0
    0.5106   -3.5123    0.0000 O   0  0  0  0  0  0  0  0  0  0  0  0
    2.7027   -4.2346    0.0000 C   0  0  0  0  0  0  0  0  0  0  0  0
    3.8485   -0.3487    0.0000 C   0  0  0  0  0  0  0  0  0  0  0  0
  1  2  2  0  0  0  0
  1 23  1  0  0  0  0
  2  3  1  0  0  0  0
  3  4  1  0  0  0  0
  3 15  2  0  0  0  0
  4  5  2  0  0  0  0
  4  9  1  0  0  0  0
  5  6  1  0  0  0  0
  6  7  2  0  0  0  0
  7  8  1  0  0  0  0
  8  9  1  0  0  0  0
  8 12  2  0  0  0  0
  9 10  1  0  0  0  0
 10 11  2  0  0  0  0
 11 12  1  0  0  0  0
 12 13  1  0  0  0  0
 13 14  3  0  0  0  0
 15 16  1  0  0  0  0
 16 17  1  0  0  0  0
 16 23  2  0  0  0  0
 17 18  1  0  0  0  0
 17 20  1  0  0  0  0
 18 19  1  0  0  0  0
 20 21  2  0  0  0  0
 20 22  1  0  0  0  0
M  END
> <ID>
3350

> <Formula>
C17H15N5O

> <FW>
305.3339

> <DSSTox_CID>
3748

> <DSSTox_RID>
77183

> <DSSTox_GSID>
23748

> <DSSTox_FileID_Sort>
1866

> <TS_ChemName>
Zaleplon

> <TS_ChemName_Synonyms>


> <TS_CASRN>
151319-34-5

> <CASRN_ChemName_Relationship>
primary

> <TS_Description>
single chemical compound

> <ChemNote>


> <STRUCTURE_Shown>
tested chemical

> <STRUCTURE_Formula>
C17H15N5O

> <STRUCTURE_MW>
305.3339

> <STRUCTURE_ChemType>
defined organic

> <STRUCTURE_DefinedOrganicForm>
parent

> <STRUCTURE_IUPAC>
N-[3-(3-cyanopyrazolo[1,5-a]pyrimidin-7-yl)phenyl]-N-ethylacetamide

> <STRUCTURE_SMILES>
CC(=O)N(CC)c1cccc(c1)c2ccnc3c(cnn23)C#N

> <STRUCTURE_SMILES_Desalt>
CC(=O)N(CC)c1cccc(c1)c2ccnc3c(cnn23)C#N

> <Substance_modify_yyyymmdd>
20080429

$$$$
