151506-44-4
ChemmineR-0915142007XD

 25 27  0  0  0  0  0  0  0  0  1 V2000
    6.1869   -2.7918    0.0000 N   0  0  0  0  0  0  0  0  0  0  0  0
    5.7880   -4.0394    0.0000 N   0  0  0  0  0  0  0  0  0  0  0  0
    4.0394   -2.7918    0.0000 C   0  0  0  0  0  0  0  0  0  0  0  0
    4.4586   -4.0394    0.0000 C   0  0  0  0  0  0  0  0  0  0  0  0
    5.1131   -2.0043    0.0000 C   0  0  0  0  0  0  0  0  0  0  0  0
    5.1131   -0.6749    0.0000 C   0  0  0  0  0  0  0  0  0  0  0  0
    6.2687    0.0000    0.0000 F   0  0  0  0  0  0  0  0  0  0  0  0
    3.9575    0.0000    0.0000 F   0  0  0  0  0  0  0  0  0  0  0  0
    8.6718   -6.0641    0.0000 C   0  0  0  0  0  0  0  0  0  0  0  0
    8.1298   -7.2811    0.0000 C   0  0  0  0  0  0  0  0  0  0  0  0
    6.8107   -7.4242    0.0000 C   0  0  0  0  0  0  0  0  0  0  0  0
    6.0232   -6.3300    0.0000 C   0  0  0  0  0  0  0  0  0  0  0  0
    6.5754   -5.1336    0.0000 C   0  0  0  0  0  0  0  0  0  0  0  0
    7.8844   -4.9904    0.0000 C   0  0  0  0  0  0  0  0  0  0  0  0
    8.9070   -8.3548    0.0000 O   0  0  0  0  0  0  0  0  0  0  0  0
   10.2262   -8.2116    0.0000 C   0  0  0  0  0  0  0  0  0  0  0  0
    3.4258   -7.4242    0.0000 C   0  0  0  0  0  0  0  0  0  0  0  0
    2.0964   -7.2811    0.0000 C   0  0  0  0  0  0  0  0  0  0  0  0
    1.5748   -6.0641    0.0000 C   0  0  0  0  0  0  0  0  0  0  0  0
    2.3418   -4.9904    0.0000 C   0  0  0  0  0  0  0  0  0  0  0  0
    3.6712   -5.1336    0.0000 C   0  0  0  0  0  0  0  0  0  0  0  0
    4.2132   -6.3300    0.0000 C   0  0  0  0  0  0  0  0  0  0  0  0
    1.3294   -8.3548    0.0000 S   0  0  0  0  0  0  0  0  0  0  0  0
    0.0000   -8.2116    0.0000 O   0  0  0  0  0  0  0  0  0  0  0  0
    1.8612   -9.5717    0.0000 C   0  0  0  0  0  0  0  0  0  0  0  0
  1  2  1  0  0  0  0
  1  5  2  0  0  0  0
  2  4  1  0  0  0  0
  2 13  1  0  0  0  0
  3  4  2  0  0  0  0
  3  5  1  0  0  0  0
  4 21  1  0  0  0  0
  5  6  1  0  0  0  0
  6  7  1  0  0  0  0
  6  8  1  0  0  0  0
  9 14  2  0  0  0  0
  9 10  1  0  0  0  0
 10 11  2  0  0  0  0
 10 15  1  0  0  0  0
 11 12  1  0  0  0  0
 12 13  2  0  0  0  0
 13 14  1  0  0  0  0
 15 16  1  0  0  0  0
 17 22  2  0  0  0  0
 17 18  1  0  0  0  0
 18 19  2  0  0  0  0
 18 23  1  0  0  0  0
 19 20  1  0  0  0  0
 20 21  2  0  0  0  0
 21 22  1  0  0  0  0
 23 24  2  0  0  0  0
 23 25  1  0  0  0  0
M  END
> <ID>
13236

> <Formula>
C18H16F2N2O2S

> <FW>
362.3936

> <DSSTox_CID>
28149

> <DSSTox_RID>
82713

> <DSSTox_GSID>
48175

> <DSSTox_FileID_Sort>
7390

> <TS_ChemName>
FR140423

> <TS_ChemName_Synonyms>


> <TS_CASRN>
151506-44-4

> <CASRN_ChemName_Relationship>
primary

> <TS_Description>
single chemical compound

> <ChemNote>


> <STRUCTURE_Shown>
tested chemical

> <STRUCTURE_Formula>
C18H16F2N2O2S

> <STRUCTURE_MW>
362.3936

> <STRUCTURE_ChemType>
defined organic

> <STRUCTURE_DefinedOrganicForm>
parent

> <STRUCTURE_IUPAC>
3-(difluoromethyl)-1-(4-methoxyphenyl)-5-[4-(methylsulfinyl)phenyl]-1H-pyrazole

> <STRUCTURE_SMILES>
CS(=O)c1ccc(cc1)c3cc(nn3c2ccc(OC)cc2)C(F)F

> <STRUCTURE_SMILES_Desalt>
CS(=O)c1ccc(cc1)c3cc(nn3c2ccc(OC)cc2)C(F)F

> <Substance_modify_yyyymmdd>
20130910

$$$$
