1515-72-6
ChemmineR-0915142007XD

 15 16  0  0  0  0  0  0  0  0  1 V2000
    2.3093   -1.6840    0.0000 C   0  0  0  0  0  0  0  0  0  0  0  0
    2.3093   -3.0179    0.0000 C   0  0  0  0  0  0  0  0  0  0  0  0
    4.3435   -2.3426    0.0000 N   0  0  0  0  0  0  0  0  0  0  0  0
    3.5598   -1.2672    0.0000 C   0  0  0  0  0  0  0  0  0  0  0  0
    3.5598   -3.4181    0.0000 C   0  0  0  0  0  0  0  0  0  0  0  0
    1.1505   -1.0171    0.0000 C   0  0  0  0  0  0  0  0  0  0  0  0
    1.1505   -3.6765    0.0000 C   0  0  0  0  0  0  0  0  0  0  0  0
    0.0000   -3.0179    0.0000 C   0  0  0  0  0  0  0  0  0  0  0  0
    0.0000   -1.6840    0.0000 C   0  0  0  0  0  0  0  0  0  0  0  0
    3.9767   -4.6853    0.0000 O   0  0  0  0  0  0  0  0  0  0  0  0
    3.9767    0.0000    0.0000 O   0  0  0  0  0  0  0  0  0  0  0  0
    5.6774   -2.3426    0.0000 C   0  0  0  0  0  0  0  0  0  0  0  0
    6.3526   -3.5015    0.0000 C   0  0  0  0  0  0  0  0  0  0  0  0
    7.6782   -3.5015    0.0000 C   0  0  0  0  0  0  0  0  0  0  0  0
    8.3368   -4.6519    0.0000 C   0  0  0  0  0  0  0  0  0  0  0  0
  1  2  2  0  0  0  0
  1  4  1  0  0  0  0
  1  6  1  0  0  0  0
  2  5  1  0  0  0  0
  2  7  1  0  0  0  0
  3  4  1  0  0  0  0
  3  5  1  0  0  0  0
  3 12  1  0  0  0  0
  4 11  2  0  0  0  0
  5 10  2  0  0  0  0
  6  9  2  0  0  0  0
  7  8  2  0  0  0  0
  8  9  1  0  0  0  0
 12 13  1  0  0  0  0
 13 14  1  0  0  0  0
 14 15  1  0  0  0  0
M  END
> <ID>
10245

> <Formula>
C12H13NO2

> <FW>
203.2371

> <DSSTox_CID>
24591

> <DSSTox_RID>
80337

> <DSSTox_GSID>
44591

> <DSSTox_FileID_Sort>
5019

> <TS_ChemName>
2-Butyl-1H-isoindole-1,3(2H)-dione

> <TS_ChemName_Synonyms>
2-Butyl-1H-isoindole-1,3(2H)-dione (1H-Isoindole-1,3(2H)-dione, 2-butyl-)

> <TS_CASRN>
1515-72-6

> <CASRN_ChemName_Relationship>
primary

> <TS_Description>
single chemical compound

> <ChemNote>


> <STRUCTURE_Shown>
tested chemical

> <STRUCTURE_Formula>
C12H13NO2

> <STRUCTURE_MW>
203.2371

> <STRUCTURE_ChemType>
defined organic

> <STRUCTURE_DefinedOrganicForm>
parent

> <STRUCTURE_IUPAC>
2-butyl-1H-isoindole-1,3(2H)-dione

> <STRUCTURE_SMILES>
O=C2c1ccccc1C(=O)N2CCCC

> <STRUCTURE_SMILES_Desalt>
O=C2c1ccccc1C(=O)N2CCCC

> <Substance_modify_yyyymmdd>
20091116

$$$$
