15165-79-4
ChemmineR-0915142007XD

 15 15  0  0  0  0  0  0  0  0  2 V2000
    6.9124   -1.9872    0.0000 O   0  5  0  0  0  0  0  0  0  0  0  0
    5.7561   -2.6468    0.0000 C   0  0  0  0  0  0  0  0  0  0  0  0
    5.7561   -3.9916    0.0000 O   0  0  0  0  0  0  0  0  0  0  0  0
    4.5997   -1.9872    0.0000 C   0  0  0  0  0  0  0  0  0  0  0  0
    3.4519   -2.6468    0.0000 C   0  0  0  0  0  0  0  0  0  0  0  0
    2.2956   -1.9872    0.0000 C   0  0  0  0  0  0  0  0  0  0  0  0
    1.1564   -2.6468    0.0000 C   0  0  0  0  0  0  0  0  0  0  0  0
    1.1564   -3.9916    0.0000 C   0  0  0  0  0  0  0  0  0  0  0  0
    2.2956   -4.6511    0.0000 C   0  0  0  0  0  0  0  0  0  0  0  0
    3.4519   -3.9916    0.0000 C   0  0  0  0  0  0  0  0  0  0  0  0
    0.0000   -1.9872    0.0000 C   0  0  0  0  0  0  0  0  0  0  0  0
    0.0000   -0.6596    0.0000 C   0  0  0  0  0  0  0  0  0  0  0  0
    1.1564    0.0000    0.0000 C   0  0  0  0  0  0  0  0  0  0  0  0
    2.2956   -0.6596    0.0000 C   0  0  0  0  0  0  0  0  0  0  0  0
    8.5656   -1.4904    0.0000 K   0  3  0  0  0  0  0  0  0  0  0  0
  1  2  1  0  0  0  0
  2  3  2  0  0  0  0
  2  4  1  0  0  0  0
  4  5  1  0  0  0  0
  5  6  2  0  0  0  0
  5 10  1  0  0  0  0
  6  7  1  0  0  0  0
  6 14  1  0  0  0  0
  7  8  2  0  0  0  0
  7 11  1  0  0  0  0
  8  9  1  0  0  0  0
  9 10  2  0  0  0  0
 11 12  2  0  0  0  0
 12 13  1  0  0  0  0
 13 14  2  0  0  0  0
M  END
> <ID>
6921

> <Formula>
C12H9KO2

> <FW>
224.2970 (185.1992+39.0978)

> <DSSTox_CID>
14833

> <DSSTox_RID>
79207

> <DSSTox_GSID>
34833

> <DSSTox_FileID_Sort>
3889

> <TS_ChemName>
Potassium 1-naphthaleneacetate

> <TS_ChemName_Synonyms>


> <TS_CASRN>
15165-79-4

> <CASRN_ChemName_Relationship>
primary

> <TS_Description>
single chemical compound

> <ChemNote>
parent [86-87-3]

> <STRUCTURE_Shown>
tested chemical

> <STRUCTURE_Formula>
C12H9KO2

> <STRUCTURE_MW>
224.297

> <STRUCTURE_ChemType>
defined organic

> <STRUCTURE_DefinedOrganicForm>
salt

> <STRUCTURE_IUPAC>
potassium naphthalen-1-ylacetate

> <STRUCTURE_SMILES>
[K+].[O-]C(=O)Cc2cccc1ccccc12

> <STRUCTURE_SMILES_Desalt>
O=C(O)Cc2cccc1ccccc12

> <Substance_modify_yyyymmdd>
20080429

$$$$
