151767-02-1
ChemmineR-0915142007XD

 42 45  0  0  1  0  0  0  0  0  2 V2000
    3.4237   -1.0461    0.0000 C    0  0  0  0  0  0  0  0  0  0  0  0
    3.4237   -2.3776    0.0000 C    0  0  0  0  0  0  0  0  0  0  0  0
    2.3015   -0.3614    0.0000 C    0  0  0  0  0  0  0  0  0  0  0  0
    2.3015   -3.0053    0.0000 C    0  0  0  0  0  0  0  0  0  0  0  0
    1.1603   -1.0461    0.0000 C    0  0  0  0  0  0  0  0  0  0  0  0
    1.1603   -2.3776    0.0000 C    0  0  0  0  0  0  0  0  0  0  0  0
    4.5840   -0.3614    0.0000 C    0  0  0  0  0  0  0  0  0  0  0  0
    5.7062   -1.0461    0.0000 C    0  0  0  0  0  0  0  0  0  0  0  0
    4.5840   -3.0053    0.0000 N    0  0  0  0  0  0  0  0  0  0  0  0
    5.7062   -2.3776    0.0000 C    0  0  0  0  0  0  0  0  0  0  0  0
    0.0000   -3.0053    0.0000 Cl   0  0  0  0  0  0  0  0  0  0  0  0
    6.8855   -3.0053    0.0000 C    0  0  0  0  0  0  0  0  0  0  0  0
    8.0077   -2.3776    0.0000 C    0  0  0  0  0  0  0  0  0  0  0  0
    9.1680   -3.0053    0.0000 C    0  0  0  0  0  0  0  0  0  0  0  0
   10.2902   -2.3776    0.0000 C    0  0  0  0  0  0  0  0  0  0  0  0
    9.1680   -4.3367    0.0000 C    0  0  0  0  0  0  0  0  0  0  0  0
   11.4695   -3.0053    0.0000 C    0  0  0  0  0  0  0  0  0  0  0  0
   10.2902   -5.0215    0.0000 C    0  0  0  0  0  0  0  0  0  0  0  0
   11.4695   -4.3367    0.0000 C    0  0  0  0  0  0  0  0  0  0  0  0
   12.5917   -2.3776    0.0000 C    0  0  0  0  0  0  0  0  0  0  0  0
   13.7520   -3.0053    0.0000 C    0  0  0  0  0  0  0  0  0  0  0  0
   14.8742   -2.3776    0.0000 C    0  0  0  0  0  0  0  0  0  0  0  0
   16.0535   -3.0053    0.0000 C    0  0  0  0  0  0  0  0  0  0  0  0
   17.1758   -2.3776    0.0000 C    0  0  0  0  0  0  0  0  0  0  0  0
   16.0535   -4.3367    0.0000 C    0  0  0  0  0  0  0  0  0  0  0  0
   18.3360   -3.0053    0.0000 C    0  0  0  0  0  0  0  0  0  0  0  0
   17.1758   -5.0215    0.0000 C    0  0  0  0  0  0  0  0  0  0  0  0
   18.3360   -4.3367    0.0000 C    0  0  0  0  0  0  0  0  0  0  0  0
   12.5917   -0.6657    0.0000 S    0  0  0  0  0  0  0  0  0  0  0  0
   13.7520    0.0000    0.0000 C    0  0  0  0  0  0  0  0  0  0  0  0
   14.8742   -0.6657    0.0000 C    0  0  0  0  0  0  0  0  0  0  0  0
   16.0535    0.0000    0.0000 C    0  0  0  0  0  0  0  0  0  0  0  0
   17.1758   -0.6657    0.0000 C    0  0  0  0  0  0  0  0  0  0  0  0
   15.5590   -1.8070    0.0000 C    0  0  0  0  0  0  0  0  0  0  0  0
   14.2275   -1.8070    0.0000 C    0  0  0  0  0  0  0  0  0  0  0  0
   17.1758   -1.9972    0.0000 O    0  0  0  0  0  0  0  0  0  0  0  0
   18.3360    0.0000    0.0000 O    0  5  0  0  0  0  0  0  0  0  0  0
   14.8742   -5.0215    0.0000 C    0  0  0  0  0  0  0  0  0  0  0  0
   13.7520   -5.6682    0.0000 C    0  0  0  0  0  0  0  0  0  0  0  0
   15.5590   -6.1437    0.0000 C    0  0  0  0  0  0  0  0  0  0  0  0
   14.2275   -3.8422    0.0000 O    0  0  0  0  0  0  0  0  0  0  0  0
   19.0208   -1.1412    0.0000 Na   0  3  0  0  0  0  0  0  0  0  0  0
  1  3  2  0  0  0  0
  1  7  1  0  0  0  0
  1  2  1  0  0  0  0
  2  4  2  0  0  0  0
  2  9  1  0  0  0  0
  3  5  1  0  0  0  0
  4  6  1  0  0  0  0
  5  6  2  0  0  0  0
  6 11  1  0  0  0  0
  7  8  2  0  0  0  0
  8 10  1  0  0  0  0
  9 10  2  0  0  0  0
 10 12  1  0  0  0  0
 12 13  2  0  0  0  0
 13 14  1  0  0  0  0
 14 15  1  0  0  0  0
 14 16  2  0  0  0  0
 15 17  2  0  0  0  0
 16 18  1  0  0  0  0
 17 19  1  0  0  0  0
 17 20  1  0  0  0  0
 18 19  2  0  0  0  0
 20 21  1  0  0  0  0
 20 29  1  6  0  0  0
 21 22  1  0  0  0  0
 22 23  1  0  0  0  0
 23 24  1  0  0  0  0
 23 25  2  0  0  0  0
 24 26  2  0  0  0  0
 25 27  1  0  0  0  0
 25 38  1  0  0  0  0
 26 28  1  0  0  0  0
 27 28  2  0  0  0  0
 29 30  1  0  0  0  0
 30 31  1  0  0  0  0
 31 32  1  0  0  0  0
 31 34  1  0  0  0  0
 31 35  1  0  0  0  0
 32 33  1  0  0  0  0
 33 36  2  0  0  0  0
 33 37  1  0  0  0  0
 34 35  1  0  0  0  0
 38 39  1  0  0  0  0
 38 40  1  0  0  0  0
 38 41  1  0  0  0  0
M  END
> <ID>
11690

> <Formula>
C35H35ClNNaO3S

> <FW>
608.1651 (585.1758+22.9892)

> <DSSTox_CID>
26450

> <DSSTox_RID>
81624

> <DSSTox_GSID>
46450

> <DSSTox_FileID_Sort>
6305

> <TS_ChemName>
Montelukast sodium

> <TS_ChemName_Synonyms>


> <TS_CASRN>
151767-02-1

> <CASRN_ChemName_Relationship>
primary

> <TS_Description>
single chemical compound

> <ChemNote>
stereochem; parent [158966-92-8]

> <STRUCTURE_Shown>
tested chemical

> <STRUCTURE_Formula>
C35H35ClNNaO3S

> <STRUCTURE_MW>
608.1651

> <STRUCTURE_ChemType>
defined organic

> <STRUCTURE_DefinedOrganicForm>
salt

> <STRUCTURE_IUPAC>
sodium {1-[({(1R)-1-{3-[(E)-2-(7-chloroquinolin-2-yl)ethenyl]phenyl}-3-[2-(2-hydroxypropan-2-yl)phenyl]propyl}sulfanyl)methyl]cyclopropyl}acetate

> <STRUCTURE_SMILES>
[Na+].CC(C)(O)c5ccccc5CC[C@@H](SCC1(CC([O-])=O)CC1)c2cccc(c2)/C=C/c3ccc4ccc(Cl)cc4n3

> <STRUCTURE_SMILES_Desalt>
CC(C)(O)c5ccccc5CC[C@@H](SCC1(CC(=O)O)CC1)c2cccc(c2)/C=C/c3ccc4ccc(Cl)cc4n3

> <Substance_modify_yyyymmdd>
20110813

$$$$
