15180-03-7
ChemmineR-0915142007XD

 58 66  0  0  1  0  0  0  0  0  2 V2000
    6.2220   -8.8029    0.0000 N    0  0  0  0  0  0  0  0  0  0  0  0
    5.1927   -9.3867    0.0000 C    0  0  0  0  0  0  0  0  0  0  0  0
    5.1927  -10.5697    0.0000 C    0  0  0  0  0  0  0  0  0  0  0  0
    4.1787  -11.1842    0.0000 C    0  0  0  0  0  0  0  0  0  0  0  0
    3.1494  -10.5697    0.0000 C    0  0  0  0  0  0  0  0  0  0  0  0
    3.1494   -9.3867    0.0000 C    0  0  0  0  0  0  0  0  0  0  0  0
    4.1787   -8.8029    0.0000 C    0  0  0  0  0  0  0  0  0  0  0  0
    3.6871   -7.7275    0.0000 C    0  0  0  0  0  0  0  0  0  0  0  0
    4.1019   -6.6829    0.0000 N    0  0  0  0  0  0  0  0  0  0  0  0
    5.1619   -6.0530    0.0000 C    0  0  0  0  0  0  0  0  0  0  0  0
    5.1619   -4.8700    0.0000 C    0  0  0  0  0  0  0  0  0  0  0  0
    6.2066   -4.2709    0.0000 C    0  0  0  0  0  0  0  0  0  0  0  0
    7.2667   -4.8700    0.0000 C    0  0  0  0  0  0  0  0  0  0  0  0
    7.2667   -6.0530    0.0000 C    0  0  0  0  0  0  0  0  0  0  0  0
    6.2066   -6.6829    0.0000 C    0  0  0  0  0  0  0  0  0  0  0  0
    6.6521   -7.7275    0.0000 C    0  0  0  0  0  0  0  0  0  0  0  0
    7.2359   -9.3867    0.0000 C    0  0  0  0  0  0  0  0  0  0  0  0
    7.2359  -10.5697    0.0000 C    0  0  0  0  0  0  0  0  0  0  0  0
    8.2806  -11.1842    0.0000 C    0  0  0  0  0  0  0  0  0  0  0  0
    9.2946  -10.5697    0.0000 C    0  0  0  0  0  0  0  0  0  0  0  0
    9.2946   -9.3867    0.0000 C    0  0  0  0  0  0  0  0  0  0  0  0
    8.2806   -8.8029    0.0000 C    0  0  0  0  0  0  0  0  0  0  0  0
    6.2220  -11.1842    0.0000 C    0  0  0  0  0  0  0  0  0  0  0  0
    6.2220  -12.3211    0.0000 C    0  0  0  0  0  0  0  0  0  0  0  0
    4.1787  -12.3211    0.0000 N    0  3  0  0  0  0  0  0  0  0  0  0
    2.1047  -12.3211    0.0000 C    0  0  0  0  0  0  0  0  0  0  0  0
    2.1047   -9.3867    0.0000 C    0  0  0  0  0  0  0  0  0  0  0  0
    3.0419   -6.0530    0.0000 C    0  0  0  0  0  0  0  0  0  0  0  0
    3.0419   -4.8700    0.0000 C    0  0  0  0  0  0  0  0  0  0  0  0
    2.0125   -4.2709    0.0000 C    0  0  0  0  0  0  0  0  0  0  0  0
    0.9371   -4.8700    0.0000 C    0  0  0  0  0  0  0  0  0  0  0  0
    0.9371   -6.0530    0.0000 C    0  0  0  0  0  0  0  0  0  0  0  0
    2.0125   -6.6829    0.0000 C    0  0  0  0  0  0  0  0  0  0  0  0
    4.1019   -4.2709    0.0000 C    0  0  0  0  0  0  0  0  0  0  0  0
    4.1019   -3.0419    0.0000 C    0  0  0  0  0  0  0  0  0  0  0  0
    6.2066   -3.0419    0.0000 N    0  3  0  0  0  0  0  0  0  0  0  0
    8.3421   -3.0419    0.0000 C    0  0  0  0  0  0  0  0  0  0  0  0
    8.3421   -6.0530    0.0000 C    0  0  0  0  0  0  0  0  0  0  0  0
    4.1787  -13.5501    0.0000 C    0  0  0  0  0  0  0  0  0  0  0  0
    3.1187  -14.1492    0.0000 C    0  0  0  0  0  0  0  0  0  0  0  0
    3.1187  -15.3629    0.0000 C    0  0  0  0  0  0  0  0  0  0  0  0
    1.0447   -8.8029    0.0000 C    0  0  0  0  0  0  0  0  0  0  0  0
    1.0447   -7.5586    0.0000 C    0  0  0  0  0  0  0  0  0  0  0  0
    0.0000   -6.9594    0.0000 O    0  0  0  0  0  0  0  0  0  0  0  0
    6.2066   -1.8128    0.0000 C    0  0  0  0  0  0  0  0  0  0  0  0
    7.2667   -1.2290    0.0000 C    0  0  0  0  0  0  0  0  0  0  0  0
    7.2667    0.0000    0.0000 C    0  0  0  0  0  0  0  0  0  0  0  0
    9.3867   -6.6675    0.0000 C    0  0  0  0  0  0  0  0  0  0  0  0
    9.3867   -7.8812    0.0000 C    0  0  0  0  0  0  0  0  0  0  0  0
   10.4468   -8.4957    0.0000 O    0  0  0  0  0  0  0  0  0  0  0  0
    5.1619   -7.2974    0.0000 H    0  0  0  0  0  0  0  0  0  0  0  0
    7.2667   -3.6256    0.0000 H    0  0  0  0  0  0  0  0  0  0  0  0
    7.2667   -7.2974    0.0000 H    0  0  0  0  0  0  0  0  0  0  0  0
    5.1927   -8.2038    0.0000 H    0  0  0  0  0  0  0  0  0  0  0  0
    3.1494  -11.7526    0.0000 H    0  0  0  0  0  0  0  0  0  0  0  0
    3.1494   -8.2038    0.0000 H    0  0  0  0  0  0  0  0  0  0  0  0
    8.4342   -2.0433    0.0000 Cl   0  5  0  0  0  0  0  0  0  0  0  0
    5.8225  -13.4579    0.0000 Cl   0  5  0  0  0  0  0  0  0  0  0  0
  1 16  1  0  0  0  0
  1 17  1  0  0  0  0
  1  2  1  0  0  0  0
  2  3  1  0  0  0  0
  2 54  1  1  0  0  0
  2  7  1  0  0  0  0
  3 18  1  0  0  0  0
  3 23  1  1  0  0  0
  3  4  1  0  0  0  0
  4 55  1  6  0  0  0
  4  5  1  0  0  0  0
  4 25  1  0  0  0  0
  5  6  1  0  0  0  0
  6  7  1  0  0  0  0
  6 27  1  0  0  0  0
  6 56  1  6  0  0  0
  7  8  2  0  0  0  0
  8  9  1  0  0  0  0
  9 28  1  0  0  0  0
  9 10  1  0  0  0  0
 10 11  1  0  0  0  0
 10 51  1  1  0  0  0
 10 15  1  0  0  0  0
 11 29  1  0  0  0  0
 11 34  1  1  0  0  0
 11 12  1  0  0  0  0
 12 52  1  6  0  0  0
 12 13  1  0  0  0  0
 12 36  1  0  0  0  0
 13 14  1  0  0  0  0
 14 15  1  0  0  0  0
 14 38  1  0  0  0  0
 14 53  1  6  0  0  0
 15 16  2  0  0  0  0
 17 18  1  0  0  0  0
 17 22  2  0  0  0  0
 18 19  2  0  0  0  0
 19 20  1  0  0  0  0
 20 21  2  0  0  0  0
 21 22  1  0  0  0  0
 23 24  1  0  0  0  0
 25 24  1  1  0  0  0
 25 26  1  0  0  0  0
 25 39  1  6  0  0  0
 26 27  1  0  0  0  0
 27 42  2  0  0  0  0
 28 29  1  0  0  0  0
 28 33  2  0  0  0  0
 29 30  2  0  0  0  0
 30 31  1  0  0  0  0
 31 32  2  0  0  0  0
 32 33  1  0  0  0  0
 34 35  1  0  0  0  0
 36 35  1  1  0  0  0
 36 37  1  0  0  0  0
 36 45  1  6  0  0  0
 37 38  1  0  0  0  0
 38 48  2  0  0  0  0
 39 40  1  0  0  0  0
 40 41  2  0  0  0  0
 42 43  1  0  0  0  0
 43 44  1  0  0  0  0
 45 46  1  0  0  0  0
 46 47  2  0  0  0  0
 48 49  1  0  0  0  0
 49 50  1  0  0  0  0
M  END
> <ID>
10932

> <Formula>
C44H50Cl2N4O2

> <FW>
737.7994 (666.8923+35.4535+35.4535)

> <DSSTox_CID>
25414

> <DSSTox_RID>
80864

> <DSSTox_GSID>
45414

> <DSSTox_FileID_Sort>
5545

> <TS_ChemName>
Alcuronium chloride

> <TS_ChemName_Synonyms>


> <TS_CASRN>
15180-03-7

> <CASRN_ChemName_Relationship>
primary

> <TS_Description>
single chemical compound

> <ChemNote>
stereochem; ammonium; parent [23214-96-2]

> <STRUCTURE_Shown>
tested chemical

> <STRUCTURE_Formula>
C44H50Cl2N4O2

> <STRUCTURE_MW>
737.7994

> <STRUCTURE_ChemType>
defined organic

> <STRUCTURE_DefinedOrganicForm>
salt

> <STRUCTURE_IUPAC>
(1R,3aR,9Z,10S,11aS,12R,14aR,19aS,20Z,20bS,21S,22aS,23E,26E)-23,26-bis(2-hydroxyethylidene)-1,12-di(prop-2-en-1-yl)-1,2,3,10,11,11a,12,13,14,21,22,22a-dodecahydro-19aH,20bH-1,21:10,12-diethanodipyrrolo[3,2-f:3,2-f'][1,5]diazocino[3,2,1-jk:7,6,5-j'k']dicar

> <STRUCTURE_SMILES>
[Cl-].[Cl-].OC\C=C6\C[N@+]4(CC=C)CC[C@@]58c%11ccccc%11N7C=C9[C@H]1C[C@H]2[C@@]%10(CC[N@@+]2(CC=C)C\C1=C\CO)c3ccccc3N(C=C([C@H]6C[C@H]45)[C@H]78)[C@@H]9%10

> <STRUCTURE_SMILES_Desalt>
OC\C=C6\C[N@+]4(CC=C)CC[C@@]58c%11ccccc%11N7C=C9[C@H]1C[C@H]2[C@@]%10(CC[N@@+]2(CC=C)C\C1=C\CO)c3ccccc3N(C=C([C@H]6C[C@H]45)[C@H]78)[C@@H]9%10

> <Substance_modify_yyyymmdd>
20100107

$$$$
