152-58-9
ChemmineR-0915142007XD

 28 31  0  0  1  0  0  0  0  0  1 V2000
    6.9441   -3.2215    0.0000 C   0  0  0  0  0  0  0  0  0  0  0  0
    3.4772   -5.2260    0.0000 C   0  0  0  0  0  0  0  0  0  0  0  0
    8.2123   -2.8226    0.0000 C   0  0  0  0  0  0  0  0  0  0  0  0
    3.4772   -6.5555    0.0000 C   0  0  0  0  0  0  0  0  0  0  0  0
    6.9441   -4.5510    0.0000 C   0  0  0  0  0  0  0  0  0  0  0  0
    4.6533   -4.5510    0.0000 C   0  0  0  0  0  0  0  0  0  0  0  0
    5.7987   -5.2362    0.0000 C   0  0  0  0  0  0  0  0  0  0  0  0
    2.3215   -7.2100    0.0000 C   0  0  0  0  0  0  0  0  0  0  0  0
    8.5804   -1.5340    0.0000 C   0  0  0  0  0  0  0  0  0  0  0  0
    5.7987   -2.5567    0.0000 C   0  0  0  0  0  0  0  0  0  0  0  0
    8.9793   -3.8965    0.0000 C   0  0  0  0  0  0  0  0  0  0  0  0
    4.6533   -3.2215    0.0000 C   0  0  0  0  0  0  0  0  0  0  0  0
    8.2123   -4.9805    0.0000 C   0  0  0  0  0  0  0  0  0  0  0  0
    2.3215   -4.5510    0.0000 C   0  0  0  0  0  0  0  0  0  0  0  0
    5.7987   -6.5350    0.0000 C   0  0  0  0  0  0  0  0  0  0  0  0
    4.6533   -7.2100    0.0000 C   0  0  0  0  0  0  0  0  0  0  0  0
    1.1659   -6.5350    0.0000 C   0  0  0  0  0  0  0  0  0  0  0  0
    7.6805   -0.5932    0.0000 O   0  0  0  0  0  0  0  0  0  0  0  0
    0.0000   -7.1896    0.0000 O   0  0  0  0  0  0  0  0  0  0  0  0
    9.5418   -2.8840    0.0000 O   0  0  0  0  0  0  0  0  0  0  0  0
    1.1659   -5.2362    0.0000 C   0  0  0  0  0  0  0  0  0  0  0  0
    6.9441   -1.8715    0.0000 C   0  0  0  0  0  0  0  0  0  0  0  0
    3.4772   -3.8556    0.0000 C   0  0  0  0  0  0  0  0  0  0  0  0
    9.8588   -1.2477    0.0000 C   0  0  0  0  0  0  0  0  0  0  0  0
   10.2270    0.0000    0.0000 O   0  0  0  0  0  0  0  0  0  0  0  0
    5.7987   -3.9067    0.0000 H   0  0  0  0  0  0  0  0  0  0  0  0
    4.6533   -5.8805    0.0000 H   0  0  0  0  0  0  0  0  0  0  0  0
    6.9441   -5.8805    0.0000 H   0  0  0  0  0  0  0  0  0  0  0  0
  1  3  1  0  0  0  0
  1  5  1  0  0  0  0
  1 10  1  0  0  0  0
  1 22  1  1  0  0  0
  2  6  1  0  0  0  0
  2  4  1  0  0  0  0
  2 14  1  0  0  0  0
  2 23  1  1  0  0  0
  3  9  1  1  0  0  0
  3 11  1  0  0  0  0
  3 20  1  6  0  0  0
  4  8  2  0  0  0  0
  4 16  1  0  0  0  0
  5  7  1  0  0  0  0
  5 13  1  0  0  0  0
  5 28  1  6  0  0  0
  6 12  1  0  0  0  0
  6  7  1  0  0  0  0
  6 27  1  6  0  0  0
  7 15  1  0  0  0  0
  7 26  1  1  0  0  0
  8 17  1  0  0  0  0
  9 18  2  0  0  0  0
  9 24  1  0  0  0  0
 10 12  1  0  0  0  0
 11 13  1  0  0  0  0
 14 21  1  0  0  0  0
 15 16  1  0  0  0  0
 17 21  1  0  0  0  0
 17 19  2  0  0  0  0
 24 25  1  0  0  0  0
M  END
> <ID>
11090

> <Formula>
C21H30O4

> <FW>
346.4605

> <DSSTox_CID>
25642

> <DSSTox_RID>
81022

> <DSSTox_GSID>
45642

> <DSSTox_FileID_Sort>
5703

> <TS_ChemName>
Cortodoxone

> <TS_ChemName_Synonyms>


> <TS_CASRN>
152-58-9

> <CASRN_ChemName_Relationship>
primary

> <TS_Description>
single chemical compound

> <ChemNote>
stereochem; tautomers

> <STRUCTURE_Shown>
tested chemical

> <STRUCTURE_Formula>
C21H30O4

> <STRUCTURE_MW>
346.4605

> <STRUCTURE_ChemType>
defined organic

> <STRUCTURE_DefinedOrganicForm>
parent

> <STRUCTURE_IUPAC>
17,21-dihydroxypregn-4-ene-3,20-dione

> <STRUCTURE_SMILES>
OCC(=O)[C@@]3(O)CC[C@H]2[C@@H]4CCC1=CC(=O)CC[C@]1(C)[C@H]4CC[C@@]23C

> <STRUCTURE_SMILES_Desalt>
OCC(=O)[C@@]3(O)CC[C@H]2[C@@H]4CCC1=CC(=O)CC[C@]1(C)[C@H]4CC[C@@]23C

> <Substance_modify_yyyymmdd>
20110610

$$$$
