152-53-4
ChemmineR-0915142007XD

 18 18  0  0  0  0  0  0  0  0  1 V2000
    8.5650   -3.2290    0.0000 Cl   0  0  0  0  0  0  0  0  0  0  0  0
    4.5994   -3.9827    0.0000 C    0  0  0  0  0  0  0  0  0  0  0  0
    4.5994   -2.6552    0.0000 N    0  0  0  0  0  0  0  0  0  0  0  0
    5.7728   -4.6679    0.0000 N    0  0  0  0  0  0  0  0  0  0  0  0
    6.9034   -2.6552    0.0000 N    0  0  0  0  0  0  0  0  0  0  0  0
    5.7728   -2.0128    0.0000 C    0  0  0  0  0  0  0  0  0  0  0  0
    6.9034   -3.9827    0.0000 C    0  0  0  0  0  0  0  0  0  0  0  0
    3.4688   -2.0128    0.0000 C    0  0  0  0  0  0  0  0  0  0  0  0
    3.4688   -4.6679    0.0000 N    0  0  0  0  0  0  0  0  0  0  0  0
    8.0511   -4.6679    0.0000 N    0  0  0  0  0  0  0  0  0  0  0  0
    2.3040   -2.6552    0.0000 C    0  0  0  0  0  0  0  0  0  0  0  0
    3.4688   -0.6852    0.0000 C    0  0  0  0  0  0  0  0  0  0  0  0
    5.0962   -0.8479    0.0000 C    0  0  0  0  0  0  0  0  0  0  0  0
    6.4238   -0.8479    0.0000 C    0  0  0  0  0  0  0  0  0  0  0  0
    1.1648   -0.6852    0.0000 C    0  0  0  0  0  0  0  0  0  0  0  0
    2.3040    0.0000    0.0000 C    0  0  0  0  0  0  0  0  0  0  0  0
    1.1648   -2.0128    0.0000 C    0  0  0  0  0  0  0  0  0  0  0  0
    0.0000    0.0000    0.0000 Cl   0  0  0  0  0  0  0  0  0  0  0  0
  2  3  1  0  0  0  0
  2  4  2  0  0  0  0
  2  9  1  0  0  0  0
  3  6  1  0  0  0  0
  3  8  1  0  0  0  0
  4  7  1  0  0  0  0
  5  7  2  0  0  0  0
  5  6  1  0  0  0  0
  6 13  1  0  0  0  0
  6 14  1  0  0  0  0
  7 10  1  0  0  0  0
  8 11  2  0  0  0  0
  8 12  1  0  0  0  0
 11 17  1  0  0  0  0
 12 16  2  0  0  0  0
 15 16  1  0  0  0  0
 15 18  1  0  0  0  0
 15 17  2  0  0  0  0
M  END
> <ID>
14037

> <Formula>
C11H15Cl2N5

> <FW>
288.1763 (36.4609+251.7154)

> <DSSTox_CID>
28979

> <DSSTox_RID>
83244

> <DSSTox_GSID>
49053

> <DSSTox_FileID_Sort>
7919

> <TS_ChemName>
Cycloguanil hydrochloride

> <TS_ChemName_Synonyms>
Cycloguanil HCl

> <TS_CASRN>
152-53-4

> <CASRN_ChemName_Relationship>
primary

> <TS_Description>
single chemical compound

> <ChemNote>


> <STRUCTURE_Shown>
tested chemical

> <STRUCTURE_Formula>
C11H15Cl2N5

> <STRUCTURE_MW>
288.1763

> <STRUCTURE_ChemType>
defined organic

> <STRUCTURE_DefinedOrganicForm>
complex

> <STRUCTURE_IUPAC>
1-(4-chlorophenyl)-6,6-dimethyl-1,6-dihydro-1,3,5-triazine-2,4-diamine hydrochloride (1:1)

> <STRUCTURE_SMILES>
Cl.Clc1ccc(cc1)N2C(N)=NC(N)=NC2(C)C

> <STRUCTURE_SMILES_Desalt>
Clc1ccc(cc1)N2C(N)=NC(N)=NC2(C)C

> <Substance_modify_yyyymmdd>
20111204

$$$$
