152-11-4
ChemmineR-0915142007XD

 34 34  0  0  0  0  0  0  0  0  1 V2000
    5.7530   -4.6646    0.0000 C    0  0  0  0  0  0  0  0  0  0  0  0
    4.5955   -5.3383    0.0000 C    0  0  0  0  0  0  0  0  0  0  0  0
    4.5955   -6.6686    0.0000 C    0  0  0  0  0  0  0  0  0  0  0  0
    3.4552   -7.3251    0.0000 C    0  0  0  0  0  0  0  0  0  0  0  0
   14.9612   -2.0040    0.0000 C    0  0  0  0  0  0  0  0  0  0  0  0
    2.3150   -6.6686    0.0000 C    0  0  0  0  0  0  0  0  0  0  0  0
   16.1187   -2.6605    0.0000 C    0  0  0  0  0  0  0  0  0  0  0  0
    3.4552   -4.6646    0.0000 C    0  0  0  0  0  0  0  0  0  0  0  0
   13.8209   -2.6605    0.0000 C    0  0  0  0  0  0  0  0  0  0  0  0
    2.3150   -5.3383    0.0000 C    0  0  0  0  0  0  0  0  0  0  0  0
   16.1187   -3.9908    0.0000 C    0  0  0  0  0  0  0  0  0  0  0  0
   13.8209   -3.9908    0.0000 C    0  0  0  0  0  0  0  0  0  0  0  0
   10.3657   -4.6646    0.0000 N    0  0  0  0  0  0  0  0  0  0  0  0
   14.9612   -4.6646    0.0000 C    0  0  0  0  0  0  0  0  0  0  0  0
    3.4552   -8.6554    0.0000 O    0  0  0  0  0  0  0  0  0  0  0  0
   11.5232   -3.9908    0.0000 C    0  0  0  0  0  0  0  0  0  0  0  0
   14.9612   -0.6738    0.0000 O    0  0  0  0  0  0  0  0  0  0  0  0
   12.6807   -4.6646    0.0000 C    0  0  0  0  0  0  0  0  0  0  0  0
    6.9105   -3.9908    0.0000 C    0  0  0  0  0  0  0  0  0  0  0  0
   17.2762   -2.0040    0.0000 O    0  0  0  0  0  0  0  0  0  0  0  0
    1.1575   -7.3251    0.0000 O    0  0  0  0  0  0  0  0  0  0  0  0
    8.0680   -4.6646    0.0000 C    0  0  0  0  0  0  0  0  0  0  0  0
    9.2082   -3.9908    0.0000 C    0  0  0  0  0  0  0  0  0  0  0  0
   10.3657   -5.9948    0.0000 C    0  0  0  0  0  0  0  0  0  0  0  0
    4.5955   -9.3291    0.0000 C    0  0  0  0  0  0  0  0  0  0  0  0
   13.8209    0.0000    0.0000 C    0  0  0  0  0  0  0  0  0  0  0  0
    0.0000   -6.6686    0.0000 C    0  0  0  0  0  0  0  0  0  0  0  0
   17.2762   -0.6738    0.0000 C    0  0  0  0  0  0  0  0  0  0  0  0
    5.0965   -3.5071    0.0000 C    0  0  0  0  0  0  0  0  0  0  0  0
    3.7662   -3.5071    0.0000 C    0  0  0  0  0  0  0  0  0  0  0  0
    6.4267   -5.8221    0.0000 C    0  0  0  0  0  0  0  0  0  0  0  0
    7.0832   -6.9796    0.0000 N    0  0  0  0  0  0  0  0  0  0  0  0
    5.7530   -2.3496    0.0000 C    0  0  0  0  0  0  0  0  0  0  0  0
    9.8301   -0.7947    0.0000 Cl   0  0  0  0  0  0  0  0  0  0  0  0
  1  2  1  0  0  0  0
  1 19  1  0  0  0  0
  1 29  1  0  0  0  0
  1 31  1  0  0  0  0
  2  3  1  0  0  0  0
  2  8  2  0  0  0  0
  3  4  2  0  0  0  0
  4 15  1  0  0  0  0
  4  6  1  0  0  0  0
  5  9  2  0  0  0  0
  5 17  1  0  0  0  0
  5  7  1  0  0  0  0
  6 10  2  0  0  0  0
  6 21  1  0  0  0  0
  7 11  2  0  0  0  0
  7 20  1  0  0  0  0
  8 10  1  0  0  0  0
  9 12  1  0  0  0  0
 11 14  1  0  0  0  0
 12 18  1  0  0  0  0
 12 14  2  0  0  0  0
 13 23  1  0  0  0  0
 13 16  1  0  0  0  0
 13 24  1  0  0  0  0
 15 25  1  0  0  0  0
 16 18  1  0  0  0  0
 17 26  1  0  0  0  0
 19 22  1  0  0  0  0
 20 28  1  0  0  0  0
 21 27  1  0  0  0  0
 22 23  1  0  0  0  0
 29 30  1  0  0  0  0
 29 33  1  0  0  0  0
 31 32  3  0  0  0  0
M  END
> <ID>
6662

> <Formula>
C27H39ClN2O4

> <FW>
491.0626 (454.6016+36.4609)

> <DSSTox_CID>
14095

> <DSSTox_RID>
79114

> <DSSTox_GSID>
34095

> <DSSTox_FileID_Sort>
3796

> <TS_ChemName>
Verapamil hydrochloride

> <TS_ChemName_Synonyms>


> <TS_CASRN>
152-11-4

> <CASRN_ChemName_Relationship>
primary

> <TS_Description>
single chemical compound

> <ChemNote>
parent [52-53-9]

> <STRUCTURE_Shown>
tested chemical

> <STRUCTURE_Formula>
C27H39ClN2O4

> <STRUCTURE_MW>
491.0626

> <STRUCTURE_ChemType>
defined organic

> <STRUCTURE_DefinedOrganicForm>
complex

> <STRUCTURE_IUPAC>
2-(3,4-dimethoxyphenyl)-5-{[2-(3,4-dimethoxyphenyl)ethyl](methyl)amino}-2-(propan-2-yl)pentanenitrile hydrochloride (1:1)

> <STRUCTURE_SMILES>
Cl.COc1cc(ccc1OC)C(C#N)(CCCN(C)CCc2ccc(OC)c(OC)c2)C(C)C

> <STRUCTURE_SMILES_Desalt>
COc1cc(ccc1OC)C(C#N)(CCCN(C)CCc2ccc(OC)c(OC)c2)C(C)C

> <Substance_modify_yyyymmdd>
20080429

$$$$
