152-43-2
ChemmineR-0915142007XD

 30 34  0  0  1  0  0  0  0  0  1 V2000
   10.1263   -1.7469    0.0000 C   0  0  0  0  0  0  0  0  0  0  0  0
   10.1263   -3.0707    0.0000 C   0  0  0  0  0  0  0  0  0  0  0  0
    8.9527   -3.7394    0.0000 C   0  0  0  0  0  0  0  0  0  0  0  0
    7.7926   -3.0707    0.0000 C   0  0  0  0  0  0  0  0  0  0  0  0
    6.6463   -3.7394    0.0000 C   0  0  0  0  0  0  0  0  0  0  0  0
   11.3682   -1.3374    0.0000 C   0  0  0  0  0  0  0  0  0  0  0  0
    6.6463   -5.0768    0.0000 C   0  0  0  0  0  0  0  0  0  0  0  0
   12.4327   -0.8598    0.0000 C   0  0  0  0  0  0  0  0  0  0  0  0
    8.9527   -1.0645    0.0000 C   0  0  0  0  0  0  0  0  0  0  0  0
    7.7926   -1.7469    0.0000 C   0  0  0  0  0  0  0  0  0  0  0  0
   11.3682   -3.4937    0.0000 C   0  0  0  0  0  0  0  0  0  0  0  0
    8.9527   -5.0768    0.0000 C   0  0  0  0  0  0  0  0  0  0  0  0
   13.6473   -0.2320    0.0000 C   0  0  0  0  0  0  0  0  0  0  0  0
    5.4862   -3.0707    0.0000 C   0  0  0  0  0  0  0  0  0  0  0  0
    5.4862   -5.7319    0.0000 C   0  0  0  0  0  0  0  0  0  0  0  0
    7.7926   -5.7319    0.0000 C   0  0  0  0  0  0  0  0  0  0  0  0
   12.1461   -2.4019    0.0000 C   0  0  0  0  0  0  0  0  0  0  0  0
    4.3262   -5.0768    0.0000 C   0  0  0  0  0  0  0  0  0  0  0  0
    3.1525   -5.7592    0.0000 O   0  0  0  0  0  0  0  0  0  0  0  0
    4.3262   -3.7394    0.0000 C   0  0  0  0  0  0  0  0  0  0  0  0
   11.3682    0.0000    0.0000 O   0  0  0  0  0  0  0  0  0  0  0  0
   10.1263   -0.4231    0.0000 C   0  0  0  0  0  0  0  0  0  0  0  0
    2.0471   -5.0222    0.0000 C   0  0  0  0  0  0  0  0  0  0  0  0
    0.7643   -5.4180    0.0000 C   0  0  0  0  0  0  0  0  0  0  0  0
    2.0471   -3.7121    0.0000 C   0  0  0  0  0  0  0  0  0  0  0  0
    0.0000   -4.3399    0.0000 C   0  0  0  0  0  0  0  0  0  0  0  0
    0.8461   -3.2344    0.0000 C   0  0  0  0  0  0  0  0  0  0  0  0
    8.9527   -2.4156    0.0000 H   0  0  0  0  0  0  0  0  0  0  0  0
   10.1263   -4.4217    0.0000 H   0  0  0  0  0  0  0  0  0  0  0  0
    7.7926   -4.4217    0.0000 H   0  0  0  0  0  0  0  0  0  0  0  0
  1  2  1  0  0  0  0
  1  6  1  0  0  0  0
  1  9  1  0  0  0  0
  1 22  1  1  0  0  0
  2  3  1  0  0  0  0
  2 11  1  0  0  0  0
  2 29  1  6  0  0  0
  3 12  1  0  0  0  0
  3  4  1  0  0  0  0
  3 28  1  1  0  0  0
  4 10  1  0  0  0  0
  4  5  1  0  0  0  0
  4 30  1  6  0  0  0
  5  7  2  0  0  0  0
  5 14  1  0  0  0  0
  6  8  1  6  0  0  0
  6 17  1  0  0  0  0
  6 21  1  0  0  0  0
  7 15  1  0  0  0  0
  7 16  1  0  0  0  0
  8 13  3  0  0  0  0
  9 10  1  0  0  0  0
 11 17  1  0  0  0  0
 12 16  1  0  0  0  0
 14 20  2  0  0  0  0
 15 18  2  0  0  0  0
 18 20  1  0  0  0  0
 18 19  1  0  0  0  0
 19 23  1  0  0  0  0
 23 24  1  0  0  0  0
 23 25  1  0  0  0  0
 24 26  1  0  0  0  0
 25 27  1  0  0  0  0
 26 27  1  0  0  0  0
M  END
> <ID>
11780

> <Formula>
C25H32O2

> <FW>
364.5204

> <DSSTox_CID>
26553

> <DSSTox_RID>
81714

> <DSSTox_GSID>
46553

> <DSSTox_FileID_Sort>
6395

> <TS_ChemName>
Quinestrol

> <TS_ChemName_Synonyms>


> <TS_CASRN>
152-43-2

> <CASRN_ChemName_Relationship>
primary

> <TS_Description>
single chemical compound

> <ChemNote>
stereochem

> <STRUCTURE_Shown>
tested chemical

> <STRUCTURE_Formula>
C25H32O2

> <STRUCTURE_MW>
364.5204

> <STRUCTURE_ChemType>
defined organic

> <STRUCTURE_DefinedOrganicForm>
parent

> <STRUCTURE_IUPAC>
(17beta)-3-(cyclopentyloxy)-17-ethynylestra-1,3,5(10)-trien-17-ol

> <STRUCTURE_SMILES>
C#C[C@]5(O)CC[C@@H]2[C@]5(C)CC[C@@H]3c4ccc(OC1CCCC1)cc4CC[C@@H]23

> <STRUCTURE_SMILES_Desalt>
C#C[C@]5(O)CC[C@@H]2[C@]5(C)CC[C@@H]3c4ccc(OC1CCCC1)cc4CC[C@@H]23

> <Substance_modify_yyyymmdd>
20110811

$$$$
