152-47-6
ChemmineR-0915142007XD

 19 20  0  0  0  0  0  0  0  0  1 V2000
    3.9917   -1.3306    0.0000 S   0  0  0  0  0  0  0  0  0  0  0  0
    2.6612   -1.3306    0.0000 N   0  0  0  0  0  0  0  0  0  0  0  0
    1.9726   -2.4844    0.0000 C   0  0  0  0  0  0  0  0  0  0  0  0
    2.6612   -3.6288    0.0000 C   0  0  0  0  0  0  0  0  0  0  0  0
    5.3130   -1.3306    0.0000 C   0  0  0  0  0  0  0  0  0  0  0  0
    0.6420   -2.4844    0.0000 N   0  0  0  0  0  0  0  0  0  0  0  0
    3.9917   -2.6612    0.0000 O   0  0  0  0  0  0  0  0  0  0  0  0
    3.9917    0.0000    0.0000 O   0  0  0  0  0  0  0  0  0  0  0  0
    1.9726   -4.7826    0.0000 N   0  0  0  0  0  0  0  0  0  0  0  0
    5.9643   -0.1768    0.0000 C   0  0  0  0  0  0  0  0  0  0  0  0
    5.9643   -2.4844    0.0000 C   0  0  0  0  0  0  0  0  0  0  0  0
    7.9741   -1.3306    0.0000 C   0  0  0  0  0  0  0  0  0  0  0  0
    3.9917   -3.6288    0.0000 O   0  0  0  0  0  0  0  0  0  0  0  0
    9.3047   -1.3306    0.0000 N   0  0  0  0  0  0  0  0  0  0  0  0
    7.2949   -2.4844    0.0000 C   0  0  0  0  0  0  0  0  0  0  0  0
    7.2949   -0.1768    0.0000 C   0  0  0  0  0  0  0  0  0  0  0  0
    0.0000   -3.6288    0.0000 C   0  0  0  0  0  0  0  0  0  0  0  0
    0.6420   -4.7826    0.0000 C   0  0  0  0  0  0  0  0  0  0  0  0
    4.6338   -4.7826    0.0000 C   0  0  0  0  0  0  0  0  0  0  0  0
  1  2  1  0  0  0  0
  1  5  1  0  0  0  0
  1  7  2  0  0  0  0
  1  8  2  0  0  0  0
  2  3  1  0  0  0  0
  3  4  1  0  0  0  0
  3  6  2  0  0  0  0
  4  9  2  0  0  0  0
  4 13  1  0  0  0  0
  5 10  2  0  0  0  0
  5 11  1  0  0  0  0
  6 17  1  0  0  0  0
  9 18  1  0  0  0  0
 10 16  1  0  0  0  0
 11 15  2  0  0  0  0
 12 15  1  0  0  0  0
 12 14  1  0  0  0  0
 12 16  2  0  0  0  0
 13 19  1  0  0  0  0
 17 18  2  0  0  0  0
M  END
> <ID>
11477

> <Formula>
C11H12N4O3S

> <FW>
280.303

> <DSSTox_CID>
26179

> <DSSTox_RID>
81410

> <DSSTox_GSID>
46179

> <DSSTox_FileID_Sort>
6091

> <TS_ChemName>
Sulfalene

> <TS_ChemName_Synonyms>


> <TS_CASRN>
152-47-6

> <CASRN_ChemName_Relationship>
primary

> <TS_Description>
single chemical compound

> <ChemNote>


> <STRUCTURE_Shown>
tested chemical

> <STRUCTURE_Formula>
C11H12N4O3S

> <STRUCTURE_MW>
280.303

> <STRUCTURE_ChemType>
defined organic

> <STRUCTURE_DefinedOrganicForm>
parent

> <STRUCTURE_IUPAC>
4-amino-N-(3-methoxypyrazin-2-yl)benzenesulfonamide

> <STRUCTURE_SMILES>
COc2nccnc2NS(=O)(=O)c1ccc(N)cc1

> <STRUCTURE_SMILES_Desalt>
COc2nccnc2NS(=O)(=O)c1ccc(N)cc1

> <Substance_modify_yyyymmdd>
20110818

$$$$
