152044-54-7
ChemmineR-0915142007XD

 35 37  0  0  1  0  0  0  0  0  1 V2000
    2.1381   -1.2858    0.0000 S   0  0  0  0  0  0  0  0  0  0  0  0
    3.4089   -1.7045    0.0000 C   0  0  0  0  0  0  0  0  0  0  0  0
    1.3456   -2.3623    0.0000 C   0  0  0  0  0  0  0  0  0  0  0  0
    3.4089   -3.0501    0.0000 C   0  0  0  0  0  0  0  0  0  0  0  0
    2.1231   -3.4538    0.0000 N   0  0  0  0  0  0  0  0  0  0  0  0
    0.0000   -2.3773    0.0000 C   0  0  0  0  0  0  0  0  0  0  0  0
    4.4854   -3.8425    0.0000 C   0  0  0  0  0  0  0  0  0  0  0  0
    5.6517   -3.1847    0.0000 C   0  0  0  0  0  0  0  0  0  0  0  0
    5.6517   -1.8390    0.0000 C   0  0  0  0  0  0  0  0  0  0  0  0
    6.8179   -3.8425    0.0000 C   0  0  0  0  0  0  0  0  0  0  0  0
    7.9841   -3.1847    0.0000 C   0  0  0  0  0  0  0  0  0  0  0  0
    6.8179   -5.1882    0.0000 O   0  0  0  0  0  0  0  0  0  0  0  0
    7.9841   -5.8610    0.0000 C   0  0  0  0  0  0  0  0  0  0  0  0
    9.1354   -5.1882    0.0000 C   0  0  0  0  0  0  0  0  0  0  0  0
    7.9841   -1.8390    0.0000 C   0  0  0  0  0  0  0  0  0  0  0  0
    9.1354   -1.1513    0.0000 C   0  0  0  0  0  0  0  0  0  0  0  0
   10.3016   -1.8390    0.0000 C   0  0  0  0  0  0  0  0  0  0  0  0
   12.6340   -3.1847    0.0000 C   0  0  0  0  0  0  0  0  0  0  0  0
   11.4678   -1.1662    0.0000 C   0  0  0  0  0  0  0  0  0  0  0  0
   12.6340   -1.8390    0.0000 C   0  0  0  0  0  0  0  0  0  0  0  0
   11.4678   -5.1882    0.0000 C   0  0  0  0  0  0  0  0  0  0  0  0
   10.3016   -5.8610    0.0000 C   0  0  0  0  0  0  0  0  0  0  0  0
   12.6340   -5.8610    0.0000 C   0  0  0  0  0  0  0  0  0  0  0  0
   13.7853   -3.8575    0.0000 C   0  0  0  0  0  0  0  0  0  0  0  0
   13.7853   -5.1882    0.0000 C   0  0  0  0  0  0  0  0  0  0  0  0
    7.9841   -7.2066    0.0000 O   0  0  0  0  0  0  0  0  0  0  0  0
   10.3016   -7.2066    0.0000 O   0  0  0  0  0  0  0  0  0  0  0  0
   10.5109   -4.7097    0.0000 C   0  0  0  0  0  0  0  0  0  0  0  0
   12.3350   -4.4107    0.0000 C   0  0  0  0  0  0  0  0  0  0  0  0
   12.6340   -7.2066    0.0000 O   0  0  0  0  0  0  0  0  0  0  0  0
   14.9515   -5.8610    0.0000 C   0  0  0  0  0  0  0  0  0  0  0  0
   14.9515   -3.1847    0.0000 O   0  0  0  0  0  0  0  0  0  0  0  0
   11.4678   -3.8575    0.0000 C   0  0  0  0  0  0  0  0  0  0  0  0
    7.9841   -0.4934    0.0000 O   0  0  0  0  0  0  0  0  0  0  0  0
    9.8082    0.0000    0.0000 C   0  0  0  0  0  0  0  0  0  0  0  0
  1  2  1  0  0  0  0
  1  3  1  0  0  0  0
  2  4  2  0  0  0  0
  3  5  2  0  0  0  0
  3  6  1  0  0  0  0
  4  5  1  0  0  0  0
  4  7  1  0  0  0  0
  7  8  2  0  0  0  0
  8  9  1  0  0  0  0
  8 10  1  6  0  0  0
 10 11  1  0  0  0  0
 10 12  1  0  0  0  0
 11 15  1  0  0  0  0
 12 13  1  0  0  0  0
 13 14  1  0  0  0  0
 13 26  2  0  0  0  0
 14 22  1  0  0  0  0
 15 34  1  6  0  0  0
 15 16  1  0  0  0  0
 16 17  1  0  0  0  0
 16 34  1  6  0  0  0
 16 35  1  1  0  0  0
 17 19  1  0  0  0  0
 18 20  1  0  0  0  0
 18 24  1  0  0  0  0
 18 33  1  1  0  0  0
 19 20  1  0  0  0  0
 21 22  1  0  0  0  0
 21 23  1  0  0  0  0
 21 28  1  0  0  0  0
 21 29  1  0  0  0  0
 22 27  1  1  0  0  0
 23 25  1  0  0  0  0
 23 30  2  0  0  0  0
 24 25  1  0  0  0  0
 24 32  1  0  0  0  0
 25 31  1  1  0  0  0
M  END
> <ID>
12032

> <Formula>
C27H41NO6S

> <FW>
507.6825

> <DSSTox_CID>
26862

> <DSSTox_RID>
81969

> <DSSTox_GSID>
46862

> <DSSTox_FileID_Sort>
6650

> <TS_ChemName>
Epothilone B

> <TS_ChemName_Synonyms>


> <TS_CASRN>
152044-54-7

> <CASRN_ChemName_Relationship>
primary

> <TS_Description>
single chemical compound

> <ChemNote>
stereochem

> <STRUCTURE_Shown>
tested chemical

> <STRUCTURE_Formula>
C27H41NO6S

> <STRUCTURE_MW>
507.6825

> <STRUCTURE_ChemType>
defined organic

> <STRUCTURE_DefinedOrganicForm>
parent

> <STRUCTURE_IUPAC>
(1S,3S,7S,10R,12S,16R)-7,11-dihydroxy-8,8,10,12,16-pentamethyl-3-[(1E)-1-(2-methyl-1,3-thiazol-4-yl)prop-1-en-2-yl]-4,17-dioxabicyclo[14.1.0]heptadecane-5,9-dione

> <STRUCTURE_SMILES>
Cc3nc(/C=C(\C)C1C[C@@H]2O[C@]2(C)CCC[C@H](C)C(O)[C@@H](C)C(=O)C(C)(C)[C@@H](O)CC(=O)O1)cs3

> <STRUCTURE_SMILES_Desalt>
Cc3nc(/C=C(\C)C1C[C@@H]2O[C@]2(C)CCC[C@H](C)C(O)[C@@H](C)C(=O)C(C)(C)[C@@H](O)CC(=O)O1)cs3

> <Substance_modify_yyyymmdd>
20110728

$$$$
