15233-47-3
ChemmineR-0915142007XD

 22 23  0  0  0  0  0  0  0  0  1 V2000
    5.7631   -5.9911    0.0000 C   0  0  0  0  0  0  0  0  0  0  0  0
    5.7631   -4.6612    0.0000 C   0  0  0  0  0  0  0  0  0  0  0  0
    6.9158   -3.9899    0.0000 C   0  0  0  0  0  0  0  0  0  0  0  0
    8.0684   -4.6612    0.0000 C   0  0  0  0  0  0  0  0  0  0  0  0
    8.0684   -5.9911    0.0000 C   0  0  0  0  0  0  0  0  0  0  0  0
    6.9158   -6.6498    0.0000 C   0  0  0  0  0  0  0  0  0  0  0  0
    4.6105   -6.6498    0.0000 N   0  0  0  0  0  0  0  0  0  0  0  0
    9.2083   -3.9899    0.0000 N   0  0  0  0  0  0  0  0  0  0  0  0
    3.4579   -5.9911    0.0000 C   0  0  0  0  0  0  0  0  0  0  0  0
    3.4579   -4.6612    0.0000 C   0  0  0  0  0  0  0  0  0  0  0  0
    2.3053   -3.9899    0.0000 C   0  0  0  0  0  0  0  0  0  0  0  0
    2.3053   -2.6599    0.0000 C   0  0  0  0  0  0  0  0  0  0  0  0
    1.1526   -2.0013    0.0000 C   0  0  0  0  0  0  0  0  0  0  0  0
    1.1526   -0.6713    0.0000 C   0  0  0  0  0  0  0  0  0  0  0  0
    0.0000    0.0000    0.0000 C   0  0  0  0  0  0  0  0  0  0  0  0
    2.3053   -6.6498    0.0000 C   0  0  0  0  0  0  0  0  0  0  0  0
   10.3610   -4.6612    0.0000 C   0  0  0  0  0  0  0  0  0  0  0  0
   11.5136   -3.9899    0.0000 C   0  0  0  0  0  0  0  0  0  0  0  0
   10.3610   -5.9911    0.0000 C   0  0  0  0  0  0  0  0  0  0  0  0
   12.6662   -4.6612    0.0000 C   0  0  0  0  0  0  0  0  0  0  0  0
   11.5136   -6.6498    0.0000 C   0  0  0  0  0  0  0  0  0  0  0  0
   12.6662   -5.9911    0.0000 C   0  0  0  0  0  0  0  0  0  0  0  0
  1  2  2  0  0  0  0
  1  6  1  0  0  0  0
  1  7  1  0  0  0  0
  2  3  1  0  0  0  0
  3  4  2  0  0  0  0
  4  5  1  0  0  0  0
  4  8  1  0  0  0  0
  5  6  2  0  0  0  0
  7  9  1  0  0  0  0
  8 17  1  0  0  0  0
  9 10  1  0  0  0  0
  9 16  1  0  0  0  0
 10 11  1  0  0  0  0
 11 12  1  0  0  0  0
 12 13  1  0  0  0  0
 13 14  1  0  0  0  0
 14 15  1  0  0  0  0
 17 18  2  0  0  0  0
 17 19  1  0  0  0  0
 18 20  1  0  0  0  0
 19 21  2  0  0  0  0
 20 22  2  0  0  0  0
 21 22  1  0  0  0  0
M  END
> <ID>
5381

> <Formula>
C20H28N2

> <FW>
296.4497

> <DSSTox_CID>
7771

> <DSSTox_RID>
78561

> <DSSTox_GSID>
27771

> <DSSTox_FileID_Sort>
3244

> <TS_ChemName>
1,4-Benzenediamine, N-(1-methylheptyl)-N'-phenyl-

> <TS_ChemName_Synonyms>


> <TS_CASRN>
15233-47-3

> <CASRN_ChemName_Relationship>
primary

> <TS_Description>
single chemical compound

> <ChemNote>


> <STRUCTURE_Shown>
tested chemical

> <STRUCTURE_Formula>
C20H28N2

> <STRUCTURE_MW>
296.4497

> <STRUCTURE_ChemType>
defined organic

> <STRUCTURE_DefinedOrganicForm>
parent

> <STRUCTURE_IUPAC>
N-(octan-2-yl)-N'-phenylbenzene-1,4-diamine

> <STRUCTURE_SMILES>
CC(CCCCCC)Nc1ccc(cc1)Nc2ccccc2

> <STRUCTURE_SMILES_Desalt>
CC(CCCCCC)Nc1ccc(cc1)Nc2ccccc2

> <Substance_modify_yyyymmdd>
20080429

$$$$
