1524-88-5
ChemmineR-0915142007XD

 34 38  0  0  1  0  0  0  0  0  1 V2000
    8.2387   -2.0046    0.0000 C   0  0  0  0  0  0  0  0  0  0  0  0
    6.9525   -2.4218    0.0000 C   0  0  0  0  0  0  0  0  0  0  0  0
    3.4878   -4.4032    0.0000 C   0  0  0  0  0  0  0  0  0  0  0  0
    6.9525   -3.7428    0.0000 C   0  0  0  0  0  0  0  0  0  0  0  0
    3.4878   -5.7358    0.0000 C   0  0  0  0  0  0  0  0  0  0  0  0
    5.8053   -4.4032    0.0000 C   0  0  0  0  0  0  0  0  0  0  0  0
    4.6350   -3.7428    0.0000 C   0  0  0  0  0  0  0  0  0  0  0  0
    8.9687   -3.0707    0.0000 C   0  0  0  0  0  0  0  0  0  0  0  0
    8.9919   -0.9386    0.0000 O   0  0  0  0  0  0  0  0  0  0  0  0
    5.7821   -1.7497    0.0000 C   0  0  0  0  0  0  0  0  0  0  0  0
   10.2433   -1.3557    0.0000 C   0  0  0  0  0  0  0  0  0  0  0  0
    4.6350   -2.4218    0.0000 C   0  0  0  0  0  0  0  0  0  0  0  0
   10.2433   -2.6651    0.0000 O   0  0  0  0  0  0  0  0  0  0  0  0
    8.2155   -4.1483    0.0000 C   0  0  0  0  0  0  0  0  0  0  0  0
    5.8053   -5.7474    0.0000 C   0  0  0  0  0  0  0  0  0  0  0  0
    4.6350   -6.3731    0.0000 C   0  0  0  0  0  0  0  0  0  0  0  0
    2.3291   -6.3731    0.0000 C   0  0  0  0  0  0  0  0  0  0  0  0
    8.2387   -0.6721    0.0000 C   0  0  0  0  0  0  0  0  0  0  0  0
    2.3291   -3.7428    0.0000 C   0  0  0  0  0  0  0  0  0  0  0  0
    1.1819   -5.7358    0.0000 C   0  0  0  0  0  0  0  0  0  0  0  0
    9.3859    0.0000    0.0000 O   0  0  0  0  0  0  0  0  0  0  0  0
    0.0000   -6.3731    0.0000 O   0  0  0  0  0  0  0  0  0  0  0  0
    6.9757   -1.0660    0.0000 C   0  0  0  0  0  0  0  0  0  0  0  0
    1.1819   -4.4032    0.0000 C   0  0  0  0  0  0  0  0  0  0  0  0
    3.4878   -3.0707    0.0000 C   0  0  0  0  0  0  0  0  0  0  0  0
    4.6350   -7.7057    0.0000 F   0  0  0  0  0  0  0  0  0  0  0  0
    3.4878   -1.7149    0.0000 O   0  0  0  0  0  0  0  0  0  0  0  0
    7.0568   -0.0232    0.0000 C   0  0  0  0  0  0  0  0  0  0  0  0
   10.5909   -0.0695    0.0000 C   0  0  0  0  0  0  0  0  0  0  0  0
   11.5875   -1.3557    0.0000 C   0  0  0  0  0  0  0  0  0  0  0  0
    5.9328   -0.7416    0.0000 O   0  0  0  0  0  0  0  0  0  0  0  0
    4.6350   -5.0753    0.0000 H   0  0  0  0  0  0  0  0  0  0  0  0
    6.9525   -5.0753    0.0000 H   0  0  0  0  0  0  0  0  0  0  0  0
    5.8053   -3.0707    0.0000 H   0  0  0  0  0  0  0  0  0  0  0  0
  1  2  1  0  0  0  0
  1  8  1  0  0  0  0
  1  9  1  6  0  0  0
  1 18  1  0  0  0  0
  2  4  1  0  0  0  0
  2 10  1  0  0  0  0
  2 23  1  1  0  0  0
  3  7  1  0  0  0  0
  3  5  1  0  0  0  0
  3 19  1  0  0  0  0
  3 25  1  1  0  0  0
  4  6  1  0  0  0  0
  4 33  1  6  0  0  0
  4 14  1  0  0  0  0
  5 17  2  0  0  0  0
  5 16  1  0  0  0  0
  6 15  1  0  0  0  0
  6 34  1  1  0  0  0
  6  7  1  0  0  0  0
  7 12  1  0  0  0  0
  7 32  1  6  0  0  0
  8 13  1  6  0  0  0
  8 14  1  0  0  0  0
  9 11  1  0  0  0  0
 10 12  1  0  0  0  0
 11 29  1  0  0  0  0
 11 30  1  0  0  0  0
 11 13  1  0  0  0  0
 12 27  1  1  0  0  0
 15 16  1  0  0  0  0
 16 26  1  6  0  0  0
 17 20  1  0  0  0  0
 18 21  2  0  0  0  0
 18 28  1  0  0  0  0
 19 24  1  0  0  0  0
 20 24  1  0  0  0  0
 20 22  2  0  0  0  0
 28 31  1  0  0  0  0
M  END
> <ID>
12575

> <Formula>
C24H33FO6

> <FW>
436.5136

> <DSSTox_CID>
27434

> <DSSTox_RID>
82344

> <DSSTox_GSID>
47434

> <DSSTox_FileID_Sort>
7025

> <TS_ChemName>
Flurandrenolide

> <TS_ChemName_Synonyms>


> <TS_CASRN>
1524-88-5

> <CASRN_ChemName_Relationship>
primary

> <TS_Description>
single chemical compound

> <ChemNote>
tautomers; stereochem

> <STRUCTURE_Shown>
tested chemical

> <STRUCTURE_Formula>
C24H33FO6

> <STRUCTURE_MW>
436.5136

> <STRUCTURE_ChemType>
defined organic

> <STRUCTURE_DefinedOrganicForm>
parent

> <STRUCTURE_IUPAC>
(4aR,4bS,5S,6aS,6bS,9aR,10aS,10bS,12S)-12-fluoro-5-hydroxy-6b-(hydroxyacetyl)-4a,6a,8,8-tetramethyl-3,4,4a,4b,5,6,6a,6b,9a,10,10a,10b,11,12-tetradecahydro-2H-naphtho[2',1':4,5]indeno[1,2-d][1,3]dioxol-2-one

> <STRUCTURE_SMILES>
OCC(=O)[C@@]54OC(C)(C)O[C@@H]5C[C@@H]3[C@]4(C)C[C@H](O)[C@H]2[C@H]3C[C@H](F)C1=CC(=O)CC[C@@]12C

> <STRUCTURE_SMILES_Desalt>
OCC(=O)[C@@]54OC(C)(C)O[C@@H]5C[C@@H]3[C@]4(C)C[C@H](O)[C@H]2[C@H]3C[C@H](F)C1=CC(=O)CC[C@@]12C

> <Substance_modify_yyyymmdd>
20100619

$$$$
