15262-86-9
ChemmineR-0915142007XD

 31 34  0  0  1  0  0  0  0  0  1 V2000
    3.4766   -5.7384    0.0000 C   0  0  0  0  0  0  0  0  0  0  0  0
    6.9252   -3.7279    0.0000 C   0  0  0  0  0  0  0  0  0  0  0  0
    3.4766   -7.0788    0.0000 C   0  0  0  0  0  0  0  0  0  0  0  0
    4.6075   -5.0822    0.0000 C   0  0  0  0  0  0  0  0  0  0  0  0
    6.9252   -5.0822    0.0000 C   0  0  0  0  0  0  0  0  0  0  0  0
    5.7663   -5.7384    0.0000 C   0  0  0  0  0  0  0  0  0  0  0  0
    2.3177   -7.7350    0.0000 C   0  0  0  0  0  0  0  0  0  0  0  0
    5.7663   -3.0717    0.0000 C   0  0  0  0  0  0  0  0  0  0  0  0
    4.6075   -3.7279    0.0000 C   0  0  0  0  0  0  0  0  0  0  0  0
    2.3177   -5.0822    0.0000 C   0  0  0  0  0  0  0  0  0  0  0  0
    5.7663   -7.0788    0.0000 C   0  0  0  0  0  0  0  0  0  0  0  0
    8.1957   -5.4871    0.0000 C   0  0  0  0  0  0  0  0  0  0  0  0
    4.6075   -7.7350    0.0000 C   0  0  0  0  0  0  0  0  0  0  0  0
    8.1957   -3.3369    0.0000 C   0  0  0  0  0  0  0  0  0  0  0  0
    1.1589   -7.0788    0.0000 C   0  0  0  0  0  0  0  0  0  0  0  0
    8.9636   -4.4120    0.0000 C   0  0  0  0  0  0  0  0  0  0  0  0
    0.0000   -7.7489    0.0000 O   0  0  0  0  0  0  0  0  0  0  0  0
    1.1589   -5.7384    0.0000 C   0  0  0  0  0  0  0  0  0  0  0  0
    3.4766   -4.4260    0.0000 C   0  0  0  0  0  0  0  0  0  0  0  0
    6.9252   -2.4154    0.0000 C   0  0  0  0  0  0  0  0  0  0  0  0
    8.1957   -1.9966    0.0000 O   0  0  0  0  0  0  0  0  0  0  0  0
    5.7663   -4.4260    0.0000 H   0  0  0  0  0  0  0  0  0  0  0  0
    6.9252   -6.4086    0.0000 H   0  0  0  0  0  0  0  0  0  0  0  0
    4.6075   -6.4086    0.0000 H   0  0  0  0  0  0  0  0  0  0  0  0
    9.3546   -1.3404    0.0000 C   0  0  0  0  0  0  0  0  0  0  0  0
    9.3546    0.0000    0.0000 O   0  0  0  0  0  0  0  0  0  0  0  0
   10.5134   -1.9966    0.0000 C   0  0  0  0  0  0  0  0  0  0  0  0
   11.6583   -1.3404    0.0000 C   0  0  0  0  0  0  0  0  0  0  0  0
   12.8172   -1.9966    0.0000 C   0  0  0  0  0  0  0  0  0  0  0  0
   13.9621   -1.3404    0.0000 C   0  0  0  0  0  0  0  0  0  0  0  0
   12.8172   -3.3369    0.0000 C   0  0  0  0  0  0  0  0  0  0  0  0
  1  3  1  0  0  0  0
  1  4  1  0  0  0  0
  1 10  1  0  0  0  0
  1 19  1  1  0  0  0
  2  8  1  0  0  0  0
  2 14  1  0  0  0  0
  2 20  1  1  0  0  0
  2  5  1  0  0  0  0
  3  7  2  0  0  0  0
  3 13  1  0  0  0  0
  4  6  1  0  0  0  0
  4  9  1  0  0  0  0
  4 24  1  6  0  0  0
  5  6  1  0  0  0  0
  5 12  1  0  0  0  0
  5 23  1  6  0  0  0
  6 11  1  0  0  0  0
  6 22  1  1  0  0  0
  7 15  1  0  0  0  0
  8  9  1  0  0  0  0
 10 18  1  0  0  0  0
 11 13  1  0  0  0  0
 12 16  1  0  0  0  0
 14 21  1  1  0  0  0
 14 16  1  0  0  0  0
 15 18  1  0  0  0  0
 15 17  2  0  0  0  0
 21 25  1  0  0  0  0
 25 26  2  0  0  0  0
 25 27  1  0  0  0  0
 27 28  1  0  0  0  0
 28 29  1  0  0  0  0
 29 30  1  0  0  0  0
 29 31  1  0  0  0  0
M  END
> <ID>
11984

> <Formula>
C25H38O3

> <FW>
386.5674

> <DSSTox_CID>
26806

> <DSSTox_RID>
81920

> <DSSTox_GSID>
46806

> <DSSTox_FileID_Sort>
6601

> <TS_ChemName>
Testosterone isocaproate

> <TS_ChemName_Synonyms>


> <TS_CASRN>
15262-86-9

> <CASRN_ChemName_Relationship>
primary

> <TS_Description>
single chemical compound

> <ChemNote>
stereochem

> <STRUCTURE_Shown>
tested chemical

> <STRUCTURE_Formula>
C25H38O3

> <STRUCTURE_MW>
386.5674

> <STRUCTURE_ChemType>
defined organic

> <STRUCTURE_DefinedOrganicForm>
parent

> <STRUCTURE_IUPAC>
(17beta)-3-oxoandrost-4-en-17-yl 4-methylpentanoate

> <STRUCTURE_SMILES>
CC(C)CCC(=O)O[C@H]2CC[C@H]3[C@@H]4CCC1=CC(=O)CC[C@]1(C)[C@H]4CC[C@]23C

> <STRUCTURE_SMILES_Desalt>
CC(C)CCC(=O)O[C@H]2CC[C@H]3[C@@H]4CCC1=CC(=O)CC[C@]1(C)[C@H]4CC[C@]23C

> <Substance_modify_yyyymmdd>
20110801

$$$$
