152751-57-0
ChemmineR-0915142007XD

 27 24  0  0  0  0  0  0  0  0  1 V2000
    0.2454   -0.6616    0.0000 C    0  0  0  0  0  0  0  0  0  0  0  0
    1.3980    0.0000    0.0000 C    0  0  0  0  0  0  0  0  0  0  0  0
    2.5505   -0.6723    0.0000 C    0  0  0  0  0  0  0  0  0  0  0  0
    3.7030   -0.0107    0.0000 C    0  0  0  0  0  0  0  0  0  0  0  0
    2.5505   -2.0063    0.0000 C    0  0  0  0  0  0  0  0  0  0  0  0
    1.3766   -2.6572    0.0000 N    0  0  0  0  0  0  0  0  0  0  0  0
    4.8556   -0.6937    0.0000 C    0  0  0  0  0  0  0  0  0  0  0  0
    6.0081   -0.0320    0.0000 C    0  0  0  0  0  0  0  0  0  0  0  0
    4.8342   -2.0169    0.0000 C    0  0  0  0  0  0  0  0  0  0  0  0
    3.6817   -2.6786    0.0000 N    0  0  0  0  0  0  0  0  0  0  0  0
    3.6817   -4.0018    0.0000 C    0  0  0  0  0  0  0  0  0  0  0  0
    4.8236   -4.6742    0.0000 C    0  0  0  0  0  0  0  0  0  0  0  0
    4.8236   -6.0081    0.0000 C    0  0  0  0  0  0  0  0  0  0  0  0
    5.9761   -4.0232    0.0000 O    0  0  0  0  0  0  0  0  0  0  0  0
    3.6710   -6.6697    0.0000 N    0  0  0  0  0  0  0  0  0  0  0  0
    3.6497   -7.9930    0.0000 C    0  0  0  0  0  0  0  0  0  0  0  0
    4.8022   -8.6653    0.0000 C    0  0  0  0  0  0  0  0  0  0  0  0
    4.7915   -9.9993    0.0000 C    0  0  0  0  0  0  0  0  0  0  0  0
    5.9441  -10.6716    0.0000 C    0  0  0  0  0  0  0  0  0  0  0  0
    3.6390  -10.6502    0.0000 C    0  0  0  0  0  0  0  0  0  0  0  0
    2.4972   -9.9779    0.0000 C    0  0  0  0  0  0  0  0  0  0  0  0
    1.3339  -10.6396    0.0000 C    0  0  0  0  0  0  0  0  0  0  0  0
    0.1921   -9.9673    0.0000 C    0  0  0  0  0  0  0  0  0  0  0  0
    2.4972   -8.6547    0.0000 C    0  0  0  0  0  0  0  0  0  0  0  0
    1.3446   -7.9823    0.0000 N    0  0  0  0  0  0  0  0  0  0  0  0
    0.0000   -4.0552    0.0000 Cl   0  0  0  0  0  0  0  0  0  0  0  0
    5.2077   -7.2140    0.0000 Cl   0  0  0  0  0  0  0  0  0  0  0  0
  1  2  1  0  0  0  0
  2  3  1  0  0  0  0
  3  4  1  0  0  0  0
  3  5  1  0  0  0  0
  4  7  1  0  0  0  0
  5  6  1  0  0  0  0
  7  8  1  0  0  0  0
  7  9  1  0  0  0  0
  9 10  1  0  0  0  0
 10 11  1  0  0  0  0
 11 12  1  0  0  0  0
 12 13  1  0  0  0  0
 12 14  1  0  0  0  0
 13 15  1  0  0  0  0
 15 16  1  0  0  0  0
 16 17  1  0  0  0  0
 17 18  1  0  0  0  0
 18 19  1  0  0  0  0
 18 20  1  0  0  0  0
 20 21  1  0  0  0  0
 21 22  1  0  0  0  0
 21 24  1  0  0  0  0
 22 23  1  0  0  0  0
 24 25  1  0  0  0  0
M  END
> <ID>
13627

> <Formula>
C20H48Cl2N4O

> <FW>
431.5273 (358.6054+36.4609+36.4609)

> <DSSTox_CID>
28556

> <DSSTox_RID>
82828

> <DSSTox_GSID>
48630

> <DSSTox_FileID_Sort>
7505

> <TS_ChemName>
Sevelamer hydrochloride

> <TS_ChemName_Synonyms>


> <TS_CASRN>
152751-57-0

> <CASRN_ChemName_Relationship>
primary

> <TS_Description>
polymer

> <ChemNote>
Sevelamer is a copolymer of 2-(chloromethyl)oxirane (epichlorohydrin) and prop-2-en-1-amine witrh approx 40% HCl

> <STRUCTURE_Shown>
monomer of polymer

> <STRUCTURE_Formula>
C20H48Cl2N4O

> <STRUCTURE_MW>
431.5273

> <STRUCTURE_ChemType>
defined organic

> <STRUCTURE_DefinedOrganicForm>
complex

> <STRUCTURE_IUPAC>
1-{[5-(aminomethyl)-3-methylheptyl]amino}-3-{[4-(aminomethyl)-2-methylhexyl]amino}propan-2-ol dihydrochloride

> <STRUCTURE_SMILES>
Cl.Cl.CCC(CN)CC(C)CCNCC(O)CNCC(C)CC(CN)CC

> <STRUCTURE_SMILES_Desalt>
CCC(CN)CC(C)CCNCC(O)CNCC(C)CC(CN)CC

> <Substance_modify_yyyymmdd>
20111015

$$$$
