152885-09-1
ChemmineR-0915142007XD

 15 16  0  0  1  0  0  0  0  0  1 V2000
    5.2688   -1.1488    0.0000 C    0  0  0  0  0  0  0  0  0  0  0  0
    5.9502    0.0000    0.0000 C    0  0  0  0  0  0  0  0  0  0  0  0
    3.9615   -1.1488    0.0000 C    0  0  0  0  0  0  0  0  0  0  0  0
    5.9502   -2.2977    0.0000 C    0  0  0  0  0  0  0  0  0  0  0  0
    6.9009   -0.8478    0.0000 N    0  0  0  0  0  0  0  0  0  0  0  0
    7.2575    0.0000    0.0000 C    0  0  0  0  0  0  0  0  0  0  0  0
    3.2960   -2.2977    0.0000 C    0  0  0  0  0  0  0  0  0  0  0  0
    3.2960    0.0000    0.0000 C    0  0  0  0  0  0  0  0  0  0  0  0
    7.2575   -2.2977    0.0000 C    0  0  0  0  0  0  0  0  0  0  0  0
    7.9230   -1.1488    0.0000 C    0  0  0  0  0  0  0  0  0  0  0  0
    1.9728   -2.2977    0.0000 C    0  0  0  0  0  0  0  0  0  0  0  0
    1.9728    0.0000    0.0000 N    0  0  0  0  0  0  0  0  0  0  0  0
    1.3231   -1.1488    0.0000 C    0  0  0  0  0  0  0  0  0  0  0  0
    0.0000   -1.1488    0.0000 Cl   0  0  0  0  0  0  0  0  0  0  0  0
    3.1375   -3.2801    0.0000 Cl   0  0  0  0  0  0  0  0  0  0  0  0
  1  2  1  0  0  0  0
  1  3  1  1  0  0  0
  1  4  1  0  0  0  0
  2  5  1  1  0  0  0
  2  6  1  0  0  0  0
  3  7  2  0  0  0  0
  3  8  1  0  0  0  0
  4  9  1  0  0  0  0
  9  5  1  1  0  0  0
  6 10  1  0  0  0  0
  7 11  1  0  0  0  0
  8 12  2  0  0  0  0
  9 10  1  0  0  0  0
 11 13  2  0  0  0  0
 12 13  1  0  0  0  0
 13 14  1  0  0  0  0
M  END
> <ID>
13928

> <Formula>
C11H14Cl2N2

> <FW>
245.1483 (208.6873+36.4609)

> <DSSTox_CID>
28865

> <DSSTox_RID>
83134

> <DSSTox_GSID>
48939

> <DSSTox_FileID_Sort>
7811

> <TS_ChemName>
(+)-Epibatidine hydrochloride

> <TS_ChemName_Synonyms>
(?)-Epibatidine hydrochloride

> <TS_CASRN>
152885-09-1

> <CASRN_ChemName_Relationship>
primary

> <TS_Description>
single chemical compound

> <ChemNote>


> <STRUCTURE_Shown>
tested chemical

> <STRUCTURE_Formula>
C11H14Cl2N2

> <STRUCTURE_MW>
245.1483

> <STRUCTURE_ChemType>
defined organic

> <STRUCTURE_DefinedOrganicForm>
complex

> <STRUCTURE_IUPAC>
(1S,2S,4R)-2-(6-chloropyridin-3-yl)-7-azabicyclo[2.2.1]heptane hydrochloride (1:1)

> <STRUCTURE_SMILES>
Cl.Clc1ccc(cn1)[C@@H]3C[C@H]2CC[C@@H]3N2

> <STRUCTURE_SMILES_Desalt>
Clc1ccc(cn1)[C@@H]3C[C@H]2CC[C@@H]3N2

> <Substance_modify_yyyymmdd>
20111204

$$$$
