153-18-4
ChemmineR-0915142007XD

 43 47  0  0  1  0  0  0  0  0  1 V2000
    4.6024  -11.2995    0.0000 C   0  0  0  0  0  0  0  0  0  0  0  0
    4.6024   -9.9693    0.0000 C   0  0  0  0  0  0  0  0  0  0  0  0
    5.7644   -9.3118    0.0000 C   0  0  0  0  0  0  0  0  0  0  0  0
    6.9112   -9.9693    0.0000 C   0  0  0  0  0  0  0  0  0  0  0  0
    8.0580   -9.3118    0.0000 C   0  0  0  0  0  0  0  0  0  0  0  0
    9.2048   -9.9693    0.0000 C   0  0  0  0  0  0  0  0  0  0  0  0
    9.2048  -11.2995    0.0000 C   0  0  0  0  0  0  0  0  0  0  0  0
    8.0580  -11.9723    0.0000 C   0  0  0  0  0  0  0  0  0  0  0  0
    6.9112  -11.2995    0.0000 C   0  0  0  0  0  0  0  0  0  0  0  0
    5.7644  -11.9723    0.0000 O   0  0  0  0  0  0  0  0  0  0  0  0
   10.3668  -11.9723    0.0000 O   0  0  0  0  0  0  0  0  0  0  0  0
    8.0580   -7.9815    0.0000 O   0  0  0  0  0  0  0  0  0  0  0  0
    5.7644   -7.9815    0.0000 O   0  0  0  0  0  0  0  0  0  0  0  0
    3.4556   -9.3118    0.0000 O   0  0  0  0  0  0  0  0  0  0  0  0
    3.4556   -7.9815    0.0000 C   0  0  0  0  0  0  0  0  0  0  0  0
    4.6024   -7.3088    0.0000 O   0  0  0  0  0  0  0  0  0  0  0  0
    4.6024   -5.9785    0.0000 C   0  0  0  0  0  0  0  0  0  0  0  0
    5.7644   -5.3210    0.0000 C   0  0  0  0  0  0  0  0  0  0  0  0
    5.7644   -3.9908    0.0000 O   0  0  0  0  0  0  0  0  0  0  0  0
    6.9112   -3.3180    0.0000 C   0  0  0  0  0  0  0  0  0  0  0  0
    6.9112   -1.9877    0.0000 C   0  0  0  0  0  0  0  0  0  0  0  0
    8.0580   -1.3303    0.0000 C   0  0  0  0  0  0  0  0  0  0  0  0
    9.2048   -1.9877    0.0000 C   0  0  0  0  0  0  0  0  0  0  0  0
   10.3668   -1.3303    0.0000 O   0  0  0  0  0  0  0  0  0  0  0  0
    9.2048   -3.3180    0.0000 C   0  0  0  0  0  0  0  0  0  0  0  0
    8.0580   -3.9908    0.0000 O   0  0  0  0  0  0  0  0  0  0  0  0
   10.3668   -3.9908    0.0000 C   0  0  0  0  0  0  0  0  0  0  0  0
    8.0580    0.0000    0.0000 O   0  0  0  0  0  0  0  0  0  0  0  0
    5.7644   -1.3303    0.0000 O   0  0  0  0  0  0  0  0  0  0  0  0
    3.4556   -5.3210    0.0000 C   0  0  0  0  0  0  0  0  0  0  0  0
    3.4556   -3.9908    0.0000 O   0  0  0  0  0  0  0  0  0  0  0  0
    2.3088   -5.9785    0.0000 C   0  0  0  0  0  0  0  0  0  0  0  0
    2.3088   -7.3088    0.0000 C   0  0  0  0  0  0  0  0  0  0  0  0
    1.1468   -7.9815    0.0000 O   0  0  0  0  0  0  0  0  0  0  0  0
    1.1468   -5.3210    0.0000 O   0  0  0  0  0  0  0  0  0  0  0  0
    3.4556  -11.9723    0.0000 C   0  0  0  0  0  0  0  0  0  0  0  0
    3.4556  -13.3026    0.0000 C   0  0  0  0  0  0  0  0  0  0  0  0
    2.3088  -13.9600    0.0000 C   0  0  0  0  0  0  0  0  0  0  0  0
    1.1468  -13.3026    0.0000 C   0  0  0  0  0  0  0  0  0  0  0  0
    0.0000  -13.9600    0.0000 O   0  0  0  0  0  0  0  0  0  0  0  0
    1.1468  -11.9723    0.0000 C   0  0  0  0  0  0  0  0  0  0  0  0
    2.3088  -11.2995    0.0000 C   0  0  0  0  0  0  0  0  0  0  0  0
    2.3088  -15.2903    0.0000 O   0  0  0  0  0  0  0  0  0  0  0  0
  1  2  2  0  0  0  0
  1 10  1  0  0  0  0
  1 36  1  0  0  0  0
  2  3  1  0  0  0  0
  2 14  1  0  0  0  0
  3  4  1  0  0  0  0
  3 13  2  0  0  0  0
  4  5  1  0  0  0  0
  4  9  2  0  0  0  0
  5  6  2  0  0  0  0
  5 12  1  0  0  0  0
  6  7  1  0  0  0  0
  7  8  2  0  0  0  0
  7 11  1  0  0  0  0
  8  9  1  0  0  0  0
  9 10  1  0  0  0  0
 15 14  1  1  0  0  0
 15 16  1  0  0  0  0
 15 33  1  0  0  0  0
 16 17  1  0  0  0  0
 17 18  1  1  0  0  0
 17 30  1  0  0  0  0
 18 19  1  0  0  0  0
 20 19  1  1  0  0  0
 20 21  1  0  0  0  0
 20 26  1  0  0  0  0
 21 22  1  0  0  0  0
 21 29  1  6  0  0  0
 22 23  1  0  0  0  0
 22 28  1  6  0  0  0
 23 24  1  1  0  0  0
 23 25  1  0  0  0  0
 25 26  1  0  0  0  0
 25 27  1  6  0  0  0
 30 31  1  6  0  0  0
 30 32  1  0  0  0  0
 32 33  1  0  0  0  0
 32 35  1  1  0  0  0
 33 34  1  6  0  0  0
 36 37  2  0  0  0  0
 36 42  1  0  0  0  0
 37 38  1  0  0  0  0
 38 39  2  0  0  0  0
 38 43  1  0  0  0  0
 39 40  1  0  0  0  0
 39 41  1  0  0  0  0
 41 42  2  0  0  0  0
M  END
> <ID>
2156

> <Formula>
C27H30O16

> <FW>
610.5175

> <DSSTox_CID>
2326

> <DSSTox_RID>
76549

> <DSSTox_GSID>
22326

> <DSSTox_FileID_Sort>
1233

> <TS_ChemName>
Rutin trihydrate

> <TS_ChemName_Synonyms>


> <TS_CASRN>
153-18-4

> <CASRN_ChemName_Relationship>
primary

> <TS_Description>
single chemical compound

> <ChemNote>
stereochem; same as rutin; assume 3H2O incorporated into structure

> <STRUCTURE_Shown>
tested chemical

> <STRUCTURE_Formula>
C27H30O16

> <STRUCTURE_MW>
610.5175

> <STRUCTURE_ChemType>
defined organic

> <STRUCTURE_DefinedOrganicForm>
parent

> <STRUCTURE_IUPAC>
2-(3,4-dihydroxyphenyl)-5,7-dihydroxy-4-oxo-4H-chromen-3-yl 6-O-(6-deoxy-alpha-L-mannopyranosyl)-beta-D-glucopyranoside

> <STRUCTURE_SMILES>
Oc1ccc(cc1O)C=4Oc5cc(O)cc(O)c5C(=O)C=4O[C@@H]3O[C@H](CO[C@@H]2O[C@@H](C)[C@H](O)[C@@H](O)[C@H]2O)[C@@H](O)[C@H](O)[C@H]3O

> <STRUCTURE_SMILES_Desalt>
Oc1ccc(cc1O)C=4Oc5cc(O)cc(O)c5C(=O)C=4O[C@@H]3O[C@H](CO[C@@H]2O[C@@H](C)[C@H](O)[C@@H](O)[C@H]2O)[C@@H](O)[C@H](O)[C@H]3O

> <Substance_modify_yyyymmdd>
20080429

$$$$
