153-94-6
ChemmineR-0915142007XD

 15 16  0  0  1  0  0  0  0  0  1 V2000
    7.1578   -1.2830    0.0000 C   0  0  0  0  0  0  0  0  0  0  0  0
    6.5670   -3.5114    0.0000 N   0  0  0  0  0  0  0  0  0  0  0  0
    6.2124   -2.2115    0.0000 C   0  0  0  0  0  0  0  0  0  0  0  0
    4.9463   -1.8148    0.0000 C   0  0  0  0  0  0  0  0  0  0  0  0
    3.9587   -2.6926    0.0000 C   0  0  0  0  0  0  0  0  0  0  0  0
    4.1022   -4.0178    0.0000 C   0  0  0  0  0  0  0  0  0  0  0  0
    2.8868   -4.5665    0.0000 N   0  0  0  0  0  0  0  0  0  0  0  0
    1.9836   -3.5705    0.0000 C   0  0  0  0  0  0  0  0  0  0  0  0
    0.6753   -3.5705    0.0000 C   0  0  0  0  0  0  0  0  0  0  0  0
    0.0000   -2.4225    0.0000 C   0  0  0  0  0  0  0  0  0  0  0  0
    0.6753   -1.2661    0.0000 C   0  0  0  0  0  0  0  0  0  0  0  0
    1.9836   -1.2661    0.0000 C   0  0  0  0  0  0  0  0  0  0  0  0
    2.6589   -2.4225    0.0000 C   0  0  0  0  0  0  0  0  0  0  0  0
    6.8033    0.0000    0.0000 O   0  0  0  0  0  0  0  0  0  0  0  0
    8.4408   -1.6375    0.0000 O   0  0  0  0  0  0  0  0  0  0  0  0
  1  3  1  0  0  0  0
  1 14  2  0  0  0  0
  1 15  1  0  0  0  0
  3  2  1  6  0  0  0
  3  4  1  0  0  0  0
  4  5  1  0  0  0  0
  5  6  2  0  0  0  0
  5 13  1  0  0  0  0
  6  7  1  0  0  0  0
  7  8  1  0  0  0  0
  8  9  2  0  0  0  0
  8 13  1  0  0  0  0
  9 10  1  0  0  0  0
 10 11  2  0  0  0  0
 11 12  1  0  0  0  0
 12 13  2  0  0  0  0
M  END
> <ID>
12145

> <Formula>
C11H12N2O2

> <FW>
204.2252

> <DSSTox_CID>
26989

> <DSSTox_RID>
82038

> <DSSTox_GSID>
46989

> <DSSTox_FileID_Sort>
6719

> <TS_ChemName>
d-Tryptophan

> <TS_ChemName_Synonyms>
D-Typtophan

> <TS_CASRN>
153-94-6

> <CASRN_ChemName_Relationship>
primary

> <TS_Description>
single chemical compound

> <ChemNote>
stereochem

> <STRUCTURE_Shown>
tested chemical

> <STRUCTURE_Formula>
C11H12N2O2

> <STRUCTURE_MW>
204.2252

> <STRUCTURE_ChemType>
defined organic

> <STRUCTURE_DefinedOrganicForm>
parent

> <STRUCTURE_IUPAC>
D-tryptophan

> <STRUCTURE_SMILES>
O=C(O)[C@H](N)Cc2cnc1ccccc12

> <STRUCTURE_SMILES_Desalt>
O=C(O)[C@H](N)Cc2cnc1ccccc12

> <Substance_modify_yyyymmdd>
20100309

$$$$
