153-78-6
ChemmineR-0915142007XD

 14 16  0  0  0  0  0  0  0  0  1 V2000
    0.0000   -0.6630    0.0000 C   0  0  0  0  0  0  0  0  0  0  0  0
    0.0000   -1.9965    0.0000 C   0  0  0  0  0  0  0  0  0  0  0  0
    1.1527    0.0000    0.0000 C   0  0  0  0  0  0  0  0  0  0  0  0
    1.1527   -2.6595    0.0000 C   0  0  0  0  0  0  0  0  0  0  0  0
    5.4320   -3.7595    0.0000 C   0  0  0  0  0  0  0  0  0  0  0  0
    4.1060   -3.6239    0.0000 C   0  0  0  0  0  0  0  0  0  0  0  0
    3.5711   -0.2562    0.0000 C   0  0  0  0  0  0  0  0  0  0  0  0
    5.6731   -1.4691    0.0000 C   0  0  0  0  0  0  0  0  0  0  0  0
    2.3054   -0.6630    0.0000 C   0  0  0  0  0  0  0  0  0  0  0  0
    4.3471   -1.3335    0.0000 C   0  0  0  0  0  0  0  0  0  0  0  0
    6.2080   -2.6821    0.0000 C   0  0  0  0  0  0  0  0  0  0  0  0
    2.3054   -1.9965    0.0000 C   0  0  0  0  0  0  0  0  0  0  0  0
    3.5711   -2.4034    0.0000 C   0  0  0  0  0  0  0  0  0  0  0  0
    7.5340   -2.8253    0.0000 N   0  0  0  0  0  0  0  0  0  0  0  0
  1  2  2  0  0  0  0
  1  3  1  0  0  0  0
  2  4  1  0  0  0  0
  3  9  2  0  0  0  0
  4 12  2  0  0  0  0
  5  6  1  0  0  0  0
  5 11  2  0  0  0  0
  6 13  2  0  0  0  0
  7  9  1  0  0  0  0
  7 10  1  0  0  0  0
  8 10  2  0  0  0  0
  8 11  1  0  0  0  0
  9 12  1  0  0  0  0
 10 13  1  0  0  0  0
 11 14  1  0  0  0  0
 12 13  1  0  0  0  0
M  END
> <ID>
14086

> <Formula>
C13H11N

> <FW>
181.2331

> <DSSTox_CID>
29079

> <DSSTox_RID>
83298

> <DSSTox_GSID>
49223

> <DSSTox_FileID_Sort>
7973

> <TS_ChemName>
2-Aminofluorene

> <TS_ChemName_Synonyms>


> <TS_CASRN>
153-78-6

> <CASRN_ChemName_Relationship>
primary

> <TS_Description>
single chemical compound

> <ChemNote>


> <STRUCTURE_Shown>
tested chemical

> <STRUCTURE_Formula>
C13H11N

> <STRUCTURE_MW>
181.2331

> <STRUCTURE_ChemType>
defined organic

> <STRUCTURE_DefinedOrganicForm>
parent

> <STRUCTURE_IUPAC>
9H-fluoren-2-amine

> <STRUCTURE_SMILES>
Nc1ccc2c3ccccc3Cc2c1

> <STRUCTURE_SMILES_Desalt>
Nc1ccc2c3ccccc3Cc2c1

> <Substance_modify_yyyymmdd>
20111204

$$$$
