153-61-7
ChemmineR-0915142007XD

 28 30  0  0  1  0  0  0  0  0  1 V2000
    7.2185   -3.6869    0.0000 N   0  0  0  0  0  0  0  0  0  0  0  0
    5.8906   -3.6869    0.0000 C   0  0  0  0  0  0  0  0  0  0  0  0
    7.2185   -2.3591    0.0000 C   0  0  0  0  0  0  0  0  0  0  0  0
    5.8906   -2.3591    0.0000 C   0  0  0  0  0  0  0  0  0  0  0  0
    8.3627   -4.3650    0.0000 C   0  0  0  0  0  0  0  0  0  0  0  0
    8.3627   -1.7093    0.0000 S   0  0  0  0  0  0  0  0  0  0  0  0
    9.5211   -3.6869    0.0000 C   0  0  0  0  0  0  0  0  0  0  0  0
    4.3932   -2.3026    0.0000 N   0  0  0  0  0  0  0  0  0  0  0  0
    8.3627   -5.6787    0.0000 C   0  0  0  0  0  0  0  0  0  0  0  0
    3.7293   -1.1583    0.0000 C   0  0  0  0  0  0  0  0  0  0  0  0
    2.4015   -1.1583    0.0000 C   0  0  0  0  0  0  0  0  0  0  0  0
    1.7375   -2.3026    0.0000 C   0  0  0  0  0  0  0  0  0  0  0  0
    9.5211   -2.3591    0.0000 C   0  0  0  0  0  0  0  0  0  0  0  0
    4.9583   -4.6193    0.0000 O   0  0  0  0  0  0  0  0  0  0  0  0
    2.1331   -3.5598    0.0000 S   0  0  0  0  0  0  0  0  0  0  0  0
   10.6653   -4.3650    0.0000 C   0  0  0  0  0  0  0  0  0  0  0  0
   12.9678   -4.3650    0.0000 C   0  0  0  0  0  0  0  0  0  0  0  0
    1.0877   -4.3367    0.0000 C   0  0  0  0  0  0  0  0  0  0  0  0
    9.5211   -6.3427    0.0000 O   0  0  0  0  0  0  0  0  0  0  0  0
    0.3955   -2.3026    0.0000 C   0  0  0  0  0  0  0  0  0  0  0  0
    4.3932    0.0000    0.0000 O   0  0  0  0  0  0  0  0  0  0  0  0
   11.8236   -3.6869    0.0000 O   0  0  0  0  0  0  0  0  0  0  0  0
    0.0000   -3.5598    0.0000 C   0  0  0  0  0  0  0  0  0  0  0  0
   12.9678   -5.6787    0.0000 O   0  0  0  0  0  0  0  0  0  0  0  0
    7.2185   -6.3427    0.0000 O   0  0  0  0  0  0  0  0  0  0  0  0
   14.1262   -3.6869    0.0000 C   0  0  0  0  0  0  0  0  0  0  0  0
    7.2467   -1.1018    0.0000 H   0  0  0  0  0  0  0  0  0  0  0  0
    5.9189   -1.0453    0.0000 H   0  0  0  0  0  0  0  0  0  0  0  0
  1  2  1  0  0  0  0
  1  3  1  0  0  0  0
  1  5  1  0  0  0  0
  2 14  2  0  0  0  0
  2  4  1  0  0  0  0
  3  4  1  0  0  0  0
  3  6  1  0  0  0  0
  3 27  1  6  0  0  0
  4  8  1  1  0  0  0
  4 28  1  6  0  0  0
  5  7  2  0  0  0  0
  5  9  1  0  0  0  0
  6 13  1  0  0  0  0
  7 13  1  0  0  0  0
  7 16  1  0  0  0  0
  8 10  1  0  0  0  0
  9 19  2  0  0  0  0
  9 25  1  0  0  0  0
 10 11  1  0  0  0  0
 10 21  2  0  0  0  0
 11 12  1  0  0  0  0
 12 15  1  0  0  0  0
 12 20  2  0  0  0  0
 15 18  1  0  0  0  0
 16 22  1  0  0  0  0
 17 22  1  0  0  0  0
 17 24  2  0  0  0  0
 17 26  1  0  0  0  0
 18 23  2  0  0  0  0
 20 23  1  0  0  0  0
M  END
> <ID>
2521

> <Formula>
C16H16N2O6S2

> <FW>
396.438

> <DSSTox_CID>
2783

> <DSSTox_RID>
76728

> <DSSTox_GSID>
22783

> <DSSTox_FileID_Sort>
1412

> <TS_ChemName>
Cephalothin

> <TS_ChemName_Synonyms>


> <TS_CASRN>
153-61-7

> <CASRN_ChemName_Relationship>
primary

> <TS_Description>
single chemical compound

> <ChemNote>
stereochem

> <STRUCTURE_Shown>
tested chemical

> <STRUCTURE_Formula>
C16H16N2O6S2

> <STRUCTURE_MW>
396.438

> <STRUCTURE_ChemType>
defined organic

> <STRUCTURE_DefinedOrganicForm>
parent

> <STRUCTURE_IUPAC>
(6R,7R)-3-[(acetyloxy)methyl]-8-oxo-7-[(thiophen-2-ylacetyl)amino]-5-thia-1-azabicyclo[4.2.0]oct-2-ene-2-carboxylic acid

> <STRUCTURE_SMILES>
O=C(O)C=2N3C(=O)[C@@H](NC(=O)Cc1cccs1)[C@H]3SCC=2COC(C)=O

> <STRUCTURE_SMILES_Desalt>
O=C(O)C=2N3C(=O)[C@@H](NC(=O)Cc1cccs1)[C@H]3SCC=2COC(C)=O

> <Substance_modify_yyyymmdd>
20080429

$$$$
