15301-40-3
ChemmineR-0915142007XD

 17 18  0  0  0  0  0  0  0  0  1 V2000
    1.3243   -5.9922    0.0000 S   0  0  0  0  0  0  0  0  0  0  0  0
    1.3243   -4.6460    0.0000 C   0  0  0  0  0  0  0  0  0  0  0  0
    2.4949   -3.9948    0.0000 C   0  0  0  0  0  0  0  0  0  0  0  0
    2.4949   -2.6486    0.0000 C   0  0  0  0  0  0  0  0  0  0  0  0
    0.1902   -3.9802    0.0000 C   0  0  0  0  0  0  0  0  0  0  0  0
    0.0000   -5.9922    0.0000 O   0  0  0  0  0  0  0  0  0  0  0  0
    2.6852   -5.9922    0.0000 O   0  0  0  0  0  0  0  0  0  0  0  0
    3.6290   -1.9974    0.0000 N   0  0  0  0  0  0  0  0  0  0  0  0
    1.3243   -1.9974    0.0000 C   0  0  0  0  0  0  0  0  0  0  0  0
    1.3243   -7.3165    0.0000 O   0  0  0  0  0  0  0  0  0  0  0  0
    0.1902   -2.6705    0.0000 C   0  0  0  0  0  0  0  0  0  0  0  0
    3.6290   -4.6460    0.0000 C   0  0  0  0  0  0  0  0  0  0  0  0
    1.3243   -0.6731    0.0000 O   0  0  0  0  0  0  0  0  0  0  0  0
    4.7923   -2.6705    0.0000 C   0  0  0  0  0  0  0  0  0  0  0  0
    2.4949    0.0000    0.0000 C   0  0  0  0  0  0  0  0  0  0  0  0
    4.7923   -3.9802    0.0000 C   0  0  0  0  0  0  0  0  0  0  0  0
    3.6436   -0.6731    0.0000 C   0  0  0  0  0  0  0  0  0  0  0  0
  1  2  1  0  0  0  0
  1  6  2  0  0  0  0
  1  7  2  0  0  0  0
  1 10  1  0  0  0  0
  2  3  1  0  0  0  0
  2  5  2  0  0  0  0
  3  4  2  0  0  0  0
  3 12  1  0  0  0  0
  4  8  1  0  0  0  0
  4  9  1  0  0  0  0
  5 11  1  0  0  0  0
  8 14  2  0  0  0  0
  9 11  2  0  0  0  0
  9 13  1  0  0  0  0
 12 16  2  0  0  0  0
 13 15  1  0  0  0  0
 14 16  1  0  0  0  0
 15 17  1  0  0  0  0
M  END
> <ID>
11753

> <Formula>
C11H11NO4S

> <FW>
253.2743

> <DSSTox_CID>
26521

> <DSSTox_RID>
81687

> <DSSTox_GSID>
46521

> <DSSTox_FileID_Sort>
6368

> <TS_ChemName>
Actinoquinol

> <TS_ChemName_Synonyms>


> <TS_CASRN>
15301-40-3

> <CASRN_ChemName_Relationship>
primary

> <TS_Description>
single chemical compound

> <ChemNote>


> <STRUCTURE_Shown>
tested chemical

> <STRUCTURE_Formula>
C11H11NO4S

> <STRUCTURE_MW>
253.2743

> <STRUCTURE_ChemType>
defined organic

> <STRUCTURE_DefinedOrganicForm>
parent

> <STRUCTURE_IUPAC>
8-ethoxyquinoline-5-sulfonic acid

> <STRUCTURE_SMILES>
O=S(=O)(O)c1ccc(OCC)c2ncccc12

> <STRUCTURE_SMILES_Desalt>
O=S(=O)(O)c1ccc(OCC)c2ncccc12

> <Substance_modify_yyyymmdd>
20110811

$$$$
