15302-18-8
ChemmineR-0915142007XD

 12 12  0  0  0  0  0  0  0  0  1 V2000
    3.4602   -0.6695    0.0000 C   0  0  0  0  0  0  0  0  0  0  0  0
    3.4602   -2.0003    0.0000 C   0  0  0  0  0  0  0  0  0  0  0  0
    4.6056   -2.6617    0.0000 C   0  0  0  0  0  0  0  0  0  0  0  0
    5.7590   -2.0003    0.0000 C   0  0  0  0  0  0  0  0  0  0  0  0
    5.7590   -0.6695    0.0000 C   0  0  0  0  0  0  0  0  0  0  0  0
    6.9124    0.0000    0.0000 C   0  0  0  0  0  0  0  0  0  0  0  0
    8.0658   -0.6695    0.0000 C   0  0  0  0  0  0  0  0  0  0  0  0
    8.0658   -2.0003    0.0000 C   0  0  0  0  0  0  0  0  0  0  0  0
    6.9124   -2.6617    0.0000 C   0  0  0  0  0  0  0  0  0  0  0  0
    2.3068   -2.6617    0.0000 N   0  0  0  0  0  0  0  0  0  0  0  0
    1.1534   -2.0003    0.0000 C   0  0  0  0  0  0  0  0  0  0  0  0
    0.0000   -2.6617    0.0000 O   0  0  0  0  0  0  0  0  0  0  0  0
  1  2  1  0  0  0  0
  2  3  1  0  0  0  0
  2 10  1  0  0  0  0
  3  4  1  0  0  0  0
  4  5  2  0  0  0  0
  4  9  1  0  0  0  0
  5  6  1  0  0  0  0
  6  7  2  0  0  0  0
  7  8  1  0  0  0  0
  8  9  2  0  0  0  0
 10 11  1  0  0  0  0
 11 12  2  0  0  0  0
M  END
> <ID>
11436

> <Formula>
C10H13NO

> <FW>
163.2163

> <DSSTox_CID>
26135

> <DSSTox_RID>
81368

> <DSSTox_GSID>
46135

> <DSSTox_FileID_Sort>
6049

> <TS_ChemName>
Formetorex

> <TS_ChemName_Synonyms>


> <TS_CASRN>
15302-18-8

> <CASRN_ChemName_Relationship>
primary

> <TS_Description>
single chemical compound

> <ChemNote>


> <STRUCTURE_Shown>
tested chemical

> <STRUCTURE_Formula>
C10H13NO

> <STRUCTURE_MW>
163.2163

> <STRUCTURE_ChemType>
defined organic

> <STRUCTURE_DefinedOrganicForm>
parent

> <STRUCTURE_IUPAC>
N-(1-phenylpropan-2-yl)formamide

> <STRUCTURE_SMILES>
CC(NC=O)Cc1ccccc1

> <STRUCTURE_SMILES_Desalt>
CC(NC=O)Cc1ccccc1

> <Substance_modify_yyyymmdd>
20110818

$$$$
