15307-79-6
ChemmineR-0915142007XD

 20 20  0  0  0  0  0  0  0  0  2 V2000
    3.4577   -4.0178    0.0000 N    0  0  0  0  0  0  0  0  0  0  0  0
    4.6125   -4.6747    0.0000 C    0  0  0  0  0  0  0  0  0  0  0  0
    3.4577   -2.6901    0.0000 C    0  0  0  0  0  0  0  0  0  0  0  0
    1.1549   -4.0178    0.0000 C    0  0  0  0  0  0  0  0  0  0  0  0
    2.3028   -2.0193    0.0000 C    0  0  0  0  0  0  0  0  0  0  0  0
    4.6125   -6.0025    0.0000 C    0  0  0  0  0  0  0  0  0  0  0  0
    5.7605   -4.0178    0.0000 C    0  0  0  0  0  0  0  0  0  0  0  0
    1.1549   -2.6901    0.0000 C    0  0  0  0  0  0  0  0  0  0  0  0
    0.0000   -4.7093    0.0000 O    0  5  0  0  0  0  0  0  0  0  0  0
    2.3028   -4.7093    0.0000 O    0  0  0  0  0  0  0  0  0  0  0  0
    5.7605   -2.6901    0.0000 Cl   0  0  0  0  0  0  0  0  0  0  0  0
    3.4922   -6.6940    0.0000 Cl   0  0  0  0  0  0  0  0  0  0  0  0
    6.9153   -5.9748    0.0000 C    0  0  0  0  0  0  0  0  0  0  0  0
    4.6263   -2.0193    0.0000 C    0  0  0  0  0  0  0  0  0  0  0  0
    6.9153   -4.7093    0.0000 C    0  0  0  0  0  0  0  0  0  0  0  0
    5.7605   -6.6456    0.0000 C    0  0  0  0  0  0  0  0  0  0  0  0
    2.3028   -0.6915    0.0000 C    0  0  0  0  0  0  0  0  0  0  0  0
    4.6263   -0.6915    0.0000 C    0  0  0  0  0  0  0  0  0  0  0  0
    3.4577    0.0000    0.0000 C    0  0  0  0  0  0  0  0  0  0  0  0
    1.2033   -5.5392    0.0000 Na   0  3  0  0  0  0  0  0  0  0  0  0
  1  2  1  0  0  0  0
  1  3  1  0  0  0  0
  2  6  1  0  0  0  0
  2  7  2  0  0  0  0
  3  5  2  0  0  0  0
  3 14  1  0  0  0  0
  4  8  1  0  0  0  0
  4  9  1  0  0  0  0
  4 10  2  0  0  0  0
  5  8  1  0  0  0  0
  5 17  1  0  0  0  0
  6 12  1  0  0  0  0
  6 16  2  0  0  0  0
  7 11  1  0  0  0  0
  7 15  1  0  0  0  0
 13 15  2  0  0  0  0
 13 16  1  0  0  0  0
 14 18  2  0  0  0  0
 17 19  2  0  0  0  0
 18 19  1  0  0  0  0
M  END
> <ID>
7275

> <Formula>
C14H10Cl2NNaO2

> <FW>
318.1305 (295.1412+22.9892)

> <DSSTox_CID>
17208

> <DSSTox_RID>
79308

> <DSSTox_GSID>
37208

> <DSSTox_FileID_Sort>
3990

> <TS_ChemName>
Diclofenac sodium

> <TS_ChemName_Synonyms>


> <TS_CASRN>
15307-79-6

> <CASRN_ChemName_Relationship>
primary

> <TS_Description>
single chemical compound

> <ChemNote>
parent [15307-86-5]

> <STRUCTURE_Shown>
tested chemical

> <STRUCTURE_Formula>
C14H10Cl2NNaO2

> <STRUCTURE_MW>
318.1305

> <STRUCTURE_ChemType>
defined organic

> <STRUCTURE_DefinedOrganicForm>
salt

> <STRUCTURE_IUPAC>
sodium {2-[(2,6-dichlorophenyl)amino]phenyl}acetate

> <STRUCTURE_SMILES>
[Na+].Clc2cccc(Cl)c2Nc1ccccc1CC([O-])=O

> <STRUCTURE_SMILES_Desalt>
Clc2cccc(Cl)c2Nc1ccccc1CC(=O)O

> <Substance_modify_yyyymmdd>
20080429

$$$$
