15310-01-7
ChemmineR-0915142007XD

 16 17  0  0  0  0  0  0  0  0  1 V2000
    3.4590   -2.0077    0.0000 C   0  0  0  0  0  0  0  0  0  0  0  0
    3.4590   -0.6692    0.0000 O   0  0  0  0  0  0  0  0  0  0  0  0
    2.2980   -2.6608    0.0000 C   0  0  0  0  0  0  0  0  0  0  0  0
    2.2980   -3.9993    0.0000 C   0  0  0  0  0  0  0  0  0  0  0  0
    1.1449   -2.0077    0.0000 C   0  0  0  0  0  0  0  0  0  0  0  0
    1.1449   -4.6524    0.0000 C   0  0  0  0  0  0  0  0  0  0  0  0
    0.0000   -2.6608    0.0000 C   0  0  0  0  0  0  0  0  0  0  0  0
    0.0000   -3.9993    0.0000 C   0  0  0  0  0  0  0  0  0  0  0  0
    4.6040   -2.6608    0.0000 N   0  0  0  0  0  0  0  0  0  0  0  0
    3.4590   -4.6524    0.0000 I   0  0  0  0  0  0  0  0  0  0  0  0
    5.7489   -2.0077    0.0000 C   0  0  0  0  0  0  0  0  0  0  0  0
    5.7489   -0.6692    0.0000 C   0  0  0  0  0  0  0  0  0  0  0  0
    6.9181   -2.6608    0.0000 C   0  0  0  0  0  0  0  0  0  0  0  0
    6.9181    0.0000    0.0000 C   0  0  0  0  0  0  0  0  0  0  0  0
    8.0630   -2.0077    0.0000 C   0  0  0  0  0  0  0  0  0  0  0  0
    8.0630   -0.6692    0.0000 C   0  0  0  0  0  0  0  0  0  0  0  0
  1  2  2  0  0  0  0
  1  3  1  0  0  0  0
  1  9  1  0  0  0  0
  3  4  2  0  0  0  0
  3  5  1  0  0  0  0
  4  6  1  0  0  0  0
  4 10  1  0  0  0  0
  5  7  2  0  0  0  0
  6  8  2  0  0  0  0
  7  8  1  0  0  0  0
  9 11  1  0  0  0  0
 11 12  2  0  0  0  0
 11 13  1  0  0  0  0
 12 14  1  0  0  0  0
 13 15  2  0  0  0  0
 14 16  2  0  0  0  0
 15 16  1  0  0  0  0
M  END
> <ID>
8583

> <Formula>
C13H10INO

> <FW>
323.1291

> <DSSTox_CID>
21623

> <DSSTox_RID>
79792

> <DSSTox_GSID>
41623

> <DSSTox_FileID_Sort>
4474

> <TS_ChemName>
Benodanil

> <TS_ChemName_Synonyms>


> <TS_CASRN>
15310-01-7

> <CASRN_ChemName_Relationship>
primary

> <TS_Description>
single chemical compound

> <ChemNote>


> <STRUCTURE_Shown>
tested chemical

> <STRUCTURE_Formula>
C13H10INO

> <STRUCTURE_MW>
323.1291

> <STRUCTURE_ChemType>
defined organic

> <STRUCTURE_DefinedOrganicForm>
parent

> <STRUCTURE_IUPAC>
2-iodo-N-phenylbenzamide

> <STRUCTURE_SMILES>
O=C(Nc1ccccc1)c2ccccc2I

> <STRUCTURE_SMILES_Desalt>
O=C(Nc1ccccc1)c2ccccc2I

> <Substance_modify_yyyymmdd>
20080825

$$$$
