15318-45-3
ChemmineR-0915142007XD

 21 21  0  0  1  0  0  0  0  0  1 V2000
    4.6031   -1.9833    0.0000 C    0  0  0  0  0  0  0  0  0  0  0  0
    4.6031   -3.3301    0.0000 C    0  0  0  0  0  0  0  0  0  0  0  0
    3.4592   -1.3191    0.0000 C    0  0  0  0  0  0  0  0  0  0  0  0
    3.4592   -3.9942    0.0000 C    0  0  0  0  0  0  0  0  0  0  0  0
    2.3061   -1.9833    0.0000 C    0  0  0  0  0  0  0  0  0  0  0  0
    2.3061   -3.3301    0.0000 C    0  0  0  0  0  0  0  0  0  0  0  0
    1.1438   -3.9942    0.0000 S    0  0  0  0  0  0  0  0  0  0  0  0
    0.0000   -4.6400    0.0000 C    0  0  0  0  0  0  0  0  0  0  0  0
    5.7654   -1.3191    0.0000 C    0  0  0  0  0  0  0  0  0  0  0  0
    6.9092   -1.9925    0.0000 C    0  0  0  0  0  0  0  0  0  0  0  0
    6.9092   -3.3301    0.0000 N    0  0  0  0  0  0  0  0  0  0  0  0
    8.0623   -1.3191    0.0000 C    0  0  0  0  0  0  0  0  0  0  0  0
    5.7654    0.0000    0.0000 O    0  0  0  0  0  0  0  0  0  0  0  0
    1.7896   -5.1381    0.0000 O    0  0  0  0  0  0  0  0  0  0  0  0
    0.4981   -2.8504    0.0000 O    0  0  0  0  0  0  0  0  0  0  0  0
    8.0623   -4.0127    0.0000 C    0  0  0  0  0  0  0  0  0  0  0  0
    8.0623   -5.3410    0.0000 C    0  0  0  0  0  0  0  0  0  0  0  0
    9.2061   -3.3301    0.0000 O    0  0  0  0  0  0  0  0  0  0  0  0
    6.9092   -6.0052    0.0000 Cl   0  0  0  0  0  0  0  0  0  0  0  0
    9.2061   -6.0052    0.0000 Cl   0  0  0  0  0  0  0  0  0  0  0  0
    9.2246   -1.9833    0.0000 O    0  0  0  0  0  0  0  0  0  0  0  0
  1  3  2  0  0  0  0
  1  9  1  0  0  0  0
  1  2  1  0  0  0  0
  2  4  2  0  0  0  0
  3  5  1  0  0  0  0
  4  6  1  0  0  0  0
  5  6  2  0  0  0  0
  6  7  1  0  0  0  0
  7  8  1  0  0  0  0
  7 14  2  0  0  0  0
  7 15  2  0  0  0  0
  9 10  1  0  0  0  0
  9 13  1  1  0  0  0
 10 12  1  0  0  0  0
 10 11  1  1  0  0  0
 11 16  1  0  0  0  0
 12 21  1  0  0  0  0
 16 17  1  0  0  0  0
 16 18  2  0  0  0  0
 17 19  1  0  0  0  0
 17 20  1  0  0  0  0
M  END
> <ID>
1285

> <Formula>
C12H15Cl2NO5S

> <FW>
356.2222

> <DSSTox_CID>
1338

> <DSSTox_RID>
76092

> <DSSTox_GSID>
21338

> <DSSTox_FileID_Sort>
776

> <TS_ChemName>
Thiamphenicol

> <TS_ChemName_Synonyms>


> <TS_CASRN>
15318-45-3

> <CASRN_ChemName_Relationship>
primary

> <TS_Description>
single chemical compound

> <ChemNote>
stereochem

> <STRUCTURE_Shown>
tested chemical

> <STRUCTURE_Formula>
C12H15Cl2NO5S

> <STRUCTURE_MW>
356.2222

> <STRUCTURE_ChemType>
defined organic

> <STRUCTURE_DefinedOrganicForm>
parent

> <STRUCTURE_IUPAC>
2,2-dichloro-N-{(1R,2R)-1,3-dihydroxy-1-[4-(methylsulfonyl)phenyl]propan-2-yl}acetamide

> <STRUCTURE_SMILES>
O=S(C)(=O)c1ccc(cc1)[C@@H](O)[C@@H](CO)NC(=O)C(Cl)Cl

> <STRUCTURE_SMILES_Desalt>
O=S(C)(=O)c1ccc(cc1)[C@@H](O)[C@@H](CO)NC(=O)C(Cl)Cl

> <Substance_modify_yyyymmdd>
20080429

$$$$
