153168-05-9
ChemmineR-0915142007XD

 27 29  0  0  0  0  0  0  0  0  1 V2000
   10.9918  -13.5367    0.0000 C   0  0  0  0  0  0  0  0  0  0  0  0
   11.1271  -12.2101    0.0000 C   0  0  0  0  0  0  0  0  0  0  0  0
   12.2778  -11.5468    0.0000 N   0  0  0  0  0  0  0  0  0  0  0  0
   12.0070  -10.2473    0.0000 O   0  0  0  0  0  0  0  0  0  0  0  0
   10.6804  -10.1119    0.0000 C   0  0  0  0  0  0  0  0  0  0  0  0
   10.1390  -11.3167    0.0000 C   0  0  0  0  0  0  0  0  0  0  0  0
   10.0171   -8.9613    0.0000 C   0  0  0  0  0  0  0  0  0  0  0  0
    8.6905   -8.9613    0.0000 C   0  0  0  0  0  0  0  0  0  0  0  0
    8.0137   -7.8107    0.0000 C   0  0  0  0  0  0  0  0  0  0  0  0
    6.6871   -7.8107    0.0000 O   0  0  0  0  0  0  0  0  0  0  0  0
    6.0238   -6.6465    0.0000 C   0  0  0  0  0  0  0  0  0  0  0  0
    6.6871   -5.4959    0.0000 C   0  0  0  0  0  0  0  0  0  0  0  0
    8.0137   -5.4959    0.0000 C   0  0  0  0  0  0  0  0  0  0  0  0
    6.0238   -4.3453    0.0000 C   0  0  0  0  0  0  0  0  0  0  0  0
    4.6972   -4.3453    0.0000 C   0  0  0  0  0  0  0  0  0  0  0  0
    4.0339   -5.4959    0.0000 C   0  0  0  0  0  0  0  0  0  0  0  0
    4.6972   -6.6465    0.0000 C   0  0  0  0  0  0  0  0  0  0  0  0
    4.0339   -7.8107    0.0000 C   0  0  0  0  0  0  0  0  0  0  0  0
    4.0339   -3.1947    0.0000 C   0  0  0  0  0  0  0  0  0  0  0  0
    4.5754   -1.9764    0.0000 N   0  0  0  0  0  0  0  0  0  0  0  0
    3.5872   -1.0965    0.0000 O   0  0  0  0  0  0  0  0  0  0  0  0
    2.4366   -1.7598    0.0000 C   0  0  0  0  0  0  0  0  0  0  0  0
    2.7073   -3.0593    0.0000 N   0  0  0  0  0  0  0  0  0  0  0  0
    1.2183   -1.2183    0.0000 C   0  0  0  0  0  0  0  0  0  0  0  0
    1.7598    0.0000    0.0000 F   0  0  0  0  0  0  0  0  0  0  0  0
    0.6768   -2.4366    0.0000 F   0  0  0  0  0  0  0  0  0  0  0  0
    0.0000   -0.6768    0.0000 F   0  0  0  0  0  0  0  0  0  0  0  0
  1  2  1  0  0  0  0
  2  3  2  0  0  0  0
  2  6  1  0  0  0  0
  3  4  1  0  0  0  0
  4  5  1  0  0  0  0
  5  6  2  0  0  0  0
  5  7  1  0  0  0  0
  7  8  1  0  0  0  0
  8  9  1  0  0  0  0
  9 10  1  0  0  0  0
 10 11  1  0  0  0  0
 11 12  2  0  0  0  0
 11 17  1  0  0  0  0
 12 13  1  0  0  0  0
 12 14  1  0  0  0  0
 14 15  2  0  0  0  0
 15 16  1  0  0  0  0
 15 19  1  0  0  0  0
 16 17  2  0  0  0  0
 17 18  1  0  0  0  0
 19 20  2  0  0  0  0
 19 23  1  0  0  0  0
 20 21  1  0  0  0  0
 21 22  1  0  0  0  0
 22 23  2  0  0  0  0
 22 24  1  0  0  0  0
 24 25  1  0  0  0  0
 24 26  1  0  0  0  0
 24 27  1  0  0  0  0
M  END
> <ID>
16053

> <Formula>
C18H18F3N3O3

> <FW>
381.349

> <DSSTox_CID>
31438

> <DSSTox_RID>
97324

> <DSSTox_GSID>
57649

> <DSSTox_FileID_Sort>
8391

> <TS_ChemName>
Pleconaril

> <TS_ChemName_Synonyms>


> <TS_CASRN>
153168-05-9

> <CASRN_ChemName_Relationship>
primary

> <TS_Description>
single chemical compound

> <ChemNote>


> <STRUCTURE_Shown>
tested chemical

> <STRUCTURE_Formula>
C18H18F3N3O3

> <STRUCTURE_MW>
381.349

> <STRUCTURE_ChemType>
defined organic

> <STRUCTURE_DefinedOrganicForm>
parent

> <STRUCTURE_IUPAC>
3-{3,5-dimethyl-4-[3-(3-methyl-1,2-oxazol-5-yl)propoxy]phenyl}-5-(trifluoromethyl)-1,2,4-oxadiazole

> <STRUCTURE_SMILES>
Cc1cc(on1)CCCOc2c(C)cc(cc2C)c3nc(on3)C(F)(F)F

> <STRUCTURE_SMILES_Desalt>
Cc1cc(on1)CCCOc2c(C)cc(cc2C)c3nc(on3)C(F)(F)F

> <Substance_modify_yyyymmdd>
20131018

$$$$
