153259-65-5
ChemmineR-0915142007XD

 25 27  0  0  1  0  0  0  0  0  1 V2000
    0.0000   -3.3206    0.0000 C   0  0  0  0  0  0  0  0  0  0  0  0
    1.1554   -3.9868    0.0000 O   0  0  0  0  0  0  0  0  0  0  0  0
    2.3109   -3.3206    0.0000 C   0  0  0  0  0  0  0  0  0  0  0  0
    2.3109   -1.9882    0.0000 C   0  0  0  0  0  0  0  0  0  0  0  0
    3.4663   -1.3324    0.0000 C   0  0  0  0  0  0  0  0  0  0  0  0
    4.6010   -1.9882    0.0000 C   0  0  0  0  0  0  0  0  0  0  0  0
    4.6010   -3.3206    0.0000 C   0  0  0  0  0  0  0  0  0  0  0  0
    3.4663   -3.9764    0.0000 C   0  0  0  0  0  0  0  0  0  0  0  0
    3.4663   -5.3088    0.0000 O   0  0  0  0  0  0  0  0  0  0  0  0
    2.3109   -5.9750    0.0000 C   0  0  0  0  0  0  0  0  0  0  0  0
    2.1652   -7.2970    0.0000 C   0  0  0  0  0  0  0  0  0  0  0  0
    0.8640   -7.5676    0.0000 C   0  0  0  0  0  0  0  0  0  0  0  0
    0.1874   -6.4330    0.0000 C   0  0  0  0  0  0  0  0  0  0  0  0
    1.0930   -5.4233    0.0000 C   0  0  0  0  0  0  0  0  0  0  0  0
    5.7564   -1.3324    0.0000 C   0  0  0  0  0  0  0  0  0  0  0  0
    6.4122   -0.1770    0.0000 C   0  0  0  0  0  0  0  0  0  0  0  0
    7.7654   -0.1770    0.0000 C   0  0  0  0  0  0  0  0  0  0  0  0
    8.4212   -1.3116    0.0000 C   0  0  0  0  0  0  0  0  0  0  0  0
    7.7446   -2.4670    0.0000 C   0  0  0  0  0  0  0  0  0  0  0  0
    6.4122   -2.4670    0.0000 C   0  0  0  0  0  0  0  0  0  0  0  0
    9.7536   -1.3116    0.0000 C   0  0  0  0  0  0  0  0  0  0  0  0
   10.4094   -2.4670    0.0000 O   0  0  0  0  0  0  0  0  0  0  0  0
   10.4094   -0.1561    0.0000 O   0  0  0  0  0  0  0  0  0  0  0  0
    4.6010   -0.6558    0.0000 C   0  0  0  0  0  0  0  0  0  0  0  0
    3.4455    0.0000    0.0000 N   0  0  0  0  0  0  0  0  0  0  0  0
  1  2  1  0  0  0  0
  2  3  1  0  0  0  0
  3  4  2  0  0  0  0
  3  8  1  0  0  0  0
  4  5  1  0  0  0  0
  5  6  2  0  0  0  0
  6  7  1  0  0  0  0
  6 15  1  0  0  0  0
  7  8  2  0  0  0  0
  8  9  1  0  0  0  0
  9 10  1  0  0  0  0
 10 11  1  0  0  0  0
 10 14  1  0  0  0  0
 11 12  1  0  0  0  0
 12 13  1  0  0  0  0
 13 14  1  0  0  0  0
 15 16  1  0  0  0  0
 15 20  1  0  0  0  0
 15 24  1  1  0  0  0
 16 17  1  0  0  0  0
 17 18  1  0  0  0  0
 18 19  1  0  0  0  0
 18 21  1  1  0  0  0
 19 20  1  0  0  0  0
 21 22  1  0  0  0  0
 21 23  2  0  0  0  0
 24 25  3  0  0  0  0
M  END
> <ID>
11884

> <Formula>
C20H25NO4

> <FW>
343.4168

> <DSSTox_CID>
26686

> <DSSTox_RID>
81820

> <DSSTox_GSID>
46686

> <DSSTox_FileID_Sort>
6501

> <TS_ChemName>
Cilomilast

> <TS_ChemName_Synonyms>


> <TS_CASRN>
153259-65-5

> <CASRN_ChemName_Relationship>
primary

> <TS_Description>
single chemical compound

> <ChemNote>
stereochem

> <STRUCTURE_Shown>
tested chemical

> <STRUCTURE_Formula>
C20H25NO4

> <STRUCTURE_MW>
343.4168

> <STRUCTURE_ChemType>
defined organic

> <STRUCTURE_DefinedOrganicForm>
parent

> <STRUCTURE_IUPAC>
cis-4-cyano-4-[3-(cyclopentyloxy)-4-methoxyphenyl]cyclohexanecarboxylic acid

> <STRUCTURE_SMILES>
O=C(O)[C@H]1CC[C@@](C#N)(CC1)c3cc(OC2CCCC2)c(cc3)OC

> <STRUCTURE_SMILES_Desalt>
O=C(O)[C@H]1CC[C@@](C#N)(CC1)c3cc(OC2CCCC2)c(cc3)OC

> <Substance_modify_yyyymmdd>
20110805

$$$$
