153233-91-1
ChemmineR-0915142007XD

 26 28  0  0  0  0  0  0  0  0  1 V2000
    7.5255   -2.1223    0.0000 N   0  0  0  0  0  0  0  0  0  0  0  0
    8.6599   -2.6589    0.0000 C   0  0  0  0  0  0  0  0  0  0  0  0
    8.6599   -3.9274    0.0000 O   0  0  0  0  0  0  0  0  0  0  0  0
    6.6474   -3.1102    0.0000 C   0  0  0  0  0  0  0  0  0  0  0  0
    7.2938   -4.2689    0.0000 C   0  0  0  0  0  0  0  0  0  0  0  0
    9.8918   -1.9881    0.0000 C   0  0  0  0  0  0  0  0  0  0  0  0
    9.8918   -0.6586    0.0000 C   0  0  0  0  0  0  0  0  0  0  0  0
   11.0505   -2.6589    0.0000 C   0  0  0  0  0  0  0  0  0  0  0  0
   11.0505    0.0000    0.0000 C   0  0  0  0  0  0  0  0  0  0  0  0
   12.1970   -1.9881    0.0000 C   0  0  0  0  0  0  0  0  0  0  0  0
   12.1970   -0.6586    0.0000 C   0  0  0  0  0  0  0  0  0  0  0  0
    8.7452    0.0000    0.0000 F   0  0  0  0  0  0  0  0  0  0  0  0
   11.0505   -3.9884    0.0000 F   0  0  0  0  0  0  0  0  0  0  0  0
    5.3179   -3.1102    0.0000 C   0  0  0  0  0  0  0  0  0  0  0  0
    4.6471   -4.2689    0.0000 C   0  0  0  0  0  0  0  0  0  0  0  0
    4.6471   -1.9637    0.0000 C   0  0  0  0  0  0  0  0  0  0  0  0
    3.3176   -4.2689    0.0000 C   0  0  0  0  0  0  0  0  0  0  0  0
    3.3176   -1.9637    0.0000 C   0  0  0  0  0  0  0  0  0  0  0  0
    2.6589   -3.1102    0.0000 C   0  0  0  0  0  0  0  0  0  0  0  0
    1.3295   -3.1102    0.0000 C   0  0  0  0  0  0  0  0  0  0  0  0
    1.3295   -4.4397    0.0000 C   0  0  0  0  0  0  0  0  0  0  0  0
    1.3295   -1.7808    0.0000 C   0  0  0  0  0  0  0  0  0  0  0  0
    0.0000   -3.1102    0.0000 C   0  0  0  0  0  0  0  0  0  0  0  0
    5.3179   -5.4155    0.0000 O   0  0  0  0  0  0  0  0  0  0  0  0
    4.6471   -6.5742    0.0000 C   0  0  0  0  0  0  0  0  0  0  0  0
    5.3179   -7.7207    0.0000 C   0  0  0  0  0  0  0  0  0  0  0  0
  1  2  2  0  0  0  0
  1  4  1  0  0  0  0
  2  3  1  0  0  0  0
  2  6  1  0  0  0  0
  3  5  1  0  0  0  0
  4  5  1  0  0  0  0
  4 14  1  0  0  0  0
  6  7  2  0  0  0  0
  6  8  1  0  0  0  0
  7  9  1  0  0  0  0
  7 12  1  0  0  0  0
  8 10  2  0  0  0  0
  8 13  1  0  0  0  0
  9 11  2  0  0  0  0
 10 11  1  0  0  0  0
 14 15  2  0  0  0  0
 14 16  1  0  0  0  0
 15 17  1  0  0  0  0
 15 24  1  0  0  0  0
 16 18  2  0  0  0  0
 17 19  2  0  0  0  0
 18 19  1  0  0  0  0
 19 20  1  0  0  0  0
 20 21  1  0  0  0  0
 20 22  1  0  0  0  0
 20 23  1  0  0  0  0
 24 25  1  0  0  0  0
 25 26  1  0  0  0  0
M  END
> <ID>
6838

> <Formula>
C21H23F2NO2

> <FW>
359.4096

> <DSSTox_CID>
14586

> <DSSTox_RID>
79171

> <DSSTox_GSID>
34586

> <DSSTox_FileID_Sort>
3853

> <TS_ChemName>
Etoxazole

> <TS_ChemName_Synonyms>
Etoxazole (Oxazole, 2-(2,6-difluorophenyl)-4-{4-(1,1-dimethylethyl)-2-ethoxyphenyl}-4,5-dihydro-)

> <TS_CASRN>
153233-91-1

> <CASRN_ChemName_Relationship>
primary

> <TS_Description>
single chemical compound

> <ChemNote>


> <STRUCTURE_Shown>
tested chemical

> <STRUCTURE_Formula>
C21H23F2NO2

> <STRUCTURE_MW>
359.4096

> <STRUCTURE_ChemType>
defined organic

> <STRUCTURE_DefinedOrganicForm>
parent

> <STRUCTURE_IUPAC>
4-(4-tert-butyl-2-ethoxyphenyl)-2-(2,6-difluorophenyl)-4,5-dihydro-1,3-oxazole

> <STRUCTURE_SMILES>
CC(C)(C)c1cc(OCC)c(cc1)C2N=C(OC2)c3c(F)cccc3F

> <STRUCTURE_SMILES_Desalt>
CC(C)(C)c1cc(OCC)c(cc1)C2N=C(OC2)c3c(F)cccc3F

> <Substance_modify_yyyymmdd>
20080429

$$$$
