15345-89-8
ChemmineR-0915142007XD

 17 18  0  0  0  0  0  0  0  0  1 V2000
    6.6470   -1.1582    0.0000 O   0  0  0  0  0  0  0  0  0  0  0  0
    5.9900   -2.3078    0.0000 C   0  0  0  0  0  0  0  0  0  0  0  0
    6.6470   -3.4575    0.0000 C   0  0  0  0  0  0  0  0  0  0  0  0
    7.9694   -3.4575    0.0000 C   0  0  0  0  0  0  0  0  0  0  0  0
    8.6436   -2.3078    0.0000 C   0  0  0  0  0  0  0  0  0  0  0  0
    7.9694   -1.1582    0.0000 C   0  0  0  0  0  0  0  0  0  0  0  0
    8.6436    0.0000    0.0000 O   0  0  0  0  0  0  0  0  0  0  0  0
    8.6436   -4.6157    0.0000 O   0  0  0  0  0  0  0  0  0  0  0  0
    7.9694   -5.7653    0.0000 C   0  0  0  0  0  0  0  0  0  0  0  0
    4.6589   -2.3078    0.0000 C   0  0  0  0  0  0  0  0  0  0  0  0
    3.9847   -3.4575    0.0000 C   0  0  0  0  0  0  0  0  0  0  0  0
    2.6536   -3.4575    0.0000 C   0  0  0  0  0  0  0  0  0  0  0  0
    1.9967   -2.3078    0.0000 C   0  0  0  0  0  0  0  0  0  0  0  0
    1.9967   -4.6157    0.0000 C   0  0  0  0  0  0  0  0  0  0  0  0
    0.6742   -2.3078    0.0000 C   0  0  0  0  0  0  0  0  0  0  0  0
    0.6742   -4.6157    0.0000 C   0  0  0  0  0  0  0  0  0  0  0  0
    0.0000   -3.4575    0.0000 C   0  0  0  0  0  0  0  0  0  0  0  0
  1  2  1  0  0  0  0
  1  6  1  0  0  0  0
  2  3  2  0  0  0  0
  2 10  1  0  0  0  0
  3  4  1  0  0  0  0
  4  5  2  0  0  0  0
  4  8  1  0  0  0  0
  5  6  1  0  0  0  0
  6  7  2  0  0  0  0
  8  9  1  0  0  0  0
 10 11  2  0  0  0  0
 11 12  1  0  0  0  0
 12 13  2  0  0  0  0
 12 14  1  0  0  0  0
 13 15  1  0  0  0  0
 14 16  2  0  0  0  0
 15 17  2  0  0  0  0
 16 17  1  0  0  0  0
M  END
> <ID>
6620

> <Formula>
C14H12O3

> <FW>
228.2433

> <DSSTox_CID>
13390

> <DSSTox_RID>
79070

> <DSSTox_GSID>
33390

> <DSSTox_FileID_Sort>
3752

> <TS_ChemName>
Desmethoxyyangonin

> <TS_ChemName_Synonyms>
Desmethoxyangonin

> <TS_CASRN>
15345-89-8

> <CASRN_ChemName_Relationship>
primary

> <TS_Description>
single chemical compound

> <ChemNote>
stereochem

> <STRUCTURE_Shown>
tested chemical

> <STRUCTURE_Formula>
C14H12O3

> <STRUCTURE_MW>
228.2433

> <STRUCTURE_ChemType>
defined organic

> <STRUCTURE_DefinedOrganicForm>
parent

> <STRUCTURE_IUPAC>
4-methoxy-6-[(E)-2-phenylethenyl]-2H-pyran-2-one

> <STRUCTURE_SMILES>
COC=2C=C(/C=C/c1ccccc1)OC(=O)C=2

> <STRUCTURE_SMILES_Desalt>
COC=2C=C(/C=C/c1ccccc1)OC(=O)C=2

> <Substance_modify_yyyymmdd>
20080429

$$$$
