153439-40-8
ChemmineR-0915142007XD

 38 40  0  0  0  0  0  0  0  0  1 V2000
    9.4973   -8.3271    0.0000 Cl   0  0  0  0  0  0  0  0  0  0  0  0
    8.9885   -6.9703    0.0000 O    0  0  0  0  0  0  0  0  0  0  0  0
    9.6669   -5.9358    0.0000 C    0  0  0  0  0  0  0  0  0  0  0  0
    7.3604   -5.0030    0.0000 C    0  0  0  0  0  0  0  0  0  0  0  0
    8.7172   -4.9182    0.0000 C    0  0  0  0  0  0  0  0  0  0  0  0
   16.3150   -5.9358    0.0000 C    0  0  0  0  0  0  0  0  0  0  0  0
   14.9921   -7.2586    0.0000 C    0  0  0  0  0  0  0  0  0  0  0  0
   14.9921   -4.5790    0.0000 C    0  0  0  0  0  0  0  0  0  0  0  0
   14.9921   -5.9358    0.0000 C    0  0  0  0  0  0  0  0  0  0  0  0
   13.6693   -5.9358    0.0000 C    0  0  0  0  0  0  0  0  0  0  0  0
   12.9740   -7.0382    0.0000 C    0  0  0  0  0  0  0  0  0  0  0  0
   12.9740   -4.7486    0.0000 C    0  0  0  0  0  0  0  0  0  0  0  0
   11.6511   -7.0382    0.0000 C    0  0  0  0  0  0  0  0  0  0  0  0
   11.6511   -4.7486    0.0000 C    0  0  0  0  0  0  0  0  0  0  0  0
   10.9897   -5.9358    0.0000 C    0  0  0  0  0  0  0  0  0  0  0  0
   16.9594   -4.7486    0.0000 O    0  0  0  0  0  0  0  0  0  0  0  0
   16.9594   -7.0382    0.0000 O    0  0  0  0  0  0  0  0  0  0  0  0
    6.5463   -3.9515    0.0000 C    0  0  0  0  0  0  0  0  0  0  0  0
    0.0000   -4.0363    0.0000 O    0  0  0  0  0  0  0  0  0  0  0  0
    1.3228   -2.6966    0.0000 C    0  0  0  0  0  0  0  0  0  0  0  0
    1.3907   -5.3422    0.0000 C    0  0  0  0  0  0  0  0  0  0  0  0
    1.3228   -3.9855    0.0000 C    0  0  0  0  0  0  0  0  0  0  0  0
    5.3592   -3.9176    0.0000 N    0  0  0  0  0  0  0  0  0  0  0  0
    4.6469   -2.7305    0.0000 C    0  0  0  0  0  0  0  0  0  0  0  0
    3.3071   -2.8153    0.0000 C    0  0  0  0  0  0  0  0  0  0  0  0
    4.7147   -5.0878    0.0000 C    0  0  0  0  0  0  0  0  0  0  0  0
    2.6626   -3.9685    0.0000 C    0  0  0  0  0  0  0  0  0  0  0  0
    3.3749   -5.1048    0.0000 C    0  0  0  0  0  0  0  0  0  0  0  0
    0.2883   -7.3943    0.0000 C    0  0  0  0  0  0  0  0  0  0  0  0
    0.2035   -6.0376    0.0000 C    0  0  0  0  0  0  0  0  0  0  0  0
    1.4416   -8.0049    0.0000 C    0  0  0  0  0  0  0  0  0  0  0  0
    2.5778   -7.3095    0.0000 C    0  0  0  0  0  0  0  0  0  0  0  0
    2.5609   -5.9528    0.0000 C    0  0  0  0  0  0  0  0  0  0  0  0
    2.4082   -1.9334    0.0000 C    0  0  0  0  0  0  0  0  0  0  0  0
    0.1187   -2.0521    0.0000 C    0  0  0  0  0  0  0  0  0  0  0  0
    2.4082   -0.6275    0.0000 C    0  0  0  0  0  0  0  0  0  0  0  0
    0.1018   -0.6784    0.0000 C    0  0  0  0  0  0  0  0  0  0  0  0
    1.2211    0.0000    0.0000 C    0  0  0  0  0  0  0  0  0  0  0  0
  2  3  1  0  0  0  0
  3  5  1  0  0  0  0
  3 15  1  0  0  0  0
  4  5  1  0  0  0  0
  4 18  1  0  0  0  0
  6  9  1  0  0  0  0
  6 16  2  0  0  0  0
  6 17  1  0  0  0  0
  7  9  1  0  0  0  0
  8  9  1  0  0  0  0
  9 10  1  0  0  0  0
 10 11  1  0  0  0  0
 10 12  2  0  0  0  0
 11 13  2  0  0  0  0
 12 14  1  0  0  0  0
 13 15  1  0  0  0  0
 14 15  2  0  0  0  0
 18 23  1  0  0  0  0
 19 22  1  0  0  0  0
 20 22  1  0  0  0  0
 20 34  1  0  0  0  0
 20 35  2  0  0  0  0
 21 22  1  0  0  0  0
 21 30  2  0  0  0  0
 21 33  1  0  0  0  0
 22 27  1  0  0  0  0
 23 24  1  0  0  0  0
 23 26  1  0  0  0  0
 24 25  1  0  0  0  0
 25 27  1  0  0  0  0
 26 28  1  0  0  0  0
 27 28  1  0  0  0  0
 29 30  1  0  0  0  0
 29 31  2  0  0  0  0
 31 32  1  0  0  0  0
 32 33  2  0  0  0  0
 34 36  2  0  0  0  0
 35 37  1  0  0  0  0
 36 38  1  0  0  0  0
 37 38  2  0  0  0  0
M  END
> <ID>
13708

> <Formula>
C32H40ClNO4

> <FW>
538.1173 (36.4609+501.6564)

> <DSSTox_CID>
28642

> <DSSTox_RID>
82912

> <DSSTox_GSID>
48716

> <DSSTox_FileID_Sort>
7589

> <TS_ChemName>
Fexofenadine hydrochloride

> <TS_ChemName_Synonyms>
Fexofenadine

> <TS_CASRN>
153439-40-8

> <CASRN_ChemName_Relationship>
primary

> <TS_Description>
single chemical compound

> <ChemNote>


> <STRUCTURE_Shown>
tested chemical

> <STRUCTURE_Formula>
C32H40ClNO4

> <STRUCTURE_MW>
538.1173

> <STRUCTURE_ChemType>
defined organic

> <STRUCTURE_DefinedOrganicForm>
complex

> <STRUCTURE_IUPAC>
2-[4-(1-hydroxy-4-{4-[hydroxy(diphenyl)methyl]piperidin-1-yl}butyl)phenyl]-2-methylpropanoic acid hydrochloride (1:1)

> <STRUCTURE_SMILES>
Cl.O=C(O)C(C)(C)c1ccc(cc1)C(O)CCCN2CCC(CC2)C(O)(c3ccccc3)c4ccccc4

> <STRUCTURE_SMILES_Desalt>
O=C(O)C(C)(C)c1ccc(cc1)C(O)CCCN2CCC(CC2)C(O)(c3ccccc3)c4ccccc4

> <Substance_modify_yyyymmdd>
20111204

$$$$
