153559-49-0
ChemmineR-0915142007XD

 26 28  0  0  0  0  0  0  0  0  1 V2000
    2.3057   -1.9945    0.0000 C   0  0  0  0  0  0  0  0  0  0  0  0
    2.3057   -3.3202    0.0000 C   0  0  0  0  0  0  0  0  0  0  0  0
    3.4586   -1.3143    0.0000 C   0  0  0  0  0  0  0  0  0  0  0  0
    1.1529   -1.3143    0.0000 C   0  0  0  0  0  0  0  0  0  0  0  0
    1.1529   -3.9774    0.0000 C   0  0  0  0  0  0  0  0  0  0  0  0
    3.4586   -3.9774    0.0000 C   0  0  0  0  0  0  0  0  0  0  0  0
    4.6115   -1.9945    0.0000 C   0  0  0  0  0  0  0  0  0  0  0  0
    0.0000   -1.9945    0.0000 C   0  0  0  0  0  0  0  0  0  0  0  0
    0.4957   -0.1614    0.0000 C   0  0  0  0  0  0  0  0  0  0  0  0
    1.8100   -0.1614    0.0000 C   0  0  0  0  0  0  0  0  0  0  0  0
    0.0000   -3.3202    0.0000 C   0  0  0  0  0  0  0  0  0  0  0  0
    1.8100   -5.1302    0.0000 C   0  0  0  0  0  0  0  0  0  0  0  0
    0.4957   -5.1302    0.0000 C   0  0  0  0  0  0  0  0  0  0  0  0
    4.6115   -3.3202    0.0000 C   0  0  0  0  0  0  0  0  0  0  0  0
    5.7643   -1.3143    0.0000 C   0  0  0  0  0  0  0  0  0  0  0  0
    5.7643   -3.9774    0.0000 C   0  0  0  0  0  0  0  0  0  0  0  0
    6.9172   -1.9945    0.0000 C   0  0  0  0  0  0  0  0  0  0  0  0
    5.7643    0.0000    0.0000 C   0  0  0  0  0  0  0  0  0  0  0  0
    8.0700   -1.3143    0.0000 C   0  0  0  0  0  0  0  0  0  0  0  0
    6.9172   -3.3202    0.0000 C   0  0  0  0  0  0  0  0  0  0  0  0
    9.2229   -1.9945    0.0000 C   0  0  0  0  0  0  0  0  0  0  0  0
    8.0700   -3.9774    0.0000 C   0  0  0  0  0  0  0  0  0  0  0  0
    9.2229   -3.3202    0.0000 C   0  0  0  0  0  0  0  0  0  0  0  0
   10.3758   -3.9774    0.0000 C   0  0  0  0  0  0  0  0  0  0  0  0
   10.3758   -5.3147    0.0000 O   0  0  0  0  0  0  0  0  0  0  0  0
   11.5286   -3.3202    0.0000 O   0  0  0  0  0  0  0  0  0  0  0  0
  1  2  2  0  0  0  0
  1  3  1  0  0  0  0
  1  4  1  0  0  0  0
  2  5  1  0  0  0  0
  2  6  1  0  0  0  0
  3  7  2  0  0  0  0
  4  8  1  0  0  0  0
  4  9  1  0  0  0  0
  4 10  1  0  0  0  0
  5 11  1  0  0  0  0
  5 12  1  0  0  0  0
  5 13  1  0  0  0  0
  6 14  2  0  0  0  0
  7 15  1  0  0  0  0
  7 14  1  0  0  0  0
  8 11  1  0  0  0  0
 14 16  1  0  0  0  0
 15 17  1  0  0  0  0
 15 18  2  0  0  0  0
 17 19  2  0  0  0  0
 17 20  1  0  0  0  0
 19 21  1  0  0  0  0
 20 22  2  0  0  0  0
 21 23  2  0  0  0  0
 22 23  1  0  0  0  0
 23 24  1  0  0  0  0
 24 25  1  0  0  0  0
 24 26  2  0  0  0  0
M  END
> <ID>
7833

> <Formula>
C24H28O2

> <FW>
348.4779

> <DSSTox_CID>
20619

> <DSSTox_RID>
79514

> <DSSTox_GSID>
40619

> <DSSTox_FileID_Sort>
4196

> <TS_ChemName>
Bexarotene

> <TS_ChemName_Synonyms>
Bexarotene (Targretin) (TRG)

> <TS_CASRN>
153559-49-0

> <CASRN_ChemName_Relationship>
primary

> <TS_Description>
single chemical compound

> <ChemNote>


> <STRUCTURE_Shown>
tested chemical

> <STRUCTURE_Formula>
C24H28O2

> <STRUCTURE_MW>
348.4779

> <STRUCTURE_ChemType>
defined organic

> <STRUCTURE_DefinedOrganicForm>
parent

> <STRUCTURE_IUPAC>
4-[1-(3,5,5,8,8-pentamethyl-5,6,7,8-tetrahydronaphthalen-2-yl)ethenyl]benzoic acid

> <STRUCTURE_SMILES>
O=C(O)c1ccc(cc1)C(=C)c2cc3c(cc2C)C(C)(C)CCC3(C)C

> <STRUCTURE_SMILES_Desalt>
O=C(O)c1ccc(cc1)C(=C)c2cc3c(cc2C)C(C)(C)CCC3(C)C

> <Substance_modify_yyyymmdd>
20080429

$$$$
