15351-13-0
ChemmineR-0915142007XD

 44 48  0  0  1  0  0  0  0  0  1 V2000
    6.3174   -6.9518    0.0000 C   0  0  0  0  0  0  0  0  0  0  0  0
    6.9788   -5.7910    0.0000 O   0  0  0  0  0  0  0  0  0  0  0  0
    8.2747   -6.0744    0.0000 C   0  0  0  0  0  0  0  0  0  0  0  0
    8.4097   -7.3973    0.0000 C   0  0  0  0  0  0  0  0  0  0  0  0
    7.1948   -7.9372    0.0000 C   0  0  0  0  0  0  0  0  0  0  0  0
    6.9248   -9.2331    0.0000 O   0  0  0  0  0  0  0  0  0  0  0  0
    5.6560   -9.6516    0.0000 C   0  0  0  0  0  0  0  0  0  0  0  0
    5.3185  -10.9340    0.0000 C   0  0  0  0  0  0  0  0  0  0  0  0
    6.2499  -11.8654    0.0000 C   0  0  0  0  0  0  0  0  0  0  0  0
    5.9124  -13.1613    0.0000 N   0  0  0  0  0  0  0  0  0  0  0  0
    4.6301  -13.4987    0.0000 C   0  0  0  0  0  0  0  0  0  0  0  0
    3.6852  -12.5538    0.0000 C   0  0  0  0  0  0  0  0  0  0  0  0
    4.0361  -11.2714    0.0000 C   0  0  0  0  0  0  0  0  0  0  0  0
    4.7246   -8.7067    0.0000 O   0  0  0  0  0  0  0  0  0  0  0  0
    9.5706   -8.0587    0.0000 O   0  0  0  0  0  0  0  0  0  0  0  0
    9.5706   -9.3816    0.0000 C   0  0  0  0  0  0  0  0  0  0  0  0
   10.7180  -10.0565    0.0000 C   0  0  0  0  0  0  0  0  0  0  0  0
   11.8654   -9.3816    0.0000 C   0  0  0  0  0  0  0  0  0  0  0  0
   13.0263  -10.0565    0.0000 N   0  0  0  0  0  0  0  0  0  0  0  0
   13.0263  -11.3794    0.0000 C   0  0  0  0  0  0  0  0  0  0  0  0
   11.8654  -12.0409    0.0000 C   0  0  0  0  0  0  0  0  0  0  0  0
   10.7180  -11.3794    0.0000 C   0  0  0  0  0  0  0  0  0  0  0  0
    8.4097  -10.0565    0.0000 O   0  0  0  0  0  0  0  0  0  0  0  0
    8.4097   -4.7516    0.0000 C   0  0  0  0  0  0  0  0  0  0  0  0
    9.6246   -4.2116    0.0000 O   0  0  0  0  0  0  0  0  0  0  0  0
    9.7731   -2.8887    0.0000 C   0  0  0  0  0  0  0  0  0  0  0  0
    8.6932   -2.1058    0.0000 C   0  0  0  0  0  0  0  0  0  0  0  0
    7.4783   -2.6457    0.0000 C   0  0  0  0  0  0  0  0  0  0  0  0
    6.3984   -1.8628    0.0000 N   0  0  0  0  0  0  0  0  0  0  0  0
    6.5469   -0.5399    0.0000 C   0  0  0  0  0  0  0  0  0  0  0  0
    7.7618    0.0000    0.0000 C   0  0  0  0  0  0  0  0  0  0  0  0
    8.8282   -0.7829    0.0000 C   0  0  0  0  0  0  0  0  0  0  0  0
   10.9880   -2.3488    0.0000 O   0  0  0  0  0  0  0  0  0  0  0  0
    9.6111   -6.0744    0.0000 O   0  0  0  0  0  0  0  0  0  0  0  0
    4.9945   -7.0868    0.0000 C   0  0  0  0  0  0  0  0  0  0  0  0
    4.2116   -6.0069    0.0000 O   0  0  0  0  0  0  0  0  0  0  0  0
    2.8887   -6.1419    0.0000 C   0  0  0  0  0  0  0  0  0  0  0  0
    2.1058   -5.0755    0.0000 C   0  0  0  0  0  0  0  0  0  0  0  0
    2.6457   -3.8606    0.0000 C   0  0  0  0  0  0  0  0  0  0  0  0
    1.8628   -2.7807    0.0000 N   0  0  0  0  0  0  0  0  0  0  0  0
    0.5399   -2.9157    0.0000 C   0  0  0  0  0  0  0  0  0  0  0  0
    0.0000   -4.1306    0.0000 C   0  0  0  0  0  0  0  0  0  0  0  0
    0.7829   -5.2105    0.0000 C   0  0  0  0  0  0  0  0  0  0  0  0
    2.3488   -7.3568    0.0000 O   0  0  0  0  0  0  0  0  0  0  0  0
  1  2  1  0  0  0  0
  1  5  1  0  0  0  0
  1 35  1  1  0  0  0
  2  3  1  0  0  0  0
  3  4  1  0  0  0  0
  3 24  1  6  0  0  0
  3 34  1  1  0  0  0
  4  5  1  0  0  0  0
  4 15  1  1  0  0  0
  5  6  1  6  0  0  0
  6  7  1  0  0  0  0
  7  8  1  0  0  0  0
  7 14  2  0  0  0  0
  8  9  2  0  0  0  0
  8 13  1  0  0  0  0
  9 10  1  0  0  0  0
 10 11  2  0  0  0  0
 11 12  1  0  0  0  0
 12 13  2  0  0  0  0
 15 16  1  0  0  0  0
 16 17  1  0  0  0  0
 16 23  2  0  0  0  0
 17 18  2  0  0  0  0
 17 22  1  0  0  0  0
 18 19  1  0  0  0  0
 19 20  2  0  0  0  0
 20 21  1  0  0  0  0
 21 22  2  0  0  0  0
 24 25  1  0  0  0  0
 25 26  1  0  0  0  0
 26 27  1  0  0  0  0
 26 33  2  0  0  0  0
 27 28  2  0  0  0  0
 27 32  1  0  0  0  0
 28 29  1  0  0  0  0
 29 30  2  0  0  0  0
 30 31  1  0  0  0  0
 31 32  2  0  0  0  0
 35 36  1  0  0  0  0
 36 37  1  0  0  0  0
 37 38  1  0  0  0  0
 37 44  2  0  0  0  0
 38 39  2  0  0  0  0
 38 43  1  0  0  0  0
 39 40  1  0  0  0  0
 40 41  2  0  0  0  0
 41 42  1  0  0  0  0
 42 43  2  0  0  0  0
M  END
> <ID>
3019

> <Formula>
C30H24N4O10

> <FW>
600.5324

> <DSSTox_CID>
3365

> <DSSTox_RID>
76994

> <DSSTox_GSID>
23365

> <DSSTox_FileID_Sort>
1678

> <TS_ChemName>
Nicofuranose

> <TS_ChemName_Synonyms>


> <TS_CASRN>
15351-13-0

> <CASRN_ChemName_Relationship>
primary

> <TS_Description>
single chemical compound

> <ChemNote>
stereochem

> <STRUCTURE_Shown>
tested chemical

> <STRUCTURE_Formula>
C30H24N4O10

> <STRUCTURE_MW>
600.5324

> <STRUCTURE_ChemType>
defined organic

> <STRUCTURE_DefinedOrganicForm>
parent

> <STRUCTURE_IUPAC>
1,3,4,6-tetrakis-O-(pyridin-3-ylcarbonyl)-beta-D-fructofuranose

> <STRUCTURE_SMILES>
O[C@]5(COC(=O)c1cccnc1)O[C@H](COC(=O)c2cccnc2)[C@@H](OC(=O)c3cccnc3)[C@@H]5OC(=O)c4cccnc4

> <STRUCTURE_SMILES_Desalt>
O[C@]5(COC(=O)c1cccnc1)O[C@H](COC(=O)c2cccnc2)[C@@H](OC(=O)c3cccnc3)[C@@H]5OC(=O)c4cccnc4

> <Substance_modify_yyyymmdd>
20080429

$$$$
