15362-40-0
ChemmineR-0915142007XD

 18 20  0  0  0  0  0  0  0  0  1 V2000
    3.5439   -3.7863    0.0000 N    0  0  0  0  0  0  0  0  0  0  0  0
    2.3004   -4.2216    0.0000 C    0  0  0  0  0  0  0  0  0  0  0  0
    2.3004   -5.5396    0.0000 C    0  0  0  0  0  0  0  0  0  0  0  0
    4.3148   -4.8806    0.0000 C    0  0  0  0  0  0  0  0  0  0  0  0
    3.5439   -5.9748    0.0000 C    0  0  0  0  0  0  0  0  0  0  0  0
    1.1129   -3.5439    0.0000 C    0  0  0  0  0  0  0  0  0  0  0  0
    1.1129   -6.2173    0.0000 C    0  0  0  0  0  0  0  0  0  0  0  0
    0.0000   -5.5396    0.0000 C    0  0  0  0  0  0  0  0  0  0  0  0
    0.0000   -4.2216    0.0000 C    0  0  0  0  0  0  0  0  0  0  0  0
    5.6515   -4.8806    0.0000 O    0  0  0  0  0  0  0  0  0  0  0  0
    5.6888   -1.0010    0.0000 C    0  0  0  0  0  0  0  0  0  0  0  0
    4.7811    0.0000    0.0000 C    0  0  0  0  0  0  0  0  0  0  0  0
    3.4817   -0.2736    0.0000 C    0  0  0  0  0  0  0  0  0  0  0  0
    3.0776   -1.5295    0.0000 C    0  0  0  0  0  0  0  0  0  0  0  0
    3.9791   -2.5429    0.0000 C    0  0  0  0  0  0  0  0  0  0  0  0
    5.2847   -2.2693    0.0000 C    0  0  0  0  0  0  0  0  0  0  0  0
    6.1551   -3.2392    0.0000 Cl   0  0  0  0  0  0  0  0  0  0  0  0
    1.7719   -1.8030    0.0000 Cl   0  0  0  0  0  0  0  0  0  0  0  0
  1  2  1  0  0  0  0
  1  4  1  0  0  0  0
  1 15  1  0  0  0  0
  2  3  2  0  0  0  0
  2  6  1  0  0  0  0
  3  7  1  0  0  0  0
  3  5  1  0  0  0  0
  4  5  1  0  0  0  0
  4 10  2  0  0  0  0
  6  9  2  0  0  0  0
  7  8  2  0  0  0  0
  8  9  1  0  0  0  0
 11 16  2  0  0  0  0
 11 12  1  0  0  0  0
 12 13  2  0  0  0  0
 13 14  1  0  0  0  0
 14 15  2  0  0  0  0
 14 18  1  0  0  0  0
 15 16  1  0  0  0  0
 16 17  1  0  0  0  0
M  END
> <ID>
12135

> <Formula>
C14H9Cl2NO

> <FW>
278.1334

> <DSSTox_CID>
26979

> <DSSTox_RID>
82034

> <DSSTox_GSID>
46979

> <DSSTox_FileID_Sort>
6715

> <TS_ChemName>
1-(2,6-Dichlorophenyl)-2-indolinone

> <TS_ChemName_Synonyms>


> <TS_CASRN>
15362-40-0

> <CASRN_ChemName_Relationship>
primary

> <TS_Description>
single chemical compound

> <ChemNote>


> <STRUCTURE_Shown>
tested chemical

> <STRUCTURE_Formula>
C14H9Cl2NO

> <STRUCTURE_MW>
278.1334

> <STRUCTURE_ChemType>
defined organic

> <STRUCTURE_DefinedOrganicForm>
parent

> <STRUCTURE_IUPAC>
1-(2,6-dichlorophenyl)-1,3-dihydro-2H-indol-2-one

> <STRUCTURE_SMILES>
Clc1cccc(Cl)c1N2c3ccccc3CC2=O

> <STRUCTURE_SMILES_Desalt>
Clc1cccc(Cl)c1N2c3ccccc3CC2=O

> <Substance_modify_yyyymmdd>
20100220

$$$$
