153719-23-4
ChemmineR-0915142007XD

 18 19  0  0  0  0  0  0  0  0  2 V2000
    5.9976   -2.3054    0.0000 O    0  0  0  0  0  0  0  0  0  0  0  0
    5.3179   -3.4626    0.0000 C    0  0  0  0  0  0  0  0  0  0  0  0
    4.0045   -3.4626    0.0000 N    0  0  0  0  0  0  0  0  0  0  0  0
    3.3340   -2.3054    0.0000 C    0  0  0  0  0  0  0  0  0  0  0  0
    4.0045   -1.1573    0.0000 N    0  0  0  0  0  0  0  0  0  0  0  0
    5.3179   -1.1573    0.0000 C    0  0  0  0  0  0  0  0  0  0  0  0
    2.0023   -2.3054    0.0000 N    0  0  0  0  0  0  0  0  0  0  0  0
    3.3340   -4.6015    0.0000 C    0  0  0  0  0  0  0  0  0  0  0  0
    5.6118   -7.2008    0.0000 N    0  0  0  0  0  0  0  0  0  0  0  0
    3.4626   -6.9712    0.0000 S    0  0  0  0  0  0  0  0  0  0  0  0
    4.4546   -7.8529    0.0000 C    0  0  0  0  0  0  0  0  0  0  0  0
    5.3087   -5.8966    0.0000 C    0  0  0  0  0  0  0  0  0  0  0  0
    4.0045   -5.7588    0.0000 C    0  0  0  0  0  0  0  0  0  0  0  0
    4.3076   -9.1847    0.0000 Cl   0  0  0  0  0  0  0  0  0  0  0  0
    3.3340    0.0000    0.0000 C    0  0  0  0  0  0  0  0  0  0  0  0
    0.6705   -2.3054    0.0000 N    0  3  0  0  0  0  0  0  0  0  0  0
    0.0000   -1.1665    0.0000 O    0  5  0  0  0  0  0  0  0  0  0  0
    0.0184   -3.4810    0.0000 O    0  0  0  0  0  0  0  0  0  0  0  0
  1  2  1  0  0  0  0
  1  6  1  0  0  0  0
  2  3  1  0  0  0  0
  3  4  1  0  0  0  0
  3  8  1  0  0  0  0
  4  5  1  0  0  0  0
  4  7  2  0  0  0  0
  5  6  1  0  0  0  0
  5 15  1  0  0  0  0
  7 16  1  0  0  0  0
  8 13  1  0  0  0  0
  9 11  2  0  0  0  0
  9 12  1  0  0  0  0
 10 11  1  0  0  0  0
 10 13  1  0  0  0  0
 11 14  1  0  0  0  0
 12 13  2  0  0  0  0
 16 17  1  0  0  0  0
 16 18  2  0  0  0  0
M  END
> <ID>
6967

> <Formula>
C8H10ClN5O3S

> <FW>
291.7147

> <DSSTox_CID>
14962

> <DSSTox_RID>
79229

> <DSSTox_GSID>
34962

> <DSSTox_FileID_Sort>
3911

> <TS_ChemName>
Thiamethoxam

> <TS_ChemName_Synonyms>
Thiamethoxam (4H-1,3,5-Oxadiazin-4-imine, 3-[(2-chloro-5-thiazolyl)methyl]tetrahydro-5-methyl-N-nitro-)

> <TS_CASRN>
153719-23-4

> <CASRN_ChemName_Relationship>
primary

> <TS_Description>
single chemical compound

> <ChemNote>


> <STRUCTURE_Shown>
tested chemical

> <STRUCTURE_Formula>
C8H10ClN5O3S

> <STRUCTURE_MW>
291.7147

> <STRUCTURE_ChemType>
defined organic

> <STRUCTURE_DefinedOrganicForm>
parent

> <STRUCTURE_IUPAC>
3-[(2-chloro-1,3-thiazol-5-yl)methyl]-5-methyl-N-nitro-1,3,5-oxadiazinan-4-imine

> <STRUCTURE_SMILES>
Clc2ncc(CN/1COCN(C)C\1=N\[N+]([O-])=O)s2

> <STRUCTURE_SMILES_Desalt>
Clc2ncc(CN/1COCN(C)C\1=N\[N+]([O-])=O)s2

> <Substance_modify_yyyymmdd>
20080429

$$$$
