15387-18-5
ChemmineR-0915142007XD

 21 23  0  0  0  0  0  0  0  0  1 V2000
    4.4505   -8.4225    0.0000 C   0  0  0  0  0  0  0  0  0  0  0  0
    5.1205   -7.2740    0.0000 C   0  0  0  0  0  0  0  0  0  0  0  0
    5.1205   -9.5710    0.0000 C   0  0  0  0  0  0  0  0  0  0  0  0
    6.4700   -7.2740    0.0000 C   0  0  0  0  0  0  0  0  0  0  0  0
    6.4700   -9.5710    0.0000 C   0  0  0  0  0  0  0  0  0  0  0  0
    7.0826   -8.4225    0.0000 C   0  0  0  0  0  0  0  0  0  0  0  0
    3.1010   -8.4225    0.0000 C   0  0  0  0  0  0  0  0  0  0  0  0
    2.3449   -9.4945    0.0000 C   0  0  0  0  0  0  0  0  0  0  0  0
    2.3449   -7.3218    0.0000 N   0  0  0  0  0  0  0  0  0  0  0  0
    1.0528   -9.1021    0.0000 S   0  0  0  0  0  0  0  0  0  0  0  0
    1.0528   -7.7621    0.0000 C   0  0  0  0  0  0  0  0  0  0  0  0
    0.0000   -6.9869    0.0000 S   0  0  0  0  0  0  0  0  0  0  0  0
    2.3449   -5.9819    0.0000 N   0  0  0  0  0  0  0  0  0  0  0  0
    1.1964   -5.3215    0.0000 C   0  0  0  0  0  0  0  0  0  0  0  0
    1.1964   -4.0294    0.0000 C   0  0  0  0  0  0  0  0  0  0  0  0
    0.0479   -3.3020    0.0000 C   0  0  0  0  0  0  0  0  0  0  0  0
    2.3449   -3.3020    0.0000 C   0  0  0  0  0  0  0  0  0  0  0  0
    0.0479   -2.0003    0.0000 C   0  0  0  0  0  0  0  0  0  0  0  0
    2.3449   -2.0003    0.0000 C   0  0  0  0  0  0  0  0  0  0  0  0
    1.1964   -1.3399    0.0000 C   0  0  0  0  0  0  0  0  0  0  0  0
    1.1964    0.0000    0.0000 C   0  0  0  0  0  0  0  0  0  0  0  0
  1  2  1  0  0  0  0
  1  3  2  0  0  0  0
  1  7  1  0  0  0  0
  2  4  2  0  0  0  0
  3  5  1  0  0  0  0
  4  6  1  0  0  0  0
  5  6  2  0  0  0  0
  7  8  2  0  0  0  0
  7  9  1  0  0  0  0
  8 10  1  0  0  0  0
  9 11  1  0  0  0  0
  9 13  1  0  0  0  0
 10 11  1  0  0  0  0
 11 12  2  0  0  0  0
 13 14  2  0  0  0  0
 14 15  1  0  0  0  0
 15 16  1  0  0  0  0
 15 17  2  0  0  0  0
 16 18  2  0  0  0  0
 17 19  1  0  0  0  0
 18 20  1  0  0  0  0
 19 20  2  0  0  0  0
 20 21  1  0  0  0  0
M  END
> <ID>
13790

> <Formula>
C17H14N2S2

> <FW>
310.4365

> <DSSTox_CID>
28727

> <DSSTox_RID>
82996

> <DSSTox_GSID>
48801

> <DSSTox_FileID_Sort>
7673

> <TS_ChemName>
Fezatione

> <TS_ChemName_Synonyms>


> <TS_CASRN>
15387-18-5

> <CASRN_ChemName_Relationship>
primary

> <TS_Description>
single chemical compound

> <ChemNote>
stereochem

> <STRUCTURE_Shown>
tested chemical

> <STRUCTURE_Formula>
C17H14N2S2

> <STRUCTURE_MW>
310.4365

> <STRUCTURE_ChemType>
defined organic

> <STRUCTURE_DefinedOrganicForm>
parent

> <STRUCTURE_IUPAC>
3-[(E)-(4-methylbenzylidene)amino]-4-phenyl-1,3-thiazole-2(3H)-thione

> <STRUCTURE_SMILES>
S=C2SC=C(N2/N=C/c1ccc(C)cc1)c3ccccc3

> <STRUCTURE_SMILES_Desalt>
S=C2SC=C(N2/N=C/c1ccc(C)cc1)c3ccccc3

> <Substance_modify_yyyymmdd>
20111204

$$$$
