1538-09-6
ChemmineR-0915142007XD

 68 73  0  0  1  0  0  0  0  0  1 V2000
    8.5098  -13.4672    0.0000 N   0  0  0  0  0  0  0  0  0  0  0  0
    8.5098  -12.1269    0.0000 C   0  0  0  0  0  0  0  0  0  0  0  0
    7.1696  -13.4672    0.0000 C   0  0  0  0  0  0  0  0  0  0  0  0
    7.1696  -12.1269    0.0000 C   0  0  0  0  0  0  0  0  0  0  0  0
    9.7693  -13.8870    0.0000 C   0  0  0  0  0  0  0  0  0  0  0  0
    9.7693  -11.7071    0.0000 S   0  0  0  0  0  0  0  0  0  0  0  0
   10.5606  -12.8051    0.0000 C   0  0  0  0  0  0  0  0  0  0  0  0
    5.5225  -12.1269    0.0000 N   0  0  0  0  0  0  0  0  0  0  0  0
   10.1892  -15.1627    0.0000 C   0  0  0  0  0  0  0  0  0  0  0  0
    4.4083  -11.4810    0.0000 C   0  0  0  0  0  0  0  0  0  0  0  0
    6.2007  -14.3876    0.0000 O   0  0  0  0  0  0  0  0  0  0  0  0
    9.2849  -16.1477    0.0000 O   0  0  0  0  0  0  0  0  0  0  0  0
   11.4971  -15.4372    0.0000 O   0  0  0  0  0  0  0  0  0  0  0  0
    4.4083  -10.1892    0.0000 O   0  0  0  0  0  0  0  0  0  0  0  0
    3.3103  -12.1269    0.0000 C   0  0  0  0  0  0  0  0  0  0  0  0
   11.7232  -12.1269    0.0000 C   0  0  0  0  0  0  0  0  0  0  0  0
   11.7232  -13.4672    0.0000 C   0  0  0  0  0  0  0  0  0  0  0  0
    2.2122  -11.4810    0.0000 C   0  0  0  0  0  0  0  0  0  0  0  0
    1.1142  -12.1269    0.0000 C   0  0  0  0  0  0  0  0  0  0  0  0
    2.2122  -10.1892    0.0000 C   0  0  0  0  0  0  0  0  0  0  0  0
    1.1142   -9.5594    0.0000 C   0  0  0  0  0  0  0  0  0  0  0  0
    0.0000  -11.4810    0.0000 C   0  0  0  0  0  0  0  0  0  0  0  0
    0.0000  -10.1892    0.0000 C   0  0  0  0  0  0  0  0  0  0  0  0
    7.1696  -10.8028    0.0000 H   0  0  0  0  0  0  0  0  0  0  0  0
    8.5098  -10.8028    0.0000 H   0  0  0  0  0  0  0  0  0  0  0  0
    1.0012   -7.3795    0.0000 C   0  0  0  0  0  0  0  0  0  0  0  0
    1.0012   -6.0554    0.0000 C   0  0  0  0  0  0  0  0  0  0  0  0
    2.1476   -5.3933    0.0000 C   0  0  0  0  0  0  0  0  0  0  0  0
    3.3103   -6.0554    0.0000 C   0  0  0  0  0  0  0  0  0  0  0  0
    3.3103   -7.3795    0.0000 C   0  0  0  0  0  0  0  0  0  0  0  0
    2.1476   -8.0577    0.0000 C   0  0  0  0  0  0  0  0  0  0  0  0
    4.4729   -8.0577    0.0000 C   0  0  0  0  0  0  0  0  0  0  0  0
    5.6194   -7.3795    0.0000 N   0  0  0  0  0  0  0  0  0  0  0  0
    6.7659   -8.0577    0.0000 C   0  0  0  0  0  0  0  0  0  0  0  0
    7.9285   -7.3795    0.0000 C   0  0  0  0  0  0  0  0  0  0  0  0
    9.0911   -8.0577    0.0000 N   0  0  0  0  0  0  0  0  0  0  0  0
   10.2376   -7.3795    0.0000 C   0  0  0  0  0  0  0  0  0  0  0  0
   11.4003   -8.0577    0.0000 C   0  0  0  0  0  0  0  0  0  0  0  0
   12.5629   -7.3795    0.0000 C   0  0  0  0  0  0  0  0  0  0  0  0
   13.7255   -8.0577    0.0000 C   0  0  0  0  0  0  0  0  0  0  0  0
   13.7255   -9.3980    0.0000 C   0  0  0  0  0  0  0  0  0  0  0  0
   12.5629  -10.0600    0.0000 C   0  0  0  0  0  0  0  0  0  0  0  0
   11.4003   -9.3980    0.0000 C   0  0  0  0  0  0  0  0  0  0  0  0
    9.0427   -3.9077    0.0000 N   0  0  0  0  0  0  0  0  0  0  0  0
    9.0427   -2.5675    0.0000 C   0  0  0  0  0  0  0  0  0  0  0  0
    7.7024   -3.9077    0.0000 C   0  0  0  0  0  0  0  0  0  0  0  0
    7.7024   -2.5675    0.0000 C   0  0  0  0  0  0  0  0  0  0  0  0
   10.2861   -4.3276    0.0000 C   0  0  0  0  0  0  0  0  0  0  0  0
   10.2861   -2.1476    0.0000 S   0  0  0  0  0  0  0  0  0  0  0  0
   11.0935   -3.2457    0.0000 C   0  0  0  0  0  0  0  0  0  0  0  0
    6.0554   -2.5675    0.0000 N   0  0  0  0  0  0  0  0  0  0  0  0
   10.7221   -5.6194    0.0000 C   0  0  0  0  0  0  0  0  0  0  0  0
    4.9412   -1.9377    0.0000 C   0  0  0  0  0  0  0  0  0  0  0  0
    6.7336   -4.8443    0.0000 O   0  0  0  0  0  0  0  0  0  0  0  0
    9.8178   -6.5883    0.0000 O   0  0  0  0  0  0  0  0  0  0  0  0
   12.0300   -5.8939    0.0000 O   0  0  0  0  0  0  0  0  0  0  0  0
    4.9412   -0.6459    0.0000 O   0  0  0  0  0  0  0  0  0  0  0  0
    3.8431   -2.5675    0.0000 C   0  0  0  0  0  0  0  0  0  0  0  0
   12.2561   -2.5675    0.0000 C   0  0  0  0  0  0  0  0  0  0  0  0
   12.2561   -3.9077    0.0000 C   0  0  0  0  0  0  0  0  0  0  0  0
    2.7451   -1.9377    0.0000 C   0  0  0  0  0  0  0  0  0  0  0  0
    1.6471   -2.5675    0.0000 C   0  0  0  0  0  0  0  0  0  0  0  0
    2.7451   -0.6459    0.0000 C   0  0  0  0  0  0  0  0  0  0  0  0
    1.6471    0.0000    0.0000 C   0  0  0  0  0  0  0  0  0  0  0  0
    0.5329   -1.9377    0.0000 C   0  0  0  0  0  0  0  0  0  0  0  0
    0.5329   -0.6459    0.0000 C   0  0  0  0  0  0  0  0  0  0  0  0
    7.7024   -1.2595    0.0000 H   0  0  0  0  0  0  0  0  0  0  0  0
    9.0427   -1.2595    0.0000 H   0  0  0  0  0  0  0  0  0  0  0  0
  1  2  1  0  0  0  0
  1  3  1  0  0  0  0
  1  5  1  0  0  0  0
  2  6  1  0  0  0  0
  2  4  1  0  0  0  0
  2 25  1  6  0  0  0
  3  4  1  0  0  0  0
  3 11  2  0  0  0  0
  4  8  1  1  0  0  0
  4 24  1  6  0  0  0
  5  7  1  0  0  0  0
  5  9  1  6  0  0  0
  6  7  1  0  0  0  0
  7 16  1  0  0  0  0
  7 17  1  0  0  0  0
  8 10  1  0  0  0  0
  9 12  1  0  0  0  0
  9 13  2  0  0  0  0
 10 14  2  0  0  0  0
 10 15  1  0  0  0  0
 15 18  1  0  0  0  0
 18 19  2  0  0  0  0
 18 20  1  0  0  0  0
 19 22  1  0  0  0  0
 20 21  2  0  0  0  0
 21 23  1  0  0  0  0
 22 23  2  0  0  0  0
 26 27  2  0  0  0  0
 26 31  1  0  0  0  0
 27 28  1  0  0  0  0
 28 29  2  0  0  0  0
 29 30  1  0  0  0  0
 30 31  2  0  0  0  0
 30 32  1  0  0  0  0
 32 33  1  0  0  0  0
 33 34  1  0  0  0  0
 34 35  1  0  0  0  0
 35 36  1  0  0  0  0
 36 37  1  0  0  0  0
 37 38  1  0  0  0  0
 38 39  2  0  0  0  0
 38 43  1  0  0  0  0
 39 40  1  0  0  0  0
 40 41  2  0  0  0  0
 41 42  1  0  0  0  0
 42 43  2  0  0  0  0
 44 45  1  0  0  0  0
 44 46  1  0  0  0  0
 44 48  1  0  0  0  0
 45 49  1  0  0  0  0
 45 47  1  0  0  0  0
 45 68  1  6  0  0  0
 46 47  1  0  0  0  0
 46 54  2  0  0  0  0
 47 51  1  1  0  0  0
 47 67  1  6  0  0  0
 48 50  1  0  0  0  0
 48 52  1  6  0  0  0
 49 50  1  0  0  0  0
 50 59  1  0  0  0  0
 50 60  1  0  0  0  0
 51 53  1  0  0  0  0
 52 55  1  0  0  0  0
 52 56  2  0  0  0  0
 53 57  2  0  0  0  0
 53 58  1  0  0  0  0
 58 61  1  0  0  0  0
 61 62  2  0  0  0  0
 61 63  1  0  0  0  0
 62 65  1  0  0  0  0
 63 64  2  0  0  0  0
 64 66  1  0  0  0  0
 65 66  2  0  0  0  0
M  END
> <ID>
12897

> <Formula>
C48H56N6O8S2

> <FW>
909.1236 (334.3901+240.3434+334.3901)

> <DSSTox_CID>
27781

> <DSSTox_RID>
82557

> <DSSTox_GSID>
47804

> <DSSTox_FileID_Sort>
7236

> <TS_ChemName>
Benzathine penicillin G

> <TS_ChemName_Synonyms>
Penicillin G benzathine

> <TS_CASRN>
1538-09-6

> <CASRN_ChemName_Relationship>
primary

> <TS_Description>
single chemical compound

> <ChemNote>
stereochem; parent [61-33-6]

> <STRUCTURE_Shown>
tested chemical

> <STRUCTURE_Formula>
C48H56N6O8S2

> <STRUCTURE_MW>
909.1236

> <STRUCTURE_ChemType>
defined organic

> <STRUCTURE_DefinedOrganicForm>
complex

> <STRUCTURE_IUPAC>
(2S,5R,6R)-3,3-dimethyl-7-oxo-6-[(phenylacetyl)amino]-4-thia-1-azabicyclo[3.2.0]heptane-2-carboxylic acid - N,N'-dibenzylethane-1,2-diamine (2:1)

> <STRUCTURE_SMILES>
OC(=O)[C@@H]2N3C(=O)[C@@H](NC(=O)Cc1ccccc1)[C@H]3SC2(C)C.O=C(O)[C@@H]2N3C(=O)[C@@H](NC(=O)Cc1ccccc1)[C@H]3SC2(C)C.c1ccccc1CNCCNCc2ccccc2

> <STRUCTURE_SMILES_Desalt>
OC(=O)[C@@H]2N3C(=O)[C@@H](NC(=O)Cc1ccccc1)[C@H]3SC2(C)C

> <Substance_modify_yyyymmdd>
20110824

$$$$
