154-87-0
ChemmineR-0915142007XD

 27 27  0  0  0  0  0  0  0  0  2 V2000
    5.6359   -2.4333    0.0000 N    0  3  0  0  0  0  0  0  0  0  0  0
   14.6156   -1.0832    0.0000 P    0  0  0  0  0  0  0  0  0  0  0  0
   12.3863   -1.0989    0.0000 P    0  0  0  0  0  0  0  0  0  0  0  0
   13.5324   -1.7426    0.0000 O    0  0  0  0  0  0  0  0  0  0  0  0
    7.8808   -2.4333    0.0000 C    0  0  0  0  0  0  0  0  0  0  0  0
    5.6359   -1.1146    0.0000 C    0  0  0  0  0  0  0  0  0  0  0  0
    2.2606   -0.4710    0.0000 N    0  0  0  0  0  0  0  0  0  0  0  0
    3.3909   -2.4333    0.0000 C    0  0  0  0  0  0  0  0  0  0  0  0
    3.3909   -1.1146    0.0000 C    0  0  0  0  0  0  0  0  0  0  0  0
    6.7505   -0.4710    0.0000 S    0  0  0  0  0  0  0  0  0  0  0  0
    4.5056   -3.0299    0.0000 C    0  0  0  0  0  0  0  0  0  0  0  0
    7.8808   -1.1146    0.0000 C    0  0  0  0  0  0  0  0  0  0  0  0
    1.1460   -2.4333    0.0000 N    0  0  0  0  0  0  0  0  0  0  0  0
    1.1460   -1.1146    0.0000 C    0  0  0  0  0  0  0  0  0  0  0  0
    2.2606   -3.0299    0.0000 C    0  0  0  0  0  0  0  0  0  0  0  0
   13.9405    0.0000    0.0000 O    0  0  0  0  0  0  0  0  0  0  0  0
   13.0457    0.0000    0.0000 O    0  0  0  0  0  0  0  0  0  0  0  0
   11.2717   -0.4553    0.0000 O    0  0  0  0  0  0  0  0  0  0  0  0
   15.2906   -2.1664    0.0000 O    0  0  0  0  0  0  0  0  0  0  0  0
   15.6988   -0.3768    0.0000 O    0  0  0  0  0  0  0  0  0  0  0  0
   11.7427   -2.2449    0.0000 O    0  0  0  0  0  0  0  0  0  0  0  0
    4.5056   -0.4710    0.0000 N    0  0  0  0  0  0  0  0  0  0  0  0
    9.0268   -0.4553    0.0000 C    0  0  0  0  0  0  0  0  0  0  0  0
   10.1414   -1.0989    0.0000 C    0  0  0  0  0  0  0  0  0  0  0  0
    9.0268   -3.0456    0.0000 C    0  0  0  0  0  0  0  0  0  0  0  0
    0.0000   -0.4553    0.0000 C    0  0  0  0  0  0  0  0  0  0  0  0
    5.6045   -4.3015    0.0000 Cl   0  5  0  0  0  0  0  0  0  0  0  0
  1  5  1  0  0  0  0
  1  6  2  0  0  0  0
  1 11  1  0  0  0  0
  2  4  1  0  0  0  0
  2 16  2  0  0  0  0
  2 19  1  0  0  0  0
  2 20  1  0  0  0  0
  3 18  1  0  0  0  0
  3  4  1  0  0  0  0
  3 17  2  0  0  0  0
  3 21  1  0  0  0  0
  5 12  2  0  0  0  0
  5 25  1  0  0  0  0
  6 10  1  0  0  0  0
  7  9  2  0  0  0  0
  7 14  1  0  0  0  0
  8 11  1  0  0  0  0
  8  9  1  0  0  0  0
  8 15  2  0  0  0  0
  9 22  1  0  0  0  0
 10 12  1  0  0  0  0
 12 23  1  0  0  0  0
 13 15  1  0  0  0  0
 13 14  2  0  0  0  0
 14 26  1  0  0  0  0
 18 24  1  0  0  0  0
 23 24  1  0  0  0  0
M  END
> <ID>
11556

> <Formula>
C12H19ClN4O7P2S

> <FW>
460.7674 (425.3138+35.4535)

> <DSSTox_CID>
26262

> <DSSTox_RID>
81489

> <DSSTox_GSID>
46262

> <DSSTox_FileID_Sort>
6170

> <TS_ChemName>
Cocarboxylase chloride

> <TS_ChemName_Synonyms>


> <TS_CASRN>
154-87-0

> <CASRN_ChemName_Relationship>
primary

> <TS_Description>
single chemical compound

> <ChemNote>
parent [136-08-3]

> <STRUCTURE_Shown>
tested chemical

> <STRUCTURE_Formula>
C12H19ClN4O7P2S

> <STRUCTURE_MW>
460.7674

> <STRUCTURE_ChemType>
defined organic

> <STRUCTURE_DefinedOrganicForm>
salt

> <STRUCTURE_IUPAC>
3-[(4-amino-2-methylpyrimidin-5-yl)methyl]-5-(2-{[hydroxy(phosphonooxy)phosphoryl]oxy}ethyl)-4-methyl-1,3-thiazol-3-ium chloride

> <STRUCTURE_SMILES>
[Cl-].O=P(O)(O)OP(=O)(O)OCCc2sc[n+](Cc1cnc(C)nc1N)c2C

> <STRUCTURE_SMILES_Desalt>
O=P(O)(O)OP(=O)(O)OCCc2sc[n+](Cc1cnc(C)nc1N)c2C

> <Substance_modify_yyyymmdd>
20110816

$$$$
