154-82-5
ChemmineR-0915142007XD

 36 38  0  0  0  0  0  0  0  0  1 V2000
   14.6120   -8.0658    0.0000 C   0  0  0  0  0  0  0  0  0  0  0  0
   13.9545   -6.9115    0.0000 C   0  0  0  0  0  0  0  0  0  0  0  0
   12.6248   -6.9115    0.0000 C   0  0  0  0  0  0  0  0  0  0  0  0
   11.9526   -5.7571    0.0000 C   0  0  0  0  0  0  0  0  0  0  0  0
   12.6248   -4.6028    0.0000 C   0  0  0  0  0  0  0  0  0  0  0  0
   11.9526   -3.4630    0.0000 C   0  0  0  0  0  0  0  0  0  0  0  0
   10.6229   -3.4630    0.0000 C   0  0  0  0  0  0  0  0  0  0  0  0
    9.9654   -2.3087    0.0000 O   0  0  0  0  0  0  0  0  0  0  0  0
    8.6357   -2.3087    0.0000 C   0  0  0  0  0  0  0  0  0  0  0  0
    7.9635   -1.1543    0.0000 C   0  0  0  0  0  0  0  0  0  0  0  0
    8.6357    0.0000    0.0000 O   0  0  0  0  0  0  0  0  0  0  0  0
    6.6485   -1.1543    0.0000 N   0  0  0  0  0  0  0  0  0  0  0  0
    5.9763    0.0000    0.0000 C   0  0  0  0  0  0  0  0  0  0  0  0
    4.6466    0.0000    0.0000 C   0  0  0  0  0  0  0  0  0  0  0  0
    3.9891   -1.1543    0.0000 N   0  0  0  0  0  0  0  0  0  0  0  0
    4.6466   -2.3087    0.0000 C   0  0  0  0  0  0  0  0  0  0  0  0
    5.9763   -2.3087    0.0000 C   0  0  0  0  0  0  0  0  0  0  0  0
    2.6594   -1.1543    0.0000 C   0  0  0  0  0  0  0  0  0  0  0  0
    1.9872    0.0000    0.0000 O   0  0  0  0  0  0  0  0  0  0  0  0
    1.9872   -2.3087    0.0000 C   0  0  0  0  0  0  0  0  0  0  0  0
    2.6594   -3.4630    0.0000 O   0  0  0  0  0  0  0  0  0  0  0  0
    1.9872   -4.6028    0.0000 C   0  0  0  0  0  0  0  0  0  0  0  0
    0.6575   -4.6028    0.0000 C   0  0  0  0  0  0  0  0  0  0  0  0
    0.0000   -5.7571    0.0000 C   0  0  0  0  0  0  0  0  0  0  0  0
    0.6575   -6.9115    0.0000 C   0  0  0  0  0  0  0  0  0  0  0  0
    0.0000   -8.0658    0.0000 C   0  0  0  0  0  0  0  0  0  0  0  0
    0.6575   -9.2056    0.0000 C   0  0  0  0  0  0  0  0  0  0  0  0
    0.0000  -10.3599    0.0000 C   0  0  0  0  0  0  0  0  0  0  0  0
    1.9872   -6.9115    0.0000 C   0  0  0  0  0  0  0  0  0  0  0  0
    2.6594   -5.7571    0.0000 C   0  0  0  0  0  0  0  0  0  0  0  0
    3.9891   -5.7571    0.0000 O   0  0  0  0  0  0  0  0  0  0  0  0
    4.6466   -4.6028    0.0000 C   0  0  0  0  0  0  0  0  0  0  0  0
    9.9654   -4.6028    0.0000 C   0  0  0  0  0  0  0  0  0  0  0  0
   10.6229   -5.7571    0.0000 C   0  0  0  0  0  0  0  0  0  0  0  0
   12.6248   -2.3087    0.0000 O   0  0  0  0  0  0  0  0  0  0  0  0
   11.9526   -1.1543    0.0000 C   0  0  0  0  0  0  0  0  0  0  0  0
  1  2  1  0  0  0  0
  2  3  1  0  0  0  0
  3  4  1  0  0  0  0
  4  5  2  0  0  0  0
  4 34  1  0  0  0  0
  5  6  1  0  0  0  0
  6  7  2  0  0  0  0
  6 35  1  0  0  0  0
  7  8  1  0  0  0  0
  7 33  1  0  0  0  0
  8  9  1  0  0  0  0
  9 10  1  0  0  0  0
 10 11  2  0  0  0  0
 10 12  1  0  0  0  0
 12 13  1  0  0  0  0
 12 17  1  0  0  0  0
 13 14  1  0  0  0  0
 14 15  1  0  0  0  0
 15 16  1  0  0  0  0
 15 18  1  0  0  0  0
 16 17  1  0  0  0  0
 18 19  2  0  0  0  0
 18 20  1  0  0  0  0
 20 21  1  0  0  0  0
 21 22  1  0  0  0  0
 22 23  2  0  0  0  0
 22 30  1  0  0  0  0
 23 24  1  0  0  0  0
 24 25  2  0  0  0  0
 25 26  1  0  0  0  0
 25 29  1  0  0  0  0
 26 27  1  0  0  0  0
 27 28  1  0  0  0  0
 29 30  2  0  0  0  0
 30 31  1  0  0  0  0
 31 32  1  0  0  0  0
 33 34  2  0  0  0  0
 35 36  1  0  0  0  0
M  END
> <ID>
16055

> <Formula>
C28H38N2O6

> <FW>
498.6111

> <DSSTox_CID>
31440

> <DSSTox_RID>
97326

> <DSSTox_GSID>
57651

> <DSSTox_FileID_Sort>
8393

> <TS_ChemName>
Simetride

> <TS_ChemName_Synonyms>


> <TS_CASRN>
154-82-5

> <CASRN_ChemName_Relationship>
primary

> <TS_Description>
single chemical compound

> <ChemNote>


> <STRUCTURE_Shown>
tested chemical

> <STRUCTURE_Formula>
C28H38N2O6

> <STRUCTURE_MW>
498.6111

> <STRUCTURE_ChemType>
defined organic

> <STRUCTURE_DefinedOrganicForm>
parent

> <STRUCTURE_IUPAC>
1,1'-piperazine-1,4-diylbis[2-(2-methoxy-4-propylphenoxy)ethanone]

> <STRUCTURE_SMILES>
O=C(COc1ccc(CCC)cc1OC)N2CCN(CC2)C(=O)COc3ccc(CCC)cc3OC

> <STRUCTURE_SMILES_Desalt>
O=C(COc1ccc(CCC)cc1OC)N2CCN(CC2)C(=O)COc3ccc(CCC)cc3OC

> <Substance_modify_yyyymmdd>
20131018

$$$$
