154-42-7
ChemmineR-0915142007XD

 11 12  0  0  0  0  0  0  0  0  1 V2000
    3.4640   -3.3265    0.0000 C   0  0  0  0  0  0  0  0  0  0  0  0
    2.3203   -3.9918    0.0000 N   0  0  0  0  0  0  0  0  0  0  0  0
    3.4640   -1.9959    0.0000 C   0  0  0  0  0  0  0  0  0  0  0  0
    1.1711   -1.9959    0.0000 N   0  0  0  0  0  0  0  0  0  0  0  0
    2.3203   -1.3306    0.0000 C   0  0  0  0  0  0  0  0  0  0  0  0
    1.1711   -3.3265    0.0000 C   0  0  0  0  0  0  0  0  0  0  0  0
    4.7231   -3.7389    0.0000 N   0  0  0  0  0  0  0  0  0  0  0  0
    4.7231   -1.5780    0.0000 N   0  0  0  0  0  0  0  0  0  0  0  0
    5.4983   -2.6667    0.0000 C   0  0  0  0  0  0  0  0  0  0  0  0
    2.3203    0.0000    0.0000 S   0  0  0  0  0  0  0  0  0  0  0  0
    0.0000   -4.0083    0.0000 N   0  0  0  0  0  0  0  0  0  0  0  0
  1  2  1  0  0  0  0
  1  3  2  0  0  0  0
  1  7  1  0  0  0  0
  2  6  2  0  0  0  0
  3  5  1  0  0  0  0
  3  8  1  0  0  0  0
  4  5  1  0  0  0  0
  4  6  1  0  0  0  0
  5 10  2  0  0  0  0
  6 11  1  0  0  0  0
  7  9  2  0  0  0  0
  8  9  1  0  0  0  0
M  END
> <ID>
3262

> <Formula>
C5H5N5S

> <FW>
167.1917

> <DSSTox_CID>
3652

> <DSSTox_RID>
77129

> <DSSTox_GSID>
23652

> <DSSTox_FileID_Sort>
1812

> <TS_ChemName>
6-Thioguanine

> <TS_ChemName_Synonyms>
6-Thioguanine (6-TG)

> <TS_CASRN>
154-42-7

> <CASRN_ChemName_Relationship>
primary

> <TS_Description>
single chemical compound

> <ChemNote>
tautomers

> <STRUCTURE_Shown>
tested chemical

> <STRUCTURE_Formula>
C5H5N5S

> <STRUCTURE_MW>
167.1917

> <STRUCTURE_ChemType>
defined organic

> <STRUCTURE_DefinedOrganicForm>
parent

> <STRUCTURE_IUPAC>
2-amino-1,7-dihydro-6H-purine-6-thione

> <STRUCTURE_SMILES>
NC2=Nc1ncnc1C(=S)N2

> <STRUCTURE_SMILES_Desalt>
NC2=Nc1ncnc1C(=S)N2

> <Substance_modify_yyyymmdd>
20080429

$$$$
