154-41-6
ChemmineR-0915142007XD

 12 11  0  0  1  0  0  0  0  0  1 V2000
    3.3455   -1.9989    0.0000 C    0  0  0  0  0  0  0  0  0  0  0  0
    3.3455   -3.3275    0.0000 C    0  0  0  0  0  0  0  0  0  0  0  0
    2.1904   -1.3286    0.0000 C    0  0  0  0  0  0  0  0  0  0  0  0
    2.1904    0.0000    0.0000 N    0  0  0  0  0  0  0  0  0  0  0  0
    4.4945   -1.3286    0.0000 O    0  0  0  0  0  0  0  0  0  0  0  0
    4.4945   -3.9858    0.0000 C    0  0  0  0  0  0  0  0  0  0  0  0
    2.1904   -3.9858    0.0000 C    0  0  0  0  0  0  0  0  0  0  0  0
    1.0413   -1.9989    0.0000 C    0  0  0  0  0  0  0  0  0  0  0  0
    4.4945   -5.3145    0.0000 C    0  0  0  0  0  0  0  0  0  0  0  0
    2.1904   -5.3145    0.0000 C    0  0  0  0  0  0  0  0  0  0  0  0
    3.3455   -5.9847    0.0000 C    0  0  0  0  0  0  0  0  0  0  0  0
    0.0000   -3.9978    0.0000 Cl   0  0  0  0  0  0  0  0  0  0  0  0
  1  2  1  1  0  0  0
  1  3  1  0  0  0  0
  1  5  1  0  0  0  0
  2  6  1  0  0  0  0
  2  7  2  0  0  0  0
  3  4  1  1  0  0  0
  3  8  1  0  0  0  0
  6  9  2  0  0  0  0
  7 10  1  0  0  0  0
  9 11  1  0  0  0  0
 10 11  2  0  0  0  0
M  END
> <ID>
4458

> <Formula>
C9H14ClNO

> <FW>
187.6666 (151.2056+36.4609)

> <DSSTox_CID>
5896

> <DSSTox_RID>
77964

> <DSSTox_GSID>
25896

> <DSSTox_FileID_Sort>
2647

> <TS_ChemName>
Phenylpropanolamine hydrochloride

> <TS_ChemName_Synonyms>


> <TS_CASRN>
154-41-6

> <CASRN_ChemName_Relationship>
primary

> <TS_Description>
single chemical compound

> <ChemNote>
relative stereochem; parent [14838-15-4]

> <STRUCTURE_Shown>
tested chemical

> <STRUCTURE_Formula>
C9H14ClNO

> <STRUCTURE_MW>
187.6666

> <STRUCTURE_ChemType>
defined organic

> <STRUCTURE_DefinedOrganicForm>
complex

> <STRUCTURE_IUPAC>
(1S,2R)-2-amino-1-phenylpropan-1-ol hydrochloride (1:1)

> <STRUCTURE_SMILES>
Cl.O[C@H]([C@@H](C)N)c1ccccc1

> <STRUCTURE_SMILES_Desalt>
O[C@H]([C@@H](C)N)c1ccccc1

> <Substance_modify_yyyymmdd>
20111117

$$$$
