1541-81-7
ChemmineR-0915142007XD

 18 18  0  0  0  0  0  0  0  0  1 V2000
    2.3071   -2.0005    0.0000 N   0  0  0  0  0  0  0  0  0  0  0  0
    0.0000   -0.6615    0.0000 O   0  0  0  0  0  0  0  0  0  0  0  0
    2.3071   -0.6615    0.0000 C   0  0  0  0  0  0  0  0  0  0  0  0
    1.1616   -2.6620    0.0000 C   0  0  0  0  0  0  0  0  0  0  0  0
    0.0000   -2.0005    0.0000 C   0  0  0  0  0  0  0  0  0  0  0  0
    1.1616    0.0000    0.0000 C   0  0  0  0  0  0  0  0  0  0  0  0
    3.4525   -2.6620    0.0000 C   0  0  0  0  0  0  0  0  0  0  0  0
    4.6141   -2.0005    0.0000 C   0  0  0  0  0  0  0  0  0  0  0  0
    5.7757   -2.6620    0.0000 C   0  0  0  0  0  0  0  0  0  0  0  0
    6.9212   -2.0005    0.0000 C   0  0  0  0  0  0  0  0  0  0  0  0
    8.0667   -2.6620    0.0000 C   0  0  0  0  0  0  0  0  0  0  0  0
    9.2122   -2.0005    0.0000 C   0  0  0  0  0  0  0  0  0  0  0  0
   10.3576   -2.6620    0.0000 C   0  0  0  0  0  0  0  0  0  0  0  0
   11.5192   -2.0005    0.0000 C   0  0  0  0  0  0  0  0  0  0  0  0
   12.6808   -2.6620    0.0000 C   0  0  0  0  0  0  0  0  0  0  0  0
   13.8424   -2.0005    0.0000 C   0  0  0  0  0  0  0  0  0  0  0  0
   14.9718   -2.6620    0.0000 C   0  0  0  0  0  0  0  0  0  0  0  0
   16.1334   -2.0005    0.0000 C   0  0  0  0  0  0  0  0  0  0  0  0
  1  3  1  0  0  0  0
  1  4  1  0  0  0  0
  1  7  1  0  0  0  0
  2  5  1  0  0  0  0
  2  6  1  0  0  0  0
  3  6  1  0  0  0  0
  4  5  1  0  0  0  0
  7  8  1  0  0  0  0
  8  9  1  0  0  0  0
  9 10  1  0  0  0  0
 10 11  1  0  0  0  0
 11 12  1  0  0  0  0
 12 13  1  0  0  0  0
 13 14  1  0  0  0  0
 14 15  1  0  0  0  0
 15 16  1  0  0  0  0
 16 17  1  0  0  0  0
 17 18  1  0  0  0  0
M  END
> <ID>
9101

> <Formula>
C16H33NO

> <FW>
255.4393

> <DSSTox_CID>
22171

> <DSSTox_RID>
79944

> <DSSTox_GSID>
42171

> <DSSTox_FileID_Sort>
4626

> <TS_ChemName>
4-Dodecylmorpholine

> <TS_ChemName_Synonyms>


> <TS_CASRN>
1541-81-7

> <CASRN_ChemName_Relationship>
primary

> <TS_Description>
single chemical compound

> <ChemNote>


> <STRUCTURE_Shown>
tested chemical

> <STRUCTURE_Formula>
C16H33NO

> <STRUCTURE_MW>
255.4393

> <STRUCTURE_ChemType>
defined organic

> <STRUCTURE_DefinedOrganicForm>
parent

> <STRUCTURE_IUPAC>
4-dodecylmorpholine

> <STRUCTURE_SMILES>
CCCCCCCCCCCCN1CCOCC1

> <STRUCTURE_SMILES_Desalt>
CCCCCCCCCCCCN1CCOCC1

> <Substance_modify_yyyymmdd>
20080825

$$$$
