154229-18-2
ChemmineR-0915142007XD

 32 36  0  0  1  0  0  0  0  0  1 V2000
    5.7193   -6.2106    0.0000 C   0  0  0  0  0  0  0  0  0  0  0  0
    5.7193   -7.5333    0.0000 C   0  0  0  0  0  0  0  0  0  0  0  0
    4.5855   -5.5429    0.0000 C   0  0  0  0  0  0  0  0  0  0  0  0
    4.5855   -8.1884    0.0000 C   0  0  0  0  0  0  0  0  0  0  0  0
    3.4265   -6.2106    0.0000 C   0  0  0  0  0  0  0  0  0  0  0  0
    3.4265   -7.5333    0.0000 C   0  0  0  0  0  0  0  0  0  0  0  0
    6.8783   -5.5429    0.0000 C   0  0  0  0  0  0  0  0  0  0  0  0
    8.0372   -6.2106    0.0000 C   0  0  0  0  0  0  0  0  0  0  0  0
    6.8783   -8.1884    0.0000 C   0  0  0  0  0  0  0  0  0  0  0  0
    8.0372   -7.5333    0.0000 C   0  0  0  0  0  0  0  0  0  0  0  0
    6.8783   -4.1950    0.0000 C   0  0  0  0  0  0  0  0  0  0  0  0
    8.0372   -3.5399    0.0000 C   0  0  0  0  0  0  0  0  0  0  0  0
    9.1962   -5.5429    0.0000 C   0  0  0  0  0  0  0  0  0  0  0  0
    9.1962   -4.1950    0.0000 C   0  0  0  0  0  0  0  0  0  0  0  0
   10.4434   -5.9586    0.0000 C   0  0  0  0  0  0  0  0  0  0  0  0
   11.2370   -4.8752    0.0000 C   0  0  0  0  0  0  0  0  0  0  0  0
   10.4434   -3.7793    0.0000 C   0  0  0  0  0  0  0  0  0  0  0  0
   10.8591   -2.5195    0.0000 C   0  0  0  0  0  0  0  0  0  0  0  0
    9.9772   -1.5369    0.0000 C   0  0  0  0  0  0  0  0  0  0  0  0
   12.1818   -2.2550    0.0000 C   0  0  0  0  0  0  0  0  0  0  0  0
   10.3930   -0.2520    0.0000 C   0  0  0  0  0  0  0  0  0  0  0  0
   12.5975   -0.9700    0.0000 N   0  0  0  0  0  0  0  0  0  0  0  0
   11.6905    0.0000    0.0000 C   0  0  0  0  0  0  0  0  0  0  0  0
    9.1962   -2.8722    0.0000 C   0  0  0  0  0  0  0  0  0  0  0  0
    9.1962   -6.8657    0.0000 H   0  0  0  0  0  0  0  0  0  0  0  0
    8.0372   -4.8752    0.0000 H   0  0  0  0  0  0  0  0  0  0  0  0
    6.8783   -6.8657    0.0000 H   0  0  0  0  0  0  0  0  0  0  0  0
    5.7193   -4.8752    0.0000 C   0  0  0  0  0  0  0  0  0  0  0  0
    2.2802   -8.2010    0.0000 O   0  0  0  0  0  0  0  0  0  0  0  0
    1.1338   -7.5711    0.0000 C   0  0  0  0  0  0  0  0  0  0  0  0
    0.0000   -8.2388    0.0000 C   0  0  0  0  0  0  0  0  0  0  0  0
    1.1212   -6.2484    0.0000 O   0  0  0  0  0  0  0  0  0  0  0  0
  1  3  1  0  0  0  0
  1  7  1  0  0  0  0
  1  2  1  0  0  0  0
  1 28  1  1  0  0  0
  2  4  1  0  0  0  0
  2  9  2  0  0  0  0
  3  5  1  0  0  0  0
  4  6  1  0  0  0  0
  5  6  1  0  0  0  0
  6 29  1  1  0  0  0
  7 11  1  0  0  0  0
  7  8  1  0  0  0  0
  7 27  1  6  0  0  0
  8 10  1  0  0  0  0
  8 13  1  0  0  0  0
  8 26  1  1  0  0  0
  9 10  1  0  0  0  0
 11 12  1  0  0  0  0
 12 14  1  0  0  0  0
 13 15  1  0  0  0  0
 13 14  1  0  0  0  0
 13 25  1  6  0  0  0
 14 17  1  0  0  0  0
 14 24  1  1  0  0  0
 15 16  1  0  0  0  0
 16 17  2  0  0  0  0
 17 18  1  0  0  0  0
 18 19  1  0  0  0  0
 18 20  2  0  0  0  0
 19 21  2  0  0  0  0
 20 22  1  0  0  0  0
 21 23  1  0  0  0  0
 22 23  2  0  0  0  0
 29 30  1  0  0  0  0
 30 31  1  0  0  0  0
 30 32  2  0  0  0  0
M  END
> <ID>
14027

> <Formula>
C26H33NO2

> <FW>
391.5457

> <DSSTox_CID>
28969

> <DSSTox_RID>
83234

> <DSSTox_GSID>
49043

> <DSSTox_FileID_Sort>
7909

> <TS_ChemName>
Abiraterone acetate

> <TS_ChemName_Synonyms>


> <TS_CASRN>
154229-18-2

> <CASRN_ChemName_Relationship>
primary

> <TS_Description>
single chemical compound

> <ChemNote>


> <STRUCTURE_Shown>
tested chemical

> <STRUCTURE_Formula>
C26H33NO2

> <STRUCTURE_MW>
391.5457

> <STRUCTURE_ChemType>
defined organic

> <STRUCTURE_DefinedOrganicForm>
parent

> <STRUCTURE_IUPAC>
(3beta)-17-(pyridin-3-yl)androsta-5,16-dien-3-yl acetate

> <STRUCTURE_SMILES>
CC(=O)O[C@@H]2CC3=CC[C@H]4[C@@H]5CC=C(c1cccnc1)[C@@]5(C)CC[C@@H]4[C@@]3(C)CC2

> <STRUCTURE_SMILES_Desalt>
CC(=O)O[C@@H]2CC3=CC[C@H]4[C@@H]5CC=C(c1cccnc1)[C@@]5(C)CC[C@@H]4[C@@]3(C)CC2

> <Substance_modify_yyyymmdd>
20111204

$$$$
