154323-57-6
ChemmineR-0915142007XD

 23 25  0  0  0  0  0  0  0  0  1 V2000
    5.5584   -5.5333    0.0000 C   0  0  0  0  0  0  0  0  0  0  0  0
    5.5584   -4.2033    0.0000 C   0  0  0  0  0  0  0  0  0  0  0  0
    6.7002   -3.5383    0.0000 C   0  0  0  0  0  0  0  0  0  0  0  0
    6.7002   -6.1983    0.0000 C   0  0  0  0  0  0  0  0  0  0  0  0
    9.1219   -5.9474    0.0000 N   0  0  0  0  0  0  0  0  0  0  0  0
    7.8671   -5.5333    0.0000 C   0  0  0  0  0  0  0  0  0  0  0  0
    7.8671   -4.2033    0.0000 C   0  0  0  0  0  0  0  0  0  0  0  0
    9.1219   -3.8018    0.0000 C   0  0  0  0  0  0  0  0  0  0  0  0
    9.9123   -4.8683    0.0000 C   0  0  0  0  0  0  0  0  0  0  0  0
    9.5359   -2.5471    0.0000 C   0  0  0  0  0  0  0  0  0  0  0  0
   10.8408   -2.2585    0.0000 C   0  0  0  0  0  0  0  0  0  0  0  0
   11.2423   -0.9912    0.0000 N   0  0  0  0  0  0  0  0  0  0  0  0
   10.3515    0.0000    0.0000 C   0  0  0  0  0  0  0  0  0  0  0  0
    4.4041   -3.5383    0.0000 C   0  0  0  0  0  0  0  0  0  0  0  0
    3.2623   -4.2033    0.0000 S   0  0  0  0  0  0  0  0  0  0  0  0
    2.0954   -4.8683    0.0000 N   0  0  0  0  0  0  0  0  0  0  0  0
   12.5472   -0.7026    0.0000 C   0  0  0  0  0  0  0  0  0  0  0  0
    2.5847   -3.0490    0.0000 O   0  0  0  0  0  0  0  0  0  0  0  0
    3.9147   -5.3451    0.0000 O   0  0  0  0  0  0  0  0  0  0  0  0
    1.9699   -6.1983    0.0000 C   0  0  0  0  0  0  0  0  0  0  0  0
    0.6525   -6.4744    0.0000 C   0  0  0  0  0  0  0  0  0  0  0  0
    0.0000   -5.3075    0.0000 C   0  0  0  0  0  0  0  0  0  0  0  0
    0.8783   -4.3413    0.0000 C   0  0  0  0  0  0  0  0  0  0  0  0
  1  2  2  0  0  0  0
  1  4  1  0  0  0  0
  2  3  1  0  0  0  0
  2 14  1  0  0  0  0
  3  7  2  0  0  0  0
  4  6  2  0  0  0  0
  5  6  1  0  0  0  0
  5  9  1  0  0  0  0
  6  7  1  0  0  0  0
  7  8  1  0  0  0  0
  8  9  2  0  0  0  0
  8 10  1  0  0  0  0
 10 11  1  0  0  0  0
 11 12  1  0  0  0  0
 12 13  1  0  0  0  0
 12 17  1  0  0  0  0
 14 15  1  0  0  0  0
 15 16  1  0  0  0  0
 15 18  2  0  0  0  0
 15 19  2  0  0  0  0
 16 20  1  0  0  0  0
 16 23  1  0  0  0  0
 20 21  1  0  0  0  0
 21 22  1  0  0  0  0
 22 23  1  0  0  0  0
M  END
> <ID>
9961

> <Formula>
C17H25N3O2S

> <FW>
335.4643

> <DSSTox_CID>
24289

> <DSSTox_RID>
80142

> <DSSTox_GSID>
44289

> <DSSTox_FileID_Sort>
4824

> <TS_ChemName>
Almotriptan

> <TS_ChemName_Synonyms>


> <TS_CASRN>
154323-57-6

> <CASRN_ChemName_Relationship>
primary

> <TS_Description>
single chemical compound

> <ChemNote>


> <STRUCTURE_Shown>
tested chemical

> <STRUCTURE_Formula>
C17H25N3O2S

> <STRUCTURE_MW>
335.4643

> <STRUCTURE_ChemType>
defined organic

> <STRUCTURE_DefinedOrganicForm>
parent

> <STRUCTURE_IUPAC>
N,N-dimethyl-2-{5-[(pyrrolidin-1-ylsulfonyl)methyl]-1H-indol-3-yl}ethanamine

> <STRUCTURE_SMILES>
O=S(=O)(Cc1ccc2ncc(CCN(C)C)c2c1)N3CCCC3

> <STRUCTURE_SMILES_Desalt>
O=S(=O)(Cc1ccc2ncc(CCN(C)C)c2c1)N3CCCC3

> <Substance_modify_yyyymmdd>
20090302

$$$$
