154361-50-9
ChemmineR-0915142007XD

 25 26  0  0  1  0  0  0  0  0  1 V2000
    3.3936   -7.4523    0.0000 C   0  0  0  0  0  0  0  0  0  0  0  0
    3.3936   -5.9462    0.0000 N   0  0  0  0  0  0  0  0  0  0  0  0
    3.0024   -8.7139    0.0000 C   0  0  0  0  0  0  0  0  0  0  0  0
    2.3276   -6.6503    0.0000 O   0  0  0  0  0  0  0  0  0  0  0  0
    2.2494   -5.2811    0.0000 C   0  0  0  0  0  0  0  0  0  0  0  0
    4.5476   -5.2811    0.0000 C   0  0  0  0  0  0  0  0  0  0  0  0
    1.6724   -8.7139    0.0000 C   0  0  0  0  0  0  0  0  0  0  0  0
    3.7848   -9.7799    0.0000 O   0  0  0  0  0  0  0  0  0  0  0  0
    1.2616   -7.4523    0.0000 C   0  0  0  0  0  0  0  0  0  0  0  0
    2.2689   -3.9608    0.0000 N   0  0  0  0  0  0  0  0  0  0  0  0
    1.1149   -5.9364    0.0000 O   0  0  0  0  0  0  0  0  0  0  0  0
    4.5476   -3.9608    0.0000 C   0  0  0  0  0  0  0  0  0  0  0  0
    0.8900   -9.7799    0.0000 O   0  0  0  0  0  0  0  0  0  0  0  0
    0.0000   -7.0317    0.0000 C   0  0  0  0  0  0  0  0  0  0  0  0
    3.3936   -3.3056    0.0000 C   0  0  0  0  0  0  0  0  0  0  0  0
    5.6919   -3.2860    0.0000 F   0  0  0  0  0  0  0  0  0  0  0  0
    3.4132   -1.9755    0.0000 N   0  0  0  0  0  0  0  0  0  0  0  0
    4.5476   -1.3105    0.0000 C   0  0  0  0  0  0  0  0  0  0  0  0
    5.6919   -1.9658    0.0000 O   0  0  0  0  0  0  0  0  0  0  0  0
    4.5476    0.0000    0.0000 O   0  0  0  0  0  0  0  0  0  0  0  0
    6.8459   -1.3105    0.0000 C   0  0  0  0  0  0  0  0  0  0  0  0
    7.9901   -1.9755    0.0000 C   0  0  0  0  0  0  0  0  0  0  0  0
    7.9901   -3.2860    0.0000 C   0  0  0  0  0  0  0  0  0  0  0  0
    6.8557   -3.9706    0.0000 C   0  0  0  0  0  0  0  0  0  0  0  0
    6.8459   -5.3007    0.0000 C   0  0  0  0  0  0  0  0  0  0  0  0
  1  2  1  1  0  0  0
  1  3  1  0  0  0  0
  1  4  1  0  0  0  0
  2  5  1  0  0  0  0
  2  6  1  0  0  0  0
  3  7  1  0  0  0  0
  3  8  1  6  0  0  0
  4  9  1  0  0  0  0
  5 10  1  0  0  0  0
  5 11  2  0  0  0  0
  6 12  2  0  0  0  0
  7 13  1  6  0  0  0
  7  9  1  0  0  0  0
  9 14  1  1  0  0  0
 10 15  2  0  0  0  0
 12 16  1  0  0  0  0
 12 15  1  0  0  0  0
 15 17  1  0  0  0  0
 17 18  1  0  0  0  0
 18 19  1  0  0  0  0
 18 20  2  0  0  0  0
 19 21  1  0  0  0  0
 21 22  1  0  0  0  0
 22 23  1  0  0  0  0
 23 24  1  0  0  0  0
 24 25  1  0  0  0  0
M  END
> <ID>
11691

> <Formula>
C15H22FN3O6

> <FW>
359.3501

> <DSSTox_CID>
26451

> <DSSTox_RID>
81625

> <DSSTox_GSID>
46451

> <DSSTox_FileID_Sort>
6306

> <TS_ChemName>
Capecitabine

> <TS_ChemName_Synonyms>


> <TS_CASRN>
154361-50-9

> <CASRN_ChemName_Relationship>
primary

> <TS_Description>
single chemical compound

> <ChemNote>
stereochem

> <STRUCTURE_Shown>
tested chemical

> <STRUCTURE_Formula>
C15H22FN3O6

> <STRUCTURE_MW>
359.3501

> <STRUCTURE_ChemType>
defined organic

> <STRUCTURE_DefinedOrganicForm>
parent

> <STRUCTURE_IUPAC>
5'-deoxy-5-fluoro-N-[(pentyloxy)carbonyl]cytidine

> <STRUCTURE_SMILES>
O=C(OCCCCC)NC1=NC(=O)N(C=C1F)[C@@H]2O[C@H](C)[C@@H](O)[C@H]2O

> <STRUCTURE_SMILES_Desalt>
O=C(OCCCCC)NC1=NC(=O)N(C=C1F)[C@@H]2O[C@H](C)[C@@H](O)[C@H]2O

> <Substance_modify_yyyymmdd>
20110813

$$$$
