15457-05-3
ChemmineR-0915142007XD

 23 24  0  0  0  0  0  0  0  0  2 V2000
    4.6148   -2.6584    0.0000 C   0  0  0  0  0  0  0  0  0  0  0  0
    4.6148   -3.9819    0.0000 C   0  0  0  0  0  0  0  0  0  0  0  0
    3.4525   -4.6609    0.0000 C   0  0  0  0  0  0  0  0  0  0  0  0
    2.3017   -3.9819    0.0000 C   0  0  0  0  0  0  0  0  0  0  0  0
    2.3017   -2.6584    0.0000 C   0  0  0  0  0  0  0  0  0  0  0  0
    3.4525   -2.0025    0.0000 C   0  0  0  0  0  0  0  0  0  0  0  0
    3.4525   -0.6675    0.0000 N   0  3  0  0  0  0  0  0  0  0  0  0
    4.6148    0.0000    0.0000 O   0  5  0  0  0  0  0  0  0  0  0  0
    2.3017    0.0000    0.0000 O   0  0  0  0  0  0  0  0  0  0  0  0
    5.7657   -2.0025    0.0000 O   0  0  0  0  0  0  0  0  0  0  0  0
    6.9165   -2.6584    0.0000 C   0  0  0  0  0  0  0  0  0  0  0  0
    8.0558   -2.0025    0.0000 C   0  0  0  0  0  0  0  0  0  0  0  0
    6.9165   -3.9819    0.0000 C   0  0  0  0  0  0  0  0  0  0  0  0
    9.2067   -2.6584    0.0000 C   0  0  0  0  0  0  0  0  0  0  0  0
    8.0558   -4.6609    0.0000 C   0  0  0  0  0  0  0  0  0  0  0  0
    9.2067   -3.9819    0.0000 C   0  0  0  0  0  0  0  0  0  0  0  0
   10.3575   -4.6609    0.0000 N   0  3  0  0  0  0  0  0  0  0  0  0
   11.5083   -3.9819    0.0000 O   0  5  0  0  0  0  0  0  0  0  0  0
   10.3575   -5.9843    0.0000 O   0  0  0  0  0  0  0  0  0  0  0  0
    1.1508   -4.6609    0.0000 C   0  0  0  0  0  0  0  0  0  0  0  0
    0.4949   -3.4985    0.0000 F   0  0  0  0  0  0  0  0  0  0  0  0
    1.8298   -5.8117    0.0000 F   0  0  0  0  0  0  0  0  0  0  0  0
    0.0000   -5.3169    0.0000 F   0  0  0  0  0  0  0  0  0  0  0  0
  1  2  1  0  0  0  0
  1  6  2  0  0  0  0
  1 10  1  0  0  0  0
  2  3  2  0  0  0  0
  3  4  1  0  0  0  0
  4  5  2  0  0  0  0
  4 20  1  0  0  0  0
  5  6  1  0  0  0  0
  6  7  1  0  0  0  0
  7  8  1  0  0  0  0
  7  9  2  0  0  0  0
 10 11  1  0  0  0  0
 11 12  2  0  0  0  0
 11 13  1  0  0  0  0
 12 14  1  0  0  0  0
 13 15  2  0  0  0  0
 14 16  2  0  0  0  0
 15 16  1  0  0  0  0
 16 17  1  0  0  0  0
 17 18  1  0  0  0  0
 17 19  2  0  0  0  0
 20 21  1  0  0  0  0
 20 22  1  0  0  0  0
 20 23  1  0  0  0  0
M  END
> <ID>
7337

> <Formula>
C13H7F3N2O5

> <FW>
328.2003

> <DSSTox_CID>
17553

> <DSSTox_RID>
79335

> <DSSTox_GSID>
37553

> <DSSTox_FileID_Sort>
4017

> <TS_ChemName>
Fluorodifen

> <TS_ChemName_Synonyms>


> <TS_CASRN>
15457-05-3

> <CASRN_ChemName_Relationship>
primary

> <TS_Description>
single chemical compound

> <ChemNote>


> <STRUCTURE_Shown>
tested chemical

> <STRUCTURE_Formula>
C13H7F3N2O5

> <STRUCTURE_MW>
328.2003

> <STRUCTURE_ChemType>
defined organic

> <STRUCTURE_DefinedOrganicForm>
parent

> <STRUCTURE_IUPAC>
2-nitro-1-(4-nitrophenoxy)-4-(trifluoromethyl)benzene

> <STRUCTURE_SMILES>
[O-][N+](=O)c1ccc(cc1)Oc2ccc(cc2[N+]([O-])=O)C(F)(F)F

> <STRUCTURE_SMILES_Desalt>
[O-][N+](=O)c1ccc(cc1)Oc2ccc(cc2[N+]([O-])=O)C(F)(F)F

> <Substance_modify_yyyymmdd>
20080429

$$$$
