155-41-9
ChemmineR-0915142007XD

 24 26  0  0  1  0  0  0  0  0  2 V2000
    3.2869   -3.9816    0.0000 C    0  0  0  0  0  0  0  0  0  0  0  0
    3.9816   -4.8941    0.0000 C    0  0  0  0  0  0  0  0  0  0  0  0
    3.5461   -3.0277    0.0000 C    0  0  0  0  0  0  0  0  0  0  0  0
    2.4470   -2.3952    0.0000 C    0  0  0  0  0  0  0  0  0  0  0  0
    1.2754   -2.8203    0.0000 C    0  0  0  0  0  0  0  0  0  0  0  0
    0.0000   -2.4470    0.0000 O    0  0  0  0  0  0  0  0  0  0  0  0
    0.8502   -3.8261    0.0000 C    0  0  0  0  0  0  0  0  0  0  0  0
    2.0323   -3.4321    0.0000 C    0  0  0  0  0  0  0  0  0  0  0  0
    2.0323   -1.1613    0.0000 N    0  3  0  0  0  0  0  0  0  0  0  0
    4.0438   -5.9828    0.0000 O    0  0  0  0  0  0  0  0  0  0  0  0
    5.1326   -6.5946    0.0000 C    0  0  0  0  0  0  0  0  0  0  0  0
    5.1326   -7.8596    0.0000 C    0  0  0  0  0  0  0  0  0  0  0  0
    6.2109   -5.9828    0.0000 O    0  0  0  0  0  0  0  0  0  0  0  0
    6.2109   -8.4921    0.0000 C    0  0  0  0  0  0  0  0  0  0  0  0
    6.2109   -9.7467    0.0000 O    0  0  0  0  0  0  0  0  0  0  0  0
    4.0438   -8.4921    0.0000 C    0  0  0  0  0  0  0  0  0  0  0  0
    4.0438   -9.7467    0.0000 C    0  0  0  0  0  0  0  0  0  0  0  0
    2.9551   -7.8596    0.0000 C    0  0  0  0  0  0  0  0  0  0  0  0
    2.9551  -10.3688    0.0000 C    0  0  0  0  0  0  0  0  0  0  0  0
    1.8664   -8.4921    0.0000 C    0  0  0  0  0  0  0  0  0  0  0  0
    1.8664   -9.7467    0.0000 C    0  0  0  0  0  0  0  0  0  0  0  0
    2.4781    0.0000    0.0000 C    0  0  0  0  0  0  0  0  0  0  0  0
    1.0472   -0.1866    0.0000 C    0  0  0  0  0  0  0  0  0  0  0  0
    5.2051   -2.4678    0.0000 Br   0  5  0  0  0  0  0  0  0  0  0  0
  1  8  1  0  0  0  0
  1  2  1  0  0  0  0
  2  3  1  0  0  0  0
  2 10  1  6  0  0  0
  3  4  1  0  0  0  0
  4  9  1  1  0  0  0
  4  5  1  0  0  0  0
  5  6  1  1  0  0  0
  5  7  1  0  0  0  0
  7  6  1  1  0  0  0
  7  8  1  0  0  0  0
  8  9  1  6  0  0  0
  9 22  1  0  0  0  0
  9 23  1  0  0  0  0
 10 11  1  0  0  0  0
 11 12  1  0  0  0  0
 11 13  2  0  0  0  0
 12 14  1  0  0  0  0
 12 16  1  6  0  0  0
 14 15  1  0  0  0  0
 16 17  1  0  0  0  0
 16 18  2  0  0  0  0
 17 19  2  0  0  0  0
 18 20  1  0  0  0  0
 19 21  1  0  0  0  0
 20 21  2  0  0  0  0
M  END
> <ID>
7825

> <Formula>
C18H24BrNO4

> <FW>
398.2915 (318.3869+79.9045)

> <DSSTox_CID>
20608

> <DSSTox_RID>
79509

> <DSSTox_GSID>
40608

> <DSSTox_FileID_Sort>
4191

> <TS_ChemName>
Scopolamine methylbromide

> <TS_ChemName_Synonyms>


> <TS_CASRN>
155-41-9

> <CASRN_ChemName_Relationship>
primary

> <TS_Description>
single chemical compound

> <ChemNote>
stereochem; parent [13265-10-6]

> <STRUCTURE_Shown>
tested chemical

> <STRUCTURE_Formula>
C18H24BrNO4

> <STRUCTURE_MW>
398.2915

> <STRUCTURE_ChemType>
defined organic

> <STRUCTURE_DefinedOrganicForm>
salt

> <STRUCTURE_IUPAC>
(1R,2R,4S,5S,7s)-7-{[(2S)-3-hydroxy-2-phenylpropanoyl]oxy}-9,9-dimethyl-3-oxa-9-azoniatricyclo[3.3.1.0~2,4~]nonane bromide

> <STRUCTURE_SMILES>
[Br-].OC[C@H](c1ccccc1)C(=O)O[C@@H]2C[C@@H]3[C@H]4O[C@H]4[C@H](C2)[N+]3(C)C

> <STRUCTURE_SMILES_Desalt>
OC[C@H](c1ccccc1)C(=O)O[C@@H]2C[C@@H]3[C@H]4O[C@H]4[C@H](C2)[N+]3(C)C

> <Substance_modify_yyyymmdd>
20080815

$$$$
