15500-66-0
ChemmineR-0915142007XD

 47 50  0  0  1  0  0  0  0  0  2 V2000
    1.9166   -6.2172    0.0000 Br   0  5  0  0  0  0  0  0  0  0  0  0
   12.2785   -5.5627    0.0000 Br   0  5  0  0  0  0  0  0  0  0  0  0
   12.8395   -4.5032    0.0000 N    0  3  0  0  0  0  0  0  0  0  0  0
   12.3253   -3.4592    0.0000 C    0  0  0  0  0  0  0  0  0  0  0  0
   13.5407   -5.6095    0.0000 C    0  0  0  0  0  0  0  0  0  0  0  0
   13.5095   -3.2566    0.0000 C    0  0  0  0  0  0  0  0  0  0  0  0
   14.9275   -5.6095    0.0000 C    0  0  0  0  0  0  0  0  0  0  0  0
   14.9119   -3.2566    0.0000 C    0  0  0  0  0  0  0  0  0  0  0  0
   15.5819   -4.4253    0.0000 C    0  0  0  0  0  0  0  0  0  0  0  0
   10.3775   -3.4748    0.0000 C    0  0  0  0  0  0  0  0  0  0  0  0
    9.1154   -3.8799    0.0000 C    0  0  0  0  0  0  0  0  0  0  0  0
    5.6874   -5.8120    0.0000 C    0  0  0  0  0  0  0  0  0  0  0  0
    9.1154   -5.1576    0.0000 C    0  0  0  0  0  0  0  0  0  0  0  0
    6.8249   -5.1576    0.0000 C    0  0  0  0  0  0  0  0  0  0  0  0
    7.9624   -5.8120    0.0000 C    0  0  0  0  0  0  0  0  0  0  0  0
    2.2905   -5.1576    0.0000 N    0  3  0  0  0  0  0  0  0  0  0  0
    3.4124   -5.8120    0.0000 C    0  0  0  0  0  0  0  0  0  0  0  0
    3.4124   -7.1521    0.0000 C    0  0  0  0  0  0  0  0  0  0  0  0
    4.5499   -5.1576    0.0000 C    0  0  0  0  0  0  0  0  0  0  0  0
   10.7827   -2.1970    0.0000 O    0  0  0  0  0  0  0  0  0  0  0  0
    5.6874   -7.1521    0.0000 C    0  0  0  0  0  0  0  0  0  0  0  0
   11.1099   -4.5188    0.0000 C    0  0  0  0  0  0  0  0  0  0  0  0
    7.9624   -3.1787    0.0000 C    0  0  0  0  0  0  0  0  0  0  0  0
    4.5499   -7.7910    0.0000 C    0  0  0  0  0  0  0  0  0  0  0  0
   10.3775   -5.5783    0.0000 C    0  0  0  0  0  0  0  0  0  0  0  0
    6.8249   -3.8799    0.0000 C    0  0  0  0  0  0  0  0  0  0  0  0
    2.2905   -7.8065    0.0000 O    0  0  0  0  0  0  0  0  0  0  0  0
    7.9624   -7.1521    0.0000 C    0  0  0  0  0  0  0  0  0  0  0  0
    9.9101   -1.2310    0.0000 C    0  0  0  0  0  0  0  0  0  0  0  0
    2.2905   -9.1310    0.0000 C    0  0  0  0  0  0  0  0  0  0  0  0
    6.8249   -7.7910    0.0000 C    0  0  0  0  0  0  0  0  0  0  0  0
   10.3308    0.0000    0.0000 O    0  0  0  0  0  0  0  0  0  0  0  0
    1.1531   -9.7699    0.0000 O    0  0  0  0  0  0  0  0  0  0  0  0
    9.1154   -2.5398    0.0000 C    0  0  0  0  0  0  0  0  0  0  0  0
    5.6874   -4.5188    0.0000 C    0  0  0  0  0  0  0  0  0  0  0  0
    3.3657   -4.0201    0.0000 C    0  0  0  0  0  0  0  0  0  0  0  0
    2.2905   -3.8487    0.0000 C    0  0  0  0  0  0  0  0  0  0  0  0
    1.1531   -5.7965    0.0000 C    0  0  0  0  0  0  0  0  0  0  0  0
    8.6480   -1.4959    0.0000 C    0  0  0  0  0  0  0  0  0  0  0  0
    3.4124   -9.7699    0.0000 C    0  0  0  0  0  0  0  0  0  0  0  0
    0.0000   -5.1420    0.0000 C    0  0  0  0  0  0  0  0  0  0  0  0
    1.1531   -3.1475    0.0000 C    0  0  0  0  0  0  0  0  0  0  0  0
    0.0000   -3.8176    0.0000 C    0  0  0  0  0  0  0  0  0  0  0  0
    7.9624   -4.5188    0.0000 H    0  0  0  0  0  0  0  0  0  0  0  0
    5.6874   -8.4454    0.0000 H    0  0  0  0  0  0  0  0  0  0  0  0
    6.8249   -6.4977    0.0000 H    0  0  0  0  0  0  0  0  0  0  0  0
    9.1310   -6.4665    0.0000 H    0  0  0  0  0  0  0  0  0  0  0  0
  3  4  1  0  0  0  0
  3  5  1  0  0  0  0
  3  6  1  0  0  0  0
 22  3  1  1  0  0  0
  5  7  1  0  0  0  0
  6  8  1  0  0  0  0
  7  9  1  0  0  0  0
  8  9  1  0  0  0  0
 10 11  1  0  0  0  0
 10 20  1  1  0  0  0
 10 22  1  0  0  0  0
 11 13  1  0  0  0  0
 11 23  1  0  0  0  0
 11 34  1  1  0  0  0
 12 14  1  0  0  0  0
 12 19  1  0  0  0  0
 12 21  1  0  0  0  0
 12 35  1  1  0  0  0
 13 15  1  0  0  0  0
 13 47  1  6  0  0  0
 13 25  1  0  0  0  0
 14 26  1  0  0  0  0
 14 46  1  6  0  0  0
 14 15  1  0  0  0  0
 15 28  1  0  0  0  0
 15 44  1  1  0  0  0
 17 16  1  1  0  0  0
 16 36  1  0  0  0  0
 16 37  1  0  0  0  0
 16 38  1  0  0  0  0
 17 19  1  0  0  0  0
 17 18  1  0  0  0  0
 18 24  1  0  0  0  0
 18 27  1  6  0  0  0
 20 29  1  0  0  0  0
 21 24  1  0  0  0  0
 21 45  1  6  0  0  0
 21 31  1  0  0  0  0
 22 25  1  0  0  0  0
 23 26  1  0  0  0  0
 27 30  1  0  0  0  0
 28 31  1  0  0  0  0
 29 32  2  0  0  0  0
 29 39  1  0  0  0  0
 30 33  2  0  0  0  0
 30 40  1  0  0  0  0
 37 42  1  0  0  0  0
 38 41  1  0  0  0  0
 41 43  1  0  0  0  0
 42 43  1  0  0  0  0
M  END
> <ID>
3062

> <Formula>
C35H60Br2N2O4

> <FW>
732.6699 (79.9045+79.9045+572.8608)

> <DSSTox_CID>
3415

> <DSSTox_RID>
77018

> <DSSTox_GSID>
23415

> <DSSTox_FileID_Sort>
1702

> <TS_ChemName>
Pancuronium bromide

> <TS_ChemName_Synonyms>


> <TS_CASRN>
15500-66-0

> <CASRN_ChemName_Relationship>
primary

> <TS_Description>
single chemical compound

> <ChemNote>
ammonium; stereochem; parent [16974-53-1]

> <STRUCTURE_Shown>
tested chemical

> <STRUCTURE_Formula>
C35H60Br2N2O4

> <STRUCTURE_MW>
732.6699

> <STRUCTURE_ChemType>
defined organic

> <STRUCTURE_DefinedOrganicForm>
salt

> <STRUCTURE_IUPAC>
(2beta,3alpha,5alpha,16beta,17beta)-3,17-bis(acetyloxy)-2,16-bis(1-methylpiperidinium-1-yl)androstane dibromide

> <STRUCTURE_SMILES>
[Br-].[Br-].C[N+]1(CCCCC1)[C@H]6C[C@@]5(C)[C@@H](CC[C@@H]3[C@@H]5CC[C@]2(C)[C@@H](OC(C)=O)[C@H](C[C@H]23)[N+]4(C)CCCCC4)C[C@@H]6OC(C)=O

> <STRUCTURE_SMILES_Desalt>
C[N+]1(CCCCC1)[C@H]6C[C@@]5(C)[C@@H](CC[C@@H]3[C@@H]5CC[C@]2(C)[C@@H](OC(C)=O)[C@H](C[C@H]23)[N+]4(C)CCCCC4)C[C@@H]6OC(C)=O

> <Substance_modify_yyyymmdd>
20080429

$$$$
