155141-29-0
ChemmineR-0915142007XD

 33 34  0  0  0  0  0  0  0  0  1 V2000
    0.0000   -4.2772    0.0000 O   0  0  0  0  0  0  0  0  0  0  0  0
    0.8911   -3.2970    0.0000 C   0  0  0  0  0  0  0  0  0  0  0  0
    0.6089   -1.9901    0.0000 N   0  0  0  0  0  0  0  0  0  0  0  0
    1.7673   -1.3218    0.0000 C   0  0  0  0  0  0  0  0  0  0  0  0
    1.9010    0.0000    0.0000 O   0  0  0  0  0  0  0  0  0  0  0  0
    2.7475   -2.2129    0.0000 S   0  0  0  0  0  0  0  0  0  0  0  0
    2.2129   -3.4307    0.0000 C   0  0  0  0  0  0  0  0  0  0  0  0
    2.8812   -4.5743    0.0000 C   0  0  0  0  0  0  0  0  0  0  0  0
    4.2030   -4.5743    0.0000 C   0  0  0  0  0  0  0  0  0  0  0  0
    4.8713   -3.4307    0.0000 C   0  0  0  0  0  0  0  0  0  0  0  0
    6.2079   -3.4307    0.0000 C   0  0  0  0  0  0  0  0  0  0  0  0
    6.8762   -4.5743    0.0000 C   0  0  0  0  0  0  0  0  0  0  0  0
    8.1980   -4.5743    0.0000 O   0  0  0  0  0  0  0  0  0  0  0  0
    8.8663   -5.7327    0.0000 C   0  0  0  0  0  0  0  0  0  0  0  0
   10.1881   -5.7327    0.0000 C   0  0  0  0  0  0  0  0  0  0  0  0
   10.8564   -6.8911    0.0000 N   0  0  0  0  0  0  0  0  0  0  0  0
   10.1881   -8.0347    0.0000 C   0  0  0  0  0  0  0  0  0  0  0  0
   12.1931   -6.8911    0.0000 C   0  0  0  0  0  0  0  0  0  0  0  0
   12.8614   -5.7327    0.0000 C   0  0  0  0  0  0  0  0  0  0  0  0
   14.1832   -5.7327    0.0000 C   0  0  0  0  0  0  0  0  0  0  0  0
   14.8515   -6.8911    0.0000 C   0  0  0  0  0  0  0  0  0  0  0  0
   14.1832   -8.0347    0.0000 C   0  0  0  0  0  0  0  0  0  0  0  0
   12.8614   -8.0347    0.0000 N   0  0  0  0  0  0  0  0  0  0  0  0
    6.2079   -5.7327    0.0000 C   0  0  0  0  0  0  0  0  0  0  0  0
    4.8713   -5.7327    0.0000 C   0  0  0  0  0  0  0  0  0  0  0  0
    8.1089   -9.4604    0.0000 O   0  0  0  0  0  0  0  0  0  0  0  0
    8.7772  -10.6040    0.0000 C   0  0  0  0  0  0  0  0  0  0  0  0
   10.1139  -10.6040    0.0000 O   0  0  0  0  0  0  0  0  0  0  0  0
    8.1089  -11.7624    0.0000 C   0  0  0  0  0  0  0  0  0  0  0  0
    6.7871  -11.7624    0.0000 C   0  0  0  0  0  0  0  0  0  0  0  0
    6.1188  -10.6040    0.0000 C   0  0  0  0  0  0  0  0  0  0  0  0
    4.7822  -10.6040    0.0000 O   0  0  0  0  0  0  0  0  0  0  0  0
    6.7871   -9.4604    0.0000 O   0  0  0  0  0  0  0  0  0  0  0  0
  1  2  2  0  0  0  0
  2  3  1  0  0  0  0
  2  7  1  0  0  0  0
  3  4  1  0  0  0  0
  4  5  2  0  0  0  0
  4  6  1  0  0  0  0
  6  7  1  0  0  0  0
  7  8  1  0  0  0  0
  8  9  1  0  0  0  0
  9 10  2  0  0  0  0
  9 25  1  0  0  0  0
 10 11  1  0  0  0  0
 11 12  2  0  0  0  0
 12 13  1  0  0  0  0
 12 24  1  0  0  0  0
 13 14  1  0  0  0  0
 14 15  1  0  0  0  0
 15 16  1  0  0  0  0
 16 17  1  0  0  0  0
 16 18  1  0  0  0  0
 18 19  2  0  0  0  0
 18 23  1  0  0  0  0
 19 20  1  0  0  0  0
 20 21  2  0  0  0  0
 21 22  1  0  0  0  0
 22 23  2  0  0  0  0
 24 25  2  0  0  0  0
 26 27  1  0  0  0  0
 27 28  2  0  0  0  0
 27 29  1  0  0  0  0
 29 30  2  0  0  0  0
 30 31  1  0  0  0  0
 31 32  1  0  0  0  0
 31 33  2  0  0  0  0
M  END
> <ID>
3192

> <Formula>
C22H23N3O7S

> <FW>
473.4989 (357.4268+116.0722)

> <DSSTox_CID>
3569

> <DSSTox_RID>
77086

> <DSSTox_GSID>
23569

> <DSSTox_FileID_Sort>
1769

> <TS_ChemName>
Rosiglitazone maleate

> <TS_ChemName_Synonyms>


> <TS_CASRN>
155141-29-0

> <CASRN_ChemName_Relationship>
primary

> <TS_Description>
single chemical compound

> <ChemNote>
stereochem; parent [122320-73-4]

> <STRUCTURE_Shown>
tested chemical

> <STRUCTURE_Formula>
C22H23N3O7S

> <STRUCTURE_MW>
473.4989

> <STRUCTURE_ChemType>
defined organic

> <STRUCTURE_DefinedOrganicForm>
complex

> <STRUCTURE_IUPAC>
5-(4-{2-[methyl(pyridin-2-yl)amino]ethoxy}benzyl)-1,3-thiazolidine-2,4-dione (2Z)-but-2-enedioate (1:1)

> <STRUCTURE_SMILES>
O=C(O)/C=C\C(=O)O.CN(CCOc2ccc(CC1SC(=O)NC1=O)cc2)c3ccccn3

> <STRUCTURE_SMILES_Desalt>
CN(CCOc2ccc(CC1SC(=O)NC1=O)cc2)c3ccccn3

> <Substance_modify_yyyymmdd>
20080429

$$$$
