15518-87-3
ChemmineR-0915142007XD

 24 22  0  0  0  0  0  0  0  0  1 V2000
    0.0000   -5.5996    0.0000 O   0  0  0  0  0  0  0  0  0  0  0  0
    1.1356   -4.9339    0.0000 C   0  0  0  0  0  0  0  0  0  0  0  0
    2.2907   -5.5996    0.0000 C   0  0  0  0  0  0  0  0  0  0  0  0
    3.4655   -4.9339    0.0000 N   0  0  0  0  0  0  0  0  0  0  0  0
    4.6207   -5.5996    0.0000 C   0  0  0  0  0  0  0  0  0  0  0  0
    5.7758   -4.9339    0.0000 C   0  0  0  0  0  0  0  0  0  0  0  0
    6.9310   -5.5996    0.0000 C   0  0  0  0  0  0  0  0  0  0  0  0
    8.0666   -4.9339    0.0000 C   0  0  0  0  0  0  0  0  0  0  0  0
    9.2217   -5.5996    0.0000 C   0  0  0  0  0  0  0  0  0  0  0  0
   10.3573   -4.9339    0.0000 C   0  0  0  0  0  0  0  0  0  0  0  0
   11.5125   -5.5996    0.0000 C   0  0  0  0  0  0  0  0  0  0  0  0
   12.6676   -4.9339    0.0000 C   0  0  0  0  0  0  0  0  0  0  0  0
   13.8228   -5.5996    0.0000 C   0  0  0  0  0  0  0  0  0  0  0  0
   14.9780   -4.9339    0.0000 C   0  0  0  0  0  0  0  0  0  0  0  0
   16.1331   -5.5996    0.0000 C   0  0  0  0  0  0  0  0  0  0  0  0
   17.2883   -4.9339    0.0000 C   0  0  0  0  0  0  0  0  0  0  0  0
   18.4434   -5.5996    0.0000 C   0  0  0  0  0  0  0  0  0  0  0  0
   19.5790   -4.9339    0.0000 C   0  0  0  0  0  0  0  0  0  0  0  0
    6.9506   -1.9971    0.0000 C   0  0  0  0  0  0  0  0  0  0  0  0
    8.1057   -1.3314    0.0000 C   0  0  0  0  0  0  0  0  0  0  0  0
    9.2609   -1.9971    0.0000 C   0  0  0  0  0  0  0  0  0  0  0  0
   10.3965   -1.3314    0.0000 O   0  0  0  0  0  0  0  0  0  0  0  0
    8.1057    0.0000    0.0000 O   0  0  0  0  0  0  0  0  0  0  0  0
    9.2609   -3.3284    0.0000 O   0  0  0  0  0  0  0  0  0  0  0  0
  1  2  1  0  0  0  0
  2  3  1  0  0  0  0
  3  4  1  0  0  0  0
  4  5  1  0  0  0  0
  5  6  1  0  0  0  0
  6  7  1  0  0  0  0
  7  8  1  0  0  0  0
  8  9  1  0  0  0  0
  9 10  1  0  0  0  0
 10 11  1  0  0  0  0
 11 12  1  0  0  0  0
 12 13  1  0  0  0  0
 13 14  1  0  0  0  0
 14 15  1  0  0  0  0
 15 16  1  0  0  0  0
 16 17  1  0  0  0  0
 17 18  1  0  0  0  0
 19 20  1  0  0  0  0
 20 21  1  0  0  0  0
 20 23  1  0  0  0  0
 21 22  2  0  0  0  0
 21 24  1  0  0  0  0
M  END
> <ID>
11647

> <Formula>
C19H41NO4

> <FW>
347.5331 (257.4552+90.0779)

> <DSSTox_CID>
26400

> <DSSTox_RID>
81580

> <DSSTox_GSID>
46400

> <DSSTox_FileID_Sort>
6261

> <TS_ChemName>
Myralact

> <TS_ChemName_Synonyms>


> <TS_CASRN>
15518-87-3

> <CASRN_ChemName_Relationship>
primary

> <TS_Description>
single chemical compound

> <ChemNote>
parent [25737-87-5]

> <STRUCTURE_Shown>
tested chemical

> <STRUCTURE_Formula>
C19H41NO4

> <STRUCTURE_MW>
347.5331

> <STRUCTURE_ChemType>
defined organic

> <STRUCTURE_DefinedOrganicForm>
complex

> <STRUCTURE_IUPAC>
2-hydroxypropanoic acid - 2-(tetradecylamino)ethanol (1:1)

> <STRUCTURE_SMILES>
OCCNCCCCCCCCCCCCCC.O=C(O)C(C)O

> <STRUCTURE_SMILES_Desalt>
CCCCCCCCCCCCCCNCCO

> <Substance_modify_yyyymmdd>
20110813

$$$$
