15520-10-2
ChemmineR-0915142007XD

  8  7  0  0  0  0  0  0  0  0  1 V2000
    1.1741    0.0000    0.0000 C   0  0  0  0  0  0  0  0  0  0  0  0
    2.2998   -0.6699    0.0000 C   0  0  0  0  0  0  0  0  0  0  0  0
    3.4531    0.0000    0.0000 C   0  0  0  0  0  0  0  0  0  0  0  0
    4.6065   -0.6699    0.0000 C   0  0  0  0  0  0  0  0  0  0  0  0
    5.7667    0.0000    0.0000 C   0  0  0  0  0  0  0  0  0  0  0  0
    0.0000   -0.6699    0.0000 N   0  0  0  0  0  0  0  0  0  0  0  0
    6.9063   -0.6699    0.0000 N   0  0  0  0  0  0  0  0  0  0  0  0
    2.2998   -1.9890    0.0000 C   0  0  0  0  0  0  0  0  0  0  0  0
  1  2  1  0  0  0  0
  1  6  1  0  0  0  0
  2  3  1  0  0  0  0
  2  8  1  0  0  0  0
  3  4  1  0  0  0  0
  4  5  1  0  0  0  0
  5  7  1  0  0  0  0
M  END
> <ID>
5382

> <Formula>
C6H16N2

> <FW>
116.2046

> <DSSTox_CID>
7772

> <DSSTox_RID>
78562

> <DSSTox_GSID>
27772

> <DSSTox_FileID_Sort>
3245

> <TS_ChemName>
1,5-Pentanediamine, 2-methyl-

> <TS_ChemName_Synonyms>


> <TS_CASRN>
15520-10-2

> <CASRN_ChemName_Relationship>
primary

> <TS_Description>
single chemical compound

> <ChemNote>


> <STRUCTURE_Shown>
tested chemical

> <STRUCTURE_Formula>
C6H16N2

> <STRUCTURE_MW>
116.2046

> <STRUCTURE_ChemType>
defined organic

> <STRUCTURE_DefinedOrganicForm>
parent

> <STRUCTURE_IUPAC>
2-methylpentane-1,5-diamine

> <STRUCTURE_SMILES>
CC(CCCN)CN

> <STRUCTURE_SMILES_Desalt>
CC(CCCN)CN

> <Substance_modify_yyyymmdd>
20080429

$$$$
