155270-99-8
ChemmineR-0915142007XD

 28 30  0  0  0  0  0  0  0  0  1 V2000
    0.0000   -3.9340    0.0000 C   0  0  0  0  0  0  0  0  0  0  0  0
    1.1553   -3.2759    0.0000 C   0  0  0  0  0  0  0  0  0  0  0  0
    2.2960   -3.9340    0.0000 N   0  0  0  0  0  0  0  0  0  0  0  0
    2.2960   -5.2648    0.0000 C   0  0  0  0  0  0  0  0  0  0  0  0
    1.1553   -5.9375    0.0000 O   0  0  0  0  0  0  0  0  0  0  0  0
    3.4514   -5.9375    0.0000 N   0  0  0  0  0  0  0  0  0  0  0  0
    3.4514   -7.2683    0.0000 C   0  0  0  0  0  0  0  0  0  0  0  0
    4.6067   -7.9264    0.0000 C   0  0  0  0  0  0  0  0  0  0  0  0
    4.6067   -5.2648    0.0000 C   0  0  0  0  0  0  0  0  0  0  0  0
    4.6067   -3.9340    0.0000 C   0  0  0  0  0  0  0  0  0  0  0  0
    5.8644   -3.5245    0.0000 N   0  0  0  0  0  0  0  0  0  0  0  0
    6.2739   -2.2668    0.0000 C   0  0  0  0  0  0  0  0  0  0  0  0
    6.6541   -4.6067    0.0000 C   0  0  0  0  0  0  0  0  0  0  0  0
    5.8644   -5.6743    0.0000 N   0  0  0  0  0  0  0  0  0  0  0  0
    7.9849   -4.6067    0.0000 C   0  0  0  0  0  0  0  0  0  0  0  0
    8.6430   -3.4514    0.0000 C   0  0  0  0  0  0  0  0  0  0  0  0
    9.9738   -3.4514    0.0000 C   0  0  0  0  0  0  0  0  0  0  0  0
   10.6319   -4.6067    0.0000 C   0  0  0  0  0  0  0  0  0  0  0  0
   11.9627   -4.6067    0.0000 C   0  0  0  0  0  0  0  0  0  0  0  0
   12.6355   -3.4514    0.0000 C   0  0  0  0  0  0  0  0  0  0  0  0
   13.9663   -3.4514    0.0000 O   0  0  0  0  0  0  0  0  0  0  0  0
   14.6244   -2.2960    0.0000 C   0  0  0  0  0  0  0  0  0  0  0  0
   11.9627   -2.2960    0.0000 C   0  0  0  0  0  0  0  0  0  0  0  0
   10.6319   -2.2960    0.0000 C   0  0  0  0  0  0  0  0  0  0  0  0
   12.6355   -1.1553    0.0000 O   0  0  0  0  0  0  0  0  0  0  0  0
   11.9627    0.0000    0.0000 C   0  0  0  0  0  0  0  0  0  0  0  0
    3.4514   -3.2759    0.0000 C   0  0  0  0  0  0  0  0  0  0  0  0
    3.4514   -1.9450    0.0000 O   0  0  0  0  0  0  0  0  0  0  0  0
  1  2  1  0  0  0  0
  2  3  1  0  0  0  0
  3  4  1  0  0  0  0
  3 27  1  0  0  0  0
  4  5  2  0  0  0  0
  4  6  1  0  0  0  0
  6  7  1  0  0  0  0
  6  9  1  0  0  0  0
  7  8  1  0  0  0  0
  9 10  2  0  0  0  0
  9 14  1  0  0  0  0
 10 11  1  0  0  0  0
 10 27  1  0  0  0  0
 11 12  1  0  0  0  0
 11 13  1  0  0  0  0
 13 14  2  0  0  0  0
 13 15  1  0  0  0  0
 15 16  2  0  0  0  0
 16 17  1  0  0  0  0
 17 18  2  0  0  0  0
 17 24  1  0  0  0  0
 18 19  1  0  0  0  0
 19 20  2  0  0  0  0
 20 21  1  0  0  0  0
 20 23  1  0  0  0  0
 21 22  1  0  0  0  0
 23 24  2  0  0  0  0
 23 25  1  0  0  0  0
 25 26  1  0  0  0  0
 27 28  2  0  0  0  0
M  END
> <ID>
16056

> <Formula>
C20H24N4O4

> <FW>
384.429

> <DSSTox_CID>
31441

> <DSSTox_RID>
97327

> <DSSTox_GSID>
57652

> <DSSTox_FileID_Sort>
8394

> <TS_ChemName>
Istradefylline

> <TS_ChemName_Synonyms>


> <TS_CASRN>
155270-99-8

> <CASRN_ChemName_Relationship>
primary

> <TS_Description>
single chemical compound

> <ChemNote>


> <STRUCTURE_Shown>
tested chemical

> <STRUCTURE_Formula>
C20H24N4O4

> <STRUCTURE_MW>
384.429

> <STRUCTURE_ChemType>
defined organic

> <STRUCTURE_DefinedOrganicForm>
parent

> <STRUCTURE_IUPAC>
8-[(E)-2-(3,4-dimethoxyphenyl)vinyl]-1,3-diethyl-7-methyl-3,7-dihydro-1H-purine-2,6-dione

> <STRUCTURE_SMILES>
COc1ccc(cc1OC)/C=C/c3nc2c(C(=O)N(CC)C(=O)N2CC)n3C

> <STRUCTURE_SMILES_Desalt>
COc1ccc(cc1OC)/C=C/c3nc2c(C(=O)N(CC)C(=O)N2CC)n3C

> <Substance_modify_yyyymmdd>
20131018

$$$$
