155213-67-5
ChemmineR-0915142007XD

 50 53  0  0  1  0  0  0  0  0  1 V2000
    4.9120   -5.6344    0.0000 C   0  0  0  0  0  0  0  0  0  0  0  0
    3.7769   -6.2948    0.0000 N   0  0  0  0  0  0  0  0  0  0  0  0
    2.6418   -4.3135    0.0000 C   0  0  0  0  0  0  0  0  0  0  0  0
    2.6418   -5.6344    0.0000 C   0  0  0  0  0  0  0  0  0  0  0  0
    6.0678   -3.6737    0.0000 C   0  0  0  0  0  0  0  0  0  0  0  0
    7.2029   -4.3135    0.0000 C   0  0  0  0  0  0  0  0  0  0  0  0
    6.0678   -6.2948    0.0000 N   0  0  0  0  0  0  0  0  0  0  0  0
    7.2029   -5.6344    0.0000 C   0  0  0  0  0  0  0  0  0  0  0  0
    8.3381   -3.6737    0.0000 C   0  0  0  0  0  0  0  0  0  0  0  0
    8.3381   -6.2948    0.0000 C   0  0  0  0  0  0  0  0  0  0  0  0
    9.4732   -5.6344    0.0000 N   0  0  0  0  0  0  0  0  0  0  0  0
   10.6290   -6.2948    0.0000 C   0  0  0  0  0  0  0  0  0  0  0  0
   11.7641   -5.6344    0.0000 C   0  0  0  0  0  0  0  0  0  0  0  0
   12.8992   -3.6737    0.0000 C   0  0  0  0  0  0  0  0  0  0  0  0
   14.0344   -4.3135    0.0000 C   0  0  0  0  0  0  0  0  0  0  0  0
   12.8992   -6.2948    0.0000 C   0  0  0  0  0  0  0  0  0  0  0  0
   14.0344   -5.6344    0.0000 C   0  0  0  0  0  0  0  0  0  0  0  0
   15.1901   -6.2948    0.0000 N   0  0  0  0  0  0  0  0  0  0  0  0
   16.3253   -5.6344    0.0000 C   0  0  0  0  0  0  0  0  0  0  0  0
    3.7769   -7.6157    0.0000 C   0  0  0  0  0  0  0  0  0  0  0  0
    4.9120   -4.3135    0.0000 O   0  0  0  0  0  0  0  0  0  0  0  0
    8.3381   -7.6157    0.0000 O   0  0  0  0  0  0  0  0  0  0  0  0
   10.6290   -8.2555    0.0000 C   0  0  0  0  0  0  0  0  0  0  0  0
   11.7641   -8.9366    0.0000 C   0  0  0  0  0  0  0  0  0  0  0  0
   12.8992   -8.2555    0.0000 C   0  0  0  0  0  0  0  0  0  0  0  0
   11.7641  -10.2575    0.0000 C   0  0  0  0  0  0  0  0  0  0  0  0
   14.0344   -8.9366    0.0000 C   0  0  0  0  0  0  0  0  0  0  0  0
   12.8992  -10.8973    0.0000 C   0  0  0  0  0  0  0  0  0  0  0  0
   14.0344  -10.2575    0.0000 C   0  0  0  0  0  0  0  0  0  0  0  0
   12.8992   -7.6157    0.0000 O   0  0  0  0  0  0  0  0  0  0  0  0
   12.8992   -2.3528    0.0000 C   0  0  0  0  0  0  0  0  0  0  0  0
   11.7641   -1.6717    0.0000 C   0  0  0  0  0  0  0  0  0  0  0  0
   11.7641   -4.3135    0.0000 C   0  0  0  0  0  0  0  0  0  0  0  0
   10.6290   -2.3528    0.0000 C   0  0  0  0  0  0  0  0  0  0  0  0
   10.6290   -3.6737    0.0000 C   0  0  0  0  0  0  0  0  0  0  0  0
   17.4604   -6.2948    0.0000 O   0  0  0  0  0  0  0  0  0  0  0  0
   16.3253   -4.3135    0.0000 O   0  0  0  0  0  0  0  0  0  0  0  0
   17.4604   -7.6157    0.0000 C   0  0  0  0  0  0  0  0  0  0  0  0
   18.6162   -8.2761    0.0000 C   0  0  0  0  0  0  0  0  0  0  0  0
   18.6162   -9.5970    0.0000 C   0  0  0  0  0  0  0  0  0  0  0  0
   19.8545   -7.8634    0.0000 S   0  0  0  0  0  0  0  0  0  0  0  0
   19.8545  -10.0098    0.0000 N   0  0  0  0  0  0  0  0  0  0  0  0
   20.6388   -8.9366    0.0000 C   0  0  0  0  0  0  0  0  0  0  0  0
    1.5685   -3.5499    0.0000 N   0  0  0  0  0  0  0  0  0  0  0  0
    3.7150   -3.5499    0.0000 C   0  0  0  0  0  0  0  0  0  0  0  0
    1.9813   -2.2909    0.0000 C   0  0  0  0  0  0  0  0  0  0  0  0
    3.3022   -2.2909    0.0000 S   0  0  0  0  0  0  0  0  0  0  0  0
    1.3209   -1.1558    0.0000 C   0  0  0  0  0  0  0  0  0  0  0  0
    1.9813    0.0000    0.0000 C   0  0  0  0  0  0  0  0  0  0  0  0
    0.0000   -1.1558    0.0000 C   0  0  0  0  0  0  0  0  0  0  0  0
  1  2  1  0  0  0  0
  1  7  1  0  0  0  0
  1 21  2  0  0  0  0
  2  4  1  0  0  0  0
  2 20  1  0  0  0  0
  3  4  1  0  0  0  0
  3 44  1  0  0  0  0
  3 45  2  0  0  0  0
  5  6  1  0  0  0  0
  6  9  1  0  0  0  0
  8  6  1  1  0  0  0
  7  8  1  0  0  0  0
  8 10  1  0  0  0  0
 10 11  1  0  0  0  0
 10 22  2  0  0  0  0
 11 12  1  0  0  0  0
 12 13  1  0  0  0  0
 12 23  1  6  0  0  0
 13 16  1  0  0  0  0
 14 15  1  0  0  0  0
 14 31  1  0  0  0  0
 14 33  2  0  0  0  0
 17 15  1  6  0  0  0
 16 17  1  0  0  0  0
 16 30  1  1  0  0  0
 17 18  1  0  0  0  0
 18 19  1  0  0  0  0
 19 36  1  0  0  0  0
 19 37  2  0  0  0  0
 23 24  1  0  0  0  0
 24 25  1  0  0  0  0
 24 26  2  0  0  0  0
 25 27  2  0  0  0  0
 26 28  1  0  0  0  0
 27 29  1  0  0  0  0
 28 29  2  0  0  0  0
 31 32  2  0  0  0  0
 32 34  1  0  0  0  0
 33 35  1  0  0  0  0
 34 35  2  0  0  0  0
 36 38  1  0  0  0  0
 38 39  1  0  0  0  0
 39 40  2  0  0  0  0
 39 41  1  0  0  0  0
 40 42  1  0  0  0  0
 41 43  1  0  0  0  0
 42 43  2  0  0  0  0
 44 46  2  0  0  0  0
 45 47  1  0  0  0  0
 46 47  1  0  0  0  0
 46 48  1  0  0  0  0
 48 49  1  0  0  0  0
 48 50  1  0  0  0  0
M  END
> <ID>
13624

> <Formula>
C37H48N6O5S2

> <FW>
720.9442

> <DSSTox_CID>
28553

> <DSSTox_RID>
82825

> <DSSTox_GSID>
48627

> <DSSTox_FileID_Sort>
7502

> <TS_ChemName>
Ritonavir

> <TS_ChemName_Synonyms>


> <TS_CASRN>
155213-67-5

> <CASRN_ChemName_Relationship>
primary

> <TS_Description>
single chemical compound

> <ChemNote>
stereochem

> <STRUCTURE_Shown>
tested chemical

> <STRUCTURE_Formula>
C37H48N6O5S2

> <STRUCTURE_MW>
720.9442

> <STRUCTURE_ChemType>
defined organic

> <STRUCTURE_DefinedOrganicForm>
parent

> <STRUCTURE_IUPAC>
N-[(2S,4S,5S)-4-hydroxy-1,6-diphenyl-5-{[(1,3-thiazol-5-ylmethoxy)carbonyl]amino}hexan-2-yl]-N~2~-(methyl{[2-(propan-2-yl)-1,3-thiazol-4-yl]methyl}carbamoyl)-L-valinamide

> <STRUCTURE_SMILES>
CC(C)c4nc(CN(C)C(=O)N[C@H](C(=O)N[C@@H](Cc1ccccc1)C[C@H](O)[C@H](Cc2ccccc2)NC(=O)OCc3cncs3)C(C)C)cs4

> <STRUCTURE_SMILES_Desalt>
CC(C)c4nc(CN(C)C(=O)N[C@H](C(=O)N[C@@H](Cc1ccccc1)C[C@H](O)[C@H](Cc2ccccc2)NC(=O)OCc3cncs3)C(C)C)cs4

> <Substance_modify_yyyymmdd>
20111015

$$$$
