1552-42-7
ChemmineR-0915142007XD

 31 34  0  0  0  0  0  0  0  0  1 V2000
    7.1391  -11.9382    0.0000 C   0  0  0  0  0  0  0  0  0  0  0  0
    5.9930  -11.2697    0.0000 N   0  0  0  0  0  0  0  0  0  0  0  0
    4.8350  -11.9382    0.0000 C   0  0  0  0  0  0  0  0  0  0  0  0
    5.9930   -9.9446    0.0000 C   0  0  0  0  0  0  0  0  0  0  0  0
    4.8350   -9.2760    0.0000 C   0  0  0  0  0  0  0  0  0  0  0  0
    4.8350   -7.9509    0.0000 C   0  0  0  0  0  0  0  0  0  0  0  0
    5.9930   -7.2823    0.0000 C   0  0  0  0  0  0  0  0  0  0  0  0
    7.1391   -7.9509    0.0000 C   0  0  0  0  0  0  0  0  0  0  0  0
    7.1391   -9.2760    0.0000 C   0  0  0  0  0  0  0  0  0  0  0  0
    6.0049   -5.9572    0.0000 C   0  0  0  0  0  0  0  0  0  0  0  0
    7.3062   -6.0885    0.0000 O   0  0  0  0  0  0  0  0  0  0  0  0
    7.8554   -4.8827    0.0000 C   0  0  0  0  0  0  0  0  0  0  0  0
    9.1566   -4.6082    0.0000 O   0  0  0  0  0  0  0  0  0  0  0  0
    6.8645   -3.9874    0.0000 C   0  0  0  0  0  0  0  0  0  0  0  0
    5.7065   -4.6559    0.0000 C   0  0  0  0  0  0  0  0  0  0  0  0
    4.5604   -3.9874    0.0000 C   0  0  0  0  0  0  0  0  0  0  0  0
    4.5604   -2.6622    0.0000 C   0  0  0  0  0  0  0  0  0  0  0  0
    5.7065   -1.9937    0.0000 C   0  0  0  0  0  0  0  0  0  0  0  0
    6.8645   -2.6622    0.0000 C   0  0  0  0  0  0  0  0  0  0  0  0
    5.7065   -0.6685    0.0000 N   0  0  0  0  0  0  0  0  0  0  0  0
    6.8645    0.0000    0.0000 C   0  0  0  0  0  0  0  0  0  0  0  0
    4.5604    0.0000    0.0000 C   0  0  0  0  0  0  0  0  0  0  0  0
    4.6679   -5.9452    0.0000 C   0  0  0  0  0  0  0  0  0  0  0  0
    3.9993   -7.0913    0.0000 C   0  0  0  0  0  0  0  0  0  0  0  0
    2.6622   -7.0913    0.0000 C   0  0  0  0  0  0  0  0  0  0  0  0
    2.0056   -5.9333    0.0000 C   0  0  0  0  0  0  0  0  0  0  0  0
    2.6861   -4.7753    0.0000 C   0  0  0  0  0  0  0  0  0  0  0  0
    4.0112   -4.7872    0.0000 C   0  0  0  0  0  0  0  0  0  0  0  0
    0.6805   -5.9214    0.0000 N   0  0  0  0  0  0  0  0  0  0  0  0
    0.0000   -7.0674    0.0000 C   0  0  0  0  0  0  0  0  0  0  0  0
    0.0119   -4.7634    0.0000 C   0  0  0  0  0  0  0  0  0  0  0  0
  1  2  1  0  0  0  0
  2  3  1  0  0  0  0
  2  4  1  0  0  0  0
  4  5  2  0  0  0  0
  4  9  1  0  0  0  0
  5  6  1  0  0  0  0
  6  7  2  0  0  0  0
  7  8  1  0  0  0  0
  7 10  1  0  0  0  0
  8  9  2  0  0  0  0
 10 11  1  0  0  0  0
 10 15  1  0  0  0  0
 10 23  1  0  0  0  0
 11 12  1  0  0  0  0
 12 13  2  0  0  0  0
 12 14  1  0  0  0  0
 14 15  2  0  0  0  0
 14 19  1  0  0  0  0
 15 16  1  0  0  0  0
 16 17  2  0  0  0  0
 17 18  1  0  0  0  0
 18 19  2  0  0  0  0
 18 20  1  0  0  0  0
 20 21  1  0  0  0  0
 20 22  1  0  0  0  0
 23 24  2  0  0  0  0
 23 28  1  0  0  0  0
 24 25  1  0  0  0  0
 25 26  2  0  0  0  0
 26 27  1  0  0  0  0
 26 29  1  0  0  0  0
 27 28  2  0  0  0  0
 29 30  1  0  0  0  0
 29 31  1  0  0  0  0
M  END
> <ID>
3889

> <Formula>
C26H29N3O2

> <FW>
415.5274

> <DSSTox_CID>
4866

> <DSSTox_RID>
77558

> <DSSTox_GSID>
24866

> <DSSTox_FileID_Sort>
2241

> <TS_ChemName>
Crystal violet lactone

> <TS_ChemName_Synonyms>
Crystal violet lactone (1(3H)-Isobenzofuranone, 6-(dimethylamino)-3,3-bis[4-(dimethylamino)phenyl]-)

> <TS_CASRN>
1552-42-7

> <CASRN_ChemName_Relationship>
primary

> <TS_Description>
single chemical compound

> <ChemNote>


> <STRUCTURE_Shown>
tested chemical

> <STRUCTURE_Formula>
C26H29N3O2

> <STRUCTURE_MW>
415.5274

> <STRUCTURE_ChemType>
defined organic

> <STRUCTURE_DefinedOrganicForm>
parent

> <STRUCTURE_IUPAC>
6-(dimethylamino)-3,3-bis[4-(dimethylamino)phenyl]-2-benzofuran-1(3H)-one

> <STRUCTURE_SMILES>
CN(C)c1ccc(cc1)C3(OC(=O)c2cc(ccc23)N(C)C)c4ccc(cc4)N(C)C

> <STRUCTURE_SMILES_Desalt>
CN(C)c1ccc(cc1)C3(OC(=O)c2cc(ccc23)N(C)C)c4ccc(cc4)N(C)C

> <Substance_modify_yyyymmdd>
20080429

$$$$
