1553-34-0
ChemmineR-0915142007XD

 23 25  0  0  0  0  0  0  0  0  1 V2000
    3.4792   -4.0039    0.0000 C    0  0  0  0  0  0  0  0  0  0  0  0
    3.4792   -6.6598    0.0000 S    0  0  0  0  0  0  0  0  0  0  0  0
    2.3087   -4.6739    0.0000 C    0  0  0  0  0  0  0  0  0  0  0  0
    4.6094   -4.6739    0.0000 C    0  0  0  0  0  0  0  0  0  0  0  0
    4.6094   -6.0059    0.0000 C    0  0  0  0  0  0  0  0  0  0  0  0
    2.3087   -6.0059    0.0000 C    0  0  0  0  0  0  0  0  0  0  0  0
    6.9181   -2.0181    0.0000 N    0  0  0  0  0  0  0  0  0  0  0  0
    3.4792   -2.6720    0.0000 C    0  0  0  0  0  0  0  0  0  0  0  0
    5.7799   -2.6720    0.0000 C    0  0  0  0  0  0  0  0  0  0  0  0
    4.6094   -2.0181    0.0000 C    0  0  0  0  0  0  0  0  0  0  0  0
    6.9181   -0.6862    0.0000 C    0  0  0  0  0  0  0  0  0  0  0  0
    1.1705   -4.0039    0.0000 C    0  0  0  0  0  0  0  0  0  0  0  0
    5.7799   -4.0039    0.0000 C    0  0  0  0  0  0  0  0  0  0  0  0
    1.1705   -6.6598    0.0000 C    0  0  0  0  0  0  0  0  0  0  0  0
    5.7799   -6.6598    0.0000 C    0  0  0  0  0  0  0  0  0  0  0  0
    8.0724   -2.6720    0.0000 C    0  0  0  0  0  0  0  0  0  0  0  0
    5.7799    0.0000    0.0000 C    0  0  0  0  0  0  0  0  0  0  0  0
    4.6094   -0.6862    0.0000 C    0  0  0  0  0  0  0  0  0  0  0  0
    0.0000   -4.6739    0.0000 C    0  0  0  0  0  0  0  0  0  0  0  0
    6.9181   -4.6739    0.0000 C    0  0  0  0  0  0  0  0  0  0  0  0
    0.0000   -6.0059    0.0000 C    0  0  0  0  0  0  0  0  0  0  0  0
    6.9181   -6.0059    0.0000 C    0  0  0  0  0  0  0  0  0  0  0  0
    1.7436   -1.7598    0.0000 Cl   0  0  0  0  0  0  0  0  0  0  0  0
  1  3  1  0  0  0  0
  1  4  1  0  0  0  0
  1  8  1  0  0  0  0
  2  5  1  0  0  0  0
  2  6  1  0  0  0  0
  3  6  2  0  0  0  0
  3 12  1  0  0  0  0
  4  5  2  0  0  0  0
  4 13  1  0  0  0  0
  5 15  1  0  0  0  0
  6 14  1  0  0  0  0
  7  9  1  0  0  0  0
  7 16  1  0  0  0  0
  7 11  1  0  0  0  0
  8 10  1  0  0  0  0
  9 10  1  0  0  0  0
 10 18  1  0  0  0  0
 11 17  1  0  0  0  0
 12 19  2  0  0  0  0
 13 20  2  0  0  0  0
 14 21  2  0  0  0  0
 15 22  2  0  0  0  0
 17 18  1  0  0  0  0
 19 21  1  0  0  0  0
 20 22  1  0  0  0  0
M  END
> <ID>
10894

> <Formula>
C20H24ClNS

> <FW>
345.9293 (309.4683+36.4609)

> <DSSTox_CID>
25359

> <DSSTox_RID>
80824

> <DSSTox_GSID>
45359

> <DSSTox_FileID_Sort>
5505

> <TS_ChemName>
Metixene hydrochloride

> <TS_ChemName_Synonyms>


> <TS_CASRN>
1553-34-0

> <CASRN_ChemName_Relationship>
primary

> <TS_Description>
single chemical compound

> <ChemNote>
parent [4969-02-2 ]

> <STRUCTURE_Shown>
tested chemical

> <STRUCTURE_Formula>
C20H24ClNS

> <STRUCTURE_MW>
345.9293

> <STRUCTURE_ChemType>
defined organic

> <STRUCTURE_DefinedOrganicForm>
complex

> <STRUCTURE_IUPAC>
1-methyl-3-(9H-thioxanthen-9-ylmethyl)piperidine hydrochloride (1:1)

> <STRUCTURE_SMILES>
Cl.CN1CCCC(C1)CC2c4ccccc4Sc3ccccc23

> <STRUCTURE_SMILES_Desalt>
CN1CCCC(C1)CC2c4ccccc4Sc3ccccc23

> <Substance_modify_yyyymmdd>
20110605

$$$$
