1553-60-2
ChemmineR-0915142007XD

 14 14  0  0  0  0  0  0  0  0  1 V2000
    8.0658   -0.6837    0.0000 C   0  0  0  0  0  0  0  0  0  0  0  0
    9.2392    0.0000    0.0000 O   0  0  0  0  0  0  0  0  0  0  0  0
    6.9109   -0.0185    0.0000 C   0  0  0  0  0  0  0  0  0  0  0  0
    5.7653   -0.6837    0.0000 C   0  0  0  0  0  0  0  0  0  0  0  0
    3.4739   -2.0141    0.0000 C   0  0  0  0  0  0  0  0  0  0  0  0
    8.0658   -2.0141    0.0000 O   0  0  0  0  0  0  0  0  0  0  0  0
    2.3283   -2.6701    0.0000 C   0  0  0  0  0  0  0  0  0  0  0  0
    3.4739   -0.6837    0.0000 C   0  0  0  0  0  0  0  0  0  0  0  0
    5.7653   -2.0141    0.0000 C   0  0  0  0  0  0  0  0  0  0  0  0
    4.6288   -2.6701    0.0000 C   0  0  0  0  0  0  0  0  0  0  0  0
    4.6288   -0.0185    0.0000 C   0  0  0  0  0  0  0  0  0  0  0  0
    1.1734   -2.0141    0.0000 C   0  0  0  0  0  0  0  0  0  0  0  0
    0.0000   -2.6701    0.0000 C   0  0  0  0  0  0  0  0  0  0  0  0
    1.1734   -0.6837    0.0000 C   0  0  0  0  0  0  0  0  0  0  0  0
  1  2  2  0  0  0  0
  1  3  1  0  0  0  0
  1  6  1  0  0  0  0
  3  4  1  0  0  0  0
  4  9  2  0  0  0  0
  4 11  1  0  0  0  0
  5  8  1  0  0  0  0
  5  7  1  0  0  0  0
  5 10  2  0  0  0  0
  7 12  1  0  0  0  0
  8 11  2  0  0  0  0
  9 10  1  0  0  0  0
 12 13  1  0  0  0  0
 12 14  1  0  0  0  0
M  END
> <ID>
9857

> <Formula>
C12H16O2

> <FW>
192.2542

> <DSSTox_CID>
24107

> <DSSTox_RID>
80102

> <DSSTox_GSID>
44107

> <DSSTox_FileID_Sort>
4784

> <TS_ChemName>
Ibufenac

> <TS_ChemName_Synonyms>


> <TS_CASRN>
1553-60-2

> <CASRN_ChemName_Relationship>
primary

> <TS_Description>
single chemical compound

> <ChemNote>


> <STRUCTURE_Shown>
tested chemical

> <STRUCTURE_Formula>
C12H16O2

> <STRUCTURE_MW>
192.2542

> <STRUCTURE_ChemType>
defined organic

> <STRUCTURE_DefinedOrganicForm>
parent

> <STRUCTURE_IUPAC>
[4-(2-methylpropyl)phenyl]acetic acid

> <STRUCTURE_SMILES>
CC(C)Cc1ccc(cc1)CC(=O)O

> <STRUCTURE_SMILES_Desalt>
CC(C)Cc1ccc(cc1)CC(=O)O

> <Substance_modify_yyyymmdd>
20090220

$$$$
