155371-19-0
ChemmineR-0915142007XD

 15 14  0  0  0  0  0  0  0  0  2 V2000
    2.2894   -0.3990    0.0000 C   0  0  0  0  0  0  0  0  0  0  0  0
    3.5528    0.0000    0.0000 C   0  0  0  0  0  0  0  0  0  0  0  0
    2.2894   -1.7289    0.0000 N   0  0  0  0  0  0  0  0  0  0  0  0
    4.3222   -1.0544    0.0000 N   0  3  0  0  0  0  0  0  0  0  0  0
    3.5433   -2.1279    0.0000 C   0  0  0  0  0  0  0  0  0  0  0  0
    5.6522   -1.0544    0.0000 C   0  0  0  0  0  0  0  0  0  0  0  0
    1.2159   -2.5173    0.0000 C   0  0  0  0  0  0  0  0  0  0  0  0
    0.0000   -1.9854    0.0000 C   0  0  0  0  0  0  0  0  0  0  0  0
    8.1695   -2.4508    0.0000 P   0  5  0  0  0  0  0  0  0  0  0  0
    6.8396   -2.4508    0.0000 F   0  0  0  0  0  0  0  0  0  0  0  0
    8.8060   -3.6193    0.0000 F   0  0  0  0  0  0  0  0  0  0  0  0
    8.8060   -1.2824    0.0000 F   0  0  0  0  0  0  0  0  0  0  0  0
    7.4855   -3.6193    0.0000 F   0  0  0  0  0  0  0  0  0  0  0  0
    7.4855   -1.2824    0.0000 F   0  0  0  0  0  0  0  0  0  0  0  0
    9.4994   -2.4508    0.0000 F   0  0  0  0  0  0  0  0  0  0  0  0
  1  2  2  0  0  0  0
  1  3  1  0  0  0  0
  2  4  1  0  0  0  0
  3  5  1  0  0  0  0
  3  7  1  0  0  0  0
  4  5  2  0  0  0  0
  4  6  1  0  0  0  0
  7  8  1  0  0  0  0
  9 10  1  0  0  0  0
  9 11  1  0  0  0  0
  9 12  1  0  0  0  0
  9 13  1  0  0  0  0
  9 14  1  0  0  0  0
  9 15  1  0  0  0  0
M  END
> <ID>
12996

> <Formula>
C6H11F6N2P

> <FW>
256.1291 (111.1644+144.9647)

> <DSSTox_CID>
27897

> <DSSTox_RID>
82650

> <DSSTox_GSID>
47921

> <DSSTox_FileID_Sort>
7327

> <TS_ChemName>
1-Ethyl-3-methylimidazolium hexafluorophosphate

> <TS_ChemName_Synonyms>


> <TS_CASRN>
155371-19-0

> <CASRN_ChemName_Relationship>
primary

> <TS_Description>
single chemical compound

> <ChemNote>
ammonium; parent [65039-03-4]

> <STRUCTURE_Shown>
tested chemical

> <STRUCTURE_Formula>
C6H11F6N2P

> <STRUCTURE_MW>
256.1291

> <STRUCTURE_ChemType>
defined organic

> <STRUCTURE_DefinedOrganicForm>
salt

> <STRUCTURE_IUPAC>
1-ethyl-3-methyl-1H-imidazol-3-ium hexafluorophosphate

> <STRUCTURE_SMILES>
F[P-](F)(F)(F)(F)F.C[n+]1ccn(CC)c1

> <STRUCTURE_SMILES_Desalt>
C[n+]1ccn(CC)c1

> <Substance_modify_yyyymmdd>
20110417

$$$$
