155569-91-8
ChemmineR-0915142007XD

 77 83  0  0  1  0  0  0  0  0  2 V2000
   15.2843  -11.6177    0.0000 C   0  0  0  0  0  0  0  0  0  0  0  0
   15.2843  -12.9360    0.0000 C   0  0  0  0  0  0  0  0  0  0  0  0
   14.0895  -10.9791    0.0000 O   0  0  0  0  0  0  0  0  0  0  0  0
   16.4584  -12.2562    0.0000 O   0  0  0  0  0  0  0  0  0  0  0  0
   15.3049  -10.3406    0.0000 C   0  0  0  0  0  0  0  0  0  0  0  0
   14.0895  -13.5746    0.0000 C   0  0  0  0  0  0  0  0  0  0  0  0
   12.9566  -11.6177    0.0000 C   0  0  0  0  0  0  0  0  0  0  0  0
   17.6325  -11.6177    0.0000 C   0  0  0  0  0  0  0  0  0  0  0  0
   16.4584   -9.6196    0.0000 C   0  0  0  0  0  0  0  0  0  0  0  0
   12.9566  -12.8948    0.0000 C   0  0  0  0  0  0  0  0  0  0  0  0
   14.0277  -14.8517    0.0000 O   0  0  0  0  0  0  0  0  0  0  0  0
   11.7825  -10.8967    0.0000 C   0  0  0  0  0  0  0  0  0  0  0  0
   17.6325  -10.3406    0.0000 C   0  0  0  0  0  0  0  0  0  0  0  0
   18.7860  -12.2562    0.0000 C   0  0  0  0  0  0  0  0  0  0  0  0
   12.8948  -15.4902    0.0000 C   0  0  0  0  0  0  0  0  0  0  0  0
   10.6289  -11.5765    0.0000 C   0  0  0  0  0  0  0  0  0  0  0  0
   18.7860   -9.6196    0.0000 C   0  0  0  0  0  0  0  0  0  0  0  0
   18.7860  -13.5746    0.0000 C   0  0  0  0  0  0  0  0  0  0  0  0
   19.9190  -11.6177    0.0000 C   0  0  0  0  0  0  0  0  0  0  0  0
   12.8948  -16.7468    0.0000 C   0  0  0  0  0  0  0  0  0  0  0  0
   11.7825  -14.8105    0.0000 O   0  0  0  0  0  0  0  0  0  0  0  0
    9.4754  -10.8967    0.0000 C   0  0  0  0  0  0  0  0  0  0  0  0
   17.6325  -14.2131    0.0000 C   0  0  0  0  0  0  0  0  0  0  0  0
   11.7619  -17.3647    0.0000 C   0  0  0  0  0  0  0  0  0  0  0  0
   14.0071  -17.3853    0.0000 C   0  0  0  0  0  0  0  0  0  0  0  0
    8.2807  -11.5765    0.0000 C   0  0  0  0  0  0  0  0  0  0  0  0
    9.4754   -9.6196    0.0000 C   0  0  0  0  0  0  0  0  0  0  0  0
   11.7619  -18.6419    0.0000 C   0  0  0  0  0  0  0  0  0  0  0  0
   10.6083  -16.7262    0.0000 C   0  0  0  0  0  0  0  0  0  0  0  0
   11.6795  -16.1906    0.0000 O   0  0  0  0  0  0  0  0  0  0  0  0
   14.0071  -18.7037    0.0000 C   0  0  0  0  0  0  0  0  0  0  0  0
    6.9212  -10.6083    0.0000 O   0  0  0  0  0  0  0  0  0  0  0  0
    8.2807  -12.8948    0.0000 C   0  0  0  0  0  0  0  0  0  0  0  0
    9.5372  -18.6419    0.0000 O   0  0  0  0  0  0  0  0  0  0  0  0
   12.8742  -19.3422    0.0000 C   0  0  0  0  0  0  0  0  0  0  0  0
    9.5372  -17.3647    0.0000 C   0  0  0  0  0  0  0  0  0  0  0  0
   10.6083  -15.4902    0.0000 C   0  0  0  0  0  0  0  0  0  0  0  0
   15.1607  -19.3422    0.0000 C   0  0  0  0  0  0  0  0  0  0  0  0
    6.9212   -9.2694    0.0000 C   0  0  0  0  0  0  0  0  0  0  0  0
    9.4754  -13.5334    0.0000 C   0  0  0  0  0  0  0  0  0  0  0  0
    7.1684  -13.5746    0.0000 C   0  0  0  0  0  0  0  0  0  0  0  0
   12.8742  -20.5987    0.0000 O   0  0  0  0  0  0  0  0  0  0  0  0
    9.4754  -14.8105    0.0000 C   0  0  0  0  0  0  0  0  0  0  0  0
    8.0953   -8.6309    0.0000 C   0  0  0  0  0  0  0  0  0  0  0  0
    5.7882   -8.6309    0.0000 O   0  0  0  0  0  0  0  0  0  0  0  0
    8.0953   -7.2508    0.0000 C   0  0  0  0  0  0  0  0  0  0  0  0
    5.7882   -7.2508    0.0000 C   0  0  0  0  0  0  0  0  0  0  0  0
    6.9212   -6.6122    0.0000 C   0  0  0  0  0  0  0  0  0  0  0  0
    9.2488   -6.6122    0.0000 O   0  0  0  0  0  0  0  0  0  0  0  0
    4.6347   -6.6122    0.0000 C   0  0  0  0  0  0  0  0  0  0  0  0
    6.9212   -5.2527    0.0000 O   0  0  0  0  0  0  0  0  0  0  0  0
   10.3818   -7.2508    0.0000 C   0  0  0  0  0  0  0  0  0  0  0  0
    7.9305   -4.6553    0.0000 C   0  0  0  0  0  0  0  0  0  0  0  0
    9.1252   -5.3145    0.0000 C   0  0  0  0  0  0  0  0  0  0  0  0
    7.9305   -3.2752    0.0000 O   0  0  0  0  0  0  0  0  0  0  0  0
   10.2582   -4.6553    0.0000 C   0  0  0  0  0  0  0  0  0  0  0  0
    9.1252   -2.6366    0.0000 C   0  0  0  0  0  0  0  0  0  0  0  0
   10.2582   -3.2752    0.0000 C   0  0  0  0  0  0  0  0  0  0  0  0
   11.3911   -5.3145    0.0000 O   0  0  0  0  0  0  0  0  0  0  0  0
    9.1252   -1.3183    0.0000 C   0  0  0  0  0  0  0  0  0  0  0  0
   11.3911   -2.6366    0.0000 N   0  3  0  0  0  0  0  0  0  0  0  0
   12.5858   -4.6553    0.0000 C   0  0  0  0  0  0  0  0  0  0  0  0
   12.9566  -10.3406    0.0000 H   0  0  0  0  0  0  0  0  0  0  0  0
   14.1719  -16.4378    0.0000 H   0  0  0  0  0  0  0  0  0  0  0  0
   11.3705  -19.9190    0.0000 H   0  0  0  0  0  0  0  0  0  0  0  0
   17.6325  -12.9360    0.0000 H   0  0  0  0  0  0  0  0  0  0  0  0
   18.7860  -10.8967    0.0000 H   0  0  0  0  0  0  0  0  0  0  0  0
   11.7619   -1.4831    0.0000 C   0  0  0  0  0  0  0  0  0  0  0  0
    3.4400   -1.3183    0.0000 C   0  0  0  0  0  0  0  0  0  0  0  0
    3.4400    0.0000    0.0000 O   0  0  0  0  0  0  0  0  0  0  0  0
    2.3071   -1.9775    0.0000 C   0  0  0  0  0  0  0  0  0  0  0  0
    4.5935   -1.9775    0.0000 O   0  5  0  0  0  0  0  0  0  0  0  0
    1.1535   -1.3183    0.0000 C   0  0  0  0  0  0  0  0  0  0  0  0
    2.3071   -3.2958    0.0000 C   0  0  0  0  0  0  0  0  0  0  0  0
    0.0000   -1.9775    0.0000 C   0  0  0  0  0  0  0  0  0  0  0  0
    1.1535   -3.9550    0.0000 C   0  0  0  0  0  0  0  0  0  0  0  0
    0.0000   -3.2958    0.0000 C   0  0  0  0  0  0  0  0  0  0  0  0
  1  2  1  0  0  0  0
  1  3  1  0  0  0  0
  1  4  1  6  0  0  0
  1  5  1  1  0  0  0
  2  6  1  0  0  0  0
  3  7  1  0  0  0  0
  4  8  1  0  0  0  0
  5  9  2  0  0  0  0
  6 10  1  0  0  0  0
  6 11  1  1  0  0  0
  7 12  1  0  0  0  0
  7 10  1  0  0  0  0
  7 63  1  6  0  0  0
  8 13  1  0  0  0  0
  8 14  1  0  0  0  0
  8 66  1  6  0  0  0
  9 13  1  0  0  0  0
 11 15  1  0  0  0  0
 12 16  1  0  0  0  0
 13 17  1  6  0  0  0
 14 18  1  0  0  0  0
 14 19  1  0  0  0  0
 14 67  1  6  0  0  0
 15 20  1  0  0  0  0
 15 21  2  0  0  0  0
 16 22  2  0  0  0  0
 18 23  1  0  0  0  0
 20 24  1  0  0  0  0
 20 25  1  0  0  0  0
 20 64  1  1  0  0  0
 22 26  1  0  0  0  0
 22 27  1  0  0  0  0
 24 28  1  0  0  0  0
 24 29  1  0  0  0  0
 24 30  1  6  0  0  0
 25 31  2  0  0  0  0
 26 32  1  6  0  0  0
 26 33  1  0  0  0  0
 28 34  1  0  0  0  0
 28 35  1  0  0  0  0
 28 65  1  6  0  0  0
 29 36  1  0  0  0  0
 29 37  2  0  0  0  0
 31 38  1  0  0  0  0
 31 35  1  0  0  0  0
 39 32  1  6  0  0  0
 33 40  1  0  0  0  0
 33 41  1  6  0  0  0
 34 36  1  0  0  0  0
 35 42  1  1  0  0  0
 37 43  1  0  0  0  0
 39 44  1  0  0  0  0
 39 45  1  0  0  0  0
 40 43  2  0  0  0  0
 44 46  1  0  0  0  0
 45 47  1  0  0  0  0
 46 48  1  0  0  0  0
 46 49  1  1  0  0  0
 47 50  1  1  0  0  0
 47 48  1  0  0  0  0
 48 51  1  6  0  0  0
 49 52  1  0  0  0  0
 53 51  1  6  0  0  0
 53 54  1  0  0  0  0
 53 55  1  0  0  0  0
 54 56  1  0  0  0  0
 55 57  1  0  0  0  0
 56 58  1  0  0  0  0
 56 59  1  1  0  0  0
 57 60  1  1  0  0  0
 57 58  1  0  0  0  0
 58 61  1  6  0  0  0
 59 62  1  0  0  0  0
 61 68  1  0  0  0  0
 69 70  2  0  0  0  0
 69 71  1  0  0  0  0
 69 72  1  0  0  0  0
 71 73  2  0  0  0  0
 71 74  1  0  0  0  0
 73 75  1  0  0  0  0
 74 76  2  0  0  0  0
 75 77  2  0  0  0  0
 76 77  1  0  0  0  0
M  END
> <ID>
6832

> <Formula>
C56H81NO15

> <FW>
1008.2400 (887.1261+121.1139)

> <DSSTox_CID>
14566

> <DSSTox_RID>
79167

> <DSSTox_GSID>
34566

> <DSSTox_FileID_Sort>
3849

> <TS_ChemName>
Emamectin benzoate

> <TS_ChemName_Synonyms>
Emamectin benzoate (4''-Epimethylamino-4''-deoxyavermectin B1a and B1b benzoates)

> <TS_CASRN>
155569-91-8

> <CASRN_ChemName_Relationship>
primary

> <TS_Description>
mixture or formulation

> <ChemNote>
mixture of (4?R)-4?-deoxy-4?-(methylamino)avermectin B1a, B1b; structure shown B1a; stereochem; parent [119791-41-2, 137335-79-6]; ammonium; retired CASRN [137512-74-4]

> <STRUCTURE_Shown>
representative component

> <STRUCTURE_Formula>
C56H81NO15

> <STRUCTURE_MW>
1008.24

> <STRUCTURE_ChemType>
defined organic

> <STRUCTURE_DefinedOrganicForm>
complex

> <STRUCTURE_IUPAC>
(2aE,4E,5'S,6S,6'R,7S,8E,11R,13S,15S,17aR,20R,20aR,20bS)-6'-[(2S)-butan-2-yl]-20,20b-dihydroxy-5',6,8,19-tetramethyl-17-oxo-5',6,6',10,11,14,15,17,17a,20,20a,20b-dodecahydro-2H,7H-spiro[11,15-methanofuro[4,3,2-pq][2,6]benzodioxacyclooctadecine-13,2'-pyran

> <STRUCTURE_SMILES>
[O-]C(=O)c1ccccc1.CO[C@H]1C[C@@H](O[C@@H](C)[C@@H]1[NH2+]C)O[C@@H]2[C@@H](OC)C[C@@H](O[C@H]2C)O[C@@H]3C(C)=CC[C@@H]6C[C@H](OC(=O)[C@@H]4C=C(C)[C@@H](O)[C@H]5OCC(=CC=C[C@@H]3C)[C@@]45O)C[C@@]7(O6)C=C[C@H](C)[C@H](O7)[C@@H](C)CC

> <STRUCTURE_SMILES_Desalt>
CO[C@H]1C[C@@H](O[C@@H](C)[C@@H]1NC)O[C@@H]2[C@@H](OC)C[C@@H](O[C@H]2C)O[C@@H]3C(C)=CC[C@@H]6C[C@H](OC(=O)[C@@H]4C=C(C)[C@@H](O)[C@H]5OCC(=CC=C[C@@H]3C)[C@@]45O)C[C@@]7(O6)C=C[C@H](C)[C@H](O7)[C@@H](C)CC

> <Substance_modify_yyyymmdd>
20080429

$$$$
