1559-34-8
ChemmineR-0915142007XD

 17 16  0  0  0  0  0  0  0  0  1 V2000
    1.1536   -0.6775    0.0000 C   0  0  0  0  0  0  0  0  0  0  0  0
    2.2890    0.0000    0.0000 C   0  0  0  0  0  0  0  0  0  0  0  0
    3.4426   -0.6775    0.0000 O   0  0  0  0  0  0  0  0  0  0  0  0
    4.5779    0.0000    0.0000 C   0  0  0  0  0  0  0  0  0  0  0  0
    5.7132   -0.6775    0.0000 C   0  0  0  0  0  0  0  0  0  0  0  0
    6.8669    0.0000    0.0000 O   0  0  0  0  0  0  0  0  0  0  0  0
    8.0022   -0.6775    0.0000 C   0  0  0  0  0  0  0  0  0  0  0  0
    9.1558    0.0000    0.0000 C   0  0  0  0  0  0  0  0  0  0  0  0
   10.3095   -0.6775    0.0000 O   0  0  0  0  0  0  0  0  0  0  0  0
   11.4448    0.0000    0.0000 C   0  0  0  0  0  0  0  0  0  0  0  0
   12.5984   -0.6775    0.0000 C   0  0  0  0  0  0  0  0  0  0  0  0
   13.7337    0.0000    0.0000 O   0  0  0  0  0  0  0  0  0  0  0  0
   14.8691   -0.6775    0.0000 C   0  0  0  0  0  0  0  0  0  0  0  0
   16.0227    0.0000    0.0000 C   0  0  0  0  0  0  0  0  0  0  0  0
   17.1580   -0.6775    0.0000 C   0  0  0  0  0  0  0  0  0  0  0  0
   18.3116    0.0000    0.0000 C   0  0  0  0  0  0  0  0  0  0  0  0
    0.0000    0.0000    0.0000 O   0  0  0  0  0  0  0  0  0  0  0  0
  1  2  1  0  0  0  0
  1 17  1  0  0  0  0
  2  3  1  0  0  0  0
  3  4  1  0  0  0  0
  4  5  1  0  0  0  0
  5  6  1  0  0  0  0
  6  7  1  0  0  0  0
  7  8  1  0  0  0  0
  8  9  1  0  0  0  0
  9 10  1  0  0  0  0
 10 11  1  0  0  0  0
 11 12  1  0  0  0  0
 12 13  1  0  0  0  0
 13 14  1  0  0  0  0
 14 15  1  0  0  0  0
 15 16  1  0  0  0  0
M  END
> <ID>
5142

> <Formula>
C12H26O5

> <FW>
250.3318

> <DSSTox_CID>
7412

> <DSSTox_RID>
78444

> <DSSTox_GSID>
27412

> <DSSTox_FileID_Sort>
3127

> <TS_ChemName>
3,6,9,12-Tetraoxahexadecan-1-ol

> <TS_ChemName_Synonyms>


> <TS_CASRN>
1559-34-8

> <CASRN_ChemName_Relationship>
primary

> <TS_Description>
single chemical compound

> <ChemNote>


> <STRUCTURE_Shown>
tested chemical

> <STRUCTURE_Formula>
C12H26O5

> <STRUCTURE_MW>
250.3318

> <STRUCTURE_ChemType>
defined organic

> <STRUCTURE_DefinedOrganicForm>
parent

> <STRUCTURE_IUPAC>
3,6,9,12-tetraoxahexadecan-1-ol

> <STRUCTURE_SMILES>
OCCOCCOCCOCCOCCCC

> <STRUCTURE_SMILES_Desalt>
OCCOCCOCCOCCOCCCC

> <Substance_modify_yyyymmdd>
20080429

$$$$
