1559-35-9
ChemmineR-0915142007XD

 12 11  0  0  0  0  0  0  0  0  1 V2000
    1.1484   -0.7139    0.0000 C   0  0  0  0  0  0  0  0  0  0  0  0
    2.2865   -0.0414    0.0000 C   0  0  0  0  0  0  0  0  0  0  0  0
    0.0000   -0.0517    0.0000 O   0  0  0  0  0  0  0  0  0  0  0  0
    3.4453   -0.7139    0.0000 O   0  0  0  0  0  0  0  0  0  0  0  0
    4.5937   -0.0414    0.0000 C   0  0  0  0  0  0  0  0  0  0  0  0
    5.7318   -0.6932    0.0000 C   0  0  0  0  0  0  0  0  0  0  0  0
    6.8906   -0.0207    0.0000 C   0  0  0  0  0  0  0  0  0  0  0  0
    8.0390   -0.6932    0.0000 C   0  0  0  0  0  0  0  0  0  0  0  0
    9.1978    0.0000    0.0000 C   0  0  0  0  0  0  0  0  0  0  0  0
   10.3462   -0.6622    0.0000 C   0  0  0  0  0  0  0  0  0  0  0  0
    5.7318   -2.0072    0.0000 C   0  0  0  0  0  0  0  0  0  0  0  0
    6.8906   -2.6797    0.0000 C   0  0  0  0  0  0  0  0  0  0  0  0
  1  2  1  0  0  0  0
  1  3  1  0  0  0  0
  2  4  1  0  0  0  0
  4  5  1  0  0  0  0
  5  6  1  0  0  0  0
  6  7  1  0  0  0  0
  6 11  1  0  0  0  0
  7  8  1  0  0  0  0
  8  9  1  0  0  0  0
  9 10  1  0  0  0  0
 11 12  1  0  0  0  0
M  END
> <ID>
8866

> <Formula>
C10H22O2

> <FW>
174.2805

> <DSSTox_CID>
21920

> <DSSTox_RID>
79879

> <DSSTox_GSID>
41920

> <DSSTox_FileID_Sort>
4561

> <TS_ChemName>
2-(2-Ethylhexyloxy)ethanol

> <TS_ChemName_Synonyms>


> <TS_CASRN>
1559-35-9

> <CASRN_ChemName_Relationship>
primary

> <TS_Description>
single chemical compound

> <ChemNote>


> <STRUCTURE_Shown>
tested chemical

> <STRUCTURE_Formula>
C10H22O2

> <STRUCTURE_MW>
174.2805

> <STRUCTURE_ChemType>
defined organic

> <STRUCTURE_DefinedOrganicForm>
parent

> <STRUCTURE_IUPAC>
2-[(2-ethylhexyl)oxy]ethanol

> <STRUCTURE_SMILES>
OCCOCC(CCCC)CC

> <STRUCTURE_SMILES_Desalt>
OCCOCC(CCCC)CC

> <Substance_modify_yyyymmdd>
20080825

$$$$
