155990-20-8
ChemmineR-0915142007XD

 29 31  0  0  0  0  0  0  0  0  1 V2000
    5.7637   -6.6378    0.0000 C   0  0  0  0  0  0  0  0  0  0  0  0
    5.7637   -7.9679    0.0000 C   0  0  0  0  0  0  0  0  0  0  0  0
    4.6110   -5.9664    0.0000 C   0  0  0  0  0  0  0  0  0  0  0  0
    4.6110   -8.6266    0.0000 C   0  0  0  0  0  0  0  0  0  0  0  0
    3.4582   -6.6378    0.0000 C   0  0  0  0  0  0  0  0  0  0  0  0
    3.4582   -7.9679    0.0000 C   0  0  0  0  0  0  0  0  0  0  0  0
    6.9165   -5.9664    0.0000 C   0  0  0  0  0  0  0  0  0  0  0  0
    8.0692   -6.6378    0.0000 C   0  0  0  0  0  0  0  0  0  0  0  0
    6.9165   -8.6266    0.0000 S   0  0  0  0  0  0  0  0  0  0  0  0
    8.0692   -7.9679    0.0000 C   0  0  0  0  0  0  0  0  0  0  0  0
    9.2220   -5.9664    0.0000 C   0  0  0  0  0  0  0  0  0  0  0  0
   10.3621   -6.6378    0.0000 C   0  0  0  0  0  0  0  0  0  0  0  0
    9.2093   -8.6266    0.0000 C   0  0  0  0  0  0  0  0  0  0  0  0
   10.3621   -7.9679    0.0000 C   0  0  0  0  0  0  0  0  0  0  0  0
    6.9165   -4.6363    0.0000 O   0  0  0  0  0  0  0  0  0  0  0  0
   11.5148   -5.9664    0.0000 O   0  0  0  0  0  0  0  0  0  0  0  0
   12.6676   -6.6378    0.0000 C   0  0  0  0  0  0  0  0  0  0  0  0
    4.6110   -9.9567    0.0000 C   0  0  0  0  0  0  0  0  0  0  0  0
    3.4582  -10.6154    0.0000 N   0  0  0  0  0  0  0  0  0  0  0  0
    3.4582  -11.9455    0.0000 C   0  0  0  0  0  0  0  0  0  0  0  0
    2.3055  -12.6169    0.0000 O   0  0  0  0  0  0  0  0  0  0  0  0
    4.6110   -4.6363    0.0000 N   0  0  0  0  0  0  0  0  0  0  0  0
    3.4582   -3.9903    0.0000 C   0  0  0  0  0  0  0  0  0  0  0  0
    3.4582   -2.6602    0.0000 C   0  0  0  0  0  0  0  0  0  0  0  0
    2.3055   -1.9888    0.0000 N   0  0  0  0  0  0  0  0  0  0  0  0
    2.3055   -0.6587    0.0000 C   0  0  0  0  0  0  0  0  0  0  0  0
    1.1527   -2.6602    0.0000 C   0  0  0  0  0  0  0  0  0  0  0  0
    3.4582    0.0000    0.0000 C   0  0  0  0  0  0  0  0  0  0  0  0
    0.0000   -1.9888    0.0000 C   0  0  0  0  0  0  0  0  0  0  0  0
  1  3  2  0  0  0  0
  1  7  1  0  0  0  0
  1  2  1  0  0  0  0
  2  4  2  0  0  0  0
  2  9  1  0  0  0  0
  3  5  1  0  0  0  0
  3 22  1  0  0  0  0
  4  6  1  0  0  0  0
  4 18  1  0  0  0  0
  5  6  2  0  0  0  0
  7  8  1  0  0  0  0
  7 15  2  0  0  0  0
  8 11  1  0  0  0  0
  8 10  2  0  0  0  0
  9 10  1  0  0  0  0
 10 13  1  0  0  0  0
 11 12  2  0  0  0  0
 12 14  1  0  0  0  0
 12 16  1  0  0  0  0
 13 14  2  0  0  0  0
 16 17  1  0  0  0  0
 18 19  1  0  0  0  0
 19 20  1  0  0  0  0
 20 21  2  0  0  0  0
 22 23  1  0  0  0  0
 23 24  1  0  0  0  0
 24 25  1  0  0  0  0
 25 26  1  0  0  0  0
 25 27  1  0  0  0  0
 26 28  1  0  0  0  0
 27 29  1  0  0  0  0
M  END
> <ID>
12489

> <Formula>
C22H27N3O3S

> <FW>
413.5331

> <DSSTox_CID>
27347

> <DSSTox_RID>
82286

> <DSSTox_GSID>
47347

> <DSSTox_FileID_Sort>
6967

> <TS_ChemName>
SR271425

> <TS_ChemName_Synonyms>


> <TS_CASRN>
155990-20-8

> <CASRN_ChemName_Relationship>
primary

> <TS_Description>
single chemical compound

> <ChemNote>


> <STRUCTURE_Shown>
tested chemical

> <STRUCTURE_Formula>
C22H27N3O3S

> <STRUCTURE_MW>
413.5331

> <STRUCTURE_ChemType>
defined organic

> <STRUCTURE_DefinedOrganicForm>
parent

> <STRUCTURE_IUPAC>
N-[(1-{[2-(diethylamino)ethyl]amino}-7-methoxy-9-oxo-9H-thioxanthen-4-yl)methyl]formamide

> <STRUCTURE_SMILES>
CCN(CC)CCNc1ccc(CNC=O)c2Sc3ccc(OC)cc3C(=O)c12

> <STRUCTURE_SMILES_Desalt>
CCN(CC)CCNc1ccc(CNC=O)c2Sc3ccc(OC)cc3C(=O)c12

> <Substance_modify_yyyymmdd>
20130910

$$$$
