156-59-2
ChemmineR-0915142007XD

  4  3  0  0  0  0  0  0  0  0  1 V2000
    0.0000   -1.1443    0.0000 Cl   0  0  0  0  0  0  0  0  0  0  0  0
    2.6737   -1.1443    0.0000 Cl   0  0  0  0  0  0  0  0  0  0  0  0
    0.6657    0.0000    0.0000 C    0  0  0  0  0  0  0  0  0  0  0  0
    2.0079    0.0000    0.0000 C    0  0  0  0  0  0  0  0  0  0  0  0
  1  3  1  0  0  0  0
  2  4  1  0  0  0  0
  3  4  2  0  0  0  0
M  END
> <ID>
3471

> <Formula>
C2H2Cl2

> <FW>
96.9433

> <DSSTox_CID>
4030

> <DSSTox_RID>
77261

> <DSSTox_GSID>
24030

> <DSSTox_FileID_Sort>
1944

> <TS_ChemName>
(Z)-1,2-Dichloroethylene

> <TS_ChemName_Synonyms>
(Z)-1,2-Dichloroethylene (cis-1,2-Dichloroethylene)

> <TS_CASRN>
156-59-2

> <CASRN_ChemName_Relationship>
primary

> <TS_Description>
single chemical compound

> <ChemNote>
stereochem

> <STRUCTURE_Shown>
tested chemical

> <STRUCTURE_Formula>
C2H2Cl2

> <STRUCTURE_MW>
96.9433

> <STRUCTURE_ChemType>
defined organic

> <STRUCTURE_DefinedOrganicForm>
parent

> <STRUCTURE_IUPAC>
(Z)-1,2-dichloroethene

> <STRUCTURE_SMILES>
Cl\C=C/Cl

> <STRUCTURE_SMILES_Desalt>
Cl\C=C/Cl

> <Substance_modify_yyyymmdd>
20080429

$$$$
