156-54-7
ChemmineR-0915142007XD

  7  5  0  0  0  0  0  0  0  0  2 V2000
    3.4545   -1.3286    0.0000 C    0  0  0  0  0  0  0  0  0  0  0  0
    3.4545    0.0000    0.0000 O    0  0  0  0  0  0  0  0  0  0  0  0
    4.6104   -1.9996    0.0000 O    0  5  0  0  0  0  0  0  0  0  0  0
    2.3052   -1.9930    0.0000 C    0  0  0  0  0  0  0  0  0  0  0  0
    1.1559   -1.3353    0.0000 C    0  0  0  0  0  0  0  0  0  0  0  0
    0.0000   -1.9996    0.0000 C    0  0  0  0  0  0  0  0  0  0  0  0
    6.6432   -1.1293    0.0000 Na   0  3  0  0  0  0  0  0  0  0  0  0
  1  2  2  0  0  0  0
  1  3  1  0  0  0  0
  1  4  1  0  0  0  0
  4  5  1  0  0  0  0
  5  6  1  0  0  0  0
M  END
> <ID>
7392

> <Formula>
C4H7NaO2

> <FW>
110.0869 (87.0977+22.9892)

> <DSSTox_CID>
17672

> <DSSTox_RID>
79352

> <DSSTox_GSID>
37672

> <DSSTox_FileID_Sort>
4034

> <TS_ChemName>
Sodium butyrate

> <TS_ChemName_Synonyms>
Sodium butyrate (SB)

> <TS_CASRN>
156-54-7

> <CASRN_ChemName_Relationship>
primary

> <TS_Description>
single chemical compound

> <ChemNote>
parent [107-92-6 ]

> <STRUCTURE_Shown>
tested chemical

> <STRUCTURE_Formula>
C4H7NaO2

> <STRUCTURE_MW>
110.0869

> <STRUCTURE_ChemType>
defined organic

> <STRUCTURE_DefinedOrganicForm>
salt

> <STRUCTURE_IUPAC>
sodium butanoate

> <STRUCTURE_SMILES>
[Na+].[O-]C(=O)CCC

> <STRUCTURE_SMILES_Desalt>
CCCC(=O)O

> <Substance_modify_yyyymmdd>
20080429

$$$$
