156-06-9
ChemmineR-0915142007XD

 12 12  0  0  0  0  0  0  0  0  1 V2000
    5.7684   -1.3226    0.0000 C   0  0  0  0  0  0  0  0  0  0  0  0
    4.5912   -1.9805    0.0000 C   0  0  0  0  0  0  0  0  0  0  0  0
    5.7684    0.0000    0.0000 O   0  0  0  0  0  0  0  0  0  0  0  0
    4.5912   -3.3170    0.0000 O   0  0  0  0  0  0  0  0  0  0  0  0
    6.9248   -1.9805    0.0000 O   0  0  0  0  0  0  0  0  0  0  0  0
    3.4624   -1.3365    0.0000 C   0  0  0  0  0  0  0  0  0  0  0  0
    0.0000   -2.0774    0.0000 C   0  0  0  0  0  0  0  0  0  0  0  0
    0.0485   -3.4139    0.0000 C   0  0  0  0  0  0  0  0  0  0  0  0
    1.2049   -4.0579    0.0000 C   0  0  0  0  0  0  0  0  0  0  0  0
    2.3337   -3.3655    0.0000 C   0  0  0  0  0  0  0  0  0  0  0  0
    2.3060   -2.0290    0.0000 C   0  0  0  0  0  0  0  0  0  0  0  0
    1.1287   -1.3988    0.0000 C   0  0  0  0  0  0  0  0  0  0  0  0
  1  2  1  0  0  0  0
  1  3  2  0  0  0  0
  1  5  1  0  0  0  0
  2  4  2  0  0  0  0
  2  6  1  0  0  0  0
  6 11  1  0  0  0  0
  7 12  2  0  0  0  0
  7  8  1  0  0  0  0
  8  9  2  0  0  0  0
  9 10  1  0  0  0  0
 10 11  2  0  0  0  0
 11 12  1  0  0  0  0
M  END
> <ID>
9209

> <Formula>
C9H8O3

> <FW>
164.158

> <DSSTox_CID>
22281

> <DSSTox_RID>
79988

> <DSSTox_GSID>
42281

> <DSSTox_FileID_Sort>
4670

> <TS_ChemName>
Phenylpyruvic acid

> <TS_ChemName_Synonyms>


> <TS_CASRN>
156-06-9

> <CASRN_ChemName_Relationship>
primary

> <TS_Description>
single chemical compound

> <ChemNote>


> <STRUCTURE_Shown>
tested chemical

> <STRUCTURE_Formula>
C9H8O3

> <STRUCTURE_MW>
164.158

> <STRUCTURE_ChemType>
defined organic

> <STRUCTURE_DefinedOrganicForm>
parent

> <STRUCTURE_IUPAC>
2-oxo-3-phenylpropanoic acid

> <STRUCTURE_SMILES>
O=C(Cc1ccccc1)C(=O)O

> <STRUCTURE_SMILES_Desalt>
O=C(Cc1ccccc1)C(=O)O

> <Substance_modify_yyyymmdd>
20080825

$$$$
