156-10-5
ChemmineR-0915142007XD

 15 16  0  0  0  0  0  0  0  0  1 V2000
    5.7479    0.0000    0.0000 N   0  0  0  0  0  0  0  0  0  0  0  0
    4.5964   -0.6724    0.0000 C   0  0  0  0  0  0  0  0  0  0  0  0
    3.4450    0.0000    0.0000 C   0  0  0  0  0  0  0  0  0  0  0  0
    2.3028   -0.6724    0.0000 C   0  0  0  0  0  0  0  0  0  0  0  0
    2.3028   -2.0081    0.0000 C   0  0  0  0  0  0  0  0  0  0  0  0
    3.4450   -2.6621    0.0000 C   0  0  0  0  0  0  0  0  0  0  0  0
    4.5964   -2.0081    0.0000 C   0  0  0  0  0  0  0  0  0  0  0  0
    1.1514   -2.6621    0.0000 N   0  0  0  0  0  0  0  0  0  0  0  0
    6.9085   -0.6724    0.0000 C   0  0  0  0  0  0  0  0  0  0  0  0
    6.9085   -2.0081    0.0000 C   0  0  0  0  0  0  0  0  0  0  0  0
    8.0599   -2.6621    0.0000 C   0  0  0  0  0  0  0  0  0  0  0  0
    9.2113   -2.0081    0.0000 C   0  0  0  0  0  0  0  0  0  0  0  0
    9.2113   -0.6724    0.0000 C   0  0  0  0  0  0  0  0  0  0  0  0
    8.0599    0.0000    0.0000 C   0  0  0  0  0  0  0  0  0  0  0  0
    0.0000   -2.0081    0.0000 O   0  0  0  0  0  0  0  0  0  0  0  0
  1  2  1  0  0  0  0
  1  9  1  0  0  0  0
  2  3  1  0  0  0  0
  2  7  2  0  0  0  0
  3  4  2  0  0  0  0
  4  5  1  0  0  0  0
  5  6  2  0  0  0  0
  5  8  1  0  0  0  0
  6  7  1  0  0  0  0
  8 15  2  0  0  0  0
  9 10  2  0  0  0  0
  9 14  1  0  0  0  0
 10 11  1  0  0  0  0
 11 12  2  0  0  0  0
 12 13  1  0  0  0  0
 13 14  2  0  0  0  0
M  END
> <ID>
995

> <Formula>
C12H10N2O

> <FW>
198.2206

> <DSSTox_CID>
1031

> <DSSTox_RID>
75916

> <DSSTox_GSID>
21031

> <DSSTox_FileID_Sort>
600

> <TS_ChemName>
4-Nitrosodiphenylamine

> <TS_ChemName_Synonyms>
p-Nitrosodiphenylamine

> <TS_CASRN>
156-10-5

> <CASRN_ChemName_Relationship>
primary

> <TS_Description>
single chemical compound

> <ChemNote>


> <STRUCTURE_Shown>
tested chemical

> <STRUCTURE_Formula>
C12H10N2O

> <STRUCTURE_MW>
198.2206

> <STRUCTURE_ChemType>
defined organic

> <STRUCTURE_DefinedOrganicForm>
parent

> <STRUCTURE_IUPAC>
4-nitroso-N-phenylaniline

> <STRUCTURE_SMILES>
O=Nc2ccc(Nc1ccccc1)cc2

> <STRUCTURE_SMILES_Desalt>
O=Nc2ccc(Nc1ccccc1)cc2

> <Substance_modify_yyyymmdd>
20080429

$$$$
