156-57-0
ChemmineR-0915142007XD

  5  3  0  0  0  0  0  0  0  0  1 V2000
    1.7287   -1.9950    0.0000 Cl   0  0  0  0  0  0  0  0  0  0  0  0
    0.0000    0.0000    0.0000 N    0  0  0  0  0  0  0  0  0  0  0  0
    1.1513   -0.6638    0.0000 C    0  0  0  0  0  0  0  0  0  0  0  0
    2.3061    0.0000    0.0000 C    0  0  0  0  0  0  0  0  0  0  0  0
    3.4575   -0.6638    0.0000 S    0  0  0  0  0  0  0  0  0  0  0  0
  2  3  1  0  0  0  0
  3  4  1  0  0  0  0
  4  5  1  0  0  0  0
M  END
> <ID>
11189

> <Formula>
C2H8ClNS

> <FW>
113.6096 (36.4609+77.1487)

> <DSSTox_CID>
25779

> <DSSTox_RID>
81121

> <DSSTox_GSID>
45779

> <DSSTox_FileID_Sort>
5802

> <TS_ChemName>
Cysteamine hydrochloride

> <TS_ChemName_Synonyms>


> <TS_CASRN>
156-57-0

> <CASRN_ChemName_Relationship>
primary

> <TS_Description>
single chemical compound

> <ChemNote>
parent [60-23-1]

> <STRUCTURE_Shown>
tested chemical

> <STRUCTURE_Formula>
C2H8ClNS

> <STRUCTURE_MW>
113.6096

> <STRUCTURE_ChemType>
defined organic

> <STRUCTURE_DefinedOrganicForm>
complex

> <STRUCTURE_IUPAC>
2-aminoethanethiol hydrochloride (1:1)

> <STRUCTURE_SMILES>
Cl.NCCS

> <STRUCTURE_SMILES_Desalt>
NCCS

> <Substance_modify_yyyymmdd>
20110902

$$$$
