156052-68-5
ChemmineR-0915142007XD

 20 20  0  0  0  0  0  0  0  0  1 V2000
    5.3227   -3.1404    0.0000 C    0  0  0  0  0  0  0  0  0  0  0  0
    5.9934   -4.3008    0.0000 O    0  0  0  0  0  0  0  0  0  0  0  0
    3.9921   -3.1404    0.0000 C    0  0  0  0  0  0  0  0  0  0  0  0
    3.3320   -4.3008    0.0000 C    0  0  0  0  0  0  0  0  0  0  0  0
    3.3320   -1.9907    0.0000 C    0  0  0  0  0  0  0  0  0  0  0  0
    2.0013   -4.3008    0.0000 C    0  0  0  0  0  0  0  0  0  0  0  0
    2.0013   -1.9907    0.0000 C    0  0  0  0  0  0  0  0  0  0  0  0
    1.3307   -3.1404    0.0000 C    0  0  0  0  0  0  0  0  0  0  0  0
    5.9934   -1.9907    0.0000 N    0  0  0  0  0  0  0  0  0  0  0  0
    1.3307   -5.4505    0.0000 Cl   0  0  0  0  0  0  0  0  0  0  0  0
    1.3307   -0.8516    0.0000 Cl   0  0  0  0  0  0  0  0  0  0  0  0
    7.3241   -1.9907    0.0000 C    0  0  0  0  0  0  0  0  0  0  0  0
    8.6548   -1.9907    0.0000 C    0  0  0  0  0  0  0  0  0  0  0  0
    9.3148   -0.8516    0.0000 C    0  0  0  0  0  0  0  0  0  0  0  0
   10.6455   -0.8516    0.0000 Cl   0  0  0  0  0  0  0  0  0  0  0  0
    7.3241   -0.6600    0.0000 C    0  0  0  0  0  0  0  0  0  0  0  0
    6.1744    0.0000    0.0000 C    0  0  0  0  0  0  0  0  0  0  0  0
    7.3241   -3.3214    0.0000 C    0  0  0  0  0  0  0  0  0  0  0  0
    9.3148   -3.1404    0.0000 O    0  0  0  0  0  0  0  0  0  0  0  0
    0.0000   -3.1404    0.0000 C    0  0  0  0  0  0  0  0  0  0  0  0
  1  2  2  0  0  0  0
  1  3  1  0  0  0  0
  1  9  1  0  0  0  0
  3  4  2  0  0  0  0
  3  5  1  0  0  0  0
  4  6  1  0  0  0  0
  5  7  2  0  0  0  0
  6  8  2  0  0  0  0
  6 10  1  0  0  0  0
  7  8  1  0  0  0  0
  7 11  1  0  0  0  0
  8 20  1  0  0  0  0
  9 12  1  0  0  0  0
 12 13  1  0  0  0  0
 12 16  1  0  0  0  0
 12 18  1  0  0  0  0
 13 14  1  0  0  0  0
 13 19  2  0  0  0  0
 14 15  1  0  0  0  0
 16 17  1  0  0  0  0
M  END
> <ID>
6530

> <Formula>
C14H16Cl3NO2

> <FW>
336.6413

> <DSSTox_CID>
12581

> <DSSTox_RID>
78996

> <DSSTox_GSID>
32581

> <DSSTox_FileID_Sort>
3678

> <TS_ChemName>
Zoxamide

> <TS_ChemName_Synonyms>
Zoxamide (Benzamide, 3,5-dichloro-N-(3-chloro-1-ethyl-1-methyl-2-oxopropyl)-4-methyl-)

> <TS_CASRN>
156052-68-5

> <CASRN_ChemName_Relationship>
primary

> <TS_Description>
single chemical compound

> <ChemNote>


> <STRUCTURE_Shown>
tested chemical

> <STRUCTURE_Formula>
C14H16Cl3NO2

> <STRUCTURE_MW>
336.6413

> <STRUCTURE_ChemType>
defined organic

> <STRUCTURE_DefinedOrganicForm>
parent

> <STRUCTURE_IUPAC>
3,5-dichloro-N-(1-chloro-3-methyl-2-oxopentan-3-yl)-4-methylbenzamide

> <STRUCTURE_SMILES>
Clc1cc(cc(Cl)c1C)C(=O)NC(C)(CC)C(=O)CCl

> <STRUCTURE_SMILES_Desalt>
Clc1cc(cc(Cl)c1C)C(=O)NC(C)(CC)C(=O)CCl

> <Substance_modify_yyyymmdd>
20080429

$$$$
