1561-92-8
ChemmineR-0915142007XD

  9  7  0  0  0  0  0  0  0  0  2 V2000
    1.8072   -2.8038    0.0000 C    0  0  0  0  0  0  0  0  0  0  0  0
    3.1399   -2.8038    0.0000 C    0  0  0  0  0  0  0  0  0  0  0  0
    3.8122   -1.6490    0.0000 C    0  0  0  0  0  0  0  0  0  0  0  0
    1.1508   -1.6490    0.0000 S    0  0  0  0  0  0  0  0  0  0  0  0
    0.0000   -2.3213    0.0000 O    0  0  0  0  0  0  0  0  0  0  0  0
    2.3055   -0.9926    0.0000 O    0  5  0  0  0  0  0  0  0  0  0  0
    0.4785   -0.5141    0.0000 O    0  0  0  0  0  0  0  0  0  0  0  0
    3.8122   -3.9545    0.0000 C    0  0  0  0  0  0  0  0  0  0  0  0
    1.5699    0.0000    0.0000 Na   0  3  0  0  0  0  0  0  0  0  0  0
  1  2  1  0  0  0  0
  1  4  1  0  0  0  0
  2  3  2  0  0  0  0
  2  8  1  0  0  0  0
  4  5  2  0  0  0  0
  4  6  1  0  0  0  0
  4  7  2  0  0  0  0
M  END
> <ID>
10488

> <Formula>
C4H7NaO3S

> <FW>
158.1513 (135.1621+22.9892)

> <DSSTox_CID>
24840

> <DSSTox_RID>
80520

> <DSSTox_GSID>
44840

> <DSSTox_FileID_Sort>
5202

> <TS_ChemName>
Sodium 2-methylprop-2-ene-1-sulfonate

> <TS_ChemName_Synonyms>
Sodium 2-methylprop-2-ene-1-sulfonate (2-Propene-1-sulfonic acid, 2-methyl-, sodium salt)

> <TS_CASRN>
1561-92-8

> <CASRN_ChemName_Relationship>
primary

> <TS_Description>
single chemical compound

> <ChemNote>
parent [3934-16-5]

> <STRUCTURE_Shown>
tested chemical

> <STRUCTURE_Formula>
C4H7NaO3S

> <STRUCTURE_MW>
158.1513

> <STRUCTURE_ChemType>
defined organic

> <STRUCTURE_DefinedOrganicForm>
salt

> <STRUCTURE_IUPAC>
sodium 2-methylprop-2-ene-1-sulfonate

> <STRUCTURE_SMILES>
[Na+].C=C(C)CS([O-])(=O)=O

> <STRUCTURE_SMILES_Desalt>
C=C(C)CS(=O)(=O)O

> <Substance_modify_yyyymmdd>
20091116

$$$$
