156137-99-4
ChemmineR-0915142007XD

 48 52  0  0  1  0  0  0  0  0  2 V2000
    6.8014   -5.2632    0.0000 C    0  0  0  0  0  0  0  0  0  0  0  0
    5.6854   -5.9117    0.0000 C    0  0  0  0  0  0  0  0  0  0  0  0
    7.9325   -5.8513    0.0000 C    0  0  0  0  0  0  0  0  0  0  0  0
    9.0484   -5.2632    0.0000 C    0  0  0  0  0  0  0  0  0  0  0  0
    9.0484   -3.9662    0.0000 C    0  0  0  0  0  0  0  0  0  0  0  0
    6.8014   -3.9662    0.0000 C    0  0  0  0  0  0  0  0  0  0  0  0
    7.9325   -7.1634    0.0000 C    0  0  0  0  0  0  0  0  0  0  0  0
    5.6854   -7.1634    0.0000 C    0  0  0  0  0  0  0  0  0  0  0  0
    7.9325   -3.3027    0.0000 C    0  0  0  0  0  0  0  0  0  0  0  0
    6.8014   -7.7967    0.0000 C    0  0  0  0  0  0  0  0  0  0  0  0
    5.6854   -4.6147    0.0000 C    0  0  0  0  0  0  0  0  0  0  0  0
    4.5544   -5.2632    0.0000 C    0  0  0  0  0  0  0  0  0  0  0  0
   10.1041   -3.3027    0.0000 C    0  0  0  0  0  0  0  0  0  0  0  0
   11.2352   -5.2632    0.0000 C    0  0  0  0  0  0  0  0  0  0  0  0
    9.0484   -2.6542    0.0000 C    0  0  0  0  0  0  0  0  0  0  0  0
   11.2352   -3.9662    0.0000 C    0  0  0  0  0  0  0  0  0  0  0  0
    4.5544   -7.7967    0.0000 C    0  0  0  0  0  0  0  0  0  0  0  0
    3.4233   -5.9117    0.0000 C    0  0  0  0  0  0  0  0  0  0  0  0
    3.4233   -7.1634    0.0000 C    0  0  0  0  0  0  0  0  0  0  0  0
    7.9325   -4.5393    0.0000 H    0  0  0  0  0  0  0  0  0  0  0  0
    6.8014   -6.5601    0.0000 H    0  0  0  0  0  0  0  0  0  0  0  0
    8.9881   -6.5601    0.0000 H    0  0  0  0  0  0  0  0  0  0  0  0
    2.2923   -7.7967    0.0000 O    0  0  0  0  0  0  0  0  0  0  0  0
    2.2923   -9.1540    0.0000 C    0  0  0  0  0  0  0  0  0  0  0  0
    3.4233   -9.8176    0.0000 O    0  0  0  0  0  0  0  0  0  0  0  0
    1.1311   -9.8176    0.0000 C    0  0  0  0  0  0  0  0  0  0  0  0
   12.4265   -3.3027    0.0000 N    0  3  0  0  0  0  0  0  0  0  0  0
   11.7630   -2.1264    0.0000 C    0  0  0  0  0  0  0  0  0  0  0  0
   13.7235   -3.3027    0.0000 C    0  0  0  0  0  0  0  0  0  0  0  0
   12.4265   -0.9953    0.0000 C    0  0  0  0  0  0  0  0  0  0  0  0
   14.4172   -2.1867    0.0000 C    0  0  0  0  0  0  0  0  0  0  0  0
   13.7838   -0.9953    0.0000 C    0  0  0  0  0  0  0  0  0  0  0  0
   15.0807   -3.3027    0.0000 C    0  0  0  0  0  0  0  0  0  0  0  0
   14.3719   -4.4941    0.0000 C    0  0  0  0  0  0  0  0  0  0  0  0
   13.0599   -4.4337    0.0000 C    0  0  0  0  0  0  0  0  0  0  0  0
    2.2923   -5.2632    0.0000 N    0  0  0  0  0  0  0  0  0  0  0  0
    1.1914   -5.9117    0.0000 C    0  0  0  0  0  0  0  0  0  0  0  0
    2.2923   -3.9059    0.0000 C    0  0  0  0  0  0  0  0  0  0  0  0
    0.0000   -5.2632    0.0000 C    0  0  0  0  0  0  0  0  0  0  0  0
    1.1914   -3.2424    0.0000 C    0  0  0  0  0  0  0  0  0  0  0  0
    0.0000   -3.9059    0.0000 C    0  0  0  0  0  0  0  0  0  0  0  0
   10.1041   -1.9454    0.0000 O    0  0  0  0  0  0  0  0  0  0  0  0
    8.9278   -1.2969    0.0000 C    0  0  0  0  0  0  0  0  0  0  0  0
    8.9278    0.0000    0.0000 O    0  0  0  0  0  0  0  0  0  0  0  0
    7.8118   -2.0057    0.0000 C    0  0  0  0  0  0  0  0  0  0  0  0
    6.6204   -1.3573    0.0000 C    0  0  0  0  0  0  0  0  0  0  0  0
    5.6854   -8.5206    0.0000 H    0  0  0  0  0  0  0  0  0  0  0  0
   12.2154   -5.7156    0.0000 Br   0  5  0  0  0  0  0  0  0  0  0  0
  1  6  1  0  0  0  0
  1  2  1  0  0  0  0
  1 21  1  6  0  0  0
  1  3  1  0  0  0  0
  2  8  1  0  0  0  0
  2 11  1  1  0  0  0
  2 12  1  0  0  0  0
  3  4  1  0  0  0  0
  3  7  1  0  0  0  0
  3 20  1  1  0  0  0
  4 14  1  0  0  0  0
  4  5  1  0  0  0  0
  4 22  1  6  0  0  0
  5  9  1  0  0  0  0
  5 13  1  0  0  0  0
  5 15  1  1  0  0  0
  6  9  1  0  0  0  0
  7 10  1  0  0  0  0
  8 17  1  0  0  0  0
  8 10  1  0  0  0  0
  8 47  1  6  0  0  0
 12 18  1  0  0  0  0
 13 16  1  0  0  0  0
 13 42  1  1  0  0  0
 14 16  1  0  0  0  0
 16 27  1  1  0  0  0
 17 19  1  0  0  0  0
 18 19  1  0  0  0  0
 18 36  1  1  0  0  0
 19 23  1  6  0  0  0
 23 24  1  0  0  0  0
 24 25  2  0  0  0  0
 24 26  1  0  0  0  0
 27 28  1  0  0  0  0
 27 29  1  0  0  0  0
 27 35  1  0  0  0  0
 28 30  1  0  0  0  0
 29 31  1  0  0  0  0
 30 32  1  0  0  0  0
 31 32  1  0  0  0  0
 33 34  2  0  0  0  0
 34 35  1  0  0  0  0
 36 37  1  0  0  0  0
 36 38  1  0  0  0  0
 37 39  1  0  0  0  0
 38 40  1  0  0  0  0
 39 41  1  0  0  0  0
 40 41  1  0  0  0  0
 42 43  1  0  0  0  0
 43 44  2  0  0  0  0
 43 45  1  0  0  0  0
 45 46  1  0  0  0  0
M  END
> <ID>
13812

> <Formula>
C37H61BrN2O4

> <FW>
677.7952 (597.8907+79.9045)

> <DSSTox_CID>
28749

> <DSSTox_RID>
83018

> <DSSTox_GSID>
48823

> <DSSTox_FileID_Sort>
7695

> <TS_ChemName>
Rapacuronium bromide

> <TS_ChemName_Synonyms>


> <TS_CASRN>
156137-99-4

> <CASRN_ChemName_Relationship>
primary

> <TS_Description>
single chemical compound

> <ChemNote>


> <STRUCTURE_Shown>
tested chemical

> <STRUCTURE_Formula>
C37H61BrN2O4

> <STRUCTURE_MW>
677.7952

> <STRUCTURE_ChemType>
defined organic

> <STRUCTURE_DefinedOrganicForm>
salt

> <STRUCTURE_IUPAC>
(2beta,3alpha,5alpha,16beta,17beta)-3-(acetyloxy)-2-(piperidin-1-yl)-17-(propanoyloxy)-16-[1-(prop-2-en-1-yl)piperidinium-1-yl]androstane bromide

> <STRUCTURE_SMILES>
[Br-].C=CC[N+]1(CCCCC1)[C@H]6C[C@@H]5[C@](C)(CC[C@H]2[C@H]5CC[C@H]3C[C@H](OC(C)=O)[C@H](C[C@]23C)N4CCCCC4)[C@H]6OC(=O)CC

> <STRUCTURE_SMILES_Desalt>
C=CC[N+]1(CCCCC1)[C@H]6C[C@@H]5[C@](C)(CC[C@H]2[C@H]5CC[C@H]3C[C@H](OC(C)=O)[C@H](C[C@]23C)N4CCCCC4)[C@H]6OC(=O)CC

> <Substance_modify_yyyymmdd>
20111204

$$$$
