1562-94-3
ChemmineR-0915142007XD

 19 20  0  0  0  0  0  0  0  0  2 V2000
    7.3346   -1.3311    0.0000 N   0  0  0  0  0  0  0  0  0  0  0  0
    6.0034   -1.3311    0.0000 N   0  3  0  0  0  0  0  0  0  0  0  0
    4.6723   -1.3311    0.0000 C   0  0  0  0  0  0  0  0  0  0  0  0
    3.9934   -2.4892    0.0000 C   0  0  0  0  0  0  0  0  0  0  0  0
    2.6623   -2.4892    0.0000 C   0  0  0  0  0  0  0  0  0  0  0  0
    2.0100   -1.3311    0.0000 C   0  0  0  0  0  0  0  0  0  0  0  0
    0.6789   -1.3311    0.0000 O   0  0  0  0  0  0  0  0  0  0  0  0
    0.0000   -0.1864    0.0000 C   0  0  0  0  0  0  0  0  0  0  0  0
    2.6623   -0.1864    0.0000 C   0  0  0  0  0  0  0  0  0  0  0  0
    3.9934   -0.1864    0.0000 C   0  0  0  0  0  0  0  0  0  0  0  0
    8.6657   -1.3311    0.0000 C   0  0  0  0  0  0  0  0  0  0  0  0
    9.3180   -0.1864    0.0000 C   0  0  0  0  0  0  0  0  0  0  0  0
   10.6491   -0.1864    0.0000 C   0  0  0  0  0  0  0  0  0  0  0  0
   11.3280   -1.3311    0.0000 C   0  0  0  0  0  0  0  0  0  0  0  0
   12.6591   -1.3311    0.0000 O   0  0  0  0  0  0  0  0  0  0  0  0
   13.3114   -0.1864    0.0000 C   0  0  0  0  0  0  0  0  0  0  0  0
   10.6491   -2.4892    0.0000 C   0  0  0  0  0  0  0  0  0  0  0  0
    9.3180   -2.4892    0.0000 C   0  0  0  0  0  0  0  0  0  0  0  0
    6.0034    0.0000    0.0000 O   0  5  0  0  0  0  0  0  0  0  0  0
  1  2  2  0  0  0  0
  1 11  1  0  0  0  0
  2  3  1  0  0  0  0
  2 19  1  0  0  0  0
  3  4  2  0  0  0  0
  3 10  1  0  0  0  0
  4  5  1  0  0  0  0
  5  6  2  0  0  0  0
  6  7  1  0  0  0  0
  6  9  1  0  0  0  0
  7  8  1  0  0  0  0
  9 10  2  0  0  0  0
 11 12  2  0  0  0  0
 11 18  1  0  0  0  0
 12 13  1  0  0  0  0
 13 14  2  0  0  0  0
 14 15  1  0  0  0  0
 14 17  1  0  0  0  0
 15 16  1  0  0  0  0
 17 18  2  0  0  0  0
M  END
> <ID>
3739

> <Formula>
C14H14N2O3

> <FW>
258.2726

> <DSSTox_CID>
4554

> <DSSTox_RID>
77450

> <DSSTox_GSID>
24554

> <DSSTox_FileID_Sort>
2133

> <TS_ChemName>
4-Azoxyanisole

> <TS_ChemName_Synonyms>


> <TS_CASRN>
1562-94-3

> <CASRN_ChemName_Relationship>
primary

> <TS_Description>
single chemical compound

> <ChemNote>


> <STRUCTURE_Shown>
tested chemical

> <STRUCTURE_Formula>
C14H14N2O3

> <STRUCTURE_MW>
258.2726

> <STRUCTURE_ChemType>
defined organic

> <STRUCTURE_DefinedOrganicForm>
parent

> <STRUCTURE_IUPAC>
bis(4-methoxyphenyl)diazene oxide

> <STRUCTURE_SMILES>
COc2ccc(\N=[N+](\[O-])c1ccc(OC)cc1)cc2

> <STRUCTURE_SMILES_Desalt>
COc2ccc(\N=[N+](\[O-])c1ccc(OC)cc1)cc2

> <Substance_modify_yyyymmdd>
20080429

$$$$
