15625-89-5
ChemmineR-0915142007XD

 21 20  0  0  0  0  0  0  0  0  1 V2000
    8.0739   -5.0993    0.0000 C   0  0  0  0  0  0  0  0  0  0  0  0
    9.2243   -5.7730    0.0000 C   0  0  0  0  0  0  0  0  0  0  0  0
   10.3644   -5.0993    0.0000 C   0  0  0  0  0  0  0  0  0  0  0  0
    8.0739   -3.7726    0.0000 O   0  0  0  0  0  0  0  0  0  0  0  0
    6.9131   -5.7730    0.0000 O   0  0  0  0  0  0  0  0  0  0  0  0
    3.9488   -2.3113    0.0000 C   0  0  0  0  0  0  0  0  0  0  0  0
    4.6018   -1.1505    0.0000 C   0  0  0  0  0  0  0  0  0  0  0  0
    3.9488    0.0000    0.0000 C   0  0  0  0  0  0  0  0  0  0  0  0
    2.6118   -2.3113    0.0000 O   0  0  0  0  0  0  0  0  0  0  0  0
    4.6018   -3.4617    0.0000 O   0  0  0  0  0  0  0  0  0  0  0  0
    3.9488   -4.6225    0.0000 C   0  0  0  0  0  0  0  0  0  0  0  0
    4.6018   -5.7730    0.0000 C   0  0  0  0  0  0  0  0  0  0  0  0
    5.7626   -5.0993    0.0000 C   0  0  0  0  0  0  0  0  0  0  0  0
    5.2755   -6.9234    0.0000 C   0  0  0  0  0  0  0  0  0  0  0  0
    4.6018   -8.0635    0.0000 C   0  0  0  0  0  0  0  0  0  0  0  0
    3.4514   -6.4363    0.0000 C   0  0  0  0  0  0  0  0  0  0  0  0
    2.2905   -5.7730    0.0000 O   0  0  0  0  0  0  0  0  0  0  0  0
    1.1401   -6.4363    0.0000 C   0  0  0  0  0  0  0  0  0  0  0  0
    1.1401   -7.7629    0.0000 C   0  0  0  0  0  0  0  0  0  0  0  0
    2.2905   -8.4366    0.0000 C   0  0  0  0  0  0  0  0  0  0  0  0
    0.0000   -5.7730    0.0000 O   0  0  0  0  0  0  0  0  0  0  0  0
  1  2  1  0  0  0  0
  1  5  1  0  0  0  0
  1  4  2  0  0  0  0
  2  3  2  0  0  0  0
  5 13  1  0  0  0  0
  6  7  1  0  0  0  0
  6 10  1  0  0  0  0
  6  9  2  0  0  0  0
  7  8  2  0  0  0  0
 10 11  1  0  0  0  0
 11 12  1  0  0  0  0
 12 13  1  0  0  0  0
 12 14  1  0  0  0  0
 12 16  1  0  0  0  0
 14 15  1  0  0  0  0
 16 17  1  0  0  0  0
 17 18  1  0  0  0  0
 18 19  1  0  0  0  0
 18 21  2  0  0  0  0
 19 20  2  0  0  0  0
M  END
> <ID>
5383

> <Formula>
C15H20O6

> <FW>
296.3157

> <DSSTox_CID>
7773

> <DSSTox_RID>
78563

> <DSSTox_GSID>
27773

> <DSSTox_FileID_Sort>
3246

> <TS_ChemName>
Trimethylolpropane triacrylate

> <TS_ChemName_Synonyms>
Trimethylolpropane triacrylate (2-Propenoic acid, 2-ethyl-2-[[(1-oxo-2-propenyl)oxy]methyl]-1,3-propanediyl ester)

> <TS_CASRN>
15625-89-5

> <CASRN_ChemName_Relationship>
primary

> <TS_Description>
single chemical compound

> <ChemNote>


> <STRUCTURE_Shown>
tested chemical

> <STRUCTURE_Formula>
C15H20O6

> <STRUCTURE_MW>
296.3157

> <STRUCTURE_ChemType>
defined organic

> <STRUCTURE_DefinedOrganicForm>
parent

> <STRUCTURE_IUPAC>
2,2-bis[(acryloyloxy)methyl]butyl prop-2-enoate

> <STRUCTURE_SMILES>
O=C(C=C)OCC(COC(=O)C=C)(CC)COC(=O)C=C

> <STRUCTURE_SMILES_Desalt>
O=C(C=C)OCC(COC(=O)C=C)(CC)COC(=O)C=C

> <Substance_modify_yyyymmdd>
20080429

$$$$
