1562-00-1
ChemmineR-0915142007XD

  8  6  0  0  0  0  0  0  0  0  2 V2000
    1.2907   -2.5975    0.0000 C    0  0  0  0  0  0  0  0  0  0  0  0
    2.4200   -3.2536    0.0000 C    0  0  0  0  0  0  0  0  0  0  0  0
    1.2907   -1.2907    0.0000 S    0  0  0  0  0  0  0  0  0  0  0  0
    2.7373   -1.2907    0.0000 O    0  0  0  0  0  0  0  0  0  0  0  0
    1.2907    0.0000    0.0000 O    0  5  0  0  0  0  0  0  0  0  0  0
    0.0000   -1.2907    0.0000 O    0  0  0  0  0  0  0  0  0  0  0  0
    2.4200   -4.5927    0.0000 O    0  0  0  0  0  0  0  0  0  0  0  0
    5.3778   -2.2963    0.0000 Na   0  3  0  0  0  0  0  0  0  0  0  0
  1  2  1  0  0  0  0
  1  3  1  0  0  0  0
  2  7  1  0  0  0  0
  3  4  2  0  0  0  0
  3  5  1  0  0  0  0
  3  6  2  0  0  0  0
M  END
> <ID>
5143

> <Formula>
C2H5NaO4S

> <FW>
148.1135 (125.1242+22.9892)

> <DSSTox_CID>
7413

> <DSSTox_RID>
78445

> <DSSTox_GSID>
27413

> <DSSTox_FileID_Sort>
3128

> <TS_ChemName>
Sodium 2-hydroxyethanesulfonate

> <TS_ChemName_Synonyms>


> <TS_CASRN>
1562-00-1

> <CASRN_ChemName_Relationship>
primary

> <TS_Description>
single chemical compound

> <ChemNote>
parent [107-36-8]

> <STRUCTURE_Shown>
tested chemical

> <STRUCTURE_Formula>
C2H5NaO4S

> <STRUCTURE_MW>
148.1135

> <STRUCTURE_ChemType>
defined organic

> <STRUCTURE_DefinedOrganicForm>
salt

> <STRUCTURE_IUPAC>
sodium 2-hydroxyethanesulfonate

> <STRUCTURE_SMILES>
[Na+].[O-]S(=O)(=O)CCO

> <STRUCTURE_SMILES_Desalt>
OCCS(=O)(=O)O

> <Substance_modify_yyyymmdd>
20080429

$$$$
