1563-66-2
ChemmineR-0915142007XD

 16 17  0  0  0  0  0  0  0  0  1 V2000
    1.1508    0.0000    0.0000 O   0  0  0  0  0  0  0  0  0  0  0  0
    1.1508   -1.3238    0.0000 C   0  0  0  0  0  0  0  0  0  0  0  0
    0.0000   -1.9890    0.0000 N   0  0  0  0  0  0  0  0  0  0  0  0
    0.0000   -3.3195    0.0000 C   0  0  0  0  0  0  0  0  0  0  0  0
    2.3017   -1.9890    0.0000 O   0  0  0  0  0  0  0  0  0  0  0  0
    2.3017   -3.3195    0.0000 C   0  0  0  0  0  0  0  0  0  0  0  0
    1.1508   -3.9847    0.0000 C   0  0  0  0  0  0  0  0  0  0  0  0
    1.1508   -5.3151    0.0000 C   0  0  0  0  0  0  0  0  0  0  0  0
    2.3017   -5.9803    0.0000 C   0  0  0  0  0  0  0  0  0  0  0  0
    3.4525   -5.3151    0.0000 C   0  0  0  0  0  0  0  0  0  0  0  0
    4.7231   -5.7276    0.0000 C   0  0  0  0  0  0  0  0  0  0  0  0
    3.4525   -3.9847    0.0000 C   0  0  0  0  0  0  0  0  0  0  0  0
    4.7231   -3.5722    0.0000 O   0  0  0  0  0  0  0  0  0  0  0  0
    5.5014   -4.6499    0.0000 C   0  0  0  0  0  0  0  0  0  0  0  0
    6.6522   -5.3151    0.0000 C   0  0  0  0  0  0  0  0  0  0  0  0
    6.6522   -3.9847    0.0000 C   0  0  0  0  0  0  0  0  0  0  0  0
  1  2  2  0  0  0  0
  2  3  1  0  0  0  0
  2  5  1  0  0  0  0
  3  4  1  0  0  0  0
  5  6  1  0  0  0  0
  6  7  2  0  0  0  0
  6 12  1  0  0  0  0
  7  8  1  0  0  0  0
  8  9  2  0  0  0  0
  9 10  1  0  0  0  0
 10 11  1  0  0  0  0
 10 12  2  0  0  0  0
 11 14  1  0  0  0  0
 12 13  1  0  0  0  0
 13 14  1  0  0  0  0
 14 15  1  0  0  0  0
 14 16  1  0  0  0  0
M  END
> <ID>
245

> <Formula>
C12H15NO3

> <FW>
221.2524

> <DSSTox_CID>
249

> <DSSTox_RID>
75463

> <DSSTox_GSID>
20249

> <DSSTox_FileID_Sort>
147

> <TS_ChemName>
Carbofuran

> <TS_ChemName_Synonyms>
Carbofuran (7-Benzofuranol, 2,3-dihydro-2,2-dimethyl-, methylcarbamate)

> <TS_CASRN>
1563-66-2

> <CASRN_ChemName_Relationship>
primary

> <TS_Description>
single chemical compound

> <ChemNote>


> <STRUCTURE_Shown>
tested chemical

> <STRUCTURE_Formula>
C12H15NO3

> <STRUCTURE_MW>
221.2524

> <STRUCTURE_ChemType>
defined organic

> <STRUCTURE_DefinedOrganicForm>
parent

> <STRUCTURE_IUPAC>
2,2-dimethyl-2,3-dihydro-1-benzofuran-7-yl methylcarbamate

> <STRUCTURE_SMILES>
CNC(=O)Oc1cccc2CC(C)(C)Oc12

> <STRUCTURE_SMILES_Desalt>
CNC(=O)Oc1cccc2CC(C)(C)Oc12

> <Substance_modify_yyyymmdd>
20080429

$$$$
