1563-38-8
ChemmineR-0915142007XD

 12 13  0  0  0  0  0  0  0  0  1 V2000
    3.5679   -1.5863    0.0000 O   0  0  0  0  0  0  0  0  0  0  0  0
    2.3054   -2.0035    0.0000 C   0  0  0  0  0  0  0  0  0  0  0  0
    4.3364   -2.6732    0.0000 C   0  0  0  0  0  0  0  0  0  0  0  0
    2.3054   -3.3319    0.0000 C   0  0  0  0  0  0  0  0  0  0  0  0
    3.5679   -3.7435    0.0000 C   0  0  0  0  0  0  0  0  0  0  0  0
    1.1527   -1.3284    0.0000 C   0  0  0  0  0  0  0  0  0  0  0  0
    0.0000   -2.0035    0.0000 C   0  0  0  0  0  0  0  0  0  0  0  0
    0.0000   -3.3319    0.0000 C   0  0  0  0  0  0  0  0  0  0  0  0
    1.1527   -4.0015    0.0000 C   0  0  0  0  0  0  0  0  0  0  0  0
    1.1527    0.0000    0.0000 O   0  0  0  0  0  0  0  0  0  0  0  0
    5.4891   -2.0035    0.0000 C   0  0  0  0  0  0  0  0  0  0  0  0
    5.4891   -3.3319    0.0000 C   0  0  0  0  0  0  0  0  0  0  0  0
  1  2  1  0  0  0  0
  1  3  1  0  0  0  0
  2  4  2  0  0  0  0
  2  6  1  0  0  0  0
  3  5  1  0  0  0  0
  3 11  1  0  0  0  0
  3 12  1  0  0  0  0
  4  5  1  0  0  0  0
  4  9  1  0  0  0  0
  6  7  2  0  0  0  0
  6 10  1  0  0  0  0
  7  8  1  0  0  0  0
  8  9  2  0  0  0  0
M  END
> <ID>
5144

> <Formula>
C10H12O2

> <FW>
164.2011

> <DSSTox_CID>
7414

> <DSSTox_RID>
78446

> <DSSTox_GSID>
27414

> <DSSTox_FileID_Sort>
3129

> <TS_ChemName>
2,3-Dihydro-2,2-dimethyl-7-benzofuranol

> <TS_ChemName_Synonyms>


> <TS_CASRN>
1563-38-8

> <CASRN_ChemName_Relationship>
primary

> <TS_Description>
single chemical compound

> <ChemNote>


> <STRUCTURE_Shown>
tested chemical

> <STRUCTURE_Formula>
C10H12O2

> <STRUCTURE_MW>
164.2011

> <STRUCTURE_ChemType>
defined organic

> <STRUCTURE_DefinedOrganicForm>
parent

> <STRUCTURE_IUPAC>
2,2-dimethyl-2,3-dihydro-1-benzofuran-7-ol

> <STRUCTURE_SMILES>
Oc1cccc2CC(C)(C)Oc12

> <STRUCTURE_SMILES_Desalt>
Oc1cccc2CC(C)(C)Oc12

> <Substance_modify_yyyymmdd>
20080429

$$$$
