15639-50-6
ChemmineR-0915142007XD

 21 20  0  0  1  0  0  0  0  0  1 V2000
   20.7957   -1.3517    0.0000 C   0  0  0  0  0  0  0  0  0  0  0  0
   19.6104   -2.0172    0.0000 C   0  0  0  0  0  0  0  0  0  0  0  0
   18.4250   -1.3517    0.0000 C   0  0  0  0  0  0  0  0  0  0  0  0
   17.2604   -2.0172    0.0000 C   0  0  0  0  0  0  0  0  0  0  0  0
   16.0751   -1.3517    0.0000 C   0  0  0  0  0  0  0  0  0  0  0  0
   14.9105   -2.0172    0.0000 C   0  0  0  0  0  0  0  0  0  0  0  0
   13.7460   -1.3517    0.0000 C   0  0  0  0  0  0  0  0  0  0  0  0
   12.5606   -2.0172    0.0000 C   0  0  0  0  0  0  0  0  0  0  0  0
   11.3753   -1.3517    0.0000 C   0  0  0  0  0  0  0  0  0  0  0  0
   10.2107   -2.0172    0.0000 C   0  0  0  0  0  0  0  0  0  0  0  0
    9.0253   -1.3517    0.0000 C   0  0  0  0  0  0  0  0  0  0  0  0
    7.8400   -2.0172    0.0000 C   0  0  0  0  0  0  0  0  0  0  0  0
    6.6546   -1.3517    0.0000 C   0  0  0  0  0  0  0  0  0  0  0  0
    5.4901   -2.0172    0.0000 C   0  0  0  0  0  0  0  0  0  0  0  0
    4.3255   -1.3517    0.0000 C   0  0  0  0  0  0  0  0  0  0  0  0
    3.1609   -2.0172    0.0000 C   0  0  0  0  0  0  0  0  0  0  0  0
    3.1609   -3.3897    0.0000 O   0  0  0  0  0  0  0  0  0  0  0  0
    1.9756   -1.3517    0.0000 C   0  0  0  0  0  0  0  0  0  0  0  0
    1.9756    0.0000    0.0000 N   0  0  0  0  0  0  0  0  0  0  0  0
    0.7902   -2.0172    0.0000 C   0  0  0  0  0  0  0  0  0  0  0  0
    0.0000   -1.6013    0.0000 O   0  0  0  0  0  0  0  0  0  0  0  0
  1  2  1  0  0  0  0
  2  3  1  0  0  0  0
  3  4  1  0  0  0  0
  4  5  1  0  0  0  0
  5  6  1  0  0  0  0
  6  7  1  0  0  0  0
  7  8  1  0  0  0  0
  8  9  1  0  0  0  0
  9 10  1  0  0  0  0
 10 11  1  0  0  0  0
 11 12  1  0  0  0  0
 12 13  1  0  0  0  0
 13 14  1  0  0  0  0
 14 15  1  0  0  0  0
 15 16  1  0  0  0  0
 16 17  1  6  0  0  0
 16 18  1  0  0  0  0
 18 19  1  6  0  0  0
 18 20  1  0  0  0  0
 20 21  1  0  0  0  0
M  END
> <ID>
11178

> <Formula>
C18H39NO2

> <FW>
301.5078

> <DSSTox_CID>
25768

> <DSSTox_RID>
81110

> <DSSTox_GSID>
45768

> <DSSTox_FileID_Sort>
5791

> <TS_ChemName>
Safingol

> <TS_ChemName_Synonyms>


> <TS_CASRN>
15639-50-6

> <CASRN_ChemName_Relationship>
primary

> <TS_Description>
single chemical compound

> <ChemNote>
stereochem

> <STRUCTURE_Shown>
tested chemical

> <STRUCTURE_Formula>
C18H39NO2

> <STRUCTURE_MW>
301.5078

> <STRUCTURE_ChemType>
defined organic

> <STRUCTURE_DefinedOrganicForm>
parent

> <STRUCTURE_IUPAC>
(2S,3S)-2-aminooctadecane-1,3-diol

> <STRUCTURE_SMILES>
N[C@@H](CO)[C@@H](O)CCCCCCCCCCCCCCC

> <STRUCTURE_SMILES_Desalt>
N[C@@H](CO)[C@@H](O)CCCCCCCCCCCCCCC

> <Substance_modify_yyyymmdd>
20110826

$$$$
