1564-64-3
ChemmineR-0915142007XD

 15 17  0  0  0  0  0  0  0  0  1 V2000
    6.9100   -3.3237    0.0000 C    0  0  0  0  0  0  0  0  0  0  0  0
    0.0000   -3.3237    0.0000 C    0  0  0  0  0  0  0  0  0  0  0  0
    6.9100   -1.9901    0.0000 C    0  0  0  0  0  0  0  0  0  0  0  0
    0.0000   -1.9901    0.0000 C    0  0  0  0  0  0  0  0  0  0  0  0
    5.7561   -3.9871    0.0000 C    0  0  0  0  0  0  0  0  0  0  0  0
    1.1540   -3.9871    0.0000 C    0  0  0  0  0  0  0  0  0  0  0  0
    5.7561   -1.3267    0.0000 C    0  0  0  0  0  0  0  0  0  0  0  0
    1.1540   -1.3267    0.0000 C    0  0  0  0  0  0  0  0  0  0  0  0
    3.4550   -3.9871    0.0000 C    0  0  0  0  0  0  0  0  0  0  0  0
    4.6090   -3.3237    0.0000 C    0  0  0  0  0  0  0  0  0  0  0  0
    2.3010   -3.3237    0.0000 C    0  0  0  0  0  0  0  0  0  0  0  0
    4.6090   -1.9901    0.0000 C    0  0  0  0  0  0  0  0  0  0  0  0
    2.3010   -1.9901    0.0000 C    0  0  0  0  0  0  0  0  0  0  0  0
    3.4550   -1.3267    0.0000 C    0  0  0  0  0  0  0  0  0  0  0  0
    3.4550    0.0000    0.0000 Br   0  0  0  0  0  0  0  0  0  0  0  0
  1  3  1  0  0  0  0
  1  5  2  0  0  0  0
  2  4  2  0  0  0  0
  2  6  1  0  0  0  0
  3  7  2  0  0  0  0
  4  8  1  0  0  0  0
  5 10  1  0  0  0  0
  6 11  2  0  0  0  0
  7 12  1  0  0  0  0
  8 13  2  0  0  0  0
  9 10  2  0  0  0  0
  9 11  1  0  0  0  0
 10 12  1  0  0  0  0
 11 13  1  0  0  0  0
 12 14  2  0  0  0  0
 13 14  1  0  0  0  0
 14 15  1  0  0  0  0
M  END
> <ID>
14087

> <Formula>
C14H9Br

> <FW>
257.1253

> <DSSTox_CID>
29080

> <DSSTox_RID>
83299

> <DSSTox_GSID>
49224

> <DSSTox_FileID_Sort>
7974

> <TS_ChemName>
9-Bromoanthracene

> <TS_ChemName_Synonyms>


> <TS_CASRN>
1564-64-3

> <CASRN_ChemName_Relationship>
primary

> <TS_Description>
single chemical compound

> <ChemNote>


> <STRUCTURE_Shown>
tested chemical

> <STRUCTURE_Formula>
C14H9Br

> <STRUCTURE_MW>
257.1253

> <STRUCTURE_ChemType>
defined organic

> <STRUCTURE_DefinedOrganicForm>
parent

> <STRUCTURE_IUPAC>
9-bromoanthracene

> <STRUCTURE_SMILES>
Brc2c3ccccc3cc1ccccc12

> <STRUCTURE_SMILES_Desalt>
Brc2c3ccccc3cc1ccccc12

> <Substance_modify_yyyymmdd>
20111204

$$$$
