1565-94-2
ChemmineR-0915142007XD

 37 38  0  0  0  0  0  0  0  0  1 V2000
   12.6607   -1.1551    0.0000 C   0  0  0  0  0  0  0  0  0  0  0  0
   11.5282   -1.8345    0.0000 C   0  0  0  0  0  0  0  0  0  0  0  0
   13.3401   -2.3102    0.0000 C   0  0  0  0  0  0  0  0  0  0  0  0
   11.5282   -3.1708    0.0000 C   0  0  0  0  0  0  0  0  0  0  0  0
   14.6764   -2.3102    0.0000 C   0  0  0  0  0  0  0  0  0  0  0  0
   10.3731   -1.1551    0.0000 C   0  0  0  0  0  0  0  0  0  0  0  0
   12.6607   -3.4653    0.0000 C   0  0  0  0  0  0  0  0  0  0  0  0
    9.2180   -3.1708    0.0000 C   0  0  0  0  0  0  0  0  0  0  0  0
   14.6764   -4.6203    0.0000 C   0  0  0  0  0  0  0  0  0  0  0  0
   10.3731   -3.8276    0.0000 C   0  0  0  0  0  0  0  0  0  0  0  0
   13.3401   -4.6203    0.0000 C   0  0  0  0  0  0  0  0  0  0  0  0
    9.2180   -1.8345    0.0000 C   0  0  0  0  0  0  0  0  0  0  0  0
   15.3332   -3.4653    0.0000 C   0  0  0  0  0  0  0  0  0  0  0  0
    8.0630   -3.8276    0.0000 O   0  0  0  0  0  0  0  0  0  0  0  0
   15.3332   -5.7754    0.0000 O   0  0  0  0  0  0  0  0  0  0  0  0
   12.0038    0.0000    0.0000 C   0  0  0  0  0  0  0  0  0  0  0  0
   13.8157   -0.4983    0.0000 C   0  0  0  0  0  0  0  0  0  0  0  0
   16.6468   -5.7754    0.0000 C   0  0  0  0  0  0  0  0  0  0  0  0
   17.3263   -6.9079    0.0000 C   0  0  0  0  0  0  0  0  0  0  0  0
   18.6626   -6.9079    0.0000 C   0  0  0  0  0  0  0  0  0  0  0  0
   16.6468   -8.0630    0.0000 O   0  0  0  0  0  0  0  0  0  0  0  0
   19.3194   -8.0630    0.0000 O   0  0  0  0  0  0  0  0  0  0  0  0
   20.6557   -8.0630    0.0000 C   0  0  0  0  0  0  0  0  0  0  0  0
   21.3125   -9.2180    0.0000 C   0  0  0  0  0  0  0  0  0  0  0  0
   21.3125   -6.9079    0.0000 O   0  0  0  0  0  0  0  0  0  0  0  0
   20.6557  -10.3731    0.0000 C   0  0  0  0  0  0  0  0  0  0  0  0
   22.6487   -9.2180    0.0000 C   0  0  0  0  0  0  0  0  0  0  0  0
    6.9079   -3.1708    0.0000 C   0  0  0  0  0  0  0  0  0  0  0  0
    5.7528   -3.8276    0.0000 C   0  0  0  0  0  0  0  0  0  0  0  0
    4.5977   -3.1708    0.0000 C   0  0  0  0  0  0  0  0  0  0  0  0
    5.7528   -5.1413    0.0000 O   0  0  0  0  0  0  0  0  0  0  0  0
    3.4426   -3.8276    0.0000 O   0  0  0  0  0  0  0  0  0  0  0  0
    2.2875   -3.1708    0.0000 C   0  0  0  0  0  0  0  0  0  0  0  0
    1.1551   -3.8276    0.0000 C   0  0  0  0  0  0  0  0  0  0  0  0
    0.0000   -3.1708    0.0000 C   0  0  0  0  0  0  0  0  0  0  0  0
    1.1551   -5.1413    0.0000 C   0  0  0  0  0  0  0  0  0  0  0  0
    2.2875   -1.8345    0.0000 O   0  0  0  0  0  0  0  0  0  0  0  0
  1  2  1  0  0  0  0
  1  3  1  0  0  0  0
  1 16  1  0  0  0  0
  1 17  1  0  0  0  0
  2  4  1  0  0  0  0
  2  6  2  0  0  0  0
  3  5  2  0  0  0  0
  3  7  1  0  0  0  0
  4 10  2  0  0  0  0
  5 13  1  0  0  0  0
  6 12  1  0  0  0  0
  7 11  2  0  0  0  0
  8 12  2  0  0  0  0
  8 14  1  0  0  0  0
  8 10  1  0  0  0  0
  9 11  1  0  0  0  0
  9 15  1  0  0  0  0
  9 13  2  0  0  0  0
 14 28  1  0  0  0  0
 15 18  1  0  0  0  0
 18 19  1  0  0  0  0
 19 20  1  0  0  0  0
 19 21  1  0  0  0  0
 20 22  1  0  0  0  0
 22 23  1  0  0  0  0
 23 24  1  0  0  0  0
 23 25  2  0  0  0  0
 24 26  1  0  0  0  0
 24 27  2  0  0  0  0
 28 29  1  0  0  0  0
 29 30  1  0  0  0  0
 29 31  1  0  0  0  0
 30 32  1  0  0  0  0
 32 33  1  0  0  0  0
 33 34  1  0  0  0  0
 33 37  2  0  0  0  0
 34 35  2  0  0  0  0
 34 36  1  0  0  0  0
M  END
> <ID>
10489

> <Formula>
C29H36O8

> <FW>
512.5913

> <DSSTox_CID>
24841

> <DSSTox_RID>
80521

> <DSSTox_GSID>
44841

> <DSSTox_FileID_Sort>
5203

> <TS_ChemName>
Bisphenol A glycidyl methacrylate

> <TS_ChemName_Synonyms>
Bisphenol A-glycidyl methacrylate (2-Propenoic acid, 2-methyl-, (1-methylethylidene)bis[4,1-phenyleneoxy(2-hydroxy-3,1-propanediyl)] ester)

> <TS_CASRN>
1565-94-2

> <CASRN_ChemName_Relationship>
primary

> <TS_Description>
single chemical compound

> <ChemNote>


> <STRUCTURE_Shown>
tested chemical

> <STRUCTURE_Formula>
C29H36O8

> <STRUCTURE_MW>
512.5913

> <STRUCTURE_ChemType>
defined organic

> <STRUCTURE_DefinedOrganicForm>
parent

> <STRUCTURE_IUPAC>
propane-2,2-diylbis(benzene-4,1-diyloxy-2-hydroxypropane-3,1-diyl) bis(2-methylprop-2-enoate)

> <STRUCTURE_SMILES>
C=C(C)C(=O)OCC(O)COc1ccc(cc1)C(C)(C)c2ccc(OCC(O)COC(=O)C(=C)C)cc2

> <STRUCTURE_SMILES_Desalt>
C=C(C)C(=O)OCC(O)COc1ccc(cc1)C(C)(C)c2ccc(OCC(O)COC(=O)C(=C)C)cc2

> <Substance_modify_yyyymmdd>
20091116

$$$$
