156601-79-5
ChemmineR-0915142007XD

 24 27  0  0  0  0  0  0  0  0  1 V2000
    2.2943    0.0000    0.0000 C   0  0  0  0  0  0  0  0  0  0  0  0
    1.1524   -0.6600    0.0000 O   0  0  0  0  0  0  0  0  0  0  0  0
    1.1524   -1.9905    0.0000 C   0  0  0  0  0  0  0  0  0  0  0  0
    0.0000   -2.6610    0.0000 C   0  0  0  0  0  0  0  0  0  0  0  0
    0.0000   -3.9915    0.0000 C   0  0  0  0  0  0  0  0  0  0  0  0
    1.1524   -4.6515    0.0000 N   0  0  0  0  0  0  0  0  0  0  0  0
    2.2943   -3.9915    0.0000 C   0  0  0  0  0  0  0  0  0  0  0  0
    2.2943   -2.6610    0.0000 C   0  0  0  0  0  0  0  0  0  0  0  0
    3.3420   -1.8334    0.0000 C   0  0  0  0  0  0  0  0  0  0  0  0
    4.6411   -2.1372    0.0000 C   0  0  0  0  0  0  0  0  0  0  0  0
    5.2173   -3.3210    0.0000 C   0  0  0  0  0  0  0  0  0  0  0  0
    4.6411   -4.5258    0.0000 C   0  0  0  0  0  0  0  0  0  0  0  0
    3.3420   -4.8296    0.0000 C   0  0  0  0  0  0  0  0  0  0  0  0
    3.0486   -6.1287    0.0000 S   0  0  0  0  0  0  0  0  0  0  0  0
    1.7600   -6.5163    0.0000 O   0  0  0  0  0  0  0  0  0  0  0  0
    4.0229   -7.0297    0.0000 C   0  0  0  0  0  0  0  0  0  0  0  0
    5.3220   -6.7678    0.0000 N   0  0  0  0  0  0  0  0  0  0  0  0
    5.9820   -7.9306    0.0000 C   0  0  0  0  0  0  0  0  0  0  0  0
    7.2706   -8.2345    0.0000 C   0  0  0  0  0  0  0  0  0  0  0  0
    7.6687   -9.5021    0.0000 C   0  0  0  0  0  0  0  0  0  0  0  0
    6.7573  -10.4764    0.0000 C   0  0  0  0  0  0  0  0  0  0  0  0
    5.4687  -10.1831    0.0000 C   0  0  0  0  0  0  0  0  0  0  0  0
    5.0706   -8.9050    0.0000 C   0  0  0  0  0  0  0  0  0  0  0  0
    3.8658   -8.3392    0.0000 N   0  0  0  0  0  0  0  0  0  0  0  0
  1  2  1  0  0  0  0
  2  3  1  0  0  0  0
  3  4  2  0  0  0  0
  3  8  1  0  0  0  0
  4  5  1  0  0  0  0
  5  6  2  0  0  0  0
  6  7  1  0  0  0  0
  7  8  2  0  0  0  0
  7 13  1  0  0  0  0
  8  9  1  0  0  0  0
  9 10  1  0  0  0  0
 10 11  1  0  0  0  0
 11 12  1  0  0  0  0
 12 13  1  0  0  0  0
 13 14  1  0  0  0  0
 14 15  2  0  0  0  0
 14 16  1  0  0  0  0
 16 17  2  0  0  0  0
 16 24  1  0  0  0  0
 17 18  1  0  0  0  0
 18 19  2  0  0  0  0
 18 23  1  0  0  0  0
 19 20  1  0  0  0  0
 20 21  2  0  0  0  0
 21 22  1  0  0  0  0
 22 23  2  0  0  0  0
 23 24  1  0  0  0  0
M  END
> <ID>
16057

> <Formula>
C18H19N3O2S

> <FW>
341.4274

> <DSSTox_CID>
31442

> <DSSTox_RID>
97328

> <DSSTox_GSID>
57653

> <DSSTox_FileID_Sort>
8395

> <TS_ChemName>
Nepaprazole

> <TS_ChemName_Synonyms>


> <TS_CASRN>
156601-79-5

> <CASRN_ChemName_Relationship>
primary

> <TS_Description>
single chemical compound

> <ChemNote>


> <STRUCTURE_Shown>
tested chemical

> <STRUCTURE_Formula>
C18H19N3O2S

> <STRUCTURE_MW>
341.4274

> <STRUCTURE_ChemType>
defined organic

> <STRUCTURE_DefinedOrganicForm>
parent

> <STRUCTURE_IUPAC>
9-(1H-benzimidazol-2-ylsulfinyl)-4-methoxy-6,7,8,9-tetrahydro-5H-cyclohepta[b]pyridine

> <STRUCTURE_SMILES>
COc4ccnc1c4CCCCC1S(=O)c2nc3ccccc3n2

> <STRUCTURE_SMILES_Desalt>
COc4ccnc1c4CCCCC1S(=O)c2nc3ccccc3n2

> <Substance_modify_yyyymmdd>
20131018

$$$$
