156727-74-1
ChemmineR-0915142007XD

 33 35  0  0  1  0  0  0  0  0  1 V2000
   13.8324   -5.3351    0.0000 C   0  0  0  0  0  0  0  0  0  0  0  0
   12.6785   -5.9945    0.0000 C   0  0  0  0  0  0  0  0  0  0  0  0
   12.6785   -7.3283    0.0000 N   0  0  0  0  0  0  0  0  0  0  0  0
   13.8324   -7.9877    0.0000 C   0  0  0  0  0  0  0  0  0  0  0  0
   14.9864   -7.3283    0.0000 C   0  0  0  0  0  0  0  0  0  0  0  0
   11.5245   -7.9877    0.0000 C   0  0  0  0  0  0  0  0  0  0  0  0
   11.5245   -9.3215    0.0000 O   0  0  0  0  0  0  0  0  0  0  0  0
   10.3706   -7.3283    0.0000 C   0  0  0  0  0  0  0  0  0  0  0  0
    9.2166   -7.9877    0.0000 C   0  0  0  0  0  0  0  0  0  0  0  0
    8.0627   -7.3283    0.0000 C   0  0  0  0  0  0  0  0  0  0  0  0
    8.0627   -5.9945    0.0000 C   0  0  0  0  0  0  0  0  0  0  0  0
    9.2166   -5.3351    0.0000 C   0  0  0  0  0  0  0  0  0  0  0  0
   10.3706   -5.9945    0.0000 C   0  0  0  0  0  0  0  0  0  0  0  0
    6.9237   -5.3351    0.0000 C   0  0  0  0  0  0  0  0  0  0  0  0
    5.7698   -5.9945    0.0000 N   0  0  0  0  0  0  0  0  0  0  0  0
    5.7698   -7.3283    0.0000 C   0  0  0  0  0  0  0  0  0  0  0  0
    4.6158   -7.9877    0.0000 C   0  0  0  0  0  0  0  0  0  0  0  0
    4.6158   -9.3215    0.0000 C   0  0  0  0  0  0  0  0  0  0  0  0
    3.4619   -7.3283    0.0000 N   0  0  0  0  0  0  0  0  0  0  0  0
    2.3079   -7.9877    0.0000 C   0  0  0  0  0  0  0  0  0  0  0  0
    1.1540   -7.3283    0.0000 C   0  0  0  0  0  0  0  0  0  0  0  0
    0.0000   -7.9877    0.0000 C   0  0  0  0  0  0  0  0  0  0  0  0
    3.4619   -5.9945    0.0000 C   0  0  0  0  0  0  0  0  0  0  0  0
    4.6158   -5.3351    0.0000 C   0  0  0  0  0  0  0  0  0  0  0  0
    4.6158   -4.0014    0.0000 C   0  0  0  0  0  0  0  0  0  0  0  0
    6.9237   -4.0014    0.0000 C   0  0  0  0  0  0  0  0  0  0  0  0
    5.7698   -3.3270    0.0000 C   0  0  0  0  0  0  0  0  0  0  0  0
    5.7698   -1.9932    0.0000 C   0  0  0  0  0  0  0  0  0  0  0  0
    6.9237   -1.3338    0.0000 C   0  0  0  0  0  0  0  0  0  0  0  0
    8.0627   -1.9932    0.0000 C   0  0  0  0  0  0  0  0  0  0  0  0
    8.0627   -3.3270    0.0000 C   0  0  0  0  0  0  0  0  0  0  0  0
    9.2166   -1.3338    0.0000 O   0  0  0  0  0  0  0  0  0  0  0  0
    9.2166    0.0000    0.0000 C   0  0  0  0  0  0  0  0  0  0  0  0
  1  2  1  0  0  0  0
  2  3  1  0  0  0  0
  3  4  1  0  0  0  0
  3  6  1  0  0  0  0
  4  5  1  0  0  0  0
  6  7  2  0  0  0  0
  6  8  1  0  0  0  0
  8  9  2  0  0  0  0
  8 13  1  0  0  0  0
  9 10  1  0  0  0  0
 10 11  2  0  0  0  0
 11 12  1  0  0  0  0
 11 14  1  0  0  0  0
 12 13  2  0  0  0  0
 14 15  1  1  0  0  0
 14 26  1  0  0  0  0
 15 16  1  0  0  0  0
 15 24  1  0  0  0  0
 16 17  1  0  0  0  0
 17 18  1  1  0  0  0
 17 19  1  0  0  0  0
 19 20  1  0  0  0  0
 19 23  1  0  0  0  0
 20 21  1  0  0  0  0
 21 22  2  0  0  0  0
 23 24  1  0  0  0  0
 24 25  1  6  0  0  0
 26 27  2  0  0  0  0
 26 31  1  0  0  0  0
 27 28  1  0  0  0  0
 28 29  2  0  0  0  0
 29 30  1  0  0  0  0
 30 31  2  0  0  0  0
 30 32  1  0  0  0  0
 32 33  1  0  0  0  0
M  END
> <ID>
11107

> <Formula>
C28H39N3O2

> <FW>
449.6282

> <DSSTox_CID>
25662

> <DSSTox_RID>
81039

> <DSSTox_GSID>
45662

> <DSSTox_FileID_Sort>
5720

> <TS_ChemName>
SNC 80

> <TS_ChemName_Synonyms>


> <TS_CASRN>
156727-74-1

> <CASRN_ChemName_Relationship>
primary

> <TS_Description>
single chemical compound

> <ChemNote>
stereochem

> <STRUCTURE_Shown>
tested chemical

> <STRUCTURE_Formula>
C28H39N3O2

> <STRUCTURE_MW>
449.6282

> <STRUCTURE_ChemType>
defined organic

> <STRUCTURE_DefinedOrganicForm>
parent

> <STRUCTURE_IUPAC>
4-[(R)-[(2S,5R)-2,5-dimethyl-4-(prop-2-en-1-yl)piperazin-1-yl](3-methoxyphenyl)methyl]-N,N-diethylbenzamide

> <STRUCTURE_SMILES>
CCN(CC)C(=O)c1ccc(cc1)[C@H](c2cc(OC)ccc2)N3C[C@@H](C)N(C[C@@H]3C)CC=C

> <STRUCTURE_SMILES_Desalt>
CCN(CC)C(=O)c1ccc(cc1)[C@H](c2cc(OC)ccc2)N3C[C@@H](C)N(C[C@@H]3C)CC=C

> <Substance_modify_yyyymmdd>
20100107

$$$$
