15686-71-2
ChemmineR-0915142007XD

 26 28  0  0  1  0  0  0  0  0  1 V2000
    8.6242   -4.1108    0.0000 N   0  0  0  0  0  0  0  0  0  0  0  0
    7.1116   -4.1108    0.0000 C   0  0  0  0  0  0  0  0  0  0  0  0
    7.1116   -2.6836    0.0000 C   0  0  0  0  0  0  0  0  0  0  0  0
    8.6242   -2.6836    0.0000 C   0  0  0  0  0  0  0  0  0  0  0  0
    9.7708   -4.8183    0.0000 C   0  0  0  0  0  0  0  0  0  0  0  0
    5.7942   -2.6958    0.0000 N   0  0  0  0  0  0  0  0  0  0  0  0
    9.7708   -2.0005    0.0000 S   0  0  0  0  0  0  0  0  0  0  0  0
    4.6231   -2.0127    0.0000 C   0  0  0  0  0  0  0  0  0  0  0  0
   11.0150   -4.1108    0.0000 C   0  0  0  0  0  0  0  0  0  0  0  0
    9.7708   -6.1113    0.0000 C   0  0  0  0  0  0  0  0  0  0  0  0
    3.4643   -2.6836    0.0000 C   0  0  0  0  0  0  0  0  0  0  0  0
   11.0150   -2.6836    0.0000 C   0  0  0  0  0  0  0  0  0  0  0  0
    6.2943   -5.0867    0.0000 O   0  0  0  0  0  0  0  0  0  0  0  0
    4.6231   -0.9881    0.0000 O   0  0  0  0  0  0  0  0  0  0  0  0
   10.9296   -6.8310    0.0000 O   0  0  0  0  0  0  0  0  0  0  0  0
    2.3055   -2.0127    0.0000 C   0  0  0  0  0  0  0  0  0  0  0  0
    3.4643   -4.0132    0.0000 N   0  0  0  0  0  0  0  0  0  0  0  0
    8.6973   -6.8310    0.0000 O   0  0  0  0  0  0  0  0  0  0  0  0
   12.1982   -4.7207    0.0000 C   0  0  0  0  0  0  0  0  0  0  0  0
    2.3055   -0.6831    0.0000 C   0  0  0  0  0  0  0  0  0  0  0  0
    1.1710   -2.6836    0.0000 C   0  0  0  0  0  0  0  0  0  0  0  0
    0.0000   -2.0127    0.0000 C   0  0  0  0  0  0  0  0  0  0  0  0
    1.1710    0.0000    0.0000 C   0  0  0  0  0  0  0  0  0  0  0  0
    0.0000   -0.6831    0.0000 C   0  0  0  0  0  0  0  0  0  0  0  0
    7.1116   -1.5736    0.0000 H   0  0  0  0  0  0  0  0  0  0  0  0
    8.6242   -1.6590    0.0000 H   0  0  0  0  0  0  0  0  0  0  0  0
  1  2  1  0  0  0  0
  1  4  1  0  0  0  0
  1  5  1  0  0  0  0
  2 13  2  0  0  0  0
  2  3  1  0  0  0  0
  3  4  1  0  0  0  0
  3  6  1  1  0  0  0
  3 25  1  6  0  0  0
  4  7  1  0  0  0  0
  4 26  1  6  0  0  0
  5  9  2  0  0  0  0
  5 10  1  0  0  0  0
  6  8  1  0  0  0  0
  7 12  1  0  0  0  0
  8 11  1  0  0  0  0
  8 14  2  0  0  0  0
  9 12  1  0  0  0  0
  9 19  1  0  0  0  0
 10 15  2  0  0  0  0
 10 18  1  0  0  0  0
 11 16  1  0  0  0  0
 11 17  1  6  0  0  0
 16 20  1  0  0  0  0
 16 21  2  0  0  0  0
 20 23  2  0  0  0  0
 21 22  1  0  0  0  0
 22 24  2  0  0  0  0
 23 24  1  0  0  0  0
M  END
> <ID>
2518

> <Formula>
C16H17N3O4S

> <FW>
347.3889

> <DSSTox_CID>
2780

> <DSSTox_RID>
76726

> <DSSTox_GSID>
22780

> <DSSTox_FileID_Sort>
1410

> <TS_ChemName>
Cephalexin

> <TS_ChemName_Synonyms>


> <TS_CASRN>
15686-71-2

> <CASRN_ChemName_Relationship>
primary

> <TS_Description>
single chemical compound

> <ChemNote>
stereochem

> <STRUCTURE_Shown>
tested chemical

> <STRUCTURE_Formula>
C16H17N3O4S

> <STRUCTURE_MW>
347.3889

> <STRUCTURE_ChemType>
defined organic

> <STRUCTURE_DefinedOrganicForm>
parent

> <STRUCTURE_IUPAC>
(6R,7R)-7-{[(2R)-2-amino-2-phenylacetyl]amino}-3-methyl-8-oxo-5-thia-1-azabicyclo[4.2.0]oct-2-ene-2-carboxylic acid

> <STRUCTURE_SMILES>
CC=3CS[C@H]2N(C(=O)[C@H]2NC(=O)[C@H](N)c1ccccc1)C=3C(=O)O

> <STRUCTURE_SMILES_Desalt>
CC=3CS[C@H]2N(C(=O)[C@H]2NC(=O)[C@H](N)c1ccccc1)C=3C(=O)O

> <Substance_modify_yyyymmdd>
20080429

$$$$
