15686-72-3
ChemmineR-0915142007XD

 17 18  0  0  0  0  0  0  0  0  1 V2000
    3.4302   -2.6656    0.0000 C    0  0  0  0  0  0  0  0  0  0  0  0
    4.5770   -1.9837    0.0000 C    0  0  0  0  0  0  0  0  0  0  0  0
    3.2856   -3.9778    0.0000 C    0  0  0  0  0  0  0  0  0  0  0  0
    2.2110   -2.1180    0.0000 S    0  0  0  0  0  0  0  0  0  0  0  0
    5.7136   -2.6656    0.0000 N    0  0  0  0  0  0  0  0  0  0  0  0
    4.5770   -0.6716    0.0000 O    0  0  0  0  0  0  0  0  0  0  0  0
    1.9941   -4.2671    0.0000 C    0  0  0  0  0  0  0  0  0  0  0  0
    1.3122   -3.1099    0.0000 C    0  0  0  0  0  0  0  0  0  0  0  0
    6.8707   -1.9837    0.0000 C    0  0  0  0  0  0  0  0  0  0  0  0
    1.4465   -5.4863    0.0000 Br   0  0  0  0  0  0  0  0  0  0  0  0
    0.0000   -2.9653    0.0000 Br   0  0  0  0  0  0  0  0  0  0  0  0
    6.8707   -0.6716    0.0000 C    0  0  0  0  0  0  0  0  0  0  0  0
    8.0176   -2.6656    0.0000 C    0  0  0  0  0  0  0  0  0  0  0  0
    8.0176    0.0000    0.0000 C    0  0  0  0  0  0  0  0  0  0  0  0
    9.1748   -1.9837    0.0000 C    0  0  0  0  0  0  0  0  0  0  0  0
    9.1748   -0.6716    0.0000 C    0  0  0  0  0  0  0  0  0  0  0  0
   10.3319    0.0000    0.0000 Br   0  0  0  0  0  0  0  0  0  0  0  0
  1  2  1  0  0  0  0
  1  3  2  0  0  0  0
  1  4  1  0  0  0  0
  2  5  1  0  0  0  0
  2  6  2  0  0  0  0
  3  7  1  0  0  0  0
  4  8  1  0  0  0  0
  5  9  1  0  0  0  0
  7 10  1  0  0  0  0
  7  8  2  0  0  0  0
  8 11  1  0  0  0  0
  9 12  2  0  0  0  0
  9 13  1  0  0  0  0
 12 14  1  0  0  0  0
 13 15  2  0  0  0  0
 14 16  2  0  0  0  0
 15 16  1  0  0  0  0
 16 17  1  0  0  0  0
M  END
> <ID>
11455

> <Formula>
C11H6Br3NOS

> <FW>
439.9484

> <DSSTox_CID>
26156

> <DSSTox_RID>
81387

> <DSSTox_GSID>
46156

> <DSSTox_FileID_Sort>
6068

> <TS_ChemName>
Tibrofan

> <TS_ChemName_Synonyms>


> <TS_CASRN>
15686-72-3

> <CASRN_ChemName_Relationship>
primary

> <TS_Description>
single chemical compound

> <ChemNote>


> <STRUCTURE_Shown>
tested chemical

> <STRUCTURE_Formula>
C11H6Br3NOS

> <STRUCTURE_MW>
439.9484

> <STRUCTURE_ChemType>
defined organic

> <STRUCTURE_DefinedOrganicForm>
parent

> <STRUCTURE_IUPAC>
4,5-dibromo-N-(4-bromophenyl)thiophene-2-carboxamide

> <STRUCTURE_SMILES>
O=C(Nc1ccc(Br)cc1)c2cc(Br)c(Br)s2

> <STRUCTURE_SMILES_Desalt>
O=C(Nc1ccc(Br)cc1)c2cc(Br)c(Br)s2

> <Substance_modify_yyyymmdd>
20110818

$$$$
