15687-14-6
ChemmineR-0915142007XD

 21 21  0  0  0  0  0  0  0  0  1 V2000
    0.3074   -6.4735    0.0000 C   0  0  0  0  0  0  0  0  0  0  0  0
    0.9594   -5.3185    0.0000 C   0  0  0  0  0  0  0  0  0  0  0  0
    2.2913   -5.3185    0.0000 C   0  0  0  0  0  0  0  0  0  0  0  0
    3.6233   -5.3185    0.0000 C   0  0  0  0  0  0  0  0  0  0  0  0
    4.2939   -6.4735    0.0000 C   0  0  0  0  0  0  0  0  0  0  0  0
    2.2913   -6.6505    0.0000 C   0  0  0  0  0  0  0  0  0  0  0  0
    3.4463   -7.3304    0.0000 N   0  0  0  0  0  0  0  0  0  0  0  0
    3.4463   -8.6530    0.0000 C   0  0  0  0  0  0  0  0  0  0  0  0
    2.2913   -9.3144    0.0000 O   0  0  0  0  0  0  0  0  0  0  0  0
    4.6013   -9.3144    0.0000 C   0  0  0  0  0  0  0  0  0  0  0  0
    5.7563   -8.6530    0.0000 C   0  0  0  0  0  0  0  0  0  0  0  0
    6.9113   -9.3144    0.0000 C   0  0  0  0  0  0  0  0  0  0  0  0
    8.0662   -8.6530    0.0000 O   0  0  0  0  0  0  0  0  0  0  0  0
    2.2913   -3.9959    0.0000 C   0  0  0  0  0  0  0  0  0  0  0  0
    1.1550   -3.3345    0.0000 C   0  0  0  0  0  0  0  0  0  0  0  0
    1.1550   -2.0026    0.0000 C   0  0  0  0  0  0  0  0  0  0  0  0
    2.2913   -1.3320    0.0000 C   0  0  0  0  0  0  0  0  0  0  0  0
    3.4463   -2.0026    0.0000 C   0  0  0  0  0  0  0  0  0  0  0  0
    3.4463   -3.3345    0.0000 C   0  0  0  0  0  0  0  0  0  0  0  0
    0.0000   -1.3320    0.0000 O   0  0  0  0  0  0  0  0  0  0  0  0
    0.0000    0.0000    0.0000 C   0  0  0  0  0  0  0  0  0  0  0  0
  1  2  1  0  0  0  0
  2  3  1  0  0  0  0
  3  4  1  0  0  0  0
  3  6  1  0  0  0  0
  3 14  1  0  0  0  0
  4  5  1  0  0  0  0
  6  7  1  0  0  0  0
  7  8  1  0  0  0  0
  8  9  2  0  0  0  0
  8 10  1  0  0  0  0
 10 11  1  0  0  0  0
 11 12  1  0  0  0  0
 12 13  1  0  0  0  0
 14 15  2  0  0  0  0
 14 19  1  0  0  0  0
 15 16  1  0  0  0  0
 16 17  2  0  0  0  0
 16 20  1  0  0  0  0
 17 18  1  0  0  0  0
 18 19  2  0  0  0  0
 20 21  1  0  0  0  0
M  END
> <ID>
16058

> <Formula>
C17H27NO3

> <FW>
293.4012

> <DSSTox_CID>
31443

> <DSSTox_RID>
97329

> <DSSTox_GSID>
57654

> <DSSTox_FileID_Sort>
8396

> <TS_ChemName>
Embutramide

> <TS_ChemName_Synonyms>


> <TS_CASRN>
15687-14-6

> <CASRN_ChemName_Relationship>
primary

> <TS_Description>
single chemical compound

> <ChemNote>


> <STRUCTURE_Shown>
tested chemical

> <STRUCTURE_Formula>
C17H27NO3

> <STRUCTURE_MW>
293.4012

> <STRUCTURE_ChemType>
defined organic

> <STRUCTURE_DefinedOrganicForm>
parent

> <STRUCTURE_IUPAC>
N-[2-ethyl-2-(3-methoxyphenyl)butyl]-4-hydroxybutanamide

> <STRUCTURE_SMILES>
COc1cc(ccc1)C(CC)(CC)CNC(=O)CCCO

> <STRUCTURE_SMILES_Desalt>
COc1cc(ccc1)C(CC)(CC)CNC(=O)CCCO

> <Substance_modify_yyyymmdd>
20131018

$$$$
