15706-73-7
ChemmineR-0915142007XD

 11 10  0  0  0  0  0  0  0  0  1 V2000
    3.4491   -1.3244    0.0000 C   0  0  0  0  0  0  0  0  0  0  0  0
    3.4491    0.0000    0.0000 O   0  0  0  0  0  0  0  0  0  0  0  0
    4.5988   -1.9959    0.0000 O   0  0  0  0  0  0  0  0  0  0  0  0
    2.2994   -1.9959    0.0000 C   0  0  0  0  0  0  0  0  0  0  0  0
    1.1497   -1.3244    0.0000 C   0  0  0  0  0  0  0  0  0  0  0  0
    0.0000   -1.9959    0.0000 C   0  0  0  0  0  0  0  0  0  0  0  0
    2.2994   -3.3203    0.0000 C   0  0  0  0  0  0  0  0  0  0  0  0
    5.7485   -1.3244    0.0000 C   0  0  0  0  0  0  0  0  0  0  0  0
    6.8982   -1.9959    0.0000 C   0  0  0  0  0  0  0  0  0  0  0  0
    8.0478   -1.3244    0.0000 C   0  0  0  0  0  0  0  0  0  0  0  0
    9.1975   -1.9959    0.0000 C   0  0  0  0  0  0  0  0  0  0  0  0
  1  2  2  0  0  0  0
  1  3  1  0  0  0  0
  1  4  1  0  0  0  0
  3  8  1  0  0  0  0
  4  5  1  0  0  0  0
  4  7  1  0  0  0  0
  5  6  1  0  0  0  0
  8  9  1  0  0  0  0
  9 10  1  0  0  0  0
 10 11  1  0  0  0  0
M  END
> <ID>
12200

> <Formula>
C9H18O2

> <FW>
158.238

> <DSSTox_CID>
27046

> <DSSTox_RID>
82067

> <DSSTox_GSID>
47046

> <DSSTox_FileID_Sort>
6748

> <TS_ChemName>
Butyl 2-methylbutyrate

> <TS_ChemName_Synonyms>


> <TS_CASRN>
15706-73-7

> <CASRN_ChemName_Relationship>
primary

> <TS_Description>
single chemical compound

> <ChemNote>
mixture of (2R)- [72447-49-5],(2S)- [72447-48-4]  isomers; structure shown without stereochem

> <STRUCTURE_Shown>
tested chemical

> <STRUCTURE_Formula>
C9H18O2

> <STRUCTURE_MW>
158.238

> <STRUCTURE_ChemType>
defined organic

> <STRUCTURE_DefinedOrganicForm>
parent

> <STRUCTURE_IUPAC>
butyl 2-methylbutanoate

> <STRUCTURE_SMILES>
O=C(OCCCC)C(C)CC

> <STRUCTURE_SMILES_Desalt>
O=C(OCCCC)C(C)CC

> <Substance_modify_yyyymmdd>
20100429

$$$$
