15708-41-5
ChemmineR-0915142007XD

 22 19  0  0  0  0  0  0  0  0  2 V2000
    5.1866   -2.0111    0.0000 C    0  0  0  0  0  0  0  0  0  0  0  0
    5.1866   -5.9880    0.0000 C    0  0  0  0  0  0  0  0  0  0  0  0
   10.9931   -1.3307    0.0000 C    0  0  0  0  0  0  0  0  0  0  0  0
   10.9931   -5.3075    0.0000 C    0  0  0  0  0  0  0  0  0  0  0  0
    6.3358   -3.9920    0.0000 N    0  0  0  0  0  0  0  0  0  0  0  0
    9.8136   -3.3267    0.0000 N    0  0  0  0  0  0  0  0  0  0  0  0
    4.0374   -1.3458    0.0000 O    0  0  0  0  0  0  0  0  0  0  0  0
   12.1121   -1.9809    0.0000 O    0  0  0  0  0  0  0  0  0  0  0  0
    5.1866   -7.3186    0.0000 O    0  0  0  0  0  0  0  0  0  0  0  0
    9.8136   -5.9729    0.0000 O    0  0  0  0  0  0  0  0  0  0  0  0
    5.1866   -3.3418    0.0000 C    0  0  0  0  0  0  0  0  0  0  0  0
    6.3358   -5.3378    0.0000 C    0  0  0  0  0  0  0  0  0  0  0  0
    9.8136   -1.9809    0.0000 C    0  0  0  0  0  0  0  0  0  0  0  0
   10.9931   -3.9769    0.0000 C    0  0  0  0  0  0  0  0  0  0  0  0
    8.6644   -3.9769    0.0000 C    0  0  0  0  0  0  0  0  0  0  0  0
    7.5001   -3.3267    0.0000 C    0  0  0  0  0  0  0  0  0  0  0  0
    4.0374   -5.3378    0.0000 O    0  5  0  0  0  0  0  0  0  0  0  0
   12.1121   -5.9729    0.0000 O    0  5  0  0  0  0  0  0  0  0  0  0
   10.9931    0.0000    0.0000 O    0  5  0  0  0  0  0  0  0  0  0  0
    6.3358   -1.3458    0.0000 O    0  5  0  0  0  0  0  0  0  0  0  0
    0.0000   -3.0545    0.0000 Fe   0  1  0  0  0  0  0  0  0  0  0  0
   15.1212   -4.0676    0.0000 Na   0  3  0  0  0  0  0  0  0  0  0  0
  1  7  2  0  0  0  0
  1 11  1  0  0  0  0
  1 20  1  0  0  0  0
  2 12  1  0  0  0  0
  2  9  2  0  0  0  0
  2 17  1  0  0  0  0
  3 13  1  0  0  0  0
  3  8  2  0  0  0  0
  3 19  1  0  0  0  0
  4 14  1  0  0  0  0
  4 10  2  0  0  0  0
  4 18  1  0  0  0  0
  5 11  1  0  0  0  0
  5 12  1  0  0  0  0
  5 16  1  0  0  0  0
  6 15  1  0  0  0  0
  6 13  1  0  0  0  0
  6 14  1  0  0  0  0
 15 16  1  0  0  0  0
M  END
> <ID>
5384

> <Formula>
C10H12FeN2NaO8

> <FW>
367.0456 (288.2131+55.8434+22.9892)

> <DSSTox_CID>
7774

> <DSSTox_RID>
78564

> <DSSTox_GSID>
27774

> <DSSTox_FileID_Sort>
3247

> <TS_ChemName>
Ethylenediaminetetraacetic acid ferric sodium salt

> <TS_ChemName_Synonyms>
Ethylenediaminetetraacetic acid ferric sodium salt (Ferrate(1-), [[N,N'-1,2-ethanediylbis[N-[(carboxy-.kappa.O)methyl]glycinato-.kappa.N,.kappa.O]](4-)]-, sodium, (OC-6-21)-(

> <TS_CASRN>
15708-41-5

> <CASRN_ChemName_Relationship>
primary

> <TS_Description>
single chemical compound

> <ChemNote>
parent [60-00-4]

> <STRUCTURE_Shown>
tested chemical

> <STRUCTURE_Formula>
C10H12FeN2NaO8

> <STRUCTURE_MW>
367.0456

> <STRUCTURE_ChemType>
organometallic

> <STRUCTURE_DefinedOrganicForm>


> <STRUCTURE_IUPAC>
iron(3+) sodium 2,2',2'',2'''-(ethane-1,2-diyldinitrilo)tetraacetate (1:1:1)

> <STRUCTURE_SMILES>
[Fe+3].[Na+].[O-]C(=O)CN(CC([O-])=O)CCN(CC([O-])=O)CC([O-])=O

> <STRUCTURE_SMILES_Desalt>
O=C(O)CN(CCN(CC(=O)O)CC(=O)O)CC(=O)O

> <Substance_modify_yyyymmdd>
20080429

$$$$
