15707-24-1
ChemmineR-0915142007XD

 10 10  0  0  0  0  0  0  0  0  1 V2000
    1.1593   -1.3348    0.0000 N   0  0  0  0  0  0  0  0  0  0  0  0
    1.1593   -3.9831    0.0000 N   0  0  0  0  0  0  0  0  0  0  0  0
    2.3133   -1.9942    0.0000 C   0  0  0  0  0  0  0  0  0  0  0  0
    0.0000   -3.3237    0.0000 C   0  0  0  0  0  0  0  0  0  0  0  0
    2.3133   -3.3078    0.0000 C   0  0  0  0  0  0  0  0  0  0  0  0
    0.0000   -1.9942    0.0000 C   0  0  0  0  0  0  0  0  0  0  0  0
    3.4567   -1.3189    0.0000 C   0  0  0  0  0  0  0  0  0  0  0  0
    3.4567    0.0000    0.0000 C   0  0  0  0  0  0  0  0  0  0  0  0
    3.4726   -3.9831    0.0000 C   0  0  0  0  0  0  0  0  0  0  0  0
    3.4726   -5.3180    0.0000 C   0  0  0  0  0  0  0  0  0  0  0  0
  1  3  2  0  0  0  0
  1  6  1  0  0  0  0
  2  4  1  0  0  0  0
  2  5  2  0  0  0  0
  3  5  1  0  0  0  0
  3  7  1  0  0  0  0
  4  6  2  0  0  0  0
  5  9  1  0  0  0  0
  7  8  1  0  0  0  0
  9 10  1  0  0  0  0
M  END
> <ID>
12251

> <Formula>
C8H12N2

> <FW>
136.1943

> <DSSTox_CID>
27101

> <DSSTox_RID>
82111

> <DSSTox_GSID>
47101

> <DSSTox_FileID_Sort>
6792

> <TS_ChemName>
2,3-Diethylpyrazine

> <TS_ChemName_Synonyms>


> <TS_CASRN>
15707-24-1

> <CASRN_ChemName_Relationship>
primary

> <TS_Description>
single chemical compound

> <ChemNote>


> <STRUCTURE_Shown>
tested chemical

> <STRUCTURE_Formula>
C8H12N2

> <STRUCTURE_MW>
136.1943

> <STRUCTURE_ChemType>
defined organic

> <STRUCTURE_DefinedOrganicForm>
parent

> <STRUCTURE_IUPAC>
2,3-diethylpyrazine

> <STRUCTURE_SMILES>
CCc1nccnc1CC

> <STRUCTURE_SMILES_Desalt>
CCc1nccnc1CC

> <Substance_modify_yyyymmdd>
20100429

$$$$
