15707-23-0
ChemmineR-0915142007XD

  9  9  0  0  0  0  0  0  0  0  1 V2000
    1.1551    0.0000    0.0000 N   0  0  0  0  0  0  0  0  0  0  0  0
    1.1551   -2.6487    0.0000 N   0  0  0  0  0  0  0  0  0  0  0  0
    2.3141   -0.6572    0.0000 C   0  0  0  0  0  0  0  0  0  0  0  0
    0.0000   -1.9756    0.0000 C   0  0  0  0  0  0  0  0  0  0  0  0
    2.3141   -1.9756    0.0000 C   0  0  0  0  0  0  0  0  0  0  0  0
    0.0000   -0.6413    0.0000 C   0  0  0  0  0  0  0  0  0  0  0  0
    3.4692   -2.6487    0.0000 C   0  0  0  0  0  0  0  0  0  0  0  0
    3.4533   -3.9830    0.0000 C   0  0  0  0  0  0  0  0  0  0  0  0
    3.4533    0.0000    0.0000 C   0  0  0  0  0  0  0  0  0  0  0  0
  1  3  2  0  0  0  0
  1  6  1  0  0  0  0
  2  4  1  0  0  0  0
  2  5  2  0  0  0  0
  3  5  1  0  0  0  0
  3  9  1  0  0  0  0
  4  6  2  0  0  0  0
  5  7  1  0  0  0  0
  7  8  1  0  0  0  0
M  END
> <ID>
12601

> <Formula>
C7H10N2

> <FW>
122.1677

> <DSSTox_CID>
27464

> <DSSTox_RID>
82364

> <DSSTox_GSID>
47464

> <DSSTox_FileID_Sort>
7045

> <TS_ChemName>
3-Ethyl-2-methylpyrazine

> <TS_ChemName_Synonyms>


> <TS_CASRN>
15707-23-0

> <CASRN_ChemName_Relationship>
primary

> <TS_Description>
single chemical compound

> <ChemNote>


> <STRUCTURE_Shown>
tested chemical

> <STRUCTURE_Formula>
C7H10N2

> <STRUCTURE_MW>
122.1677

> <STRUCTURE_ChemType>
defined organic

> <STRUCTURE_DefinedOrganicForm>
parent

> <STRUCTURE_IUPAC>
2-ethyl-3-methylpyrazine

> <STRUCTURE_SMILES>
Cc1nccnc1CC

> <STRUCTURE_SMILES_Desalt>
Cc1nccnc1CC

> <Substance_modify_yyyymmdd>
20100621

$$$$
