1571-33-1
ChemmineR-0915142007XD

 10 10  0  0  0  0  0  0  0  0  1 V2000
    3.9872   -1.3291    0.0000 P   0  0  0  0  0  0  0  0  0  0  0  0
    3.9872   -2.6582    0.0000 O   0  0  0  0  0  0  0  0  0  0  0  0
    3.9872    0.0000    0.0000 O   0  0  0  0  0  0  0  0  0  0  0  0
    5.3163   -1.3291    0.0000 O   0  0  0  0  0  0  0  0  0  0  0  0
    0.6752   -2.4827    0.0000 C   0  0  0  0  0  0  0  0  0  0  0  0
    0.0000   -1.3291    0.0000 C   0  0  0  0  0  0  0  0  0  0  0  0
    0.6752   -0.1754    0.0000 C   0  0  0  0  0  0  0  0  0  0  0  0
    2.0042   -0.1754    0.0000 C   0  0  0  0  0  0  0  0  0  0  0  0
    2.6582   -1.3291    0.0000 C   0  0  0  0  0  0  0  0  0  0  0  0
    2.0042   -2.4827    0.0000 C   0  0  0  0  0  0  0  0  0  0  0  0
  1  2  2  0  0  0  0
  1  3  1  0  0  0  0
  1  4  1  0  0  0  0
  1  9  1  0  0  0  0
  5 10  2  0  0  0  0
  5  6  1  0  0  0  0
  6  7  2  0  0  0  0
  7  8  1  0  0  0  0
  8  9  2  0  0  0  0
  9 10  1  0  0  0  0
M  END
> <ID>
10056

> <Formula>
C6H7O3P

> <FW>
158.0917

> <DSSTox_CID>
24399

> <DSSTox_RID>
80200

> <DSSTox_GSID>
44399

> <DSSTox_FileID_Sort>
4882

> <TS_ChemName>
Phenylphosphonic acid

> <TS_ChemName_Synonyms>
Phenylphosphonic acid (Phosphonic acid, phenyl-)

> <TS_CASRN>
1571-33-1

> <CASRN_ChemName_Relationship>
primary

> <TS_Description>
single chemical compound

> <ChemNote>


> <STRUCTURE_Shown>
tested chemical

> <STRUCTURE_Formula>
C6H7O3P

> <STRUCTURE_MW>
158.0917

> <STRUCTURE_ChemType>
defined organic

> <STRUCTURE_DefinedOrganicForm>
parent

> <STRUCTURE_IUPAC>
phenylphosphonic acid

> <STRUCTURE_SMILES>
OP(O)(=O)c1ccccc1

> <STRUCTURE_SMILES_Desalt>
OP(O)(=O)c1ccccc1

> <Substance_modify_yyyymmdd>
20091116

$$$$
