15721-78-5
ChemmineR-0915142007XD

 29 30  0  0  0  0  0  0  0  0  1 V2000
    5.2745   -2.4634    0.0000 C   0  0  0  0  0  0  0  0  0  0  0  0
    5.9411   -3.6081    0.0000 C   0  0  0  0  0  0  0  0  0  0  0  0
    5.2745   -4.7529    0.0000 C   0  0  0  0  0  0  0  0  0  0  0  0
    3.9559   -4.7529    0.0000 C   0  0  0  0  0  0  0  0  0  0  0  0
    3.3038   -3.6081    0.0000 C   0  0  0  0  0  0  0  0  0  0  0  0
    3.9559   -2.4634    0.0000 C   0  0  0  0  0  0  0  0  0  0  0  0
    5.9411   -1.3186    0.0000 N   0  0  0  0  0  0  0  0  0  0  0  0
    3.3038   -5.8976    0.0000 C   0  0  0  0  0  0  0  0  0  0  0  0
    2.6373   -7.0424    0.0000 C   0  0  0  0  0  0  0  0  0  0  0  0
    1.3186   -7.0424    0.0000 C   0  0  0  0  0  0  0  0  0  0  0  0
    0.4782   -5.5643    0.0000 C   0  0  0  0  0  0  0  0  0  0  0  0
    4.4341   -6.5497    0.0000 C   0  0  0  0  0  0  0  0  0  0  0  0
    2.1591   -5.2311    0.0000 C   0  0  0  0  0  0  0  0  0  0  0  0
    1.3186   -8.3610    0.0000 C   0  0  0  0  0  0  0  0  0  0  0  0
    0.0000   -7.0424    0.0000 C   0  0  0  0  0  0  0  0  0  0  0  0
    7.2597   -1.3186    0.0000 C   0  0  0  0  0  0  0  0  0  0  0  0
    7.9118   -0.1739    0.0000 C   0  0  0  0  0  0  0  0  0  0  0  0
    7.9118   -2.4634    0.0000 C   0  0  0  0  0  0  0  0  0  0  0  0
    9.2304   -0.1739    0.0000 C   0  0  0  0  0  0  0  0  0  0  0  0
    9.2304   -2.4634    0.0000 C   0  0  0  0  0  0  0  0  0  0  0  0
    9.8970   -1.3186    0.0000 C   0  0  0  0  0  0  0  0  0  0  0  0
   11.2156   -1.3186    0.0000 C   0  0  0  0  0  0  0  0  0  0  0  0
   12.5343   -1.3186    0.0000 C   0  0  0  0  0  0  0  0  0  0  0  0
   13.1863   -2.4634    0.0000 C   0  0  0  0  0  0  0  0  0  0  0  0
   12.3459   -3.3908    0.0000 C   0  0  0  0  0  0  0  0  0  0  0  0
   11.2156    0.0000    0.0000 C   0  0  0  0  0  0  0  0  0  0  0  0
   11.2156   -2.6373    0.0000 C   0  0  0  0  0  0  0  0  0  0  0  0
   14.4905   -2.2750    0.0000 C   0  0  0  0  0  0  0  0  0  0  0  0
   13.8529   -3.6081    0.0000 C   0  0  0  0  0  0  0  0  0  0  0  0
  1  2  2  0  0  0  0
  1  6  1  0  0  0  0
  1  7  1  0  0  0  0
  2  3  1  0  0  0  0
  3  4  2  0  0  0  0
  4  5  1  0  0  0  0
  4  8  1  0  0  0  0
  5  6  2  0  0  0  0
  7 16  1  0  0  0  0
  8  9  1  0  0  0  0
  8 12  1  0  0  0  0
  8 13  1  0  0  0  0
  9 10  1  0  0  0  0
 10 11  1  0  0  0  0
 10 14  1  0  0  0  0
 10 15  1  0  0  0  0
 16 17  2  0  0  0  0
 16 18  1  0  0  0  0
 17 19  1  0  0  0  0
 18 20  2  0  0  0  0
 19 21  2  0  0  0  0
 20 21  1  0  0  0  0
 21 22  1  0  0  0  0
 22 23  1  0  0  0  0
 22 26  1  0  0  0  0
 22 27  1  0  0  0  0
 23 24  1  0  0  0  0
 24 25  1  0  0  0  0
 24 28  1  0  0  0  0
 24 29  1  0  0  0  0
M  END
> <ID>
5936

> <Formula>
C28H43N

> <FW>
393.6477

> <DSSTox_CID>
9310

> <DSSTox_RID>
78758

> <DSSTox_GSID>
29310

> <DSSTox_FileID_Sort>
3440

> <TS_ChemName>
Benzenamine, 4-(1,1,3,3-tetramethylbutyl)-N-[4-(1,1,3,3-tetramethylbutyl)phenyl]-

> <TS_ChemName_Synonyms>


> <TS_CASRN>
15721-78-5

> <CASRN_ChemName_Relationship>
primary

> <TS_Description>
single chemical compound

> <ChemNote>


> <STRUCTURE_Shown>
tested chemical

> <STRUCTURE_Formula>
C28H43N

> <STRUCTURE_MW>
393.6477

> <STRUCTURE_ChemType>
defined organic

> <STRUCTURE_DefinedOrganicForm>
parent

> <STRUCTURE_IUPAC>
4-(2,4,4-trimethylpentan-2-yl)-N-[4-(2,4,4-trimethylpentan-2-yl)phenyl]aniline

> <STRUCTURE_SMILES>
CC(C)(C)CC(C)(C)c1ccc(cc1)Nc2ccc(cc2)C(C)(C)CC(C)(C)C

> <STRUCTURE_SMILES_Desalt>
CC(C)(C)CC(C)(C)c1ccc(cc1)Nc2ccc(cc2)C(C)(C)CC(C)(C)C

> <Substance_modify_yyyymmdd>
20080429

$$$$
