15721-02-5
ChemmineR-0915142007XD

 18 19  0  0  0  0  0  0  0  0  1 V2000
    3.9941   -4.6086    0.0000 Cl   0  0  0  0  0  0  0  0  0  0  0  0
    3.3238   -3.4541    0.0000 C    0  0  0  0  0  0  0  0  0  0  0  0
    1.9924   -3.4541    0.0000 C    0  0  0  0  0  0  0  0  0  0  0  0
    1.3314   -2.3090    0.0000 C    0  0  0  0  0  0  0  0  0  0  0  0
    1.9924   -1.1545    0.0000 C    0  0  0  0  0  0  0  0  0  0  0  0
    3.3238   -1.1545    0.0000 C    0  0  0  0  0  0  0  0  0  0  0  0
    3.9941   -2.3090    0.0000 C    0  0  0  0  0  0  0  0  0  0  0  0
    5.3162   -2.3090    0.0000 C    0  0  0  0  0  0  0  0  0  0  0  0
    5.9865   -1.1545    0.0000 C    0  0  0  0  0  0  0  0  0  0  0  0
    7.3179   -1.1545    0.0000 C    0  0  0  0  0  0  0  0  0  0  0  0
    7.9789   -2.3090    0.0000 C    0  0  0  0  0  0  0  0  0  0  0  0
    7.3179   -3.4541    0.0000 C    0  0  0  0  0  0  0  0  0  0  0  0
    5.9865   -3.4541    0.0000 C    0  0  0  0  0  0  0  0  0  0  0  0
    7.9789   -4.6086    0.0000 Cl   0  0  0  0  0  0  0  0  0  0  0  0
    9.3103   -2.3090    0.0000 N    0  0  0  0  0  0  0  0  0  0  0  0
    5.3162    0.0000    0.0000 Cl   0  0  0  0  0  0  0  0  0  0  0  0
    1.3314    0.0000    0.0000 Cl   0  0  0  0  0  0  0  0  0  0  0  0
    0.0000   -2.3090    0.0000 N    0  0  0  0  0  0  0  0  0  0  0  0
  1  2  1  0  0  0  0
  2  3  2  0  0  0  0
  2  7  1  0  0  0  0
  3  4  1  0  0  0  0
  4  5  2  0  0  0  0
  4 18  1  0  0  0  0
  5  6  1  0  0  0  0
  5 17  1  0  0  0  0
  6  7  2  0  0  0  0
  7  8  1  0  0  0  0
  8  9  2  0  0  0  0
  8 13  1  0  0  0  0
  9 10  1  0  0  0  0
  9 16  1  0  0  0  0
 10 11  2  0  0  0  0
 11 12  1  0  0  0  0
 11 15  1  0  0  0  0
 12 13  2  0  0  0  0
 12 14  1  0  0  0  0
M  END
> <ID>
1261

> <Formula>
C12H8Cl4N2

> <FW>
322.0173

> <DSSTox_CID>
1314

> <DSSTox_RID>
76074

> <DSSTox_GSID>
21314

> <DSSTox_FileID_Sort>
758

> <TS_ChemName>
2,2',5,5'-Tetrachlorobenzidine

> <TS_ChemName_Synonyms>


> <TS_CASRN>
15721-02-5

> <CASRN_ChemName_Relationship>
primary

> <TS_Description>
single chemical compound

> <ChemNote>


> <STRUCTURE_Shown>
tested chemical

> <STRUCTURE_Formula>
C12H8Cl4N2

> <STRUCTURE_MW>
322.0173

> <STRUCTURE_ChemType>
defined organic

> <STRUCTURE_DefinedOrganicForm>
parent

> <STRUCTURE_IUPAC>
2,2',5,5'-tetrachlorobiphenyl-4,4'-diamine

> <STRUCTURE_SMILES>
Clc1cc(N)c(Cl)cc1c2cc(Cl)c(N)cc2Cl

> <STRUCTURE_SMILES_Desalt>
Clc1cc(N)c(Cl)cc1c2cc(Cl)c(N)cc2Cl

> <Substance_modify_yyyymmdd>
20080429

$$$$
