157716-52-4
ChemmineR-0915142007XD

 31 31  0  0  0  0  0  0  0  0  2 V2000
   27.9876    0.0000    0.0000 C   0  0  0  0  0  0  0  0  0  0  0  0
   26.7841   -0.8116    0.0000 C   0  0  0  0  0  0  0  0  0  0  0  0
   14.1617   -0.2519    0.0000 C   0  0  0  0  0  0  0  0  0  0  0  0
   12.7064   -0.9236    0.0000 C   0  0  0  0  0  0  0  0  0  0  0  0
   11.5029   -0.1399    0.0000 C   0  0  0  0  0  0  0  0  0  0  0  0
    1.2874   -2.0991    0.0000 N   0  3  0  0  0  0  0  0  0  0  0  0
    1.2874   -0.8116    0.0000 C   0  0  0  0  0  0  0  0  0  0  0  0
    2.4349   -2.7708    0.0000 C   0  0  0  0  0  0  0  0  0  0  0  0
    2.4349   -0.1399    0.0000 C   0  0  0  0  0  0  0  0  0  0  0  0
    3.5544   -2.0991    0.0000 C   0  0  0  0  0  0  0  0  0  0  0  0
    3.5544   -0.8116    0.0000 C   0  0  0  0  0  0  0  0  0  0  0  0
    0.0000   -2.0991    0.0000 C   0  0  0  0  0  0  0  0  0  0  0  0
    0.6157   -3.2466    0.0000 C   0  0  0  0  0  0  0  0  0  0  0  0
    4.6739   -0.1399    0.0000 O   0  0  0  0  0  0  0  0  0  0  0  0
    5.7934   -0.8116    0.0000 P   0  0  0  0  0  0  0  0  0  0  0  0
    6.9409   -0.1399    0.0000 O   0  0  0  0  0  0  0  0  0  0  0  0
    5.1777   -1.9311    0.0000 O   0  0  0  0  0  0  0  0  0  0  0  0
    6.4931   -1.9311    0.0000 O   0  5  0  0  0  0  0  0  0  0  0  0
    8.0604   -0.8116    0.0000 C   0  0  0  0  0  0  0  0  0  0  0  0
    9.1799   -0.1399    0.0000 C   0  0  0  0  0  0  0  0  0  0  0  0
   10.2994   -0.8116    0.0000 C   0  0  0  0  0  0  0  0  0  0  0  0
   25.4127   -0.2519    0.0000 C   0  0  0  0  0  0  0  0  0  0  0  0
   24.2932   -0.8956    0.0000 C   0  0  0  0  0  0  0  0  0  0  0  0
   23.1737   -0.2519    0.0000 C   0  0  0  0  0  0  0  0  0  0  0  0
   22.0542   -0.8956    0.0000 C   0  0  0  0  0  0  0  0  0  0  0  0
   20.9067   -0.2519    0.0000 C   0  0  0  0  0  0  0  0  0  0  0  0
   19.7872   -0.8956    0.0000 C   0  0  0  0  0  0  0  0  0  0  0  0
   18.6677   -0.2519    0.0000 C   0  0  0  0  0  0  0  0  0  0  0  0
   17.5482   -0.8956    0.0000 C   0  0  0  0  0  0  0  0  0  0  0  0
   16.4007   -0.2519    0.0000 C   0  0  0  0  0  0  0  0  0  0  0  0
   15.2812   -0.8956    0.0000 C   0  0  0  0  0  0  0  0  0  0  0  0
  1  2  1  0  0  0  0
  2 22  1  0  0  0  0
  3  4  1  0  0  0  0
  3 31  1  0  0  0  0
  4  5  1  0  0  0  0
  5 21  1  0  0  0  0
  6  7  1  0  0  0  0
  6  8  1  0  0  0  0
  6 12  1  0  0  0  0
  6 13  1  0  0  0  0
  7  9  1  0  0  0  0
  8 10  1  0  0  0  0
  9 11  1  0  0  0  0
 10 11  1  0  0  0  0
 11 14  1  0  0  0  0
 14 15  1  0  0  0  0
 15 16  1  0  0  0  0
 15 17  2  0  0  0  0
 15 18  1  0  0  0  0
 16 19  1  0  0  0  0
 19 20  1  0  0  0  0
 20 21  1  0  0  0  0
 22 23  1  0  0  0  0
 23 24  1  0  0  0  0
 24 25  1  0  0  0  0
 25 26  1  0  0  0  0
 26 27  1  0  0  0  0
 27 28  1  0  0  0  0
 28 29  1  0  0  0  0
 29 30  1  0  0  0  0
 30 31  1  0  0  0  0
M  END
> <ID>
13935

> <Formula>
C25H52NO4P

> <FW>
461.6584

> <DSSTox_CID>
28872

> <DSSTox_RID>
83141

> <DSSTox_GSID>
48946

> <DSSTox_FileID_Sort>
7818

> <TS_ChemName>
Perifosine

> <TS_ChemName_Synonyms>


> <TS_CASRN>
157716-52-4

> <CASRN_ChemName_Relationship>
primary

> <TS_Description>
single chemical compound

> <ChemNote>
ammonium

> <STRUCTURE_Shown>
tested chemical

> <STRUCTURE_Formula>
C25H52NO4P

> <STRUCTURE_MW>
461.6584

> <STRUCTURE_ChemType>
defined organic

> <STRUCTURE_DefinedOrganicForm>
parent

> <STRUCTURE_IUPAC>
1,1-dimethylpiperidinium-4-yl octadecyl phosphate

> <STRUCTURE_SMILES>
[O-]P(=O)(OCCCCCCCCCCCCCCCCCC)OC1CC[N+](C)(C)CC1

> <STRUCTURE_SMILES_Desalt>
OP(=O)(OC1CC[N+](C)(C)CC1)OCCCCCCCCCCCCCCCCCC

> <Substance_modify_yyyymmdd>
20111204

$$$$
