1577-03-3
ChemmineR-0915142007XD

 15 15  0  0  0  0  0  0  0  0  1 V2000
    4.6192   -1.3303    0.0000 C    0  0  0  0  0  0  0  0  0  0  0  0
    5.7833   -2.0048    0.0000 C    0  0  0  0  0  0  0  0  0  0  0  0
    6.9381   -1.3303    0.0000 C    0  0  0  0  0  0  0  0  0  0  0  0
    8.1021   -2.0048    0.0000 C    0  0  0  0  0  0  0  0  0  0  0  0
    9.2385   -1.3303    0.0000 C    0  0  0  0  0  0  0  0  0  0  0  0
    6.9381    0.0000    0.0000 O    0  0  0  0  0  0  0  0  0  0  0  0
    1.1640   -2.0048    0.0000 C    0  0  0  0  0  0  0  0  0  0  0  0
    1.1640   -3.3259    0.0000 C    0  0  0  0  0  0  0  0  0  0  0  0
    2.3373   -4.0003    0.0000 C    0  0  0  0  0  0  0  0  0  0  0  0
    3.4552   -3.3628    0.0000 C    0  0  0  0  0  0  0  0  0  0  0  0
    3.4829   -2.0048    0.0000 C    0  0  0  0  0  0  0  0  0  0  0  0
    2.3373   -1.3673    0.0000 C    0  0  0  0  0  0  0  0  0  0  0  0
    0.0000   -4.0003    0.0000 Cl   0  0  0  0  0  0  0  0  0  0  0  0
    8.1021   -3.3259    0.0000 C    0  0  0  0  0  0  0  0  0  0  0  0
    9.2385   -2.6699    0.0000 C    0  0  0  0  0  0  0  0  0  0  0  0
  1  2  2  0  0  0  0
  1 11  1  0  0  0  0
  2  3  1  0  0  0  0
  3  4  1  0  0  0  0
  3  6  2  0  0  0  0
  4  5  1  0  0  0  0
  4 14  1  0  0  0  0
  4 15  1  0  0  0  0
  7 12  2  0  0  0  0
  7  8  1  0  0  0  0
  8  9  2  0  0  0  0
  8 13  1  0  0  0  0
  9 10  1  0  0  0  0
 10 11  2  0  0  0  0
 11 12  1  0  0  0  0
M  END
> <ID>
10249

> <Formula>
C13H15ClO

> <FW>
222.7106

> <DSSTox_CID>
24595

> <DSSTox_RID>
80339

> <DSSTox_GSID>
44595

> <DSSTox_FileID_Sort>
5021

> <TS_ChemName>
(1E)-1-(4-Chlorophenyl)-4,4-dimethylpent-1-en-3-one

> <TS_ChemName_Synonyms>
1-Penten-3-one, 1-(4-chlorophenyl)-4,4-dimethyl-

> <TS_CASRN>
1577-03-3

> <CASRN_ChemName_Relationship>
primary

> <TS_Description>
mixture or formulation

> <ChemNote>
mixture of (Z,E)- isomers; structure shown (E)-

> <STRUCTURE_Shown>
representative isomer in mixture

> <STRUCTURE_Formula>
C13H15ClO

> <STRUCTURE_MW>
222.7106

> <STRUCTURE_ChemType>
defined organic

> <STRUCTURE_DefinedOrganicForm>
parent

> <STRUCTURE_IUPAC>
(1E)-1-(4-chlorophenyl)-4,4-dimethylpent-1-en-3-one

> <STRUCTURE_SMILES>
Clc1ccc(/C=C/C(=O)C(C)(C)C)cc1

> <STRUCTURE_SMILES_Desalt>
Clc1ccc(/C=C/C(=O)C(C)(C)C)cc1

> <Substance_modify_yyyymmdd>
20091116

$$$$
