157810-81-6
ChemmineR-0915142007XD

 50 53  0  0  1  0  0  0  0  0  1 V2000
   12.6522   -6.6046    0.0000 C   0  0  0  0  0  0  0  0  0  0  0  0
   11.5541   -5.9839    0.0000 C   0  0  0  0  0  0  0  0  0  0  0  0
   10.3446   -6.6046    0.0000 C   0  0  0  0  0  0  0  0  0  0  0  0
    9.2465   -5.9839    0.0000 C   0  0  0  0  0  0  0  0  0  0  0  0
    9.2465   -4.6312    0.0000 O   0  0  0  0  0  0  0  0  0  0  0  0
    8.1324   -6.6046    0.0000 C   0  0  0  0  0  0  0  0  0  0  0  0
   13.8458   -5.9839    0.0000 O   0  0  0  0  0  0  0  0  0  0  0  0
   12.6522   -7.9733    0.0000 N   0  0  0  0  0  0  0  0  0  0  0  0
   15.0394   -8.0847    0.0000 C   0  0  0  0  0  0  0  0  0  0  0  0
   13.9572   -9.9626    0.0000 C   0  0  0  0  0  0  0  0  0  0  0  0
   13.8140   -8.6258    0.0000 C   0  0  0  0  0  0  0  0  0  0  0  0
   15.2622  -10.2332    0.0000 C   0  0  0  0  0  0  0  0  0  0  0  0
   15.9147   -9.0714    0.0000 C   0  0  0  0  0  0  0  0  0  0  0  0
   13.0660  -10.9334    0.0000 C   0  0  0  0  0  0  0  0  0  0  0  0
   15.6601  -11.5064    0.0000 C   0  0  0  0  0  0  0  0  0  0  0  0
   14.7689  -12.4931    0.0000 C   0  0  0  0  0  0  0  0  0  0  0  0
   13.4798  -12.2066    0.0000 C   0  0  0  0  0  0  0  0  0  0  0  0
   15.3100   -6.7797    0.0000 O   0  0  0  0  0  0  0  0  0  0  0  0
    6.9388   -5.9839    0.0000 N   0  0  0  0  0  0  0  0  0  0  0  0
    4.6312   -4.6312    0.0000 N   0  0  0  0  0  0  0  0  0  0  0  0
    4.6312   -5.9839    0.0000 C   0  0  0  0  0  0  0  0  0  0  0  0
    6.9388   -4.6312    0.0000 C   0  0  0  0  0  0  0  0  0  0  0  0
    5.8248   -3.9946    0.0000 C   0  0  0  0  0  0  0  0  0  0  0  0
    5.8248   -6.6046    0.0000 C   0  0  0  0  0  0  0  0  0  0  0  0
    5.8248   -7.9733    0.0000 C   0  0  0  0  0  0  0  0  0  0  0  0
    6.9388   -8.5940    0.0000 O   0  0  0  0  0  0  0  0  0  0  0  0
    4.6630   -8.6258    0.0000 N   0  0  0  0  0  0  0  0  0  0  0  0
    4.6630   -9.9626    0.0000 C   0  0  0  0  0  0  0  0  0  0  0  0
    3.3421   -9.9626    0.0000 C   0  0  0  0  0  0  0  0  0  0  0  0
    5.9999   -9.9626    0.0000 C   0  0  0  0  0  0  0  0  0  0  0  0
    4.6630  -11.2836    0.0000 C   0  0  0  0  0  0  0  0  0  0  0  0
    3.4217   -3.9946    0.0000 C   0  0  0  0  0  0  0  0  0  0  0  0
    4.5675   -0.6684    0.0000 N   0  0  0  0  0  0  0  0  0  0  0  0
    3.4217    0.0000    0.0000 C   0  0  0  0  0  0  0  0  0  0  0  0
    4.5675   -2.0053    0.0000 C   0  0  0  0  0  0  0  0  0  0  0  0
    3.4217   -2.6578    0.0000 C   0  0  0  0  0  0  0  0  0  0  0  0
    2.2599   -0.6684    0.0000 C   0  0  0  0  0  0  0  0  0  0  0  0
    2.2599   -2.0053    0.0000 C   0  0  0  0  0  0  0  0  0  0  0  0
   11.5541   -4.6312    0.0000 C   0  0  0  0  0  0  0  0  0  0  0  0
   12.7000   -3.9628    0.0000 C   0  0  0  0  0  0  0  0  0  0  0  0
   12.7000   -2.6259    0.0000 C   0  0  0  0  0  0  0  0  0  0  0  0
   13.8458   -4.6312    0.0000 C   0  0  0  0  0  0  0  0  0  0  0  0
   13.8458   -1.9734    0.0000 C   0  0  0  0  0  0  0  0  0  0  0  0
   15.0076   -3.9628    0.0000 C   0  0  0  0  0  0  0  0  0  0  0  0
   15.0076   -2.6259    0.0000 C   0  0  0  0  0  0  0  0  0  0  0  0
    1.1618   -6.3341    0.0000 S   0  0  0  0  0  0  0  0  0  0  0  0
    0.4774   -5.1723    0.0000 O   0  0  0  0  0  0  0  0  0  0  0  0
    2.3076   -5.6656    0.0000 O   0  0  0  0  0  0  0  0  0  0  0  0
    1.8143   -7.4799    0.0000 O   0  0  0  0  0  0  0  0  0  0  0  0
    0.0000   -6.9866    0.0000 O   0  0  0  0  0  0  0  0  0  0  0  0
  1  8  1  0  0  0  0
  1  2  1  0  0  0  0
  1  7  2  0  0  0  0
  2 39  1  1  0  0  0
  2  3  1  0  0  0  0
  3  4  1  0  0  0  0
  4  5  1  1  0  0  0
  4  6  1  0  0  0  0
  6 19  1  0  0  0  0
 11  8  1  6  0  0  0
  9 11  1  0  0  0  0
  9 13  1  0  0  0  0
  9 18  1  6  0  0  0
 10 11  1  0  0  0  0
 10 12  2  0  0  0  0
 10 14  1  0  0  0  0
 12 13  1  0  0  0  0
 12 15  1  0  0  0  0
 14 17  2  0  0  0  0
 15 16  2  0  0  0  0
 16 17  1  0  0  0  0
 19 22  1  0  0  0  0
 19 24  1  0  0  0  0
 20 21  1  0  0  0  0
 20 23  1  0  0  0  0
 20 32  1  0  0  0  0
 21 24  1  0  0  0  0
 22 23  1  0  0  0  0
 24 25  1  6  0  0  0
 25 26  2  0  0  0  0
 25 27  1  0  0  0  0
 27 28  1  0  0  0  0
 28 29  1  0  0  0  0
 28 30  1  0  0  0  0
 28 31  1  0  0  0  0
 32 36  1  0  0  0  0
 33 34  1  0  0  0  0
 33 35  2  0  0  0  0
 34 37  2  0  0  0  0
 35 36  1  0  0  0  0
 36 38  2  0  0  0  0
 37 38  1  0  0  0  0
 39 40  1  0  0  0  0
 40 41  2  0  0  0  0
 40 42  1  0  0  0  0
 41 43  1  0  0  0  0
 42 44  2  0  0  0  0
 43 45  2  0  0  0  0
 44 45  1  0  0  0  0
 46 47  2  0  0  0  0
 46 48  2  0  0  0  0
 46 49  1  0  0  0  0
 46 50  1  0  0  0  0
M  END
> <ID>
9916

> <Formula>
C36H49N5O8S

> <FW>
711.8680 (613.7895+98.0785)

> <DSSTox_CID>
24221

> <DSSTox_RID>
80126

> <DSSTox_GSID>
44221

> <DSSTox_FileID_Sort>
4808

> <TS_ChemName>
Indinavir sulfate

> <TS_ChemName_Synonyms>


> <TS_CASRN>
157810-81-6

> <CASRN_ChemName_Relationship>
primary

> <TS_Description>
single chemical compound

> <ChemNote>
stereochem; parent [150378-17-9]

> <STRUCTURE_Shown>
tested chemical

> <STRUCTURE_Formula>
C36H49N5O8S

> <STRUCTURE_MW>
711.868

> <STRUCTURE_ChemType>
defined organic

> <STRUCTURE_DefinedOrganicForm>
complex

> <STRUCTURE_IUPAC>
(2S)-1-[(2S,4R)-4-benzyl-2-hydroxy-5-{[(1S,2R)-2-hydroxy-2,3-dihydro-1H-inden-1-yl]amino}-5-oxopentyl]-N-tert-butyl-4-(pyridin-3-ylmethyl)piperazine-2-carboxamide sulfate (1:1)

> <STRUCTURE_SMILES>
O[C@H](CN1CCN(C[C@H]1C(=O)NC(C)(C)C)Cc2cccnc2)C[C@@H](Cc3ccccc3)C(=O)N[C@H]4c5ccccc5C[C@H]4O.O=S(=O)(O)O

> <STRUCTURE_SMILES_Desalt>
O[C@H](CN1CCN(C[C@H]1C(=O)NC(C)(C)C)Cc2cccnc2)C[C@@H](Cc3ccccc3)C(=O)N[C@H]4c5ccccc5C[C@H]4O

> <Substance_modify_yyyymmdd>
20090302

$$$$
