15791-78-3
ChemmineR-0915142007XD

 31 34  0  0  0  0  0  0  0  0  2 V2000
    9.3178   -5.7555    0.0000 O   0  0  0  0  0  0  0  0  0  0  0  0
    9.9744   -4.6100    0.0000 C   0  0  0  0  0  0  0  0  0  0  0  0
    9.3178   -3.4505    0.0000 C   0  0  0  0  0  0  0  0  0  0  0  0
    9.9744   -2.3050    0.0000 C   0  0  0  0  0  0  0  0  0  0  0  0
    9.3178   -1.1455    0.0000 C   0  0  0  0  0  0  0  0  0  0  0  0
    9.9744    0.0000    0.0000 O   0  0  0  0  0  0  0  0  0  0  0  0
    7.9767   -1.1455    0.0000 C   0  0  0  0  0  0  0  0  0  0  0  0
    7.3201   -2.3050    0.0000 C   0  0  0  0  0  0  0  0  0  0  0  0
   11.3155   -2.3050    0.0000 C   0  0  0  0  0  0  0  0  0  0  0  0
   11.9720   -1.1455    0.0000 O   0  0  0  0  0  0  0  0  0  0  0  0
   11.9720   -3.4505    0.0000 C   0  0  0  0  0  0  0  0  0  0  0  0
   13.2992   -3.4505    0.0000 C   0  0  0  0  0  0  0  0  0  0  0  0
   13.9697   -2.3050    0.0000 O   0  0  0  0  0  0  0  0  0  0  0  0
   13.9697   -4.6100    0.0000 C   0  0  0  0  0  0  0  0  0  0  0  0
   13.2992   -5.7555    0.0000 C   0  0  0  0  0  0  0  0  0  0  0  0
   11.9720   -5.7555    0.0000 C   0  0  0  0  0  0  0  0  0  0  0  0
   11.3155   -6.9150    0.0000 N   0  3  0  0  0  0  0  0  0  0  0  0
    9.9744   -6.9150    0.0000 O   0  5  0  0  0  0  0  0  0  0  0  0
   11.9720   -8.0605    0.0000 O   0  0  0  0  0  0  0  0  0  0  0  0
    7.9767   -3.4505    0.0000 C   0  0  0  0  0  0  0  0  0  0  0  0
    7.3201   -4.6100    0.0000 N   0  0  0  0  0  0  0  0  0  0  0  0
    5.9930   -4.6100    0.0000 C   0  0  0  0  0  0  0  0  0  0  0  0
    5.3225   -5.7555    0.0000 C   0  0  0  0  0  0  0  0  0  0  0  0
    3.9953   -5.7555    0.0000 C   0  0  0  0  0  0  0  0  0  0  0  0
    3.3248   -4.6100    0.0000 C   0  0  0  0  0  0  0  0  0  0  0  0
    3.9953   -3.4505    0.0000 C   0  0  0  0  0  0  0  0  0  0  0  0
    1.9977   -4.6100    0.0000 C   0  0  0  0  0  0  0  0  0  0  0  0
    1.3271   -5.7555    0.0000 C   0  0  0  0  0  0  0  0  0  0  0  0
    0.0000   -5.7555    0.0000 O   0  0  0  0  0  0  0  0  0  0  0  0
    5.3225   -3.4505    0.0000 C   0  0  0  0  0  0  0  0  0  0  0  0
   11.3155   -4.6100    0.0000 C   0  0  0  0  0  0  0  0  0  0  0  0
  1  2  2  0  0  0  0
  2  3  1  0  0  0  0
  2 31  1  0  0  0  0
  3  4  2  0  0  0  0
  3 20  1  0  0  0  0
  4  5  1  0  0  0  0
  4  9  1  0  0  0  0
  5  6  1  0  0  0  0
  5  7  2  0  0  0  0
  7  8  1  0  0  0  0
  8 20  2  0  0  0  0
  9 10  2  0  0  0  0
  9 11  1  0  0  0  0
 11 12  2  0  0  0  0
 11 31  1  0  0  0  0
 12 13  1  0  0  0  0
 12 14  1  0  0  0  0
 14 15  2  0  0  0  0
 15 16  1  0  0  0  0
 16 17  1  0  0  0  0
 16 31  2  0  0  0  0
 17 18  1  0  0  0  0
 17 19  2  0  0  0  0
 20 21  1  0  0  0  0
 21 22  1  0  0  0  0
 22 23  2  0  0  0  0
 22 30  1  0  0  0  0
 23 24  1  0  0  0  0
 24 25  2  0  0  0  0
 25 26  1  0  0  0  0
 25 27  1  0  0  0  0
 26 30  2  0  0  0  0
 27 28  1  0  0  0  0
 28 29  1  0  0  0  0
M  END
> <ID>
4081

> <Formula>
C22H16N2O7

> <FW>
420.3716

> <DSSTox_CID>
5209

> <DSSTox_RID>
77701

> <DSSTox_GSID>
25209

> <DSSTox_FileID_Sort>
2384

> <TS_ChemName>
C.I. Disperse Blue 27

> <TS_ChemName_Synonyms>


> <TS_CASRN>
15791-78-3

> <CASRN_ChemName_Relationship>
primary

> <TS_Description>
single chemical compound

> <ChemNote>
C.I. 60767

> <STRUCTURE_Shown>
tested chemical

> <STRUCTURE_Formula>
C22H16N2O7

> <STRUCTURE_MW>
420.3716

> <STRUCTURE_ChemType>
defined organic

> <STRUCTURE_DefinedOrganicForm>
parent

> <STRUCTURE_IUPAC>
1,8-dihydroxy-4-{[4-(2-hydroxyethyl)phenyl]amino}-5-nitroanthracene-9,10-dione

> <STRUCTURE_SMILES>
[O-][N+](=O)c4ccc(O)c2c4C(=O)c1c(ccc(O)c1C2=O)Nc3ccc(CCO)cc3

> <STRUCTURE_SMILES_Desalt>
[O-][N+](=O)c4ccc(O)c2c4C(=O)c1c(ccc(O)c1C2=O)Nc3ccc(CCO)cc3

> <Substance_modify_yyyymmdd>
20080429

$$$$
