158081-99-3
ChemmineR-0915142007XD

 32 36  0  0  1  0  0  0  0  0  1 V2000
    2.3064   -3.9676    0.0000 C   0  0  0  0  0  0  0  0  0  0  0  0
    3.4515   -3.2902    0.0000 C   0  0  0  0  0  0  0  0  0  0  0  0
    3.3870   -4.7418    0.0000 C   0  0  0  0  0  0  0  0  0  0  0  0
    1.2258   -4.7418    0.0000 C   0  0  0  0  0  0  0  0  0  0  0  0
    1.1451   -3.2902    0.0000 C   0  0  0  0  0  0  0  0  0  0  0  0
    4.6127   -3.9676    0.0000 C   0  0  0  0  0  0  0  0  0  0  0  0
    3.4515   -1.9838    0.0000 C   0  0  0  0  0  0  0  0  0  0  0  0
    2.9676   -6.0159    0.0000 C   0  0  0  0  0  0  0  0  0  0  0  0
    1.6451   -6.0159    0.0000 C   0  0  0  0  0  0  0  0  0  0  0  0
    0.0000   -3.9676    0.0000 O   0  0  0  0  0  0  0  0  0  0  0  0
    1.1451   -1.9838    0.0000 O   0  0  0  0  0  0  0  0  0  0  0  0
    5.7417   -3.2902    0.0000 C   0  0  0  0  0  0  0  0  0  0  0  0
    4.6127   -1.3064    0.0000 C   0  0  0  0  0  0  0  0  0  0  0  0
    5.7417   -1.9838    0.0000 C   0  0  0  0  0  0  0  0  0  0  0  0
    6.9191   -3.9676    0.0000 O   0  0  0  0  0  0  0  0  0  0  0  0
    6.9191   -1.3064    0.0000 C   0  0  0  0  0  0  0  0  0  0  0  0
    8.0481   -3.2902    0.0000 C   0  0  0  0  0  0  0  0  0  0  0  0
    8.0481   -1.9838    0.0000 C   0  0  0  0  0  0  0  0  0  0  0  0
    6.9191    0.0000    0.0000 O   0  0  0  0  0  0  0  0  0  0  0  0
    9.2093   -1.3064    0.0000 C   0  0  0  0  0  0  0  0  0  0  0  0
   10.3545   -1.9838    0.0000 C   0  0  0  0  0  0  0  0  0  0  0  0
   10.3545   -3.2902    0.0000 C   0  0  0  0  0  0  0  0  0  0  0  0
   11.5157   -1.3064    0.0000 C   0  0  0  0  0  0  0  0  0  0  0  0
   11.5157   -3.9676    0.0000 C   0  0  0  0  0  0  0  0  0  0  0  0
   12.6608   -1.9838    0.0000 C   0  0  0  0  0  0  0  0  0  0  0  0
   12.6608   -3.2902    0.0000 C   0  0  0  0  0  0  0  0  0  0  0  0
   13.7898   -3.9676    0.0000 C   0  0  0  0  0  0  0  0  0  0  0  0
   13.7898   -5.3063    0.0000 C   0  0  0  0  0  0  0  0  0  0  0  0
   14.9672   -3.2902    0.0000 C   0  0  0  0  0  0  0  0  0  0  0  0
   14.9672   -5.9675    0.0000 C   0  0  0  0  0  0  0  0  0  0  0  0
   16.1284   -3.9676    0.0000 C   0  0  0  0  0  0  0  0  0  0  0  0
   16.1123   -5.3063    0.0000 C   0  0  0  0  0  0  0  0  0  0  0  0
  1  2  1  0  0  0  0
  1  3  1  0  0  0  0
  1  4  1  0  0  0  0
  1  5  1  0  0  0  0
  2  6  2  0  0  0  0
  2  7  1  0  0  0  0
  3  8  1  0  0  0  0
  4  9  1  0  0  0  0
  5 10  1  0  0  0  0
  5 11  2  0  0  0  0
  6 12  1  0  0  0  0
  7 13  2  0  0  0  0
  8  9  1  0  0  0  0
 12 14  2  0  0  0  0
 12 15  1  0  0  0  0
 13 14  1  0  0  0  0
 14 16  1  0  0  0  0
 15 17  1  0  0  0  0
 16 18  1  0  0  0  0
 16 19  1  6  0  0  0
 17 18  1  0  0  0  0
 18 20  1  1  0  0  0
 20 21  1  0  0  0  0
 21 22  2  0  0  0  0
 21 23  1  0  0  0  0
 22 24  1  0  0  0  0
 23 25  2  0  0  0  0
 24 26  2  0  0  0  0
 25 26  1  0  0  0  0
 26 27  1  0  0  0  0
 27 28  1  0  0  0  0
 27 29  2  0  0  0  0
 28 30  2  0  0  0  0
 29 31  1  0  0  0  0
 30 32  1  0  0  0  0
 31 32  2  0  0  0  0
M  END
> <ID>
12450

> <Formula>
C28H28O4

> <FW>
428.5195

> <DSSTox_CID>
27308

> <DSSTox_RID>
82258

> <DSSTox_GSID>
47308

> <DSSTox_FileID_Sort>
6939

> <TS_ChemName>
CP-105696

> <TS_ChemName_Synonyms>


> <TS_CASRN>
158081-99-3

> <CASRN_ChemName_Relationship>
primary

> <TS_Description>
single chemical compound

> <ChemNote>
stereochem

> <STRUCTURE_Shown>
tested chemical

> <STRUCTURE_Formula>
C28H28O4

> <STRUCTURE_MW>
428.5195

> <STRUCTURE_ChemType>
defined organic

> <STRUCTURE_DefinedOrganicForm>
parent

> <STRUCTURE_IUPAC>
1-[(3S,4R)-3-(biphenyl-4-ylmethyl)-4-hydroxy-3,4-dihydro-2H-chromen-7-yl]cyclopentanecarboxylic acid

> <STRUCTURE_SMILES>
O=C(O)C1(CCCC1)c2ccc5c(c2)OC[C@H](Cc3ccc(cc3)c4ccccc4)[C@H]5O

> <STRUCTURE_SMILES_Desalt>
O=C(O)C1(CCCC1)c2ccc5c(c2)OC[C@H](Cc3ccc(cc3)c4ccccc4)[C@H]5O

> <Substance_modify_yyyymmdd>
20130910

$$$$
