15826-37-6
ChemmineR-0915142007XD

 36 37  0  0  0  0  0  0  0  0  2 V2000
    1.0018   -5.1094    0.0000 Na   0  3  0  0  0  0  0  0  0  0  0  0
   16.6975   -2.2041    0.0000 Na   0  3  0  0  0  0  0  0  0  0  0  0
    3.9907   -3.4564    0.0000 C    0  0  0  0  0  0  0  0  0  0  0  0
    4.6586   -4.6252    0.0000 O    0  0  0  0  0  0  0  0  0  0  0  0
    4.6586   -2.3043    0.0000 C    0  0  0  0  0  0  0  0  0  0  0  0
    3.9907   -1.1521    0.0000 C    0  0  0  0  0  0  0  0  0  0  0  0
    2.6549   -1.1521    0.0000 O    0  0  0  0  0  0  0  0  0  0  0  0
    1.9870   -2.3043    0.0000 C    0  0  0  0  0  0  0  0  0  0  0  0
    0.6679   -2.3043    0.0000 C    0  0  0  0  0  0  0  0  0  0  0  0
    0.0000   -3.4564    0.0000 O    0  0  0  0  0  0  0  0  0  0  0  0
    0.0000   -1.1521    0.0000 O    0  5  0  0  0  0  0  0  0  0  0  0
    2.6549   -3.4564    0.0000 C    0  0  0  0  0  0  0  0  0  0  0  0
    4.6586    0.0000    0.0000 C    0  0  0  0  0  0  0  0  0  0  0  0
    5.9777    0.0000    0.0000 C    0  0  0  0  0  0  0  0  0  0  0  0
    6.6456   -1.1521    0.0000 C    0  0  0  0  0  0  0  0  0  0  0  0
    5.9777   -2.3043    0.0000 C    0  0  0  0  0  0  0  0  0  0  0  0
    6.6456   -3.4564    0.0000 O    0  0  0  0  0  0  0  0  0  0  0  0
    7.9814   -3.4564    0.0000 C    0  0  0  0  0  0  0  0  0  0  0  0
    8.6493   -4.6252    0.0000 C    0  0  0  0  0  0  0  0  0  0  0  0
    7.9814   -5.7606    0.0000 O    0  0  0  0  0  0  0  0  0  0  0  0
    9.9684   -4.6252    0.0000 C    0  0  0  0  0  0  0  0  0  0  0  0
   10.6363   -5.7606    0.0000 O    0  0  0  0  0  0  0  0  0  0  0  0
   11.9721   -5.7606    0.0000 C    0  0  0  0  0  0  0  0  0  0  0  0
   12.6400   -4.6252    0.0000 C    0  0  0  0  0  0  0  0  0  0  0  0
   11.9721   -3.4564    0.0000 C    0  0  0  0  0  0  0  0  0  0  0  0
   10.6363   -3.4564    0.0000 O    0  0  0  0  0  0  0  0  0  0  0  0
   12.6400   -2.3043    0.0000 C    0  0  0  0  0  0  0  0  0  0  0  0
   13.9591   -2.3043    0.0000 C    0  0  0  0  0  0  0  0  0  0  0  0
   14.6270   -1.1521    0.0000 C    0  0  0  0  0  0  0  0  0  0  0  0
   13.9591    0.0000    0.0000 O    0  0  0  0  0  0  0  0  0  0  0  0
   15.9628   -1.1521    0.0000 O    0  5  0  0  0  0  0  0  0  0  0  0
   14.6270   -3.4564    0.0000 O    0  0  0  0  0  0  0  0  0  0  0  0
   13.9591   -4.6252    0.0000 C    0  0  0  0  0  0  0  0  0  0  0  0
   14.6270   -5.7606    0.0000 C    0  0  0  0  0  0  0  0  0  0  0  0
   13.9591   -6.9128    0.0000 C    0  0  0  0  0  0  0  0  0  0  0  0
   12.6400   -6.9128    0.0000 C    0  0  0  0  0  0  0  0  0  0  0  0
  3  4  2  0  0  0  0
  3  5  1  0  0  0  0
  3 12  1  0  0  0  0
  5  6  2  0  0  0  0
  5 16  1  0  0  0  0
  6  7  1  0  0  0  0
  6 13  1  0  0  0  0
  7  8  1  0  0  0  0
  8  9  1  0  0  0  0
  8 12  2  0  0  0  0
  9 10  2  0  0  0  0
  9 11  1  0  0  0  0
 13 14  2  0  0  0  0
 14 15  1  0  0  0  0
 15 16  2  0  0  0  0
 16 17  1  0  0  0  0
 17 18  1  0  0  0  0
 18 19  1  0  0  0  0
 19 20  1  0  0  0  0
 19 21  1  0  0  0  0
 21 22  1  0  0  0  0
 22 23  1  0  0  0  0
 23 24  1  0  0  0  0
 23 36  2  0  0  0  0
 24 25  1  0  0  0  0
 24 33  2  0  0  0  0
 25 26  2  0  0  0  0
 25 27  1  0  0  0  0
 27 28  2  0  0  0  0
 28 29  1  0  0  0  0
 28 32  1  0  0  0  0
 29 30  2  0  0  0  0
 29 31  1  0  0  0  0
 32 33  1  0  0  0  0
 33 34  1  0  0  0  0
 34 35  2  0  0  0  0
 35 36  1  0  0  0  0
M  END
> <ID>
10208

> <Formula>
C23H14Na2O11

> <FW>
512.3302 (22.9892+22.9892+466.3518)

> <DSSTox_CID>
24554

> <DSSTox_RID>
80311

> <DSSTox_GSID>
44554

> <DSSTox_FileID_Sort>
4993

> <TS_ChemName>
Cromolyn sodium

> <TS_ChemName_Synonyms>
Cromolyn sodium (Disodium 5,5'-[(2-hydroxytrimethylene)bis(oxy)]bis[4-oxo-4H-1-benzopyran-2-carboxylate])

> <TS_CASRN>
15826-37-6

> <CASRN_ChemName_Relationship>
primary

> <TS_Description>
single chemical compound

> <ChemNote>
parent [16110-51-3]

> <STRUCTURE_Shown>
tested chemical

> <STRUCTURE_Formula>
C23H14Na2O11

> <STRUCTURE_MW>
512.3302

> <STRUCTURE_ChemType>
defined organic

> <STRUCTURE_DefinedOrganicForm>
salt

> <STRUCTURE_IUPAC>
disodium 5,5'-[(2-hydroxypropane-1,3-diyl)bis(oxy)]bis(4-oxo-4H-chromene-2-carboxylate)

> <STRUCTURE_SMILES>
[Na+].[Na+].[O-]C(=O)C=4Oc3cccc(OCC(O)COc1cccc2OC(=CC(=O)c12)C([O-])=O)c3C(=O)C=4

> <STRUCTURE_SMILES_Desalt>
O=C(O)C=4Oc3cccc(OCC(O)COc1cccc2OC(=CC(=O)c12)C(=O)O)c3C(=O)C=4

> <Substance_modify_yyyymmdd>
20091116

$$$$
