1585-07-5
ChemmineR-0915142007XD

  9  9  0  0  0  0  0  0  0  0  1 V2000
    4.6417   -1.1529    0.0000 C    0  0  0  0  0  0  0  0  0  0  0  0
    3.9905   -2.3059    0.0000 C    0  0  0  0  0  0  0  0  0  0  0  0
    2.6583   -2.3059    0.0000 C    0  0  0  0  0  0  0  0  0  0  0  0
    1.9833   -1.1529    0.0000 C    0  0  0  0  0  0  0  0  0  0  0  0
    2.6583    0.0000    0.0000 C    0  0  0  0  0  0  0  0  0  0  0  0
    3.9905    0.0000    0.0000 C    0  0  0  0  0  0  0  0  0  0  0  0
    5.9738   -1.1529    0.0000 Br   0  0  0  0  0  0  0  0  0  0  0  0
    0.6571   -1.1529    0.0000 C    0  0  0  0  0  0  0  0  0  0  0  0
    0.0000   -2.3059    0.0000 C    0  0  0  0  0  0  0  0  0  0  0  0
  1  2  2  0  0  0  0
  1  6  1  0  0  0  0
  1  7  1  0  0  0  0
  2  3  1  0  0  0  0
  3  4  2  0  0  0  0
  4  5  1  0  0  0  0
  4  8  1  0  0  0  0
  5  6  2  0  0  0  0
  8  9  1  0  0  0  0
M  END
> <ID>
5863

> <Formula>
C8H9Br

> <FW>
185.0611

> <DSSTox_CID>
9218

> <DSSTox_RID>
78714

> <DSSTox_GSID>
29218

> <DSSTox_FileID_Sort>
3396

> <TS_ChemName>
1-Bromo-4-ethylbenzene

> <TS_ChemName_Synonyms>


> <TS_CASRN>
1585-07-5

> <CASRN_ChemName_Relationship>
primary

> <TS_Description>
single chemical compound

> <ChemNote>


> <STRUCTURE_Shown>
tested chemical

> <STRUCTURE_Formula>
C8H9Br

> <STRUCTURE_MW>
185.0611

> <STRUCTURE_ChemType>
defined organic

> <STRUCTURE_DefinedOrganicForm>
parent

> <STRUCTURE_IUPAC>
1-bromo-4-ethylbenzene

> <STRUCTURE_SMILES>
CCc1ccc(Br)cc1

> <STRUCTURE_SMILES_Desalt>
CCc1ccc(Br)cc1

> <Substance_modify_yyyymmdd>
20080429

$$$$
