15879-93-3
ChemmineR-0915142007XD

 17 18  0  0  1  0  0  0  0  0  1 V2000
    3.5180   -1.6894    0.0000 C    0  0  0  0  0  0  0  0  0  0  0  0
    4.5813   -0.9143    0.0000 O    0  0  0  0  0  0  0  0  0  0  0  0
    3.9254   -2.9615    0.0000 C    0  0  0  0  0  0  0  0  0  0  0  0
    5.6745   -1.6894    0.0000 C    0  0  0  0  0  0  0  0  0  0  0  0
    5.2571   -2.9615    0.0000 C    0  0  0  0  0  0  0  0  0  0  0  0
    6.9962   -1.6894    0.0000 O    0  0  0  0  0  0  0  0  0  0  0  0
    6.3403   -3.7465    0.0000 O    0  0  0  0  0  0  0  0  0  0  0  0
    3.1403   -4.0347    0.0000 O    0  0  0  0  0  0  0  0  0  0  0  0
    2.2559   -1.2820    0.0000 C    0  0  0  0  0  0  0  0  0  0  0  0
    1.2522   -2.1863    0.0000 C    0  0  0  0  0  0  0  0  0  0  0  0
    1.9776    0.0000    0.0000 O    0  0  0  0  0  0  0  0  0  0  0  0
    0.0000   -1.7689    0.0000 O    0  0  0  0  0  0  0  0  0  0  0  0
    7.3937   -2.9615    0.0000 C    0  0  0  0  0  0  0  0  0  0  0  0
    8.6658   -3.3788    0.0000 C    0  0  0  0  0  0  0  0  0  0  0  0
    9.9378   -3.7962    0.0000 Cl   0  0  0  0  0  0  0  0  0  0  0  0
    9.0732   -2.1068    0.0000 Cl   0  0  0  0  0  0  0  0  0  0  0  0
    8.2484   -4.6310    0.0000 Cl   0  0  0  0  0  0  0  0  0  0  0  0
  1  2  1  1  0  0  0
  1  3  1  0  0  0  0
  1  9  1  0  0  0  0
  2  4  1  0  0  0  0
  3  5  1  0  0  0  0
  3  8  1  1  0  0  0
  4  5  1  0  0  0  0
  4  6  1  6  0  0  0
  5  7  1  6  0  0  0
  6 13  1  0  0  0  0
  7 13  1  0  0  0  0
  9 10  1  0  0  0  0
  9 11  1  1  0  0  0
 10 12  1  0  0  0  0
 13 14  1  6  0  0  0
 14 15  1  0  0  0  0
 14 16  1  0  0  0  0
 14 17  1  0  0  0  0
M  END
> <ID>
86

> <Formula>
C8H11Cl3O6

> <FW>
309.5283

> <DSSTox_CID>
88

> <DSSTox_RID>
75357

> <DSSTox_GSID>
20088

> <DSSTox_FileID_Sort>
41

> <TS_ChemName>
Chloralose

> <TS_ChemName_Synonyms>
Anhydroglucochloral; Chloralose-alpha

> <TS_CASRN>
15879-93-3

> <CASRN_ChemName_Relationship>
primary

> <TS_Description>
single chemical compound

> <ChemNote>
stereochem

> <STRUCTURE_Shown>
tested chemical

> <STRUCTURE_Formula>
C8H11Cl3O6

> <STRUCTURE_MW>
309.5283

> <STRUCTURE_ChemType>
defined organic

> <STRUCTURE_DefinedOrganicForm>
parent

> <STRUCTURE_IUPAC>
1,2-O-[(1R)-2,2,2-trichloroethylidene]-alpha-D-glucofuranose

> <STRUCTURE_SMILES>
OC[C@@H](O)[C@H]1O[C@@H]2O[C@@H](O[C@@H]2[C@H]1O)C(Cl)(Cl)Cl

> <STRUCTURE_SMILES_Desalt>
OC[C@@H](O)[C@H]1O[C@@H]2O[C@@H](O[C@@H]2[C@H]1O)C(Cl)(Cl)Cl

> <Substance_modify_yyyymmdd>
20080429

$$$$
