158942-04-2_1
ChemmineR-0915142007XD

 23 25  0  0  0  0  0  0  0  0  1 V2000
    4.3528   -6.4789    0.0000 C    0  0  0  0  0  0  0  0  0  0  0  0
    4.3528   -7.8089    0.0000 C    0  0  0  0  0  0  0  0  0  0  0  0
    3.2042   -5.8038    0.0000 C    0  0  0  0  0  0  0  0  0  0  0  0
    3.2042   -8.4638    0.0000 C    0  0  0  0  0  0  0  0  0  0  0  0
    2.0454   -6.4789    0.0000 C    0  0  0  0  0  0  0  0  0  0  0  0
    2.0454   -7.8089    0.0000 C    0  0  0  0  0  0  0  0  0  0  0  0
    5.6224   -6.0557    0.0000 N    0  0  0  0  0  0  0  0  0  0  0  0
    6.4083   -7.1338    0.0000 C    0  0  0  0  0  0  0  0  0  0  0  0
    5.6224   -8.2019    0.0000 C    0  0  0  0  0  0  0  0  0  0  0  0
    0.7859   -6.0557    0.0000 C    0  0  0  0  0  0  0  0  0  0  0  0
    0.0000   -7.1338    0.0000 C    0  0  0  0  0  0  0  0  0  0  0  0
    0.7859   -8.2019    0.0000 N    0  0  0  0  0  0  0  0  0  0  0  0
    0.3829   -9.4714    0.0000 C    0  0  0  0  0  0  0  0  0  0  0  0
    6.0254   -4.7962    0.0000 C    0  0  0  0  0  0  0  0  0  0  0  0
    7.3353   -4.5241    0.0000 O    0  0  0  0  0  0  0  0  0  0  0  0
    5.1388   -3.7986    0.0000 N    0  0  0  0  0  0  0  0  0  0  0  0
    5.5619   -2.5391    0.0000 C    0  0  0  0  0  0  0  0  0  0  0  0
    4.6652   -1.5618    0.0000 C    0  0  0  0  0  0  0  0  0  0  0  0
    6.8517   -2.2671    0.0000 C    0  0  0  0  0  0  0  0  0  0  0  0
    5.0783   -0.2922    0.0000 N    0  0  0  0  0  0  0  0  0  0  0  0
    7.2547   -0.9975    0.0000 C    0  0  0  0  0  0  0  0  0  0  0  0
    6.3781    0.0000    0.0000 C    0  0  0  0  0  0  0  0  0  0  0  0
   10.0760   -6.5192    0.0000 Cl   0  0  0  0  0  0  0  0  0  0  0  0
  1  3  2  0  0  0  0
  1  7  1  0  0  0  0
  1  2  1  0  0  0  0
  2  4  2  0  0  0  0
  2  9  1  0  0  0  0
  3  5  1  0  0  0  0
  4  6  1  0  0  0  0
  5  6  2  0  0  0  0
  5 10  1  0  0  0  0
  6 12  1  0  0  0  0
  7  8  1  0  0  0  0
  7 14  1  0  0  0  0
  8  9  1  0  0  0  0
 10 11  2  0  0  0  0
 11 12  1  0  0  0  0
 12 13  1  0  0  0  0
 14 15  2  0  0  0  0
 14 16  1  0  0  0  0
 16 17  1  0  0  0  0
 17 18  1  0  0  0  0
 17 19  2  0  0  0  0
 18 20  2  0  0  0  0
 19 21  1  0  0  0  0
 20 22  1  0  0  0  0
 21 22  2  0  0  0  0
M  END
> <ID>
9490

> <Formula>
C17H17ClN4O

> <FW>
328.7961 (292.3351+36.4609)

> <DSSTox_CID>
22622

> <DSSTox_RID>
80061

> <DSSTox_GSID>
42622

> <DSSTox_FileID_Sort>
4743

> <TS_ChemName>
SB 206553 hydrochloride

> <TS_ChemName_Synonyms>


> <TS_CASRN>
158942-04-2_1

> <CASRN_ChemName_Relationship>
CAS for parent

> <TS_Description>
single chemical compound

> <ChemNote>
CAS for SB 206553 (no HCl)

> <STRUCTURE_Shown>
tested chemical

> <STRUCTURE_Formula>
C17H17ClN4O

> <STRUCTURE_MW>
328.7961

> <STRUCTURE_ChemType>
defined organic

> <STRUCTURE_DefinedOrganicForm>
complex

> <STRUCTURE_IUPAC>
5-methyl-N-(pyridin-3-yl)-3,5-dihydropyrrolo[2,3-f]indole-1(2H)-carboxamide hydrochloride (1:1)

> <STRUCTURE_SMILES>
Cl.Cn4ccc3cc1c(CCN1C(=O)Nc2cccnc2)cc34

> <STRUCTURE_SMILES_Desalt>
Cn4ccc3cc1c(CCN1C(=O)Nc2cccnc2)cc34

> <Substance_modify_yyyymmdd>
20130911

$$$$
