158930-17-7
ChemmineR-0915142007XD

 27 27  0  0  1  0  0  0  0  0  1 V2000
    2.2982   -0.6607    0.0000 C   0  0  0  0  0  0  0  0  0  0  0  0
    2.2982   -1.9918    0.0000 C   0  0  0  0  0  0  0  0  0  0  0  0
    3.4569   -2.6717    0.0000 C   0  0  0  0  0  0  0  0  0  0  0  0
    3.4569    0.0000    0.0000 C   0  0  0  0  0  0  0  0  0  0  0  0
    4.5964   -0.6607    0.0000 C   0  0  0  0  0  0  0  0  0  0  0  0
    4.5964   -1.9918    0.0000 C   0  0  0  0  0  0  0  0  0  0  0  0
    5.8605   -0.2585    0.0000 N   0  0  0  0  0  0  0  0  0  0  0  0
    6.6361   -1.3215    0.0000 C   0  0  0  0  0  0  0  0  0  0  0  0
    5.8605   -2.3940    0.0000 C   0  0  0  0  0  0  0  0  0  0  0  0
    6.3967   -3.6388    0.0000 C   0  0  0  0  0  0  0  0  0  0  0  0
    7.7086   -3.7633    0.0000 C   0  0  0  0  0  0  0  0  0  0  0  0
    8.5034   -2.6908    0.0000 C   0  0  0  0  0  0  0  0  0  0  0  0
    7.9672   -1.4843    0.0000 C   0  0  0  0  0  0  0  0  0  0  0  0
    1.1587   -2.6717    0.0000 N   0  0  0  0  0  0  0  0  0  0  0  0
    0.0000   -1.9918    0.0000 C   0  0  0  0  0  0  0  0  0  0  0  0
    8.2544   -4.9699    0.0000 C   0  0  0  0  0  0  0  0  0  0  0  0
    9.5759   -5.0944    0.0000 O   0  0  0  0  0  0  0  0  0  0  0  0
    7.4884   -6.0328    0.0000 N   0  0  0  0  0  0  0  0  0  0  0  0
    6.5595   -7.7469    0.0000 C   0  0  0  0  0  0  0  0  0  0  0  0
    3.0834   -7.1053    0.0000 C   0  0  0  0  0  0  0  0  0  0  0  0
    7.6990   -7.0766    0.0000 O   0  0  0  0  0  0  0  0  0  0  0  0
    1.9439   -7.7469    0.0000 O   0  0  0  0  0  0  0  0  0  0  0  0
    6.5212   -9.0971    0.0000 O   0  0  0  0  0  0  0  0  0  0  0  0
    3.0834   -5.7551    0.0000 O   0  0  0  0  0  0  0  0  0  0  0  0
    4.2421   -7.7469    0.0000 C   0  0  0  0  0  0  0  0  0  0  0  0
    5.4008   -7.0766    0.0000 C   0  0  0  0  0  0  0  0  0  0  0  0
    9.2503   -7.6990    0.0000 O   0  0  0  0  0  0  0  0  0  0  0  0
  1  2  1  0  0  0  0
  1  4  1  0  0  0  0
  2 14  1  6  0  0  0
  2  3  1  0  0  0  0
  3  6  1  0  0  0  0
  4  5  1  0  0  0  0
  5  6  2  0  0  0  0
  5  7  1  0  0  0  0
  6  9  1  0  0  0  0
  7  8  1  0  0  0  0
  8  9  2  0  0  0  0
  8 13  1  0  0  0  0
  9 10  1  0  0  0  0
 10 11  2  0  0  0  0
 11 12  1  0  0  0  0
 11 16  1  0  0  0  0
 12 13  2  0  0  0  0
 14 15  1  0  0  0  0
 16 17  2  0  0  0  0
 16 18  1  0  0  0  0
 19 21  2  0  0  0  0
 19 23  1  0  0  0  0
 19 26  1  0  0  0  0
 20 25  1  0  0  0  0
 20 22  2  0  0  0  0
 20 24  1  0  0  0  0
 25 26  1  0  0  0  0
M  END
> <ID>
14040

> <Formula>
C18H25N3O6

> <FW>
379.4076 (243.3043+118.0880+18.0153)

> <DSSTox_CID>
28982

> <DSSTox_RID>
83247

> <DSSTox_GSID>
49056

> <DSSTox_FileID_Sort>
7922

> <TS_ChemName>
Frovatriptan Succinate monohydrate

> <TS_ChemName_Synonyms>


> <TS_CASRN>
158930-17-7

> <CASRN_ChemName_Relationship>
primary

> <TS_Description>
single chemical compound

> <ChemNote>


> <STRUCTURE_Shown>
tested chemical

> <STRUCTURE_Formula>
C18H25N3O6

> <STRUCTURE_MW>
379.4076

> <STRUCTURE_ChemType>
defined organic

> <STRUCTURE_DefinedOrganicForm>
complex

> <STRUCTURE_IUPAC>
(3R)-3-(methylamino)-2,3,4,9-tetrahydro-1H-carbazole-6-carboxamide butanedioate hydrate (1:1:1)

> <STRUCTURE_SMILES>
O.O=C(O)CCC(=O)O.NC(=O)c1cc2c(cc1)nc3CC[C@H](Cc23)NC

> <STRUCTURE_SMILES_Desalt>
NC(=O)c1cc2c(cc1)nc3CC[C@H](Cc23)NC

> <Substance_modify_yyyymmdd>
20111204

$$$$
