15901-40-3
ChemmineR-0915142007XD

 23 25  0  0  0  0  0  0  0  0  1 V2000
    4.8111   -4.7918    0.0000 Si   0  0  0  0  0  0  0  0  0  0  0  0
    3.8988   -5.7713    0.0000 N    0  0  0  0  0  0  0  0  0  0  0  0
    5.7713   -5.7041    0.0000 N    0  0  0  0  0  0  0  0  0  0  0  0
    3.8316   -3.8988    0.0000 N    0  0  0  0  0  0  0  0  0  0  0  0
    2.5928   -5.4833    0.0000 C    0  0  0  0  0  0  0  0  0  0  0  0
    1.6997   -6.4435    0.0000 C    0  0  0  0  0  0  0  0  0  0  0  0
    0.4033   -6.1555    0.0000 C    0  0  0  0  0  0  0  0  0  0  0  0
    0.0000   -4.8687    0.0000 C    0  0  0  0  0  0  0  0  0  0  0  0
    0.9123   -3.9084    0.0000 C    0  0  0  0  0  0  0  0  0  0  0  0
    2.2087   -4.1965    0.0000 C    0  0  0  0  0  0  0  0  0  0  0  0
    7.0581   -5.3200    0.0000 C    0  0  0  0  0  0  0  0  0  0  0  0
    7.3462   -4.0236    0.0000 C    0  0  0  0  0  0  0  0  0  0  0  0
    8.6234   -3.6395    0.0000 C    0  0  0  0  0  0  0  0  0  0  0  0
    9.6029   -4.5326    0.0000 C    0  0  0  0  0  0  0  0  0  0  0  0
    9.2956   -5.8386    0.0000 C    0  0  0  0  0  0  0  0  0  0  0  0
    8.0280   -6.2227    0.0000 C    0  0  0  0  0  0  0  0  0  0  0  0
    4.1388   -2.5928    0.0000 C    0  0  0  0  0  0  0  0  0  0  0  0
    3.1594   -1.6805    0.0000 C    0  0  0  0  0  0  0  0  0  0  0  0
    3.4666   -0.4033    0.0000 C    0  0  0  0  0  0  0  0  0  0  0  0
    4.7246    0.0000    0.0000 C    0  0  0  0  0  0  0  0  0  0  0  0
    5.7041   -0.9123    0.0000 C    0  0  0  0  0  0  0  0  0  0  0  0
    5.4064   -2.2087    0.0000 C    0  0  0  0  0  0  0  0  0  0  0  0
    5.7041   -3.8316    0.0000 C    0  0  0  0  0  0  0  0  0  0  0  0
  1  2  1  0  0  0  0
  1  3  1  0  0  0  0
  1  4  1  0  0  0  0
  1 23  1  0  0  0  0
  2  5  1  0  0  0  0
  3 11  1  0  0  0  0
  4 17  1  0  0  0  0
  5  6  1  0  0  0  0
  5 10  1  0  0  0  0
  6  7  1  0  0  0  0
  7  8  1  0  0  0  0
  8  9  1  0  0  0  0
  9 10  1  0  0  0  0
 11 12  1  0  0  0  0
 11 16  1  0  0  0  0
 12 13  1  0  0  0  0
 13 14  1  0  0  0  0
 14 15  1  0  0  0  0
 15 16  1  0  0  0  0
 17 18  1  0  0  0  0
 17 22  1  0  0  0  0
 18 19  1  0  0  0  0
 19 20  1  0  0  0  0
 20 21  1  0  0  0  0
 21 22  1  0  0  0  0
M  END
> <ID>
10490

> <Formula>
C19H39N3Si

> <FW>
337.6186

> <DSSTox_CID>
24842

> <DSSTox_RID>
80522

> <DSSTox_GSID>
44842

> <DSSTox_FileID_Sort>
5204

> <TS_ChemName>
N,N',N''-Tricyclohexyl-1-methylsilanetriamine

> <TS_ChemName_Synonyms>
N,N',N''-Tricyclohexyl-1-methylsilanetriamine (Silanetriamine, N,N',N''-tricyclohexyl-1-methyl-)

> <TS_CASRN>
15901-40-3

> <CASRN_ChemName_Relationship>
primary

> <TS_Description>
single chemical compound

> <ChemNote>


> <STRUCTURE_Shown>
tested chemical

> <STRUCTURE_Formula>
C19H39N3Si

> <STRUCTURE_MW>
337.6186

> <STRUCTURE_ChemType>
organometallic

> <STRUCTURE_DefinedOrganicForm>


> <STRUCTURE_IUPAC>
N,N',N''-tricyclohexyl-1-methylsilanetriamine

> <STRUCTURE_SMILES>
C[Si](NC1CCCCC1)(NC2CCCCC2)NC3CCCCC3

> <STRUCTURE_SMILES_Desalt>
C[Si](NC1CCCCC1)(NC2CCCCC2)NC3CCCCC3

> <Substance_modify_yyyymmdd>
20091116

$$$$
