15905-32-5
ChemmineR-0915142007XD

 29 33  0  0  0  0  0  0  0  0  1 V2000
    4.6452   -4.0506    0.0000 C   0  0  0  0  0  0  0  0  0  0  0  0
    5.8065   -3.3538    0.0000 C   0  0  0  0  0  0  0  0  0  0  0  0
    3.4839   -3.3538    0.0000 C   0  0  0  0  0  0  0  0  0  0  0  0
    3.6233   -4.8217    0.0000 C   0  0  0  0  0  0  0  0  0  0  0  0
    5.6950   -4.8403    0.0000 O   0  0  0  0  0  0  0  0  0  0  0  0
    5.8065   -2.0160    0.0000 C   0  0  0  0  0  0  0  0  0  0  0  0
    6.9492   -4.0506    0.0000 C   0  0  0  0  0  0  0  0  0  0  0  0
    3.4839   -2.0160    0.0000 C   0  0  0  0  0  0  0  0  0  0  0  0
    2.3226   -4.0506    0.0000 C   0  0  0  0  0  0  0  0  0  0  0  0
    4.0042   -6.0759    0.0000 C   0  0  0  0  0  0  0  0  0  0  0  0
    2.3412   -4.5709    0.0000 C   0  0  0  0  0  0  0  0  0  0  0  0
    5.3048   -6.0759    0.0000 C   0  0  0  0  0  0  0  0  0  0  0  0
    4.6266   -1.3378    0.0000 O   0  0  0  0  0  0  0  0  0  0  0  0
    6.9492   -1.3378    0.0000 C   0  0  0  0  0  0  0  0  0  0  0  0
    8.0920   -3.3538    0.0000 C   0  0  0  0  0  0  0  0  0  0  0  0
    2.3226   -1.3378    0.0000 C   0  0  0  0  0  0  0  0  0  0  0  0
    1.1613   -3.3538    0.0000 C   0  0  0  0  0  0  0  0  0  0  0  0
    3.1587   -7.0514    0.0000 C   0  0  0  0  0  0  0  0  0  0  0  0
    1.5050   -5.4999    0.0000 C   0  0  0  0  0  0  0  0  0  0  0  0
    6.1317   -7.1443    0.0000 O   0  0  0  0  0  0  0  0  0  0  0  0
    8.0920   -2.0160    0.0000 C   0  0  0  0  0  0  0  0  0  0  0  0
    6.9492    0.0000    0.0000 I   0  0  0  0  0  0  0  0  0  0  0  0
    9.2533   -4.0042    0.0000 I   0  0  0  0  0  0  0  0  0  0  0  0
    1.1613   -2.0160    0.0000 C   0  0  0  0  0  0  0  0  0  0  0  0
    2.3226    0.0000    0.0000 I   0  0  0  0  0  0  0  0  0  0  0  0
    0.0000   -4.0135    0.0000 I   0  0  0  0  0  0  0  0  0  0  0  0
    1.8952   -6.8192    0.0000 C   0  0  0  0  0  0  0  0  0  0  0  0
    9.2904   -1.3378    0.0000 O   0  0  0  0  0  0  0  0  0  0  0  0
    0.0186   -1.3378    0.0000 O   0  0  0  0  0  0  0  0  0  0  0  0
  1  2  1  0  0  0  0
  1  3  1  0  0  0  0
  1  4  1  0  0  0  0
  1  5  1  0  0  0  0
  2  6  2  0  0  0  0
  2  7  1  0  0  0  0
  3  8  2  0  0  0  0
  3  9  1  0  0  0  0
  4 10  1  0  0  0  0
  4 11  2  0  0  0  0
  5 12  1  0  0  0  0
  6 13  1  0  0  0  0
  6 14  1  0  0  0  0
  7 15  2  0  0  0  0
  8 16  1  0  0  0  0
  8 13  1  0  0  0  0
  9 17  2  0  0  0  0
 10 18  2  0  0  0  0
 10 12  1  0  0  0  0
 11 19  1  0  0  0  0
 12 20  2  0  0  0  0
 14 21  2  0  0  0  0
 14 22  1  0  0  0  0
 15 23  1  0  0  0  0
 15 21  1  0  0  0  0
 16 24  2  0  0  0  0
 16 25  1  0  0  0  0
 17 26  1  0  0  0  0
 17 24  1  0  0  0  0
 18 27  1  0  0  0  0
 19 27  2  0  0  0  0
 21 28  1  0  0  0  0
 24 29  1  0  0  0  0
M  END
> <ID>
9903

> <Formula>
C20H8I4O5

> <FW>
835.8924

> <DSSTox_CID>
24207

> <DSSTox_RID>
80523

> <DSSTox_GSID>
44843

> <DSSTox_FileID_Sort>
5205

> <TS_ChemName>
Erythrosin B

> <TS_ChemName_Synonyms>
Erythrosin B (Spiro[isobenzofuran-1(3H),9'-[9H]xanthen]-3-one, 3',6'-dihydroxy-2',4',5',7'-tetraiodo-)

> <TS_CASRN>
15905-32-5

> <CASRN_ChemName_Relationship>
primary

> <TS_Description>
single chemical compound

> <ChemNote>


> <STRUCTURE_Shown>
tested chemical

> <STRUCTURE_Formula>
C20H8I4O5

> <STRUCTURE_MW>
835.8924

> <STRUCTURE_ChemType>
defined organic

> <STRUCTURE_DefinedOrganicForm>
parent

> <STRUCTURE_IUPAC>
3',6'-dihydroxy-2',4',5',7'-tetraiodo-3H-spiro[2-benzofuran-1,9'-xanthen]-3-one

> <STRUCTURE_SMILES>
Ic4c5Oc1c(I)c(O)c(I)cc1C3(OC(=O)c2ccccc23)c5cc(I)c4O

> <STRUCTURE_SMILES_Desalt>
Ic4c5Oc1c(I)c(O)c(I)cc1C3(OC(=O)c2ccccc23)c5cc(I)c4O

> <Substance_modify_yyyymmdd>
20091116

$$$$
