159138-81-5
ChemmineR-0915142007XD

 24 23  0  0  0  0  0  0  0  0  1 V2000
    3.9742   -3.4483    0.0000 C   0  0  0  0  0  0  0  0  0  0  0  0
    4.6294   -2.3018    0.0000 C   0  0  0  0  0  0  0  0  0  0  0  0
    4.6294   -4.6035    0.0000 C   0  0  0  0  0  0  0  0  0  0  0  0
    5.9570   -2.3018    0.0000 C   0  0  0  0  0  0  0  0  0  0  0  0
    5.9570   -4.6035    0.0000 C   0  0  0  0  0  0  0  0  0  0  0  0
    6.6294   -3.4483    0.0000 C   0  0  0  0  0  0  0  0  0  0  0  0
    7.9484   -3.4483    0.0000 C   0  0  0  0  0  0  0  0  0  0  0  0
    8.6035   -4.6035    0.0000 C   0  0  0  0  0  0  0  0  0  0  0  0
    8.6035   -2.3018    0.0000 C   0  0  0  0  0  0  0  0  0  0  0  0
    6.6294   -1.1552    0.0000 S   0  0  0  0  0  0  0  0  0  0  0  0
    7.7587   -1.4052    0.0000 C   0  0  0  0  0  0  0  0  0  0  0  0
    5.4742   -0.4828    0.0000 O   0  0  0  0  0  0  0  0  0  0  0  0
    7.2759    0.0000    0.0000 O   0  0  0  0  0  0  0  0  0  0  0  0
    2.6466   -3.4483    0.0000 C   0  0  0  0  0  0  0  0  0  0  0  0
    1.9828   -2.3018    0.0000 O   0  0  0  0  0  0  0  0  0  0  0  0
    1.9828   -4.6035    0.0000 N   0  0  0  0  0  0  0  0  0  0  0  0
    0.6552   -4.6035    0.0000 C   0  0  0  0  0  0  0  0  0  0  0  0
    0.0000   -5.7328    0.0000 N   0  0  0  0  0  0  0  0  0  0  0  0
    0.0000   -3.4483    0.0000 N   0  0  0  0  0  0  0  0  0  0  0  0
    7.2932   -5.8621    0.0000 S   0  0  0  0  0  0  0  0  0  0  0  0
    7.2932   -7.3794    0.0000 O   0  0  0  0  0  0  0  0  0  0  0  0
    8.6208   -5.8621    0.0000 O   0  0  0  0  0  0  0  0  0  0  0  0
    7.2932   -4.5345    0.0000 O   0  0  0  0  0  0  0  0  0  0  0  0
    5.9052   -5.8621    0.0000 C   0  0  0  0  0  0  0  0  0  0  0  0
  1  2  1  0  0  0  0
  1  3  2  0  0  0  0
  1 14  1  0  0  0  0
  2  4  2  0  0  0  0
  3  5  1  0  0  0  0
  4  6  1  0  0  0  0
  4 10  1  0  0  0  0
  5  6  2  0  0  0  0
  6  7  1  0  0  0  0
  7  8  1  0  0  0  0
  7  9  1  0  0  0  0
 10 11  1  0  0  0  0
 10 12  2  0  0  0  0
 10 13  2  0  0  0  0
 14 15  2  0  0  0  0
 14 16  1  0  0  0  0
 16 17  2  0  0  0  0
 17 18  1  0  0  0  0
 17 19  1  0  0  0  0
 20 21  2  0  0  0  0
 20 22  1  0  0  0  0
 20 23  2  0  0  0  0
 20 24  1  0  0  0  0
M  END
> <ID>
12486

> <Formula>
C13H21N3O6S2

> <FW>
379.4523 (283.3467+96.1057)

> <DSSTox_CID>
27344

> <DSSTox_RID>
82284

> <DSSTox_GSID>
47344

> <DSSTox_FileID_Sort>
6965

> <TS_ChemName>
Cariporide mesylate

> <TS_ChemName_Synonyms>
A000254381B; HOE642

> <TS_CASRN>
159138-81-5

> <CASRN_ChemName_Relationship>
primary

> <TS_Description>
single chemical compound

> <ChemNote>


> <STRUCTURE_Shown>
tested chemical

> <STRUCTURE_Formula>
C13H21N3O6S2

> <STRUCTURE_MW>
379.4523

> <STRUCTURE_ChemType>
defined organic

> <STRUCTURE_DefinedOrganicForm>
complex

> <STRUCTURE_IUPAC>
N-(diaminomethylidene)-3-(methylsulfonyl)-4-(propan-2-yl)benzamide methanesulfonate (1:1)

> <STRUCTURE_SMILES>
O=S(C)(=O)c1cc(ccc1C(C)C)C(=O)/N=C(\N)N.CS(=O)(=O)O

> <STRUCTURE_SMILES_Desalt>
O=S(C)(=O)c1cc(ccc1C(C)C)C(=O)/N=C(\N)N

> <Substance_modify_yyyymmdd>
20130910

$$$$
