159351-69-6
ChemmineR-0915142007XD

 72 75  0  0  1  0  0  0  0  0  1 V2000
    5.7249   -4.6418    0.0000 C   0  0  0  0  0  0  0  0  0  0  0  0
    5.7249   -5.9656    0.0000 O   0  0  0  0  0  0  0  0  0  0  0  0
    4.5902   -3.9713    0.0000 C   0  0  0  0  0  0  0  0  0  0  0  0
    4.5902   -6.6189    0.0000 O   0  0  0  0  0  0  0  0  0  0  0  0
    3.4556   -4.6418    0.0000 N   0  0  0  0  0  0  0  0  0  0  0  0
    3.4556   -5.9656    0.0000 C   0  0  0  0  0  0  0  0  0  0  0  0
    6.8939   -3.9713    0.0000 O   0  0  0  0  0  0  0  0  0  0  0  0
    8.0114   -4.6418    0.0000 C   0  0  0  0  0  0  0  0  0  0  0  0
    8.0114   -5.9656    0.0000 C   0  0  0  0  0  0  0  0  0  0  0  0
    9.1633   -3.9713    0.0000 C   0  0  0  0  0  0  0  0  0  0  0  0
   10.2979   -4.6418    0.0000 C   0  0  0  0  0  0  0  0  0  0  0  0
    9.1633   -6.6189    0.0000 C   0  0  0  0  0  0  0  0  0  0  0  0
    4.5902   -2.6475    0.0000 C   0  0  0  0  0  0  0  0  0  0  0  0
    3.4556   -1.9943    0.0000 C   0  0  0  0  0  0  0  0  0  0  0  0
    2.3037   -3.9713    0.0000 C   0  0  0  0  0  0  0  0  0  0  0  0
    2.3037   -2.6475    0.0000 C   0  0  0  0  0  0  0  0  0  0  0  0
    9.1633   -2.6475    0.0000 C   0  0  0  0  0  0  0  0  0  0  0  0
   10.2979   -1.9943    0.0000 C   0  0  0  0  0  0  0  0  0  0  0  0
   11.4670   -2.6475    0.0000 C   0  0  0  0  0  0  0  0  0  0  0  0
   10.2979   -0.6705    0.0000 C   0  0  0  0  0  0  0  0  0  0  0  0
   11.4670    0.0000    0.0000 C   0  0  0  0  0  0  0  0  0  0  0  0
   12.6016   -1.9943    0.0000 C   0  0  0  0  0  0  0  0  0  0  0  0
   12.6016   -0.6705    0.0000 C   0  0  0  0  0  0  0  0  0  0  0  0
    3.4556   -8.5787    0.0000 O   0  0  0  0  0  0  0  0  0  0  0  0
    2.3037   -6.6189    0.0000 C   0  0  0  0  0  0  0  0  0  0  0  0
    2.3037   -7.9426    0.0000 C   0  0  0  0  0  0  0  0  0  0  0  0
    9.1633   -7.9426    0.0000 C   0  0  0  0  0  0  0  0  0  0  0  0
    8.0114   -8.5787    0.0000 C   0  0  0  0  0  0  0  0  0  0  0  0
    3.4384   -9.9197    0.0000 C   0  0  0  0  0  0  0  0  0  0  0  0
    2.3037  -10.5902    0.0000 C   0  0  0  0  0  0  0  0  0  0  0  0
    1.1519   -8.5787    0.0000 C   0  0  0  0  0  0  0  0  0  0  0  0
    1.1519   -9.9197    0.0000 C   0  0  0  0  0  0  0  0  0  0  0  0
    4.5902  -10.5902    0.0000 C   0  0  0  0  0  0  0  0  0  0  0  0
   10.2979   -8.5787    0.0000 C   0  0  0  0  0  0  0  0  0  0  0  0
   10.2979   -9.9197    0.0000 C   0  0  0  0  0  0  0  0  0  0  0  0
    9.1633  -10.5902    0.0000 C   0  0  0  0  0  0  0  0  0  0  0  0
    4.5902  -11.9140    0.0000 C   0  0  0  0  0  0  0  0  0  0  0  0
    6.8939  -11.9140    0.0000 C   0  0  0  0  0  0  0  0  0  0  0  0
    5.7421  -12.5845    0.0000 C   0  0  0  0  0  0  0  0  0  0  0  0
   11.4670  -10.5902    0.0000 C   0  0  0  0  0  0  0  0  0  0  0  0
   11.4670  -11.9140    0.0000 C   0  0  0  0  0  0  0  0  0  0  0  0
   10.2979  -12.5673    0.0000 O   0  0  0  0  0  0  0  0  0  0  0  0
    5.7421  -13.8910    0.0000 C   0  0  0  0  0  0  0  0  0  0  0  0
    6.8939  -14.5615    0.0000 C   0  0  0  0  0  0  0  0  0  0  0  0
   10.2979  -13.8910    0.0000 C   0  0  0  0  0  0  0  0  0  0  0  0
   12.6016  -12.5673    0.0000 C   0  0  0  0  0  0  0  0  0  0  0  0
   12.6016  -13.8910    0.0000 C   0  0  0  0  0  0  0  0  0  0  0  0
   11.4670  -14.5615    0.0000 C   0  0  0  0  0  0  0  0  0  0  0  0
    9.1633  -15.8853    0.0000 C   0  0  0  0  0  0  0  0  0  0  0  0
    8.0114  -16.5386    0.0000 C   0  0  0  0  0  0  0  0  0  0  0  0
    6.8939  -15.8853    0.0000 C   0  0  0  0  0  0  0  0  0  0  0  0
   10.8309  -15.8853    0.0000 C   0  0  0  0  0  0  0  0  0  0  0  0
   13.7535  -11.9140    0.0000 O   0  0  0  0  0  0  0  0  0  0  0  0
   12.6016   -9.9197    0.0000 O   0  0  0  0  0  0  0  0  0  0  0  0
   13.7535  -14.5615    0.0000 C   0  0  0  0  0  0  0  0  0  0  0  0
   11.5529  -17.0028    0.0000 C   0  0  0  0  0  0  0  0  0  0  0  0
    3.4556  -12.5845    0.0000 O   0  0  0  0  0  0  0  0  0  0  0  0
    3.4556  -13.9082    0.0000 C   0  0  0  0  0  0  0  0  0  0  0  0
   10.2979   -5.9656    0.0000 O   0  0  0  0  0  0  0  0  0  0  0  0
    1.1519   -7.2722    0.0000 O   0  0  0  0  0  0  0  0  0  0  0  0
    1.1519   -5.9484    0.0000 O   0  0  0  0  0  0  0  0  0  0  0  0
   13.7535   -2.6475    0.0000 O   0  0  0  0  0  0  0  0  0  0  0  0
   13.7535   -0.0172    0.0000 O   0  0  0  0  0  0  0  0  0  0  0  0
    0.0000   -7.9426    0.0000 C   0  0  0  0  0  0  0  0  0  0  0  0
   13.7535   -3.9713    0.0000 C   0  0  0  0  0  0  0  0  0  0  0  0
    9.0257   -1.6676    0.0000 H   0  0  0  0  0  0  0  0  0  0  0  0
    8.0114   -3.3180    0.0000 H   0  0  0  0  0  0  0  0  0  0  0  0
    3.4384  -11.2435    0.0000 H   0  0  0  0  0  0  0  0  0  0  0  0
    4.5902   -5.2951    0.0000 H   0  0  0  0  0  0  0  0  0  0  0  0
   14.8882   -0.6877    0.0000 C   0  0  0  0  0  0  0  0  0  0  0  0
   16.0572   -0.0516    0.0000 C   0  0  0  0  0  0  0  0  0  0  0  0
   17.1919   -0.7221    0.0000 O   0  0  0  0  0  0  0  0  0  0  0  0
  1  3  1  0  0  0  0
  1  7  1  0  0  0  0
  1  2  2  0  0  0  0
  3 13  1  0  0  0  0
  3  5  1  0  0  0  0
  3 69  1  6  0  0  0
  4  6  2  0  0  0  0
  5  6  1  0  0  0  0
  5 15  1  0  0  0  0
  6 25  1  0  0  0  0
  7  8  1  0  0  0  0
  8 10  1  0  0  0  0
  8  9  1  0  0  0  0
  8 67  1  1  0  0  0
  9 12  1  0  0  0  0
 10 17  1  0  0  0  0
 10 11  1  1  0  0  0
 12 27  1  0  0  0  0
 12 59  2  0  0  0  0
 13 14  1  0  0  0  0
 14 16  1  0  0  0  0
 15 16  1  0  0  0  0
 17 18  1  0  0  0  0
 18 20  1  0  0  0  0
 18 19  1  0  0  0  0
 18 66  1  1  0  0  0
 19 22  1  0  0  0  0
 20 21  1  0  0  0  0
 21 23  1  0  0  0  0
 22 23  1  0  0  0  0
 22 62  1  6  0  0  0
 23 63  1  1  0  0  0
 24 26  1  0  0  0  0
 24 29  1  0  0  0  0
 25 26  1  0  0  0  0
 25 61  2  0  0  0  0
 26 31  1  0  0  0  0
 26 60  1  1  0  0  0
 27 34  1  0  0  0  0
 27 28  1  1  0  0  0
 29 30  1  0  0  0  0
 29 33  1  0  0  0  0
 29 68  1  1  0  0  0
 30 32  1  0  0  0  0
 31 32  1  0  0  0  0
 31 64  1  1  0  0  0
 33 37  1  0  0  0  0
 34 35  2  0  0  0  0
 35 40  1  0  0  0  0
 35 36  1  0  0  0  0
 37 39  1  0  0  0  0
 37 57  1  1  0  0  0
 38 39  1  0  0  0  0
 39 43  2  0  0  0  0
 40 41  1  0  0  0  0
 40 54  1  1  0  0  0
 41 46  1  0  0  0  0
 41 42  1  6  0  0  0
 42 45  1  0  0  0  0
 43 44  1  0  0  0  0
 44 51  2  0  0  0  0
 46 47  1  0  0  0  0
 46 53  2  0  0  0  0
 47 48  1  0  0  0  0
 47 55  1  6  0  0  0
 48 52  1  0  0  0  0
 49 50  2  0  0  0  0
 49 52  1  0  0  0  0
 50 51  1  0  0  0  0
 52 56  1  6  0  0  0
 57 58  1  0  0  0  0
 62 65  1  0  0  0  0
 63 70  1  0  0  0  0
 70 71  1  0  0  0  0
 71 72  1  0  0  0  0
M  END
> <ID>
7821

> <Formula>
C53H83NO14

> <FW>
958.2244

> <DSSTox_CID>
20599

> <DSSTox_RID>
79508

> <DSSTox_GSID>
40599

> <DSSTox_FileID_Sort>
4190

> <TS_ChemName>
Everolimus

> <TS_ChemName_Synonyms>
Everolimus (RAD001)

> <TS_CASRN>
159351-69-6

> <CASRN_ChemName_Relationship>
primary

> <TS_Description>
single chemical compound

> <ChemNote>
stereochem; tautomers

> <STRUCTURE_Shown>
tested chemical

> <STRUCTURE_Formula>
C53H83NO14

> <STRUCTURE_MW>
958.2244

> <STRUCTURE_ChemType>
defined organic

> <STRUCTURE_DefinedOrganicForm>
parent

> <STRUCTURE_IUPAC>
(3S,6R,7E,9R,10R,12R,14S,15E,17E,19E,21S,23S,26R,27R,34aS)-9,27-dihydroxy-3-{(2R)-1-[(1S,3R,4R)-4-(2-hydroxyethoxy)-3-methoxycyclohexyl]propan-2-yl}-10,21-dimethoxy-6,8,12,14,20,26-hexamethyl-9,10,12,13,14,21,22,23,24,25,26,27,32,33,34,34a-hexadecahydro-3

> <STRUCTURE_SMILES>
OCCO[C@@H]1CC[C@H](C[C@H]1OC)C[C@@H](C)[C@H]2OC(=O)[C@@H]4CCCCN4C(=O)C(=O)[C@]3(O)O[C@H](C[C@H](OC)C(C)=CC=CC=C[C@@H](C)C[C@@H](C)C(=O)[C@H](OC)[C@H](O)C(C)=C[C@@H](C)C(=O)C2)CC[C@H]3C

> <STRUCTURE_SMILES_Desalt>
OCCO[C@@H]1CC[C@H](C[C@H]1OC)C[C@@H](C)[C@H]2OC(=O)[C@@H]4CCCCN4C(=O)C(=O)[C@]3(O)O[C@H](C[C@H](OC)C(C)=CC=CC=C[C@@H](C)C[C@@H](C)C(=O)[C@H](OC)[C@H](O)C(C)=C[C@@H](C)C(=O)C2)CC[C@H]3C

> <Substance_modify_yyyymmdd>
20080429

$$$$
