1596-84-5
ChemmineR-0915142007XD

 11 10  0  0  0  0  0  0  0  0  1 V2000
    3.4621   -3.3249    0.0000 O   0  0  0  0  0  0  0  0  0  0  0  0
    3.4621   -1.9933    0.0000 C   0  0  0  0  0  0  0  0  0  0  0  0
    4.6081   -1.3316    0.0000 C   0  0  0  0  0  0  0  0  0  0  0  0
    5.7622   -1.9933    0.0000 C   0  0  0  0  0  0  0  0  0  0  0  0
    6.9162   -1.3316    0.0000 C   0  0  0  0  0  0  0  0  0  0  0  0
    6.9162    0.0000    0.0000 O   0  0  0  0  0  0  0  0  0  0  0  0
    8.0702   -1.9933    0.0000 O   0  0  0  0  0  0  0  0  0  0  0  0
    2.3081   -1.3316    0.0000 N   0  0  0  0  0  0  0  0  0  0  0  0
    1.1540   -1.9933    0.0000 N   0  0  0  0  0  0  0  0  0  0  0  0
    1.1540   -3.3249    0.0000 C   0  0  0  0  0  0  0  0  0  0  0  0
    0.0000   -1.3316    0.0000 C   0  0  0  0  0  0  0  0  0  0  0  0
  1  2  2  0  0  0  0
  2  3  1  0  0  0  0
  2  8  1  0  0  0  0
  3  4  1  0  0  0  0
  4  5  1  0  0  0  0
  5  6  2  0  0  0  0
  5  7  1  0  0  0  0
  8  9  1  0  0  0  0
  9 10  1  0  0  0  0
  9 11  1  0  0  0  0
M  END
> <ID>
360

> <Formula>
C6H12N2O3

> <FW>
160.1711

> <DSSTox_CID>
370

> <DSSTox_RID>
75546

> <DSSTox_GSID>
20370

> <DSSTox_FileID_Sort>
230

> <TS_ChemName>
Daminozide

> <TS_ChemName_Synonyms>
Daminozide (Alar) (Succinic acid 2,2-dimethylhydrazine) (Butanedioic acid mono(2,2-dimethylhydrazide))

> <TS_CASRN>
1596-84-5

> <CASRN_ChemName_Relationship>
primary

> <TS_Description>
single chemical compound

> <ChemNote>


> <STRUCTURE_Shown>
tested chemical

> <STRUCTURE_Formula>
C6H12N2O3

> <STRUCTURE_MW>
160.1711

> <STRUCTURE_ChemType>
defined organic

> <STRUCTURE_DefinedOrganicForm>
parent

> <STRUCTURE_IUPAC>
4-(2,2-dimethylhydrazinyl)-4-oxobutanoic acid

> <STRUCTURE_SMILES>
O=C(NN(C)C)CCC(=O)O

> <STRUCTURE_SMILES_Desalt>
O=C(NN(C)C)CCC(=O)O

> <Substance_modify_yyyymmdd>
20080429

$$$$
