159701-44-7
ChemmineR-0915142007XD

 26 29  0  0  1  0  0  0  0  0  1 V2000
    3.3375   -5.1645    0.0000 C   0  0  0  0  0  0  0  0  0  0  0  0
    3.3375   -7.7513    0.0000 C   0  0  0  0  0  0  0  0  0  0  0  0
    4.4138   -5.8338    0.0000 C   0  0  0  0  0  0  0  0  0  0  0  0
    2.1979   -5.8338    0.0000 C   0  0  0  0  0  0  0  0  0  0  0  0
    5.5354   -5.1645    0.0000 N   0  0  0  0  0  0  0  0  0  0  0  0
    2.1979   -7.1272    0.0000 C   0  0  0  0  0  0  0  0  0  0  0  0
    5.5715   -1.3296    0.0000 C   0  0  0  0  0  0  0  0  0  0  0  0
    4.4138   -7.1272    0.0000 C   0  0  0  0  0  0  0  0  0  0  0  0
    3.3375   -3.8983    0.0000 C   0  0  0  0  0  0  0  0  0  0  0  0
    3.3375   -9.0447    0.0000 C   0  0  0  0  0  0  0  0  0  0  0  0
    1.1035   -9.0447    0.0000 N   0  0  0  0  0  0  0  0  0  0  0  0
    4.4138   -1.9627    0.0000 N   0  0  0  0  0  0  0  0  0  0  0  0
    4.4138   -3.2561    0.0000 C   0  0  0  0  0  0  0  0  0  0  0  0
    1.1035   -7.7513    0.0000 C   0  0  0  0  0  0  0  0  0  0  0  0
    5.5354   -3.8983    0.0000 C   0  0  0  0  0  0  0  0  0  0  0  0
    6.6750   -1.9808    0.0000 N   0  0  0  0  0  0  0  0  0  0  0  0
    5.5715    0.0000    0.0000 O   0  0  0  0  0  0  0  0  0  0  0  0
    1.1035   -5.1645    0.0000 C   0  0  0  0  0  0  0  0  0  0  0  0
    6.6750   -5.8519    0.0000 C   0  0  0  0  0  0  0  0  0  0  0  0
    0.0000   -5.8338    0.0000 C   0  0  0  0  0  0  0  0  0  0  0  0
    0.0000   -7.1272    0.0000 C   0  0  0  0  0  0  0  0  0  0  0  0
    7.8146   -1.3296    0.0000 C   0  0  0  0  0  0  0  0  0  0  0  0
    6.6750   -3.2923    0.0000 C   0  0  0  0  0  0  0  0  0  0  0  0
    8.9542   -1.9808    0.0000 C   0  0  0  0  0  0  0  0  0  0  0  0
    7.8146   -3.9616    0.0000 C   0  0  0  0  0  0  0  0  0  0  0  0
    4.4319   -4.3957    0.0000 H   0  0  0  0  0  0  0  0  0  0  0  0
  1  3  1  0  0  0  0
  1  4  1  0  0  0  0
  1  9  2  0  0  0  0
  2  6  1  0  0  0  0
  2 10  2  0  0  0  0
  2  8  1  0  0  0  0
  3  5  1  0  0  0  0
  3  8  1  0  0  0  0
  3 26  1  6  0  0  0
  4  6  2  0  0  0  0
  4 18  1  0  0  0  0
  5 19  1  0  0  0  0
  5 15  1  0  0  0  0
  6 14  1  0  0  0  0
  7 12  1  0  0  0  0
  7 16  1  0  0  0  0
  7 17  2  0  0  0  0
  9 13  1  0  0  0  0
 10 11  1  0  0  0  0
 11 14  1  0  0  0  0
 13 12  1  1  0  0  0
 13 15  1  0  0  0  0
 14 21  2  0  0  0  0
 16 22  1  0  0  0  0
 16 23  1  0  0  0  0
 18 20  2  0  0  0  0
 20 21  1  0  0  0  0
 22 24  1  0  0  0  0
 23 25  1  0  0  0  0
M  END
> <ID>
11603

> <Formula>
C20H26N4O

> <FW>
338.4466

> <DSSTox_CID>
26320

> <DSSTox_RID>
81536

> <DSSTox_GSID>
46320

> <DSSTox_FileID_Sort>
6217

> <TS_ChemName>
(-)-(5S,8R)-Lisuride

> <TS_ChemName_Synonyms>


> <TS_CASRN>
159701-44-7

> <CASRN_ChemName_Relationship>
primary

> <TS_Description>
single chemical compound

> <ChemNote>
absolute stereochem

> <STRUCTURE_Shown>
tested chemical

> <STRUCTURE_Formula>
C20H26N4O

> <STRUCTURE_MW>
338.4466

> <STRUCTURE_ChemType>
defined organic

> <STRUCTURE_DefinedOrganicForm>
parent

> <STRUCTURE_IUPAC>
1,1-diethyl-3-[(5alpha,8beta)-6-methyl-9,10-didehydroergolin-8-yl]urea

> <STRUCTURE_SMILES>
CCN(CC)C(=O)N[C@@H]2C=C1c3cccc4ncc(C[C@@H]1N(C)C2)c34

> <STRUCTURE_SMILES_Desalt>
CCN(CC)C(=O)N[C@@H]2C=C1c3cccc4ncc(C[C@@H]1N(C)C2)c34

> <Substance_modify_yyyymmdd>
20110816

$$$$
