1597-82-6
ChemmineR-0915142007XD

 34 37  0  0  1  0  0  0  0  0  1 V2000
    3.5014   -5.8226    0.0000 C   0  0  0  0  0  0  0  0  0  0  0  0
    7.0157   -3.8256    0.0000 C   0  0  0  0  0  0  0  0  0  0  0  0
    3.5014   -7.1583    0.0000 C   0  0  0  0  0  0  0  0  0  0  0  0
    7.0157   -5.1613    0.0000 C   0  0  0  0  0  0  0  0  0  0  0  0
    8.2995   -3.3717    0.0000 C   0  0  0  0  0  0  0  0  0  0  0  0
    5.8356   -5.8226    0.0000 C   0  0  0  0  0  0  0  0  0  0  0  0
    4.6685   -5.1613    0.0000 C   0  0  0  0  0  0  0  0  0  0  0  0
    2.3731   -5.1613    0.0000 C   0  0  0  0  0  0  0  0  0  0  0  0
    5.8356   -3.1383    0.0000 C   0  0  0  0  0  0  0  0  0  0  0  0
    4.6685   -3.8256    0.0000 C   0  0  0  0  0  0  0  0  0  0  0  0
    9.0776   -4.4740    0.0000 C   0  0  0  0  0  0  0  0  0  0  0  0
    8.2736   -5.5503    0.0000 C   0  0  0  0  0  0  0  0  0  0  0  0
    5.8356   -7.1583    0.0000 C   0  0  0  0  0  0  0  0  0  0  0  0
    4.6685   -7.8327    0.0000 C   0  0  0  0  0  0  0  0  0  0  0  0
    2.3731   -7.8327    0.0000 C   0  0  0  0  0  0  0  0  0  0  0  0
    8.2995   -2.0360    0.0000 C   0  0  0  0  0  0  0  0  0  0  0  0
    1.1931   -5.8226    0.0000 C   0  0  0  0  0  0  0  0  0  0  0  0
    1.1931   -7.1583    0.0000 C   0  0  0  0  0  0  0  0  0  0  0  0
    7.1194   -1.3487    0.0000 O   0  0  0  0  0  0  0  0  0  0  0  0
    0.0000   -7.8586    0.0000 O   0  0  0  0  0  0  0  0  0  0  0  0
    9.0906   -2.5417    0.0000 O   0  0  0  0  0  0  0  0  0  0  0  0
    3.5014   -4.4740    0.0000 C   0  0  0  0  0  0  0  0  0  0  0  0
    7.0157   -2.4510    0.0000 C   0  0  0  0  0  0  0  0  0  0  0  0
    4.6685   -8.9479    0.0000 F   0  0  0  0  0  0  0  0  0  0  0  0
    3.4754   -3.1123    0.0000 O   0  0  0  0  0  0  0  0  0  0  0  0
    9.4666   -1.3487    0.0000 C   0  0  0  0  0  0  0  0  0  0  0  0
   10.2317   -4.4740    0.0000 C   0  0  0  0  0  0  0  0  0  0  0  0
   10.6338   -2.0360    0.0000 O   0  0  0  0  0  0  0  0  0  0  0  0
    5.8356   -4.4740    0.0000 H   0  0  0  0  0  0  0  0  0  0  0  0
    4.6685   -6.4840    0.0000 H   0  0  0  0  0  0  0  0  0  0  0  0
    7.0157   -6.4840    0.0000 H   0  0  0  0  0  0  0  0  0  0  0  0
   11.8009   -1.3487    0.0000 C   0  0  0  0  0  0  0  0  0  0  0  0
   12.9680   -2.0360    0.0000 O   0  0  0  0  0  0  0  0  0  0  0  0
   11.8009    0.0000    0.0000 C   0  0  0  0  0  0  0  0  0  0  0  0
  1  3  1  0  0  0  0
  1  7  1  0  0  0  0
  1  8  1  0  0  0  0
  1 22  1  1  0  0  0
  2  9  1  0  0  0  0
  2  5  1  0  0  0  0
  2 23  1  1  0  0  0
  2  4  1  0  0  0  0
  3 14  1  0  0  0  0
  3 15  2  0  0  0  0
  4  6  1  0  0  0  0
  4 12  1  0  0  0  0
  4 31  1  6  0  0  0
  5 16  1  0  0  0  0
  5 21  1  6  0  0  0
  5 11  1  0  0  0  0
  6  7  1  0  0  0  0
  6 13  1  0  0  0  0
  6 29  1  1  0  0  0
  7 10  1  0  0  0  0
  7 30  1  6  0  0  0
  8 17  2  0  0  0  0
  9 10  1  0  0  0  0
 10 25  1  1  0  0  0
 11 12  1  0  0  0  0
 11 27  1  6  0  0  0
 13 14  1  0  0  0  0
 14 24  1  6  0  0  0
 15 18  1  0  0  0  0
 16 19  2  0  0  0  0
 16 26  1  0  0  0  0
 17 18  1  0  0  0  0
 18 20  2  0  0  0  0
 26 28  1  0  0  0  0
 28 32  1  0  0  0  0
 32 33  2  0  0  0  0
 32 34  1  0  0  0  0
M  END
> <ID>
3069

> <Formula>
C24H31FO6

> <FW>
434.4977

> <DSSTox_CID>
3422

> <DSSTox_RID>
77021

> <DSSTox_GSID>
23422

> <DSSTox_FileID_Sort>
1705

> <TS_ChemName>
Paramethasone acetate

> <TS_ChemName_Synonyms>


> <TS_CASRN>
1597-82-6

> <CASRN_ChemName_Relationship>
primary

> <TS_Description>
single chemical compound

> <ChemNote>
stereochem; tautomers

> <STRUCTURE_Shown>
tested chemical

> <STRUCTURE_Formula>
C24H31FO6

> <STRUCTURE_MW>
434.4977

> <STRUCTURE_ChemType>
defined organic

> <STRUCTURE_DefinedOrganicForm>
parent

> <STRUCTURE_IUPAC>
(6alpha,11beta,16alpha)-6-fluoro-11,17-dihydroxy-16-methyl-3,20-dioxopregna-1,4-dien-21-yl acetate

> <STRUCTURE_SMILES>
CC(=O)OCC(=O)[C@@]4(O)[C@H](C)C[C@@H]3[C@]4(C)C[C@H](O)[C@H]2[C@H]3C[C@H](F)C1=CC(=O)C=C[C@@]12C

> <STRUCTURE_SMILES_Desalt>
CC(=O)OCC(=O)[C@@]4(O)[C@H](C)C[C@@H]3[C@]4(C)C[C@H](O)[C@H]2[C@H]3C[C@H](F)C1=CC(=O)C=C[C@@]12C

> <Substance_modify_yyyymmdd>
20080429

$$$$
