15972-60-8
ChemmineR-0915142007XD

 18 18  0  0  0  0  0  0  0  0  1 V2000
    4.6558   -2.3003    0.0000 C    0  0  0  0  0  0  0  0  0  0  0  0
    3.9858   -1.1536    0.0000 C    0  0  0  0  0  0  0  0  0  0  0  0
    4.6558    0.0000    0.0000 C    0  0  0  0  0  0  0  0  0  0  0  0
    5.9821   -2.3003    0.0000 C    0  0  0  0  0  0  0  0  0  0  0  0
    6.6452   -3.4539    0.0000 C    0  0  0  0  0  0  0  0  0  0  0  0
    5.9821   -4.6075    0.0000 C    0  0  0  0  0  0  0  0  0  0  0  0
    4.6558   -4.6075    0.0000 C    0  0  0  0  0  0  0  0  0  0  0  0
    3.9858   -5.7541    0.0000 C    0  0  0  0  0  0  0  0  0  0  0  0
    4.6558   -6.9077    0.0000 C    0  0  0  0  0  0  0  0  0  0  0  0
    3.9858   -3.4539    0.0000 C    0  0  0  0  0  0  0  0  0  0  0  0
    2.6595   -3.4539    0.0000 N    0  0  0  0  0  0  0  0  0  0  0  0
    1.9963   -2.3003    0.0000 C    0  0  0  0  0  0  0  0  0  0  0  0
    0.6631   -2.3003    0.0000 O    0  0  0  0  0  0  0  0  0  0  0  0
    0.0000   -1.1536    0.0000 C    0  0  0  0  0  0  0  0  0  0  0  0
    1.9963   -4.6075    0.0000 C    0  0  0  0  0  0  0  0  0  0  0  0
    2.6595   -5.7541    0.0000 O    0  0  0  0  0  0  0  0  0  0  0  0
    0.6631   -4.6075    0.0000 C    0  0  0  0  0  0  0  0  0  0  0  0
    0.0000   -3.4539    0.0000 Cl   0  0  0  0  0  0  0  0  0  0  0  0
  1  2  1  0  0  0  0
  1  4  2  0  0  0  0
  1 10  1  0  0  0  0
  2  3  1  0  0  0  0
  4  5  1  0  0  0  0
  5  6  2  0  0  0  0
  6  7  1  0  0  0  0
  7  8  1  0  0  0  0
  7 10  2  0  0  0  0
  8  9  1  0  0  0  0
 10 11  1  0  0  0  0
 11 12  1  0  0  0  0
 11 15  1  0  0  0  0
 12 13  1  0  0  0  0
 13 14  1  0  0  0  0
 15 16  2  0  0  0  0
 15 17  1  0  0  0  0
 17 18  1  0  0  0  0
M  END
> <ID>
2103

> <Formula>
C14H20ClNO2

> <FW>
269.7671

> <DSSTox_CID>
2265

> <DSSTox_RID>
76532

> <DSSTox_GSID>
22265

> <DSSTox_FileID_Sort>
1216

> <TS_ChemName>
Alachlor

> <TS_ChemName_Synonyms>


> <TS_CASRN>
15972-60-8

> <CASRN_ChemName_Relationship>
primary

> <TS_Description>
single chemical compound

> <ChemNote>


> <STRUCTURE_Shown>
tested chemical

> <STRUCTURE_Formula>
C14H20ClNO2

> <STRUCTURE_MW>
269.7671

> <STRUCTURE_ChemType>
defined organic

> <STRUCTURE_DefinedOrganicForm>
parent

> <STRUCTURE_IUPAC>
2-chloro-N-(2,6-diethylphenyl)-N-(methoxymethyl)acetamide

> <STRUCTURE_SMILES>
ClCC(=O)N(COC)c1c(cccc1CC)CC

> <STRUCTURE_SMILES_Desalt>
ClCC(=O)N(COC)c1c(cccc1CC)CC

> <Substance_modify_yyyymmdd>
20080429

$$$$
