159989-65-8
ChemmineR-0915142007XD

 47 49  0  0  1  0  0  0  0  0  1 V2000
    3.4435   -6.6774    0.0000 C   0  0  0  0  0  0  0  0  0  0  0  0
    3.4435   -8.0098    0.0000 C   0  0  0  0  0  0  0  0  0  0  0  0
    2.3056   -6.0036    0.0000 C   0  0  0  0  0  0  0  0  0  0  0  0
    2.3056   -8.6536    0.0000 C   0  0  0  0  0  0  0  0  0  0  0  0
    1.1678   -6.6774    0.0000 C   0  0  0  0  0  0  0  0  0  0  0  0
    1.1678   -8.0098    0.0000 C   0  0  0  0  0  0  0  0  0  0  0  0
    0.0000   -6.0036    0.0000 O   0  0  0  0  0  0  0  0  0  0  0  0
    2.3056   -4.6712    0.0000 C   0  0  0  0  0  0  0  0  0  0  0  0
    4.6113   -6.0036    0.0000 C   0  0  0  0  0  0  0  0  0  0  0  0
    5.7341   -6.6474    0.0000 N   0  0  0  0  0  0  0  0  0  0  0  0
    6.9169   -6.0036    0.0000 C   0  0  0  0  0  0  0  0  0  0  0  0
    8.0398   -6.6474    0.0000 C   0  0  0  0  0  0  0  0  0  0  0  0
    6.9169   -4.6712    0.0000 C   0  0  0  0  0  0  0  0  0  0  0  0
    8.0398   -7.9799    0.0000 O   0  0  0  0  0  0  0  0  0  0  0  0
    9.2225   -6.0036    0.0000 C   0  0  0  0  0  0  0  0  0  0  0  0
    4.6113   -4.6712    0.0000 O   0  0  0  0  0  0  0  0  0  0  0  0
    5.7341   -3.9974    0.0000 S   0  0  0  0  0  0  0  0  0  0  0  0
    5.7341   -2.6650    0.0000 C   0  0  0  0  0  0  0  0  0  0  0  0
    4.6113   -2.0062    0.0000 C   0  0  0  0  0  0  0  0  0  0  0  0
    6.9169   -2.0062    0.0000 C   0  0  0  0  0  0  0  0  0  0  0  0
    4.6113   -0.6887    0.0000 C   0  0  0  0  0  0  0  0  0  0  0  0
    6.9169   -0.6887    0.0000 C   0  0  0  0  0  0  0  0  0  0  0  0
    5.7341    0.0000    0.0000 C   0  0  0  0  0  0  0  0  0  0  0  0
   10.3604   -6.6474    0.0000 N   0  0  0  0  0  0  0  0  0  0  0  0
   11.5282   -6.0036    0.0000 C   0  0  0  0  0  0  0  0  0  0  0  0
   10.3604   -7.9799    0.0000 C   0  0  0  0  0  0  0  0  0  0  0  0
   12.6660   -6.6474    0.0000 C   0  0  0  0  0  0  0  0  0  0  0  0
   11.5282   -8.6536    0.0000 C   0  0  0  0  0  0  0  0  0  0  0  0
   12.6660   -7.9799    0.0000 C   0  0  0  0  0  0  0  0  0  0  0  0
   11.5282   -9.9861    0.0000 C   0  0  0  0  0  0  0  0  0  0  0  0
   12.6660  -10.6448    0.0000 C   0  0  0  0  0  0  0  0  0  0  0  0
   13.8188   -8.6536    0.0000 C   0  0  0  0  0  0  0  0  0  0  0  0
   13.8188   -9.9861    0.0000 C   0  0  0  0  0  0  0  0  0  0  0  0
   11.5282   -4.6712    0.0000 C   0  0  0  0  0  0  0  0  0  0  0  0
   12.6660   -3.9974    0.0000 N   0  0  0  0  0  0  0  0  0  0  0  0
   10.3604   -3.9974    0.0000 O   0  0  0  0  0  0  0  0  0  0  0  0
   13.8188   -4.6712    0.0000 C   0  0  0  0  0  0  0  0  0  0  0  0
   14.9717   -3.9974    0.0000 C   0  0  0  0  0  0  0  0  0  0  0  0
   13.8188   -6.0036    0.0000 C   0  0  0  0  0  0  0  0  0  0  0  0
   14.1632   -3.3686    0.0000 C   0  0  0  0  0  0  0  0  0  0  0  0
   13.8039   -7.3062    0.0000 H   0  0  0  0  0  0  0  0  0  0  0  0
   10.3754   -9.3273    0.0000 H   0  0  0  0  0  0  0  0  0  0  0  0
   10.2855   -1.3474    0.0000 S   0  0  0  0  0  0  0  0  0  0  0  0
   10.2855   -0.0150    0.0000 O   0  0  0  0  0  0  0  0  0  0  0  0
   10.2855   -2.6799    0.0000 O   0  0  0  0  0  0  0  0  0  0  0  0
   11.6180   -1.3474    0.0000 O   0  0  0  0  0  0  0  0  0  0  0  0
    8.9530   -1.3474    0.0000 C   0  0  0  0  0  0  0  0  0  0  0  0
  1  2  1  0  0  0  0
  1  3  2  0  0  0  0
  1  9  1  0  0  0  0
  2  4  2  0  0  0  0
  3  5  1  0  0  0  0
  3  8  1  0  0  0  0
  4  6  1  0  0  0  0
  5  6  2  0  0  0  0
  5  7  1  0  0  0  0
  9 10  1  0  0  0  0
  9 16  2  0  0  0  0
 10 11  1  0  0  0  0
 11 12  1  0  0  0  0
 11 13  1  1  0  0  0
 12 14  1  1  0  0  0
 12 15  1  0  0  0  0
 13 17  1  0  0  0  0
 15 24  1  0  0  0  0
 17 18  1  0  0  0  0
 18 19  1  0  0  0  0
 18 20  2  0  0  0  0
 19 21  2  0  0  0  0
 20 22  1  0  0  0  0
 21 23  1  0  0  0  0
 22 23  2  0  0  0  0
 24 25  1  0  0  0  0
 24 26  1  0  0  0  0
 25 27  1  0  0  0  0
 25 34  1  6  0  0  0
 26 28  1  0  0  0  0
 27 29  1  0  0  0  0
 28 30  1  0  0  0  0
 28 29  1  0  0  0  0
 28 42  1  1  0  0  0
 29 32  1  0  0  0  0
 29 41  1  1  0  0  0
 30 31  1  0  0  0  0
 31 33  1  0  0  0  0
 32 33  1  0  0  0  0
 34 35  1  0  0  0  0
 34 36  2  0  0  0  0
 35 37  1  0  0  0  0
 37 38  1  0  0  0  0
 37 39  1  0  0  0  0
 37 40  1  0  0  0  0
 43 44  2  0  0  0  0
 43 45  2  0  0  0  0
 43 46  1  0  0  0  0
 43 47  1  0  0  0  0
M  END
> <ID>
6290

> <Formula>
C33H49N3O7S2

> <FW>
663.8881 (567.7824+96.1057)

> <DSSTox_CID>
10777

> <DSSTox_RID>
79093

> <DSSTox_GSID>
33736

> <DSSTox_FileID_Sort>
3775

> <TS_ChemName>
Nelfinavir mesylate

> <TS_ChemName_Synonyms>


> <TS_CASRN>
159989-65-8

> <CASRN_ChemName_Relationship>
primary

> <TS_Description>
single chemical compound

> <ChemNote>
parent [159989-64-7]; stereochem

> <STRUCTURE_Shown>
tested chemical

> <STRUCTURE_Formula>
C33H49N3O7S2

> <STRUCTURE_MW>
663.8881

> <STRUCTURE_ChemType>
defined organic

> <STRUCTURE_DefinedOrganicForm>
complex

> <STRUCTURE_IUPAC>
(3S,4aS,8aS)-N-tert-butyl-2-[(2R,3R)-2-hydroxy-3-[(3-hydroxy-2-methylbenzoyl)amino]-4-(phenylsulfanyl)butyl]decahydroisoquinoline-3-carboxamide methanesulfonate (1:1)

> <STRUCTURE_SMILES>
CS(=O)(=O)O.Oc1cccc(c1C)C(=O)N[C@@H](CSc2ccccc2)[C@H](O)CN3C[C@H]4CCCC[C@H]4C[C@H]3C(=O)NC(C)(C)C

> <STRUCTURE_SMILES_Desalt>
Oc1cccc(c1C)C(=O)N[C@@H](CSc2ccccc2)[C@H](O)CN3C[C@H]4CCCC[C@H]4C[C@H]3C(=O)NC(C)(C)C

> <Substance_modify_yyyymmdd>
20080429

$$$$
