1603-41-4
ChemmineR-0915142007XD

  8  8  0  0  0  0  0  0  0  0  1 V2000
    3.3327   -2.3069    0.0000 N   0  0  0  0  0  0  0  0  0  0  0  0
    2.0039   -2.3069    0.0000 C   0  0  0  0  0  0  0  0  0  0  0  0
    3.9865   -1.1534    0.0000 C   0  0  0  0  0  0  0  0  0  0  0  0
    3.3327    0.0000    0.0000 C   0  0  0  0  0  0  0  0  0  0  0  0
    1.3288   -1.1534    0.0000 C   0  0  0  0  0  0  0  0  0  0  0  0
    2.0039    0.0000    0.0000 C   0  0  0  0  0  0  0  0  0  0  0  0
    5.3154   -1.1534    0.0000 N   0  0  0  0  0  0  0  0  0  0  0  0
    0.0000   -1.1534    0.0000 C   0  0  0  0  0  0  0  0  0  0  0  0
  1  2  2  0  0  0  0
  1  3  1  0  0  0  0
  2  5  1  0  0  0  0
  3  4  2  0  0  0  0
  3  7  1  0  0  0  0
  4  6  1  0  0  0  0
  5  6  2  0  0  0  0
  5  8  1  0  0  0  0
M  END
> <ID>
5865

> <Formula>
C6H8N2

> <FW>
108.1411

> <DSSTox_CID>
9220

> <DSSTox_RID>
78715

> <DSSTox_GSID>
29220

> <DSSTox_FileID_Sort>
3397

> <TS_ChemName>
5-Methylpyridin-2-amine

> <TS_ChemName_Synonyms>


> <TS_CASRN>
1603-41-4

> <CASRN_ChemName_Relationship>
primary

> <TS_Description>
single chemical compound

> <ChemNote>


> <STRUCTURE_Shown>
tested chemical

> <STRUCTURE_Formula>
C6H8N2

> <STRUCTURE_MW>
108.1411

> <STRUCTURE_ChemType>
defined organic

> <STRUCTURE_DefinedOrganicForm>
parent

> <STRUCTURE_IUPAC>
5-methylpyridin-2-amine

> <STRUCTURE_SMILES>
Cc1cnc(N)cc1

> <STRUCTURE_SMILES_Desalt>
Cc1cnc(N)cc1

> <Substance_modify_yyyymmdd>
20080429

$$$$
