16045-92-4
ChemmineR-0915142007XD

  9  8  0  0  0  0  0  0  0  0  1 V2000
    5.7622   -1.3311    0.0000 O    0  0  0  0  0  0  0  0  0  0  0  0
    4.6097   -1.9937    0.0000 C    0  0  0  0  0  0  0  0  0  0  0  0
    3.4573   -1.3311    0.0000 C    0  0  0  0  0  0  0  0  0  0  0  0
    2.3049   -1.9937    0.0000 C    0  0  0  0  0  0  0  0  0  0  0  0
    2.3049   -3.3248    0.0000 Cl   0  0  0  0  0  0  0  0  0  0  0  0
    1.1524   -1.3311    0.0000 C    0  0  0  0  0  0  0  0  0  0  0  0
    0.0000   -1.9937    0.0000 O    0  0  0  0  0  0  0  0  0  0  0  0
    1.1524    0.0000    0.0000 O    0  0  0  0  0  0  0  0  0  0  0  0
    4.6097   -3.3248    0.0000 O    0  0  0  0  0  0  0  0  0  0  0  0
  1  2  1  0  0  0  0
  2  3  1  0  0  0  0
  2  9  2  0  0  0  0
  3  4  1  0  0  0  0
  4  5  1  0  0  0  0
  4  6  1  0  0  0  0
  6  7  1  0  0  0  0
  6  8  2  0  0  0  0
M  END
> <ID>
1465

> <Formula>
C4H5ClO4

> <FW>
152.5331

> <DSSTox_CID>
1526

> <DSSTox_RID>
76199

> <DSSTox_GSID>
21526

> <DSSTox_FileID_Sort>
883

> <TS_ChemName>
Chlorobutanedioic acid

> <TS_ChemName_Synonyms>


> <TS_CASRN>
16045-92-4

> <CASRN_ChemName_Relationship>
primary

> <TS_Description>
single chemical compound

> <ChemNote>


> <STRUCTURE_Shown>
tested chemical

> <STRUCTURE_Formula>
C4H5ClO4

> <STRUCTURE_MW>
152.5331

> <STRUCTURE_ChemType>
defined organic

> <STRUCTURE_DefinedOrganicForm>
parent

> <STRUCTURE_IUPAC>
2-chlorobutanedioic acid

> <STRUCTURE_SMILES>
O=C(O)CC(Cl)C(=O)O

> <STRUCTURE_SMILES_Desalt>
O=C(O)CC(Cl)C(=O)O

> <Substance_modify_yyyymmdd>
20080429

$$$$
