16051-77-7
ChemmineR-0915142007XD

 15 16  0  0  1  0  0  0  0  0  2 V2000
    5.0247   -4.9562    0.0000 N   0  3  0  0  0  0  0  0  0  0  0  0
    2.0547   -3.0198    0.0000 C   0  0  0  0  0  0  0  0  0  0  0  0
    2.0547   -1.6873    0.0000 C   0  0  0  0  0  0  0  0  0  0  0  0
    3.3186   -3.4183    0.0000 C   0  0  0  0  0  0  0  0  0  0  0  0
    3.3186   -1.2702    0.0000 O   0  0  0  0  0  0  0  0  0  0  0  0
    0.7845   -3.4183    0.0000 O   0  0  0  0  0  0  0  0  0  0  0  0
    3.7233   -4.6884    0.0000 O   0  0  0  0  0  0  0  0  0  0  0  0
    0.7845   -1.2702    0.0000 C   0  0  0  0  0  0  0  0  0  0  0  0
    4.1094   -2.3411    0.0000 C   0  0  0  0  0  0  0  0  0  0  0  0
    5.4418   -6.2263    0.0000 O   0  5  0  0  0  0  0  0  0  0  0  0
    5.9026   -3.9786    0.0000 O   0  0  0  0  0  0  0  0  0  0  0  0
    0.0000   -2.3411    0.0000 C   0  0  0  0  0  0  0  0  0  0  0  0
    0.3674    0.0000    0.0000 O   0  0  0  0  0  0  0  0  0  0  0  0
    2.0547   -0.3549    0.0000 H   0  0  0  0  0  0  0  0  0  0  0  0
    2.0547   -4.3335    0.0000 H   0  0  0  0  0  0  0  0  0  0  0  0
  1  7  1  0  0  0  0
  1 10  1  0  0  0  0
  1 11  2  0  0  0  0
  2  4  1  0  0  0  0
  2  3  1  0  0  0  0
  2  6  1  0  0  0  0
  2 15  1  6  0  0  0
  3  8  1  0  0  0  0
  3 14  1  6  0  0  0
  3  5  1  0  0  0  0
  4  7  1  1  0  0  0
  4  9  1  0  0  0  0
  5  9  1  0  0  0  0
  6 12  1  0  0  0  0
  8 13  1  6  0  0  0
  8 12  1  0  0  0  0
M  END
> <ID>
2852

> <Formula>
C6H9NO6

> <FW>
191.1388

> <DSSTox_CID>
3176

> <DSSTox_RID>
76905

> <DSSTox_GSID>
23176

> <DSSTox_FileID_Sort>
1589

> <TS_ChemName>
Isosorbide mononitrate

> <TS_ChemName_Synonyms>


> <TS_CASRN>
16051-77-7

> <CASRN_ChemName_Relationship>
primary

> <TS_Description>
single chemical compound

> <ChemNote>
absolute stereochem; rotation (+)

> <STRUCTURE_Shown>
tested chemical

> <STRUCTURE_Formula>
C6H9NO6

> <STRUCTURE_MW>
191.1388

> <STRUCTURE_ChemType>
defined organic

> <STRUCTURE_DefinedOrganicForm>
parent

> <STRUCTURE_IUPAC>
1,4:3,6-dianhydro-5-O-nitro-D-glucitol

> <STRUCTURE_SMILES>
O[C@H]1CO[C@@H]2[C@@H](CO[C@H]12)O[N+]([O-])=O

> <STRUCTURE_SMILES_Desalt>
O[C@H]1CO[C@@H]2[C@@H](CO[C@H]12)O[N+]([O-])=O

> <Substance_modify_yyyymmdd>
20080429

$$$$
