161050-58-4
ChemmineR-0915142007XD

 27 28  0  0  0  0  0  0  0  0  1 V2000
    5.7378   -3.2611    0.0000 C   0  0  0  0  0  0  0  0  0  0  0  0
    5.7378   -1.9264    0.0000 O   0  0  0  0  0  0  0  0  0  0  0  0
    4.5957   -3.9078    0.0000 C   0  0  0  0  0  0  0  0  0  0  0  0
    3.4399   -3.2611    0.0000 C   0  0  0  0  0  0  0  0  0  0  0  0
    4.5957   -5.1874    0.0000 C   0  0  0  0  0  0  0  0  0  0  0  0
    2.2841   -3.9078    0.0000 C   0  0  0  0  0  0  0  0  0  0  0  0
    3.4399   -5.8754    0.0000 C   0  0  0  0  0  0  0  0  0  0  0  0
    2.2841   -5.1874    0.0000 C   0  0  0  0  0  0  0  0  0  0  0  0
    1.1421   -3.2611    0.0000 O   0  0  0  0  0  0  0  0  0  0  0  0
    0.0000   -3.9078    0.0000 C   0  0  0  0  0  0  0  0  0  0  0  0
    3.4399   -1.9264    0.0000 C   0  0  0  0  0  0  0  0  0  0  0  0
    6.9349   -3.9490    0.0000 N   0  0  0  0  0  0  0  0  0  0  0  0
    8.0494   -3.2886    0.0000 N   0  0  0  0  0  0  0  0  0  0  0  0
    9.2052   -3.9490    0.0000 C   0  0  0  0  0  0  0  0  0  0  0  0
    9.2052   -5.2562    0.0000 O   0  0  0  0  0  0  0  0  0  0  0  0
   10.3335   -3.2886    0.0000 C   0  0  0  0  0  0  0  0  0  0  0  0
   10.3335   -1.9676    0.0000 C   0  0  0  0  0  0  0  0  0  0  0  0
   11.4894   -3.9490    0.0000 C   0  0  0  0  0  0  0  0  0  0  0  0
   11.4894   -1.3209    0.0000 C   0  0  0  0  0  0  0  0  0  0  0  0
   12.6177   -3.2886    0.0000 C   0  0  0  0  0  0  0  0  0  0  0  0
   12.6177   -1.9676    0.0000 C   0  0  0  0  0  0  0  0  0  0  0  0
   11.4894    0.0000    0.0000 C   0  0  0  0  0  0  0  0  0  0  0  0
   13.7597   -3.9490    0.0000 C   0  0  0  0  0  0  0  0  0  0  0  0
    8.0494   -1.9676    0.0000 C   0  0  0  0  0  0  0  0  0  0  0  0
    6.7423   -1.2659    0.0000 C   0  0  0  0  0  0  0  0  0  0  0  0
    9.3704   -1.3897    0.0000 C   0  0  0  0  0  0  0  0  0  0  0  0
    8.0494   -0.6467    0.0000 C   0  0  0  0  0  0  0  0  0  0  0  0
  1  2  2  0  0  0  0
  1  3  1  0  0  0  0
  1 12  1  0  0  0  0
  3  4  2  0  0  0  0
  3  5  1  0  0  0  0
  4  6  1  0  0  0  0
  4 11  1  0  0  0  0
  5  7  2  0  0  0  0
  6  8  2  0  0  0  0
  6  9  1  0  0  0  0
  7  8  1  0  0  0  0
  9 10  1  0  0  0  0
 12 13  1  0  0  0  0
 13 14  1  0  0  0  0
 13 24  1  0  0  0  0
 14 15  2  0  0  0  0
 14 16  1  0  0  0  0
 16 17  2  0  0  0  0
 16 18  1  0  0  0  0
 17 19  1  0  0  0  0
 18 20  2  0  0  0  0
 19 21  2  0  0  0  0
 19 22  1  0  0  0  0
 20 21  1  0  0  0  0
 20 23  1  0  0  0  0
 24 25  1  0  0  0  0
 24 26  1  0  0  0  0
 24 27  1  0  0  0  0
M  END
> <ID>
6551

> <Formula>
C22H28N2O3

> <FW>
368.4693

> <DSSTox_CID>
12628

> <DSSTox_RID>
79013

> <DSSTox_GSID>
32628

> <DSSTox_FileID_Sort>
3695

> <TS_ChemName>
Methoxyfenozide

> <TS_ChemName_Synonyms>
Methoxyfenozide (Benzoic acid, 3-methoxy-2-methyl-.2-(3,5-dimethylbenzoyl)-2-(1,1-dimethylethyl)hydrazide)

> <TS_CASRN>
161050-58-4

> <CASRN_ChemName_Relationship>
primary

> <TS_Description>
single chemical compound

> <ChemNote>


> <STRUCTURE_Shown>
tested chemical

> <STRUCTURE_Formula>
C22H28N2O3

> <STRUCTURE_MW>
368.4693

> <STRUCTURE_ChemType>
defined organic

> <STRUCTURE_DefinedOrganicForm>
parent

> <STRUCTURE_IUPAC>
N'-tert-butyl-N'-(3,5-dimethylbenzoyl)-3-methoxy-2-methylbenzohydrazide

> <STRUCTURE_SMILES>
Cc1c(cccc1OC)C(=O)NN(C(=O)c2cc(C)cc(C)c2)C(C)(C)C

> <STRUCTURE_SMILES_Desalt>
Cc1c(cccc1OC)C(=O)NN(C(=O)c2cc(C)cc(C)c2)C(C)(C)C

> <Substance_modify_yyyymmdd>
20080429

$$$$
