1610-17-9
ChemmineR-0915142007XD

 15 15  0  0  0  0  0  0  0  0  1 V2000
    8.0665   -2.6520    0.0000 C   0  0  0  0  0  0  0  0  0  0  0  0
    3.4347    0.0000    0.0000 C   0  0  0  0  0  0  0  0  0  0  0  0
    0.0000   -4.6134    0.0000 C   0  0  0  0  0  0  0  0  0  0  0  0
    1.1418   -3.9412    0.0000 C   0  0  0  0  0  0  0  0  0  0  0  0
    9.2083   -4.6502    0.0000 C   0  0  0  0  0  0  0  0  0  0  0  0
    8.0665   -3.9688    0.0000 C   0  0  0  0  0  0  0  0  0  0  0  0
    4.5949   -0.6538    0.0000 O   0  0  0  0  0  0  0  0  0  0  0  0
    6.9062   -4.6502    0.0000 N   0  0  0  0  0  0  0  0  0  0  0  0
    2.3021   -4.6226    0.0000 N   0  0  0  0  0  0  0  0  0  0  0  0
    5.7460   -2.6336    0.0000 N   0  0  0  0  0  0  0  0  0  0  0  0
    5.7460   -3.9688    0.0000 C   0  0  0  0  0  0  0  0  0  0  0  0
    4.5949   -1.9706    0.0000 C   0  0  0  0  0  0  0  0  0  0  0  0
    4.5949   -4.6502    0.0000 N   0  0  0  0  0  0  0  0  0  0  0  0
    3.4623   -2.6520    0.0000 N   0  0  0  0  0  0  0  0  0  0  0  0
    3.4623   -3.9688    0.0000 C   0  0  0  0  0  0  0  0  0  0  0  0
  1  6  1  0  0  0  0
  2  7  1  0  0  0  0
  3  4  1  0  0  0  0
  4  9  1  0  0  0  0
  5  6  1  0  0  0  0
  6  8  1  0  0  0  0
  7 12  1  0  0  0  0
  8 11  1  0  0  0  0
  9 15  1  0  0  0  0
 10 11  2  0  0  0  0
 10 12  1  0  0  0  0
 11 13  1  0  0  0  0
 12 14  2  0  0  0  0
 13 15  2  0  0  0  0
 14 15  1  0  0  0  0
M  END
> <ID>
7302

> <Formula>
C9H17N5O

> <FW>
211.2642

> <DSSTox_CID>
17493

> <DSSTox_RID>
79321

> <DSSTox_GSID>
37493

> <DSSTox_FileID_Sort>
4003

> <TS_ChemName>
Atraton

> <TS_ChemName_Synonyms>


> <TS_CASRN>
1610-17-9

> <CASRN_ChemName_Relationship>
primary

> <TS_Description>
single chemical compound

> <ChemNote>


> <STRUCTURE_Shown>
tested chemical

> <STRUCTURE_Formula>
C9H17N5O

> <STRUCTURE_MW>
211.2642

> <STRUCTURE_ChemType>
defined organic

> <STRUCTURE_DefinedOrganicForm>
parent

> <STRUCTURE_IUPAC>
N-ethyl-6-methoxy-N'-(propan-2-yl)-1,3,5-triazine-2,4-diamine

> <STRUCTURE_SMILES>
COc1nc(NCC)nc(NC(C)C)n1

> <STRUCTURE_SMILES_Desalt>
COc1nc(NCC)nc(NC(C)C)n1

> <Substance_modify_yyyymmdd>
20080429

$$$$
