16142-27-1
ChemmineR-0915142007XD

 13 13  0  0  0  0  0  0  0  0  2 V2000
    2.0053   -0.2844    0.0000 C    0  0  0  0  0  0  0  0  0  0  0  0
    2.6596   -1.4365    0.0000 N    0  0  0  0  0  0  0  0  0  0  0  0
    0.6756   -0.2844    0.0000 C    0  0  0  0  0  0  0  0  0  0  0  0
    2.0053   -2.5956    0.0000 C    0  0  0  0  0  0  0  0  0  0  0  0
    0.0000   -1.4365    0.0000 O    0  0  0  0  0  0  0  0  0  0  0  0
    0.6756   -2.5956    0.0000 C    0  0  0  0  0  0  0  0  0  0  0  0
    3.9894   -1.4365    0.0000 N    0  3  0  0  0  0  0  0  0  0  0  0
    4.7716   -0.3698    0.0000 C    0  0  0  0  0  0  0  0  0  0  0  0
    4.7716   -2.5102    0.0000 N    0  0  0  0  0  0  0  0  0  0  0  0
    6.0374   -0.7822    0.0000 C    0  0  0  0  0  0  0  0  0  0  0  0
    6.0374   -2.1120    0.0000 O    0  0  0  0  0  0  0  0  0  0  0  0
    7.1111    0.0000    0.0000 N    0  0  0  0  0  0  0  0  0  0  0  0
    3.0578   -3.6978    0.0000 Cl   0  5  0  0  0  0  0  0  0  0  0  0
  1  2  1  0  0  0  0
  1  3  1  0  0  0  0
  2  4  1  0  0  0  0
  2  7  1  0  0  0  0
  3  5  1  0  0  0  0
  4  6  1  0  0  0  0
  5  6  1  0  0  0  0
  7  8  1  0  0  0  0
  7  9  2  0  0  0  0
  8 10  2  0  0  0  0
  9 11  1  0  0  0  0
 10 11  1  0  0  0  0
 10 12  1  0  0  0  0
M  END
> <ID>
14023

> <Formula>
C6H11ClN4O2

> <FW>
206.6301 (171.1766+35.4535)

> <DSSTox_CID>
28965

> <DSSTox_RID>
83230

> <DSSTox_GSID>
49039

> <DSSTox_FileID_Sort>
7905

> <TS_ChemName>
3-Morpholinosydnonimine hydrochloride

> <TS_ChemName_Synonyms>
SIN-1 chloride

> <TS_CASRN>
16142-27-1

> <CASRN_ChemName_Relationship>
primary

> <TS_Description>
single chemical compound

> <ChemNote>


> <STRUCTURE_Shown>
tested chemical

> <STRUCTURE_Formula>
C6H11ClN4O2

> <STRUCTURE_MW>
206.6301

> <STRUCTURE_ChemType>
defined organic

> <STRUCTURE_DefinedOrganicForm>
salt

> <STRUCTURE_IUPAC>
5-amino-3-(morpholin-4-yl)-1,2,3-oxadiazol-3-ium chloride

> <STRUCTURE_SMILES>
[Cl-].Nc1c[n+](no1)N2CCOCC2

> <STRUCTURE_SMILES_Desalt>
Nc1c[n+](no1)N2CCOCC2

> <Substance_modify_yyyymmdd>
20111204

$$$$
