161605-73-8
ChemmineR-0915142007XD

 27 29  0  0  0  0  0  0  0  0  1 V2000
    9.2166   -0.4885    0.0000 O   0  0  0  0  0  0  0  0  0  0  0  0
    8.0646   -1.1521    0.0000 P   0  0  0  0  0  0  0  0  0  0  0  0
    8.7282   -2.3042    0.0000 O   0  0  0  0  0  0  0  0  0  0  0  0
    7.4010    0.0000    0.0000 O   0  0  0  0  0  0  0  0  0  0  0  0
    6.9125   -1.8157    0.0000 C   0  0  0  0  0  0  0  0  0  0  0  0
    6.9125   -3.1429    0.0000 N   0  0  0  0  0  0  0  0  0  0  0  0
    8.0646   -3.8065    0.0000 C   0  0  0  0  0  0  0  0  0  0  0  0
    9.2166   -3.1429    0.0000 O   0  0  0  0  0  0  0  0  0  0  0  0
    8.0646   -5.1429    0.0000 C   0  0  0  0  0  0  0  0  0  0  0  0
    9.2166   -5.8065    0.0000 O   0  0  0  0  0  0  0  0  0  0  0  0
    6.9125   -5.8065    0.0000 N   0  0  0  0  0  0  0  0  0  0  0  0
    5.7604   -5.1429    0.0000 C   0  0  0  0  0  0  0  0  0  0  0  0
    4.6083   -5.8065    0.0000 C   0  0  0  0  0  0  0  0  0  0  0  0
    3.4562   -5.1429    0.0000 C   0  0  0  0  0  0  0  0  0  0  0  0
    3.4562   -3.8065    0.0000 C   0  0  0  0  0  0  0  0  0  0  0  0
    4.6083   -3.1429    0.0000 C   0  0  0  0  0  0  0  0  0  0  0  0
    5.7604   -3.8065    0.0000 C   0  0  0  0  0  0  0  0  0  0  0  0
    2.3042   -3.1429    0.0000 N   0  0  0  0  0  0  0  0  0  0  0  0
    1.1521   -3.8065    0.0000 C   0  0  0  0  0  0  0  0  0  0  0  0
    0.0000   -3.1429    0.0000 C   0  0  0  0  0  0  0  0  0  0  0  0
    0.0000   -1.8157    0.0000 O   0  0  0  0  0  0  0  0  0  0  0  0
    1.1521   -1.1521    0.0000 C   0  0  0  0  0  0  0  0  0  0  0  0
    2.3042   -1.8157    0.0000 C   0  0  0  0  0  0  0  0  0  0  0  0
    2.3042   -5.8065    0.0000 C   0  0  0  0  0  0  0  0  0  0  0  0
    2.9678   -6.9586    0.0000 F   0  0  0  0  0  0  0  0  0  0  0  0
    1.1521   -6.4701    0.0000 F   0  0  0  0  0  0  0  0  0  0  0  0
    1.6406   -4.6544    0.0000 F   0  0  0  0  0  0  0  0  0  0  0  0
  1  2  1  0  0  0  0
  2  3  1  0  0  0  0
  2  4  2  0  0  0  0
  2  5  1  0  0  0  0
  5  6  1  0  0  0  0
  6  7  1  0  0  0  0
  6 17  1  0  0  0  0
  7  8  2  0  0  0  0
  7  9  1  0  0  0  0
  9 10  2  0  0  0  0
  9 11  1  0  0  0  0
 11 12  1  0  0  0  0
 12 13  2  0  0  0  0
 12 17  1  0  0  0  0
 13 14  1  0  0  0  0
 14 15  2  0  0  0  0
 14 24  1  0  0  0  0
 15 16  1  0  0  0  0
 15 18  1  0  0  0  0
 16 17  2  0  0  0  0
 18 19  1  0  0  0  0
 18 23  1  0  0  0  0
 19 20  1  0  0  0  0
 20 21  1  0  0  0  0
 21 22  1  0  0  0  0
 22 23  1  0  0  0  0
 24 25  1  0  0  0  0
 24 26  1  0  0  0  0
 24 27  1  0  0  0  0
M  END
> <ID>
11400

> <Formula>
C14H15F3N3O6P

> <FW>
409.2544

> <DSSTox_CID>
26093

> <DSSTox_RID>
81332

> <DSSTox_GSID>
46093

> <DSSTox_FileID_Sort>
6013

> <TS_ChemName>
Fanapanel

> <TS_ChemName_Synonyms>


> <TS_CASRN>
161605-73-8

> <CASRN_ChemName_Relationship>
primary

> <TS_Description>
single chemical compound

> <ChemNote>


> <STRUCTURE_Shown>
tested chemical

> <STRUCTURE_Formula>
C14H15F3N3O6P

> <STRUCTURE_MW>
409.2544

> <STRUCTURE_ChemType>
defined organic

> <STRUCTURE_DefinedOrganicForm>
parent

> <STRUCTURE_IUPAC>
{[7-(morpholin-4-yl)-2,3-dioxo-6-(trifluoromethyl)-3,4-dihydroquinoxalin-1(2H)-yl]methyl}phosphonic acid

> <STRUCTURE_SMILES>
O=P(O)(O)CN1c2cc(c(cc2NC(=O)C1=O)C(F)(F)F)N3CCOCC3

> <STRUCTURE_SMILES_Desalt>
O=P(O)(O)CN1c2cc(c(cc2NC(=O)C1=O)C(F)(F)F)N3CCOCC3

> <Substance_modify_yyyymmdd>
20110819

$$$$
