1617-90-9
ChemmineR-0915142007XD

 27 31  0  0  1  0  0  0  0  0  1 V2000
    3.3917   -2.6187    0.0000 N   0  0  0  0  0  0  0  0  0  0  0  0
    3.3917   -3.8886    0.0000 C   0  0  0  0  0  0  0  0  0  0  0  0
    4.4960   -1.9404    0.0000 C   0  0  0  0  0  0  0  0  0  0  0  0
    4.4960   -0.6626    0.0000 C   0  0  0  0  0  0  0  0  0  0  0  0
    2.2401   -1.9798    0.0000 C   0  0  0  0  0  0  0  0  0  0  0  0
    5.6476   -3.8886    0.0000 C   0  0  0  0  0  0  0  0  0  0  0  0
    5.6476   -2.5950    0.0000 C   0  0  0  0  0  0  0  0  0  0  0  0
    2.2401   -0.6626    0.0000 C   0  0  0  0  0  0  0  0  0  0  0  0
    4.4960   -4.5433    0.0000 C   0  0  0  0  0  0  0  0  0  0  0  0
    2.2401   -4.5433    0.0000 C   0  0  0  0  0  0  0  0  0  0  0  0
    6.7518   -1.9404    0.0000 N   0  0  0  0  0  0  0  0  0  0  0  0
    5.6476    0.0000    0.0000 C   0  0  0  0  0  0  0  0  0  0  0  0
    6.7518   -0.6389    0.0000 C   0  0  0  0  0  0  0  0  0  0  0  0
    3.3917   -5.2137    0.0000 O   0  0  0  0  0  0  0  0  0  0  0  0
    1.1358   -3.8886    0.0000 O   0  0  0  0  0  0  0  0  0  0  0  0
    6.7518   -4.5433    0.0000 C   0  0  0  0  0  0  0  0  0  0  0  0
    5.6476   -5.2137    0.0000 C   0  0  0  0  0  0  0  0  0  0  0  0
    2.2401   -5.8605    0.0000 O   0  0  0  0  0  0  0  0  0  0  0  0
    1.1358   -2.6187    0.0000 C   0  0  0  0  0  0  0  0  0  0  0  0
    7.8876   -2.6187    0.0000 C   0  0  0  0  0  0  0  0  0  0  0  0
    1.1358   -0.0079    0.0000 C   0  0  0  0  0  0  0  0  0  0  0  0
    7.8876   -3.8807    0.0000 C   0  0  0  0  0  0  0  0  0  0  0  0
    1.1358   -6.4994    0.0000 C   0  0  0  0  0  0  0  0  0  0  0  0
    6.7518   -5.8605    0.0000 C   0  0  0  0  0  0  0  0  0  0  0  0
    0.0000   -1.9404    0.0000 C   0  0  0  0  0  0  0  0  0  0  0  0
    0.0000   -0.6783    0.0000 C   0  0  0  0  0  0  0  0  0  0  0  0
    5.6476   -1.2936    0.0000 H   0  0  0  0  0  0  0  0  0  0  0  0
  1  2  1  0  0  0  0
  1  3  1  0  0  0  0
  1  5  1  0  0  0  0
  2  9  1  0  0  0  0
  2 10  1  0  0  0  0
  2 14  1  1  0  0  0
  3  4  2  0  0  0  0
  3  7  1  0  0  0  0
  4 12  1  0  0  0  0
  4  8  1  0  0  0  0
  5  8  2  0  0  0  0
  5 19  1  0  0  0  0
  6  7  1  0  0  0  0
  6 16  1  0  0  0  0
  6 17  1  6  0  0  0
  6  9  1  0  0  0  0
  7 11  1  0  0  0  0
  7 27  1  6  0  0  0
  8 21  1  0  0  0  0
 10 15  2  0  0  0  0
 10 18  1  0  0  0  0
 11 13  1  0  0  0  0
 11 20  1  0  0  0  0
 12 13  1  0  0  0  0
 16 22  1  0  0  0  0
 17 24  1  0  0  0  0
 18 23  1  0  0  0  0
 19 25  2  0  0  0  0
 20 22  1  0  0  0  0
 21 26  2  0  0  0  0
 25 26  1  0  0  0  0
M  END
> <ID>
7585

> <Formula>
C21H26N2O3

> <FW>
354.4427

> <DSSTox_CID>
20134

> <DSSTox_RID>
79448

> <DSSTox_GSID>
40134

> <DSSTox_FileID_Sort>
4130

> <TS_ChemName>
Vincamine

> <TS_ChemName_Synonyms>


> <TS_CASRN>
1617-90-9

> <CASRN_ChemName_Relationship>
primary

> <TS_Description>
single chemical compound

> <ChemNote>
stereochem

> <STRUCTURE_Shown>
tested chemical

> <STRUCTURE_Formula>
C21H26N2O3

> <STRUCTURE_MW>
354.4427

> <STRUCTURE_ChemType>
defined organic

> <STRUCTURE_DefinedOrganicForm>
parent

> <STRUCTURE_IUPAC>
methyl (3alpha,14beta,16alpha)-14-hydroxy-14,15-dihydroeburnamenine-14-carboxylate

> <STRUCTURE_SMILES>
O=C(OC)[C@@]5(O)C[C@@]4(CCCN3CCc2c1ccccc1n5c2[C@@H]34)CC

> <STRUCTURE_SMILES_Desalt>
O=C(OC)[C@@]5(O)C[C@@]4(CCCN3CCc2c1ccccc1n5c2[C@@H]34)CC

> <Substance_modify_yyyymmdd>
20080429

$$$$
