161814-49-9
ChemmineR-0915142007XD

 35 37  0  0  1  0  0  0  0  0  1 V2000
   10.1508   -4.6617    0.0000 N   0  0  0  0  0  0  0  0  0  0  0  0
   11.3123   -3.9776    0.0000 S   0  0  0  0  0  0  0  0  0  0  0  0
    9.0053   -3.9776    0.0000 C   0  0  0  0  0  0  0  0  0  0  0  0
   10.1508   -5.9823    0.0000 C   0  0  0  0  0  0  0  0  0  0  0  0
   12.4419   -3.3253    0.0000 C   0  0  0  0  0  0  0  0  0  0  0  0
   11.9646   -5.1390    0.0000 O   0  0  0  0  0  0  0  0  0  0  0  0
   10.6281   -2.8480    0.0000 O   0  0  0  0  0  0  0  0  0  0  0  0
    7.8438   -4.6617    0.0000 C   0  0  0  0  0  0  0  0  0  0  0  0
   11.3123   -6.6346    0.0000 C   0  0  0  0  0  0  0  0  0  0  0  0
   12.4419   -2.0047    0.0000 C   0  0  0  0  0  0  0  0  0  0  0  0
   13.6033   -3.9776    0.0000 C   0  0  0  0  0  0  0  0  0  0  0  0
    6.6983   -3.9776    0.0000 C   0  0  0  0  0  0  0  0  0  0  0  0
    7.8438   -5.9823    0.0000 O   0  0  0  0  0  0  0  0  0  0  0  0
   11.3123   -7.9711    0.0000 C   0  0  0  0  0  0  0  0  0  0  0  0
   12.4419   -5.9823    0.0000 C   0  0  0  0  0  0  0  0  0  0  0  0
   13.6033   -1.3206    0.0000 C   0  0  0  0  0  0  0  0  0  0  0  0
   14.7489   -3.3253    0.0000 C   0  0  0  0  0  0  0  0  0  0  0  0
    6.6983   -2.6570    0.0000 C   0  0  0  0  0  0  0  0  0  0  0  0
    5.5368   -4.6617    0.0000 N   0  0  0  0  0  0  0  0  0  0  0  0
   14.7489   -2.0047    0.0000 C   0  0  0  0  0  0  0  0  0  0  0  0
    7.8438   -2.0047    0.0000 C   0  0  0  0  0  0  0  0  0  0  0  0
    4.3913   -3.9776    0.0000 C   0  0  0  0  0  0  0  0  0  0  0  0
   15.9103   -1.3206    0.0000 N   0  0  0  0  0  0  0  0  0  0  0  0
    7.8438   -0.6682    0.0000 C   0  0  0  0  0  0  0  0  0  0  0  0
    9.0053   -2.6570    0.0000 C   0  0  0  0  0  0  0  0  0  0  0  0
    3.2457   -4.6617    0.0000 O   0  0  0  0  0  0  0  0  0  0  0  0
    4.3913   -2.6570    0.0000 O   0  0  0  0  0  0  0  0  0  0  0  0
    9.0053    0.0000    0.0000 C   0  0  0  0  0  0  0  0  0  0  0  0
   10.1508   -2.0047    0.0000 C   0  0  0  0  0  0  0  0  0  0  0  0
    2.1002   -3.9776    0.0000 C   0  0  0  0  0  0  0  0  0  0  0  0
   10.1508   -0.6682    0.0000 C   0  0  0  0  0  0  0  0  0  0  0  0
    0.8910   -4.5344    0.0000 C   0  0  0  0  0  0  0  0  0  0  0  0
    1.9729   -2.6729    0.0000 C   0  0  0  0  0  0  0  0  0  0  0  0
    0.0000   -3.5321    0.0000 C   0  0  0  0  0  0  0  0  0  0  0  0
    0.6523   -2.3866    0.0000 O   0  0  0  0  0  0  0  0  0  0  0  0
  1  2  1  0  0  0  0
  1  3  1  0  0  0  0
  1  4  1  0  0  0  0
  2  5  1  0  0  0  0
  2  6  2  0  0  0  0
  2  7  2  0  0  0  0
  3  8  1  0  0  0  0
  4  9  1  0  0  0  0
  5 10  2  0  0  0  0
  5 11  1  0  0  0  0
  8 12  1  0  0  0  0
  8 13  1  1  0  0  0
  9 14  1  0  0  0  0
  9 15  1  0  0  0  0
 10 16  1  0  0  0  0
 11 17  2  0  0  0  0
 12 18  1  1  0  0  0
 12 19  1  0  0  0  0
 16 20  2  0  0  0  0
 17 20  1  0  0  0  0
 18 21  1  0  0  0  0
 19 22  1  0  0  0  0
 20 23  1  0  0  0  0
 21 24  2  0  0  0  0
 21 25  1  0  0  0  0
 22 26  1  0  0  0  0
 22 27  2  0  0  0  0
 24 28  1  0  0  0  0
 25 29  2  0  0  0  0
 30 26  1  6  0  0  0
 28 31  2  0  0  0  0
 29 31  1  0  0  0  0
 30 32  1  0  0  0  0
 30 33  1  0  0  0  0
 32 34  1  0  0  0  0
 33 35  1  0  0  0  0
 34 35  1  0  0  0  0
M  END
> <ID>
11380

> <Formula>
C25H35N3O6S

> <FW>
505.6269

> <DSSTox_CID>
26061

> <DSSTox_RID>
81312

> <DSSTox_GSID>
46061

> <DSSTox_FileID_Sort>
5993

> <TS_ChemName>
Amprenavir

> <TS_ChemName_Synonyms>


> <TS_CASRN>
161814-49-9

> <CASRN_ChemName_Relationship>
primary

> <TS_Description>
single chemical compound

> <ChemNote>


> <STRUCTURE_Shown>
tested chemical

> <STRUCTURE_Formula>
C25H35N3O6S

> <STRUCTURE_MW>
505.6269

> <STRUCTURE_ChemType>
defined organic

> <STRUCTURE_DefinedOrganicForm>
parent

> <STRUCTURE_IUPAC>
(3R)-tetrahydrofuran-3-yl [(2S,3R)-4-{[(4-aminophenyl)sulfonyl](2-methylpropyl)amino}-3-hydroxy-1-phenylbutan-2-yl]carbamate

> <STRUCTURE_SMILES>
O=C(N[C@@H](Cc1ccccc1)[C@H](O)CN(CC(C)C)S(=O)(=O)c2ccc(N)cc2)O[C@@H]3CCOC3

> <STRUCTURE_SMILES_Desalt>
O=C(N[C@@H](Cc1ccccc1)[C@H](O)CN(CC(C)C)S(=O)(=O)c2ccc(N)cc2)O[C@@H]3CCOC3

> <Substance_modify_yyyymmdd>
20110826

$$$$
