1619-16-5
ChemmineR-0915142007XD

 19 20  0  0  1  0  0  0  0  0  1 V2000
    2.0493   -3.3251    0.0000 C   0  0  0  0  0  0  0  0  0  0  0  0
    0.7814   -3.7398    0.0000 C   0  0  0  0  0  0  0  0  0  0  0  0
    2.0493   -2.0015    0.0000 C   0  0  0  0  0  0  0  0  0  0  0  0
    0.0000   -2.6713    0.0000 C   0  0  0  0  0  0  0  0  0  0  0  0
    0.7814   -1.5788    0.0000 C   0  0  0  0  0  0  0  0  0  0  0  0
    3.1976   -3.9949    0.0000 C   0  0  0  0  0  0  0  0  0  0  0  0
    4.3458   -3.3251    0.0000 C   0  0  0  0  0  0  0  0  0  0  0  0
    3.1976   -1.3396    0.0000 C   0  0  0  0  0  0  0  0  0  0  0  0
    4.3458   -2.0015    0.0000 C   0  0  0  0  0  0  0  0  0  0  0  0
    0.3827   -4.9997    0.0000 C   0  0  0  0  0  0  0  0  0  0  0  0
    0.3827   -0.3030    0.0000 O   0  0  0  0  0  0  0  0  0  0  0  0
    1.8181   -0.6698    0.0000 H   0  0  0  0  0  0  0  0  0  0  0  0
    3.1976    0.0000    0.0000 C   0  0  0  0  0  0  0  0  0  0  0  0
    3.1976   -5.3186    0.0000 C   0  0  0  0  0  0  0  0  0  0  0  0
    4.3458   -5.9805    0.0000 C   0  0  0  0  0  0  0  0  0  0  0  0
    4.3458   -7.3041    0.0000 C   0  0  0  0  0  0  0  0  0  0  0  0
    5.4941   -5.3186    0.0000 C   0  0  0  0  0  0  0  0  0  0  0  0
    3.1976   -7.9739    0.0000 O   0  0  0  0  0  0  0  0  0  0  0  0
    5.4941   -7.9739    0.0000 O   0  0  0  0  0  0  0  0  0  0  0  0
  1  2  2  0  0  0  0
  1  6  1  0  0  0  0
  1  3  1  0  0  0  0
  2  4  1  0  0  0  0
  2 10  1  0  0  0  0
  3  5  1  0  0  0  0
  3  8  1  0  0  0  0
  3 12  1  1  0  0  0
  4  5  1  0  0  0  0
  5 11  1  1  0  0  0
  6  7  1  0  0  0  0
  6 14  1  1  0  0  0
  7  9  1  0  0  0  0
  8  9  1  0  0  0  0
  8 13  1  6  0  0  0
 14 15  2  0  0  0  0
 15 16  1  0  0  0  0
 15 17  1  0  0  0  0
 16 18  2  0  0  0  0
 16 19  1  0  0  0  0
M  END
> <ID>
6636

> <Formula>
C15H22O3

> <FW>
250.3334

> <DSSTox_CID>
13564

> <DSSTox_RID>
79085

> <DSSTox_GSID>
33564

> <DSSTox_FileID_Sort>
3767

> <TS_ChemName>
Hydroxyvalerenic acid

> <TS_ChemName_Synonyms>


> <TS_CASRN>
1619-16-5

> <CASRN_ChemName_Relationship>
primary

> <TS_Description>
single chemical compound

> <ChemNote>
stereochem

> <STRUCTURE_Shown>
tested chemical

> <STRUCTURE_Formula>
C15H22O3

> <STRUCTURE_MW>
250.3334

> <STRUCTURE_ChemType>
defined organic

> <STRUCTURE_DefinedOrganicForm>
parent

> <STRUCTURE_IUPAC>
(2E)-3-[(1R,4S,7R,7aR)-1-hydroxy-3,7-dimethyl-2,4,5,6,7,7a-hexahydro-1H-inden-4-yl]-2-methylprop-2-enoic acid

> <STRUCTURE_SMILES>
O=C(O)C(\C)=C\[C@@H]2CC[C@@H](C)[C@@H]1C2=C(C)C[C@H]1O

> <STRUCTURE_SMILES_Desalt>
O=C(O)C(\C)=C\[C@@H]2CC[C@@H](C)[C@@H]1C2=C(C)C[C@H]1O

> <Substance_modify_yyyymmdd>
20080429

$$$$
