161967-81-3
ChemmineR-0915142007XD

 27 29  0  0  0  0  0  0  0  0  1 V2000
    0.0000   -3.3357    0.0000 C    0  0  0  0  0  0  0  0  0  0  0  0
    1.1503   -4.0144    0.0000 C    0  0  0  0  0  0  0  0  0  0  0  0
    2.3120   -3.3357    0.0000 C    0  0  0  0  0  0  0  0  0  0  0  0
    3.4393   -4.0144    0.0000 N    0  0  0  0  0  0  0  0  0  0  0  0
    3.4393   -5.3257    0.0000 C    0  0  0  0  0  0  0  0  0  0  0  0
    2.3120   -5.9928    0.0000 C    0  0  0  0  0  0  0  0  0  0  0  0
    1.1503   -5.3257    0.0000 N    0  0  0  0  0  0  0  0  0  0  0  0
    4.6010   -3.3357    0.0000 C    0  0  0  0  0  0  0  0  0  0  0  0
    4.6010   -2.0014    0.0000 C    0  0  0  0  0  0  0  0  0  0  0  0
    3.4393   -1.3458    0.0000 F    0  0  0  0  0  0  0  0  0  0  0  0
    5.7513   -1.3458    0.0000 C    0  0  0  0  0  0  0  0  0  0  0  0
    6.9015   -2.0014    0.0000 C    0  0  0  0  0  0  0  0  0  0  0  0
    8.0633   -1.3458    0.0000 C    0  0  0  0  0  0  0  0  0  0  0  0
    8.0633    0.0000    0.0000 O    0  0  0  0  0  0  0  0  0  0  0  0
    9.1905   -2.0014    0.0000 C    0  0  0  0  0  0  0  0  0  0  0  0
    9.1905   -3.3357    0.0000 C    0  0  0  0  0  0  0  0  0  0  0  0
    8.0633   -4.0144    0.0000 N    0  0  0  0  0  0  0  0  0  0  0  0
    8.0633   -5.3257    0.0000 C    0  0  0  0  0  0  0  0  0  0  0  0
    8.7189   -6.4759    0.0000 C    0  0  0  0  0  0  0  0  0  0  0  0
    7.3846   -6.4759    0.0000 C    0  0  0  0  0  0  0  0  0  0  0  0
    6.9015   -3.3357    0.0000 C    0  0  0  0  0  0  0  0  0  0  0  0
    5.7513   -4.0144    0.0000 C    0  0  0  0  0  0  0  0  0  0  0  0
   10.3523   -1.3458    0.0000 C    0  0  0  0  0  0  0  0  0  0  0  0
   11.5025   -2.0014    0.0000 O    0  0  0  0  0  0  0  0  0  0  0  0
   10.3523    0.0000    0.0000 O    0  0  0  0  0  0  0  0  0  0  0  0
    5.7513    0.0000    0.0000 C    0  0  0  0  0  0  0  0  0  0  0  0
    5.6707   -4.9691    0.0000 Cl   0  0  0  0  0  0  0  0  0  0  0  0
  1  2  1  0  0  0  0
  2  3  1  0  0  0  0
  2  7  1  0  0  0  0
  3  4  1  0  0  0  0
  4  5  1  0  0  0  0
  4  8  1  0  0  0  0
  5  6  1  0  0  0  0
  6  7  1  0  0  0  0
  8  9  2  0  0  0  0
  8 22  1  0  0  0  0
  9 10  1  0  0  0  0
  9 11  1  0  0  0  0
 11 12  2  0  0  0  0
 11 26  1  0  0  0  0
 12 13  1  0  0  0  0
 12 21  1  0  0  0  0
 13 14  2  0  0  0  0
 13 15  1  0  0  0  0
 15 16  2  0  0  0  0
 15 23  1  0  0  0  0
 16 17  1  0  0  0  0
 17 18  1  0  0  0  0
 17 21  1  0  0  0  0
 18 19  1  0  0  0  0
 18 20  1  0  0  0  0
 19 20  1  0  0  0  0
 21 22  2  0  0  0  0
 23 24  1  0  0  0  0
 23 25  2  0  0  0  0
M  END
> <ID>
11890

> <Formula>
C19H23ClFN3O3

> <FW>
395.8556 (359.3947+36.4609)

> <DSSTox_CID>
26692

> <DSSTox_RID>
81826

> <DSSTox_GSID>
46692

> <DSSTox_FileID_Sort>
6507

> <TS_ChemName>
Grepafloxacin hydrochloride

> <TS_ChemName_Synonyms>


> <TS_CASRN>
161967-81-3

> <CASRN_ChemName_Relationship>
primary

> <TS_Description>
single chemical compound

> <ChemNote>
parent [119914-60-2]

> <STRUCTURE_Shown>
tested chemical

> <STRUCTURE_Formula>
C19H23ClFN3O3

> <STRUCTURE_MW>
395.8556

> <STRUCTURE_ChemType>
defined organic

> <STRUCTURE_DefinedOrganicForm>
complex

> <STRUCTURE_IUPAC>
1-cyclopropyl-6-fluoro-5-methyl-7-(3-methylpiperazin-1-yl)-4-oxo-1,4-dihydroquinoline-3-carboxylic acid hydrochloride (1:1)

> <STRUCTURE_SMILES>
Cl.CC1CN(CCN1)c4cc2c(C(=O)C(=CN2C3CC3)C(=O)O)c(C)c4F

> <STRUCTURE_SMILES_Desalt>
CC1CN(CCN1)c4cc2c(C(=O)C(=CN2C3CC3)C(=O)O)c(C)c4F

> <Substance_modify_yyyymmdd>
20110805

$$$$
