1620-21-9
ChemmineR-0915142007XD

 22 23  0  0  0  0  0  0  0  0  1 V2000
    3.4723    0.0000    0.0000 C    0  0  0  0  0  0  0  0  0  0  0  0
    3.4723   -1.3293    0.0000 N    0  0  0  0  0  0  0  0  0  0  0  0
    4.6163   -1.9980    0.0000 C    0  0  0  0  0  0  0  0  0  0  0  0
    4.6163   -3.3272    0.0000 C    0  0  0  0  0  0  0  0  0  0  0  0
    3.4561   -3.9798    0.0000 N    0  0  0  0  0  0  0  0  0  0  0  0
    2.3041   -3.3272    0.0000 C    0  0  0  0  0  0  0  0  0  0  0  0
    2.3041   -1.9980    0.0000 C    0  0  0  0  0  0  0  0  0  0  0  0
    3.4561   -5.3091    0.0000 C    0  0  0  0  0  0  0  0  0  0  0  0
    2.3041   -5.9778    0.0000 C    0  0  0  0  0  0  0  0  0  0  0  0
    2.3041   -7.3071    0.0000 C    0  0  0  0  0  0  0  0  0  0  0  0
    1.1520   -7.9596    0.0000 C    0  0  0  0  0  0  0  0  0  0  0  0
    0.0000   -7.3071    0.0000 C    0  0  0  0  0  0  0  0  0  0  0  0
    0.0000   -5.9778    0.0000 C    0  0  0  0  0  0  0  0  0  0  0  0
    1.1682   -5.3091    0.0000 C    0  0  0  0  0  0  0  0  0  0  0  0
    4.6001   -5.9778    0.0000 C    0  0  0  0  0  0  0  0  0  0  0  0
    5.7522   -5.3091    0.0000 C    0  0  0  0  0  0  0  0  0  0  0  0
    6.9042   -5.9778    0.0000 C    0  0  0  0  0  0  0  0  0  0  0  0
    6.9042   -7.3071    0.0000 C    0  0  0  0  0  0  0  0  0  0  0  0
    8.0563   -7.9757    0.0000 Cl   0  0  0  0  0  0  0  0  0  0  0  0
    5.7522   -7.9757    0.0000 C    0  0  0  0  0  0  0  0  0  0  0  0
    4.6001   -7.3071    0.0000 C    0  0  0  0  0  0  0  0  0  0  0  0
    6.3484   -3.5770    0.0000 Cl   0  0  0  0  0  0  0  0  0  0  0  0
  1  2  1  0  0  0  0
  2  3  1  0  0  0  0
  2  7  1  0  0  0  0
  3  4  1  0  0  0  0
  4  5  1  0  0  0  0
  5  6  1  0  0  0  0
  5  8  1  0  0  0  0
  6  7  1  0  0  0  0
  8  9  1  0  0  0  0
  8 15  1  0  0  0  0
  9 10  2  0  0  0  0
  9 14  1  0  0  0  0
 10 11  1  0  0  0  0
 11 12  2  0  0  0  0
 12 13  1  0  0  0  0
 13 14  2  0  0  0  0
 15 16  2  0  0  0  0
 15 21  1  0  0  0  0
 16 17  1  0  0  0  0
 17 18  2  0  0  0  0
 18 19  1  0  0  0  0
 18 20  1  0  0  0  0
 20 21  2  0  0  0  0
M  END
> <ID>
10895

> <Formula>
C18H22Cl2N2

> <FW>
337.2867 (300.8257+36.4609)

> <DSSTox_CID>
25360

> <DSSTox_RID>
80825

> <DSSTox_GSID>
45360

> <DSSTox_FileID_Sort>
5506

> <TS_ChemName>
Chlorcyclizine hydrochloride

> <TS_ChemName_Synonyms>


> <TS_CASRN>
1620-21-9

> <CASRN_ChemName_Relationship>
primary

> <TS_Description>
single chemical compound

> <ChemNote>
parent [82-93-9]

> <STRUCTURE_Shown>
tested chemical

> <STRUCTURE_Formula>
C18H22Cl2N2

> <STRUCTURE_MW>
337.2867

> <STRUCTURE_ChemType>
defined organic

> <STRUCTURE_DefinedOrganicForm>
complex

> <STRUCTURE_IUPAC>
1-[(4-chlorophenyl)(phenyl)methyl]-4-methylpiperazine hydrochloride (1:1)

> <STRUCTURE_SMILES>
Cl.Clc1ccc(cc1)C(c2ccccc2)N3CCN(C)CC3

> <STRUCTURE_SMILES_Desalt>
Clc1ccc(cc1)C(c2ccccc2)N3CCN(C)CC3

> <Substance_modify_yyyymmdd>
20100107

$$$$
