1620-98-0
ChemmineR-0915142007XD

 17 17  0  0  0  0  0  0  0  0  1 V2000
    4.1671   -6.4268    0.0000 C   0  0  0  0  0  0  0  0  0  0  0  0
    5.3211   -5.7565    0.0000 C   0  0  0  0  0  0  0  0  0  0  0  0
    6.4752   -5.0931    0.0000 C   0  0  0  0  0  0  0  0  0  0  0  0
    5.9846   -6.9106    0.0000 C   0  0  0  0  0  0  0  0  0  0  0  0
    4.6577   -4.6094    0.0000 C   0  0  0  0  0  0  0  0  0  0  0  0
    5.3211   -3.4553    0.0000 C   0  0  0  0  0  0  0  0  0  0  0  0
    4.6577   -2.3012    0.0000 C   0  0  0  0  0  0  0  0  0  0  0  0
    3.3240   -2.3012    0.0000 C   0  0  0  0  0  0  0  0  0  0  0  0
    2.6606   -3.4553    0.0000 C   0  0  0  0  0  0  0  0  0  0  0  0
    3.3240   -4.6094    0.0000 C   0  0  0  0  0  0  0  0  0  0  0  0
    2.6606   -5.7565    0.0000 O   0  0  0  0  0  0  0  0  0  0  0  0
    1.3268   -3.4553    0.0000 C   0  0  0  0  0  0  0  0  0  0  0  0
    1.3268   -2.1285    0.0000 C   0  0  0  0  0  0  0  0  0  0  0  0
    1.3268   -4.7821    0.0000 C   0  0  0  0  0  0  0  0  0  0  0  0
    0.0000   -3.4553    0.0000 C   0  0  0  0  0  0  0  0  0  0  0  0
    5.3211   -1.1541    0.0000 C   0  0  0  0  0  0  0  0  0  0  0  0
    4.6577    0.0000    0.0000 O   0  0  0  0  0  0  0  0  0  0  0  0
  1  2  1  0  0  0  0
  2  3  1  0  0  0  0
  2  4  1  0  0  0  0
  2  5  1  0  0  0  0
  5  6  2  0  0  0  0
  5 10  1  0  0  0  0
  6  7  1  0  0  0  0
  7  8  2  0  0  0  0
  7 16  1  0  0  0  0
  8  9  1  0  0  0  0
  9 10  2  0  0  0  0
  9 12  1  0  0  0  0
 10 11  1  0  0  0  0
 12 13  1  0  0  0  0
 12 14  1  0  0  0  0
 12 15  1  0  0  0  0
 16 17  2  0  0  0  0
M  END
> <ID>
16062

> <Formula>
C15H22O2

> <FW>
234.334

> <DSSTox_CID>
31447

> <DSSTox_RID>
97333

> <DSSTox_GSID>
57658

> <DSSTox_FileID_Sort>
8400

> <TS_ChemName>
3,5-Di-tert-butyl-4-hydroxybenzaldehyde

> <TS_ChemName_Synonyms>


> <TS_CASRN>
1620-98-0

> <CASRN_ChemName_Relationship>
primary

> <TS_Description>
single chemical compound

> <ChemNote>


> <STRUCTURE_Shown>
tested chemical

> <STRUCTURE_Formula>
C15H22O2

> <STRUCTURE_MW>
234.334

> <STRUCTURE_ChemType>
defined organic

> <STRUCTURE_DefinedOrganicForm>
parent

> <STRUCTURE_IUPAC>
3,5-di-tert-butyl-4-hydroxybenzaldehyde

> <STRUCTURE_SMILES>
CC(C)(C)c1cc(cc(c1O)C(C)(C)C)C=O

> <STRUCTURE_SMILES_Desalt>
CC(C)(C)c1cc(cc(c1O)C(C)(C)C)C=O

> <Substance_modify_yyyymmdd>
20131018

$$$$
