16219-75-3
ChemmineR-0915142007XD

  9 10  0  0  0  0  0  0  0  0  1 V2000
    2.4966   -1.7399    0.0000 C   0  0  0  0  0  0  0  0  0  0  0  0
    1.2724   -2.1785    0.0000 C   0  0  0  0  0  0  0  0  0  0  0  0
    0.0000   -1.7592    0.0000 C   0  0  0  0  0  0  0  0  0  0  0  0
    0.0000   -0.4193    0.0000 C   0  0  0  0  0  0  0  0  0  0  0  0
    1.2724    0.0000    0.0000 C   0  0  0  0  0  0  0  0  0  0  0  0
    2.0628   -1.0989    0.0000 C   0  0  0  0  0  0  0  0  0  0  0  0
    3.5954   -2.5158    0.0000 C   0  0  0  0  0  0  0  0  0  0  0  0
    4.8196   -1.9664    0.0000 C   0  0  0  0  0  0  0  0  0  0  0  0
    2.4966   -0.4386    0.0000 C   0  0  0  0  0  0  0  0  0  0  0  0
  1  2  1  0  0  0  0
  1  7  2  3  0  0  0
  1  9  1  0  0  0  0
  2  3  1  0  0  0  0
  2  6  1  0  0  0  0
  3  4  2  0  0  0  0
  4  5  1  0  0  0  0
  5  6  1  0  0  0  0
  5  9  1  0  0  0  0
  7  8  1  0  0  0  0
M  END
> <ID>
4134

> <Formula>
C9H12

> <FW>
120.1916

> <DSSTox_CID>
5306

> <DSSTox_RID>
77740

> <DSSTox_GSID>
25306

> <DSSTox_FileID_Sort>
2423

> <TS_ChemName>
5-Ethylidene-2-norbornene

> <TS_ChemName_Synonyms>
5-Ethylidene-2-norbornene (Ethylidenenorbornene) (Bicyclo[2.2.1]hept-2-ene, 5-ethylidene-)

> <TS_CASRN>
16219-75-3

> <CASRN_ChemName_Relationship>
primary

> <TS_Description>
mixture of Z,E isomers

> <ChemNote>
mixture of Z [28304-66-7],E [28304-67-8] isomers

> <STRUCTURE_Shown>
representative isomer in mixture

> <STRUCTURE_Formula>
C9H12

> <STRUCTURE_MW>
120.1916

> <STRUCTURE_ChemType>
defined organic

> <STRUCTURE_DefinedOrganicForm>
parent

> <STRUCTURE_IUPAC>
5-ethylidenebicyclo[2.2.1]hept-2-ene

> <STRUCTURE_SMILES>
CC=C2CC1C=CC2C1

> <STRUCTURE_SMILES_Desalt>
CC=C2CC1C=CC2C1

> <Substance_modify_yyyymmdd>
20080429

$$$$
