16215-21-7
ChemmineR-0915142007XD

 10  9  0  0  0  0  0  0  0  0  1 V2000
    3.4634   -1.3278    0.0000 C   0  0  0  0  0  0  0  0  0  0  0  0
    3.4634    0.0000    0.0000 O   0  0  0  0  0  0  0  0  0  0  0  0
    4.6148   -1.9778    0.0000 O   0  0  0  0  0  0  0  0  0  0  0  0
    2.2935   -1.9778    0.0000 C   0  0  0  0  0  0  0  0  0  0  0  0
    1.1514   -1.3278    0.0000 C   0  0  0  0  0  0  0  0  0  0  0  0
    0.0000   -1.9778    0.0000 S   0  0  0  0  0  0  0  0  0  0  0  0
    5.7940   -1.3278    0.0000 C   0  0  0  0  0  0  0  0  0  0  0  0
    6.9547   -1.9778    0.0000 C   0  0  0  0  0  0  0  0  0  0  0  0
    8.1060   -1.3278    0.0000 C   0  0  0  0  0  0  0  0  0  0  0  0
    9.2853   -1.9778    0.0000 C   0  0  0  0  0  0  0  0  0  0  0  0
  1  2  2  0  0  0  0
  1  3  1  0  0  0  0
  1  4  1  0  0  0  0
  3  7  1  0  0  0  0
  4  5  1  0  0  0  0
  5  6  1  0  0  0  0
  7  8  1  0  0  0  0
  8  9  1  0  0  0  0
  9 10  1  0  0  0  0
M  END
> <ID>
10492

> <Formula>
C7H14O2S

> <FW>
162.2499

> <DSSTox_CID>
24845

> <DSSTox_RID>
80525

> <DSSTox_GSID>
44845

> <DSSTox_FileID_Sort>
5207

> <TS_ChemName>
Butyl 3-mercaptopropionate

> <TS_ChemName_Synonyms>
Butyl 3-sulfanylpropanoate (Propanoic acid, 3-mercapto-, butyl ester)

> <TS_CASRN>
16215-21-7

> <CASRN_ChemName_Relationship>
primary

> <TS_Description>
single chemical compound

> <ChemNote>


> <STRUCTURE_Shown>
tested chemical

> <STRUCTURE_Formula>
C7H14O2S

> <STRUCTURE_MW>
162.2499

> <STRUCTURE_ChemType>
defined organic

> <STRUCTURE_DefinedOrganicForm>
parent

> <STRUCTURE_IUPAC>
butyl 3-sulfanylpropanoate

> <STRUCTURE_SMILES>
CCCCOC(=O)CCS

> <STRUCTURE_SMILES_Desalt>
CCCCOC(=O)CCS

> <Substance_modify_yyyymmdd>
20091116

$$$$
