162408-66-4
ChemmineR-0915142007XD

 36 39  0  0  0  0  0  0  0  0  1 V2000
    2.2960   -0.6779    0.0000 C   0  0  0  0  0  0  0  0  0  0  0  0
    2.2960   -1.9899    0.0000 C   0  0  0  0  0  0  0  0  0  0  0  0
    1.1589    0.0000    0.0000 C   0  0  0  0  0  0  0  0  0  0  0  0
    1.1589   -2.6459    0.0000 C   0  0  0  0  0  0  0  0  0  0  0  0
    0.0000   -0.6779    0.0000 C   0  0  0  0  0  0  0  0  0  0  0  0
    0.0000   -1.9899    0.0000 C   0  0  0  0  0  0  0  0  0  0  0  0
    3.4550   -2.6459    0.0000 N   0  0  0  0  0  0  0  0  0  0  0  0
    4.6139   -1.9899    0.0000 C   0  0  0  0  0  0  0  0  0  0  0  0
    3.4550   -3.9798    0.0000 C   0  0  0  0  0  0  0  0  0  0  0  0
    5.7728   -2.6459    0.0000 C   0  0  0  0  0  0  0  0  0  0  0  0
    4.6139   -4.6576    0.0000 C   0  0  0  0  0  0  0  0  0  0  0  0
    5.7728   -3.9798    0.0000 N   0  0  0  0  0  0  0  0  0  0  0  0
    6.9099   -4.6576    0.0000 C   0  0  0  0  0  0  0  0  0  0  0  0
    8.0470   -3.9798    0.0000 C   0  0  0  0  0  0  0  0  0  0  0  0
    9.2059   -4.6576    0.0000 C   0  0  0  0  0  0  0  0  0  0  0  0
   10.3649   -3.9798    0.0000 C   0  0  0  0  0  0  0  0  0  0  0  0
   11.5019   -4.6576    0.0000 N   0  0  0  0  0  0  0  0  0  0  0  0
   12.6609   -3.9798    0.0000 C   0  0  0  0  0  0  0  0  0  0  0  0
   13.8198   -4.6576    0.0000 C   0  0  0  0  0  0  0  0  0  0  0  0
   14.9569   -3.9798    0.0000 C   0  0  0  0  0  0  0  0  0  0  0  0
   13.8198   -5.9915    0.0000 C   0  0  0  0  0  0  0  0  0  0  0  0
   16.0940   -4.6576    0.0000 C   0  0  0  0  0  0  0  0  0  0  0  0
   14.9569   -6.6475    0.0000 C   0  0  0  0  0  0  0  0  0  0  0  0
   16.0940   -5.9915    0.0000 C   0  0  0  0  0  0  0  0  0  0  0  0
   12.6609   -2.6459    0.0000 O   0  0  0  0  0  0  0  0  0  0  0  0
   17.2529   -6.6475    0.0000 C   0  0  0  0  0  0  0  0  0  0  0  0
   18.4118   -5.9915    0.0000 C   0  0  0  0  0  0  0  0  0  0  0  0
   17.2529   -7.9595    0.0000 C   0  0  0  0  0  0  0  0  0  0  0  0
   19.5708   -6.6475    0.0000 C   0  0  0  0  0  0  0  0  0  0  0  0
   18.4118   -8.6374    0.0000 C   0  0  0  0  0  0  0  0  0  0  0  0
   19.5708   -7.9595    0.0000 C   0  0  0  0  0  0  0  0  0  0  0  0
   20.7078   -8.6374    0.0000 C   0  0  0  0  0  0  0  0  0  0  0  0
   20.7078   -9.9713    0.0000 C   0  0  0  0  0  0  0  0  0  0  0  0
   21.8668   -7.9595    0.0000 O   0  0  0  0  0  0  0  0  0  0  0  0
    1.1589   -3.9798    0.0000 O   0  0  0  0  0  0  0  0  0  0  0  0
    0.0000   -4.6358    0.0000 C   0  0  0  0  0  0  0  0  0  0  0  0
  1  2  1  0  0  0  0
  1  3  2  0  0  0  0
  2  4  2  0  0  0  0
  2  7  1  0  0  0  0
  3  5  1  0  0  0  0
  4  6  1  0  0  0  0
  4 35  1  0  0  0  0
  5  6  2  0  0  0  0
  7  8  1  0  0  0  0
  7  9  1  0  0  0  0
  8 10  1  0  0  0  0
  9 11  1  0  0  0  0
 10 12  1  0  0  0  0
 11 12  1  0  0  0  0
 12 13  1  0  0  0  0
 13 14  1  0  0  0  0
 14 15  1  0  0  0  0
 15 16  1  0  0  0  0
 16 17  1  0  0  0  0
 17 18  1  0  0  0  0
 18 19  1  0  0  0  0
 18 25  2  0  0  0  0
 19 20  1  0  0  0  0
 19 21  2  0  0  0  0
 20 22  2  0  0  0  0
 21 23  1  0  0  0  0
 22 24  1  0  0  0  0
 23 24  2  0  0  0  0
 24 26  1  0  0  0  0
 26 27  1  0  0  0  0
 26 28  2  0  0  0  0
 27 29  2  0  0  0  0
 28 30  1  0  0  0  0
 29 31  1  0  0  0  0
 30 31  2  0  0  0  0
 31 32  1  0  0  0  0
 32 33  1  0  0  0  0
 32 34  2  0  0  0  0
 35 36  1  0  0  0  0
M  END
> <ID>
9472

> <Formula>
C30H35N3O3

> <FW>
485.6172

> <DSSTox_CID>
22602

> <DSSTox_RID>
80056

> <DSSTox_GSID>
42602

> <DSSTox_FileID_Sort>
4738

> <TS_ChemName>
GR 103691

> <TS_ChemName_Synonyms>


> <TS_CASRN>
162408-66-4

> <CASRN_ChemName_Relationship>
primary

> <TS_Description>
single chemical compound

> <ChemNote>


> <STRUCTURE_Shown>
tested chemical

> <STRUCTURE_Formula>
C30H35N3O3

> <STRUCTURE_MW>
485.6172

> <STRUCTURE_ChemType>
defined organic

> <STRUCTURE_DefinedOrganicForm>
parent

> <STRUCTURE_IUPAC>
4'-acetyl-N-{4-[4-(2-methoxyphenyl)piperazin-1-yl]butyl}biphenyl-4-carboxamide

> <STRUCTURE_SMILES>
CC(=O)c1ccc(cc1)c2ccc(cc2)C(=O)NCCCCN3CCN(CC3)c4ccccc4OC

> <STRUCTURE_SMILES_Desalt>
CC(=O)c1ccc(cc1)c2ccc(cc2)C(=O)NCCCCN3CCN(CC3)c4ccccc4OC

> <Substance_modify_yyyymmdd>
20081003

$$$$
