1625-91-8
ChemmineR-0915142007XD

 20 21  0  0  0  0  0  0  0  0  1 V2000
    3.3160   -2.4660    0.0000 C   0  0  0  0  0  0  0  0  0  0  0  0
    2.6576   -1.3288    0.0000 C   0  0  0  0  0  0  0  0  0  0  0  0
    3.3160   -0.1676    0.0000 C   0  0  0  0  0  0  0  0  0  0  0  0
    4.6687   -0.1676    0.0000 C   0  0  0  0  0  0  0  0  0  0  0  0
    5.3151   -1.3288    0.0000 C   0  0  0  0  0  0  0  0  0  0  0  0
    4.6687   -2.4660    0.0000 C   0  0  0  0  0  0  0  0  0  0  0  0
    8.6550   -0.1676    0.0000 C   0  0  0  0  0  0  0  0  0  0  0  0
    9.3135   -1.3288    0.0000 C   0  0  0  0  0  0  0  0  0  0  0  0
    8.6550   -2.4660    0.0000 C   0  0  0  0  0  0  0  0  0  0  0  0
    7.3263   -2.4660    0.0000 C   0  0  0  0  0  0  0  0  0  0  0  0
    6.6559   -1.3288    0.0000 C   0  0  0  0  0  0  0  0  0  0  0  0
    7.3263   -0.1676    0.0000 C   0  0  0  0  0  0  0  0  0  0  0  0
    1.3288   -1.3288    0.0000 C   0  0  0  0  0  0  0  0  0  0  0  0
    1.3288    0.0000    0.0000 C   0  0  0  0  0  0  0  0  0  0  0  0
    1.3288   -2.6576    0.0000 C   0  0  0  0  0  0  0  0  0  0  0  0
    0.0000   -1.3288    0.0000 C   0  0  0  0  0  0  0  0  0  0  0  0
   10.6422   -1.3288    0.0000 C   0  0  0  0  0  0  0  0  0  0  0  0
   10.6422   -2.6576    0.0000 C   0  0  0  0  0  0  0  0  0  0  0  0
   10.6422    0.0000    0.0000 C   0  0  0  0  0  0  0  0  0  0  0  0
   11.9710   -1.3288    0.0000 C   0  0  0  0  0  0  0  0  0  0  0  0
  1  6  2  0  0  0  0
  1  2  1  0  0  0  0
  2  3  2  0  0  0  0
  2 13  1  0  0  0  0
  3  4  1  0  0  0  0
  4  5  2  0  0  0  0
  5  6  1  0  0  0  0
  5 11  1  0  0  0  0
  7 12  2  0  0  0  0
  7  8  1  0  0  0  0
  8  9  2  0  0  0  0
  8 17  1  0  0  0  0
  9 10  1  0  0  0  0
 10 11  2  0  0  0  0
 11 12  1  0  0  0  0
 13 14  1  0  0  0  0
 13 15  1  0  0  0  0
 13 16  1  0  0  0  0
 17 18  1  0  0  0  0
 17 19  1  0  0  0  0
 17 20  1  0  0  0  0
M  END
> <ID>
13255

> <Formula>
C20H26

> <FW>
266.4204

> <DSSTox_CID>
28168

> <DSSTox_RID>
82729

> <DSSTox_GSID>
48193

> <DSSTox_FileID_Sort>
7406

> <TS_ChemName>
4,4'-Di-tert-butylbiphenyl

> <TS_ChemName_Synonyms>


> <TS_CASRN>
1625-91-8

> <CASRN_ChemName_Relationship>
primary

> <TS_Description>
single chemical compound

> <ChemNote>


> <STRUCTURE_Shown>
tested chemical

> <STRUCTURE_Formula>
C20H26

> <STRUCTURE_MW>
266.4204

> <STRUCTURE_ChemType>
defined organic

> <STRUCTURE_DefinedOrganicForm>
parent

> <STRUCTURE_IUPAC>
4,4'-di-tert-butylbiphenyl

> <STRUCTURE_SMILES>
CC(C)(C)c1ccc(cc1)c2ccc(cc2)C(C)(C)C

> <STRUCTURE_SMILES_Desalt>
CC(C)(C)c1ccc(cc1)c2ccc(cc2)C(C)(C)C

> <Substance_modify_yyyymmdd>
20110831

$$$$
