16251-77-7
ChemmineR-0915142007XD

 11 11  0  0  0  0  0  0  0  0  1 V2000
    5.7576   -1.3340    0.0000 C   0  0  0  0  0  0  0  0  0  0  0  0
    6.9118   -1.9975    0.0000 O   0  0  0  0  0  0  0  0  0  0  0  0
    4.5964   -1.9975    0.0000 C   0  0  0  0  0  0  0  0  0  0  0  0
    3.4559   -1.3340    0.0000 C   0  0  0  0  0  0  0  0  0  0  0  0
    3.4559    0.0000    0.0000 C   0  0  0  0  0  0  0  0  0  0  0  0
    1.1543   -3.9881    0.0000 C   0  0  0  0  0  0  0  0  0  0  0  0
    0.0000   -3.3315    0.0000 C   0  0  0  0  0  0  0  0  0  0  0  0
    0.0000   -1.9975    0.0000 C   0  0  0  0  0  0  0  0  0  0  0  0
    1.1543   -1.3340    0.0000 C   0  0  0  0  0  0  0  0  0  0  0  0
    2.3155   -1.9975    0.0000 C   0  0  0  0  0  0  0  0  0  0  0  0
    2.3155   -3.3108    0.0000 C   0  0  0  0  0  0  0  0  0  0  0  0
  1  2  2  0  0  0  0
  1  3  1  0  0  0  0
  3  4  1  0  0  0  0
  4  5  1  0  0  0  0
  4 10  1  0  0  0  0
  6 11  2  0  0  0  0
  6  7  1  0  0  0  0
  7  8  2  0  0  0  0
  8  9  1  0  0  0  0
  9 10  2  0  0  0  0
 10 11  1  0  0  0  0
M  END
> <ID>
12249

> <Formula>
C10H12O

> <FW>
148.2017

> <DSSTox_CID>
27098

> <DSSTox_RID>
82109

> <DSSTox_GSID>
47098

> <DSSTox_FileID_Sort>
6790

> <TS_ChemName>
3-Phenylbutyraldehyde

> <TS_ChemName_Synonyms>


> <TS_CASRN>
16251-77-7

> <CASRN_ChemName_Relationship>
primary

> <TS_Description>
single chemical compound

> <ChemNote>


> <STRUCTURE_Shown>
tested chemical

> <STRUCTURE_Formula>
C10H12O

> <STRUCTURE_MW>
148.2017

> <STRUCTURE_ChemType>
defined organic

> <STRUCTURE_DefinedOrganicForm>
parent

> <STRUCTURE_IUPAC>
3-phenylbutanal

> <STRUCTURE_SMILES>
CC(CC=O)c1ccccc1

> <STRUCTURE_SMILES_Desalt>
CC(CC=O)c1ccccc1

> <Substance_modify_yyyymmdd>
20100429

$$$$
