162635-04-3
ChemmineR-0915142007XD

 77 80  0  0  1  0  0  0  0  0  1 V2000
    5.7231   -8.5951    0.0000 C   0  0  0  0  0  0  0  0  0  0  0  0
    5.7231   -9.9368    0.0000 O   0  0  0  0  0  0  0  0  0  0  0  0
    4.5910   -7.9452    0.0000 C   0  0  0  0  0  0  0  0  0  0  0  0
    4.5910  -10.5657    0.0000 O   0  0  0  0  0  0  0  0  0  0  0  0
    3.4590   -8.5951    0.0000 N   0  0  0  0  0  0  0  0  0  0  0  0
    3.4590   -9.9368    0.0000 C   0  0  0  0  0  0  0  0  0  0  0  0
    6.8761   -7.9452    0.0000 O   0  0  0  0  0  0  0  0  0  0  0  0
    8.0081   -8.5951    0.0000 C   0  0  0  0  0  0  0  0  0  0  0  0
    8.0081   -9.9368    0.0000 C   0  0  0  0  0  0  0  0  0  0  0  0
    9.1611   -7.9452    0.0000 C   0  0  0  0  0  0  0  0  0  0  0  0
   10.2932   -8.5951    0.0000 C   0  0  0  0  0  0  0  0  0  0  0  0
    9.1611  -10.5657    0.0000 C   0  0  0  0  0  0  0  0  0  0  0  0
    4.5910   -6.6036    0.0000 C   0  0  0  0  0  0  0  0  0  0  0  0
    3.4590   -5.9537    0.0000 C   0  0  0  0  0  0  0  0  0  0  0  0
    2.2850   -7.9452    0.0000 C   0  0  0  0  0  0  0  0  0  0  0  0
    2.2850   -6.6036    0.0000 C   0  0  0  0  0  0  0  0  0  0  0  0
    9.1611   -6.6036    0.0000 C   0  0  0  0  0  0  0  0  0  0  0  0
   10.2932   -5.9537    0.0000 C   0  0  0  0  0  0  0  0  0  0  0  0
   11.4671   -6.6036    0.0000 C   0  0  0  0  0  0  0  0  0  0  0  0
   10.2932   -4.6330    0.0000 C   0  0  0  0  0  0  0  0  0  0  0  0
   11.4671   -3.9621    0.0000 C   0  0  0  0  0  0  0  0  0  0  0  0
   12.5992   -5.9537    0.0000 C   0  0  0  0  0  0  0  0  0  0  0  0
   12.5992   -4.6330    0.0000 C   0  0  0  0  0  0  0  0  0  0  0  0
    3.4590  -12.5572    0.0000 O   0  0  0  0  0  0  0  0  0  0  0  0
    2.2850  -10.5657    0.0000 C   0  0  0  0  0  0  0  0  0  0  0  0
    2.2850  -11.9074    0.0000 C   0  0  0  0  0  0  0  0  0  0  0  0
    9.1611  -11.9074    0.0000 C   0  0  0  0  0  0  0  0  0  0  0  0
    8.0081  -12.5572    0.0000 C   0  0  0  0  0  0  0  0  0  0  0  0
    3.4380  -13.8780    0.0000 C   0  0  0  0  0  0  0  0  0  0  0  0
    2.2850  -14.5488    0.0000 C   0  0  0  0  0  0  0  0  0  0  0  0
    1.1530  -12.5572    0.0000 C   0  0  0  0  0  0  0  0  0  0  0  0
    1.1530  -13.8780    0.0000 C   0  0  0  0  0  0  0  0  0  0  0  0
    4.5910  -14.5488    0.0000 C   0  0  0  0  0  0  0  0  0  0  0  0
   10.2932  -12.5572    0.0000 C   0  0  0  0  0  0  0  0  0  0  0  0
   10.2932  -13.8780    0.0000 C   0  0  0  0  0  0  0  0  0  0  0  0
    9.1611  -14.5488    0.0000 C   0  0  0  0  0  0  0  0  0  0  0  0
    4.5910  -15.8695    0.0000 C   0  0  0  0  0  0  0  0  0  0  0  0
    6.8761  -15.8695    0.0000 C   0  0  0  0  0  0  0  0  0  0  0  0
    5.7440  -16.5403    0.0000 C   0  0  0  0  0  0  0  0  0  0  0  0
   11.4671  -14.5488    0.0000 C   0  0  0  0  0  0  0  0  0  0  0  0
   11.4671  -15.8695    0.0000 C   0  0  0  0  0  0  0  0  0  0  0  0
   10.2932  -16.5194    0.0000 O   0  0  0  0  0  0  0  0  0  0  0  0
    5.7440  -17.8611    0.0000 C   0  0  0  0  0  0  0  0  0  0  0  0
    6.8761  -18.5109    0.0000 C   0  0  0  0  0  0  0  0  0  0  0  0
   10.2932  -17.8611    0.0000 C   0  0  0  0  0  0  0  0  0  0  0  0
   12.5992  -16.5194    0.0000 C   0  0  0  0  0  0  0  0  0  0  0  0
   12.5992  -17.8611    0.0000 C   0  0  0  0  0  0  0  0  0  0  0  0
   11.4671  -18.5109    0.0000 C   0  0  0  0  0  0  0  0  0  0  0  0
    9.1611  -19.8316    0.0000 C   0  0  0  0  0  0  0  0  0  0  0  0
    8.0081  -20.5025    0.0000 C   0  0  0  0  0  0  0  0  0  0  0  0
    6.8761  -19.8316    0.0000 C   0  0  0  0  0  0  0  0  0  0  0  0
   10.8382  -19.8316    0.0000 C   0  0  0  0  0  0  0  0  0  0  0  0
   13.7522  -15.8695    0.0000 O   0  0  0  0  0  0  0  0  0  0  0  0
   12.5992  -13.8780    0.0000 O   0  0  0  0  0  0  0  0  0  0  0  0
   13.7522  -18.5109    0.0000 C   0  0  0  0  0  0  0  0  0  0  0  0
   11.5510  -20.9637    0.0000 C   0  0  0  0  0  0  0  0  0  0  0  0
    3.4590  -16.5403    0.0000 O   0  0  0  0  0  0  0  0  0  0  0  0
    3.4590  -17.8611    0.0000 C   0  0  0  0  0  0  0  0  0  0  0  0
   10.2932   -9.9368    0.0000 O   0  0  0  0  0  0  0  0  0  0  0  0
    1.1530  -11.2365    0.0000 O   0  0  0  0  0  0  0  0  0  0  0  0
    1.1530   -9.9158    0.0000 O   0  0  0  0  0  0  0  0  0  0  0  0
   13.7522   -6.6036    0.0000 O   0  0  0  0  0  0  0  0  0  0  0  0
   13.7522   -3.9831    0.0000 O   0  0  0  0  0  0  0  0  0  0  0  0
    0.0000  -11.9074    0.0000 C   0  0  0  0  0  0  0  0  0  0  0  0
   13.7522   -7.9452    0.0000 C   0  0  0  0  0  0  0  0  0  0  0  0
    9.0353   -5.6183    0.0000 H   0  0  0  0  0  0  0  0  0  0  0  0
    8.0081   -7.2744    0.0000 H   0  0  0  0  0  0  0  0  0  0  0  0
    3.4380  -15.1987    0.0000 H   0  0  0  0  0  0  0  0  0  0  0  0
    4.5910   -9.2450    0.0000 H   0  0  0  0  0  0  0  0  0  0  0  0
   13.7731   -2.6624    0.0000 C   0  0  0  0  0  0  0  0  0  0  0  0
   14.9261   -2.0125    0.0000 C   0  0  0  0  0  0  0  0  0  0  0  0
   12.6411   -1.9706    0.0000 O   0  0  0  0  0  0  0  0  0  0  0  0
   16.0791   -2.6834    0.0000 C   0  0  0  0  0  0  0  0  0  0  0  0
   14.9052   -0.6708    0.0000 C   0  0  0  0  0  0  0  0  0  0  0  0
   16.1001   -0.0419    0.0000 O   0  0  0  0  0  0  0  0  0  0  0  0
   13.7941   -1.3207    0.0000 C   0  0  0  0  0  0  0  0  0  0  0  0
   13.8151    0.0000    0.0000 O   0  0  0  0  0  0  0  0  0  0  0  0
  1  3  1  0  0  0  0
  1  7  1  0  0  0  0
  1  2  2  0  0  0  0
  3 13  1  0  0  0  0
  3  5  1  0  0  0  0
  3 69  1  6  0  0  0
  4  6  2  0  0  0  0
  5  6  1  0  0  0  0
  5 15  1  0  0  0  0
  6 25  1  0  0  0  0
  7  8  1  0  0  0  0
  8 10  1  0  0  0  0
  8  9  1  0  0  0  0
  8 67  1  1  0  0  0
  9 12  1  0  0  0  0
 10 17  1  0  0  0  0
 10 11  1  1  0  0  0
 12 27  1  0  0  0  0
 12 59  2  0  0  0  0
 13 14  1  0  0  0  0
 14 16  1  0  0  0  0
 15 16  1  0  0  0  0
 17 18  1  0  0  0  0
 18 20  1  0  0  0  0
 18 19  1  0  0  0  0
 18 66  1  1  0  0  0
 19 22  1  0  0  0  0
 20 21  1  0  0  0  0
 21 23  1  0  0  0  0
 22 23  1  0  0  0  0
 22 62  1  6  0  0  0
 23 63  1  1  0  0  0
 24 26  1  0  0  0  0
 24 29  1  0  0  0  0
 25 26  1  0  0  0  0
 25 61  2  0  0  0  0
 26 31  1  0  0  0  0
 26 60  1  1  0  0  0
 27 34  1  0  0  0  0
 27 28  1  1  0  0  0
 29 30  1  0  0  0  0
 29 33  1  0  0  0  0
 29 68  1  1  0  0  0
 30 32  1  0  0  0  0
 31 32  1  0  0  0  0
 31 64  1  1  0  0  0
 33 37  1  0  0  0  0
 34 35  2  0  0  0  0
 35 40  1  0  0  0  0
 35 36  1  0  0  0  0
 37 39  1  0  0  0  0
 37 57  1  1  0  0  0
 38 39  1  0  0  0  0
 39 43  2  0  0  0  0
 40 41  1  0  0  0  0
 40 54  1  1  0  0  0
 41 46  1  0  0  0  0
 41 42  1  6  0  0  0
 42 45  1  0  0  0  0
 43 44  1  0  0  0  0
 44 51  2  0  0  0  0
 46 47  1  0  0  0  0
 46 53  2  0  0  0  0
 47 48  1  0  0  0  0
 47 55  1  6  0  0  0
 48 52  1  0  0  0  0
 49 50  2  0  0  0  0
 49 52  1  0  0  0  0
 50 51  1  0  0  0  0
 52 56  1  6  0  0  0
 57 58  1  0  0  0  0
 62 65  1  0  0  0  0
 63 70  1  0  0  0  0
 70 71  1  0  0  0  0
 70 72  2  0  0  0  0
 71 73  1  0  0  0  0
 71 74  1  0  0  0  0
 71 76  1  0  0  0  0
 74 75  1  0  0  0  0
 76 77  1  0  0  0  0
M  END
> <ID>
7993

> <Formula>
C56H87NO16

> <FW>
1030.2871

> <DSSTox_CID>
20945

> <DSSTox_RID>
79605

> <DSSTox_GSID>
40945

> <DSSTox_FileID_Sort>
4287

> <TS_ChemName>
Temsirolimus

> <TS_ChemName_Synonyms>
Temsirolimus (42-(3-Hydroxy-2-(hydroxymethyl)-2-methylpropanoate)rapamycin) (CCI-779)

> <TS_CASRN>
162635-04-3

> <CASRN_ChemName_Relationship>
primary

> <TS_Description>
single chemical compound

> <ChemNote>
stereochem; tautomers

> <STRUCTURE_Shown>
tested chemical

> <STRUCTURE_Formula>
C56H87NO16

> <STRUCTURE_MW>
1030.2871

> <STRUCTURE_ChemType>
defined organic

> <STRUCTURE_DefinedOrganicForm>
parent

> <STRUCTURE_IUPAC>
(1R,2R,4S)-4-{(2R)-2-[(3S,6R,7E,9R,10R,12R,14S,15E,17E,19E,21S,23S,26R,27R,34aS)-9,27-dihydroxy-10,21-dimethoxy-6,8,12,14,20,26-hexamethyl-1,5,11,28,29-pentaoxo-1,4,5,6,9,10,11,12,13,14,21,22,23,24,25,26,27,28,29,31,32,33,34,34a-tetracosahydro-3H-23,27-ep

> <STRUCTURE_SMILES>
CC(CO)(CO)C(=O)O[C@@H]1CC[C@H](C[C@H]1OC)C[C@@H](C)[C@H]2OC(=O)[C@@H]4CCCCN4C(=O)C(=O)[C@]3(O)O[C@H](C[C@H](OC)C(C)=CC=CC=C[C@@H](C)C[C@@H](C)C(=O)[C@H](OC)[C@H](O)C(C)=C[C@@H](C)C(=O)C2)CC[C@H]3C

> <STRUCTURE_SMILES_Desalt>
CC(CO)(CO)C(=O)O[C@@H]1CC[C@H](C[C@H]1OC)C[C@@H](C)[C@H]2OC(=O)[C@@H]4CCCCN4C(=O)C(=O)[C@]3(O)O[C@H](C[C@H](OC)C(C)=CC=CC=C[C@@H](C)C[C@@H](C)C(=O)[C@H](OC)[C@H](O)C(C)=C[C@@H](C)C(=O)C2)CC[C@H]3C

> <Substance_modify_yyyymmdd>
20080429

$$$$
