162706-14-1
ChemmineR-0915142007XD

 23 25  0  0  0  0  0  0  0  0  1 V2000
    4.2241   -3.3844    0.0000 C   0  0  0  0  0  0  0  0  0  0  0  0
    3.8043   -2.1375    0.0000 C   0  0  0  0  0  0  0  0  0  0  0  0
    5.5473   -3.3844    0.0000 C   0  0  0  0  0  0  0  0  0  0  0  0
    3.5498   -4.5422    0.0000 C   0  0  0  0  0  0  0  0  0  0  0  0
    2.5319   -1.7176    0.0000 C   0  0  0  0  0  0  0  0  0  0  0  0
    4.8730   -1.3487    0.0000 C   0  0  0  0  0  0  0  0  0  0  0  0
    5.9672   -2.1375    0.0000 N   0  0  0  0  0  0  0  0  0  0  0  0
    6.2090   -4.5422    0.0000 C   0  0  0  0  0  0  0  0  0  0  0  0
    4.2241   -5.7000    0.0000 C   0  0  0  0  0  0  0  0  0  0  0  0
    1.5522   -2.6083    0.0000 C   0  0  0  0  0  0  0  0  0  0  0  0
    2.2647   -0.4199    0.0000 C   0  0  0  0  0  0  0  0  0  0  0  0
    4.8730   -0.0254    0.0000 C   0  0  0  0  0  0  0  0  0  0  0  0
    7.2395   -1.7176    0.0000 C   0  0  0  0  0  0  0  0  0  0  0  0
    5.5473   -5.7000    0.0000 C   0  0  0  0  0  0  0  0  0  0  0  0
    0.2926   -2.2011    0.0000 C   0  0  0  0  0  0  0  0  0  0  0  0
    0.9924    0.0000    0.0000 N   0  0  0  0  0  0  0  0  0  0  0  0
    8.2192   -2.6083    0.0000 C   0  0  0  0  0  0  0  0  0  0  0  0
    0.0000   -0.9034    0.0000 C   0  0  0  0  0  0  0  0  0  0  0  0
    9.4788   -2.2011    0.0000 C   0  0  0  0  0  0  0  0  0  0  0  0
   10.4712   -3.0790    0.0000 C   0  0  0  0  0  0  0  0  0  0  0  0
   11.7436   -2.6846    0.0000 C   0  0  0  0  0  0  0  0  0  0  0  0
   12.7233   -3.5625    0.0000 O   0  0  0  0  0  0  0  0  0  0  0  0
   12.0235   -1.3741    0.0000 O   0  0  0  0  0  0  0  0  0  0  0  0
  1  2  1  0  0  0  0
  1  3  2  0  0  0  0
  1  4  1  0  0  0  0
  2  5  1  0  0  0  0
  2  6  2  0  0  0  0
  3  7  1  0  0  0  0
  3  8  1  0  0  0  0
  4  9  2  0  0  0  0
  5 10  1  0  0  0  0
  5 11  2  0  0  0  0
  6 12  1  0  0  0  0
  6  7  1  0  0  0  0
  7 13  1  0  0  0  0
  8 14  2  0  0  0  0
  9 14  1  0  0  0  0
 10 15  2  0  0  0  0
 11 16  1  0  0  0  0
 13 17  1  0  0  0  0
 15 18  1  0  0  0  0
 16 18  2  0  0  0  0
 17 19  1  0  0  0  0
 19 20  1  0  0  0  0
 20 21  1  0  0  0  0
 21 22  1  0  0  0  0
 21 23  2  0  0  0  0
M  END
> <ID>
12451

> <Formula>
C19H20N2O2

> <FW>
308.3743

> <DSSTox_CID>
27309

> <DSSTox_RID>
82259

> <DSSTox_GSID>
47309

> <DSSTox_FileID_Sort>
6940

> <TS_ChemName>
UK-156819

> <TS_ChemName_Synonyms>


> <TS_CASRN>
162706-14-1

> <CASRN_ChemName_Relationship>
primary

> <TS_Description>
single chemical compound

> <ChemNote>


> <STRUCTURE_Shown>
tested chemical

> <STRUCTURE_Formula>
C19H20N2O2

> <STRUCTURE_MW>
308.3743

> <STRUCTURE_ChemType>
defined organic

> <STRUCTURE_DefinedOrganicForm>
parent

> <STRUCTURE_IUPAC>
5-[2-methyl-3-(pyridin-3-yl)-1H-indol-1-yl]pentanoic acid

> <STRUCTURE_SMILES>
O=C(O)CCCCn2c1ccccc1c(c2C)c3cccnc3

> <STRUCTURE_SMILES_Desalt>
O=C(O)CCCCn2c1ccccc1c(c2C)c3cccnc3

> <Substance_modify_yyyymmdd>
20130910

$$$$
