162881-26-7
ChemmineR-0915142007XD

 30 32  0  0  0  0  0  0  0  0  1 V2000
    6.4361   -5.3180    0.0000 P   0  0  0  0  0  0  0  0  0  0  0  0
    7.6857   -4.8670    0.0000 O   0  0  0  0  0  0  0  0  0  0  0  0
    5.9851   -4.0778    0.0000 C   0  0  0  0  0  0  0  0  0  0  0  0
    5.1771   -5.7878    0.0000 C   0  0  0  0  0  0  0  0  0  0  0  0
    6.9059   -6.5770    0.0000 C   0  0  0  0  0  0  0  0  0  0  0  0
    8.2025   -6.8025    0.0000 C   0  0  0  0  0  0  0  0  0  0  0  0
    6.0509   -7.5918    0.0000 C   0  0  0  0  0  0  0  0  0  0  0  0
    8.6723   -8.0522    0.0000 C   0  0  0  0  0  0  0  0  0  0  0  0
    6.5019   -8.8602    0.0000 C   0  0  0  0  0  0  0  0  0  0  0  0
    7.8173   -9.0857    0.0000 C   0  0  0  0  0  0  0  0  0  0  0  0
    4.6791   -3.8523    0.0000 O   0  0  0  0  0  0  0  0  0  0  0  0
    6.8213   -3.0536    0.0000 C   0  0  0  0  0  0  0  0  0  0  0  0
    6.3703   -1.8134    0.0000 C   0  0  0  0  0  0  0  0  0  0  0  0
    8.1367   -3.2979    0.0000 C   0  0  0  0  0  0  0  0  0  0  0  0
    7.2253   -0.7986    0.0000 C   0  0  0  0  0  0  0  0  0  0  0  0
    8.9918   -2.2644    0.0000 C   0  0  0  0  0  0  0  0  0  0  0  0
    8.5408   -1.0053    0.0000 C   0  0  0  0  0  0  0  0  0  0  0  0
    4.9516   -7.0938    0.0000 O   0  0  0  0  0  0  0  0  0  0  0  0
    3.9462   -5.3368    0.0000 C   0  0  0  0  0  0  0  0  0  0  0  0
    3.0724   -6.3515    0.0000 C   0  0  0  0  0  0  0  0  0  0  0  0
    3.4952   -4.0778    0.0000 C   0  0  0  0  0  0  0  0  0  0  0  0
    1.7664   -6.1073    0.0000 C   0  0  0  0  0  0  0  0  0  0  0  0
    2.1704   -3.8429    0.0000 C   0  0  0  0  0  0  0  0  0  0  0  0
    1.3154   -4.8576    0.0000 C   0  0  0  0  0  0  0  0  0  0  0  0
    8.5877   -4.5288    0.0000 C   0  0  0  0  0  0  0  0  0  0  0  0
    5.0643   -1.5879    0.0000 C   0  0  0  0  0  0  0  0  0  0  0  0
    9.3958    0.0000    0.0000 C   0  0  0  0  0  0  0  0  0  0  0  0
    3.5422   -7.6012    0.0000 C   0  0  0  0  0  0  0  0  0  0  0  0
    4.3408   -3.0724    0.0000 C   0  0  0  0  0  0  0  0  0  0  0  0
    0.0000   -4.6321    0.0000 C   0  0  0  0  0  0  0  0  0  0  0  0
  1  2  2  0  0  0  0
  1  3  1  0  0  0  0
  1  4  1  0  0  0  0
  1  5  1  0  0  0  0
  3 11  2  0  0  0  0
  3 12  1  0  0  0  0
  4 18  2  0  0  0  0
  4 19  1  0  0  0  0
  5  6  1  0  0  0  0
  5  7  2  0  0  0  0
  6  8  2  0  0  0  0
  7  9  1  0  0  0  0
  8 10  1  0  0  0  0
  9 10  2  0  0  0  0
 12 13  1  0  0  0  0
 12 14  2  0  0  0  0
 13 15  2  0  0  0  0
 13 26  1  0  0  0  0
 14 16  1  0  0  0  0
 14 25  1  0  0  0  0
 15 17  1  0  0  0  0
 16 17  2  0  0  0  0
 17 27  1  0  0  0  0
 19 20  1  0  0  0  0
 19 21  2  0  0  0  0
 20 22  2  0  0  0  0
 20 28  1  0  0  0  0
 21 23  1  0  0  0  0
 21 29  1  0  0  0  0
 22 24  1  0  0  0  0
 23 24  2  0  0  0  0
 24 30  1  0  0  0  0
M  END
> <ID>
10251

> <Formula>
C26H27O3P

> <FW>
418.4645

> <DSSTox_CID>
24597

> <DSSTox_RID>
80340

> <DSSTox_GSID>
44597

> <DSSTox_FileID_Sort>
5022

> <TS_ChemName>
(Phenylphosphoryl)bis[(2,4,6-trimethylphenyl)methanone]

> <TS_ChemName_Synonyms>
(Phenylphosphoryl)bis[(2,4,6-trimethylphenyl)methanone] (Phosphine oxide, phenylbis(2,4,6-trimethylbenzoyl)-)

> <TS_CASRN>
162881-26-7

> <CASRN_ChemName_Relationship>
primary

> <TS_Description>
single chemical compound

> <ChemNote>


> <STRUCTURE_Shown>
tested chemical

> <STRUCTURE_Formula>
C26H27O3P

> <STRUCTURE_MW>
418.4645

> <STRUCTURE_ChemType>
defined organic

> <STRUCTURE_DefinedOrganicForm>
parent

> <STRUCTURE_IUPAC>
(phenylphosphoryl)bis[(2,4,6-trimethylphenyl)methanone]

> <STRUCTURE_SMILES>
O=P(C(=O)c1c(C)cc(C)cc1C)(C(=O)c2c(C)cc(C)cc2C)c3ccccc3

> <STRUCTURE_SMILES_Desalt>
O=P(C(=O)c1c(C)cc(C)cc1C)(C(=O)c2c(C)cc(C)cc2C)c3ccccc3

> <Substance_modify_yyyymmdd>
20091116

$$$$
