16283-36-6
ChemmineR-0915142007XD

 21 20  0  0  0  0  0  0  0  0  2 V2000
    1.1476   -2.8101    0.0000 C    0  0  0  0  0  0  0  0  0  0  0  0
    2.3060   -3.4858    0.0000 C    0  0  0  0  0  0  0  0  0  0  0  0
    1.1476   -1.4694    0.0000 C    0  0  0  0  0  0  0  0  0  0  0  0
    3.4643   -2.8101    0.0000 O    0  0  0  0  0  0  0  0  0  0  0  0
    0.0215   -0.7937    0.0000 O    0  0  0  0  0  0  0  0  0  0  0  0
    2.2738   -0.7830    0.0000 O    0  5  0  0  0  0  0  0  0  0  0  0
    0.0000   -3.4858    0.0000 C    0  0  0  0  0  0  0  0  0  0  0  0
    2.3060   -4.8050    0.0000 C    0  0  0  0  0  0  0  0  0  0  0  0
    0.0000   -4.8050    0.0000 C    0  0  0  0  0  0  0  0  0  0  0  0
    1.1476   -5.4807    0.0000 C    0  0  0  0  0  0  0  0  0  0  0  0
    9.5671   -2.7886    0.0000 C    0  0  0  0  0  0  0  0  0  0  0  0
    8.4087   -3.4643    0.0000 C    0  0  0  0  0  0  0  0  0  0  0  0
    9.5671   -1.4587    0.0000 C    0  0  0  0  0  0  0  0  0  0  0  0
    7.2611   -2.7886    0.0000 O    0  0  0  0  0  0  0  0  0  0  0  0
   10.6932   -0.7830    0.0000 O    0  0  0  0  0  0  0  0  0  0  0  0
    8.4409   -0.7615    0.0000 O    0  5  0  0  0  0  0  0  0  0  0  0
   10.7254   -3.4643    0.0000 C    0  0  0  0  0  0  0  0  0  0  0  0
    8.4087   -4.7835    0.0000 C    0  0  0  0  0  0  0  0  0  0  0  0
   10.7254   -4.7835    0.0000 C    0  0  0  0  0  0  0  0  0  0  0  0
    9.5671   -5.4592    0.0000 C    0  0  0  0  0  0  0  0  0  0  0  0
    5.3413    0.0000    0.0000 Zn   0  2  0  0  0  0  0  0  0  0  0  0
  1  2  1  0  0  0  0
  1  3  1  0  0  0  0
  1  7  2  0  0  0  0
  2  4  1  0  0  0  0
  2  8  2  0  0  0  0
  3  5  2  0  0  0  0
  3  6  1  0  0  0  0
  7  9  1  0  0  0  0
  8 10  1  0  0  0  0
  9 10  2  0  0  0  0
 11 12  1  0  0  0  0
 11 13  1  0  0  0  0
 11 17  2  0  0  0  0
 12 14  1  0  0  0  0
 12 18  2  0  0  0  0
 13 15  2  0  0  0  0
 13 16  1  0  0  0  0
 17 19  1  0  0  0  0
 18 20  1  0  0  0  0
 19 20  2  0  0  0  0
M  END
> <ID>
13621

> <Formula>
C14H10O6Zn

> <FW>
339.6346 (137.1133+137.1133+65.4079)

> <DSSTox_CID>
28550

> <DSSTox_RID>
82822

> <DSSTox_GSID>
48624

> <DSSTox_FileID_Sort>
7499

> <TS_ChemName>
Zinc salicylate

> <TS_ChemName_Synonyms>


> <TS_CASRN>
16283-36-6

> <CASRN_ChemName_Relationship>
primary

> <TS_Description>
single chemical compound

> <ChemNote>
parent [69-72-7]

> <STRUCTURE_Shown>
tested chemical

> <STRUCTURE_Formula>
C14H10O6Zn

> <STRUCTURE_MW>
339.6346

> <STRUCTURE_ChemType>
organometallic

> <STRUCTURE_DefinedOrganicForm>


> <STRUCTURE_IUPAC>
zinc bis(2-hydroxybenzoate)

> <STRUCTURE_SMILES>
[Zn+2].O=C([O-])c1ccccc1O.[O-]C(=O)c1ccccc1O

> <STRUCTURE_SMILES_Desalt>
OC(=O)c1ccccc1O

> <Substance_modify_yyyymmdd>
20111015

$$$$
