1629-58-9
ChemmineR-0915142007XD

  6  5  0  0  0  0  0  0  0  0  1 V2000
    1.9952   -1.1492    0.0000 C   0  0  0  0  0  0  0  0  0  0  0  0
    2.6616    0.0000    0.0000 O   0  0  0  0  0  0  0  0  0  0  0  0
    2.6616   -2.3025    0.0000 C   0  0  0  0  0  0  0  0  0  0  0  0
    3.9905   -2.3025    0.0000 C   0  0  0  0  0  0  0  0  0  0  0  0
    0.6664   -1.1492    0.0000 C   0  0  0  0  0  0  0  0  0  0  0  0
    0.0000   -2.3025    0.0000 C   0  0  0  0  0  0  0  0  0  0  0  0
  1  2  2  0  0  0  0
  1  3  1  0  0  0  0
  1  5  1  0  0  0  0
  3  4  1  0  0  0  0
  5  6  2  0  0  0  0
M  END
> <ID>
4142

> <Formula>
C5H8O

> <FW>
84.1164

> <DSSTox_CID>
5318

> <DSSTox_RID>
77747

> <DSSTox_GSID>
25318

> <DSSTox_FileID_Sort>
2430

> <TS_ChemName>
Ethyl vinyl ketone

> <TS_ChemName_Synonyms>


> <TS_CASRN>
1629-58-9

> <CASRN_ChemName_Relationship>
primary

> <TS_Description>
single chemical compound

> <ChemNote>


> <STRUCTURE_Shown>
tested chemical

> <STRUCTURE_Formula>
C5H8O

> <STRUCTURE_MW>
84.1164

> <STRUCTURE_ChemType>
defined organic

> <STRUCTURE_DefinedOrganicForm>
parent

> <STRUCTURE_IUPAC>
pent-1-en-3-one

> <STRUCTURE_SMILES>
C=CC(=O)CC

> <STRUCTURE_SMILES_Desalt>
C=CC(=O)CC

> <Substance_modify_yyyymmdd>
20080429

$$$$
