163252-36-6
ChemmineR-0915142007XD

 22 23  0  0  1  0  0  0  0  0  1 V2000
    0.0000   -7.1145    0.0000 C   0  0  0  0  0  0  0  0  0  0  0  0
    1.1576   -6.4554    0.0000 C   0  0  0  0  0  0  0  0  0  0  0  0
    1.1576   -5.1204    0.0000 C   0  0  0  0  0  0  0  0  0  0  0  0
    2.3152   -4.4529    0.0000 N   0  0  0  0  0  0  0  0  0  0  0  0
    2.3152   -3.1348    0.0000 C   0  0  0  0  0  0  0  0  0  0  0  0
    1.0477   -3.5319    0.0000 H   0  0  0  0  0  0  0  0  0  0  0  0
    3.6333   -3.1348    0.0000 O   0  0  0  0  0  0  0  0  0  0  0  0
    4.0473   -1.8673    0.0000 C   0  0  0  0  0  0  0  0  0  0  0  0
    4.8331   -0.7858    0.0000 H   0  0  0  0  0  0  0  0  0  0  0  0
    5.2978   -2.2645    0.0000 C   0  0  0  0  0  0  0  0  0  0  0  0
    6.2949   -1.3773    0.0000 O   0  0  0  0  0  0  0  0  0  0  0  0
    2.9742   -1.0731    0.0000 C   0  0  0  0  0  0  0  0  0  0  0  0
    2.1884    0.0000    0.0000 H   0  0  0  0  0  0  0  0  0  0  0  0
    3.7431    0.0000    0.0000 O   0  0  0  0  0  0  0  0  0  0  0  0
    1.8927   -1.8673    0.0000 C   0  0  0  0  0  0  0  0  0  0  0  0
    0.6253   -2.2645    0.0000 H   0  0  0  0  0  0  0  0  0  0  0  0
    1.1069   -0.7858    0.0000 F   0  0  0  0  0  0  0  0  0  0  0  0
    3.4558   -5.1204    0.0000 C   0  0  0  0  0  0  0  0  0  0  0  0
    4.6134   -4.4529    0.0000 O   0  0  0  0  0  0  0  0  0  0  0  0
    3.4558   -6.4554    0.0000 N   0  0  0  0  0  0  0  0  0  0  0  0
    2.3152   -7.1145    0.0000 C   0  0  0  0  0  0  0  0  0  0  0  0
    2.3152   -8.4495    0.0000 O   0  0  0  0  0  0  0  0  0  0  0  0
  1  2  1  0  0  0  0
  2  3  2  0  0  0  0
  2 21  1  0  0  0  0
  3  4  1  0  0  0  0
  4  5  1  0  0  0  0
  4 18  1  0  0  0  0
  5  6  1  6  0  0  0
  5  7  1  0  0  0  0
  5 15  1  0  0  0  0
  7  8  1  0  0  0  0
  8  9  1  0  0  0  0
  8 10  1  1  0  0  0
  8 12  1  0  0  0  0
 10 11  1  0  0  0  0
 12 13  1  0  0  0  0
 12 14  1  6  0  0  0
 12 15  1  0  0  0  0
 15 16  1  0  0  0  0
 15 17  1  1  0  0  0
 18 19  2  0  0  0  0
 18 20  1  0  0  0  0
 20 21  1  0  0  0  0
 21 22  2  0  0  0  0
M  END
> <ID>
16063

> <Formula>
C10H13FN2O5

> <FW>
260.219

> <DSSTox_CID>
31448

> <DSSTox_RID>
97334

> <DSSTox_GSID>
57659

> <DSSTox_FileID_Sort>
8401

> <TS_ChemName>
Clevudine

> <TS_ChemName_Synonyms>


> <TS_CASRN>
163252-36-6

> <CASRN_ChemName_Relationship>
primary

> <TS_Description>
single chemical compound

> <ChemNote>


> <STRUCTURE_Shown>
tested chemical

> <STRUCTURE_Formula>
C10H13FN2O5

> <STRUCTURE_MW>
260.219

> <STRUCTURE_ChemType>
defined organic

> <STRUCTURE_DefinedOrganicForm>
parent

> <STRUCTURE_IUPAC>
1-(2-deoxy-2-fluoro-beta-D-arabinofuranosyl)-5-methylpyrimidine-2,4(1H,3H)-dione

> <STRUCTURE_SMILES>
CC1=CN(C(=O)NC1=O)[C@@H]2O[C@H](CO)[C@@H](O)[C@@H]2F

> <STRUCTURE_SMILES_Desalt>
CC1=CN(C(=O)NC1=O)[C@@H]2O[C@H](CO)[C@@H](O)[C@@H]2F

> <Substance_modify_yyyymmdd>
20131018

$$$$
