1632-73-1
ChemmineR-0915142007XD

 11 12  0  0  0  0  0  0  0  0  1 V2000
    0.0000   -2.9921    0.0000 C   0  0  0  0  0  0  0  0  0  0  0  0
    0.5530   -1.9892    0.0000 C   0  0  0  0  0  0  0  0  0  0  0  0
    1.5270   -1.3000    0.0000 C   0  0  0  0  0  0  0  0  0  0  0  0
    1.1680   -2.3937    0.0000 C   0  0  0  0  0  0  0  0  0  0  0  0
    1.1803    0.0000    0.0000 C   0  0  0  0  0  0  0  0  0  0  0  0
    2.7362   -2.0016    0.0000 C   0  0  0  0  0  0  0  0  0  0  0  0
    2.2864   -2.9591    0.0000 C   0  0  0  0  0  0  0  0  0  0  0  0
    3.9331   -1.6467    0.0000 O   0  0  0  0  0  0  0  0  0  0  0  0
    2.3194   -4.1270    0.0000 C   0  0  0  0  0  0  0  0  0  0  0  0
    3.4832   -2.9756    0.0000 C   0  0  0  0  0  0  0  0  0  0  0  0
    2.5258   -0.5530    0.0000 C   0  0  0  0  0  0  0  0  0  0  0  0
  1  2  1  0  0  0  0
  1  4  1  0  0  0  0
  2  3  1  0  0  0  0
  3  5  1  0  0  0  0
  3  6  1  0  0  0  0
  3 11  1  0  0  0  0
  4  5  1  0  0  0  0
  4  7  1  0  0  0  0
  6  7  1  0  0  0  0
  6  8  1  0  0  0  0
  7  9  1  0  0  0  0
  7 10  1  0  0  0  0
M  END
> <ID>
8905

> <Formula>
C10H18O

> <FW>
154.2493

> <DSSTox_CID>
21970

> <DSSTox_RID>
79890

> <DSSTox_GSID>
41970

> <DSSTox_FileID_Sort>
4572

> <TS_ChemName>
Fenchol

> <TS_ChemName_Synonyms>


> <TS_CASRN>
1632-73-1

> <CASRN_ChemName_Relationship>
primary

> <TS_Description>
single chemical compound

> <ChemNote>
mixture of stereo isomers; structure shown without stereochem

> <STRUCTURE_Shown>
tested chemical

> <STRUCTURE_Formula>
C10H18O

> <STRUCTURE_MW>
154.2493

> <STRUCTURE_ChemType>
defined organic

> <STRUCTURE_DefinedOrganicForm>
parent

> <STRUCTURE_IUPAC>
1,3,3-trimethylbicyclo[2.2.1]heptan-2-ol

> <STRUCTURE_SMILES>
CC12CCC(C1)C(C)(C)C2O

> <STRUCTURE_SMILES_Desalt>
CC12CCC(C1)C(C)(C)C2O

> <Substance_modify_yyyymmdd>
20080825

$$$$
