16323-43-6
ChemmineR-0915142007XD

 16 16  0  0  0  0  0  0  0  0  1 V2000
    1.1160   -4.0084    0.0000 C   0  0  0  0  0  0  0  0  0  0  0  0
    2.2547   -3.3138    0.0000 C   0  0  0  0  0  0  0  0  0  0  0  0
    3.4049   -4.0084    0.0000 C   0  0  0  0  0  0  0  0  0  0  0  0
    1.1160   -5.3408    0.0000 O   0  0  0  0  0  0  0  0  0  0  0  0
    0.0000   -3.3138    0.0000 O   0  0  0  0  0  0  0  0  0  0  0  0
   10.2830   -1.3210    0.0000 C   0  0  0  0  0  0  0  0  0  0  0  0
    9.1442   -2.0270    0.0000 C   0  0  0  0  0  0  0  0  0  0  0  0
    7.9599   -1.3210    0.0000 C   0  0  0  0  0  0  0  0  0  0  0  0
   10.2830    0.0000    0.0000 O   0  0  0  0  0  0  0  0  0  0  0  0
   11.3876   -2.0270    0.0000 O   0  0  0  0  0  0  0  0  0  0  0  0
    6.8440   -2.0270    0.0000 C   0  0  0  0  0  0  0  0  0  0  0  0
    6.8440   -3.3138    0.0000 C   0  0  0  0  0  0  0  0  0  0  0  0
    5.6824   -4.0084    0.0000 C   0  0  0  0  0  0  0  0  0  0  0  0
    4.5550   -3.3138    0.0000 C   0  0  0  0  0  0  0  0  0  0  0  0
    4.5550   -2.0270    0.0000 C   0  0  0  0  0  0  0  0  0  0  0  0
    5.7280   -1.3210    0.0000 C   0  0  0  0  0  0  0  0  0  0  0  0
  1  2  1  0  0  0  0
  1  5  1  0  0  0  0
  1  4  2  0  0  0  0
  2  3  2  3  0  0  0
  3 14  1  0  0  0  0
  6  7  1  0  0  0  0
  6 10  1  0  0  0  0
  6  9  2  0  0  0  0
  7  8  2  3  0  0  0
  8 11  1  0  0  0  0
 11 16  2  0  0  0  0
 11 12  1  0  0  0  0
 12 13  2  0  0  0  0
 13 14  1  0  0  0  0
 14 15  2  0  0  0  0
 15 16  1  0  0  0  0
M  END
> <ID>
4449

> <Formula>
C12H10O4

> <FW>
218.2054

> <DSSTox_CID>
5879

> <DSSTox_RID>
77957

> <DSSTox_GSID>
25879

> <DSSTox_FileID_Sort>
2640

> <TS_ChemName>
3,3'-(1,4-Phenylene)bis-2-propenoic acid

> <TS_ChemName_Synonyms>


> <TS_CASRN>
16323-43-6

> <CASRN_ChemName_Relationship>
primary

> <TS_Description>
mixture of Z,E isomers

> <ChemNote>
mixture of Z,E isomers

> <STRUCTURE_Shown>
representative isomer in mixture

> <STRUCTURE_Formula>
C12H10O4

> <STRUCTURE_MW>
218.2054

> <STRUCTURE_ChemType>
defined organic

> <STRUCTURE_DefinedOrganicForm>
parent

> <STRUCTURE_IUPAC>
3,3'-benzene-1,4-diylbisprop-2-enoic acid

> <STRUCTURE_SMILES>
O=C(O)C=Cc1ccc(C=CC(=O)O)cc1

> <STRUCTURE_SMILES_Desalt>
O=C(O)C=Cc1ccc(C=CC(=O)O)cc1

> <Substance_modify_yyyymmdd>
20080429

$$$$
