163222-33-1
ChemmineR-0915142007XD

 30 33  0  0  1  0  0  0  0  0  1 V2000
    8.4076   -4.6185    0.0000 C   0  0  0  0  0  0  0  0  0  0  0  0
    9.3514   -6.2485    0.0000 C   0  0  0  0  0  0  0  0  0  0  0  0
    9.6945   -4.9617    0.0000 N   0  0  0  0  0  0  0  0  0  0  0  0
    8.0645   -5.8911    0.0000 C   0  0  0  0  0  0  0  0  0  0  0  0
   10.8384   -4.2896    0.0000 C   0  0  0  0  0  0  0  0  0  0  0  0
   10.8384   -2.9598    0.0000 C   0  0  0  0  0  0  0  0  0  0  0  0
   11.9966   -4.9617    0.0000 C   0  0  0  0  0  0  0  0  0  0  0  0
   11.9966   -2.3021    0.0000 C   0  0  0  0  0  0  0  0  0  0  0  0
   13.1405   -4.2896    0.0000 C   0  0  0  0  0  0  0  0  0  0  0  0
   13.1405   -2.9598    0.0000 C   0  0  0  0  0  0  0  0  0  0  0  0
    7.7356   -3.4603    0.0000 C   0  0  0  0  0  0  0  0  0  0  0  0
    6.4058   -3.4603    0.0000 C   0  0  0  0  0  0  0  0  0  0  0  0
    8.4076   -2.3164    0.0000 C   0  0  0  0  0  0  0  0  0  0  0  0
    5.7481   -2.3164    0.0000 C   0  0  0  0  0  0  0  0  0  0  0  0
    7.7356   -1.1582    0.0000 C   0  0  0  0  0  0  0  0  0  0  0  0
    6.4058   -1.1582    0.0000 C   0  0  0  0  0  0  0  0  0  0  0  0
   10.0091   -7.3924    0.0000 O   0  0  0  0  0  0  0  0  0  0  0  0
    6.9063   -6.5631    0.0000 C   0  0  0  0  0  0  0  0  0  0  0  0
    5.7624   -5.8911    0.0000 C   0  0  0  0  0  0  0  0  0  0  0  0
    4.6042   -6.5631    0.0000 C   0  0  0  0  0  0  0  0  0  0  0  0
    4.6042   -7.8929    0.0000 O   0  0  0  0  0  0  0  0  0  0  0  0
    3.4603   -5.8911    0.0000 C   0  0  0  0  0  0  0  0  0  0  0  0
    2.3021   -6.5631    0.0000 C   0  0  0  0  0  0  0  0  0  0  0  0
    3.4603   -4.5613    0.0000 C   0  0  0  0  0  0  0  0  0  0  0  0
    1.1582   -5.8911    0.0000 C   0  0  0  0  0  0  0  0  0  0  0  0
    2.3021   -3.9036    0.0000 C   0  0  0  0  0  0  0  0  0  0  0  0
    1.1582   -4.5613    0.0000 C   0  0  0  0  0  0  0  0  0  0  0  0
   14.2987   -2.3021    0.0000 F   0  0  0  0  0  0  0  0  0  0  0  0
    0.0000   -3.9036    0.0000 F   0  0  0  0  0  0  0  0  0  0  0  0
    5.7481    0.0000    0.0000 O   0  0  0  0  0  0  0  0  0  0  0  0
  1  3  1  0  0  0  0
  1  4  1  0  0  0  0
  1 11  1  1  0  0  0
  2  4  1  0  0  0  0
  2  3  1  0  0  0  0
  2 17  2  0  0  0  0
  3  5  1  0  0  0  0
  4 18  1  6  0  0  0
  5  6  1  0  0  0  0
  5  7  2  0  0  0  0
  6  8  2  0  0  0  0
  7  9  1  0  0  0  0
  8 10  1  0  0  0  0
  9 10  2  0  0  0  0
 10 28  1  0  0  0  0
 11 12  1  0  0  0  0
 11 13  2  0  0  0  0
 12 14  2  0  0  0  0
 13 15  1  0  0  0  0
 14 16  1  0  0  0  0
 15 16  2  0  0  0  0
 16 30  1  0  0  0  0
 18 19  1  0  0  0  0
 19 20  1  0  0  0  0
 20 21  1  6  0  0  0
 20 22  1  0  0  0  0
 22 23  1  0  0  0  0
 22 24  2  0  0  0  0
 23 25  2  0  0  0  0
 24 26  1  0  0  0  0
 25 27  1  0  0  0  0
 26 27  2  0  0  0  0
 27 29  1  0  0  0  0
M  END
> <ID>
9917

> <Formula>
C24H21F2NO3

> <FW>
409.4252

> <DSSTox_CID>
24223

> <DSSTox_RID>
80127

> <DSSTox_GSID>
44223

> <DSSTox_FileID_Sort>
4809

> <TS_ChemName>
Ezetimibe

> <TS_ChemName_Synonyms>
Ezetimibe (Zetia)

> <TS_CASRN>
163222-33-1

> <CASRN_ChemName_Relationship>
primary

> <TS_Description>
single chemical compound

> <ChemNote>
stereochem

> <STRUCTURE_Shown>
tested chemical

> <STRUCTURE_Formula>
C24H21F2NO3

> <STRUCTURE_MW>
409.4252

> <STRUCTURE_ChemType>
defined organic

> <STRUCTURE_DefinedOrganicForm>
parent

> <STRUCTURE_IUPAC>
(3R,4S)-1-(4-fluorophenyl)-3-[(3S)-3-(4-fluorophenyl)-3-hydroxypropyl]-4-(4-hydroxyphenyl)azetidin-2-one

> <STRUCTURE_SMILES>
Fc1ccc(cc1)[C@@H](O)CC[C@H]3C(=O)N(c2ccc(F)cc2)[C@@H]3c4ccc(O)cc4

> <STRUCTURE_SMILES_Desalt>
Fc1ccc(cc1)[C@@H](O)CC[C@H]3C(=O)N(c2ccc(F)cc2)[C@@H]3c4ccc(O)cc4

> <Substance_modify_yyyymmdd>
20090302

$$$$
