1633-05-2
ChemmineR-0915142007XD

  5  3  0  0  0  0  0  0  0  0  2 V2000
    1.1525   -1.3271    0.0000 C    0  0  0  0  0  0  0  0  0  0  0  0
    1.1525    0.0000    0.0000 O    0  0  0  0  0  0  0  0  0  0  0  0
    0.0000   -1.9807    0.0000 O    0  5  0  0  0  0  0  0  0  0  0  0
    2.3200   -1.9807    0.0000 O    0  5  0  0  0  0  0  0  0  0  0  0
    4.9892   -0.9879    0.0000 Sr   0  2  0  0  0  0  0  0  0  0  0  0
  1  2  2  0  0  0  0
  1  3  1  0  0  0  0
  1  4  1  0  0  0  0
M  END
> <ID>
6101

> <Formula>
CO3Sr

> <FW>
147.6289 (60.0100+87.6189)

> <DSSTox_CID>
9651

> <DSSTox_RID>
78795

> <DSSTox_GSID>
29651

> <DSSTox_FileID_Sort>
3477

> <TS_ChemName>
Carbonic acid, strontium salt (1:1)

> <TS_ChemName_Synonyms>


> <TS_CASRN>
1633-05-2

> <CASRN_ChemName_Relationship>
primary

> <TS_Description>
single chemical compound

> <ChemNote>


> <STRUCTURE_Shown>
tested chemical

> <STRUCTURE_Formula>
CO3Sr

> <STRUCTURE_MW>
147.6289

> <STRUCTURE_ChemType>
organometallic

> <STRUCTURE_DefinedOrganicForm>


> <STRUCTURE_IUPAC>
strontium carbonate

> <STRUCTURE_SMILES>
[Sr+2].[O-]C([O-])=O

> <STRUCTURE_SMILES_Desalt>
O=C(O)O

> <Substance_modify_yyyymmdd>
20080429

$$$$
