1634-02-2
ChemmineR-0915142007XD

 24 23  0  0  0  0  0  0  0  0  1 V2000
    9.2134   -1.3308    0.0000 C   0  0  0  0  0  0  0  0  0  0  0  0
    9.2134   -9.3065    0.0000 C   0  0  0  0  0  0  0  0  0  0  0  0
    0.0000   -7.9757    0.0000 C   0  0  0  0  0  0  0  0  0  0  0  0
    0.0000    0.0000    0.0000 C   0  0  0  0  0  0  0  0  0  0  0  0
    8.0594   -2.0009    0.0000 C   0  0  0  0  0  0  0  0  0  0  0  0
    9.2134   -7.9757    0.0000 C   0  0  0  0  0  0  0  0  0  0  0  0
    1.1540   -7.3242    0.0000 C   0  0  0  0  0  0  0  0  0  0  0  0
    0.0000   -1.3308    0.0000 C   0  0  0  0  0  0  0  0  0  0  0  0
    8.0594   -3.3317    0.0000 C   0  0  0  0  0  0  0  0  0  0  0  0
    8.0594   -7.3242    0.0000 C   0  0  0  0  0  0  0  0  0  0  0  0
    1.1540   -5.9934    0.0000 C   0  0  0  0  0  0  0  0  0  0  0  0
    1.1540   -2.0009    0.0000 C   0  0  0  0  0  0  0  0  0  0  0  0
    6.9054   -3.9925    0.0000 C   0  0  0  0  0  0  0  0  0  0  0  0
    8.0594   -5.9934    0.0000 C   0  0  0  0  0  0  0  0  0  0  0  0
    2.3080   -5.3140    0.0000 C   0  0  0  0  0  0  0  0  0  0  0  0
    1.1540   -3.3317    0.0000 C   0  0  0  0  0  0  0  0  0  0  0  0
    5.7514   -5.9934    0.0000 C   0  0  0  0  0  0  0  0  0  0  0  0
    3.4434   -3.3317    0.0000 C   0  0  0  0  0  0  0  0  0  0  0  0
    6.9054   -5.3140    0.0000 N   0  0  0  0  0  0  0  0  0  0  0  0
    2.3080   -3.9925    0.0000 N   0  0  0  0  0  0  0  0  0  0  0  0
    5.7514   -7.3242    0.0000 S   0  0  0  0  0  0  0  0  0  0  0  0
    3.4434   -2.0009    0.0000 S   0  0  0  0  0  0  0  0  0  0  0  0
    4.5974   -5.3140    0.0000 S   0  0  0  0  0  0  0  0  0  0  0  0
    4.5974   -3.9925    0.0000 S   0  0  0  0  0  0  0  0  0  0  0  0
  1  5  1  0  0  0  0
  2  6  1  0  0  0  0
  3  7  1  0  0  0  0
  4  8  1  0  0  0  0
  5  9  1  0  0  0  0
  6 10  1  0  0  0  0
  7 11  1  0  0  0  0
  8 12  1  0  0  0  0
  9 13  1  0  0  0  0
 10 14  1  0  0  0  0
 11 15  1  0  0  0  0
 12 16  1  0  0  0  0
 13 19  1  0  0  0  0
 14 19  1  0  0  0  0
 15 20  1  0  0  0  0
 16 20  1  0  0  0  0
 17 19  1  0  0  0  0
 17 21  2  0  0  0  0
 17 23  1  0  0  0  0
 18 20  1  0  0  0  0
 18 22  2  0  0  0  0
 18 24  1  0  0  0  0
 23 24  1  0  0  0  0
M  END
> <ID>
14089

> <Formula>
C18H36N2S4

> <FW>
408.7518

> <DSSTox_CID>
29082

> <DSSTox_RID>
83301

> <DSSTox_GSID>
49226

> <DSSTox_FileID_Sort>
7976

> <TS_ChemName>
Tetrabutylthiuram disulfide

> <TS_ChemName_Synonyms>


> <TS_CASRN>
1634-02-2

> <CASRN_ChemName_Relationship>
primary

> <TS_Description>
single chemical compound

> <ChemNote>


> <STRUCTURE_Shown>
tested chemical

> <STRUCTURE_Formula>
C18H36N2S4

> <STRUCTURE_MW>
408.7518

> <STRUCTURE_ChemType>
defined organic

> <STRUCTURE_DefinedOrganicForm>
parent

> <STRUCTURE_IUPAC>
1,1',1'',1'''-[disulfanediylbis(carbonothioylnitrilo)]tetrabutane

> <STRUCTURE_SMILES>
S=C(SSC(=S)N(CCCC)CCCC)N(CCCC)CCCC

> <STRUCTURE_SMILES_Desalt>
S=C(SSC(=S)N(CCCC)CCCC)N(CCCC)CCCC

> <Substance_modify_yyyymmdd>
20111204

$$$$
