163520-33-0
ChemmineR-0915142007XD

 22 24  0  0  0  0  0  0  0  0  1 V2000
    4.6419   -6.1068    0.0000 N   0  0  0  0  0  0  0  0  0  0  0  0
    3.5741   -5.3302    0.0000 O   0  0  0  0  0  0  0  0  0  0  0  0
    5.2949   -4.0594    0.0000 C   0  0  0  0  0  0  0  0  0  0  0  0
    3.9800   -4.0594    0.0000 C   0  0  0  0  0  0  0  0  0  0  0  0
    5.7009   -5.3302    0.0000 C   0  0  0  0  0  0  0  0  0  0  0  0
    6.9717   -5.7362    0.0000 C   0  0  0  0  0  0  0  0  0  0  0  0
    7.9512   -4.8449    0.0000 O   0  0  0  0  0  0  0  0  0  0  0  0
    7.2629   -7.0423    0.0000 O   0  0  0  0  0  0  0  0  0  0  0  0
    3.9800   -2.6386    0.0000 C   0  0  0  0  0  0  0  0  0  0  0  0
    2.8328   -1.9856    0.0000 C   0  0  0  0  0  0  0  0  0  0  0  0
    5.1184   -1.9856    0.0000 C   0  0  0  0  0  0  0  0  0  0  0  0
    2.8328   -0.6619    0.0000 C   0  0  0  0  0  0  0  0  0  0  0  0
    5.1184   -0.6619    0.0000 C   0  0  0  0  0  0  0  0  0  0  0  0
    3.9800    0.0000    0.0000 C   0  0  0  0  0  0  0  0  0  0  0  0
    2.6916   -4.0594    0.0000 C   0  0  0  0  0  0  0  0  0  0  0  0
    1.9944   -5.2067    0.0000 C   0  0  0  0  0  0  0  0  0  0  0  0
    2.0297   -2.9034    0.0000 C   0  0  0  0  0  0  0  0  0  0  0  0
    0.6619   -5.2067    0.0000 C   0  0  0  0  0  0  0  0  0  0  0  0
    0.6883   -2.9034    0.0000 C   0  0  0  0  0  0  0  0  0  0  0  0
    0.0000   -4.0418    0.0000 C   0  0  0  0  0  0  0  0  0  0  0  0
    8.5337   -7.4570    0.0000 C   0  0  0  0  0  0  0  0  0  0  0  0
    8.8249   -8.7455    0.0000 C   0  0  0  0  0  0  0  0  0  0  0  0
  1  2  1  0  0  0  0
  1  5  2  0  0  0  0
  2  4  1  0  0  0  0
  3  4  1  0  0  0  0
  3  5  1  0  0  0  0
  4  9  1  0  0  0  0
  4 15  1  0  0  0  0
  5  6  1  0  0  0  0
  6  7  2  0  0  0  0
  6  8  1  0  0  0  0
  8 21  1  0  0  0  0
  9 10  2  0  0  0  0
  9 11  1  0  0  0  0
 10 12  1  0  0  0  0
 11 13  2  0  0  0  0
 12 14  2  0  0  0  0
 13 14  1  0  0  0  0
 15 16  2  0  0  0  0
 15 17  1  0  0  0  0
 16 18  1  0  0  0  0
 17 19  2  0  0  0  0
 18 20  2  0  0  0  0
 19 20  1  0  0  0  0
 21 22  1  0  0  0  0
M  END
> <ID>
7716

> <Formula>
C18H17NO3

> <FW>
295.3325

> <DSSTox_CID>
20360

> <DSSTox_RID>
79483

> <DSSTox_GSID>
40360

> <DSSTox_FileID_Sort>
4165

> <TS_ChemName>
Isoxadifen-ethyl

> <TS_ChemName_Synonyms>


> <TS_CASRN>
163520-33-0

> <CASRN_ChemName_Relationship>
primary

> <TS_Description>
single chemical compound

> <ChemNote>


> <STRUCTURE_Shown>
tested chemical

> <STRUCTURE_Formula>
C18H17NO3

> <STRUCTURE_MW>
295.3325

> <STRUCTURE_ChemType>
defined organic

> <STRUCTURE_DefinedOrganicForm>
parent

> <STRUCTURE_IUPAC>
ethyl 5,5-diphenyl-4,5-dihydro-1,2-oxazole-3-carboxylate

> <STRUCTURE_SMILES>
CCOC(=O)C=1CC(ON=1)(c2ccccc2)c3ccccc3

> <STRUCTURE_SMILES_Desalt>
CCOC(=O)C=1CC(ON=1)(c2ccccc2)c3ccccc3

> <Substance_modify_yyyymmdd>
20080429

$$$$
