1638-22-8
ChemmineR-0915142007XD

 11 11  0  0  0  0  0  0  0  0  1 V2000
    1.1527   -0.6610    0.0000 C   0  0  0  0  0  0  0  0  0  0  0  0
    0.0000    0.0000    0.0000 O   0  0  0  0  0  0  0  0  0  0  0  0
    2.2974    0.0000    0.0000 C   0  0  0  0  0  0  0  0  0  0  0  0
    1.1527   -1.9911    0.0000 C   0  0  0  0  0  0  0  0  0  0  0  0
    2.3136   -2.6682    0.0000 C   0  0  0  0  0  0  0  0  0  0  0  0
    3.4502   -0.6771    0.0000 C   0  0  0  0  0  0  0  0  0  0  0  0
    3.4502   -1.9911    0.0000 C   0  0  0  0  0  0  0  0  0  0  0  0
    4.6110   -2.6521    0.0000 C   0  0  0  0  0  0  0  0  0  0  0  0
    5.7476   -1.9911    0.0000 C   0  0  0  0  0  0  0  0  0  0  0  0
    6.9084   -2.6682    0.0000 C   0  0  0  0  0  0  0  0  0  0  0  0
    8.0612   -1.9911    0.0000 C   0  0  0  0  0  0  0  0  0  0  0  0
  1  2  1  0  0  0  0
  1  3  2  0  0  0  0
  1  4  1  0  0  0  0
  3  6  1  0  0  0  0
  4  5  2  0  0  0  0
  5  7  1  0  0  0  0
  6  7  2  0  0  0  0
  7  8  1  0  0  0  0
  8  9  1  0  0  0  0
  9 10  1  0  0  0  0
 10 11  1  0  0  0  0
M  END
> <ID>
12567

> <Formula>
C10H14O

> <FW>
150.2176

> <DSSTox_CID>
27425

> <DSSTox_RID>
82338

> <DSSTox_GSID>
47425

> <DSSTox_FileID_Sort>
7019

> <TS_ChemName>
4-Butylphenol

> <TS_ChemName_Synonyms>


> <TS_CASRN>
1638-22-8

> <CASRN_ChemName_Relationship>
primary

> <TS_Description>
single chemical compound

> <ChemNote>


> <STRUCTURE_Shown>
tested chemical

> <STRUCTURE_Formula>
C10H14O

> <STRUCTURE_MW>
150.2176

> <STRUCTURE_ChemType>
defined organic

> <STRUCTURE_DefinedOrganicForm>
parent

> <STRUCTURE_IUPAC>
4-butylphenol

> <STRUCTURE_SMILES>
Oc1ccc(CCCC)cc1

> <STRUCTURE_SMILES_Desalt>
Oc1ccc(CCCC)cc1

> <Substance_modify_yyyymmdd>
20100619

$$$$
