1639-60-7
ChemmineR-0915142007XD

 26 26  0  0  1  0  0  0  0  0  1 V2000
    4.0038   -3.3063    0.0000 C    0  0  0  0  0  0  0  0  0  0  0  0
    2.6692   -3.3063    0.0000 C    0  0  0  0  0  0  0  0  0  0  0  0
    4.0038   -1.9718    0.0000 O    0  0  0  0  0  0  0  0  0  0  0  0
    5.1576   -1.3346    0.0000 C    0  0  0  0  0  0  0  0  0  0  0  0
    5.1576   -2.6778    0.0000 C    0  0  0  0  0  0  0  0  0  0  0  0
    1.9890   -4.4773    0.0000 C    0  0  0  0  0  0  0  0  0  0  0  0
    4.6409   -4.4773    0.0000 C    0  0  0  0  0  0  0  0  0  0  0  0
    5.1576    0.0000    0.0000 O    0  0  0  0  0  0  0  0  0  0  0  0
    0.6544   -4.4773    0.0000 N    0  0  0  0  0  0  0  0  0  0  0  0
    6.2941   -3.3580    0.0000 C    0  0  0  0  0  0  0  0  0  0  0  0
    1.9890   -2.1698    0.0000 C    0  0  0  0  0  0  0  0  0  0  0  0
    6.2941   -1.9718    0.0000 C    0  0  0  0  0  0  0  0  0  0  0  0
    5.9755   -4.4773    0.0000 C    0  0  0  0  0  0  0  0  0  0  0  0
    3.9866   -5.6397    0.0000 C    0  0  0  0  0  0  0  0  0  0  0  0
    0.0000   -5.6397    0.0000 C    0  0  0  0  0  0  0  0  0  0  0  0
    0.0000   -3.3063    0.0000 C    0  0  0  0  0  0  0  0  0  0  0  0
    7.4737   -2.6950    0.0000 C    0  0  0  0  0  0  0  0  0  0  0  0
    6.2941   -4.6840    0.0000 C    0  0  0  0  0  0  0  0  0  0  0  0
    7.4737   -1.3346    0.0000 C    0  0  0  0  0  0  0  0  0  0  0  0
    6.6385   -5.6397    0.0000 C    0  0  0  0  0  0  0  0  0  0  0  0
    4.6409   -6.7763    0.0000 C    0  0  0  0  0  0  0  0  0  0  0  0
    8.6103   -3.3666    0.0000 C    0  0  0  0  0  0  0  0  0  0  0  0
    7.4221   -5.3470    0.0000 C    0  0  0  0  0  0  0  0  0  0  0  0
    8.6103   -4.6840    0.0000 C    0  0  0  0  0  0  0  0  0  0  0  0
    5.9755   -6.7763    0.0000 C    0  0  0  0  0  0  0  0  0  0  0  0
    2.5400   -5.6483    0.0000 Cl   0  0  0  0  0  0  0  0  0  0  0  0
  1  2  1  0  0  0  0
  1  3  1  6  0  0  0
  1  5  1  1  0  0  0
  1  7  1  0  0  0  0
  2  6  1  0  0  0  0
  2 11  1  1  0  0  0
  3  4  1  0  0  0  0
  4  8  2  0  0  0  0
  4 12  1  0  0  0  0
  5 10  1  0  0  0  0
  6  9  1  0  0  0  0
  7 13  2  0  0  0  0
  7 14  1  0  0  0  0
  9 15  1  0  0  0  0
  9 16  1  0  0  0  0
 10 17  1  0  0  0  0
 10 18  2  0  0  0  0
 12 19  1  0  0  0  0
 13 20  1  0  0  0  0
 14 21  2  0  0  0  0
 17 22  2  0  0  0  0
 18 23  1  0  0  0  0
 20 25  2  0  0  0  0
 21 25  1  0  0  0  0
 22 24  1  0  0  0  0
 23 24  2  0  0  0  0
M  END
> <ID>
13902

> <Formula>
C22H30ClNO2

> <FW>
375.9321 (339.4712+36.4609)

> <DSSTox_CID>
28839

> <DSSTox_RID>
83108

> <DSSTox_GSID>
48913

> <DSSTox_FileID_Sort>
7785

> <TS_ChemName>
(2S,3R)-(+)-4-(Dimethylamino)-3-methyl-1,2-diphenyl-2-butanol propionate hydrochloride

> <TS_ChemName_Synonyms>
(+)-?-Propoxyphene hydrochloride

> <TS_CASRN>
1639-60-7

> <CASRN_ChemName_Relationship>
primary

> <TS_Description>
single chemical compound

> <ChemNote>


> <STRUCTURE_Shown>
tested chemical

> <STRUCTURE_Formula>
C22H30ClNO2

> <STRUCTURE_MW>
375.9321

> <STRUCTURE_ChemType>
defined organic

> <STRUCTURE_DefinedOrganicForm>
complex

> <STRUCTURE_IUPAC>
(2S,3R)-4-(dimethylamino)-3-methyl-1,2-diphenylbutan-2-yl propanoate hydrochloride (1:1)

> <STRUCTURE_SMILES>
Cl.CN(C)C[C@@H](C)[C@@](OC(=O)CC)(Cc1ccccc1)c2ccccc2

> <STRUCTURE_SMILES_Desalt>
CN(C)C[C@@H](C)[C@@](OC(=O)CC)(Cc1ccccc1)c2ccccc2

> <Substance_modify_yyyymmdd>
20111204

$$$$
