1640-39-7
ChemmineR-0915142007XD

 12 13  0  0  0  0  0  0  0  0  1 V2000
    5.6823   -2.3809    0.0000 C   0  0  0  0  0  0  0  0  0  0  0  0
    4.5572   -0.4148    0.0000 C   0  0  0  0  0  0  0  0  0  0  0  0
    3.2957    0.0000    0.0000 C   0  0  0  0  0  0  0  0  0  0  0  0
    0.0000   -1.7160    0.0000 C   0  0  0  0  0  0  0  0  0  0  0  0
    0.0000   -3.0457    0.0000 C   0  0  0  0  0  0  0  0  0  0  0  0
    1.1535   -1.0512    0.0000 C   0  0  0  0  0  0  0  0  0  0  0  0
    1.1535   -3.7105    0.0000 C   0  0  0  0  0  0  0  0  0  0  0  0
    4.3526   -2.3809    0.0000 C   0  0  0  0  0  0  0  0  0  0  0  0
    2.3070   -1.7160    0.0000 C   0  0  0  0  0  0  0  0  0  0  0  0
    2.3070   -3.0457    0.0000 C   0  0  0  0  0  0  0  0  0  0  0  0
    3.5685   -1.3012    0.0000 C   0  0  0  0  0  0  0  0  0  0  0  0
    3.5685   -3.4548    0.0000 N   0  0  0  0  0  0  0  0  0  0  0  0
  1  8  1  0  0  0  0
  2 11  1  0  0  0  0
  3 11  1  0  0  0  0
  4  5  2  0  0  0  0
  4  6  1  0  0  0  0
  5  7  1  0  0  0  0
  6  9  2  0  0  0  0
  7 10  2  0  0  0  0
  8 11  1  0  0  0  0
  8 12  2  0  0  0  0
  9 10  1  0  0  0  0
  9 11  1  0  0  0  0
 10 12  1  0  0  0  0
M  END
> <ID>
14267

> <Formula>
C11H13N

> <FW>
159.2276

> <DSSTox_CID>
29363

> <DSSTox_RID>
83478

> <DSSTox_GSID>
49403

> <DSSTox_FileID_Sort>
8153

> <TS_ChemName>
2,3,3-Trimethylindolenine

> <TS_ChemName_Synonyms>


> <TS_CASRN>
1640-39-7

> <CASRN_ChemName_Relationship>
primary

> <TS_Description>
single chemical compound

> <ChemNote>


> <STRUCTURE_Shown>
tested chemical

> <STRUCTURE_Formula>
C11H13N

> <STRUCTURE_MW>
159.2276

> <STRUCTURE_ChemType>
defined organic

> <STRUCTURE_DefinedOrganicForm>
parent

> <STRUCTURE_IUPAC>
2,3,3-trimethyl-3H-indole

> <STRUCTURE_SMILES>
CC1(C)c2ccccc2N=C1C

> <STRUCTURE_SMILES_Desalt>
CC1(C)c2ccccc2N=C1C

> <Substance_modify_yyyymmdd>
20111204

$$$$
