1641-17-4
ChemmineR-0915142007XD

 18 19  0  0  0  0  0  0  0  0  1 V2000
    5.7419   -1.9796    0.0000 C   0  0  0  0  0  0  0  0  0  0  0  0
    4.6226   -1.3370    0.0000 C   0  0  0  0  0  0  0  0  0  0  0  0
    6.9027   -1.3370    0.0000 C   0  0  0  0  0  0  0  0  0  0  0  0
    5.7419   -3.3166    0.0000 C   0  0  0  0  0  0  0  0  0  0  0  0
    8.0428   -1.9796    0.0000 C   0  0  0  0  0  0  0  0  0  0  0  0
    3.4721   -1.9796    0.0000 C   0  0  0  0  0  0  0  0  0  0  0  0
    4.6226    0.0000    0.0000 O   0  0  0  0  0  0  0  0  0  0  0  0
    2.3216   -1.3370    0.0000 C   0  0  0  0  0  0  0  0  0  0  0  0
    3.4721   -3.3166    0.0000 C   0  0  0  0  0  0  0  0  0  0  0  0
    8.0428   -3.3166    0.0000 C   0  0  0  0  0  0  0  0  0  0  0  0
    6.9027    0.0000    0.0000 O   0  0  0  0  0  0  0  0  0  0  0  0
    6.9027   -3.9800    0.0000 C   0  0  0  0  0  0  0  0  0  0  0  0
    1.1712   -1.9796    0.0000 C   0  0  0  0  0  0  0  0  0  0  0  0
    2.3216   -3.9800    0.0000 C   0  0  0  0  0  0  0  0  0  0  0  0
    1.1712   -3.3166    0.0000 C   0  0  0  0  0  0  0  0  0  0  0  0
    9.2037   -4.0111    0.0000 O   0  0  0  0  0  0  0  0  0  0  0  0
    0.0000   -4.0111    0.0000 C   0  0  0  0  0  0  0  0  0  0  0  0
   10.3645   -3.3374    0.0000 C   0  0  0  0  0  0  0  0  0  0  0  0
  1  2  1  0  0  0  0
  1  3  1  0  0  0  0
  1  4  2  0  0  0  0
  2  6  1  0  0  0  0
  2  7  2  0  0  0  0
  3  5  2  0  0  0  0
  3 11  1  0  0  0  0
  4 12  1  0  0  0  0
  5 10  1  0  0  0  0
  6  8  1  0  0  0  0
  6  9  2  0  0  0  0
  8 13  2  0  0  0  0
  9 14  1  0  0  0  0
 10 12  2  0  0  0  0
 10 16  1  0  0  0  0
 13 15  1  0  0  0  0
 14 15  2  0  0  0  0
 15 17  1  0  0  0  0
 16 18  1  0  0  0  0
M  END
> <ID>
11536

> <Formula>
C15H14O3

> <FW>
242.2699

> <DSSTox_CID>
26242

> <DSSTox_RID>
81469

> <DSSTox_GSID>
46242

> <DSSTox_FileID_Sort>
6150

> <TS_ChemName>
Mexenone

> <TS_ChemName_Synonyms>


> <TS_CASRN>
1641-17-4

> <CASRN_ChemName_Relationship>
primary

> <TS_Description>
single chemical compound

> <ChemNote>


> <STRUCTURE_Shown>
tested chemical

> <STRUCTURE_Formula>
C15H14O3

> <STRUCTURE_MW>
242.2699

> <STRUCTURE_ChemType>
defined organic

> <STRUCTURE_DefinedOrganicForm>
parent

> <STRUCTURE_IUPAC>
(2-hydroxy-4-methoxyphenyl)(4-methylphenyl)methanone

> <STRUCTURE_SMILES>
O=C(c1ccc(cc1O)OC)c2ccc(C)cc2

> <STRUCTURE_SMILES_Desalt>
O=C(c1ccc(cc1O)OC)c2ccc(C)cc2

> <Substance_modify_yyyymmdd>
20100107

$$$$
