1641-74-3
ChemmineR-0915142007XD

 29 28  0  0  0  0  0  0  0  0  1 V2000
    8.7775   -6.5014    0.0000 C   0  0  0  0  0  0  0  0  0  0  0  0
   10.1092   -6.5014    0.0000 C   0  0  0  0  0  0  0  0  0  0  0  0
    7.4457   -6.5014    0.0000 C   0  0  0  0  0  0  0  0  0  0  0  0
    8.7775   -7.8210    0.0000 C   0  0  0  0  0  0  0  0  0  0  0  0
   10.7630   -5.3633    0.0000 C   0  0  0  0  0  0  0  0  0  0  0  0
    6.7920   -5.3633    0.0000 C   0  0  0  0  0  0  0  0  0  0  0  0
    9.9276   -8.4869    0.0000 O   0  0  0  0  0  0  0  0  0  0  0  0
   10.1092   -4.1890    0.0000 O   0  0  0  0  0  0  0  0  0  0  0  0
    7.4457   -4.1890    0.0000 O   0  0  0  0  0  0  0  0  0  0  0  0
    8.7775   -5.1575    0.0000 O   0  0  0  0  0  0  0  0  0  0  0  0
    7.6273   -8.4990    0.0000 O   0  0  0  0  0  0  0  0  0  0  0  0
    5.4481   -5.3633    0.0000 O   0  0  0  0  0  0  0  0  0  0  0  0
   12.1069   -5.3633    0.0000 O   0  0  0  0  0  0  0  0  0  0  0  0
    9.2254    0.0000    0.0000 C   0  0  0  0  0  0  0  0  0  0  0  0
    8.0753   -0.6659    0.0000 C   0  0  0  0  0  0  0  0  0  0  0  0
    8.0753   -1.9976    0.0000 N   0  0  0  0  0  0  0  0  0  0  0  0
    9.2254   -2.6514    0.0000 C   0  0  0  0  0  0  0  0  0  0  0  0
   10.3756   -1.9976    0.0000 C   0  0  0  0  0  0  0  0  0  0  0  0
    6.9130   -2.6514    0.0000 C   0  0  0  0  0  0  0  0  0  0  0  0
    5.7508   -1.9976    0.0000 C   0  0  0  0  0  0  0  0  0  0  0  0
    4.6127   -2.6514    0.0000 O   0  0  0  0  0  0  0  0  0  0  0  0
    3.4626   -1.9976    0.0000 C   0  0  0  0  0  0  0  0  0  0  0  0
    3.4626   -0.6659    0.0000 O   0  0  0  0  0  0  0  0  0  0  0  0
    2.3003   -2.6756    0.0000 C   0  0  0  0  0  0  0  0  0  0  0  0
    2.3003   -3.9832    0.0000 C   0  0  0  0  0  0  0  0  0  0  0  0
    1.1502   -4.6612    0.0000 C   0  0  0  0  0  0  0  0  0  0  0  0
    0.0000   -3.9953    0.0000 C   0  0  0  0  0  0  0  0  0  0  0  0
    0.0000   -2.6756    0.0000 N   0  0  0  0  0  0  0  0  0  0  0  0
    1.1502   -1.9976    0.0000 C   0  0  0  0  0  0  0  0  0  0  0  0
  1  2  1  0  0  0  0
  1  3  1  0  0  0  0
  1  4  1  0  0  0  0
  1 10  1  0  0  0  0
  2  5  1  0  0  0  0
  3  6  1  0  0  0  0
  4  7  2  0  0  0  0
  4 11  1  0  0  0  0
  5  8  2  0  0  0  0
  5 13  1  0  0  0  0
  6  9  2  0  0  0  0
  6 12  1  0  0  0  0
 14 15  1  0  0  0  0
 15 16  1  0  0  0  0
 16 17  1  0  0  0  0
 16 19  1  0  0  0  0
 17 18  1  0  0  0  0
 19 20  1  0  0  0  0
 20 21  1  0  0  0  0
 21 22  1  0  0  0  0
 22 23  2  0  0  0  0
 22 24  1  0  0  0  0
 24 25  2  0  0  0  0
 24 29  1  0  0  0  0
 25 26  1  0  0  0  0
 26 27  2  0  0  0  0
 27 28  1  0  0  0  0
 28 29  2  0  0  0  0
M  END
> <ID>
11926

> <Formula>
C18H26N2O9

> <FW>
414.4070 (192.1235+222.2835)

> <DSSTox_CID>
26733

> <DSSTox_RID>
81862

> <DSSTox_GSID>
46733

> <DSSTox_FileID_Sort>
6543

> <TS_ChemName>
Nicametate citrate

> <TS_ChemName_Synonyms>


> <TS_CASRN>
1641-74-3

> <CASRN_ChemName_Relationship>
primary

> <TS_Description>
single chemical compound

> <ChemNote>
parent [3099-52-3]

> <STRUCTURE_Shown>
tested chemical

> <STRUCTURE_Formula>
C18H26N2O9

> <STRUCTURE_MW>
414.407

> <STRUCTURE_ChemType>
defined organic

> <STRUCTURE_DefinedOrganicForm>
complex

> <STRUCTURE_IUPAC>
2-(diethylamino)ethyl pyridine-3-carboxylate 2-hydroxypropane-1,2,3-tricarboxylate (1:1)

> <STRUCTURE_SMILES>
O=C(O)C(O)(CC(=O)O)CC(=O)O.CCN(CC)CCOC(=O)c1cccnc1

> <STRUCTURE_SMILES_Desalt>
CCN(CC)CCOC(=O)c1cccnc1

> <Substance_modify_yyyymmdd>
20110804

$$$$
