16423-68-0
ChemmineR-0915142007XD

 31 32  0  0  0  0  0  0  0  0  2 V2000
    1.4515   -7.0670    0.0000 Na   0  3  0  0  0  0  0  0  0  0  0  0
    0.0000   -2.1932    0.0000 Na   0  3  0  0  0  0  0  0  0  0  0  0
    2.6064   -1.9707    0.0000 C    0  0  0  0  0  0  0  0  0  0  0  0
    1.4727   -1.3032    0.0000 O    0  5  0  0  0  0  0  0  0  0  0  0
    3.7507   -1.3032    0.0000 C    0  0  0  0  0  0  0  0  0  0  0  0
    4.8950   -1.9707    0.0000 C    0  0  0  0  0  0  0  0  0  0  0  0
    4.8950   -3.2845    0.0000 C    0  0  0  0  0  0  0  0  0  0  0  0
    3.7507   -3.9520    0.0000 C    0  0  0  0  0  0  0  0  0  0  0  0
    2.6064   -3.2845    0.0000 C    0  0  0  0  0  0  0  0  0  0  0  0
    1.4727   -3.9520    0.0000 I    0  0  0  0  0  0  0  0  0  0  0  0
    6.0286   -3.9520    0.0000 C    0  0  0  0  0  0  0  0  0  0  0  0
    6.3359   -5.6366    0.0000 C    0  0  0  0  0  0  0  0  0  0  0  0
    5.4883   -6.6326    0.0000 C    0  0  0  0  0  0  0  0  0  0  0  0
    5.9333   -7.8828    0.0000 C    0  0  0  0  0  0  0  0  0  0  0  0
    7.2259   -8.1053    0.0000 C    0  0  0  0  0  0  0  0  0  0  0  0
    8.0735   -7.0987    0.0000 C    0  0  0  0  0  0  0  0  0  0  0  0
    7.6285   -5.8591    0.0000 C    0  0  0  0  0  0  0  0  0  0  0  0
    4.1639   -6.6326    0.0000 C    0  0  0  0  0  0  0  0  0  0  0  0
    3.5070   -7.7768    0.0000 O    0  0  0  0  0  0  0  0  0  0  0  0
    3.5070   -5.4989    0.0000 O    0  5  0  0  0  0  0  0  0  0  0  0
    7.1729   -3.2845    0.0000 C    0  0  0  0  0  0  0  0  0  0  0  0
    8.3172   -3.9520    0.0000 C    0  0  0  0  0  0  0  0  0  0  0  0
    9.4509   -3.2845    0.0000 C    0  0  0  0  0  0  0  0  0  0  0  0
   10.5951   -3.9520    0.0000 I    0  0  0  0  0  0  0  0  0  0  0  0
    9.4509   -1.9707    0.0000 C    0  0  0  0  0  0  0  0  0  0  0  0
   10.5951   -1.3032    0.0000 O    0  0  0  0  0  0  0  0  0  0  0  0
    8.3172   -1.3032    0.0000 C    0  0  0  0  0  0  0  0  0  0  0  0
    7.1729   -1.9707    0.0000 C    0  0  0  0  0  0  0  0  0  0  0  0
    6.0286   -1.3032    0.0000 O    0  0  0  0  0  0  0  0  0  0  0  0
    8.3172    0.0000    0.0000 I    0  0  0  0  0  0  0  0  0  0  0  0
    3.7507    0.0000    0.0000 I    0  0  0  0  0  0  0  0  0  0  0  0
  3  4  1  0  0  0  0
  3  5  1  0  0  0  0
  3  9  2  0  0  0  0
  5  6  2  0  0  0  0
  5 31  1  0  0  0  0
  6  7  1  0  0  0  0
  6 29  1  0  0  0  0
  7  8  2  0  0  0  0
  7 11  1  0  0  0  0
  8  9  1  0  0  0  0
  9 10  1  0  0  0  0
 11 12  1  0  0  0  0
 11 21  2  0  0  0  0
 12 13  2  0  0  0  0
 12 17  1  0  0  0  0
 13 14  1  0  0  0  0
 13 18  1  0  0  0  0
 14 15  2  0  0  0  0
 15 16  1  0  0  0  0
 16 17  2  0  0  0  0
 18 19  2  0  0  0  0
 18 20  1  0  0  0  0
 21 22  1  0  0  0  0
 21 28  1  0  0  0  0
 22 23  2  0  0  0  0
 23 24  1  0  0  0  0
 23 25  1  0  0  0  0
 25 26  2  0  0  0  0
 25 27  1  0  0  0  0
 27 28  2  0  0  0  0
 27 30  1  0  0  0  0
 28 29  1  0  0  0  0
M  END
> <ID>
1186

> <Formula>
C20H6I4Na2O5

> <FW>
879.8561 (22.9892+22.9892+833.8776)

> <DSSTox_CID>
1233

> <DSSTox_RID>
76025

> <DSSTox_GSID>
21233

> <DSSTox_FileID_Sort>
709

> <TS_ChemName>
FD&C Red 3

> <TS_ChemName_Synonyms>
Erythrosine B; Spiro(isobenzofuran-1(3H),9'-(9H)xanthen)-3-one,3',6'-dihydroxy-2',4',5',7'-tetraiodo-, disodium salt

> <TS_CASRN>
16423-68-0

> <CASRN_ChemName_Relationship>
primary

> <TS_Description>
single chemical compound

> <ChemNote>
parent [15905-32-5]

> <STRUCTURE_Shown>
tested chemical

> <STRUCTURE_Formula>
C20H6I4Na2O5

> <STRUCTURE_MW>
879.8561

> <STRUCTURE_ChemType>
defined organic

> <STRUCTURE_DefinedOrganicForm>
salt

> <STRUCTURE_IUPAC>
disodium 2-(2,4,5,7-tetraiodo-6-oxido-3-oxo-3H-xanthen-9-yl)benzoate

> <STRUCTURE_SMILES>
[Na+].[Na+].[O-]C(=O)c4ccccc4C=2c3cc(I)c([O-])c(I)c3OC=1C=2C=C(I)C(=O)C=1I

> <STRUCTURE_SMILES_Desalt>
O=C(O)c4ccccc4C=2c3cc(I)c(O)c(I)c3OC=1C=2C=C(I)C(=O)C=1I

> <Substance_modify_yyyymmdd>
20080429

$$$$
