1642-54-2
ChemmineR-0915142007XD

 27 26  0  0  0  0  0  0  0  0  1 V2000
    7.9663   -2.8237    0.0000 C   0  0  0  0  0  0  0  0  0  0  0  0
    7.3038   -1.6721    0.0000 C   0  0  0  0  0  0  0  0  0  0  0  0
    5.9787   -1.6721    0.0000 N   0  0  0  0  0  0  0  0  0  0  0  0
    5.3004   -0.5363    0.0000 C   0  0  0  0  0  0  0  0  0  0  0  0
    3.9911   -0.5363    0.0000 C   0  0  0  0  0  0  0  0  0  0  0  0
    5.3004   -2.8237    0.0000 C   0  0  0  0  0  0  0  0  0  0  0  0
    5.9787   -3.9911    0.0000 O   0  0  0  0  0  0  0  0  0  0  0  0
    3.9911   -2.8237    0.0000 N   0  0  0  0  0  0  0  0  0  0  0  0
    3.3127   -3.9911    0.0000 C   0  0  0  0  0  0  0  0  0  0  0  0
    1.9876   -3.9911    0.0000 C   0  0  0  0  0  0  0  0  0  0  0  0
    1.3251   -2.8237    0.0000 N   0  0  0  0  0  0  0  0  0  0  0  0
    0.0000   -2.8237    0.0000 C   0  0  0  0  0  0  0  0  0  0  0  0
    1.9876   -1.6721    0.0000 C   0  0  0  0  0  0  0  0  0  0  0  0
    3.3127   -1.6721    0.0000 C   0  0  0  0  0  0  0  0  0  0  0  0
   10.1433   -3.3127    0.0000 O   0  0  0  0  0  0  0  0  0  0  0  0
   11.2948   -3.9911    0.0000 C   0  0  0  0  0  0  0  0  0  0  0  0
   11.2948   -5.3004    0.0000 O   0  0  0  0  0  0  0  0  0  0  0  0
   12.4622   -3.3127    0.0000 C   0  0  0  0  0  0  0  0  0  0  0  0
   12.4622   -1.9876    0.0000 C   0  0  0  0  0  0  0  0  0  0  0  0
   11.1213   -1.9876    0.0000 O   0  0  0  0  0  0  0  0  0  0  0  0
   13.7873   -1.9876    0.0000 C   0  0  0  0  0  0  0  0  0  0  0  0
   14.4656   -3.1392    0.0000 C   0  0  0  0  0  0  0  0  0  0  0  0
   13.7873   -4.2908    0.0000 O   0  0  0  0  0  0  0  0  0  0  0  0
   15.7749   -3.1392    0.0000 O   0  0  0  0  0  0  0  0  0  0  0  0
   12.4622   -0.6468    0.0000 C   0  0  0  0  0  0  0  0  0  0  0  0
   11.2948    0.0000    0.0000 O   0  0  0  0  0  0  0  0  0  0  0  0
   13.6137    0.0000    0.0000 O   0  0  0  0  0  0  0  0  0  0  0  0
  1  2  1  0  0  0  0
  2  3  1  0  0  0  0
  3  4  1  0  0  0  0
  3  6  1  0  0  0  0
  4  5  1  0  0  0  0
  6  7  2  0  0  0  0
  6  8  1  0  0  0  0
  8  9  1  0  0  0  0
  8 14  1  0  0  0  0
  9 10  1  0  0  0  0
 10 11  1  0  0  0  0
 11 12  1  0  0  0  0
 11 13  1  0  0  0  0
 13 14  1  0  0  0  0
 15 16  1  0  0  0  0
 16 17  2  0  0  0  0
 16 18  1  0  0  0  0
 18 19  1  0  0  0  0
 19 20  1  0  0  0  0
 19 21  1  0  0  0  0
 19 25  1  0  0  0  0
 21 22  1  0  0  0  0
 22 23  1  0  0  0  0
 22 24  2  0  0  0  0
 25 26  1  0  0  0  0
 25 27  2  0  0  0  0
M  END
> <ID>
11020

> <Formula>
C16H29N3O8

> <FW>
391.4168 (199.2932+192.1235)

> <DSSTox_CID>
25555

> <DSSTox_RID>
80952

> <DSSTox_GSID>
45555

> <DSSTox_FileID_Sort>
5633

> <TS_ChemName>
Diethylcarbamazine citrate

> <TS_ChemName_Synonyms>


> <TS_CASRN>
1642-54-2

> <CASRN_ChemName_Relationship>
primary

> <TS_Description>
single chemical compound

> <ChemNote>
parent [90-89-1]

> <STRUCTURE_Shown>
tested chemical

> <STRUCTURE_Formula>
C16H29N3O8

> <STRUCTURE_MW>
391.4168

> <STRUCTURE_ChemType>
defined organic

> <STRUCTURE_DefinedOrganicForm>
complex

> <STRUCTURE_IUPAC>
N,N-diethyl-4-methylpiperazine-1-carboxamide 2-hydroxypropane-1,2,3-tricarboxylate (1:1)

> <STRUCTURE_SMILES>
O=C(N1CCN(C)CC1)N(CC)CC.O=C(O)C(O)(CC(=O)O)CC(=O)O

> <STRUCTURE_SMILES_Desalt>
O=C(N1CCN(C)CC1)N(CC)CC

> <Substance_modify_yyyymmdd>
20100107

$$$$
