16452-01-0
ChemmineR-0915142007XD

 10 10  0  0  0  0  0  0  0  0  1 V2000
    2.3020   -1.9936    0.0000 C   0  0  0  0  0  0  0  0  0  0  0  0
    2.3020   -3.3227    0.0000 C   0  0  0  0  0  0  0  0  0  0  0  0
    3.4557   -3.9873    0.0000 C   0  0  0  0  0  0  0  0  0  0  0  0
    4.6093   -3.3227    0.0000 C   0  0  0  0  0  0  0  0  0  0  0  0
    4.6093   -1.9936    0.0000 C   0  0  0  0  0  0  0  0  0  0  0  0
    3.4557   -1.3291    0.0000 C   0  0  0  0  0  0  0  0  0  0  0  0
    3.4557    0.0000    0.0000 C   0  0  0  0  0  0  0  0  0  0  0  0
    1.1537   -1.3291    0.0000 O   0  0  0  0  0  0  0  0  0  0  0  0
    0.0000   -1.9936    0.0000 C   0  0  0  0  0  0  0  0  0  0  0  0
    3.4557   -5.3164    0.0000 N   0  0  0  0  0  0  0  0  0  0  0  0
  1  2  2  0  0  0  0
  1  6  1  0  0  0  0
  1  8  1  0  0  0  0
  2  3  1  0  0  0  0
  3  4  2  0  0  0  0
  3 10  1  0  0  0  0
  4  5  1  0  0  0  0
  5  6  2  0  0  0  0
  6  7  1  0  0  0  0
  8  9  1  0  0  0  0
M  END
> <ID>
3884

> <Formula>
C8H11NO

> <FW>
137.179

> <DSSTox_CID>
4855

> <DSSTox_RID>
77553

> <DSSTox_GSID>
24855

> <DSSTox_FileID_Sort>
2236

> <TS_ChemName>
3-Methoxy-4-methylaniline

> <TS_ChemName_Synonyms>
3-Methoxy-4-methylaniline (o-Cresidine)

> <TS_CASRN>
16452-01-0

> <CASRN_ChemName_Relationship>
primary

> <TS_Description>
single chemical compound

> <ChemNote>


> <STRUCTURE_Shown>
tested chemical

> <STRUCTURE_Formula>
C8H11NO

> <STRUCTURE_MW>
137.179

> <STRUCTURE_ChemType>
defined organic

> <STRUCTURE_DefinedOrganicForm>
parent

> <STRUCTURE_IUPAC>
3-methoxy-4-methylaniline

> <STRUCTURE_SMILES>
Cc1ccc(N)cc1OC

> <STRUCTURE_SMILES_Desalt>
Cc1ccc(N)cc1OC

> <Substance_modify_yyyymmdd>
20080429

$$$$
