164656-23-9
ChemmineR-0915142007XD

 41 45  0  0  1  0  0  0  0  0  1 V2000
    1.1661   -7.0871    0.0000 C   0  0  0  0  0  0  0  0  0  0  0  0
    1.1661   -8.4087    0.0000 C   0  0  0  0  0  0  0  0  0  0  0  0
    2.3062   -9.0695    0.0000 N   0  0  0  0  0  0  0  0  0  0  0  0
    2.3062   -6.4134    0.0000 C   0  0  0  0  0  0  0  0  0  0  0  0
    3.4593   -7.0871    0.0000 C   0  0  0  0  0  0  0  0  0  0  0  0
    3.4593   -8.4087    0.0000 C   0  0  0  0  0  0  0  0  0  0  0  0
    4.5995   -9.0695    0.0000 C   0  0  0  0  0  0  0  0  0  0  0  0
    5.7656   -8.4087    0.0000 C   0  0  0  0  0  0  0  0  0  0  0  0
    4.5995   -6.4134    0.0000 C   0  0  0  0  0  0  0  0  0  0  0  0
    5.7656   -7.0871    0.0000 C   0  0  0  0  0  0  0  0  0  0  0  0
    5.7656   -4.4311    0.0000 C   0  0  0  0  0  0  0  0  0  0  0  0
    6.9057   -5.0919    0.0000 C   0  0  0  0  0  0  0  0  0  0  0  0
    6.9057   -6.4134    0.0000 C   0  0  0  0  0  0  0  0  0  0  0  0
    8.1755   -6.8280    0.0000 C   0  0  0  0  0  0  0  0  0  0  0  0
    8.9658   -5.7526    0.0000 C   0  0  0  0  0  0  0  0  0  0  0  0
    8.1755   -4.6772    0.0000 C   0  0  0  0  0  0  0  0  0  0  0  0
    8.1625   -3.3168    0.0000 C   0  0  0  0  0  0  0  0  0  0  0  0
    9.3286   -2.6561    0.0000 N   0  0  0  0  0  0  0  0  0  0  0  0
    7.0223   -2.6561    0.0000 O   0  0  0  0  0  0  0  0  0  0  0  0
   10.4687   -3.3168    0.0000 C   0  0  0  0  0  0  0  0  0  0  0  0
   10.4687   -4.6513    0.0000 C   0  0  0  0  0  0  0  0  0  0  0  0
   11.6219   -5.3121    0.0000 C   0  0  0  0  0  0  0  0  0  0  0  0
   12.7620   -4.6513    0.0000 C   0  0  0  0  0  0  0  0  0  0  0  0
   12.7620   -3.3168    0.0000 C   0  0  0  0  0  0  0  0  0  0  0  0
   11.6219   -2.6561    0.0000 C   0  0  0  0  0  0  0  0  0  0  0  0
   11.6219   -1.3215    0.0000 C   0  0  0  0  0  0  0  0  0  0  0  0
   12.9564   -1.3215    0.0000 F   0  0  0  0  0  0  0  0  0  0  0  0
   11.6219   -6.6596    0.0000 C   0  0  0  0  0  0  0  0  0  0  0  0
   10.3003   -6.6596    0.0000 F   0  0  0  0  0  0  0  0  0  0  0  0
   12.9564   -6.6596    0.0000 F   0  0  0  0  0  0  0  0  0  0  0  0
   11.6219   -7.9811    0.0000 F   0  0  0  0  0  0  0  0  0  0  0  0
    0.0000   -9.0695    0.0000 O   0  0  0  0  0  0  0  0  0  0  0  0
    3.4593   -5.7526    0.0000 C   0  0  0  0  0  0  0  0  0  0  0  0
    4.5995   -5.0919    0.0000 C   0  0  0  0  0  0  0  0  0  0  0  0
   10.3003   -1.3215    0.0000 F   0  0  0  0  0  0  0  0  0  0  0  0
   11.6219    0.0000    0.0000 F   0  0  0  0  0  0  0  0  0  0  0  0
    3.4593   -9.7432    0.0000 H   0  0  0  0  0  0  0  0  0  0  0  0
    4.5995   -7.7479    0.0000 H   0  0  0  0  0  0  0  0  0  0  0  0
    5.7656   -5.7526    0.0000 H   0  0  0  0  0  0  0  0  0  0  0  0
    6.9057   -7.7479    0.0000 H   0  0  0  0  0  0  0  0  0  0  0  0
    6.9057   -3.7573    0.0000 C   0  0  0  0  0  0  0  0  0  0  0  0
  1  2  1  0  0  0  0
  1  4  2  0  0  0  0
  2  3  1  0  0  0  0
  2 32  2  0  0  0  0
  3  6  1  0  0  0  0
  4  5  1  0  0  0  0
  5  6  1  0  0  0  0
  5  9  1  0  0  0  0
  5 33  1  1  0  0  0
  6  7  1  0  0  0  0
  6 37  1  6  0  0  0
  7  8  1  0  0  0  0
  8 10  1  0  0  0  0
  9 10  1  0  0  0  0
  9 34  1  0  0  0  0
  9 38  1  6  0  0  0
 10 13  1  0  0  0  0
 10 39  1  1  0  0  0
 11 12  1  0  0  0  0
 11 34  1  0  0  0  0
 12 13  1  0  0  0  0
 12 16  1  0  0  0  0
 12 41  1  1  0  0  0
 13 14  1  0  0  0  0
 13 40  1  6  0  0  0
 14 15  1  0  0  0  0
 15 16  1  0  0  0  0
 16 17  1  1  0  0  0
 17 18  1  0  0  0  0
 17 19  2  0  0  0  0
 18 20  1  0  0  0  0
 20 21  2  0  0  0  0
 20 25  1  0  0  0  0
 21 22  1  0  0  0  0
 22 23  2  0  0  0  0
 22 28  1  0  0  0  0
 23 24  1  0  0  0  0
 24 25  2  0  0  0  0
 25 26  1  0  0  0  0
 26 27  1  0  0  0  0
 26 35  1  0  0  0  0
 26 36  1  0  0  0  0
 28 29  1  0  0  0  0
 28 30  1  0  0  0  0
 28 31  1  0  0  0  0
M  END
> <ID>
11692

> <Formula>
C27H30F6N2O2

> <FW>
528.5297

> <DSSTox_CID>
26452

> <DSSTox_RID>
81626

> <DSSTox_GSID>
46452

> <DSSTox_FileID_Sort>
6307

> <TS_ChemName>
Dutasteride

> <TS_ChemName_Synonyms>


> <TS_CASRN>
164656-23-9

> <CASRN_ChemName_Relationship>
primary

> <TS_Description>
single chemical compound

> <ChemNote>
stereochem

> <STRUCTURE_Shown>
tested chemical

> <STRUCTURE_Formula>
C27H30F6N2O2

> <STRUCTURE_MW>
528.5297

> <STRUCTURE_ChemType>
defined organic

> <STRUCTURE_DefinedOrganicForm>
parent

> <STRUCTURE_IUPAC>
(4aR,4bS,6aS,7S,9aS,9bS,11aR)-N-[2,5-bis(trifluoromethyl)phenyl]-4a,6a-dimethyl-2-oxo-2,4a,4b,5,6,6a,7,8,9,9a,9b,10,11,11a-tetradecahydro-1H-indeno[5,4-f]quinoline-7-carboxamide

> <STRUCTURE_SMILES>
FC(F)(F)c5cc(NC(=O)[C@H]4CC[C@@H]3[C@]4(C)CC[C@H]1[C@H]3CC[C@H]2NC(=O)C=C[C@]12C)c(cc5)C(F)(F)F

> <STRUCTURE_SMILES_Desalt>
FC(F)(F)c5cc(NC(=O)[C@H]4CC[C@@H]3[C@]4(C)CC[C@H]1[C@H]3CC[C@H]2NC(=O)C=C[C@]12C)c(cc5)C(F)(F)F

> <Substance_modify_yyyymmdd>
20110813

$$$$
