1646-75-9
ChemmineR-0915142007XD

  8  7  0  0  0  0  0  0  0  0  1 V2000
    4.3065   -1.1495    0.0000 N   0  0  0  0  0  0  0  0  0  0  0  0
    5.3966   -0.3994    0.0000 O   0  0  0  0  0  0  0  0  0  0  0  0
    3.1408   -1.8241    0.0000 C   0  0  0  0  0  0  0  0  0  0  0  0
    2.0022   -1.1495    0.0000 C   0  0  0  0  0  0  0  0  0  0  0  0
    1.3276   -2.3044    0.0000 S   0  0  0  0  0  0  0  0  0  0  0  0
    0.0000   -2.3044    0.0000 C   0  0  0  0  0  0  0  0  0  0  0  0
    0.8473   -0.4965    0.0000 C   0  0  0  0  0  0  0  0  0  0  0  0
    2.6605    0.0000    0.0000 C   0  0  0  0  0  0  0  0  0  0  0  0
  1  2  1  0  0  0  0
  1  3  2  0  0  0  0
  3  4  1  0  0  0  0
  4  5  1  0  0  0  0
  4  7  1  0  0  0  0
  4  8  1  0  0  0  0
  5  6  1  0  0  0  0
M  END
> <ID>
3667

> <Formula>
C5H11NOS

> <FW>
133.2119

> <DSSTox_CID>
4431

> <DSSTox_RID>
77394

> <DSSTox_GSID>
24431

> <DSSTox_FileID_Sort>
2077

> <TS_ChemName>
Aldicarb oxime

> <TS_ChemName_Synonyms>
Aldicarb oxime (Propanal, 2-methyl-2-(methylthio)-, oxime)

> <TS_CASRN>
1646-75-9

> <CASRN_ChemName_Relationship>
primary

> <TS_Description>
single chemical compound

> <ChemNote>


> <STRUCTURE_Shown>
tested chemical

> <STRUCTURE_Formula>
C5H11NOS

> <STRUCTURE_MW>
133.2119

> <STRUCTURE_ChemType>
defined organic

> <STRUCTURE_DefinedOrganicForm>
parent

> <STRUCTURE_IUPAC>
N-hydroxy-2-methyl-2-(methylsulfanyl)propan-1-imine

> <STRUCTURE_SMILES>
O\N=C/C(C)(C)SC

> <STRUCTURE_SMILES_Desalt>
O\N=C/C(C)(C)SC

> <Substance_modify_yyyymmdd>
20080429

$$$$
