16470-24-9
ChemmineR-0915142007XD

 76 77  0  0  0  0  0  0  0  0  2 V2000
   13.3074  -13.8334    0.0000 C    0  0  0  0  0  0  0  0  0  0  0  0
   13.9649  -14.9906    0.0000 C    0  0  0  0  0  0  0  0  0  0  0  0
   13.3074  -16.1478    0.0000 C    0  0  0  0  0  0  0  0  0  0  0  0
   11.9662  -16.1478    0.0000 C    0  0  0  0  0  0  0  0  0  0  0  0
   11.3087  -14.9906    0.0000 C    0  0  0  0  0  0  0  0  0  0  0  0
   11.9662  -13.8334    0.0000 C    0  0  0  0  0  0  0  0  0  0  0  0
   13.9649  -12.6763    0.0000 S    0  0  0  0  0  0  0  0  0  0  0  0
   15.1221  -13.3600    0.0000 O    0  0  0  0  0  0  0  0  0  0  0  0
   12.8341  -12.0188    0.0000 O    0  5  0  0  0  0  0  0  0  0  0  0
   14.6224  -11.5191    0.0000 O    0  0  0  0  0  0  0  0  0  0  0  0
   13.9649  -17.3049    0.0000 N    0  0  0  0  0  0  0  0  0  0  0  0
   15.9637  -18.4358    0.0000 N    0  0  0  0  0  0  0  0  0  0  0  0
   15.3062  -17.3049    0.0000 C    0  0  0  0  0  0  0  0  0  0  0  0
   15.9637  -16.1478    0.0000 N    0  0  0  0  0  0  0  0  0  0  0  0
   17.3049  -16.1478    0.0000 C    0  0  0  0  0  0  0  0  0  0  0  0
   17.9624  -17.3049    0.0000 N    0  0  0  0  0  0  0  0  0  0  0  0
   17.3049  -18.4358    0.0000 C    0  0  0  0  0  0  0  0  0  0  0  0
   17.9624  -14.9906    0.0000 N    0  0  0  0  0  0  0  0  0  0  0  0
   19.3037  -14.9906    0.0000 C    0  0  0  0  0  0  0  0  0  0  0  0
   19.9612  -13.8334    0.0000 C    0  0  0  0  0  0  0  0  0  0  0  0
   21.2761  -13.8334    0.0000 O    0  0  0  0  0  0  0  0  0  0  0  0
   17.3049  -13.8334    0.0000 C    0  0  0  0  0  0  0  0  0  0  0  0
   17.9624  -12.6763    0.0000 C    0  0  0  0  0  0  0  0  0  0  0  0
   17.3049  -11.5191    0.0000 O    0  0  0  0  0  0  0  0  0  0  0  0
   17.9624  -19.5930    0.0000 N    0  0  0  0  0  0  0  0  0  0  0  0
   17.3049  -20.7501    0.0000 C    0  0  0  0  0  0  0  0  0  0  0  0
   17.9624  -21.8810    0.0000 C    0  0  0  0  0  0  0  0  0  0  0  0
   15.9637  -20.7501    0.0000 C    0  0  0  0  0  0  0  0  0  0  0  0
   17.3049  -23.0382    0.0000 C    0  0  0  0  0  0  0  0  0  0  0  0
   15.3062  -21.8810    0.0000 C    0  0  0  0  0  0  0  0  0  0  0  0
   15.9637  -23.0382    0.0000 C    0  0  0  0  0  0  0  0  0  0  0  0
   15.3062  -24.1953    0.0000 S    0  0  0  0  0  0  0  0  0  0  0  0
   14.1490  -23.5379    0.0000 O    0  0  0  0  0  0  0  0  0  0  0  0
   16.4634  -24.8528    0.0000 O    0  0  0  0  0  0  0  0  0  0  0  0
   14.6224  -25.3525    0.0000 O    0  5  0  0  0  0  0  0  0  0  0  0
    7.9687  -11.5191    0.0000 C    0  0  0  0  0  0  0  0  0  0  0  0
    7.3112  -10.3619    0.0000 C    0  0  0  0  0  0  0  0  0  0  0  0
    7.9687   -9.2048    0.0000 C    0  0  0  0  0  0  0  0  0  0  0  0
    9.3099   -9.2048    0.0000 C    0  0  0  0  0  0  0  0  0  0  0  0
    9.9937  -10.3619    0.0000 C    0  0  0  0  0  0  0  0  0  0  0  0
    9.3099  -11.5191    0.0000 C    0  0  0  0  0  0  0  0  0  0  0  0
    7.3112  -12.6763    0.0000 S    0  0  0  0  0  0  0  0  0  0  0  0
    6.1803  -12.0188    0.0000 O    0  0  0  0  0  0  0  0  0  0  0  0
    8.4684  -13.3600    0.0000 O    0  5  0  0  0  0  0  0  0  0  0  0
    6.6537  -13.8334    0.0000 O    0  0  0  0  0  0  0  0  0  0  0  0
    7.3112   -8.0739    0.0000 N    0  0  0  0  0  0  0  0  0  0  0  0
    5.3125   -6.9167    0.0000 N    0  0  0  0  0  0  0  0  0  0  0  0
    5.9962   -8.0739    0.0000 C    0  0  0  0  0  0  0  0  0  0  0  0
    5.3125   -9.2048    0.0000 N    0  0  0  0  0  0  0  0  0  0  0  0
    3.9975   -9.2048    0.0000 C    0  0  0  0  0  0  0  0  0  0  0  0
    3.3400   -8.0739    0.0000 N    0  0  0  0  0  0  0  0  0  0  0  0
    3.9975   -6.9167    0.0000 C    0  0  0  0  0  0  0  0  0  0  0  0
    3.3400  -10.3619    0.0000 N    0  0  0  0  0  0  0  0  0  0  0  0
    1.9987  -10.3619    0.0000 C    0  0  0  0  0  0  0  0  0  0  0  0
    1.3413  -11.5191    0.0000 C    0  0  0  0  0  0  0  0  0  0  0  0
    0.0000  -11.5191    0.0000 O    0  0  0  0  0  0  0  0  0  0  0  0
    3.9975  -11.5191    0.0000 C    0  0  0  0  0  0  0  0  0  0  0  0
    3.3400  -12.6763    0.0000 C    0  0  0  0  0  0  0  0  0  0  0  0
    3.9975  -13.8334    0.0000 O    0  0  0  0  0  0  0  0  0  0  0  0
    3.3400   -5.7595    0.0000 N    0  0  0  0  0  0  0  0  0  0  0  0
    3.9975   -4.6287    0.0000 C    0  0  0  0  0  0  0  0  0  0  0  0
    3.3400   -3.4715    0.0000 C    0  0  0  0  0  0  0  0  0  0  0  0
    5.3125   -4.6287    0.0000 C    0  0  0  0  0  0  0  0  0  0  0  0
    3.9975   -2.3143    0.0000 C    0  0  0  0  0  0  0  0  0  0  0  0
    5.9962   -3.4715    0.0000 C    0  0  0  0  0  0  0  0  0  0  0  0
    5.3125   -2.3143    0.0000 C    0  0  0  0  0  0  0  0  0  0  0  0
    5.9962   -1.1572    0.0000 S    0  0  0  0  0  0  0  0  0  0  0  0
    7.1534   -1.8147    0.0000 O    0  0  0  0  0  0  0  0  0  0  0  0
    4.8391   -0.4997    0.0000 O    0  0  0  0  0  0  0  0  0  0  0  0
    6.6537    0.0000    0.0000 O    0  5  0  0  0  0  0  0  0  0  0  0
    9.9937  -12.6763    0.0000 C    0  0  0  0  0  0  0  0  0  0  0  0
   11.3087  -12.6763    0.0000 C    0  0  0  0  0  0  0  0  0  0  0  0
    8.8366   -0.4734    0.0000 Na   0  3  0  0  0  0  0  0  0  0  0  0
    8.2317  -15.0695    0.0000 Na   0  3  0  0  0  0  0  0  0  0  0  0
   16.1215  -26.2993    0.0000 Na   0  3  0  0  0  0  0  0  0  0  0  0
   14.1753   -9.5729    0.0000 Na   0  3  0  0  0  0  0  0  0  0  0  0
  1  2  2  0  0  0  0
  1  6  1  0  0  0  0
  1  7  1  0  0  0  0
  2  3  1  0  0  0  0
  3  4  2  0  0  0  0
  3 11  1  0  0  0  0
  4  5  1  0  0  0  0
  5  6  2  0  0  0  0
  6 72  1  0  0  0  0
  7  8  2  0  0  0  0
  7  9  1  0  0  0  0
  7 10  2  0  0  0  0
 11 13  1  0  0  0  0
 12 13  2  0  0  0  0
 12 17  1  0  0  0  0
 13 14  1  0  0  0  0
 14 15  2  0  0  0  0
 15 16  1  0  0  0  0
 15 18  1  0  0  0  0
 16 17  2  0  0  0  0
 17 25  1  0  0  0  0
 18 19  1  0  0  0  0
 18 22  1  0  0  0  0
 19 20  1  0  0  0  0
 20 21  1  0  0  0  0
 22 23  1  0  0  0  0
 23 24  1  0  0  0  0
 25 26  1  0  0  0  0
 26 27  2  0  0  0  0
 26 28  1  0  0  0  0
 27 29  1  0  0  0  0
 28 30  2  0  0  0  0
 29 31  2  0  0  0  0
 30 31  1  0  0  0  0
 31 32  1  0  0  0  0
 32 33  2  0  0  0  0
 32 34  2  0  0  0  0
 32 35  1  0  0  0  0
 36 37  2  0  0  0  0
 36 41  1  0  0  0  0
 36 42  1  0  0  0  0
 37 38  1  0  0  0  0
 38 39  2  0  0  0  0
 38 46  1  0  0  0  0
 39 40  1  0  0  0  0
 40 41  2  0  0  0  0
 41 71  1  0  0  0  0
 42 43  2  0  0  0  0
 42 44  1  0  0  0  0
 42 45  2  0  0  0  0
 46 48  1  0  0  0  0
 47 48  2  0  0  0  0
 47 52  1  0  0  0  0
 48 49  1  0  0  0  0
 49 50  2  0  0  0  0
 50 51  1  0  0  0  0
 50 53  1  0  0  0  0
 51 52  2  0  0  0  0
 52 60  1  0  0  0  0
 53 54  1  0  0  0  0
 53 57  1  0  0  0  0
 54 55  1  0  0  0  0
 55 56  1  0  0  0  0
 57 58  1  0  0  0  0
 58 59  1  0  0  0  0
 60 61  1  0  0  0  0
 61 62  2  0  0  0  0
 61 63  1  0  0  0  0
 62 64  1  0  0  0  0
 63 65  2  0  0  0  0
 64 66  2  0  0  0  0
 65 66  1  0  0  0  0
 66 67  1  0  0  0  0
 67 68  2  0  0  0  0
 67 69  2  0  0  0  0
 67 70  1  0  0  0  0
 71 72  2  0  0  0  0
M  END
> <ID>
5389

> <Formula>
C40H40N12Na4O16S4

> <FW>
1165.0355 (1073.0786+22.9892+22.9892+22.9892+22.9892)

> <DSSTox_CID>
7781

> <DSSTox_RID>
78565

> <DSSTox_GSID>
27781

> <DSSTox_FileID_Sort>
3248

> <TS_ChemName>
Benzenesulfonic acid, 2,2'-(1,2-ethenediyl)bis[5-[[4-[bis(2-hydroxyethyl)amino]-6-[(4-sulfophenyl)amino]-1,3,5-triazin-2-yl]amino]-, tetrasodium salt

> <TS_ChemName_Synonyms>
Benzenesulfonic acid, 2,2'-(1,2-ethenediyl)bis[5-[[4-[bis(2-hydroxyethyl)amino]-6-[(4-sulfophenyl)amino]-1,3,5-triazin-2-yl]amino]-, tetrasodium salt (C.I. Fluorescent Brightener 220)

> <TS_CASRN>
16470-24-9

> <CASRN_ChemName_Relationship>
primary

> <TS_Description>
single chemical compound

> <ChemNote>
parent [3066-05-5]

> <STRUCTURE_Shown>
tested chemical

> <STRUCTURE_Formula>
C40H40N12Na4O16S4

> <STRUCTURE_MW>
1165.0355

> <STRUCTURE_ChemType>
defined organic

> <STRUCTURE_DefinedOrganicForm>
salt

> <STRUCTURE_IUPAC>
tetrasodium 2,2'-(E)-ethene-1,2-diylbis[5-({4-[bis(2-hydroxyethyl)amino]-6-[(4-sulfonatophenyl)amino]-1,3,5-triazin-2-yl}amino)benzenesulfonate]

> <STRUCTURE_SMILES>
[Na+].[Na+].[Na+].[Na+].[O-]S(=O)(=O)c1ccc(cc1)Nc2nc(nc(n2)N(CCO)CCO)Nc6ccc(/C=C/c3ccc(cc3S([O-])(=O)=O)Nc5nc(Nc4ccc(cc4)S([O-])(=O)=O)nc(n5)N(CCO)CCO)c(c6)S([O-])(=O)=O

> <STRUCTURE_SMILES_Desalt>
O=S(=O)(O)c1ccc(cc1)Nc2nc(nc(n2)N(CCO)CCO)Nc6ccc(/C=C/c3ccc(cc3S(=O)(=O)O)Nc5nc(Nc4ccc(cc4)S(=O)(=O)O)nc(n5)N(CCO)CCO)c(c6)S(=O)(=O)O

> <Substance_modify_yyyymmdd>
20080429

$$$$
