16489-90-0
ChemmineR-0915142007XD

 16 17  0  0  0  0  0  0  0  0  1 V2000
    5.7736   -1.1585    0.0000 C   0  0  0  0  0  0  0  0  0  0  0  0
    5.7736   -2.4771    0.0000 C   0  0  0  0  0  0  0  0  0  0  0  0
    4.6151   -0.4992    0.0000 C   0  0  0  0  0  0  0  0  0  0  0  0
    4.6151   -3.1458    0.0000 C   0  0  0  0  0  0  0  0  0  0  0  0
    3.4755   -1.1585    0.0000 C   0  0  0  0  0  0  0  0  0  0  0  0
    3.4755   -2.4771    0.0000 C   0  0  0  0  0  0  0  0  0  0  0  0
    6.9321   -0.4992    0.0000 N   0  0  0  0  0  0  0  0  0  0  0  0
    8.0812   -1.1585    0.0000 C   0  0  0  0  0  0  0  0  0  0  0  0
    6.9321   -3.1458    0.0000 C   0  0  0  0  0  0  0  0  0  0  0  0
    8.0812   -2.4771    0.0000 C   0  0  0  0  0  0  0  0  0  0  0  0
    2.3170   -3.1458    0.0000 O   0  0  0  0  0  0  0  0  0  0  0  0
    1.1585   -2.4771    0.0000 C   0  0  0  0  0  0  0  0  0  0  0  0
    0.0000   -3.1458    0.0000 C   0  0  0  0  0  0  0  0  0  0  0  0
    6.9321   -4.4833    0.0000 C   0  0  0  0  0  0  0  0  0  0  0  0
    8.7405    0.0000    0.0000 C   0  0  0  0  0  0  0  0  0  0  0  0
    9.4186   -1.1585    0.0000 C   0  0  0  0  0  0  0  0  0  0  0  0
  1  3  2  0  0  0  0
  1  7  1  0  0  0  0
  1  2  1  0  0  0  0
  2  4  2  0  0  0  0
  2  9  1  0  0  0  0
  3  5  1  0  0  0  0
  4  6  1  0  0  0  0
  5  6  2  0  0  0  0
  6 11  1  0  0  0  0
  7  8  1  0  0  0  0
  8 10  1  0  0  0  0
  8 15  1  0  0  0  0
  8 16  1  0  0  0  0
  9 10  1  0  0  0  0
  9 14  1  0  0  0  0
 11 12  1  0  0  0  0
 12 13  1  0  0  0  0
M  END
> <ID>
9284

> <Formula>
C14H21NO

> <FW>
219.3226

> <DSSTox_CID>
22365

> <DSSTox_RID>
80007

> <DSSTox_GSID>
42365

> <DSSTox_FileID_Sort>
4689

> <TS_ChemName>
6-Ethoxy-2,3,4-trimethyl-1,2,3,4-tetrahydroquinoline

> <TS_ChemName_Synonyms>
6-Ethoxy-2,3,4-trimethyl-1,2,3,4-tetrahydroquinoline (metabolite of ethoxyquin)

> <TS_CASRN>
16489-90-0

> <CASRN_ChemName_Relationship>
primary

> <TS_Description>
single chemical compound

> <ChemNote>


> <STRUCTURE_Shown>
tested chemical

> <STRUCTURE_Formula>
C14H21NO

> <STRUCTURE_MW>
219.3226

> <STRUCTURE_ChemType>
defined organic

> <STRUCTURE_DefinedOrganicForm>
parent

> <STRUCTURE_IUPAC>
6-ethoxy-2,2,4-trimethyl-1,2,3,4-tetrahydroquinoline

> <STRUCTURE_SMILES>
CCOc1ccc2NC(C)(C)CC(C)c2c1

> <STRUCTURE_SMILES_Desalt>
CCOc1ccc2NC(C)(C)CC(C)c2c1

> <Substance_modify_yyyymmdd>
20080825

$$$$
