16488-48-5
ChemmineR-0915142007XD

 22 21  0  0  0  0  0  0  0  0  2 V2000
    5.7609   -2.6663    0.0000 C    0  0  0  0  0  0  0  0  0  0  0  0
    6.9075   -1.9894    0.0000 C    0  0  0  0  0  0  0  0  0  0  0  0
    8.0542   -2.6663    0.0000 O    0  0  0  0  0  0  0  0  0  0  0  0
    9.2146   -1.9894    0.0000 C    0  0  0  0  0  0  0  0  0  0  0  0
   10.3751   -2.6663    0.0000 C    0  0  0  0  0  0  0  0  0  0  0  0
   11.5218   -1.9894    0.0000 N    0  3  0  0  0  0  0  0  0  0  0  0
   12.6684   -2.6663    0.0000 C    0  0  0  0  0  0  0  0  0  0  0  0
   13.8151   -1.9894    0.0000 C    0  0  0  0  0  0  0  0  0  0  0  0
   11.5218   -0.6769    0.0000 C    0  0  0  0  0  0  0  0  0  0  0  0
   10.3751    0.0000    0.0000 C    0  0  0  0  0  0  0  0  0  0  0  0
    6.9075   -0.6769    0.0000 O    0  0  0  0  0  0  0  0  0  0  0  0
    4.6142   -1.9894    0.0000 C    0  0  0  0  0  0  0  0  0  0  0  0
    3.4676   -2.6663    0.0000 C    0  0  0  0  0  0  0  0  0  0  0  0
    3.4676   -3.9926    0.0000 C    0  0  0  0  0  0  0  0  0  0  0  0
    2.3071   -4.6557    0.0000 N    0  0  0  0  0  0  0  0  0  0  0  0
    2.3071   -5.9819    0.0000 C    0  0  0  0  0  0  0  0  0  0  0  0
    1.1467   -6.6450    0.0000 C    0  0  0  0  0  0  0  0  0  0  0  0
    1.1467   -7.9851    0.0000 C    0  0  0  0  0  0  0  0  0  0  0  0
    0.0000   -8.6482    0.0000 C    0  0  0  0  0  0  0  0  0  0  0  0
    4.6142   -4.6557    0.0000 C    0  0  0  0  0  0  0  0  0  0  0  0
    5.7609   -3.9926    0.0000 C    0  0  0  0  0  0  0  0  0  0  0  0
    9.6291   -4.9182    0.0000 Cl   0  5  0  0  0  0  0  0  0  0  0  0
  1  2  1  0  0  0  0
  1 12  2  0  0  0  0
  1 21  1  0  0  0  0
  2  3  1  0  0  0  0
  2 11  2  0  0  0  0
  3  4  1  0  0  0  0
  4  5  1  0  0  0  0
  5  6  1  0  0  0  0
  6  7  1  0  0  0  0
  6  9  1  0  0  0  0
  7  8  1  0  0  0  0
  9 10  1  0  0  0  0
 12 13  1  0  0  0  0
 13 14  2  0  0  0  0
 14 15  1  0  0  0  0
 14 20  1  0  0  0  0
 15 16  1  0  0  0  0
 16 17  1  0  0  0  0
 17 18  1  0  0  0  0
 18 19  1  0  0  0  0
 20 21  2  0  0  0  0
M  END
> <ID>
13766

> <Formula>
C17H29ClN2O2

> <FW>
328.8774 (293.4238+35.4535)

> <DSSTox_CID>
28703

> <DSSTox_RID>
82972

> <DSSTox_GSID>
48777

> <DSSTox_FileID_Sort>
7649

> <TS_ChemName>
Depolipon

> <TS_ChemName_Synonyms>


> <TS_CASRN>
16488-48-5

> <CASRN_ChemName_Relationship>
primary

> <TS_Description>
single chemical compound

> <ChemNote>


> <STRUCTURE_Shown>
tested chemical

> <STRUCTURE_Formula>
C17H29ClN2O2

> <STRUCTURE_MW>
328.8774

> <STRUCTURE_ChemType>
defined organic

> <STRUCTURE_DefinedOrganicForm>
salt

> <STRUCTURE_IUPAC>
2-{[4-(butylamino)benzoyl]oxy}-N,N-diethylethanaminium chloride

> <STRUCTURE_SMILES>
[Cl-].CC[NH+](CC)CCOC(=O)c1ccc(NCCCC)cc1

> <STRUCTURE_SMILES_Desalt>
CCN(CC)CCOC(=O)c1ccc(NCCCC)cc1

> <Substance_modify_yyyymmdd>
20100107

$$$$
