16485-10-2
ChemmineR-0915142007XD

 14 13  0  0  0  0  0  0  0  0  1 V2000
    4.6153   -1.3349    0.0000 C   0  0  0  0  0  0  0  0  0  0  0  0
    2.3076   -1.3349    0.0000 C   0  0  0  0  0  0  0  0  0  0  0  0
    3.4563   -2.0075    0.0000 C   0  0  0  0  0  0  0  0  0  0  0  0
    4.6153    0.0000    0.0000 O   0  0  0  0  0  0  0  0  0  0  0  0
    5.7432   -2.0075    0.0000 N   0  0  0  0  0  0  0  0  0  0  0  0
    3.4563   -3.3425    0.0000 O   0  0  0  0  0  0  0  0  0  0  0  0
    1.1486   -0.6830    0.0000 C   0  0  0  0  0  0  0  0  0  0  0  0
    8.0509   -2.0075    0.0000 C   0  0  0  0  0  0  0  0  0  0  0  0
    1.6350   -2.4836    0.0000 C   0  0  0  0  0  0  0  0  0  0  0  0
    2.9596   -0.1863    0.0000 C   0  0  0  0  0  0  0  0  0  0  0  0
    0.0000   -1.3349    0.0000 O   0  0  0  0  0  0  0  0  0  0  0  0
   10.3482   -2.0075    0.0000 O   0  0  0  0  0  0  0  0  0  0  0  0
    6.8919   -1.3349    0.0000 C   0  0  0  0  0  0  0  0  0  0  0  0
    9.1995   -1.3349    0.0000 C   0  0  0  0  0  0  0  0  0  0  0  0
  1  3  1  0  0  0  0
  1  4  2  0  0  0  0
  1  5  1  0  0  0  0
  2  3  1  0  0  0  0
  2  7  1  0  0  0  0
  2  9  1  0  0  0  0
  2 10  1  0  0  0  0
  3  6  1  0  0  0  0
  5 13  1  0  0  0  0
  7 11  1  0  0  0  0
  8 13  1  0  0  0  0
  8 14  1  0  0  0  0
 12 14  1  0  0  0  0
M  END
> <ID>
10252

> <Formula>
C9H19NO4

> <FW>
205.2515

> <DSSTox_CID>
24598

> <DSSTox_RID>
80341

> <DSSTox_GSID>
44598

> <DSSTox_FileID_Sort>
5023

> <TS_ChemName>
Panthenol

> <TS_ChemName_Synonyms>
Panthenol (Butanamide, 2,4-dihydroxy-N-(3-hydroxypropyl)-3,3-dimethyl-)

> <TS_CASRN>
16485-10-2

> <CASRN_ChemName_Relationship>
primary

> <TS_Description>
single chemical compound

> <ChemNote>
mixture of (R [81-13-0],S)- isomers; structure shown without stereochem

> <STRUCTURE_Shown>
tested chemical

> <STRUCTURE_Formula>
C9H19NO4

> <STRUCTURE_MW>
205.2515

> <STRUCTURE_ChemType>
defined organic

> <STRUCTURE_DefinedOrganicForm>
parent

> <STRUCTURE_IUPAC>
2,4-dihydroxy-N-(3-hydroxypropyl)-3,3-dimethylbutanamide

> <STRUCTURE_SMILES>
CC(C)(CO)C(O)C(=O)NCCCO

> <STRUCTURE_SMILES_Desalt>
CC(C)(CO)C(O)C(=O)NCCCO

> <Substance_modify_yyyymmdd>
20091116

$$$$
