16491-24-0
ChemmineR-0915142007XD

 12 11  0  0  0  0  0  0  0  0  1 V2000
    2.2841   -2.0050    0.0000 C   0  0  0  0  0  0  0  0  0  0  0  0
    2.2841   -3.3279    0.0000 O   0  0  0  0  0  0  0  0  0  0  0  0
    3.4416   -1.3332    0.0000 O   0  0  0  0  0  0  0  0  0  0  0  0
    1.1369   -1.3332    0.0000 C   0  0  0  0  0  0  0  0  0  0  0  0
    0.0000   -2.0050    0.0000 C   0  0  0  0  0  0  0  0  0  0  0  0
    1.1369    0.0000    0.0000 C   0  0  0  0  0  0  0  0  0  0  0  0
    4.5888   -2.0050    0.0000 C   0  0  0  0  0  0  0  0  0  0  0  0
    5.7464   -1.3332    0.0000 C   0  0  0  0  0  0  0  0  0  0  0  0
    6.8936   -2.0050    0.0000 C   0  0  0  0  0  0  0  0  0  0  0  0
    8.0511   -1.3332    0.0000 C   0  0  0  0  0  0  0  0  0  0  0  0
    9.1983   -2.0050    0.0000 C   0  0  0  0  0  0  0  0  0  0  0  0
   10.3352   -1.3332    0.0000 C   0  0  0  0  0  0  0  0  0  0  0  0
  1  2  2  0  0  0  0
  1  3  1  0  0  0  0
  1  4  1  0  0  0  0
  3  7  1  0  0  0  0
  4  5  1  0  0  0  0
  4  6  1  0  0  0  0
  7  8  1  0  0  0  0
  8  9  2  3  0  0  0
  9 10  1  0  0  0  0
 10 11  2  3  0  0  0
 11 12  1  0  0  0  0
M  END
> <ID>
12556

> <Formula>
C10H16O2

> <FW>
168.2328

> <DSSTox_CID>
27414

> <DSSTox_RID>
82328

> <DSSTox_GSID>
47414

> <DSSTox_FileID_Sort>
7009

> <TS_ChemName>
2,4-Hexadienyl isobutyrate

> <TS_ChemName_Synonyms>


> <TS_CASRN>
16491-24-0

> <CASRN_ChemName_Relationship>
primary

> <TS_Description>
single chemical compound

> <ChemNote>
mixture of Z,E isomers

> <STRUCTURE_Shown>
tested chemical

> <STRUCTURE_Formula>
C10H16O2

> <STRUCTURE_MW>
168.2328

> <STRUCTURE_ChemType>
defined organic

> <STRUCTURE_DefinedOrganicForm>
parent

> <STRUCTURE_IUPAC>
hexa-2,4-dien-1-yl 2-methylpropanoate

> <STRUCTURE_SMILES>
O=C(OCC=CC=CC)C(C)C

> <STRUCTURE_SMILES_Desalt>
O=C(OCC=CC=CC)C(C)C

> <Substance_modify_yyyymmdd>
20100618

$$$$
