1649-18-9
ChemmineR-0915142007XD

 24 26  0  0  0  0  0  0  0  0  1 V2000
    0.0000   -4.6560    0.0000 F   0  0  0  0  0  0  0  0  0  0  0  0
    1.1467   -3.9928    0.0000 C   0  0  0  0  0  0  0  0  0  0  0  0
    1.1467   -2.6665    0.0000 C   0  0  0  0  0  0  0  0  0  0  0  0
    2.3073   -2.0033    0.0000 C   0  0  0  0  0  0  0  0  0  0  0  0
    3.4540   -2.6665    0.0000 C   0  0  0  0  0  0  0  0  0  0  0  0
    3.4540   -3.9928    0.0000 C   0  0  0  0  0  0  0  0  0  0  0  0
    2.3073   -4.6560    0.0000 C   0  0  0  0  0  0  0  0  0  0  0  0
    4.6007   -2.0033    0.0000 C   0  0  0  0  0  0  0  0  0  0  0  0
    4.6007   -0.6632    0.0000 O   0  0  0  0  0  0  0  0  0  0  0  0
    5.7612   -2.6665    0.0000 C   0  0  0  0  0  0  0  0  0  0  0  0
    5.7612   -3.9928    0.0000 C   0  0  0  0  0  0  0  0  0  0  0  0
    6.9080   -4.6560    0.0000 C   0  0  0  0  0  0  0  0  0  0  0  0
    8.0547   -3.9928    0.0000 N   0  0  0  0  0  0  0  0  0  0  0  0
    8.0547   -2.6665    0.0000 C   0  0  0  0  0  0  0  0  0  0  0  0
    9.2152   -2.0033    0.0000 C   0  0  0  0  0  0  0  0  0  0  0  0
   10.3619   -2.6665    0.0000 N   0  0  0  0  0  0  0  0  0  0  0  0
   10.3619   -3.9928    0.0000 C   0  0  0  0  0  0  0  0  0  0  0  0
    9.2152   -4.6560    0.0000 C   0  0  0  0  0  0  0  0  0  0  0  0
   11.5087   -2.0033    0.0000 C   0  0  0  0  0  0  0  0  0  0  0  0
   11.5087   -0.6632    0.0000 C   0  0  0  0  0  0  0  0  0  0  0  0
   12.6692    0.0000    0.0000 C   0  0  0  0  0  0  0  0  0  0  0  0
   13.8159   -0.6632    0.0000 C   0  0  0  0  0  0  0  0  0  0  0  0
   13.8159   -2.0033    0.0000 C   0  0  0  0  0  0  0  0  0  0  0  0
   12.6692   -2.6665    0.0000 N   0  0  0  0  0  0  0  0  0  0  0  0
  1  2  1  0  0  0  0
  2  3  2  0  0  0  0
  2  7  1  0  0  0  0
  3  4  1  0  0  0  0
  4  5  2  0  0  0  0
  5  6  1  0  0  0  0
  5  8  1  0  0  0  0
  6  7  2  0  0  0  0
  8  9  2  0  0  0  0
  8 10  1  0  0  0  0
 10 11  1  0  0  0  0
 11 12  1  0  0  0  0
 12 13  1  0  0  0  0
 13 14  1  0  0  0  0
 13 18  1  0  0  0  0
 14 15  1  0  0  0  0
 15 16  1  0  0  0  0
 16 17  1  0  0  0  0
 16 19  1  0  0  0  0
 17 18  1  0  0  0  0
 19 20  2  0  0  0  0
 19 24  1  0  0  0  0
 20 21  1  0  0  0  0
 21 22  2  0  0  0  0
 22 23  1  0  0  0  0
 23 24  2  0  0  0  0
M  END
> <ID>
10896

> <Formula>
C19H22FN3O

> <FW>
327.3959

> <DSSTox_CID>
25361

> <DSSTox_RID>
80826

> <DSSTox_GSID>
45361

> <DSSTox_FileID_Sort>
5507

> <TS_ChemName>
Azaperone

> <TS_ChemName_Synonyms>


> <TS_CASRN>
1649-18-9

> <CASRN_ChemName_Relationship>
primary

> <TS_Description>
single chemical compound

> <ChemNote>


> <STRUCTURE_Shown>
tested chemical

> <STRUCTURE_Formula>
C19H22FN3O

> <STRUCTURE_MW>
327.3959

> <STRUCTURE_ChemType>
defined organic

> <STRUCTURE_DefinedOrganicForm>
parent

> <STRUCTURE_IUPAC>
1-(4-fluorophenyl)-4-[4-(pyridin-2-yl)piperazin-1-yl]butan-1-one

> <STRUCTURE_SMILES>
Fc1ccc(cc1)C(=O)CCCN2CCN(CC2)c3ccccn3

> <STRUCTURE_SMILES_Desalt>
Fc1ccc(cc1)C(=O)CCCN2CCN(CC2)c3ccccn3

> <Substance_modify_yyyymmdd>
20100107

$$$$
