16506-27-7
ChemmineR-0915142007XD

 23 24  0  0  0  0  0  0  0  0  1 V2000
    8.6156   -6.9983    0.0000 C    0  0  0  0  0  0  0  0  0  0  0  0
    8.1862   -5.7246    0.0000 N    0  0  0  0  0  0  0  0  0  0  0  0
    8.9733   -4.6513    0.0000 C    0  0  0  0  0  0  0  0  0  0  0  0
    8.1862   -3.5779    0.0000 N    0  0  0  0  0  0  0  0  0  0  0  0
    6.9411   -3.9929    0.0000 C    0  0  0  0  0  0  0  0  0  0  0  0
    6.9411   -5.3239    0.0000 C    0  0  0  0  0  0  0  0  0  0  0  0
    5.7819   -5.9822    0.0000 C    0  0  0  0  0  0  0  0  0  0  0  0
    4.6226   -5.3239    0.0000 C    0  0  0  0  0  0  0  0  0  0  0  0
    4.6226   -3.9929    0.0000 C    0  0  0  0  0  0  0  0  0  0  0  0
    5.7819   -3.3346    0.0000 C    0  0  0  0  0  0  0  0  0  0  0  0
    3.4634   -3.3346    0.0000 N    0  0  0  0  0  0  0  0  0  0  0  0
    3.4634   -2.0036    0.0000 C    0  0  0  0  0  0  0  0  0  0  0  0
    2.3185   -1.3310    0.0000 C    0  0  0  0  0  0  0  0  0  0  0  0
    2.3185    0.0000    0.0000 Cl   0  0  0  0  0  0  0  0  0  0  0  0
    2.3185   -3.9929    0.0000 C    0  0  0  0  0  0  0  0  0  0  0  0
    1.1592   -3.3346    0.0000 C    0  0  0  0  0  0  0  0  0  0  0  0
    0.0000   -3.9929    0.0000 Cl   0  0  0  0  0  0  0  0  0  0  0  0
   10.3186   -4.6513    0.0000 C    0  0  0  0  0  0  0  0  0  0  0  0
   10.9913   -3.4920    0.0000 C    0  0  0  0  0  0  0  0  0  0  0  0
   12.3222   -3.4920    0.0000 C    0  0  0  0  0  0  0  0  0  0  0  0
   12.9806   -2.3614    0.0000 C    0  0  0  0  0  0  0  0  0  0  0  0
   12.3222   -1.2022    0.0000 O    0  0  0  0  0  0  0  0  0  0  0  0
   14.3115   -2.3614    0.0000 O    0  0  0  0  0  0  0  0  0  0  0  0
  1  2  1  0  0  0  0
  2  3  1  0  0  0  0
  2  6  1  0  0  0  0
  3  4  2  0  0  0  0
  3 18  1  0  0  0  0
  4  5  1  0  0  0  0
  5  6  2  0  0  0  0
  5 10  1  0  0  0  0
  6  7  1  0  0  0  0
  7  8  2  0  0  0  0
  8  9  1  0  0  0  0
  9 10  2  0  0  0  0
  9 11  1  0  0  0  0
 11 12  1  0  0  0  0
 11 15  1  0  0  0  0
 12 13  1  0  0  0  0
 13 14  1  0  0  0  0
 15 16  1  0  0  0  0
 16 17  1  0  0  0  0
 18 19  1  0  0  0  0
 19 20  1  0  0  0  0
 20 21  1  0  0  0  0
 21 22  1  0  0  0  0
 21 23  2  0  0  0  0
M  END
> <ID>
12054

> <Formula>
C16H21Cl2N3O2

> <FW>
358.2628

> <DSSTox_CID>
26888

> <DSSTox_RID>
81991

> <DSSTox_GSID>
46888

> <DSSTox_FileID_Sort>
6672

> <TS_ChemName>
Bendamustine

> <TS_ChemName_Synonyms>


> <TS_CASRN>
16506-27-7

> <CASRN_ChemName_Relationship>
primary

> <TS_Description>
single chemical compound

> <ChemNote>


> <STRUCTURE_Shown>
tested chemical

> <STRUCTURE_Formula>
C16H21Cl2N3O2

> <STRUCTURE_MW>
358.2628

> <STRUCTURE_ChemType>
defined organic

> <STRUCTURE_DefinedOrganicForm>
parent

> <STRUCTURE_IUPAC>
4-{5-[bis(2-chloroethyl)amino]-1-methyl-1H-benzimidazol-2-yl}butanoic acid

> <STRUCTURE_SMILES>
ClCCN(CCCl)c1cc2nc(CCCC(=O)O)n(C)c2cc1

> <STRUCTURE_SMILES_Desalt>
ClCCN(CCCl)c1cc2nc(CCCC(=O)O)n(C)c2cc1

> <Substance_modify_yyyymmdd>
20110727

$$$$
