165108-07-6
ChemmineR-0915142007XD

 60 66  0  0  1  0  0  0  0  0  1 V2000
    0.0000   -1.9832    0.0000 O   0  0  0  0  0  0  0  0  0  0  0  0
    3.4474   -3.9478    0.0000 C   0  0  0  0  0  0  0  0  0  0  0  0
    3.4474   -2.6319    0.0000 C   0  0  0  0  0  0  0  0  0  0  0  0
    2.2983   -4.5780    0.0000 O   0  0  0  0  0  0  0  0  0  0  0  0
    2.2983   -1.9832    0.0000 C   0  0  0  0  0  0  0  0  0  0  0  0
    1.1491   -3.9478    0.0000 C   0  0  0  0  0  0  0  0  0  0  0  0
    1.1491   -2.6319    0.0000 C   0  0  0  0  0  0  0  0  0  0  0  0
    4.8375   -3.9478    0.0000 O   0  0  0  0  0  0  0  0  0  0  0  0
    2.2983   -0.6672    0.0000 O   0  0  0  0  0  0  0  0  0  0  0  0
    0.0000   -4.5780    0.0000 C   0  0  0  0  0  0  0  0  0  0  0  0
    4.2444   -5.0228    0.0000 H   0  0  0  0  0  0  0  0  0  0  0  0
    8.2849   -4.5780    0.0000 C   0  0  0  0  0  0  0  0  0  0  0  0
    7.1357   -3.9478    0.0000 C   0  0  0  0  0  0  0  0  0  0  0  0
    7.1357   -6.5797    0.0000 C   0  0  0  0  0  0  0  0  0  0  0  0
    5.9866   -4.5780    0.0000 C   0  0  0  0  0  0  0  0  0  0  0  0
    5.9866   -5.9125    0.0000 C   0  0  0  0  0  0  0  0  0  0  0  0
    9.3599   -3.9478    0.0000 C   0  0  0  0  0  0  0  0  0  0  0  0
   10.5090   -4.5780    0.0000 C   0  0  0  0  0  0  0  0  0  0  0  0
   10.5090   -5.9125    0.0000 C   0  0  0  0  0  0  0  0  0  0  0  0
   11.6396   -3.9478    0.0000 O   0  0  0  0  0  0  0  0  0  0  0  0
   12.7887   -4.5780    0.0000 C   0  0  0  0  0  0  0  0  0  0  0  0
   11.6396   -6.5797    0.0000 C   0  0  0  0  0  0  0  0  0  0  0  0
   12.7887   -5.9125    0.0000 C   0  0  0  0  0  0  0  0  0  0  0  0
   15.0870   -3.2991    0.0000 C   0  0  0  0  0  0  0  0  0  0  0  0
   15.0870   -4.5780    0.0000 C   0  0  0  0  0  0  0  0  0  0  0  0
   13.9378   -2.6319    0.0000 C   0  0  0  0  0  0  0  0  0  0  0  0
   13.9378   -5.2452    0.0000 O   0  0  0  0  0  0  0  0  0  0  0  0
   12.7887   -3.2991    0.0000 C   0  0  0  0  0  0  0  0  0  0  0  0
    9.3599   -7.8956    0.0000 O   0  0  0  0  0  0  0  0  0  0  0  0
   11.6396   -7.8956    0.0000 O   0  0  0  0  0  0  0  0  0  0  0  0
   10.5090   -8.5443    0.0000 C   0  0  0  0  0  0  0  0  0  0  0  0
    8.2849   -8.5443    0.0000 C   0  0  0  0  0  0  0  0  0  0  0  0
    7.1357   -7.8956    0.0000 C   0  0  0  0  0  0  0  0  0  0  0  0
    8.2849   -9.8232    0.0000 C   0  0  0  0  0  0  0  0  0  0  0  0
   10.5090   -9.8232    0.0000 C   0  0  0  0  0  0  0  0  0  0  0  0
    9.3599  -10.4904    0.0000 C   0  0  0  0  0  0  0  0  0  0  0  0
    7.1357  -10.4904    0.0000 C   0  0  0  0  0  0  0  0  0  0  0  0
    7.1357  -11.8249    0.0000 O   0  0  0  0  0  0  0  0  0  0  0  0
    9.3599  -11.8249    0.0000 C   0  0  0  0  0  0  0  0  0  0  0  0
   11.6396  -10.4904    0.0000 C   0  0  0  0  0  0  0  0  0  0  0  0
   11.6396  -11.8249    0.0000 C   0  0  0  0  0  0  0  0  0  0  0  0
   10.5090  -12.4736    0.0000 C   0  0  0  0  0  0  0  0  0  0  0  0
    4.8375   -6.5797    0.0000 C   0  0  0  0  0  0  0  0  0  0  0  0
    7.1357   -2.6319    0.0000 C   0  0  0  0  0  0  0  0  0  0  0  0
   10.5090   -3.2991    0.0000 H   0  0  0  0  0  0  0  0  0  0  0  0
   16.2361   -2.6319    0.0000 C   0  0  0  0  0  0  0  0  0  0  0  0
   16.2361   -5.2452    0.0000 C   0  0  0  0  0  0  0  0  0  0  0  0
   15.0870   -5.9125    0.0000 H   0  0  0  0  0  0  0  0  0  0  0  0
   11.6396   -9.2116    0.0000 H   0  0  0  0  0  0  0  0  0  0  0  0
   12.7887  -12.4736    0.0000 C   0  0  0  0  0  0  0  0  0  0  0  0
   10.5090  -13.7896    0.0000 N   0  0  0  0  0  0  0  0  0  0  0  0
    9.3599  -13.1409    0.0000 H   0  0  0  0  0  0  0  0  0  0  0  0
    9.3599   -9.2116    0.0000 O   0  0  0  0  0  0  0  0  0  0  0  0
    9.3599  -14.4568    0.0000 O   0  0  0  0  0  0  0  0  0  0  0  0
    3.4474    0.0000    0.0000 C   0  0  0  0  0  0  0  0  0  0  0  0
   17.3852   -4.5780    0.0000 C   0  0  0  0  0  0  0  0  0  0  0  0
   16.2361   -6.5797    0.0000 C   0  0  0  0  0  0  0  0  0  0  0  0
   18.5344   -5.2452    0.0000 C   0  0  0  0  0  0  0  0  0  0  0  0
   17.3852   -7.2284    0.0000 C   0  0  0  0  0  0  0  0  0  0  0  0
   18.5344   -6.5797    0.0000 C   0  0  0  0  0  0  0  0  0  0  0  0
  7  1  1  6  0  0  0
  2  3  1  0  0  0  0
  2  4  1  0  0  0  0
  2  8  1  0  0  0  0
  2 11  1  1  0  0  0
  3  5  1  0  0  0  0
  4  6  1  0  0  0  0
  5  7  1  0  0  0  0
  5  9  1  1  0  0  0
  6  7  1  0  0  0  0
  6 10  1  1  0  0  0
 15  8  1  6  0  0  0
  9 55  1  0  0  0  0
 12 13  2  0  0  0  0
 12 17  1  0  0  0  0
 13 15  1  0  0  0  0
 13 44  1  0  0  0  0
 14 16  1  0  0  0  0
 14 33  2  0  0  0  0
 15 16  1  0  0  0  0
 16 43  1  6  0  0  0
 17 18  1  0  0  0  0
 18 20  1  0  0  0  0
 18 19  1  0  0  0  0
 18 45  1  6  0  0  0
 19 22  1  0  0  0  0
 20 21  1  0  0  0  0
 21 23  1  0  0  0  0
 21 27  1  6  0  0  0
 21 28  1  1  0  0  0
 22 23  1  0  0  0  0
 22 30  1  1  0  0  0
 24 25  1  0  0  0  0
 24 26  1  0  0  0  0
 24 46  1  6  0  0  0
 25 27  1  0  0  0  0
 25 47  1  0  0  0  0
 25 48  1  6  0  0  0
 26 28  1  0  0  0  0
 29 31  2  0  0  0  0
 30 31  1  0  0  0  0
 31 35  1  0  0  0  0
 32 33  1  0  0  0  0
 32 34  2  0  0  0  0
 34 37  1  0  0  0  0
 34 36  1  0  0  0  0
 35 40  1  0  0  0  0
 35 36  1  0  0  0  0
 35 49  1  1  0  0  0
 36 39  1  0  0  0  0
 36 53  1  6  0  0  0
 37 38  1  0  0  0  0
 38 39  1  0  0  0  0
 39 42  1  0  0  0  0
 39 52  1  6  0  0  0
 40 41  2  0  0  0  0
 41 42  1  0  0  0  0
 41 50  1  0  0  0  0
 42 51  2  0  0  0  0
 47 56  1  0  0  0  0
 47 57  1  0  0  0  0
 51 54  1  0  0  0  0
 56 58  1  0  0  0  0
 57 59  1  0  0  0  0
 58 60  1  0  0  0  0
 59 60  1  0  0  0  0
M  END
> <ID>
11283

> <Formula>
C43H63NO11

> <FW>
769.9604

> <DSSTox_CID>
25903

> <DSSTox_RID>
81215

> <DSSTox_GSID>
45903

> <DSSTox_FileID_Sort>
5896

> <TS_ChemName>
Selamectin

> <TS_ChemName_Synonyms>


> <TS_CASRN>
165108-07-6

> <CASRN_ChemName_Relationship>
primary

> <TS_Description>
single chemical compound

> <ChemNote>
stereochem; tautomers

> <STRUCTURE_Shown>
tested chemical

> <STRUCTURE_Formula>
C43H63NO11

> <STRUCTURE_MW>
769.9604

> <STRUCTURE_ChemType>
defined organic

> <STRUCTURE_DefinedOrganicForm>
parent

> <STRUCTURE_IUPAC>
(2aE,4E,5'S,6S,6'S,7S,8E,11R,13R,15S,17aR,20Z,20aR,20bS)-6'-cyclohexyl-20b-hydroxy-20-(hydroxyimino)-5',6,8,19-tetramethyl-17-oxo-3',4',5',6,6',10,11,14,15,17,17a,20,20a,20b-tetradecahydro-2H,7H-spiro[11,15-methanofuro[4,3,2-pq][2,6]benzodioxacyclooctadec

> <STRUCTURE_SMILES>
CO[C@H]1C[C@@H](O[C@@H](C)[C@@H]1O)O[C@@H]2C(C)=CC[C@@H]5C[C@H](OC(=O)[C@@H]3C=C(C)\C(=N\O)[C@H]4OCC(=CC=C[C@@H]2C)[C@@]34O)C[C@@]6(O5)CC[C@H](C)[C@H](O6)C7CCCCC7

> <STRUCTURE_SMILES_Desalt>
CO[C@H]1C[C@@H](O[C@@H](C)[C@@H]1O)O[C@@H]2C(C)=CC[C@@H]5C[C@H](OC(=O)[C@@H]3C=C(C)\C(=N\O)[C@H]4OCC(=CC=C[C@@H]2C)[C@@]34O)C[C@@]6(O5)CC[C@H](C)[C@H](O6)C7CCCCC7

> <Substance_modify_yyyymmdd>
20110922

$$$$
