16543-10-5
ChemmineR-0915142007XD

 19 20  0  0  0  0  0  0  0  0  1 V2000
    7.4401   -1.3243    0.0000 N   0  0  0  0  0  0  0  0  0  0  0  0
    6.2869   -1.9865    0.0000 N   0  0  0  0  0  0  0  0  0  0  0  0
    5.1411   -1.3243    0.0000 C   0  0  0  0  0  0  0  0  0  0  0  0
    5.1411    0.0000    0.0000 O   0  0  0  0  0  0  0  0  0  0  0  0
    3.9879   -1.9865    0.0000 C   0  0  0  0  0  0  0  0  0  0  0  0
    3.9879   -3.3183    0.0000 P   0  0  0  0  0  0  0  0  0  0  0  0
    5.3197   -3.3183    0.0000 O   0  0  0  0  0  0  0  0  0  0  0  0
    3.9879   -4.6501    0.0000 C   0  0  0  0  0  0  0  0  0  0  0  0
    5.1411   -5.3122    0.0000 C   0  0  0  0  0  0  0  0  0  0  0  0
    5.1411   -6.6440    0.0000 C   0  0  0  0  0  0  0  0  0  0  0  0
    3.9879   -7.3062    0.0000 C   0  0  0  0  0  0  0  0  0  0  0  0
    2.8347   -6.6440    0.0000 C   0  0  0  0  0  0  0  0  0  0  0  0
    2.8347   -5.3122    0.0000 C   0  0  0  0  0  0  0  0  0  0  0  0
    2.6561   -3.3183    0.0000 C   0  0  0  0  0  0  0  0  0  0  0  0
    1.9940   -4.4715    0.0000 C   0  0  0  0  0  0  0  0  0  0  0  0
    0.6622   -4.4715    0.0000 C   0  0  0  0  0  0  0  0  0  0  0  0
    0.0000   -3.3183    0.0000 C   0  0  0  0  0  0  0  0  0  0  0  0
    0.6622   -2.1651    0.0000 C   0  0  0  0  0  0  0  0  0  0  0  0
    1.9940   -2.1651    0.0000 C   0  0  0  0  0  0  0  0  0  0  0  0
  1  2  1  0  0  0  0
  2  3  1  0  0  0  0
  3  4  2  0  0  0  0
  3  5  1  0  0  0  0
  5  6  1  0  0  0  0
  6  7  2  0  0  0  0
  6  8  1  0  0  0  0
  6 14  1  0  0  0  0
  8  9  2  0  0  0  0
  8 13  1  0  0  0  0
  9 10  1  0  0  0  0
 10 11  2  0  0  0  0
 11 12  1  0  0  0  0
 12 13  2  0  0  0  0
 14 15  2  0  0  0  0
 14 19  1  0  0  0  0
 15 16  1  0  0  0  0
 16 17  2  0  0  0  0
 17 18  1  0  0  0  0
 18 19  2  0  0  0  0
M  END
> <ID>
11486

> <Formula>
C14H15N2O2P

> <FW>
274.2549

> <DSSTox_CID>
26188

> <DSSTox_RID>
81419

> <DSSTox_GSID>
46188

> <DSSTox_FileID_Sort>
6100

> <TS_ChemName>
Fosenazide

> <TS_ChemName_Synonyms>


> <TS_CASRN>
16543-10-5

> <CASRN_ChemName_Relationship>
primary

> <TS_Description>
single chemical compound

> <ChemNote>


> <STRUCTURE_Shown>
tested chemical

> <STRUCTURE_Formula>
C14H15N2O2P

> <STRUCTURE_MW>
274.2549

> <STRUCTURE_ChemType>
defined organic

> <STRUCTURE_DefinedOrganicForm>
parent

> <STRUCTURE_IUPAC>
2-(diphenylphosphoryl)acetohydrazide

> <STRUCTURE_SMILES>
O=P(CC(=O)NN)(c1ccccc1)c2ccccc2

> <STRUCTURE_SMILES_Desalt>
O=P(CC(=O)NN)(c1ccccc1)c2ccccc2

> <Substance_modify_yyyymmdd>
20110818

$$$$
