165800-03-3
ChemmineR-0915142007XD

 24 26  0  0  1  0  0  0  0  0  1 V2000
    8.7820   -1.2776    0.0000 C   0  0  0  0  0  0  0  0  0  0  0  0
    7.9890   -2.3644    0.0000 N   0  0  0  0  0  0  0  0  0  0  0  0
   10.0449   -1.6888    0.0000 O   0  0  0  0  0  0  0  0  0  0  0  0
    6.6673   -2.3644    0.0000 C   0  0  0  0  0  0  0  0  0  0  0  0
    3.9945   -2.3644    0.0000 C   0  0  0  0  0  0  0  0  0  0  0  0
    6.0064   -1.2042    0.0000 C   0  0  0  0  0  0  0  0  0  0  0  0
    4.6553   -1.2042    0.0000 C   0  0  0  0  0  0  0  0  0  0  0  0
    2.6728   -2.3644    0.0000 N   0  0  0  0  0  0  0  0  0  0  0  0
   10.0449   -3.0252    0.0000 C   0  0  0  0  0  0  0  0  0  0  0  0
    8.7820   -3.4364    0.0000 C   0  0  0  0  0  0  0  0  0  0  0  0
    4.6553   -3.4952    0.0000 C   0  0  0  0  0  0  0  0  0  0  0  0
    8.3561    0.0000    0.0000 O   0  0  0  0  0  0  0  0  0  0  0  0
   13.5401   -3.6127    0.0000 C   0  0  0  0  0  0  0  0  0  0  0  0
    6.0064   -3.4952    0.0000 C   0  0  0  0  0  0  0  0  0  0  0  0
   12.3799   -2.9518    0.0000 N   0  0  0  0  0  0  0  0  0  0  0  0
   14.6856   -2.9518    0.0000 O   0  0  0  0  0  0  0  0  0  0  0  0
    0.0000   -2.3644    0.0000 O   0  0  0  0  0  0  0  0  0  0  0  0
   11.2198   -3.6127    0.0000 C   0  0  0  0  0  0  0  0  0  0  0  0
    3.9945   -0.0441    0.0000 F   0  0  0  0  0  0  0  0  0  0  0  0
    1.9826   -1.2042    0.0000 C   0  0  0  0  0  0  0  0  0  0  0  0
    1.9826   -3.4952    0.0000 C   0  0  0  0  0  0  0  0  0  0  0  0
   13.5401   -4.9344    0.0000 C   0  0  0  0  0  0  0  0  0  0  0  0
    0.6609   -3.4952    0.0000 C   0  0  0  0  0  0  0  0  0  0  0  0
    0.6609   -1.2042    0.0000 C   0  0  0  0  0  0  0  0  0  0  0  0
  1  2  1  0  0  0  0
  1  3  1  0  0  0  0
  1 12  2  0  0  0  0
  2  4  1  0  0  0  0
  2 10  1  0  0  0  0
  3  9  1  0  0  0  0
  4  6  2  0  0  0  0
  4 14  1  0  0  0  0
  5 11  1  0  0  0  0
  5  8  1  0  0  0  0
  5  7  2  0  0  0  0
  6  7  1  0  0  0  0
  7 19  1  0  0  0  0
  8 20  1  0  0  0  0
  8 21  1  0  0  0  0
  9 18  1  1  0  0  0
  9 10  1  0  0  0  0
 11 14  2  0  0  0  0
 13 15  1  0  0  0  0
 13 16  2  0  0  0  0
 13 22  1  0  0  0  0
 15 18  1  0  0  0  0
 17 23  1  0  0  0  0
 17 24  1  0  0  0  0
 20 24  1  0  0  0  0
 21 23  1  0  0  0  0
M  END
> <ID>
11726

> <Formula>
C16H20FN3O4

> <FW>
337.3461

> <DSSTox_CID>
26489

> <DSSTox_RID>
81660

> <DSSTox_GSID>
46489

> <DSSTox_FileID_Sort>
6341

> <TS_ChemName>
Linezolid

> <TS_ChemName_Synonyms>


> <TS_CASRN>
165800-03-3

> <CASRN_ChemName_Relationship>
primary

> <TS_Description>
single chemical compound

> <ChemNote>
stereochem

> <STRUCTURE_Shown>
tested chemical

> <STRUCTURE_Formula>
C16H20FN3O4

> <STRUCTURE_MW>
337.3461

> <STRUCTURE_ChemType>
defined organic

> <STRUCTURE_DefinedOrganicForm>
parent

> <STRUCTURE_IUPAC>
N-({(5S)-3-[3-fluoro-4-(morpholin-4-yl)phenyl]-2-oxo-1,3-oxazolidin-5-yl}methyl)acetamide

> <STRUCTURE_SMILES>
CC(=O)NC[C@@H]1OC(=O)N(C1)c2cc(F)c(cc2)N3CCOCC3

> <STRUCTURE_SMILES_Desalt>
CC(=O)NC[C@@H]1OC(=O)N(C1)c2cc(F)c(cc2)N3CCOCC3

> <Substance_modify_yyyymmdd>
20110512

$$$$
