16588-34-4
ChemmineR-0915142007XD

 12 12  0  0  0  0  0  0  0  0  2 V2000
    5.7692   -1.3327    0.0000 C    0  0  0  0  0  0  0  0  0  0  0  0
    5.7692    0.0000    0.0000 O    0  0  0  0  0  0  0  0  0  0  0  0
    4.6096   -1.9961    0.0000 C    0  0  0  0  0  0  0  0  0  0  0  0
    3.4730   -1.3327    0.0000 C    0  0  0  0  0  0  0  0  0  0  0  0
    4.6096   -3.3288    0.0000 C    0  0  0  0  0  0  0  0  0  0  0  0
    2.3134   -1.9961    0.0000 C    0  0  0  0  0  0  0  0  0  0  0  0
    3.4730   -3.9865    0.0000 C    0  0  0  0  0  0  0  0  0  0  0  0
    2.3134   -3.3288    0.0000 C    0  0  0  0  0  0  0  0  0  0  0  0
    1.1596   -3.9865    0.0000 Cl   0  0  0  0  0  0  0  0  0  0  0  0
    1.1596   -1.3327    0.0000 N    0  3  0  0  0  0  0  0  0  0  0  0
    0.0000   -1.9961    0.0000 O    0  5  0  0  0  0  0  0  0  0  0  0
    1.1596    0.0000    0.0000 O    0  0  0  0  0  0  0  0  0  0  0  0
  1  2  2  0  0  0  0
  1  3  1  0  0  0  0
  3  4  2  0  0  0  0
  3  5  1  0  0  0  0
  4  6  1  0  0  0  0
  5  7  2  0  0  0  0
  6  8  2  0  0  0  0
  6 10  1  0  0  0  0
  7  8  1  0  0  0  0
  8  9  1  0  0  0  0
 10 11  1  0  0  0  0
 10 12  2  0  0  0  0
M  END
> <ID>
10493

> <Formula>
C7H4ClNO3

> <FW>
185.5646

> <DSSTox_CID>
24846

> <DSSTox_RID>
80526

> <DSSTox_GSID>
44846

> <DSSTox_FileID_Sort>
5208

> <TS_ChemName>
4-Chloro-3-nitrobenzaldehyde

> <TS_ChemName_Synonyms>
4-Chloro-3-nitrobenzaldehyde (Benzaldehyde, 4-chloro-3-nitro-)

> <TS_CASRN>
16588-34-4

> <CASRN_ChemName_Relationship>
primary

> <TS_Description>
single chemical compound

> <ChemNote>


> <STRUCTURE_Shown>
tested chemical

> <STRUCTURE_Formula>
C7H4ClNO3

> <STRUCTURE_MW>
185.5646

> <STRUCTURE_ChemType>
defined organic

> <STRUCTURE_DefinedOrganicForm>
parent

> <STRUCTURE_IUPAC>
4-chloro-3-nitrobenzaldehyde

> <STRUCTURE_SMILES>
O=[N+]([O-])c1cc(ccc1Cl)C=O

> <STRUCTURE_SMILES_Desalt>
O=[N+]([O-])c1cc(ccc1Cl)C=O

> <Substance_modify_yyyymmdd>
20091116

$$$$
