16590-41-3
ChemmineR-0915142007XD

 26 31  0  0  1  0  0  0  0  0  1 V2000
    2.2774   -3.9622    0.0000 C   0  0  0  0  0  0  0  0  0  0  0  0
    3.3611   -4.6056    0.0000 C   0  0  0  0  0  0  0  0  0  0  0  0
    2.2774   -2.6330    0.0000 C   0  0  0  0  0  0  0  0  0  0  0  0
    1.1514   -4.6225    0.0000 C   0  0  0  0  0  0  0  0  0  0  0  0
    1.1514   -2.0149    0.0000 C   0  0  0  0  0  0  0  0  0  0  0  0
    0.3640   -3.2679    0.0000 O   0  0  0  0  0  0  0  0  0  0  0  0
    4.5294   -3.9622    0.0000 C   0  0  0  0  0  0  0  0  0  0  0  0
    5.1644   -4.5633    0.0000 N   0  0  0  0  0  0  0  0  0  0  0  0
    3.3611   -2.0065    0.0000 C   0  0  0  0  0  0  0  0  0  0  0  0
    4.5294   -2.6330    0.0000 C   0  0  0  0  0  0  0  0  0  0  0  0
    2.2774   -5.2744    0.0000 C   0  0  0  0  0  0  0  0  0  0  0  0
    3.3611   -5.9178    0.0000 C   0  0  0  0  0  0  0  0  0  0  0  0
    1.1514   -5.9686    0.0000 C   0  0  0  0  0  0  0  0  0  0  0  0
    6.4258   -4.5633    0.0000 C   0  0  0  0  0  0  0  0  0  0  0  0
    1.1514   -0.6773    0.0000 C   0  0  0  0  0  0  0  0  0  0  0  0
    4.7834   -5.2744    0.0000 C   0  0  0  0  0  0  0  0  0  0  0  0
    7.2216   -3.7759    0.0000 C   0  0  0  0  0  0  0  0  0  0  0  0
    8.4662   -3.0478    0.0000 C   0  0  0  0  0  0  0  0  0  0  0  0
    7.2216   -2.3367    0.0000 C   0  0  0  0  0  0  0  0  0  0  0  0
    3.3611   -0.6773    0.0000 C   0  0  0  0  0  0  0  0  0  0  0  0
    2.2774   -6.5867    0.0000 C   0  0  0  0  0  0  0  0  0  0  0  0
    3.3611   -3.3441    0.0000 O   0  0  0  0  0  0  0  0  0  0  0  0
    0.0339   -6.6629    0.0000 O   0  0  0  0  0  0  0  0  0  0  0  0
    2.2774   -0.0254    0.0000 C   0  0  0  0  0  0  0  0  0  0  0  0
    0.0000    0.0000    0.0000 O   0  0  0  0  0  0  0  0  0  0  0  0
    5.5453   -3.3103    0.0000 H   0  0  0  0  0  0  0  0  0  0  0  0
  1  2  1  0  0  0  0
  1  3  1  0  0  0  0
  1  4  1  0  0  0  0
  1 11  1  1  0  0  0
  2  7  1  0  0  0  0
  2 12  1  0  0  0  0
  2 22  1  1  0  0  0
  3  5  1  0  0  0  0
  3  9  2  0  0  0  0
  4  6  1  6  0  0  0
  4 13  1  0  0  0  0
  5 15  2  0  0  0  0
  5  6  1  0  0  0  0
  7 26  1  6  0  0  0
  7  8  1  1  0  0  0
  7 10  1  0  0  0  0
  8 16  1  0  0  0  0
  8 14  1  0  0  0  0
  9 10  1  0  0  0  0
  9 20  1  0  0  0  0
 11 16  1  0  0  0  0
 12 21  1  0  0  0  0
 13 21  1  0  0  0  0
 13 23  2  0  0  0  0
 14 17  1  0  0  0  0
 15 25  1  0  0  0  0
 15 24  1  0  0  0  0
 17 18  1  0  0  0  0
 17 19  1  0  0  0  0
 18 19  1  0  0  0  0
 20 24  2  0  0  0  0
M  END
> <ID>
11599

> <Formula>
C20H23NO4

> <FW>
341.4009

> <DSSTox_CID>
26313

> <DSSTox_RID>
81532

> <DSSTox_GSID>
46313

> <DSSTox_FileID_Sort>
6213

> <TS_ChemName>
Naltrexone

> <TS_ChemName_Synonyms>


> <TS_CASRN>
16590-41-3

> <CASRN_ChemName_Relationship>
primary

> <TS_Description>
single chemical compound

> <ChemNote>
stereochem; tautomers

> <STRUCTURE_Shown>
tested chemical

> <STRUCTURE_Formula>
C20H23NO4

> <STRUCTURE_MW>
341.4009

> <STRUCTURE_ChemType>
defined organic

> <STRUCTURE_DefinedOrganicForm>
parent

> <STRUCTURE_IUPAC>
(5alpha)-17-(cyclopropylmethyl)-3,14-dihydroxy-4,5-epoxymorphinan-6-one

> <STRUCTURE_SMILES>
O=C1CC[C@@]6(O)[C@H]3Cc5ccc(O)c4O[C@@H]1[C@]6(CCN3CC2CC2)c45

> <STRUCTURE_SMILES_Desalt>
O=C1CC[C@@]6(O)[C@H]3Cc5ccc(O)c4O[C@@H]1[C@]6(CCN3CC2CC2)c45

> <Substance_modify_yyyymmdd>
20110815

$$$$
