16595-80-5
ChemmineR-0915142007XD

 15 16  0  0  1  0  0  0  0  0  1 V2000
    2.0382   -0.4853    0.0000 C    0  0  0  0  0  0  0  0  0  0  0  0
    3.3323   -0.0647    0.0000 N    0  0  0  0  0  0  0  0  0  0  0  0
    2.0382   -1.8198    0.0000 N    0  0  0  0  0  0  0  0  0  0  0  0
    4.1168   -1.1242    0.0000 C    0  0  0  0  0  0  0  0  0  0  0  0
    3.3323   -2.2161    0.0000 C    0  0  0  0  0  0  0  0  0  0  0  0
    0.7684   -0.0647    0.0000 S    0  0  0  0  0  0  0  0  0  0  0  0
    5.4513   -1.1242    0.0000 C    0  0  0  0  0  0  0  0  0  0  0  0
    0.7684   -2.2161    0.0000 C    0  0  0  0  0  0  0  0  0  0  0  0
    0.0000   -1.1242    0.0000 C    0  0  0  0  0  0  0  0  0  0  0  0
    6.0903    0.0000    0.0000 C    0  0  0  0  0  0  0  0  0  0  0  0
    6.0903   -2.2808    0.0000 C    0  0  0  0  0  0  0  0  0  0  0  0
    7.4248   -2.2808    0.0000 C    0  0  0  0  0  0  0  0  0  0  0  0
    7.4248    0.0000    0.0000 C    0  0  0  0  0  0  0  0  0  0  0  0
    8.0880   -1.1242    0.0000 C    0  0  0  0  0  0  0  0  0  0  0  0
    4.7558   -2.7661    0.0000 Cl   0  0  0  0  0  0  0  0  0  0  0  0
  1  2  2  0  0  0  0
  1  3  1  0  0  0  0
  1  6  1  0  0  0  0
  2  4  1  0  0  0  0
  3  5  1  0  0  0  0
  3  8  1  0  0  0  0
  4  7  1  1  0  0  0
  4  5  1  0  0  0  0
  6  9  1  0  0  0  0
  7 10  2  0  0  0  0
  7 11  1  0  0  0  0
  8  9  1  0  0  0  0
 10 13  1  0  0  0  0
 11 12  2  0  0  0  0
 12 14  1  0  0  0  0
 13 14  2  0  0  0  0
M  END
> <ID>
12643

> <Formula>
C11H13ClN2S

> <FW>
240.7523 (204.2914+36.4609)

> <DSSTox_CID>
27518

> <DSSTox_RID>
82391

> <DSSTox_GSID>
47518

> <DSSTox_FileID_Sort>
7072

> <TS_ChemName>
Levamisole hydrochloride

> <TS_ChemName_Synonyms>
Levamisole HCl

> <TS_CASRN>
16595-80-5

> <CASRN_ChemName_Relationship>
primary

> <TS_Description>
single chemical compound

> <ChemNote>
stereochem; parent [14769-73-4]

> <STRUCTURE_Shown>
tested chemical

> <STRUCTURE_Formula>
C11H13ClN2S

> <STRUCTURE_MW>
240.7523

> <STRUCTURE_ChemType>
defined organic

> <STRUCTURE_DefinedOrganicForm>
complex

> <STRUCTURE_IUPAC>
(6S)-6-phenyl-2,3,5,6-tetrahydroimidazo[2,1-b][1,3]thiazole hydrochloride (1:1)

> <STRUCTURE_SMILES>
Cl.N1=C3SCCN3C[C@@H]1c2ccccc2

> <STRUCTURE_SMILES_Desalt>
N1=C3SCCN3C[C@@H]1c2ccccc2

> <Substance_modify_yyyymmdd>
20100810

$$$$
