1660-95-3
ChemmineR-0915142007XD

 21 20  0  0  0  0  0  0  0  0  1 V2000
    5.3363   -2.3121    0.0000 P   0  0  0  0  0  0  0  0  0  0  0  0
    4.1762   -1.6321    0.0000 O   0  0  0  0  0  0  0  0  0  0  0  0
    6.4723   -2.9682    0.0000 O   0  0  0  0  0  0  0  0  0  0  0  0
    5.9923   -1.1521    0.0000 O   0  0  0  0  0  0  0  0  0  0  0  0
    3.3442   -3.4482    0.0000 P   0  0  0  0  0  0  0  0  0  0  0  0
    3.3442   -2.1201    0.0000 O   0  0  0  0  0  0  0  0  0  0  0  0
    3.3442   -4.7843    0.0000 O   0  0  0  0  0  0  0  0  0  0  0  0
    2.0081   -3.4482    0.0000 O   0  0  0  0  0  0  0  0  0  0  0  0
    4.6562   -3.4482    0.0000 C   0  0  0  0  0  0  0  0  0  0  0  0
    2.1841   -5.4403    0.0000 C   0  0  0  0  0  0  0  0  0  0  0  0
    1.0321   -4.7843    0.0000 C   0  0  0  0  0  0  0  0  0  0  0  0
    2.1841   -6.7764    0.0000 C   0  0  0  0  0  0  0  0  0  0  0  0
    1.3361   -2.3121    0.0000 C   0  0  0  0  0  0  0  0  0  0  0  0
    2.0081   -1.1521    0.0000 C   0  0  0  0  0  0  0  0  0  0  0  0
    0.0000   -2.3121    0.0000 C   0  0  0  0  0  0  0  0  0  0  0  0
    7.3284   -1.1521    0.0000 C   0  0  0  0  0  0  0  0  0  0  0  0
    8.0004   -2.3121    0.0000 C   0  0  0  0  0  0  0  0  0  0  0  0
    7.9844    0.0000    0.0000 C   0  0  0  0  0  0  0  0  0  0  0  0
    6.4723   -4.2882    0.0000 C   0  0  0  0  0  0  0  0  0  0  0  0
    5.3363   -4.9603    0.0000 C   0  0  0  0  0  0  0  0  0  0  0  0
    7.6324   -4.9603    0.0000 C   0  0  0  0  0  0  0  0  0  0  0  0
  1  2  2  0  0  0  0
  1  3  1  0  0  0  0
  1  4  1  0  0  0  0
  1  9  1  0  0  0  0
  3 19  1  0  0  0  0
  4 16  1  0  0  0  0
  5  6  2  0  0  0  0
  5  7  1  0  0  0  0
  5  8  1  0  0  0  0
  5  9  1  0  0  0  0
  7 10  1  0  0  0  0
  8 13  1  0  0  0  0
 10 11  1  0  0  0  0
 10 12  1  0  0  0  0
 13 14  1  0  0  0  0
 13 15  1  0  0  0  0
 16 17  1  0  0  0  0
 16 18  1  0  0  0  0
 19 20  1  0  0  0  0
 19 21  1  0  0  0  0
M  END
> <ID>
10494

> <Formula>
C13H30O6P2

> <FW>
344.3212

> <DSSTox_CID>
24847

> <DSSTox_RID>
80527

> <DSSTox_GSID>
44847

> <DSSTox_FileID_Sort>
5209

> <TS_ChemName>
Tetraisopropyl methylenediphosphonate

> <TS_ChemName_Synonyms>
Tetrapropan-2-yl methanediylbis(phosphonate) (Phosphonic acid, methylenebis-, tetrakis(1-methylethyl) ester)

> <TS_CASRN>
1660-95-3

> <CASRN_ChemName_Relationship>
primary

> <TS_Description>
single chemical compound

> <ChemNote>


> <STRUCTURE_Shown>
tested chemical

> <STRUCTURE_Formula>
C13H30O6P2

> <STRUCTURE_MW>
344.3212

> <STRUCTURE_ChemType>
defined organic

> <STRUCTURE_DefinedOrganicForm>
parent

> <STRUCTURE_IUPAC>
tetrapropan-2-yl methanediylbis(phosphonate)

> <STRUCTURE_SMILES>
O=P(CP(=O)(OC(C)C)OC(C)C)(OC(C)C)OC(C)C

> <STRUCTURE_SMILES_Desalt>
O=P(CP(=O)(OC(C)C)OC(C)C)(OC(C)C)OC(C)C

> <Substance_modify_yyyymmdd>
20091116

$$$$
