1663-39-4
ChemmineR-0915142007XD

  9  8  0  0  0  0  0  0  0  0  1 V2000
    3.4509   -1.3286    0.0000 C   0  0  0  0  0  0  0  0  0  0  0  0
    4.6012   -2.0015    0.0000 C   0  0  0  0  0  0  0  0  0  0  0  0
    5.7515   -1.3286    0.0000 C   0  0  0  0  0  0  0  0  0  0  0  0
    3.4509    0.0000    0.0000 O   0  0  0  0  0  0  0  0  0  0  0  0
    2.3006   -2.0015    0.0000 O   0  0  0  0  0  0  0  0  0  0  0  0
    1.1503   -1.3286    0.0000 C   0  0  0  0  0  0  0  0  0  0  0  0
    0.4946   -2.4789    0.0000 C   0  0  0  0  0  0  0  0  0  0  0  0
    1.8232   -0.1783    0.0000 C   0  0  0  0  0  0  0  0  0  0  0  0
    0.0000   -0.6729    0.0000 C   0  0  0  0  0  0  0  0  0  0  0  0
  1  2  1  0  0  0  0
  1  5  1  0  0  0  0
  1  4  2  0  0  0  0
  2  3  2  0  0  0  0
  5  6  1  0  0  0  0
  6  7  1  0  0  0  0
  6  8  1  0  0  0  0
  6  9  1  0  0  0  0
M  END
> <ID>
6102

> <Formula>
C7H12O2

> <FW>
128.169

> <DSSTox_CID>
9652

> <DSSTox_RID>
78796

> <DSSTox_GSID>
29652

> <DSSTox_FileID_Sort>
3478

> <TS_ChemName>
tert-Butyl acrylate

> <TS_ChemName_Synonyms>
tert-Butyl acrylate (2-Propenoic acid, 1,1-dimethylethyl ester)

> <TS_CASRN>
1663-39-4

> <CASRN_ChemName_Relationship>
primary

> <TS_Description>
single chemical compound

> <ChemNote>


> <STRUCTURE_Shown>
tested chemical

> <STRUCTURE_Formula>
C7H12O2

> <STRUCTURE_MW>
128.169

> <STRUCTURE_ChemType>
defined organic

> <STRUCTURE_DefinedOrganicForm>
parent

> <STRUCTURE_IUPAC>
tert-butyl prop-2-enoate

> <STRUCTURE_SMILES>
C=CC(=O)OC(C)(C)C

> <STRUCTURE_SMILES_Desalt>
C=CC(=O)OC(C)(C)C

> <Substance_modify_yyyymmdd>
20080429

$$$$
