166412-78-8
ChemmineR-0915142007XD

 30 30  0  0  0  0  0  0  0  0  1 V2000
    2.3092   -2.0050    0.0000 C   0  0  0  0  0  0  0  0  0  0  0  0
    2.3092   -3.3324    0.0000 C   0  0  0  0  0  0  0  0  0  0  0  0
    1.1477   -1.3274    0.0000 C   0  0  0  0  0  0  0  0  0  0  0  0
    1.1477   -3.9961    0.0000 C   0  0  0  0  0  0  0  0  0  0  0  0
    0.0000   -2.0050    0.0000 C   0  0  0  0  0  0  0  0  0  0  0  0
    0.0000   -3.3324    0.0000 C   0  0  0  0  0  0  0  0  0  0  0  0
    3.4569   -1.3274    0.0000 C   0  0  0  0  0  0  0  0  0  0  0  0
    4.6184   -1.9911    0.0000 O   0  0  0  0  0  0  0  0  0  0  0  0
    5.7660   -1.3274    0.0000 C   0  0  0  0  0  0  0  0  0  0  0  0
    3.4569    0.0000    0.0000 O   0  0  0  0  0  0  0  0  0  0  0  0
    6.8999   -1.9911    0.0000 C   0  0  0  0  0  0  0  0  0  0  0  0
    8.0614   -1.3274    0.0000 C   0  0  0  0  0  0  0  0  0  0  0  0
    9.2091   -1.9911    0.0000 C   0  0  0  0  0  0  0  0  0  0  0  0
   10.3706   -1.3274    0.0000 C   0  0  0  0  0  0  0  0  0  0  0  0
   11.5182   -1.9911    0.0000 C   0  0  0  0  0  0  0  0  0  0  0  0
   12.6797   -1.3274    0.0000 C   0  0  0  0  0  0  0  0  0  0  0  0
   13.8274   -1.9911    0.0000 C   0  0  0  0  0  0  0  0  0  0  0  0
   12.6797    0.0000    0.0000 C   0  0  0  0  0  0  0  0  0  0  0  0
    3.4569   -3.9961    0.0000 C   0  0  0  0  0  0  0  0  0  0  0  0
    3.4569   -5.3236    0.0000 O   0  0  0  0  0  0  0  0  0  0  0  0
    4.6184   -3.3324    0.0000 O   0  0  0  0  0  0  0  0  0  0  0  0
    5.7660   -3.9961    0.0000 C   0  0  0  0  0  0  0  0  0  0  0  0
    6.8999   -3.3324    0.0000 C   0  0  0  0  0  0  0  0  0  0  0  0
    8.0614   -3.9961    0.0000 C   0  0  0  0  0  0  0  0  0  0  0  0
    9.2091   -3.3324    0.0000 C   0  0  0  0  0  0  0  0  0  0  0  0
   10.3706   -3.9961    0.0000 C   0  0  0  0  0  0  0  0  0  0  0  0
   11.5182   -3.3324    0.0000 C   0  0  0  0  0  0  0  0  0  0  0  0
   12.6797   -3.9961    0.0000 C   0  0  0  0  0  0  0  0  0  0  0  0
   13.8274   -3.3324    0.0000 C   0  0  0  0  0  0  0  0  0  0  0  0
   12.6797   -5.3236    0.0000 C   0  0  0  0  0  0  0  0  0  0  0  0
  1  2  1  0  0  0  0
  1  3  1  0  0  0  0
  1  7  1  0  0  0  0
  2  4  1  0  0  0  0
  2 19  1  0  0  0  0
  3  5  1  0  0  0  0
  4  6  1  0  0  0  0
  5  6  1  0  0  0  0
  7  8  1  0  0  0  0
  7 10  2  0  0  0  0
  8  9  1  0  0  0  0
  9 11  1  0  0  0  0
 11 12  1  0  0  0  0
 12 13  1  0  0  0  0
 13 14  1  0  0  0  0
 14 15  1  0  0  0  0
 15 16  1  0  0  0  0
 16 17  1  0  0  0  0
 16 18  1  0  0  0  0
 19 20  2  0  0  0  0
 19 21  1  0  0  0  0
 21 22  1  0  0  0  0
 22 23  1  0  0  0  0
 23 24  1  0  0  0  0
 24 25  1  0  0  0  0
 25 26  1  0  0  0  0
 26 27  1  0  0  0  0
 27 28  1  0  0  0  0
 28 29  1  0  0  0  0
 28 30  1  0  0  0  0
M  END
> <ID>
12537

> <Formula>
C26H48O4

> <FW>
424.6569

> <DSSTox_CID>
27395

> <DSSTox_RID>
82317

> <DSSTox_GSID>
47395

> <DSSTox_FileID_Sort>
6998

> <TS_ChemName>
Diisononyl cyclohexane-1,2-dicarboxylate

> <TS_ChemName_Synonyms>
1,2-cyclohexane dicarboxylic acid diisononyl ester

> <TS_CASRN>
166412-78-8

> <CASRN_ChemName_Relationship>
primary

> <TS_Description>
mixture or formulation

> <ChemNote>
mixture of C9 isomers; structure shown 7-methyloctyl

> <STRUCTURE_Shown>
representative isomer in mixture

> <STRUCTURE_Formula>
C26H48O4

> <STRUCTURE_MW>
424.6569

> <STRUCTURE_ChemType>
defined organic

> <STRUCTURE_DefinedOrganicForm>
parent

> <STRUCTURE_IUPAC>
bis(7-methyloctyl) cyclohexane-1,2-dicarboxylate

> <STRUCTURE_SMILES>
CC(C)CCCCCCOC(=O)C1CCCCC1C(=O)OCCCCCCC(C)C

> <STRUCTURE_SMILES_Desalt>
CC(C)CCCCCCOC(=O)C1CCCCC1C(=O)OCCCCCCC(C)C

> <Substance_modify_yyyymmdd>
20100615

$$$$
