16662-46-7
ChemmineR-0915142007XD

 36 36  0  0  0  0  0  0  0  0  1 V2000
    4.6249   -5.2908    0.0000 C    0  0  0  0  0  0  0  0  0  0  0  0
    5.7718   -4.6249    0.0000 C    0  0  0  0  0  0  0  0  0  0  0  0
    2.3309   -6.6598    0.0000 C    0  0  0  0  0  0  0  0  0  0  0  0
    2.3309   -5.2908    0.0000 C    0  0  0  0  0  0  0  0  0  0  0  0
    3.4594   -7.3073    0.0000 C    0  0  0  0  0  0  0  0  0  0  0  0
    3.4594   -4.6434    0.0000 C    0  0  0  0  0  0  0  0  0  0  0  0
    4.6249   -6.6598    0.0000 C    0  0  0  0  0  0  0  0  0  0  0  0
    5.1058   -3.5149    0.0000 C    0  0  0  0  0  0  0  0  0  0  0  0
    4.3844   -2.3309    0.0000 N    0  0  0  0  0  0  0  0  0  0  0  0
   15.0215   -1.9794    0.0000 C    0  0  0  0  0  0  0  0  0  0  0  0
   16.1685   -2.6639    0.0000 C    0  0  0  0  0  0  0  0  0  0  0  0
   13.8561   -2.6639    0.0000 C    0  0  0  0  0  0  0  0  0  0  0  0
   16.1685   -3.9959    0.0000 C    0  0  0  0  0  0  0  0  0  0  0  0
    6.4748   -5.8273    0.0000 C    0  0  0  0  0  0  0  0  0  0  0  0
   13.8561   -3.9959    0.0000 C    0  0  0  0  0  0  0  0  0  0  0  0
   10.4152   -4.6249    0.0000 N    0  0  0  0  0  0  0  0  0  0  0  0
    1.1470   -7.3258    0.0000 O    0  0  0  0  0  0  0  0  0  0  0  0
    1.1285   -4.6249    0.0000 O    0  0  0  0  0  0  0  0  0  0  0  0
    3.4594   -8.6577    0.0000 O    0  0  0  0  0  0  0  0  0  0  0  0
   15.0215   -4.6249    0.0000 C    0  0  0  0  0  0  0  0  0  0  0  0
   11.5806   -3.9959    0.0000 C    0  0  0  0  0  0  0  0  0  0  0  0
   15.0215   -0.6290    0.0000 O    0  0  0  0  0  0  0  0  0  0  0  0
   12.7461   -4.6249    0.0000 C    0  0  0  0  0  0  0  0  0  0  0  0
    6.9558   -3.9959    0.0000 C    0  0  0  0  0  0  0  0  0  0  0  0
   17.3710   -1.9609    0.0000 O    0  0  0  0  0  0  0  0  0  0  0  0
    8.1027   -4.6249    0.0000 C    0  0  0  0  0  0  0  0  0  0  0  0
    9.2497   -3.9959    0.0000 C    0  0  0  0  0  0  0  0  0  0  0  0
   10.4152   -5.9383    0.0000 C    0  0  0  0  0  0  0  0  0  0  0  0
    7.8068   -5.8273    0.0000 C    0  0  0  0  0  0  0  0  0  0  0  0
    5.8458   -6.9558    0.0000 C    0  0  0  0  0  0  0  0  0  0  0  0
    0.0000   -6.6598    0.0000 C    0  0  0  0  0  0  0  0  0  0  0  0
    1.1285   -3.3669    0.0000 C    0  0  0  0  0  0  0  0  0  0  0  0
    2.3309   -9.3237    0.0000 C    0  0  0  0  0  0  0  0  0  0  0  0
   13.8561    0.0000    0.0000 C    0  0  0  0  0  0  0  0  0  0  0  0
   18.4994   -2.6084    0.0000 C    0  0  0  0  0  0  0  0  0  0  0  0
   12.0431   -7.4183    0.0000 Cl   0  0  0  0  0  0  0  0  0  0  0  0
  1  2  1  0  0  0  0
  1  6  1  0  0  0  0
  1  7  2  0  0  0  0
  2  8  1  0  0  0  0
  2 14  1  0  0  0  0
  2 24  1  0  0  0  0
  3  5  2  0  0  0  0
  3 17  1  0  0  0  0
  3  4  1  0  0  0  0
  4  6  2  0  0  0  0
  4 18  1  0  0  0  0
  5  7  1  0  0  0  0
  5 19  1  0  0  0  0
  8  9  3  0  0  0  0
 10 12  1  0  0  0  0
 10 22  1  0  0  0  0
 10 11  2  0  0  0  0
 11 13  1  0  0  0  0
 11 25  1  0  0  0  0
 12 15  2  0  0  0  0
 13 20  2  0  0  0  0
 14 29  1  0  0  0  0
 14 30  1  0  0  0  0
 15 23  1  0  0  0  0
 15 20  1  0  0  0  0
 16 27  1  0  0  0  0
 16 21  1  0  0  0  0
 16 28  1  0  0  0  0
 17 31  1  0  0  0  0
 18 32  1  0  0  0  0
 19 33  1  0  0  0  0
 21 23  1  0  0  0  0
 22 34  1  0  0  0  0
 24 26  1  0  0  0  0
 25 35  1  0  0  0  0
 26 27  1  0  0  0  0
M  END
> <ID>
12943

> <Formula>
C28H41ClN2O5

> <FW>
521.0885 (484.6276+36.4609)

> <DSSTox_CID>
27844

> <DSSTox_RID>
82597

> <DSSTox_GSID>
47858

> <DSSTox_FileID_Sort>
7274

> <TS_ChemName>
Gallopamil hydrochloride

> <TS_ChemName_Synonyms>


> <TS_CASRN>
16662-46-7

> <CASRN_ChemName_Relationship>
primary

> <TS_Description>
single chemical compound

> <ChemNote>
parent [16662-47-8]

> <STRUCTURE_Shown>
tested chemical

> <STRUCTURE_Formula>
C28H41ClN2O5

> <STRUCTURE_MW>
521.0885

> <STRUCTURE_ChemType>
defined organic

> <STRUCTURE_DefinedOrganicForm>
complex

> <STRUCTURE_IUPAC>
5-{[2-(3,4-dimethoxyphenyl)ethyl](methyl)amino}-2-(propan-2-yl)-2-(3,4,5-trimethoxyphenyl)pentanenitrile hydrochloride (1:1)

> <STRUCTURE_SMILES>
Cl.COc1c(cc(cc1OC)C(C#N)(CCCN(C)CCc2ccc(OC)c(OC)c2)C(C)C)OC

> <STRUCTURE_SMILES_Desalt>
COc1c(cc(cc1OC)C(C#N)(CCCN(C)CCc2ccc(OC)c(OC)c2)C(C)C)OC

> <Substance_modify_yyyymmdd>
20110605

$$$$
