16669-59-3
ChemmineR-0915142007XD

 11 10  0  0  0  0  0  0  0  0  1 V2000
    6.9265   -1.3281    0.0000 C   0  0  0  0  0  0  0  0  0  0  0  0
    8.0609   -1.9922    0.0000 C   0  0  0  0  0  0  0  0  0  0  0  0
    9.2230   -1.3281    0.0000 C   0  0  0  0  0  0  0  0  0  0  0  0
    6.9265    0.0000    0.0000 O   0  0  0  0  0  0  0  0  0  0  0  0
    5.7459   -1.9922    0.0000 N   0  0  0  0  0  0  0  0  0  0  0  0
    4.6115   -1.3281    0.0000 C   0  0  0  0  0  0  0  0  0  0  0  0
    3.4494   -1.9922    0.0000 O   0  0  0  0  0  0  0  0  0  0  0  0
    2.2965   -1.3281    0.0000 C   0  0  0  0  0  0  0  0  0  0  0  0
    1.1344   -1.9922    0.0000 C   0  0  0  0  0  0  0  0  0  0  0  0
    0.0000   -1.3281    0.0000 C   0  0  0  0  0  0  0  0  0  0  0  0
    1.1344   -3.3203    0.0000 C   0  0  0  0  0  0  0  0  0  0  0  0
  1  2  1  0  0  0  0
  1  5  1  0  0  0  0
  1  4  2  0  0  0  0
  2  3  2  0  0  0  0
  5  6  1  0  0  0  0
  6  7  1  0  0  0  0
  7  8  1  0  0  0  0
  8  9  1  0  0  0  0
  9 10  1  0  0  0  0
  9 11  1  0  0  0  0
M  END
> <ID>
10495

> <Formula>
C8H15NO2

> <FW>
157.2102

> <DSSTox_CID>
24848

> <DSSTox_RID>
80528

> <DSSTox_GSID>
44848

> <DSSTox_FileID_Sort>
5210

> <TS_ChemName>
N-(Isobutoxymethyl)acrylamide

> <TS_ChemName_Synonyms>
N-[(2-Methylpropoxy)methyl]prop-2-enamide (2-Propenamide, N-[(2-methylpropoxy)methyl]-)

> <TS_CASRN>
16669-59-3

> <CASRN_ChemName_Relationship>
primary

> <TS_Description>
single chemical compound

> <ChemNote>


> <STRUCTURE_Shown>
tested chemical

> <STRUCTURE_Formula>
C8H15NO2

> <STRUCTURE_MW>
157.2102

> <STRUCTURE_ChemType>
defined organic

> <STRUCTURE_DefinedOrganicForm>
parent

> <STRUCTURE_IUPAC>
N-[(2-methylpropoxy)methyl]prop-2-enamide

> <STRUCTURE_SMILES>
CC(C)COCNC(=O)C=C

> <STRUCTURE_SMILES_Desalt>
CC(C)COCNC(=O)C=C

> <Substance_modify_yyyymmdd>
20091116

$$$$
