16679-58-6
ChemmineR-0915142007XD

 74 77  0  0  1  0  0  0  0  0  1 V2000
    0.0000  -12.7506    0.0000 N   0  0  0  0  0  0  0  0  0  0  0  0
    1.1116  -12.0968    0.0000 C   0  0  0  0  0  0  0  0  0  0  0  0
    2.3104  -12.7506    0.0000 C   0  0  0  0  0  0  0  0  0  0  0  0
    3.4438  -12.0968    0.0000 N   0  0  0  0  0  0  0  0  0  0  0  0
    4.5989  -12.7506    0.0000 C   0  0  0  0  0  0  0  0  0  0  0  0
    5.7541  -12.0968    0.0000 C   0  0  0  0  0  0  0  0  0  0  0  0
    6.9093  -12.7506    0.0000 N   0  0  0  0  0  0  0  0  0  0  0  0
    8.0427  -12.0968    0.0000 C   0  0  0  0  0  0  0  0  0  0  0  0
    9.1979  -12.7506    0.0000 O   0  0  0  0  0  0  0  0  0  0  0  0
    1.1116  -10.7672    0.0000 O   0  0  0  0  0  0  0  0  0  0  0  0
    4.5989  -14.0802    0.0000 O   0  0  0  0  0  0  0  0  0  0  0  0
    5.7541  -10.7672    0.0000 C   0  0  0  0  0  0  0  0  0  0  0  0
    4.5989  -10.1133    0.0000 C   0  0  0  0  0  0  0  0  0  0  0  0
    4.5989   -8.7838    0.0000 C   0  0  0  0  0  0  0  0  0  0  0  0
    3.4438   -8.1081    0.0000 N   0  0  0  0  0  0  0  0  0  0  0  0
    8.0427  -10.7672    0.0000 C   0  0  0  0  0  0  0  0  0  0  0  0
    6.9747   -9.9826    0.0000 C   0  0  0  0  0  0  0  0  0  0  0  0
    9.1325   -9.9826    0.0000 N   0  0  0  0  0  0  0  0  0  0  0  0
    7.3888   -8.7184    0.0000 C   0  0  0  0  0  0  0  0  0  0  0  0
    8.7184   -8.7184    0.0000 C   0  0  0  0  0  0  0  0  0  0  0  0
   10.2659  -10.6364    0.0000 C   0  0  0  0  0  0  0  0  0  0  0  0
   11.4211   -9.9826    0.0000 C   0  0  0  0  0  0  0  0  0  0  0  0
   12.5763  -10.6364    0.0000 N   0  0  0  0  0  0  0  0  0  0  0  0
   13.7315   -9.9826    0.0000 C   0  0  0  0  0  0  0  0  0  0  0  0
   14.8648  -10.6364    0.0000 C   0  0  0  0  0  0  0  0  0  0  0  0
   16.0418   -9.9826    0.0000 N   0  0  0  0  0  0  0  0  0  0  0  0
   10.2659  -11.9660    0.0000 O   0  0  0  0  0  0  0  0  0  0  0  0
   11.4211   -8.6530    0.0000 C   0  0  0  0  0  0  0  0  0  0  0  0
   10.2659   -7.9773    0.0000 S   0  0  0  0  0  0  0  0  0  0  0  0
   10.2659   -6.6478    0.0000 S   0  0  0  0  0  0  0  0  0  0  0  0
   13.7315   -8.6530    0.0000 O   0  0  0  0  0  0  0  0  0  0  0  0
   14.8648  -11.9660    0.0000 C   0  0  0  0  0  0  0  0  0  0  0  0
   16.0200  -12.6417    0.0000 C   0  0  0  0  0  0  0  0  0  0  0  0
   16.0200  -13.9712    0.0000 O   0  0  0  0  0  0  0  0  0  0  0  0
   17.1752  -11.9878    0.0000 N   0  0  0  0  0  0  0  0  0  0  0  0
   16.0418   -8.6530    0.0000 C   0  0  0  0  0  0  0  0  0  0  0  0
   17.1970   -7.9991    0.0000 C   0  0  0  0  0  0  0  0  0  0  0  0
   14.8866   -7.9773    0.0000 O   0  0  0  0  0  0  0  0  0  0  0  0
   18.3304   -8.6530    0.0000 C   0  0  0  0  0  0  0  0  0  0  0  0
   19.4856   -7.9991    0.0000 C   0  0  0  0  0  0  0  0  0  0  0  0
   20.6408   -8.6530    0.0000 C   0  0  0  0  0  0  0  0  0  0  0  0
   21.7960   -7.9991    0.0000 N   0  0  0  0  0  0  0  0  0  0  0  0
   20.6408  -10.0043    0.0000 O   0  0  0  0  0  0  0  0  0  0  0  0
   17.1970   -6.6696    0.0000 N   0  0  0  0  0  0  0  0  0  0  0  0
   18.3304   -4.6643    0.0000 C   0  0  0  0  0  0  0  0  0  0  0  0
   18.3304   -5.9939    0.0000 C   0  0  0  0  0  0  0  0  0  0  0  0
   17.1970   -3.9887    0.0000 C   0  0  0  0  0  0  0  0  0  0  0  0
   16.0418   -4.6643    0.0000 C   0  0  0  0  0  0  0  0  0  0  0  0
   16.0418   -5.9939    0.0000 C   0  0  0  0  0  0  0  0  0  0  0  0
   20.6408   -4.6643    0.0000 C   0  0  0  0  0  0  0  0  0  0  0  0
   20.6408   -5.9939    0.0000 C   0  0  0  0  0  0  0  0  0  0  0  0
   19.4856   -3.9887    0.0000 C   0  0  0  0  0  0  0  0  0  0  0  0
   19.4856   -6.6696    0.0000 C   0  0  0  0  0  0  0  0  0  0  0  0
   11.4211   -4.6643    0.0000 N   0  0  0  0  0  0  0  0  0  0  0  0
   10.2659   -3.9887    0.0000 C   0  0  0  0  0  0  0  0  0  0  0  0
    9.1325   -4.6643    0.0000 C   0  0  0  0  0  0  0  0  0  0  0  0
    9.1325   -5.9939    0.0000 C   0  0  0  0  0  0  0  0  0  0  0  0
   13.7097   -4.6643    0.0000 C   0  0  0  0  0  0  0  0  0  0  0  0
   13.7097   -5.9939    0.0000 O   0  0  0  0  0  0  0  0  0  0  0  0
   12.5763   -3.9887    0.0000 C   0  0  0  0  0  0  0  0  0  0  0  0
   14.8648   -3.9887    0.0000 N   0  0  0  0  0  0  0  0  0  0  0  0
   14.8648   -6.6478    0.0000 O   0  0  0  0  0  0  0  0  0  0  0  0
   12.5763   -2.6591    0.0000 C   0  0  0  0  0  0  0  0  0  0  0  0
   14.8648   -2.6591    0.0000 C   0  0  0  0  0  0  0  0  0  0  0  0
   13.7097   -2.0052    0.0000 C   0  0  0  0  0  0  0  0  0  0  0  0
   16.0200   -2.0052    0.0000 C   0  0  0  0  0  0  0  0  0  0  0  0
   16.0200   -0.6757    0.0000 C   0  0  0  0  0  0  0  0  0  0  0  0
   13.7097   -0.6757    0.0000 C   0  0  0  0  0  0  0  0  0  0  0  0
   14.8648    0.0000    0.0000 C   0  0  0  0  0  0  0  0  0  0  0  0
   10.2659   -2.6591    0.0000 O   0  0  0  0  0  0  0  0  0  0  0  0
   17.1752    0.0000    0.0000 O   0  0  0  0  0  0  0  0  0  0  0  0
    2.3104   -8.7620    0.0000 C   0  0  0  0  0  0  0  0  0  0  0  0
    2.3104  -10.0915    0.0000 N   0  0  0  0  0  0  0  0  0  0  0  0
    1.1116   -8.1081    0.0000 N   0  0  0  0  0  0  0  0  0  0  0  0
  1  2  1  0  0  0  0
  2  3  1  0  0  0  0
  2 10  2  0  0  0  0
  3  4  1  0  0  0  0
  4  5  1  0  0  0  0
  5  6  1  0  0  0  0
  5 11  2  0  0  0  0
  6  7  1  0  0  0  0
  6 12  1  6  0  0  0
  7  8  1  0  0  0  0
  8  9  2  0  0  0  0
 16  8  1  6  0  0  0
 12 13  1  0  0  0  0
 13 14  1  0  0  0  0
 14 15  1  0  0  0  0
 15 72  1  0  0  0  0
 16 17  1  0  0  0  0
 16 18  1  0  0  0  0
 17 19  1  0  0  0  0
 18 20  1  0  0  0  0
 18 21  1  0  0  0  0
 19 20  1  0  0  0  0
 22 21  1  6  0  0  0
 21 27  2  0  0  0  0
 22 23  1  0  0  0  0
 22 28  1  0  0  0  0
 23 24  1  0  0  0  0
 24 25  1  0  0  0  0
 24 31  2  0  0  0  0
 25 26  1  0  0  0  0
 25 32  1  1  0  0  0
 26 36  1  0  0  0  0
 28 29  1  0  0  0  0
 29 30  1  0  0  0  0
 30 57  1  0  0  0  0
 32 33  1  0  0  0  0
 33 34  2  0  0  0  0
 33 35  1  0  0  0  0
 36 37  1  0  0  0  0
 36 38  2  0  0  0  0
 37 39  1  1  0  0  0
 37 44  1  0  0  0  0
 39 40  1  0  0  0  0
 40 41  1  0  0  0  0
 41 42  1  0  0  0  0
 41 43  2  0  0  0  0
 44 49  1  0  0  0  0
 45 47  1  0  0  0  0
 45 52  1  0  0  0  0
 45 46  2  0  0  0  0
 46 53  1  0  0  0  0
 48 47  1  1  0  0  0
 48 61  1  0  0  0  0
 48 49  1  0  0  0  0
 49 62  2  0  0  0  0
 50 51  1  0  0  0  0
 50 52  2  0  0  0  0
 51 53  2  0  0  0  0
 54 55  1  0  0  0  0
 54 60  1  0  0  0  0
 55 56  1  0  0  0  0
 55 70  2  0  0  0  0
 56 57  1  0  0  0  0
 58 59  2  0  0  0  0
 58 60  1  0  0  0  0
 58 61  1  0  0  0  0
 60 63  1  1  0  0  0
 63 65  1  0  0  0  0
 64 66  2  0  0  0  0
 64 65  1  0  0  0  0
 65 68  2  0  0  0  0
 66 67  1  0  0  0  0
 67 69  2  0  0  0  0
 67 71  1  0  0  0  0
 68 69  1  0  0  0  0
 72 73  2  0  0  0  0
 72 74  1  0  0  0  0
M  END
> <ID>
13318

> <Formula>
C46H64N14O12S2

> <FW>
1069.217

> <DSSTox_CID>
28234

> <DSSTox_RID>
82746

> <DSSTox_GSID>
48259

> <DSSTox_FileID_Sort>
7423

> <TS_ChemName>
Desmopressin

> <TS_ChemName_Synonyms>


> <TS_CASRN>
16679-58-6

> <CASRN_ChemName_Relationship>
primary

> <TS_Description>
single chemical compound

> <ChemNote>
stereochem; tautomers

> <STRUCTURE_Shown>
tested chemical

> <STRUCTURE_Formula>
C46H64N14O12S2

> <STRUCTURE_MW>
1069.217

> <STRUCTURE_ChemType>
defined organic

> <STRUCTURE_DefinedOrganicForm>
parent

> <STRUCTURE_IUPAC>
1-{[(4R,7S,10S,13S,16S)-7-(2-amino-2-oxoethyl)-10-(3-amino-3-oxopropyl)-13-benzyl-16-(4-hydroxybenzyl)-6,9,12,15,18-pentaoxo-1,2-dithia-5,8,11,14,17-pentaazacycloicosan-4-yl]carbonyl}-L-prolyl-L-arginylglycinamide

> <STRUCTURE_SMILES>
NC(=O)CNC(=O)[C@H](CCCNC(=N)N)NC(=O)[C@@H]1CCCN1C(=O)[C@@H]4CSSCCC(=O)N[C@@H](Cc2ccc(O)cc2)C(=O)N[C@@H](Cc3ccccc3)C(=O)N[C@@H](CCC(N)=O)C(=O)N[C@@H](CC(N)=O)C(=O)N4

> <STRUCTURE_SMILES_Desalt>
NC(=O)CNC(=O)[C@H](CCCNC(=N)N)NC(=O)[C@@H]1CCCN1C(=O)[C@@H]4CSSCCC(=O)N[C@@H](Cc2ccc(O)cc2)C(=O)N[C@@H](Cc3ccccc3)C(=O)N[C@@H](CCC(N)=O)C(=O)N[C@@H](CC(N)=O)C(=O)N4

> <Substance_modify_yyyymmdd>
20110728

$$$$
