16673-34-0
ChemmineR-0915142007XD

 24 25  0  0  0  0  0  0  0  0  1 V2000
    5.3179   -4.6372    0.0000 C    0  0  0  0  0  0  0  0  0  0  0  0
    3.9884   -4.6372    0.0000 O    0  0  0  0  0  0  0  0  0  0  0  0
    3.3290   -3.4672    0.0000 C    0  0  0  0  0  0  0  0  0  0  0  0
    3.9884   -2.3079    0.0000 C    0  0  0  0  0  0  0  0  0  0  0  0
    3.3290   -1.1699    0.0000 C    0  0  0  0  0  0  0  0  0  0  0  0
    1.9889   -1.1699    0.0000 C    0  0  0  0  0  0  0  0  0  0  0  0
    1.3295    0.0000    0.0000 Cl   0  0  0  0  0  0  0  0  0  0  0  0
    1.3295   -2.3079    0.0000 C    0  0  0  0  0  0  0  0  0  0  0  0
    1.9889   -3.4672    0.0000 C    0  0  0  0  0  0  0  0  0  0  0  0
    1.3295   -4.6372    0.0000 C    0  0  0  0  0  0  0  0  0  0  0  0
    0.0000   -4.6372    0.0000 O    0  0  0  0  0  0  0  0  0  0  0  0
    1.9889   -5.7752    0.0000 N    0  0  0  0  0  0  0  0  0  0  0  0
    3.3290   -5.7752    0.0000 C    0  0  0  0  0  0  0  0  0  0  0  0
    3.9884   -6.9238    0.0000 C    0  0  0  0  0  0  0  0  0  0  0  0
    5.3179   -6.9238    0.0000 C    0  0  0  0  0  0  0  0  0  0  0  0
    5.9879   -8.0725    0.0000 C    0  0  0  0  0  0  0  0  0  0  0  0
    7.3067   -8.0725    0.0000 C    0  0  0  0  0  0  0  0  0  0  0  0
    7.9768   -6.9238    0.0000 C    0  0  0  0  0  0  0  0  0  0  0  0
    7.3067   -5.7752    0.0000 C    0  0  0  0  0  0  0  0  0  0  0  0
    5.9879   -5.7752    0.0000 C    0  0  0  0  0  0  0  0  0  0  0  0
    9.3062   -6.9238    0.0000 S    0  0  0  0  0  0  0  0  0  0  0  0
    9.3062   -8.2533    0.0000 N    0  0  0  0  0  0  0  0  0  0  0  0
    9.3062   -5.5944    0.0000 O    0  0  0  0  0  0  0  0  0  0  0  0
   10.6357   -6.9238    0.0000 O    0  0  0  0  0  0  0  0  0  0  0  0
  1  2  1  0  0  0  0
  2  3  1  0  0  0  0
  3  4  2  0  0  0  0
  3  9  1  0  0  0  0
  4  5  1  0  0  0  0
  5  6  2  0  0  0  0
  6  7  1  0  0  0  0
  6  8  1  0  0  0  0
  8  9  2  0  0  0  0
  9 10  1  0  0  0  0
 10 11  2  0  0  0  0
 10 12  1  0  0  0  0
 12 13  1  0  0  0  0
 13 14  1  0  0  0  0
 14 15  1  0  0  0  0
 15 16  2  0  0  0  0
 15 20  1  0  0  0  0
 16 17  1  0  0  0  0
 17 18  2  0  0  0  0
 18 19  1  0  0  0  0
 18 21  1  0  0  0  0
 19 20  2  0  0  0  0
 21 22  1  0  0  0  0
 21 23  2  0  0  0  0
 21 24  2  0  0  0  0
M  END
> <ID>
16064

> <Formula>
C16H17ClN2O4S

> <FW>
368.8352

> <DSSTox_CID>
31449

> <DSSTox_RID>
97335

> <DSSTox_GSID>
57660

> <DSSTox_FileID_Sort>
8402

> <TS_ChemName>
N-(2-(4-sulfamoyl)phenyl)ethyl-5-chloro-2-methoxybenzamide

> <TS_ChemName_Synonyms>


> <TS_CASRN>
16673-34-0

> <CASRN_ChemName_Relationship>
primary

> <TS_Description>
single chemical compound

> <ChemNote>


> <STRUCTURE_Shown>
tested chemical

> <STRUCTURE_Formula>
C16H17ClN2O4S

> <STRUCTURE_MW>
368.8352

> <STRUCTURE_ChemType>
defined organic

> <STRUCTURE_DefinedOrganicForm>
parent

> <STRUCTURE_IUPAC>
5-chloro-2-methoxy-N-[2-(4-sulfamoylphenyl)ethyl]benzamide

> <STRUCTURE_SMILES>
COc1ccc(Cl)cc1C(=O)NCCc2ccc(cc2)S(N)(=O)=O

> <STRUCTURE_SMILES_Desalt>
COc1ccc(Cl)cc1C(=O)NCCc2ccc(cc2)S(N)(=O)=O

> <Substance_modify_yyyymmdd>
20131018

$$$$
