1668-54-8
ChemmineR-0915142007XD

 10 10  0  0  0  0  0  0  0  0  1 V2000
    4.6068   -2.0122    0.0000 N   0  0  0  0  0  0  0  0  0  0  0  0
    4.6068   -3.3441    0.0000 C   0  0  0  0  0  0  0  0  0  0  0  0
    3.4537   -4.0014    0.0000 N   0  0  0  0  0  0  0  0  0  0  0  0
    2.3121   -3.3441    0.0000 C   0  0  0  0  0  0  0  0  0  0  0  0
    2.3121   -2.0122    0.0000 N   0  0  0  0  0  0  0  0  0  0  0  0
    3.4537   -1.3376    0.0000 C   0  0  0  0  0  0  0  0  0  0  0  0
    5.7657   -4.0014    0.0000 N   0  0  0  0  0  0  0  0  0  0  0  0
    1.1589   -4.0014    0.0000 O   0  0  0  0  0  0  0  0  0  0  0  0
    0.0000   -3.3441    0.0000 C   0  0  0  0  0  0  0  0  0  0  0  0
    3.4537    0.0000    0.0000 C   0  0  0  0  0  0  0  0  0  0  0  0
  1  2  1  0  0  0  0
  1  6  2  0  0  0  0
  2  3  2  0  0  0  0
  2  7  1  0  0  0  0
  3  4  1  0  0  0  0
  4  5  2  0  0  0  0
  4  8  1  0  0  0  0
  5  6  1  0  0  0  0
  6 10  1  0  0  0  0
  8  9  1  0  0  0  0
M  END
> <ID>
8203

> <Formula>
C5H8N4O

> <FW>
140.1432

> <DSSTox_CID>
21230

> <DSSTox_RID>
79654

> <DSSTox_GSID>
41230

> <DSSTox_FileID_Sort>
4336

> <TS_ChemName>
1,3,5-Triazin-2-amine, 4-methoxy-6-methyl-

> <TS_ChemName_Synonyms>


> <TS_CASRN>
1668-54-8

> <CASRN_ChemName_Relationship>
primary

> <TS_Description>
single chemical compound

> <ChemNote>


> <STRUCTURE_Shown>
tested chemical

> <STRUCTURE_Formula>
C5H8N4O

> <STRUCTURE_MW>
140.1432

> <STRUCTURE_ChemType>
defined organic

> <STRUCTURE_DefinedOrganicForm>
parent

> <STRUCTURE_IUPAC>
4-methoxy-6-methyl-1,3,5-triazin-2-amine

> <STRUCTURE_SMILES>
Cc1nc(N)nc(OC)n1

> <STRUCTURE_SMILES_Desalt>
Cc1nc(N)nc(OC)n1

> <Substance_modify_yyyymmdd>
20080825

$$$$
