16691-43-3
ChemmineR-0915142007XD

  7  7  0  0  0  0  0  0  0  0  1 V2000
    0.4153   -3.3802    0.0000 N   0  0  0  0  0  0  0  0  0  0  0  0
    0.0000   -2.1210    0.0000 N   0  0  0  0  0  0  0  0  0  0  0  0
    1.0850   -1.3396    0.0000 C   0  0  0  0  0  0  0  0  0  0  0  0
    2.1522   -2.1210    0.0000 N   0  0  0  0  0  0  0  0  0  0  0  0
    1.7370   -3.3802    0.0000 C   0  0  0  0  0  0  0  0  0  0  0  0
    1.0850    0.0000    0.0000 S   0  0  0  0  0  0  0  0  0  0  0  0
    2.5184   -4.4652    0.0000 N   0  0  0  0  0  0  0  0  0  0  0  0
  1  2  1  0  0  0  0
  1  5  1  0  0  0  0
  2  3  1  0  0  0  0
  3  4  1  0  0  0  0
  3  6  2  0  0  0  0
  4  5  2  0  0  0  0
  5  7  1  0  0  0  0
M  END
> <ID>
10496

> <Formula>
C2H4N4S

> <FW>
116.145

> <DSSTox_CID>
24849

> <DSSTox_RID>
80529

> <DSSTox_GSID>
44849

> <DSSTox_FileID_Sort>
5211

> <TS_ChemName>
5-Amino-1,2-dihydro-3H-1,2,4-triazole-3-thione

> <TS_ChemName_Synonyms>
4,4'-Propane-1,3-diyldipiperidine (Piperidine, 4,4'-(1,3-propanediyl)bis-) (4,4'-Trimethylenedipiperidine)

> <TS_CASRN>
16691-43-3

> <CASRN_ChemName_Relationship>
primary

> <TS_Description>
single chemical compound

> <ChemNote>
tautomers

> <STRUCTURE_Shown>
tested chemical

> <STRUCTURE_Formula>
C2H4N4S

> <STRUCTURE_MW>
116.145

> <STRUCTURE_ChemType>
defined organic

> <STRUCTURE_DefinedOrganicForm>
parent

> <STRUCTURE_IUPAC>
5-amino-1,2-dihydro-3H-1,2,4-triazole-3-thione

> <STRUCTURE_SMILES>
S=C1N=C(N)NN1

> <STRUCTURE_SMILES_Desalt>
S=C1N=C(N)NN1

> <Substance_modify_yyyymmdd>
20091116

$$$$
