1671-75-6
ChemmineR-0915142007XD

 14 14  0  0  0  0  0  0  0  0  1 V2000
    8.0548   -1.9904    0.0000 C   0  0  0  0  0  0  0  0  0  0  0  0
    9.2159   -1.3269    0.0000 C   0  0  0  0  0  0  0  0  0  0  0  0
    8.0548   -3.3173    0.0000 C   0  0  0  0  0  0  0  0  0  0  0  0
   10.3666   -1.9904    0.0000 C   0  0  0  0  0  0  0  0  0  0  0  0
    9.2159   -3.9911    0.0000 C   0  0  0  0  0  0  0  0  0  0  0  0
   10.3666   -3.3173    0.0000 C   0  0  0  0  0  0  0  0  0  0  0  0
    6.9041   -1.3269    0.0000 C   0  0  0  0  0  0  0  0  0  0  0  0
    5.7535   -1.9904    0.0000 C   0  0  0  0  0  0  0  0  0  0  0  0
    6.9041    0.0000    0.0000 O   0  0  0  0  0  0  0  0  0  0  0  0
    4.6028   -1.3269    0.0000 C   0  0  0  0  0  0  0  0  0  0  0  0
    3.4417   -1.9904    0.0000 C   0  0  0  0  0  0  0  0  0  0  0  0
    2.2910   -1.3269    0.0000 C   0  0  0  0  0  0  0  0  0  0  0  0
    1.1507   -1.9904    0.0000 C   0  0  0  0  0  0  0  0  0  0  0  0
    0.0000   -1.3269    0.0000 C   0  0  0  0  0  0  0  0  0  0  0  0
  1  2  1  0  0  0  0
  1  3  2  0  0  0  0
  1  7  1  0  0  0  0
  2  4  2  0  0  0  0
  3  5  1  0  0  0  0
  4  6  1  0  0  0  0
  5  6  2  0  0  0  0
  7  8  1  0  0  0  0
  7  9  2  0  0  0  0
  8 10  1  0  0  0  0
 10 11  1  0  0  0  0
 11 12  1  0  0  0  0
 12 13  1  0  0  0  0
 13 14  1  0  0  0  0
M  END
> <ID>
13256

> <Formula>
C13H18O

> <FW>
190.2814

> <DSSTox_CID>
28169

> <DSSTox_RID>
82730

> <DSSTox_GSID>
48194

> <DSSTox_FileID_Sort>
7407

> <TS_ChemName>
Heptanophenone

> <TS_ChemName_Synonyms>


> <TS_CASRN>
1671-75-6

> <CASRN_ChemName_Relationship>
primary

> <TS_Description>
single chemical compound

> <ChemNote>


> <STRUCTURE_Shown>
tested chemical

> <STRUCTURE_Formula>
C13H18O

> <STRUCTURE_MW>
190.2814

> <STRUCTURE_ChemType>
defined organic

> <STRUCTURE_DefinedOrganicForm>
parent

> <STRUCTURE_IUPAC>
1-phenylheptan-1-one

> <STRUCTURE_SMILES>
O=C(CCCCCC)c1ccccc1

> <STRUCTURE_SMILES_Desalt>
O=C(CCCCCC)c1ccccc1

> <Substance_modify_yyyymmdd>
20110831

$$$$
