16712-64-4
ChemmineR-0915142007XD

 14 15  0  0  0  0  0  0  0  0  1 V2000
    3.5003   -1.9840    0.0000 C   0  0  0  0  0  0  0  0  0  0  0  0
    3.5003   -3.3228    0.0000 C   0  0  0  0  0  0  0  0  0  0  0  0
    2.3066   -1.3066    0.0000 C   0  0  0  0  0  0  0  0  0  0  0  0
    2.3066   -3.9681    0.0000 C   0  0  0  0  0  0  0  0  0  0  0  0
    4.5971   -3.9681    0.0000 C   0  0  0  0  0  0  0  0  0  0  0  0
    4.5971   -1.3066    0.0000 C   0  0  0  0  0  0  0  0  0  0  0  0
    5.7585   -1.9840    0.0000 C   0  0  0  0  0  0  0  0  0  0  0  0
    5.7585   -3.3228    0.0000 C   0  0  0  0  0  0  0  0  0  0  0  0
    1.1453   -3.3228    0.0000 C   0  0  0  0  0  0  0  0  0  0  0  0
    1.1453   -1.9840    0.0000 C   0  0  0  0  0  0  0  0  0  0  0  0
    6.9199   -1.3066    0.0000 C   0  0  0  0  0  0  0  0  0  0  0  0
    8.0651   -1.9840    0.0000 O   0  0  0  0  0  0  0  0  0  0  0  0
    6.9199    0.0000    0.0000 O   0  0  0  0  0  0  0  0  0  0  0  0
    0.0000   -3.9681    0.0000 O   0  0  0  0  0  0  0  0  0  0  0  0
  1  2  2  0  0  0  0
  1  3  1  0  0  0  0
  1  6  1  0  0  0  0
  2  4  1  0  0  0  0
  2  5  1  0  0  0  0
  3 10  2  0  0  0  0
  4  9  2  0  0  0  0
  5  8  2  0  0  0  0
  6  7  2  0  0  0  0
  7  8  1  0  0  0  0
  7 11  1  0  0  0  0
  9 10  1  0  0  0  0
  9 14  1  0  0  0  0
 11 12  2  0  0  0  0
 11 13  1  0  0  0  0
M  END
> <ID>
5938

> <Formula>
C11H8O3

> <FW>
188.1794

> <DSSTox_CID>
9312

> <DSSTox_RID>
78759

> <DSSTox_GSID>
29312

> <DSSTox_FileID_Sort>
3441

> <TS_ChemName>
6-Hydroxy-2-naphthoic acid

> <TS_ChemName_Synonyms>


> <TS_CASRN>
16712-64-4

> <CASRN_ChemName_Relationship>
primary

> <TS_Description>
single chemical compound

> <ChemNote>


> <STRUCTURE_Shown>
tested chemical

> <STRUCTURE_Formula>
C11H8O3

> <STRUCTURE_MW>
188.1794

> <STRUCTURE_ChemType>
defined organic

> <STRUCTURE_DefinedOrganicForm>
parent

> <STRUCTURE_IUPAC>
6-hydroxynaphthalene-2-carboxylic acid

> <STRUCTURE_SMILES>
O=C(O)c1ccc2cc(O)ccc2c1

> <STRUCTURE_SMILES_Desalt>
O=C(O)c1ccc2cc(O)ccc2c1

> <Substance_modify_yyyymmdd>
20080429

$$$$
