167221-71-8
ChemmineR-0915142007XD

 30 31  0  0  0  0  0  0  0  0  1 V2000
    5.6567   -0.6776    0.0000 C    0  0  0  0  0  0  0  0  0  0  0  0
    5.6567   -1.9887    0.0000 C    0  0  0  0  0  0  0  0  0  0  0  0
    4.5371    0.0000    0.0000 N    0  0  0  0  0  0  0  0  0  0  0  0
    4.5371   -2.6074    0.0000 C    0  0  0  0  0  0  0  0  0  0  0  0
    3.4176   -0.6776    0.0000 C    0  0  0  0  0  0  0  0  0  0  0  0
    3.4176   -1.9887    0.0000 C    0  0  0  0  0  0  0  0  0  0  0  0
    4.5371   -4.6550    0.0000 C    0  0  0  0  0  0  0  0  0  0  0  0
    5.6567   -5.3179    0.0000 C    0  0  0  0  0  0  0  0  0  0  0  0
    3.4176   -5.3179    0.0000 C    0  0  0  0  0  0  0  0  0  0  0  0
    5.6567   -6.6289    0.0000 C    0  0  0  0  0  0  0  0  0  0  0  0
    3.4176   -6.6289    0.0000 C    0  0  0  0  0  0  0  0  0  0  0  0
    4.5371   -7.2771    0.0000 C    0  0  0  0  0  0  0  0  0  0  0  0
    6.8057   -4.6550    0.0000 Cl   0  0  0  0  0  0  0  0  0  0  0  0
    6.8057   -7.2771    0.0000 Cl   0  0  0  0  0  0  0  0  0  0  0  0
    2.2538   -2.6074    0.0000 C    0  0  0  0  0  0  0  0  0  0  0  0
    2.2538   -3.9332    0.0000 O    0  0  0  0  0  0  0  0  0  0  0  0
    1.1343   -1.9445    0.0000 O    0  0  0  0  0  0  0  0  0  0  0  0
    6.8057   -2.6074    0.0000 C    0  0  0  0  0  0  0  0  0  0  0  0
    6.8057   -3.9332    0.0000 O    0  0  0  0  0  0  0  0  0  0  0  0
    7.9253   -1.9887    0.0000 O    0  0  0  0  0  0  0  0  0  0  0  0
    0.0000   -2.6074    0.0000 C    0  0  0  0  0  0  0  0  0  0  0  0
    9.0743   -2.6074    0.0000 C    0  0  0  0  0  0  0  0  0  0  0  0
    2.2538    0.0000    0.0000 C    0  0  0  0  0  0  0  0  0  0  0  0
    6.8057    0.0000    0.0000 C    0  0  0  0  0  0  0  0  0  0  0  0
   10.1938   -1.9887    0.0000 O    0  0  0  0  0  0  0  0  0  0  0  0
   11.3429   -2.6074    0.0000 C    0  0  0  0  0  0  0  0  0  0  0  0
   12.4771   -1.9887    0.0000 C    0  0  0  0  0  0  0  0  0  0  0  0
   11.3429   -3.9332    0.0000 O    0  0  0  0  0  0  0  0  0  0  0  0
   13.6114   -2.6074    0.0000 C    0  0  0  0  0  0  0  0  0  0  0  0
   14.7310   -1.9887    0.0000 C    0  0  0  0  0  0  0  0  0  0  0  0
  1  2  2  0  0  0  0
  1  3  1  0  0  0  0
  1 24  1  0  0  0  0
  2  4  1  0  0  0  0
  2 18  1  0  0  0  0
  3  5  1  0  0  0  0
  4  6  1  0  0  0  0
  4  7  1  0  0  0  0
  5  6  2  0  0  0  0
  5 23  1  0  0  0  0
  6 15  1  0  0  0  0
  7  8  1  0  0  0  0
  7  9  2  0  0  0  0
  8 10  2  0  0  0  0
  8 13  1  0  0  0  0
  9 11  1  0  0  0  0
 10 12  1  0  0  0  0
 10 14  1  0  0  0  0
 11 12  2  0  0  0  0
 15 16  2  0  0  0  0
 15 17  1  0  0  0  0
 17 21  1  0  0  0  0
 18 19  2  0  0  0  0
 18 20  1  0  0  0  0
 20 22  1  0  0  0  0
 22 25  1  0  0  0  0
 25 26  1  0  0  0  0
 26 27  1  0  0  0  0
 26 28  2  0  0  0  0
 27 29  1  0  0  0  0
 29 30  1  0  0  0  0
M  END
> <ID>
16065

> <Formula>
C21H23Cl2NO6

> <FW>
456.3164

> <DSSTox_CID>
31450

> <DSSTox_RID>
97336

> <DSSTox_GSID>
57661

> <DSSTox_FileID_Sort>
8403

> <TS_ChemName>
Clevidipine

> <TS_ChemName_Synonyms>


> <TS_CASRN>
167221-71-8

> <CASRN_ChemName_Relationship>
primary

> <TS_Description>
single chemical compound

> <ChemNote>


> <STRUCTURE_Shown>
tested chemical

> <STRUCTURE_Formula>
C21H23Cl2NO6

> <STRUCTURE_MW>
456.3164

> <STRUCTURE_ChemType>
defined organic

> <STRUCTURE_DefinedOrganicForm>
parent

> <STRUCTURE_IUPAC>
(butyryloxy)methyl methyl 4-(2,3-dichlorophenyl)-2,6-dimethyl-1,4-dihydropyridine-3,5-dicarboxylate

> <STRUCTURE_SMILES>
CC=1NC(C)=C(C(C=1C(=O)OCOC(=O)CCC)c2cccc(Cl)c2Cl)C(=O)OC

> <STRUCTURE_SMILES_Desalt>
CC=1NC(C)=C(C(C=1C(=O)OCOC(=O)CCC)c2cccc(Cl)c2Cl)C(=O)OC

> <Substance_modify_yyyymmdd>
20131018

$$$$
