167465-36-3
ChemmineR-0915142007XD

 44 47  0  0  1  0  0  0  0  0  1 V2000
   12.5441   -5.2382    0.0000 Cl   0  0  0  0  0  0  0  0  0  0  0  0
   11.7687   -7.5126    0.0000 Cl   0  0  0  0  0  0  0  0  0  0  0  0
   10.2696   -9.0462    0.0000 Cl   0  0  0  0  0  0  0  0  0  0  0  0
    5.7206  -11.6825    0.0000 O    0  0  0  0  0  0  0  0  0  0  0  0
    4.6179  -12.5785    0.0000 C    0  0  0  0  0  0  0  0  0  0  0  0
    3.4634  -13.2333    0.0000 O    0  0  0  0  0  0  0  0  0  0  0  0
    3.4634  -14.5601    0.0000 C    0  0  0  0  0  0  0  0  0  0  0  0
    4.6179  -15.2321    0.0000 C    0  0  0  0  0  0  0  0  0  0  0  0
    4.6179  -16.5761    0.0000 C    0  0  0  0  0  0  0  0  0  0  0  0
    3.4634  -17.2308    0.0000 C    0  0  0  0  0  0  0  0  0  0  0  0
    2.3089  -16.5761    0.0000 C    0  0  0  0  0  0  0  0  0  0  0  0
    2.3089  -15.2321    0.0000 C    0  0  0  0  0  0  0  0  0  0  0  0
    1.1545  -14.5601    0.0000 C    0  0  0  0  0  0  0  0  0  0  0  0
    0.0000  -15.2321    0.0000 C    0  0  0  0  0  0  0  0  0  0  0  0
    0.0000  -16.5761    0.0000 C    0  0  0  0  0  0  0  0  0  0  0  0
    1.1545  -17.2308    0.0000 N    0  0  0  0  0  0  0  0  0  0  0  0
    5.7723  -10.5625    0.0000 C    0  0  0  0  0  0  0  0  0  0  0  0
    5.7723   -9.2357    0.0000 N    0  0  0  0  0  0  0  0  0  0  0  0
    4.6179   -8.5810    0.0000 C    0  0  0  0  0  0  0  0  0  0  0  0
    4.6179   -7.2370    0.0000 C    0  0  0  0  0  0  0  0  0  0  0  0
    5.7723   -6.5650    0.0000 N    0  0  0  0  0  0  0  0  0  0  0  0
    6.9268   -7.2370    0.0000 C    0  0  0  0  0  0  0  0  0  0  0  0
    6.9268   -8.5810    0.0000 C    0  0  0  0  0  0  0  0  0  0  0  0
    5.7723   -5.2382    0.0000 C    0  0  0  0  0  0  0  0  0  0  0  0
    4.5834   -4.6523    0.0000 C    0  0  0  0  0  0  0  0  0  0  0  0
    4.2732   -3.3600    0.0000 C    0  0  0  0  0  0  0  0  0  0  0  0
    2.9982   -2.9637    0.0000 C    0  0  0  0  0  0  0  0  0  0  0  0
    2.0160   -3.8769    0.0000 C    0  0  0  0  0  0  0  0  0  0  0  0
    2.3262   -5.1693    0.0000 C    0  0  0  0  0  0  0  0  0  0  0  0
    3.6012   -5.5483    0.0000 C    0  0  0  0  0  0  0  0  0  0  0  0
    5.1003   -2.3089    0.0000 C    0  0  0  0  0  0  0  0  0  0  0  0
    4.0492   -1.5163    0.0000 H    0  0  0  0  0  0  0  0  0  0  0  0
    6.4443   -2.3089    0.0000 C    0  0  0  0  0  0  0  0  0  0  0  0
    7.4954   -1.5163    0.0000 H    0  0  0  0  0  0  0  0  0  0  0  0
    7.2714   -3.3600    0.0000 C    0  0  0  0  0  0  0  0  0  0  0  0
    6.9613   -4.6523    0.0000 C    0  0  0  0  0  0  0  0  0  0  0  0
    7.9434   -5.5483    0.0000 C    0  0  0  0  0  0  0  0  0  0  0  0
    9.2185   -5.1693    0.0000 C    0  0  0  0  0  0  0  0  0  0  0  0
    9.5287   -3.8769    0.0000 C    0  0  0  0  0  0  0  0  0  0  0  0
    8.5465   -2.9637    0.0000 C    0  0  0  0  0  0  0  0  0  0  0  0
    5.7723   -1.1545    0.0000 C    0  0  0  0  0  0  0  0  0  0  0  0
    6.4443    0.0000    0.0000 F    0  0  0  0  0  0  0  0  0  0  0  0
    5.1003    0.0000    0.0000 F    0  0  0  0  0  0  0  0  0  0  0  0
    4.6179  -11.2345    0.0000 C    0  0  0  0  0  0  0  0  0  0  0  0
 44  4  1  6  0  0  0
  5  6  1  0  0  0  0
  5 44  1  0  0  0  0
  6  7  1  0  0  0  0
  7  8  2  0  0  0  0
  7 12  1  0  0  0  0
  8  9  1  0  0  0  0
  9 10  2  0  0  0  0
 10 11  1  0  0  0  0
 11 12  2  0  0  0  0
 11 16  1  0  0  0  0
 12 13  1  0  0  0  0
 13 14  2  0  0  0  0
 14 15  1  0  0  0  0
 15 16  2  0  0  0  0
 17 18  1  0  0  0  0
 17 44  1  0  0  0  0
 18 19  1  0  0  0  0
 18 23  1  0  0  0  0
 19 20  1  0  0  0  0
 20 21  1  0  0  0  0
 21 22  1  0  0  0  0
 24 21  1  1  0  0  0
 22 23  1  0  0  0  0
 24 25  1  0  0  0  0
 24 36  1  0  0  0  0
 25 26  2  0  0  0  0
 25 30  1  0  0  0  0
 26 27  1  0  0  0  0
 26 31  1  0  0  0  0
 27 28  2  0  0  0  0
 28 29  1  0  0  0  0
 29 30  2  0  0  0  0
 31 32  1  0  0  0  0
 31 33  1  0  0  0  0
 31 41  1  6  0  0  0
 33 34  1  0  0  0  0
 33 35  1  0  0  0  0
 33 41  1  6  0  0  0
 35 36  2  0  0  0  0
 35 40  1  0  0  0  0
 36 37  1  0  0  0  0
 37 38  2  0  0  0  0
 38 39  1  0  0  0  0
 39 40  2  0  0  0  0
 41 42  1  0  0  0  0
 41 43  1  0  0  0  0
M  END
> <ID>
16262

> <Formula>
C32H34Cl3F2N3O2

> <FW>
636.9871 (36.4609+36.4609+36.4609+527.6042)

> <DSSTox_CID>
31451

> <DSSTox_RID>
97337

> <DSSTox_GSID>
57662

> <DSSTox_FileID_Sort>
8404

> <TS_ChemName>
LY335979 trihydrochloride

> <TS_ChemName_Synonyms>


> <TS_CASRN>
167465-36-3

> <CASRN_ChemName_Relationship>
primary

> <TS_Description>
single chemical compound

> <ChemNote>


> <STRUCTURE_Shown>
tested chemical

> <STRUCTURE_Formula>
C32H34Cl3F2N3O2

> <STRUCTURE_MW>
636.9871

> <STRUCTURE_ChemType>
defined organic

> <STRUCTURE_DefinedOrganicForm>
complex

> <STRUCTURE_IUPAC>
(2R)-1-{4-[(1aR,10bS)-1,1-difluoro-1,1a,6,10b-tetrahydrodibenzo[a,e]cyclopropa[c][7]annulen-6-yl]piperazin-1-yl}-3-(quinolin-5-yloxy)propan-2-ol trihydrochloride

> <STRUCTURE_SMILES>
Cl.Cl.Cl.FC3(F)[C@@H]2c7ccccc7[C@H](c1ccccc1[C@@H]23)N4CCN(CC4)C[C@@H](O)COc6cccc5ncccc56

> <STRUCTURE_SMILES_Desalt>
FC3(F)[C@@H]2c7ccccc7[C@H](c1ccccc1[C@@H]23)N4CCN(CC4)C[C@@H](O)COc6cccc5ncccc56

> <Substance_modify_yyyymmdd>
20131121

$$$$
