1675-54-3
ChemmineR-0915142007XD

 25 28  0  0  0  0  0  0  0  0  1 V2000
    5.7954   -1.1507    0.0000 C   0  0  0  0  0  0  0  0  0  0  0  0
    6.4690    0.0000    0.0000 C   0  0  0  0  0  0  0  0  0  0  0  0
    4.6448   -0.4911    0.0000 C   0  0  0  0  0  0  0  0  0  0  0  0
    5.1499   -2.3013    0.0000 C   0  0  0  0  0  0  0  0  0  0  0  0
    3.8028   -2.3013    0.0000 C   0  0  0  0  0  0  0  0  0  0  0  0
    3.1433   -3.4520    0.0000 C   0  0  0  0  0  0  0  0  0  0  0  0
    3.8028   -4.6027    0.0000 C   0  0  0  0  0  0  0  0  0  0  0  0
    5.1499   -4.6027    0.0000 C   0  0  0  0  0  0  0  0  0  0  0  0
    5.7954   -3.4520    0.0000 C   0  0  0  0  0  0  0  0  0  0  0  0
    3.1433   -5.7533    0.0000 O   0  0  0  0  0  0  0  0  0  0  0  0
    1.8242   -5.7533    0.0000 C   0  0  0  0  0  0  0  0  0  0  0  0
    1.1507   -6.9040    0.0000 C   0  0  0  0  0  0  0  0  0  0  0  0
    0.0000   -7.5635    0.0000 C   0  0  0  0  0  0  0  0  0  0  0  0
    1.1507   -8.2371    0.0000 O   0  0  0  0  0  0  0  0  0  0  0  0
    6.9461   -1.8102    0.0000 C   0  0  0  0  0  0  0  0  0  0  0  0
    6.9461   -3.1433    0.0000 C   0  0  0  0  0  0  0  0  0  0  0  0
    8.0968   -3.8168    0.0000 C   0  0  0  0  0  0  0  0  0  0  0  0
    9.2474   -3.1433    0.0000 C   0  0  0  0  0  0  0  0  0  0  0  0
    9.2474   -1.8102    0.0000 C   0  0  0  0  0  0  0  0  0  0  0  0
    8.0968   -1.1507    0.0000 C   0  0  0  0  0  0  0  0  0  0  0  0
   10.3981   -3.8168    0.0000 O   0  0  0  0  0  0  0  0  0  0  0  0
   11.5488   -3.1433    0.0000 C   0  0  0  0  0  0  0  0  0  0  0  0
   12.6994   -3.8168    0.0000 C   0  0  0  0  0  0  0  0  0  0  0  0
   13.3730   -4.9675    0.0000 C   0  0  0  0  0  0  0  0  0  0  0  0
   14.0325   -3.8168    0.0000 O   0  0  0  0  0  0  0  0  0  0  0  0
  1  2  1  0  0  0  0
  1  3  1  0  0  0  0
  1  4  1  0  0  0  0
  1 15  1  0  0  0  0
  4  5  2  0  0  0  0
  4  9  1  0  0  0  0
  5  6  1  0  0  0  0
  6  7  2  0  0  0  0
  7  8  1  0  0  0  0
  7 10  1  0  0  0  0
  8  9  2  0  0  0  0
 10 11  1  0  0  0  0
 11 12  1  0  0  0  0
 12 13  1  0  0  0  0
 12 14  1  0  0  0  0
 13 14  1  0  0  0  0
 15 16  2  0  0  0  0
 15 20  1  0  0  0  0
 16 17  1  0  0  0  0
 17 18  2  0  0  0  0
 18 19  1  0  0  0  0
 18 21  1  0  0  0  0
 19 20  2  0  0  0  0
 21 22  1  0  0  0  0
 22 23  1  0  0  0  0
 23 24  1  0  0  0  0
 23 25  1  0  0  0  0
 24 25  1  0  0  0  0
M  END
> <ID>
3772

> <Formula>
C21H24O4

> <FW>
340.4129

> <DSSTox_CID>
4624

> <DSSTox_RID>
77472

> <DSSTox_GSID>
24624

> <DSSTox_FileID_Sort>
2155

> <TS_ChemName>
Bisphenol A diglycidyl ether

> <TS_ChemName_Synonyms>
Bisphenol A diglycidyl ether (Oxirane, 2,2'-[(1-methylethylidene)bis(4,1-phenyleneoxymethylene)]bis-)

> <TS_CASRN>
1675-54-3

> <CASRN_ChemName_Relationship>
primary

> <TS_Description>
single chemical compound

> <ChemNote>


> <STRUCTURE_Shown>
tested chemical

> <STRUCTURE_Formula>
C21H24O4

> <STRUCTURE_MW>
340.4129

> <STRUCTURE_ChemType>
defined organic

> <STRUCTURE_DefinedOrganicForm>
parent

> <STRUCTURE_IUPAC>
2,2'-[propane-2,2-diylbis(benzene-4,1-diyloxymethanediyl)]dioxirane

> <STRUCTURE_SMILES>
CC(C)(c2ccc(OCC1CO1)cc2)c4ccc(OCC3CO3)cc4

> <STRUCTURE_SMILES_Desalt>
CC(C)(c2ccc(OCC1CO1)cc2)c4ccc(OCC3CO3)cc4

> <Substance_modify_yyyymmdd>
20080429

$$$$
