16773-42-5
ChemmineR-0915142007XD

 14 14  0  0  0  0  0  0  0  0  2 V2000
    1.7286   -2.2550    0.0000 C    0  0  0  0  0  0  0  0  0  0  0  0
    2.9959   -2.6580    0.0000 N    0  0  0  0  0  0  0  0  0  0  0  0
    1.3127   -0.9943    0.0000 N    0  3  0  0  0  0  0  0  0  0  0  0
    0.9618   -3.3468    0.0000 C    0  0  0  0  0  0  0  0  0  0  0  0
    1.7286   -4.3996    0.0000 N    0  0  0  0  0  0  0  0  0  0  0  0
    2.9959   -4.0032    0.0000 C    0  0  0  0  0  0  0  0  0  0  0  0
    4.1461   -2.0016    0.0000 C    0  0  0  0  0  0  0  0  0  0  0  0
    2.1900    0.0000    0.0000 O    0  5  0  0  0  0  0  0  0  0  0  0
    0.0000   -0.7214    0.0000 O    0  0  0  0  0  0  0  0  0  0  0  0
    5.3159   -2.6904    0.0000 C    0  0  0  0  0  0  0  0  0  0  0  0
    6.4987   -2.0471    0.0000 O    0  0  0  0  0  0  0  0  0  0  0  0
    6.4987   -4.6270    0.0000 Cl   0  0  0  0  0  0  0  0  0  0  0  0
    4.0682   -4.7700    0.0000 C    0  0  0  0  0  0  0  0  0  0  0  0
    5.3159   -3.9837    0.0000 C    0  0  0  0  0  0  0  0  0  0  0  0
  1  2  1  0  0  0  0
  1  3  1  0  0  0  0
  1  4  2  0  0  0  0
  2  6  1  0  0  0  0
  2  7  1  0  0  0  0
  3  8  1  0  0  0  0
  3  9  2  0  0  0  0
  4  5  1  0  0  0  0
  5  6  2  0  0  0  0
  6 13  1  0  0  0  0
  7 10  1  0  0  0  0
 10 11  1  0  0  0  0
 10 14  1  0  0  0  0
 12 14  1  0  0  0  0
M  END
> <ID>
10936

> <Formula>
C7H10ClN3O3

> <FW>
219.6256

> <DSSTox_CID>
25420

> <DSSTox_RID>
80868

> <DSSTox_GSID>
45420

> <DSSTox_FileID_Sort>
5549

> <TS_ChemName>
Ornidazole

> <TS_ChemName_Synonyms>


> <TS_CASRN>
16773-42-5

> <CASRN_ChemName_Relationship>
primary

> <TS_Description>
single chemical compound

> <ChemNote>


> <STRUCTURE_Shown>
tested chemical

> <STRUCTURE_Formula>
C7H10ClN3O3

> <STRUCTURE_MW>
219.6256

> <STRUCTURE_ChemType>
defined organic

> <STRUCTURE_DefinedOrganicForm>
parent

> <STRUCTURE_IUPAC>
1-chloro-3-(2-methyl-5-nitro-1H-imidazol-1-yl)propan-2-ol

> <STRUCTURE_SMILES>
Cc1ncc([N+]([O-])=O)n1CC(O)CCl

> <STRUCTURE_SMILES_Desalt>
Cc1ncc([N+]([O-])=O)n1CC(O)CCl

> <Substance_modify_yyyymmdd>
20100107

$$$$
