16777-42-7
ChemmineR-0915142007XD

 24 24  0  0  1  0  0  0  0  0  1 V2000
   10.3375   -1.9926    0.0000 C    0  0  0  0  0  0  0  0  0  0  0  0
    9.1839   -2.6668    0.0000 C    0  0  0  0  0  0  0  0  0  0  0  0
    3.4458   -2.0076    0.0000 C    0  0  0  0  0  0  0  0  0  0  0  0
   11.4911   -2.6668    0.0000 C    0  0  0  0  0  0  0  0  0  0  0  0
    9.1839   -4.0002    0.0000 O    0  0  0  0  0  0  0  0  0  0  0  0
    2.2922   -2.6668    0.0000 C    0  0  0  0  0  0  0  0  0  0  0  0
    4.5995   -2.6668    0.0000 C    0  0  0  0  0  0  0  0  0  0  0  0
    5.7381   -2.0076    0.0000 N    0  0  0  0  0  0  0  0  0  0  0  0
    8.0603   -2.0076    0.0000 C    0  0  0  0  0  0  0  0  0  0  0  0
   12.6298   -1.9926    0.0000 C    0  0  0  0  0  0  0  0  0  0  0  0
    6.8917   -2.6668    0.0000 C    0  0  0  0  0  0  0  0  0  0  0  0
    3.4458   -0.6742    0.0000 O    0  0  0  0  0  0  0  0  0  0  0  0
   13.8283   -2.6668    0.0000 O    0  0  0  0  0  0  0  0  0  0  0  0
   10.3375   -0.6742    0.0000 C    0  0  0  0  0  0  0  0  0  0  0  0
   11.4911    0.0000    0.0000 C    0  0  0  0  0  0  0  0  0  0  0  0
    2.2922   -4.0002    0.0000 C    0  0  0  0  0  0  0  0  0  0  0  0
    1.1386   -2.0076    0.0000 C    0  0  0  0  0  0  0  0  0  0  0  0
   12.6298   -0.6592    0.0000 C    0  0  0  0  0  0  0  0  0  0  0  0
    4.5995   -4.0002    0.0000 C    0  0  0  0  0  0  0  0  0  0  0  0
   14.9819   -1.9776    0.0000 C    0  0  0  0  0  0  0  0  0  0  0  0
    0.0000   -2.6668    0.0000 C    0  0  0  0  0  0  0  0  0  0  0  0
    1.1386   -4.6594    0.0000 C    0  0  0  0  0  0  0  0  0  0  0  0
    0.0000   -4.0002    0.0000 C    0  0  0  0  0  0  0  0  0  0  0  0
   11.7458   -3.8653    0.0000 Cl   0  0  0  0  0  0  0  0  0  0  0  0
  1  2  1  0  0  0  0
  1  4  2  0  0  0  0
  1 14  1  0  0  0  0
  2  5  2  0  0  0  0
  2  9  1  0  0  0  0
  3  7  1  0  0  0  0
  3  6  1  0  0  0  0
  3 12  1  1  0  0  0
  4 10  1  0  0  0  0
  6 16  2  0  0  0  0
  6 17  1  0  0  0  0
  7  8  1  0  0  0  0
  7 19  1  1  0  0  0
  8 11  1  0  0  0  0
  9 11  1  0  0  0  0
 10 13  1  0  0  0  0
 10 18  2  0  0  0  0
 13 20  1  0  0  0  0
 14 15  2  0  0  0  0
 15 18  1  0  0  0  0
 16 22  1  0  0  0  0
 17 21  2  0  0  0  0
 21 23  1  0  0  0  0
 22 23  2  0  0  0  0
M  END
> <ID>
13629

> <Formula>
C19H24ClNO3

> <FW>
349.8518 (313.3908+36.4609)

> <DSSTox_CID>
28558

> <DSSTox_RID>
82830

> <DSSTox_GSID>
48632

> <DSSTox_FileID_Sort>
7507

> <TS_ChemName>
l-Oxyfedrine hydrochloride

> <TS_ChemName_Synonyms>
Oxyphedrine

> <TS_CASRN>
16777-42-7

> <CASRN_ChemName_Relationship>
primary

> <TS_Description>
single chemical compound

> <ChemNote>
absolute stereochem; rotation (-); parent [15687-41-9]

> <STRUCTURE_Shown>
tested chemical

> <STRUCTURE_Formula>
C19H24ClNO3

> <STRUCTURE_MW>
349.8518

> <STRUCTURE_ChemType>
defined organic

> <STRUCTURE_DefinedOrganicForm>
complex

> <STRUCTURE_IUPAC>
3-{[(1R,2S)-1-hydroxy-1-phenylpropan-2-yl]amino}-1-(3-methoxyphenyl)propan-1-one hydrochloride (1:1)

> <STRUCTURE_SMILES>
Cl.COc1cc(ccc1)C(=O)CCN[C@@H](C)[C@H](O)c2ccccc2

> <STRUCTURE_SMILES_Desalt>
COc1cc(ccc1)C(=O)CCN[C@@H](C)[C@H](O)c2ccccc2

> <Substance_modify_yyyymmdd>
20111018

$$$$
