167820-10-2
ChemmineR-0915142007XD

 33 38  0  0  1  0  0  0  0  0  1 V2000
    2.3040   -3.2437    0.0000 C   0  0  0  0  0  0  0  0  0  0  0  0
    2.3040   -4.5694    0.0000 C   0  0  0  0  0  0  0  0  0  0  0  0
    1.1456   -2.5615    0.0000 C   0  0  0  0  0  0  0  0  0  0  0  0
    1.1456   -5.2259    0.0000 C   0  0  0  0  0  0  0  0  0  0  0  0
    0.0000   -3.2437    0.0000 C   0  0  0  0  0  0  0  0  0  0  0  0
    0.0000   -4.5694    0.0000 C   0  0  0  0  0  0  0  0  0  0  0  0
    3.5654   -2.8189    0.0000 N   0  0  0  0  0  0  0  0  0  0  0  0
    4.3377   -3.9001    0.0000 C   0  0  0  0  0  0  0  0  0  0  0  0
    3.5654   -4.9684    0.0000 C   0  0  0  0  0  0  0  0  0  0  0  0
    5.6635   -3.9001    0.0000 C   0  0  0  0  0  0  0  0  0  0  0  0
    6.3457   -5.0328    0.0000 O   0  0  0  0  0  0  0  0  0  0  0  0
    6.3457   -2.7288    0.0000 N   0  0  0  0  0  0  0  0  0  0  0  0
    7.6715   -2.7288    0.0000 C   0  0  0  0  0  0  0  0  0  0  0  0
    8.2378   -1.5317    0.0000 C   0  0  0  0  0  0  0  0  0  0  0  0
    8.2378   -3.9258    0.0000 N   0  0  0  0  0  0  0  0  0  0  0  0
    9.5121   -1.2614    0.0000 N   0  0  0  0  0  0  0  0  0  0  0  0
    9.5121   -4.2348    0.0000 C   0  0  0  0  0  0  0  0  0  0  0  0
   10.5676   -3.4110    0.0000 C   0  0  0  0  0  0  0  0  0  0  0  0
   10.5676   -2.0852    0.0000 C   0  0  0  0  0  0  0  0  0  0  0  0
    7.3883   -0.5020    0.0000 O   0  0  0  0  0  0  0  0  0  0  0  0
   12.8716   -2.0852    0.0000 C   0  0  0  0  0  0  0  0  0  0  0  0
   12.8716   -3.4110    0.0000 C   0  0  0  0  0  0  0  0  0  0  0  0
   11.7261   -1.4030    0.0000 C   0  0  0  0  0  0  0  0  0  0  0  0
   11.7261   -4.0546    0.0000 C   0  0  0  0  0  0  0  0  0  0  0  0
    9.9755    0.0000    0.0000 C   0  0  0  0  0  0  0  0  0  0  0  0
   11.3657   -0.1287    0.0000 C   0  0  0  0  0  0  0  0  0  0  0  0
   10.6835   -6.2299    0.0000 C   0  0  0  0  0  0  0  0  0  0  0  0
   10.6835   -7.5556    0.0000 C   0  0  0  0  0  0  0  0  0  0  0  0
    9.5121   -5.5605    0.0000 C   0  0  0  0  0  0  0  0  0  0  0  0
    9.5121   -8.2121    0.0000 C   0  0  0  0  0  0  0  0  0  0  0  0
    8.3794   -6.2299    0.0000 C   0  0  0  0  0  0  0  0  0  0  0  0
    8.3794   -7.5556    0.0000 C   0  0  0  0  0  0  0  0  0  0  0  0
   11.8290   -5.5605    0.0000 F   0  0  0  0  0  0  0  0  0  0  0  0
  1  3  2  0  0  0  0
  1  7  1  0  0  0  0
  1  2  1  0  0  0  0
  2  4  2  0  0  0  0
  2  9  1  0  0  0  0
  3  5  1  0  0  0  0
  4  6  1  0  0  0  0
  5  6  2  0  0  0  0
  7  8  1  0  0  0  0
  8  9  2  0  0  0  0
  8 10  1  0  0  0  0
 10 11  2  0  0  0  0
 10 12  1  0  0  0  0
 13 12  1  1  0  0  0
 13 14  1  0  0  0  0
 13 15  1  0  0  0  0
 14 16  1  0  0  0  0
 14 20  2  0  0  0  0
 15 17  2  0  0  0  0
 16 25  1  0  0  0  0
 16 19  1  0  0  0  0
 17 18  1  0  0  0  0
 17 29  1  0  0  0  0
 18 24  1  0  0  0  0
 18 19  2  0  0  0  0
 19 23  1  0  0  0  0
 21 22  1  0  0  0  0
 21 23  2  0  0  0  0
 22 24  2  0  0  0  0
 23 26  1  0  0  0  0
 25 26  1  0  0  0  0
 27 28  1  0  0  0  0
 27 29  2  0  0  0  0
 27 33  1  0  0  0  0
 28 30  2  0  0  0  0
 29 31  1  0  0  0  0
 30 32  1  0  0  0  0
 31 32  2  0  0  0  0
M  END
> <ID>
13775

> <Formula>
C26H19FN4O2

> <FW>
438.4531

> <DSSTox_CID>
28712

> <DSSTox_RID>
82981

> <DSSTox_GSID>
48786

> <DSSTox_FileID_Sort>
7658

> <TS_ChemName>
1H-Indole-2-carboxamide, N-[(3R)-1-(2-fluorophenyl)-3,4,6,7-tetrahydro-4-oxopyrrolo[3,2,1-jk][1,4]benzodiazepin-3-yl]-

> <TS_ChemName_Synonyms>


> <TS_CASRN>
167820-10-2

> <CASRN_ChemName_Relationship>
primary

> <TS_Description>
single chemical compound

> <ChemNote>
absolute stereochem; tautomers

> <STRUCTURE_Shown>
tested chemical

> <STRUCTURE_Formula>
C26H19FN4O2

> <STRUCTURE_MW>
438.4531

> <STRUCTURE_ChemType>
defined organic

> <STRUCTURE_DefinedOrganicForm>
parent

> <STRUCTURE_IUPAC>
N-[(3R)-1-(2-fluorophenyl)-4-oxo-3,4,6,7-tetrahydro[1,4]diazepino[6,7,1-hi]indol-3-yl]-1H-indole-2-carboxamide

> <STRUCTURE_SMILES>
Fc6ccccc6C3=N[C@@H](NC(=O)c1cc2ccccc2n1)C(=O)N5CCc4cccc3c45

> <STRUCTURE_SMILES_Desalt>
Fc6ccccc6C3=N[C@@H](NC(=O)c1cc2ccccc2n1)C(=O)N5CCc4cccc3c45

> <Substance_modify_yyyymmdd>
20111204

$$$$
