1679-64-7
ChemmineR-0915142007XD

 13 13  0  0  0  0  0  0  0  0  1 V2000
    4.6412   -1.1483    0.0000 C   0  0  0  0  0  0  0  0  0  0  0  0
    3.9873   -2.3046    0.0000 C   0  0  0  0  0  0  0  0  0  0  0  0
    2.6555   -2.3046    0.0000 C   0  0  0  0  0  0  0  0  0  0  0  0
    1.9857   -1.1483    0.0000 C   0  0  0  0  0  0  0  0  0  0  0  0
    2.6555    0.0000    0.0000 C   0  0  0  0  0  0  0  0  0  0  0  0
    3.9873    0.0000    0.0000 C   0  0  0  0  0  0  0  0  0  0  0  0
    5.9729   -1.1483    0.0000 C   0  0  0  0  0  0  0  0  0  0  0  0
    6.6428   -2.3046    0.0000 O   0  0  0  0  0  0  0  0  0  0  0  0
    6.6428    0.0000    0.0000 O   0  0  0  0  0  0  0  0  0  0  0  0
    0.6539   -1.1483    0.0000 C   0  0  0  0  0  0  0  0  0  0  0  0
    0.0000    0.0000    0.0000 O   0  0  0  0  0  0  0  0  0  0  0  0
    0.0000   -2.3046    0.0000 O   0  0  0  0  0  0  0  0  0  0  0  0
    7.9745    0.0000    0.0000 C   0  0  0  0  0  0  0  0  0  0  0  0
  1  2  2  0  0  0  0
  1  6  1  0  0  0  0
  1  7  1  0  0  0  0
  2  3  1  0  0  0  0
  3  4  2  0  0  0  0
  4  5  1  0  0  0  0
  4 10  1  0  0  0  0
  5  6  2  0  0  0  0
  7  8  2  0  0  0  0
  7  9  1  0  0  0  0
  9 13  1  0  0  0  0
 10 11  2  0  0  0  0
 10 12  1  0  0  0  0
M  END
> <ID>
5149

> <Formula>
C9H8O4

> <FW>
180.1574

> <DSSTox_CID>
7425

> <DSSTox_RID>
78449

> <DSSTox_GSID>
27425

> <DSSTox_FileID_Sort>
3132

> <TS_ChemName>
1,4-Benzenedicarboxylic acid, monomethyl ester

> <TS_ChemName_Synonyms>


> <TS_CASRN>
1679-64-7

> <CASRN_ChemName_Relationship>
primary

> <TS_Description>
single chemical compound

> <ChemNote>


> <STRUCTURE_Shown>
tested chemical

> <STRUCTURE_Formula>
C9H8O4

> <STRUCTURE_MW>
180.1574

> <STRUCTURE_ChemType>
defined organic

> <STRUCTURE_DefinedOrganicForm>
parent

> <STRUCTURE_IUPAC>
4-(methoxycarbonyl)benzoic acid

> <STRUCTURE_SMILES>
COC(=O)c1ccc(cc1)C(=O)O

> <STRUCTURE_SMILES_Desalt>
COC(=O)c1ccc(cc1)C(=O)O

> <Substance_modify_yyyymmdd>
20080429

$$$$
