1679-07-8
ChemmineR-0915142007XD

  6  6  0  0  0  0  0  0  0  0  1 V2000
    0.0000   -2.1163    0.0000 C   0  0  0  0  0  0  0  0  0  0  0  0
    1.0750   -1.3286    0.0000 C   0  0  0  0  0  0  0  0  0  0  0  0
    0.3989   -3.3806    0.0000 C   0  0  0  0  0  0  0  0  0  0  0  0
    2.1467   -2.1163    0.0000 C   0  0  0  0  0  0  0  0  0  0  0  0
    1.7309   -3.3806    0.0000 C   0  0  0  0  0  0  0  0  0  0  0  0
    1.0750    0.0000    0.0000 S   0  0  0  0  0  0  0  0  0  0  0  0
  1  2  1  0  0  0  0
  1  3  1  0  0  0  0
  2  4  1  0  0  0  0
  2  6  1  0  0  0  0
  3  5  1  0  0  0  0
  4  5  1  0  0  0  0
M  END
> <ID>
12258

> <Formula>
C5H10S

> <FW>
102.1979

> <DSSTox_CID>
27108

> <DSSTox_RID>
82118

> <DSSTox_GSID>
47108

> <DSSTox_FileID_Sort>
6799

> <TS_ChemName>
Cyclopentanethiol

> <TS_ChemName_Synonyms>


> <TS_CASRN>
1679-07-8

> <CASRN_ChemName_Relationship>
primary

> <TS_Description>
single chemical compound

> <ChemNote>


> <STRUCTURE_Shown>
tested chemical

> <STRUCTURE_Formula>
C5H10S

> <STRUCTURE_MW>
102.1979

> <STRUCTURE_ChemType>
defined organic

> <STRUCTURE_DefinedOrganicForm>
parent

> <STRUCTURE_IUPAC>
cyclopentanethiol

> <STRUCTURE_SMILES>
SC1CCCC1

> <STRUCTURE_SMILES_Desalt>
SC1CCCC1

> <Substance_modify_yyyymmdd>
20100429

$$$$
