16816-67-4
ChemmineR-0915142007XD

 36 35  0  0  0  0  0  0  0  0  1 V2000
   24.3197   -1.9687    0.0000 C   0  0  0  0  0  0  0  0  0  0  0  0
    4.6323   -1.3318    0.0000 C   0  0  0  0  0  0  0  0  0  0  0  0
   26.6359   -1.9687    0.0000 C   0  0  0  0  0  0  0  0  0  0  0  0
    2.3162   -1.3318    0.0000 C   0  0  0  0  0  0  0  0  0  0  0  0
   25.4778   -1.3318    0.0000 C   0  0  0  0  0  0  0  0  0  0  0  0
    3.4742   -1.9687    0.0000 C   0  0  0  0  0  0  0  0  0  0  0  0
    9.2647   -1.3318    0.0000 C   0  0  0  0  0  0  0  0  0  0  0  0
   19.6874   -1.9687    0.0000 C   0  0  0  0  0  0  0  0  0  0  0  0
    8.1066   -1.9687    0.0000 C   0  0  0  0  0  0  0  0  0  0  0  0
   20.8455   -1.3318    0.0000 C   0  0  0  0  0  0  0  0  0  0  0  0
   24.3197   -3.3295    0.0000 O   0  0  0  0  0  0  0  0  0  0  0  0
    4.6323    0.0000    0.0000 O   0  0  0  0  0  0  0  0  0  0  0  0
    9.2647    0.0000    0.0000 O   0  0  0  0  0  0  0  0  0  0  0  0
   19.6874   -3.3295    0.0000 O   0  0  0  0  0  0  0  0  0  0  0  0
   23.1616   -1.3318    0.0000 N   0  0  0  0  0  0  0  0  0  0  0  0
    5.7904   -1.9687    0.0000 N   0  0  0  0  0  0  0  0  0  0  0  0
   18.5293   -1.3318    0.0000 N   0  0  0  0  0  0  0  0  0  0  0  0
   10.4227   -1.9687    0.0000 N   0  0  0  0  0  0  0  0  0  0  0  0
   15.0261   -1.9687    0.0000 S   0  0  0  0  0  0  0  0  0  0  0  0
   13.9259   -1.3318    0.0000 S   0  0  0  0  0  0  0  0  0  0  0  0
    6.9485   -1.3318    0.0000 C   0  0  0  0  0  0  0  0  0  0  0  0
   22.0036   -1.9687    0.0000 C   0  0  0  0  0  0  0  0  0  0  0  0
   25.4778    0.0000    0.0000 O   0  0  0  0  0  0  0  0  0  0  0  0
    3.4742   -3.3295    0.0000 O   0  0  0  0  0  0  0  0  0  0  0  0
   16.2131   -1.3318    0.0000 C   0  0  0  0  0  0  0  0  0  0  0  0
   12.7389   -1.9687    0.0000 C   0  0  0  0  0  0  0  0  0  0  0  0
   27.7940   -2.6636    0.0000 C   0  0  0  0  0  0  0  0  0  0  0  0
    1.1581   -0.6659    0.0000 C   0  0  0  0  0  0  0  0  0  0  0  0
    1.6503   -2.4899    0.0000 C   0  0  0  0  0  0  0  0  0  0  0  0
    2.9821   -0.1737    0.0000 C   0  0  0  0  0  0  0  0  0  0  0  0
   25.9700   -3.1558    0.0000 C   0  0  0  0  0  0  0  0  0  0  0  0
   27.3018   -0.8396    0.0000 C   0  0  0  0  0  0  0  0  0  0  0  0
    0.0000   -1.3318    0.0000 O   0  0  0  0  0  0  0  0  0  0  0  0
   28.9521   -1.9687    0.0000 O   0  0  0  0  0  0  0  0  0  0  0  0
   17.3712   -1.9687    0.0000 C   0  0  0  0  0  0  0  0  0  0  0  0
   11.5808   -1.3318    0.0000 C   0  0  0  0  0  0  0  0  0  0  0  0
  1  5  1  0  0  0  0
  1 11  2  0  0  0  0
  1 15  1  0  0  0  0
  2 16  1  0  0  0  0
  2  6  1  0  0  0  0
  2 12  2  0  0  0  0
  3  5  1  0  0  0  0
  3 27  1  0  0  0  0
  3 31  1  0  0  0  0
  3 32  1  0  0  0  0
  4  6  1  0  0  0  0
  4 28  1  0  0  0  0
  4 29  1  0  0  0  0
  4 30  1  0  0  0  0
  5 23  1  0  0  0  0
  6 24  1  0  0  0  0
  7 18  1  0  0  0  0
  7  9  1  0  0  0  0
  7 13  2  0  0  0  0
  8 10  1  0  0  0  0
  8 14  2  0  0  0  0
  8 17  1  0  0  0  0
  9 21  1  0  0  0  0
 10 22  1  0  0  0  0
 15 22  1  0  0  0  0
 16 21  1  0  0  0  0
 17 35  1  0  0  0  0
 18 36  1  0  0  0  0
 19 25  1  0  0  0  0
 19 20  1  0  0  0  0
 20 26  1  0  0  0  0
 25 35  1  0  0  0  0
 26 36  1  0  0  0  0
 27 34  1  0  0  0  0
 28 33  1  0  0  0  0
M  END
> <ID>
11991

> <Formula>
C22H42N4O8S2

> <FW>
554.7209

> <DSSTox_CID>
26815

> <DSSTox_RID>
81927

> <DSSTox_GSID>
46815

> <DSSTox_FileID_Sort>
6608

> <TS_ChemName>
Pantethine

> <TS_ChemName_Synonyms>


> <TS_CASRN>
16816-67-4

> <CASRN_ChemName_Relationship>
primary

> <TS_Description>
single chemical compound

> <ChemNote>


> <STRUCTURE_Shown>
tested chemical

> <STRUCTURE_Formula>
C22H42N4O8S2

> <STRUCTURE_MW>
554.7209

> <STRUCTURE_ChemType>
defined organic

> <STRUCTURE_DefinedOrganicForm>
parent

> <STRUCTURE_IUPAC>
N,N'-{disulfanediylbis[ethane-2,1-diylimino(3-oxopropane-3,1-diyl)]}bis(2,4-dihydroxy-3,3-dimethylbutanamide)

> <STRUCTURE_SMILES>
O=C(NCCSSCCNC(=O)CCNC(=O)C(O)C(C)(C)CO)CCNC(=O)C(O)C(C)(C)CO

> <STRUCTURE_SMILES_Desalt>
O=C(NCCSSCCNC(=O)CCNC(=O)C(O)C(C)(C)CO)CCNC(=O)C(O)C(C)(C)CO

> <Substance_modify_yyyymmdd>
20110801

$$$$
