168273-06-1
ChemmineR-0915142007XD

 30 33  0  0  0  0  0  0  0  0  1 V2000
    7.0873   -8.4316    0.0000 C    0  0  0  0  0  0  0  0  0  0  0  0
    6.3090   -7.3585    0.0000 C    0  0  0  0  0  0  0  0  0  0  0  0
    6.7217   -6.0967    0.0000 C    0  0  0  0  0  0  0  0  0  0  0  0
    5.6486   -5.3184    0.0000 N    0  0  0  0  0  0  0  0  0  0  0  0
    4.5755   -6.0967    0.0000 N    0  0  0  0  0  0  0  0  0  0  0  0
    4.9882   -7.3585    0.0000 C    0  0  0  0  0  0  0  0  0  0  0  0
    4.1981   -8.4316    0.0000 C    0  0  0  0  0  0  0  0  0  0  0  0
    4.7524   -9.6580    0.0000 O    0  0  0  0  0  0  0  0  0  0  0  0
    2.8774   -8.3019    0.0000 N    0  0  0  0  0  0  0  0  0  0  0  0
    2.0991   -9.3750    0.0000 N    0  0  0  0  0  0  0  0  0  0  0  0
    0.7665   -9.2335    0.0000 C    0  0  0  0  0  0  0  0  0  0  0  0
    0.0000  -10.3066    0.0000 C    0  0  0  0  0  0  0  0  0  0  0  0
    0.5307  -11.5330    0.0000 C    0  0  0  0  0  0  0  0  0  0  0  0
    1.8632  -11.6745    0.0000 C    0  0  0  0  0  0  0  0  0  0  0  0
    2.6415  -10.5778    0.0000 C    0  0  0  0  0  0  0  0  0  0  0  0
    5.6486   -3.9859    0.0000 C    0  0  0  0  0  0  0  0  0  0  0  0
    6.8043   -3.3137    0.0000 C    0  0  0  0  0  0  0  0  0  0  0  0
    6.8043   -1.9811    0.0000 C    0  0  0  0  0  0  0  0  0  0  0  0
    5.6486   -1.3208    0.0000 C    0  0  0  0  0  0  0  0  0  0  0  0
    5.6486    0.0000    0.0000 Cl   0  0  0  0  0  0  0  0  0  0  0  0
    4.5047   -1.9811    0.0000 C    0  0  0  0  0  0  0  0  0  0  0  0
    4.5047   -3.3137    0.0000 C    0  0  0  0  0  0  0  0  0  0  0  0
    3.3491   -3.9859    0.0000 Cl   0  0  0  0  0  0  0  0  0  0  0  0
    7.9953   -5.6958    0.0000 C    0  0  0  0  0  0  0  0  0  0  0  0
    8.9859   -6.5684    0.0000 C    0  0  0  0  0  0  0  0  0  0  0  0
   10.2477   -6.1557    0.0000 C    0  0  0  0  0  0  0  0  0  0  0  0
   10.5307   -4.8585    0.0000 C    0  0  0  0  0  0  0  0  0  0  0  0
   11.7925   -4.4576    0.0000 Cl   0  0  0  0  0  0  0  0  0  0  0  0
    9.5283   -3.9741    0.0000 C    0  0  0  0  0  0  0  0  0  0  0  0
    8.2665   -4.3868    0.0000 C    0  0  0  0  0  0  0  0  0  0  0  0
  1  2  1  0  0  0  0
  2  3  2  0  0  0  0
  2  6  1  0  0  0  0
  3  4  1  0  0  0  0
  3 24  1  0  0  0  0
  4  5  1  0  0  0  0
  4 16  1  0  0  0  0
  5  6  2  0  0  0  0
  6  7  1  0  0  0  0
  7  8  2  0  0  0  0
  7  9  1  0  0  0  0
  9 10  1  0  0  0  0
 10 11  1  0  0  0  0
 10 15  1  0  0  0  0
 11 12  1  0  0  0  0
 12 13  1  0  0  0  0
 13 14  1  0  0  0  0
 14 15  1  0  0  0  0
 16 17  2  0  0  0  0
 16 22  1  0  0  0  0
 17 18  1  0  0  0  0
 18 19  2  0  0  0  0
 19 20  1  0  0  0  0
 19 21  1  0  0  0  0
 21 22  2  0  0  0  0
 22 23  1  0  0  0  0
 24 25  2  0  0  0  0
 24 30  1  0  0  0  0
 25 26  1  0  0  0  0
 26 27  2  0  0  0  0
 27 28  1  0  0  0  0
 27 29  1  0  0  0  0
 29 30  2  0  0  0  0
M  END
> <ID>
11693

> <Formula>
C22H21Cl3N4O

> <FW>
463.7873

> <DSSTox_CID>
26453

> <DSSTox_RID>
81627

> <DSSTox_GSID>
46453

> <DSSTox_FileID_Sort>
6308

> <TS_ChemName>
Rimonabant

> <TS_ChemName_Synonyms>


> <TS_CASRN>
168273-06-1

> <CASRN_ChemName_Relationship>
primary

> <TS_Description>
single chemical compound

> <ChemNote>


> <STRUCTURE_Shown>
tested chemical

> <STRUCTURE_Formula>
C22H21Cl3N4O

> <STRUCTURE_MW>
463.7873

> <STRUCTURE_ChemType>
defined organic

> <STRUCTURE_DefinedOrganicForm>
parent

> <STRUCTURE_IUPAC>
5-(4-chlorophenyl)-1-(2,4-dichlorophenyl)-4-methyl-N-(piperidin-1-yl)-1H-pyrazole-3-carboxamide

> <STRUCTURE_SMILES>
O=C(NN1CCCCC1)c4nn(c2ccc(Cl)cc2Cl)c(c3ccc(Cl)cc3)c4C

> <STRUCTURE_SMILES_Desalt>
O=C(NN1CCCCC1)c4nn(c2ccc(Cl)cc2Cl)c(c3ccc(Cl)cc3)c4C

> <Substance_modify_yyyymmdd>
20110813

$$$$
