1684-40-8
ChemmineR-0915142007XD

 16 17  0  0  0  0  0  0  0  0  1 V2000
    3.4550    0.0000    0.0000 N    0  0  0  0  0  0  0  0  0  0  0  0
    3.4550   -1.3336    0.0000 C    0  0  0  0  0  0  0  0  0  0  0  0
    4.6090   -1.9970    0.0000 C    0  0  0  0  0  0  0  0  0  0  0  0
    4.6090   -3.3237    0.0000 C    0  0  0  0  0  0  0  0  0  0  0  0
    5.7560   -3.9940    0.0000 C    0  0  0  0  0  0  0  0  0  0  0  0
    6.9100   -3.3237    0.0000 C    0  0  0  0  0  0  0  0  0  0  0  0
    6.9100   -1.9970    0.0000 C    0  0  0  0  0  0  0  0  0  0  0  0
    5.7560   -1.3336    0.0000 C    0  0  0  0  0  0  0  0  0  0  0  0
    3.4550   -3.9940    0.0000 N    0  0  0  0  0  0  0  0  0  0  0  0
    2.3010   -3.3237    0.0000 C    0  0  0  0  0  0  0  0  0  0  0  0
    1.1540   -3.9940    0.0000 C    0  0  0  0  0  0  0  0  0  0  0  0
    0.0000   -3.3237    0.0000 C    0  0  0  0  0  0  0  0  0  0  0  0
    0.0000   -1.9970    0.0000 C    0  0  0  0  0  0  0  0  0  0  0  0
    1.1540   -1.3336    0.0000 C    0  0  0  0  0  0  0  0  0  0  0  0
    2.3010   -1.9970    0.0000 C    0  0  0  0  0  0  0  0  0  0  0  0
    4.1253   -5.3207    0.0000 Cl   0  0  0  0  0  0  0  0  0  0  0  0
  1  2  1  0  0  0  0
  2  3  2  0  0  0  0
  2 15  1  0  0  0  0
  3  4  1  0  0  0  0
  3  8  1  0  0  0  0
  4  5  1  0  0  0  0
  4  9  2  0  0  0  0
  5  6  1  0  0  0  0
  6  7  1  0  0  0  0
  7  8  1  0  0  0  0
  9 10  1  0  0  0  0
 10 11  2  0  0  0  0
 10 15  1  0  0  0  0
 11 12  1  0  0  0  0
 12 13  2  0  0  0  0
 13 14  1  0  0  0  0
 14 15  2  0  0  0  0
M  END
> <ID>
4548

> <Formula>
C13H15ClN2

> <FW>
234.7246 (198.2637+36.4609)

> <DSSTox_CID>
6112

> <DSSTox_RID>
78021

> <DSSTox_GSID>
26112

> <DSSTox_FileID_Sort>
2704

> <TS_ChemName>
1,2,3,4-Tetrahydro-9-acridinamine hydrochloride

> <TS_ChemName_Synonyms>


> <TS_CASRN>
1684-40-8

> <CASRN_ChemName_Relationship>
primary

> <TS_Description>
single chemical compound

> <ChemNote>
parent [321-64-2]

> <STRUCTURE_Shown>
tested chemical

> <STRUCTURE_Formula>
C13H15ClN2

> <STRUCTURE_MW>
234.7246

> <STRUCTURE_ChemType>
defined organic

> <STRUCTURE_DefinedOrganicForm>
complex

> <STRUCTURE_IUPAC>
1,2,3,4-tetrahydroacridin-9-amine hydrochloride (1:1)

> <STRUCTURE_SMILES>
Cl.Nc1c3ccccc3nc2CCCCc12

> <STRUCTURE_SMILES_Desalt>
Nc1c3ccccc3nc2CCCCc12

> <Substance_modify_yyyymmdd>
20080429

$$$$
