16852-81-6
ChemmineR-0915142007XD

 17 19  0  0  0  0  0  0  0  0  1 V2000
    1.0023   -1.3583    0.0000 N   0  0  0  0  0  0  0  0  0  0  0  0
    2.3513   -1.6955    0.0000 C   0  0  0  0  0  0  0  0  0  0  0  0
    0.6089    0.0000    0.0000 C   0  0  0  0  0  0  0  0  0  0  0  0
    0.0000   -2.3513    0.0000 C   0  0  0  0  0  0  0  0  0  0  0  0
    1.6300   -1.9953    0.0000 C   0  0  0  0  0  0  0  0  0  0  0  0
    2.9976   -2.3513    0.0000 C   0  0  0  0  0  0  0  0  0  0  0  0
    1.2553   -0.6557    0.0000 C   0  0  0  0  0  0  0  0  0  0  0  0
    0.6464   -3.0164    0.0000 C   0  0  0  0  0  0  0  0  0  0  0  0
    4.2154   -3.0632    0.0000 O   0  0  0  0  0  0  0  0  0  0  0  0
    5.4332   -2.3513    0.0000 C   0  0  0  0  0  0  0  0  0  0  0  0
    6.6416   -3.0632    0.0000 C   0  0  0  0  0  0  0  0  0  0  0  0
    5.4332   -0.9461    0.0000 O   0  0  0  0  0  0  0  0  0  0  0  0
    8.9929   -2.4075    0.0000 C   0  0  0  0  0  0  0  0  0  0  0  0
    9.3676   -3.7564    0.0000 C   0  0  0  0  0  0  0  0  0  0  0  0
    7.6439   -2.0515    0.0000 C   0  0  0  0  0  0  0  0  0  0  0  0
    8.3840   -4.7587    0.0000 C   0  0  0  0  0  0  0  0  0  0  0  0
    7.0257   -4.4215    0.0000 C   0  0  0  0  0  0  0  0  0  0  0  0
  1  2  1  0  0  0  0
  1  3  1  0  0  0  0
  1  4  1  0  0  0  0
  2  6  1  0  0  0  0
  3  7  1  0  0  0  0
  4  8  1  0  0  0  0
  5  6  1  0  0  0  0
  5  7  1  0  0  0  0
  5  8  1  0  0  0  0
  6  9  1  0  0  0  0
  9 10  1  0  0  0  0
 10 11  1  0  0  0  0
 10 12  2  0  0  0  0
 11 15  1  0  0  0  0
 11 17  2  0  0  0  0
 13 14  1  0  0  0  0
 13 15  2  0  0  0  0
 14 16  2  0  0  0  0
 16 17  1  0  0  0  0
M  END
> <ID>
11489

> <Formula>
C14H17NO2

> <FW>
231.2903

> <DSSTox_CID>
26191

> <DSSTox_RID>
81422

> <DSSTox_GSID>
46191

> <DSSTox_FileID_Sort>
6103

> <TS_ChemName>
Benzoclidine

> <TS_ChemName_Synonyms>


> <TS_CASRN>
16852-81-6

> <CASRN_ChemName_Relationship>
primary

> <TS_Description>
single chemical compound

> <ChemNote>


> <STRUCTURE_Shown>
tested chemical

> <STRUCTURE_Formula>
C14H17NO2

> <STRUCTURE_MW>
231.2903

> <STRUCTURE_ChemType>
defined organic

> <STRUCTURE_DefinedOrganicForm>
parent

> <STRUCTURE_IUPAC>
1-azabicyclo[2.2.2]oct-3-yl benzoate

> <STRUCTURE_SMILES>
O=C(OC2CN1CCC2CC1)c3ccccc3

> <STRUCTURE_SMILES_Desalt>
O=C(OC2CN1CCC2CC1)c3ccccc3

> <Substance_modify_yyyymmdd>
20110818

$$$$
