16870-37-4
ChemmineR-0915142007XD

 50 52  0  0  1  0  0  0  0  0  1 V2000
    0.0000   -5.8446    0.0000 C   0  0  0  0  0  0  0  0  0  0  0  0
    1.1337   -5.1800    0.0000 C   0  0  0  0  0  0  0  0  0  0  0  0
    2.2870   -5.8446    0.0000 C   0  0  0  0  0  0  0  0  0  0  0  0
    3.4598   -6.5092    0.0000 O   0  0  0  0  0  0  0  0  0  0  0  0
    4.6131   -5.8446    0.0000 C   0  0  0  0  0  0  0  0  0  0  0  0
    2.9516   -4.6913    0.0000 C   0  0  0  0  0  0  0  0  0  0  0  0
    1.6224   -6.9978    0.0000 C   0  0  0  0  0  0  0  0  0  0  0  0
    4.6131   -4.5154    0.0000 O   0  0  0  0  0  0  0  0  0  0  0  0
   16.0872   -5.8446    0.0000 N   0  0  0  0  0  0  0  0  0  0  0  0
   17.2600   -6.5092    0.0000 C   0  0  0  0  0  0  0  0  0  0  0  0
   16.0872   -8.5029    0.0000 O   0  0  0  0  0  0  0  0  0  0  0  0
   17.2600   -7.8579    0.0000 C   0  0  0  0  0  0  0  0  0  0  0  0
   18.4133   -5.8446    0.0000 C   0  0  0  0  0  0  0  0  0  0  0  0
   19.5470   -3.8508    0.0000 C   0  0  0  0  0  0  0  0  0  0  0  0
   18.4133   -4.5154    0.0000 C   0  0  0  0  0  0  0  0  0  0  0  0
   17.2600   -3.8508    0.0000 C   0  0  0  0  0  0  0  0  0  0  0  0
   17.2600   -2.5216    0.0000 C   0  0  0  0  0  0  0  0  0  0  0  0
   18.4133   -1.8570    0.0000 C   0  0  0  0  0  0  0  0  0  0  0  0
   19.5470   -2.5216    0.0000 C   0  0  0  0  0  0  0  0  0  0  0  0
   12.6469   -6.5092    0.0000 N   0  0  0  0  0  0  0  0  0  0  0  0
   13.8002   -5.8446    0.0000 C   0  0  0  0  0  0  0  0  0  0  0  0
   14.9339   -7.8579    0.0000 O   0  0  0  0  0  0  0  0  0  0  0  0
   14.9339   -6.5092    0.0000 C   0  0  0  0  0  0  0  0  0  0  0  0
   13.8002   -4.5154    0.0000 C   0  0  0  0  0  0  0  0  0  0  0  0
   14.9339   -3.8508    0.0000 C   0  0  0  0  0  0  0  0  0  0  0  0
   14.9339   -2.5216    0.0000 O   0  0  0  0  0  0  0  0  0  0  0  0
   16.0872   -4.5154    0.0000 O   0  0  0  0  0  0  0  0  0  0  0  0
    9.1871   -5.8446    0.0000 N   0  0  0  0  0  0  0  0  0  0  0  0
   10.3404   -6.5092    0.0000 C   0  0  0  0  0  0  0  0  0  0  0  0
   11.4936   -4.5154    0.0000 O   0  0  0  0  0  0  0  0  0  0  0  0
   11.4936   -5.8446    0.0000 C   0  0  0  0  0  0  0  0  0  0  0  0
   10.3404   -7.8579    0.0000 C   0  0  0  0  0  0  0  0  0  0  0  0
   11.4936   -8.5029    0.0000 C   0  0  0  0  0  0  0  0  0  0  0  0
   11.4936   -9.8321    0.0000 S   0  0  0  0  0  0  0  0  0  0  0  0
   12.6469  -10.4967    0.0000 C   0  0  0  0  0  0  0  0  0  0  0  0
    5.7273   -6.5092    0.0000 N   0  0  0  0  0  0  0  0  0  0  0  0
    6.8805   -5.8446    0.0000 C   0  0  0  0  0  0  0  0  0  0  0  0
    8.0338   -7.8579    0.0000 O   0  0  0  0  0  0  0  0  0  0  0  0
    8.0338   -6.5092    0.0000 C   0  0  0  0  0  0  0  0  0  0  0  0
    6.8805   -4.5154    0.0000 C   0  0  0  0  0  0  0  0  0  0  0  0
    9.2653   -4.3785    0.0000 C   0  0  0  0  0  0  0  0  0  0  0  0
    8.0338   -3.8508    0.0000 C   0  0  0  0  0  0  0  0  0  0  0  0
   10.1449   -3.4012    0.0000 N   0  0  0  0  0  0  0  0  0  0  0  0
    8.1706   -2.5216    0.0000 C   0  0  0  0  0  0  0  0  0  0  0  0
    9.4998   -2.2479    0.0000 C   0  0  0  0  0  0  0  0  0  0  0  0
    9.8908   -0.9969    0.0000 C   0  0  0  0  0  0  0  0  0  0  0  0
    9.0112    0.0000    0.0000 C   0  0  0  0  0  0  0  0  0  0  0  0
    7.7015   -0.2737    0.0000 C   0  0  0  0  0  0  0  0  0  0  0  0
    7.2910   -1.5442    0.0000 C   0  0  0  0  0  0  0  0  0  0  0  0
   18.4133   -8.5029    0.0000 N   0  0  0  0  0  0  0  0  0  0  0  0
  1  2  1  0  0  0  0
  2  3  1  0  0  0  0
  3  7  1  0  0  0  0
  3  4  1  0  0  0  0
  3  6  1  0  0  0  0
  4  5  1  0  0  0  0
  5  8  2  0  0  0  0
  5 36  1  0  0  0  0
  9 10  1  0  0  0  0
  9 23  1  0  0  0  0
 10 12  1  0  0  0  0
 10 13  1  1  0  0  0
 11 12  2  0  0  0  0
 12 50  1  0  0  0  0
 13 15  1  0  0  0  0
 14 15  2  0  0  0  0
 14 19  1  0  0  0  0
 15 16  1  0  0  0  0
 16 17  2  0  0  0  0
 17 18  1  0  0  0  0
 18 19  2  0  0  0  0
 20 21  1  0  0  0  0
 20 31  1  0  0  0  0
 21 23  1  0  0  0  0
 21 24  1  1  0  0  0
 22 23  2  0  0  0  0
 24 25  1  0  0  0  0
 25 26  2  0  0  0  0
 25 27  1  0  0  0  0
 28 29  1  0  0  0  0
 28 39  1  0  0  0  0
 29 31  1  0  0  0  0
 29 32  1  6  0  0  0
 30 31  2  0  0  0  0
 32 33  1  0  0  0  0
 33 34  1  0  0  0  0
 34 35  1  0  0  0  0
 36 37  1  0  0  0  0
 37 39  1  0  0  0  0
 37 40  1  1  0  0  0
 38 39  2  0  0  0  0
 40 42  1  0  0  0  0
 41 42  2  0  0  0  0
 41 43  1  0  0  0  0
 42 44  1  0  0  0  0
 43 45  1  0  0  0  0
 44 45  2  0  0  0  0
 44 49  1  0  0  0  0
 45 46  1  0  0  0  0
 46 47  2  0  0  0  0
 47 48  1  0  0  0  0
 48 49  2  0  0  0  0
M  END
> <ID>
13576

> <Formula>
C35H46N6O8S

> <FW>
710.8401

> <DSSTox_CID>
28503

> <DSSTox_RID>
82775

> <DSSTox_GSID>
48577

> <DSSTox_FileID_Sort>
7452

> <TS_ChemName>
Amogastrin

> <TS_ChemName_Synonyms>


> <TS_CASRN>
16870-37-4

> <CASRN_ChemName_Relationship>
primary

> <TS_Description>
single chemical compound

> <ChemNote>
stereochem

> <STRUCTURE_Shown>
tested chemical

> <STRUCTURE_Formula>
C35H46N6O8S

> <STRUCTURE_MW>
710.8401

> <STRUCTURE_ChemType>
defined organic

> <STRUCTURE_DefinedOrganicForm>
parent

> <STRUCTURE_IUPAC>
N-{[(2-methylbutan-2-yl)oxy]carbonyl}-L-tryptophyl-L-methionyl-L-alpha-aspartyl-L-phenylalaninamide

> <STRUCTURE_SMILES>
NC(=O)[C@H](Cc1ccccc1)NC(=O)[C@H](CC(=O)O)NC(=O)[C@H](CCSC)NC(=O)[C@@H](NC(=O)OC(C)(C)CC)Cc3cnc2ccccc23

> <STRUCTURE_SMILES_Desalt>
NC(=O)[C@H](Cc1ccccc1)NC(=O)[C@H](CC(=O)O)NC(=O)[C@H](CCSC)NC(=O)[C@@H](NC(=O)OC(C)(C)CC)Cc3cnc2ccccc23

> <Substance_modify_yyyymmdd>
20111013

$$$$
