16883-16-2
ChemmineR-0915142007XD

 15 16  0  0  0  0  0  0  0  0  1 V2000
    5.4745   -5.4375    0.0000 C    0  0  0  0  0  0  0  0  0  0  0  0
    4.2587   -4.8944    0.0000 C    0  0  0  0  0  0  0  0  0  0  0  0
    3.9809   -3.5983    0.0000 C    0  0  0  0  0  0  0  0  0  0  0  0
    4.8697   -2.6046    0.0000 C    0  0  0  0  0  0  0  0  0  0  0  0
    6.1720   -2.8823    0.0000 Cl   0  0  0  0  0  0  0  0  0  0  0  0
    4.4623   -1.3393    0.0000 O    0  0  0  0  0  0  0  0  0  0  0  0
    2.6601   -3.4563    0.0000 C    0  0  0  0  0  0  0  0  0  0  0  0
    2.1170   -4.6722    0.0000 N    0  0  0  0  0  0  0  0  0  0  0  0
    3.1045   -5.5610    0.0000 O    0  0  0  0  0  0  0  0  0  0  0  0
    1.9935   -2.3021    0.0000 C    0  0  0  0  0  0  0  0  0  0  0  0
    2.6601   -1.1542    0.0000 C    0  0  0  0  0  0  0  0  0  0  0  0
    1.9935    0.0000    0.0000 C    0  0  0  0  0  0  0  0  0  0  0  0
    0.6666    0.0000    0.0000 C    0  0  0  0  0  0  0  0  0  0  0  0
    0.0000   -1.1542    0.0000 C    0  0  0  0  0  0  0  0  0  0  0  0
    0.6666   -2.3021    0.0000 C    0  0  0  0  0  0  0  0  0  0  0  0
  1  2  1  0  0  0  0
  2  3  2  0  0  0  0
  2  9  1  0  0  0  0
  3  4  1  0  0  0  0
  3  7  1  0  0  0  0
  4  5  1  0  0  0  0
  4  6  2  0  0  0  0
  7  8  2  0  0  0  0
  7 10  1  0  0  0  0
  8  9  1  0  0  0  0
 10 11  2  0  0  0  0
 10 15  1  0  0  0  0
 11 12  1  0  0  0  0
 12 13  2  0  0  0  0
 13 14  1  0  0  0  0
 14 15  2  0  0  0  0
M  END
> <ID>
16066

> <Formula>
C11H8ClNO2

> <FW>
221.6397

> <DSSTox_CID>
31452

> <DSSTox_RID>
97338

> <DSSTox_GSID>
57663

> <DSSTox_FileID_Sort>
8405

> <TS_ChemName>
Pmic chloride

> <TS_ChemName_Synonyms>
3-Phenyl-5-methylisoxazole-4-carbonyl chloride

> <TS_CASRN>
16883-16-2

> <CASRN_ChemName_Relationship>
primary

> <TS_Description>
single chemical compound

> <ChemNote>


> <STRUCTURE_Shown>
tested chemical

> <STRUCTURE_Formula>
C11H8ClNO2

> <STRUCTURE_MW>
221.6397

> <STRUCTURE_ChemType>
defined organic

> <STRUCTURE_DefinedOrganicForm>
parent

> <STRUCTURE_IUPAC>
5-methyl-3-phenyl-1,2-oxazole-4-carbonyl chloride

> <STRUCTURE_SMILES>
ClC(=O)c2c(C)onc2c1ccccc1

> <STRUCTURE_SMILES_Desalt>
ClC(=O)c2c(C)onc2c1ccccc1

> <Substance_modify_yyyymmdd>
20131121

$$$$
