1689-99-2
ChemmineR-0915142007XD

 20 20  0  0  0  0  0  0  0  0  1 V2000
    6.9309   -2.0228    0.0000 C    0  0  0  0  0  0  0  0  0  0  0  0
    6.9309   -3.3465    0.0000 O    0  0  0  0  0  0  0  0  0  0  0  0
    5.7708   -1.3237    0.0000 O    0  0  0  0  0  0  0  0  0  0  0  0
    8.0910   -1.3237    0.0000 C    0  0  0  0  0  0  0  0  0  0  0  0
    9.2511   -2.0228    0.0000 C    0  0  0  0  0  0  0  0  0  0  0  0
   10.3964   -1.3237    0.0000 C    0  0  0  0  0  0  0  0  0  0  0  0
    4.6256   -2.0228    0.0000 C    0  0  0  0  0  0  0  0  0  0  0  0
    4.6256   -3.3465    0.0000 C    0  0  0  0  0  0  0  0  0  0  0  0
    3.4655   -1.3237    0.0000 C    0  0  0  0  0  0  0  0  0  0  0  0
    0.0000   -4.6702    0.0000 N    0  0  0  0  0  0  0  0  0  0  0  0
    1.1452   -4.0158    0.0000 C    0  0  0  0  0  0  0  0  0  0  0  0
    2.3053   -3.3465    0.0000 C    0  0  0  0  0  0  0  0  0  0  0  0
    2.3053   -2.0228    0.0000 C    0  0  0  0  0  0  0  0  0  0  0  0
    3.4655   -4.0158    0.0000 C    0  0  0  0  0  0  0  0  0  0  0  0
    3.4655    0.0000    0.0000 Br   0  0  0  0  0  0  0  0  0  0  0  0
    5.7708   -4.0158    0.0000 Br   0  0  0  0  0  0  0  0  0  0  0  0
   11.5119   -1.9781    0.0000 C    0  0  0  0  0  0  0  0  0  0  0  0
   12.6274   -1.3237    0.0000 C    0  0  0  0  0  0  0  0  0  0  0  0
   13.7577   -1.9781    0.0000 C    0  0  0  0  0  0  0  0  0  0  0  0
   14.8732   -1.3237    0.0000 C    0  0  0  0  0  0  0  0  0  0  0  0
  1  2  2  0  0  0  0
  1  3  1  0  0  0  0
  1  4  1  0  0  0  0
  3  7  1  0  0  0  0
  4  5  1  0  0  0  0
  5  6  1  0  0  0  0
  6 17  1  0  0  0  0
  7  8  1  0  0  0  0
  7  9  2  0  0  0  0
  8 14  2  0  0  0  0
  8 16  1  0  0  0  0
  9 13  1  0  0  0  0
  9 15  1  0  0  0  0
 10 11  3  0  0  0  0
 11 12  1  0  0  0  0
 12 13  2  0  0  0  0
 12 14  1  0  0  0  0
 17 18  1  0  0  0  0
 18 19  1  0  0  0  0
 19 20  1  0  0  0  0
M  END
> <ID>
3431

> <Formula>
C15H17Br2NO2

> <FW>
403.109

> <DSSTox_CID>
3932

> <DSSTox_RID>
77234

> <DSSTox_GSID>
23932

> <DSSTox_FileID_Sort>
1917

> <TS_ChemName>
Bromoxynil octanoate

> <TS_ChemName_Synonyms>


> <TS_CASRN>
1689-99-2

> <CASRN_ChemName_Relationship>
primary

> <TS_Description>
single chemical compound

> <ChemNote>


> <STRUCTURE_Shown>
tested chemical

> <STRUCTURE_Formula>
C15H17Br2NO2

> <STRUCTURE_MW>
403.109

> <STRUCTURE_ChemType>
defined organic

> <STRUCTURE_DefinedOrganicForm>
parent

> <STRUCTURE_IUPAC>
2,6-dibromo-4-cyanophenyl octanoate

> <STRUCTURE_SMILES>
Brc1cc(cc(Br)c1OC(=O)CCCCCCC)C#N

> <STRUCTURE_SMILES_Desalt>
Brc1cc(cc(Br)c1OC(=O)CCCCCCC)C#N

> <Substance_modify_yyyymmdd>
20080429

$$$$
