1689-83-4
ChemmineR-0915142007XD

 11 11  0  0  0  0  0  0  0  0  1 V2000
    3.3240   -3.4570    0.0000 C   0  0  0  0  0  0  0  0  0  0  0  0
    1.9944   -3.4570    0.0000 C   0  0  0  0  0  0  0  0  0  0  0  0
    1.3296   -4.6071    0.0000 I   0  0  0  0  0  0  0  0  0  0  0  0
    1.3296   -2.3069    0.0000 C   0  0  0  0  0  0  0  0  0  0  0  0
    0.0000   -2.3069    0.0000 O   0  0  0  0  0  0  0  0  0  0  0  0
    1.9944   -1.1501    0.0000 C   0  0  0  0  0  0  0  0  0  0  0  0
    1.3296    0.0000    0.0000 I   0  0  0  0  0  0  0  0  0  0  0  0
    3.3240   -1.1501    0.0000 C   0  0  0  0  0  0  0  0  0  0  0  0
    3.9888   -2.3069    0.0000 C   0  0  0  0  0  0  0  0  0  0  0  0
    5.3184   -2.3069    0.0000 C   0  0  0  0  0  0  0  0  0  0  0  0
    6.6480   -2.3069    0.0000 N   0  0  0  0  0  0  0  0  0  0  0  0
  1  2  2  0  0  0  0
  1  9  1  0  0  0  0
  2  3  1  0  0  0  0
  2  4  1  0  0  0  0
  4  5  1  0  0  0  0
  4  6  2  0  0  0  0
  6  7  1  0  0  0  0
  6  8  1  0  0  0  0
  8  9  2  0  0  0  0
  9 10  1  0  0  0  0
 10 11  3  0  0  0  0
M  END
> <ID>
2000

> <Formula>
C7H3I2NO

> <FW>
370.9138

> <DSSTox_CID>
2161

> <DSSTox_RID>
76508

> <DSSTox_GSID>
22161

> <DSSTox_FileID_Sort>
1192

> <TS_ChemName>
Ioxynil

> <TS_ChemName_Synonyms>
Ioxynil (3,5-diiodo-4-hydroxybenzonitrile)

> <TS_CASRN>
1689-83-4

> <CASRN_ChemName_Relationship>
primary

> <TS_Description>
single chemical compound

> <ChemNote>


> <STRUCTURE_Shown>
tested chemical

> <STRUCTURE_Formula>
C7H3I2NO

> <STRUCTURE_MW>
370.9138

> <STRUCTURE_ChemType>
defined organic

> <STRUCTURE_DefinedOrganicForm>
parent

> <STRUCTURE_IUPAC>
4-hydroxy-3,5-diiodobenzonitrile

> <STRUCTURE_SMILES>
Ic1cc(C#N)cc(I)c1O

> <STRUCTURE_SMILES_Desalt>
Ic1cc(C#N)cc(I)c1O

> <Substance_modify_yyyymmdd>
20080429

$$$$
