1689-82-3
ChemmineR-0915142007XD

 15 16  0  0  0  0  0  0  0  0  1 V2000
    3.3219   -3.4516    0.0000 C   0  0  0  0  0  0  0  0  0  0  0  0
    1.9952   -3.4516    0.0000 C   0  0  0  0  0  0  0  0  0  0  0  0
    1.3268   -2.3044    0.0000 C   0  0  0  0  0  0  0  0  0  0  0  0
    0.0000   -2.3044    0.0000 O   0  0  0  0  0  0  0  0  0  0  0  0
    1.9952   -1.1472    0.0000 C   0  0  0  0  0  0  0  0  0  0  0  0
    3.3219   -1.1472    0.0000 C   0  0  0  0  0  0  0  0  0  0  0  0
    3.9903   -2.3044    0.0000 C   0  0  0  0  0  0  0  0  0  0  0  0
    5.3171   -2.3044    0.0000 N   0  0  0  0  0  0  0  0  0  0  0  0
    5.9855   -1.1472    0.0000 N   0  0  0  0  0  0  0  0  0  0  0  0
    7.3122   -1.1472    0.0000 C   0  0  0  0  0  0  0  0  0  0  0  0
    7.9806    0.0000    0.0000 C   0  0  0  0  0  0  0  0  0  0  0  0
    9.3074    0.0000    0.0000 C   0  0  0  0  0  0  0  0  0  0  0  0
    9.9758   -1.1472    0.0000 C   0  0  0  0  0  0  0  0  0  0  0  0
    9.3074   -2.3044    0.0000 C   0  0  0  0  0  0  0  0  0  0  0  0
    7.9806   -2.3044    0.0000 C   0  0  0  0  0  0  0  0  0  0  0  0
  1  2  2  0  0  0  0
  1  7  1  0  0  0  0
  2  3  1  0  0  0  0
  3  4  1  0  0  0  0
  3  5  2  0  0  0  0
  5  6  1  0  0  0  0
  6  7  2  0  0  0  0
  7  8  1  0  0  0  0
  8  9  2  0  0  0  0
  9 10  1  0  0  0  0
 10 11  2  0  0  0  0
 10 15  1  0  0  0  0
 11 12  1  0  0  0  0
 12 13  2  0  0  0  0
 13 14  1  0  0  0  0
 14 15  2  0  0  0  0
M  END
> <ID>
1999

> <Formula>
C12H10N2O

> <FW>
198.2206

> <DSSTox_CID>
2160

> <DSSTox_RID>
76507

> <DSSTox_GSID>
22160

> <DSSTox_FileID_Sort>
1191

> <TS_ChemName>
p-Phenylazophenol

> <TS_ChemName_Synonyms>


> <TS_CASRN>
1689-82-3

> <CASRN_ChemName_Relationship>
primary

> <TS_Description>
single chemical compound

> <ChemNote>
stereochem

> <STRUCTURE_Shown>
tested chemical

> <STRUCTURE_Formula>
C12H10N2O

> <STRUCTURE_MW>
198.2206

> <STRUCTURE_ChemType>
defined organic

> <STRUCTURE_DefinedOrganicForm>
parent

> <STRUCTURE_IUPAC>
4-[(E)-phenyldiazenyl]phenol

> <STRUCTURE_SMILES>
Oc2ccc(/N=N/c1ccccc1)cc2

> <STRUCTURE_SMILES_Desalt>
Oc2ccc(/N=N/c1ccccc1)cc2

> <Substance_modify_yyyymmdd>
20080429

$$$$
