169051-76-7
ChemmineR-0915142007XD

 25 24  0  0  0  0  0  0  0  0  2 V2000
    1.1533   -3.6393    0.0000 C   0  0  0  0  0  0  0  0  0  0  0  0
    5.1433   -1.3326    0.0000 C   0  0  0  0  0  0  0  0  0  0  0  0
    0.4987   -4.7926    0.0000 F   0  0  0  0  0  0  0  0  0  0  0  0
    2.3067   -4.2939    0.0000 F   0  0  0  0  0  0  0  0  0  0  0  0
    0.0000   -2.9691    0.0000 F   0  0  0  0  0  0  0  0  0  0  0  0
    5.1433   -2.6652    0.0000 F   0  0  0  0  0  0  0  0  0  0  0  0
    5.1433    0.0000    0.0000 F   0  0  0  0  0  0  0  0  0  0  0  0
    6.4759   -1.3326    0.0000 F   0  0  0  0  0  0  0  0  0  0  0  0
    2.4859   -1.3326    0.0000 N   0  5  0  0  0  0  0  0  0  0  0  0
    2.9847   -3.1561    0.0000 O   0  0  0  0  0  0  0  0  0  0  0  0
    0.6702   -1.8313    0.0000 O   0  0  0  0  0  0  0  0  0  0  0  0
    3.8185   -2.6652    0.0000 O   0  0  0  0  0  0  0  0  0  0  0  0
    3.8185    0.0000    0.0000 O   0  0  0  0  0  0  0  0  0  0  0  0
    1.8313   -2.4859    0.0000 S   0  0  0  0  0  0  0  0  0  0  0  0
    3.8185   -1.3326    0.0000 S   0  0  0  0  0  0  0  0  0  0  0  0
    1.9404   -7.4422    0.0000 C   0  0  0  0  0  0  0  0  0  0  0  0
    4.8238   -4.8549    0.0000 C   0  0  0  0  0  0  0  0  0  0  0  0
    7.6993   -4.5510    0.0000 C   0  0  0  0  0  0  0  0  0  0  0  0
    3.1561   -6.8967    0.0000 C   0  0  0  0  0  0  0  0  0  0  0  0
    4.2315   -7.6837    0.0000 C   0  0  0  0  0  0  0  0  0  0  0  0
    7.5824   -6.9123    0.0000 C   0  0  0  0  0  0  0  0  0  0  0  0
    6.5927   -7.7928    0.0000 C   0  0  0  0  0  0  0  0  0  0  0  0
    5.7277   -5.8368    0.0000 C   0  0  0  0  0  0  0  0  0  0  0  0
    7.0369   -5.6888    0.0000 N   0  0  0  0  0  0  0  0  0  0  0  0
    5.4394   -7.1382    0.0000 N   0  3  0  0  0  0  0  0  0  0  0  0
  1  3  1  0  0  0  0
  1  4  1  0  0  0  0
  1  5  1  0  0  0  0
  1 14  1  0  0  0  0
  2  6  1  0  0  0  0
  2  7  1  0  0  0  0
  2  8  1  0  0  0  0
  2 15  1  0  0  0  0
  9 14  1  0  0  0  0
  9 15  1  0  0  0  0
 10 14  2  0  0  0  0
 11 14  2  0  0  0  0
 12 15  2  0  0  0  0
 13 15  2  0  0  0  0
 16 19  1  0  0  0  0
 17 23  1  0  0  0  0
 18 24  1  0  0  0  0
 19 20  1  0  0  0  0
 20 25  1  0  0  0  0
 21 22  2  0  0  0  0
 21 24  1  0  0  0  0
 22 25  1  0  0  0  0
 23 24  1  0  0  0  0
 23 25  2  0  0  0  0
M  END
> <ID>
14090

> <Formula>
C10H15F6N3O4S2

> <FW>
419.3642 (280.1467+139.2176)

> <DSSTox_CID>
29083

> <DSSTox_RID>
83302

> <DSSTox_GSID>
49227

> <DSSTox_FileID_Sort>
7977

> <TS_ChemName>
1,2-Dimethyl-3-propylimidazolium bis(trifluoromethylsulfonyl)imide

> <TS_ChemName_Synonyms>


> <TS_CASRN>
169051-76-7

> <CASRN_ChemName_Relationship>
primary

> <TS_Description>
single chemical compound

> <ChemNote>


> <STRUCTURE_Shown>
tested chemical

> <STRUCTURE_Formula>
C10H15F6N3O4S2

> <STRUCTURE_MW>
419.3642

> <STRUCTURE_ChemType>
defined organic

> <STRUCTURE_DefinedOrganicForm>
complex

> <STRUCTURE_IUPAC>
1,2-dimethyl-3-propyl-1H-imidazol-3-ium bis[(trifluoromethyl)sulfonyl]azanide

> <STRUCTURE_SMILES>
Cc1[n+](CCC)ccn1C.FC(F)(F)S(=O)(=O)[N-]S(=O)(=O)C(F)(F)F

> <STRUCTURE_SMILES_Desalt>
O=S(=O)(NS(=O)(=O)C(F)(F)F)C(F)(F)F

> <Substance_modify_yyyymmdd>
20111204

$$$$
