16915-70-1
ChemmineR-0915142007XD

 26 27  0  0  0  0  0  0  0  0  2 V2000
   10.1754   -3.9784    0.0000 C   0  0  0  0  0  0  0  0  0  0  0  0
   10.1754   -2.6622    0.0000 C   0  0  0  0  0  0  0  0  0  0  0  0
   11.3438   -4.6440    0.0000 C   0  0  0  0  0  0  0  0  0  0  0  0
    9.0365   -4.6440    0.0000 C   0  0  0  0  0  0  0  0  0  0  0  0
   11.3438   -1.9818    0.0000 C   0  0  0  0  0  0  0  0  0  0  0  0
    9.0365   -1.9818    0.0000 O   0  0  0  0  0  0  0  0  0  0  0  0
   12.4826   -3.9784    0.0000 C   0  0  0  0  0  0  0  0  0  0  0  0
    7.8829   -3.9784    0.0000 N   0  0  0  0  0  0  0  0  0  0  0  0
    9.0365   -5.9603    0.0000 O   0  0  0  0  0  0  0  0  0  0  0  0
   12.4826   -2.6622    0.0000 C   0  0  0  0  0  0  0  0  0  0  0  0
   11.3438   -0.6655    0.0000 N   0  3  0  0  0  0  0  0  0  0  0  0
   13.6510   -4.6440    0.0000 N   0  3  0  0  0  0  0  0  0  0  0  0
    6.7441   -4.6440    0.0000 N   0  0  0  0  0  0  0  0  0  0  0  0
   10.1754    0.0000    0.0000 O   0  0  0  0  0  0  0  0  0  0  0  0
   12.4826    0.0000    0.0000 O   0  5  0  0  0  0  0  0  0  0  0  0
   14.7898   -3.9784    0.0000 O   0  0  0  0  0  0  0  0  0  0  0  0
   13.6510   -5.9603    0.0000 O   0  5  0  0  0  0  0  0  0  0  0  0
    5.5757   -3.9784    0.0000 C   0  0  0  0  0  0  0  0  0  0  0  0
    4.4369   -4.6292    0.0000 C   0  0  0  0  0  0  0  0  0  0  0  0
    3.3277   -3.8306    0.0000 O   0  0  0  0  0  0  0  0  0  0  0  0
    4.0080   -5.9011    0.0000 C   0  0  0  0  0  0  0  0  0  0  0  0
    2.2776   -4.6292    0.0000 C   0  0  0  0  0  0  0  0  0  0  0  0
    2.6769   -5.9011    0.0000 C   0  0  0  0  0  0  0  0  0  0  0  0
    1.0057   -4.2003    0.0000 N   0  3  0  0  0  0  0  0  0  0  0  0
    0.7099   -2.9136    0.0000 O   0  0  0  0  0  0  0  0  0  0  0  0
    0.0000   -5.1025    0.0000 O   0  5  0  0  0  0  0  0  0  0  0  0
  1  2  2  0  0  0  0
  1  3  1  0  0  0  0
  1  4  1  0  0  0  0
  2  5  1  0  0  0  0
  2  6  1  0  0  0  0
  3  7  2  0  0  0  0
  4  8  1  0  0  0  0
  4  9  2  0  0  0  0
  5 10  2  0  0  0  0
  5 11  1  0  0  0  0
  7 12  1  0  0  0  0
  7 10  1  0  0  0  0
  8 13  1  0  0  0  0
 11 14  2  0  0  0  0
 11 15  1  0  0  0  0
 12 16  2  0  0  0  0
 12 17  1  0  0  0  0
 13 18  2  0  0  0  0
 18 19  1  0  0  0  0
 19 20  1  0  0  0  0
 19 21  2  0  0  0  0
 20 22  1  0  0  0  0
 21 23  1  0  0  0  0
 22 24  1  0  0  0  0
 22 23  2  0  0  0  0
 24 25  2  0  0  0  0
 24 26  1  0  0  0  0
M  END
> <ID>
11520

> <Formula>
C12H7N5O9

> <FW>
365.2121

> <DSSTox_CID>
26226

> <DSSTox_RID>
81453

> <DSSTox_GSID>
46226

> <DSSTox_FileID_Sort>
6134

> <TS_ChemName>
Nifursol

> <TS_ChemName_Synonyms>


> <TS_CASRN>
16915-70-1

> <CASRN_ChemName_Relationship>
primary

> <TS_Description>
single chemical compound

> <ChemNote>


> <STRUCTURE_Shown>
tested chemical

> <STRUCTURE_Formula>
C12H7N5O9

> <STRUCTURE_MW>
365.2121

> <STRUCTURE_ChemType>
defined organic

> <STRUCTURE_DefinedOrganicForm>
parent

> <STRUCTURE_IUPAC>
2-hydroxy-3,5-dinitro-N'-[(E)-(5-nitrofuran-2-yl)methylidene]benzohydrazide

> <STRUCTURE_SMILES>
O=[N+]([O-])c2ccc(/C=N/NC(=O)c1cc(cc([N+]([O-])=O)c1O)[N+]([O-])=O)o2

> <STRUCTURE_SMILES_Desalt>
O=[N+]([O-])c2ccc(/C=N/NC(=O)c1cc(cc([N+]([O-])=O)c1O)[N+]([O-])=O)o2

> <Substance_modify_yyyymmdd>
20110817

$$$$
