16919-19-0
ChemmineR-0915142007XD

  9  6  0  0  0  0  0  0  0  0  2 V2000
    0.0000   -0.7694    0.0000 N    0  3  0  0  0  0  0  0  0  0  0  0
    6.2047   -0.7011    0.0000 N    0  3  0  0  0  0  0  0  0  0  0  0
    3.4312   -1.1665    0.0000 Si   0  6  0  0  0  0  0  0  0  0  0  0
    2.1158   -1.1665    0.0000 F    0  0  0  0  0  0  0  0  0  0  0  0
    4.0889   -2.3392    0.0000 F    0  0  0  0  0  0  0  0  0  0  0  0
    4.0889    0.0000    0.0000 F    0  0  0  0  0  0  0  0  0  0  0  0
    2.7921   -2.3392    0.0000 F    0  0  0  0  0  0  0  0  0  0  0  0
    2.7921    0.0000    0.0000 F    0  0  0  0  0  0  0  0  0  0  0  0
    4.7466   -1.1665    0.0000 F    0  0  0  0  0  0  0  0  0  0  0  0
  3  4  1  0  0  0  0
  3  5  1  0  0  0  0
  3  6  1  0  0  0  0
  3  7  1  0  0  0  0
  3  8  1  0  0  0  0
  3  9  1  0  0  0  0
M  END
> <ID>
12228

> <Formula>
H8F6N2Si

> <FW>
178.1528 (18.0379+18.0379+142.0770)

> <DSSTox_CID>
27076

> <DSSTox_RID>
82090

> <DSSTox_GSID>
47076

> <DSSTox_FileID_Sort>
6771

> <TS_ChemName>
Ammonium hexafluorosilicate

> <TS_ChemName_Synonyms>


> <TS_CASRN>
16919-19-0

> <CASRN_ChemName_Relationship>
primary

> <TS_Description>
single chemical compound

> <ChemNote>
parent ion (Silicate(2-), hexafluoro-) [17084-08-1]

> <STRUCTURE_Shown>
tested chemical

> <STRUCTURE_Formula>
H8F6N2Si

> <STRUCTURE_MW>
178.1528

> <STRUCTURE_ChemType>
inorganic

> <STRUCTURE_DefinedOrganicForm>


> <STRUCTURE_IUPAC>
diammonium hexafluorosilicate

> <STRUCTURE_SMILES>
[NH4+].[NH4+].F[Si-2](F)(F)(F)(F)F

> <STRUCTURE_SMILES_Desalt>
F[Si-2](F)(F)(F)(F)F

> <Substance_modify_yyyymmdd>
20100429

$$$$
