169293-50-9
ChemmineR-0915142007XD

 32 34  0  0  1  0  0  0  0  0  1 V2000
    6.9199   -2.7013    0.0000 H    0  0  0  0  0  0  0  0  0  0  0  0
   11.4900   -2.6088    0.0000 H    0  0  0  0  0  0  0  0  0  0  0  0
    3.4599   -1.9798    0.0000 C    0  0  0  0  0  0  0  0  0  0  0  0
    3.4599   -3.3304    0.0000 C    0  0  0  0  0  0  0  0  0  0  0  0
    2.3313   -1.3322    0.0000 C    0  0  0  0  0  0  0  0  0  0  0  0
    2.3313   -3.9595    0.0000 C    0  0  0  0  0  0  0  0  0  0  0  0
    1.1286   -1.9798    0.0000 C    0  0  0  0  0  0  0  0  0  0  0  0
    1.1286   -3.3304    0.0000 C    0  0  0  0  0  0  0  0  0  0  0  0
    4.5886   -1.3322    0.0000 O    0  0  0  0  0  0  0  0  0  0  0  0
    5.7912   -1.9798    0.0000 C    0  0  0  0  0  0  0  0  0  0  0  0
    4.5886   -3.9595    0.0000 C    0  0  0  0  0  0  0  0  0  0  0  0
    5.7912   -3.3304    0.0000 C    0  0  0  0  0  0  0  0  0  0  0  0
    6.9199   -1.3322    0.0000 C    0  0  0  0  0  0  0  0  0  0  0  0
    8.0485   -1.9798    0.0000 C    0  0  0  0  0  0  0  0  0  0  0  0
    9.2512   -1.3322    0.0000 N    0  0  0  0  0  0  0  0  0  0  0  0
   10.3798   -1.9798    0.0000 C    0  0  0  0  0  0  0  0  0  0  0  0
   11.5825   -1.3322    0.0000 C    0  0  0  0  0  0  0  0  0  0  0  0
   12.7111   -1.9798    0.0000 C    0  0  0  0  0  0  0  0  0  0  0  0
   12.7111   -3.3304    0.0000 C    0  0  0  0  0  0  0  0  0  0  0  0
   13.8398   -1.3322    0.0000 O    0  0  0  0  0  0  0  0  0  0  0  0
   15.0424   -1.9798    0.0000 C    0  0  0  0  0  0  0  0  0  0  0  0
   13.8398   -3.9595    0.0000 C    0  0  0  0  0  0  0  0  0  0  0  0
   15.0424   -3.3304    0.0000 C    0  0  0  0  0  0  0  0  0  0  0  0
   16.1711   -1.3322    0.0000 C    0  0  0  0  0  0  0  0  0  0  0  0
   17.3182   -1.9798    0.0000 C    0  0  0  0  0  0  0  0  0  0  0  0
   16.1711   -3.9595    0.0000 C    0  0  0  0  0  0  0  0  0  0  0  0
   17.3182   -3.3304    0.0000 C    0  0  0  0  0  0  0  0  0  0  0  0
    0.0000   -3.9595    0.0000 F    0  0  0  0  0  0  0  0  0  0  0  0
   18.5024   -3.9595    0.0000 F    0  0  0  0  0  0  0  0  0  0  0  0
   11.5825    0.0000    0.0000 O    0  0  0  0  0  0  0  0  0  0  0  0
    6.9199    0.0000    0.0000 O    0  0  0  0  0  0  0  0  0  0  0  0
    7.7710   -4.3851    0.0000 Cl   0  0  0  0  0  0  0  0  0  0  0  0
 10  1  1  1  0  0  0
 18  2  1  1  0  0  0
  3  5  1  0  0  0  0
  3  9  1  0  0  0  0
  3  4  2  0  0  0  0
  4  6  1  0  0  0  0
  4 11  1  0  0  0  0
  5  7  2  0  0  0  0
  6  8  2  0  0  0  0
  7  8  1  0  0  0  0
  8 28  1  0  0  0  0
  9 10  1  0  0  0  0
 10 13  1  0  0  0  0
 10 12  1  0  0  0  0
 11 12  1  0  0  0  0
 13 14  1  0  0  0  0
 13 31  1  1  0  0  0
 14 15  1  0  0  0  0
 15 16  1  0  0  0  0
 16 17  1  0  0  0  0
 17 18  1  0  0  0  0
 17 30  1  6  0  0  0
 18 20  1  0  0  0  0
 18 19  1  0  0  0  0
 19 22  1  0  0  0  0
 20 21  1  0  0  0  0
 21 24  1  0  0  0  0
 21 23  2  0  0  0  0
 22 23  1  0  0  0  0
 23 26  1  0  0  0  0
 24 25  2  0  0  0  0
 25 27  1  0  0  0  0
 26 27  2  0  0  0  0
 27 29  1  0  0  0  0
M  END
> <ID>
14049

> <Formula>
C22H26ClF2NO4

> <FW>
441.8959 (405.4350+36.4609)

> <DSSTox_CID>
28991

> <DSSTox_RID>
83256

> <DSSTox_GSID>
49065

> <DSSTox_FileID_Sort>
7931

> <TS_ChemName>
rac Nebivolol hydrochloride

> <TS_ChemName_Synonyms>


> <TS_CASRN>
169293-50-9

> <CASRN_ChemName_Relationship>
primary

> <TS_Description>
single chemical compound

> <ChemNote>
racemic mixture; relative stereochem; CAS for mixture of isomers

> <STRUCTURE_Shown>
tested chemical

> <STRUCTURE_Formula>
C22H26ClF2NO4

> <STRUCTURE_MW>
441.8959

> <STRUCTURE_ChemType>
defined organic

> <STRUCTURE_DefinedOrganicForm>
complex

> <STRUCTURE_IUPAC>
(1S)-1-[(2R)-6-fluoro-3,4-dihydro-2H-chromen-2-yl]-2-({(2S)-2-[(2S)-6-fluoro-3,4-dihydro-2H-chromen-2-yl]-2-hydroxyethyl}amino)ethanol hydrochloride (1:1)

> <STRUCTURE_SMILES>
Cl.Fc1cc2CC[C@@H](Oc2cc1)[C@@H](O)CNC[C@H](O)[C@@H]3CCc4cc(F)ccc4O3

> <STRUCTURE_SMILES_Desalt>
Fc1cc2CC[C@@H](Oc2cc1)[C@@H](O)CNC[C@H](O)[C@@H]3CCc4cc(F)ccc4O3

> <Substance_modify_yyyymmdd>
20111204

$$$$
