1693-37-4
ChemmineR-0915142007XD

 12 12  0  0  0  0  0  0  0  0  1 V2000
    0.0000   -1.9998    0.0000 C   0  0  0  0  0  0  0  0  0  0  0  0
    1.1531   -2.6611    0.0000 C   0  0  0  0  0  0  0  0  0  0  0  0
    2.3062   -1.9998    0.0000 C   0  0  0  0  0  0  0  0  0  0  0  0
    2.3062   -0.6693    0.0000 O   0  0  0  0  0  0  0  0  0  0  0  0
    3.4594   -2.6611    0.0000 N   0  0  0  0  0  0  0  0  0  0  0  0
    4.6044   -1.9998    0.0000 C   0  0  0  0  0  0  0  0  0  0  0  0
    4.6044   -0.6693    0.0000 C   0  0  0  0  0  0  0  0  0  0  0  0
    5.7576    0.0000    0.0000 C   0  0  0  0  0  0  0  0  0  0  0  0
    6.9107   -0.6693    0.0000 C   0  0  0  0  0  0  0  0  0  0  0  0
    8.0638    0.0000    0.0000 O   0  0  0  0  0  0  0  0  0  0  0  0
    6.9107   -1.9998    0.0000 C   0  0  0  0  0  0  0  0  0  0  0  0
    5.7576   -2.6611    0.0000 C   0  0  0  0  0  0  0  0  0  0  0  0
  1  2  1  0  0  0  0
  2  3  1  0  0  0  0
  3  4  2  0  0  0  0
  3  5  1  0  0  0  0
  5  6  1  0  0  0  0
  6  7  2  0  0  0  0
  6 12  1  0  0  0  0
  7  8  1  0  0  0  0
  8  9  2  0  0  0  0
  9 10  1  0  0  0  0
  9 11  1  0  0  0  0
 11 12  2  0  0  0  0
M  END
> <ID>
11663

> <Formula>
C9H11NO2

> <FW>
165.1891

> <DSSTox_CID>
26419

> <DSSTox_RID>
81597

> <DSSTox_GSID>
46419

> <DSSTox_FileID_Sort>
6278

> <TS_ChemName>
Parapropamol

> <TS_ChemName_Synonyms>


> <TS_CASRN>
1693-37-4

> <CASRN_ChemName_Relationship>
primary

> <TS_Description>
single chemical compound

> <ChemNote>


> <STRUCTURE_Shown>
tested chemical

> <STRUCTURE_Formula>
C9H11NO2

> <STRUCTURE_MW>
165.1891

> <STRUCTURE_ChemType>
defined organic

> <STRUCTURE_DefinedOrganicForm>
parent

> <STRUCTURE_IUPAC>
N-(4-hydroxyphenyl)propanamide

> <STRUCTURE_SMILES>
Oc1ccc(NC(=O)CC)cc1

> <STRUCTURE_SMILES_Desalt>
Oc1ccc(NC(=O)CC)cc1

> <Substance_modify_yyyymmdd>
20110813

$$$$
