169590-42-5
ChemmineR-0915142007XD

 26 28  0  0  0  0  0  0  0  0  1 V2000
    6.6580   -6.0225    0.0000 C   0  0  0  0  0  0  0  0  0  0  0  0
    7.8019   -6.6874    0.0000 S   0  0  0  0  0  0  0  0  0  0  0  0
    8.9556   -7.3522    0.0000 N   0  0  0  0  0  0  0  0  0  0  0  0
    7.1371   -7.8410    0.0000 O   0  0  0  0  0  0  0  0  0  0  0  0
    8.4667   -5.5435    0.0000 O   0  0  0  0  0  0  0  0  0  0  0  0
    6.6580   -4.6929    0.0000 C   0  0  0  0  0  0  0  0  0  0  0  0
    5.5044   -4.0281    0.0000 C   0  0  0  0  0  0  0  0  0  0  0  0
    4.3507   -4.6929    0.0000 C   0  0  0  0  0  0  0  0  0  0  0  0
    3.1970   -4.0281    0.0000 N   0  0  0  0  0  0  0  0  0  0  0  0
    3.0601   -2.7082    0.0000 N   0  0  0  0  0  0  0  0  0  0  0  0
    1.7598   -2.4344    0.0000 C   0  0  0  0  0  0  0  0  0  0  0  0
    1.2123   -1.2123    0.0000 C   0  0  0  0  0  0  0  0  0  0  0  0
    0.6746    0.0000    0.0000 F   0  0  0  0  0  0  0  0  0  0  0  0
    0.0000   -1.7598    0.0000 F   0  0  0  0  0  0  0  0  0  0  0  0
    2.4344   -0.6746    0.0000 F   0  0  0  0  0  0  0  0  0  0  0  0
    1.0950   -3.5783    0.0000 C   0  0  0  0  0  0  0  0  0  0  0  0
    1.9847   -4.5756    0.0000 C   0  0  0  0  0  0  0  0  0  0  0  0
    1.7012   -5.8759    0.0000 C   0  0  0  0  0  0  0  0  0  0  0  0
    0.4400   -6.2865    0.0000 C   0  0  0  0  0  0  0  0  0  0  0  0
    0.1662   -7.5868    0.0000 C   0  0  0  0  0  0  0  0  0  0  0  0
    1.1537   -8.4765    0.0000 C   0  0  0  0  0  0  0  0  0  0  0  0
    0.8799   -9.7768    0.0000 C   0  0  0  0  0  0  0  0  0  0  0  0
    2.4149   -8.0659    0.0000 C   0  0  0  0  0  0  0  0  0  0  0  0
    2.6984   -6.7656    0.0000 C   0  0  0  0  0  0  0  0  0  0  0  0
    4.3507   -6.0225    0.0000 C   0  0  0  0  0  0  0  0  0  0  0  0
    5.5044   -6.6874    0.0000 C   0  0  0  0  0  0  0  0  0  0  0  0
  1  2  1  0  0  0  0
  1  6  2  0  0  0  0
  1 26  1  0  0  0  0
  2  3  1  0  0  0  0
  2  4  2  0  0  0  0
  2  5  2  0  0  0  0
  6  7  1  0  0  0  0
  7  8  2  0  0  0  0
  8  9  1  0  0  0  0
  8 25  1  0  0  0  0
  9 10  1  0  0  0  0
  9 17  1  0  0  0  0
 10 11  2  0  0  0  0
 11 12  1  0  0  0  0
 11 16  1  0  0  0  0
 12 13  1  0  0  0  0
 12 14  1  0  0  0  0
 12 15  1  0  0  0  0
 16 17  2  0  0  0  0
 17 18  1  0  0  0  0
 18 19  2  0  0  0  0
 18 24  1  0  0  0  0
 19 20  1  0  0  0  0
 20 21  2  0  0  0  0
 21 22  1  0  0  0  0
 21 23  1  0  0  0  0
 23 24  2  0  0  0  0
 25 26  2  0  0  0  0
M  END
> <ID>
2516

> <Formula>
C17H14F3N3O2S

> <FW>
381.3722

> <DSSTox_CID>
2777

> <DSSTox_RID>
76725

> <DSSTox_GSID>
22777

> <DSSTox_FileID_Sort>
1409

> <TS_ChemName>
Celecoxib

> <TS_ChemName_Synonyms>


> <TS_CASRN>
169590-42-5

> <CASRN_ChemName_Relationship>
primary

> <TS_Description>
single chemical compound

> <ChemNote>


> <STRUCTURE_Shown>
tested chemical

> <STRUCTURE_Formula>
C17H14F3N3O2S

> <STRUCTURE_MW>
381.3722

> <STRUCTURE_ChemType>
defined organic

> <STRUCTURE_DefinedOrganicForm>
parent

> <STRUCTURE_IUPAC>
4-[5-(4-methylphenyl)-3-(trifluoromethyl)-1H-pyrazol-1-yl]benzenesulfonamide

> <STRUCTURE_SMILES>
NS(=O)(=O)c1ccc(cc1)n3nc(cc3c2ccc(C)cc2)C(F)(F)F

> <STRUCTURE_SMILES_Desalt>
NS(=O)(=O)c1ccc(cc1)n3nc(cc3c2ccc(C)cc2)C(F)(F)F

> <Substance_modify_yyyymmdd>
20080429

$$$$
