169590-41-4
ChemmineR-0915142007XD

 27 29  0  0  0  0  0  0  0  0  1 V2000
    7.4196   -1.8208    0.0000 C   0  0  0  0  0  0  0  0  0  0  0  0
    7.4196   -3.1548    0.0000 C   0  0  0  0  0  0  0  0  0  0  0  0
    6.2707   -3.8267    0.0000 C   0  0  0  0  0  0  0  0  0  0  0  0
    5.1119   -3.1548    0.0000 C   0  0  0  0  0  0  0  0  0  0  0  0
    5.1119   -1.8208    0.0000 C   0  0  0  0  0  0  0  0  0  0  0  0
    6.2707   -1.1587    0.0000 C   0  0  0  0  0  0  0  0  0  0  0  0
    8.5783   -1.1587    0.0000 S   0  0  0  0  0  0  0  0  0  0  0  0
    9.2210   -2.2979    0.0000 O   0  0  0  0  0  0  0  0  0  0  0  0
    7.9065    0.0000    0.0000 O   0  0  0  0  0  0  0  0  0  0  0  0
    9.7176   -0.4966    0.0000 N   0  0  0  0  0  0  0  0  0  0  0  0
    2.7751   -3.5248    0.0000 N   0  0  0  0  0  0  0  0  0  0  0  0
    4.0506   -3.9435    0.0000 N   0  0  0  0  0  0  0  0  0  0  0  0
    2.7751   -5.6864    0.0000 C   0  0  0  0  0  0  0  0  0  0  0  0
    4.0506   -5.2580    0.0000 C   0  0  0  0  0  0  0  0  0  0  0  0
    2.0058   -4.5959    0.0000 C   0  0  0  0  0  0  0  0  0  0  0  0
    0.6719   -4.5959    0.0000 C   0  0  0  0  0  0  0  0  0  0  0  0
    0.0000   -3.4567    0.0000 F   0  0  0  0  0  0  0  0  0  0  0  0
    0.0000   -5.7546    0.0000 F   0  0  0  0  0  0  0  0  0  0  0  0
    5.1217   -5.9980    0.0000 C   0  0  0  0  0  0  0  0  0  0  0  0
    6.2707   -5.3359    0.0000 C   0  0  0  0  0  0  0  0  0  0  0  0
    5.1217   -7.3320    0.0000 C   0  0  0  0  0  0  0  0  0  0  0  0
    7.4196   -5.9980    0.0000 C   0  0  0  0  0  0  0  0  0  0  0  0
    6.2707   -8.0039    0.0000 C   0  0  0  0  0  0  0  0  0  0  0  0
    7.4196   -7.3320    0.0000 C   0  0  0  0  0  0  0  0  0  0  0  0
    8.5783   -5.3359    0.0000 F   0  0  0  0  0  0  0  0  0  0  0  0
    8.5783   -8.0039    0.0000 O   0  0  0  0  0  0  0  0  0  0  0  0
    9.7370   -7.3320    0.0000 C   0  0  0  0  0  0  0  0  0  0  0  0
  1  2  1  0  0  0  0
  1  6  2  0  0  0  0
  1  7  1  0  0  0  0
  2  3  2  0  0  0  0
  3  4  1  0  0  0  0
  4  5  2  0  0  0  0
  4 12  1  0  0  0  0
  5  6  1  0  0  0  0
  7  8  2  0  0  0  0
  7 10  1  0  0  0  0
  7  9  2  0  0  0  0
 11 12  1  0  0  0  0
 11 15  2  0  0  0  0
 12 14  1  0  0  0  0
 13 14  2  0  0  0  0
 13 15  1  0  0  0  0
 14 19  1  0  0  0  0
 15 16  1  0  0  0  0
 16 17  1  0  0  0  0
 16 18  1  0  0  0  0
 19 20  2  0  0  0  0
 19 21  1  0  0  0  0
 20 22  1  0  0  0  0
 21 23  2  0  0  0  0
 22 24  2  0  0  0  0
 22 25  1  0  0  0  0
 23 24  1  0  0  0  0
 24 26  1  0  0  0  0
 26 27  1  0  0  0  0
M  END
> <ID>
11334

> <Formula>
C17H14F3N3O3S

> <FW>
397.3716

> <DSSTox_CID>
25975

> <DSSTox_RID>
81266

> <DSSTox_GSID>
45975

> <DSSTox_FileID_Sort>
5947

> <TS_ChemName>
Deracoxib

> <TS_ChemName_Synonyms>


> <TS_CASRN>
169590-41-4

> <CASRN_ChemName_Relationship>
primary

> <TS_Description>
single chemical compound

> <ChemNote>


> <STRUCTURE_Shown>
tested chemical

> <STRUCTURE_Formula>
C17H14F3N3O3S

> <STRUCTURE_MW>
397.3716

> <STRUCTURE_ChemType>
defined organic

> <STRUCTURE_DefinedOrganicForm>
parent

> <STRUCTURE_IUPAC>
4-[3-(difluoromethyl)-5-(3-fluoro-4-methoxyphenyl)-1H-pyrazol-1-yl]benzenesulfonamide

> <STRUCTURE_SMILES>
NS(=O)(=O)c1ccc(cc1)n3nc(cc3c2ccc(OC)c(F)c2)C(F)F

> <STRUCTURE_SMILES_Desalt>
NS(=O)(=O)c1ccc(cc1)n3nc(cc3c2ccc(OC)c(F)c2)C(F)F

> <Substance_modify_yyyymmdd>
20110825

$$$$
