1702-17-6
ChemmineR-0915142007XD

 11 11  0  0  0  0  0  0  0  0  1 V2000
    2.0049   -3.4498    0.0000 N    0  0  0  0  0  0  0  0  0  0  0  0
    0.7012   -3.4498    0.0000 C    0  0  0  0  0  0  0  0  0  0  0  0
    2.7203   -2.3061    0.0000 C    0  0  0  0  0  0  0  0  0  0  0  0
    2.0049   -1.1625    0.0000 C    0  0  0  0  0  0  0  0  0  0  0  0
    0.0000   -2.3061    0.0000 C    0  0  0  0  0  0  0  0  0  0  0  0
    0.7012   -1.1625    0.0000 C    0  0  0  0  0  0  0  0  0  0  0  0
    4.0522   -2.3061    0.0000 C    0  0  0  0  0  0  0  0  0  0  0  0
    4.7064   -3.4498    0.0000 O    0  0  0  0  0  0  0  0  0  0  0  0
    4.7064   -1.1625    0.0000 O    0  0  0  0  0  0  0  0  0  0  0  0
    2.6732    0.0000    0.0000 Cl   0  0  0  0  0  0  0  0  0  0  0  0
    0.0471   -4.6122    0.0000 Cl   0  0  0  0  0  0  0  0  0  0  0  0
  1  2  2  0  0  0  0
  1  3  1  0  0  0  0
  2  5  1  0  0  0  0
  2 11  1  0  0  0  0
  3  4  2  0  0  0  0
  3  7  1  0  0  0  0
  4  6  1  0  0  0  0
  4 10  1  0  0  0  0
  5  6  2  0  0  0  0
  7  8  2  0  0  0  0
  7  9  1  0  0  0  0
M  END
> <ID>
5866

> <Formula>
C6H3Cl2NO2

> <FW>
191.9995

> <DSSTox_CID>
9221

> <DSSTox_RID>
78716

> <DSSTox_GSID>
29221

> <DSSTox_FileID_Sort>
3398

> <TS_ChemName>
Clopyralid

> <TS_ChemName_Synonyms>
Clopyralid (2-Pyridinecarboxylic acid, 3,6-dichloro-)

> <TS_CASRN>
1702-17-6

> <CASRN_ChemName_Relationship>
primary

> <TS_Description>
single chemical compound

> <ChemNote>


> <STRUCTURE_Shown>
tested chemical

> <STRUCTURE_Formula>
C6H3Cl2NO2

> <STRUCTURE_MW>
191.9995

> <STRUCTURE_ChemType>
defined organic

> <STRUCTURE_DefinedOrganicForm>
parent

> <STRUCTURE_IUPAC>
3,6-dichloropyridine-2-carboxylic acid

> <STRUCTURE_SMILES>
Clc1ccc(Cl)nc1C(=O)O

> <STRUCTURE_SMILES_Desalt>
Clc1ccc(Cl)nc1C(=O)O

> <Substance_modify_yyyymmdd>
20080429

$$$$
