170364-57-5
ChemmineR-0915142007XD

 39 45  0  0  0  0  0  0  0  0  1 V2000
   10.4273   -0.7761    0.0000 C   0  0  0  0  0  0  0  0  0  0  0  0
   11.4903    0.0000    0.0000 N   0  0  0  0  0  0  0  0  0  0  0  0
   10.8322   -2.0416    0.0000 C   0  0  0  0  0  0  0  0  0  0  0  0
   12.5701   -0.7930    0.0000 C   0  0  0  0  0  0  0  0  0  0  0  0
   12.1652   -2.0416    0.0000 C   0  0  0  0  0  0  0  0  0  0  0  0
   12.9413   -3.1214    0.0000 C   0  0  0  0  0  0  0  0  0  0  0  0
   14.2742   -3.1214    0.0000 C   0  0  0  0  0  0  0  0  0  0  0  0
   12.5364   -4.3869    0.0000 C   0  0  0  0  0  0  0  0  0  0  0  0
   14.6792   -4.3869    0.0000 C   0  0  0  0  0  0  0  0  0  0  0  0
   13.5993   -5.1799    0.0000 N   0  0  0  0  0  0  0  0  0  0  0  0
   10.0392   -3.1214    0.0000 C   0  0  0  0  0  0  0  0  0  0  0  0
   10.4610   -4.3869    0.0000 C   0  0  0  0  0  0  0  0  0  0  0  0
    8.7231   -3.1214    0.0000 C   0  0  0  0  0  0  0  0  0  0  0  0
    9.3812   -5.1630    0.0000 C   0  0  0  0  0  0  0  0  0  0  0  0
    8.3013   -4.3869    0.0000 N   0  0  0  0  0  0  0  0  0  0  0  0
   15.1685   -2.1428    0.0000 C   0  0  0  0  0  0  0  0  0  0  0  0
   16.4677   -2.4128    0.0000 C   0  0  0  0  0  0  0  0  0  0  0  0
   15.9784   -4.6737    0.0000 C   0  0  0  0  0  0  0  0  0  0  0  0
   16.8726   -3.6782    0.0000 C   0  0  0  0  0  0  0  0  0  0  0  0
   11.6759   -4.9268    0.0000 C   0  0  0  0  0  0  0  0  0  0  0  0
   11.8108   -6.2597    0.0000 C   0  0  0  0  0  0  0  0  0  0  0  0
    9.5162   -6.4960    0.0000 C   0  0  0  0  0  0  0  0  0  0  0  0
   10.7310   -7.0359    0.0000 C   0  0  0  0  0  0  0  0  0  0  0  0
    7.0359   -4.7918    0.0000 C   0  0  0  0  0  0  0  0  0  0  0  0
    6.7659   -6.0910    0.0000 C   0  0  0  0  0  0  0  0  0  0  0  0
    6.0573   -3.9144    0.0000 C   0  0  0  0  0  0  0  0  0  0  0  0
    5.5005   -6.5128    0.0000 C   0  0  0  0  0  0  0  0  0  0  0  0
    4.7918   -4.3194    0.0000 C   0  0  0  0  0  0  0  0  0  0  0  0
    4.5050   -5.6186    0.0000 N   0  0  0  0  0  0  0  0  0  0  0  0
    3.2395   -6.0235    0.0000 C   0  0  0  0  0  0  0  0  0  0  0  0
    2.2609   -5.1293    0.0000 C   0  0  0  0  0  0  0  0  0  0  0  0
    0.9955   -5.5511    0.0000 C   0  0  0  0  0  0  0  0  0  0  0  0
    2.5309   -3.8301    0.0000 N   0  0  0  0  0  0  0  0  0  0  0  0
    0.0000   -4.6568    0.0000 C   0  0  0  0  0  0  0  0  0  0  0  0
    1.5354   -2.9527    0.0000 C   0  0  0  0  0  0  0  0  0  0  0  0
    0.2700   -3.3577    0.0000 C   0  0  0  0  0  0  0  0  0  0  0  0
   13.8356   -0.3712    0.0000 O   0  0  0  0  0  0  0  0  0  0  0  0
    9.1618   -0.3712    0.0000 O   0  0  0  0  0  0  0  0  0  0  0  0
   13.5993   -6.5128    0.0000 C   0  0  0  0  0  0  0  0  0  0  0  0
  1  2  1  0  0  0  0
  1  3  1  0  0  0  0
  1 38  2  0  0  0  0
  2  4  1  0  0  0  0
  3  5  2  0  0  0  0
  3 11  1  0  0  0  0
  4  5  1  0  0  0  0
  4 37  2  0  0  0  0
  5  6  1  0  0  0  0
  6  7  1  0  0  0  0
  6  8  2  0  0  0  0
  7 16  1  0  0  0  0
  7  9  2  0  0  0  0
  8 10  1  0  0  0  0
  9 10  1  0  0  0  0
  9 18  1  0  0  0  0
 10 39  1  0  0  0  0
 11 12  1  0  0  0  0
 11 13  2  0  0  0  0
 12 20  1  0  0  0  0
 12 14  2  0  0  0  0
 13 15  1  0  0  0  0
 14 15  1  0  0  0  0
 14 22  1  0  0  0  0
 15 24  1  0  0  0  0
 16 17  2  0  0  0  0
 17 19  1  0  0  0  0
 18 19  2  0  0  0  0
 20 21  2  0  0  0  0
 21 23  1  0  0  0  0
 22 23  2  0  0  0  0
 24 25  1  0  0  0  0
 24 26  1  0  0  0  0
 25 27  1  0  0  0  0
 26 28  1  0  0  0  0
 27 29  1  0  0  0  0
 28 29  1  0  0  0  0
 29 30  1  0  0  0  0
 30 31  1  0  0  0  0
 31 32  1  0  0  0  0
 31 33  2  0  0  0  0
 32 34  2  0  0  0  0
 33 35  1  0  0  0  0
 34 36  1  0  0  0  0
 35 36  2  0  0  0  0
M  END
> <ID>
9836

> <Formula>
C32H29N5O2

> <FW>
515.605

> <DSSTox_CID>
24029

> <DSSTox_RID>
80101

> <DSSTox_GSID>
44029

> <DSSTox_FileID_Sort>
4783

> <TS_ChemName>
Enzastaurin

> <TS_ChemName_Synonyms>
Enzastaurin (LY317615)

> <TS_CASRN>
170364-57-5

> <CASRN_ChemName_Relationship>
primary

> <TS_Description>
single chemical compound

> <ChemNote>


> <STRUCTURE_Shown>
tested chemical

> <STRUCTURE_Formula>
C32H29N5O2

> <STRUCTURE_MW>
515.605

> <STRUCTURE_ChemType>
defined organic

> <STRUCTURE_DefinedOrganicForm>
parent

> <STRUCTURE_IUPAC>
3-(1-methyl-1H-indol-3-yl)-4-{1-[1-(pyridin-2-ylmethyl)piperidin-4-yl]-1H-indol-3-yl}-1H-pyrrole-2,5-dione

> <STRUCTURE_SMILES>
Cn2cc(c1ccccc12)C=3C(=O)NC(=O)C=3c7cn(C5CCN(Cc4ncccc4)CC5)c6ccccc67

> <STRUCTURE_SMILES_Desalt>
Cn2cc(c1ccccc12)C=3C(=O)NC(=O)C=3c7cn(C5CCN(Cc4ncccc4)CC5)c6ccccc67

> <Substance_modify_yyyymmdd>
20090207

$$$$
