1704-62-7
ChemmineR-0915142007XD

  9  8  0  0  0  0  0  0  0  0  1 V2000
    6.9207   -1.9785    0.0000 C   0  0  0  0  0  0  0  0  0  0  0  0
    5.7659   -1.3244    0.0000 C   0  0  0  0  0  0  0  0  0  0  0  0
    8.0755   -1.3244    0.0000 O   0  0  0  0  0  0  0  0  0  0  0  0
    4.6111   -1.9946    0.0000 O   0  0  0  0  0  0  0  0  0  0  0  0
    3.4482   -1.3405    0.0000 C   0  0  0  0  0  0  0  0  0  0  0  0
    2.3096   -1.9946    0.0000 C   0  0  0  0  0  0  0  0  0  0  0  0
    1.1548   -1.3405    0.0000 N   0  0  0  0  0  0  0  0  0  0  0  0
    1.1386    0.0000    0.0000 C   0  0  0  0  0  0  0  0  0  0  0  0
    0.0000   -2.0108    0.0000 C   0  0  0  0  0  0  0  0  0  0  0  0
  1  2  1  0  0  0  0
  1  3  1  0  0  0  0
  2  4  1  0  0  0  0
  4  5  1  0  0  0  0
  5  6  1  0  0  0  0
  6  7  1  0  0  0  0
  7  8  1  0  0  0  0
  7  9  1  0  0  0  0
M  END
> <ID>
5151

> <Formula>
C6H15NO2

> <FW>
133.1888

> <DSSTox_CID>
7427

> <DSSTox_RID>
78450

> <DSSTox_GSID>
27427

> <DSSTox_FileID_Sort>
3133

> <TS_ChemName>
2-[2-(Dimethylamino)ethoxy]ethanol

> <TS_ChemName_Synonyms>


> <TS_CASRN>
1704-62-7

> <CASRN_ChemName_Relationship>
primary

> <TS_Description>
single chemical compound

> <ChemNote>


> <STRUCTURE_Shown>
tested chemical

> <STRUCTURE_Formula>
C6H15NO2

> <STRUCTURE_MW>
133.1888

> <STRUCTURE_ChemType>
defined organic

> <STRUCTURE_DefinedOrganicForm>
parent

> <STRUCTURE_IUPAC>
2-[2-(dimethylamino)ethoxy]ethanol

> <STRUCTURE_SMILES>
CN(C)CCOCCO

> <STRUCTURE_SMILES_Desalt>
CN(C)CCOCCO

> <Substance_modify_yyyymmdd>
20080429

$$$$
