17040-19-6
ChemmineR-0915142007XD

 14 13  0  0  0  0  0  0  0  0  1 V2000
    5.7517   -2.3062    0.0000 P   0  0  0  0  0  0  0  0  0  0  0  0
    4.6055   -2.9759    0.0000 S   0  0  0  0  0  0  0  0  0  0  0  0
    5.0819   -1.1531    0.0000 O   0  0  0  0  0  0  0  0  0  0  0  0
    6.4076   -3.4524    0.0000 O   0  0  0  0  0  0  0  0  0  0  0  0
    6.9047   -1.6502    0.0000 O   0  0  0  0  0  0  0  0  0  0  0  0
    3.4524   -2.3062    0.0000 C   0  0  0  0  0  0  0  0  0  0  0  0
    5.7517    0.0000    0.0000 C   0  0  0  0  0  0  0  0  0  0  0  0
    5.7517   -4.6055    0.0000 C   0  0  0  0  0  0  0  0  0  0  0  0
    2.2993   -2.9759    0.0000 C   0  0  0  0  0  0  0  0  0  0  0  0
    1.1531   -2.3062    0.0000 S   0  0  0  0  0  0  0  0  0  0  0  0
    0.0000   -1.6502    0.0000 C   0  0  0  0  0  0  0  0  0  0  0  0
    1.8229   -1.1531    0.0000 O   0  0  0  0  0  0  0  0  0  0  0  0
    0.4971   -3.4524    0.0000 O   0  0  0  0  0  0  0  0  0  0  0  0
    0.0000   -0.3038    0.0000 C   0  0  0  0  0  0  0  0  0  0  0  0
  1  2  1  0  0  0  0
  1  3  1  0  0  0  0
  1  4  1  0  0  0  0
  1  5  2  0  0  0  0
  2  6  1  0  0  0  0
  3  7  1  0  0  0  0
  4  8  1  0  0  0  0
  6  9  1  0  0  0  0
  9 10  1  0  0  0  0
 10 11  1  0  0  0  0
 10 12  2  0  0  0  0
 10 13  2  0  0  0  0
 11 14  1  0  0  0  0
M  END
> <ID>
7350

> <Formula>
C6H15O5PS2

> <FW>
262.2841

> <DSSTox_CID>
17582

> <DSSTox_RID>
79344

> <DSSTox_GSID>
37582

> <DSSTox_FileID_Sort>
4026

> <TS_ChemName>
Demeton-S-methylsulphon

> <TS_ChemName_Synonyms>
Demeton-S-methylsulphon (Oxy demeton methyl sulfone) (S-(2-(ethylsulfonyl)ethyl)-O,O-dimethyl phosphorothioate)

> <TS_CASRN>
17040-19-6

> <CASRN_ChemName_Relationship>
primary

> <TS_Description>
single chemical compound

> <ChemNote>


> <STRUCTURE_Shown>
tested chemical

> <STRUCTURE_Formula>
C6H15O5PS2

> <STRUCTURE_MW>
262.2841

> <STRUCTURE_ChemType>
defined organic

> <STRUCTURE_DefinedOrganicForm>
parent

> <STRUCTURE_IUPAC>
S-[2-(ethylsulfonyl)ethyl] O,O-dimethyl phosphorothioate

> <STRUCTURE_SMILES>
O=S(=O)(CCSP(=O)(OC)OC)CC

> <STRUCTURE_SMILES_Desalt>
O=S(=O)(CCSP(=O)(OC)OC)CC

> <Substance_modify_yyyymmdd>
20080429

$$$$
