1707-14-8
ChemmineR-0915142007XD

 14 14  0  0  0  0  0  0  0  0  1 V2000
    5.2708    0.0000    0.0000 Cl   0  0  0  0  0  0  0  0  0  0  0  0
    0.6713   -3.5427    0.0000 C    0  0  0  0  0  0  0  0  0  0  0  0
    0.0000   -2.3928    0.0000 C    0  0  0  0  0  0  0  0  0  0  0  0
    0.6713   -1.2363    0.0000 N    0  0  0  0  0  0  0  0  0  0  0  0
    2.0007   -1.2363    0.0000 C    0  0  0  0  0  0  0  0  0  0  0  0
    2.6587   -0.0864    0.0000 C    0  0  0  0  0  0  0  0  0  0  0  0
    2.6587   -2.3928    0.0000 C    0  0  0  0  0  0  0  0  0  0  0  0
    3.9880   -2.3928    0.0000 C    0  0  0  0  0  0  0  0  0  0  0  0
    4.6593   -1.2363    0.0000 C    0  0  0  0  0  0  0  0  0  0  0  0
    5.9887   -1.2363    0.0000 C    0  0  0  0  0  0  0  0  0  0  0  0
    6.6467   -2.3928    0.0000 C    0  0  0  0  0  0  0  0  0  0  0  0
    5.9887   -3.5427    0.0000 C    0  0  0  0  0  0  0  0  0  0  0  0
    4.6593   -3.5427    0.0000 C    0  0  0  0  0  0  0  0  0  0  0  0
    2.0007   -3.5427    0.0000 O    0  0  0  0  0  0  0  0  0  0  0  0
  2  3  1  0  0  0  0
  2 14  1  0  0  0  0
  3  4  1  0  0  0  0
  4  5  1  0  0  0  0
  5  6  1  0  0  0  0
  5  7  1  0  0  0  0
  7  8  1  0  0  0  0
  7 14  1  0  0  0  0
  8  9  2  0  0  0  0
  8 13  1  0  0  0  0
  9 10  1  0  0  0  0
 10 11  2  0  0  0  0
 11 12  1  0  0  0  0
 12 13  2  0  0  0  0
M  END
> <ID>
12909

> <Formula>
C11H16ClNO

> <FW>
213.7038 (36.4609+177.2429)

> <DSSTox_CID>
27799

> <DSSTox_RID>
82571

> <DSSTox_GSID>
47822

> <DSSTox_FileID_Sort>
7248

> <TS_ChemName>
Phenmetrazine hydrochloride

> <TS_ChemName_Synonyms>


> <TS_CASRN>
1707-14-8

> <CASRN_ChemName_Relationship>
primary

> <TS_Description>
single chemical compound

> <ChemNote>
parent [134-49-6]

> <STRUCTURE_Shown>
tested chemical

> <STRUCTURE_Formula>
C11H16ClNO

> <STRUCTURE_MW>
213.7038

> <STRUCTURE_ChemType>
defined organic

> <STRUCTURE_DefinedOrganicForm>
complex

> <STRUCTURE_IUPAC>
3-methyl-2-phenylmorpholine hydrochloride (1:1)

> <STRUCTURE_SMILES>
Cl.CC2NCCOC2c1ccccc1

> <STRUCTURE_SMILES_Desalt>
CC2NCCOC2c1ccccc1

> <Substance_modify_yyyymmdd>
20110813

$$$$
