1707-15-9
ChemmineR-0915142007XD

 21 22  0  0  0  0  0  0  0  0  1 V2000
    1.1510   -1.9890    0.0000 C   0  0  0  0  0  0  0  0  0  0  0  0
    1.1510   -0.6538    0.0000 C   0  0  0  0  0  0  0  0  0  0  0  0
    2.3113   -2.6612    0.0000 C   0  0  0  0  0  0  0  0  0  0  0  0
    0.0000   -2.6612    0.0000 C   0  0  0  0  0  0  0  0  0  0  0  0
    2.3113    0.0000    0.0000 N   0  0  0  0  0  0  0  0  0  0  0  0
    0.0000    0.0000    0.0000 O   0  0  0  0  0  0  0  0  0  0  0  0
    2.3113   -3.9964    0.0000 C   0  0  0  0  0  0  0  0  0  0  0  0
    0.0000   -3.9964    0.0000 C   0  0  0  0  0  0  0  0  0  0  0  0
    3.4439   -0.6538    0.0000 N   0  0  0  0  0  0  0  0  0  0  0  0
    1.1510   -4.6502    0.0000 N   0  0  0  0  0  0  0  0  0  0  0  0
    4.6225    0.0000    0.0000 C   0  0  0  0  0  0  0  0  0  0  0  0
    5.7644   -0.6538    0.0000 N   0  0  0  0  0  0  0  0  0  0  0  0
    6.8970    0.0000    0.0000 N   0  0  0  0  0  0  0  0  0  0  0  0
    8.0572   -0.6538    0.0000 C   0  0  0  0  0  0  0  0  0  0  0  0
    8.0572   -1.9890    0.0000 C   0  0  0  0  0  0  0  0  0  0  0  0
    9.2082    0.0000    0.0000 O   0  0  0  0  0  0  0  0  0  0  0  0
    9.2082   -2.6612    0.0000 C   0  0  0  0  0  0  0  0  0  0  0  0
    6.8970   -2.6612    0.0000 C   0  0  0  0  0  0  0  0  0  0  0  0
    9.2082   -3.9964    0.0000 C   0  0  0  0  0  0  0  0  0  0  0  0
    6.8970   -3.9964    0.0000 C   0  0  0  0  0  0  0  0  0  0  0  0
    8.0572   -4.6502    0.0000 N   0  0  0  0  0  0  0  0  0  0  0  0
  1  2  1  0  0  0  0
  1  3  2  0  0  0  0
  1  4  1  0  0  0  0
  2  5  1  0  0  0  0
  2  6  2  0  0  0  0
  3  7  1  0  0  0  0
  4  8  2  0  0  0  0
  5  9  1  0  0  0  0
  7 10  2  0  0  0  0
  8 10  1  0  0  0  0
  9 11  1  0  0  0  0
 11 12  1  0  0  0  0
 12 13  1  0  0  0  0
 13 14  1  0  0  0  0
 14 15  1  0  0  0  0
 14 16  2  0  0  0  0
 15 17  2  0  0  0  0
 15 18  1  0  0  0  0
 17 19  1  0  0  0  0
 18 20  2  0  0  0  0
 19 21  2  0  0  0  0
 20 21  1  0  0  0  0
M  END
> <ID>
11533

> <Formula>
C13H14N6O2

> <FW>
286.2893

> <DSSTox_CID>
26239

> <DSSTox_RID>
81466

> <DSSTox_GSID>
46239

> <DSSTox_FileID_Sort>
6147

> <TS_ChemName>
Metazide

> <TS_ChemName_Synonyms>


> <TS_CASRN>
1707-15-9

> <CASRN_ChemName_Relationship>
primary

> <TS_Description>
single chemical compound

> <ChemNote>


> <STRUCTURE_Shown>
tested chemical

> <STRUCTURE_Formula>
C13H14N6O2

> <STRUCTURE_MW>
286.2893

> <STRUCTURE_ChemType>
defined organic

> <STRUCTURE_DefinedOrganicForm>
parent

> <STRUCTURE_IUPAC>
N',N''-methanediyldipyridine-4-carbohydrazide

> <STRUCTURE_SMILES>
O=C(NNCNNC(=O)c1ccncc1)c2ccncc2

> <STRUCTURE_SMILES_Desalt>
O=C(NNCNNC(=O)c1ccncc1)c2ccncc2

> <Substance_modify_yyyymmdd>
20110817

$$$$
