170729-80-3
ChemmineR-0915142007XD

 37 40  0  0  1  0  0  0  0  0  1 V2000
    4.6145   -7.9818    0.0000 C   0  0  0  0  0  0  0  0  0  0  0  0
    4.6145   -9.3163    0.0000 C   0  0  0  0  0  0  0  0  0  0  0  0
    3.4671   -7.3083    0.0000 C   0  0  0  0  0  0  0  0  0  0  0  0
    3.4671   -9.9648    0.0000 C   0  0  0  0  0  0  0  0  0  0  0  0
    2.3072   -7.9818    0.0000 C   0  0  0  0  0  0  0  0  0  0  0  0
    2.3072   -9.3163    0.0000 C   0  0  0  0  0  0  0  0  0  0  0  0
    3.4671   -5.9988    0.0000 C   0  0  0  0  0  0  0  0  0  0  0  0
    4.6145   -5.3254    0.0000 O   0  0  0  0  0  0  0  0  0  0  0  0
    2.3072   -5.3254    0.0000 C   0  0  0  0  0  0  0  0  0  0  0  0
    5.7494   -5.9988    0.0000 C   0  0  0  0  0  0  0  0  0  0  0  0
    6.9217   -5.3254    0.0000 C   0  0  0  0  0  0  0  0  0  0  0  0
    5.7494   -7.3083    0.0000 O   0  0  0  0  0  0  0  0  0  0  0  0
    8.0691   -5.9988    0.0000 N   0  0  0  0  0  0  0  0  0  0  0  0
    6.9217   -7.9818    0.0000 C   0  0  0  0  0  0  0  0  0  0  0  0
    8.0691   -7.3083    0.0000 C   0  0  0  0  0  0  0  0  0  0  0  0
    9.2040   -5.3254    0.0000 C   0  0  0  0  0  0  0  0  0  0  0  0
   10.3763   -5.9988    0.0000 C   0  0  0  0  0  0  0  0  0  0  0  0
   11.5736   -5.4376    0.0000 N   0  0  0  0  0  0  0  0  0  0  0  0
   10.5011   -7.3083    0.0000 N   0  0  0  0  0  0  0  0  0  0  0  0
   12.4716   -6.4478    0.0000 N   0  0  0  0  0  0  0  0  0  0  0  0
   11.7981   -7.5827    0.0000 C   0  0  0  0  0  0  0  0  0  0  0  0
    6.9217   -3.9784    0.0000 C   0  0  0  0  0  0  0  0  0  0  0  0
    5.7494   -3.3299    0.0000 C   0  0  0  0  0  0  0  0  0  0  0  0
    8.0691   -3.3299    0.0000 C   0  0  0  0  0  0  0  0  0  0  0  0
    5.7494   -1.9955    0.0000 C   0  0  0  0  0  0  0  0  0  0  0  0
    8.0691   -1.9955    0.0000 C   0  0  0  0  0  0  0  0  0  0  0  0
    6.9217   -1.3345    0.0000 C   0  0  0  0  0  0  0  0  0  0  0  0
    6.9217    0.0000    0.0000 F   0  0  0  0  0  0  0  0  0  0  0  0
    1.1599   -9.9648    0.0000 C   0  0  0  0  0  0  0  0  0  0  0  0
    0.0000   -9.3163    0.0000 F   0  0  0  0  0  0  0  0  0  0  0  0
    1.1599  -11.2992    0.0000 F   0  0  0  0  0  0  0  0  0  0  0  0
    2.3072  -10.6382    0.0000 F   0  0  0  0  0  0  0  0  0  0  0  0
    5.7494   -9.9648    0.0000 C   0  0  0  0  0  0  0  0  0  0  0  0
    5.7494  -11.2992    0.0000 F   0  0  0  0  0  0  0  0  0  0  0  0
    6.9217   -9.3163    0.0000 F   0  0  0  0  0  0  0  0  0  0  0  0
    5.7494   -8.6428    0.0000 F   0  0  0  0  0  0  0  0  0  0  0  0
   12.3468   -8.7925    0.0000 O   0  0  0  0  0  0  0  0  0  0  0  0
  1  2  1  0  0  0  0
  1  3  2  0  0  0  0
  2  4  2  0  0  0  0
  2 33  1  0  0  0  0
  3  5  1  0  0  0  0
  3  7  1  0  0  0  0
  4  6  1  0  0  0  0
  5  6  2  0  0  0  0
  6 29  1  0  0  0  0
  7  8  1  0  0  0  0
  7  9  1  1  0  0  0
 10  8  1  6  0  0  0
 10 11  1  0  0  0  0
 10 12  1  0  0  0  0
 11 13  1  0  0  0  0
 11 22  1  6  0  0  0
 12 14  1  0  0  0  0
 13 15  1  0  0  0  0
 13 16  1  0  0  0  0
 14 15  1  0  0  0  0
 16 17  1  0  0  0  0
 17 18  1  0  0  0  0
 17 19  2  0  0  0  0
 18 20  2  0  0  0  0
 19 21  1  0  0  0  0
 20 21  1  0  0  0  0
 21 37  2  0  0  0  0
 22 23  1  0  0  0  0
 22 24  1  0  0  0  0
 23 25  1  0  0  0  0
 24 26  1  0  0  0  0
 25 27  1  0  0  0  0
 26 27  1  0  0  0  0
 27 28  1  0  0  0  0
 29 30  1  0  0  0  0
 29 31  1  0  0  0  0
 29 32  1  0  0  0  0
 33 34  1  0  0  0  0
 33 35  1  0  0  0  0
 33 36  1  0  0  0  0
M  END
> <ID>
14031

> <Formula>
C23H25F7N4O3

> <FW>
538.4584

> <DSSTox_CID>
28973

> <DSSTox_RID>
83238

> <DSSTox_GSID>
49047

> <DSSTox_FileID_Sort>
7913

> <TS_ChemName>
Aprepitant

> <TS_ChemName_Synonyms>


> <TS_CASRN>
170729-80-3

> <CASRN_ChemName_Relationship>
primary

> <TS_Description>
single chemical compound

> <ChemNote>
stereochem; tautomers

> <STRUCTURE_Shown>
tested chemical

> <STRUCTURE_Formula>
C23H25F7N4O3

> <STRUCTURE_MW>
538.4584

> <STRUCTURE_ChemType>
defined organic

> <STRUCTURE_DefinedOrganicForm>
parent

> <STRUCTURE_IUPAC>
5-{[(2R,3S)-2-{(1R)-1-[3,5-bis(trifluoromethyl)phenyl]ethoxy}-3-(4-fluorocyclohexyl)morpholin-4-yl]methyl}-3H-1,2,4-triazol-3-one

> <STRUCTURE_SMILES>
C[C@@H](O[C@H]2OCCN(CC1=NC(=O)N=N1)[C@H]2C3CCC(F)CC3)c4cc(cc(c4)C(F)(F)F)C(F)(F)F

> <STRUCTURE_SMILES_Desalt>
C[C@@H](O[C@H]2OCCN(CC1=NC(=O)N=N1)[C@H]2C3CCC(F)CC3)c4cc(cc(c4)C(F)(F)F)C(F)(F)F

> <Substance_modify_yyyymmdd>
20122020

$$$$
