17097-76-6
ChemmineR-0915142007XD

 33 30  0  0  1  0  0  0  0  0  2 V2000
    1.2079   -1.3224    0.0000 O    0  0  0  0  0  0  0  0  0  0  0  0
    2.3650   -0.6739    0.0000 C    0  0  0  0  0  0  0  0  0  0  0  0
    3.5094   -1.3224    0.0000 C    0  0  0  0  0  0  0  0  0  0  0  0
    4.1833   -0.1780    0.0000 C    0  0  0  0  0  0  0  0  0  0  0  0
    2.8609   -2.4794    0.0000 C    0  0  0  0  0  0  0  0  0  0  0  0
    4.6792   -1.9963    0.0000 C    0  0  0  0  0  0  0  0  0  0  0  0
    4.6792   -3.3186    0.0000 O    0  0  0  0  0  0  0  0  0  0  0  0
    5.8362   -1.3224    0.0000 C    0  0  0  0  0  0  0  0  0  0  0  0
    5.8362    0.0000    0.0000 O    0  0  0  0  0  0  0  0  0  0  0  0
    6.9679   -1.9963    0.0000 N    0  0  0  0  0  0  0  0  0  0  0  0
    8.1122   -1.3224    0.0000 C    0  0  0  0  0  0  0  0  0  0  0  0
    9.2693   -1.9963    0.0000 C    0  0  0  0  0  0  0  0  0  0  0  0
   10.4137   -1.3224    0.0000 C    0  0  0  0  0  0  0  0  0  0  0  0
   11.5707   -1.9963    0.0000 C    0  0  0  0  0  0  0  0  0  0  0  0
   11.5707   -3.3186    0.0000 O    0  5  0  0  0  0  0  0  0  0  0  0
   12.7151   -1.3224    0.0000 O    0  0  0  0  0  0  0  0  0  0  0  0
    4.6156   -6.5991    0.0000 C    0  0  0  0  0  0  0  0  0  0  0  0
    2.3014   -6.5991    0.0000 C    0  0  0  0  0  0  0  0  0  0  0  0
    3.4712   -7.2730    0.0000 C    0  0  0  0  0  0  0  0  0  0  0  0
   10.3628   -7.2730    0.0000 C    0  0  0  0  0  0  0  0  0  0  0  0
    4.6156   -5.2768    0.0000 O    0  0  0  0  0  0  0  0  0  0  0  0
   11.5326   -6.5991    0.0000 O    0  0  0  0  0  0  0  0  0  0  0  0
    5.7727   -7.2730    0.0000 N    0  0  0  0  0  0  0  0  0  0  0  0
   10.3628   -8.5954    0.0000 O    0  5  0  0  0  0  0  0  0  0  0  0
    3.4712   -8.5954    0.0000 O    0  0  0  0  0  0  0  0  0  0  0  0
    1.1444   -7.2730    0.0000 C    0  0  0  0  0  0  0  0  0  0  0  0
    2.3014   -5.2768    0.0000 C    0  0  0  0  0  0  0  0  0  0  0  0
    0.0000   -6.5991    0.0000 O    0  0  0  0  0  0  0  0  0  0  0  0
    9.2185   -6.5991    0.0000 C    0  0  0  0  0  0  0  0  0  0  0  0
    6.9170   -6.5991    0.0000 C    0  0  0  0  0  0  0  0  0  0  0  0
    8.0614   -7.2730    0.0000 C    0  0  0  0  0  0  0  0  0  0  0  0
    1.6402   -7.7435    0.0000 C    0  0  0  0  0  0  0  0  0  0  0  0
    8.1122   -4.3613    0.0000 Ca   0  2  0  0  0  0  0  0  0  0  0  0
  1  2  1  0  0  0  0
  2  3  1  0  0  0  0
  3  4  1  0  0  0  0
  3  5  1  0  0  0  0
  3  6  1  0  0  0  0
  6  7  1  6  0  0  0
  6  8  1  0  0  0  0
  8  9  2  0  0  0  0
  8 10  1  0  0  0  0
 10 11  1  0  0  0  0
 11 12  1  0  0  0  0
 12 13  1  0  0  0  0
 13 14  1  0  0  0  0
 14 15  1  0  0  0  0
 14 16  2  0  0  0  0
 17 19  1  0  0  0  0
 17 21  2  0  0  0  0
 17 23  1  0  0  0  0
 18 19  1  0  0  0  0
 18 26  1  0  0  0  0
 18 27  1  0  0  0  0
 18 32  1  0  0  0  0
 19 25  1  6  0  0  0
 20 29  1  0  0  0  0
 20 22  2  0  0  0  0
 20 24  1  0  0  0  0
 23 30  1  0  0  0  0
 26 28  1  0  0  0  0
 29 31  1  0  0  0  0
 30 31  1  0  0  0  0
M  END
> <ID>
11862

> <Formula>
C20H36CaN2O10

> <FW>
504.5852 (232.2542+232.2542+40.0769)

> <DSSTox_CID>
26653

> <DSSTox_RID>
81797

> <DSSTox_GSID>
46653

> <DSSTox_FileID_Sort>
6478

> <TS_ChemName>
Calcium hopantenate

> <TS_ChemName_Synonyms>


> <TS_CASRN>
17097-76-6

> <CASRN_ChemName_Relationship>
primary

> <TS_Description>
single chemical compound

> <ChemNote>
stereochem; parent [18679-90-8]

> <STRUCTURE_Shown>
tested chemical

> <STRUCTURE_Formula>
C20H36CaN2O10

> <STRUCTURE_MW>
504.5852

> <STRUCTURE_ChemType>
defined organic

> <STRUCTURE_DefinedOrganicForm>
salt

> <STRUCTURE_IUPAC>
calcium bis(4-{[(2R)-2,4-dihydroxy-3,3-dimethylbutanoyl]amino}butanoate)

> <STRUCTURE_SMILES>
[Ca+2].CC(C)(CO)[C@@H](O)C(=O)NCCCC([O-])=O.[O-]C(=O)CCCNC(=O)[C@H](O)C(C)(C)CO

> <STRUCTURE_SMILES_Desalt>
CC(C)(CO)[C@@H](O)C(=O)NCCCC(=O)O

> <Substance_modify_yyyymmdd>
20110808

$$$$
