171049-14-2_1
ChemmineR-0915142007XD

 32 35  0  0  1  0  0  0  0  0  1 V2000
    6.0782    0.0000    0.0000 C   0  0  0  0  0  0  0  0  0  0  0  0
    5.5975   -1.2404    0.0000 N   0  0  0  0  0  0  0  0  0  0  0  0
    6.4968   -2.2173    0.0000 C   0  0  0  0  0  0  0  0  0  0  0  0
    6.2953   -3.5353    0.0000 C   0  0  0  0  0  0  0  0  0  0  0  0
    5.1479   -4.1865    0.0000 C   0  0  0  0  0  0  0  0  0  0  0  0
    3.9074   -3.7058    0.0000 N   0  0  0  0  0  0  0  0  0  0  0  0
    3.5198   -2.4499    0.0000 C   0  0  0  0  0  0  0  0  0  0  0  0
    2.4809   -1.6126    0.0000 H   0  0  0  0  0  0  0  0  0  0  0  0
    2.2793   -2.9306    0.0000 C   0  0  0  0  0  0  0  0  0  0  0  0
    1.2404   -2.0933    0.0000 C   0  0  0  0  0  0  0  0  0  0  0  0
    1.4420   -0.7753    0.0000 O   0  0  0  0  0  0  0  0  0  0  0  0
    0.0000   -2.5894    0.0000 O   0  0  0  0  0  0  0  0  0  0  0  0
    4.2640   -1.3335    0.0000 C   0  0  0  0  0  0  0  0  0  0  0  0
    3.5973   -0.1861    0.0000 O   0  0  0  0  0  0  0  0  0  0  0  0
    5.1479   -5.5200    0.0000 C   0  0  0  0  0  0  0  0  0  0  0  0
    6.2953   -6.1867    0.0000 C   0  0  0  0  0  0  0  0  0  0  0  0
    7.4427   -5.5200    0.0000 C   0  0  0  0  0  0  0  0  0  0  0  0
    7.4427   -4.1865    0.0000 C   0  0  0  0  0  0  0  0  0  0  0  0
    8.6056   -6.1867    0.0000 C   0  0  0  0  0  0  0  0  0  0  0  0
    8.6056   -7.5202    0.0000 O   0  0  0  0  0  0  0  0  0  0  0  0
    9.7530   -5.5200    0.0000 N   0  0  0  0  0  0  0  0  0  0  0  0
    9.7530   -4.1865    0.0000 C   0  0  0  0  0  0  0  0  0  0  0  0
   10.9159   -3.5353    0.0000 C   0  0  0  0  0  0  0  0  0  0  0  0
   12.0633   -4.1865    0.0000 C   0  0  0  0  0  0  0  0  0  0  0  0
   12.0633   -5.5200    0.0000 C   0  0  0  0  0  0  0  0  0  0  0  0
   10.9159   -6.1867    0.0000 C   0  0  0  0  0  0  0  0  0  0  0  0
   13.1953   -3.5353    0.0000 C   0  0  0  0  0  0  0  0  0  0  0  0
   13.1953   -2.2018    0.0000 C   0  0  0  0  0  0  0  0  0  0  0  0
   14.3582   -1.5351    0.0000 C   0  0  0  0  0  0  0  0  0  0  0  0
   15.5056   -2.2018    0.0000 N   0  0  0  0  0  0  0  0  0  0  0  0
   15.5056   -3.5353    0.0000 C   0  0  0  0  0  0  0  0  0  0  0  0
   14.3582   -4.1865    0.0000 C   0  0  0  0  0  0  0  0  0  0  0  0
  1  2  1  0  0  0  0
  2  3  1  0  0  0  0
  2 13  1  0  0  0  0
  3  4  1  0  0  0  0
  4  5  2  0  0  0  0
  4 18  1  0  0  0  0
  5  6  1  0  0  0  0
  5 15  1  0  0  0  0
  6  7  1  0  0  0  0
  7  8  1  6  0  0  0
  7  9  1  0  0  0  0
  7 13  1  0  0  0  0
  9 10  1  0  0  0  0
 10 11  1  0  0  0  0
 10 12  2  0  0  0  0
 13 14  2  0  0  0  0
 15 16  2  0  0  0  0
 16 17  1  0  0  0  0
 17 18  2  0  0  0  0
 17 19  1  0  0  0  0
 19 20  2  0  0  0  0
 19 21  1  0  0  0  0
 21 22  1  0  0  0  0
 21 26  1  0  0  0  0
 22 23  1  0  0  0  0
 23 24  1  0  0  0  0
 24 25  1  0  0  0  0
 24 27  1  0  0  0  0
 25 26  1  0  0  0  0
 27 28  1  0  0  0  0
 27 32  1  0  0  0  0
 28 29  1  0  0  0  0
 29 30  1  0  0  0  0
 30 31  1  0  0  0  0
 31 32  1  0  0  0  0
M  END
> <ID>
16009

> <Formula>
C23H32N4O4

> <FW>
428.5246

> <DSSTox_CID>
31391

> <DSSTox_RID>
97279

> <DSSTox_GSID>
57603

> <DSSTox_FileID_Sort>
8346

> <TS_ChemName>
Lotrafiban (Isomer-II)

> <TS_ChemName_Synonyms>


> <TS_CASRN>
171049-14-2_1

> <CASRN_ChemName_Relationship>
CAS for related isomer

> <TS_Description>
single chemical compound

> <ChemNote>


> <STRUCTURE_Shown>
tested chemical

> <STRUCTURE_Formula>
C23H32N4O4

> <STRUCTURE_MW>
428.5246

> <STRUCTURE_ChemType>
defined organic

> <STRUCTURE_DefinedOrganicForm>
parent

> <STRUCTURE_IUPAC>
[(2S)-7-(4,4'-bipiperidin-1-ylcarbonyl)-4-methyl-3-oxo-2,3,4,5-tetrahydro-1H-1,4-benzodiazepin-2-yl]acetic acid

> <STRUCTURE_SMILES>
O=C(c1ccc2N[C@@H](CC(=O)O)C(=O)N(C)Cc2c1)N3CCC(CC3)C4CCNCC4

> <STRUCTURE_SMILES_Desalt>
O=C(c1ccc2N[C@@H](CC(=O)O)C(=O)N(C)Cc2c1)N3CCC(CC3)C4CCNCC4

> <Substance_modify_yyyymmdd>
20131018

$$$$
