17109-49-8
ChemmineR-0915142007XD

 19 20  0  0  0  0  0  0  0  0  1 V2000
    4.6072   -3.4646    0.0000 P   0  0  0  0  0  0  0  0  0  0  0  0
    3.4646   -2.7920    0.0000 S   0  0  0  0  0  0  0  0  0  0  0  0
    5.7590   -4.1188    0.0000 S   0  0  0  0  0  0  0  0  0  0  0  0
    3.9530   -4.6072    0.0000 O   0  0  0  0  0  0  0  0  0  0  0  0
    5.2798   -2.3128    0.0000 O   0  0  0  0  0  0  0  0  0  0  0  0
    2.2944   -3.4830    0.0000 C   0  0  0  0  0  0  0  0  0  0  0  0
    6.9016   -3.4830    0.0000 C   0  0  0  0  0  0  0  0  0  0  0  0
    4.5888   -1.1702    0.0000 C   0  0  0  0  0  0  0  0  0  0  0  0
    1.1426   -2.7920    0.0000 C   0  0  0  0  0  0  0  0  0  0  0  0
    6.9016   -2.1285    0.0000 C   0  0  0  0  0  0  0  0  0  0  0  0
    2.2944   -4.8099    0.0000 C   0  0  0  0  0  0  0  0  0  0  0  0
    8.0718   -4.1188    0.0000 C   0  0  0  0  0  0  0  0  0  0  0  0
    5.2614    0.0000    0.0000 C   0  0  0  0  0  0  0  0  0  0  0  0
    1.1242   -5.4549    0.0000 C   0  0  0  0  0  0  0  0  0  0  0  0
    0.0000   -3.4830    0.0000 C   0  0  0  0  0  0  0  0  0  0  0  0
    9.2144   -3.4277    0.0000 C   0  0  0  0  0  0  0  0  0  0  0  0
    8.0626   -1.4743    0.0000 C   0  0  0  0  0  0  0  0  0  0  0  0
    9.2144   -2.1193    0.0000 C   0  0  0  0  0  0  0  0  0  0  0  0
    0.0000   -4.8099    0.0000 C   0  0  0  0  0  0  0  0  0  0  0  0
  1  2  1  0  0  0  0
  1  3  1  0  0  0  0
  1  4  2  0  0  0  0
  1  5  1  0  0  0  0
  2  6  1  0  0  0  0
  3  7  1  0  0  0  0
  5  8  1  0  0  0  0
  6  9  1  0  0  0  0
  6 11  2  0  0  0  0
  7 10  2  0  0  0  0
  7 12  1  0  0  0  0
  8 13  1  0  0  0  0
  9 15  2  0  0  0  0
 10 17  1  0  0  0  0
 11 14  1  0  0  0  0
 12 16  2  0  0  0  0
 14 19  2  0  0  0  0
 15 19  1  0  0  0  0
 16 18  1  0  0  0  0
 17 18  2  0  0  0  0
M  END
> <ID>
8856

> <Formula>
C14H15O2PS2

> <FW>
310.3715

> <DSSTox_CID>
21910

> <DSSTox_RID>
79873

> <DSSTox_GSID>
41910

> <DSSTox_FileID_Sort>
4555

> <TS_ChemName>
Edifenphos

> <TS_ChemName_Synonyms>


> <TS_CASRN>
17109-49-8

> <CASRN_ChemName_Relationship>
primary

> <TS_Description>
single chemical compound

> <ChemNote>


> <STRUCTURE_Shown>
tested chemical

> <STRUCTURE_Formula>
C14H15O2PS2

> <STRUCTURE_MW>
310.3715

> <STRUCTURE_ChemType>
defined organic

> <STRUCTURE_DefinedOrganicForm>
parent

> <STRUCTURE_IUPAC>
O-ethyl S,S-diphenyl phosphorodithioate

> <STRUCTURE_SMILES>
O=P(Sc1ccccc1)(Sc2ccccc2)OCC

> <STRUCTURE_SMILES_Desalt>
O=P(Sc1ccccc1)(Sc2ccccc2)OCC

> <Substance_modify_yyyymmdd>
20080825

$$$$
