171058-21-2
ChemmineR-0915142007XD

 21 20  0  0  0  0  0  0  0  0  2 V2000
    9.1257  -17.0892    0.0000 C    0  0  0  0  0  0  0  0  0  0  0  0
    2.5292    0.0000    0.0000 C    0  0  0  0  0  0  0  0  0  0  0  0
    7.9978  -16.4228    0.0000 C    0  0  0  0  0  0  0  0  0  0  0  0
    7.9978  -15.0898    0.0000 C    0  0  0  0  0  0  0  0  0  0  0  0
    6.8357  -14.4233    0.0000 C    0  0  0  0  0  0  0  0  0  0  0  0
    6.8357  -13.1074    0.0000 C    0  0  0  0  0  0  0  0  0  0  0  0
    5.6907  -12.4239    0.0000 C    0  0  0  0  0  0  0  0  0  0  0  0
    5.6907  -11.0909    0.0000 C    0  0  0  0  0  0  0  0  0  0  0  0
    4.5286  -10.4415    0.0000 C    0  0  0  0  0  0  0  0  0  0  0  0
    4.5286   -9.1086    0.0000 C    0  0  0  0  0  0  0  0  0  0  0  0
    3.3837   -8.4421    0.0000 C    0  0  0  0  0  0  0  0  0  0  0  0
    3.3837   -7.1091    0.0000 C    0  0  0  0  0  0  0  0  0  0  0  0
    2.2216   -6.4597    0.0000 C    0  0  0  0  0  0  0  0  0  0  0  0
    2.2216   -5.1268    0.0000 C    0  0  0  0  0  0  0  0  0  0  0  0
    1.0766   -4.4603    0.0000 C    0  0  0  0  0  0  0  0  0  0  0  0
    0.4101   -1.0766    0.0000 C    0  0  0  0  0  0  0  0  0  0  0  0
    0.0000   -2.3412    0.0000 C    0  0  0  0  0  0  0  0  0  0  0  0
    2.1532   -2.3412    0.0000 C    0  0  0  0  0  0  0  0  0  0  0  0
    1.7431   -1.0766    0.0000 N    0  3  0  0  0  0  0  0  0  0  0  0
    1.0766   -3.1273    0.0000 N    0  0  0  0  0  0  0  0  0  0  0  0
    6.0154   -2.3925    0.0000 Cl   0  5  0  0  0  0  0  0  0  0  0  0
  1  3  1  0  0  0  0
  2 19  1  0  0  0  0
  3  4  1  0  0  0  0
  4  5  1  0  0  0  0
  5  6  1  0  0  0  0
  6  7  1  0  0  0  0
  7  8  1  0  0  0  0
  8  9  1  0  0  0  0
  9 10  1  0  0  0  0
 10 11  1  0  0  0  0
 11 12  1  0  0  0  0
 12 13  1  0  0  0  0
 13 14  1  0  0  0  0
 14 15  1  0  0  0  0
 15 20  1  0  0  0  0
 16 17  2  0  0  0  0
 16 19  1  0  0  0  0
 17 20  1  0  0  0  0
 18 19  2  0  0  0  0
 18 20  1  0  0  0  0
M  END
> <ID>
14092

> <Formula>
C18H35ClN2

> <FW>
314.9369 (279.4834+35.4535)

> <DSSTox_CID>
29085

> <DSSTox_RID>
83304

> <DSSTox_GSID>
49229

> <DSSTox_FileID_Sort>
7979

> <TS_ChemName>
1-Methyl-3-tetradecylimidazolium chloride

> <TS_ChemName_Synonyms>


> <TS_CASRN>
171058-21-2

> <CASRN_ChemName_Relationship>
primary

> <TS_Description>
single chemical compound

> <ChemNote>


> <STRUCTURE_Shown>
tested chemical

> <STRUCTURE_Formula>
C18H35ClN2

> <STRUCTURE_MW>
314.9369

> <STRUCTURE_ChemType>
defined organic

> <STRUCTURE_DefinedOrganicForm>
salt

> <STRUCTURE_IUPAC>
3-methyl-1-tetradecyl-1H-imidazol-3-ium chloride

> <STRUCTURE_SMILES>
[Cl-].C[n+]1ccn(CCCCCCCCCCCCCC)c1

> <STRUCTURE_SMILES_Desalt>
C[n+]1ccn(CCCCCCCCCCCCCC)c1

> <Substance_modify_yyyymmdd>
20111204

$$$$
