171058-17-6
ChemmineR-0915142007XD

 13 12  0  0  0  0  0  0  0  0  2 V2000
    8.8625   -1.0835    0.0000 N    0  3  0  0  0  0  0  0  0  0  0  0
    6.8385   -1.7582    0.0000 N    0  0  0  0  0  0  0  0  0  0  0  0
    8.0958   -2.1875    0.0000 C    0  0  0  0  0  0  0  0  0  0  0  0
    8.0856    0.0000    0.0000 C    0  0  0  0  0  0  0  0  0  0  0  0
    6.8487   -0.4293    0.0000 C    0  0  0  0  0  0  0  0  0  0  0  0
    5.7856   -2.5248    0.0000 C    0  0  0  0  0  0  0  0  0  0  0  0
    4.5795   -1.9626    0.0000 C    0  0  0  0  0  0  0  0  0  0  0  0
    3.5164   -2.7293    0.0000 C    0  0  0  0  0  0  0  0  0  0  0  0
    2.2693   -2.1671    0.0000 C    0  0  0  0  0  0  0  0  0  0  0  0
    1.1960   -2.9848    0.0000 C    0  0  0  0  0  0  0  0  0  0  0  0
    0.0000   -2.4124    0.0000 C    0  0  0  0  0  0  0  0  0  0  0  0
   10.1913   -1.0835    0.0000 C    0  0  0  0  0  0  0  0  0  0  0  0
   10.2220   -2.8213    0.0000 Cl   0  5  0  0  0  0  0  0  0  0  0  0
  1  3  2  0  0  0  0
  1  4  1  0  0  0  0
  1 12  1  0  0  0  0
  2  3  1  0  0  0  0
  2  5  1  0  0  0  0
  2  6  1  0  0  0  0
  4  5  2  0  0  0  0
  6  7  1  0  0  0  0
  7  8  1  0  0  0  0
  8  9  1  0  0  0  0
  9 10  1  0  0  0  0
 10 11  1  0  0  0  0
M  END
> <ID>
13023

> <Formula>
C10H19ClN2

> <FW>
202.7243 (167.2707+35.4535)

> <DSSTox_CID>
27924

> <DSSTox_RID>
82677

> <DSSTox_GSID>
47948

> <DSSTox_FileID_Sort>
7354

> <TS_ChemName>
1-Hexyl-3-methylimidazolium chloride

> <TS_ChemName_Synonyms>


> <TS_CASRN>
171058-17-6

> <CASRN_ChemName_Relationship>
primary

> <TS_Description>
single chemical compound

> <ChemNote>
ammonium; parent [85100-82-9]

> <STRUCTURE_Shown>
tested chemical

> <STRUCTURE_Formula>
C10H19ClN2

> <STRUCTURE_MW>
202.7243

> <STRUCTURE_ChemType>
defined organic

> <STRUCTURE_DefinedOrganicForm>
salt

> <STRUCTURE_IUPAC>
1-hexyl-3-methyl-1H-imidazol-3-ium chloride

> <STRUCTURE_SMILES>
[Cl-].C[n+]1ccn(CCCCCC)c1

> <STRUCTURE_SMILES_Desalt>
C[n+]1ccn(CCCCCC)c1

> <Substance_modify_yyyymmdd>
20110418

$$$$
