171228-49-2
ChemmineR-0915142007XD

 51 57  0  0  1  0  0  0  0  0  1 V2000
    7.5565   -2.1824    0.0000 C   0  0  0  0  0  0  0  0  0  0  0  0
    8.8113   -2.1824    0.0000 C   0  0  0  0  0  0  0  0  0  0  0  0
    9.5479   -3.3554    0.0000 C   0  0  0  0  0  0  0  0  0  0  0  0
    8.8113   -4.4466    0.0000 C   0  0  0  0  0  0  0  0  0  0  0  0
    7.5565   -4.4466    0.0000 C   0  0  0  0  0  0  0  0  0  0  0  0
    6.8199   -3.3554    0.0000 C   0  0  0  0  0  0  0  0  0  0  0  0
   10.8028   -3.3554    0.0000 N   0  0  0  0  0  0  0  0  0  0  0  0
   11.5393   -2.1824    0.0000 C   0  0  0  0  0  0  0  0  0  0  0  0
   12.8214   -2.1824    0.0000 C   0  0  0  0  0  0  0  0  0  0  0  0
   13.4489   -3.3554    0.0000 N   0  0  0  0  0  0  0  0  0  0  0  0
   12.8214   -4.4466    0.0000 C   0  0  0  0  0  0  0  0  0  0  0  0
   11.5393   -4.4466    0.0000 C   0  0  0  0  0  0  0  0  0  0  0  0
   14.8129   -3.3554    0.0000 C   0  0  0  0  0  0  0  0  0  0  0  0
   15.4676   -2.1824    0.0000 C   0  0  0  0  0  0  0  0  0  0  0  0
   16.8316   -2.1824    0.0000 C   0  0  0  0  0  0  0  0  0  0  0  0
   17.5408   -3.3554    0.0000 C   0  0  0  0  0  0  0  0  0  0  0  0
   16.8316   -4.4466    0.0000 C   0  0  0  0  0  0  0  0  0  0  0  0
   15.4676   -4.4466    0.0000 C   0  0  0  0  0  0  0  0  0  0  0  0
    5.5651   -3.3554    0.0000 N   0  0  0  0  0  0  0  0  0  0  0  0
    4.7194   -2.2642    0.0000 C   0  0  0  0  0  0  0  0  0  0  0  0
    3.4645   -2.6188    0.0000 N   0  0  0  0  0  0  0  0  0  0  0  0
    3.4645   -3.9828    0.0000 N   0  0  0  0  0  0  0  0  0  0  0  0
    4.7194   -4.4466    0.0000 C   0  0  0  0  0  0  0  0  0  0  0  0
    2.3733   -1.9914    0.0000 C   0  0  0  0  0  0  0  0  0  0  0  0
    2.3733   -0.6274    0.0000 C   0  0  0  0  0  0  0  0  0  0  0  0
    1.1730   -2.6188    0.0000 C   0  0  0  0  0  0  0  0  0  0  0  0
    1.1730   -3.9828    0.0000 O   0  0  0  0  0  0  0  0  0  0  0  0
    0.0000   -1.9914    0.0000 C   0  0  0  0  0  0  0  0  0  0  0  0
   18.8230   -3.3554    0.0000 O   0  0  0  0  0  0  0  0  0  0  0  0
   19.5595   -2.1824    0.0000 C   0  0  0  0  0  0  0  0  0  0  0  0
   20.8144   -2.1824    0.0000 C   0  0  0  0  0  0  0  0  0  0  0  0
   21.6328   -3.2736    0.0000 C   0  0  0  0  0  0  0  0  0  0  0  0
   22.9149   -2.8371    0.0000 C   0  0  0  0  0  0  0  0  0  0  0  0
   22.9149   -1.5549    0.0000 O   0  0  0  0  0  0  0  0  0  0  0  0
   21.6328   -1.0912    0.0000 C   0  0  0  0  0  0  0  0  0  0  0  0
    5.1831   -1.0093    0.0000 O   0  0  0  0  0  0  0  0  0  0  0  0
    1.1730    0.0000    0.0000 C   0  0  0  0  0  0  0  0  0  0  0  0
   22.9149   -4.2011    0.0000 C   0  0  0  0  0  0  0  0  0  0  0  0
   24.0061   -2.1824    0.0000 C   0  0  0  0  0  0  0  0  0  0  0  0
   24.0880   -4.8285    0.0000 C   0  0  0  0  0  0  0  0  0  0  0  0
   21.7146   -4.8285    0.0000 C   0  0  0  0  0  0  0  0  0  0  0  0
   24.0880   -6.1925    0.0000 C   0  0  0  0  0  0  0  0  0  0  0  0
   21.7146   -6.1925    0.0000 C   0  0  0  0  0  0  0  0  0  0  0  0
   22.9149   -6.8199    0.0000 C   0  0  0  0  0  0  0  0  0  0  0  0
   20.6507   -4.2011    0.0000 F   0  0  0  0  0  0  0  0  0  0  0  0
   22.9149   -8.1839    0.0000 F   0  0  0  0  0  0  0  0  0  0  0  0
   25.1791   -2.8371    0.0000 N   0  0  0  0  0  0  0  0  0  0  0  0
   25.3701   -4.2011    0.0000 N   0  0  0  0  0  0  0  0  0  0  0  0
   26.3794   -2.2642    0.0000 C   0  0  0  0  0  0  0  0  0  0  0  0
   26.6522   -4.4466    0.0000 C   0  0  0  0  0  0  0  0  0  0  0  0
   27.2797   -3.2736    0.0000 N   0  0  0  0  0  0  0  0  0  0  0  0
  1  6  1  0  0  0  0
  1  2  2  0  0  0  0
  2  3  1  0  0  0  0
  3  7  1  0  0  0  0
  3  4  2  0  0  0  0
  4  5  1  0  0  0  0
  5  6  2  0  0  0  0
  6 19  1  0  0  0  0
  7 12  1  0  0  0  0
  7  8  1  0  0  0  0
  8  9  1  0  0  0  0
  9 10  1  0  0  0  0
 10 13  1  0  0  0  0
 10 11  1  0  0  0  0
 11 12  1  0  0  0  0
 13 14  2  0  0  0  0
 13 18  1  0  0  0  0
 14 15  1  0  0  0  0
 15 16  2  0  0  0  0
 16 29  1  0  0  0  0
 16 17  1  0  0  0  0
 17 18  2  0  0  0  0
 19 20  1  0  0  0  0
 19 23  1  0  0  0  0
 20 21  1  0  0  0  0
 20 36  2  0  0  0  0
 21 24  1  0  0  0  0
 21 22  1  0  0  0  0
 22 23  2  0  0  0  0
 24 25  1  6  0  0  0
 24 26  1  0  0  0  0
 25 37  1  0  0  0  0
 26 27  1  1  0  0  0
 26 28  1  0  0  0  0
 29 30  1  0  0  0  0
 30 31  1  0  0  0  0
 31 32  1  0  0  0  0
 31 35  1  0  0  0  0
 32 33  1  0  0  0  0
 33 34  1  0  0  0  0
 33 38  1  0  0  0  0
 33 39  1  6  0  0  0
 34 35  1  0  0  0  0
 38 40  1  0  0  0  0
 38 41  2  0  0  0  0
 39 47  1  0  0  0  0
 40 42  2  0  0  0  0
 41 43  1  0  0  0  0
 41 45  1  0  0  0  0
 42 44  1  0  0  0  0
 43 44  2  0  0  0  0
 44 46  1  0  0  0  0
 47 48  1  0  0  0  0
 47 49  1  0  0  0  0
 48 50  2  0  0  0  0
 49 51  2  0  0  0  0
 50 51  1  0  0  0  0
M  END
> <ID>
14050

> <Formula>
C37H42F2N8O4

> <FW>
700.7774

> <DSSTox_CID>
28992

> <DSSTox_RID>
83257

> <DSSTox_GSID>
49066

> <DSSTox_FileID_Sort>
7932

> <TS_ChemName>
Posaconazole

> <TS_ChemName_Synonyms>


> <TS_CASRN>
171228-49-2

> <CASRN_ChemName_Relationship>
primary

> <TS_Description>
single chemical compound

> <ChemNote>


> <STRUCTURE_Shown>
tested chemical

> <STRUCTURE_Formula>
C37H42F2N8O4

> <STRUCTURE_MW>
700.7774

> <STRUCTURE_ChemType>
defined organic

> <STRUCTURE_DefinedOrganicForm>
parent

> <STRUCTURE_IUPAC>
(2xi)-1,4-anhydro-2,3,5-trideoxy-4-(2,4-difluorophenyl)-2-({4-[4-(4-{1-[(2S,3S)-2-hydroxypentan-3-yl]-5-oxo-1,5-dihydro-4H-1,2,4-triazol-4-yl}phenyl)piperazin-1-yl]phenoxy}methyl)-5-(1H-1,2,4-triazol-1-yl)-D-glycero-pentitol

> <STRUCTURE_SMILES>
C[C@H](O)[C@H](CC)N1N=CN(C1=O)c2ccc(cc2)N3CCN(CC3)c4ccc(cc4)OCC6C[C@@](Cn5cncn5)(OC6)c7ccc(F)cc7F

> <STRUCTURE_SMILES_Desalt>
C[C@H](O)[C@H](CC)N1N=CN(C1=O)c2ccc(cc2)N3CCN(CC3)c4ccc(cc4)OCC6C[C@@](Cn5cncn5)(OC6)c7ccc(F)cc7F

> <Substance_modify_yyyymmdd>
20111204

$$$$
