1713-15-1
ChemmineR-0915142007XD

 17 17  0  0  0  0  0  0  0  0  1 V2000
    6.9160   -1.3486    0.0000 C    0  0  0  0  0  0  0  0  0  0  0  0
    6.9160    0.0000    0.0000 O    0  0  0  0  0  0  0  0  0  0  0  0
    8.0687   -2.0056    0.0000 O    0  0  0  0  0  0  0  0  0  0  0  0
    5.7749   -2.0056    0.0000 C    0  0  0  0  0  0  0  0  0  0  0  0
    4.5991   -1.3486    0.0000 O    0  0  0  0  0  0  0  0  0  0  0  0
    3.4695   -2.0056    0.0000 C    0  0  0  0  0  0  0  0  0  0  0  0
    3.4695   -3.3197    0.0000 C    0  0  0  0  0  0  0  0  0  0  0  0
    2.2938   -1.3486    0.0000 C    0  0  0  0  0  0  0  0  0  0  0  0
    2.2938   -3.9998    0.0000 C    0  0  0  0  0  0  0  0  0  0  0  0
    1.1527   -2.0056    0.0000 C    0  0  0  0  0  0  0  0  0  0  0  0
    1.1527   -3.3197    0.0000 C    0  0  0  0  0  0  0  0  0  0  0  0
    4.5991   -3.9998    0.0000 Cl   0  0  0  0  0  0  0  0  0  0  0  0
    0.0000   -3.9998    0.0000 Cl   0  0  0  0  0  0  0  0  0  0  0  0
    9.2329   -1.3486    0.0000 C    0  0  0  0  0  0  0  0  0  0  0  0
   10.3740   -2.0056    0.0000 C    0  0  0  0  0  0  0  0  0  0  0  0
   11.5267   -1.3256    0.0000 C    0  0  0  0  0  0  0  0  0  0  0  0
   10.3740   -3.3427    0.0000 C    0  0  0  0  0  0  0  0  0  0  0  0
  1  2  2  0  0  0  0
  1  3  1  0  0  0  0
  1  4  1  0  0  0  0
  3 14  1  0  0  0  0
  4  5  1  0  0  0  0
  5  6  1  0  0  0  0
  6  7  2  0  0  0  0
  6  8  1  0  0  0  0
  7  9  1  0  0  0  0
  7 12  1  0  0  0  0
  8 10  2  0  0  0  0
  9 11  2  0  0  0  0
 10 11  1  0  0  0  0
 11 13  1  0  0  0  0
 14 15  1  0  0  0  0
 15 16  1  0  0  0  0
 15 17  1  0  0  0  0
M  END
> <ID>
8313

> <Formula>
C12H14Cl2O3

> <FW>
277.1438

> <DSSTox_CID>
21347

> <DSSTox_RID>
79693

> <DSSTox_GSID>
41347

> <DSSTox_FileID_Sort>
4375

> <TS_ChemName>
Isobutyl 2,4-dichlorophenoxyacetate

> <TS_ChemName_Synonyms>
2,4-D-isobutyl

> <TS_CASRN>
1713-15-1

> <CASRN_ChemName_Relationship>
primary

> <TS_Description>
single chemical compound

> <ChemNote>


> <STRUCTURE_Shown>
tested chemical

> <STRUCTURE_Formula>
C12H14Cl2O3

> <STRUCTURE_MW>
277.1438

> <STRUCTURE_ChemType>
defined organic

> <STRUCTURE_DefinedOrganicForm>
parent

> <STRUCTURE_IUPAC>
2-methylpropyl (2,4-dichlorophenoxy)acetate

> <STRUCTURE_SMILES>
Clc1cc(Cl)ccc1OCC(=O)OCC(C)C

> <STRUCTURE_SMILES_Desalt>
Clc1cc(Cl)ccc1OCC(=O)OCC(C)C

> <Substance_modify_yyyymmdd>
20080825

$$$$
