17135-78-3
ChemmineR-0915142007XD

 15 17  0  0  0  0  0  0  0  0  1 V2000
    0.0000   -2.0014    0.0000 C    0  0  0  0  0  0  0  0  0  0  0  0
    0.0000   -0.6698    0.0000 C    0  0  0  0  0  0  0  0  0  0  0  0
    1.1540   -2.6550    0.0000 C    0  0  0  0  0  0  0  0  0  0  0  0
    1.1540    0.0000    0.0000 C    0  0  0  0  0  0  0  0  0  0  0  0
    5.7620   -2.6550    0.0000 C    0  0  0  0  0  0  0  0  0  0  0  0
    6.9160   -2.0014    0.0000 C    0  0  0  0  0  0  0  0  0  0  0  0
    3.4620   -2.6550    0.0000 C    0  0  0  0  0  0  0  0  0  0  0  0
    3.4620    0.0000    0.0000 C    0  0  0  0  0  0  0  0  0  0  0  0
    5.7620    0.0000    0.0000 C    0  0  0  0  0  0  0  0  0  0  0  0
    2.3080   -2.0014    0.0000 C    0  0  0  0  0  0  0  0  0  0  0  0
    2.3080   -0.6698    0.0000 C    0  0  0  0  0  0  0  0  0  0  0  0
    4.6080   -2.0014    0.0000 C    0  0  0  0  0  0  0  0  0  0  0  0
    4.6080   -0.6698    0.0000 C    0  0  0  0  0  0  0  0  0  0  0  0
    6.9160   -0.6698    0.0000 C    0  0  0  0  0  0  0  0  0  0  0  0
    8.0700    0.0000    0.0000 Cl   0  0  0  0  0  0  0  0  0  0  0  0
  1  2  2  0  0  0  0
  1  3  1  0  0  0  0
  2  4  1  0  0  0  0
  3 10  2  0  0  0  0
  4 11  2  0  0  0  0
  5  6  2  0  0  0  0
  5 12  1  0  0  0  0
  6 14  1  0  0  0  0
  7 10  1  0  0  0  0
  7 12  2  0  0  0  0
  8 11  1  0  0  0  0
  8 13  2  0  0  0  0
  9 13  1  0  0  0  0
  9 14  2  0  0  0  0
 10 11  1  0  0  0  0
 12 13  1  0  0  0  0
 14 15  1  0  0  0  0
M  END
> <ID>
14093

> <Formula>
C14H9Cl

> <FW>
212.6743

> <DSSTox_CID>
29086

> <DSSTox_RID>
83305

> <DSSTox_GSID>
49230

> <DSSTox_FileID_Sort>
7980

> <TS_ChemName>
2-Chloroanthracene

> <TS_ChemName_Synonyms>


> <TS_CASRN>
17135-78-3

> <CASRN_ChemName_Relationship>
primary

> <TS_Description>
single chemical compound

> <ChemNote>


> <STRUCTURE_Shown>
tested chemical

> <STRUCTURE_Formula>
C14H9Cl

> <STRUCTURE_MW>
212.6743

> <STRUCTURE_ChemType>
defined organic

> <STRUCTURE_DefinedOrganicForm>
parent

> <STRUCTURE_IUPAC>
2-chloroanthracene

> <STRUCTURE_SMILES>
Clc1ccc2cc3ccccc3cc2c1

> <STRUCTURE_SMILES_Desalt>
Clc1ccc2cc3ccccc3cc2c1

> <Substance_modify_yyyymmdd>
20111204

$$$$
