171596-29-5
ChemmineR-0915142007XD

 31 36  0  0  1  0  0  0  0  0  1 V2000
    8.4981   -3.3413    0.0000 C   0  0  0  0  0  0  0  0  0  0  0  0
    8.4981   -2.0086    0.0000 N   0  0  0  0  0  0  0  0  0  0  0  0
    7.3586   -1.3327    0.0000 C   0  0  0  0  0  0  0  0  0  0  0  0
    7.3586   -3.9980    0.0000 C   0  0  0  0  0  0  0  0  0  0  0  0
    6.1901   -3.3413    0.0000 N   0  0  0  0  0  0  0  0  0  0  0  0
    6.1901   -2.0086    0.0000 C   0  0  0  0  0  0  0  0  0  0  0  0
    5.0506   -1.3327    0.0000 C   0  0  0  0  0  0  0  0  0  0  0  0
    5.0506   -3.9980    0.0000 C   0  0  0  0  0  0  0  0  0  0  0  0
    3.9111   -3.3413    0.0000 C   0  0  0  0  0  0  0  0  0  0  0  0
    3.9111   -2.0086    0.0000 C   0  0  0  0  0  0  0  0  0  0  0  0
    2.6267   -3.7565    0.0000 N   0  0  0  0  0  0  0  0  0  0  0  0
    1.8638   -2.6653    0.0000 C   0  0  0  0  0  0  0  0  0  0  0  0
    2.6267   -1.6031    0.0000 C   0  0  0  0  0  0  0  0  0  0  0  0
    2.0859   -0.3670    0.0000 C   0  0  0  0  0  0  0  0  0  0  0  0
    0.7822   -0.2607    0.0000 C   0  0  0  0  0  0  0  0  0  0  0  0
    0.0000   -1.3133    0.0000 C   0  0  0  0  0  0  0  0  0  0  0  0
    0.5311   -2.5398    0.0000 C   0  0  0  0  0  0  0  0  0  0  0  0
    5.0506   -5.3306    0.0000 C   0  0  0  0  0  0  0  0  0  0  0  0
    7.3586   -5.3306    0.0000 O   0  0  0  0  0  0  0  0  0  0  0  0
    9.6569   -1.3327    0.0000 C   0  0  0  0  0  0  0  0  0  0  0  0
    7.3586    0.0000    0.0000 O   0  0  0  0  0  0  0  0  0  0  0  0
    3.9111   -6.0066    0.0000 C   0  0  0  0  0  0  0  0  0  0  0  0
    3.9111   -7.3296    0.0000 C   0  0  0  0  0  0  0  0  0  0  0  0
    6.1901   -6.0066    0.0000 C   0  0  0  0  0  0  0  0  0  0  0  0
    6.1901   -7.3296    0.0000 C   0  0  0  0  0  0  0  0  0  0  0  0
    5.0506   -7.9863    0.0000 C   0  0  0  0  0  0  0  0  0  0  0  0
    5.3210   -9.2900    0.0000 O   0  0  0  0  0  0  0  0  0  0  0  0
    6.6536   -9.4348    0.0000 C   0  0  0  0  0  0  0  0  0  0  0  0
    7.2041   -8.1987    0.0000 O   0  0  0  0  0  0  0  0  0  0  0  0
    6.1901   -0.6760    0.0000 H   0  0  0  0  0  0  0  0  0  0  0  0
    5.0506   -2.6653    0.0000 H   0  0  0  0  0  0  0  0  0  0  0  0
  1  2  1  0  0  0  0
  1  4  1  0  0  0  0
  2  3  1  0  0  0  0
  2 20  1  0  0  0  0
  3  6  1  0  0  0  0
  3 21  2  0  0  0  0
  4 19  2  0  0  0  0
  4  5  1  0  0  0  0
  5  8  1  0  0  0  0
  5  6  1  0  0  0  0
  6  7  1  0  0  0  0
  6 30  1  1  0  0  0
  7 10  1  0  0  0  0
  8 18  1  0  0  0  0
  8  9  1  0  0  0  0
  8 31  1  1  0  0  0
  9 10  2  0  0  0  0
  9 11  1  0  0  0  0
 10 13  1  0  0  0  0
 11 12  1  0  0  0  0
 12 17  1  0  0  0  0
 12 13  2  0  0  0  0
 13 14  1  0  0  0  0
 14 15  2  0  0  0  0
 15 16  1  0  0  0  0
 16 17  2  0  0  0  0
 18 22  2  0  0  0  0
 18 24  1  0  0  0  0
 22 23  1  0  0  0  0
 23 26  2  0  0  0  0
 24 25  2  0  0  0  0
 25 26  1  0  0  0  0
 25 29  1  0  0  0  0
 26 27  1  0  0  0  0
 27 28  1  0  0  0  0
 28 29  1  0  0  0  0
M  END
> <ID>
11968

> <Formula>
C22H19N3O4

> <FW>
389.404

> <DSSTox_CID>
26786

> <DSSTox_RID>
81904

> <DSSTox_GSID>
46786

> <DSSTox_FileID_Sort>
6585

> <TS_ChemName>
Tadalafil

> <TS_ChemName_Synonyms>


> <TS_CASRN>
171596-29-5

> <CASRN_ChemName_Relationship>
primary

> <TS_Description>
single chemical compound

> <ChemNote>
stereochem

> <STRUCTURE_Shown>
tested chemical

> <STRUCTURE_Formula>
C22H19N3O4

> <STRUCTURE_MW>
389.404

> <STRUCTURE_ChemType>
defined organic

> <STRUCTURE_DefinedOrganicForm>
parent

> <STRUCTURE_IUPAC>
(6R,12aR)-6-(1,3-benzodioxol-5-yl)-2-methyl-2,3,6,7,12,12a-hexahydropyrazino[1',2':1,6]pyrido[3,4-b]indole-1,4-dione

> <STRUCTURE_SMILES>
O=C6N(C)CC(=O)N4[C@@H]6Cc1c5ccccc5nc1[C@H]4c2ccc3OCOc3c2

> <STRUCTURE_SMILES_Desalt>
O=C6N(C)CC(=O)N4[C@@H]6Cc1c5ccccc5nc1[C@H]4c2ccc3OCOc3c2

> <Substance_modify_yyyymmdd>
20110802

$$$$
