1715-30-6
ChemmineR-0915142007XD

 38 35  0  0  0  0  0  0  0  0  1 V2000
   12.5589    0.0000    0.0000 N    0  0  0  0  0  0  0  0  0  0  0  0
    6.8627   -4.6464    0.0000 N    0  0  0  0  0  0  0  0  0  0  0  0
    5.6962   -4.0243    0.0000 C    0  0  0  0  0  0  0  0  0  0  0  0
   13.6864   -0.6804    0.0000 C    0  0  0  0  0  0  0  0  0  0  0  0
    7.9902   -4.0243    0.0000 C    0  0  0  0  0  0  0  0  0  0  0  0
   11.3924   -0.6804    0.0000 C    0  0  0  0  0  0  0  0  0  0  0  0
   14.8529    0.0000    0.0000 N    0  0  0  0  0  0  0  0  0  0  0  0
    4.5297   -4.6464    0.0000 N    0  0  0  0  0  0  0  0  0  0  0  0
    9.1761   -4.6464    0.0000 N    0  0  0  0  0  0  0  0  0  0  0  0
   10.2260    0.0000    0.0000 N    0  0  0  0  0  0  0  0  0  0  0  0
   13.6864   -2.0024    0.0000 N    0  0  0  0  0  0  0  0  0  0  0  0
    5.6962   -2.6634    0.0000 N    0  0  0  0  0  0  0  0  0  0  0  0
   11.3924   -2.0024    0.0000 N    0  0  0  0  0  0  0  0  0  0  0  0
    7.9902   -2.6440    0.0000 N    0  0  0  0  0  0  0  0  0  0  0  0
   14.8529   -2.6634    0.0000 C    0  0  0  0  0  0  0  0  0  0  0  0
    4.5297   -2.0024    0.0000 C    0  0  0  0  0  0  0  0  0  0  0  0
   10.2260   -2.6634    0.0000 C    0  0  0  0  0  0  0  0  0  0  0  0
    6.8043   -2.0024    0.0000 C    0  0  0  0  0  0  0  0  0  0  0  0
   16.0194   -2.0024    0.0000 C    0  0  0  0  0  0  0  0  0  0  0  0
    3.3827   -2.6051    0.0000 C    0  0  0  0  0  0  0  0  0  0  0  0
   16.0194   -0.6804    0.0000 C    0  0  0  0  0  0  0  0  0  0  0  0
    3.3827   -3.9660    0.0000 C    0  0  0  0  0  0  0  0  0  0  0  0
    2.2163   -1.9441    0.0000 C    0  0  0  0  0  0  0  0  0  0  0  0
   17.1275   -2.6634    0.0000 C    0  0  0  0  0  0  0  0  0  0  0  0
    9.0984   -2.0024    0.0000 C    0  0  0  0  0  0  0  0  0  0  0  0
    6.8043   -0.6804    0.0000 C    0  0  0  0  0  0  0  0  0  0  0  0
   18.2940   -0.6804    0.0000 C    0  0  0  0  0  0  0  0  0  0  0  0
    1.0887   -3.9854    0.0000 C    0  0  0  0  0  0  0  0  0  0  0  0
   18.2940   -2.0024    0.0000 C    0  0  0  0  0  0  0  0  0  0  0  0
    1.0887   -2.6051    0.0000 C    0  0  0  0  0  0  0  0  0  0  0  0
    7.9902    0.0000    0.0000 C    0  0  0  0  0  0  0  0  0  0  0  0
    9.0984   -0.6804    0.0000 C    0  0  0  0  0  0  0  0  0  0  0  0
    2.1968   -4.6075    0.0000 C    0  0  0  0  0  0  0  0  0  0  0  0
   17.1275    0.0000    0.0000 C    0  0  0  0  0  0  0  0  0  0  0  0
   19.4410    0.0000    0.0000 C    0  0  0  0  0  0  0  0  0  0  0  0
    0.0000   -4.6075    0.0000 C    0  0  0  0  0  0  0  0  0  0  0  0
    7.5237   -5.8906    0.0000 Cl   0  0  0  0  0  0  0  0  0  0  0  0
    5.0352   -5.9295    0.0000 Cl   0  0  0  0  0  0  0  0  0  0  0  0
  1  4  1  0  0  0  0
  1  6  1  0  0  0  0
  2  5  1  0  0  0  0
  2  3  1  0  0  0  0
  3  8  2  0  0  0  0
  3 12  1  0  0  0  0
  4  7  2  0  0  0  0
  4 11  1  0  0  0  0
  5 14  1  0  0  0  0
  5  9  2  0  0  0  0
  6 10  2  0  0  0  0
  6 13  1  0  0  0  0
 11 15  1  0  0  0  0
 12 16  1  0  0  0  0
 13 17  1  0  0  0  0
 14 18  1  0  0  0  0
 15 19  1  0  0  0  0
 16 20  1  0  0  0  0
 17 25  1  0  0  0  0
 18 26  1  0  0  0  0
 19 21  1  0  0  0  0
 19 24  1  0  0  0  0
 20 22  1  0  0  0  0
 20 23  1  0  0  0  0
 21 34  1  0  0  0  0
 22 33  1  0  0  0  0
 23 30  1  0  0  0  0
 24 29  1  0  0  0  0
 25 32  1  0  0  0  0
 26 31  1  0  0  0  0
 27 29  1  0  0  0  0
 27 35  1  0  0  0  0
 28 30  1  0  0  0  0
 28 36  1  0  0  0  0
 31 32  1  0  0  0  0
M  END
> <ID>
11265

> <Formula>
C26H58Cl2N10

> <FW>
581.7117 (508.7898+36.4609+36.4609)

> <DSSTox_CID>
25881

> <DSSTox_RID>
81197

> <DSSTox_GSID>
45881

> <DSSTox_FileID_Sort>
5878

> <TS_ChemName>
Alexidine dihydrochloride

> <TS_ChemName_Synonyms>


> <TS_CASRN>
1715-30-6

> <CASRN_ChemName_Relationship>
primary

> <TS_Description>
single chemical compound

> <ChemNote>
tautomers; parent [22573-93-9]

> <STRUCTURE_Shown>
tested chemical

> <STRUCTURE_Formula>
C26H58Cl2N10

> <STRUCTURE_MW>
581.7117

> <STRUCTURE_ChemType>
defined organic

> <STRUCTURE_DefinedOrganicForm>
complex

> <STRUCTURE_IUPAC>
N,N''''-hexane-1,6-diylbis[N'-(2-ethylhexyl)(imidodicarbonimidic diamide)] dihydrochloride

> <STRUCTURE_SMILES>
Cl.Cl.CCCCC(CC)CNC(=N)NC(=N)NCCCCCCNC(=N)NC(=N)NCC(CC)CCCC

> <STRUCTURE_SMILES_Desalt>
CCCCC(CC)CNC(=N)NC(=N)NCCCCCCNC(=N)NC(=N)NCC(CC)CCCC

> <Substance_modify_yyyymmdd>
20110922

$$$$
