171599-83-0
ChemmineR-0915142007XD

 46 48  0  0  0  0  0  0  0  0  1 V2000
   11.4461   -1.4259    0.0000 C   0  0  0  0  0  0  0  0  0  0  0  0
   11.0221   -2.6977    0.0000 C   0  0  0  0  0  0  0  0  0  0  0  0
    9.7311   -2.9675    0.0000 C   0  0  0  0  0  0  0  0  0  0  0  0
    9.3457   -4.2393    0.0000 C   0  0  0  0  0  0  0  0  0  0  0  0
   10.0972   -5.3184    0.0000 N   0  0  0  0  0  0  0  0  0  0  0  0
    9.3457   -6.3975    0.0000 N   0  0  0  0  0  0  0  0  0  0  0  0
    9.7311   -7.6500    0.0000 C   0  0  0  0  0  0  0  0  0  0  0  0
    8.0546   -5.9735    0.0000 C   0  0  0  0  0  0  0  0  0  0  0  0
    6.8985   -6.6480    0.0000 C   0  0  0  0  0  0  0  0  0  0  0  0
    6.8985   -7.9776    0.0000 O   0  0  0  0  0  0  0  0  0  0  0  0
    5.7423   -5.9735    0.0000 N   0  0  0  0  0  0  0  0  0  0  0  0
    5.7423   -4.6632    0.0000 C   0  0  0  0  0  0  0  0  0  0  0  0
    6.8985   -3.9888    0.0000 N   0  0  0  0  0  0  0  0  0  0  0  0
    8.0546   -4.6632    0.0000 C   0  0  0  0  0  0  0  0  0  0  0  0
    4.5861   -3.9888    0.0000 C   0  0  0  0  0  0  0  0  0  0  0  0
    3.4685   -4.6632    0.0000 C   0  0  0  0  0  0  0  0  0  0  0  0
    2.3123   -3.9888    0.0000 C   0  0  0  0  0  0  0  0  0  0  0  0
    2.3123   -2.6592    0.0000 C   0  0  0  0  0  0  0  0  0  0  0  0
    3.4685   -1.9848    0.0000 C   0  0  0  0  0  0  0  0  0  0  0  0
    4.5861   -2.6592    0.0000 C   0  0  0  0  0  0  0  0  0  0  0  0
    5.7423   -1.9848    0.0000 O   0  0  0  0  0  0  0  0  0  0  0  0
    5.7423   -0.6744    0.0000 C   0  0  0  0  0  0  0  0  0  0  0  0
    4.5861    0.0000    0.0000 C   0  0  0  0  0  0  0  0  0  0  0  0
    1.1562   -4.6632    0.0000 S   0  0  0  0  0  0  0  0  0  0  0  0
    0.0000   -5.3184    0.0000 O   0  0  0  0  0  0  0  0  0  0  0  0
    0.5010   -3.5070    0.0000 O   0  0  0  0  0  0  0  0  0  0  0  0
    1.8113   -5.8001    0.0000 N   0  0  0  0  0  0  0  0  0  0  0  0
    3.1409   -5.8001    0.0000 C   0  0  0  0  0  0  0  0  0  0  0  0
    3.7961   -6.9370    0.0000 C   0  0  0  0  0  0  0  0  0  0  0  0
    3.1409   -8.0932    0.0000 N   0  0  0  0  0  0  0  0  0  0  0  0
    3.7961   -9.2493    0.0000 C   0  0  0  0  0  0  0  0  0  0  0  0
    1.8113   -8.0932    0.0000 C   0  0  0  0  0  0  0  0  0  0  0  0
    1.1562   -6.9370    0.0000 C   0  0  0  0  0  0  0  0  0  0  0  0
   15.9358   -7.1682    0.0000 C   0  0  0  0  0  0  0  0  0  0  0  0
   17.2654   -7.1682    0.0000 C   0  0  0  0  0  0  0  0  0  0  0  0
   14.5677   -7.1682    0.0000 C   0  0  0  0  0  0  0  0  0  0  0  0
   15.9358   -8.5171    0.0000 C   0  0  0  0  0  0  0  0  0  0  0  0
   14.7797   -9.1723    0.0000 O   0  0  0  0  0  0  0  0  0  0  0  0
   13.9125   -6.0313    0.0000 C   0  0  0  0  0  0  0  0  0  0  0  0
   12.5830   -6.0313    0.0000 O   0  0  0  0  0  0  0  0  0  0  0  0
   14.5677   -4.8559    0.0000 O   0  0  0  0  0  0  0  0  0  0  0  0
   17.9399   -6.0121    0.0000 C   0  0  0  0  0  0  0  0  0  0  0  0
   17.2462   -4.8559    0.0000 O   0  0  0  0  0  0  0  0  0  0  0  0
   19.2694   -6.0121    0.0000 O   0  0  0  0  0  0  0  0  0  0  0  0
   15.9358   -5.8386    0.0000 O   0  0  0  0  0  0  0  0  0  0  0  0
   17.0920   -9.1723    0.0000 O   0  0  0  0  0  0  0  0  0  0  0  0
  1  2  1  0  0  0  0
  2  3  1  0  0  0  0
  3  4  1  0  0  0  0
  4  5  2  0  0  0  0
  4 14  1  0  0  0  0
  5  6  1  0  0  0  0
  6  7  1  0  0  0  0
  6  8  1  0  0  0  0
  8  9  1  0  0  0  0
  8 14  2  0  0  0  0
  9 10  2  0  0  0  0
  9 11  1  0  0  0  0
 11 12  1  0  0  0  0
 12 13  2  0  0  0  0
 12 15  1  0  0  0  0
 13 14  1  0  0  0  0
 15 16  2  0  0  0  0
 15 20  1  0  0  0  0
 16 17  1  0  0  0  0
 17 18  2  0  0  0  0
 17 24  1  0  0  0  0
 18 19  1  0  0  0  0
 19 20  2  0  0  0  0
 20 21  1  0  0  0  0
 21 22  1  0  0  0  0
 22 23  1  0  0  0  0
 24 25  2  0  0  0  0
 24 26  2  0  0  0  0
 24 27  1  0  0  0  0
 27 28  1  0  0  0  0
 27 33  1  0  0  0  0
 28 29  1  0  0  0  0
 29 30  1  0  0  0  0
 30 31  1  0  0  0  0
 30 32  1  0  0  0  0
 32 33  1  0  0  0  0
 34 37  1  0  0  0  0
 34 36  1  0  0  0  0
 34 45  1  0  0  0  0
 34 35  1  0  0  0  0
 35 42  1  0  0  0  0
 36 39  1  0  0  0  0
 37 38  1  0  0  0  0
 37 46  2  0  0  0  0
 39 40  1  0  0  0  0
 39 41  2  0  0  0  0
 42 43  2  0  0  0  0
 42 44  1  0  0  0  0
M  END
> <ID>
11389

> <Formula>
C28H38N6O11S

> <FW>
666.6999 (474.5764+192.1235)

> <DSSTox_CID>
26076

> <DSSTox_RID>
81321

> <DSSTox_GSID>
46076

> <DSSTox_FileID_Sort>
6002

> <TS_ChemName>
Sildenafil citrate

> <TS_ChemName_Synonyms>


> <TS_CASRN>
171599-83-0

> <CASRN_ChemName_Relationship>
primary

> <TS_Description>
single chemical compound

> <ChemNote>
tautomers; parent [139755-83-2]

> <STRUCTURE_Shown>
tested chemical

> <STRUCTURE_Formula>
C28H38N6O11S

> <STRUCTURE_MW>
666.6999

> <STRUCTURE_ChemType>
defined organic

> <STRUCTURE_DefinedOrganicForm>
complex

> <STRUCTURE_IUPAC>
5-{2-ethoxy-5-[(4-methylpiperazin-1-yl)sulfonyl]phenyl}-1-methyl-3-propyl-1,6-dihydro-7H-pyrazolo[4,3-d]pyrimidin-7-one 2-hydroxypropane-1,2,3-tricarboxylate (1:1)

> <STRUCTURE_SMILES>
CN1CCN(CC1)S(=O)(=O)c4cc(C3=Nc2c(CCC)nn(C)c2C(=O)N3)c(OCC)cc4.O=C(O)C(O)(CC(=O)O)CC(=O)O

> <STRUCTURE_SMILES_Desalt>
CN1CCN(CC1)S(=O)(=O)c4cc(C3=Nc2c(CCC)nn(C)c2C(=O)N3)c(OCC)cc4

> <Substance_modify_yyyymmdd>
20110819

$$$$
