1716-12-7
ChemmineR-0915142007XD

 13 12  0  0  0  0  0  0  0  0  2 V2000
    6.9063   -0.6692    0.0000 C    0  0  0  0  0  0  0  0  0  0  0  0
    8.0559    0.0000    0.0000 O    0  0  0  0  0  0  0  0  0  0  0  0
    6.9063   -1.9990    0.0000 O    0  5  0  0  0  0  0  0  0  0  0  0
    5.7567    0.0000    0.0000 C    0  0  0  0  0  0  0  0  0  0  0  0
    4.6071   -0.6692    0.0000 C    0  0  0  0  0  0  0  0  0  0  0  0
    3.4574    0.0000    0.0000 C    0  0  0  0  0  0  0  0  0  0  0  0
    2.2992   -0.6692    0.0000 C    0  0  0  0  0  0  0  0  0  0  0  0
    2.2992   -1.9990    0.0000 C    0  0  0  0  0  0  0  0  0  0  0  0
    1.1496    0.0000    0.0000 C    0  0  0  0  0  0  0  0  0  0  0  0
    1.1496   -2.6596    0.0000 C    0  0  0  0  0  0  0  0  0  0  0  0
    0.0000   -0.6692    0.0000 C    0  0  0  0  0  0  0  0  0  0  0  0
    0.0000   -1.9990    0.0000 C    0  0  0  0  0  0  0  0  0  0  0  0
    8.5793   -1.9303    0.0000 Na   0  3  0  0  0  0  0  0  0  0  0  0
  1  2  2  0  0  0  0
  1  3  1  0  0  0  0
  1  4  1  0  0  0  0
  4  5  1  0  0  0  0
  5  6  1  0  0  0  0
  6  7  1  0  0  0  0
  7  8  2  0  0  0  0
  7  9  1  0  0  0  0
  8 10  1  0  0  0  0
  9 11  2  0  0  0  0
 10 12  2  0  0  0  0
 11 12  1  0  0  0  0
M  END
> <ID>
7995

> <Formula>
C10H11NaO2

> <FW>
186.1829 (163.1937+22.9892)

> <DSSTox_CID>
20948

> <DSSTox_RID>
79606

> <DSSTox_GSID>
40948

> <DSSTox_FileID_Sort>
4288

> <TS_ChemName>
Sodium 4-phenylbutyrate

> <TS_ChemName_Synonyms>


> <TS_CASRN>
1716-12-7

> <CASRN_ChemName_Relationship>
primary

> <TS_Description>
single chemical compound

> <ChemNote>
parent [1821-12-1]

> <STRUCTURE_Shown>
tested chemical

> <STRUCTURE_Formula>
C10H11NaO2

> <STRUCTURE_MW>
186.1829

> <STRUCTURE_ChemType>
defined organic

> <STRUCTURE_DefinedOrganicForm>
salt

> <STRUCTURE_IUPAC>
sodium 4-phenylbutanoate

> <STRUCTURE_SMILES>
[Na+].[O-]C(=O)CCCc1ccccc1

> <STRUCTURE_SMILES_Desalt>
O=C(O)CCCc1ccccc1

> <Substance_modify_yyyymmdd>
20080429

$$$$
