171714-84-4
ChemmineR-0915142007XD

 31 33  0  0  1  0  0  0  0  0  1 V2000
    3.7750    0.0000    0.0000 C   0  0  0  0  0  0  0  0  0  0  0  0
    3.6897   -1.3184    0.0000 O   0  0  0  0  0  0  0  0  0  0  0  0
    4.7994   -2.0677    0.0000 C   0  0  0  0  0  0  0  0  0  0  0  0
    5.9566   -1.3943    0.0000 C   0  0  0  0  0  0  0  0  0  0  0  0
    7.1137   -2.0582    0.0000 C   0  0  0  0  0  0  0  0  0  0  0  0
    7.0948   -3.3861    0.0000 N   0  0  0  0  0  0  0  0  0  0  0  0
    5.9376   -4.0785    0.0000 C   0  0  0  0  0  0  0  0  0  0  0  0
    4.7994   -3.3577    0.0000 N   0  0  0  0  0  0  0  0  0  0  0  0
    5.9661   -5.4064    0.0000 O   0  0  0  0  0  0  0  0  0  0  0  0
    4.9796   -6.3549    0.0000 C   0  0  0  0  0  0  0  0  0  0  0  0
    4.6097   -5.1693    0.0000 H   0  0  0  0  0  0  0  0  0  0  0  0
    5.9566   -7.3034    0.0000 C   0  0  0  0  0  0  0  0  0  0  0  0
    7.2560   -6.8671    0.0000 O   0  0  0  0  0  0  0  0  0  0  0  0
    6.0514   -8.6313    0.0000 O   0  0  0  0  0  0  0  0  0  0  0  0
    3.5948   -6.7438    0.0000 C   0  0  0  0  0  0  0  0  0  0  0  0
    4.1260   -7.9105    0.0000 O   0  0  0  0  0  0  0  0  0  0  0  0
    4.0880   -9.1625    0.0000 C   0  0  0  0  0  0  0  0  0  0  0  0
    2.4092   -7.4647    0.0000 C   0  0  0  0  0  0  0  0  0  0  0  0
    2.2954   -8.7926    0.0000 C   0  0  0  0  0  0  0  0  0  0  0  0
    1.1856   -9.4850    0.0000 C   0  0  0  0  0  0  0  0  0  0  0  0
    0.0000   -8.8874    0.0000 C   0  0  0  0  0  0  0  0  0  0  0  0
    0.0285   -7.5406    0.0000 C   0  0  0  0  0  0  0  0  0  0  0  0
    1.1856   -6.9809    0.0000 C   0  0  0  0  0  0  0  0  0  0  0  0
    2.8265   -5.5677    0.0000 C   0  0  0  0  0  0  0  0  0  0  0  0
    3.2439   -4.3536    0.0000 C   0  0  0  0  0  0  0  0  0  0  0  0
    2.7127   -3.1775    0.0000 C   0  0  0  0  0  0  0  0  0  0  0  0
    1.3658   -3.0637    0.0000 C   0  0  0  0  0  0  0  0  0  0  0  0
    0.7873   -4.2967    0.0000 C   0  0  0  0  0  0  0  0  0  0  0  0
    1.5271   -5.3590    0.0000 C   0  0  0  0  0  0  0  0  0  0  0  0
    8.2519   -1.3943    0.0000 O   0  0  0  0  0  0  0  0  0  0  0  0
    9.4186   -2.0582    0.0000 C   0  0  0  0  0  0  0  0  0  0  0  0
  1  2  1  0  0  0  0
  2  3  1  0  0  0  0
  3  4  2  0  0  0  0
  3  8  1  0  0  0  0
  4  5  1  0  0  0  0
  5  6  2  0  0  0  0
  5 30  1  0  0  0  0
  6  7  1  0  0  0  0
  7  8  2  0  0  0  0
  7  9  1  0  0  0  0
  9 10  1  0  0  0  0
 10 11  1  1  0  0  0
 10 12  1  0  0  0  0
 10 15  1  0  0  0  0
 12 13  1  0  0  0  0
 12 14  2  0  0  0  0
 15 16  1  0  0  0  0
 15 18  1  0  0  0  0
 15 24  1  0  0  0  0
 16 17  1  0  0  0  0
 18 19  2  0  0  0  0
 18 23  1  0  0  0  0
 19 20  1  0  0  0  0
 20 21  2  0  0  0  0
 21 22  1  0  0  0  0
 22 23  2  0  0  0  0
 24 25  2  0  0  0  0
 24 29  1  0  0  0  0
 25 26  1  0  0  0  0
 26 27  2  0  0  0  0
 27 28  1  0  0  0  0
 28 29  2  0  0  0  0
 30 31  1  0  0  0  0
M  END
> <ID>
16067

> <Formula>
C22H22N2O6

> <FW>
410.4199

> <DSSTox_CID>
31453

> <DSSTox_RID>
97339

> <DSSTox_GSID>
57664

> <DSSTox_FileID_Sort>
8406

> <TS_ChemName>
Darusentan

> <TS_ChemName_Synonyms>


> <TS_CASRN>
171714-84-4

> <CASRN_ChemName_Relationship>
primary

> <TS_Description>
single chemical compound

> <ChemNote>


> <STRUCTURE_Shown>
tested chemical

> <STRUCTURE_Formula>
C22H22N2O6

> <STRUCTURE_MW>
410.4199

> <STRUCTURE_ChemType>
defined organic

> <STRUCTURE_DefinedOrganicForm>
parent

> <STRUCTURE_IUPAC>
(2S)-2-[(4,6-dimethoxypyrimidin-2-yl)oxy]-3-methoxy-3,3-diphenylpropanoic acid

> <STRUCTURE_SMILES>
O=C(O)[C@@H](Oc1nc(cc(OC)n1)OC)C(OC)(c2ccccc2)c3ccccc3

> <STRUCTURE_SMILES_Desalt>
O=C(O)[C@@H](Oc1nc(cc(OC)n1)OC)C(OC)(c2ccccc2)c3ccccc3

> <Substance_modify_yyyymmdd>
20131018

$$$$
