171869-95-7
ChemmineR-0915142007XD

 28 29  0  0  0  0  0  0  0  0  2 V2000
    6.9249   -5.9973    0.0000 N    0  3  0  0  0  0  0  0  0  0  0  0
    6.9249   -4.6759    0.0000 C    0  0  0  0  0  0  0  0  0  0  0  0
    4.6505   -5.9973    0.0000 C    0  0  0  0  0  0  0  0  0  0  0  0
    8.0811   -4.0152    0.0000 C    0  0  0  0  0  0  0  0  0  0  0  0
    5.7813   -6.6580    0.0000 C    0  0  0  0  0  0  0  0  0  0  0  0
    5.7813   -4.0152    0.0000 C    0  0  0  0  0  0  0  0  0  0  0  0
    9.2374   -4.6759    0.0000 C    0  0  0  0  0  0  0  0  0  0  0  0
    3.4942   -6.6580    0.0000 C    0  0  0  0  0  0  0  0  0  0  0  0
    4.6505   -4.6759    0.0000 C    0  0  0  0  0  0  0  0  0  0  0  0
    8.0811   -2.6683    0.0000 C    0  0  0  0  0  0  0  0  0  0  0  0
    9.2374   -2.0076    0.0000 C    0  0  0  0  0  0  0  0  0  0  0  0
   10.3810   -4.0152    0.0000 C    0  0  0  0  0  0  0  0  0  0  0  0
   10.3810   -2.6683    0.0000 C    0  0  0  0  0  0  0  0  0  0  0  0
    8.0811   -6.6580    0.0000 C    0  0  0  0  0  0  0  0  0  0  0  0
    2.3634   -5.9973    0.0000 C    0  0  0  0  0  0  0  0  0  0  0  0
    9.2374   -5.9973    0.0000 C    0  0  0  0  0  0  0  0  0  0  0  0
    3.4942   -4.0152    0.0000 C    0  0  0  0  0  0  0  0  0  0  0  0
    2.3634   -4.6759    0.0000 C    0  0  0  0  0  0  0  0  0  0  0  0
    3.4942   -7.9922    0.0000 O    0  0  0  0  0  0  0  0  0  0  0  0
    9.2374   -0.6734    0.0000 O    0  0  0  0  0  0  0  0  0  0  0  0
   11.5626   -1.9695    0.0000 O    0  0  0  0  0  0  0  0  0  0  0  0
    1.1563   -6.6962    0.0000 O    0  0  0  0  0  0  0  0  0  0  0  0
    4.6505   -8.6656    0.0000 C    0  0  0  0  0  0  0  0  0  0  0  0
   10.3428    0.0000    0.0000 C    0  0  0  0  0  0  0  0  0  0  0  0
   12.7062   -2.6683    0.0000 C    0  0  0  0  0  0  0  0  0  0  0  0
    0.0000   -6.0227    0.0000 C    0  0  0  0  0  0  0  0  0  0  0  0
    5.9719   -1.6391    0.0000 Cl   0  5  0  0  0  0  0  0  0  0  0  0
   12.3377   -5.5526    0.0000 O    0  0  0  0  0  0  0  0  0  0  0  0
  1  2  2  0  0  0  0
  1  5  1  0  0  0  0
  1 14  1  0  0  0  0
  2  4  1  0  0  0  0
  2  6  1  0  0  0  0
  3  5  2  0  0  0  0
  3  8  1  0  0  0  0
  3  9  1  0  0  0  0
  4 10  1  0  0  0  0
  4  7  2  0  0  0  0
  6  9  2  0  0  0  0
  7 16  1  0  0  0  0
  7 12  1  0  0  0  0
  8 15  2  0  0  0  0
  8 19  1  0  0  0  0
  9 17  1  0  0  0  0
 10 11  2  0  0  0  0
 11 20  1  0  0  0  0
 11 13  1  0  0  0  0
 12 13  2  0  0  0  0
 13 21  1  0  0  0  0
 14 16  1  0  0  0  0
 15 22  1  0  0  0  0
 15 18  1  0  0  0  0
 17 18  2  0  0  0  0
 19 23  1  0  0  0  0
 20 24  1  0  0  0  0
 21 25  1  0  0  0  0
 22 26  1  0  0  0  0
M  END
> <ID>
12944

> <Formula>
C21H24ClNO5

> <FW>
405.8720 (352.4031+35.4535+18.0153)

> <DSSTox_CID>
27845

> <DSSTox_RID>
82598

> <DSSTox_GSID>
47869

> <DSSTox_FileID_Sort>
7275

> <TS_ChemName>
Palmatine chloride hydrate

> <TS_ChemName_Synonyms>


> <TS_CASRN>
171869-95-7

> <CASRN_ChemName_Relationship>
primary

> <TS_Description>
single chemical compound

> <ChemNote>
ammonium; parent [3486-67-7]

> <STRUCTURE_Shown>
tested chemical

> <STRUCTURE_Formula>
C21H24ClNO5

> <STRUCTURE_MW>
405.872

> <STRUCTURE_ChemType>
defined organic

> <STRUCTURE_DefinedOrganicForm>
salt complex

> <STRUCTURE_IUPAC>
2,3,9,10-tetramethoxy-5,6-dihydroisoquinolino[3,2-a]isoquinolinium chloride hydrate (1:1:1)

> <STRUCTURE_SMILES>
[Cl-].O.COc1cc2c3cc4ccc(OC)c(OC)c4c[n+]3CCc2cc1OC

> <STRUCTURE_SMILES_Desalt>
COc1cc2c3cc4ccc(OC)c(OC)c4c[n+]3CCc2cc1OC

> <Substance_modify_yyyymmdd>
20110414

$$$$
