171866-31-2
ChemmineR-0915142007XD

 26 29  0  0  1  0  0  0  0  0  1 V2000
    4.6095   -3.1489    0.0000 C   0  0  0  0  0  0  0  0  0  0  0  0
    5.7619   -2.4655    0.0000 N   0  0  0  0  0  0  0  0  0  0  0  0
    4.6095   -4.4755    0.0000 C   0  0  0  0  0  0  0  0  0  0  0  0
    3.4571   -2.4655    0.0000 C   0  0  0  0  0  0  0  0  0  0  0  0
    5.7619   -1.1390    0.0000 C   0  0  0  0  0  0  0  0  0  0  0  0
    6.9142   -3.1489    0.0000 C   0  0  0  0  0  0  0  0  0  0  0  0
    3.4571   -5.1321    0.0000 C   0  0  0  0  0  0  0  0  0  0  0  0
    5.7619   -5.1321    0.0000 O   0  0  0  0  0  0  0  0  0  0  0  0
    2.2913   -3.1489    0.0000 O   0  0  0  0  0  0  0  0  0  0  0  0
    6.9142   -0.4824    0.0000 C   0  0  0  0  0  0  0  0  0  0  0  0
    8.0666   -2.4655    0.0000 C   0  0  0  0  0  0  0  0  0  0  0  0
    2.2913   -4.4755    0.0000 C   0  0  0  0  0  0  0  0  0  0  0  0
    3.4571   -6.4720    0.0000 C   0  0  0  0  0  0  0  0  0  0  0  0
    8.0666   -1.1390    0.0000 C   0  0  0  0  0  0  0  0  0  0  0  0
    1.1524   -5.1321    0.0000 C   0  0  0  0  0  0  0  0  0  0  0  0
    2.2913   -7.1286    0.0000 C   0  0  0  0  0  0  0  0  0  0  0  0
    9.3932   -1.1390    0.0000 C   0  0  0  0  0  0  0  0  0  0  0  0
    8.7366    0.0000    0.0000 O   0  0  0  0  0  0  0  0  0  0  0  0
    1.1524   -6.4720    0.0000 C   0  0  0  0  0  0  0  0  0  0  0  0
   10.0765    0.0000    0.0000 C   0  0  0  0  0  0  0  0  0  0  0  0
   10.0765   -2.2913    0.0000 C   0  0  0  0  0  0  0  0  0  0  0  0
    0.0000   -7.1286    0.0000 O   0  0  0  0  0  0  0  0  0  0  0  0
   11.3897    0.0000    0.0000 C   0  0  0  0  0  0  0  0  0  0  0  0
   11.3897   -2.2913    0.0000 C   0  0  0  0  0  0  0  0  0  0  0  0
   12.0597   -1.1390    0.0000 C   0  0  0  0  0  0  0  0  0  0  0  0
   13.3997   -1.1390    0.0000 F   0  0  0  0  0  0  0  0  0  0  0  0
  1  2  1  1  0  0  0
  1  3  1  0  0  0  0
  1  4  1  0  0  0  0
  2  5  1  0  0  0  0
  2  6  1  0  0  0  0
  3  7  1  0  0  0  0
  3  8  1  1  0  0  0
  4  9  1  0  0  0  0
  5 10  1  0  0  0  0
  6 11  1  0  0  0  0
  7 12  1  0  0  0  0
  7 13  2  0  0  0  0
  9 12  1  0  0  0  0
 10 14  1  0  0  0  0
 11 14  1  0  0  0  0
 12 15  2  0  0  0  0
 13 16  1  0  0  0  0
 14 17  1  0  0  0  0
 14 18  1  0  0  0  0
 15 19  1  0  0  0  0
 16 19  2  0  0  0  0
 17 20  1  0  0  0  0
 17 21  2  0  0  0  0
 19 22  1  0  0  0  0
 20 23  2  0  0  0  0
 21 24  1  0  0  0  0
 23 25  1  0  0  0  0
 24 25  2  0  0  0  0
 25 26  1  0  0  0  0
M  END
> <ID>
12406

> <Formula>
C20H22FNO4

> <FW>
359.3914

> <DSSTox_CID>
27264

> <DSSTox_RID>
82221

> <DSSTox_GSID>
47264

> <DSSTox_FileID_Sort>
6902

> <TS_ChemName>
CP-283097

> <TS_ChemName_Synonyms>


> <TS_CASRN>
171866-31-2

> <CASRN_ChemName_Relationship>
primary

> <TS_Description>
single chemical compound

> <ChemNote>
stereochem

> <STRUCTURE_Shown>
tested chemical

> <STRUCTURE_Formula>
C20H22FNO4

> <STRUCTURE_MW>
359.3914

> <STRUCTURE_ChemType>
defined organic

> <STRUCTURE_DefinedOrganicForm>
parent

> <STRUCTURE_IUPAC>
(3R,4S)-3-[4-(4-fluorophenyl)-4-hydroxypiperidin-1-yl]-3,4-dihydro-2H-chromene-4,7-diol

> <STRUCTURE_SMILES>
Fc1ccc(cc1)C2(O)CCN(CC2)[C@@H]4COc3cc(O)ccc3[C@@H]4O

> <STRUCTURE_SMILES_Desalt>
Fc1ccc(cc1)C2(O)CCN(CC2)[C@@H]4COc3cc(O)ccc3[C@@H]4O

> <Substance_modify_yyyymmdd>
20130910

$$$$
