17230-88-5
ChemmineR-0915142007XD

 28 32  0  0  1  0  0  0  0  0  1 V2000
    4.3443   -5.0440    0.0000 C   0  0  0  0  0  0  0  0  0  0  0  0
    7.8219   -3.0703    0.0000 C   0  0  0  0  0  0  0  0  0  0  0  0
    4.3443   -6.3912    0.0000 C   0  0  0  0  0  0  0  0  0  0  0  0
    5.5140   -4.3861    0.0000 C   0  0  0  0  0  0  0  0  0  0  0  0
    2.0260   -5.0754    0.0000 C   0  0  0  0  0  0  0  0  0  0  0  0
    7.8219   -4.3965    0.0000 C   0  0  0  0  0  0  0  0  0  0  0  0
    2.0260   -6.3912    0.0000 C   0  0  0  0  0  0  0  0  0  0  0  0
    6.6627   -5.0754    0.0000 C   0  0  0  0  0  0  0  0  0  0  0  0
    3.1851   -7.0491    0.0000 C   0  0  0  0  0  0  0  0  0  0  0  0
    3.1851   -4.3861    0.0000 C   0  0  0  0  0  0  0  0  0  0  0  0
    9.1168   -2.6734    0.0000 C   0  0  0  0  0  0  0  0  0  0  0  0
    0.0000   -5.7646    0.0000 N   0  0  0  0  0  0  0  0  0  0  0  0
    9.1168   -1.3158    0.0000 C   0  0  0  0  0  0  0  0  0  0  0  0
    6.6627   -2.4019    0.0000 C   0  0  0  0  0  0  0  0  0  0  0  0
    0.7623   -6.7880    0.0000 O   0  0  0  0  0  0  0  0  0  0  0  0
    5.5140   -3.0703    0.0000 C   0  0  0  0  0  0  0  0  0  0  0  0
    6.6627   -6.3912    0.0000 C   0  0  0  0  0  0  0  0  0  0  0  0
    9.1168   -4.8038    0.0000 C   0  0  0  0  0  0  0  0  0  0  0  0
    9.1168    0.0000    0.0000 C   0  0  0  0  0  0  0  0  0  0  0  0
    5.5140   -7.0491    0.0000 C   0  0  0  0  0  0  0  0  0  0  0  0
    0.7623   -4.6681    0.0000 C   0  0  0  0  0  0  0  0  0  0  0  0
    9.8583   -3.7073    0.0000 C   0  0  0  0  0  0  0  0  0  0  0  0
   10.4431   -2.6734    0.0000 O   0  0  0  0  0  0  0  0  0  0  0  0
    4.3443   -3.7177    0.0000 C   0  0  0  0  0  0  0  0  0  0  0  0
    7.8219   -1.7231    0.0000 C   0  0  0  0  0  0  0  0  0  0  0  0
    6.6627   -3.7386    0.0000 H   0  0  0  0  0  0  0  0  0  0  0  0
    7.8323   -5.7333    0.0000 H   0  0  0  0  0  0  0  0  0  0  0  0
    5.5140   -5.7019    0.0000 H   0  0  0  0  0  0  0  0  0  0  0  0
  1  3  1  0  0  0  0
  1  4  1  0  0  0  0
  1 10  1  0  0  0  0
  1 24  1  1  0  0  0
  2 14  1  0  0  0  0
  2 11  1  0  0  0  0
  2 25  1  1  0  0  0
  2  6  1  0  0  0  0
  3  9  2  0  0  0  0
  3 20  1  0  0  0  0
  4  8  1  0  0  0  0
  4 16  1  0  0  0  0
  4 28  1  6  0  0  0
  5 10  1  0  0  0  0
  5  7  2  0  0  0  0
  5 21  1  0  0  0  0
  6  8  1  0  0  0  0
  6 18  1  0  0  0  0
  6 27  1  6  0  0  0
  7 15  1  0  0  0  0
  7  9  1  0  0  0  0
  8 17  1  0  0  0  0
  8 26  1  1  0  0  0
 11 13  1  6  0  0  0
 11 23  1  0  0  0  0
 11 22  1  0  0  0  0
 12 21  2  0  0  0  0
 12 15  1  0  0  0  0
 13 19  3  0  0  0  0
 14 16  1  0  0  0  0
 17 20  1  0  0  0  0
 18 22  1  0  0  0  0
M  END
> <ID>
2600

> <Formula>
C22H27NO2

> <FW>
337.4553

> <DSSTox_CID>
2880

> <DSSTox_RID>
76772

> <DSSTox_GSID>
22880

> <DSSTox_FileID_Sort>
1456

> <TS_ChemName>
Danazol

> <TS_ChemName_Synonyms>


> <TS_CASRN>
17230-88-5

> <CASRN_ChemName_Relationship>
primary

> <TS_Description>
single chemical compound

> <ChemNote>
stereochem

> <STRUCTURE_Shown>
tested chemical

> <STRUCTURE_Formula>
C22H27NO2

> <STRUCTURE_MW>
337.4553

> <STRUCTURE_ChemType>
defined organic

> <STRUCTURE_DefinedOrganicForm>
parent

> <STRUCTURE_IUPAC>
(1R,3aS,3bR,10aR,10bS,12aS)-1-ethynyl-10a,12a-dimethyl-2,3,3a,3b,4,5,10,10a,10b,11,12,12a-dodecahydro-1H-cyclopenta[7,8]phenanthro[3,2-d][1,2]oxazol-1-ol

> <STRUCTURE_SMILES>
C#C[C@]3(O)CC[C@H]2[C@@H]4CCC1=Cc5oncc5C[C@]1(C)[C@H]4CC[C@@]23C

> <STRUCTURE_SMILES_Desalt>
C#C[C@]3(O)CC[C@H]2[C@@H]4CCC1=Cc5oncc5C[C@]1(C)[C@H]4CC[C@@]23C

> <Substance_modify_yyyymmdd>
20080429

$$$$
