17252-51-6
ChemmineR-0915142007XD

 15 16  0  0  0  0  0  0  0  0  1 V2000
    9.2079   -0.6630    0.0000 N   0  0  0  0  0  0  0  0  0  0  0  0
    9.2079   -1.9889    0.0000 C   0  0  0  0  0  0  0  0  0  0  0  0
    8.0569    0.0000    0.0000 C   0  0  0  0  0  0  0  0  0  0  0  0
    6.9059   -0.6630    0.0000 C   0  0  0  0  0  0  0  0  0  0  0  0
    8.0569   -2.6611    0.0000 C   0  0  0  0  0  0  0  0  0  0  0  0
    6.9059   -1.9889    0.0000 C   0  0  0  0  0  0  0  0  0  0  0  0
    0.0000   -0.6630    0.0000 N   0  0  0  0  0  0  0  0  0  0  0  0
    1.1510    0.0000    0.0000 C   0  0  0  0  0  0  0  0  0  0  0  0
    0.0000   -1.9889    0.0000 C   0  0  0  0  0  0  0  0  0  0  0  0
    1.1510   -2.6611    0.0000 C   0  0  0  0  0  0  0  0  0  0  0  0
    2.3020   -0.6630    0.0000 C   0  0  0  0  0  0  0  0  0  0  0  0
    2.3020   -1.9889    0.0000 C   0  0  0  0  0  0  0  0  0  0  0  0
    3.4622   -2.6611    0.0000 C   0  0  0  0  0  0  0  0  0  0  0  0
    4.5947   -1.9889    0.0000 C   0  0  0  0  0  0  0  0  0  0  0  0
    5.7457   -2.6611    0.0000 C   0  0  0  0  0  0  0  0  0  0  0  0
  1  2  2  0  0  0  0
  1  3  1  0  0  0  0
  2  5  1  0  0  0  0
  3  4  2  0  0  0  0
  4  6  1  0  0  0  0
  5  6  2  0  0  0  0
  6 15  1  0  0  0  0
  7  8  2  0  0  0  0
  7  9  1  0  0  0  0
  8 11  1  0  0  0  0
  9 10  2  0  0  0  0
 10 12  1  0  0  0  0
 11 12  2  0  0  0  0
 12 13  1  0  0  0  0
 13 14  1  0  0  0  0
 14 15  1  0  0  0  0
M  END
> <ID>
10499

> <Formula>
C13H14N2

> <FW>
198.2637

> <DSSTox_CID>
24852

> <DSSTox_RID>
80531

> <DSSTox_GSID>
44852

> <DSSTox_FileID_Sort>
5213

> <TS_ChemName>
4,4'-Propane-1,3-diyldipyridine

> <TS_ChemName_Synonyms>
4,4'-Propane-1,3-diyldipyridine (Pyridine, 4,4'-(1,3-propanediyl)bis-)

> <TS_CASRN>
17252-51-6

> <CASRN_ChemName_Relationship>
primary

> <TS_Description>
single chemical compound

> <ChemNote>


> <STRUCTURE_Shown>
tested chemical

> <STRUCTURE_Formula>
C13H14N2

> <STRUCTURE_MW>
198.2637

> <STRUCTURE_ChemType>
defined organic

> <STRUCTURE_DefinedOrganicForm>
parent

> <STRUCTURE_IUPAC>
4,4'-propane-1,3-diyldipyridine

> <STRUCTURE_SMILES>
C(CCc1ccncc1)c2ccncc2

> <STRUCTURE_SMILES_Desalt>
C(CCc1ccncc1)c2ccncc2

> <Substance_modify_yyyymmdd>
20091116

$$$$
