17279-39-9
ChemmineR-0915142007XD

 12 12  0  0  1  0  0  0  0  0  1 V2000
    2.3033   -1.9782    0.0000 C   0  0  0  0  0  0  0  0  0  0  0  0
    3.4584   -1.3211    0.0000 C   0  0  0  0  0  0  0  0  0  0  0  0
    4.6135   -1.9782    0.0000 C   0  0  0  0  0  0  0  0  0  0  0  0
    4.6135   -3.3131    0.0000 C   0  0  0  0  0  0  0  0  0  0  0  0
    1.1551   -1.3211    0.0000 C   0  0  0  0  0  0  0  0  0  0  0  0
    0.0000   -1.9782    0.0000 C   0  0  0  0  0  0  0  0  0  0  0  0
    0.0000   -3.3131    0.0000 C   0  0  0  0  0  0  0  0  0  0  0  0
    1.1551   -3.9910    0.0000 C   0  0  0  0  0  0  0  0  0  0  0  0
    2.3033   -3.3131    0.0000 C   0  0  0  0  0  0  0  0  0  0  0  0
    5.7755   -1.3211    0.0000 N   0  0  0  0  0  0  0  0  0  0  0  0
    5.7755    0.0000    0.0000 C   0  0  0  0  0  0  0  0  0  0  0  0
    6.9167   -1.9782    0.0000 C   0  0  0  0  0  0  0  0  0  0  0  0
  1  2  1  0  0  0  0
  1  9  1  0  0  0  0
  1  5  2  0  0  0  0
  2  3  1  0  0  0  0
  3  4  1  1  0  0  0
  3 10  1  0  0  0  0
  5  6  1  0  0  0  0
  6  7  2  0  0  0  0
  7  8  1  0  0  0  0
  8  9  2  0  0  0  0
 10 11  1  0  0  0  0
 10 12  1  0  0  0  0
M  END
> <ID>
11446

> <Formula>
C11H17N

> <FW>
163.2594

> <DSSTox_CID>
26146

> <DSSTox_RID>
81378

> <DSSTox_GSID>
46146

> <DSSTox_FileID_Sort>
6059

> <TS_ChemName>
Dimetamfetamine

> <TS_ChemName_Synonyms>


> <TS_CASRN>
17279-39-9

> <CASRN_ChemName_Relationship>
primary

> <TS_Description>
single chemical compound

> <ChemNote>
stereochem

> <STRUCTURE_Shown>
tested chemical

> <STRUCTURE_Formula>
C11H17N

> <STRUCTURE_MW>
163.2594

> <STRUCTURE_ChemType>
defined organic

> <STRUCTURE_DefinedOrganicForm>
parent

> <STRUCTURE_IUPAC>
(2S)-N,N-dimethyl-1-phenylpropan-2-amine

> <STRUCTURE_SMILES>
CN(C)[C@@H](C)Cc1ccccc1

> <STRUCTURE_SMILES_Desalt>
CN(C)[C@@H](C)Cc1ccccc1

> <Substance_modify_yyyymmdd>
20110818

$$$$
