1728-46-7
ChemmineR-0915142007XD

 11 11  0  0  0  0  0  0  0  0  1 V2000
    2.0128   -1.1625    0.0000 C   0  0  0  0  0  0  0  0  0  0  0  0
    2.7232   -2.2927    0.0000 C   0  0  0  0  0  0  0  0  0  0  0  0
    2.0128   -3.4497    0.0000 C   0  0  0  0  0  0  0  0  0  0  0  0
    0.7265   -3.4497    0.0000 C   0  0  0  0  0  0  0  0  0  0  0  0
    0.0000   -2.2927    0.0000 C   0  0  0  0  0  0  0  0  0  0  0  0
    0.7265   -1.1625    0.0000 C   0  0  0  0  0  0  0  0  0  0  0  0
    2.6748    0.0000    0.0000 O   0  0  0  0  0  0  0  0  0  0  0  0
    4.0579   -2.2927    0.0000 C   0  0  0  0  0  0  0  0  0  0  0  0
    4.0579   -3.6435    0.0000 C   0  0  0  0  0  0  0  0  0  0  0  0
    5.3818   -2.2927    0.0000 C   0  0  0  0  0  0  0  0  0  0  0  0
    4.0579   -0.9849    0.0000 C   0  0  0  0  0  0  0  0  0  0  0  0
  1  2  1  0  0  0  0
  1  6  1  0  0  0  0
  1  7  2  0  0  0  0
  2  3  1  0  0  0  0
  2  8  1  0  0  0  0
  3  4  1  0  0  0  0
  4  5  1  0  0  0  0
  5  6  1  0  0  0  0
  8  9  1  0  0  0  0
  8 10  1  0  0  0  0
  8 11  1  0  0  0  0
M  END
> <ID>
12232

> <Formula>
C10H18O

> <FW>
154.2493

> <DSSTox_CID>
27081

> <DSSTox_RID>
82093

> <DSSTox_GSID>
47081

> <DSSTox_FileID_Sort>
6774

> <TS_ChemName>
2-tert-Butylcyclohexanone

> <TS_ChemName_Synonyms>


> <TS_CASRN>
1728-46-7

> <CASRN_ChemName_Relationship>
primary

> <TS_Description>
single chemical compound

> <ChemNote>


> <STRUCTURE_Shown>
tested chemical

> <STRUCTURE_Formula>
C10H18O

> <STRUCTURE_MW>
154.2493

> <STRUCTURE_ChemType>
defined organic

> <STRUCTURE_DefinedOrganicForm>
parent

> <STRUCTURE_IUPAC>
2-tert-butylcyclohexanone

> <STRUCTURE_SMILES>
O=C1CCCCC1C(C)(C)C

> <STRUCTURE_SMILES_Desalt>
O=C1CCCCC1C(C)(C)C

> <Substance_modify_yyyymmdd>
20100429

$$$$
