17283-81-7
ChemmineR-0915142007XD

 14 14  0  0  0  0  0  0  0  0  1 V2000
    0.0000   -1.9968    0.0000 C   0  0  0  0  0  0  0  0  0  0  0  0
    0.0000   -3.3303    0.0000 C   0  0  0  0  0  0  0  0  0  0  0  0
    1.1539   -3.9867    0.0000 C   0  0  0  0  0  0  0  0  0  0  0  0
    2.3008   -3.3303    0.0000 C   0  0  0  0  0  0  0  0  0  0  0  0
    2.3008   -1.9968    0.0000 C   0  0  0  0  0  0  0  0  0  0  0  0
    1.1539   -1.3197    0.0000 C   0  0  0  0  0  0  0  0  0  0  0  0
    3.4547   -3.9867    0.0000 C   0  0  0  0  0  0  0  0  0  0  0  0
    3.4547   -1.3197    0.0000 C   0  0  0  0  0  0  0  0  0  0  0  0
    4.6086   -1.9968    0.0000 C   0  0  0  0  0  0  0  0  0  0  0  0
    5.7555   -1.3197    0.0000 C   0  0  0  0  0  0  0  0  0  0  0  0
    6.9094   -1.9968    0.0000 C   0  0  0  0  0  0  0  0  0  0  0  0
    5.7555    0.0000    0.0000 O   0  0  0  0  0  0  0  0  0  0  0  0
    1.8172   -0.1796    0.0000 C   0  0  0  0  0  0  0  0  0  0  0  0
    0.4837   -0.1796    0.0000 C   0  0  0  0  0  0  0  0  0  0  0  0
  1  2  1  0  0  0  0
  1  6  1  0  0  0  0
  2  3  1  0  0  0  0
  3  4  1  0  0  0  0
  4  5  2  0  0  0  0
  4  7  1  0  0  0  0
  5  6  1  0  0  0  0
  5  8  1  0  0  0  0
  6 13  1  0  0  0  0
  6 14  1  0  0  0  0
  8  9  1  0  0  0  0
  9 10  1  0  0  0  0
 10 11  1  0  0  0  0
 10 12  2  0  0  0  0
M  END
> <ID>
12346

> <Formula>
C13H22O

> <FW>
194.3132

> <DSSTox_CID>
27200

> <DSSTox_RID>
82195

> <DSSTox_GSID>
47200

> <DSSTox_FileID_Sort>
6876

> <TS_ChemName>
Dihydro-beta-ionone

> <TS_ChemName_Synonyms>


> <TS_CASRN>
17283-81-7

> <CASRN_ChemName_Relationship>
primary

> <TS_Description>
single chemical compound

> <ChemNote>


> <STRUCTURE_Shown>
tested chemical

> <STRUCTURE_Formula>
C13H22O

> <STRUCTURE_MW>
194.3132

> <STRUCTURE_ChemType>
defined organic

> <STRUCTURE_DefinedOrganicForm>
parent

> <STRUCTURE_IUPAC>
4-(2,6,6-trimethylcyclohex-1-en-1-yl)butan-2-one

> <STRUCTURE_SMILES>
CC=1CCCC(C)(C)C=1CCC(C)=O

> <STRUCTURE_SMILES_Desalt>
CC=1CCCC(C)(C)C=1CCC(C)=O

> <Substance_modify_yyyymmdd>
20100503

$$$$
