1729-67-5
ChemmineR-0915142007XD

  8  7  0  0  0  0  0  0  0  0  1 V2000
    3.4654   -1.3435    0.0000 C    0  0  0  0  0  0  0  0  0  0  0  0
    3.4654    0.0000    0.0000 O    0  0  0  0  0  0  0  0  0  0  0  0
    4.6014   -1.9951    0.0000 O    0  0  0  0  0  0  0  0  0  0  0  0
    2.2834   -1.9951    0.0000 C    0  0  0  0  0  0  0  0  0  0  0  0
    1.1475   -1.3435    0.0000 C    0  0  0  0  0  0  0  0  0  0  0  0
    2.2834   -3.3386    0.0000 Br   0  0  0  0  0  0  0  0  0  0  0  0
    0.0000   -1.9951    0.0000 Br   0  0  0  0  0  0  0  0  0  0  0  0
    5.7661   -1.3435    0.0000 C    0  0  0  0  0  0  0  0  0  0  0  0
  1  2  2  0  0  0  0
  1  3  1  0  0  0  0
  1  4  1  0  0  0  0
  3  8  1  0  0  0  0
  4  5  1  0  0  0  0
  4  6  1  0  0  0  0
  5  7  1  0  0  0  0
M  END
> <ID>
9076

> <Formula>
C4H6Br2O2

> <FW>
245.8972

> <DSSTox_CID>
22145

> <DSSTox_RID>
79936

> <DSSTox_GSID>
42145

> <DSSTox_FileID_Sort>
4618

> <TS_ChemName>
Methyl 2,3-dibromopropionate

> <TS_ChemName_Synonyms>


> <TS_CASRN>
1729-67-5

> <CASRN_ChemName_Relationship>
primary

> <TS_Description>
single chemical compound

> <ChemNote>


> <STRUCTURE_Shown>
tested chemical

> <STRUCTURE_Formula>
C4H6Br2O2

> <STRUCTURE_MW>
245.8972

> <STRUCTURE_ChemType>
defined organic

> <STRUCTURE_DefinedOrganicForm>
parent

> <STRUCTURE_IUPAC>
methyl 2,3-dibromopropanoate

> <STRUCTURE_SMILES>
BrC(CBr)C(=O)OC

> <STRUCTURE_SMILES_Desalt>
BrC(CBr)C(=O)OC

> <Substance_modify_yyyymmdd>
20080825

$$$$
