17321-77-6
ChemmineR-0915142007XD

 23 24  0  0  0  0  0  0  0  0  1 V2000
    2.2462   -1.0279    0.0000 C    0  0  0  0  0  0  0  0  0  0  0  0
    2.5508   -2.3319    0.0000 C    0  0  0  0  0  0  0  0  0  0  0  0
    0.9708   -0.6377    0.0000 C    0  0  0  0  0  0  0  0  0  0  0  0
    1.5800   -3.2266    0.0000 C    0  0  0  0  0  0  0  0  0  0  0  0
    0.0000   -1.5514    0.0000 C    0  0  0  0  0  0  0  0  0  0  0  0
    0.3046   -2.8363    0.0000 C    0  0  0  0  0  0  0  0  0  0  0  0
    5.2253   -1.0279    0.0000 C    0  0  0  0  0  0  0  0  0  0  0  0
    3.7501   -2.9030    0.0000 N    0  0  0  0  0  0  0  0  0  0  0  0
    4.9398   -2.3319    0.0000 C    0  0  0  0  0  0  0  0  0  0  0  0
    6.4912   -0.6377    0.0000 C    0  0  0  0  0  0  0  0  0  0  0  0
    7.4811   -1.5514    0.0000 C    0  0  0  0  0  0  0  0  0  0  0  0
    5.9106   -3.2266    0.0000 C    0  0  0  0  0  0  0  0  0  0  0  0
    7.1860   -2.8363    0.0000 C    0  0  0  0  0  0  0  0  0  0  0  0
    3.7501   -4.2450    0.0000 C    0  0  0  0  0  0  0  0  0  0  0  0
    4.8827   -4.9017    0.0000 C    0  0  0  0  0  0  0  0  0  0  0  0
    8.1664   -3.7310    0.0000 Cl   0  0  0  0  0  0  0  0  0  0  0  0
    4.8827   -6.2533    0.0000 C    0  0  0  0  0  0  0  0  0  0  0  0
    7.2050   -6.2533    0.0000 C    0  0  0  0  0  0  0  0  0  0  0  0
    6.0629   -6.9195    0.0000 N    0  0  0  0  0  0  0  0  0  0  0  0
    6.0629   -8.2615    0.0000 C    0  0  0  0  0  0  0  0  0  0  0  0
    3.0743    0.0000    0.0000 C    0  0  0  0  0  0  0  0  0  0  0  0
    4.3973    0.0000    0.0000 C    0  0  0  0  0  0  0  0  0  0  0  0
    9.5179   -1.7132    0.0000 Cl   0  0  0  0  0  0  0  0  0  0  0  0
  1  3  1  0  0  0  0
  1  2  2  0  0  0  0
  1 21  1  0  0  0  0
  2  4  1  0  0  0  0
  2  8  1  0  0  0  0
  3  5  2  0  0  0  0
  4  6  2  0  0  0  0
  5  6  1  0  0  0  0
  7 10  1  0  0  0  0
  7  9  2  0  0  0  0
  7 22  1  0  0  0  0
  8  9  1  0  0  0  0
  8 14  1  0  0  0  0
  9 12  1  0  0  0  0
 10 11  2  0  0  0  0
 11 13  1  0  0  0  0
 12 13  2  0  0  0  0
 13 16  1  0  0  0  0
 14 15  1  0  0  0  0
 15 17  1  0  0  0  0
 17 19  1  0  0  0  0
 18 19  1  0  0  0  0
 19 20  1  0  0  0  0
 21 22  1  0  0  0  0
M  END
> <ID>
9501

> <Formula>
C19H24Cl2N2

> <FW>
351.3133 (314.8523+36.4609)

> <DSSTox_CID>
22633

> <DSSTox_RID>
80064

> <DSSTox_GSID>
42633

> <DSSTox_FileID_Sort>
4746

> <TS_ChemName>
Clomipramine hydrochloride

> <TS_ChemName_Synonyms>


> <TS_CASRN>
17321-77-6

> <CASRN_ChemName_Relationship>
primary

> <TS_Description>
single chemical compound

> <ChemNote>
parent [303-49-1]

> <STRUCTURE_Shown>
tested chemical

> <STRUCTURE_Formula>
C19H24Cl2N2

> <STRUCTURE_MW>
351.3133

> <STRUCTURE_ChemType>
defined organic

> <STRUCTURE_DefinedOrganicForm>
complex

> <STRUCTURE_IUPAC>
3-(3-chloro-10,11-dihydro-5H-dibenzo[b,f]azepin-5-yl)-N,N-dimethylpropan-1-amine hydrochloride (1:1)

> <STRUCTURE_SMILES>
Cl.CN(C)CCCN2c3ccccc3CCc1ccc(Cl)cc12

> <STRUCTURE_SMILES_Desalt>
CN(C)CCCN2c3ccccc3CCc1ccc(Cl)cc12

> <Substance_modify_yyyymmdd>
20081003

$$$$
