173399-03-6
ChemmineR-0915142007XD

 40 39  0  0  1  0  0  0  0  0  1 V2000
    9.1977   -4.6678    0.0000 C    0  0  0  0  0  0  0  0  0  0  0  0
    9.1977   -5.9785    0.0000 C    0  0  0  0  0  0  0  0  0  0  0  0
    8.0479   -3.9780    0.0000 C    0  0  0  0  0  0  0  0  0  0  0  0
    8.0479   -6.6453    0.0000 C    0  0  0  0  0  0  0  0  0  0  0  0
    6.8982   -4.6678    0.0000 C    0  0  0  0  0  0  0  0  0  0  0  0
    6.8982   -5.9785    0.0000 C    0  0  0  0  0  0  0  0  0  0  0  0
   10.3474   -3.9780    0.0000 C    0  0  0  0  0  0  0  0  0  0  0  0
   11.4971   -4.6448    0.0000 C    0  0  0  0  0  0  0  0  0  0  0  0
   12.6468   -3.9780    0.0000 C    0  0  0  0  0  0  0  0  0  0  0  0
   11.4971   -5.9785    0.0000 C    0  0  0  0  0  0  0  0  0  0  0  0
   10.3474   -6.6453    0.0000 C    0  0  0  0  0  0  0  0  0  0  0  0
   12.6468   -6.6453    0.0000 C    0  0  0  0  0  0  0  0  0  0  0  0
   12.6468   -2.6673    0.0000 C    0  0  0  0  0  0  0  0  0  0  0  0
   13.7965   -1.9775    0.0000 C    0  0  0  0  0  0  0  0  0  0  0  0
   13.7965   -0.6668    0.0000 O    0  0  0  0  0  0  0  0  0  0  0  0
   14.9462   -2.6673    0.0000 C    0  0  0  0  0  0  0  0  0  0  0  0
   11.4971   -1.9775    0.0000 N    0  0  0  0  0  0  0  0  0  0  0  0
    5.7485   -6.6453    0.0000 O    0  0  0  0  0  0  0  0  0  0  0  0
    4.5988   -5.9785    0.0000 C    0  0  0  0  0  0  0  0  0  0  0  0
    5.7485   -3.9780    0.0000 O    0  0  0  0  0  0  0  0  0  0  0  0
    4.5988   -4.6678    0.0000 C    0  0  0  0  0  0  0  0  0  0  0  0
    3.4491   -3.9780    0.0000 C    0  0  0  0  0  0  0  0  0  0  0  0
    2.2994   -4.6448    0.0000 C    0  0  0  0  0  0  0  0  0  0  0  0
    1.1497   -3.9780    0.0000 O    0  0  0  0  0  0  0  0  0  0  0  0
    0.0000   -4.6448    0.0000 C    0  0  0  0  0  0  0  0  0  0  0  0
   16.0959   -1.9775    0.0000 C    0  0  0  0  0  0  0  0  0  0  0  0
   17.2456   -2.6673    0.0000 C    0  0  0  0  0  0  0  0  0  0  0  0
   18.3953   -1.9775    0.0000 N    0  0  0  0  0  0  0  0  0  0  0  0
   17.2456   -3.9780    0.0000 O    0  0  0  0  0  0  0  0  0  0  0  0
   19.5450   -2.6673    0.0000 C    0  0  0  0  0  0  0  0  0  0  0  0
   16.0959   -0.6668    0.0000 C    0  0  0  0  0  0  0  0  0  0  0  0
   17.2456    0.0000    0.0000 C    0  0  0  0  0  0  0  0  0  0  0  0
   14.9462    0.0000    0.0000 C    0  0  0  0  0  0  0  0  0  0  0  0
   20.6947   -1.9775    0.0000 C    0  0  0  0  0  0  0  0  0  0  0  0
   21.8674   -2.6673    0.0000 C    0  0  0  0  0  0  0  0  0  0  0  0
   22.9941   -2.0005    0.0000 O    0  0  0  0  0  0  0  0  0  0  0  0
   21.8674   -3.9780    0.0000 N    0  0  0  0  0  0  0  0  0  0  0  0
   21.2926   -0.8048    0.0000 C    0  0  0  0  0  0  0  0  0  0  0  0
   19.9589   -0.8738    0.0000 C    0  0  0  0  0  0  0  0  0  0  0  0
   17.4985   -5.9095    0.0000 Cl   0  0  0  0  0  0  0  0  0  0  0  0
  1  2  1  0  0  0  0
  1  3  2  0  0  0  0
  1  7  1  0  0  0  0
  2  4  2  0  0  0  0
  3  5  1  0  0  0  0
  4  6  1  0  0  0  0
  5  6  2  0  0  0  0
  5 20  1  0  0  0  0
  6 18  1  0  0  0  0
  7  8  1  0  0  0  0
  8  9  1  0  0  0  0
  8 10  1  1  0  0  0
  9 13  1  0  0  0  0
 10 11  1  0  0  0  0
 10 12  1  0  0  0  0
 13 14  1  0  0  0  0
 13 17  1  6  0  0  0
 14 15  1  1  0  0  0
 14 16  1  0  0  0  0
 16 26  1  0  0  0  0
 18 19  1  0  0  0  0
 20 21  1  0  0  0  0
 21 22  1  0  0  0  0
 22 23  1  0  0  0  0
 23 24  1  0  0  0  0
 24 25  1  0  0  0  0
 26 27  1  0  0  0  0
 26 31  1  1  0  0  0
 27 28  1  0  0  0  0
 27 29  2  0  0  0  0
 28 30  1  0  0  0  0
 30 34  1  0  0  0  0
 31 32  1  0  0  0  0
 31 33  1  0  0  0  0
 34 35  1  0  0  0  0
 34 38  1  0  0  0  0
 34 39  1  0  0  0  0
 35 36  2  0  0  0  0
 35 37  1  0  0  0  0
M  END
> <ID>
14029

> <Formula>
C30H54ClN3O6

> <FW>
588.2193 (551.7583+36.4609)

> <DSSTox_CID>
28971

> <DSSTox_RID>
83236

> <DSSTox_GSID>
49045

> <DSSTox_FileID_Sort>
7911

> <TS_ChemName>
Aliskiren hydrochloride

> <TS_ChemName_Synonyms>
Aliskiren

> <TS_CASRN>
173399-03-6

> <CASRN_ChemName_Relationship>
primary

> <TS_Description>
single chemical compound

> <ChemNote>


> <STRUCTURE_Shown>
tested chemical

> <STRUCTURE_Formula>
C30H54ClN3O6

> <STRUCTURE_MW>
588.2193

> <STRUCTURE_ChemType>
defined organic

> <STRUCTURE_DefinedOrganicForm>
complex

> <STRUCTURE_IUPAC>
(2S,4S,5S,7S)-5-amino-N-(3-amino-2,2-dimethyl-3-oxopropyl)-4-hydroxy-7-[4-methoxy-3-(3-methoxypropoxy)benzyl]-8-methyl-2-(propan-2-yl)nonanamide hydrochloride (1:1)

> <STRUCTURE_SMILES>
Cl.NC(=O)C(C)(C)CNC(=O)[C@@H](C[C@H](O)[C@@H](N)C[C@H](Cc1cc(OCCCOC)c(cc1)OC)C(C)C)C(C)C

> <STRUCTURE_SMILES_Desalt>
NC(=O)C(C)(C)CNC(=O)[C@@H](C[C@H](O)[C@@H](N)C[C@H](Cc1cc(OCCCOC)c(cc1)OC)C(C)C)C(C)C

> <Substance_modify_yyyymmdd>
20111204

$$$$
