173584-44-6
ChemmineR-0915142007XD

 36 39  0  0  1  0  0  0  0  0  1 V2000
    5.6108   -3.4095    0.0000 C    0  0  0  0  0  0  0  0  0  0  0  0
    5.1970   -4.6674    0.0000 C    0  0  0  0  0  0  0  0  0  0  0  0
    7.3818   -5.3791    0.0000 N    0  0  0  0  0  0  0  0  0  0  0  0
    6.0908   -5.6605    0.0000 N    0  0  0  0  0  0  0  0  0  0  0  0
    8.2755   -6.3722    0.0000 C    0  0  0  0  0  0  0  0  0  0  0  0
    9.6824   -5.7432    0.0000 N    0  0  0  0  0  0  0  0  0  0  0  0
    6.9018   -3.1447    0.0000 O    0  0  0  0  0  0  0  0  0  0  0  0
    3.8730   -4.6674    0.0000 C    0  0  0  0  0  0  0  0  0  0  0  0
    4.5515   -2.6482    0.0000 C    0  0  0  0  0  0  0  0  0  0  0  0
    3.4592   -3.4095    0.0000 C    0  0  0  0  0  0  0  0  0  0  0  0
    9.8313   -4.4357    0.0000 C    0  0  0  0  0  0  0  0  0  0  0  0
    5.7929   -2.1185    0.0000 C    0  0  0  0  0  0  0  0  0  0  0  0
    7.7790   -4.1378    0.0000 C    0  0  0  0  0  0  0  0  0  0  0  0
   15.3263   -8.3583    0.0000 C    0  0  0  0  0  0  0  0  0  0  0  0
   10.7913   -6.5377    0.0000 C    0  0  0  0  0  0  0  0  0  0  0  0
    2.9957   -5.6605    0.0000 C    0  0  0  0  0  0  0  0  0  0  0  0
    8.1266   -7.3818    0.0000 O    0  0  0  0  0  0  0  0  0  0  0  0
    2.1847   -3.1447    0.0000 C    0  0  0  0  0  0  0  0  0  0  0  0
   14.0850   -8.9210    0.0000 O    0  0  0  0  0  0  0  0  0  0  0  0
    8.7555   -3.6578    0.0000 O    0  0  0  0  0  0  0  0  0  0  0  0
    7.0177   -1.6220    0.0000 O    0  0  0  0  0  0  0  0  0  0  0  0
   12.0161   -5.9749    0.0000 C    0  0  0  0  0  0  0  0  0  0  0  0
   10.6092   -7.8287    0.0000 C    0  0  0  0  0  0  0  0  0  0  0  0
   16.5511   -7.7956    0.0000 F    0  0  0  0  0  0  0  0  0  0  0  0
   14.7636   -7.1170    0.0000 F    0  0  0  0  0  0  0  0  0  0  0  0
   15.8725   -9.5996    0.0000 F    0  0  0  0  0  0  0  0  0  0  0  0
    1.3075   -4.1378    0.0000 C    0  0  0  0  0  0  0  0  0  0  0  0
   11.0396   -3.8895    0.0000 O    0  0  0  0  0  0  0  0  0  0  0  0
   12.9429   -8.0769    0.0000 C    0  0  0  0  0  0  0  0  0  0  0  0
    1.7048   -5.3791    0.0000 C    0  0  0  0  0  0  0  0  0  0  0  0
    4.7502   -1.3075    0.0000 O    0  0  0  0  0  0  0  0  0  0  0  0
   13.1250   -6.7694    0.0000 C    0  0  0  0  0  0  0  0  0  0  0  0
   11.7513   -8.6728    0.0000 C    0  0  0  0  0  0  0  0  0  0  0  0
    0.0000   -3.8398    0.0000 Cl   0  0  0  0  0  0  0  0  0  0  0  0
   12.0988   -4.6509    0.0000 C    0  0  0  0  0  0  0  0  0  0  0  0
    4.9322    0.0000    0.0000 C    0  0  0  0  0  0  0  0  0  0  0  0
  1  2  1  0  0  0  0
  1  7  1  0  0  0  0
  1  9  1  0  0  0  0
  1 12  1  1  0  0  0
  2  4  2  0  0  0  0
  2  8  1  0  0  0  0
  3  4  1  0  0  0  0
  3  5  1  0  0  0  0
  3 13  1  0  0  0  0
  5  6  1  0  0  0  0
  5 17  2  0  0  0  0
  6 11  1  0  0  0  0
  6 15  1  0  0  0  0
  7 13  1  0  0  0  0
  8 16  1  0  0  0  0
  8 10  2  0  0  0  0
  9 10  1  0  0  0  0
 10 18  1  0  0  0  0
 11 20  2  0  0  0  0
 11 28  1  0  0  0  0
 12 21  2  0  0  0  0
 12 31  1  0  0  0  0
 14 19  1  0  0  0  0
 14 24  1  0  0  0  0
 14 25  1  0  0  0  0
 14 26  1  0  0  0  0
 15 22  2  0  0  0  0
 15 23  1  0  0  0  0
 16 30  2  0  0  0  0
 18 27  2  0  0  0  0
 19 29  1  0  0  0  0
 22 32  1  0  0  0  0
 23 33  2  0  0  0  0
 27 34  1  0  0  0  0
 27 30  1  0  0  0  0
 28 35  1  0  0  0  0
 29 33  1  0  0  0  0
 29 32  2  0  0  0  0
 31 36  1  0  0  0  0
M  END
> <ID>
6580

> <Formula>
C22H17ClF3N3O7

> <FW>
527.8345

> <DSSTox_CID>
12690

> <DSSTox_RID>
79034

> <DSSTox_GSID>
32690

> <DSSTox_FileID_Sort>
3716

> <TS_ChemName>
Indoxacarb

> <TS_ChemName_Synonyms>
Indoxacarb (DPX-MP062)

> <TS_CASRN>
173584-44-6

> <CASRN_ChemName_Relationship>
primary

> <TS_Description>
single chemical compound

> <ChemNote>
stereochem

> <STRUCTURE_Shown>
tested chemical

> <STRUCTURE_Formula>
C22H17ClF3N3O7

> <STRUCTURE_MW>
527.8345

> <STRUCTURE_ChemType>
defined organic

> <STRUCTURE_DefinedOrganicForm>
parent

> <STRUCTURE_IUPAC>
methyl (4aS)-7-chloro-2-{(methoxycarbonyl)[4-(trifluoromethoxy)phenyl]carbamoyl}-2,5-dihydroindeno[1,2-e][1,3,4]oxadiazine-4a(3H)-carboxylate

> <STRUCTURE_SMILES>
FC(F)(F)Oc1ccc(cc1)N(C(=O)OC)C(=O)N2N=C3c4ccc(Cl)cc4C[C@@]3(OC2)C(=O)OC

> <STRUCTURE_SMILES_Desalt>
FC(F)(F)Oc1ccc(cc1)N(C(=O)OC)C(=O)N2N=C3c4ccc(Cl)cc4C[C@@]3(OC2)C(=O)OC

> <Substance_modify_yyyymmdd>
20080429

$$$$
