17372-87-1
ChemmineR-0915142007XD

 31 32  0  0  0  0  0  0  0  0  2 V2000
    7.9226   -1.9721    0.0000 C    0  0  0  0  0  0  0  0  0  0  0  0
    7.9226   -3.2869    0.0000 C    0  0  0  0  0  0  0  0  0  0  0  0
    6.7892   -3.9330    0.0000 C    0  0  0  0  0  0  0  0  0  0  0  0
    6.7892   -5.8824    0.0000 C    0  0  0  0  0  0  0  0  0  0  0  0
    7.9226   -6.5398    0.0000 C    0  0  0  0  0  0  0  0  0  0  0  0
    9.0560   -5.8824    0.0000 C    0  0  0  0  0  0  0  0  0  0  0  0
   10.1894   -6.5398    0.0000 O    0  5  0  0  0  0  0  0  0  0  0  0
    9.0560   -4.5677    0.0000 O    0  0  0  0  0  0  0  0  0  0  0  0
    7.9226   -7.8433    0.0000 C    0  0  0  0  0  0  0  0  0  0  0  0
    6.7892   -8.5006    0.0000 C    0  0  0  0  0  0  0  0  0  0  0  0
    5.6558   -7.8433    0.0000 C    0  0  0  0  0  0  0  0  0  0  0  0
    5.6558   -6.5398    0.0000 C    0  0  0  0  0  0  0  0  0  0  0  0
    5.6558   -3.2869    0.0000 C    0  0  0  0  0  0  0  0  0  0  0  0
    5.6558   -1.9721    0.0000 C    0  0  0  0  0  0  0  0  0  0  0  0
    6.7892   -1.3148    0.0000 O    0  0  0  0  0  0  0  0  0  0  0  0
    4.5110   -1.3148    0.0000 C    0  0  0  0  0  0  0  0  0  0  0  0
    3.3776   -1.9721    0.0000 C    0  0  0  0  0  0  0  0  0  0  0  0
    3.3776   -3.2869    0.0000 C    0  0  0  0  0  0  0  0  0  0  0  0
    4.5110   -3.9330    0.0000 C    0  0  0  0  0  0  0  0  0  0  0  0
    2.2555   -3.9330    0.0000 Br   0  0  0  0  0  0  0  0  0  0  0  0
    2.2555   -1.3148    0.0000 O    0  5  0  0  0  0  0  0  0  0  0  0
    4.5110    0.0000    0.0000 Br   0  0  0  0  0  0  0  0  0  0  0  0
    9.0560   -3.9330    0.0000 C    0  0  0  0  0  0  0  0  0  0  0  0
   10.2008   -3.2869    0.0000 C    0  0  0  0  0  0  0  0  0  0  0  0
   10.2008   -1.9721    0.0000 C    0  0  0  0  0  0  0  0  0  0  0  0
    9.0560   -1.3148    0.0000 C    0  0  0  0  0  0  0  0  0  0  0  0
    9.0560    0.0000    0.0000 Br   0  0  0  0  0  0  0  0  0  0  0  0
   11.3342   -1.3148    0.0000 O    0  0  0  0  0  0  0  0  0  0  0  0
   11.3342   -3.9330    0.0000 Br   0  0  0  0  0  0  0  0  0  0  0  0
   11.2548   -6.6645    0.0000 Na   0  3  0  0  0  0  0  0  0  0  0  0
    0.0000   -1.2241    0.0000 Na   0  3  0  0  0  0  0  0  0  0  0  0
  1  2  1  0  0  0  0
  1 15  1  0  0  0  0
  1 26  2  0  0  0  0
  2  3  2  0  0  0  0
  2 23  1  0  0  0  0
  3  4  1  0  0  0  0
  3 13  1  0  0  0  0
  4  5  2  0  0  0  0
  4 12  1  0  0  0  0
  5  6  1  0  0  0  0
  5  9  1  0  0  0  0
  6  7  1  0  0  0  0
  6  8  2  0  0  0  0
  9 10  2  0  0  0  0
 10 11  1  0  0  0  0
 11 12  2  0  0  0  0
 13 14  2  0  0  0  0
 13 19  1  0  0  0  0
 14 15  1  0  0  0  0
 14 16  1  0  0  0  0
 16 17  2  0  0  0  0
 16 22  1  0  0  0  0
 17 18  1  0  0  0  0
 17 21  1  0  0  0  0
 18 19  2  0  0  0  0
 18 20  1  0  0  0  0
 23 24  2  0  0  0  0
 24 25  1  0  0  0  0
 24 29  1  0  0  0  0
 25 26  1  0  0  0  0
 25 28  2  0  0  0  0
 26 27  1  0  0  0  0
M  END
> <ID>
4094

> <Formula>
C20H6Br4Na2O5

> <FW>
691.8542 (645.8757+22.9892+22.9892)

> <DSSTox_CID>
5234

> <DSSTox_RID>
77710

> <DSSTox_GSID>
25234

> <DSSTox_FileID_Sort>
2393

> <TS_ChemName>
Eosin

> <TS_ChemName_Synonyms>


> <TS_CASRN>
17372-87-1

> <CASRN_ChemName_Relationship>
primary

> <TS_Description>
single chemical compound

> <ChemNote>
C.I. 45380; parent [15086-94-9]

> <STRUCTURE_Shown>
tested chemical

> <STRUCTURE_Formula>
C20H6Br4Na2O5

> <STRUCTURE_MW>
691.8542

> <STRUCTURE_ChemType>
defined organic

> <STRUCTURE_DefinedOrganicForm>
salt

> <STRUCTURE_IUPAC>
disodium 2-(2,4,5,7-tetrabromo-6-oxido-3-oxo-3H-xanthen-9-yl)benzoate

> <STRUCTURE_SMILES>
[Na+].[Na+].[O-]C(=O)c4ccccc4C=2c3cc(Br)c([O-])c(Br)c3OC=1C=2C=C(Br)C(=O)C=1Br

> <STRUCTURE_SMILES_Desalt>
O=C(O)c4ccccc4C=2c3cc(Br)c(O)c(Br)c3OC=1C=2C=C(Br)C(=O)C=1Br

> <Substance_modify_yyyymmdd>
20080429

$$$$
