1738-25-6
ChemmineR-0915142007XD

  7  6  0  0  0  0  0  0  0  0  1 V2000
    1.3297    0.0000    0.0000 C   0  0  0  0  0  0  0  0  0  0  0  0
    2.6595    0.0000    0.0000 C   0  0  0  0  0  0  0  0  0  0  0  0
    3.3350   -1.1542    0.0000 C   0  0  0  0  0  0  0  0  0  0  0  0
    0.0000    0.0000    0.0000 N   0  0  0  0  0  0  0  0  0  0  0  0
    4.6647   -1.1542    0.0000 N   0  0  0  0  0  0  0  0  0  0  0  0
    5.3189   -2.3084    0.0000 C   0  0  0  0  0  0  0  0  0  0  0  0
    5.3189    0.0000    0.0000 C   0  0  0  0  0  0  0  0  0  0  0  0
  1  2  1  0  0  0  0
  1  4  3  0  0  0  0
  2  3  1  0  0  0  0
  3  5  1  0  0  0  0
  5  6  1  0  0  0  0
  5  7  1  0  0  0  0
M  END
> <ID>
5156

> <Formula>
C5H10N2

> <FW>
98.1463

> <DSSTox_CID>
7432

> <DSSTox_RID>
78452

> <DSSTox_GSID>
27432

> <DSSTox_FileID_Sort>
3135

> <TS_ChemName>
3-Dimethylaminopropionitrile

> <TS_ChemName_Synonyms>


> <TS_CASRN>
1738-25-6

> <CASRN_ChemName_Relationship>
primary

> <TS_Description>
single chemical compound

> <ChemNote>


> <STRUCTURE_Shown>
tested chemical

> <STRUCTURE_Formula>
C5H10N2

> <STRUCTURE_MW>
98.1463

> <STRUCTURE_ChemType>
defined organic

> <STRUCTURE_DefinedOrganicForm>
parent

> <STRUCTURE_IUPAC>
3-(dimethylamino)propanenitrile

> <STRUCTURE_SMILES>
N#CCCN(C)C

> <STRUCTURE_SMILES_Desalt>
N#CCCN(C)C

> <Substance_modify_yyyymmdd>
20080429

$$$$
