17406-45-0
ChemmineR-0915142007XD

 78 87  0  0  1  0  0  0  0  0  1 V2000
   13.6454   -3.1143    0.0000 C   0  0  0  0  0  0  0  0  0  0  0  0
   17.0056   -2.0898    0.0000 C   0  0  0  0  0  0  0  0  0  0  0  0
   13.6454   -4.4051    0.0000 C   0  0  0  0  0  0  0  0  0  0  0  0
   10.2853   -5.0402    0.0000 C   0  0  0  0  0  0  0  0  0  0  0  0
   14.8748   -2.7250    0.0000 C   0  0  0  0  0  0  0  0  0  0  0  0
   17.0056   -3.4011    0.0000 O   0  0  0  0  0  0  0  0  0  0  0  0
   15.6328   -3.8109    0.0000 C   0  0  0  0  0  0  0  0  0  0  0  0
   11.4122   -4.4051    0.0000 C   0  0  0  0  0  0  0  0  0  0  0  0
   12.5391   -5.0402    0.0000 C   0  0  0  0  0  0  0  0  0  0  0  0
   14.8748   -4.8353    0.0000 C   0  0  0  0  0  0  0  0  0  0  0  0
   17.0056   -0.7171    0.0000 C   0  0  0  0  0  0  0  0  0  0  0  0
   15.6328   -1.5981    0.0000 C   0  0  0  0  0  0  0  0  0  0  0  0
   10.2853   -6.3720    0.0000 C   0  0  0  0  0  0  0  0  0  0  0  0
   12.5391   -2.4381    0.0000 C   0  0  0  0  0  0  0  0  0  0  0  0
   11.4122   -3.1143    0.0000 C   0  0  0  0  0  0  0  0  0  0  0  0
    9.1584   -4.4051    0.0000 C   0  0  0  0  0  0  0  0  0  0  0  0
   12.5391   -6.3720    0.0000 C   0  0  0  0  0  0  0  0  0  0  0  0
   18.1734   -2.7455    0.0000 N   0  0  0  0  0  0  0  0  0  0  0  0
   11.4122   -7.0071    0.0000 C   0  0  0  0  0  0  0  0  0  0  0  0
    9.1584   -7.0071    0.0000 C   0  0  0  0  0  0  0  0  0  0  0  0
   18.1529   -0.0410    0.0000 C   0  0  0  0  0  0  0  0  0  0  0  0
   13.6454   -1.8235    0.0000 C   0  0  0  0  0  0  0  0  0  0  0  0
    8.0316   -5.0402    0.0000 C   0  0  0  0  0  0  0  0  0  0  0  0
    8.0316   -6.3310    0.0000 C   0  0  0  0  0  0  0  0  0  0  0  0
   10.2853   -3.8724    0.0000 C   0  0  0  0  0  0  0  0  0  0  0  0
   19.3208   -2.0489    0.0000 C   0  0  0  0  0  0  0  0  0  0  0  0
   19.3208   -0.7171    0.0000 C   0  0  0  0  0  0  0  0  0  0  0  0
    6.9047   -6.9866    0.0000 O   0  0  0  0  0  0  0  0  0  0  0  0
   15.1411   -0.3278    0.0000 C   0  0  0  0  0  0  0  0  0  0  0  0
   20.4887    0.0000    0.0000 C   0  0  0  0  0  0  0  0  0  0  0  0
   13.6454   -5.6754    0.0000 H   0  0  0  0  0  0  0  0  0  0  0  0
   10.2853   -7.4988    0.0000 H   0  0  0  0  0  0  0  0  0  0  0  0
   12.5391   -3.6265    0.0000 H   0  0  0  0  0  0  0  0  0  0  0  0
   11.4122   -5.8393    0.0000 H   0  0  0  0  0  0  0  0  0  0  0  0
   14.8748   -4.1387    0.0000 H   0  0  0  0  0  0  0  0  0  0  0  0
   15.6328   -2.4177    0.0000 H   0  0  0  0  0  0  0  0  0  0  0  0
    6.9047   -8.3184    0.0000 C   0  0  0  0  0  0  0  0  0  0  0  0
    8.0520   -8.9945    0.0000 C   0  0  0  0  0  0  0  0  0  0  0  0
    5.7368   -8.9945    0.0000 O   0  0  0  0  0  0  0  0  0  0  0  0
    8.0520  -10.3263    0.0000 C   0  0  0  0  0  0  0  0  0  0  0  0
    5.7573  -10.3263    0.0000 C   0  0  0  0  0  0  0  0  0  0  0  0
    6.9252  -11.0024    0.0000 C   0  0  0  0  0  0  0  0  0  0  0  0
    9.2199   -8.2979    0.0000 O   0  0  0  0  0  0  0  0  0  0  0  0
    9.2199  -11.0024    0.0000 O   0  0  0  0  0  0  0  0  0  0  0  0
    6.9252  -12.3342    0.0000 O   0  0  0  0  0  0  0  0  0  0  0  0
    4.5895  -11.0024    0.0000 C   0  0  0  0  0  0  0  0  0  0  0  0
    3.4216  -10.3468    0.0000 O   0  0  0  0  0  0  0  0  0  0  0  0
    5.7573  -13.0103    0.0000 C   0  0  0  0  0  0  0  0  0  0  0  0
    5.7573  -14.3421    0.0000 C   0  0  0  0  0  0  0  0  0  0  0  0
    4.5895  -12.3342    0.0000 O   0  0  0  0  0  0  0  0  0  0  0  0
    4.6099  -15.0182    0.0000 C   0  0  0  0  0  0  0  0  0  0  0  0
    3.4216  -13.0103    0.0000 C   0  0  0  0  0  0  0  0  0  0  0  0
    3.4421  -14.3421    0.0000 C   0  0  0  0  0  0  0  0  0  0  0  0
    6.9252  -15.0182    0.0000 O   0  0  0  0  0  0  0  0  0  0  0  0
    4.6099  -16.3499    0.0000 O   0  0  0  0  0  0  0  0  0  0  0  0
    2.2947  -15.0387    0.0000 O   0  0  0  0  0  0  0  0  0  0  0  0
    2.2742  -12.3342    0.0000 C   0  0  0  0  0  0  0  0  0  0  0  0
    1.1064  -13.0103    0.0000 O   0  0  0  0  0  0  0  0  0  0  0  0
    3.4421  -17.0261    0.0000 C   0  0  0  0  0  0  0  0  0  0  0  0
    3.4421  -18.3578    0.0000 C   0  0  0  0  0  0  0  0  0  0  0  0
    2.3152  -16.3499    0.0000 O   0  0  0  0  0  0  0  0  0  0  0  0
    2.3152  -19.0340    0.0000 C   0  0  0  0  0  0  0  0  0  0  0  0
    1.1474  -17.0261    0.0000 C   0  0  0  0  0  0  0  0  0  0  0  0
    1.1474  -18.3578    0.0000 C   0  0  0  0  0  0  0  0  0  0  0  0
    4.6099  -19.0340    0.0000 O   0  0  0  0  0  0  0  0  0  0  0  0
    2.3152  -20.3657    0.0000 O   0  0  0  0  0  0  0  0  0  0  0  0
    0.0000  -19.0340    0.0000 O   0  0  0  0  0  0  0  0  0  0  0  0
    8.2569  -14.9977    0.0000 C   0  0  0  0  0  0  0  0  0  0  0  0
    8.9126  -13.8298    0.0000 C   0  0  0  0  0  0  0  0  0  0  0  0
    8.9126  -16.1655    0.0000 O   0  0  0  0  0  0  0  0  0  0  0  0
   10.2443  -13.8298    0.0000 C   0  0  0  0  0  0  0  0  0  0  0  0
   10.2648  -16.1655    0.0000 C   0  0  0  0  0  0  0  0  0  0  0  0
   10.9205  -14.9772    0.0000 C   0  0  0  0  0  0  0  0  0  0  0  0
    8.2569  -12.6825    0.0000 O   0  0  0  0  0  0  0  0  0  0  0  0
   10.9000  -12.6825    0.0000 O   0  0  0  0  0  0  0  0  0  0  0  0
   12.2522  -14.9772    0.0000 O   0  0  0  0  0  0  0  0  0  0  0  0
   10.9614  -17.3129    0.0000 C   0  0  0  0  0  0  0  0  0  0  0  0
   12.2932  -17.3129    0.0000 O   0  0  0  0  0  0  0  0  0  0  0  0
  1  3  1  0  0  0  0
  1  5  1  0  0  0  0
  1 14  1  0  0  0  0
  1 22  1  1  0  0  0
  2 12  1  0  0  0  0
  2 11  1  0  0  0  0
  2 18  1  1  0  0  0
  2  6  1  0  0  0  0
  3  9  1  0  0  0  0
  3 10  1  0  0  0  0
  3 31  1  6  0  0  0
  4  8  1  0  0  0  0
  4 13  1  0  0  0  0
  4 16  1  0  0  0  0
  4 25  1  1  0  0  0
  5  7  1  0  0  0  0
  5 12  1  0  0  0  0
  5 35  1  6  0  0  0
  6  7  1  0  0  0  0
  7 10  1  0  0  0  0
  7 36  1  6  0  0  0
  8 15  1  0  0  0  0
  8  9  1  0  0  0  0
  8 34  1  6  0  0  0
  9 17  1  0  0  0  0
  9 33  1  1  0  0  0
 11 21  1  0  0  0  0
 12 29  1  6  0  0  0
 13 20  1  0  0  0  0
 13 32  1  6  0  0  0
 13 19  1  0  0  0  0
 14 15  1  0  0  0  0
 16 23  1  0  0  0  0
 17 19  1  0  0  0  0
 18 26  1  0  0  0  0
 20 24  1  0  0  0  0
 21 27  1  0  0  0  0
 23 24  1  0  0  0  0
 24 28  1  1  0  0  0
 26 27  1  0  0  0  0
 27 30  1  6  0  0  0
 37 28  1  1  0  0  0
 37 38  1  0  0  0  0
 37 39  1  0  0  0  0
 38 40  1  0  0  0  0
 38 43  1  6  0  0  0
 39 41  1  0  0  0  0
 40 42  1  0  0  0  0
 40 44  1  1  0  0  0
 41 42  1  0  0  0  0
 41 46  1  1  0  0  0
 42 45  1  1  0  0  0
 48 45  1  1  0  0  0
 46 47  1  0  0  0  0
 48 49  1  0  0  0  0
 48 50  1  0  0  0  0
 49 51  1  0  0  0  0
 49 54  1  6  0  0  0
 50 52  1  0  0  0  0
 51 53  1  0  0  0  0
 51 55  1  1  0  0  0
 52 53  1  0  0  0  0
 52 57  1  1  0  0  0
 53 56  1  6  0  0  0
 68 54  1  1  0  0  0
 59 55  1  1  0  0  0
 57 58  1  0  0  0  0
 59 60  1  0  0  0  0
 59 61  1  0  0  0  0
 60 62  1  0  0  0  0
 60 65  1  6  0  0  0
 61 63  1  0  0  0  0
 62 64  1  0  0  0  0
 62 66  1  1  0  0  0
 63 64  1  0  0  0  0
 64 67  1  6  0  0  0
 68 69  1  0  0  0  0
 68 70  1  0  0  0  0
 69 71  1  0  0  0  0
 69 74  1  6  0  0  0
 70 72  1  0  0  0  0
 71 73  1  0  0  0  0
 71 75  1  1  0  0  0
 72 73  1  0  0  0  0
 72 77  1  1  0  0  0
 73 76  1  6  0  0  0
 77 78  1  0  0  0  0
M  END
> <ID>
7747

> <Formula>
C50H83NO21

> <FW>
1034.1881

> <DSSTox_CID>
20413

> <DSSTox_RID>
79491

> <DSSTox_GSID>
40413

> <DSSTox_FileID_Sort>
4173

> <TS_ChemName>
alpha-Tomatine

> <TS_ChemName_Synonyms>


> <TS_CASRN>
17406-45-0

> <CASRN_ChemName_Relationship>
primary

> <TS_Description>
single chemical compound

> <ChemNote>
stereochem

> <STRUCTURE_Shown>
tested chemical

> <STRUCTURE_Formula>
C50H83NO21

> <STRUCTURE_MW>
1034.1881

> <STRUCTURE_ChemType>
defined organic

> <STRUCTURE_DefinedOrganicForm>
parent

> <STRUCTURE_IUPAC>
(3beta,5alpha,25S)-spirosolan-3-yl beta-D-glucopyranosyl-(1->2)-[beta-D-xylopyranosyl-(1->3)]-beta-D-glucopyranosyl-(1->4)-beta-D-galactopyranoside

> <STRUCTURE_SMILES>
C[C@@H]9[C@]1(CC[C@H](C)CN1)O[C@H]%10C[C@@H]8[C@](C)(CC[C@H]3[C@H]8CC[C@H]2C[C@H](CC[C@@]23C)O[C@@H]7O[C@H](CO)[C@H](O[C@@H]6O[C@H](CO)[C@@H](O)[C@H](O[C@@H]4OC[C@@H](O)[C@H](O)[C@H]4O)[C@H]6O[C@@H]5O[C@H](CO)[C@@H](O)[C@H](O)[C@H]5O)[C@H](O)[C@H]7O)[C@@H

> <STRUCTURE_SMILES_Desalt>
C[C@@H]9[C@]1(CC[C@H](C)CN1)O[C@H]%10C[C@@H]8[C@](C)(CC[C@H]3[C@H]8CC[C@H]2C[C@H](CC[C@@]23C)O[C@@H]7O[C@H](CO)[C@H](O[C@@H]6O[C@H](CO)[C@@H](O)[C@H](O[C@@H]4OC[C@@H](O)[C@H](O)[C@H]4O)[C@H]6O[C@@H]5O[C@H](CO)[C@@H](O)[C@H](O)[C@H]5O)[C@H](O)[C@H]7O)[C@@H

> <Substance_modify_yyyymmdd>
20080429

$$$$
