174185-16-1
ChemmineR-0915142007XD

 25 27  0  0  0  0  0  0  0  0  1 V2000
    3.4673   -3.2695    0.0000 C    0  0  0  0  0  0  0  0  0  0  0  0
    3.4673   -4.6075    0.0000 O    0  0  0  0  0  0  0  0  0  0  0  0
    2.3038   -2.5946    0.0000 C    0  0  0  0  0  0  0  0  0  0  0  0
    2.3038   -1.2682    0.0000 C    0  0  0  0  0  0  0  0  0  0  0  0
    1.1519   -3.2695    0.0000 C    0  0  0  0  0  0  0  0  0  0  0  0
    1.1519   -0.6167    0.0000 C    0  0  0  0  0  0  0  0  0  0  0  0
    0.0000   -2.5946    0.0000 C    0  0  0  0  0  0  0  0  0  0  0  0
    0.0000   -1.2682    0.0000 C    0  0  0  0  0  0  0  0  0  0  0  0
    4.6192   -2.5946    0.0000 N    0  0  0  0  0  0  0  0  0  0  0  0
    3.4673   -0.6167    0.0000 Cl   0  0  0  0  0  0  0  0  0  0  0  0
    1.1519   -4.6075    0.0000 Cl   0  0  0  0  0  0  0  0  0  0  0  0
    7.1789   -1.3031    0.0000 O    0  0  0  0  0  0  0  0  0  0  0  0
    6.9113   -2.5946    0.0000 C    0  0  0  0  0  0  0  0  0  0  0  0
    8.5053   -1.1519    0.0000 C    0  0  0  0  0  0  0  0  0  0  0  0
    8.0632   -3.2695    0.0000 C    0  0  0  0  0  0  0  0  0  0  0  0
    9.0405   -2.3736    0.0000 C    0  0  0  0  0  0  0  0  0  0  0  0
    5.7478   -3.2579    0.0000 C    0  0  0  0  0  0  0  0  0  0  0  0
    5.7478   -4.5843    0.0000 C    0  0  0  0  0  0  0  0  0  0  0  0
    6.9113   -5.2591    0.0000 C    0  0  0  0  0  0  0  0  0  0  0  0
    8.0632   -4.5843    0.0000 C    0  0  0  0  0  0  0  0  0  0  0  0
   10.0644   -3.9443    0.0000 C    0  0  0  0  0  0  0  0  0  0  0  0
   10.3320   -2.6412    0.0000 C    0  0  0  0  0  0  0  0  0  0  0  0
   10.6113   -1.3497    0.0000 C    0  0  0  0  0  0  0  0  0  0  0  0
   11.6352   -2.9204    0.0000 O    0  0  0  0  0  0  0  0  0  0  0  0
    9.1685    0.0000    0.0000 C    0  0  0  0  0  0  0  0  0  0  0  0
  1  2  2  0  0  0  0
  1  3  1  0  0  0  0
  1  9  1  0  0  0  0
  3  4  2  0  0  0  0
  3  5  1  0  0  0  0
  4  6  1  0  0  0  0
  4 10  1  0  0  0  0
  5  7  2  0  0  0  0
  5 11  1  0  0  0  0
  6  8  2  0  0  0  0
  7  8  1  0  0  0  0
  9 17  1  0  0  0  0
 12 13  1  0  0  0  0
 12 14  1  0  0  0  0
 13 15  2  0  0  0  0
 13 17  1  0  0  0  0
 14 16  2  0  0  0  0
 14 25  1  0  0  0  0
 15 16  1  0  0  0  0
 15 20  1  0  0  0  0
 16 22  1  0  0  0  0
 17 18  2  0  0  0  0
 18 19  1  0  0  0  0
 19 20  2  0  0  0  0
 21 22  1  0  0  0  0
 22 23  1  0  0  0  0
 22 24  1  0  0  0  0
M  END
> <ID>
13235

> <Formula>
C19H17Cl2NO3

> <FW>
378.2492

> <DSSTox_CID>
28148

> <DSSTox_RID>
82712

> <DSSTox_GSID>
48174

> <DSSTox_FileID_Sort>
7389

> <TS_ChemName>
FR167356

> <TS_ChemName_Synonyms>


> <TS_CASRN>
174185-16-1

> <CASRN_ChemName_Relationship>
primary

> <TS_Description>
single chemical compound

> <ChemNote>


> <STRUCTURE_Shown>
tested chemical

> <STRUCTURE_Formula>
C19H17Cl2NO3

> <STRUCTURE_MW>
378.2492

> <STRUCTURE_ChemType>
defined organic

> <STRUCTURE_DefinedOrganicForm>
parent

> <STRUCTURE_IUPAC>
2,6-dichloro-N-[3-(2-hydroxypropan-2-yl)-2-methyl-1-benzofuran-7-yl]benzamide

> <STRUCTURE_SMILES>
Clc1cccc(Cl)c1C(=O)Nc3cccc2c3oc(C)c2C(C)(C)O

> <STRUCTURE_SMILES_Desalt>
Clc1cccc(Cl)c1C(=O)Nc3cccc2c3oc(C)c2C(C)(C)O

> <Substance_modify_yyyymmdd>
20130910

$$$$
