1742-14-9
ChemmineR-0915142007XD

 18 19  0  0  0  0  0  0  0  0  1 V2000
    5.7624   -2.0007    0.0000 C   0  0  0  0  0  0  0  0  0  0  0  0
    6.9149   -1.3461    0.0000 C   0  0  0  0  0  0  0  0  0  0  0  0
    8.0674   -2.0007    0.0000 C   0  0  0  0  0  0  0  0  0  0  0  0
    8.0674   -3.3284    0.0000 C   0  0  0  0  0  0  0  0  0  0  0  0
    6.9149   -4.0014    0.0000 C   0  0  0  0  0  0  0  0  0  0  0  0
    5.7624   -3.3284    0.0000 C   0  0  0  0  0  0  0  0  0  0  0  0
    6.9149   -5.3291    0.0000 C   0  0  0  0  0  0  0  0  0  0  0  0
    9.2198   -4.0014    0.0000 C   0  0  0  0  0  0  0  0  0  0  0  0
    3.4574   -2.0007    0.0000 C   0  0  0  0  0  0  0  0  0  0  0  0
    3.4574   -3.3284    0.0000 C   0  0  0  0  0  0  0  0  0  0  0  0
    2.3050   -3.9830    0.0000 C   0  0  0  0  0  0  0  0  0  0  0  0
    1.1525   -3.3284    0.0000 C   0  0  0  0  0  0  0  0  0  0  0  0
    1.1525   -2.0007    0.0000 C   0  0  0  0  0  0  0  0  0  0  0  0
    2.3050   -1.3277    0.0000 C   0  0  0  0  0  0  0  0  0  0  0  0
    0.0000   -1.3277    0.0000 C   0  0  0  0  0  0  0  0  0  0  0  0
    0.0000   -3.9830    0.0000 C   0  0  0  0  0  0  0  0  0  0  0  0
    4.6099   -1.3461    0.0000 C   0  0  0  0  0  0  0  0  0  0  0  0
    4.6099    0.0000    0.0000 C   0  0  0  0  0  0  0  0  0  0  0  0
  1  2  2  0  0  0  0
  1  6  1  0  0  0  0
  1 17  1  0  0  0  0
  2  3  1  0  0  0  0
  3  4  2  0  0  0  0
  4  5  1  0  0  0  0
  4  8  1  0  0  0  0
  5  6  2  0  0  0  0
  5  7  1  0  0  0  0
  9 10  2  0  0  0  0
  9 14  1  0  0  0  0
  9 17  1  0  0  0  0
 10 11  1  0  0  0  0
 11 12  2  0  0  0  0
 12 13  1  0  0  0  0
 12 16  1  0  0  0  0
 13 14  2  0  0  0  0
 13 15  1  0  0  0  0
 17 18  1  0  0  0  0
M  END
> <ID>
5867

> <Formula>
C18H22

> <FW>
238.3673

> <DSSTox_CID>
9223

> <DSSTox_RID>
78717

> <DSSTox_GSID>
29223

> <DSSTox_FileID_Sort>
3399

> <TS_ChemName>
1,1-Bis(3,4-dimethylphenyl)ethane

> <TS_ChemName_Synonyms>
Benzene, 1,1'-ethylidenebis[3,4-dimethyl-

> <TS_CASRN>
1742-14-9

> <CASRN_ChemName_Relationship>
primary

> <TS_Description>
single chemical compound

> <ChemNote>


> <STRUCTURE_Shown>
tested chemical

> <STRUCTURE_Formula>
C18H22

> <STRUCTURE_MW>
238.3673

> <STRUCTURE_ChemType>
defined organic

> <STRUCTURE_DefinedOrganicForm>
parent

> <STRUCTURE_IUPAC>
1,1'-ethane-1,1-diylbis(3,4-dimethylbenzene)

> <STRUCTURE_SMILES>
Cc1ccc(cc1C)C(C)c2ccc(C)c(C)c2

> <STRUCTURE_SMILES_Desalt>
Cc1ccc(cc1C)C(C)c2ccc(C)c(C)c2

> <Substance_modify_yyyymmdd>
20080429

$$$$
