174484-41-4
ChemmineR-0915142007XD

 42 45  0  0  1  0  0  0  0  0  1 V2000
    3.3311   -2.6539    0.0000 O   0  0  0  0  0  0  0  0  0  0  0  0
    3.3311   -3.9900    0.0000 C   0  0  0  0  0  0  0  0  0  0  0  0
    4.4842   -4.6672    0.0000 C   0  0  0  0  0  0  0  0  0  0  0  0
    5.6373   -3.9900    0.0000 C   0  0  0  0  0  0  0  0  0  0  0  0
    5.6373   -2.6539    0.0000 C   0  0  0  0  0  0  0  0  0  0  0  0
    4.4842   -1.9950    0.0000 C   0  0  0  0  0  0  0  0  0  0  0  0
    2.6539   -5.1248    0.0000 C   0  0  0  0  0  0  0  0  0  0  0  0
    3.3311   -6.2962    0.0000 C   0  0  0  0  0  0  0  0  0  0  0  0
    2.6539   -7.4492    0.0000 C   0  0  0  0  0  0  0  0  0  0  0  0
    2.0133   -3.9900    0.0000 C   0  0  0  0  0  0  0  0  0  0  0  0
    1.3361   -5.1248    0.0000 C   0  0  0  0  0  0  0  0  0  0  0  0
    0.0000   -5.1248    0.0000 C   0  0  0  0  0  0  0  0  0  0  0  0
    1.3361   -7.4492    0.0000 C   0  0  0  0  0  0  0  0  0  0  0  0
    0.6772   -8.6023    0.0000 C   0  0  0  0  0  0  0  0  0  0  0  0
    1.3361   -9.7554    0.0000 C   0  0  0  0  0  0  0  0  0  0  0  0
    2.6539   -9.7554    0.0000 C   0  0  0  0  0  0  0  0  0  0  0  0
    3.3311   -8.6023    0.0000 C   0  0  0  0  0  0  0  0  0  0  0  0
    4.4842   -0.6772    0.0000 O   0  0  0  0  0  0  0  0  0  0  0  0
    6.7903   -4.6672    0.0000 O   0  0  0  0  0  0  0  0  0  0  0  0
    6.7903   -1.9950    0.0000 C   0  0  0  0  0  0  0  0  0  0  0  0
    7.9434   -2.6539    0.0000 C   0  0  0  0  0  0  0  0  0  0  0  0
    6.7903   -0.6772    0.0000 C   0  0  0  0  0  0  0  0  0  0  0  0
    7.9434    0.0000    0.0000 C   0  0  0  0  0  0  0  0  0  0  0  0
    7.9434   -3.9900    0.0000 C   0  0  0  0  0  0  0  0  0  0  0  0
    9.0782   -4.6672    0.0000 C   0  0  0  0  0  0  0  0  0  0  0  0
   10.2496   -3.9900    0.0000 C   0  0  0  0  0  0  0  0  0  0  0  0
   10.2496   -2.6539    0.0000 C   0  0  0  0  0  0  0  0  0  0  0  0
    9.0782   -1.9950    0.0000 C   0  0  0  0  0  0  0  0  0  0  0  0
   11.3843   -1.9950    0.0000 N   0  0  0  0  0  0  0  0  0  0  0  0
   12.5557   -2.6539    0.0000 S   0  0  0  0  0  0  0  0  0  0  0  0
   13.6905   -3.3311    0.0000 C   0  0  0  0  0  0  0  0  0  0  0  0
   13.6905   -4.6672    0.0000 C   0  0  0  0  0  0  0  0  0  0  0  0
   14.8619   -5.3078    0.0000 C   0  0  0  0  0  0  0  0  0  0  0  0
   15.9967   -4.6672    0.0000 C   0  0  0  0  0  0  0  0  0  0  0  0
   15.9967   -3.3311    0.0000 C   0  0  0  0  0  0  0  0  0  0  0  0
   14.8619   -2.6539    0.0000 N   0  0  0  0  0  0  0  0  0  0  0  0
   17.1680   -5.3078    0.0000 C   0  0  0  0  0  0  0  0  0  0  0  0
   18.3028   -5.9850    0.0000 F   0  0  0  0  0  0  0  0  0  0  0  0
   16.4908   -6.4609    0.0000 F   0  0  0  0  0  0  0  0  0  0  0  0
   17.8086   -4.1730    0.0000 F   0  0  0  0  0  0  0  0  0  0  0  0
   11.8785   -3.8253    0.0000 O   0  0  0  0  0  0  0  0  0  0  0  0
   13.2146   -1.5191    0.0000 O   0  0  0  0  0  0  0  0  0  0  0  0
  1  2  1  0  0  0  0
  1  6  1  0  0  0  0
  2 10  1  0  0  0  0
  2  7  1  1  0  0  0
  2  3  1  0  0  0  0
  3  4  1  0  0  0  0
  4  5  2  0  0  0  0
  4 19  1  0  0  0  0
  5  6  1  0  0  0  0
  5 20  1  0  0  0  0
  6 18  2  0  0  0  0
  7  8  1  0  0  0  0
  8  9  1  0  0  0  0
  9 13  2  0  0  0  0
  9 17  1  0  0  0  0
 10 11  1  0  0  0  0
 11 12  1  0  0  0  0
 13 14  1  0  0  0  0
 14 15  2  0  0  0  0
 15 16  1  0  0  0  0
 16 17  2  0  0  0  0
 20 21  1  0  0  0  0
 20 22  1  6  0  0  0
 21 24  2  0  0  0  0
 21 28  1  0  0  0  0
 22 23  1  0  0  0  0
 24 25  1  0  0  0  0
 25 26  2  0  0  0  0
 26 27  1  0  0  0  0
 27 28  2  0  0  0  0
 27 29  1  0  0  0  0
 29 30  1  0  0  0  0
 30 31  1  0  0  0  0
 30 41  2  0  0  0  0
 30 42  2  0  0  0  0
 31 32  2  0  0  0  0
 31 36  1  0  0  0  0
 32 33  1  0  0  0  0
 33 34  2  0  0  0  0
 34 35  1  0  0  0  0
 34 37  1  0  0  0  0
 35 36  2  0  0  0  0
 37 38  1  0  0  0  0
 37 39  1  0  0  0  0
 37 40  1  0  0  0  0
M  END
> <ID>
13619

> <Formula>
C31H33F3N2O5S

> <FW>
602.6643

> <DSSTox_CID>
28548

> <DSSTox_RID>
82820

> <DSSTox_GSID>
48622

> <DSSTox_FileID_Sort>
7497

> <TS_ChemName>
Tipranavir

> <TS_ChemName_Synonyms>


> <TS_CASRN>
174484-41-4

> <CASRN_ChemName_Relationship>
primary

> <TS_Description>
single chemical compound

> <ChemNote>
stereochem; tautomers

> <STRUCTURE_Shown>
tested chemical

> <STRUCTURE_Formula>
C31H33F3N2O5S

> <STRUCTURE_MW>
602.6643

> <STRUCTURE_ChemType>
defined organic

> <STRUCTURE_DefinedOrganicForm>
parent

> <STRUCTURE_IUPAC>
N-(3-{(1R)-1-[(6R)-4-hydroxy-2-oxo-6-(2-phenylethyl)-6-propyl-5,6-dihydro-2H-pyran-3-yl]propyl}phenyl)-5-(trifluoromethyl)pyridine-2-sulfonamide

> <STRUCTURE_SMILES>
CCC[C@]1(CC(O)=C(C(=O)O1)[C@H](CC)c3cccc(NS(=O)(=O)c2ccc(cn2)C(F)(F)F)c3)CCc4ccccc4

> <STRUCTURE_SMILES_Desalt>
CCC[C@]1(CC(O)=C(C(=O)O1)[C@H](CC)c3cccc(NS(=O)(=O)c2ccc(cn2)C(F)(F)F)c3)CCc4ccccc4

> <Substance_modify_yyyymmdd>
20111015

$$$$
