1744-22-5
ChemmineR-0915142007XD

 15 16  0  0  0  0  0  0  0  0  1 V2000
    0.0000   -1.8096    0.0000 N   0  0  0  0  0  0  0  0  0  0  0  0
    1.3344   -1.8096    0.0000 C   0  0  0  0  0  0  0  0  0  0  0  0
    2.1113   -2.8881    0.0000 N   0  0  0  0  0  0  0  0  0  0  0  0
    3.3817   -2.4768    0.0000 C   0  0  0  0  0  0  0  0  0  0  0  0
    3.3817   -1.1516    0.0000 C   0  0  0  0  0  0  0  0  0  0  0  0
    2.1113   -0.7403    0.0000 S   0  0  0  0  0  0  0  0  0  0  0  0
    4.5333   -0.4844    0.0000 C   0  0  0  0  0  0  0  0  0  0  0  0
    5.6848   -1.1516    0.0000 C   0  0  0  0  0  0  0  0  0  0  0  0
    6.8364   -0.4844    0.0000 O   0  0  0  0  0  0  0  0  0  0  0  0
    7.9880   -1.1516    0.0000 C   0  0  0  0  0  0  0  0  0  0  0  0
    9.1396   -1.8096    0.0000 F   0  0  0  0  0  0  0  0  0  0  0  0
    7.3208   -2.3032    0.0000 F   0  0  0  0  0  0  0  0  0  0  0  0
    8.6552    0.0000    0.0000 F   0  0  0  0  0  0  0  0  0  0  0  0
    5.6848   -2.4768    0.0000 C   0  0  0  0  0  0  0  0  0  0  0  0
    4.5333   -3.1440    0.0000 C   0  0  0  0  0  0  0  0  0  0  0  0
  1  2  1  0  0  0  0
  2  3  2  0  0  0  0
  2  6  1  0  0  0  0
  3  4  1  0  0  0  0
  4  5  2  0  0  0  0
  4 15  1  0  0  0  0
  5  6  1  0  0  0  0
  5  7  1  0  0  0  0
  7  8  2  0  0  0  0
  8  9  1  0  0  0  0
  8 14  1  0  0  0  0
  9 10  1  0  0  0  0
 10 11  1  0  0  0  0
 10 12  1  0  0  0  0
 10 13  1  0  0  0  0
 14 15  2  0  0  0  0
M  END
> <ID>
10809

> <Formula>
C8H5F3N2OS

> <FW>
234.1983

> <DSSTox_CID>
25192

> <DSSTox_RID>
80739

> <DSSTox_GSID>
45192

> <DSSTox_FileID_Sort>
5420

> <TS_ChemName>
Riluzole

> <TS_ChemName_Synonyms>


> <TS_CASRN>
1744-22-5

> <CASRN_ChemName_Relationship>
primary

> <TS_Description>
single chemical compound

> <ChemNote>


> <STRUCTURE_Shown>
tested chemical

> <STRUCTURE_Formula>
C8H5F3N2OS

> <STRUCTURE_MW>
234.1983

> <STRUCTURE_ChemType>
defined organic

> <STRUCTURE_DefinedOrganicForm>
parent

> <STRUCTURE_IUPAC>
6-(trifluoromethoxy)-1,3-benzothiazol-2-amine

> <STRUCTURE_SMILES>
FC(F)(F)Oc1ccc2nc(N)sc2c1

> <STRUCTURE_SMILES_Desalt>
FC(F)(F)Oc1ccc2nc(N)sc2c1

> <Substance_modify_yyyymmdd>
20100107

$$$$
