174501-64-5
ChemmineR-0915142007XD

 17 16  0  0  0  0  0  0  0  0  2 V2000
    6.6367   -1.0614    0.0000 N   0  3  0  0  0  0  0  0  0  0  0  0
    4.6103   -1.7369    0.0000 N   0  0  0  0  0  0  0  0  0  0  0  0
    5.8540   -2.1658    0.0000 C   0  0  0  0  0  0  0  0  0  0  0  0
    5.8540    0.0000    0.0000 C   0  0  0  0  0  0  0  0  0  0  0  0
    4.6103   -0.4289    0.0000 C   0  0  0  0  0  0  0  0  0  0  0  0
    3.5060   -2.5303    0.0000 C   0  0  0  0  0  0  0  0  0  0  0  0
    2.2944   -1.9621    0.0000 C   0  0  0  0  0  0  0  0  0  0  0  0
    1.2330   -2.7448    0.0000 C   0  0  0  0  0  0  0  0  0  0  0  0
    0.0000   -2.1979    0.0000 C   0  0  0  0  0  0  0  0  0  0  0  0
    7.9984   -1.0614    0.0000 C   0  0  0  0  0  0  0  0  0  0  0  0
    9.3922   -3.6990    0.0000 P   0  5  0  0  0  0  0  0  0  0  0  0
    8.0734   -3.6990    0.0000 F   0  0  0  0  0  0  0  0  0  0  0  0
   10.0462   -4.8462    0.0000 F   0  0  0  0  0  0  0  0  0  0  0  0
   10.0462   -2.5518    0.0000 F   0  0  0  0  0  0  0  0  0  0  0  0
    8.7275   -4.8462    0.0000 F   0  0  0  0  0  0  0  0  0  0  0  0
    8.7275   -2.5518    0.0000 F   0  0  0  0  0  0  0  0  0  0  0  0
   10.7217   -3.6990    0.0000 F   0  0  0  0  0  0  0  0  0  0  0  0
  1  3  2  0  0  0  0
  1  4  1  0  0  0  0
  1 10  1  0  0  0  0
  2  3  1  0  0  0  0
  2  5  1  0  0  0  0
  2  6  1  0  0  0  0
  4  5  2  0  0  0  0
  6  7  1  0  0  0  0
  7  8  1  0  0  0  0
  8  9  1  0  0  0  0
 11 12  1  0  0  0  0
 11 13  1  0  0  0  0
 11 14  1  0  0  0  0
 11 15  1  0  0  0  0
 11 16  1  0  0  0  0
 11 17  1  0  0  0  0
M  END
> <ID>
12986

> <Formula>
C8H15F6N2P

> <FW>
284.1823 (139.2176+144.9647)

> <DSSTox_CID>
27887

> <DSSTox_RID>
82640

> <DSSTox_GSID>
47911

> <DSSTox_FileID_Sort>
7317

> <TS_ChemName>
1-Butyl-3-methylimidazolium hexafluorophosphate

> <TS_ChemName_Synonyms>


> <TS_CASRN>
174501-64-5

> <CASRN_ChemName_Relationship>
primary

> <TS_Description>
single chemical compound

> <ChemNote>
ammonium; parent [80432-08-2]

> <STRUCTURE_Shown>
tested chemical

> <STRUCTURE_Formula>
C8H15F6N2P

> <STRUCTURE_MW>
284.1823

> <STRUCTURE_ChemType>
defined organic

> <STRUCTURE_DefinedOrganicForm>
salt

> <STRUCTURE_IUPAC>
1-butyl-3-methyl-1H-imidazol-3-ium hexafluorophosphate

> <STRUCTURE_SMILES>
CCCCn1cc[n+](C)c1.F[P-](F)(F)(F)(F)F

> <STRUCTURE_SMILES_Desalt>
CCCCn1cc[n+](C)c1

> <Substance_modify_yyyymmdd>
20110419

$$$$
