174501-65-6
ChemmineR-0915142007XD

 15 14  0  0  0  0  0  0  0  0  2 V2000
    5.4051   -7.0966    0.0000 C   0  0  0  0  0  0  0  0  0  0  0  0
    4.5594    0.0000    0.0000 C   0  0  0  0  0  0  0  0  0  0  0  0
    4.2506   -6.4421    0.0000 C   0  0  0  0  0  0  0  0  0  0  0  0
    4.2653   -5.0963    0.0000 C   0  0  0  0  0  0  0  0  0  0  0  0
    3.1034   -4.4418    0.0000 C   0  0  0  0  0  0  0  0  0  0  0  0
    2.4489   -1.0737    0.0000 C   0  0  0  0  0  0  0  0  0  0  0  0
    2.0297   -2.3312    0.0000 C   0  0  0  0  0  0  0  0  0  0  0  0
    4.1917   -2.3312    0.0000 C   0  0  0  0  0  0  0  0  0  0  0  0
    3.7726   -1.0737    0.0000 N   0  3  0  0  0  0  0  0  0  0  0  0
    3.1034   -3.1181    0.0000 N   0  0  0  0  0  0  0  0  0  0  0  0
    1.3237   -6.0302    0.0000 B   0  5  0  0  0  0  0  0  0  0  0  0
    0.0000   -6.0302    0.0000 F   0  0  0  0  0  0  0  0  0  0  0  0
    1.3237   -7.3539    0.0000 F   0  0  0  0  0  0  0  0  0  0  0  0
    1.3237   -4.6992    0.0000 F   0  0  0  0  0  0  0  0  0  0  0  0
    2.6548   -6.0302    0.0000 F   0  0  0  0  0  0  0  0  0  0  0  0
  1  3  1  0  0  0  0
  2  9  1  0  0  0  0
  3  4  1  0  0  0  0
  4  5  1  0  0  0  0
  5 10  1  0  0  0  0
  6  7  2  0  0  0  0
  6  9  1  0  0  0  0
  7 10  1  0  0  0  0
  8  9  2  0  0  0  0
  8 10  1  0  0  0  0
 11 12  1  0  0  0  0
 11 13  1  0  0  0  0
 11 14  1  0  0  0  0
 11 15  1  0  0  0  0
M  END
> <ID>
14094

> <Formula>
C8H15BF4N2

> <FW>
226.0227 (139.2176+86.8052)

> <DSSTox_CID>
29087

> <DSSTox_RID>
83306

> <DSSTox_GSID>
49231

> <DSSTox_FileID_Sort>
7981

> <TS_ChemName>
1-Butyl-3-methylimidazolium tetrafluoroborate

> <TS_ChemName_Synonyms>


> <TS_CASRN>
174501-65-6

> <CASRN_ChemName_Relationship>
primary

> <TS_Description>
single chemical compound

> <ChemNote>
hydrochloride CAS [125729-29-5]

> <STRUCTURE_Shown>
tested chemical

> <STRUCTURE_Formula>
C8H15BF4N2

> <STRUCTURE_MW>
226.0227

> <STRUCTURE_ChemType>
defined organic

> <STRUCTURE_DefinedOrganicForm>
complex

> <STRUCTURE_IUPAC>
1-butyl-3-methyl-1H-imidazol-3-ium tetrafluoroborate

> <STRUCTURE_SMILES>
CCCCn1cc[n+](C)c1.F[B-](F)(F)F

> <STRUCTURE_SMILES_Desalt>
CCCCn1cc[n+](C)c1

> <Substance_modify_yyyymmdd>
20111204

$$$$
