1746-23-2
ChemmineR-0915142007XD

 12 12  0  0  0  0  0  0  0  0  1 V2000
    1.1599   -1.9810    0.0000 C   0  0  0  0  0  0  0  0  0  0  0  0
    1.1312   -3.3247    0.0000 C   0  0  0  0  0  0  0  0  0  0  0  0
    2.2911   -3.9908    0.0000 C   0  0  0  0  0  0  0  0  0  0  0  0
    3.4510   -3.3247    0.0000 C   0  0  0  0  0  0  0  0  0  0  0  0
    3.4510   -1.9810    0.0000 C   0  0  0  0  0  0  0  0  0  0  0  0
    2.2911   -1.3379    0.0000 C   0  0  0  0  0  0  0  0  0  0  0  0
    0.0000   -1.3379    0.0000 C   0  0  0  0  0  0  0  0  0  0  0  0
    0.0000    0.0000    0.0000 C   0  0  0  0  0  0  0  0  0  0  0  0
    4.6110   -3.9908    0.0000 C   0  0  0  0  0  0  0  0  0  0  0  0
    3.9391   -5.1507    0.0000 C   0  0  0  0  0  0  0  0  0  0  0  0
    5.7422   -4.6339    0.0000 C   0  0  0  0  0  0  0  0  0  0  0  0
    5.2541   -2.8309    0.0000 C   0  0  0  0  0  0  0  0  0  0  0  0
  1  6  2  0  0  0  0
  1  2  1  0  0  0  0
  1  7  1  0  0  0  0
  2  3  2  0  0  0  0
  3  4  1  0  0  0  0
  4  5  2  0  0  0  0
  4  9  1  0  0  0  0
  5  6  1  0  0  0  0
  7  8  2  0  0  0  0
  9 10  1  0  0  0  0
  9 11  1  0  0  0  0
  9 12  1  0  0  0  0
M  END
> <ID>
2139

> <Formula>
C12H16

> <FW>
160.2554

> <DSSTox_CID>
2305

> <DSSTox_RID>
76539

> <DSSTox_GSID>
22305

> <DSSTox_FileID_Sort>
1223

> <TS_ChemName>
4-tert-Butylstyrene

> <TS_ChemName_Synonyms>


> <TS_CASRN>
1746-23-2

> <CASRN_ChemName_Relationship>
primary

> <TS_Description>
mixture or formulation

> <ChemNote>
mixture of isomers

> <STRUCTURE_Shown>
representative isomer in mixture

> <STRUCTURE_Formula>
C12H16

> <STRUCTURE_MW>
160.2554

> <STRUCTURE_ChemType>
defined organic

> <STRUCTURE_DefinedOrganicForm>
parent

> <STRUCTURE_IUPAC>
1-tert-butyl-4-ethenylbenzene

> <STRUCTURE_SMILES>
CC(C)(C)c1ccc(C=C)cc1

> <STRUCTURE_SMILES_Desalt>
CC(C)(C)c1ccc(C=C)cc1

> <Substance_modify_yyyymmdd>
20080429

$$$$
