17465-86-0
ChemmineR-0915142007XD

 88 96  0  0  1  0  0  0  0  0  1 V2000
    7.4343   -1.9916    0.0000 C   0  0  0  0  0  0  0  0  0  0  0  0
    7.4343   -3.3308    0.0000 O   0  0  0  0  0  0  0  0  0  0  0  0
    6.2840   -1.3220    0.0000 C   0  0  0  0  0  0  0  0  0  0  0  0
    6.2840   -3.9833    0.0000 C   0  0  0  0  0  0  0  0  0  0  0  0
    5.1508   -1.9916    0.0000 C   0  0  0  0  0  0  0  0  0  0  0  0
    5.1508   -3.3308    0.0000 C   0  0  0  0  0  0  0  0  0  0  0  0
    8.6018   -1.3220    0.0000 O   0  0  0  0  0  0  0  0  0  0  0  0
    9.7350   -2.0088    0.0000 C   0  0  0  0  0  0  0  0  0  0  0  0
    8.6018   -3.9833    0.0000 C   0  0  0  0  0  0  0  0  0  0  0  0
    9.7350   -3.3308    0.0000 C   0  0  0  0  0  0  0  0  0  0  0  0
   10.9025   -1.3220    0.0000 C   0  0  0  0  0  0  0  0  0  0  0  0
   12.0357   -2.0088    0.0000 C   0  0  0  0  0  0  0  0  0  0  0  0
   10.9025   -3.9833    0.0000 O   0  0  0  0  0  0  0  0  0  0  0  0
   12.0357   -3.3308    0.0000 C   0  0  0  0  0  0  0  0  0  0  0  0
    6.2840   -5.3225    0.0000 C   0  0  0  0  0  0  0  0  0  0  0  0
    8.6018   -5.3225    0.0000 O   0  0  0  0  0  0  0  0  0  0  0  0
    7.4343   -5.9749    0.0000 O   0  0  0  0  0  0  0  0  0  0  0  0
   11.8468   -6.2840    0.0000 C   0  0  0  0  0  0  0  0  0  0  0  0
   11.1772   -7.4343    0.0000 O   0  0  0  0  0  0  0  0  0  0  0  0
   13.1860   -6.2840    0.0000 C   0  0  0  0  0  0  0  0  0  0  0  0
   13.2032   -3.9833    0.0000 O   0  0  0  0  0  0  0  0  0  0  0  0
   13.8556   -5.1508    0.0000 C   0  0  0  0  0  0  0  0  0  0  0  0
    4.0004   -6.2668    0.0000 O   0  0  0  0  0  0  0  0  0  0  0  0
    3.9833   -3.9833    0.0000 O   0  0  0  0  0  0  0  0  0  0  0  0
    3.3137   -5.1336    0.0000 C   0  0  0  0  0  0  0  0  0  0  0  0
    3.3137   -7.4171    0.0000 C   0  0  0  0  0  0  0  0  0  0  0  0
    2.0088   -7.4343    0.0000 C   0  0  0  0  0  0  0  0  0  0  0  0
    2.0088   -5.1336    0.0000 C   0  0  0  0  0  0  0  0  0  0  0  0
    1.3564   -6.2840    0.0000 C   0  0  0  0  0  0  0  0  0  0  0  0
    5.3225   -8.5675    0.0000 O   0  0  0  0  0  0  0  0  0  0  0  0
    3.9833   -8.5675    0.0000 C   0  0  0  0  0  0  0  0  0  0  0  0
   11.8297   -8.6018    0.0000 O   0  0  0  0  0  0  0  0  0  0  0  0
    5.9921   -9.7350    0.0000 O   0  0  0  0  0  0  0  0  0  0  0  0
   13.8385   -7.4515    0.0000 O   0  0  0  0  0  0  0  0  0  0  0  0
   13.1860   -8.6018    0.0000 C   0  0  0  0  0  0  0  0  0  0  0  0
   15.1777   -7.4515    0.0000 C   0  0  0  0  0  0  0  0  0  0  0  0
   15.1605   -5.1508    0.0000 C   0  0  0  0  0  0  0  0  0  0  0  0
   15.8473   -6.2840    0.0000 C   0  0  0  0  0  0  0  0  0  0  0  0
   13.8385   -9.7522    0.0000 C   0  0  0  0  0  0  0  0  0  0  0  0
   15.8473   -8.6018    0.0000 O   0  0  0  0  0  0  0  0  0  0  0  0
   15.1605   -9.7522    0.0000 C   0  0  0  0  0  0  0  0  0  0  0  0
   13.1689  -10.9025    0.0000 O   0  0  0  0  0  0  0  0  0  0  0  0
    5.3397  -10.8853    0.0000 C   0  0  0  0  0  0  0  0  0  0  0  0
    4.0004  -10.8853    0.0000 C   0  0  0  0  0  0  0  0  0  0  0  0
    3.3308   -9.7350    0.0000 O   0  0  0  0  0  0  0  0  0  0  0  0
    1.9916   -9.7350    0.0000 C   0  0  0  0  0  0  0  0  0  0  0  0
    1.3220   -8.6018    0.0000 O   0  0  0  0  0  0  0  0  0  0  0  0
    3.3308  -12.0529    0.0000 C   0  0  0  0  0  0  0  0  0  0  0  0
    1.3220  -10.9025    0.0000 C   0  0  0  0  0  0  0  0  0  0  0  0
    2.0088  -12.0357    0.0000 C   0  0  0  0  0  0  0  0  0  0  0  0
   13.8213  -12.0357    0.0000 C   0  0  0  0  0  0  0  0  0  0  0  0
    4.0004  -13.1860    0.0000 O   0  0  0  0  0  0  0  0  0  0  0  0
   15.8473  -10.9197    0.0000 C   0  0  0  0  0  0  0  0  0  0  0  0
   15.1605  -12.0529    0.0000 C   0  0  0  0  0  0  0  0  0  0  0  0
    6.2840    0.0000    0.0000 O   0  0  0  0  0  0  0  0  0  0  0  0
   10.9025    0.0000    0.0000 O   0  0  0  0  0  0  0  0  0  0  0  0
   13.2032   -1.3220    0.0000 O   0  0  0  0  0  0  0  0  0  0  0  0
    3.9833   -1.3220    0.0000 O   0  0  0  0  0  0  0  0  0  0  0  0
   15.8644   -4.0004    0.0000 O   0  0  0  0  0  0  0  0  0  0  0  0
   17.1693   -6.3183    0.0000 O   0  0  0  0  0  0  0  0  0  0  0  0
   17.1693  -10.9197    0.0000 O   0  0  0  0  0  0  0  0  0  0  0  0
   15.8129  -13.2032    0.0000 O   0  0  0  0  0  0  0  0  0  0  0  0
    1.3564  -13.2032    0.0000 O   0  0  0  0  0  0  0  0  0  0  0  0
    0.0172  -10.9025    0.0000 O   0  0  0  0  0  0  0  0  0  0  0  0
    0.0000   -6.2840    0.0000 O   0  0  0  0  0  0  0  0  0  0  0  0
    1.3220   -3.9833    0.0000 O   0  0  0  0  0  0  0  0  0  0  0  0
   13.1517  -13.1860    0.0000 O   0  0  0  0  0  0  0  0  0  0  0  0
    9.6835  -11.1772    0.0000 O   0  0  0  0  0  0  0  0  0  0  0  0
    8.5331  -11.8468    0.0000 O   0  0  0  0  0  0  0  0  0  0  0  0
   10.8338  -11.8468    0.0000 C   0  0  0  0  0  0  0  0  0  0  0  0
   10.8338  -13.1860    0.0000 C   0  0  0  0  0  0  0  0  0  0  0  0
   11.9842  -13.8385    0.0000 C   0  0  0  0  0  0  0  0  0  0  0  0
    9.6835  -13.8385    0.0000 O   0  0  0  0  0  0  0  0  0  0  0  0
    8.5331  -13.1860    0.0000 C   0  0  0  0  0  0  0  0  0  0  0  0
    7.4000  -13.8385    0.0000 C   0  0  0  0  0  0  0  0  0  0  0  0
    6.2325  -13.1860    0.0000 O   0  0  0  0  0  0  0  0  0  0  0  0
    5.0821  -13.8556    0.0000 C   0  0  0  0  0  0  0  0  0  0  0  0
    7.4000  -15.1777    0.0000 C   0  0  0  0  0  0  0  0  0  0  0  0
    5.0821  -15.1777    0.0000 C   0  0  0  0  0  0  0  0  0  0  0  0
    6.2325  -15.8473    0.0000 C   0  0  0  0  0  0  0  0  0  0  0  0
    9.6835  -15.1605    0.0000 C   0  0  0  0  0  0  0  0  0  0  0  0
    8.5331  -15.8473    0.0000 O   0  0  0  0  0  0  0  0  0  0  0  0
   11.9842  -15.1777    0.0000 C   0  0  0  0  0  0  0  0  0  0  0  0
   10.8338  -15.8473    0.0000 C   0  0  0  0  0  0  0  0  0  0  0  0
   13.1517  -15.8473    0.0000 O   0  0  0  0  0  0  0  0  0  0  0  0
   10.8338  -17.1693    0.0000 O   0  0  0  0  0  0  0  0  0  0  0  0
    6.2325  -17.1693    0.0000 O   0  0  0  0  0  0  0  0  0  0  0  0
    3.9318  -15.8473    0.0000 O   0  0  0  0  0  0  0  0  0  0  0  0
  1  3  1  0  0  0  0
  1  7  1  1  0  0  0
  1  2  1  0  0  0  0
  2  4  1  0  0  0  0
  3  5  1  0  0  0  0
  3 55  1  1  0  0  0
  4 15  1  6  0  0  0
  4  6  1  0  0  0  0
  5  6  1  0  0  0  0
  5 58  1  6  0  0  0
  6 24  1  1  0  0  0
  8  7  1  1  0  0  0
  8 11  1  0  0  0  0
  8 10  1  0  0  0  0
 10  9  1  6  0  0  0
  9 16  1  0  0  0  0
 10 13  1  0  0  0  0
 11 12  1  0  0  0  0
 11 56  1  6  0  0  0
 12 14  1  0  0  0  0
 12 57  1  1  0  0  0
 13 14  1  0  0  0  0
 14 21  1  1  0  0  0
 15 17  1  0  0  0  0
 20 18  1  6  0  0  0
 18 19  1  0  0  0  0
 20 34  1  0  0  0  0
 20 22  1  0  0  0  0
 22 21  1  1  0  0  0
 22 37  1  0  0  0  0
 23 25  1  0  0  0  0
 23 26  1  0  0  0  0
 25 24  1  1  0  0  0
 25 28  1  0  0  0  0
 26 31  1  6  0  0  0
 26 27  1  0  0  0  0
 27 29  1  0  0  0  0
 27 47  1  1  0  0  0
 28 29  1  0  0  0  0
 28 66  1  1  0  0  0
 29 65  1  6  0  0  0
 30 31  1  0  0  0  0
 32 35  1  0  0  0  0
 33 43  1  0  0  0  0
 34 36  1  0  0  0  0
 39 35  1  6  0  0  0
 36 38  1  0  0  0  0
 36 40  1  1  0  0  0
 37 38  1  0  0  0  0
 37 59  1  6  0  0  0
 38 60  1  1  0  0  0
 39 41  1  0  0  0  0
 39 42  1  0  0  0  0
 41 40  1  1  0  0  0
 41 53  1  0  0  0  0
 42 51  1  0  0  0  0
 44 43  1  6  0  0  0
 44 45  1  0  0  0  0
 44 48  1  0  0  0  0
 45 46  1  0  0  0  0
 46 47  1  1  0  0  0
 46 49  1  0  0  0  0
 48 50  1  0  0  0  0
 48 52  1  1  0  0  0
 49 50  1  0  0  0  0
 49 64  1  1  0  0  0
 50 63  1  6  0  0  0
 51 54  1  0  0  0  0
 51 67  1  1  0  0  0
 77 52  1  1  0  0  0
 53 54  1  0  0  0  0
 53 61  1  6  0  0  0
 54 62  1  1  0  0  0
 72 67  1  1  0  0  0
 68 70  1  0  0  0  0
 69 74  1  0  0  0  0
 71 70  1  6  0  0  0
 71 72  1  0  0  0  0
 71 73  1  0  0  0  0
 72 83  1  0  0  0  0
 73 81  1  0  0  0  0
 75 74  1  6  0  0  0
 75 76  1  0  0  0  0
 75 78  1  0  0  0  0
 76 77  1  0  0  0  0
 77 79  1  0  0  0  0
 78 80  1  0  0  0  0
 78 82  1  1  0  0  0
 79 80  1  0  0  0  0
 79 88  1  1  0  0  0
 80 87  1  6  0  0  0
 81 82  1  1  0  0  0
 81 84  1  0  0  0  0
 83 84  1  0  0  0  0
 83 85  1  6  0  0  0
 84 86  1  1  0  0  0
M  END
> <ID>
12187

> <Formula>
C48H80O40

> <FW>
1297.1248

> <DSSTox_CID>
27033

> <DSSTox_RID>
82054

> <DSSTox_GSID>
47033

> <DSSTox_FileID_Sort>
6735

> <TS_ChemName>
gamma-Cyclodextrin

> <TS_ChemName_Synonyms>


> <TS_CASRN>
17465-86-0

> <CASRN_ChemName_Relationship>
primary

> <TS_Description>
single chemical compound

> <ChemNote>
stereochem; 8 membered sugar ring molecule

> <STRUCTURE_Shown>
tested chemical

> <STRUCTURE_Formula>
C48H80O40

> <STRUCTURE_MW>
1297.1248

> <STRUCTURE_ChemType>
defined organic

> <STRUCTURE_DefinedOrganicForm>
parent

> <STRUCTURE_IUPAC>
(1S,3R,5R,6S,8R,10R,11S,13R,15R,16S,18R,20R,21S,23R,25R,26S,28R,30R,31S,33R,35R,36S,38R,40R,41R,42R,43R,44R,45R,46R,47R,48R,49R,50R,51R,52R,53R,54R,55R,56R)-5,10,15,20,25,30,35,40-octakis(hydroxymethyl)-2,4,7,9,12,14,17,19,22,24,27,29,32,34,37,39-hexadeca

> <STRUCTURE_SMILES>
O[C@@H]2[C@@H](O)[C@@H]1O[C@H]9O[C@H](CO)[C@@H](O[C@H]8O[C@H](CO)[C@@H](O[C@H]7O[C@H](CO)[C@@H](O[C@H]6O[C@H](CO)[C@@H](O[C@H]5O[C@H](CO)[C@@H](O[C@H]4O[C@H](CO)[C@@H](O[C@H]3O[C@H](CO)[C@@H](O[C@H]2O[C@@H]1CO)[C@H](O)[C@H]3O)[C@H](O)[C@H]4O)[C@H](O)[C@H]

> <STRUCTURE_SMILES_Desalt>
O[C@@H]2[C@@H](O)[C@@H]1O[C@H]9O[C@H](CO)[C@@H](O[C@H]8O[C@H](CO)[C@@H](O[C@H]7O[C@H](CO)[C@@H](O[C@H]6O[C@H](CO)[C@@H](O[C@H]5O[C@H](CO)[C@@H](O[C@H]4O[C@H](CO)[C@@H](O[C@H]3O[C@H](CO)[C@@H](O[C@H]2O[C@@H]1CO)[C@H](O)[C@H]3O)[C@H](O)[C@H]4O)[C@H](O)[C@H]

> <Substance_modify_yyyymmdd>
20100427

$$$$
