17479-19-5
ChemmineR-0915142007XD

 48 55  0  0  1  0  0  0  0  0  1 V2000
    9.8462   -3.1491    0.0000 N   0  0  0  0  0  0  0  0  0  0  0  0
    9.8462   -1.9949    0.0000 C   0  0  0  0  0  0  0  0  0  0  0  0
    7.7515   -1.9949    0.0000 C   0  0  0  0  0  0  0  0  0  0  0  0
    7.7515   -3.1491    0.0000 C   0  0  0  0  0  0  0  0  0  0  0  0
    8.8060   -1.3394    0.0000 O   0  0  0  0  0  0  0  0  0  0  0  0
   10.8579   -3.7618    0.0000 C   0  0  0  0  0  0  0  0  0  0  0  0
   11.9836   -3.1633    0.0000 C   0  0  0  0  0  0  0  0  0  0  0  0
   11.9836   -1.9949    0.0000 N   0  0  0  0  0  0  0  0  0  0  0  0
    6.4976   -1.1399    0.0000 N   0  0  0  0  0  0  0  0  0  0  0  0
    3.4483   -5.5287    0.0000 C   0  0  0  0  0  0  0  0  0  0  0  0
    3.4483   -8.1505    0.0000 C   0  0  0  0  0  0  0  0  0  0  0  0
   10.8864   -1.3679    0.0000 C   0  0  0  0  0  0  0  0  0  0  0  0
    4.5882   -6.1699    0.0000 C   0  0  0  0  0  0  0  0  0  0  0  0
    2.2799   -6.1699    0.0000 C   0  0  0  0  0  0  0  0  0  0  0  0
    5.7282   -5.5287    0.0000 N   0  0  0  0  0  0  0  0  0  0  0  0
    4.5882   -3.5338    0.0000 C   0  0  0  0  0  0  0  0  0  0  0  0
    4.5882   -2.1944    0.0000 C   0  0  0  0  0  0  0  0  0  0  0  0
    2.2799   -7.4951    0.0000 C   0  0  0  0  0  0  0  0  0  0  0  0
    4.5882   -7.4951    0.0000 C   0  0  0  0  0  0  0  0  0  0  0  0
    3.4483   -4.1893    0.0000 C   0  0  0  0  0  0  0  0  0  0  0  0
    3.0921   -9.4330    0.0000 C   0  0  0  0  0  0  0  0  0  0  0  0
    1.5104   -9.4330    0.0000 N   0  0  0  0  0  0  0  0  0  0  0  0
    5.7282   -4.1893    0.0000 C   0  0  0  0  0  0  0  0  0  0  0  0
    1.1399   -8.1505    0.0000 C   0  0  0  0  0  0  0  0  0  0  0  0
    6.6829   -3.9328    0.0000 O   0  0  0  0  0  0  0  0  0  0  0  0
   10.8579   -5.0727    0.0000 C   0  0  0  0  0  0  0  0  0  0  0  0
   12.9382   -3.5765    0.0000 O   0  0  0  0  0  0  0  0  0  0  0  0
    9.8462   -0.8265    0.0000 O   0  0  0  0  0  0  0  0  0  0  0  0
    7.7373   -0.6555    0.0000 C   0  0  0  0  0  0  0  0  0  0  0  0
    3.4483   -1.5532    0.0000 O   0  0  0  0  0  0  0  0  0  0  0  0
   12.9382   -1.3964    0.0000 C   0  0  0  0  0  0  0  0  0  0  0  0
    1.1399   -5.5287    0.0000 C   0  0  0  0  0  0  0  0  0  0  0  0
    6.8681   -6.1699    0.0000 C   0  0  0  0  0  0  0  0  0  0  0  0
   11.9978   -5.7139    0.0000 C   0  0  0  0  0  0  0  0  0  0  0  0
   10.8864   -0.2137    0.0000 C   0  0  0  0  0  0  0  0  0  0  0  0
   12.9382   -0.2137    0.0000 C   0  0  0  0  0  0  0  0  0  0  0  0
    0.0000   -6.1699    0.0000 C   0  0  0  0  0  0  0  0  0  0  0  0
    0.0000   -7.4951    0.0000 C   0  0  0  0  0  0  0  0  0  0  0  0
    8.8345   -0.0427    0.0000 C   0  0  0  0  0  0  0  0  0  0  0  0
    6.6401    0.0000    0.0000 C   0  0  0  0  0  0  0  0  0  0  0  0
   11.9978   -7.0248    0.0000 C   0  0  0  0  0  0  0  0  0  0  0  0
   13.1235   -5.0727    0.0000 C   0  0  0  0  0  0  0  0  0  0  0  0
   13.1235   -7.6803    0.0000 C   0  0  0  0  0  0  0  0  0  0  0  0
   14.2492   -5.7139    0.0000 C   0  0  0  0  0  0  0  0  0  0  0  0
   14.2492   -7.0248    0.0000 C   0  0  0  0  0  0  0  0  0  0  0  0
    4.6025   -4.8590    0.0000 H   0  0  0  0  0  0  0  0  0  0  0  0
   10.8721   -2.4936    0.0000 H   0  0  0  0  0  0  0  0  0  0  0  0
    3.4625   -6.8681    0.0000 H   0  0  0  0  0  0  0  0  0  0  0  0
  1  2  1  0  0  0  0
  1  4  1  0  0  0  0
  1  6  1  0  0  0  0
  2  5  1  0  0  0  0
  2 12  1  0  0  0  0
  2 28  1  6  0  0  0
  3  4  1  0  0  0  0
  3  9  1  6  0  0  0
  3 29  1  1  0  0  0
  3  5  1  0  0  0  0
  4 25  2  0  0  0  0
  6  7  1  0  0  0  0
  6 26  1  6  0  0  0
  7  8  1  0  0  0  0
  7 27  2  0  0  0  0
  8 31  1  0  0  0  0
  8 12  1  0  0  0  0
  9 17  1  0  0  0  0
 10 20  1  0  0  0  0
 10 14  1  0  0  0  0
 10 48  1  6  0  0  0
 10 13  1  0  0  0  0
 11 19  1  0  0  0  0
 11 21  2  0  0  0  0
 11 18  1  0  0  0  0
 12 35  1  0  0  0  0
 12 47  1  1  0  0  0
 13 15  1  0  0  0  0
 13 19  1  0  0  0  0
 13 46  1  1  0  0  0
 14 18  2  0  0  0  0
 14 32  1  0  0  0  0
 15 23  1  0  0  0  0
 15 33  1  0  0  0  0
 16 17  1  1  0  0  0
 16 20  1  0  0  0  0
 16 23  1  0  0  0  0
 17 30  2  0  0  0  0
 18 24  1  0  0  0  0
 21 22  1  0  0  0  0
 22 24  1  0  0  0  0
 24 38  2  0  0  0  0
 26 34  1  0  0  0  0
 29 39  1  0  0  0  0
 29 40  1  0  0  0  0
 31 36  1  0  0  0  0
 32 37  2  0  0  0  0
 34 41  1  0  0  0  0
 34 42  2  0  0  0  0
 35 36  1  0  0  0  0
 37 38  1  0  0  0  0
 41 43  2  0  0  0  0
 42 44  1  0  0  0  0
 43 45  1  0  0  0  0
 44 45  2  0  0  0  0
M  END
> <ID>
11605

> <Formula>
C35H41N5O5

> <FW>
611.7305

> <DSSTox_CID>
26322

> <DSSTox_RID>
81538

> <DSSTox_GSID>
46322

> <DSSTox_FileID_Sort>
6219

> <TS_ChemName>
Dihydroergocristine

> <TS_ChemName_Synonyms>


> <TS_CASRN>
17479-19-5

> <CASRN_ChemName_Relationship>
primary

> <TS_Description>
single chemical compound

> <ChemNote>
stereochem

> <STRUCTURE_Shown>
tested chemical

> <STRUCTURE_Formula>
C35H41N5O5

> <STRUCTURE_MW>
611.7305

> <STRUCTURE_ChemType>
defined organic

> <STRUCTURE_DefinedOrganicForm>
parent

> <STRUCTURE_IUPAC>
(5'alpha,10alpha)-5'-benzyl-12'-hydroxy-3',6',18-trioxo-2'-(propan-2-yl)-9,10-dihydroergotaman

> <STRUCTURE_SMILES>
CN1C[C@@H](C[C@@H]2c3cccc4ncc(C[C@@H]12)c34)C(=O)N[C@@]8(O[C@]7(O)N([C@@H](Cc5ccccc5)C(=O)N6CCC[C@H]67)C8=O)C(C)C

> <STRUCTURE_SMILES_Desalt>
CN1C[C@@H](C[C@@H]2c3cccc4ncc(C[C@@H]12)c34)C(=O)N[C@@]8(O[C@]7(O)N([C@@H](Cc5ccccc5)C(=O)N6CCC[C@H]67)C8=O)C(C)C

> <Substance_modify_yyyymmdd>
20110815

$$$$
