1747-60-0
ChemmineR-0915142007XD

 12 13  0  0  0  0  0  0  0  0  1 V2000
    1.9942   -3.4554    0.0000 C   0  0  0  0  0  0  0  0  0  0  0  0
    1.3295   -2.3036    0.0000 C   0  0  0  0  0  0  0  0  0  0  0  0
    1.9942   -1.1518    0.0000 C   0  0  0  0  0  0  0  0  0  0  0  0
    3.3237   -1.1518    0.0000 C   0  0  0  0  0  0  0  0  0  0  0  0
    3.9885   -2.3036    0.0000 C   0  0  0  0  0  0  0  0  0  0  0  0
    5.2917   -2.5800    0.0000 S   0  0  0  0  0  0  0  0  0  0  0  0
    5.4299   -3.9029    0.0000 C   0  0  0  0  0  0  0  0  0  0  0  0
    6.5817   -4.5677    0.0000 N   0  0  0  0  0  0  0  0  0  0  0  0
    4.2123   -4.4426    0.0000 N   0  0  0  0  0  0  0  0  0  0  0  0
    3.3237   -3.4554    0.0000 C   0  0  0  0  0  0  0  0  0  0  0  0
    1.3295    0.0000    0.0000 O   0  0  0  0  0  0  0  0  0  0  0  0
    0.0000    0.0000    0.0000 C   0  0  0  0  0  0  0  0  0  0  0  0
  1  2  2  0  0  0  0
  1 10  1  0  0  0  0
  2  3  1  0  0  0  0
  3  4  2  0  0  0  0
  3 11  1  0  0  0  0
  4  5  1  0  0  0  0
  5  6  1  0  0  0  0
  5 10  2  0  0  0  0
  6  7  1  0  0  0  0
  7  8  1  0  0  0  0
  7  9  2  0  0  0  0
  9 10  1  0  0  0  0
 11 12  1  0  0  0  0
M  END
> <ID>
3706

> <Formula>
C8H8N2OS

> <FW>
180.2269

> <DSSTox_CID>
4485

> <DSSTox_RID>
77422

> <DSSTox_GSID>
24485

> <DSSTox_FileID_Sort>
2105

> <TS_ChemName>
2-Amino-6-methoxybenzothiazole

> <TS_ChemName_Synonyms>
6-Methoxy-2-benzothiazolamine

> <TS_CASRN>
1747-60-0

> <CASRN_ChemName_Relationship>
primary

> <TS_Description>
single chemical compound

> <ChemNote>


> <STRUCTURE_Shown>
tested chemical

> <STRUCTURE_Formula>
C8H8N2OS

> <STRUCTURE_MW>
180.2269

> <STRUCTURE_ChemType>
defined organic

> <STRUCTURE_DefinedOrganicForm>
parent

> <STRUCTURE_IUPAC>
6-methoxy-1,3-benzothiazol-2-amine

> <STRUCTURE_SMILES>
COc1ccc2nc(N)sc2c1

> <STRUCTURE_SMILES_Desalt>
COc1ccc2nc(N)sc2c1

> <Substance_modify_yyyymmdd>
20080429

$$$$
