174899-82-2
ChemmineR-0915142007XD

 23 22  0  0  0  0  0  0  0  0  2 V2000
    4.3176   -1.0602    0.0000 N   0  3  0  0  0  0  0  0  0  0  0  0
    2.2993   -1.7245    0.0000 N   0  0  0  0  0  0  0  0  0  0  0  0
    3.5511   -2.1332    0.0000 C   0  0  0  0  0  0  0  0  0  0  0  0
    3.5511    0.0000    0.0000 C   0  0  0  0  0  0  0  0  0  0  0  0
    2.2993   -0.3960    0.0000 C   0  0  0  0  0  0  0  0  0  0  0  0
    1.2263   -2.5037    0.0000 C   0  0  0  0  0  0  0  0  0  0  0  0
    0.0000   -1.9800    0.0000 C   0  0  0  0  0  0  0  0  0  0  0  0
    5.6333   -1.0602    0.0000 C   0  0  0  0  0  0  0  0  0  0  0  0
    8.8140   -2.3759    0.0000 O   0  0  0  0  0  0  0  0  0  0  0  0
    8.1497   -3.5256    0.0000 S   0  0  0  0  0  0  0  0  0  0  0  0
    7.4599   -4.6752    0.0000 O   0  0  0  0  0  0  0  0  0  0  0  0
    6.9873   -2.8741    0.0000 C   0  0  0  0  0  0  0  0  0  0  0  0
    6.2975   -4.0110    0.0000 F   0  0  0  0  0  0  0  0  0  0  0  0
    7.6388   -1.7117    0.0000 F   0  0  0  0  0  0  0  0  0  0  0  0
    5.8249   -2.1843    0.0000 F   0  0  0  0  0  0  0  0  0  0  0  0
    9.2994   -4.2026    0.0000 N   0  5  0  0  0  0  0  0  0  0  0  0
    9.7720   -2.3759    0.0000 O   0  0  0  0  0  0  0  0  0  0  0  0
   10.4235   -3.5256    0.0000 S   0  0  0  0  0  0  0  0  0  0  0  0
   11.1516   -4.6752    0.0000 O   0  0  0  0  0  0  0  0  0  0  0  0
   11.6242   -2.8741    0.0000 C   0  0  0  0  0  0  0  0  0  0  0  0
   10.9600   -1.7117    0.0000 F   0  0  0  0  0  0  0  0  0  0  0  0
   12.2757   -4.0110    0.0000 F   0  0  0  0  0  0  0  0  0  0  0  0
   12.7739   -2.1843    0.0000 F   0  0  0  0  0  0  0  0  0  0  0  0
  1  3  2  0  0  0  0
  1  4  1  0  0  0  0
  1  8  1  0  0  0  0
  2  3  1  0  0  0  0
  2  5  1  0  0  0  0
  2  6  1  0  0  0  0
  4  5  2  0  0  0  0
  6  7  1  0  0  0  0
  9 10  2  0  0  0  0
 10 11  2  0  0  0  0
 10 12  1  0  0  0  0
 10 16  1  0  0  0  0
 12 13  1  0  0  0  0
 12 14  1  0  0  0  0
 12 15  1  0  0  0  0
 16 18  1  0  0  0  0
 17 18  2  0  0  0  0
 18 19  2  0  0  0  0
 18 20  1  0  0  0  0
 20 21  1  0  0  0  0
 20 22  1  0  0  0  0
 20 23  1  0  0  0  0
M  END
> <ID>
13040

> <Formula>
C8H11F6N3O4S2

> <FW>
391.3111 (111.1644+280.1467)

> <DSSTox_CID>
27943

> <DSSTox_RID>
82695

> <DSSTox_GSID>
47967

> <DSSTox_FileID_Sort>
7372

> <TS_ChemName>
1-Ethyl-3-methylimidazolium bis(trifluoromethanesulfonyl)imide

> <TS_ChemName_Synonyms>


> <TS_CASRN>
174899-82-2

> <CASRN_ChemName_Relationship>
primary

> <TS_Description>
single chemical compound

> <ChemNote>
ammonium; parent [65039-03-4]

> <STRUCTURE_Shown>
tested chemical

> <STRUCTURE_Formula>
C8H11F6N3O4S2

> <STRUCTURE_MW>
391.3111

> <STRUCTURE_ChemType>
defined organic

> <STRUCTURE_DefinedOrganicForm>
salt

> <STRUCTURE_IUPAC>
1-ethyl-3-methyl-1H-imidazol-3-ium bis[(trifluoromethyl)sulfonyl]azanide

> <STRUCTURE_SMILES>
C[n+]1ccn(CC)c1.FC(F)(F)S(=O)(=O)[N-]S(=O)(=O)C(F)(F)F

> <STRUCTURE_SMILES_Desalt>
O=S(=O)(NS(=O)(=O)C(F)(F)F)C(F)(F)F

> <Substance_modify_yyyymmdd>
20110418

$$$$
