174899-83-3
ChemmineR-0915142007XD

 25 24  0  0  0  0  0  0  0  0  2 V2000
   10.3632   -7.0314    0.0000 C   0  0  0  0  0  0  0  0  0  0  0  0
    9.4717    0.0000    0.0000 C   0  0  0  0  0  0  0  0  0  0  0  0
    9.2154   -6.3962    0.0000 C   0  0  0  0  0  0  0  0  0  0  0  0
    9.2154   -5.0702    0.0000 C   0  0  0  0  0  0  0  0  0  0  0  0
    8.0677   -4.4350    0.0000 C   0  0  0  0  0  0  0  0  0  0  0  0
    7.3768   -1.0697    0.0000 C   0  0  0  0  0  0  0  0  0  0  0  0
    6.9979   -2.3401    0.0000 C   0  0  0  0  0  0  0  0  0  0  0  0
    9.1152   -2.3289    0.0000 C   0  0  0  0  0  0  0  0  0  0  0  0
    8.6917   -1.0697    0.0000 N   0  3  0  0  0  0  0  0  0  0  0  0
    8.0677   -3.0978    0.0000 N   0  0  0  0  0  0  0  0  0  0  0  0
    3.9558   -9.8172    0.0000 N   0  5  0  0  0  0  0  0  0  0  0  0
    5.5493   -7.3768    0.0000 C   0  0  0  0  0  0  0  0  0  0  0  0
    6.6971   -8.0454    0.0000 F   0  0  0  0  0  0  0  0  0  0  0  0
    4.4127   -6.7305    0.0000 F   0  0  0  0  0  0  0  0  0  0  0  0
    6.2179   -6.2513    0.0000 F   0  0  0  0  0  0  0  0  0  0  0  0
    6.0396   -9.1820    0.0000 O   0  0  0  0  0  0  0  0  0  0  0  0
    3.7441   -7.8560    0.0000 O   0  0  0  0  0  0  0  0  0  0  0  0
    4.8919   -8.5246    0.0000 S   0  0  0  0  0  0  0  0  0  0  0  0
    1.3260   -9.8172    0.0000 C   0  0  0  0  0  0  0  0  0  0  0  0
    0.0000   -9.8172    0.0000 F   0  0  0  0  0  0  0  0  0  0  0  0
    1.3260  -11.1432    0.0000 F   0  0  0  0  0  0  0  0  0  0  0  0
    1.3260   -8.5134    0.0000 F   0  0  0  0  0  0  0  0  0  0  0  0
    2.6298  -11.1432    0.0000 O   0  0  0  0  0  0  0  0  0  0  0  0
    2.6298   -8.5134    0.0000 O   0  0  0  0  0  0  0  0  0  0  0  0
    2.6298   -9.8172    0.0000 S   0  0  0  0  0  0  0  0  0  0  0  0
  1  3  1  0  0  0  0
  2  9  1  0  0  0  0
  3  4  1  0  0  0  0
  4  5  1  0  0  0  0
  5 10  1  0  0  0  0
  6  7  2  0  0  0  0
  6  9  1  0  0  0  0
  7 10  1  0  0  0  0
  8  9  2  0  0  0  0
  8 10  1  0  0  0  0
 11 18  1  0  0  0  0
 11 25  1  0  0  0  0
 12 13  1  0  0  0  0
 12 14  1  0  0  0  0
 12 15  1  0  0  0  0
 12 18  1  0  0  0  0
 16 18  2  0  0  0  0
 17 18  2  0  0  0  0
 19 20  1  0  0  0  0
 19 21  1  0  0  0  0
 19 22  1  0  0  0  0
 19 25  1  0  0  0  0
 23 25  2  0  0  0  0
 24 25  2  0  0  0  0
M  END
> <ID>
14097

> <Formula>
C10H15F6N3O4S2

> <FW>
419.3642 (139.2176+280.1467)

> <DSSTox_CID>
29090

> <DSSTox_RID>
83309

> <DSSTox_GSID>
49234

> <DSSTox_FileID_Sort>
7984

> <TS_ChemName>
1-Butyl-3-methylimidazolium bis(trifluoromethylsulfonyl)imide

> <TS_ChemName_Synonyms>


> <TS_CASRN>
174899-83-3

> <CASRN_ChemName_Relationship>
primary

> <TS_Description>
single chemical compound

> <ChemNote>


> <STRUCTURE_Shown>
tested chemical

> <STRUCTURE_Formula>
C10H15F6N3O4S2

> <STRUCTURE_MW>
419.3642

> <STRUCTURE_ChemType>
defined organic

> <STRUCTURE_DefinedOrganicForm>
complex

> <STRUCTURE_IUPAC>
1-butyl-3-methyl-1H-imidazol-3-ium bis[(trifluoromethyl)sulfonyl]azanide

> <STRUCTURE_SMILES>
CCCCn1cc[n+](C)c1.FC(F)(F)S(=O)(=O)[N-]S(=O)(=O)C(F)(F)F

> <STRUCTURE_SMILES_Desalt>
O=S(=O)(NS(=O)(=O)C(F)(F)F)C(F)(F)F

> <Substance_modify_yyyymmdd>
20111204

$$$$
