174899-66-2
ChemmineR-0915142007XD

 18 17  0  0  0  0  0  0  0  0  2 V2000
    6.7576   -7.1073    0.0000 C   0  0  0  0  0  0  0  0  0  0  0  0
    5.9291    0.0000    0.0000 C   0  0  0  0  0  0  0  0  0  0  0  0
    5.6098   -6.4231    0.0000 C   0  0  0  0  0  0  0  0  0  0  0  0
    5.6098   -5.1005    0.0000 C   0  0  0  0  0  0  0  0  0  0  0  0
    4.4620   -4.4468    0.0000 C   0  0  0  0  0  0  0  0  0  0  0  0
    3.8083   -1.0642    0.0000 C   0  0  0  0  0  0  0  0  0  0  0  0
    3.3978   -2.3260    0.0000 C   0  0  0  0  0  0  0  0  0  0  0  0
    5.5642   -2.3260    0.0000 C   0  0  0  0  0  0  0  0  0  0  0  0
    5.1461   -1.0642    0.0000 N   0  3  0  0  0  0  0  0  0  0  0  0
    4.4772   -3.1090    0.0000 N   0  0  0  0  0  0  0  0  0  0  0  0
    1.3226   -6.2635    0.0000 C   0  0  0  0  0  0  0  0  0  0  0  0
    0.0000   -6.2635    0.0000 F   0  0  0  0  0  0  0  0  0  0  0  0
    1.3226   -7.6014    0.0000 F   0  0  0  0  0  0  0  0  0  0  0  0
    1.3226   -4.9409    0.0000 F   0  0  0  0  0  0  0  0  0  0  0  0
    2.6605   -7.6014    0.0000 O   0  5  0  0  0  0  0  0  0  0  0  0
    2.6605   -4.9409    0.0000 O   0  0  0  0  0  0  0  0  0  0  0  0
    3.9831   -6.2635    0.0000 O   0  0  0  0  0  0  0  0  0  0  0  0
    2.6605   -6.2635    0.0000 S   0  0  0  0  0  0  0  0  0  0  0  0
  1  3  1  0  0  0  0
  2  9  1  0  0  0  0
  3  4  1  0  0  0  0
  4  5  1  0  0  0  0
  5 10  1  0  0  0  0
  6  7  2  0  0  0  0
  6  9  1  0  0  0  0
  7 10  1  0  0  0  0
  8  9  2  0  0  0  0
  8 10  1  0  0  0  0
 11 12  1  0  0  0  0
 11 13  1  0  0  0  0
 11 14  1  0  0  0  0
 11 18  1  0  0  0  0
 15 18  1  0  0  0  0
 16 18  2  0  0  0  0
 17 18  2  0  0  0  0
M  END
> <ID>
14095

> <Formula>
C9H15F3N2O3S

> <FW>
288.2872 (139.2176+149.0697)

> <DSSTox_CID>
29088

> <DSSTox_RID>
83307

> <DSSTox_GSID>
49232

> <DSSTox_FileID_Sort>
7982

> <TS_ChemName>
1-Butyl-3-methylimidazolium trifluoromethanesulfonate

> <TS_ChemName_Synonyms>


> <TS_CASRN>
174899-66-2

> <CASRN_ChemName_Relationship>
primary

> <TS_Description>
single chemical compound

> <ChemNote>


> <STRUCTURE_Shown>
tested chemical

> <STRUCTURE_Formula>
C9H15F3N2O3S

> <STRUCTURE_MW>
288.2872

> <STRUCTURE_ChemType>
defined organic

> <STRUCTURE_DefinedOrganicForm>
complex

> <STRUCTURE_IUPAC>
1-butyl-3-methyl-1H-imidazol-3-ium trifluoromethanesulfonate

> <STRUCTURE_SMILES>
CCCCn1cc[n+](C)c1.FC(F)(F)S([O-])(=O)=O

> <STRUCTURE_SMILES_Desalt>
CCCCn1cc[n+](C)c1

> <Substance_modify_yyyymmdd>
20111204

$$$$
