174899-90-2
ChemmineR-0915142007XD

 24 23  0  0  0  0  0  0  0  0  2 V2000
    0.0000   -2.9360    0.0000 C   0  0  0  0  0  0  0  0  0  0  0  0
    2.5744   -3.3321    0.0000 C   0  0  0  0  0  0  0  0  0  0  0  0
    4.8819   -1.6445    0.0000 C   0  0  0  0  0  0  0  0  0  0  0  0
    0.2669   -1.6617    0.0000 C   0  0  0  0  0  0  0  0  0  0  0  0
    3.2374    0.0000    0.0000 C   0  0  0  0  0  0  0  0  0  0  0  0
    1.9286    0.0000    0.0000 C   0  0  0  0  0  0  0  0  0  0  0  0
    2.5916   -2.0061    0.0000 C   0  0  0  0  0  0  0  0  0  0  0  0
    3.6334   -1.2485    0.0000 N   0  3  0  0  0  0  0  0  0  0  0  0
    1.5154   -1.2485    0.0000 N   0  0  0  0  0  0  0  0  0  0  0  0
    4.8044   -7.3013    0.0000 N   0  5  0  0  0  0  0  0  0  0  0  0
    6.5522   -4.7872    0.0000 C   0  0  0  0  0  0  0  0  0  0  0  0
    7.6801   -5.4501    0.0000 F   0  0  0  0  0  0  0  0  0  0  0  0
    5.4157   -4.1414    0.0000 F   0  0  0  0  0  0  0  0  0  0  0  0
    7.2066   -3.6506    0.0000 F   0  0  0  0  0  0  0  0  0  0  0  0
    7.0344   -6.5694    0.0000 O   0  0  0  0  0  0  0  0  0  0  0  0
    4.7699   -5.2607    0.0000 O   0  0  0  0  0  0  0  0  0  0  0  0
    5.9065   -5.9065    0.0000 S   0  0  0  0  0  0  0  0  0  0  0  0
    2.1783   -7.3013    0.0000 C   0  0  0  0  0  0  0  0  0  0  0  0
    0.8696   -7.3013    0.0000 F   0  0  0  0  0  0  0  0  0  0  0  0
    2.1783   -8.6100    0.0000 F   0  0  0  0  0  0  0  0  0  0  0  0
    2.1783   -5.9840    0.0000 F   0  0  0  0  0  0  0  0  0  0  0  0
    3.4957   -8.6100    0.0000 O   0  0  0  0  0  0  0  0  0  0  0  0
    3.4957   -5.9840    0.0000 O   0  0  0  0  0  0  0  0  0  0  0  0
    3.4957   -7.3013    0.0000 S   0  0  0  0  0  0  0  0  0  0  0  0
  1  4  1  0  0  0  0
  2  7  1  0  0  0  0
  3  8  1  0  0  0  0
  4  9  1  0  0  0  0
  5  6  2  0  0  0  0
  5  8  1  0  0  0  0
  6  9  1  0  0  0  0
  7  8  2  0  0  0  0
  7  9  1  0  0  0  0
 10 17  1  0  0  0  0
 10 24  1  0  0  0  0
 11 12  1  0  0  0  0
 11 13  1  0  0  0  0
 11 14  1  0  0  0  0
 11 17  1  0  0  0  0
 15 17  2  0  0  0  0
 16 17  2  0  0  0  0
 18 19  1  0  0  0  0
 18 20  1  0  0  0  0
 18 21  1  0  0  0  0
 18 24  1  0  0  0  0
 22 24  2  0  0  0  0
 23 24  2  0  0  0  0
M  END
> <ID>
14098

> <Formula>
C9H13F6N3O4S2

> <FW>
405.3376 (125.1910+280.1467)

> <DSSTox_CID>
29091

> <DSSTox_RID>
83310

> <DSSTox_GSID>
49235

> <DSSTox_FileID_Sort>
7985

> <TS_ChemName>
1-Ethyl-2,3-dimethylimidazolium bis(trifluoromethylsulfonyl)imide

> <TS_ChemName_Synonyms>


> <TS_CASRN>
174899-90-2

> <CASRN_ChemName_Relationship>
primary

> <TS_Description>
single chemical compound

> <ChemNote>


> <STRUCTURE_Shown>
tested chemical

> <STRUCTURE_Formula>
C9H13F6N3O4S2

> <STRUCTURE_MW>
405.3376

> <STRUCTURE_ChemType>
defined organic

> <STRUCTURE_DefinedOrganicForm>
complex

> <STRUCTURE_IUPAC>
1-ethyl-2,3-dimethyl-1H-imidazol-3-ium bis[(trifluoromethyl)sulfonyl]azanide

> <STRUCTURE_SMILES>
C[n+]1ccn(CC)c1C.FC(F)(F)S(=O)(=O)[N-]S(=O)(=O)C(F)(F)F

> <STRUCTURE_SMILES_Desalt>
O=S(=O)(NS(=O)(=O)C(F)(F)F)C(F)(F)F

> <Substance_modify_yyyymmdd>
20111204

$$$$
