17506-66-0
ChemmineR-0915142007XD

 29 31  0  0  0  0  0  0  0  0  1 V2000
    6.7081   -1.9968    0.0000 C    0  0  0  0  0  0  0  0  0  0  0  0
    4.5085   -0.7332    0.0000 C    0  0  0  0  0  0  0  0  0  0  0  0
    4.5085   -1.9968    0.0000 C    0  0  0  0  0  0  0  0  0  0  0  0
    5.6005   -0.0468    0.0000 N    0  0  0  0  0  0  0  0  0  0  0  0
    6.7081   -0.7332    0.0000 C    0  0  0  0  0  0  0  0  0  0  0  0
   12.2618   -3.9469    0.0000 N    0  0  0  0  0  0  0  0  0  0  0  0
    3.3385   -2.6832    0.0000 C    0  0  0  0  0  0  0  0  0  0  0  0
    3.3385   -0.0468    0.0000 C    0  0  0  0  0  0  0  0  0  0  0  0
    2.2464   -1.9968    0.0000 C    0  0  0  0  0  0  0  0  0  0  0  0
    2.2464   -0.7332    0.0000 C    0  0  0  0  0  0  0  0  0  0  0  0
    7.8469   -2.6832    0.0000 C    0  0  0  0  0  0  0  0  0  0  0  0
   10.0466   -2.6832    0.0000 N    0  0  0  0  0  0  0  0  0  0  0  0
   11.1542   -4.6333    0.0000 C    0  0  0  0  0  0  0  0  0  0  0  0
   12.2618   -2.6832    0.0000 C    0  0  0  0  0  0  0  0  0  0  0  0
   13.3382   -4.6333    0.0000 C    0  0  0  0  0  0  0  0  0  0  0  0
    8.9545   -1.9968    0.0000 C    0  0  0  0  0  0  0  0  0  0  0  0
   10.0466   -3.9469    0.0000 C    0  0  0  0  0  0  0  0  0  0  0  0
   11.1542   -1.9968    0.0000 C    0  0  0  0  0  0  0  0  0  0  0  0
    1.1076   -2.6832    0.0000 O    0  0  0  0  0  0  0  0  0  0  0  0
    1.1076    0.0000    0.0000 O    0  0  0  0  0  0  0  0  0  0  0  0
    7.8469   -0.0468    0.0000 C    0  0  0  0  0  0  0  0  0  0  0  0
   13.3382   -5.8969    0.0000 C    0  0  0  0  0  0  0  0  0  0  0  0
   14.4926   -3.9469    0.0000 C    0  0  0  0  0  0  0  0  0  0  0  0
    0.0000   -1.9968    0.0000 C    0  0  0  0  0  0  0  0  0  0  0  0
    0.0000   -0.6708    0.0000 C    0  0  0  0  0  0  0  0  0  0  0  0
   15.6002   -4.6333    0.0000 C    0  0  0  0  0  0  0  0  0  0  0  0
   14.4926   -6.5677    0.0000 C    0  0  0  0  0  0  0  0  0  0  0  0
   15.6002   -5.8969    0.0000 C    0  0  0  0  0  0  0  0  0  0  0  0
    5.2729   -4.6801    0.0000 Cl   0  0  0  0  0  0  0  0  0  0  0  0
  1  3  1  0  0  0  0
  1  5  2  0  0  0  0
  1 11  1  0  0  0  0
  2  3  2  0  0  0  0
  2  8  1  0  0  0  0
  2  4  1  0  0  0  0
  3  7  1  0  0  0  0
  4  5  1  0  0  0  0
  5 21  1  0  0  0  0
  6 14  1  0  0  0  0
  6 15  1  0  0  0  0
  6 13  1  0  0  0  0
  7  9  2  0  0  0  0
  8 10  2  0  0  0  0
  9 10  1  0  0  0  0
  9 19  1  0  0  0  0
 10 20  1  0  0  0  0
 11 16  1  0  0  0  0
 12 16  1  0  0  0  0
 12 17  1  0  0  0  0
 12 18  1  0  0  0  0
 13 17  1  0  0  0  0
 14 18  1  0  0  0  0
 15 22  2  0  0  0  0
 15 23  1  0  0  0  0
 19 24  1  0  0  0  0
 20 25  1  0  0  0  0
 22 27  1  0  0  0  0
 23 26  2  0  0  0  0
 26 28  1  0  0  0  0
 27 28  2  0  0  0  0
M  END
> <ID>
13742

> <Formula>
C23H30ClN3O2

> <FW>
415.9562 (379.4953+36.4609)

> <DSSTox_CID>
28677

> <DSSTox_RID>
82947

> <DSSTox_GSID>
48751

> <DSSTox_FileID_Sort>
7624

> <TS_ChemName>
Oxypertine hydrochloride

> <TS_ChemName_Synonyms>
Equipertine hydrochloride

> <TS_CASRN>
17506-66-0

> <CASRN_ChemName_Relationship>
primary

> <TS_Description>
single chemical compound

> <ChemNote>


> <STRUCTURE_Shown>
tested chemical

> <STRUCTURE_Formula>
C23H30ClN3O2

> <STRUCTURE_MW>
415.9562

> <STRUCTURE_ChemType>
defined organic

> <STRUCTURE_DefinedOrganicForm>
complex

> <STRUCTURE_IUPAC>
5,6-dimethoxy-2-methyl-3-[2-(4-phenylpiperazin-1-yl)ethyl]-1H-indole hydrochloride (1:1)

> <STRUCTURE_SMILES>
Cl.COc3cc4nc(C)c(CCN1CCN(CC1)c2ccccc2)c4cc3OC

> <STRUCTURE_SMILES_Desalt>
COc3cc4nc(C)c(CCN1CCN(CC1)c2ccccc2)c4cc3OC

> <Substance_modify_yyyymmdd>
20111204

$$$$
