175013-18-0
ChemmineR-0915142007XD

 27 29  0  0  0  0  0  0  0  0  1 V2000
   11.6434    0.0000    0.0000 C    0  0  0  0  0  0  0  0  0  0  0  0
   10.3250    0.0000    0.0000 O    0  0  0  0  0  0  0  0  0  0  0  0
    9.6597   -1.1582    0.0000 N    0  0  0  0  0  0  0  0  0  0  0  0
   10.3250   -2.3040    0.0000 C    0  0  0  0  0  0  0  0  0  0  0  0
   11.6434   -2.3040    0.0000 C    0  0  0  0  0  0  0  0  0  0  0  0
   12.3210   -3.4622    0.0000 C    0  0  0  0  0  0  0  0  0  0  0  0
   11.6434   -4.6204    0.0000 C    0  0  0  0  0  0  0  0  0  0  0  0
   10.3250   -4.6204    0.0000 C    0  0  0  0  0  0  0  0  0  0  0  0
    9.6597   -3.4622    0.0000 C    0  0  0  0  0  0  0  0  0  0  0  0
    8.3414   -3.4622    0.0000 C    0  0  0  0  0  0  0  0  0  0  0  0
    7.6637   -4.6204    0.0000 O    0  0  0  0  0  0  0  0  0  0  0  0
    6.3330   -4.6204    0.0000 C    0  0  0  0  0  0  0  0  0  0  0  0
    5.5691   -5.6923    0.0000 N    0  0  0  0  0  0  0  0  0  0  0  0
    4.3000   -5.2734    0.0000 N    0  0  0  0  0  0  0  0  0  0  0  0
    4.3000   -3.9427    0.0000 C    0  0  0  0  0  0  0  0  0  0  0  0
    5.5691   -3.5361    0.0000 C    0  0  0  0  0  0  0  0  0  0  0  0
    3.2158   -6.0496    0.0000 C    0  0  0  0  0  0  0  0  0  0  0  0
    3.3636   -7.3803    0.0000 C    0  0  0  0  0  0  0  0  0  0  0  0
    2.2917   -8.1565    0.0000 C    0  0  0  0  0  0  0  0  0  0  0  0
    1.0719   -7.6267    0.0000 C    0  0  0  0  0  0  0  0  0  0  0  0
    0.9241   -6.2961    0.0000 C    0  0  0  0  0  0  0  0  0  0  0  0
    2.0207   -5.5075    0.0000 C    0  0  0  0  0  0  0  0  0  0  0  0
    0.0000   -8.3906    0.0000 Cl   0  0  0  0  0  0  0  0  0  0  0  0
    8.3414   -1.1582    0.0000 C    0  0  0  0  0  0  0  0  0  0  0  0
    7.6637    0.0000    0.0000 O    0  0  0  0  0  0  0  0  0  0  0  0
    7.6637   -2.3040    0.0000 O    0  0  0  0  0  0  0  0  0  0  0  0
    6.3330   -2.3040    0.0000 C    0  0  0  0  0  0  0  0  0  0  0  0
  1  2  1  0  0  0  0
  2  3  1  0  0  0  0
  3  4  1  0  0  0  0
  3 24  1  0  0  0  0
  4  5  1  0  0  0  0
  4  9  2  0  0  0  0
  5  6  2  0  0  0  0
  6  7  1  0  0  0  0
  7  8  2  0  0  0  0
  8  9  1  0  0  0  0
  9 10  1  0  0  0  0
 10 11  1  0  0  0  0
 11 12  1  0  0  0  0
 12 13  2  0  0  0  0
 12 16  1  0  0  0  0
 13 14  1  0  0  0  0
 14 15  1  0  0  0  0
 14 17  1  0  0  0  0
 15 16  2  0  0  0  0
 17 18  1  0  0  0  0
 17 22  2  0  0  0  0
 18 19  2  0  0  0  0
 19 20  1  0  0  0  0
 20 21  2  0  0  0  0
 20 23  1  0  0  0  0
 21 22  1  0  0  0  0
 24 25  2  0  0  0  0
 24 26  1  0  0  0  0
 26 27  1  0  0  0  0
M  END
> <ID>
6556

> <Formula>
C19H18ClN3O4

> <FW>
387.8169

> <DSSTox_CID>
12638

> <DSSTox_RID>
79017

> <DSSTox_GSID>
32638

> <DSSTox_FileID_Sort>
3699

> <TS_ChemName>
Pyraclostrobin

> <TS_ChemName_Synonyms>
Pyraclostrobin (Carbamic acid, [2-[[[1-(4-chlorophenyl)-1H-pyrazol-3-yl]oxy]methyl]phenyl]methoxy-, methyl ester)

> <TS_CASRN>
175013-18-0

> <CASRN_ChemName_Relationship>
primary

> <TS_Description>
single chemical compound

> <ChemNote>


> <STRUCTURE_Shown>
tested chemical

> <STRUCTURE_Formula>
C19H18ClN3O4

> <STRUCTURE_MW>
387.8169

> <STRUCTURE_ChemType>
defined organic

> <STRUCTURE_DefinedOrganicForm>
parent

> <STRUCTURE_IUPAC>
methyl [2-({[1-(4-chlorophenyl)-1H-pyrazol-3-yl]oxy}methyl)phenyl]methoxycarbamate

> <STRUCTURE_SMILES>
O=C(OC)N(OC)c3ccccc3COc1ccn(n1)c2ccc(Cl)cc2

> <STRUCTURE_SMILES_Desalt>
O=C(OC)N(OC)c3ccccc3COc1ccn(n1)c2ccc(Cl)cc2

> <Substance_modify_yyyymmdd>
20080429

$$$$
