17526-94-2
ChemmineR-0915142007XD

 19 19  0  0  0  0  0  0  0  0  1 V2000
    2.2994   -4.0084    0.0000 C   0  0  0  0  0  0  0  0  0  0  0  0
    3.4491   -4.6505    0.0000 O   0  0  0  0  0  0  0  0  0  0  0  0
    2.2890   -2.6826    0.0000 N   0  0  0  0  0  0  0  0  0  0  0  0
    1.1497   -4.6816    0.0000 N   0  0  0  0  0  0  0  0  0  0  0  0
    0.0000   -4.0291    0.0000 C   0  0  0  0  0  0  0  0  0  0  0  0
    1.1497   -6.0074    0.0000 C   0  0  0  0  0  0  0  0  0  0  0  0
    8.0375   -1.9472    0.0000 C   0  0  0  0  0  0  0  0  0  0  0  0
    8.0375   -0.6215    0.0000 O   0  0  0  0  0  0  0  0  0  0  0  0
    6.8878   -2.6308    0.0000 N   0  0  0  0  0  0  0  0  0  0  0  0
    9.2079   -2.6205    0.0000 N   0  0  0  0  0  0  0  0  0  0  0  0
    9.2182   -3.9462    0.0000 C   0  0  0  0  0  0  0  0  0  0  0  0
   10.3576   -1.9265    0.0000 C   0  0  0  0  0  0  0  0  0  0  0  0
    5.7381   -1.9783    0.0000 C   0  0  0  0  0  0  0  0  0  0  0  0
    4.5988   -2.6515    0.0000 C   0  0  0  0  0  0  0  0  0  0  0  0
    3.4387   -1.9990    0.0000 C   0  0  0  0  0  0  0  0  0  0  0  0
    3.4387   -0.6732    0.0000 C   0  0  0  0  0  0  0  0  0  0  0  0
    4.5677    0.0000    0.0000 C   0  0  0  0  0  0  0  0  0  0  0  0
    5.7381   -0.6525    0.0000 C   0  0  0  0  0  0  0  0  0  0  0  0
    2.2683   -0.0104    0.0000 C   0  0  0  0  0  0  0  0  0  0  0  0
  1  2  2  0  0  0  0
  1  3  1  0  0  0  0
  1  4  1  0  0  0  0
  3 15  1  0  0  0  0
  4  5  1  0  0  0  0
  4  6  1  0  0  0  0
  7  8  2  0  0  0  0
  7  9  1  0  0  0  0
  7 10  1  0  0  0  0
  9 13  1  0  0  0  0
 10 11  1  0  0  0  0
 10 12  1  0  0  0  0
 13 18  2  0  0  0  0
 13 14  1  0  0  0  0
 14 15  2  0  0  0  0
 15 16  1  0  0  0  0
 16 17  2  0  0  0  0
 16 19  1  0  0  0  0
 17 18  1  0  0  0  0
M  END
> <ID>
10260

> <Formula>
C13H20N4O2

> <FW>
264.3235

> <DSSTox_CID>
24606

> <DSSTox_RID>
80346

> <DSSTox_GSID>
44606

> <DSSTox_FileID_Sort>
5028

> <TS_ChemName>
3,3'-(4-Methylbenzene-1,3-diyl)bis(1,1-dimethylurea)

> <TS_ChemName_Synonyms>
3,3'-(4-Methylbenzene-1,3-diyl)bis(1,1-dimethylurea) (Urea, N,N''-(4-methyl-1,3-phenylene)bis[N',N'-dimethyl-)

> <TS_CASRN>
17526-94-2

> <CASRN_ChemName_Relationship>
primary

> <TS_Description>
single chemical compound

> <ChemNote>


> <STRUCTURE_Shown>
tested chemical

> <STRUCTURE_Formula>
C13H20N4O2

> <STRUCTURE_MW>
264.3235

> <STRUCTURE_ChemType>
defined organic

> <STRUCTURE_DefinedOrganicForm>
parent

> <STRUCTURE_IUPAC>
3,3'-(4-methylbenzene-1,3-diyl)bis(1,1-dimethylurea)

> <STRUCTURE_SMILES>
O=C(Nc1cc(ccc1C)NC(=O)N(C)C)N(C)C

> <STRUCTURE_SMILES_Desalt>
O=C(Nc1cc(ccc1C)NC(=O)N(C)C)N(C)C

> <Substance_modify_yyyymmdd>
20091116

$$$$
