1754-62-7
ChemmineR-0915142007XD

 12 12  0  0  0  0  0  0  0  0  1 V2000
    5.7610   -1.3071    0.0000 C   0  0  0  0  0  0  0  0  0  0  0  0
    4.5991   -1.9849    0.0000 C   0  0  0  0  0  0  0  0  0  0  0  0
    3.4372   -1.3071    0.0000 C   0  0  0  0  0  0  0  0  0  0  0  0
    5.7610    0.0000    0.0000 O   0  0  0  0  0  0  0  0  0  0  0  0
    6.9229   -1.9849    0.0000 O   0  0  0  0  0  0  0  0  0  0  0  0
    2.2915   -1.9849    0.0000 C   0  0  0  0  0  0  0  0  0  0  0  0
    1.1296   -1.3071    0.0000 C   0  0  0  0  0  0  0  0  0  0  0  0
    2.2915   -3.3081    0.0000 C   0  0  0  0  0  0  0  0  0  0  0  0
    0.0000   -1.9849    0.0000 C   0  0  0  0  0  0  0  0  0  0  0  0
    1.1296   -3.9698    0.0000 C   0  0  0  0  0  0  0  0  0  0  0  0
    0.0000   -3.3081    0.0000 C   0  0  0  0  0  0  0  0  0  0  0  0
    8.0686   -1.3071    0.0000 C   0  0  0  0  0  0  0  0  0  0  0  0
  1  2  1  0  0  0  0
  1  4  2  0  0  0  0
  1  5  1  0  0  0  0
  2  3  2  0  0  0  0
  3  6  1  0  0  0  0
  5 12  1  0  0  0  0
  6  7  2  0  0  0  0
  6  8  1  0  0  0  0
  7  9  1  0  0  0  0
  8 10  2  0  0  0  0
  9 11  2  0  0  0  0
 10 11  1  0  0  0  0
M  END
> <ID>
9082

> <Formula>
C10H10O2

> <FW>
162.1852

> <DSSTox_CID>
22151

> <DSSTox_RID>
80147

> <DSSTox_GSID>
44314

> <DSSTox_FileID_Sort>
4829

> <TS_ChemName>
Methyl (E)-cinnamate

> <TS_ChemName_Synonyms>
Methyl (E)-cinnamate (Methyl trans-cinnamate)

> <TS_CASRN>
1754-62-7

> <CASRN_ChemName_Relationship>
primary

> <TS_Description>
single chemical compound

> <ChemNote>
stereochem

> <STRUCTURE_Shown>
tested chemical

> <STRUCTURE_Formula>
C10H10O2

> <STRUCTURE_MW>
162.1852

> <STRUCTURE_ChemType>
defined organic

> <STRUCTURE_DefinedOrganicForm>
parent

> <STRUCTURE_IUPAC>
methyl (2E)-3-phenylprop-2-enoate

> <STRUCTURE_SMILES>
O=C(/C=C/c1ccccc1)OC

> <STRUCTURE_SMILES_Desalt>
O=C(/C=C/c1ccccc1)OC

> <Substance_modify_yyyymmdd>
20090518

$$$$
