175481-36-4
ChemmineR-0915142007XD

 19 19  0  0  1  0  0  0  0  0  1 V2000
    7.9310   -7.1304    0.0000 C   0  0  0  0  0  0  0  0  0  0  0  0
    6.5999   -7.1304    0.0000 O   0  0  0  0  0  0  0  0  0  0  0  0
    5.9482   -5.9762    0.0000 C   0  0  0  0  0  0  0  0  0  0  0  0
    4.6171   -5.9762    0.0000 C   0  0  0  0  0  0  0  0  0  0  0  0
    3.2860   -5.9762    0.0000 H   0  0  0  0  0  0  0  0  0  0  0  0
    4.6171   -7.3073    0.0000 N   0  0  0  0  0  0  0  0  0  0  0  0
    3.4628   -7.9775    0.0000 C   0  0  0  0  0  0  0  0  0  0  0  0
    3.4628   -9.3087    0.0000 C   0  0  0  0  0  0  0  0  0  0  0  0
    2.3086   -7.3073    0.0000 O   0  0  0  0  0  0  0  0  0  0  0  0
    4.6171   -4.6450    0.0000 C   0  0  0  0  0  0  0  0  0  0  0  0
    5.7528   -3.9934    0.0000 O   0  0  0  0  0  0  0  0  0  0  0  0
    3.4628   -3.9934    0.0000 N   0  0  0  0  0  0  0  0  0  0  0  0
    3.4628   -2.6623    0.0000 C   0  0  0  0  0  0  0  0  0  0  0  0
    2.3086   -1.9827    0.0000 C   0  0  0  0  0  0  0  0  0  0  0  0
    1.1543   -2.6623    0.0000 C   0  0  0  0  0  0  0  0  0  0  0  0
    0.0000   -1.9827    0.0000 C   0  0  0  0  0  0  0  0  0  0  0  0
    0.0000   -0.6609    0.0000 C   0  0  0  0  0  0  0  0  0  0  0  0
    1.1543    0.0000    0.0000 C   0  0  0  0  0  0  0  0  0  0  0  0
    2.3086   -0.6609    0.0000 C   0  0  0  0  0  0  0  0  0  0  0  0
  1  2  1  0  0  0  0
  2  3  1  0  0  0  0
  3  4  1  0  0  0  0
  4  5  1  6  0  0  0
  4  6  1  0  0  0  0
  4 10  1  0  0  0  0
  6  7  1  0  0  0  0
  7  8  1  0  0  0  0
  7  9  2  0  0  0  0
 10 11  2  0  0  0  0
 10 12  1  0  0  0  0
 12 13  1  0  0  0  0
 13 14  1  0  0  0  0
 14 15  2  0  0  0  0
 14 19  1  0  0  0  0
 15 16  1  0  0  0  0
 16 17  2  0  0  0  0
 17 18  1  0  0  0  0
 18 19  2  0  0  0  0
M  END
> <ID>
16069

> <Formula>
C13H18N2O3

> <FW>
250.2936

> <DSSTox_CID>
31455

> <DSSTox_RID>
97341

> <DSSTox_GSID>
57666

> <DSSTox_FileID_Sort>
8408

> <TS_ChemName>
Lacosamide

> <TS_ChemName_Synonyms>
Erlosamide

> <TS_CASRN>
175481-36-4

> <CASRN_ChemName_Relationship>
primary

> <TS_Description>
single chemical compound

> <ChemNote>


> <STRUCTURE_Shown>
tested chemical

> <STRUCTURE_Formula>
C13H18N2O3

> <STRUCTURE_MW>
250.2936

> <STRUCTURE_ChemType>
defined organic

> <STRUCTURE_DefinedOrganicForm>
parent

> <STRUCTURE_IUPAC>
N~2~-acetyl-N-benzyl-O-methylserinamide

> <STRUCTURE_SMILES>
CC(=O)N[C@H](COC)C(=O)NCc1ccccc1

> <STRUCTURE_SMILES_Desalt>
CC(=O)N[C@H](COC)C(=O)NCc1ccccc1

> <Substance_modify_yyyymmdd>
20131121

$$$$
