17540-75-9
ChemmineR-0915142007XD

 19 19  0  0  0  0  0  0  0  0  1 V2000
    3.4475   -1.3169    0.0000 C   0  0  0  0  0  0  0  0  0  0  0  0
    3.4475    0.0000    0.0000 O   0  0  0  0  0  0  0  0  0  0  0  0
    4.5920   -2.0202    0.0000 C   0  0  0  0  0  0  0  0  0  0  0  0
    2.3029   -2.0202    0.0000 C   0  0  0  0  0  0  0  0  0  0  0  0
    2.3029   -3.3371    0.0000 C   0  0  0  0  0  0  0  0  0  0  0  0
    4.5920   -3.3371    0.0000 C   0  0  0  0  0  0  0  0  0  0  0  0
    3.4475   -3.9853    0.0000 C   0  0  0  0  0  0  0  0  0  0  0  0
    5.7641   -1.3514    0.0000 C   0  0  0  0  0  0  0  0  0  0  0  0
    5.7641    0.0000    0.0000 C   0  0  0  0  0  0  0  0  0  0  0  0
    6.8949   -2.0202    0.0000 C   0  0  0  0  0  0  0  0  0  0  0  0
    6.8949   -0.6688    0.0000 C   0  0  0  0  0  0  0  0  0  0  0  0
    1.1308   -1.3514    0.0000 C   0  0  0  0  0  0  0  0  0  0  0  0
    0.0000   -2.0478    0.0000 C   0  0  0  0  0  0  0  0  0  0  0  0
    1.1308   -0.0345    0.0000 C   0  0  0  0  0  0  0  0  0  0  0  0
    0.0000   -0.6826    0.0000 C   0  0  0  0  0  0  0  0  0  0  0  0
    3.4475   -5.3367    0.0000 C   0  0  0  0  0  0  0  0  0  0  0  0
    4.5920   -6.0055    0.0000 C   0  0  0  0  0  0  0  0  0  0  0  0
    5.7366   -5.3367    0.0000 C   0  0  0  0  0  0  0  0  0  0  0  0
    2.2684   -6.0055    0.0000 C   0  0  0  0  0  0  0  0  0  0  0  0
  1  2  1  0  0  0  0
  1  3  2  0  0  0  0
  1  4  1  0  0  0  0
  3  6  1  0  0  0  0
  3  8  1  0  0  0  0
  4  5  2  0  0  0  0
  4 12  1  0  0  0  0
  5  7  1  0  0  0  0
  6  7  2  0  0  0  0
  7 16  1  0  0  0  0
  8  9  1  0  0  0  0
  8 10  1  0  0  0  0
  8 11  1  0  0  0  0
 12 13  1  0  0  0  0
 12 14  1  0  0  0  0
 12 15  1  0  0  0  0
 16 17  1  0  0  0  0
 16 19  1  0  0  0  0
 17 18  1  0  0  0  0
M  END
> <ID>
5941

> <Formula>
C18H30O

> <FW>
262.4302

> <DSSTox_CID>
9315

> <DSSTox_RID>
78760

> <DSSTox_GSID>
29315

> <DSSTox_FileID_Sort>
3442

> <TS_ChemName>
4-(Butan-2-yl)-2,6-di-tert-butylphenol

> <TS_ChemName_Synonyms>
4-(Butan-2-yl)-2,6-di-tert-butylphenol (2,6-Di-tert-butyl-4-sec-butylphenol)

> <TS_CASRN>
17540-75-9

> <CASRN_ChemName_Relationship>
primary

> <TS_Description>
single chemical compound

> <ChemNote>


> <STRUCTURE_Shown>
tested chemical

> <STRUCTURE_Formula>
C18H30O

> <STRUCTURE_MW>
262.4302

> <STRUCTURE_ChemType>
defined organic

> <STRUCTURE_DefinedOrganicForm>
parent

> <STRUCTURE_IUPAC>
4-(butan-2-yl)-2,6-di-tert-butylphenol

> <STRUCTURE_SMILES>
CC(C)(C)c1cc(cc(c1O)C(C)(C)C)C(C)CC

> <STRUCTURE_SMILES_Desalt>
CC(C)(C)c1cc(cc(c1O)C(C)(C)C)C(C)CC

> <Substance_modify_yyyymmdd>
20080429

$$$$
