17560-51-9
ChemmineR-0915142007XD

 24 26  0  0  0  0  0  0  0  0  1 V2000
    6.9672   -1.9891    0.0000 N    0  0  0  0  0  0  0  0  0  0  0  0
    5.8008   -2.6453    0.0000 C    0  0  0  0  0  0  0  0  0  0  0  0
    4.6552   -1.9891    0.0000 C    0  0  0  0  0  0  0  0  0  0  0  0
    1.1768   -2.6348    0.0000 S    0  0  0  0  0  0  0  0  0  0  0  0
    2.3641   -1.9891    0.0000 C    0  0  0  0  0  0  0  0  0  0  0  0
    6.9672   -0.6769    0.0000 C    0  0  0  0  0  0  0  0  0  0  0  0
    4.6552   -0.6561    0.0000 C    0  0  0  0  0  0  0  0  0  0  0  0
    5.8008    0.0000    0.0000 N    0  0  0  0  0  0  0  0  0  0  0  0
    3.5096   -2.6453    0.0000 C    0  0  0  0  0  0  0  0  0  0  0  0
    8.1232   -2.6348    0.0000 C    0  0  0  0  0  0  0  0  0  0  0  0
    2.3641   -0.6769    0.0000 C    0  0  0  0  0  0  0  0  0  0  0  0
    3.5096    0.0000    0.0000 C    0  0  0  0  0  0  0  0  0  0  0  0
    5.8008   -3.9783    0.0000 O    0  0  0  0  0  0  0  0  0  0  0  0
    1.8225   -3.8012    0.0000 O    0  0  0  0  0  0  0  0  0  0  0  0
    0.5311   -1.4580    0.0000 O    0  0  0  0  0  0  0  0  0  0  0  0
    0.0000   -3.2805    0.0000 N    0  0  0  0  0  0  0  0  0  0  0  0
    8.1232   -3.9575    0.0000 C    0  0  0  0  0  0  0  0  0  0  0  0
    1.1768   -0.0312    0.0000 Cl   0  0  0  0  0  0  0  0  0  0  0  0
    8.1545   -0.0312    0.0000 C    0  0  0  0  0  0  0  0  0  0  0  0
    9.2480   -1.9891    0.0000 C    0  0  0  0  0  0  0  0  0  0  0  0
    6.9568   -4.6552    0.0000 C    0  0  0  0  0  0  0  0  0  0  0  0
    9.2480   -4.6240    0.0000 C    0  0  0  0  0  0  0  0  0  0  0  0
   10.4144   -2.6453    0.0000 C    0  0  0  0  0  0  0  0  0  0  0  0
   10.4144   -3.9470    0.0000 C    0  0  0  0  0  0  0  0  0  0  0  0
  1  2  1  0  0  0  0
  1  6  1  0  0  0  0
  1 10  1  0  0  0  0
  2  3  1  0  0  0  0
  2 13  2  0  0  0  0
  3  9  2  0  0  0  0
  3  7  1  0  0  0  0
  4  5  1  0  0  0  0
  4 14  2  0  0  0  0
  4 15  2  0  0  0  0
  4 16  1  0  0  0  0
  5  9  1  0  0  0  0
  5 11  2  0  0  0  0
  6  8  1  0  0  0  0
  6 19  1  0  0  0  0
  7  8  1  0  0  0  0
  7 12  2  0  0  0  0
 10 17  1  0  0  0  0
 10 20  2  0  0  0  0
 11 12  1  0  0  0  0
 11 18  1  0  0  0  0
 17 21  1  0  0  0  0
 17 22  2  0  0  0  0
 20 23  1  0  0  0  0
 22 24  1  0  0  0  0
 23 24  2  0  0  0  0
M  END
> <ID>
10786

> <Formula>
C16H16ClN3O3S

> <FW>
365.8345

> <DSSTox_CID>
25167

> <DSSTox_RID>
80717

> <DSSTox_GSID>
45167

> <DSSTox_FileID_Sort>
5398

> <TS_ChemName>
Metolazone

> <TS_ChemName_Synonyms>


> <TS_CASRN>
17560-51-9

> <CASRN_ChemName_Relationship>
primary

> <TS_Description>
single chemical compound

> <ChemNote>


> <STRUCTURE_Shown>
tested chemical

> <STRUCTURE_Formula>
C16H16ClN3O3S

> <STRUCTURE_MW>
365.8345

> <STRUCTURE_ChemType>
defined organic

> <STRUCTURE_DefinedOrganicForm>
parent

> <STRUCTURE_IUPAC>
7-chloro-2-methyl-3-(2-methylphenyl)-4-oxo-1,2,3,4-tetrahydroquinazoline-6-sulfonamide

> <STRUCTURE_SMILES>
NS(=O)(=O)c1cc2C(=O)N(C(C)Nc2cc1Cl)c3ccccc3C

> <STRUCTURE_SMILES_Desalt>
NS(=O)(=O)c1cc2C(=O)N(C(C)Nc2cc1Cl)c3ccccc3C

> <Substance_modify_yyyymmdd>
20100107

$$$$
