17564-64-6
ChemmineR-0915142007XD

 13 14  0  0  0  0  0  0  0  0  1 V2000
    2.2941   -1.6857    0.0000 C    0  0  0  0  0  0  0  0  0  0  0  0
    2.2941   -3.0165    0.0000 C    0  0  0  0  0  0  0  0  0  0  0  0
    4.3473   -2.3384    0.0000 N    0  0  0  0  0  0  0  0  0  0  0  0
    3.5615   -1.2674    0.0000 C    0  0  0  0  0  0  0  0  0  0  0  0
    3.5615   -3.4158    0.0000 C    0  0  0  0  0  0  0  0  0  0  0  0
    1.1407   -1.0076    0.0000 C    0  0  0  0  0  0  0  0  0  0  0  0
    1.1407   -3.6692    0.0000 C    0  0  0  0  0  0  0  0  0  0  0  0
    0.0000   -3.0165    0.0000 C    0  0  0  0  0  0  0  0  0  0  0  0
    0.0000   -1.6857    0.0000 C    0  0  0  0  0  0  0  0  0  0  0  0
    3.9798   -4.6832    0.0000 O    0  0  0  0  0  0  0  0  0  0  0  0
    3.9798    0.0000    0.0000 O    0  0  0  0  0  0  0  0  0  0  0  0
    5.6781   -2.3384    0.0000 C    0  0  0  0  0  0  0  0  0  0  0  0
    6.3372   -1.1851    0.0000 Cl   0  0  0  0  0  0  0  0  0  0  0  0
  1  2  2  0  0  0  0
  1  4  1  0  0  0  0
  1  6  1  0  0  0  0
  2  5  1  0  0  0  0
  2  7  1  0  0  0  0
  3  4  1  0  0  0  0
  3  5  1  0  0  0  0
  3 12  1  0  0  0  0
  4 11  2  0  0  0  0
  5 10  2  0  0  0  0
  6  9  2  0  0  0  0
  7  8  2  0  0  0  0
  8  9  1  0  0  0  0
 12 13  1  0  0  0  0
M  END
> <ID>
5397

> <Formula>
C9H6ClNO2

> <FW>
195.6024

> <DSSTox_CID>
7790

> <DSSTox_RID>
78566

> <DSSTox_GSID>
27790

> <DSSTox_FileID_Sort>
3249

> <TS_ChemName>
2-(Chloromethyl)-1H-isoindole-1,3(2H)-dione

> <TS_ChemName_Synonyms>


> <TS_CASRN>
17564-64-6

> <CASRN_ChemName_Relationship>
primary

> <TS_Description>
single chemical compound

> <ChemNote>


> <STRUCTURE_Shown>
tested chemical

> <STRUCTURE_Formula>
C9H6ClNO2

> <STRUCTURE_MW>
195.6024

> <STRUCTURE_ChemType>
defined organic

> <STRUCTURE_DefinedOrganicForm>
parent

> <STRUCTURE_IUPAC>
2-(chloromethyl)-1H-isoindole-1,3(2H)-dione

> <STRUCTURE_SMILES>
O=C2c1ccccc1C(=O)N2CCl

> <STRUCTURE_SMILES_Desalt>
O=C2c1ccccc1C(=O)N2CCl

> <Substance_modify_yyyymmdd>
20080429

$$$$
