17575-21-2
ChemmineR-0915142007XD

 71 79  0  0  1  0  0  0  0  0  1 V2000
   28.0202   -6.2512    0.0000 C   0  0  0  0  0  0  0  0  0  0  0  0
   28.0202   -4.9632    0.0000 C   0  0  0  0  0  0  0  0  0  0  0  0
   24.6276   -6.8794    0.0000 C   0  0  0  0  0  0  0  0  0  0  0  0
   29.1511   -2.9842    0.0000 C   0  0  0  0  0  0  0  0  0  0  0  0
   26.8894   -6.8794    0.0000 C   0  0  0  0  0  0  0  0  0  0  0  0
   29.1511   -4.3350    0.0000 C   0  0  0  0  0  0  0  0  0  0  0  0
   30.2505   -6.2512    0.0000 C   0  0  0  0  0  0  0  0  0  0  0  0
   25.7899   -6.2512    0.0000 C   0  0  0  0  0  0  0  0  0  0  0  0
   30.2505   -4.9632    0.0000 C   0  0  0  0  0  0  0  0  0  0  0  0
   28.1145   -2.2617    0.0000 C   0  0  0  0  0  0  0  0  0  0  0  0
   24.6276   -8.1673    0.0000 C   0  0  0  0  0  0  0  0  0  0  0  0
   26.8894   -4.3350    0.0000 C   0  0  0  0  0  0  0  0  0  0  0  0
   28.3972   -1.0052    0.0000 C   0  0  0  0  0  0  0  0  0  0  0  0
   25.7899   -4.9632    0.0000 C   0  0  0  0  0  0  0  0  0  0  0  0
   29.8422   -1.0052    0.0000 O   0  0  0  0  0  0  0  0  0  0  0  0
   23.5282   -6.2512    0.0000 C   0  0  0  0  0  0  0  0  0  0  0  0
   26.8894   -8.1673    0.0000 C   0  0  0  0  0  0  0  0  0  0  0  0
   30.2191   -2.1989    0.0000 C   0  0  0  0  0  0  0  0  0  0  0  0
   21.4550   -8.7328    0.0000 O   0  0  0  0  0  0  0  0  0  0  0  0
   23.5282   -8.7642    0.0000 C   0  0  0  0  0  0  0  0  0  0  0  0
   25.7899   -8.7642    0.0000 C   0  0  0  0  0  0  0  0  0  0  0  0
   28.0202   -7.7904    0.0000 O   0  0  0  0  0  0  0  0  0  0  0  0
   27.5805    0.0000    0.0000 O   0  0  0  0  0  0  0  0  0  0  0  0
   22.3973   -8.1673    0.0000 C   0  0  0  0  0  0  0  0  0  0  0  0
   28.0202   -3.5811    0.0000 C   0  0  0  0  0  0  0  0  0  0  0  0
   31.4128   -4.3664    0.0000 O   0  0  0  0  0  0  0  0  0  0  0  0
   22.3973   -6.8794    0.0000 C   0  0  0  0  0  0  0  0  0  0  0  0
   24.6276   -5.8114    0.0000 C   0  0  0  0  0  0  0  0  0  0  0  0
   26.8894   -5.5287    0.0000 H   0  0  0  0  0  0  0  0  0  0  0  0
   25.7899   -7.5705    0.0000 H   0  0  0  0  0  0  0  0  0  0  0  0
    3.8952   -8.7328    0.0000 C   0  0  0  0  0  0  0  0  0  0  0  0
    3.2669   -9.8636    0.0000 C   0  0  0  0  0  0  0  0  0  0  0  0
    1.9476   -9.8636    0.0000 C   0  0  0  0  0  0  0  0  0  0  0  0
    3.2669   -7.6019    0.0000 O   0  0  0  0  0  0  0  0  0  0  0  0
    5.1831   -8.7328    0.0000 O   0  0  0  0  0  0  0  0  0  0  0  0
    1.2879   -8.7328    0.0000 C   0  0  0  0  0  0  0  0  0  0  0  0
    1.9476   -7.6019    0.0000 C   0  0  0  0  0  0  0  0  0  0  0  0
    3.8952  -10.9631    0.0000 O   0  0  0  0  0  0  0  0  0  0  0  0
    1.2879  -10.9631    0.0000 O   0  0  0  0  0  0  0  0  0  0  0  0
    0.0000   -8.7328    0.0000 O   0  0  0  0  0  0  0  0  0  0  0  0
    1.2879   -6.4710    0.0000 C   0  0  0  0  0  0  0  0  0  0  0  0
    0.0000   -6.4710    0.0000 O   0  0  0  0  0  0  0  0  0  0  0  0
    6.5339   -8.7328    0.0000 C   0  0  0  0  0  0  0  0  0  0  0  0
    7.1935   -9.8950    0.0000 C   0  0  0  0  0  0  0  0  0  0  0  0
    9.2040   -8.7328    0.0000 C   0  0  0  0  0  0  0  0  0  0  0  0
    8.5443   -7.5705    0.0000 O   0  0  0  0  0  0  0  0  0  0  0  0
    8.5443   -9.8950    0.0000 C   0  0  0  0  0  0  0  0  0  0  0  0
    7.1935   -7.5705    0.0000 C   0  0  0  0  0  0  0  0  0  0  0  0
   10.5233   -8.7328    0.0000 O   0  0  0  0  0  0  0  0  0  0  0  0
    6.5339  -11.0259    0.0000 O   0  0  0  0  0  0  0  0  0  0  0  0
    7.1935  -12.1882    0.0000 C   0  0  0  0  0  0  0  0  0  0  0  0
    8.5443  -12.1882    0.0000 O   0  0  0  0  0  0  0  0  0  0  0  0
    6.5339   -6.4082    0.0000 C   0  0  0  0  0  0  0  0  0  0  0  0
    6.5339  -13.3504    0.0000 C   0  0  0  0  0  0  0  0  0  0  0  0
   17.2456   -8.7328    0.0000 C   0  0  0  0  0  0  0  0  0  0  0  0
   20.0414   -8.7328    0.0000 C   0  0  0  0  0  0  0  0  0  0  0  0
   19.3189   -7.5077    0.0000 O   0  0  0  0  0  0  0  0  0  0  0  0
   19.3189   -9.9264    0.0000 C   0  0  0  0  0  0  0  0  0  0  0  0
   17.9367   -9.9264    0.0000 C   0  0  0  0  0  0  0  0  0  0  0  0
   17.9367   -7.5077    0.0000 C   0  0  0  0  0  0  0  0  0  0  0  0
   15.8321   -8.7328    0.0000 O   0  0  0  0  0  0  0  0  0  0  0  0
   17.2456  -11.1515    0.0000 O   0  0  0  0  0  0  0  0  0  0  0  0
   17.2456   -6.3140    0.0000 C   0  0  0  0  0  0  0  0  0  0  0  0
   11.8740   -8.7328    0.0000 C   0  0  0  0  0  0  0  0  0  0  0  0
   14.5127   -8.7328    0.0000 C   0  0  0  0  0  0  0  0  0  0  0  0
   13.8531   -7.5705    0.0000 O   0  0  0  0  0  0  0  0  0  0  0  0
   13.8531   -9.8636    0.0000 C   0  0  0  0  0  0  0  0  0  0  0  0
   12.5337   -9.8636    0.0000 C   0  0  0  0  0  0  0  0  0  0  0  0
   12.5337   -7.5705    0.0000 C   0  0  0  0  0  0  0  0  0  0  0  0
   11.8740  -11.0259    0.0000 O   0  0  0  0  0  0  0  0  0  0  0  0
   11.8740   -6.4396    0.0000 C   0  0  0  0  0  0  0  0  0  0  0  0
  1  2  1  0  0  0  0
  1  5  1  0  0  0  0
  1  7  1  0  0  0  0
  1 22  1  1  0  0  0
  2  6  1  0  0  0  0
  2 12  1  0  0  0  0
  2 25  1  1  0  0  0
  3  8  1  0  0  0  0
  3 16  1  0  0  0  0
  3 28  1  1  0  0  0
  3 11  1  0  0  0  0
  6  4  1  1  0  0  0
  4 10  2  0  0  0  0
  4 18  1  0  0  0  0
  5  8  1  0  0  0  0
  5 17  1  0  0  0  0
  5 29  1  1  0  0  0
  6  9  1  0  0  0  0
  7  9  1  0  0  0  0
  8 14  1  0  0  0  0
  8 30  1  6  0  0  0
  9 26  1  1  0  0  0
 10 13  1  0  0  0  0
 11 21  1  0  0  0  0
 11 20  1  0  0  0  0
 12 14  1  0  0  0  0
 13 23  2  0  0  0  0
 13 15  1  0  0  0  0
 15 18  1  0  0  0  0
 16 27  1  0  0  0  0
 17 21  1  0  0  0  0
 19 24  1  0  0  0  0
 56 19  1  1  0  0  0
 20 24  1  0  0  0  0
 24 27  1  0  0  0  0
 31 35  1  1  0  0  0
 31 32  1  0  0  0  0
 31 34  1  0  0  0  0
 32 33  1  0  0  0  0
 32 38  1  6  0  0  0
 33 39  1  1  0  0  0
 33 36  1  0  0  0  0
 34 37  1  0  0  0  0
 43 35  1  6  0  0  0
 36 37  1  0  0  0  0
 36 40  1  6  0  0  0
 37 41  1  1  0  0  0
 41 42  1  0  0  0  0
 43 44  1  0  0  0  0
 43 48  1  0  0  0  0
 44 47  1  0  0  0  0
 44 50  1  6  0  0  0
 45 49  1  1  0  0  0
 45 46  1  0  0  0  0
 45 47  1  0  0  0  0
 46 48  1  0  0  0  0
 48 53  1  1  0  0  0
 64 49  1  6  0  0  0
 50 51  1  0  0  0  0
 51 52  2  0  0  0  0
 51 54  1  0  0  0  0
 55 59  1  0  0  0  0
 55 61  1  6  0  0  0
 55 60  1  0  0  0  0
 56 57  1  0  0  0  0
 56 58  1  0  0  0  0
 57 60  1  0  0  0  0
 58 59  1  0  0  0  0
 59 62  1  6  0  0  0
 60 63  1  1  0  0  0
 65 61  1  1  0  0  0
 64 68  1  0  0  0  0
 64 69  1  0  0  0  0
 65 66  1  0  0  0  0
 65 67  1  0  0  0  0
 66 69  1  0  0  0  0
 67 68  1  0  0  0  0
 68 70  1  6  0  0  0
 69 71  1  1  0  0  0
M  END
> <ID>
2873

> <Formula>
C49H76O20

> <FW>
985.1157

> <DSSTox_CID>
3197

> <DSSTox_RID>
76920

> <DSSTox_GSID>
23197

> <DSSTox_FileID_Sort>
1604

> <TS_ChemName>
Lanatoside B

> <TS_ChemName_Synonyms>


> <TS_CASRN>
17575-21-2

> <CASRN_ChemName_Relationship>
primary

> <TS_Description>
single chemical compound

> <ChemNote>
stereochem

> <STRUCTURE_Shown>
tested chemical

> <STRUCTURE_Formula>
C49H76O20

> <STRUCTURE_MW>
985.1157

> <STRUCTURE_ChemType>
defined organic

> <STRUCTURE_DefinedOrganicForm>
parent

> <STRUCTURE_IUPAC>
(16beta)-3-{[beta-D-glucopyranosyl-(1->4)-3-O-acetyl-2,6-dideoxy-beta-D-ribo-hexopyranosyl-(1->4)-2,6-dideoxy-beta-D-ribo-hexopyranosyl-(1->4)-2,6-dideoxy-beta-D-ribo-hexopyranosyl]oxy}-14,16-dihydroxycard-20(22)-enolide

> <STRUCTURE_SMILES>
O=C1C=C(CO1)[C@H]9[C@@H](O)C[C@@]8(O)[C@]9(C)CC[C@H]3[C@H]8CCC2CC(CC[C@@]23C)O[C@@H]7O[C@H](C)[C@@H](O[C@@H]6O[C@H](C)[C@@H](O[C@@H]5O[C@H](C)[C@@H](O[C@@H]4O[C@H](CO)[C@@H](O)[C@H](O)[C@H]4O)[C@@H](OC(C)=O)C5)[C@@H](O)C6)[C@@H](O)C7

> <STRUCTURE_SMILES_Desalt>
O=C1C=C(CO1)[C@H]9[C@@H](O)C[C@@]8(O)[C@]9(C)CC[C@H]3[C@H]8CCC2CC(CC[C@@]23C)O[C@@H]7O[C@H](C)[C@@H](O[C@@H]6O[C@H](C)[C@@H](O[C@@H]5O[C@H](C)[C@@H](O[C@@H]4O[C@H](CO)[C@@H](O)[C@H](O)[C@H]4O)[C@@H](OC(C)=O)C5)[C@@H](O)C6)[C@@H](O)C7

> <Substance_modify_yyyymmdd>
20080429

$$$$
