175865-59-5
ChemmineR-0915142007XD

 26 26  0  0  1  0  0  0  0  0  1 V2000
    1.1438   -5.0774    0.0000 N    0  0  0  0  0  0  0  0  0  0  0  0
    1.1438   -3.7383    0.0000 C    0  0  0  0  0  0  0  0  0  0  0  0
    2.3015   -3.0687    0.0000 N    0  0  0  0  0  0  0  0  0  0  0  0
    2.3015   -5.7190    0.0000 C    0  0  0  0  0  0  0  0  0  0  0  0
    3.4593   -5.0774    0.0000 C    0  0  0  0  0  0  0  0  0  0  0  0
    3.4593   -3.7383    0.0000 C    0  0  0  0  0  0  0  0  0  0  0  0
    4.7147   -3.3198    0.0000 N    0  0  0  0  0  0  0  0  0  0  0  0
    5.4958   -4.3939    0.0000 C    0  0  0  0  0  0  0  0  0  0  0  0
    4.7147   -5.4819    0.0000 N    0  0  0  0  0  0  0  0  0  0  0  0
    2.3015   -7.0581    0.0000 O    0  0  0  0  0  0  0  0  0  0  0  0
    0.0000   -3.0687    0.0000 N    0  0  0  0  0  0  0  0  0  0  0  0
    4.7147   -1.9807    0.0000 C    0  0  0  0  0  0  0  0  0  0  0  0
    5.8724   -1.3251    0.0000 O    0  0  0  0  0  0  0  0  0  0  0  0
    7.0162   -1.9807    0.0000 C    0  0  0  0  0  0  0  0  0  0  0  0
    8.1600   -1.3251    0.0000 C    0  0  0  0  0  0  0  0  0  0  0  0
    9.3317   -1.9807    0.0000 O    0  0  0  0  0  0  0  0  0  0  0  0
   10.4895   -1.3251    0.0000 C    0  0  0  0  0  0  0  0  0  0  0  0
   11.6333   -1.9807    0.0000 C    0  0  0  0  0  0  0  0  0  0  0  0
   12.7910   -1.3251    0.0000 C    0  0  0  0  0  0  0  0  0  0  0  0
   13.9488   -1.9807    0.0000 C    0  0  0  0  0  0  0  0  0  0  0  0
    7.0162   -3.3198    0.0000 C    0  0  0  0  0  0  0  0  0  0  0  0
    8.1600   -3.9754    0.0000 O    0  0  0  0  0  0  0  0  0  0  0  0
   10.4895    0.0000    0.0000 O    0  0  0  0  0  0  0  0  0  0  0  0
   11.6333   -3.3198    0.0000 N    0  0  0  0  0  0  0  0  0  0  0  0
   12.7910    0.0000    0.0000 C    0  0  0  0  0  0  0  0  0  0  0  0
    7.0441   -5.9422    0.0000 Cl   0  0  0  0  0  0  0  0  0  0  0  0
  1  2  2  0  0  0  0
  1  4  1  0  0  0  0
  2  3  1  0  0  0  0
  2 11  1  0  0  0  0
  3  6  1  0  0  0  0
  4  5  1  0  0  0  0
  4 10  2  0  0  0  0
  5  9  1  0  0  0  0
  5  6  2  0  0  0  0
  6  7  1  0  0  0  0
  7 12  1  0  0  0  0
  7  8  1  0  0  0  0
  8  9  2  0  0  0  0
 12 13  1  0  0  0  0
 13 14  1  0  0  0  0
 14 15  1  0  0  0  0
 14 21  1  0  0  0  0
 15 16  1  0  0  0  0
 16 17  1  0  0  0  0
 17 18  1  0  0  0  0
 17 23  2  0  0  0  0
 18 19  1  0  0  0  0
 18 24  1  6  0  0  0
 19 20  1  0  0  0  0
 19 25  1  0  0  0  0
 21 22  1  0  0  0  0
M  END
> <ID>
11966

> <Formula>
C14H23ClN6O5

> <FW>
390.8226 (354.3617+36.4609)

> <DSSTox_CID>
26784

> <DSSTox_RID>
81902

> <DSSTox_GSID>
46784

> <DSSTox_FileID_Sort>
6583

> <TS_ChemName>
Valganciclovir hydrochloride

> <TS_ChemName_Synonyms>


> <TS_CASRN>
175865-59-5

> <CASRN_ChemName_Relationship>
primary

> <TS_Description>
single chemical compound

> <ChemNote>
stereochem; tautomers; parent [175865-60-8]

> <STRUCTURE_Shown>
tested chemical

> <STRUCTURE_Formula>
C14H23ClN6O5

> <STRUCTURE_MW>
390.8226

> <STRUCTURE_ChemType>
defined organic

> <STRUCTURE_DefinedOrganicForm>
complex

> <STRUCTURE_IUPAC>
2-[(2-amino-6-oxo-3,6-dihydro-9H-purin-9-yl)methoxy]-3-hydroxypropyl L-valinate hydrochloride (1:1)

> <STRUCTURE_SMILES>
Cl.CC(C)[C@H](N)C(=O)OCC(CO)OCn2cnc1c2NC(N)=NC1=O

> <STRUCTURE_SMILES_Desalt>
CC(C)[C@H](N)C(=O)OCC(CO)OCn2cnc1c2NC(N)=NC1=O

> <Substance_modify_yyyymmdd>
20110802

$$$$
