1760-24-3
ChemmineR-0915142007XD

 14 13  0  0  0  0  0  0  0  0  1 V2000
    7.3018   -3.9253    0.0000 C    0  0  0  0  0  0  0  0  0  0  0  0
    7.9715   -5.0787    0.0000 C    0  0  0  0  0  0  0  0  0  0  0  0
    5.9717   -3.9253    0.0000 N    0  0  0  0  0  0  0  0  0  0  0  0
    9.3017   -5.0787    0.0000 N    0  0  0  0  0  0  0  0  0  0  0  0
    5.3113   -2.7719    0.0000 C    0  0  0  0  0  0  0  0  0  0  0  0
    3.9904   -2.7719    0.0000 C    0  0  0  0  0  0  0  0  0  0  0  0
    3.3114   -1.6185    0.0000 C    0  0  0  0  0  0  0  0  0  0  0  0
    1.9813   -1.6185    0.0000 Si   0  0  0  0  0  0  0  0  0  0  0  0
    1.9813   -0.2884    0.0000 O    0  0  0  0  0  0  0  0  0  0  0  0
    3.1719    0.0000    0.0000 C    0  0  0  0  0  0  0  0  0  0  0  0
    1.9813   -2.9486    0.0000 O    0  0  0  0  0  0  0  0  0  0  0  0
    0.7348   -3.6742    0.0000 C    0  0  0  0  0  0  0  0  0  0  0  0
    0.6604   -1.6185    0.0000 O    0  0  0  0  0  0  0  0  0  0  0  0
    0.0000   -0.4651    0.0000 C    0  0  0  0  0  0  0  0  0  0  0  0
  1  2  1  0  0  0  0
  1  3  1  0  0  0  0
  2  4  1  0  0  0  0
  3  5  1  0  0  0  0
  5  6  1  0  0  0  0
  6  7  1  0  0  0  0
  7  8  1  0  0  0  0
  8  9  1  0  0  0  0
  8 11  1  0  0  0  0
  8 13  1  0  0  0  0
  9 10  1  0  0  0  0
 11 12  1  0  0  0  0
 13 14  1  0  0  0  0
M  END
> <ID>
5157

> <Formula>
C8H22N2O3Si

> <FW>
222.3574

> <DSSTox_CID>
7433

> <DSSTox_RID>
78453

> <DSSTox_GSID>
27433

> <DSSTox_FileID_Sort>
3136

> <TS_ChemName>
N-[3-(Trimethoxysilyl)propyl]ethane-1,2-diamine

> <TS_ChemName_Synonyms>


> <TS_CASRN>
1760-24-3

> <CASRN_ChemName_Relationship>
primary

> <TS_Description>
single chemical compound

> <ChemNote>


> <STRUCTURE_Shown>
tested chemical

> <STRUCTURE_Formula>
C8H22N2O3Si

> <STRUCTURE_MW>
222.3574

> <STRUCTURE_ChemType>
organometallic

> <STRUCTURE_DefinedOrganicForm>


> <STRUCTURE_IUPAC>
N-[3-(trimethoxysilyl)propyl]ethane-1,2-diamine

> <STRUCTURE_SMILES>
CO[Si](CCCNCCN)(OC)OC

> <STRUCTURE_SMILES_Desalt>
CO[Si](CCCNCCN)(OC)OC

> <Substance_modify_yyyymmdd>
20080429

$$$$
