17617-23-1
ChemmineR-0915142007XD

 27 29  0  0  0  0  0  0  0  0  1 V2000
    0.0000   -3.5974    0.0000 C    0  0  0  0  0  0  0  0  0  0  0  0
    0.9467   -2.6507    0.0000 C    0  0  0  0  0  0  0  0  0  0  0  0
    2.2089   -2.9158    0.0000 C    0  0  0  0  0  0  0  0  0  0  0  0
    3.1430   -1.9691    0.0000 F    0  0  0  0  0  0  0  0  0  0  0  0
    2.6381   -4.2159    0.0000 C    0  0  0  0  0  0  0  0  0  0  0  0
    3.9130   -4.4936    0.0000 C    0  0  0  0  0  0  0  0  0  0  0  0
    4.2033   -5.7937    0.0000 N    0  0  0  0  0  0  0  0  0  0  0  0
    5.4024   -6.3743    0.0000 C    0  0  0  0  0  0  0  0  0  0  0  0
    6.6142   -5.7937    0.0000 C    0  0  0  0  0  0  0  0  0  0  0  0
    7.6492   -6.6268    0.0000 O    0  0  0  0  0  0  0  0  0  0  0  0
    6.9045   -4.4936    0.0000 N    0  0  0  0  0  0  0  0  0  0  0  0
    8.1794   -4.2159    0.0000 C    0  0  0  0  0  0  0  0  0  0  0  0
    9.1260   -5.1626    0.0000 C    0  0  0  0  0  0  0  0  0  0  0  0
   10.4009   -4.8344    0.0000 N    0  0  0  0  0  0  0  0  0  0  0  0
   11.3350   -5.7811    0.0000 C    0  0  0  0  0  0  0  0  0  0  0  0
   12.6225   -5.4277    0.0000 C    0  0  0  0  0  0  0  0  0  0  0  0
   10.7417   -3.5469    0.0000 C    0  0  0  0  0  0  0  0  0  0  0  0
    9.7950   -2.6002    0.0000 C    0  0  0  0  0  0  0  0  0  0  0  0
    6.0714   -3.4586    0.0000 C    0  0  0  0  0  0  0  0  0  0  0  0
    4.7461   -3.4586    0.0000 C    0  0  0  0  0  0  0  0  0  0  0  0
    4.0771   -2.3099    0.0000 C    0  0  0  0  0  0  0  0  0  0  0  0
    4.7461   -1.1486    0.0000 C    0  0  0  0  0  0  0  0  0  0  0  0
    4.0771    0.0000    0.0000 Cl   0  0  0  0  0  0  0  0  0  0  0  0
    6.0714   -1.1486    0.0000 C    0  0  0  0  0  0  0  0  0  0  0  0
    6.7404   -2.3099    0.0000 C    0  0  0  0  0  0  0  0  0  0  0  0
    1.6914   -5.1626    0.0000 C    0  0  0  0  0  0  0  0  0  0  0  0
    0.4165   -4.8849    0.0000 C    0  0  0  0  0  0  0  0  0  0  0  0
  1  2  2  0  0  0  0
  1 27  1  0  0  0  0
  2  3  1  0  0  0  0
  3  4  1  0  0  0  0
  3  5  2  0  0  0  0
  5  6  1  0  0  0  0
  5 26  1  0  0  0  0
  6  7  2  0  0  0  0
  6 20  1  0  0  0  0
  7  8  1  0  0  0  0
  8  9  1  0  0  0  0
  9 10  2  0  0  0  0
  9 11  1  0  0  0  0
 11 12  1  0  0  0  0
 11 19  1  0  0  0  0
 12 13  1  0  0  0  0
 13 14  1  0  0  0  0
 14 15  1  0  0  0  0
 14 17  1  0  0  0  0
 15 16  1  0  0  0  0
 17 18  1  0  0  0  0
 19 20  2  0  0  0  0
 19 25  1  0  0  0  0
 20 21  1  0  0  0  0
 21 22  2  0  0  0  0
 22 23  1  0  0  0  0
 22 24  1  0  0  0  0
 24 25  2  0  0  0  0
 26 27  2  0  0  0  0
M  END
> <ID>
2762

> <Formula>
C21H23ClFN3O

> <FW>
387.8782

> <DSSTox_CID>
3071

> <DSSTox_RID>
76863

> <DSSTox_GSID>
23071

> <DSSTox_FileID_Sort>
1547

> <TS_ChemName>
Flurazepam

> <TS_ChemName_Synonyms>


> <TS_CASRN>
17617-23-1

> <CASRN_ChemName_Relationship>
primary

> <TS_Description>
single chemical compound

> <ChemNote>


> <STRUCTURE_Shown>
tested chemical

> <STRUCTURE_Formula>
C21H23ClFN3O

> <STRUCTURE_MW>
387.8782

> <STRUCTURE_ChemType>
defined organic

> <STRUCTURE_DefinedOrganicForm>
parent

> <STRUCTURE_IUPAC>
7-chloro-1-[2-(diethylamino)ethyl]-5-(2-fluorophenyl)-1,3-dihydro-2H-1,4-benzodiazepin-2-one

> <STRUCTURE_SMILES>
Fc3ccccc3C2=NCC(=O)N(CCN(CC)CC)c1ccc(Cl)cc12

> <STRUCTURE_SMILES_Desalt>
Fc3ccccc3C2=NCC(=O)N(CCN(CC)CC)c1ccc(Cl)cc12

> <Substance_modify_yyyymmdd>
20080429

$$$$
