1763-23-1
ChemmineR-0915142007XD

 29 28  0  0  0  0  0  0  0  0  1 V2000
    2.2642   -1.3102    0.0000 C   0  0  0  0  0  0  0  0  0  0  0  0
    3.4020   -1.9883    0.0000 C   0  0  0  0  0  0  0  0  0  0  0  0
    4.5513   -1.3102    0.0000 C   0  0  0  0  0  0  0  0  0  0  0  0
    5.7121   -1.9883    0.0000 C   0  0  0  0  0  0  0  0  0  0  0  0
    6.8614   -1.3102    0.0000 C   0  0  0  0  0  0  0  0  0  0  0  0
    8.0107   -1.9883    0.0000 C   0  0  0  0  0  0  0  0  0  0  0  0
    9.1486   -1.3102    0.0000 C   0  0  0  0  0  0  0  0  0  0  0  0
   10.2979   -1.9883    0.0000 C   0  0  0  0  0  0  0  0  0  0  0  0
    1.0804   -1.9883    0.0000 S   0  0  0  0  0  0  0  0  0  0  0  0
    0.3908   -0.7356    0.0000 O   0  0  0  0  0  0  0  0  0  0  0  0
    0.0000   -2.6089    0.0000 O   0  0  0  0  0  0  0  0  0  0  0  0
    1.7240   -3.1032    0.0000 O   0  0  0  0  0  0  0  0  0  0  0  0
    2.2642    0.0000    0.0000 F   0  0  0  0  0  0  0  0  0  0  0  0
    2.2642   -2.6549    0.0000 F   0  0  0  0  0  0  0  0  0  0  0  0
    3.4020   -3.2985    0.0000 F   0  0  0  0  0  0  0  0  0  0  0  0
    3.4020   -0.6551    0.0000 F   0  0  0  0  0  0  0  0  0  0  0  0
    4.5513    0.0000    0.0000 F   0  0  0  0  0  0  0  0  0  0  0  0
    4.5513   -2.6549    0.0000 F   0  0  0  0  0  0  0  0  0  0  0  0
    5.7121   -3.2985    0.0000 F   0  0  0  0  0  0  0  0  0  0  0  0
    5.7121   -0.6551    0.0000 F   0  0  0  0  0  0  0  0  0  0  0  0
    6.8614    0.0000    0.0000 F   0  0  0  0  0  0  0  0  0  0  0  0
    6.8614   -2.6549    0.0000 F   0  0  0  0  0  0  0  0  0  0  0  0
    8.0107   -3.2985    0.0000 F   0  0  0  0  0  0  0  0  0  0  0  0
    8.0107   -0.6551    0.0000 F   0  0  0  0  0  0  0  0  0  0  0  0
    9.1486    0.0000    0.0000 F   0  0  0  0  0  0  0  0  0  0  0  0
   10.2979   -0.6551    0.0000 F   0  0  0  0  0  0  0  0  0  0  0  0
   11.4932   -1.3102    0.0000 F   0  0  0  0  0  0  0  0  0  0  0  0
   10.2979   -3.2985    0.0000 F   0  0  0  0  0  0  0  0  0  0  0  0
   11.4932   -2.6549    0.0000 F   0  0  0  0  0  0  0  0  0  0  0  0
  1  2  1  0  0  0  0
  1  9  1  0  0  0  0
  1 13  1  0  0  0  0
  1 14  1  0  0  0  0
  2  3  1  0  0  0  0
  2 15  1  0  0  0  0
  2 16  1  0  0  0  0
  3  4  1  0  0  0  0
  3 17  1  0  0  0  0
  3 18  1  0  0  0  0
  4  5  1  0  0  0  0
  4 19  1  0  0  0  0
  4 20  1  0  0  0  0
  5  6  1  0  0  0  0
  5 21  1  0  0  0  0
  5 22  1  0  0  0  0
  6  7  1  0  0  0  0
  6 23  1  0  0  0  0
  6 24  1  0  0  0  0
  7  8  1  0  0  0  0
  7 25  1  0  0  0  0
  7 26  1  0  0  0  0
  8 27  1  0  0  0  0
  8 28  1  0  0  0  0
  8 29  1  0  0  0  0
  9 10  2  0  0  0  0
  9 11  1  0  0  0  0
  9 12  2  0  0  0  0
M  END
> <ID>
6362

> <Formula>
C8HF17O3S

> <FW>
500.1296

> <DSSTox_CID>
11864

> <DSSTox_RID>
78894

> <DSSTox_GSID>
31864

> <DSSTox_FileID_Sort>
3576

> <TS_ChemName>
Perfluorooctane sulfonic acid

> <TS_ChemName_Synonyms>


> <TS_CASRN>
1763-23-1

> <CASRN_ChemName_Relationship>
primary

> <TS_Description>
single chemical compound

> <ChemNote>


> <STRUCTURE_Shown>
tested chemical

> <STRUCTURE_Formula>
C8HF17O3S

> <STRUCTURE_MW>
500.1296

> <STRUCTURE_ChemType>
defined organic

> <STRUCTURE_DefinedOrganicForm>
parent

> <STRUCTURE_IUPAC>
1,1,2,2,3,3,4,4,5,5,6,6,7,7,8,8,8-heptadecafluorooctane-1-sulfonic acid

> <STRUCTURE_SMILES>
FC(F)(C(F)(F)S(=O)(=O)O)C(F)(F)C(F)(F)C(F)(F)C(F)(F)C(F)(F)C(F)(F)F

> <STRUCTURE_SMILES_Desalt>
FC(F)(C(F)(F)S(=O)(=O)O)C(F)(F)C(F)(F)C(F)(F)C(F)(F)C(F)(F)C(F)(F)F

> <Substance_modify_yyyymmdd>
20080429

$$$$
