17630-75-0
ChemmineR-0915142007XD

 11 12  0  0  0  0  0  0  0  0  1 V2000
    0.0000   -2.6584    0.0000 Cl   0  0  0  0  0  0  0  0  0  0  0  0
    1.1549   -1.9955    0.0000 C    0  0  0  0  0  0  0  0  0  0  0  0
    2.3030   -2.6584    0.0000 C    0  0  0  0  0  0  0  0  0  0  0  0
    3.4580   -1.9955    0.0000 C    0  0  0  0  0  0  0  0  0  0  0  0
    3.4580   -0.6629    0.0000 C    0  0  0  0  0  0  0  0  0  0  0  0
    4.7223   -0.2529    0.0000 N    0  0  0  0  0  0  0  0  0  0  0  0
    5.5013   -1.3258    0.0000 C    0  0  0  0  0  0  0  0  0  0  0  0
    6.8340   -1.3258    0.0000 O    0  0  0  0  0  0  0  0  0  0  0  0
    4.7223   -2.4056    0.0000 C    0  0  0  0  0  0  0  0  0  0  0  0
    2.3030    0.0000    0.0000 C    0  0  0  0  0  0  0  0  0  0  0  0
    1.1549   -0.6629    0.0000 C    0  0  0  0  0  0  0  0  0  0  0  0
  1  2  1  0  0  0  0
  2  3  2  0  0  0  0
  2 11  1  0  0  0  0
  3  4  1  0  0  0  0
  4  5  2  0  0  0  0
  4  9  1  0  0  0  0
  5  6  1  0  0  0  0
  5 10  1  0  0  0  0
  6  7  1  0  0  0  0
  7  8  2  0  0  0  0
  7  9  1  0  0  0  0
 10 11  2  0  0  0  0
M  END
> <ID>
16070

> <Formula>
C8H6ClNO

> <FW>
167.5923

> <DSSTox_CID>
31456

> <DSSTox_RID>
97342

> <DSSTox_GSID>
57667

> <DSSTox_FileID_Sort>
8409

> <TS_ChemName>
5-Chlorooxindole

> <TS_ChemName_Synonyms>


> <TS_CASRN>
17630-75-0

> <CASRN_ChemName_Relationship>
primary

> <TS_Description>
single chemical compound

> <ChemNote>


> <STRUCTURE_Shown>
tested chemical

> <STRUCTURE_Formula>
C8H6ClNO

> <STRUCTURE_MW>
167.5923

> <STRUCTURE_ChemType>
defined organic

> <STRUCTURE_DefinedOrganicForm>
parent

> <STRUCTURE_IUPAC>
5-chloro-1,3-dihydro-2H-indol-2-one

> <STRUCTURE_SMILES>
Clc1cc2CC(=O)Nc2cc1

> <STRUCTURE_SMILES_Desalt>
Clc1cc2CC(=O)Nc2cc1

> <Substance_modify_yyyymmdd>
20131121

$$$$
