1766-91-2
ChemmineR-0915142007XD

 25 26  0  0  0  0  0  0  0  0  1 V2000
    0.4890   -4.8510    0.0000 F   0  0  0  0  0  0  0  0  0  0  0  0
    1.8658   -5.2499    0.0000 F   0  0  0  0  0  0  0  0  0  0  0  0
    0.0000   -3.6672    0.0000 F   0  0  0  0  0  0  0  0  0  0  0  0
    1.6213   -3.9760    0.0000 C   0  0  0  0  0  0  0  0  0  0  0  0
    2.5992   -1.8014    0.0000 C   0  0  0  0  0  0  0  0  0  0  0  0
    2.5992   -3.1268    0.0000 C   0  0  0  0  0  0  0  0  0  0  0  0
    3.7315   -3.7573    0.0000 C   0  0  0  0  0  0  0  0  0  0  0  0
    3.7315   -1.1195    0.0000 C   0  0  0  0  0  0  0  0  0  0  0  0
    4.9025   -1.8014    0.0000 C   0  0  0  0  0  0  0  0  0  0  0  0
    4.9025   -3.1268    0.0000 C   0  0  0  0  0  0  0  0  0  0  0  0
    6.0219   -3.7573    0.0000 N   0  0  0  0  0  0  0  0  0  0  0  0
    7.1929   -3.1268    0.0000 C   0  0  0  0  0  0  0  0  0  0  0  0
    7.1929   -1.8014    0.0000 N   0  0  0  0  0  0  0  0  0  0  0  0
    6.0219   -1.1195    0.0000 S   0  0  0  0  0  0  0  0  0  0  0  0
    5.3657    0.0000    0.0000 O   0  0  0  0  0  0  0  0  0  0  0  0
    6.6910    0.0000    0.0000 O   0  0  0  0  0  0  0  0  0  0  0  0
    8.3123   -3.7573    0.0000 C   0  0  0  0  0  0  0  0  0  0  0  0
    9.4447   -3.1268    0.0000 C   0  0  0  0  0  0  0  0  0  0  0  0
   10.5641   -3.7573    0.0000 C   0  0  0  0  0  0  0  0  0  0  0  0
   11.7350   -3.1268    0.0000 C   0  0  0  0  0  0  0  0  0  0  0  0
   12.8674   -3.7573    0.0000 C   0  0  0  0  0  0  0  0  0  0  0  0
    1.4797   -1.1195    0.0000 S   0  0  0  0  0  0  0  0  0  0  0  0
    0.8106   -2.2904    0.0000 O   0  0  0  0  0  0  0  0  0  0  0  0
    2.1489    0.0000    0.0000 O   0  0  0  0  0  0  0  0  0  0  0  0
    0.3474   -0.5018    0.0000 N   0  0  0  0  0  0  0  0  0  0  0  0
  1  4  1  0  0  0  0
  2  4  1  0  0  0  0
  3  4  1  0  0  0  0
  4  6  1  0  0  0  0
  5  6  2  0  0  0  0
  5  8  1  0  0  0  0
  5 22  1  0  0  0  0
  6  7  1  0  0  0  0
  7 10  2  0  0  0  0
  8  9  2  0  0  0  0
  9 14  1  0  0  0  0
  9 10  1  0  0  0  0
 10 11  1  0  0  0  0
 11 12  1  0  0  0  0
 12 17  1  0  0  0  0
 12 13  1  0  0  0  0
 13 14  1  0  0  0  0
 14 16  2  0  0  0  0
 14 15  2  0  0  0  0
 17 18  1  0  0  0  0
 18 19  1  0  0  0  0
 19 20  1  0  0  0  0
 20 21  1  0  0  0  0
 22 23  2  0  0  0  0
 22 24  2  0  0  0  0
 22 25  1  0  0  0  0
M  END
> <ID>
13804

> <Formula>
C13H18F3N3O4S2

> <FW>
401.4249

> <DSSTox_CID>
28741

> <DSSTox_RID>
83010

> <DSSTox_GSID>
48815

> <DSSTox_FileID_Sort>
7687

> <TS_ChemName>
Penflutizide

> <TS_ChemName_Synonyms>


> <TS_CASRN>
1766-91-2

> <CASRN_ChemName_Relationship>
primary

> <TS_Description>
single chemical compound

> <ChemNote>


> <STRUCTURE_Shown>
tested chemical

> <STRUCTURE_Formula>
C13H18F3N3O4S2

> <STRUCTURE_MW>
401.4249

> <STRUCTURE_ChemType>
defined organic

> <STRUCTURE_DefinedOrganicForm>
parent

> <STRUCTURE_IUPAC>
3-pentyl-6-(trifluoromethyl)-3,4-dihydro-2H-1,2,4-benzothiadiazine-7-sulfonamide 1,1-dioxide

> <STRUCTURE_SMILES>
FC(F)(F)c1cc2NC(NS(=O)(=O)c2cc1S(N)(=O)=O)CCCCC

> <STRUCTURE_SMILES_Desalt>
FC(F)(F)c1cc2NC(NS(=O)(=O)c2cc1S(N)(=O)=O)CCCCC

> <Substance_modify_yyyymmdd>
20111204

$$$$
