17696-61-6
ChemmineR-0915142007XD

 14 14  0  0  0  0  0  0  0  0  1 V2000
    4.6168   -1.3296    0.0000 C   0  0  0  0  0  0  0  0  0  0  0  0
    4.6168    0.0000    0.0000 O   0  0  0  0  0  0  0  0  0  0  0  0
    3.4626   -1.9852    0.0000 C   0  0  0  0  0  0  0  0  0  0  0  0
    5.7710   -1.9852    0.0000 O   0  0  0  0  0  0  0  0  0  0  0  0
    3.4626   -3.3148    0.0000 C   0  0  0  0  0  0  0  0  0  0  0  0
    2.3084   -1.3296    0.0000 C   0  0  0  0  0  0  0  0  0  0  0  0
    2.3084   -3.9889    0.0000 C   0  0  0  0  0  0  0  0  0  0  0  0
    1.1542   -1.9852    0.0000 C   0  0  0  0  0  0  0  0  0  0  0  0
    1.1542   -3.3148    0.0000 C   0  0  0  0  0  0  0  0  0  0  0  0
    0.0000   -3.9889    0.0000 O   0  0  0  0  0  0  0  0  0  0  0  0
    6.9252   -1.3296    0.0000 C   0  0  0  0  0  0  0  0  0  0  0  0
    8.0793   -1.9852    0.0000 C   0  0  0  0  0  0  0  0  0  0  0  0
    6.9252    0.0000    0.0000 C   0  0  0  0  0  0  0  0  0  0  0  0
    9.2335   -1.3296    0.0000 C   0  0  0  0  0  0  0  0  0  0  0  0
  1  2  2  0  0  0  0
  1  3  1  0  0  0  0
  1  4  1  0  0  0  0
  3  5  2  0  0  0  0
  3  6  1  0  0  0  0
  4 11  1  0  0  0  0
  5  7  1  0  0  0  0
  6  8  2  0  0  0  0
  7  9  2  0  0  0  0
  8  9  1  0  0  0  0
  9 10  1  0  0  0  0
 11 12  1  0  0  0  0
 11 13  1  0  0  0  0
 12 14  1  0  0  0  0
M  END
> <ID>
10261

> <Formula>
C11H14O3

> <FW>
194.2271

> <DSSTox_CID>
24607

> <DSSTox_RID>
80347

> <DSSTox_GSID>
44607

> <DSSTox_FileID_Sort>
5029

> <TS_ChemName>
sec-Butylparaben

> <TS_ChemName_Synonyms>
Butan-2-yl 4-hydroxybenzoate (sec-butyl 4-hydroxybenzoate)

> <TS_CASRN>
17696-61-6

> <CASRN_ChemName_Relationship>
primary

> <TS_Description>
single chemical compound

> <ChemNote>


> <STRUCTURE_Shown>
tested chemical

> <STRUCTURE_Formula>
C11H14O3

> <STRUCTURE_MW>
194.2271

> <STRUCTURE_ChemType>
defined organic

> <STRUCTURE_DefinedOrganicForm>
parent

> <STRUCTURE_IUPAC>
butan-2-yl 4-hydroxybenzoate

> <STRUCTURE_SMILES>
Oc1ccc(cc1)C(=O)OC(C)CC

> <STRUCTURE_SMILES_Desalt>
Oc1ccc(cc1)C(=O)OC(C)CC

> <Substance_modify_yyyymmdd>
20091116

$$$$
