17692-43-2
ChemmineR-0915142007XD

 19 21  0  0  0  0  0  0  0  0  1 V2000
    0.0000   -2.6263    0.0000 C   0  0  0  0  0  0  0  0  0  0  0  0
    0.0000   -3.9610    0.0000 C   0  0  0  0  0  0  0  0  0  0  0  0
    1.1539   -4.6499    0.0000 C   0  0  0  0  0  0  0  0  0  0  0  0
    1.1539   -1.9719    0.0000 C   0  0  0  0  0  0  0  0  0  0  0  0
    2.3335   -2.6263    0.0000 C   0  0  0  0  0  0  0  0  0  0  0  0
    2.3335   -3.9610    0.0000 C   0  0  0  0  0  0  0  0  0  0  0  0
    3.4616   -4.6499    0.0000 C   0  0  0  0  0  0  0  0  0  0  0  0
    4.6154   -3.9610    0.0000 N   0  0  0  0  0  0  0  0  0  0  0  0
    4.6154   -2.6263    0.0000 N   0  0  0  0  0  0  0  0  0  0  0  0
    3.4616   -1.9719    0.0000 C   0  0  0  0  0  0  0  0  0  0  0  0
    3.4616   -5.9329    0.0000 C   0  0  0  0  0  0  0  0  0  0  0  0
    2.3335   -6.6390    0.0000 C   0  0  0  0  0  0  0  0  0  0  0  0
    1.1539   -5.9329    0.0000 C   0  0  0  0  0  0  0  0  0  0  0  0
    0.0000   -6.6390    0.0000 C   0  0  0  0  0  0  0  0  0  0  0  0
    0.0000   -7.9220    0.0000 N   0  0  0  0  0  0  0  0  0  0  0  0
    1.1539   -8.6109    0.0000 C   0  0  0  0  0  0  0  0  0  0  0  0
    2.3335   -7.9220    0.0000 C   0  0  0  0  0  0  0  0  0  0  0  0
    3.4616   -0.6889    0.0000 N   0  0  0  0  0  0  0  0  0  0  0  0
    4.6154    0.0000    0.0000 N   0  0  0  0  0  0  0  0  0  0  0  0
  1  4  1  0  0  0  0
  1  2  2  0  0  0  0
  2  3  1  0  0  0  0
  3  6  2  0  0  0  0
  4  5  2  0  0  0  0
  5 10  1  0  0  0  0
  5  6  1  0  0  0  0
  6  7  1  0  0  0  0
  7 11  1  0  0  0  0
  7  8  2  0  0  0  0
  8  9  1  0  0  0  0
  9 10  2  0  0  0  0
 10 18  1  0  0  0  0
 11 12  1  0  0  0  0
 12 13  2  0  0  0  0
 12 17  1  0  0  0  0
 13 14  1  0  0  0  0
 14 15  2  0  0  0  0
 15 16  1  0  0  0  0
 16 17  2  0  0  0  0
 18 19  1  0  0  0  0
M  END
> <ID>
13707

> <Formula>
C14H13N5

> <FW>
251.2865

> <DSSTox_CID>
28641

> <DSSTox_RID>
82911

> <DSSTox_GSID>
48715

> <DSSTox_FileID_Sort>
7588

> <TS_ChemName>
Picodralazine

> <TS_ChemName_Synonyms>


> <TS_CASRN>
17692-43-2

> <CASRN_ChemName_Relationship>
primary

> <TS_Description>
single chemical compound

> <ChemNote>


> <STRUCTURE_Shown>
tested chemical

> <STRUCTURE_Formula>
C14H13N5

> <STRUCTURE_MW>
251.2865

> <STRUCTURE_ChemType>
defined organic

> <STRUCTURE_DefinedOrganicForm>
parent

> <STRUCTURE_IUPAC>
1-hydrazinyl-4-(pyridin-4-ylmethyl)phthalazine

> <STRUCTURE_SMILES>
NNc3nnc(Cc1ccncc1)c2ccccc23

> <STRUCTURE_SMILES_Desalt>
NNc3nnc(Cc1ccncc1)c2ccccc23

> <Substance_modify_yyyymmdd>
20111204

$$$$
