17692-71-6
ChemmineR-0915142007XD

 17 18  0  0  0  0  0  0  0  0  1 V2000
    6.9076   -5.9726    0.0000 C   0  0  0  0  0  0  0  0  0  0  0  0
    5.7469   -5.3117    0.0000 O   0  0  0  0  0  0  0  0  0  0  0  0
    5.7469   -3.9817    0.0000 C   0  0  0  0  0  0  0  0  0  0  0  0
    4.5943   -3.3208    0.0000 C   0  0  0  0  0  0  0  0  0  0  0  0
    4.6104   -1.9909    0.0000 C   0  0  0  0  0  0  0  0  0  0  0  0
    5.7469   -1.3138    0.0000 C   0  0  0  0  0  0  0  0  0  0  0  0
    6.9076   -1.9909    0.0000 C   0  0  0  0  0  0  0  0  0  0  0  0
    6.9076   -3.3047    0.0000 C   0  0  0  0  0  0  0  0  0  0  0  0
    8.0602   -3.9817    0.0000 O   0  0  0  0  0  0  0  0  0  0  0  0
    3.4498   -1.3138    0.0000 C   0  0  0  0  0  0  0  0  0  0  0  0
    3.4498    0.0000    0.0000 S   0  0  0  0  0  0  0  0  0  0  0  0
    2.2972   -1.9909    0.0000 N   0  0  0  0  0  0  0  0  0  0  0  0
    2.2972   -3.3208    0.0000 C   0  0  0  0  0  0  0  0  0  0  0  0
    1.1526   -3.9817    0.0000 C   0  0  0  0  0  0  0  0  0  0  0  0
    0.0000   -3.3208    0.0000 O   0  0  0  0  0  0  0  0  0  0  0  0
    0.0000   -1.9909    0.0000 C   0  0  0  0  0  0  0  0  0  0  0  0
    1.1365   -1.3299    0.0000 C   0  0  0  0  0  0  0  0  0  0  0  0
  1  2  1  0  0  0  0
  2  3  1  0  0  0  0
  3  4  2  0  0  0  0
  3  8  1  0  0  0  0
  4  5  1  0  0  0  0
  5  6  2  0  0  0  0
  5 10  1  0  0  0  0
  6  7  1  0  0  0  0
  7  8  2  0  0  0  0
  8  9  1  0  0  0  0
 10 11  2  0  0  0  0
 10 12  1  0  0  0  0
 12 13  1  0  0  0  0
 12 17  1  0  0  0  0
 13 14  1  0  0  0  0
 14 15  1  0  0  0  0
 15 16  1  0  0  0  0
 16 17  1  0  0  0  0
M  END
> <ID>
11412

> <Formula>
C12H15NO3S

> <FW>
253.3174

> <DSSTox_CID>
26107

> <DSSTox_RID>
81344

> <DSSTox_GSID>
46107

> <DSSTox_FileID_Sort>
6025

> <TS_ChemName>
Vanitiolide

> <TS_ChemName_Synonyms>


> <TS_CASRN>
17692-71-6

> <CASRN_ChemName_Relationship>
primary

> <TS_Description>
single chemical compound

> <ChemNote>


> <STRUCTURE_Shown>
tested chemical

> <STRUCTURE_Formula>
C12H15NO3S

> <STRUCTURE_MW>
253.3174

> <STRUCTURE_ChemType>
defined organic

> <STRUCTURE_DefinedOrganicForm>
parent

> <STRUCTURE_IUPAC>
(4-hydroxy-3-methoxyphenyl)(morpholin-4-yl)methanethione

> <STRUCTURE_SMILES>
S=C(c1ccc(O)c(OC)c1)N2CCOCC2

> <STRUCTURE_SMILES_Desalt>
S=C(c1ccc(O)c(OC)c1)N2CCOCC2

> <Substance_modify_yyyymmdd>
20110818

$$$$
