17692-31-8
ChemmineR-0915142007XD

 17 18  0  0  0  0  0  0  0  0  1 V2000
    3.4482   -2.6716    0.0000 N   0  0  0  0  0  0  0  0  0  0  0  0
    5.7573   -3.9970    0.0000 N   0  0  0  0  0  0  0  0  0  0  0  0
    4.5872   -1.9985    0.0000 C   0  0  0  0  0  0  0  0  0  0  0  0
    3.4482   -3.9970    0.0000 C   0  0  0  0  0  0  0  0  0  0  0  0
    2.2988   -1.9985    0.0000 C   0  0  0  0  0  0  0  0  0  0  0  0
    6.9067   -4.6701    0.0000 C   0  0  0  0  0  0  0  0  0  0  0  0
    5.7573   -2.6716    0.0000 C   0  0  0  0  0  0  0  0  0  0  0  0
    4.5872   -4.6493    0.0000 C   0  0  0  0  0  0  0  0  0  0  0  0
    8.0561   -3.9970    0.0000 C   0  0  0  0  0  0  0  0  0  0  0  0
    8.0561   -2.6716    0.0000 O   0  0  0  0  0  0  0  0  0  0  0  0
   10.3549   -3.9970    0.0000 O   0  0  0  0  0  0  0  0  0  0  0  0
    9.2055   -4.6701    0.0000 C   0  0  0  0  0  0  0  0  0  0  0  0
    2.2988   -0.6731    0.0000 C   0  0  0  0  0  0  0  0  0  0  0  0
    1.1494   -2.6716    0.0000 C   0  0  0  0  0  0  0  0  0  0  0  0
    0.0000   -1.9985    0.0000 C   0  0  0  0  0  0  0  0  0  0  0  0
    1.1494    0.0000    0.0000 C   0  0  0  0  0  0  0  0  0  0  0  0
    0.0000   -0.6731    0.0000 C   0  0  0  0  0  0  0  0  0  0  0  0
  1  3  1  0  0  0  0
  1  4  1  0  0  0  0
  1  5  1  0  0  0  0
  2  8  1  0  0  0  0
  2  6  1  0  0  0  0
  2  7  1  0  0  0  0
  3  7  1  0  0  0  0
  4  8  1  0  0  0  0
  5 13  1  0  0  0  0
  5 14  2  0  0  0  0
  6  9  1  0  0  0  0
  9 10  1  0  0  0  0
  9 12  1  0  0  0  0
 11 12  1  0  0  0  0
 13 16  2  0  0  0  0
 14 15  1  0  0  0  0
 15 17  2  0  0  0  0
 16 17  1  0  0  0  0
M  END
> <ID>
11077

> <Formula>
C13H20N2O2

> <FW>
236.3101

> <DSSTox_CID>
25624

> <DSSTox_RID>
81009

> <DSSTox_GSID>
45624

> <DSSTox_FileID_Sort>
5690

> <TS_ChemName>
Dropropizine

> <TS_ChemName_Synonyms>


> <TS_CASRN>
17692-31-8

> <CASRN_ChemName_Relationship>
primary

> <TS_Description>
single chemical compound

> <ChemNote>


> <STRUCTURE_Shown>
tested chemical

> <STRUCTURE_Formula>
C13H20N2O2

> <STRUCTURE_MW>
236.3101

> <STRUCTURE_ChemType>
defined organic

> <STRUCTURE_DefinedOrganicForm>
parent

> <STRUCTURE_IUPAC>
3-(4-phenylpiperazin-1-yl)propane-1,2-diol

> <STRUCTURE_SMILES>
OC(CN1CCN(CC1)c2ccccc2)CO

> <STRUCTURE_SMILES_Desalt>
OC(CN1CCN(CC1)c2ccccc2)CO

> <Substance_modify_yyyymmdd>
20100107

$$$$
