17692-51-2
ChemmineR-0915142007XD

 32 36  0  0  1  0  0  0  0  0  1 V2000
    2.2330   -6.5252    0.0000 C   0  0  0  0  0  0  0  0  0  0  0  0
    2.2330   -7.8029    0.0000 C   0  0  0  0  0  0  0  0  0  0  0  0
    1.1165   -5.8553    0.0000 C   0  0  0  0  0  0  0  0  0  0  0  0
    1.1165   -8.4728    0.0000 C   0  0  0  0  0  0  0  0  0  0  0  0
    0.0000   -6.5252    0.0000 C   0  0  0  0  0  0  0  0  0  0  0  0
    0.0000   -7.8029    0.0000 C   0  0  0  0  0  0  0  0  0  0  0  0
    3.3742   -8.4728    0.0000 C   0  0  0  0  0  0  0  0  0  0  0  0
    3.3742   -9.7754    0.0000 C   0  0  0  0  0  0  0  0  0  0  0  0
    1.1165   -9.7754    0.0000 N   0  0  0  0  0  0  0  0  0  0  0  0
    3.3742   -5.8553    0.0000 C   0  0  0  0  0  0  0  0  0  0  0  0
    4.4907   -6.5252    0.0000 C   0  0  0  0  0  0  0  0  0  0  0  0
    4.4907   -7.8277    0.0000 C   0  0  0  0  0  0  0  0  0  0  0  0
    3.3742   -4.5527    0.0000 C   0  0  0  0  0  0  0  0  0  0  0  0
    4.4907   -3.9077    0.0000 C   0  0  0  0  0  0  0  0  0  0  0  0
    5.6320   -5.8553    0.0000 N   0  0  0  0  0  0  0  0  0  0  0  0
    5.6320   -4.5527    0.0000 C   0  0  0  0  0  0  0  0  0  0  0  0
    2.2330   -5.2102    0.0000 H   0  0  0  0  0  0  0  0  0  0  0  0
    5.6196   -7.1827    0.0000 H   0  0  0  0  0  0  0  0  0  0  0  0
    4.4907   -2.6051    0.0000 C   0  0  0  0  0  0  0  0  0  0  0  0
    5.6320   -1.9476    0.0000 N   0  0  0  0  0  0  0  0  0  0  0  0
    6.7485   -3.9077    0.0000 O   0  0  0  0  0  0  0  0  0  0  0  0
    6.7485   -2.6051    0.0000 C   0  0  0  0  0  0  0  0  0  0  0  0
    7.9022   -1.9476    0.0000 O   0  0  0  0  0  0  0  0  0  0  0  0
    9.0187   -2.6051    0.0000 C   0  0  0  0  0  0  0  0  0  0  0  0
   10.1475   -1.9476    0.0000 C   0  0  0  0  0  0  0  0  0  0  0  0
   11.2764   -2.6051    0.0000 C   0  0  0  0  0  0  0  0  0  0  0  0
   10.1475   -0.6451    0.0000 C   0  0  0  0  0  0  0  0  0  0  0  0
   11.2764    0.0000    0.0000 C   0  0  0  0  0  0  0  0  0  0  0  0
   12.4053   -1.9476    0.0000 C   0  0  0  0  0  0  0  0  0  0  0  0
   12.4053   -0.6451    0.0000 C   0  0  0  0  0  0  0  0  0  0  0  0
    0.1861  -10.6810    0.0000 C   0  0  0  0  0  0  0  0  0  0  0  0
    6.7485   -6.5252    0.0000 C   0  0  0  0  0  0  0  0  0  0  0  0
  1  3  1  0  0  0  0
  1 10  1  0  0  0  0
  1  2  2  0  0  0  0
  2  4  1  0  0  0  0
  2  7  1  0  0  0  0
  3  5  2  0  0  0  0
  4  6  2  0  0  0  0
  4  9  1  0  0  0  0
  5  6  1  0  0  0  0
  7  8  2  0  0  0  0
  7 12  1  0  0  0  0
  8  9  1  0  0  0  0
  9 31  1  0  0  0  0
 10 13  1  0  0  0  0
 10 11  1  0  0  0  0
 10 17  1  6  0  0  0
 11 12  1  0  0  0  0
 11 15  1  0  0  0  0
 11 18  1  1  0  0  0
 13 14  1  0  0  0  0
 14 19  1  1  0  0  0
 14 16  1  0  0  0  0
 15 16  1  0  0  0  0
 15 32  1  0  0  0  0
 19 20  1  0  0  0  0
 20 22  1  0  0  0  0
 21 22  2  0  0  0  0
 22 23  1  0  0  0  0
 23 24  1  0  0  0  0
 24 25  1  0  0  0  0
 25 27  1  0  0  0  0
 25 26  2  0  0  0  0
 26 29  1  0  0  0  0
 27 28  2  0  0  0  0
 28 30  1  0  0  0  0
 29 30  2  0  0  0  0
M  END
> <ID>
9456

> <Formula>
C25H29N3O2

> <FW>
403.5167

> <DSSTox_CID>
22584

> <DSSTox_RID>
80053

> <DSSTox_GSID>
42584

> <DSSTox_FileID_Sort>
4735

> <TS_ChemName>
Metergoline

> <TS_ChemName_Synonyms>


> <TS_CASRN>
17692-51-2

> <CASRN_ChemName_Relationship>
primary

> <TS_Description>
single chemical compound

> <ChemNote>
stereochem

> <STRUCTURE_Shown>
tested chemical

> <STRUCTURE_Formula>
C25H29N3O2

> <STRUCTURE_MW>
403.5167

> <STRUCTURE_ChemType>
defined organic

> <STRUCTURE_DefinedOrganicForm>
parent

> <STRUCTURE_IUPAC>
benzyl {[(8beta)-1,6-dimethylergolin-8-yl]methyl}carbamate

> <STRUCTURE_SMILES>
O=C(OCc1ccccc1)NC[C@@H]3C[C@@H]4c5cccc2c5c(cn2C)C[C@H]4N(C)C3

> <STRUCTURE_SMILES_Desalt>
O=C(OCc1ccccc1)NC[C@@H]3C[C@@H]4c5cccc2c5c(cn2C)C[C@H]4N(C)C3

> <Substance_modify_yyyymmdd>
20081003

$$$$
