17692-39-6
ChemmineR-0915142007XD

 23 25  0  0  0  0  0  0  0  0  1 V2000
   12.7125   -4.0674    0.0000 N   0  0  0  0  0  0  0  0  0  0  0  0
   15.0088   -2.7616    0.0000 O   0  0  0  0  0  0  0  0  0  0  0  0
    3.4370   -2.6566    0.0000 O   0  0  0  0  0  0  0  0  0  0  0  0
    5.7934   -2.6716    0.0000 C   0  0  0  0  0  0  0  0  0  0  0  0
    4.6377   -1.9812    0.0000 C   0  0  0  0  0  0  0  0  0  0  0  0
    8.0748   -3.9773    0.0000 C   0  0  0  0  0  0  0  0  0  0  0  0
    2.2964   -1.9812    0.0000 C   0  0  0  0  0  0  0  0  0  0  0  0
    5.7934   -3.9773    0.0000 C   0  0  0  0  0  0  0  0  0  0  0  0
    6.9341   -2.0112    0.0000 C   0  0  0  0  0  0  0  0  0  0  0  0
    6.9341   -4.6677    0.0000 C   0  0  0  0  0  0  0  0  0  0  0  0
    8.0748   -2.6716    0.0000 C   0  0  0  0  0  0  0  0  0  0  0  0
   11.5268   -4.6978    0.0000 C   0  0  0  0  0  0  0  0  0  0  0  0
   13.8532   -4.7278    0.0000 C   0  0  0  0  0  0  0  0  0  0  0  0
   12.7125   -2.7316    0.0000 C   0  0  0  0  0  0  0  0  0  0  0  0
   10.4161   -4.0074    0.0000 C   0  0  0  0  0  0  0  0  0  0  0  0
   15.0088   -4.0824    0.0000 C   0  0  0  0  0  0  0  0  0  0  0  0
   13.8532   -2.0712    0.0000 C   0  0  0  0  0  0  0  0  0  0  0  0
    9.2605   -4.6828    0.0000 C   0  0  0  0  0  0  0  0  0  0  0  0
    1.1557   -2.6566    0.0000 C   0  0  0  0  0  0  0  0  0  0  0  0
    2.2964   -0.6604    0.0000 C   0  0  0  0  0  0  0  0  0  0  0  0
    1.1557    0.0000    0.0000 C   0  0  0  0  0  0  0  0  0  0  0  0
    0.0000   -1.9812    0.0000 C   0  0  0  0  0  0  0  0  0  0  0  0
    0.0000   -0.6604    0.0000 C   0  0  0  0  0  0  0  0  0  0  0  0
  1 12  1  0  0  0  0
  1 13  1  0  0  0  0
  1 14  1  0  0  0  0
  2 17  1  0  0  0  0
  2 16  1  0  0  0  0
  3  5  1  0  0  0  0
  3  7  1  0  0  0  0
  4  9  2  0  0  0  0
  4  5  1  0  0  0  0
  4  8  1  0  0  0  0
  6 18  1  0  0  0  0
  6 10  1  0  0  0  0
  6 11  2  0  0  0  0
  7 19  2  0  0  0  0
  7 20  1  0  0  0  0
  8 10  2  0  0  0  0
  9 11  1  0  0  0  0
 12 15  1  0  0  0  0
 13 16  1  0  0  0  0
 14 17  1  0  0  0  0
 15 18  1  0  0  0  0
 19 22  1  0  0  0  0
 20 21  2  0  0  0  0
 21 23  1  0  0  0  0
 22 23  2  0  0  0  0
M  END
> <ID>
11516

> <Formula>
C20H25NO2

> <FW>
311.418

> <DSSTox_CID>
26222

> <DSSTox_RID>
81449

> <DSSTox_GSID>
46222

> <DSSTox_FileID_Sort>
6130

> <TS_ChemName>
Fomocaine

> <TS_ChemName_Synonyms>


> <TS_CASRN>
17692-39-6

> <CASRN_ChemName_Relationship>
primary

> <TS_Description>
single chemical compound

> <ChemNote>


> <STRUCTURE_Shown>
tested chemical

> <STRUCTURE_Formula>
C20H25NO2

> <STRUCTURE_MW>
311.418

> <STRUCTURE_ChemType>
defined organic

> <STRUCTURE_DefinedOrganicForm>
parent

> <STRUCTURE_IUPAC>
4-{3-[4-(phenoxymethyl)phenyl]propyl}morpholine

> <STRUCTURE_SMILES>
C(CCN1CCOCC1)c3ccc(COc2ccccc2)cc3

> <STRUCTURE_SMILES_Desalt>
C(CCN1CCOCC1)c3ccc(COc2ccccc2)cc3

> <Substance_modify_yyyymmdd>
20110817

$$$$
