17696-62-7
ChemmineR-0915142007XD

 16 17  0  0  0  0  0  0  0  0  1 V2000
    4.6000   -2.0004    0.0000 C   0  0  0  0  0  0  0  0  0  0  0  0
    3.4477   -2.6641    0.0000 C   0  0  0  0  0  0  0  0  0  0  0  0
    4.6000   -0.6729    0.0000 O   0  0  0  0  0  0  0  0  0  0  0  0
    3.4477   -3.9916    0.0000 C   0  0  0  0  0  0  0  0  0  0  0  0
    2.2954   -2.0004    0.0000 C   0  0  0  0  0  0  0  0  0  0  0  0
    5.7523   -2.6641    0.0000 O   0  0  0  0  0  0  0  0  0  0  0  0
    1.1523   -3.9916    0.0000 C   0  0  0  0  0  0  0  0  0  0  0  0
    2.2954   -4.6645    0.0000 C   0  0  0  0  0  0  0  0  0  0  0  0
    1.1523   -2.6641    0.0000 C   0  0  0  0  0  0  0  0  0  0  0  0
    0.0000   -4.6645    0.0000 O   0  0  0  0  0  0  0  0  0  0  0  0
    6.9138   -2.0004    0.0000 C   0  0  0  0  0  0  0  0  0  0  0  0
    6.9138   -0.6729    0.0000 C   0  0  0  0  0  0  0  0  0  0  0  0
    8.0662   -2.6641    0.0000 C   0  0  0  0  0  0  0  0  0  0  0  0
    8.0662    0.0000    0.0000 C   0  0  0  0  0  0  0  0  0  0  0  0
    9.2185   -2.0004    0.0000 C   0  0  0  0  0  0  0  0  0  0  0  0
    9.2185   -0.6729    0.0000 C   0  0  0  0  0  0  0  0  0  0  0  0
  1  2  1  0  0  0  0
  1  3  2  0  0  0  0
  1  6  1  0  0  0  0
  2  4  1  0  0  0  0
  2  5  2  0  0  0  0
  4  8  2  0  0  0  0
  5  9  1  0  0  0  0
  6 11  1  0  0  0  0
  7  9  2  0  0  0  0
  7 10  1  0  0  0  0
  7  8  1  0  0  0  0
 11 12  1  0  0  0  0
 11 13  2  0  0  0  0
 12 14  2  0  0  0  0
 13 15  1  0  0  0  0
 14 16  1  0  0  0  0
 15 16  2  0  0  0  0
M  END
> <ID>
12957

> <Formula>
C13H10O3

> <FW>
214.2167

> <DSSTox_CID>
27858

> <DSSTox_RID>
82611

> <DSSTox_GSID>
47882

> <DSSTox_FileID_Sort>
7288

> <TS_ChemName>
Phenylparaben

> <TS_ChemName_Synonyms>


> <TS_CASRN>
17696-62-7

> <CASRN_ChemName_Relationship>
primary

> <TS_Description>
single chemical compound

> <ChemNote>


> <STRUCTURE_Shown>
tested chemical

> <STRUCTURE_Formula>
C13H10O3

> <STRUCTURE_MW>
214.2167

> <STRUCTURE_ChemType>
defined organic

> <STRUCTURE_DefinedOrganicForm>
parent

> <STRUCTURE_IUPAC>
phenyl 4-hydroxybenzoate

> <STRUCTURE_SMILES>
O=C(Oc1ccccc1)c2ccc(O)cc2

> <STRUCTURE_SMILES_Desalt>
O=C(Oc1ccccc1)c2ccc(O)cc2

> <Substance_modify_yyyymmdd>


$$$$
