177036-94-1
ChemmineR-0915142007XD

 28 30  0  0  1  0  0  0  0  0  1 V2000
    1.4625   -2.8316    0.0000 C   0  0  0  0  0  0  0  0  0  0  0  0
    2.7901   -2.8316    0.0000 O   0  0  0  0  0  0  0  0  0  0  0  0
    3.4539   -3.9829    0.0000 C   0  0  0  0  0  0  0  0  0  0  0  0
    4.6052   -3.3294    0.0000 C   0  0  0  0  0  0  0  0  0  0  0  0
    5.7461   -3.9829    0.0000 O   0  0  0  0  0  0  0  0  0  0  0  0
    6.9078   -3.3087    0.0000 C   0  0  0  0  0  0  0  0  0  0  0  0
    6.9078   -1.9914    0.0000 N   0  0  0  0  0  0  0  0  0  0  0  0
    8.0591   -1.3173    0.0000 C   0  0  0  0  0  0  0  0  0  0  0  0
    9.2208   -1.9811    0.0000 C   0  0  0  0  0  0  0  0  0  0  0  0
    9.2208   -3.3087    0.0000 C   0  0  0  0  0  0  0  0  0  0  0  0
    8.0591   -3.9829    0.0000 N   0  0  0  0  0  0  0  0  0  0  0  0
   10.3721   -3.9829    0.0000 C   0  0  0  0  0  0  0  0  0  0  0  0
    8.0799    0.0000    0.0000 C   0  0  0  0  0  0  0  0  0  0  0  0
    4.6052   -1.9914    0.0000 C   0  0  0  0  0  0  0  0  0  0  0  0
    3.4539   -1.3173    0.0000 O   0  0  0  0  0  0  0  0  0  0  0  0
    5.7669   -1.3380    0.0000 O   0  0  0  0  0  0  0  0  0  0  0  0
    4.1281   -5.1238    0.0000 C   0  0  0  0  0  0  0  0  0  0  0  0
    3.4539   -6.2855    0.0000 C   0  0  0  0  0  0  0  0  0  0  0  0
    4.1281   -7.4368    0.0000 C   0  0  0  0  0  0  0  0  0  0  0  0
    5.4557   -7.4368    0.0000 C   0  0  0  0  0  0  0  0  0  0  0  0
    6.1195   -6.2855    0.0000 C   0  0  0  0  0  0  0  0  0  0  0  0
    5.4454   -5.1238    0.0000 C   0  0  0  0  0  0  0  0  0  0  0  0
    2.2922   -4.6467    0.0000 C   0  0  0  0  0  0  0  0  0  0  0  0
    1.1513   -3.9829    0.0000 C   0  0  0  0  0  0  0  0  0  0  0  0
    0.0000   -4.6467    0.0000 C   0  0  0  0  0  0  0  0  0  0  0  0
    0.0000   -5.9743    0.0000 C   0  0  0  0  0  0  0  0  0  0  0  0
    1.1409   -6.6381    0.0000 C   0  0  0  0  0  0  0  0  0  0  0  0
    2.2922   -5.9743    0.0000 C   0  0  0  0  0  0  0  0  0  0  0  0
  1  2  1  0  0  0  0
  2  3  1  0  0  0  0
  3  4  1  0  0  0  0
  3 17  1  0  0  0  0
  3 23  1  0  0  0  0
  4  5  1  1  0  0  0
  4 14  1  0  0  0  0
  5  6  1  0  0  0  0
  6  7  2  0  0  0  0
  6 11  1  0  0  0  0
  7  8  1  0  0  0  0
  8  9  2  0  0  0  0
  8 13  1  0  0  0  0
  9 10  1  0  0  0  0
 10 11  2  0  0  0  0
 10 12  1  0  0  0  0
 14 15  1  0  0  0  0
 14 16  2  0  0  0  0
 17 18  2  0  0  0  0
 17 22  1  0  0  0  0
 18 19  1  0  0  0  0
 19 20  2  0  0  0  0
 20 21  1  0  0  0  0
 21 22  2  0  0  0  0
 23 24  2  0  0  0  0
 23 28  1  0  0  0  0
 24 25  1  0  0  0  0
 25 26  2  0  0  0  0
 26 27  1  0  0  0  0
 27 28  2  0  0  0  0
M  END
> <ID>
11575

> <Formula>
C22H22N2O4

> <FW>
378.4211

> <DSSTox_CID>
26282

> <DSSTox_RID>
81508

> <DSSTox_GSID>
46282

> <DSSTox_FileID_Sort>
6189

> <TS_ChemName>
Ambrisentan

> <TS_ChemName_Synonyms>


> <TS_CASRN>
177036-94-1

> <CASRN_ChemName_Relationship>
primary

> <TS_Description>
single chemical compound

> <ChemNote>
stereochem

> <STRUCTURE_Shown>
tested chemical

> <STRUCTURE_Formula>
C22H22N2O4

> <STRUCTURE_MW>
378.4211

> <STRUCTURE_ChemType>
defined organic

> <STRUCTURE_DefinedOrganicForm>
parent

> <STRUCTURE_IUPAC>
(2S)-2-[(4,6-dimethylpyrimidin-2-yl)oxy]-3-methoxy-3,3-diphenylpropanoic acid

> <STRUCTURE_SMILES>
O=C(O)[C@@H](Oc1nc(C)cc(C)n1)C(OC)(c2ccccc2)c3ccccc3

> <STRUCTURE_SMILES_Desalt>
O=C(O)[C@@H](Oc1nc(C)cc(C)n1)C(OC)(c2ccccc2)c3ccccc3

> <Substance_modify_yyyymmdd>
20110815

$$$$
