1772-25-4
ChemmineR-0915142007XD

 12 11  0  0  0  0  0  0  0  0  1 V2000
    1.1452   -1.9840    0.0000 C   0  0  0  0  0  0  0  0  0  0  0  0
    2.2904   -2.6614    0.0000 C   0  0  0  0  0  0  0  0  0  0  0  0
    3.4356   -1.9840    0.0000 C   0  0  0  0  0  0  0  0  0  0  0  0
    4.5970   -2.6614    0.0000 C   0  0  0  0  0  0  0  0  0  0  0  0
    5.7583   -1.9840    0.0000 C   0  0  0  0  0  0  0  0  0  0  0  0
    6.9196   -2.6614    0.0000 C   0  0  0  0  0  0  0  0  0  0  0  0
    0.0000   -2.6614    0.0000 C   0  0  0  0  0  0  0  0  0  0  0  0
    0.0000   -3.9679    0.0000 N   0  0  0  0  0  0  0  0  0  0  0  0
    3.4356   -0.6613    0.0000 C   0  0  0  0  0  0  0  0  0  0  0  0
    2.2904    0.0000    0.0000 N   0  0  0  0  0  0  0  0  0  0  0  0
    8.0649   -1.9840    0.0000 C   0  0  0  0  0  0  0  0  0  0  0  0
    8.0649   -0.6613    0.0000 N   0  0  0  0  0  0  0  0  0  0  0  0
  1  2  1  0  0  0  0
  1  7  1  0  0  0  0
  2  3  1  0  0  0  0
  3  4  1  0  0  0  0
  3  9  1  0  0  0  0
  4  5  1  0  0  0  0
  5  6  1  0  0  0  0
  6 11  1  0  0  0  0
  7  8  3  0  0  0  0
  9 10  3  0  0  0  0
 11 12  3  0  0  0  0
M  END
> <ID>
8207

> <Formula>
C9H11N3

> <FW>
161.2037

> <DSSTox_CID>
21234

> <DSSTox_RID>
79656

> <DSSTox_GSID>
41234

> <DSSTox_FileID_Sort>
4338

> <TS_ChemName>
1,3,6-Hexanetricarbonitrile

> <TS_ChemName_Synonyms>


> <TS_CASRN>
1772-25-4

> <CASRN_ChemName_Relationship>
primary

> <TS_Description>
single chemical compound

> <ChemNote>


> <STRUCTURE_Shown>
tested chemical

> <STRUCTURE_Formula>
C9H11N3

> <STRUCTURE_MW>
161.2037

> <STRUCTURE_ChemType>
defined organic

> <STRUCTURE_DefinedOrganicForm>
parent

> <STRUCTURE_IUPAC>
hexane-1,3,6-tricarbonitrile

> <STRUCTURE_SMILES>
N#CCCCC(CCC#N)C#N

> <STRUCTURE_SMILES_Desalt>
N#CCCCC(CCC#N)C#N

> <Substance_modify_yyyymmdd>
20080825

$$$$
