1772-03-8
ChemmineR-0915142007XD

 13 12  0  0  1  0  0  0  0  0  1 V2000
    4.0227   -2.2697    0.0000 C    0  0  0  0  0  0  0  0  0  0  0  0
    3.3645   -3.4260    0.0000 C    0  0  0  0  0  0  0  0  0  0  0  0
    3.3461   -1.1195    0.0000 O    0  0  0  0  0  0  0  0  0  0  0  0
    2.0359   -3.4383    0.0000 C    0  0  0  0  0  0  0  0  0  0  0  0
    2.0175   -1.1379    0.0000 C    0  0  0  0  0  0  0  0  0  0  0  0
    1.3593   -2.2881    0.0000 C    0  0  0  0  0  0  0  0  0  0  0  0
    5.3512   -2.2574    0.0000 O    0  0  0  0  0  0  0  0  0  0  0  0
    4.0350   -4.5762    0.0000 N    0  0  0  0  0  0  0  0  0  0  0  0
    1.3778   -4.5947    0.0000 O    0  0  0  0  0  0  0  0  0  0  0  0
    0.0308   -2.3066    0.0000 O    0  0  0  0  0  0  0  0  0  0  0  0
    1.3286    0.0000    0.0000 C    0  0  0  0  0  0  0  0  0  0  0  0
    0.0000    0.0000    0.0000 O    0  0  0  0  0  0  0  0  0  0  0  0
    6.1509   -0.3814    0.0000 Cl   0  0  0  0  0  0  0  0  0  0  0  0
  1  2  1  0  0  0  0
  1  3  1  0  0  0  0
  1  7  1  0  0  0  0
  2  4  1  0  0  0  0
  2  8  1  6  0  0  0
  3  5  1  0  0  0  0
  4  6  1  0  0  0  0
  4  9  1  1  0  0  0
  5  6  1  0  0  0  0
  5 11  1  1  0  0  0
  6 10  1  1  0  0  0
 11 12  1  0  0  0  0
M  END
> <ID>
6323

> <Formula>
C6H14ClNO5

> <FW>
215.6321 (179.1711+36.4609)

> <DSSTox_CID>
11356

> <DSSTox_RID>
78871

> <DSSTox_GSID>
31356

> <DSSTox_FileID_Sort>
3553

> <TS_ChemName>
Galactosamine hydrochloride

> <TS_ChemName_Synonyms>
Galactosamine hydrochloride (d-Galactosamine HCl)

> <TS_CASRN>
1772-03-8

> <CASRN_ChemName_Relationship>
primary

> <TS_Description>
single chemical compound

> <ChemNote>
stereochem; parent  [7535-00-4]

> <STRUCTURE_Shown>
tested chemical

> <STRUCTURE_Formula>
C6H14ClNO5

> <STRUCTURE_MW>
215.6321

> <STRUCTURE_ChemType>
defined organic

> <STRUCTURE_DefinedOrganicForm>
complex

> <STRUCTURE_IUPAC>
2-amino-2-deoxy-D-galactopyranose hydrochloride (1:1)

> <STRUCTURE_SMILES>
Cl.O[C@H]1[C@@H](O)[C@@H](CO)OC(O)[C@@H]1N

> <STRUCTURE_SMILES_Desalt>
O[C@H]1[C@@H](O)[C@@H](CO)OC(O)[C@@H]1N

> <Substance_modify_yyyymmdd>
20080429

$$$$
