17737-65-4
ChemmineR-0915142007XD

 18 19  0  0  0  0  0  0  0  0  1 V2000
    2.3049   -0.6608    0.0000 C    0  0  0  0  0  0  0  0  0  0  0  0
    2.3049   -1.9906    0.0000 C    0  0  0  0  0  0  0  0  0  0  0  0
    3.4574   -2.6595    0.0000 C    0  0  0  0  0  0  0  0  0  0  0  0
    4.6017   -1.9906    0.0000 N    0  0  0  0  0  0  0  0  0  0  0  0
    5.7542   -2.6595    0.0000 C    0  0  0  0  0  0  0  0  0  0  0  0
    6.9067   -1.9906    0.0000 C    0  0  0  0  0  0  0  0  0  0  0  0
    8.0591   -2.6595    0.0000 C    0  0  0  0  0  0  0  0  0  0  0  0
    8.0591   -3.9893    0.0000 C    0  0  0  0  0  0  0  0  0  0  0  0
    6.9067   -4.6501    0.0000 C    0  0  0  0  0  0  0  0  0  0  0  0
    5.7542   -3.9893    0.0000 N    0  0  0  0  0  0  0  0  0  0  0  0
    6.9067   -0.6608    0.0000 C    0  0  0  0  0  0  0  0  0  0  0  0
    8.0591    0.0000    0.0000 O    0  0  0  0  0  0  0  0  0  0  0  0
    5.7542    0.0000    0.0000 O    0  0  0  0  0  0  0  0  0  0  0  0
    3.4574   -3.9893    0.0000 C    0  0  0  0  0  0  0  0  0  0  0  0
    2.3049   -4.6501    0.0000 C    0  0  0  0  0  0  0  0  0  0  0  0
    1.1525   -3.9893    0.0000 C    0  0  0  0  0  0  0  0  0  0  0  0
    1.1525   -2.6595    0.0000 C    0  0  0  0  0  0  0  0  0  0  0  0
    0.0000   -1.9906    0.0000 Cl   0  0  0  0  0  0  0  0  0  0  0  0
  1  2  1  0  0  0  0
  2  3  2  0  0  0  0
  2 17  1  0  0  0  0
  3  4  1  0  0  0  0
  3 14  1  0  0  0  0
  4  5  1  0  0  0  0
  5  6  2  0  0  0  0
  5 10  1  0  0  0  0
  6  7  1  0  0  0  0
  6 11  1  0  0  0  0
  7  8  2  0  0  0  0
  8  9  1  0  0  0  0
  9 10  2  0  0  0  0
 11 12  1  0  0  0  0
 11 13  2  0  0  0  0
 14 15  2  0  0  0  0
 15 16  1  0  0  0  0
 16 17  2  0  0  0  0
 17 18  1  0  0  0  0
M  END
> <ID>
11425

> <Formula>
C13H11ClN2O2

> <FW>
262.6916

> <DSSTox_CID>
26121

> <DSSTox_RID>
81357

> <DSSTox_GSID>
46121

> <DSSTox_FileID_Sort>
6038

> <TS_ChemName>
Clonixin

> <TS_ChemName_Synonyms>


> <TS_CASRN>
17737-65-4

> <CASRN_ChemName_Relationship>
primary

> <TS_Description>
single chemical compound

> <ChemNote>


> <STRUCTURE_Shown>
tested chemical

> <STRUCTURE_Formula>
C13H11ClN2O2

> <STRUCTURE_MW>
262.6916

> <STRUCTURE_ChemType>
defined organic

> <STRUCTURE_DefinedOrganicForm>
parent

> <STRUCTURE_IUPAC>
2-[(3-chloro-2-methylphenyl)amino]pyridine-3-carboxylic acid

> <STRUCTURE_SMILES>
O=C(O)c2cccnc2Nc1cccc(Cl)c1C

> <STRUCTURE_SMILES_Desalt>
O=C(O)c2cccnc2Nc1cccc(Cl)c1C

> <Substance_modify_yyyymmdd>
20110818

$$$$
