17766-26-6
ChemmineR-0915142007XD

 12  9  0  0  0  0  0  0  0  0  2 V2000
    3.8569   -1.9848    0.0000 N    0  5  0  0  0  0  0  0  0  0  0  0
    3.8569   -3.3151    0.0000 C    0  0  0  0  0  0  0  0  0  0  0  0
    2.7036   -3.9856    0.0000 N    0  5  0  0  0  0  0  0  0  0  0  0
    1.5556   -3.3151    0.0000 C    0  0  0  0  0  0  0  0  0  0  0  0
    1.5556   -1.9848    0.0000 N    0  5  0  0  0  0  0  0  0  0  0  0
    2.7036   -1.3303    0.0000 C    0  0  0  0  0  0  0  0  0  0  0  0
    5.0102   -3.9856    0.0000 S    0  0  0  0  0  0  0  0  0  0  0  0
    0.4023   -3.9856    0.0000 S    0  0  0  0  0  0  0  0  0  0  0  0
    2.7036    0.0000    0.0000 S    0  0  0  0  0  0  0  0  0  0  0  0
    4.4201   -0.4989    0.0000 Na   0  3  0  0  0  0  0  0  0  0  0  0
    0.0000   -1.2499    0.0000 Na   0  3  0  0  0  0  0  0  0  0  0  0
    2.7036   -5.3642    0.0000 Na   0  3  0  0  0  0  0  0  0  0  0  0
  1  2  1  0  0  0  0
  1  6  1  0  0  0  0
  2  3  1  0  0  0  0
  2  7  2  0  0  0  0
  3  4  1  0  0  0  0
  4  5  1  0  0  0  0
  4  8  2  0  0  0  0
  5  6  1  0  0  0  0
  6  9  2  0  0  0  0
M  END
> <ID>
10500

> <Formula>
C3N3Na3S3

> <FW>
243.2165 (174.2488+22.9892+22.9892+22.9892)

> <DSSTox_CID>
24853

> <DSSTox_RID>
80532

> <DSSTox_GSID>
44853

> <DSSTox_FileID_Sort>
5214

> <TS_ChemName>
Trisodium 2,4,6-trithioxo-1,3,5-triazinane-1,3,5-triide

> <TS_ChemName_Synonyms>
Trisodium 2,4,6-trithioxo-1,3,5-triazinane-1,3,5-triide (1,3,5-Triazine-2,4,6(1H,3H,5H)-trithione, trisodium salt)

> <TS_CASRN>
17766-26-6

> <CASRN_ChemName_Relationship>
primary

> <TS_Description>
single chemical compound

> <ChemNote>
parent [638-16-4]

> <STRUCTURE_Shown>
tested chemical

> <STRUCTURE_Formula>
C3N3Na3S3

> <STRUCTURE_MW>
243.2165

> <STRUCTURE_ChemType>
defined organic

> <STRUCTURE_DefinedOrganicForm>
salt

> <STRUCTURE_IUPAC>
trisodium 2,4,6-trithioxo-1,3,5-triazinane-1,3,5-triide

> <STRUCTURE_SMILES>
[Na+].[Na+].[Na+].S=C1[N-]C(=S)[N-]C(=S)[N-]1

> <STRUCTURE_SMILES_Desalt>
S=C1NC(=S)NC(=S)N1

> <Substance_modify_yyyymmdd>
20091116

$$$$
