1777-82-8
ChemmineR-0915142007XD

 10 10  0  0  0  0  0  0  0  0  1 V2000
    4.5907    0.0000    0.0000 C    0  0  0  0  0  0  0  0  0  0  0  0
    3.4574   -0.6501    0.0000 C    0  0  0  0  0  0  0  0  0  0  0  0
    3.4574   -1.9732    0.0000 C    0  0  0  0  0  0  0  0  0  0  0  0
    2.2953    0.0000    0.0000 C    0  0  0  0  0  0  0  0  0  0  0  0
    2.2953   -2.6520    0.0000 C    0  0  0  0  0  0  0  0  0  0  0  0
    1.1448   -0.6501    0.0000 C    0  0  0  0  0  0  0  0  0  0  0  0
    1.1448   -1.9732    0.0000 C    0  0  0  0  0  0  0  0  0  0  0  0
    4.6079   -2.6520    0.0000 Cl   0  0  0  0  0  0  0  0  0  0  0  0
    0.0000   -2.6520    0.0000 Cl   0  0  0  0  0  0  0  0  0  0  0  0
    5.7527   -0.6788    0.0000 O    0  0  0  0  0  0  0  0  0  0  0  0
  1  2  1  0  0  0  0
  1 10  1  0  0  0  0
  2  3  2  0  0  0  0
  2  4  1  0  0  0  0
  3  5  1  0  0  0  0
  3  8  1  0  0  0  0
  4  6  2  0  0  0  0
  5  7  2  0  0  0  0
  6  7  1  0  0  0  0
  7  9  1  0  0  0  0
M  END
> <ID>
8328

> <Formula>
C7H6Cl2O

> <FW>
177.0279

> <DSSTox_CID>
21362

> <DSSTox_RID>
79699

> <DSSTox_GSID>
41362

> <DSSTox_FileID_Sort>
4381

> <TS_ChemName>
2,4-Dichlorobenzyl alcohol

> <TS_ChemName_Synonyms>
2,4-Dichlorobenzyl alcohol (2,4-Dichlorobenzenemethanol)

> <TS_CASRN>
1777-82-8

> <CASRN_ChemName_Relationship>
primary

> <TS_Description>
single chemical compound

> <ChemNote>


> <STRUCTURE_Shown>
tested chemical

> <STRUCTURE_Formula>
C7H6Cl2O

> <STRUCTURE_MW>
177.0279

> <STRUCTURE_ChemType>
defined organic

> <STRUCTURE_DefinedOrganicForm>
parent

> <STRUCTURE_IUPAC>
(2,4-dichlorophenyl)methanol

> <STRUCTURE_SMILES>
OCc1ccc(Cl)cc1Cl

> <STRUCTURE_SMILES_Desalt>
OCc1ccc(Cl)cc1Cl

> <Substance_modify_yyyymmdd>
20080825

$$$$
