177785-47-6
ChemmineR-0915142007XD

 18 19  0  0  1  0  0  0  0  0  1 V2000
    4.3431   -2.2924    0.0000 N   0  0  0  0  0  0  0  0  0  0  0  0
    3.5595   -1.2171    0.0000 S   0  0  0  0  0  0  0  0  0  0  0  0
    3.5595   -3.3845    0.0000 C   0  0  0  0  0  0  0  0  0  0  0  0
    5.6769   -2.2924    0.0000 C   0  0  0  0  0  0  0  0  0  0  0  0
    2.2924   -1.6339    0.0000 C   0  0  0  0  0  0  0  0  0  0  0  0
    2.2924   -2.9677    0.0000 C   0  0  0  0  0  0  0  0  0  0  0  0
    3.9763   -4.6349    0.0000 O   0  0  0  0  0  0  0  0  0  0  0  0
    6.3521   -1.1587    0.0000 C   0  0  0  0  0  0  0  0  0  0  0  0
    6.3521   -3.4512    0.0000 C   0  0  0  0  0  0  0  0  0  0  0  0
    1.1504   -0.9670    0.0000 C   0  0  0  0  0  0  0  0  0  0  0  0
    1.1504   -3.6262    0.0000 C   0  0  0  0  0  0  0  0  0  0  0  0
    7.6776   -1.1587    0.0000 C   0  0  0  0  0  0  0  0  0  0  0  0
    5.6769    0.0000    0.0000 C   0  0  0  0  0  0  0  0  0  0  0  0
    7.6776   -3.4512    0.0000 O   0  0  0  0  0  0  0  0  0  0  0  0
    5.6769   -4.6015    0.0000 O   0  0  0  0  0  0  0  0  0  0  0  0
    0.0000   -1.6339    0.0000 C   0  0  0  0  0  0  0  0  0  0  0  0
    0.0000   -2.9677    0.0000 C   0  0  0  0  0  0  0  0  0  0  0  0
    8.3361   -2.3091    0.0000 C   0  0  0  0  0  0  0  0  0  0  0  0
  1  2  1  0  0  0  0
  1  3  1  0  0  0  0
  1  4  1  0  0  0  0
  2  5  1  0  0  0  0
  3  6  1  0  0  0  0
  3  7  2  0  0  0  0
  4  8  1  0  0  0  0
  4  9  1  1  0  0  0
  5 10  2  0  0  0  0
  5  6  1  0  0  0  0
  6 11  2  0  0  0  0
  8 12  1  0  0  0  0
  8 13  1  1  0  0  0
  9 14  1  0  0  0  0
  9 15  2  0  0  0  0
 10 16  1  0  0  0  0
 11 17  1  0  0  0  0
 12 18  1  0  0  0  0
 16 17  2  0  0  0  0
M  END
> <ID>
12403

> <Formula>
C13H15NO3S

> <FW>
265.3281

> <DSSTox_CID>
27261

> <DSSTox_RID>
82218

> <DSSTox_GSID>
47261

> <DSSTox_FileID_Sort>
6899

> <TS_ChemName>
PharmaGSID_47261

> <TS_ChemName_Synonyms>
(2S,3S)-3-methyl-2-(3-oxo-1,2-benzothiazol-2(3H)-yl)pentanoic acid

> <TS_CASRN>
177785-47-6

> <CASRN_ChemName_Relationship>
primary

> <TS_Description>
single chemical compound

> <ChemNote>
stereochem

> <STRUCTURE_Shown>
tested chemical

> <STRUCTURE_Formula>
C13H15NO3S

> <STRUCTURE_MW>
265.3281

> <STRUCTURE_ChemType>
defined organic

> <STRUCTURE_DefinedOrganicForm>
parent

> <STRUCTURE_IUPAC>
(2S,3S)-3-methyl-2-(3-oxo-1,2-benzothiazol-2(3H)-yl)pentanoic acid

> <STRUCTURE_SMILES>
O=C(O)[C@@H](N2Sc1ccccc1C2=O)[C@@H](C)CC

> <STRUCTURE_SMILES_Desalt>
O=C(O)[C@@H](N2Sc1ccccc1C2=O)[C@@H](C)CC

> <Substance_modify_yyyymmdd>
20130910

$$$$
