17780-75-5
ChemmineR-0915142007XD

 18 17  0  0  0  0  0  0  0  0  1 V2000
    4.6055   -2.6876    0.0000 O    0  0  0  0  0  0  0  0  0  0  0  0
    3.4447   -2.0315    0.0000 C    0  0  0  0  0  0  0  0  0  0  0  0
    2.2964   -2.6876    0.0000 C    0  0  0  0  0  0  0  0  0  0  0  0
    1.1482   -2.0188    0.0000 C    0  0  0  0  0  0  0  0  0  0  0  0
    1.1482   -0.6814    0.0000 C    0  0  0  0  0  0  0  0  0  0  0  0
    0.0000    0.0000    0.0000 Cl   0  0  0  0  0  0  0  0  0  0  0  0
    2.2964   -0.0126    0.0000 C    0  0  0  0  0  0  0  0  0  0  0  0
    3.4447   -0.6814    0.0000 C    0  0  0  0  0  0  0  0  0  0  0  0
    4.6055   -0.0126    0.0000 Cl   0  0  0  0  0  0  0  0  0  0  0  0
    5.7537   -2.0315    0.0000 C    0  0  0  0  0  0  0  0  0  0  0  0
    6.9019   -2.7002    0.0000 C    0  0  0  0  0  0  0  0  0  0  0  0
    8.0628   -2.0315    0.0000 C    0  0  0  0  0  0  0  0  0  0  0  0
    9.1984   -2.7002    0.0000 N    0  0  0  0  0  0  0  0  0  0  0  0
   10.3466   -2.0441    0.0000 C    0  0  0  0  0  0  0  0  0  0  0  0
    9.1984   -4.0251    0.0000 C    0  0  0  0  0  0  0  0  0  0  0  0
   11.4948   -2.7002    0.0000 C    0  0  0  0  0  0  0  0  0  0  0  0
   12.6178   -3.4068    0.0000 C    0  0  0  0  0  0  0  0  0  0  0  0
    6.9524   -0.4038    0.0000 Cl   0  0  0  0  0  0  0  0  0  0  0  0
  1  2  1  0  0  0  0
  1 10  1  0  0  0  0
  2  3  2  0  0  0  0
  2  8  1  0  0  0  0
  3  4  1  0  0  0  0
  4  5  2  0  0  0  0
  5  6  1  0  0  0  0
  5  7  1  0  0  0  0
  7  8  2  0  0  0  0
  8  9  1  0  0  0  0
 10 11  1  0  0  0  0
 11 12  1  0  0  0  0
 12 13  1  0  0  0  0
 13 14  1  0  0  0  0
 13 15  1  0  0  0  0
 14 16  1  0  0  0  0
 16 17  3  0  0  0  0
M  END
> <ID>
11188

> <Formula>
C13H16Cl3NO

> <FW>
308.6312 (272.1703+36.4609)

> <DSSTox_CID>
25778

> <DSSTox_RID>
81120

> <DSSTox_GSID>
45778

> <DSSTox_FileID_Sort>
5801

> <TS_ChemName>
Clorgyline hydrochloride

> <TS_ChemName_Synonyms>


> <TS_CASRN>
17780-75-5

> <CASRN_ChemName_Relationship>
primary

> <TS_Description>
single chemical compound

> <ChemNote>
parent [17780-72-2]

> <STRUCTURE_Shown>
tested chemical

> <STRUCTURE_Formula>
C13H16Cl3NO

> <STRUCTURE_MW>
308.6312

> <STRUCTURE_ChemType>
defined organic

> <STRUCTURE_DefinedOrganicForm>
complex

> <STRUCTURE_IUPAC>
N-[3-(2,4-dichlorophenoxy)propyl]-N-methylprop-2-yn-1-amine hydrochloride (1:1)

> <STRUCTURE_SMILES>
Cl.Clc1cc(Cl)ccc1OCCCN(C)CC#C

> <STRUCTURE_SMILES_Desalt>
Clc1cc(Cl)ccc1OCCCN(C)CC#C

> <Substance_modify_yyyymmdd>
20110902

$$$$
