17784-12-2
ChemmineR-0915142007XD

 20 21  0  0  0  0  0  0  0  0  1 V2000
    6.6482   -3.4544    0.0000 C   0  0  0  0  0  0  0  0  0  0  0  0
    5.3167   -3.4544    0.0000 C   0  0  0  0  0  0  0  0  0  0  0  0
    4.6556   -2.2999    0.0000 C   0  0  0  0  0  0  0  0  0  0  0  0
    3.3241   -2.2999    0.0000 N   0  0  0  0  0  0  0  0  0  0  0  0
    2.6630   -3.4544    0.0000 S   0  0  0  0  0  0  0  0  0  0  0  0
    3.8083   -4.1248    0.0000 O   0  0  0  0  0  0  0  0  0  0  0  0
    1.5084   -2.7933    0.0000 O   0  0  0  0  0  0  0  0  0  0  0  0
    1.9926   -4.6090    0.0000 C   0  0  0  0  0  0  0  0  0  0  0  0
    0.6611   -4.6090    0.0000 C   0  0  0  0  0  0  0  0  0  0  0  0
    0.0000   -5.7636    0.0000 C   0  0  0  0  0  0  0  0  0  0  0  0
    0.6611   -6.9089    0.0000 C   0  0  0  0  0  0  0  0  0  0  0  0
    0.0000   -8.0635    0.0000 N   0  0  0  0  0  0  0  0  0  0  0  0
    1.9926   -6.9089    0.0000 C   0  0  0  0  0  0  0  0  0  0  0  0
    2.6630   -5.7636    0.0000 C   0  0  0  0  0  0  0  0  0  0  0  0
    5.3167   -1.1546    0.0000 N   0  0  0  0  0  0  0  0  0  0  0  0
    6.6482   -1.1546    0.0000 C   0  0  0  0  0  0  0  0  0  0  0  0
    7.3186    0.0000    0.0000 O   0  0  0  0  0  0  0  0  0  0  0  0
    7.3186   -2.2999    0.0000 N   0  0  0  0  0  0  0  0  0  0  0  0
    8.6501   -2.2999    0.0000 C   0  0  0  0  0  0  0  0  0  0  0  0
    9.3112   -1.1546    0.0000 C   0  0  0  0  0  0  0  0  0  0  0  0
  1  2  2  0  0  0  0
  1 18  1  0  0  0  0
  2  3  1  0  0  0  0
  3  4  1  0  0  0  0
  3 15  2  0  0  0  0
  4  5  1  0  0  0  0
  5  6  2  0  0  0  0
  5  7  2  0  0  0  0
  5  8  1  0  0  0  0
  8  9  2  0  0  0  0
  8 14  1  0  0  0  0
  9 10  1  0  0  0  0
 10 11  2  0  0  0  0
 11 12  1  0  0  0  0
 11 13  1  0  0  0  0
 13 14  2  0  0  0  0
 15 16  1  0  0  0  0
 16 17  2  0  0  0  0
 16 18  1  0  0  0  0
 18 19  1  0  0  0  0
 19 20  1  0  0  0  0
M  END
> <ID>
3225

> <Formula>
C12H14N4O3S

> <FW>
294.3296

> <DSSTox_CID>
3606

> <DSSTox_RID>
97550

> <DSSTox_GSID>
23606

> <DSSTox_FileID_Sort>
8325

> <TS_ChemName>
Sulfacytine

> <TS_ChemName_Synonyms>


> <TS_CASRN>
17784-12-2

> <CASRN_ChemName_Relationship>
primary

> <TS_Description>
single chemical compound

> <ChemNote>


> <STRUCTURE_Shown>
tested chemical

> <STRUCTURE_Formula>
C12H14N4O3S

> <STRUCTURE_MW>
294.3296

> <STRUCTURE_ChemType>
defined organic

> <STRUCTURE_DefinedOrganicForm>
parent

> <STRUCTURE_IUPAC>
4-amino-N-(1-ethyl-2-oxo-1,2-dihydropyrimidin-4-yl)benzenesulfonamide

> <STRUCTURE_SMILES>
O=C1N=C(C=CN1CC)NS(=O)(=O)c2ccc(N)cc2

> <STRUCTURE_SMILES_Desalt>
O=C1N=C(C=CN1CC)NS(=O)(=O)c2ccc(N)cc2

> <Substance_modify_yyyymmdd>
20080429

$$$$
