1778-02-5
ChemmineR-0915142007XD

 30 33  0  0  1  0  0  0  0  0  1 V2000
    8.9684   -2.5929    0.0000 C   0  0  0  0  0  0  0  0  0  0  0  0
    8.9684   -3.8725    0.0000 C   0  0  0  0  0  0  0  0  0  0  0  0
    6.7235   -3.9174    0.0000 C   0  0  0  0  0  0  0  0  0  0  0  0
    7.8347   -4.5459    0.0000 C   0  0  0  0  0  0  0  0  0  0  0  0
    5.6235   -4.5459    0.0000 C   0  0  0  0  0  0  0  0  0  0  0  0
    7.8347   -1.9643    0.0000 C   0  0  0  0  0  0  0  0  0  0  0  0
    6.7235   -2.5929    0.0000 C   0  0  0  0  0  0  0  0  0  0  0  0
   11.2245   -3.8725    0.0000 C   0  0  0  0  0  0  0  0  0  0  0  0
    7.8347   -5.8143    0.0000 C   0  0  0  0  0  0  0  0  0  0  0  0
    5.6235   -5.8143    0.0000 C   0  0  0  0  0  0  0  0  0  0  0  0
   10.0684   -1.9194    0.0000 C   0  0  0  0  0  0  0  0  0  0  0  0
    6.7235   -6.4653    0.0000 C   0  0  0  0  0  0  0  0  0  0  0  0
   11.2245   -2.5929    0.0000 C   0  0  0  0  0  0  0  0  0  0  0  0
    8.9235   -1.3245    0.0000 C   0  0  0  0  0  0  0  0  0  0  0  0
    5.6235   -3.2663    0.0000 C   0  0  0  0  0  0  0  0  0  0  0  0
    4.5122   -3.9174    0.0000 C   0  0  0  0  0  0  0  0  0  0  0  0
   10.0684   -0.6959    0.0000 C   0  0  0  0  0  0  0  0  0  0  0  0
    4.5122   -6.5102    0.0000 C   0  0  0  0  0  0  0  0  0  0  0  0
    3.3674   -4.5459    0.0000 C   0  0  0  0  0  0  0  0  0  0  0  0
   11.1796   -0.0449    0.0000 C   0  0  0  0  0  0  0  0  0  0  0  0
    3.3674   -5.8143    0.0000 C   0  0  0  0  0  0  0  0  0  0  0  0
    7.8347   -3.1990    0.0000 H   0  0  0  0  0  0  0  0  0  0  0  0
    8.9684   -5.2306    0.0000 H   0  0  0  0  0  0  0  0  0  0  0  0
    6.7235   -5.2306    0.0000 H   0  0  0  0  0  0  0  0  0  0  0  0
   11.2245   -1.2010    0.0000 H   0  0  0  0  0  0  0  0  0  0  0  0
    8.9235    0.0000    0.0000 O   0  0  0  0  0  0  0  0  0  0  0  0
    1.1561   -5.8480    0.0000 C   0  0  0  0  0  0  0  0  0  0  0  0
    1.1561   -4.4561    0.0000 O   0  0  0  0  0  0  0  0  0  0  0  0
    2.2225   -6.5102    0.0000 O   0  0  0  0  0  0  0  0  0  0  0  0
    0.0000   -6.4765    0.0000 C   0  0  0  0  0  0  0  0  0  0  0  0
  1  6  1  0  0  0  0
  1 11  1  0  0  0  0
  1 14  1  1  0  0  0
  1  2  1  0  0  0  0
  2  4  1  0  0  0  0
  2  8  1  0  0  0  0
  2 23  1  6  0  0  0
  3  5  1  0  0  0  0
  3  4  1  0  0  0  0
  3  7  1  0  0  0  0
  3 24  1  6  0  0  0
  4  9  1  0  0  0  0
  4 22  1  1  0  0  0
  5 10  1  0  0  0  0
  5 15  1  1  0  0  0
  5 16  1  0  0  0  0
  6  7  1  0  0  0  0
  8 13  1  0  0  0  0
  9 12  1  0  0  0  0
 10 18  1  0  0  0  0
 10 12  2  0  0  0  0
 11 13  1  0  0  0  0
 11 17  1  0  0  0  0
 11 25  1  6  0  0  0
 16 19  1  0  0  0  0
 17 20  1  0  0  0  0
 17 26  2  0  0  0  0
 18 21  1  0  0  0  0
 19 21  1  0  0  0  0
 21 29  1  1  0  0  0
 27 28  2  0  0  0  0
 27 29  1  0  0  0  0
 27 30  1  0  0  0  0
M  END
> <ID>
13931

> <Formula>
C23H34O3

> <FW>
358.5143

> <DSSTox_CID>
28868

> <DSSTox_RID>
83137

> <DSSTox_GSID>
48942

> <DSSTox_FileID_Sort>
7814

> <TS_ChemName>
3beta-Acetoxy-5-pregnene-20-one

> <TS_ChemName_Synonyms>


> <TS_CASRN>
1778-02-5

> <CASRN_ChemName_Relationship>
primary

> <TS_Description>
single chemical compound

> <ChemNote>


> <STRUCTURE_Shown>
tested chemical

> <STRUCTURE_Formula>
C23H34O3

> <STRUCTURE_MW>
358.5143

> <STRUCTURE_ChemType>
defined organic

> <STRUCTURE_DefinedOrganicForm>
parent

> <STRUCTURE_IUPAC>
(3beta)-20-oxopregn-5-en-3-yl acetate

> <STRUCTURE_SMILES>
CC(=O)[C@H]4CC[C@@H]3[C@]4(C)CC[C@H]2[C@H]3CC=C1C[C@H](CC[C@@]12C)OC(C)=O

> <STRUCTURE_SMILES_Desalt>
CC(=O)[C@H]4CC[C@@H]3[C@]4(C)CC[C@H]2[C@H]3CC=C1C[C@H](CC[C@@]12C)OC(C)=O

> <Substance_modify_yyyymmdd>
20111204

$$$$
