17781-31-6
ChemmineR-0915142007XD

 22 24  0  0  0  0  0  0  0  0  1 V2000
    5.3308   -3.9981    0.0000 C    0  0  0  0  0  0  0  0  0  0  0  0
    5.3308   -2.6654    0.0000 C    0  0  0  0  0  0  0  0  0  0  0  0
    4.1793   -2.0044    0.0000 C    0  0  0  0  0  0  0  0  0  0  0  0
    6.4822   -2.0044    0.0000 C    0  0  0  0  0  0  0  0  0  0  0  0
    4.1793   -0.6717    0.0000 N    0  0  0  0  0  0  0  0  0  0  0  0
    6.4822   -0.6717    0.0000 C    0  0  0  0  0  0  0  0  0  0  0  0
    5.3308    0.0000    0.0000 C    0  0  0  0  0  0  0  0  0  0  0  0
    3.9981   -3.9981    0.0000 C    0  0  0  0  0  0  0  0  0  0  0  0
    3.3264   -5.1495    0.0000 C    0  0  0  0  0  0  0  0  0  0  0  0
    3.3371   -2.8573    0.0000 C    0  0  0  0  0  0  0  0  0  0  0  0
    1.9937   -5.1495    0.0000 C    0  0  0  0  0  0  0  0  0  0  0  0
    2.0044   -2.8573    0.0000 C    0  0  0  0  0  0  0  0  0  0  0  0
    1.3327   -3.9981    0.0000 C    0  0  0  0  0  0  0  0  0  0  0  0
    6.6635   -3.9981    0.0000 C    0  0  0  0  0  0  0  0  0  0  0  0
    7.3352   -2.8573    0.0000 C    0  0  0  0  0  0  0  0  0  0  0  0
    7.3245   -5.1495    0.0000 C    0  0  0  0  0  0  0  0  0  0  0  0
    8.6679   -2.8573    0.0000 C    0  0  0  0  0  0  0  0  0  0  0  0
    8.6572   -5.1495    0.0000 C    0  0  0  0  0  0  0  0  0  0  0  0
    9.3289   -4.0088    0.0000 C    0  0  0  0  0  0  0  0  0  0  0  0
    5.3308   -5.3308    0.0000 O    0  0  0  0  0  0  0  0  0  0  0  0
    0.0000   -3.9981    0.0000 Cl   0  0  0  0  0  0  0  0  0  0  0  0
   10.6616   -4.0088    0.0000 Cl   0  0  0  0  0  0  0  0  0  0  0  0
  1  2  1  0  0  0  0
  1  8  1  0  0  0  0
  1 14  1  0  0  0  0
  1 20  1  0  0  0  0
  2  3  1  0  0  0  0
  2  4  2  0  0  0  0
  3  5  2  0  0  0  0
  4  6  1  0  0  0  0
  5  7  1  0  0  0  0
  6  7  2  0  0  0  0
  8  9  1  0  0  0  0
  8 10  2  0  0  0  0
  9 11  2  0  0  0  0
 10 12  1  0  0  0  0
 11 13  1  0  0  0  0
 12 13  2  0  0  0  0
 13 21  1  0  0  0  0
 14 15  1  0  0  0  0
 14 16  2  0  0  0  0
 15 17  2  0  0  0  0
 16 18  1  0  0  0  0
 17 19  1  0  0  0  0
 18 19  2  0  0  0  0
 19 22  1  0  0  0  0
M  END
> <ID>
9185

> <Formula>
C18H13Cl2NO

> <FW>
330.2079

> <DSSTox_CID>
22256

> <DSSTox_RID>
79976

> <DSSTox_GSID>
42256

> <DSSTox_FileID_Sort>
4658

> <TS_ChemName>
Parinol

> <TS_ChemName_Synonyms>
Bis(4-chlorophenyl)pyridin-3-yl-methanol (Parinol)

> <TS_CASRN>
17781-31-6

> <CASRN_ChemName_Relationship>
primary

> <TS_Description>
single chemical compound

> <ChemNote>


> <STRUCTURE_Shown>
tested chemical

> <STRUCTURE_Formula>
C18H13Cl2NO

> <STRUCTURE_MW>
330.2079

> <STRUCTURE_ChemType>
defined organic

> <STRUCTURE_DefinedOrganicForm>
parent

> <STRUCTURE_IUPAC>
bis(4-chlorophenyl)(pyridin-3-yl)methanol

> <STRUCTURE_SMILES>
OC(c1ccc(Cl)cc1)(c2cccnc2)c3ccc(Cl)cc3

> <STRUCTURE_SMILES_Desalt>
OC(c1ccc(Cl)cc1)(c2cccnc2)c3ccc(Cl)cc3

> <Substance_modify_yyyymmdd>
20080825

$$$$
