17796-82-6
ChemmineR-0915142007XD

 18 20  0  0  0  0  0  0  0  0  1 V2000
    2.3087   -2.7838    0.0000 C   0  0  0  0  0  0  0  0  0  0  0  0
    2.3087   -4.1174    0.0000 C   0  0  0  0  0  0  0  0  0  0  0  0
    4.3424   -3.4589    0.0000 N   0  0  0  0  0  0  0  0  0  0  0  0
    3.5589   -2.3837    0.0000 C   0  0  0  0  0  0  0  0  0  0  0  0
    3.5589   -4.5341    0.0000 C   0  0  0  0  0  0  0  0  0  0  0  0
    1.1502   -2.1337    0.0000 C   0  0  0  0  0  0  0  0  0  0  0  0
    1.1502   -4.7925    0.0000 C   0  0  0  0  0  0  0  0  0  0  0  0
    0.0000   -4.1174    0.0000 C   0  0  0  0  0  0  0  0  0  0  0  0
    0.0000   -2.7838    0.0000 C   0  0  0  0  0  0  0  0  0  0  0  0
    3.9757   -5.8010    0.0000 O   0  0  0  0  0  0  0  0  0  0  0  0
    3.9757   -1.1169    0.0000 O   0  0  0  0  0  0  0  0  0  0  0  0
    5.6759   -3.4589    0.0000 S   0  0  0  0  0  0  0  0  0  0  0  0
    6.3511   -2.3087    0.0000 C   0  0  0  0  0  0  0  0  0  0  0  0
    5.6759   -1.1502    0.0000 C   0  0  0  0  0  0  0  0  0  0  0  0
    6.3511    0.0000    0.0000 C   0  0  0  0  0  0  0  0  0  0  0  0
    7.6763    0.0000    0.0000 C   0  0  0  0  0  0  0  0  0  0  0  0
    8.3347   -1.1502    0.0000 C   0  0  0  0  0  0  0  0  0  0  0  0
    7.6763   -2.3087    0.0000 C   0  0  0  0  0  0  0  0  0  0  0  0
  1  2  2  0  0  0  0
  1  4  1  0  0  0  0
  1  6  1  0  0  0  0
  2  5  1  0  0  0  0
  2  7  1  0  0  0  0
  3  4  1  0  0  0  0
  3  5  1  0  0  0  0
  3 12  1  0  0  0  0
  4 11  2  0  0  0  0
  5 10  2  0  0  0  0
  6  9  2  0  0  0  0
  7  8  2  0  0  0  0
  8  9  1  0  0  0  0
 12 13  1  0  0  0  0
 13 14  1  0  0  0  0
 13 18  1  0  0  0  0
 14 15  1  0  0  0  0
 15 16  1  0  0  0  0
 16 17  1  0  0  0  0
 17 18  1  0  0  0  0
M  END
> <ID>
5400

> <Formula>
C14H15NO2S

> <FW>
261.3394

> <DSSTox_CID>
7793

> <DSSTox_RID>
78568

> <DSSTox_GSID>
27793

> <DSSTox_FileID_Sort>
3251

> <TS_ChemName>
N-(Cyclohexylthio)phthalimide

> <TS_ChemName_Synonyms>
N-(Cyclohexylthio)phthalimide (1H-Isoindole-1,3(2H)-dione, 2-(cyclohexylthio)- )

> <TS_CASRN>
17796-82-6

> <CASRN_ChemName_Relationship>
primary

> <TS_Description>
single chemical compound

> <ChemNote>


> <STRUCTURE_Shown>
tested chemical

> <STRUCTURE_Formula>
C14H15NO2S

> <STRUCTURE_MW>
261.3394

> <STRUCTURE_ChemType>
defined organic

> <STRUCTURE_DefinedOrganicForm>
parent

> <STRUCTURE_IUPAC>
2-(cyclohexylsulfanyl)-1H-isoindole-1,3(2H)-dione

> <STRUCTURE_SMILES>
O=C3c1ccccc1C(=O)N3SC2CCCCC2

> <STRUCTURE_SMILES_Desalt>
O=C3c1ccccc1C(=O)N3SC2CCCCC2

> <Substance_modify_yyyymmdd>
20080429

$$$$
