1779-48-2
ChemmineR-0915142007XD

 10 10  0  0  0  0  0  0  0  0  1 V2000
    2.4827   -3.3227    0.0000 C   0  0  0  0  0  0  0  0  0  0  0  0
    2.4827   -4.6518    0.0000 C   0  0  0  0  0  0  0  0  0  0  0  0
    1.3291   -2.6582    0.0000 C   0  0  0  0  0  0  0  0  0  0  0  0
    1.3291   -5.3164    0.0000 C   0  0  0  0  0  0  0  0  0  0  0  0
    0.1754   -3.3227    0.0000 C   0  0  0  0  0  0  0  0  0  0  0  0
    0.1754   -4.6518    0.0000 C   0  0  0  0  0  0  0  0  0  0  0  0
    1.3291   -1.3291    0.0000 P   0  0  0  0  0  0  0  0  0  0  0  0
    2.6582   -1.3291    0.0000 O   0  0  0  0  0  0  0  0  0  0  0  0
    0.0000   -1.3291    0.0000 H   0  0  0  0  0  0  0  0  0  0  0  0
    1.3291    0.0000    0.0000 O   0  0  0  0  0  0  0  0  0  0  0  0
  1  2  1  0  0  0  0
  1  3  2  0  0  0  0
  2  4  2  0  0  0  0
  3  5  1  0  0  0  0
  3  7  1  0  0  0  0
  4  6  1  0  0  0  0
  5  6  2  0  0  0  0
  7  8  2  0  0  0  0
  7  9  1  0  0  0  0
  7 10  1  0  0  0  0
M  END
> <ID>
5159

> <Formula>
C6H7O2P

> <FW>
142.0923

> <DSSTox_CID>
7436

> <DSSTox_RID>
78454

> <DSSTox_GSID>
27436

> <DSSTox_FileID_Sort>
3137

> <TS_ChemName>
Phenylphosphinic acid

> <TS_ChemName_Synonyms>


> <TS_CASRN>
1779-48-2

> <CASRN_ChemName_Relationship>
primary

> <TS_Description>
single chemical compound

> <ChemNote>


> <STRUCTURE_Shown>
tested chemical

> <STRUCTURE_Formula>
C6H7O2P

> <STRUCTURE_MW>
142.0923

> <STRUCTURE_ChemType>
defined organic

> <STRUCTURE_DefinedOrganicForm>
parent

> <STRUCTURE_IUPAC>
phenylphosphinic acid

> <STRUCTURE_SMILES>
O=P(O)c1ccccc1

> <STRUCTURE_SMILES_Desalt>
O=P(O)c1ccccc1

> <Substance_modify_yyyymmdd>
20080429

$$$$
