178175-60-5
ChemmineR-0915142007XD

 61 66  0  0  1  0  0  0  0  0  1 V2000
   12.5100   -5.2027    0.0000 C   0  0  0  0  0  0  0  0  0  0  0  0
   12.5100   -3.8894    0.0000 C   0  0  0  0  0  0  0  0  0  0  0  0
   11.4156   -5.8256    0.0000 C   0  0  0  0  0  0  0  0  0  0  0  0
   11.4156   -3.2327    0.0000 C   0  0  0  0  0  0  0  0  0  0  0  0
   13.6549   -5.8088    0.0000 C   0  0  0  0  0  0  0  0  0  0  0  0
   10.5905   -4.5629    0.0000 O   0  0  0  0  0  0  0  0  0  0  0  0
   14.7662   -5.2027    0.0000 C   0  0  0  0  0  0  0  0  0  0  0  0
   13.6549   -3.2327    0.0000 C   0  0  0  0  0  0  0  0  0  0  0  0
   14.7662   -3.8894    0.0000 C   0  0  0  0  0  0  0  0  0  0  0  0
   15.8606   -5.6909    0.0000 N   0  0  0  0  0  0  0  0  0  0  0  0
   13.4865   -4.4955    0.0000 C   0  0  0  0  0  0  0  0  0  0  0  0
   11.4156   -7.1389    0.0000 C   0  0  0  0  0  0  0  0  0  0  0  0
   13.6549   -7.1053    0.0000 C   0  0  0  0  0  0  0  0  0  0  0  0
   11.4156   -1.9194    0.0000 C   0  0  0  0  0  0  0  0  0  0  0  0
   15.8606   -4.4955    0.0000 C   0  0  0  0  0  0  0  0  0  0  0  0
   13.6549   -1.9194    0.0000 C   0  0  0  0  0  0  0  0  0  0  0  0
   12.5437   -7.7619    0.0000 C   0  0  0  0  0  0  0  0  0  0  0  0
   10.4559   -7.6946    0.0000 O   0  0  0  0  0  0  0  0  0  0  0  0
   12.5437   -1.2291    0.0000 C   0  0  0  0  0  0  0  0  0  0  0  0
   10.2706   -1.2291    0.0000 O   0  0  0  0  0  0  0  0  0  0  0  0
   16.8371   -6.6507    0.0000 C   0  0  0  0  0  0  0  0  0  0  0  0
   10.2706    0.0000    0.0000 C   0  0  0  0  0  0  0  0  0  0  0  0
   14.6820   -6.4823    0.0000 H   0  0  0  0  0  0  0  0  0  0  0  0
   13.4697  -10.2370    0.0000 P   0  0  0  0  0  0  0  0  0  0  0  0
   12.1732  -10.2370    0.0000 O   0  0  0  0  0  0  0  0  0  0  0  0
   13.4697  -11.5334    0.0000 O   0  0  0  0  0  0  0  0  0  0  0  0
   13.4697   -8.9405    0.0000 O   0  0  0  0  0  0  0  0  0  0  0  0
   14.7662  -10.2370    0.0000 O   0  0  0  0  0  0  0  0  0  0  0  0
    7.9471  -10.2370    0.0000 P   0  0  0  0  0  0  0  0  0  0  0  0
    7.9471  -11.5334    0.0000 O   0  0  0  0  0  0  0  0  0  0  0  0
    6.6338  -10.2370    0.0000 O   0  0  0  0  0  0  0  0  0  0  0  0
    9.2436  -10.2370    0.0000 O   0  0  0  0  0  0  0  0  0  0  0  0
    7.9471   -8.9237    0.0000 O   0  0  0  0  0  0  0  0  0  0  0  0
    1.2965  -10.1191    0.0000 P   0  0  0  0  0  0  0  0  0  0  0  0
    1.2965   -8.8227    0.0000 O   0  0  0  0  0  0  0  0  0  0  0  0
    1.2796  -11.4156    0.0000 O   0  0  0  0  0  0  0  0  0  0  0  0
    2.5929  -10.1191    0.0000 O   0  0  0  0  0  0  0  0  0  0  0  0
    0.0000  -10.1191    0.0000 O   0  0  0  0  0  0  0  0  0  0  0  0
    2.5424   -5.2195    0.0000 C   0  0  0  0  0  0  0  0  0  0  0  0
    2.5424   -3.9062    0.0000 C   0  0  0  0  0  0  0  0  0  0  0  0
    1.4312   -5.8593    0.0000 C   0  0  0  0  0  0  0  0  0  0  0  0
    1.4312   -3.2496    0.0000 C   0  0  0  0  0  0  0  0  0  0  0  0
    3.6705   -5.8425    0.0000 C   0  0  0  0  0  0  0  0  0  0  0  0
    0.6061   -4.5965    0.0000 O   0  0  0  0  0  0  0  0  0  0  0  0
    4.7817   -5.2195    0.0000 C   0  0  0  0  0  0  0  0  0  0  0  0
    3.6705   -3.2496    0.0000 C   0  0  0  0  0  0  0  0  0  0  0  0
    4.7817   -3.9062    0.0000 C   0  0  0  0  0  0  0  0  0  0  0  0
    5.8762   -5.7246    0.0000 N   0  0  0  0  0  0  0  0  0  0  0  0
    3.5021   -4.5292    0.0000 C   0  0  0  0  0  0  0  0  0  0  0  0
    1.4312   -7.1726    0.0000 C   0  0  0  0  0  0  0  0  0  0  0  0
    3.6705   -7.1389    0.0000 C   0  0  0  0  0  0  0  0  0  0  0  0
    1.4312   -1.9531    0.0000 C   0  0  0  0  0  0  0  0  0  0  0  0
    5.8762   -4.5292    0.0000 C   0  0  0  0  0  0  0  0  0  0  0  0
    3.6705   -1.9531    0.0000 C   0  0  0  0  0  0  0  0  0  0  0  0
    2.5592   -7.7956    0.0000 C   0  0  0  0  0  0  0  0  0  0  0  0
    0.4714   -7.7282    0.0000 O   0  0  0  0  0  0  0  0  0  0  0  0
    2.5592   -1.2628    0.0000 C   0  0  0  0  0  0  0  0  0  0  0  0
    0.2862   -1.2628    0.0000 O   0  0  0  0  0  0  0  0  0  0  0  0
    6.8527   -6.6843    0.0000 C   0  0  0  0  0  0  0  0  0  0  0  0
    0.2862   -0.0337    0.0000 C   0  0  0  0  0  0  0  0  0  0  0  0
    4.6976   -6.5160    0.0000 H   0  0  0  0  0  0  0  0  0  0  0  0
  1  2  1  0  0  0  0
  1  3  1  0  0  0  0
  1  5  1  0  0  0  0
  1 11  1  1  0  0  0
  2  4  1  0  0  0  0
  2  8  2  0  0  0  0
  3  6  1  6  0  0  0
  3 12  1  0  0  0  0
  4 14  2  0  0  0  0
  4  6  1  0  0  0  0
  5  7  1  0  0  0  0
  5 13  1  0  0  0  0
  5 23  1  1  0  0  0
  7  9  1  0  0  0  0
  7 10  1  1  0  0  0
  8 16  1  0  0  0  0
  8  9  1  0  0  0  0
 10 15  1  0  0  0  0
 10 21  1  0  0  0  0
 11 15  1  0  0  0  0
 12 18  2  0  0  0  0
 12 17  1  0  0  0  0
 13 17  1  0  0  0  0
 14 20  1  0  0  0  0
 14 19  1  0  0  0  0
 16 19  2  0  0  0  0
 20 22  1  0  0  0  0
 24 25  2  0  0  0  0
 24 26  1  0  0  0  0
 24 27  1  0  0  0  0
 24 28  1  0  0  0  0
 29 30  2  0  0  0  0
 29 31  1  0  0  0  0
 29 32  1  0  0  0  0
 29 33  1  0  0  0  0
 34 35  2  0  0  0  0
 34 36  1  0  0  0  0
 34 37  1  0  0  0  0
 34 38  1  0  0  0  0
 39 40  1  0  0  0  0
 39 41  1  0  0  0  0
 39 43  1  0  0  0  0
 39 49  1  1  0  0  0
 40 42  1  0  0  0  0
 40 46  2  0  0  0  0
 41 44  1  6  0  0  0
 41 50  1  0  0  0  0
 42 52  2  0  0  0  0
 42 44  1  0  0  0  0
 43 45  1  0  0  0  0
 43 51  1  0  0  0  0
 43 61  1  1  0  0  0
 45 47  1  0  0  0  0
 45 48  1  1  0  0  0
 46 54  1  0  0  0  0
 46 47  1  0  0  0  0
 48 53  1  0  0  0  0
 48 59  1  0  0  0  0
 49 53  1  0  0  0  0
 50 56  2  0  0  0  0
 50 55  1  0  0  0  0
 51 55  1  0  0  0  0
 52 58  1  0  0  0  0
 52 57  1  0  0  0  0
 54 57  2  0  0  0  0
 58 60  1  0  0  0  0
M  END
> <ID>
12895

> <Formula>
C36H51N2O18P3

> <FW>
892.7140 (299.3642+97.9952+97.9952+97.9952+299.3642)

> <DSSTox_CID>
27779

> <DSSTox_RID>
82555

> <DSSTox_GSID>
47802

> <DSSTox_FileID_Sort>
7234

> <TS_ChemName>
Hydrocodone triphosphate

> <TS_ChemName_Synonyms>
Hydrocodone bitartrate

> <TS_CASRN>
178175-60-5

> <CASRN_ChemName_Relationship>
primary

> <TS_Description>
single chemical compound

> <ChemNote>
absolute stereochem rotation (-); CAS is for a chemical containing x H3PO4; structure shown. 3 H3PO4; parent [125-29-1]

> <STRUCTURE_Shown>
tested chemical

> <STRUCTURE_Formula>
C36H51N2O18P3

> <STRUCTURE_MW>
892.714

> <STRUCTURE_ChemType>
defined organic

> <STRUCTURE_DefinedOrganicForm>
complex

> <STRUCTURE_IUPAC>
(5alpha)-3-methoxy-17-methyl-4,5-epoxymorphinan-6-one phosphate (2:3)

> <STRUCTURE_SMILES>
O=P(O)(O)O.O=P(O)(O)O.O=P(O)(O)O.O=C1CC[C@H]5[C@H]2Cc3ccc(OC)c4O[C@@H]1[C@]5(CCN2C)c34.O=C1CC[C@H]5[C@H]2Cc4ccc(OC)c3O[C@@H]1[C@]5(CCN2C)c34

> <STRUCTURE_SMILES_Desalt>
O=C1CC[C@H]5[C@H]2Cc4ccc(OC)c3O[C@@H]1[C@]5(CCN2C)c34

> <Substance_modify_yyyymmdd>
20110824

$$$$
