17814-85-6
ChemmineR-0915142007XD

 27 28  0  0  0  0  0  0  0  0  2 V2000
   11.2300   -8.0592    0.0000 O    0  0  0  0  0  0  0  0  0  0  0  0
   11.8906   -6.9098    0.0000 C    0  0  0  0  0  0  0  0  0  0  0  0
   13.2118   -6.9098    0.0000 O    0  0  0  0  0  0  0  0  0  0  0  0
   11.2300   -5.7603    0.0000 C    0  0  0  0  0  0  0  0  0  0  0  0
    9.8824   -5.7603    0.0000 C    0  0  0  0  0  0  0  0  0  0  0  0
    9.2086   -4.6109    0.0000 C    0  0  0  0  0  0  0  0  0  0  0  0
    7.8874   -4.6109    0.0000 C    0  0  0  0  0  0  0  0  0  0  0  0
    7.2268   -3.4483    0.0000 P    0  3  0  0  0  0  0  0  0  0  0  0
    6.5795   -2.2988    0.0000 C    0  0  0  0  0  0  0  0  0  0  0  0
    7.2268   -1.1494    0.0000 C    0  0  0  0  0  0  0  0  0  0  0  0
    6.5795    0.0000    0.0000 C    0  0  0  0  0  0  0  0  0  0  0  0
    5.2319    0.0000    0.0000 C    0  0  0  0  0  0  0  0  0  0  0  0
    4.5713   -1.1494    0.0000 C    0  0  0  0  0  0  0  0  0  0  0  0
    5.2319   -2.2988    0.0000 C    0  0  0  0  0  0  0  0  0  0  0  0
    6.0774   -4.1089    0.0000 C    0  0  0  0  0  0  0  0  0  0  0  0
    4.9280   -3.4483    0.0000 C    0  0  0  0  0  0  0  0  0  0  0  0
    3.7786   -4.1089    0.0000 C    0  0  0  0  0  0  0  0  0  0  0  0
    3.7786   -5.4565    0.0000 C    0  0  0  0  0  0  0  0  0  0  0  0
    4.9280   -6.1038    0.0000 C    0  0  0  0  0  0  0  0  0  0  0  0
    6.0774   -5.4565    0.0000 C    0  0  0  0  0  0  0  0  0  0  0  0
    8.3763   -2.8009    0.0000 C    0  0  0  0  0  0  0  0  0  0  0  0
    9.5389   -3.4483    0.0000 C    0  0  0  0  0  0  0  0  0  0  0  0
   10.6883   -2.8009    0.0000 C    0  0  0  0  0  0  0  0  0  0  0  0
   10.6883   -1.4665    0.0000 C    0  0  0  0  0  0  0  0  0  0  0  0
    9.5389   -0.7927    0.0000 C    0  0  0  0  0  0  0  0  0  0  0  0
    8.3763   -1.4665    0.0000 C    0  0  0  0  0  0  0  0  0  0  0  0
    0.0000   -2.4574    0.0000 Br   0  5  0  0  0  0  0  0  0  0  0  0
  1  2  1  0  0  0  0
  2  3  2  0  0  0  0
  2  4  1  0  0  0  0
  4  5  1  0  0  0  0
  5  6  1  0  0  0  0
  6  7  1  0  0  0  0
  7  8  1  0  0  0  0
  8  9  1  0  0  0  0
  8 15  1  0  0  0  0
  8 21  1  0  0  0  0
  9 10  2  0  0  0  0
  9 14  1  0  0  0  0
 10 11  1  0  0  0  0
 11 12  2  0  0  0  0
 12 13  1  0  0  0  0
 13 14  2  0  0  0  0
 15 16  2  0  0  0  0
 15 20  1  0  0  0  0
 16 17  1  0  0  0  0
 17 18  2  0  0  0  0
 18 19  1  0  0  0  0
 19 20  2  0  0  0  0
 21 22  2  0  0  0  0
 21 26  1  0  0  0  0
 22 23  1  0  0  0  0
 23 24  2  0  0  0  0
 24 25  1  0  0  0  0
 25 26  2  0  0  0  0
M  END
> <ID>
16072

> <Formula>
C23H24BrO2P

> <FW>
443.3132 (363.4087+79.9045)

> <DSSTox_CID>
31458

> <DSSTox_RID>
97344

> <DSSTox_GSID>
57669

> <DSSTox_FileID_Sort>
8411

> <TS_ChemName>
(4-Carboxybutyl)triphenylphosphonium bromide

> <TS_ChemName_Synonyms>


> <TS_CASRN>
17814-85-6

> <CASRN_ChemName_Relationship>
primary

> <TS_Description>
single chemical compound

> <ChemNote>


> <STRUCTURE_Shown>
tested chemical

> <STRUCTURE_Formula>
C23H24BrO2P

> <STRUCTURE_MW>
443.3132

> <STRUCTURE_ChemType>
defined organic

> <STRUCTURE_DefinedOrganicForm>
salt

> <STRUCTURE_IUPAC>
(4-carboxybutyl)(triphenyl)phosphonium bromide

> <STRUCTURE_SMILES>
[Br-].O=C(O)CCCC[P+](c1ccccc1)(c2ccccc2)c3ccccc3

> <STRUCTURE_SMILES_Desalt>
O=C(O)CCCC[P+](c1ccccc1)(c2ccccc2)c3ccccc3

> <Substance_modify_yyyymmdd>
20131018

$$$$
