17824-83-8
ChemmineR-0915142007XD

 12 12  0  0  0  0  0  0  0  0  1 V2000
    3.3260   -3.4524    0.0000 N    0  0  0  0  0  0  0  0  0  0  0  0
    1.9956   -3.4524    0.0000 C    0  0  0  0  0  0  0  0  0  0  0  0
    3.9979   -2.3016    0.0000 C    0  0  0  0  0  0  0  0  0  0  0  0
    3.3260   -1.1508    0.0000 C    0  0  0  0  0  0  0  0  0  0  0  0
    1.3304   -2.3016    0.0000 C    0  0  0  0  0  0  0  0  0  0  0  0
    1.9956   -1.1508    0.0000 C    0  0  0  0  0  0  0  0  0  0  0  0
    5.3216   -2.3016    0.0000 C    0  0  0  0  0  0  0  0  0  0  0  0
    6.6520   -2.3016    0.0000 N    0  0  0  0  0  0  0  0  0  0  0  0
    3.9979    0.0000    0.0000 Cl   0  0  0  0  0  0  0  0  0  0  0  0
    1.3304    0.0000    0.0000 Cl   0  0  0  0  0  0  0  0  0  0  0  0
    0.0000   -2.3016    0.0000 Cl   0  0  0  0  0  0  0  0  0  0  0  0
    1.3304   -4.6032    0.0000 Cl   0  0  0  0  0  0  0  0  0  0  0  0
  1  2  2  0  0  0  0
  1  3  1  0  0  0  0
  2  5  1  0  0  0  0
  2 12  1  0  0  0  0
  3  4  2  0  0  0  0
  3  7  1  0  0  0  0
  4  6  1  0  0  0  0
  4  9  1  0  0  0  0
  5  6  2  0  0  0  0
  5 11  1  0  0  0  0
  6 10  1  0  0  0  0
  7  8  3  0  0  0  0
M  END
> <ID>
5402

> <Formula>
C6Cl4N2

> <FW>
241.8896

> <DSSTox_CID>
7795

> <DSSTox_RID>
78569

> <DSSTox_GSID>
27795

> <DSSTox_FileID_Sort>
3252

> <TS_ChemName>
3,4,5,6-Tetrachloro-2-pyridinecarbonitrile

> <TS_ChemName_Synonyms>


> <TS_CASRN>
17824-83-8

> <CASRN_ChemName_Relationship>
primary

> <TS_Description>
single chemical compound

> <ChemNote>


> <STRUCTURE_Shown>
tested chemical

> <STRUCTURE_Formula>
C6Cl4N2

> <STRUCTURE_MW>
241.8896

> <STRUCTURE_ChemType>
defined organic

> <STRUCTURE_DefinedOrganicForm>
parent

> <STRUCTURE_IUPAC>
3,4,5,6-tetrachloropyridine-2-carbonitrile

> <STRUCTURE_SMILES>
Clc1c(Cl)c(C#N)nc(Cl)c1Cl

> <STRUCTURE_SMILES_Desalt>
Clc1c(Cl)c(C#N)nc(Cl)c1Cl

> <Substance_modify_yyyymmdd>
20080429

$$$$
