17832-28-9
ChemmineR-0915142007XD

  8  7  0  0  0  0  0  0  0  0  1 V2000
    1.1719    0.0000    0.0000 C   0  0  0  0  0  0  0  0  0  0  0  0
    2.2953   -0.7031    0.0000 C   0  0  0  0  0  0  0  0  0  0  0  0
    3.4671   -0.0647    0.0000 C   0  0  0  0  0  0  0  0  0  0  0  0
    4.5986   -0.7516    0.0000 C   0  0  0  0  0  0  0  0  0  0  0  0
    0.0000   -0.6385    0.0000 O   0  0  0  0  0  0  0  0  0  0  0  0
    5.7705   -0.1131    0.0000 O   0  0  0  0  0  0  0  0  0  0  0  0
    6.9100   -0.8001    0.0000 C   0  0  0  0  0  0  0  0  0  0  0  0
    8.0819   -0.1778    0.0000 C   0  0  0  0  0  0  0  0  0  0  0  0
  1  2  1  0  0  0  0
  1  5  1  0  0  0  0
  2  3  1  0  0  0  0
  3  4  1  0  0  0  0
  4  6  1  0  0  0  0
  6  7  1  0  0  0  0
  7  8  2  0  0  0  0
M  END
> <ID>
10501

> <Formula>
C6H12O2

> <FW>
116.1583

> <DSSTox_CID>
24854

> <DSSTox_RID>
80533

> <DSSTox_GSID>
44854

> <DSSTox_FileID_Sort>
5215

> <TS_ChemName>
4-(Ethenyloxy)butan-1-ol

> <TS_ChemName_Synonyms>
4-(Ethenyloxy)butan-1-ol (1-Butanol, 4-(ethenyloxy)-)

> <TS_CASRN>
17832-28-9

> <CASRN_ChemName_Relationship>
primary

> <TS_Description>
single chemical compound

> <ChemNote>


> <STRUCTURE_Shown>
tested chemical

> <STRUCTURE_Formula>
C6H12O2

> <STRUCTURE_MW>
116.1583

> <STRUCTURE_ChemType>
defined organic

> <STRUCTURE_DefinedOrganicForm>
parent

> <STRUCTURE_IUPAC>
4-(ethenyloxy)butan-1-ol

> <STRUCTURE_SMILES>
C=COCCCCO

> <STRUCTURE_SMILES_Desalt>
C=COCCCCO

> <Substance_modify_yyyymmdd>
20091116

$$$$
