17831-71-9
ChemmineR-0915142007XD

 21 20  0  0  0  0  0  0  0  0  1 V2000
    1.1437    0.0000    0.0000 O   0  0  0  0  0  0  0  0  0  0  0  0
    1.1437   -1.3281    0.0000 C   0  0  0  0  0  0  0  0  0  0  0  0
    2.3058   -1.9922    0.0000 O   0  0  0  0  0  0  0  0  0  0  0  0
    3.4494   -1.3281    0.0000 C   0  0  0  0  0  0  0  0  0  0  0  0
    4.6115   -1.9922    0.0000 C   0  0  0  0  0  0  0  0  0  0  0  0
    5.7552   -1.3281    0.0000 O   0  0  0  0  0  0  0  0  0  0  0  0
    6.9173   -1.9922    0.0000 C   0  0  0  0  0  0  0  0  0  0  0  0
    8.0794   -1.3281    0.0000 C   0  0  0  0  0  0  0  0  0  0  0  0
    9.2231   -1.9922    0.0000 O   0  0  0  0  0  0  0  0  0  0  0  0
   10.3852   -1.3281    0.0000 C   0  0  0  0  0  0  0  0  0  0  0  0
   11.5289   -1.9922    0.0000 C   0  0  0  0  0  0  0  0  0  0  0  0
   12.6910   -1.3281    0.0000 O   0  0  0  0  0  0  0  0  0  0  0  0
   13.8346   -1.9922    0.0000 C   0  0  0  0  0  0  0  0  0  0  0  0
   14.9967   -1.3281    0.0000 C   0  0  0  0  0  0  0  0  0  0  0  0
   16.1404   -1.9922    0.0000 O   0  0  0  0  0  0  0  0  0  0  0  0
   17.2841   -1.3281    0.0000 C   0  0  0  0  0  0  0  0  0  0  0  0
   17.2841    0.0000    0.0000 O   0  0  0  0  0  0  0  0  0  0  0  0
   18.4462   -1.9922    0.0000 C   0  0  0  0  0  0  0  0  0  0  0  0
   18.4462   -3.3203    0.0000 C   0  0  0  0  0  0  0  0  0  0  0  0
    0.0000   -1.9922    0.0000 C   0  0  0  0  0  0  0  0  0  0  0  0
    0.0000   -3.3203    0.0000 C   0  0  0  0  0  0  0  0  0  0  0  0
  1  2  2  0  0  0  0
  2  3  1  0  0  0  0
  2 20  1  0  0  0  0
  3  4  1  0  0  0  0
  4  5  1  0  0  0  0
  5  6  1  0  0  0  0
  6  7  1  0  0  0  0
  7  8  1  0  0  0  0
  8  9  1  0  0  0  0
  9 10  1  0  0  0  0
 10 11  1  0  0  0  0
 11 12  1  0  0  0  0
 12 13  1  0  0  0  0
 13 14  1  0  0  0  0
 14 15  1  0  0  0  0
 15 16  1  0  0  0  0
 16 17  2  0  0  0  0
 16 18  1  0  0  0  0
 18 19  2  0  0  0  0
 20 21  2  0  0  0  0
M  END
> <ID>
4546

> <Formula>
C14H22O7

> <FW>
302.3203

> <DSSTox_CID>
6107

> <DSSTox_RID>
78019

> <DSSTox_GSID>
26107

> <DSSTox_FileID_Sort>
2702

> <TS_ChemName>
Tetraethylene glycol diacrylate

> <TS_ChemName_Synonyms>


> <TS_CASRN>
17831-71-9

> <CASRN_ChemName_Relationship>
primary

> <TS_Description>
single chemical compound

> <ChemNote>


> <STRUCTURE_Shown>
tested chemical

> <STRUCTURE_Formula>
C14H22O7

> <STRUCTURE_MW>
302.3203

> <STRUCTURE_ChemType>
defined organic

> <STRUCTURE_DefinedOrganicForm>
parent

> <STRUCTURE_IUPAC>
oxybis(ethane-2,1-diyloxyethane-2,1-diyl) bisprop-2-enoate

> <STRUCTURE_SMILES>
O=C(OCCOCCOCCOCCOC(=O)C=C)C=C

> <STRUCTURE_SMILES_Desalt>
O=C(OCCOCCOCCOCCOC(=O)C=C)C=C

> <Substance_modify_yyyymmdd>
20080429

$$$$
