1786-81-8
ChemmineR-0915142007XD

 17 16  0  0  0  0  0  0  0  0  1 V2000
    4.6212   -1.9731    0.0000 C    0  0  0  0  0  0  0  0  0  0  0  0
    3.4477   -1.3085    0.0000 N    0  0  0  0  0  0  0  0  0  0  0  0
    2.3158   -1.9835    0.0000 C    0  0  0  0  0  0  0  0  0  0  0  0
    4.6212   -3.2919    0.0000 O    0  0  0  0  0  0  0  0  0  0  0  0
    5.7635   -1.3085    0.0000 C    0  0  0  0  0  0  0  0  0  0  0  0
    2.3158   -3.2919    0.0000 C    0  0  0  0  0  0  0  0  0  0  0  0
    6.9369   -1.9731    0.0000 N    0  0  0  0  0  0  0  0  0  0  0  0
    1.1527   -1.3085    0.0000 C    0  0  0  0  0  0  0  0  0  0  0  0
    3.4788   -3.9669    0.0000 C    0  0  0  0  0  0  0  0  0  0  0  0
    1.1423   -3.9669    0.0000 C    0  0  0  0  0  0  0  0  0  0  0  0
    8.0689   -1.2981    0.0000 C    0  0  0  0  0  0  0  0  0  0  0  0
    5.7635    0.0000    0.0000 C    0  0  0  0  0  0  0  0  0  0  0  0
    9.2215   -1.9627    0.0000 C    0  0  0  0  0  0  0  0  0  0  0  0
    0.0000   -1.9835    0.0000 C    0  0  0  0  0  0  0  0  0  0  0  0
   10.3846   -1.2981    0.0000 C    0  0  0  0  0  0  0  0  0  0  0  0
    0.0000   -3.3023    0.0000 C    0  0  0  0  0  0  0  0  0  0  0  0
    8.8477   -4.2992    0.0000 Cl   0  0  0  0  0  0  0  0  0  0  0  0
  1  2  1  0  0  0  0
  1  4  2  0  0  0  0
  1  5  1  0  0  0  0
  2  3  1  0  0  0  0
  3  6  1  0  0  0  0
  3  8  2  0  0  0  0
  5  7  1  0  0  0  0
  5 12  1  0  0  0  0
  6  9  1  0  0  0  0
  6 10  2  0  0  0  0
  7 11  1  0  0  0  0
  8 14  1  0  0  0  0
 10 16  1  0  0  0  0
 11 13  1  0  0  0  0
 13 15  1  0  0  0  0
 14 16  2  0  0  0  0
M  END
> <ID>
6372

> <Formula>
C13H21ClN2O

> <FW>
256.7716 (220.3107+36.4609)

> <DSSTox_CID>
11956

> <DSSTox_RID>
78897

> <DSSTox_GSID>
31956

> <DSSTox_FileID_Sort>
3579

> <TS_ChemName>
Prilocaine hydrochloride

> <TS_ChemName_Synonyms>


> <TS_CASRN>
1786-81-8

> <CASRN_ChemName_Relationship>
primary

> <TS_Description>
single chemical compound

> <ChemNote>
parent [721-50-6]

> <STRUCTURE_Shown>
tested chemical

> <STRUCTURE_Formula>
C13H21ClN2O

> <STRUCTURE_MW>
256.7716

> <STRUCTURE_ChemType>
defined organic

> <STRUCTURE_DefinedOrganicForm>
complex

> <STRUCTURE_IUPAC>
N-(2-methylphenyl)-N~2~-propylalaninamide hydrochloride (1:1)

> <STRUCTURE_SMILES>
Cl.O=C(Nc1ccccc1C)C(C)NCCC

> <STRUCTURE_SMILES_Desalt>
O=C(Nc1ccccc1C)C(C)NCCC

> <Substance_modify_yyyymmdd>
20080429

$$$$
