178631-05-5
ChemmineR-0915142007XD

 13 12  0  0  0  0  0  0  0  0  2 V2000
    8.8863   -1.0827    0.0000 N   0  3  0  0  0  0  0  0  0  0  0  0
    6.8639   -1.7568    0.0000 N   0  0  0  0  0  0  0  0  0  0  0  0
    8.1202   -2.1858    0.0000 C   0  0  0  0  0  0  0  0  0  0  0  0
    8.1202    0.0000    0.0000 C   0  0  0  0  0  0  0  0  0  0  0  0
    6.8843   -0.4086    0.0000 C   0  0  0  0  0  0  0  0  0  0  0  0
    5.7914   -2.5229    0.0000 C   0  0  0  0  0  0  0  0  0  0  0  0
    4.5964   -1.9509    0.0000 C   0  0  0  0  0  0  0  0  0  0  0  0
    3.5239   -2.7170    0.0000 C   0  0  0  0  0  0  0  0  0  0  0  0
    2.2880   -2.1756    0.0000 C   0  0  0  0  0  0  0  0  0  0  0  0
    1.2155   -2.9723    0.0000 C   0  0  0  0  0  0  0  0  0  0  0  0
    0.0000   -2.4105    0.0000 C   0  0  0  0  0  0  0  0  0  0  0  0
   10.2141   -1.0827    0.0000 C   0  0  0  0  0  0  0  0  0  0  0  0
    9.9894   -3.3911    0.0000 I   0  5  0  0  0  0  0  0  0  0  0  0
  1  3  2  0  0  0  0
  1  4  1  0  0  0  0
  1 12  1  0  0  0  0
  2  3  1  0  0  0  0
  2  5  1  0  0  0  0
  2  6  1  0  0  0  0
  4  5  2  0  0  0  0
  6  7  1  0  0  0  0
  7  8  1  0  0  0  0
  8  9  1  0  0  0  0
  9 10  1  0  0  0  0
 10 11  1  0  0  0  0
M  END
> <ID>
13026

> <Formula>
C10H19IN2

> <FW>
294.1757 (167.2707+126.9050)

> <DSSTox_CID>
27927

> <DSSTox_RID>
82680

> <DSSTox_GSID>
47951

> <DSSTox_FileID_Sort>
7357

> <TS_ChemName>
1-Hexyl-3-methylimidazolium iodide

> <TS_ChemName_Synonyms>


> <TS_CASRN>
178631-05-5

> <CASRN_ChemName_Relationship>
primary

> <TS_Description>
single chemical compound

> <ChemNote>
ammonium; parent [85100-82-9]

> <STRUCTURE_Shown>
tested chemical

> <STRUCTURE_Formula>
C10H19IN2

> <STRUCTURE_MW>
294.1757

> <STRUCTURE_ChemType>
defined organic

> <STRUCTURE_DefinedOrganicForm>
salt

> <STRUCTURE_IUPAC>
1-hexyl-3-methyl-1H-imidazol-3-ium iodide

> <STRUCTURE_SMILES>
[I-].C[n+]1ccn(CCCCCC)c1

> <STRUCTURE_SMILES_Desalt>
C[n+]1ccn(CCCCCC)c1

> <Substance_modify_yyyymmdd>
20110418

$$$$
