178600-17-4
ChemmineR-0915142007XD

 24 24  0  0  1  0  0  0  0  0  1 V2000
   12.5980   -4.0070    0.0000 C    0  0  0  0  0  0  0  0  0  0  0  0
   11.4600   -4.6802    0.0000 C    0  0  0  0  0  0  0  0  0  0  0  0
   10.2579   -4.0070    0.0000 C    0  0  0  0  0  0  0  0  0  0  0  0
   10.2579   -2.6767    0.0000 C    0  0  0  0  0  0  0  0  0  0  0  0
   11.4600   -2.0035    0.0000 C    0  0  0  0  0  0  0  0  0  0  0  0
   12.5980   -2.6767    0.0000 C    0  0  0  0  0  0  0  0  0  0  0  0
   14.8739   -4.0070    0.0000 C    0  0  0  0  0  0  0  0  0  0  0  0
   13.7359   -4.6802    0.0000 C    0  0  0  0  0  0  0  0  0  0  0  0
   14.8739   -2.6767    0.0000 O    0  0  0  0  0  0  0  0  0  0  0  0
   16.0279   -4.6802    0.0000 O    0  0  0  0  0  0  0  0  0  0  0  0
    9.1199   -2.0035    0.0000 O    0  0  0  0  0  0  0  0  0  0  0  0
    7.9819   -2.6767    0.0000 C    0  0  0  0  0  0  0  0  0  0  0  0
    6.8279   -2.0035    0.0000 C    0  0  0  0  0  0  0  0  0  0  0  0
    5.6899   -2.6767    0.0000 N    0  0  0  0  0  0  0  0  0  0  0  0
    4.5519   -2.0035    0.0000 C    0  0  0  0  0  0  0  0  0  0  0  0
    3.4140   -2.6767    0.0000 C    0  0  0  0  0  0  0  0  0  0  0  0
    2.2760   -2.0035    0.0000 C    0  0  0  0  0  0  0  0  0  0  0  0
    1.1380   -2.6767    0.0000 C    0  0  0  0  0  0  0  0  0  0  0  0
    0.0000   -2.0035    0.0000 C    0  0  0  0  0  0  0  0  0  0  0  0
    0.0000   -0.6732    0.0000 C    0  0  0  0  0  0  0  0  0  0  0  0
    1.1380    0.0000    0.0000 C    0  0  0  0  0  0  0  0  0  0  0  0
    2.2760   -0.6732    0.0000 C    0  0  0  0  0  0  0  0  0  0  0  0
    3.4140   -4.0070    0.0000 O    0  0  0  0  0  0  0  0  0  0  0  0
    6.2669   -4.1032    0.0000 Cl   0  0  0  0  0  0  0  0  0  0  0  0
  1  2  1  0  0  0  0
  1  6  2  0  0  0  0
  1  8  1  0  0  0  0
  2  3  2  0  0  0  0
  3  4  1  0  0  0  0
  4  5  2  0  0  0  0
  4 11  1  0  0  0  0
  5  6  1  0  0  0  0
  7  8  1  0  0  0  0
  7  9  2  0  0  0  0
  7 10  1  0  0  0  0
 11 12  1  0  0  0  0
 12 13  1  0  0  0  0
 13 14  1  0  0  0  0
 14 15  1  0  0  0  0
 15 16  1  0  0  0  0
 16 17  1  0  0  0  0
 16 23  1  6  0  0  0
 17 18  1  0  0  0  0
 17 22  2  0  0  0  0
 18 19  2  0  0  0  0
 19 20  1  0  0  0  0
 20 21  2  0  0  0  0
 21 22  1  0  0  0  0
M  END
> <ID>
14026

> <Formula>
C18H22ClNO4

> <FW>
351.8246 (315.3636+36.4609)

> <DSSTox_CID>
28968

> <DSSTox_RID>
83233

> <DSSTox_GSID>
49042

> <DSSTox_FileID_Sort>
7908

> <TS_ChemName>
ZD 2079

> <TS_ChemName_Synonyms>


> <TS_CASRN>
178600-17-4

> <CASRN_ChemName_Relationship>
primary

> <TS_Description>
single chemical compound

> <ChemNote>


> <STRUCTURE_Shown>
tested chemical

> <STRUCTURE_Formula>
C18H22ClNO4

> <STRUCTURE_MW>
351.8246

> <STRUCTURE_ChemType>
defined organic

> <STRUCTURE_DefinedOrganicForm>
complex

> <STRUCTURE_IUPAC>
[4-(2-{[(2R)-2-hydroxy-2-phenylethyl]amino}ethoxy)phenyl]acetic acid hydrochloride (1:1)

> <STRUCTURE_SMILES>
Cl.O=C(O)Cc2ccc(OCCNC[C@H](O)c1ccccc1)cc2

> <STRUCTURE_SMILES_Desalt>
O=C(O)Cc2ccc(OCCNC[C@H](O)c1ccccc1)cc2

> <Substance_modify_yyyymmdd>
20111204

$$$$
