178631-04-4
ChemmineR-0915142007XD

 29 28  0  0  0  0  0  0  0  0  2 V2000
    9.1638   -1.7409    0.0000 N   0  0  0  0  0  0  0  0  0  0  0  0
   11.2299   -1.0522    0.0000 N   0  3  0  0  0  0  0  0  0  0  0  0
   10.4456   -2.1427    0.0000 C   0  0  0  0  0  0  0  0  0  0  0  0
    9.1829   -0.4018    0.0000 C   0  0  0  0  0  0  0  0  0  0  0  0
   10.4647    0.0000    0.0000 C   0  0  0  0  0  0  0  0  0  0  0  0
   12.5691   -1.0522    0.0000 C   0  0  0  0  0  0  0  0  0  0  0  0
    8.0924   -2.5062    0.0000 C   0  0  0  0  0  0  0  0  0  0  0  0
    6.8681   -1.9705    0.0000 C   0  0  0  0  0  0  0  0  0  0  0  0
    5.7967   -2.7549    0.0000 C   0  0  0  0  0  0  0  0  0  0  0  0
    4.5915   -2.2001    0.0000 C   0  0  0  0  0  0  0  0  0  0  0  0
    3.5201   -2.9844    0.0000 C   0  0  0  0  0  0  0  0  0  0  0  0
    2.2957   -2.4488    0.0000 C   0  0  0  0  0  0  0  0  0  0  0  0
    1.2244   -3.2331    0.0000 C   0  0  0  0  0  0  0  0  0  0  0  0
    0.0000   -2.6783    0.0000 C   0  0  0  0  0  0  0  0  0  0  0  0
   15.1901   -3.7306    0.0000 O   0  0  0  0  0  0  0  0  0  0  0  0
   14.5396   -4.8593    0.0000 S   0  0  0  0  0  0  0  0  0  0  0  0
   13.8509   -6.0072    0.0000 O   0  0  0  0  0  0  0  0  0  0  0  0
   13.3726   -4.2088    0.0000 C   0  0  0  0  0  0  0  0  0  0  0  0
   12.6839   -5.3567    0.0000 F   0  0  0  0  0  0  0  0  0  0  0  0
   14.0231   -3.0610    0.0000 F   0  0  0  0  0  0  0  0  0  0  0  0
   12.2056   -3.5392    0.0000 F   0  0  0  0  0  0  0  0  0  0  0  0
   15.6683   -5.5289    0.0000 N   0  5  0  0  0  0  0  0  0  0  0  0
   16.1466   -3.7306    0.0000 O   0  0  0  0  0  0  0  0  0  0  0  0
   16.7971   -4.8593    0.0000 S   0  0  0  0  0  0  0  0  0  0  0  0
   17.5049   -6.0072    0.0000 O   0  0  0  0  0  0  0  0  0  0  0  0
   17.9832   -4.2088    0.0000 C   0  0  0  0  0  0  0  0  0  0  0  0
   17.3136   -3.0610    0.0000 F   0  0  0  0  0  0  0  0  0  0  0  0
   18.6337   -5.3567    0.0000 F   0  0  0  0  0  0  0  0  0  0  0  0
   19.1311   -3.5392    0.0000 F   0  0  0  0  0  0  0  0  0  0  0  0
  1  3  1  0  0  0  0
  1  4  1  0  0  0  0
  1  7  1  0  0  0  0
  2  3  2  0  0  0  0
  2  5  1  0  0  0  0
  2  6  1  0  0  0  0
  4  5  2  0  0  0  0
  7  8  1  0  0  0  0
  8  9  1  0  0  0  0
  9 10  1  0  0  0  0
 10 11  1  0  0  0  0
 11 12  1  0  0  0  0
 12 13  1  0  0  0  0
 13 14  1  0  0  0  0
 15 16  2  0  0  0  0
 16 17  2  0  0  0  0
 16 18  1  0  0  0  0
 16 22  1  0  0  0  0
 18 19  1  0  0  0  0
 18 20  1  0  0  0  0
 18 21  1  0  0  0  0
 22 24  1  0  0  0  0
 23 24  2  0  0  0  0
 24 25  2  0  0  0  0
 24 26  1  0  0  0  0
 26 27  1  0  0  0  0
 26 28  1  0  0  0  0
 26 29  1  0  0  0  0
M  END
> <ID>
13030

> <Formula>
C14H23F6N3O4S2

> <FW>
475.4705 (195.3239+280.1467)

> <DSSTox_CID>
27931

> <DSSTox_RID>
82684

> <DSSTox_GSID>
47955

> <DSSTox_FileID_Sort>
7361

> <TS_ChemName>
1-Methyl-3-octylimidazolium bis(trifluoromethylsulfonyl)imide

> <TS_ChemName_Synonyms>


> <TS_CASRN>
178631-04-4

> <CASRN_ChemName_Relationship>
primary

> <TS_Description>
single chemical compound

> <ChemNote>
ammonium; parent [178631-03-3]

> <STRUCTURE_Shown>
tested chemical

> <STRUCTURE_Formula>
C14H23F6N3O4S2

> <STRUCTURE_MW>
475.4705

> <STRUCTURE_ChemType>
defined organic

> <STRUCTURE_DefinedOrganicForm>
salt

> <STRUCTURE_IUPAC>
3-methyl-1-octyl-1H-imidazol-3-ium bis[(trifluoromethyl)sulfonyl]azanide

> <STRUCTURE_SMILES>
FC(F)(F)S(=O)(=O)[N-]S(=O)(=O)C(F)(F)F.C[n+]1ccn(CCCCCCCC)c1

> <STRUCTURE_SMILES_Desalt>
O=S(=O)(NS(=O)(=O)C(F)(F)F)C(F)(F)F

> <Substance_modify_yyyymmdd>
20110418

$$$$
