17874-63-4
ChemmineR-0915142007XD

 11 10  0  0  0  0  0  0  0  0  2 V2000
    2.3043   -5.6341    0.0000 C   0  0  0  0  0  0  0  0  0  0  0  0
    0.0000   -2.9748    0.0000 C   0  0  0  0  0  0  0  0  0  0  0  0
    2.3043   -4.3044    0.0000 C   0  0  0  0  0  0  0  0  0  0  0  0
    2.4790    0.0000    0.0000 C   0  0  0  0  0  0  0  0  0  0  0  0
    1.1550    0.0000    0.0000 C   0  0  0  0  0  0  0  0  0  0  0  0
    3.1382   -1.1550    0.0000 C   0  0  0  0  0  0  0  0  0  0  0  0
    1.1550   -3.6340    0.0000 C   0  0  0  0  0  0  0  0  0  0  0  0
    0.4789   -1.1550    0.0000 C   0  0  0  0  0  0  0  0  0  0  0  0
    2.4790   -2.3043    0.0000 C   0  0  0  0  0  0  0  0  0  0  0  0
    1.1550   -2.3043    0.0000 N   0  3  0  0  0  0  0  0  0  0  0  0
    0.0169   -5.2679    0.0000 I   0  5  0  0  0  0  0  0  0  0  0  0
  1  3  1  0  0  0  0
  2 10  1  0  0  0  0
  3  7  1  0  0  0  0
  4  5  1  0  0  0  0
  4  6  1  0  0  0  0
  5  8  1  0  0  0  0
  6  9  1  0  0  0  0
  7 10  1  0  0  0  0
  8 10  1  0  0  0  0
  9 10  1  0  0  0  0
M  END
> <ID>
14099

> <Formula>
C9H20IN

> <FW>
269.1663 (142.2613+126.9050)

> <DSSTox_CID>
29092

> <DSSTox_RID>
83311

> <DSSTox_GSID>
49236

> <DSSTox_FileID_Sort>
7986

> <TS_ChemName>
1-Methyl-1-propylpiperidinium iodide

> <TS_ChemName_Synonyms>


> <TS_CASRN>
17874-63-4

> <CASRN_ChemName_Relationship>
primary

> <TS_Description>
single chemical compound

> <ChemNote>
stereochem

> <STRUCTURE_Shown>
tested chemical

> <STRUCTURE_Formula>
C9H20IN

> <STRUCTURE_MW>
269.1663

> <STRUCTURE_ChemType>
defined organic

> <STRUCTURE_DefinedOrganicForm>
salt

> <STRUCTURE_IUPAC>
1-methyl-1-propylpiperidinium iodide

> <STRUCTURE_SMILES>
[I-].CCC[N+]1(C)CCCCC1

> <STRUCTURE_SMILES_Desalt>
CCC[N+]1(C)CCCCC1

> <Substance_modify_yyyymmdd>
20111204

$$$$
