179113-91-8
ChemmineR-0915142007XD

 26 25  0  0  0  0  0  0  0  0  1 V2000
    6.9033   -7.9799    0.0000 C   0  0  0  0  0  0  0  0  0  0  0  0
    6.9033   -6.6499    0.0000 C   0  0  0  0  0  0  0  0  0  0  0  0
    5.7633   -5.9913    0.0000 C   0  0  0  0  0  0  0  0  0  0  0  0
    4.6106   -6.6499    0.0000 C   0  0  0  0  0  0  0  0  0  0  0  0
    3.4580   -5.9913    0.0000 C   0  0  0  0  0  0  0  0  0  0  0  0
    2.3053   -6.6499    0.0000 C   0  0  0  0  0  0  0  0  0  0  0  0
    1.1527   -5.9913    0.0000 C   0  0  0  0  0  0  0  0  0  0  0  0
    1.1527   -4.6613    0.0000 C   0  0  0  0  0  0  0  0  0  0  0  0
    0.0000   -3.9900    0.0000 C   0  0  0  0  0  0  0  0  0  0  0  0
    0.0000   -2.6600    0.0000 C   0  0  0  0  0  0  0  0  0  0  0  0
    1.1527   -2.0013    0.0000 C   0  0  0  0  0  0  0  0  0  0  0  0
    1.1527   -0.6713    0.0000 C   0  0  0  0  0  0  0  0  0  0  0  0
    2.3053    0.0000    0.0000 C   0  0  0  0  0  0  0  0  0  0  0  0
    3.4580   -0.6713    0.0000 C   0  0  0  0  0  0  0  0  0  0  0  0
    4.6106    0.0000    0.0000 C   0  0  0  0  0  0  0  0  0  0  0  0
    5.7633   -0.6713    0.0000 C   0  0  0  0  0  0  0  0  0  0  0  0
    5.7633   -2.0013    0.0000 C   0  0  0  0  0  0  0  0  0  0  0  0
    6.9033   -2.6600    0.0000 C   0  0  0  0  0  0  0  0  0  0  0  0
    6.9033   -3.9900    0.0000 C   0  0  0  0  0  0  0  0  0  0  0  0
    8.0559   -4.6613    0.0000 C   0  0  0  0  0  0  0  0  0  0  0  0
    8.0559   -5.9913    0.0000 O   0  0  0  0  0  0  0  0  0  0  0  0
    9.2086   -3.9900    0.0000 N   0  0  0  0  0  0  0  0  0  0  0  0
   10.3612   -4.6613    0.0000 C   0  0  0  0  0  0  0  0  0  0  0  0
   11.5139   -3.9900    0.0000 C   0  0  0  0  0  0  0  0  0  0  0  0
   12.6666   -4.6613    0.0000 O   0  0  0  0  0  0  0  0  0  0  0  0
   11.5139   -2.6600    0.0000 O   0  0  0  0  0  0  0  0  0  0  0  0
  1  2  1  0  0  0  0
  2  3  1  0  0  0  0
  3  4  1  0  0  0  0
  4  5  1  0  0  0  0
  5  6  1  0  0  0  0
  6  7  2  0  0  0  0
  7  8  1  0  0  0  0
  8  9  1  0  0  0  0
  9 10  2  0  0  0  0
 10 11  1  0  0  0  0
 11 12  1  0  0  0  0
 12 13  2  0  0  0  0
 13 14  1  0  0  0  0
 14 15  1  0  0  0  0
 15 16  2  0  0  0  0
 16 17  1  0  0  0  0
 17 18  1  0  0  0  0
 18 19  1  0  0  0  0
 19 20  1  0  0  0  0
 20 21  2  0  0  0  0
 20 22  1  0  0  0  0
 22 23  1  0  0  0  0
 23 24  1  0  0  0  0
 24 25  1  0  0  0  0
 24 26  2  0  0  0  0
M  END
> <ID>
10756

> <Formula>
C22H35NO3

> <FW>
361.5182

> <DSSTox_CID>
25124

> <DSSTox_RID>
80688

> <DSSTox_GSID>
45124

> <DSSTox_FileID_Sort>
5370

> <TS_ChemName>
N-Arachidonylglycine

> <TS_ChemName_Synonyms>


> <TS_CASRN>
179113-91-8

> <CASRN_ChemName_Relationship>
primary

> <TS_Description>
single chemical compound

> <ChemNote>
stereochem

> <STRUCTURE_Shown>
tested chemical

> <STRUCTURE_Formula>
C22H35NO3

> <STRUCTURE_MW>
361.5182

> <STRUCTURE_ChemType>
defined organic

> <STRUCTURE_DefinedOrganicForm>
parent

> <STRUCTURE_IUPAC>
N-[(5Z,8Z,11Z,14Z)-icosa-5,8,11,14-tetraenoyl]glycine

> <STRUCTURE_SMILES>
O=C(CCC/C=C\C/C=C\C/C=C\C/C=C\CCCCC)NCC(=O)O

> <STRUCTURE_SMILES_Desalt>
O=C(CCC/C=C\C/C=C\C/C=C\C/C=C\CCCCC)NCC(=O)O

> <Substance_modify_yyyymmdd>
20100107

$$$$
