179324-69-7
ChemmineR-0915142007XD

 28 29  0  0  1  0  0  0  0  0  1 V2000
    2.3037   -4.6536    0.0000 C   0  0  0  0  0  0  0  0  0  0  0  0
    2.3037   -5.9897    0.0000 C   0  0  0  0  0  0  0  0  0  0  0  0
    1.1519   -3.9970    0.0000 N   0  0  0  0  0  0  0  0  0  0  0  0
    1.1519   -6.6578    0.0000 N   0  0  0  0  0  0  0  0  0  0  0  0
    0.0000   -4.6536    0.0000 C   0  0  0  0  0  0  0  0  0  0  0  0
    0.0000   -5.9897    0.0000 C   0  0  0  0  0  0  0  0  0  0  0  0
    3.4556   -3.9970    0.0000 C   0  0  0  0  0  0  0  0  0  0  0  0
    4.6075   -4.6536    0.0000 N   0  0  0  0  0  0  0  0  0  0  0  0
    3.4556   -2.6608    0.0000 O   0  0  0  0  0  0  0  0  0  0  0  0
    5.7594   -3.9970    0.0000 C   0  0  0  0  0  0  0  0  0  0  0  0
    6.9112   -4.6536    0.0000 C   0  0  0  0  0  0  0  0  0  0  0  0
    5.7594   -2.6608    0.0000 C   0  0  0  0  0  0  0  0  0  0  0  0
    6.9112   -1.9927    0.0000 C   0  0  0  0  0  0  0  0  0  0  0  0
    6.9112   -0.6681    0.0000 C   0  0  0  0  0  0  0  0  0  0  0  0
    8.0631   -2.6608    0.0000 C   0  0  0  0  0  0  0  0  0  0  0  0
    8.0631    0.0000    0.0000 C   0  0  0  0  0  0  0  0  0  0  0  0
    9.2150   -1.9927    0.0000 C   0  0  0  0  0  0  0  0  0  0  0  0
    9.2150   -0.6681    0.0000 C   0  0  0  0  0  0  0  0  0  0  0  0
    6.9112   -5.9897    0.0000 O   0  0  0  0  0  0  0  0  0  0  0  0
    8.0631   -3.9970    0.0000 N   0  0  0  0  0  0  0  0  0  0  0  0
    9.2150   -4.6536    0.0000 C   0  0  0  0  0  0  0  0  0  0  0  0
   10.3668   -3.9970    0.0000 B   0  0  0  0  0  0  0  0  0  0  0  0
    9.2150   -5.9897    0.0000 C   0  0  0  0  0  0  0  0  0  0  0  0
   11.5187   -4.6536    0.0000 O   0  0  0  0  0  0  0  0  0  0  0  0
   10.3668   -2.6608    0.0000 O   0  0  0  0  0  0  0  0  0  0  0  0
   10.3668   -6.6578    0.0000 C   0  0  0  0  0  0  0  0  0  0  0  0
   10.3668   -7.9825    0.0000 C   0  0  0  0  0  0  0  0  0  0  0  0
   11.5187   -5.9897    0.0000 C   0  0  0  0  0  0  0  0  0  0  0  0
  1  2  1  0  0  0  0
  1  3  2  0  0  0  0
  1  7  1  0  0  0  0
  2  4  2  0  0  0  0
  3  5  1  0  0  0  0
  4  6  1  0  0  0  0
  5  6  2  0  0  0  0
  7  8  1  0  0  0  0
  7  9  2  0  0  0  0
  8 10  1  0  0  0  0
 10 11  1  0  0  0  0
 10 12  1  1  0  0  0
 11 19  2  0  0  0  0
 11 20  1  0  0  0  0
 12 13  1  0  0  0  0
 13 14  1  0  0  0  0
 13 15  2  0  0  0  0
 14 16  2  0  0  0  0
 15 17  1  0  0  0  0
 16 18  1  0  0  0  0
 17 18  2  0  0  0  0
 20 21  1  0  0  0  0
 21 22  1  0  0  0  0
 21 23  1  6  0  0  0
 22 24  1  0  0  0  0
 22 25  1  0  0  0  0
 23 26  1  0  0  0  0
 26 27  1  0  0  0  0
 26 28  1  0  0  0  0
M  END
> <ID>
8018

> <Formula>
C19H25BN4O4

> <FW>
384.2372

> <DSSTox_CID>
20980

> <DSSTox_RID>
79609

> <DSSTox_GSID>
40980

> <DSSTox_FileID_Sort>
4291

> <TS_ChemName>
Bortezomib

> <TS_ChemName_Synonyms>


> <TS_CASRN>
179324-69-7

> <CASRN_ChemName_Relationship>
primary

> <TS_Description>
single chemical compound

> <ChemNote>
stereochem

> <STRUCTURE_Shown>
tested chemical

> <STRUCTURE_Formula>
C19H25BN4O4

> <STRUCTURE_MW>
384.2372

> <STRUCTURE_ChemType>
defined organic

> <STRUCTURE_DefinedOrganicForm>
parent

> <STRUCTURE_IUPAC>
N-[(1R)-1-(dihydroxyboranyl)-3-methylbutyl]-Nalpha-(pyrazin-2-ylcarbonyl)-L-phenylalaninamide

> <STRUCTURE_SMILES>
O=C(N[C@@H](Cc1ccccc1)C(=O)N[C@@H](CC(C)C)B(O)O)c2cnccn2

> <STRUCTURE_SMILES_Desalt>
O=C(N[C@@H](Cc1ccccc1)C(=O)N[C@@H](CC(C)C)B(O)O)c2cnccn2

> <Substance_modify_yyyymmdd>
20080429

$$$$
