17945-05-0
ChemmineR-0915142007XD

 19 18  0  0  0  0  0  0  0  0  1 V2000
    9.2214   -4.1408    0.0000 C    0  0  0  0  0  0  0  0  0  0  0  0
    9.2087   -5.4871    0.0000 O    0  0  0  0  0  0  0  0  0  0  0  0
   10.3773   -3.4930    0.0000 O    0  0  0  0  0  0  0  0  0  0  0  0
    8.0783   -3.4803    0.0000 N    0  0  0  0  0  0  0  0  0  0  0  0
    6.9224   -4.1408    0.0000 C    0  0  0  0  0  0  0  0  0  0  0  0
    5.7793   -3.4676    0.0000 C    0  0  0  0  0  0  0  0  0  0  0  0
    4.6234   -4.1281    0.0000 C    0  0  0  0  0  0  0  0  0  0  0  0
    3.4803   -3.4549    0.0000 Si   0  0  0  0  0  0  0  0  0  0  0  0
    2.8071   -4.5853    0.0000 O    0  0  0  0  0  0  0  0  0  0  0  0
    3.4549   -5.7539    0.0000 C    0  0  0  0  0  0  0  0  0  0  0  0
    2.7817   -6.9097    0.0000 C    0  0  0  0  0  0  0  0  0  0  0  0
    4.1535   -2.3117    0.0000 O    0  0  0  0  0  0  0  0  0  0  0  0
    3.4930   -1.1432    0.0000 C    0  0  0  0  0  0  0  0  0  0  0  0
    4.1662    0.0000    0.0000 C    0  0  0  0  0  0  0  0  0  0  0  0
    2.3244   -2.7944    0.0000 O    0  0  0  0  0  0  0  0  0  0  0  0
    1.1559   -3.4295    0.0000 C    0  0  0  0  0  0  0  0  0  0  0  0
    0.0000   -2.7817    0.0000 C    0  0  0  0  0  0  0  0  0  0  0  0
   11.5332   -4.1535    0.0000 C    0  0  0  0  0  0  0  0  0  0  0  0
   12.7017   -3.5184    0.0000 C    0  0  0  0  0  0  0  0  0  0  0  0
  1  2  2  0  0  0  0
  1  3  1  0  0  0  0
  1  4  1  0  0  0  0
  3 18  1  0  0  0  0
  4  5  1  0  0  0  0
  5  6  1  0  0  0  0
  6  7  1  0  0  0  0
  7  8  1  0  0  0  0
  8  9  1  0  0  0  0
  8 12  1  0  0  0  0
  8 15  1  0  0  0  0
  9 10  1  0  0  0  0
 10 11  1  0  0  0  0
 12 13  1  0  0  0  0
 13 14  1  0  0  0  0
 15 16  1  0  0  0  0
 16 17  1  0  0  0  0
 18 19  1  0  0  0  0
M  END
> <ID>
10503

> <Formula>
C12H27NO5Si

> <FW>
293.432

> <DSSTox_CID>
24856

> <DSSTox_RID>
80534

> <DSSTox_GSID>
44856

> <DSSTox_FileID_Sort>
5216

> <TS_ChemName>
Ethyl [3-(triethoxysilyl)propyl]carbamate

> <TS_ChemName_Synonyms>
Ethyl [3-(triethoxysilyl)propyl]carbamate (Carbamic acid, [3-(triethoxysilyl)propyl]-, ethyl ester)

> <TS_CASRN>
17945-05-0

> <CASRN_ChemName_Relationship>
primary

> <TS_Description>
single chemical compound

> <ChemNote>


> <STRUCTURE_Shown>
tested chemical

> <STRUCTURE_Formula>
C12H27NO5Si

> <STRUCTURE_MW>
293.432

> <STRUCTURE_ChemType>
organometallic

> <STRUCTURE_DefinedOrganicForm>


> <STRUCTURE_IUPAC>
ethyl [3-(triethoxysilyl)propyl]carbamate

> <STRUCTURE_SMILES>
CCO[Si](OCC)(OCC)CCCNC(=O)OCC

> <STRUCTURE_SMILES_Desalt>
CCO[Si](OCC)(OCC)CCCNC(=O)OCC

> <Substance_modify_yyyymmdd>
20091116

$$$$
