179474-81-8
ChemmineR-0915142007XD

 25 27  0  0  0  0  0  0  0  0  1 V2000
    1.1474    0.0000    0.0000 C    0  0  0  0  0  0  0  0  0  0  0  0
    1.1474   -1.3309    0.0000 O    0  0  0  0  0  0  0  0  0  0  0  0
    2.3100   -1.9888    0.0000 C    0  0  0  0  0  0  0  0  0  0  0  0
    2.3100   -3.3197    0.0000 C    0  0  0  0  0  0  0  0  0  0  0  0
    3.4574   -3.9928    0.0000 C    0  0  0  0  0  0  0  0  0  0  0  0
    3.4574   -5.3238    0.0000 N    0  0  0  0  0  0  0  0  0  0  0  0
    2.3100   -5.9816    0.0000 C    0  0  0  0  0  0  0  0  0  0  0  0
    2.3100   -7.3125    0.0000 C    0  0  0  0  0  0  0  0  0  0  0  0
    3.4574   -7.9857    0.0000 C    0  0  0  0  0  0  0  0  0  0  0  0
    4.6048   -7.3125    0.0000 C    0  0  0  0  0  0  0  0  0  0  0  0
    4.6048   -5.9816    0.0000 C    0  0  0  0  0  0  0  0  0  0  0  0
    3.4574   -9.3166    0.0000 N    0  0  0  0  0  0  0  0  0  0  0  0
    2.3100   -9.9744    0.0000 C    0  0  0  0  0  0  0  0  0  0  0  0
    1.1474   -9.3166    0.0000 O    0  0  0  0  0  0  0  0  0  0  0  0
    2.3100  -11.3054    0.0000 C    0  0  0  0  0  0  0  0  0  0  0  0
    1.1474  -11.9785    0.0000 C    0  0  0  0  0  0  0  0  0  0  0  0
    1.1474  -13.3094    0.0000 C    0  0  0  0  0  0  0  0  0  0  0  0
    2.3100  -13.9673    0.0000 C    0  0  0  0  0  0  0  0  0  0  0  0
    2.3100  -15.2982    0.0000 N    0  0  0  0  0  0  0  0  0  0  0  0
    3.4574  -13.3094    0.0000 C    0  0  0  0  0  0  0  0  0  0  0  0
    3.4574  -11.9785    0.0000 C    0  0  0  0  0  0  0  0  0  0  0  0
    4.7271  -11.5654    0.0000 O    0  0  0  0  0  0  0  0  0  0  0  0
    5.5074  -12.6363    0.0000 C    0  0  0  0  0  0  0  0  0  0  0  0
    4.7271  -13.7072    0.0000 C    0  0  0  0  0  0  0  0  0  0  0  0
    0.0000  -13.9673    0.0000 Cl   0  0  0  0  0  0  0  0  0  0  0  0
  1  2  1  0  0  0  0
  2  3  1  0  0  0  0
  3  4  1  0  0  0  0
  4  5  1  0  0  0  0
  5  6  1  0  0  0  0
  6  7  1  0  0  0  0
  6 11  1  0  0  0  0
  7  8  1  0  0  0  0
  8  9  1  0  0  0  0
  9 10  1  0  0  0  0
  9 12  1  0  0  0  0
 10 11  1  0  0  0  0
 12 13  1  0  0  0  0
 13 14  2  0  0  0  0
 13 15  1  0  0  0  0
 15 16  2  0  0  0  0
 15 21  1  0  0  0  0
 16 17  1  0  0  0  0
 17 18  2  0  0  0  0
 17 25  1  0  0  0  0
 18 19  1  0  0  0  0
 18 20  1  0  0  0  0
 20 21  2  0  0  0  0
 20 24  1  0  0  0  0
 21 22  1  0  0  0  0
 22 23  1  0  0  0  0
 23 24  1  0  0  0  0
M  END
> <ID>
16073

> <Formula>
C18H26ClN3O3

> <FW>
367.8703

> <DSSTox_CID>
31459

> <DSSTox_RID>
97345

> <DSSTox_GSID>
57670

> <DSSTox_FileID_Sort>
8412

> <TS_ChemName>
Prucalopride

> <TS_ChemName_Synonyms>


> <TS_CASRN>
179474-81-8

> <CASRN_ChemName_Relationship>
primary

> <TS_Description>
single chemical compound

> <ChemNote>


> <STRUCTURE_Shown>
tested chemical

> <STRUCTURE_Formula>
C18H26ClN3O3

> <STRUCTURE_MW>
367.8703

> <STRUCTURE_ChemType>
defined organic

> <STRUCTURE_DefinedOrganicForm>
parent

> <STRUCTURE_IUPAC>
4-amino-5-chloro-N-[1-(3-methoxypropyl)piperidin-4-yl]-2,3-dihydro-1-benzofuran-7-carboxamide

> <STRUCTURE_SMILES>
COCCCN1CCC(CC1)NC(=O)c2cc(Cl)c(N)c3CCOc23

> <STRUCTURE_SMILES_Desalt>
COCCCN1CCC(CC1)NC(=O)c2cc(Cl)c(N)c3CCOc23

> <Substance_modify_yyyymmdd>
20131018

$$$$
