179465-71-5
ChemmineR-0915142007XD

 25 27  0  0  1  0  0  0  0  0  1 V2000
   10.3562   -0.6789    0.0000 C   0  0  0  0  0  0  0  0  0  0  0  0
   10.5007   -1.9932    0.0000 C   0  0  0  0  0  0  0  0  0  0  0  0
    9.2007    0.0000    0.0000 O   0  0  0  0  0  0  0  0  0  0  0  0
   11.5839   -0.1300    0.0000 C   0  0  0  0  0  0  0  0  0  0  0  0
   11.8006   -2.2677    0.0000 C   0  0  0  0  0  0  0  0  0  0  0  0
    8.0596   -0.6789    0.0000 C   0  0  0  0  0  0  0  0  0  0  0  0
   12.4650   -1.1122    0.0000 C   0  0  0  0  0  0  0  0  0  0  0  0
   12.3495   -3.4810    0.0000 N   0  0  0  0  0  0  0  0  0  0  0  0
    6.9041    0.0000    0.0000 C   0  0  0  0  0  0  0  0  0  0  0  0
    8.0596   -2.0077    0.0000 C   0  0  0  0  0  0  0  0  0  0  0  0
   13.6638   -3.6254    0.0000 C   0  0  0  0  0  0  0  0  0  0  0  0
   11.5551   -4.5498    0.0000 O   0  0  0  0  0  0  0  0  0  0  0  0
    5.7486   -0.6789    0.0000 C   0  0  0  0  0  0  0  0  0  0  0  0
    6.9041   -2.6577    0.0000 C   0  0  0  0  0  0  0  0  0  0  0  0
   14.4438   -2.5421    0.0000 N   0  0  0  0  0  0  0  0  0  0  0  0
   14.1983   -4.8387    0.0000 O   0  0  0  0  0  0  0  0  0  0  0  0
    4.5931    0.0000    0.0000 O   0  0  0  0  0  0  0  0  0  0  0  0
    5.7486   -2.0077    0.0000 C   0  0  0  0  0  0  0  0  0  0  0  0
    3.4521   -0.6789    0.0000 C   0  0  0  0  0  0  0  0  0  0  0  0
    2.3110    0.0000    0.0000 C   0  0  0  0  0  0  0  0  0  0  0  0
    3.4521   -2.0077    0.0000 C   0  0  0  0  0  0  0  0  0  0  0  0
    1.1555   -0.6789    0.0000 C   0  0  0  0  0  0  0  0  0  0  0  0
    2.3110   -2.6577    0.0000 C   0  0  0  0  0  0  0  0  0  0  0  0
    1.1555   -2.0077    0.0000 C   0  0  0  0  0  0  0  0  0  0  0  0
    0.0000   -2.6577    0.0000 F   0  0  0  0  0  0  0  0  0  0  0  0
  1  2  1  0  0  0  0
  1  3  1  1  0  0  0
  1  4  1  0  0  0  0
  2  5  1  0  0  0  0
  3  6  1  0  0  0  0
  4  7  2  0  0  0  0
  5  8  1  1  0  0  0
  5  7  1  0  0  0  0
  6  9  1  0  0  0  0
  6 10  2  0  0  0  0
  8 11  1  0  0  0  0
  8 12  1  0  0  0  0
  9 13  2  0  0  0  0
 10 14  1  0  0  0  0
 11 15  1  0  0  0  0
 11 16  2  0  0  0  0
 13 17  1  0  0  0  0
 13 18  1  0  0  0  0
 14 18  2  0  0  0  0
 17 19  1  0  0  0  0
 19 20  2  0  0  0  0
 19 21  1  0  0  0  0
 20 22  1  0  0  0  0
 21 23  2  0  0  0  0
 22 24  2  0  0  0  0
 23 24  1  0  0  0  0
 24 25  1  0  0  0  0
M  END
> <ID>
12445

> <Formula>
C18H17FN2O4

> <FW>
344.337

> <DSSTox_CID>
27303

> <DSSTox_RID>
82253

> <DSSTox_GSID>
47303

> <DSSTox_FileID_Sort>
6934

> <TS_ChemName>
CJ-013790

> <TS_ChemName_Synonyms>


> <TS_CASRN>
179465-71-5

> <CASRN_ChemName_Relationship>
primary

> <TS_Description>
single chemical compound

> <ChemNote>
stereochem

> <STRUCTURE_Shown>
tested chemical

> <STRUCTURE_Formula>
C18H17FN2O4

> <STRUCTURE_MW>
344.337

> <STRUCTURE_ChemType>
defined organic

> <STRUCTURE_DefinedOrganicForm>
parent

> <STRUCTURE_IUPAC>
1-{(1S,4R)-4-[3-(4-fluorophenoxy)phenoxy]cyclopent-2-en-1-yl}-1-hydroxyurea

> <STRUCTURE_SMILES>
NC(=O)N(O)[C@@H]3C=C[C@H](Oc2cc(Oc1ccc(F)cc1)ccc2)C3

> <STRUCTURE_SMILES_Desalt>
NC(=O)N(O)[C@@H]3C=C[C@H](Oc2cc(Oc1ccc(F)cc1)ccc2)C3

> <Substance_modify_yyyymmdd>
20130910

$$$$
