17980-47-1
ChemmineR-0915142007XD

 14 13  0  0  0  0  0  0  0  0  1 V2000
    3.1835   -3.1835    0.0000 Si   0  0  0  0  0  0  0  0  0  0  0  0
    2.2341   -4.1138    0.0000 O    0  0  0  0  0  0  0  0  0  0  0  0
    0.9493   -3.7594    0.0000 C    0  0  0  0  0  0  0  0  0  0  0  0
    0.0000   -4.6898    0.0000 C    0  0  0  0  0  0  0  0  0  0  0  0
    4.1138   -2.2531    0.0000 O    0  0  0  0  0  0  0  0  0  0  0  0
    3.7910   -0.9683    0.0000 C    0  0  0  0  0  0  0  0  0  0  0  0
    4.7404   -0.0316    0.0000 C    0  0  0  0  0  0  0  0  0  0  0  0
    2.2468   -2.2341    0.0000 O    0  0  0  0  0  0  0  0  0  0  0  0
    2.6012   -0.9493    0.0000 C    0  0  0  0  0  0  0  0  0  0  0  0
    1.6519    0.0000    0.0000 C    0  0  0  0  0  0  0  0  0  0  0  0
    4.1138   -4.1328    0.0000 C    0  0  0  0  0  0  0  0  0  0  0  0
    5.3986   -3.7910    0.0000 C    0  0  0  0  0  0  0  0  0  0  0  0
    5.7340   -2.5063    0.0000 C    0  0  0  0  0  0  0  0  0  0  0  0
    6.3290   -4.7404    0.0000 C    0  0  0  0  0  0  0  0  0  0  0  0
  1  2  1  0  0  0  0
  1  5  1  0  0  0  0
  1  8  1  0  0  0  0
  1 11  1  0  0  0  0
  2  3  1  0  0  0  0
  3  4  1  0  0  0  0
  5  6  1  0  0  0  0
  6  7  1  0  0  0  0
  8  9  1  0  0  0  0
  9 10  1  0  0  0  0
 11 12  1  0  0  0  0
 12 13  1  0  0  0  0
 12 14  1  0  0  0  0
M  END
> <ID>
10504

> <Formula>
C10H24O3Si

> <FW>
220.3813

> <DSSTox_CID>
24857

> <DSSTox_RID>
80535

> <DSSTox_GSID>
44857

> <DSSTox_FileID_Sort>
5217

> <TS_ChemName>
Triethoxy(2-methylpropyl)silane

> <TS_ChemName_Synonyms>
Triethoxy(2-methylpropyl)silane (Silane, triethoxy(2-methylpropyl)-)

> <TS_CASRN>
17980-47-1

> <CASRN_ChemName_Relationship>
primary

> <TS_Description>
single chemical compound

> <ChemNote>


> <STRUCTURE_Shown>
tested chemical

> <STRUCTURE_Formula>
C10H24O3Si

> <STRUCTURE_MW>
220.3813

> <STRUCTURE_ChemType>
organometallic

> <STRUCTURE_DefinedOrganicForm>


> <STRUCTURE_IUPAC>
triethoxy(2-methylpropyl)silane

> <STRUCTURE_SMILES>
CCO[Si](OCC)(OCC)CC(C)C

> <STRUCTURE_SMILES_Desalt>
CCO[Si](OCC)(OCC)CC(C)C

> <Substance_modify_yyyymmdd>
20091116

$$$$
