180-84-7
ChemmineR-0915142007XD

 11 12  0  0  0  0  0  0  0  0  1 V2000
    2.6665   -1.1458    0.0000 C   0  0  0  0  0  0  0  0  0  0  0  0
    3.3465    0.0000    0.0000 O   0  0  0  0  0  0  0  0  0  0  0  0
    2.0079   -2.2917    0.0000 O   0  0  0  0  0  0  0  0  0  0  0  0
    3.3465   -2.2917    0.0000 C   0  0  0  0  0  0  0  0  0  0  0  0
    2.0079    0.0000    0.0000 C   0  0  0  0  0  0  0  0  0  0  0  0
    0.6747   -2.2917    0.0000 C   0  0  0  0  0  0  0  0  0  0  0  0
    4.6798    0.0000    0.0000 C   0  0  0  0  0  0  0  0  0  0  0  0
    0.6747    0.0000    0.0000 C   0  0  0  0  0  0  0  0  0  0  0  0
    4.6798   -2.2917    0.0000 C   0  0  0  0  0  0  0  0  0  0  0  0
    5.3544   -1.1458    0.0000 C   0  0  0  0  0  0  0  0  0  0  0  0
    0.0000   -1.1458    0.0000 C   0  0  0  0  0  0  0  0  0  0  0  0
  1  2  1  0  0  0  0
  1  3  1  0  0  0  0
  1  4  1  0  0  0  0
  1  5  1  0  0  0  0
  2  7  1  0  0  0  0
  3  6  1  0  0  0  0
  4  9  1  0  0  0  0
  5  8  1  0  0  0  0
  6 11  1  0  0  0  0
  7 10  1  0  0  0  0
  8 11  1  0  0  0  0
  9 10  1  0  0  0  0
M  END
> <ID>
7930

> <Formula>
C9H16O2

> <FW>
156.2221

> <DSSTox_CID>
20735

> <DSSTox_RID>
79579

> <DSSTox_GSID>
40735

> <DSSTox_FileID_Sort>
4261

> <TS_ChemName>
1,7-Dioxaspiro[5.5]undecane

> <TS_ChemName_Synonyms>
1,7-Dioxaspiro[5.5] undecane

> <TS_CASRN>
180-84-7

> <CASRN_ChemName_Relationship>
primary

> <TS_Description>
single chemical compound

> <ChemNote>


> <STRUCTURE_Shown>
tested chemical

> <STRUCTURE_Formula>
C9H16O2

> <STRUCTURE_MW>
156.2221

> <STRUCTURE_ChemType>
defined organic

> <STRUCTURE_DefinedOrganicForm>
parent

> <STRUCTURE_IUPAC>
1,7-dioxaspiro[5.5]undecane

> <STRUCTURE_SMILES>
C2COC1(CCCCO1)CC2

> <STRUCTURE_SMILES_Desalt>
C2COC1(CCCCO1)CC2

> <Substance_modify_yyyymmdd>
20080429

$$$$
