180064-38-4
ChemmineR-0915142007XD

 20 21  0  0  0  0  0  0  0  0  1 V2000
    2.3160   -3.8527    0.0000 N   0  0  0  0  0  0  0  0  0  0  0  0
    2.3160   -5.1888    0.0000 C   0  0  0  0  0  0  0  0  0  0  0  0
    1.1580   -3.1994    0.0000 C   0  0  0  0  0  0  0  0  0  0  0  0
    1.1580   -5.8644    0.0000 C   0  0  0  0  0  0  0  0  0  0  0  0
    0.0000   -3.8527    0.0000 C   0  0  0  0  0  0  0  0  0  0  0  0
    0.0000   -5.1888    0.0000 C   0  0  0  0  0  0  0  0  0  0  0  0
    3.2959   -2.9693    0.0000 C   0  0  0  0  0  0  0  0  0  0  0  0
    2.7466   -1.7667    0.0000 C   0  0  0  0  0  0  0  0  0  0  0  0
    1.4327   -1.8929    0.0000 N   0  0  0  0  0  0  0  0  0  0  0  0
    4.5950   -3.2440    0.0000 C   0  0  0  0  0  0  0  0  0  0  0  0
    5.4783   -2.2641    0.0000 C   0  0  0  0  0  0  0  0  0  0  0  0
    6.1836   -1.1209    0.0000 P   0  0  0  0  0  0  0  0  0  0  0  0
    7.4232   -1.6405    0.0000 O   0  0  0  0  0  0  0  0  0  0  0  0
    5.0775   -0.4305    0.0000 O   0  0  0  0  0  0  0  0  0  0  0  0
    6.8962    0.0000    0.0000 O   0  0  0  0  0  0  0  0  0  0  0  0
    6.2949   -3.3108    0.0000 P   0  0  0  0  0  0  0  0  0  0  0  0
    5.2556   -4.1273    0.0000 O   0  0  0  0  0  0  0  0  0  0  0  0
    7.3564   -2.4868    0.0000 O   0  0  0  0  0  0  0  0  0  0  0  0
    7.1189   -4.3574    0.0000 O   0  0  0  0  0  0  0  0  0  0  0  0
    4.4985   -1.3659    0.0000 O   0  0  0  0  0  0  0  0  0  0  0  0
  1  2  1  0  0  0  0
  1  7  1  0  0  0  0
  1  3  1  0  0  0  0
  2  4  2  0  0  0  0
  3  5  1  0  0  0  0
  3  9  2  0  0  0  0
  4  6  1  0  0  0  0
  5  6  2  0  0  0  0
  7  8  2  0  0  0  0
  7 10  1  0  0  0  0
  8  9  1  0  0  0  0
 10 11  1  0  0  0  0
 11 12  1  0  0  0  0
 11 16  1  0  0  0  0
 11 20  1  0  0  0  0
 12 13  2  0  0  0  0
 12 14  1  0  0  0  0
 12 15  1  0  0  0  0
 16 17  2  0  0  0  0
 16 18  1  0  0  0  0
 16 19  1  0  0  0  0
M  END
> <ID>
13768

> <Formula>
C9H12N2O7P2

> <FW>
322.1483

> <DSSTox_CID>
28705

> <DSSTox_RID>
82974

> <DSSTox_GSID>
48779

> <DSSTox_FileID_Sort>
7651

> <TS_ChemName>
Minodronic acid

> <TS_ChemName_Synonyms>


> <TS_CASRN>
180064-38-4

> <CASRN_ChemName_Relationship>
primary

> <TS_Description>
single chemical compound

> <ChemNote>


> <STRUCTURE_Shown>
tested chemical

> <STRUCTURE_Formula>
C9H12N2O7P2

> <STRUCTURE_MW>
322.1483

> <STRUCTURE_ChemType>
defined organic

> <STRUCTURE_DefinedOrganicForm>
parent

> <STRUCTURE_IUPAC>
[1-hydroxy-2-(imidazo[1,2-a]pyridin-3-yl)ethane-1,1-diyl]bis(phosphonic acid)

> <STRUCTURE_SMILES>
O=P(O)(O)C(O)(Cc1cnc2ccccn12)P(=O)(O)O

> <STRUCTURE_SMILES_Desalt>
O=P(O)(O)C(O)(Cc1cnc2ccccn12)P(=O)(O)O

> <Substance_modify_yyyymmdd>
20111204

$$$$
