180084-01-9
ChemmineR-0915142007XD

 41 46  0  0  0  0  0  0  0  0  1 V2000
   19.4995   -7.6048    0.0000 C    0  0  0  0  0  0  0  0  0  0  0  0
   18.2710   -7.0783    0.0000 C    0  0  0  0  0  0  0  0  0  0  0  0
   18.1345   -5.7329    0.0000 N    0  0  0  0  0  0  0  0  0  0  0  0
   19.2070   -4.9529    0.0000 C    0  0  0  0  0  0  0  0  0  0  0  0
   19.0705   -3.6464    0.0000 C    0  0  0  0  0  0  0  0  0  0  0  0
   17.8420   -3.1004    0.0000 C    0  0  0  0  0  0  0  0  0  0  0  0
   18.8365   -2.1839    0.0000 C    0  0  0  0  0  0  0  0  0  0  0  0
   18.2905   -0.9945    0.0000 O    0  0  0  0  0  0  0  0  0  0  0  0
   16.9646   -1.1310    0.0000 C    0  0  0  0  0  0  0  0  0  0  0  0
   15.9701   -0.2535    0.0000 C    0  0  0  0  0  0  0  0  0  0  0  0
   14.7026   -0.6630    0.0000 C    0  0  0  0  0  0  0  0  0  0  0  0
   13.5522    0.0000    0.0000 C    0  0  0  0  0  0  0  0  0  0  0  0
   12.5772   -0.9165    0.0000 C    0  0  0  0  0  0  0  0  0  0  0  0
   13.1037   -2.1059    0.0000 N    0  0  0  0  0  0  0  0  0  0  0  0
   12.4407   -3.2759    0.0000 C    0  0  0  0  0  0  0  0  0  0  0  0
   13.1232   -4.4069    0.0000 O    0  0  0  0  0  0  0  0  0  0  0  0
   11.1147   -3.2759    0.0000 C    0  0  0  0  0  0  0  0  0  0  0  0
   10.4517   -4.4264    0.0000 C    0  0  0  0  0  0  0  0  0  0  0  0
    9.1453   -4.4264    0.0000 C    0  0  0  0  0  0  0  0  0  0  0  0
    8.4628   -3.2759    0.0000 C    0  0  0  0  0  0  0  0  0  0  0  0
    9.1258   -2.1254    0.0000 C    0  0  0  0  0  0  0  0  0  0  0  0
   10.4517   -2.1254    0.0000 C    0  0  0  0  0  0  0  0  0  0  0  0
    7.1368   -3.2759    0.0000 C    0  0  0  0  0  0  0  0  0  0  0  0
    6.4738   -2.1449    0.0000 C    0  0  0  0  0  0  0  0  0  0  0  0
    5.1284   -2.1449    0.0000 C    0  0  0  0  0  0  0  0  0  0  0  0
    4.4654   -3.2954    0.0000 C    0  0  0  0  0  0  0  0  0  0  0  0
    5.1479   -4.4459    0.0000 C    0  0  0  0  0  0  0  0  0  0  0  0
    6.4738   -4.4459    0.0000 C    0  0  0  0  0  0  0  0  0  0  0  0
    7.1563   -5.5964    0.0000 C    0  0  0  0  0  0  0  0  0  0  0  0
    3.1394   -3.2954    0.0000 C    0  0  0  0  0  0  0  0  0  0  0  0
    2.3399   -4.3874    0.0000 N    0  0  0  0  0  0  0  0  0  0  0  0
    1.0920   -3.9779    0.0000 N    0  0  0  0  0  0  0  0  0  0  0  0
    1.0920   -2.6324    0.0000 C    0  0  0  0  0  0  0  0  0  0  0  0
    0.0000   -1.8720    0.0000 C    0  0  0  0  0  0  0  0  0  0  0  0
    2.3399   -2.2229    0.0000 O    0  0  0  0  0  0  0  0  0  0  0  0
   14.4296   -1.9694    0.0000 C    0  0  0  0  0  0  0  0  0  0  0  0
   15.4241   -2.8469    0.0000 C    0  0  0  0  0  0  0  0  0  0  0  0
   16.6916   -2.4374    0.0000 C    0  0  0  0  0  0  0  0  0  0  0  0
   16.7891   -3.8804    0.0000 C    0  0  0  0  0  0  0  0  0  0  0  0
   16.9061   -5.2064    0.0000 C    0  0  0  0  0  0  0  0  0  0  0  0
   13.9421   -5.6549    0.0000 Cl   0  0  0  0  0  0  0  0  0  0  0  0
  1  2  1  0  0  0  0
  2  3  1  0  0  0  0
  3  4  1  0  0  0  0
  3 40  1  0  0  0  0
  4  5  1  0  0  0  0
  5  6  1  0  0  0  0
  6  7  1  0  0  0  0
  6 38  1  0  0  0  0
  6 39  1  0  0  0  0
  7  8  1  0  0  0  0
  8  9  1  0  0  0  0
  9 10  1  0  0  0  0
  9 38  2  0  0  0  0
 10 11  2  0  0  0  0
 11 12  1  0  0  0  0
 11 36  1  0  0  0  0
 12 13  1  0  0  0  0
 13 14  1  0  0  0  0
 14 15  1  0  0  0  0
 14 36  1  0  0  0  0
 15 16  2  0  0  0  0
 15 17  1  0  0  0  0
 17 18  2  0  0  0  0
 17 22  1  0  0  0  0
 18 19  1  0  0  0  0
 19 20  2  0  0  0  0
 20 21  1  0  0  0  0
 20 23  1  0  0  0  0
 21 22  2  0  0  0  0
 23 24  2  0  0  0  0
 23 28  1  0  0  0  0
 24 25  1  0  0  0  0
 25 26  2  0  0  0  0
 26 27  1  0  0  0  0
 26 30  1  0  0  0  0
 27 28  2  0  0  0  0
 28 29  1  0  0  0  0
 30 31  2  0  0  0  0
 30 35  1  0  0  0  0
 31 32  1  0  0  0  0
 32 33  2  0  0  0  0
 33 34  1  0  0  0  0
 33 35  1  0  0  0  0
 36 37  2  0  0  0  0
 37 38  1  0  0  0  0
 39 40  1  0  0  0  0
M  END
> <ID>
12462

> <Formula>
C33H35ClN4O3

> <FW>
571.1090 (534.6481+36.4609)

> <DSSTox_CID>
27320

> <DSSTox_RID>
82268

> <DSSTox_GSID>
47320

> <DSSTox_FileID_Sort>
6949

> <TS_ChemName>
SB236057A

> <TS_ChemName_Synonyms>


> <TS_CASRN>
180084-01-9

> <CASRN_ChemName_Relationship>
primary

> <TS_Description>
single chemical compound

> <ChemNote>


> <STRUCTURE_Shown>
tested chemical

> <STRUCTURE_Formula>
C33H35ClN4O3

> <STRUCTURE_MW>
571.109

> <STRUCTURE_ChemType>
defined organic

> <STRUCTURE_DefinedOrganicForm>
complex

> <STRUCTURE_IUPAC>
(1'-ethyl-6,7-dihydro-5H-spiro[furo[2,3-f]indole-3,4'-piperidin]-5-yl)[2'-methyl-4'-(5-methyl-1,3,4-oxadiazol-2-yl)biphenyl-4-yl]methanone hydrochloride (1:1)

> <STRUCTURE_SMILES>
Cl.Cc1nnc(o1)c2cc(C)c(cc2)c3ccc(cc3)C(=O)N6CCc5cc7OCC4(CCN(CC)CC4)c7cc56

> <STRUCTURE_SMILES_Desalt>
Cc1nnc(o1)c2cc(C)c(cc2)c3ccc(cc3)C(=O)N6CCc5cc7OCC4(CCN(CC)CC4)c7cc56

> <Substance_modify_yyyymmdd>
20130910

$$$$
