180200-68-4
ChemmineR-0915142007XD

 23 25  0  0  0  0  0  0  0  0  1 V2000
    4.2846   -9.1944    0.0000 C   0  0  0  0  0  0  0  0  0  0  0  0
    4.4133   -7.8796    0.0000 C   0  0  0  0  0  0  0  0  0  0  0  0
    5.5626   -7.2084    0.0000 N   0  0  0  0  0  0  0  0  0  0  0  0
    5.2960   -5.9120    0.0000 C   0  0  0  0  0  0  0  0  0  0  0  0
    3.9628   -5.7925    0.0000 C   0  0  0  0  0  0  0  0  0  0  0  0
    3.4203   -6.9878    0.0000 O   0  0  0  0  0  0  0  0  0  0  0  0
    3.3100   -4.6340    0.0000 C   0  0  0  0  0  0  0  0  0  0  0  0
    3.9628   -3.4847    0.0000 C   0  0  0  0  0  0  0  0  0  0  0  0
    3.3100   -2.3538    0.0000 C   0  0  0  0  0  0  0  0  0  0  0  0
    1.9860   -2.3538    0.0000 C   0  0  0  0  0  0  0  0  0  0  0  0
    1.3240   -3.4847    0.0000 C   0  0  0  0  0  0  0  0  0  0  0  0
    1.9860   -4.6340    0.0000 C   0  0  0  0  0  0  0  0  0  0  0  0
    0.0000   -3.4847    0.0000 F   0  0  0  0  0  0  0  0  0  0  0  0
    1.3240   -1.1493    0.0000 S   0  0  0  0  0  0  0  0  0  0  0  0
    2.4641   -0.4781    0.0000 N   0  0  0  0  0  0  0  0  0  0  0  0
    0.1747   -1.8573    0.0000 O   0  0  0  0  0  0  0  0  0  0  0  0
    0.6528    0.0000    0.0000 O   0  0  0  0  0  0  0  0  0  0  0  0
    6.1694   -4.9374    0.0000 C   0  0  0  0  0  0  0  0  0  0  0  0
    7.5118   -5.2132    0.0000 C   0  0  0  0  0  0  0  0  0  0  0  0
    8.4129   -4.2202    0.0000 C   0  0  0  0  0  0  0  0  0  0  0  0
    7.9991   -2.9698    0.0000 C   0  0  0  0  0  0  0  0  0  0  0  0
    6.7027   -2.6848    0.0000 C   0  0  0  0  0  0  0  0  0  0  0  0
    5.7741   -3.6778    0.0000 C   0  0  0  0  0  0  0  0  0  0  0  0
  1  2  1  0  0  0  0
  2  3  2  0  0  0  0
  2  6  1  0  0  0  0
  3  4  1  0  0  0  0
  4  5  2  0  0  0  0
  4 18  1  0  0  0  0
  5  6  1  0  0  0  0
  5  7  1  0  0  0  0
  7  8  2  0  0  0  0
  7 12  1  0  0  0  0
  8  9  1  0  0  0  0
  9 10  2  0  0  0  0
 10 11  1  0  0  0  0
 10 14  1  0  0  0  0
 11 12  2  0  0  0  0
 11 13  1  0  0  0  0
 14 15  1  0  0  0  0
 14 16  2  0  0  0  0
 14 17  2  0  0  0  0
 18 19  1  0  0  0  0
 18 23  1  0  0  0  0
 19 20  1  0  0  0  0
 20 21  1  0  0  0  0
 21 22  1  0  0  0  0
 22 23  1  0  0  0  0
M  END
> <ID>
16074

> <Formula>
C16H19FN2O3S

> <FW>
338.3971

> <DSSTox_CID>
31460

> <DSSTox_RID>
97346

> <DSSTox_GSID>
57671

> <DSSTox_FileID_Sort>
8413

> <TS_ChemName>
Tilmacoxib

> <TS_ChemName_Synonyms>


> <TS_CASRN>
180200-68-4

> <CASRN_ChemName_Relationship>
primary

> <TS_Description>
single chemical compound

> <ChemNote>


> <STRUCTURE_Shown>
tested chemical

> <STRUCTURE_Formula>
C16H19FN2O3S

> <STRUCTURE_MW>
338.3971

> <STRUCTURE_ChemType>
defined organic

> <STRUCTURE_DefinedOrganicForm>
parent

> <STRUCTURE_IUPAC>
4-(4-cyclohexyl-2-methyl-1,3-oxazol-5-yl)-2-fluorobenzenesulfonamide

> <STRUCTURE_SMILES>
Cc2nc(C1CCCCC1)c(o2)c3ccc(c(F)c3)S(N)(=O)=O

> <STRUCTURE_SMILES_Desalt>
Cc2nc(C1CCCCC1)c(o2)c3ccc(c(F)c3)S(N)(=O)=O

> <Substance_modify_yyyymmdd>
20131018

$$$$
