18031-40-8
ChemmineR-0915142007XD

 11 11  0  0  1  0  0  0  0  0  1 V2000
    4.6559   -1.1557    0.0000 C   0  0  0  0  0  0  0  0  0  0  0  0
    3.9850   -2.3047    0.0000 C   0  0  0  0  0  0  0  0  0  0  0  0
    2.6567   -2.3047    0.0000 C   0  0  0  0  0  0  0  0  0  0  0  0
    1.9992   -1.1557    0.0000 C   0  0  0  0  0  0  0  0  0  0  0  0
    2.6567    0.0000    0.0000 C   0  0  0  0  0  0  0  0  0  0  0  0
    3.9850    0.0000    0.0000 C   0  0  0  0  0  0  0  0  0  0  0  0
    5.9842   -1.1557    0.0000 C   0  0  0  0  0  0  0  0  0  0  0  0
    6.6417    0.0000    0.0000 O   0  0  0  0  0  0  0  0  0  0  0  0
    0.6708   -1.1557    0.0000 C   0  0  0  0  0  0  0  0  0  0  0  0
    0.0000    0.0000    0.0000 C   0  0  0  0  0  0  0  0  0  0  0  0
    0.0000   -2.3047    0.0000 C   0  0  0  0  0  0  0  0  0  0  0  0
  1  2  2  0  0  0  0
  1  6  1  0  0  0  0
  1  7  1  0  0  0  0
  2  3  1  0  0  0  0
  3  4  1  0  0  0  0
  4  5  1  0  0  0  0
  4  9  1  1  0  0  0
  5  6  1  0  0  0  0
  7  8  2  0  0  0  0
  9 10  2  0  0  0  0
  9 11  1  0  0  0  0
M  END
> <ID>
8163

> <Formula>
C10H14O

> <FW>
150.2176

> <DSSTox_CID>
21190

> <DSSTox_RID>
79643

> <DSSTox_GSID>
41190

> <DSSTox_FileID_Sort>
4325

> <TS_ChemName>
(S)-4-Isopropenyl-1-cyclohexene-1-carboxaldehyde

> <TS_ChemName_Synonyms>
(S)-4-Isopropenyl-1-cyclohexene-1-carboxaldehyde ((S)-(-)-Perillaldehyde)

> <TS_CASRN>
18031-40-8

> <CASRN_ChemName_Relationship>
primary

> <TS_Description>
single chemical compound

> <ChemNote>
stereochem

> <STRUCTURE_Shown>
tested chemical

> <STRUCTURE_Formula>
C10H14O

> <STRUCTURE_MW>
150.2176

> <STRUCTURE_ChemType>
defined organic

> <STRUCTURE_DefinedOrganicForm>
parent

> <STRUCTURE_IUPAC>
(4S)-4-(prop-1-en-2-yl)cyclohex-1-ene-1-carbaldehyde

> <STRUCTURE_SMILES>
CC(=C)[C@@H]1CC=C(C=O)CC1

> <STRUCTURE_SMILES_Desalt>
CC(=C)[C@@H]1CC=C(C=O)CC1

> <Substance_modify_yyyymmdd>
20080825

$$$$
