180468-39-7
ChemmineR-0915142007XD

 28 31  0  0  1  0  0  0  0  0  1 V2000
    2.3788   -4.8028    0.0000 C    0  0  0  0  0  0  0  0  0  0  0  0
    2.3788   -6.1782    0.0000 C    0  0  0  0  0  0  0  0  0  0  0  0
    1.1838   -4.1151    0.0000 C    0  0  0  0  0  0  0  0  0  0  0  0
    1.1838   -6.8547    0.0000 C    0  0  0  0  0  0  0  0  0  0  0  0
    0.0000   -4.8028    0.0000 C    0  0  0  0  0  0  0  0  0  0  0  0
    0.0000   -6.1782    0.0000 C    0  0  0  0  0  0  0  0  0  0  0  0
    3.5626   -4.1151    0.0000 C    0  0  0  0  0  0  0  0  0  0  0  0
    4.7577   -4.8028    0.0000 N    0  0  0  0  0  0  0  0  0  0  0  0
    3.5626   -6.8547    0.0000 C    0  0  0  0  0  0  0  0  0  0  0  0
    4.7577   -6.1782    0.0000 C    0  0  0  0  0  0  0  0  0  0  0  0
    3.5626   -2.7396    0.0000 C    0  0  0  0  0  0  0  0  0  0  0  0
    2.3788   -2.0632    0.0000 C    0  0  0  0  0  0  0  0  0  0  0  0
    4.7577   -2.0632    0.0000 C    0  0  0  0  0  0  0  0  0  0  0  0
    2.3788   -0.6764    0.0000 C    0  0  0  0  0  0  0  0  0  0  0  0
    4.7577   -0.6990    0.0000 C    0  0  0  0  0  0  0  0  0  0  0  0
    3.5626    0.0000    0.0000 C    0  0  0  0  0  0  0  0  0  0  0  0
    5.9415   -4.1151    0.0000 C    0  0  0  0  0  0  0  0  0  0  0  0
    7.1140   -4.8028    0.0000 O    0  0  0  0  0  0  0  0  0  0  0  0
    5.9415   -2.7396    0.0000 O    0  0  0  0  0  0  0  0  0  0  0  0
    9.6619   -3.3710    0.0000 C    0  0  0  0  0  0  0  0  0  0  0  0
   10.8457   -4.0700    0.0000 C    0  0  0  0  0  0  0  0  0  0  0  0
    9.6619   -2.0068    0.0000 C    0  0  0  0  0  0  0  0  0  0  0  0
    8.4669   -4.0700    0.0000 C    0  0  0  0  0  0  0  0  0  0  0  0
   10.0903   -4.1489    0.0000 N    0  0  0  0  0  0  0  0  0  0  0  0
   11.2741   -4.8366    0.0000 C    0  0  0  0  0  0  0  0  0  0  0  0
   10.0903   -2.7734    0.0000 C    0  0  0  0  0  0  0  0  0  0  0  0
    8.8953   -4.8366    0.0000 C    0  0  0  0  0  0  0  0  0  0  0  0
    7.4296   -6.1444    0.0000 Cl   0  0  0  0  0  0  0  0  0  0  0  0
  1  3  2  0  0  0  0
  1  7  1  0  0  0  0
  1  2  1  0  0  0  0
  2  4  2  0  0  0  0
  2  9  1  0  0  0  0
  3  5  1  0  0  0  0
  4  6  1  0  0  0  0
  5  6  2  0  0  0  0
  7  8  1  0  0  0  0
  7 11  1  6  0  0  0
  8 10  1  0  0  0  0
  8 17  1  0  0  0  0
  9 10  1  0  0  0  0
 11 12  1  0  0  0  0
 11 13  2  0  0  0  0
 12 14  2  0  0  0  0
 13 15  1  0  0  0  0
 14 16  1  0  0  0  0
 15 16  2  0  0  0  0
 17 18  1  0  0  0  0
 17 19  2  0  0  0  0
 23 18  1  6  0  0  0
 20 21  1  0  0  0  0
 20 22  1  0  0  0  0
 20 23  1  0  0  0  0
 21 25  1  0  0  0  0
 22 26  1  0  0  0  0
 23 27  1  0  0  0  0
 24 25  1  0  0  0  0
 24 26  1  0  0  0  0
 24 27  1  0  0  0  0
M  END
> <ID>
11965

> <Formula>
C23H27ClN2O2

> <FW>
398.9257 (362.4647+36.4609)

> <DSSTox_CID>
26783

> <DSSTox_RID>
81901

> <DSSTox_GSID>
46783

> <DSSTox_FileID_Sort>
6582

> <TS_ChemName>
Solifenacin hydrochloride

> <TS_ChemName_Synonyms>


> <TS_CASRN>
180468-39-7

> <CASRN_ChemName_Relationship>
primary

> <TS_Description>
single chemical compound

> <ChemNote>
stereochem; parent [242478-37-1]

> <STRUCTURE_Shown>
tested chemical

> <STRUCTURE_Formula>
C23H27ClN2O2

> <STRUCTURE_MW>
398.9257

> <STRUCTURE_ChemType>
defined organic

> <STRUCTURE_DefinedOrganicForm>
complex

> <STRUCTURE_IUPAC>
(3R)-1-azabicyclo[2.2.2]oct-3-yl (1S)-1-phenyl-3,4-dihydroisoquinoline-2(1H)-carboxylate hydrochloride (1:1)

> <STRUCTURE_SMILES>
Cl.O=C(O[C@H]2CN1CCC2CC1)N4CCc5ccccc5[C@@H]4c3ccccc3

> <STRUCTURE_SMILES_Desalt>
O=C(O[C@H]2CN1CCC2CC1)N4CCc5ccccc5[C@@H]4c3ccccc3

> <Substance_modify_yyyymmdd>
20110802

$$$$
