18046-21-4
ChemmineR-0915142007XD

 22 24  0  0  0  0  0  0  0  0  1 V2000
    4.7962   -5.4162    0.0000 N    0  0  0  0  0  0  0  0  0  0  0  0
    5.4814   -3.3933    0.0000 C    0  0  0  0  0  0  0  0  0  0  0  0
    5.9056   -4.6549    0.0000 C    0  0  0  0  0  0  0  0  0  0  0  0
    3.7630   -4.6222    0.0000 C    0  0  0  0  0  0  0  0  0  0  0  0
    4.1654   -3.3933    0.0000 S    0  0  0  0  0  0  0  0  0  0  0  0
    6.2862   -2.2948    0.0000 C    0  0  0  0  0  0  0  0  0  0  0  0
    5.7207   -1.0985    0.0000 C    0  0  0  0  0  0  0  0  0  0  0  0
    7.1237   -5.1334    0.0000 C    0  0  0  0  0  0  0  0  0  0  0  0
    2.5014   -5.0790    0.0000 C    0  0  0  0  0  0  0  0  0  0  0  0
    4.4156   -1.0985    0.0000 O    0  0  0  0  0  0  0  0  0  0  0  0
    7.3521   -6.4385    0.0000 C    0  0  0  0  0  0  0  0  0  0  0  0
    8.1786   -4.2742    0.0000 C    0  0  0  0  0  0  0  0  0  0  0  0
    9.6360   -6.0905    0.0000 C    0  0  0  0  0  0  0  0  0  0  0  0
    6.5255    0.0000    0.0000 O    0  0  0  0  0  0  0  0  0  0  0  0
    9.4076   -4.7636    0.0000 C    0  0  0  0  0  0  0  0  0  0  0  0
    8.5919   -6.9170    0.0000 C    0  0  0  0  0  0  0  0  0  0  0  0
   10.8758   -6.5472    0.0000 Cl   0  0  0  0  0  0  0  0  0  0  0  0
    2.2622   -6.3732    0.0000 C    0  0  0  0  0  0  0  0  0  0  0  0
    1.4791   -4.2089    0.0000 C    0  0  0  0  0  0  0  0  0  0  0  0
    0.2393   -4.6549    0.0000 C    0  0  0  0  0  0  0  0  0  0  0  0
    1.0006   -6.8409    0.0000 C    0  0  0  0  0  0  0  0  0  0  0  0
    0.0000   -5.9926    0.0000 C    0  0  0  0  0  0  0  0  0  0  0  0
  1  3  1  0  0  0  0
  1  4  2  0  0  0  0
  2  3  2  0  0  0  0
  2  6  1  0  0  0  0
  2  5  1  0  0  0  0
  3  8  1  0  0  0  0
  4  5  1  0  0  0  0
  4  9  1  0  0  0  0
  6  7  1  0  0  0  0
  7 10  2  0  0  0  0
  7 14  1  0  0  0  0
  8 11  1  0  0  0  0
  8 12  2  0  0  0  0
  9 18  2  0  0  0  0
  9 19  1  0  0  0  0
 11 16  2  0  0  0  0
 12 15  1  0  0  0  0
 13 15  2  0  0  0  0
 13 17  1  0  0  0  0
 13 16  1  0  0  0  0
 18 21  1  0  0  0  0
 19 20  2  0  0  0  0
 20 22  1  0  0  0  0
 21 22  2  0  0  0  0
M  END
> <ID>
2743

> <Formula>
C17H12ClNO2S

> <FW>
329.8007

> <DSSTox_CID>
3050

> <DSSTox_RID>
76852

> <DSSTox_GSID>
23050

> <DSSTox_FileID_Sort>
1536

> <TS_ChemName>
Fentiazac

> <TS_ChemName_Synonyms>


> <TS_CASRN>
18046-21-4

> <CASRN_ChemName_Relationship>
primary

> <TS_Description>
single chemical compound

> <ChemNote>


> <STRUCTURE_Shown>
tested chemical

> <STRUCTURE_Formula>
C17H12ClNO2S

> <STRUCTURE_MW>
329.8007

> <STRUCTURE_ChemType>
defined organic

> <STRUCTURE_DefinedOrganicForm>
parent

> <STRUCTURE_IUPAC>
[4-(4-chlorophenyl)-2-phenyl-1,3-thiazol-5-yl]acetic acid

> <STRUCTURE_SMILES>
O=C(O)Cc1sc(nc1c2ccc(Cl)cc2)c3ccccc3

> <STRUCTURE_SMILES_Desalt>
O=C(O)Cc1sc(nc1c2ccc(Cl)cc2)c3ccccc3

> <Substance_modify_yyyymmdd>
20080429

$$$$
