1806-26-4
ChemmineR-0915142007XD

 15 15  0  0  0  0  0  0  0  0  1 V2000
    9.3099   -1.1575    0.0000 C   0  0  0  0  0  0  0  0  0  0  0  0
    9.9785   -2.3050    0.0000 C   0  0  0  0  0  0  0  0  0  0  0  0
    9.3099   -3.4625    0.0000 C   0  0  0  0  0  0  0  0  0  0  0  0
    7.9828   -3.4625    0.0000 C   0  0  0  0  0  0  0  0  0  0  0  0
    7.3142   -2.3050    0.0000 C   0  0  0  0  0  0  0  0  0  0  0  0
    7.9828   -1.1575    0.0000 C   0  0  0  0  0  0  0  0  0  0  0  0
    7.3142   -4.6101    0.0000 C   0  0  0  0  0  0  0  0  0  0  0  0
    5.9871   -4.6101    0.0000 C   0  0  0  0  0  0  0  0  0  0  0  0
    5.3185   -3.4625    0.0000 C   0  0  0  0  0  0  0  0  0  0  0  0
    3.9914   -3.4625    0.0000 C   0  0  0  0  0  0  0  0  0  0  0  0
    3.3228   -2.3050    0.0000 C   0  0  0  0  0  0  0  0  0  0  0  0
    1.9957   -2.3050    0.0000 C   0  0  0  0  0  0  0  0  0  0  0  0
    1.3271   -1.1575    0.0000 C   0  0  0  0  0  0  0  0  0  0  0  0
    0.0000   -1.1575    0.0000 C   0  0  0  0  0  0  0  0  0  0  0  0
    9.9785    0.0000    0.0000 O   0  0  0  0  0  0  0  0  0  0  0  0
  1  2  2  0  0  0  0
  1  6  1  0  0  0  0
  1 15  1  0  0  0  0
  2  3  1  0  0  0  0
  3  4  2  0  0  0  0
  4  5  1  0  0  0  0
  4  7  1  0  0  0  0
  5  6  2  0  0  0  0
  7  8  1  0  0  0  0
  8  9  1  0  0  0  0
  9 10  1  0  0  0  0
 10 11  1  0  0  0  0
 11 12  1  0  0  0  0
 12 13  1  0  0  0  0
 13 14  1  0  0  0  0
M  END
> <ID>
2146

> <Formula>
C14H22O

> <FW>
206.3239

> <DSSTox_CID>
2312

> <DSSTox_RID>
76545

> <DSSTox_GSID>
22312

> <DSSTox_FileID_Sort>
1229

> <TS_ChemName>
4-Octylphenol

> <TS_ChemName_Synonyms>


> <TS_CASRN>
1806-26-4

> <CASRN_ChemName_Relationship>
primary

> <TS_Description>
single chemical compound

> <ChemNote>


> <STRUCTURE_Shown>
tested chemical

> <STRUCTURE_Formula>
C14H22O

> <STRUCTURE_MW>
206.3239

> <STRUCTURE_ChemType>
defined organic

> <STRUCTURE_DefinedOrganicForm>
parent

> <STRUCTURE_IUPAC>
4-octylphenol

> <STRUCTURE_SMILES>
Oc1ccc(CCCCCCCC)cc1

> <STRUCTURE_SMILES_Desalt>
Oc1ccc(CCCCCCCC)cc1

> <Substance_modify_yyyymmdd>
20080429

$$$$
