1809-19-4
ChemmineR-0915142007XD

 12 11  0  0  0  0  0  0  0  0  1 V2000
    5.7543   -1.3258    0.0000 P   0  0  0  0  0  0  0  0  0  0  0  0
    5.7543    0.0000    0.0000 O   0  0  0  0  0  0  0  0  0  0  0  0
    4.6034   -1.9979    0.0000 O   0  0  0  0  0  0  0  0  0  0  0  0
    6.9051   -1.9979    0.0000 O   0  0  0  0  0  0  0  0  0  0  0  0
    3.4526   -1.3258    0.0000 C   0  0  0  0  0  0  0  0  0  0  0  0
    2.3017   -1.9979    0.0000 C   0  0  0  0  0  0  0  0  0  0  0  0
    1.1509   -1.3258    0.0000 C   0  0  0  0  0  0  0  0  0  0  0  0
    0.0000   -1.9979    0.0000 C   0  0  0  0  0  0  0  0  0  0  0  0
    6.9051   -3.3237    0.0000 C   0  0  0  0  0  0  0  0  0  0  0  0
    8.0560   -3.9773    0.0000 C   0  0  0  0  0  0  0  0  0  0  0  0
    8.0560   -5.3031    0.0000 C   0  0  0  0  0  0  0  0  0  0  0  0
    9.2068   -5.9752    0.0000 C   0  0  0  0  0  0  0  0  0  0  0  0
  1  2  2  0  0  0  0
  1  3  1  0  0  0  0
  1  4  1  0  0  0  0
  3  5  1  0  0  0  0
  4  9  1  0  0  0  0
  5  6  1  0  0  0  0
  6  7  1  0  0  0  0
  7  8  1  0  0  0  0
  9 10  1  0  0  0  0
 10 11  1  0  0  0  0
 11 12  1  0  0  0  0
M  END
> <ID>
5160

> <Formula>
C8H19O3P

> <FW>
194.2084

> <DSSTox_CID>
7438

> <DSSTox_RID>
78455

> <DSSTox_GSID>
27438

> <DSSTox_FileID_Sort>
3138

> <TS_ChemName>
Dibutyl phosphite

> <TS_ChemName_Synonyms>
Dibutyl phosphite (Dibutyl phosphonate)

> <TS_CASRN>
1809-19-4

> <CASRN_ChemName_Relationship>
primary

> <TS_Description>
single chemical compound

> <ChemNote>


> <STRUCTURE_Shown>
tested chemical

> <STRUCTURE_Formula>
C8H19O3P

> <STRUCTURE_MW>
194.2084

> <STRUCTURE_ChemType>
defined organic

> <STRUCTURE_DefinedOrganicForm>
parent

> <STRUCTURE_IUPAC>
dibutyl phosphonate

> <STRUCTURE_SMILES>
CCCCOP(=O)OCCCC

> <STRUCTURE_SMILES_Desalt>
CCCCOP(=O)OCCCC

> <Substance_modify_yyyymmdd>
20080429

$$$$
