18109-81-4
ChemmineR-0915142007XD

 35 34  0  0  0  0  0  0  0  0  1 V2000
   19.1609   -3.9984    0.0000 C   0  0  0  0  0  0  0  0  0  0  0  0
   20.4862   -3.9984    0.0000 C   0  0  0  0  0  0  0  0  0  0  0  0
   17.8131   -3.9984    0.0000 C   0  0  0  0  0  0  0  0  0  0  0  0
   19.1609   -5.3237    0.0000 C   0  0  0  0  0  0  0  0  0  0  0  0
   17.9928   -5.9751    0.0000 O   0  0  0  0  0  0  0  0  0  0  0  0
   17.1617   -2.8528    0.0000 C   0  0  0  0  0  0  0  0  0  0  0  0
   15.8139   -2.8528    0.0000 O   0  0  0  0  0  0  0  0  0  0  0  0
   17.8131   -1.6847    0.0000 O   0  0  0  0  0  0  0  0  0  0  0  0
   21.1376   -2.8303    0.0000 C   0  0  0  0  0  0  0  0  0  0  0  0
   20.4637   -1.6847    0.0000 O   0  0  0  0  0  0  0  0  0  0  0  0
   22.4629   -2.8303    0.0000 O   0  0  0  0  0  0  0  0  0  0  0  0
   19.1609   -2.6731    0.0000 O   0  0  0  0  0  0  0  0  0  0  0  0
   20.3065   -5.9751    0.0000 O   0  0  0  0  0  0  0  0  0  0  0  0
   13.8147   -1.9992    0.0000 C   0  0  0  0  0  0  0  0  0  0  0  0
   12.6466   -1.3253    0.0000 C   0  0  0  0  0  0  0  0  0  0  0  0
   11.5010   -1.9992    0.0000 C   0  0  0  0  0  0  0  0  0  0  0  0
   10.3554   -1.3253    0.0000 C   0  0  0  0  0  0  0  0  0  0  0  0
   10.3554    0.0000    0.0000 O   0  0  0  0  0  0  0  0  0  0  0  0
    9.2098   -1.9992    0.0000 O   0  0  0  0  0  0  0  0  0  0  0  0
    8.0417   -1.3253    0.0000 C   0  0  0  0  0  0  0  0  0  0  0  0
    6.8961   -1.9992    0.0000 C   0  0  0  0  0  0  0  0  0  0  0  0
    5.7505   -1.3253    0.0000 O   0  0  0  0  0  0  0  0  0  0  0  0
    4.6049   -1.9992    0.0000 C   0  0  0  0  0  0  0  0  0  0  0  0
    3.4593   -1.3253    0.0000 C   0  0  0  0  0  0  0  0  0  0  0  0
    2.3137   -1.9992    0.0000 N   0  0  0  0  0  0  0  0  0  0  0  0
    2.3137   -3.3245    0.0000 C   0  0  0  0  0  0  0  0  0  0  0  0
    3.4593   -3.9759    0.0000 C   0  0  0  0  0  0  0  0  0  0  0  0
    1.1456   -1.3253    0.0000 C   0  0  0  0  0  0  0  0  0  0  0  0
    0.0000   -1.9992    0.0000 C   0  0  0  0  0  0  0  0  0  0  0  0
   11.5010   -3.3245    0.0000 C   0  0  0  0  0  0  0  0  0  0  0  0
   12.6466   -3.9759    0.0000 C   0  0  0  0  0  0  0  0  0  0  0  0
   12.6466   -5.3013    0.0000 C   0  0  0  0  0  0  0  0  0  0  0  0
   11.5010   -5.9751    0.0000 C   0  0  0  0  0  0  0  0  0  0  0  0
   10.3554   -5.3013    0.0000 C   0  0  0  0  0  0  0  0  0  0  0  0
   10.3554   -3.9759    0.0000 C   0  0  0  0  0  0  0  0  0  0  0  0
  1  4  1  0  0  0  0
  1  3  1  0  0  0  0
  1 12  1  0  0  0  0
  1  2  1  0  0  0  0
  2  9  1  0  0  0  0
  3  6  1  0  0  0  0
  4  5  1  0  0  0  0
  4 13  2  0  0  0  0
  6  7  1  0  0  0  0
  6  8  2  0  0  0  0
  9 10  2  0  0  0  0
  9 11  1  0  0  0  0
 14 15  1  0  0  0  0
 15 16  1  0  0  0  0
 16 17  1  0  0  0  0
 16 30  1  0  0  0  0
 17 18  2  0  0  0  0
 17 19  1  0  0  0  0
 19 20  1  0  0  0  0
 20 21  1  0  0  0  0
 21 22  1  0  0  0  0
 22 23  1  0  0  0  0
 23 24  1  0  0  0  0
 24 25  1  0  0  0  0
 25 26  1  0  0  0  0
 25 28  1  0  0  0  0
 26 27  1  0  0  0  0
 28 29  1  0  0  0  0
 30 31  2  0  0  0  0
 30 35  1  0  0  0  0
 31 32  1  0  0  0  0
 32 33  2  0  0  0  0
 33 34  1  0  0  0  0
 34 35  2  0  0  0  0
M  END
> <ID>
11564

> <Formula>
C24H37NO10

> <FW>
499.5513 (192.1235+307.4278)

> <DSSTox_CID>
26270

> <DSSTox_RID>
81497

> <DSSTox_GSID>
46270

> <DSSTox_FileID_Sort>
6178

> <TS_ChemName>
Butamirate citrate

> <TS_ChemName_Synonyms>


> <TS_CASRN>
18109-81-4

> <CASRN_ChemName_Relationship>
primary

> <TS_Description>
single chemical compound

> <ChemNote>


> <STRUCTURE_Shown>
tested chemical

> <STRUCTURE_Formula>
C24H37NO10

> <STRUCTURE_MW>
499.5513

> <STRUCTURE_ChemType>
defined organic

> <STRUCTURE_DefinedOrganicForm>
complex

> <STRUCTURE_IUPAC>
2-[2-(diethylamino)ethoxy]ethyl 2-phenylbutanoate 2-hydroxypropane-1,2,3-tricarboxylate (1:1)

> <STRUCTURE_SMILES>
CCC(C(=O)OCCOCCN(CC)CC)c1ccccc1.O=C(O)C(O)(CC(=O)O)CC(=O)O

> <STRUCTURE_SMILES_Desalt>
CCC(C(=O)OCCOCCN(CC)CC)c1ccccc1

> <Substance_modify_yyyymmdd>
20110815

$$$$
