1811-31-0
ChemmineR-0915142007XD

 15 14  0  0  1  0  0  0  0  0  1 V2000
    5.7461   -8.0029    0.0000 O   0  0  0  0  0  0  0  0  0  0  0  0
    4.6017   -7.3226    0.0000 C   0  0  0  0  0  0  0  0  0  0  0  0
    5.7461   -5.3299    0.0000 O   0  0  0  0  0  0  0  0  0  0  0  0
    1.1444    0.0000    0.0000 O   0  0  0  0  0  0  0  0  0  0  0  0
    0.0000   -2.0007    0.0000 C   0  0  0  0  0  0  0  0  0  0  0  0
    1.1444   -1.3365    0.0000 C   0  0  0  0  0  0  0  0  0  0  0  0
    2.2968   -2.0007    0.0000 N   0  0  0  0  0  0  0  0  0  0  0  0
    4.6017   -3.3372    0.0000 O   0  0  0  0  0  0  0  0  0  0  0  0
    0.0000   -3.3292    0.0000 O   0  0  0  0  0  0  0  0  0  0  0  0
    2.2968   -5.9862    0.0000 O   0  0  0  0  0  0  0  0  0  0  0  0
    4.5856   -6.0022    0.0000 C   0  0  0  0  0  0  0  0  0  0  0  0
    1.1444   -4.0094    0.0000 C   0  0  0  0  0  0  0  0  0  0  0  0
    2.2968   -3.3372    0.0000 C   0  0  0  0  0  0  0  0  0  0  0  0
    3.4412   -5.3299    0.0000 C   0  0  0  0  0  0  0  0  0  0  0  0
    3.4412   -4.0094    0.0000 C   0  0  0  0  0  0  0  0  0  0  0  0
  1  2  1  0  0  0  0
  2 11  1  0  0  0  0
 11  3  1  1  0  0  0
  4  6  2  0  0  0  0
  5  6  1  0  0  0  0
  6  7  1  0  0  0  0
 13  7  1  6  0  0  0
 15  8  1  6  0  0  0
  9 12  2  0  0  0  0
 14 10  1  1  0  0  0
 11 14  1  0  0  0  0
 12 13  1  0  0  0  0
 13 15  1  0  0  0  0
 14 15  1  0  0  0  0
M  END
> <ID>
13703

> <Formula>
C8H15NO6

> <FW>
221.2078

> <DSSTox_CID>
28637

> <DSSTox_RID>
82907

> <DSSTox_GSID>
48711

> <DSSTox_FileID_Sort>
7584

> <TS_ChemName>
N-Acetylgalactosamine

> <TS_ChemName_Synonyms>


> <TS_CASRN>
1811-31-0

> <CASRN_ChemName_Relationship>
primary

> <TS_Description>
single chemical compound

> <ChemNote>


> <STRUCTURE_Shown>
tested chemical

> <STRUCTURE_Formula>
C8H15NO6

> <STRUCTURE_MW>
221.2078

> <STRUCTURE_ChemType>
defined organic

> <STRUCTURE_DefinedOrganicForm>
parent

> <STRUCTURE_IUPAC>
2-(acetylamino)-2-deoxy-L-talose

> <STRUCTURE_SMILES>
O[C@@H]([C@H](C=O)NC(C)=O)[C@H](O)[C@@H](O)CO

> <STRUCTURE_SMILES_Desalt>
O[C@@H]([C@H](C=O)NC(C)=O)[C@H](O)[C@@H](O)CO

> <Substance_modify_yyyymmdd>
20111204

$$$$
