1811-28-5
ChemmineR-0915142007XD

 37 40  0  0  0  0  0  0  0  0  1 V2000
    0.0000   -2.6608    0.0000 N   0  0  0  0  0  0  0  0  0  0  0  0
    1.1524   -2.0050    0.0000 C   0  0  0  0  0  0  0  0  0  0  0  0
    1.1524   -0.6558    0.0000 C   0  0  0  0  0  0  0  0  0  0  0  0
    2.3048    0.0000    0.0000 C   0  0  0  0  0  0  0  0  0  0  0  0
    3.4572   -0.6558    0.0000 C   0  0  0  0  0  0  0  0  0  0  0  0
    4.6096    0.0000    0.0000 C   0  0  0  0  0  0  0  0  0  0  0  0
    5.7620   -0.6558    0.0000 C   0  0  0  0  0  0  0  0  0  0  0  0
    6.9144    0.0000    0.0000 C   0  0  0  0  0  0  0  0  0  0  0  0
    8.0575   -0.6558    0.0000 C   0  0  0  0  0  0  0  0  0  0  0  0
    8.0575   -2.0050    0.0000 C   0  0  0  0  0  0  0  0  0  0  0  0
    6.9144   -2.6608    0.0000 C   0  0  0  0  0  0  0  0  0  0  0  0
    5.7620   -2.0050    0.0000 C   0  0  0  0  0  0  0  0  0  0  0  0
    4.6096   -2.6608    0.0000 N   0  0  0  0  0  0  0  0  0  0  0  0
    3.4572   -2.0050    0.0000 C   0  0  0  0  0  0  0  0  0  0  0  0
    2.3048   -2.6608    0.0000 C   0  0  0  0  0  0  0  0  0  0  0  0
    9.2099   -2.6608    0.0000 N   0  0  0  0  0  0  0  0  0  0  0  0
    0.0000   -9.3692    0.0000 N   0  0  0  0  0  0  0  0  0  0  0  0
    1.1524   -8.7133    0.0000 C   0  0  0  0  0  0  0  0  0  0  0  0
    1.1524   -7.3642    0.0000 C   0  0  0  0  0  0  0  0  0  0  0  0
    2.3048   -6.7083    0.0000 C   0  0  0  0  0  0  0  0  0  0  0  0
    3.4572   -7.3642    0.0000 C   0  0  0  0  0  0  0  0  0  0  0  0
    4.6096   -6.7083    0.0000 C   0  0  0  0  0  0  0  0  0  0  0  0
    5.7620   -7.3642    0.0000 C   0  0  0  0  0  0  0  0  0  0  0  0
    6.9144   -6.7083    0.0000 C   0  0  0  0  0  0  0  0  0  0  0  0
    8.0575   -7.3642    0.0000 C   0  0  0  0  0  0  0  0  0  0  0  0
    8.0575   -8.7133    0.0000 C   0  0  0  0  0  0  0  0  0  0  0  0
    6.9144   -9.3692    0.0000 C   0  0  0  0  0  0  0  0  0  0  0  0
    5.7620   -8.7133    0.0000 C   0  0  0  0  0  0  0  0  0  0  0  0
    4.6096   -9.3692    0.0000 N   0  0  0  0  0  0  0  0  0  0  0  0
    3.4572   -8.7133    0.0000 C   0  0  0  0  0  0  0  0  0  0  0  0
    2.3048   -9.3692    0.0000 C   0  0  0  0  0  0  0  0  0  0  0  0
    9.2099   -9.3692    0.0000 N   0  0  0  0  0  0  0  0  0  0  0  0
    5.8183   -4.4691    0.0000 S   0  0  0  0  0  0  0  0  0  0  0  0
    7.1393   -4.4691    0.0000 O   0  0  0  0  0  0  0  0  0  0  0  0
    4.4878   -4.4691    0.0000 O   0  0  0  0  0  0  0  0  0  0  0  0
    5.8183   -5.7995    0.0000 O   0  0  0  0  0  0  0  0  0  0  0  0
    5.8183   -3.1387    0.0000 O   0  0  0  0  0  0  0  0  0  0  0  0
  1  2  1  0  0  0  0
  2  3  2  0  0  0  0
  2 15  1  0  0  0  0
  3  4  1  0  0  0  0
  4  5  2  0  0  0  0
  5  6  1  0  0  0  0
  5 14  1  0  0  0  0
  6  7  2  0  0  0  0
  7  8  1  0  0  0  0
  7 12  1  0  0  0  0
  8  9  2  0  0  0  0
  9 10  1  0  0  0  0
 10 11  2  0  0  0  0
 10 16  1  0  0  0  0
 11 12  1  0  0  0  0
 12 13  2  0  0  0  0
 13 14  1  0  0  0  0
 14 15  2  0  0  0  0
 17 18  1  0  0  0  0
 18 19  2  0  0  0  0
 18 31  1  0  0  0  0
 19 20  1  0  0  0  0
 20 21  2  0  0  0  0
 21 22  1  0  0  0  0
 21 30  1  0  0  0  0
 22 23  2  0  0  0  0
 23 24  1  0  0  0  0
 23 28  1  0  0  0  0
 24 25  2  0  0  0  0
 25 26  1  0  0  0  0
 26 27  2  0  0  0  0
 26 32  1  0  0  0  0
 27 28  1  0  0  0  0
 28 29  2  0  0  0  0
 29 30  1  0  0  0  0
 30 31  2  0  0  0  0
 33 34  2  0  0  0  0
 33 35  2  0  0  0  0
 33 36  1  0  0  0  0
 33 37  1  0  0  0  0
M  END
> <ID>
9613

> <Formula>
C26H24N6O4S

> <FW>
516.5716 (209.2465+209.2465+98.0785)

> <DSSTox_CID>
23777

> <DSSTox_RID>
80073

> <DSSTox_GSID>
43777

> <DSSTox_FileID_Sort>
4755

> <TS_ChemName>
Proflavin hemisulfate

> <TS_ChemName_Synonyms>


> <TS_CASRN>
1811-28-5

> <CASRN_ChemName_Relationship>
primary

> <TS_Description>
single chemical compound

> <ChemNote>
parent [92-62-6]

> <STRUCTURE_Shown>
tested chemical

> <STRUCTURE_Formula>
C26H24N6O4S

> <STRUCTURE_MW>
516.5716

> <STRUCTURE_ChemType>
defined organic

> <STRUCTURE_DefinedOrganicForm>
complex

> <STRUCTURE_IUPAC>
acridine-3,6-diamine sulfate (2:1)

> <STRUCTURE_SMILES>
O=S(=O)(O)O.Nc1cc2nc3cc(N)ccc3cc2cc1.Nc1cc2nc3cc(N)ccc3cc2cc1

> <STRUCTURE_SMILES_Desalt>
Nc1cc2nc3cc(N)ccc3cc2cc1

> <Substance_modify_yyyymmdd>
20110601

$$$$
