181274-15-7
ChemmineR-0915142007XD

 28 28  0  0  0  0  0  0  0  0  2 V2000
    6.9020   -6.1888    0.0000 N    0  0  0  0  0  0  0  0  0  0  0  0
    7.0516   -4.8659    0.0000 N    0  0  0  0  0  0  0  0  0  0  0  0
    8.3514   -4.5783    0.0000 C    0  0  0  0  0  0  0  0  0  0  0  0
    9.0186   -5.7402    0.0000 N    0  0  0  0  0  0  0  0  0  0  0  0
    8.1214   -6.7295    0.0000 C    0  0  0  0  0  0  0  0  0  0  0  0
    5.7517   -6.8560    0.0000 C    0  0  0  0  0  0  0  0  0  0  0  0
    5.7517   -8.1904    0.0000 O    0  0  0  0  0  0  0  0  0  0  0  0
    4.6128   -6.1888    0.0000 N    0  5  0  0  0  0  0  0  0  0  0  0
    8.8921   -3.3590    0.0000 O    0  0  0  0  0  0  0  0  0  0  0  0
    8.1099   -2.2892    0.0000 C    0  0  0  0  0  0  0  0  0  0  0  0
   10.3300   -5.8782    0.0000 C    0  0  0  0  0  0  0  0  0  0  0  0
    8.3975   -8.0293    0.0000 O    0  0  0  0  0  0  0  0  0  0  0  0
    3.4625   -6.8560    0.0000 S    0  0  0  0  0  0  0  0  0  0  0  0
    4.1182   -7.9948    0.0000 O    0  0  0  0  0  0  0  0  0  0  0  0
    2.7838   -5.7057    0.0000 O    0  0  0  0  0  0  0  0  0  0  0  0
    2.3122   -7.5117    0.0000 C    0  0  0  0  0  0  0  0  0  0  0  0
    2.3122   -8.8461    0.0000 C    0  0  0  0  0  0  0  0  0  0  0  0
    1.1503   -6.8560    0.0000 C    0  0  0  0  0  0  0  0  0  0  0  0
    1.1503   -9.5133    0.0000 C    0  0  0  0  0  0  0  0  0  0  0  0
    0.0000   -7.5117    0.0000 C    0  0  0  0  0  0  0  0  0  0  0  0
    0.0000   -8.8461    0.0000 C    0  0  0  0  0  0  0  0  0  0  0  0
    3.4625   -9.5133    0.0000 C    0  0  0  0  0  0  0  0  0  0  0  0
    4.6128   -8.8461    0.0000 O    0  0  0  0  0  0  0  0  0  0  0  0
    3.4625  -10.8477    0.0000 O    0  0  0  0  0  0  0  0  0  0  0  0
    4.6128  -11.5034    0.0000 C    0  0  0  0  0  0  0  0  0  0  0  0
    8.6505   -1.0698    0.0000 C    0  0  0  0  0  0  0  0  0  0  0  0
    7.8683    0.0000    0.0000 C    0  0  0  0  0  0  0  0  0  0  0  0
    3.9111   -2.9794    0.0000 Na   0  3  0  0  0  0  0  0  0  0  0  0
  1  2  1  0  0  0  0
  1  5  1  0  0  0  0
  1  6  1  0  0  0  0
  2  3  2  0  0  0  0
  3  4  1  0  0  0  0
  3  9  1  0  0  0  0
  4  5  1  0  0  0  0
  4 11  1  0  0  0  0
  5 12  2  0  0  0  0
  6  7  2  0  0  0  0
  6  8  1  0  0  0  0
  8 13  1  0  0  0  0
  9 10  1  0  0  0  0
 10 26  1  0  0  0  0
 13 14  2  0  0  0  0
 13 15  2  0  0  0  0
 13 16  1  0  0  0  0
 16 17  2  0  0  0  0
 16 18  1  0  0  0  0
 17 19  1  0  0  0  0
 17 22  1  0  0  0  0
 18 20  2  0  0  0  0
 19 21  2  0  0  0  0
 20 21  1  0  0  0  0
 22 23  2  0  0  0  0
 22 24  1  0  0  0  0
 24 25  1  0  0  0  0
 26 27  1  0  0  0  0
M  END
> <ID>
6933

> <Formula>
C15H17N4NaO7S

> <FW>
420.3728 (397.3836+22.9892)

> <DSSTox_CID>
14864

> <DSSTox_RID>
79212

> <DSSTox_GSID>
34864

> <DSSTox_FileID_Sort>
3894

> <TS_ChemName>
Propoxycarbazone-sodium

> <TS_ChemName_Synonyms>


> <TS_CASRN>
181274-15-7

> <CASRN_ChemName_Relationship>
primary

> <TS_Description>
single chemical compound

> <ChemNote>
parent [145026-81-9]

> <STRUCTURE_Shown>
tested chemical

> <STRUCTURE_Formula>
C15H17N4NaO7S

> <STRUCTURE_MW>
420.3728

> <STRUCTURE_ChemType>
defined organic

> <STRUCTURE_DefinedOrganicForm>
salt

> <STRUCTURE_IUPAC>
sodium {[2-(methoxycarbonyl)phenyl]sulfonyl}[(4-methyl-5-oxo-3-propoxy-4,5-dihydro-1H-1,2,4-triazol-1-yl)carbonyl]azanide

> <STRUCTURE_SMILES>
[Na+].O=C([N-]S(=O)(=O)c1ccccc1C(=O)OC)N2N=C(OCCC)N(C)C2=O

> <STRUCTURE_SMILES_Desalt>
O=C(NS(=O)(=O)c1ccccc1C(=O)OC)N2N=C(OCCC)N(C)C2=O

> <Substance_modify_yyyymmdd>
20080429

$$$$
