18127-01-0
ChemmineR-0915142007XD

 15 15  0  0  0  0  0  0  0  0  1 V2000
    2.2996   -1.9961    0.0000 C   0  0  0  0  0  0  0  0  0  0  0  0
    2.2996   -3.3207    0.0000 C   0  0  0  0  0  0  0  0  0  0  0  0
    3.4311   -3.9922    0.0000 C   0  0  0  0  0  0  0  0  0  0  0  0
    4.5993   -3.3207    0.0000 C   0  0  0  0  0  0  0  0  0  0  0  0
    4.5993   -1.9961    0.0000 C   0  0  0  0  0  0  0  0  0  0  0  0
    3.4311   -1.3246    0.0000 C   0  0  0  0  0  0  0  0  0  0  0  0
    1.1314   -3.9922    0.0000 C   0  0  0  0  0  0  0  0  0  0  0  0
    1.8029   -5.1420    0.0000 C   0  0  0  0  0  0  0  0  0  0  0  0
    0.4783   -2.8240    0.0000 C   0  0  0  0  0  0  0  0  0  0  0  0
    0.0000   -4.6453    0.0000 C   0  0  0  0  0  0  0  0  0  0  0  0
    5.7307   -1.3246    0.0000 C   0  0  0  0  0  0  0  0  0  0  0  0
    6.8989   -1.9961    0.0000 C   0  0  0  0  0  0  0  0  0  0  0  0
    8.0487   -1.3246    0.0000 C   0  0  0  0  0  0  0  0  0  0  0  0
    9.1985   -1.9961    0.0000 H   0  0  0  0  0  0  0  0  0  0  0  0
    8.0487    0.0000    0.0000 O   0  0  0  0  0  0  0  0  0  0  0  0
  1  6  1  0  0  0  0
  1  2  2  0  0  0  0
  2  3  1  0  0  0  0
  2  7  1  0  0  0  0
  3  4  2  0  0  0  0
  4  5  1  0  0  0  0
  5 11  1  0  0  0  0
  5  6  2  0  0  0  0
  7  8  1  0  0  0  0
  7  9  1  0  0  0  0
  7 10  1  0  0  0  0
 11 12  1  0  0  0  0
 12 13  1  0  0  0  0
 13 14  1  0  0  0  0
 13 15  2  0  0  0  0
M  END
> <ID>
10457

> <Formula>
C13H18O

> <FW>
190.2814

> <DSSTox_CID>
24808

> <DSSTox_RID>
80491

> <DSSTox_GSID>
44808

> <DSSTox_FileID_Sort>
5173

> <TS_ChemName>
3-(4-tert-Butylphenyl)propanal

> <TS_ChemName_Synonyms>
3-(4-tert-Butylphenyl)propanal (Benzenepropanal, 4-(1,1-dimethylethyl)-) (Bourgeonal)

> <TS_CASRN>
18127-01-0

> <CASRN_ChemName_Relationship>
primary

> <TS_Description>
single chemical compound

> <ChemNote>


> <STRUCTURE_Shown>
tested chemical

> <STRUCTURE_Formula>
C13H18O

> <STRUCTURE_MW>
190.2814

> <STRUCTURE_ChemType>
defined organic

> <STRUCTURE_DefinedOrganicForm>
parent

> <STRUCTURE_IUPAC>
3-(4-tert-butylphenyl)propanal

> <STRUCTURE_SMILES>
CC(C)(C)c1ccc(CCC=O)cc1

> <STRUCTURE_SMILES_Desalt>
CC(C)(C)c1ccc(CCC=O)cc1

> <Substance_modify_yyyymmdd>
20091116

$$$$
