181274-17-9
ChemmineR-0915142007XD

 27 27  0  0  0  0  0  0  0  0  2 V2000
    3.0801   -2.3621    0.0000 N    0  0  0  0  0  0  0  0  0  0  0  0
    2.3309   -3.4339    0.0000 N    0  0  0  0  0  0  0  0  0  0  0  0
    1.0822   -3.0177    0.0000 C    0  0  0  0  0  0  0  0  0  0  0  0
    1.0822   -1.7066    0.0000 N    0  0  0  0  0  0  0  0  0  0  0  0
    2.3309   -1.2591    0.0000 C    0  0  0  0  0  0  0  0  0  0  0  0
    4.4329   -2.3621    0.0000 C    0  0  0  0  0  0  0  0  0  0  0  0
    5.0885   -1.1759    0.0000 O    0  0  0  0  0  0  0  0  0  0  0  0
    5.0885   -3.4964    0.0000 N    0  5  0  0  0  0  0  0  0  0  0  0
    0.0520   -3.7773    0.0000 O    0  0  0  0  0  0  0  0  0  0  0  0
    0.0520   -5.1405    0.0000 C    0  0  0  0  0  0  0  0  0  0  0  0
    0.0000   -0.9053    0.0000 C    0  0  0  0  0  0  0  0  0  0  0  0
    2.7472    0.0000    0.0000 O    0  0  0  0  0  0  0  0  0  0  0  0
    6.4517   -3.4964    0.0000 S    0  0  0  0  0  0  0  0  0  0  0  0
    6.4517   -2.1644    0.0000 O    0  0  0  0  0  0  0  0  0  0  0  0
    6.4517   -4.8492    0.0000 O    0  0  0  0  0  0  0  0  0  0  0  0
    7.7524   -3.4964    0.0000 C    0  0  0  0  0  0  0  0  0  0  0  0
    8.3976   -4.6723    0.0000 C    0  0  0  0  0  0  0  0  0  0  0  0
    8.3976   -2.3621    0.0000 C    0  0  0  0  0  0  0  0  0  0  0  0
    9.7503   -4.6723    0.0000 C    0  0  0  0  0  0  0  0  0  0  0  0
    9.7191   -2.3621    0.0000 C    0  0  0  0  0  0  0  0  0  0  0  0
   10.4059   -3.4964    0.0000 C    0  0  0  0  0  0  0  0  0  0  0  0
    7.7524   -5.8065    0.0000 O    0  0  0  0  0  0  0  0  0  0  0  0
    8.4288   -6.9407    0.0000 C    0  0  0  0  0  0  0  0  0  0  0  0
    7.2633   -7.6275    0.0000 F    0  0  0  0  0  0  0  0  0  0  0  0
    9.0948   -8.1062    0.0000 F    0  0  0  0  0  0  0  0  0  0  0  0
    9.5734   -6.2852    0.0000 F    0  0  0  0  0  0  0  0  0  0  0  0
    3.8502   -5.2342    0.0000 Na   0  3  0  0  0  0  0  0  0  0  0  0
  1  2  1  0  0  0  0
  1  5  1  0  0  0  0
  1  6  1  0  0  0  0
  2  3  2  0  0  0  0
  3  4  1  0  0  0  0
  3  9  1  0  0  0  0
  4  5  1  0  0  0  0
  4 11  1  0  0  0  0
  5 12  2  0  0  0  0
  6  7  2  0  0  0  0
  6  8  1  0  0  0  0
  8 13  1  0  0  0  0
  9 10  1  0  0  0  0
 13 14  2  0  0  0  0
 13 15  2  0  0  0  0
 13 16  1  0  0  0  0
 16 17  2  0  0  0  0
 16 18  1  0  0  0  0
 17 19  1  0  0  0  0
 17 22  1  0  0  0  0
 18 20  2  0  0  0  0
 19 21  2  0  0  0  0
 20 21  1  0  0  0  0
 22 23  1  0  0  0  0
 23 24  1  0  0  0  0
 23 25  1  0  0  0  0
 23 26  1  0  0  0  0
M  END
> <ID>
6848

> <Formula>
C12H10F3N4NaO6S

> <FW>
418.2810 (395.2918+22.9892)

> <DSSTox_CID>
14614

> <DSSTox_RID>
79178

> <DSSTox_GSID>
34614

> <DSSTox_FileID_Sort>
3860

> <TS_ChemName>
Flucarbazone-sodium

> <TS_ChemName_Synonyms>
Flucarbazone-sodium (1H-1,2,4-Triazole-1-carboxamide,4,5-dihydro-3-meth oxy-4-methyl-5-oxo-N-[[2-(trifluoromethoxy)phenyl] sulfonyl]-,sodium salt)

> <TS_CASRN>
181274-17-9

> <CASRN_ChemName_Relationship>
primary

> <TS_Description>
single chemical compound

> <ChemNote>
parent [145026-88-6]

> <STRUCTURE_Shown>
tested chemical

> <STRUCTURE_Formula>
C12H10F3N4NaO6S

> <STRUCTURE_MW>
418.281

> <STRUCTURE_ChemType>
defined organic

> <STRUCTURE_DefinedOrganicForm>
salt

> <STRUCTURE_IUPAC>
sodium [(3-methoxy-4-methyl-5-oxo-4,5-dihydro-1H-1,2,4-triazol-1-yl)carbonyl]{[2-(trifluoromethoxy)phenyl]sulfonyl}azanide

> <STRUCTURE_SMILES>
[Na+].COC2=NN(C(=O)[N-]S(=O)(=O)c1ccccc1OC(F)(F)F)C(=O)N2C

> <STRUCTURE_SMILES_Desalt>
COC2=NN(C(=O)NS(=O)(=O)c1ccccc1OC(F)(F)F)C(=O)N2C

> <Substance_modify_yyyymmdd>
20080429

$$$$
