181640-09-5
ChemmineR-0915142007XD

 43 46  0  0  1  0  0  0  0  0  1 V2000
    5.7523   -5.8013    0.0000 C    0  0  0  0  0  0  0  0  0  0  0  0
    4.6083   -5.1476    0.0000 N    0  0  0  0  0  0  0  0  0  0  0  0
    6.9125   -5.1476    0.0000 C    0  0  0  0  0  0  0  0  0  0  0  0
    4.6083   -3.8076    0.0000 C    0  0  0  0  0  0  0  0  0  0  0  0
    6.9125   -3.8076    0.0000 O    0  0  0  0  0  0  0  0  0  0  0  0
    5.7523   -3.1376    0.0000 C    0  0  0  0  0  0  0  0  0  0  0  0
    3.4644   -5.8013    0.0000 C    0  0  0  0  0  0  0  0  0  0  0  0
    3.4644   -7.1250    0.0000 O    0  0  0  0  0  0  0  0  0  0  0  0
    2.3042   -5.1476    0.0000 C    0  0  0  0  0  0  0  0  0  0  0  0
    1.1603   -5.8013    0.0000 C    0  0  0  0  0  0  0  0  0  0  0  0
    2.3042   -3.8076    0.0000 C    0  0  0  0  0  0  0  0  0  0  0  0
    0.0000   -5.1476    0.0000 C    0  0  0  0  0  0  0  0  0  0  0  0
    1.1603   -3.1376    0.0000 C    0  0  0  0  0  0  0  0  0  0  0  0
    0.0000   -3.8076    0.0000 C    0  0  0  0  0  0  0  0  0  0  0  0
    7.5825   -6.2915    0.0000 C    0  0  0  0  0  0  0  0  0  0  0  0
    8.9062   -6.2915    0.0000 C    0  0  0  0  0  0  0  0  0  0  0  0
    6.9125   -7.4518    0.0000 C    0  0  0  0  0  0  0  0  0  0  0  0
    9.5599   -7.4518    0.0000 C    0  0  0  0  0  0  0  0  0  0  0  0
    7.5825   -8.5957    0.0000 C    0  0  0  0  0  0  0  0  0  0  0  0
    8.9062   -8.5957    0.0000 C    0  0  0  0  0  0  0  0  0  0  0  0
    8.2362   -5.1476    0.0000 C    0  0  0  0  0  0  0  0  0  0  0  0
    8.9062   -3.9874    0.0000 C    0  0  0  0  0  0  0  0  0  0  0  0
   10.2299   -3.9874    0.0000 N    0  0  0  0  0  0  0  0  0  0  0  0
   10.8999   -2.8271    0.0000 C    0  0  0  0  0  0  0  0  0  0  0  0
   10.8999   -5.1476    0.0000 C    0  0  0  0  0  0  0  0  0  0  0  0
   12.2236   -2.8271    0.0000 C    0  0  0  0  0  0  0  0  0  0  0  0
   12.2236   -5.1476    0.0000 C    0  0  0  0  0  0  0  0  0  0  0  0
   12.8936   -3.9874    0.0000 C    0  0  0  0  0  0  0  0  0  0  0  0
   14.0538   -3.3337    0.0000 N    0  0  0  0  0  0  0  0  0  0  0  0
   14.0538   -4.6574    0.0000 C    0  0  0  0  0  0  0  0  0  0  0  0
   15.1977   -3.9874    0.0000 C    0  0  0  0  0  0  0  0  0  0  0  0
   14.0538   -5.9974    0.0000 C    0  0  0  0  0  0  0  0  0  0  0  0
   16.3417   -4.6574    0.0000 C    0  0  0  0  0  0  0  0  0  0  0  0
   15.1977   -6.6511    0.0000 C    0  0  0  0  0  0  0  0  0  0  0  0
   16.3417   -5.9974    0.0000 C    0  0  0  0  0  0  0  0  0  0  0  0
   14.0538   -1.9937    0.0000 C    0  0  0  0  0  0  0  0  0  0  0  0
   15.1977   -1.3237    0.0000 N    0  0  0  0  0  0  0  0  0  0  0  0
   12.8936   -1.3237    0.0000 O    0  0  0  0  0  0  0  0  0  0  0  0
    9.5599   -9.7396    0.0000 F    0  0  0  0  0  0  0  0  0  0  0  0
    6.9125   -9.7396    0.0000 F    0  0  0  0  0  0  0  0  0  0  0  0
   15.1977    0.0000    0.0000 C    0  0  0  0  0  0  0  0  0  0  0  0
   16.3417   -1.9937    0.0000 C    0  0  0  0  0  0  0  0  0  0  0  0
   11.4392   -6.2262    0.0000 Cl   0  0  0  0  0  0  0  0  0  0  0  0
  1  2  1  0  0  0  0
  1  3  1  0  0  0  0
  2  4  1  0  0  0  0
  2  7  1  0  0  0  0
  3  5  1  0  0  0  0
  3 15  1  6  0  0  0
  3 21  1  1  0  0  0
  4  6  1  0  0  0  0
  5  6  1  0  0  0  0
  7  8  2  0  0  0  0
  7  9  1  0  0  0  0
  9 10  1  0  0  0  0
  9 11  2  0  0  0  0
 10 12  2  0  0  0  0
 11 13  1  0  0  0  0
 12 14  1  0  0  0  0
 13 14  2  0  0  0  0
 15 16  1  0  0  0  0
 15 17  2  0  0  0  0
 16 18  2  0  0  0  0
 17 19  1  0  0  0  0
 18 20  1  0  0  0  0
 19 20  2  0  0  0  0
 19 40  1  0  0  0  0
 20 39  1  0  0  0  0
 21 22  1  0  0  0  0
 22 23  1  0  0  0  0
 23 24  1  0  0  0  0
 23 25  1  0  0  0  0
 24 26  1  0  0  0  0
 25 27  1  0  0  0  0
 26 28  1  0  0  0  0
 27 28  1  0  0  0  0
 28 29  1  0  0  0  0
 28 30  1  0  0  0  0
 29 36  1  0  0  0  0
 30 31  1  0  0  0  0
 30 32  2  0  0  0  0
 31 33  2  0  0  0  0
 32 34  1  0  0  0  0
 33 35  1  0  0  0  0
 34 35  2  0  0  0  0
 36 37  1  0  0  0  0
 36 38  2  0  0  0  0
 37 41  1  0  0  0  0
 37 42  1  0  0  0  0
M  END
> <ID>
12481

> <Formula>
C33H39ClF2N4O3

> <FW>
613.1376 (576.6766+36.4609)

> <DSSTox_CID>
27339

> <DSSTox_RID>
82281

> <DSSTox_GSID>
47339

> <DSSTox_FileID_Sort>
6962

> <TS_ChemName>
SR144190A

> <TS_ChemName_Synonyms>


> <TS_CASRN>
181640-09-5

> <CASRN_ChemName_Relationship>
primary

> <TS_Description>
single chemical compound

> <ChemNote>
stereochem

> <STRUCTURE_Shown>
tested chemical

> <STRUCTURE_Formula>
C33H39ClF2N4O3

> <STRUCTURE_MW>
613.1376

> <STRUCTURE_ChemType>
defined organic

> <STRUCTURE_DefinedOrganicForm>
complex

> <STRUCTURE_IUPAC>
3-(1-{2-[(2R)-4-benzoyl-2-(3,4-difluorophenyl)morpholin-2-yl]ethyl}-4-phenylpiperidin-4-yl)-1,1-dimethylurea hydrochloride (1:1)

> <STRUCTURE_SMILES>
Cl.O=C(N3C[C@](CCN1CCC(NC(=O)N(C)C)(CC1)c2ccccc2)(OCC3)c4ccc(F)c(F)c4)c5ccccc5

> <STRUCTURE_SMILES_Desalt>
O=C(N3C[C@](CCN1CCC(NC(=O)N(C)C)(CC1)c2ccccc2)(OCC3)c4ccc(F)c(F)c4)c5ccccc5

> <Substance_modify_yyyymmdd>
20130910

$$$$
