181695-72-7
ChemmineR-0915142007XD

 22 24  0  0  0  0  0  0  0  0  1 V2000
    0.0000   -5.5356    0.0000 O   0  0  0  0  0  0  0  0  0  0  0  0
    0.0000   -4.2126    0.0000 N   0  0  0  0  0  0  0  0  0  0  0  0
    1.2707   -3.7948    0.0000 C   0  0  0  0  0  0  0  0  0  0  0  0
    2.0454   -4.8741    0.0000 C   0  0  0  0  0  0  0  0  0  0  0  0
    1.2707   -5.9534    0.0000 C   0  0  0  0  0  0  0  0  0  0  0  0
    4.0385   -6.0317    0.0000 C   0  0  0  0  0  0  0  0  0  0  0  0
    3.3770   -4.8741    0.0000 C   0  0  0  0  0  0  0  0  0  0  0  0
    4.0385   -3.7339    0.0000 C   0  0  0  0  0  0  0  0  0  0  0  0
    5.3702   -3.7339    0.0000 C   0  0  0  0  0  0  0  0  0  0  0  0
    6.0317   -4.8741    0.0000 C   0  0  0  0  0  0  0  0  0  0  0  0
    5.3702   -6.0317    0.0000 C   0  0  0  0  0  0  0  0  0  0  0  0
    7.3721   -4.8741    0.0000 S   0  0  0  0  0  0  0  0  0  0  0  0
    8.7037   -4.8741    0.0000 N   0  0  0  0  0  0  0  0  0  0  0  0
    7.3721   -3.5424    0.0000 O   0  0  0  0  0  0  0  0  0  0  0  0
    7.3721   -6.2145    0.0000 O   0  0  0  0  0  0  0  0  0  0  0  0
    1.6711   -2.5415    0.0000 C   0  0  0  0  0  0  0  0  0  0  0  0
    1.6711   -7.2241    0.0000 C   0  0  0  0  0  0  0  0  0  0  0  0
    0.7920   -1.5406    0.0000 C   0  0  0  0  0  0  0  0  0  0  0  0
    1.2098   -0.2872    0.0000 C   0  0  0  0  0  0  0  0  0  0  0  0
    2.4980    0.0000    0.0000 C   0  0  0  0  0  0  0  0  0  0  0  0
    3.3945   -1.0009    0.0000 C   0  0  0  0  0  0  0  0  0  0  0  0
    2.9767   -2.2543    0.0000 C   0  0  0  0  0  0  0  0  0  0  0  0
  1  2  1  0  0  0  0
  1  5  1  0  0  0  0
  2  3  2  0  0  0  0
  3 16  1  0  0  0  0
  3  4  1  0  0  0  0
  4  7  1  0  0  0  0
  4  5  2  0  0  0  0
  5 17  1  0  0  0  0
  6 11  1  0  0  0  0
  6  7  2  0  0  0  0
  7  8  1  0  0  0  0
  8  9  2  0  0  0  0
  9 10  1  0  0  0  0
 10 12  1  0  0  0  0
 10 11  2  0  0  0  0
 12 13  1  0  0  0  0
 12 14  2  0  0  0  0
 12 15  2  0  0  0  0
 16 18  2  0  0  0  0
 16 22  1  0  0  0  0
 18 19  1  0  0  0  0
 19 20  2  0  0  0  0
 20 21  1  0  0  0  0
 21 22  2  0  0  0  0
M  END
> <ID>
9919

> <Formula>
C16H14N2O3S

> <FW>
314.359

> <DSSTox_CID>
24226

> <DSSTox_RID>
80128

> <DSSTox_GSID>
44226

> <DSSTox_FileID_Sort>
4810

> <TS_ChemName>
Valdecoxib

> <TS_ChemName_Synonyms>


> <TS_CASRN>
181695-72-7

> <CASRN_ChemName_Relationship>
primary

> <TS_Description>
single chemical compound

> <ChemNote>


> <STRUCTURE_Shown>
tested chemical

> <STRUCTURE_Formula>
C16H14N2O3S

> <STRUCTURE_MW>
314.359

> <STRUCTURE_ChemType>
defined organic

> <STRUCTURE_DefinedOrganicForm>
parent

> <STRUCTURE_IUPAC>
4-(5-methyl-3-phenyl-1,2-oxazol-4-yl)benzenesulfonamide

> <STRUCTURE_SMILES>
NS(=O)(=O)c1ccc(cc1)c3c(C)onc3c2ccccc2

> <STRUCTURE_SMILES_Desalt>
NS(=O)(=O)c1ccc(cc1)c3c(C)onc3c2ccccc2

> <Substance_modify_yyyymmdd>
20090302

$$$$
