18174-58-8
ChemmineR-0915142007XD

 27 29  0  0  0  0  0  0  0  0  1 V2000
    3.9413   -4.3343    0.0000 C    0  0  0  0  0  0  0  0  0  0  0  0
    3.2207   -3.2971    0.0000 C    0  0  0  0  0  0  0  0  0  0  0  0
    5.2077   -3.9304    0.0000 O    0  0  0  0  0  0  0  0  0  0  0  0
    3.9740   -2.2272    0.0000 O    0  0  0  0  0  0  0  0  0  0  0  0
    5.2186   -2.6530    0.0000 C    0  0  0  0  0  0  0  0  0  0  0  0
    8.6468   -2.0525    0.0000 N    0  0  0  0  0  0  0  0  0  0  0  0
    6.3541   -1.9870    0.0000 C    0  0  0  0  0  0  0  0  0  0  0  0
    3.5046   -5.5680    0.0000 O    0  0  0  0  0  0  0  0  0  0  0  0
    2.2709   -1.9761    0.0000 C    0  0  0  0  0  0  0  0  0  0  0  0
    2.2927   -4.6837    0.0000 C    0  0  0  0  0  0  0  0  0  0  0  0
    7.4677   -2.6967    0.0000 C    0  0  0  0  0  0  0  0  0  0  0  0
    8.6468   -0.7533    0.0000 C    0  0  0  0  0  0  0  0  0  0  0  0
    9.7822   -2.7294    0.0000 C    0  0  0  0  0  0  0  0  0  0  0  0
    2.2927   -5.9829    0.0000 C    0  0  0  0  0  0  0  0  0  0  0  0
    2.2709   -0.6660    0.0000 C    0  0  0  0  0  0  0  0  0  0  0  0
    1.1464   -4.0286    0.0000 C    0  0  0  0  0  0  0  0  0  0  0  0
    1.1354   -2.5984    0.0000 C    0  0  0  0  0  0  0  0  0  0  0  0
    9.7822   -0.1310    0.0000 C    0  0  0  0  0  0  0  0  0  0  0  0
   10.9177   -2.0634    0.0000 C    0  0  0  0  0  0  0  0  0  0  0  0
    0.0000   -1.9761    0.0000 C    0  0  0  0  0  0  0  0  0  0  0  0
    0.0328   -4.6837    0.0000 C    0  0  0  0  0  0  0  0  0  0  0  0
    1.1464   -6.6270    0.0000 C    0  0  0  0  0  0  0  0  0  0  0  0
    1.1354    0.0000    0.0000 C    0  0  0  0  0  0  0  0  0  0  0  0
    0.0328   -5.9829    0.0000 C    0  0  0  0  0  0  0  0  0  0  0  0
   10.9177   -0.7533    0.0000 C    0  0  0  0  0  0  0  0  0  0  0  0
    0.0000   -0.6660    0.0000 C    0  0  0  0  0  0  0  0  0  0  0  0
    8.6250   -3.9740    0.0000 Cl   0  0  0  0  0  0  0  0  0  0  0  0
  1  2  1  0  0  0  0
  1  3  1  0  0  0  0
  1  8  2  0  0  0  0
  2  4  1  0  0  0  0
  2  9  1  0  0  0  0
  2 10  1  0  0  0  0
  3  5  1  0  0  0  0
  4  5  1  0  0  0  0
  5  7  1  0  0  0  0
  6 11  1  0  0  0  0
  6 12  1  0  0  0  0
  6 13  1  0  0  0  0
  7 11  1  0  0  0  0
  9 15  2  0  0  0  0
  9 17  1  0  0  0  0
 10 14  2  0  0  0  0
 10 16  1  0  0  0  0
 12 18  1  0  0  0  0
 13 19  1  0  0  0  0
 14 22  1  0  0  0  0
 15 23  1  0  0  0  0
 16 21  2  0  0  0  0
 17 20  2  0  0  0  0
 18 25  1  0  0  0  0
 19 25  1  0  0  0  0
 20 26  1  0  0  0  0
 21 24  1  0  0  0  0
 22 24  2  0  0  0  0
 23 26  2  0  0  0  0
M  END
> <ID>
16259

> <Formula>
C22H26ClNO3

> <FW>
387.8997 (351.4388+36.4609)

> <DSSTox_CID>
31461

> <DSSTox_RID>
97347

> <DSSTox_GSID>
57672

> <DSSTox_FileID_Sort>
8414

> <TS_ChemName>
Pipoxolan hydrochloride

> <TS_ChemName_Synonyms>


> <TS_CASRN>
18174-58-8

> <CASRN_ChemName_Relationship>
primary

> <TS_Description>
single chemical compound

> <ChemNote>


> <STRUCTURE_Shown>
tested chemical

> <STRUCTURE_Formula>
C22H26ClNO3

> <STRUCTURE_MW>
387.8997

> <STRUCTURE_ChemType>
defined organic

> <STRUCTURE_DefinedOrganicForm>
complex

> <STRUCTURE_IUPAC>
5,5-diphenyl-2-[2-(piperidin-1-yl)ethyl]-1,3-dioxolan-4-one hydrochloride (1:1)

> <STRUCTURE_SMILES>
Cl.O=C2OC(CCN1CCCCC1)OC2(c3ccccc3)c4ccccc4

> <STRUCTURE_SMILES_Desalt>
O=C2OC(CCN1CCCCC1)OC2(c3ccccc3)c4ccccc4

> <Substance_modify_yyyymmdd>
20131018

$$$$
