1817-73-8
ChemmineR-0915142007XD

 14 14  0  0  0  0  0  0  0  0  2 V2000
    1.9929    0.0000    0.0000 O    0  0  0  0  0  0  0  0  0  0  0  0
    1.3286   -1.1491    0.0000 N    0  3  0  0  0  0  0  0  0  0  0  0
    0.0000   -1.1491    0.0000 O    0  5  0  0  0  0  0  0  0  0  0  0
    1.9929   -2.3041    0.0000 C    0  0  0  0  0  0  0  0  0  0  0  0
    3.3275   -2.3041    0.0000 C    0  0  0  0  0  0  0  0  0  0  0  0
    3.9918   -3.4532    0.0000 C    0  0  0  0  0  0  0  0  0  0  0  0
    5.3205   -3.4532    0.0000 N    0  3  0  0  0  0  0  0  0  0  0  0
    5.9848   -4.6083    0.0000 O    0  5  0  0  0  0  0  0  0  0  0  0
    5.9848   -2.3041    0.0000 O    0  0  0  0  0  0  0  0  0  0  0  0
    3.3275   -4.6083    0.0000 C    0  0  0  0  0  0  0  0  0  0  0  0
    3.9918   -5.7573    0.0000 N    0  0  0  0  0  0  0  0  0  0  0  0
    1.9929   -4.6083    0.0000 C    0  0  0  0  0  0  0  0  0  0  0  0
    1.3286   -5.7573    0.0000 Br   0  0  0  0  0  0  0  0  0  0  0  0
    1.3286   -3.4532    0.0000 C    0  0  0  0  0  0  0  0  0  0  0  0
  1  2  2  0  0  0  0
  2  3  1  0  0  0  0
  2  4  1  0  0  0  0
  4  5  2  0  0  0  0
  4 14  1  0  0  0  0
  5  6  1  0  0  0  0
  6  7  1  0  0  0  0
  6 10  2  0  0  0  0
  7  8  1  0  0  0  0
  7  9  2  0  0  0  0
 10 11  1  0  0  0  0
 10 12  1  0  0  0  0
 12 13  1  0  0  0  0
 12 14  2  0  0  0  0
M  END
> <ID>
3786

> <Formula>
C6H4BrN3O4

> <FW>
262.0177

> <DSSTox_CID>
4646

> <DSSTox_RID>
77483

> <DSSTox_GSID>
24646

> <DSSTox_FileID_Sort>
2166

> <TS_ChemName>
2-Bromo-4,6-dinitroaniline

> <TS_ChemName_Synonyms>


> <TS_CASRN>
1817-73-8

> <CASRN_ChemName_Relationship>
primary

> <TS_Description>
single chemical compound

> <ChemNote>


> <STRUCTURE_Shown>
tested chemical

> <STRUCTURE_Formula>
C6H4BrN3O4

> <STRUCTURE_MW>
262.0177

> <STRUCTURE_ChemType>
defined organic

> <STRUCTURE_DefinedOrganicForm>
parent

> <STRUCTURE_IUPAC>
2-bromo-4,6-dinitroaniline

> <STRUCTURE_SMILES>
Nc1c(cc(cc1Br)[N+]([O-])=O)[N+]([O-])=O

> <STRUCTURE_SMILES_Desalt>
Nc1c(cc(cc1Br)[N+]([O-])=O)[N+]([O-])=O

> <Substance_modify_yyyymmdd>
20080429

$$$$
