18181-70-9
ChemmineR-0915142007XD

 16 16  0  0  0  0  0  0  0  0  1 V2000
    2.3233   -2.2909    0.0000 P    0  0  0  0  0  0  0  0  0  0  0  0
    4.6304   -2.2909    0.0000 C    0  0  0  0  0  0  0  0  0  0  0  0
    4.6304   -3.6185    0.0000 C    0  0  0  0  0  0  0  0  0  0  0  0
    3.4566   -1.6109    0.0000 O    0  0  0  0  0  0  0  0  0  0  0  0
    6.9213   -2.2909    0.0000 C    0  0  0  0  0  0  0  0  0  0  0  0
    5.7799   -1.6190    0.0000 C    0  0  0  0  0  0  0  0  0  0  0  0
    5.7799   -4.2742    0.0000 C    0  0  0  0  0  0  0  0  0  0  0  0
    6.9213   -3.6185    0.0000 C    0  0  0  0  0  0  0  0  0  0  0  0
    3.0033   -3.4161    0.0000 S    0  0  0  0  0  0  0  0  0  0  0  0
    1.6271   -1.1252    0.0000 O    0  0  0  0  0  0  0  0  0  0  0  0
    1.1900   -2.9466    0.0000 O    0  0  0  0  0  0  0  0  0  0  0  0
    5.7799   -0.2914    0.0000 Cl   0  0  0  0  0  0  0  0  0  0  0  0
    8.0951   -4.2904    0.0000 I    0  0  0  0  0  0  0  0  0  0  0  0
    5.7799   -5.6018    0.0000 Cl   0  0  0  0  0  0  0  0  0  0  0  0
    0.0000   -2.3071    0.0000 C    0  0  0  0  0  0  0  0  0  0  0  0
    2.2990    0.0000    0.0000 C    0  0  0  0  0  0  0  0  0  0  0  0
  1  4  1  0  0  0  0
  1  9  2  0  0  0  0
  1 10  1  0  0  0  0
  1 11  1  0  0  0  0
  2  4  1  0  0  0  0
  2  3  2  0  0  0  0
  2  6  1  0  0  0  0
  3  7  1  0  0  0  0
  5  6  2  0  0  0  0
  5  8  1  0  0  0  0
  6 12  1  0  0  0  0
  7 14  1  0  0  0  0
  7  8  2  0  0  0  0
  8 13  1  0  0  0  0
 10 16  1  0  0  0  0
 11 15  1  0  0  0  0
M  END
> <ID>
7655

> <Formula>
C8H8Cl2IO3PS

> <FW>
412.9966

> <DSSTox_CID>
20278

> <DSSTox_RID>
79466

> <DSSTox_GSID>
40278

> <DSSTox_FileID_Sort>
4148

> <TS_ChemName>
Iodenphos

> <TS_ChemName_Synonyms>


> <TS_CASRN>
18181-70-9

> <CASRN_ChemName_Relationship>
primary

> <TS_Description>
single chemical compound

> <ChemNote>


> <STRUCTURE_Shown>
tested chemical

> <STRUCTURE_Formula>
C8H8Cl2IO3PS

> <STRUCTURE_MW>
412.9966

> <STRUCTURE_ChemType>
defined organic

> <STRUCTURE_DefinedOrganicForm>
parent

> <STRUCTURE_IUPAC>
O-(2,5-dichloro-4-iodophenyl) O,O-dimethyl phosphorothioate

> <STRUCTURE_SMILES>
Clc1cc(I)c(Cl)cc1OP(=S)(OC)OC

> <STRUCTURE_SMILES_Desalt>
Clc1cc(I)c(Cl)cc1OP(=S)(OC)OC

> <Substance_modify_yyyymmdd>
20080429

$$$$
