1823-59-2
ChemmineR-0915142007XD

 23 26  0  0  0  0  0  0  0  0  1 V2000
    7.8141   -2.2969    0.0000 C   0  0  0  0  0  0  0  0  0  0  0  0
    8.9626   -2.9500    0.0000 C   0  0  0  0  0  0  0  0  0  0  0  0
    9.4130   -0.8557    0.0000 O   0  0  0  0  0  0  0  0  0  0  0  0
    8.0956   -0.9908    0.0000 C   0  0  0  0  0  0  0  0  0  0  0  0
    9.9647   -2.0718    0.0000 C   0  0  0  0  0  0  0  0  0  0  0  0
    6.6769   -2.9500    0.0000 C   0  0  0  0  0  0  0  0  0  0  0  0
    8.9626   -4.2786    0.0000 C   0  0  0  0  0  0  0  0  0  0  0  0
    7.8141   -4.9542    0.0000 C   0  0  0  0  0  0  0  0  0  0  0  0
    6.6769   -4.2786    0.0000 C   0  0  0  0  0  0  0  0  0  0  0  0
   11.2595   -2.3420    0.0000 O   0  0  0  0  0  0  0  0  0  0  0  0
    7.2061    0.0000    0.0000 O   0  0  0  0  0  0  0  0  0  0  0  0
    2.0492   -4.2786    0.0000 C   0  0  0  0  0  0  0  0  0  0  0  0
    2.0492   -2.9500    0.0000 C   0  0  0  0  0  0  0  0  0  0  0  0
    0.0000   -3.6256    0.0000 O   0  0  0  0  0  0  0  0  0  0  0  0
    0.7882   -4.6952    0.0000 C   0  0  0  0  0  0  0  0  0  0  0  0
    0.7882   -2.5559    0.0000 C   0  0  0  0  0  0  0  0  0  0  0  0
    3.2090   -4.9542    0.0000 C   0  0  0  0  0  0  0  0  0  0  0  0
    3.2090   -2.2969    0.0000 C   0  0  0  0  0  0  0  0  0  0  0  0
    4.3574   -2.9500    0.0000 C   0  0  0  0  0  0  0  0  0  0  0  0
    4.3574   -4.2786    0.0000 C   0  0  0  0  0  0  0  0  0  0  0  0
    0.3716   -1.2836    0.0000 O   0  0  0  0  0  0  0  0  0  0  0  0
    0.3716   -5.9676    0.0000 O   0  0  0  0  0  0  0  0  0  0  0  0
    5.5172   -4.9542    0.0000 O   0  0  0  0  0  0  0  0  0  0  0  0
  1  2  2  0  0  0  0
  1  4  1  0  0  0  0
  1  6  1  0  0  0  0
  2  5  1  0  0  0  0
  2  7  1  0  0  0  0
  3  4  1  0  0  0  0
  3  5  1  0  0  0  0
  4 11  2  0  0  0  0
  5 10  2  0  0  0  0
  6  9  2  0  0  0  0
  7  8  2  0  0  0  0
  8  9  1  0  0  0  0
  9 23  1  0  0  0  0
 12 13  2  0  0  0  0
 12 15  1  0  0  0  0
 12 17  1  0  0  0  0
 13 16  1  0  0  0  0
 13 18  1  0  0  0  0
 14 15  1  0  0  0  0
 14 16  1  0  0  0  0
 15 22  2  0  0  0  0
 16 21  2  0  0  0  0
 17 20  2  0  0  0  0
 18 19  2  0  0  0  0
 19 20  1  0  0  0  0
 20 23  1  0  0  0  0
M  END
> <ID>
10506

> <Formula>
C16H6O7

> <FW>
310.2146

> <DSSTox_CID>
24859

> <DSSTox_RID>
80537

> <DSSTox_GSID>
44859

> <DSSTox_FileID_Sort>
5219

> <TS_ChemName>
5,5'-Oxybis(2-benzofuran-1,3-dione)

> <TS_ChemName_Synonyms>
5,5'-Oxybis(2-benzofuran-1,3-dione) (1,3-Isobenzofurandione, 5,5'-oxybis-)

> <TS_CASRN>
1823-59-2

> <CASRN_ChemName_Relationship>
primary

> <TS_Description>
single chemical compound

> <ChemNote>


> <STRUCTURE_Shown>
tested chemical

> <STRUCTURE_Formula>
C16H6O7

> <STRUCTURE_MW>
310.2146

> <STRUCTURE_ChemType>
defined organic

> <STRUCTURE_DefinedOrganicForm>
parent

> <STRUCTURE_IUPAC>
5,5'-oxybis(2-benzofuran-1,3-dione)

> <STRUCTURE_SMILES>
O=C1OC(=O)c2ccc(cc12)Oc3ccc4C(=O)OC(=O)c4c3

> <STRUCTURE_SMILES_Desalt>
O=C1OC(=O)c2ccc(cc12)Oc3ccc4C(=O)OC(=O)c4c3

> <Substance_modify_yyyymmdd>
20091116

$$$$
