1824-50-6
ChemmineR-0915142007XD

 24 26  0  0  0  0  0  0  0  0  1 V2000
    5.8148   -2.6820    0.0000 S    0  0  0  0  0  0  0  0  0  0  0  0
    4.6588   -1.9999    0.0000 C    0  0  0  0  0  0  0  0  0  0  0  0
    6.9708   -1.9884    0.0000 N    0  0  0  0  0  0  0  0  0  0  0  0
    1.1676   -2.6473    0.0000 S    0  0  0  0  0  0  0  0  0  0  0  0
    2.3583   -1.9884    0.0000 C    0  0  0  0  0  0  0  0  0  0  0  0
    4.6588   -0.6705    0.0000 C    0  0  0  0  0  0  0  0  0  0  0  0
    3.5028   -2.6820    0.0000 C    0  0  0  0  0  0  0  0  0  0  0  0
    5.8148    0.0000    0.0000 N    0  0  0  0  0  0  0  0  0  0  0  0
    6.9708   -0.6821    0.0000 C    0  0  0  0  0  0  0  0  0  0  0  0
    2.3583   -0.6821    0.0000 C    0  0  0  0  0  0  0  0  0  0  0  0
    3.5028    0.0000    0.0000 C    0  0  0  0  0  0  0  0  0  0  0  0
    4.9131   -3.6762    0.0000 O    0  0  0  0  0  0  0  0  0  0  0  0
    6.5084   -3.8496    0.0000 O    0  0  0  0  0  0  0  0  0  0  0  0
    0.5433   -1.4682    0.0000 O    0  0  0  0  0  0  0  0  0  0  0  0
    1.8265   -3.8149    0.0000 O    0  0  0  0  0  0  0  0  0  0  0  0
    0.0000   -3.2831    0.0000 N    0  0  0  0  0  0  0  0  0  0  0  0
    8.1037   -0.0231    0.0000 C    0  0  0  0  0  0  0  0  0  0  0  0
    1.1676   -0.0462    0.0000 Cl   0  0  0  0  0  0  0  0  0  0  0  0
    9.2597   -0.7052    0.0000 C    0  0  0  0  0  0  0  0  0  0  0  0
   10.4158   -0.0462    0.0000 C    0  0  0  0  0  0  0  0  0  0  0  0
    9.2597   -1.9884    0.0000 C    0  0  0  0  0  0  0  0  0  0  0  0
   10.4158   -2.6473    0.0000 C    0  0  0  0  0  0  0  0  0  0  0  0
   11.5602   -0.7167    0.0000 C    0  0  0  0  0  0  0  0  0  0  0  0
   11.5602   -1.9652    0.0000 C    0  0  0  0  0  0  0  0  0  0  0  0
  1  2  1  0  0  0  0
  1  3  1  0  0  0  0
  1 12  2  0  0  0  0
  1 13  2  0  0  0  0
  2  6  2  0  0  0  0
  2  7  1  0  0  0  0
  3  9  1  0  0  0  0
  4  5  1  0  0  0  0
  4 14  2  0  0  0  0
  4 15  2  0  0  0  0
  4 16  1  0  0  0  0
  5  7  2  0  0  0  0
  5 10  1  0  0  0  0
  6 11  1  0  0  0  0
  6  8  1  0  0  0  0
  8  9  1  0  0  0  0
  9 17  1  0  0  0  0
 10 18  1  0  0  0  0
 10 11  2  0  0  0  0
 17 19  1  0  0  0  0
 19 20  1  0  0  0  0
 19 21  2  0  0  0  0
 20 23  2  0  0  0  0
 21 22  1  0  0  0  0
 22 24  2  0  0  0  0
 23 24  1  0  0  0  0
M  END
> <ID>
10748

> <Formula>
C14H14ClN3O4S2

> <FW>
387.8617

> <DSSTox_CID>
25114

> <DSSTox_RID>
80680

> <DSSTox_GSID>
45114

> <DSSTox_FileID_Sort>
5362

> <TS_ChemName>
Benzylhydrochlorothiazide

> <TS_ChemName_Synonyms>


> <TS_CASRN>
1824-50-6

> <CASRN_ChemName_Relationship>
primary

> <TS_Description>
single chemical compound

> <ChemNote>


> <STRUCTURE_Shown>
tested chemical

> <STRUCTURE_Formula>
C14H14ClN3O4S2

> <STRUCTURE_MW>
387.8617

> <STRUCTURE_ChemType>
defined organic

> <STRUCTURE_DefinedOrganicForm>
parent

> <STRUCTURE_IUPAC>
3-benzyl-6-chloro-3,4-dihydro-2H-1,2,4-benzothiadiazine-7-sulfonamide 1,1-dioxide

> <STRUCTURE_SMILES>
NS(=O)(=O)c3cc1c(NC(NS1(=O)=O)Cc2ccccc2)cc3Cl

> <STRUCTURE_SMILES_Desalt>
NS(=O)(=O)c3cc1c(NC(NS1(=O)=O)Cc2ccccc2)cc3Cl

> <Substance_modify_yyyymmdd>
20100107

$$$$
