18268-70-7
ChemmineR-0915142007XD

 31 30  0  0  0  0  0  0  0  0  1 V2000
    5.7557   -1.3282    0.0000 C   0  0  0  0  0  0  0  0  0  0  0  0
    4.6211   -1.9923    0.0000 C   0  0  0  0  0  0  0  0  0  0  0  0
    3.4589   -1.3282    0.0000 C   0  0  0  0  0  0  0  0  0  0  0  0
    2.2967   -1.9923    0.0000 C   0  0  0  0  0  0  0  0  0  0  0  0
    1.1622   -1.3282    0.0000 C   0  0  0  0  0  0  0  0  0  0  0  0
    0.0000   -1.9923    0.0000 C   0  0  0  0  0  0  0  0  0  0  0  0
    5.7557    0.0000    0.0000 O   0  0  0  0  0  0  0  0  0  0  0  0
    4.6211   -3.3206    0.0000 C   0  0  0  0  0  0  0  0  0  0  0  0
    3.4589   -3.9847    0.0000 C   0  0  0  0  0  0  0  0  0  0  0  0
    8.0801   -1.3282    0.0000 C   0  0  0  0  0  0  0  0  0  0  0  0
    9.2146   -1.9923    0.0000 C   0  0  0  0  0  0  0  0  0  0  0  0
    6.9179   -1.9923    0.0000 O   0  0  0  0  0  0  0  0  0  0  0  0
   10.3768   -1.3282    0.0000 O   0  0  0  0  0  0  0  0  0  0  0  0
   11.5390   -1.9923    0.0000 C   0  0  0  0  0  0  0  0  0  0  0  0
   12.7012   -1.3282    0.0000 C   0  0  0  0  0  0  0  0  0  0  0  0
   13.8357   -1.9923    0.0000 O   0  0  0  0  0  0  0  0  0  0  0  0
   14.9702   -1.3282    0.0000 C   0  0  0  0  0  0  0  0  0  0  0  0
   16.1324   -1.9923    0.0000 C   0  0  0  0  0  0  0  0  0  0  0  0
   17.2946   -1.3282    0.0000 O   0  0  0  0  0  0  0  0  0  0  0  0
   18.4568   -1.9923    0.0000 C   0  0  0  0  0  0  0  0  0  0  0  0
   19.5914   -1.3282    0.0000 C   0  0  0  0  0  0  0  0  0  0  0  0
   20.7536   -1.9923    0.0000 O   0  0  0  0  0  0  0  0  0  0  0  0
   21.9158   -1.3282    0.0000 C   0  0  0  0  0  0  0  0  0  0  0  0
   23.0780   -1.9923    0.0000 C   0  0  0  0  0  0  0  0  0  0  0  0
   24.2125   -1.3282    0.0000 C   0  0  0  0  0  0  0  0  0  0  0  0
   25.3747   -1.9923    0.0000 C   0  0  0  0  0  0  0  0  0  0  0  0
   26.5092   -1.3282    0.0000 C   0  0  0  0  0  0  0  0  0  0  0  0
   27.6714   -1.9923    0.0000 C   0  0  0  0  0  0  0  0  0  0  0  0
   21.9158    0.0000    0.0000 O   0  0  0  0  0  0  0  0  0  0  0  0
   23.0780   -3.3206    0.0000 C   0  0  0  0  0  0  0  0  0  0  0  0
   24.2125   -3.9847    0.0000 C   0  0  0  0  0  0  0  0  0  0  0  0
  1  2  1  0  0  0  0
  1  7  2  0  0  0  0
  1 12  1  0  0  0  0
  2  3  1  0  0  0  0
  2  8  1  0  0  0  0
  3  4  1  0  0  0  0
  4  5  1  0  0  0  0
  5  6  1  0  0  0  0
  8  9  1  0  0  0  0
 10 11  1  0  0  0  0
 10 12  1  0  0  0  0
 11 13  1  0  0  0  0
 13 14  1  0  0  0  0
 14 15  1  0  0  0  0
 15 16  1  0  0  0  0
 16 17  1  0  0  0  0
 17 18  1  0  0  0  0
 18 19  1  0  0  0  0
 19 20  1  0  0  0  0
 20 21  1  0  0  0  0
 21 22  1  0  0  0  0
 22 23  1  0  0  0  0
 23 24  1  0  0  0  0
 23 29  2  0  0  0  0
 24 25  1  0  0  0  0
 24 30  1  0  0  0  0
 25 26  1  0  0  0  0
 26 27  1  0  0  0  0
 27 28  1  0  0  0  0
 30 31  1  0  0  0  0
M  END
> <ID>
5404

> <Formula>
C24H46O7

> <FW>
446.6178

> <DSSTox_CID>
7797

> <DSSTox_RID>
78570

> <DSSTox_GSID>
27797

> <DSSTox_FileID_Sort>
3253

> <TS_ChemName>
Hexanoic acid, 2-ethyl-, oxybis(2,1-ethanediyloxy-2,1-ethanediyl) ester

> <TS_ChemName_Synonyms>


> <TS_CASRN>
18268-70-7

> <CASRN_ChemName_Relationship>
primary

> <TS_Description>
single chemical compound

> <ChemNote>


> <STRUCTURE_Shown>
tested chemical

> <STRUCTURE_Formula>
C24H46O7

> <STRUCTURE_MW>
446.6178

> <STRUCTURE_ChemType>
defined organic

> <STRUCTURE_DefinedOrganicForm>
parent

> <STRUCTURE_IUPAC>
oxybis(ethane-2,1-diyloxyethane-2,1-diyl) bis(2-ethylhexanoate)

> <STRUCTURE_SMILES>
O=C(OCCOCCOCCOCCOC(=O)C(CC)CCCC)C(CC)CCCC

> <STRUCTURE_SMILES_Desalt>
O=C(OCCOCCOCCOCCOC(=O)C(CC)CCCC)C(CC)CCCC

> <Substance_modify_yyyymmdd>
20080429

$$$$
