18263-25-7
ChemmineR-0915142007XD

 19 18  0  0  0  0  0  0  0  0  1 V2000
    1.1604   -0.6755    0.0000 C    0  0  0  0  0  0  0  0  0  0  0  0
    1.1604   -2.0091    0.0000 C    0  0  0  0  0  0  0  0  0  0  0  0
    2.3035   -2.6672    0.0000 C    0  0  0  0  0  0  0  0  0  0  0  0
    3.4640   -2.0091    0.0000 C    0  0  0  0  0  0  0  0  0  0  0  0
    4.6244   -2.6672    0.0000 C    0  0  0  0  0  0  0  0  0  0  0  0
    5.7675   -2.0091    0.0000 C    0  0  0  0  0  0  0  0  0  0  0  0
    6.9279   -2.6672    0.0000 C    0  0  0  0  0  0  0  0  0  0  0  0
    8.0883   -2.0091    0.0000 C    0  0  0  0  0  0  0  0  0  0  0  0
    9.2314   -2.6672    0.0000 C    0  0  0  0  0  0  0  0  0  0  0  0
   10.3919   -2.0091    0.0000 C    0  0  0  0  0  0  0  0  0  0  0  0
   11.5523   -2.6672    0.0000 C    0  0  0  0  0  0  0  0  0  0  0  0
   12.6954   -2.0091    0.0000 C    0  0  0  0  0  0  0  0  0  0  0  0
   13.8558   -2.6672    0.0000 C    0  0  0  0  0  0  0  0  0  0  0  0
   15.0163   -2.0091    0.0000 C    0  0  0  0  0  0  0  0  0  0  0  0
   16.1594   -2.6672    0.0000 C    0  0  0  0  0  0  0  0  0  0  0  0
   17.3198   -2.0091    0.0000 C    0  0  0  0  0  0  0  0  0  0  0  0
    2.3035    0.0000    0.0000 O    0  0  0  0  0  0  0  0  0  0  0  0
    0.0000    0.0000    0.0000 O    0  0  0  0  0  0  0  0  0  0  0  0
    0.0000   -2.6672    0.0000 Br   0  0  0  0  0  0  0  0  0  0  0  0
  1  2  1  0  0  0  0
  1 18  1  0  0  0  0
  1 17  2  0  0  0  0
  2  3  1  0  0  0  0
  2 19  1  0  0  0  0
  3  4  1  0  0  0  0
  4  5  1  0  0  0  0
  5  6  1  0  0  0  0
  6  7  1  0  0  0  0
  7  8  1  0  0  0  0
  8  9  1  0  0  0  0
  9 10  1  0  0  0  0
 10 11  1  0  0  0  0
 11 12  1  0  0  0  0
 12 13  1  0  0  0  0
 13 14  1  0  0  0  0
 14 15  1  0  0  0  0
 15 16  1  0  0  0  0
M  END
> <ID>
7419

> <Formula>
C16H31BrO2

> <FW>
335.3201

> <DSSTox_CID>
17734

> <DSSTox_RID>
79368

> <DSSTox_GSID>
37734

> <DSSTox_FileID_Sort>
4050

> <TS_ChemName>
2-Bromohexadecanoic acid

> <TS_ChemName_Synonyms>


> <TS_CASRN>
18263-25-7

> <CASRN_ChemName_Relationship>
primary

> <TS_Description>
single chemical compound

> <ChemNote>


> <STRUCTURE_Shown>
tested chemical

> <STRUCTURE_Formula>
C16H31BrO2

> <STRUCTURE_MW>
335.3201

> <STRUCTURE_ChemType>
defined organic

> <STRUCTURE_DefinedOrganicForm>
parent

> <STRUCTURE_IUPAC>
2-bromohexadecanoic acid

> <STRUCTURE_SMILES>
O=C(O)C(Br)CCCCCCCCCCCCCC

> <STRUCTURE_SMILES_Desalt>
O=C(O)C(Br)CCCCCCCCCCCCCC

> <Substance_modify_yyyymmdd>
20080429

$$$$
