182959-33-7
ChemmineR-0915142007XD

 26 29  0  0  0  0  0  0  0  0  1 V2000
    7.2312   -4.8756    0.0000 Cl   0  0  0  0  0  0  0  0  0  0  0  0
    5.6355   -1.4690    0.0000 C    0  0  0  0  0  0  0  0  0  0  0  0
    6.4460   -2.5835    0.0000 C    0  0  0  0  0  0  0  0  0  0  0  0
    4.2678   -1.6083    0.0000 C    0  0  0  0  0  0  0  0  0  0  0  0
    5.8888   -3.8372    0.0000 C    0  0  0  0  0  0  0  0  0  0  0  0
    3.7106   -2.8747    0.0000 C    0  0  0  0  0  0  0  0  0  0  0  0
    4.5211   -3.9892    0.0000 C    0  0  0  0  0  0  0  0  0  0  0  0
    2.3935   -3.2926    0.0000 C    0  0  0  0  0  0  0  0  0  0  0  0
    2.3935   -4.6730    0.0000 C    0  0  0  0  0  0  0  0  0  0  0  0
    3.7106   -5.1036    0.0000 N    0  0  0  0  0  0  0  0  0  0  0  0
    1.1904   -2.6088    0.0000 C    0  0  0  0  0  0  0  0  0  0  0  0
    0.0000   -3.3053    0.0000 C    0  0  0  0  0  0  0  0  0  0  0  0
    1.1904   -5.3695    0.0000 C    0  0  0  0  0  0  0  0  0  0  0  0
    0.0000   -4.6857    0.0000 C    0  0  0  0  0  0  0  0  0  0  0  0
   11.9548   -1.2157    0.0000 N    0  0  0  0  0  0  0  0  0  0  0  0
   12.6640   -2.3808    0.0000 C    0  0  0  0  0  0  0  0  0  0  0  0
   12.6260    0.0000    0.0000 C    0  0  0  0  0  0  0  0  0  0  0  0
   10.5745   -1.2537    0.0000 C    0  0  0  0  0  0  0  0  0  0  0  0
   11.9548   -2.1149    0.0000 C    0  0  0  0  0  0  0  0  0  0  0  0
   12.6640   -3.2926    0.0000 C    0  0  0  0  0  0  0  0  0  0  0  0
   12.6134   -0.8991    0.0000 C    0  0  0  0  0  0  0  0  0  0  0  0
   10.5745   -2.1402    0.0000 C    0  0  0  0  0  0  0  0  0  0  0  0
   10.0046   -3.3940    0.0000 C    0  0  0  0  0  0  0  0  0  0  0  0
    8.6242   -3.5459    0.0000 C    0  0  0  0  0  0  0  0  0  0  0  0
    7.8264   -2.4315    0.0000 O    0  0  0  0  0  0  0  0  0  0  0  0
   10.8024   -4.5211    0.0000 F    0  0  0  0  0  0  0  0  0  0  0  0
  2  3  1  0  0  0  0
  2  4  2  0  0  0  0
  3  5  2  0  0  0  0
  3 25  1  0  0  0  0
  4  6  1  0  0  0  0
  5  7  1  0  0  0  0
  6  7  2  0  0  0  0
  6  8  1  0  0  0  0
  7 10  1  0  0  0  0
  8 11  1  0  0  0  0
  8  9  2  0  0  0  0
  9 10  1  0  0  0  0
  9 13  1  0  0  0  0
 11 12  2  0  0  0  0
 12 14  1  0  0  0  0
 13 14  2  0  0  0  0
 15 16  1  0  0  0  0
 15 17  1  0  0  0  0
 15 18  1  0  0  0  0
 16 20  1  0  0  0  0
 17 21  1  0  0  0  0
 18 22  1  0  0  0  0
 19 20  1  0  0  0  0
 19 21  1  0  0  0  0
 19 22  1  0  0  0  0
 22 23  2  0  0  0  0
 23 24  1  0  0  0  0
 23 26  1  0  0  0  0
 24 25  1  0  0  0  0
M  END
> <ID>
11743

> <Formula>
C21H22ClFN2O

> <FW>
372.8636 (36.4609+336.4026)

> <DSSTox_CID>
26508

> <DSSTox_RID>
81677

> <DSSTox_GSID>
46508

> <DSSTox_FileID_Sort>
6358

> <TS_ChemName>
2-{[(2E)-2-(1-Azabicyclo[2.2.2]oct-3-ylidene)-2-fluoroethyl]oxy}-9H-carbazole

> <TS_ChemName_Synonyms>


> <TS_CASRN>
182959-33-7

> <CASRN_ChemName_Relationship>
primary

> <TS_Description>
single chemical compound

> <ChemNote>
stereochem; parent [182959-28-0]

> <STRUCTURE_Shown>
tested chemical

> <STRUCTURE_Formula>
C21H22ClFN2O

> <STRUCTURE_MW>
372.8636

> <STRUCTURE_ChemType>
defined organic

> <STRUCTURE_DefinedOrganicForm>
complex

> <STRUCTURE_IUPAC>
2-{[(2E)-2-(1-azabicyclo[2.2.2]oct-3-ylidene)-2-fluoroethyl]oxy}-9H-carbazole hydrochloride (1:1)

> <STRUCTURE_SMILES>
Cl.F/C(COc1ccc2c3ccccc3nc2c1)=C5/CN4CCC5CC4

> <STRUCTURE_SMILES_Desalt>
F/C(COc1ccc2c3ccccc3nc2c1)=C5/CN4CCC5CC4

> <Substance_modify_yyyymmdd>
20120227

$$$$
