183321-74-6
ChemmineR-0915142007XD

 29 31  0  0  0  0  0  0  0  0  1 V2000
   16.1187   -1.9826    0.0000 C   0  0  0  0  0  0  0  0  0  0  0  0
   14.9743   -2.6596    0.0000 O   0  0  0  0  0  0  0  0  0  0  0  0
   13.8137   -1.9826    0.0000 C   0  0  0  0  0  0  0  0  0  0  0  0
   12.6693   -2.6596    0.0000 C   0  0  0  0  0  0  0  0  0  0  0  0
   11.5088   -1.9826    0.0000 O   0  0  0  0  0  0  0  0  0  0  0  0
   10.3643   -2.6596    0.0000 C   0  0  0  0  0  0  0  0  0  0  0  0
   10.3643   -3.9813    0.0000 C   0  0  0  0  0  0  0  0  0  0  0  0
    9.2038   -4.6422    0.0000 C   0  0  0  0  0  0  0  0  0  0  0  0
    9.2038   -5.9800    0.0000 N   0  0  0  0  0  0  0  0  0  0  0  0
    8.0594   -6.6409    0.0000 C   0  0  0  0  0  0  0  0  0  0  0  0
    6.9149   -5.9800    0.0000 N   0  0  0  0  0  0  0  0  0  0  0  0
    6.9149   -4.6422    0.0000 C   0  0  0  0  0  0  0  0  0  0  0  0
    8.0594   -3.9813    0.0000 C   0  0  0  0  0  0  0  0  0  0  0  0
    8.0594   -2.6596    0.0000 C   0  0  0  0  0  0  0  0  0  0  0  0
    9.2038   -1.9826    0.0000 C   0  0  0  0  0  0  0  0  0  0  0  0
    9.2038   -0.6609    0.0000 O   0  0  0  0  0  0  0  0  0  0  0  0
   10.3643    0.0000    0.0000 C   0  0  0  0  0  0  0  0  0  0  0  0
   11.5088   -0.6609    0.0000 C   0  0  0  0  0  0  0  0  0  0  0  0
   12.6693    0.0000    0.0000 O   0  0  0  0  0  0  0  0  0  0  0  0
   13.8137   -0.6609    0.0000 C   0  0  0  0  0  0  0  0  0  0  0  0
    5.7544   -3.9813    0.0000 N   0  0  0  0  0  0  0  0  0  0  0  0
    4.6099   -4.6422    0.0000 C   0  0  0  0  0  0  0  0  0  0  0  0
    4.6099   -5.9800    0.0000 C   0  0  0  0  0  0  0  0  0  0  0  0
    3.4494   -6.6409    0.0000 C   0  0  0  0  0  0  0  0  0  0  0  0
    2.3050   -5.9800    0.0000 C   0  0  0  0  0  0  0  0  0  0  0  0
    2.3050   -4.6422    0.0000 C   0  0  0  0  0  0  0  0  0  0  0  0
    3.4494   -3.9813    0.0000 C   0  0  0  0  0  0  0  0  0  0  0  0
    1.1444   -3.9813    0.0000 C   0  0  0  0  0  0  0  0  0  0  0  0
    0.0000   -3.3205    0.0000 C   0  0  0  0  0  0  0  0  0  0  0  0
  1  2  1  0  0  0  0
  2  3  1  0  0  0  0
  3  4  1  0  0  0  0
  4  5  1  0  0  0  0
  5  6  1  0  0  0  0
  6  7  2  0  0  0  0
  6 15  1  0  0  0  0
  7  8  1  0  0  0  0
  8  9  2  0  0  0  0
  8 13  1  0  0  0  0
  9 10  1  0  0  0  0
 10 11  2  0  0  0  0
 11 12  1  0  0  0  0
 12 13  2  0  0  0  0
 12 21  1  0  0  0  0
 13 14  1  0  0  0  0
 14 15  2  0  0  0  0
 15 16  1  0  0  0  0
 16 17  1  0  0  0  0
 17 18  1  0  0  0  0
 18 19  1  0  0  0  0
 19 20  1  0  0  0  0
 21 22  1  0  0  0  0
 22 23  2  0  0  0  0
 22 27  1  0  0  0  0
 23 24  1  0  0  0  0
 24 25  2  0  0  0  0
 25 26  1  0  0  0  0
 26 27  2  0  0  0  0
 26 28  1  0  0  0  0
 28 29  3  0  0  0  0
M  END
> <ID>
11694

> <Formula>
C22H23N3O4

> <FW>
393.4357

> <DSSTox_CID>
26454

> <DSSTox_RID>
81628

> <DSSTox_GSID>
46454

> <DSSTox_FileID_Sort>
6309

> <TS_ChemName>
Erlotinib

> <TS_ChemName_Synonyms>


> <TS_CASRN>
183321-74-6

> <CASRN_ChemName_Relationship>
primary

> <TS_Description>
single chemical compound

> <ChemNote>


> <STRUCTURE_Shown>
tested chemical

> <STRUCTURE_Formula>
C22H23N3O4

> <STRUCTURE_MW>
393.4357

> <STRUCTURE_ChemType>
defined organic

> <STRUCTURE_DefinedOrganicForm>
parent

> <STRUCTURE_IUPAC>
N-(3-ethynylphenyl)-6,7-bis(2-methoxyethoxy)quinazolin-4-amine

> <STRUCTURE_SMILES>
C#Cc1cc(ccc1)Nc3ncnc2cc(OCCOC)c(cc23)OCCOC

> <STRUCTURE_SMILES_Desalt>
C#Cc1cc(ccc1)Nc3ncnc2cc(OCCOC)c(cc23)OCCOC

> <Substance_modify_yyyymmdd>
20110813

$$$$
