18339-16-7
ChemmineR-0915142007XD

 24 27  0  0  1  0  0  0  0  0  1 V2000
    4.4953   -2.6073    0.0000 C   0  0  0  0  0  0  0  0  0  0  0  0
    3.4164   -3.2366    0.0000 C   0  0  0  0  0  0  0  0  0  0  0  0
    5.6012   -3.2366    0.0000 C   0  0  0  0  0  0  0  0  0  0  0  0
    6.7430   -2.5713    0.0000 C   0  0  0  0  0  0  0  0  0  0  0  0
    6.7430   -1.2857    0.0000 C   0  0  0  0  0  0  0  0  0  0  0  0
    4.4953   -1.3126    0.0000 C   0  0  0  0  0  0  0  0  0  0  0  0
    5.6012   -4.5223    0.0000 C   0  0  0  0  0  0  0  0  0  0  0  0
    3.4164   -4.5223    0.0000 C   0  0  0  0  0  0  0  0  0  0  0  0
    5.6012   -0.6563    0.0000 C   0  0  0  0  0  0  0  0  0  0  0  0
    4.4953   -5.1516    0.0000 C   0  0  0  0  0  0  0  0  0  0  0  0
    3.4164   -1.9779    0.0000 C   0  0  0  0  0  0  0  0  0  0  0  0
    2.2746   -2.6073    0.0000 C   0  0  0  0  0  0  0  0  0  0  0  0
    7.8488   -0.6563    0.0000 C   0  0  0  0  0  0  0  0  0  0  0  0
    8.9906   -2.5713    0.0000 C   0  0  0  0  0  0  0  0  0  0  0  0
    6.7700    0.0000    0.0000 C   0  0  0  0  0  0  0  0  0  0  0  0
    8.9906   -1.2857    0.0000 C   0  0  0  0  0  0  0  0  0  0  0  0
    2.2746   -5.1786    0.0000 C   0  0  0  0  0  0  0  0  0  0  0  0
    1.1688   -3.2636    0.0000 C   0  0  0  0  0  0  0  0  0  0  0  0
    1.1688   -4.5223    0.0000 C   0  0  0  0  0  0  0  0  0  0  0  0
    5.6012   -1.8880    0.0000 H   0  0  0  0  0  0  0  0  0  0  0  0
    4.4953   -3.9199    0.0000 H   0  0  0  0  0  0  0  0  0  0  0  0
    6.7430   -3.9199    0.0000 H   0  0  0  0  0  0  0  0  0  0  0  0
    0.0000   -5.1786    0.0000 O   0  0  0  0  0  0  0  0  0  0  0  0
    3.4164   -5.8709    0.0000 H   0  0  0  0  0  0  0  0  0  0  0  0
  1  6  1  0  0  0  0
  1  2  1  0  0  0  0
  1 21  1  6  0  0  0
  1  3  1  0  0  0  0
  2  8  1  0  0  0  0
  2 11  1  1  0  0  0
  2 12  1  0  0  0  0
  3  4  1  0  0  0  0
  3  7  1  0  0  0  0
  3 20  1  1  0  0  0
  4 14  1  0  0  0  0
  4  5  1  0  0  0  0
  4 22  1  6  0  0  0
  5  9  1  0  0  0  0
  5 13  1  0  0  0  0
  5 15  1  1  0  0  0
  6  9  1  0  0  0  0
  7 10  1  0  0  0  0
  8 17  1  0  0  0  0
  8 10  1  0  0  0  0
  8 24  1  6  0  0  0
 12 18  1  0  0  0  0
 13 16  2  0  0  0  0
 14 16  1  0  0  0  0
 17 19  1  0  0  0  0
 18 19  1  0  0  0  0
 19 23  2  0  0  0  0
M  END
> <ID>
8008

> <Formula>
C19H28O

> <FW>
272.425

> <DSSTox_CID>
20965

> <DSSTox_RID>
79607

> <DSSTox_GSID>
40965

> <DSSTox_FileID_Sort>
4289

> <TS_ChemName>
Androstenone

> <TS_ChemName_Synonyms>
Androstenone ((5alpha)-androst-16-en-3-one)

> <TS_CASRN>
18339-16-7

> <CASRN_ChemName_Relationship>
primary

> <TS_Description>
single chemical compound

> <ChemNote>
stereochem

> <STRUCTURE_Shown>
tested chemical

> <STRUCTURE_Formula>
C19H28O

> <STRUCTURE_MW>
272.425

> <STRUCTURE_ChemType>
defined organic

> <STRUCTURE_DefinedOrganicForm>
parent

> <STRUCTURE_IUPAC>
(5alpha)-androst-16-en-3-one

> <STRUCTURE_SMILES>
O=C2C[C@@H]3CC[C@H]1[C@@H]4CC=C[C@@]4(C)CC[C@@H]1[C@@]3(C)CC2

> <STRUCTURE_SMILES_Desalt>
O=C2C[C@@H]3CC[C@H]1[C@@H]4CC=C[C@@]4(C)CC[C@@H]1[C@@]3(C)CC2

> <Substance_modify_yyyymmdd>
20080429

$$$$
