1836-75-5
ChemmineR-0915142007XD

 18 19  0  0  0  0  0  0  0  0  2 V2000
    2.3005    0.0000    0.0000 Cl   0  0  0  0  0  0  0  0  0  0  0  0
    2.3005   -1.3264    0.0000 C    0  0  0  0  0  0  0  0  0  0  0  0
    3.4508   -1.9896    0.0000 C    0  0  0  0  0  0  0  0  0  0  0  0
    3.4508   -3.3264    0.0000 C    0  0  0  0  0  0  0  0  0  0  0  0
    2.3005   -3.9897    0.0000 C    0  0  0  0  0  0  0  0  0  0  0  0
    1.1503   -3.3264    0.0000 C    0  0  0  0  0  0  0  0  0  0  0  0
    1.1503   -1.9896    0.0000 C    0  0  0  0  0  0  0  0  0  0  0  0
    0.0000   -3.9897    0.0000 Cl   0  0  0  0  0  0  0  0  0  0  0  0
    4.6011   -1.3264    0.0000 O    0  0  0  0  0  0  0  0  0  0  0  0
    5.7617   -1.9896    0.0000 C    0  0  0  0  0  0  0  0  0  0  0  0
    6.9120   -1.3264    0.0000 C    0  0  0  0  0  0  0  0  0  0  0  0
    8.0622   -1.9896    0.0000 C    0  0  0  0  0  0  0  0  0  0  0  0
    8.0622   -3.3264    0.0000 C    0  0  0  0  0  0  0  0  0  0  0  0
    6.9120   -3.9897    0.0000 C    0  0  0  0  0  0  0  0  0  0  0  0
    5.7617   -3.3264    0.0000 C    0  0  0  0  0  0  0  0  0  0  0  0
    9.2125   -3.9897    0.0000 N    0  3  0  0  0  0  0  0  0  0  0  0
    9.2125   -5.3161    0.0000 O    0  0  0  0  0  0  0  0  0  0  0  0
   10.3627   -3.3264    0.0000 O    0  5  0  0  0  0  0  0  0  0  0  0
  1  2  1  0  0  0  0
  2  3  2  0  0  0  0
  2  7  1  0  0  0  0
  3  4  1  0  0  0  0
  3  9  1  0  0  0  0
  4  5  2  0  0  0  0
  5  6  1  0  0  0  0
  6  7  2  0  0  0  0
  6  8  1  0  0  0  0
  9 10  1  0  0  0  0
 10 11  2  0  0  0  0
 10 15  1  0  0  0  0
 11 12  1  0  0  0  0
 12 13  2  0  0  0  0
 13 14  1  0  0  0  0
 13 16  1  0  0  0  0
 14 15  2  0  0  0  0
 16 17  2  0  0  0  0
 16 18  1  0  0  0  0
M  END
> <ID>
934

> <Formula>
C12H7Cl2NO3

> <FW>
284.0949

> <DSSTox_CID>
970

> <DSSTox_RID>
75897

> <DSSTox_GSID>
20970

> <DSSTox_FileID_Sort>
581

> <TS_ChemName>
Nitrofen

> <TS_ChemName_Synonyms>


> <TS_CASRN>
1836-75-5

> <CASRN_ChemName_Relationship>
primary

> <TS_Description>
single chemical compound

> <ChemNote>


> <STRUCTURE_Shown>
tested chemical

> <STRUCTURE_Formula>
C12H7Cl2NO3

> <STRUCTURE_MW>
284.0949

> <STRUCTURE_ChemType>
defined organic

> <STRUCTURE_DefinedOrganicForm>
parent

> <STRUCTURE_IUPAC>
2,4-dichloro-1-(4-nitrophenoxy)benzene

> <STRUCTURE_SMILES>
Clc2cc(Cl)ccc2Oc1ccc(cc1)[N+]([O-])=O

> <STRUCTURE_SMILES_Desalt>
Clc2cc(Cl)ccc2Oc1ccc(cc1)[N+]([O-])=O

> <Substance_modify_yyyymmdd>
20080429

$$$$
