183814-30-4
ChemmineR-0915142007XD

 60 59  0  0  1  0  0  0  0  0  1 V2000
   13.3853   -3.9590    0.0000 C   0  0  0  0  0  0  0  0  0  0  0  0
   12.2384   -3.2835    0.0000 C   0  0  0  0  0  0  0  0  0  0  0  0
   12.2384   -1.9638    0.0000 C   0  0  0  0  0  0  0  0  0  0  0  0
   14.5321   -3.2835    0.0000 C   0  0  0  0  0  0  0  0  0  0  0  0
   12.2384   -5.9385    0.0000 C   0  0  0  0  0  0  0  0  0  0  0  0
   13.3853   -5.2944    0.0000 N   0  0  0  0  0  0  0  0  0  0  0  0
    8.7664   -1.2883    0.0000 N   0  0  0  0  0  0  0  0  0  0  0  0
   13.3853   -1.2883    0.0000 C   0  0  0  0  0  0  0  0  0  0  0  0
   11.0601   -5.2944    0.0000 O   0  0  0  0  0  0  0  0  0  0  0  0
   14.5321   -1.9638    0.0000 C   0  0  0  0  0  0  0  0  0  0  0  0
    9.9447   -1.9638    0.0000 C   0  0  0  0  0  0  0  0  0  0  0  0
   11.0601   -1.2883    0.0000 C   0  0  0  0  0  0  0  0  0  0  0  0
    5.3415   -1.9638    0.0000 C   0  0  0  0  0  0  0  0  0  0  0  0
    3.0321   -3.2835    0.0000 C   0  0  0  0  0  0  0  0  0  0  0  0
    6.4884   -1.2883    0.0000 C   0  0  0  0  0  0  0  0  0  0  0  0
   15.7104   -3.9747    0.0000 O   0  0  0  0  0  0  0  0  0  0  0  0
    4.1633   -1.2883    0.0000 C   0  0  0  0  0  0  0  0  0  0  0  0
    5.3415   -3.2835    0.0000 C   0  0  0  0  0  0  0  0  0  0  0  0
    3.0321   -1.9638    0.0000 C   0  0  0  0  0  0  0  0  0  0  0  0
    4.1633   -3.9590    0.0000 C   0  0  0  0  0  0  0  0  0  0  0  0
   11.0916    0.0000    0.0000 O   0  0  0  0  0  0  0  0  0  0  0  0
    7.6195   -1.9638    0.0000 C   0  0  0  0  0  0  0  0  0  0  0  0
    1.8538   -3.9747    0.0000 O   0  0  0  0  0  0  0  0  0  0  0  0
    0.7070   -3.2992    0.0000 C   0  0  0  0  0  0  0  0  0  0  0  0
    7.6195   -3.2835    0.0000 C   0  0  0  0  0  0  0  0  0  0  0  0
   12.6783  -10.9659    0.0000 C   0  0  0  0  0  0  0  0  0  0  0  0
   11.5472  -10.2903    0.0000 C   0  0  0  0  0  0  0  0  0  0  0  0
   11.5472   -8.9706    0.0000 C   0  0  0  0  0  0  0  0  0  0  0  0
   13.8409  -10.2903    0.0000 C   0  0  0  0  0  0  0  0  0  0  0  0
   11.5472  -12.9454    0.0000 C   0  0  0  0  0  0  0  0  0  0  0  0
   12.6783  -12.3013    0.0000 N   0  0  0  0  0  0  0  0  0  0  0  0
    8.0594   -8.2951    0.0000 N   0  0  0  0  0  0  0  0  0  0  0  0
   12.6783   -8.2951    0.0000 C   0  0  0  0  0  0  0  0  0  0  0  0
   10.3689  -12.3013    0.0000 O   0  0  0  0  0  0  0  0  0  0  0  0
   13.8409   -8.9706    0.0000 C   0  0  0  0  0  0  0  0  0  0  0  0
    9.2377   -8.9706    0.0000 C   0  0  0  0  0  0  0  0  0  0  0  0
   10.3689   -8.2951    0.0000 C   0  0  0  0  0  0  0  0  0  0  0  0
    4.6503   -8.9706    0.0000 C   0  0  0  0  0  0  0  0  0  0  0  0
    2.3251  -10.2903    0.0000 C   0  0  0  0  0  0  0  0  0  0  0  0
    5.7814   -8.2951    0.0000 C   0  0  0  0  0  0  0  0  0  0  0  0
   15.0034  -10.9659    0.0000 O   0  0  0  0  0  0  0  0  0  0  0  0
    3.4720   -8.2951    0.0000 C   0  0  0  0  0  0  0  0  0  0  0  0
    4.6503  -10.2903    0.0000 C   0  0  0  0  0  0  0  0  0  0  0  0
    2.3251   -8.9706    0.0000 C   0  0  0  0  0  0  0  0  0  0  0  0
    3.4720  -10.9659    0.0000 C   0  0  0  0  0  0  0  0  0  0  0  0
   10.4003   -7.0068    0.0000 O   0  0  0  0  0  0  0  0  0  0  0  0
    6.9126   -8.9706    0.0000 C   0  0  0  0  0  0  0  0  0  0  0  0
    1.1469  -10.9659    0.0000 O   0  0  0  0  0  0  0  0  0  0  0  0
    0.0000  -10.3060    0.0000 C   0  0  0  0  0  0  0  0  0  0  0  0
    6.9126  -10.2903    0.0000 C   0  0  0  0  0  0  0  0  0  0  0  0
    7.0226   -6.6141    0.0000 C   0  0  0  0  0  0  0  0  0  0  0  0
    3.5820   -5.9542    0.0000 C   0  0  0  0  0  0  0  0  0  0  0  0
    4.7288   -6.6141    0.0000 C   0  0  0  0  0  0  0  0  0  0  0  0
    5.8757   -5.9542    0.0000 C   0  0  0  0  0  0  0  0  0  0  0  0
    7.0226   -7.9338    0.0000 O   0  0  0  0  0  0  0  0  0  0  0  0
    3.5820   -4.6346    0.0000 O   0  0  0  0  0  0  0  0  0  0  0  0
    8.1694   -5.9542    0.0000 O   0  0  0  0  0  0  0  0  0  0  0  0
    2.4351   -6.6141    0.0000 O   0  0  0  0  0  0  0  0  0  0  0  0
    6.0642  -12.4426    0.0000 O   0  0  0  0  0  0  0  0  0  0  0  0
    1.6025  -12.4426    0.0000 O   0  0  0  0  0  0  0  0  0  0  0  0
  1  2  1  0  0  0  0
  1  4  2  0  0  0  0
  1  6  1  0  0  0  0
  2  3  2  0  0  0  0
  3 12  1  0  0  0  0
  3  8  1  0  0  0  0
  4 10  1  0  0  0  0
  4 16  1  0  0  0  0
  5  6  1  0  0  0  0
  5  9  2  0  0  0  0
  7 11  1  0  0  0  0
  7 22  1  0  0  0  0
  8 10  2  0  0  0  0
 11 12  1  0  0  0  0
 12 21  1  1  0  0  0
 13 15  1  0  0  0  0
 13 17  1  0  0  0  0
 13 18  2  0  0  0  0
 14 20  2  0  0  0  0
 14 23  1  0  0  0  0
 14 19  1  0  0  0  0
 15 22  1  0  0  0  0
 17 19  2  0  0  0  0
 18 20  1  0  0  0  0
 22 25  1  1  0  0  0
 23 24  1  0  0  0  0
 26 27  1  0  0  0  0
 26 29  2  0  0  0  0
 26 31  1  0  0  0  0
 27 28  2  0  0  0  0
 28 37  1  0  0  0  0
 28 33  1  0  0  0  0
 29 35  1  0  0  0  0
 29 41  1  0  0  0  0
 30 31  1  0  0  0  0
 30 34  2  0  0  0  0
 32 36  1  0  0  0  0
 32 47  1  0  0  0  0
 33 35  2  0  0  0  0
 36 37  1  0  0  0  0
 37 46  1  1  0  0  0
 38 40  1  0  0  0  0
 38 42  1  0  0  0  0
 38 43  2  0  0  0  0
 39 45  2  0  0  0  0
 39 48  1  0  0  0  0
 39 44  1  0  0  0  0
 40 47  1  0  0  0  0
 42 44  2  0  0  0  0
 43 45  1  0  0  0  0
 47 50  1  1  0  0  0
 48 49  1  0  0  0  0
 51 54  1  0  0  0  0
 51 55  2  0  0  0  0
 51 57  1  0  0  0  0
 52 53  1  0  0  0  0
 52 56  2  0  0  0  0
 52 58  1  0  0  0  0
 53 54  2  0  0  0  0
M  END
> <ID>
11121

> <Formula>
C42H56N4O14

> <FW>
840.9124 (344.4049+344.4049+116.0722+18.0153+18.0153)

> <DSSTox_CID>
25679

> <DSSTox_RID>
81053

> <DSSTox_GSID>
45679

> <DSSTox_FileID_Sort>
5734

> <TS_ChemName>
Formoterol hemifumarate dihydrate

> <TS_ChemName_Synonyms>


> <TS_CASRN>
183814-30-4

> <CASRN_ChemName_Relationship>
primary

> <TS_Description>
single chemical compound

> <ChemNote>


> <STRUCTURE_Shown>
tested chemical

> <STRUCTURE_Formula>
C42H56N4O14

> <STRUCTURE_MW>
840.9124

> <STRUCTURE_ChemType>
defined organic

> <STRUCTURE_DefinedOrganicForm>
complex

> <STRUCTURE_IUPAC>
N-{2-hydroxy-5-[(1S)-1-hydroxy-2-{[(2S)-1-(4-methoxyphenyl)propan-2-yl]amino}ethyl]phenyl}formamide (2E)-but-2-enedioate hydrate (2:1:2)

> <STRUCTURE_SMILES>
O.O.Oc1ccc(cc1NC=O)[C@H](O)CN[C@@H](C)Cc2ccc(OC)cc2.O=C(O)/C=C/C(=O)O.COc1ccc(cc1)C[C@H](C)NC[C@@H](O)c2ccc(O)c(NC=O)c2

> <STRUCTURE_SMILES_Desalt>
Oc1ccc(cc1NC=O)[C@H](O)CN[C@@H](C)Cc2ccc(OC)cc2

> <Substance_modify_yyyymmdd>
20100107

$$$$
