184036-34-8
ChemmineR-0915142007XD

 29 32  0  0  0  0  0  0  0  0  1 V2000
    2.6188    0.0000    0.0000 C    0  0  0  0  0  0  0  0  0  0  0  0
    3.7730   -0.6702    0.0000 C    0  0  0  0  0  0  0  0  0  0  0  0
    3.7730   -1.9982    0.0000 C    0  0  0  0  0  0  0  0  0  0  0  0
    2.6188   -2.6560    0.0000 C    0  0  0  0  0  0  0  0  0  0  0  0
    2.6188   -3.9840    0.0000 C    0  0  0  0  0  0  0  0  0  0  0  0
    1.4645   -4.6666    0.0000 O    0  0  0  0  0  0  0  0  0  0  0  0
    3.7730   -4.6666    0.0000 C    0  0  0  0  0  0  0  0  0  0  0  0
    3.9096   -5.9822    0.0000 C    0  0  0  0  0  0  0  0  0  0  0  0
    5.2127   -6.2553    0.0000 C    0  0  0  0  0  0  0  0  0  0  0  0
    5.8829   -5.1010    0.0000 C    0  0  0  0  0  0  0  0  0  0  0  0
    4.9893   -4.1205    0.0000 S    0  0  0  0  0  0  0  0  0  0  0  0
    2.9291   -6.8634    0.0000 S    0  0  0  0  0  0  0  0  0  0  0  0
    2.0479   -5.8829    0.0000 O    0  0  0  0  0  0  0  0  0  0  0  0
    3.8103   -7.8563    0.0000 O    0  0  0  0  0  0  0  0  0  0  0  0
    1.9237   -7.7695    0.0000 N    0  0  0  0  0  0  0  0  0  0  0  0
    2.1968   -9.0726    0.0000 C    0  0  0  0  0  0  0  0  0  0  0  0
    1.3404  -10.0531    0.0000 C    0  0  0  0  0  0  0  0  0  0  0  0
    0.0000   -9.9042    0.0000 Cl   0  0  0  0  0  0  0  0  0  0  0  0
    1.9734  -11.1950    0.0000 C    0  0  0  0  0  0  0  0  0  0  0  0
    3.3014  -10.9219    0.0000 N    0  0  0  0  0  0  0  0  0  0  0  0
    3.4255   -9.5939    0.0000 O    0  0  0  0  0  0  0  0  0  0  0  0
    1.4521  -12.4113    0.0000 C    0  0  0  0  0  0  0  0  0  0  0  0
    4.9149   -2.6560    0.0000 C    0  0  0  0  0  0  0  0  0  0  0  0
    6.0815   -1.9982    0.0000 C    0  0  0  0  0  0  0  0  0  0  0  0
    7.3475   -2.4078    0.0000 O    0  0  0  0  0  0  0  0  0  0  0  0
    8.1170   -1.3404    0.0000 C    0  0  0  0  0  0  0  0  0  0  0  0
    7.3475   -0.2606    0.0000 O    0  0  0  0  0  0  0  0  0  0  0  0
    6.0815   -0.6702    0.0000 C    0  0  0  0  0  0  0  0  0  0  0  0
    4.9149    0.0000    0.0000 C    0  0  0  0  0  0  0  0  0  0  0  0
  1  2  1  0  0  0  0
  2  3  2  0  0  0  0
  2 29  1  0  0  0  0
  3  4  1  0  0  0  0
  3 23  1  0  0  0  0
  4  5  1  0  0  0  0
  5  6  2  0  0  0  0
  5  7  1  0  0  0  0
  7  8  2  0  0  0  0
  7 11  1  0  0  0  0
  8  9  1  0  0  0  0
  8 12  1  0  0  0  0
  9 10  2  0  0  0  0
 10 11  1  0  0  0  0
 12 13  2  0  0  0  0
 12 14  2  0  0  0  0
 12 15  1  0  0  0  0
 15 16  1  0  0  0  0
 16 17  2  0  0  0  0
 16 21  1  0  0  0  0
 17 18  1  0  0  0  0
 17 19  1  0  0  0  0
 19 20  2  0  0  0  0
 19 22  1  0  0  0  0
 20 21  1  0  0  0  0
 23 24  2  0  0  0  0
 24 25  1  0  0  0  0
 24 28  1  0  0  0  0
 25 26  1  0  0  0  0
 26 27  1  0  0  0  0
 27 28  1  0  0  0  0
 28 29  2  0  0  0  0
M  END
> <ID>
16075

> <Formula>
C18H15ClN2O6S2

> <FW>
454.9045

> <DSSTox_CID>
31462

> <DSSTox_RID>
97348

> <DSSTox_GSID>
57673

> <DSSTox_FileID_Sort>
8415

> <TS_ChemName>
Sitaxentan

> <TS_ChemName_Synonyms>


> <TS_CASRN>
184036-34-8

> <CASRN_ChemName_Relationship>
primary

> <TS_Description>
single chemical compound

> <ChemNote>


> <STRUCTURE_Shown>
tested chemical

> <STRUCTURE_Formula>
C18H15ClN2O6S2

> <STRUCTURE_MW>
454.9045

> <STRUCTURE_ChemType>
defined organic

> <STRUCTURE_DefinedOrganicForm>
parent

> <STRUCTURE_IUPAC>
N-(4-chloro-3-methyl-1,2-oxazol-5-yl)-2-[(6-methyl-1,3-benzodioxol-5-yl)acetyl]thiophene-3-sulfonamide

> <STRUCTURE_SMILES>
O=C(Cc1cc2OCOc2cc1C)c3sccc3S(=O)(=O)Nc4onc(C)c4Cl

> <STRUCTURE_SMILES_Desalt>
O=C(Cc1cc2OCOc2cc1C)c3sccc3S(=O)(=O)Nc4onc(C)c4Cl

> <Substance_modify_yyyymmdd>
20131018

$$$$
