1841-19-6
ChemmineR-0915142007XD

 35 39  0  0  0  0  0  0  0  0  1 V2000
   11.9300   -2.2964    0.0000 C   0  0  0  0  0  0  0  0  0  0  0  0
   12.7002   -3.4026    0.0000 N   0  0  0  0  0  0  0  0  0  0  0  0
   14.0024   -1.6663    0.0000 N   0  0  0  0  0  0  0  0  0  0  0  0
   12.8122   -1.2042    0.0000 C   0  0  0  0  0  0  0  0  0  0  0  0
   14.0024   -2.9685    0.0000 C   0  0  0  0  0  0  0  0  0  0  0  0
   11.2999   -1.1622    0.0000 C   0  0  0  0  0  0  0  0  0  0  0  0
   11.2999   -3.5006    0.0000 C   0  0  0  0  0  0  0  0  0  0  0  0
    9.3116   -2.3244    0.0000 N   0  0  0  0  0  0  0  0  0  0  0  0
   12.7002   -4.7328    0.0000 C   0  0  0  0  0  0  0  0  0  0  0  0
    5.3629   -2.3244    0.0000 C   0  0  0  0  0  0  0  0  0  0  0  0
    6.0210   -3.5006    0.0000 C   0  0  0  0  0  0  0  0  0  0  0  0
    4.0047   -2.3244    0.0000 C   0  0  0  0  0  0  0  0  0  0  0  0
   12.4761    0.0000    0.0000 O   0  0  0  0  0  0  0  0  0  0  0  0
    9.9697   -3.5006    0.0000 C   0  0  0  0  0  0  0  0  0  0  0  0
    9.9697   -1.1622    0.0000 C   0  0  0  0  0  0  0  0  0  0  0  0
    3.3466   -3.5006    0.0000 C   0  0  0  0  0  0  0  0  0  0  0  0
    7.3372   -3.5006    0.0000 C   0  0  0  0  0  0  0  0  0  0  0  0
    3.3466   -1.1762    0.0000 C   0  0  0  0  0  0  0  0  0  0  0  0
    5.3629   -4.6488    0.0000 C   0  0  0  0  0  0  0  0  0  0  0  0
    1.3442   -2.3244    0.0000 C   0  0  0  0  0  0  0  0  0  0  0  0
    7.3372   -5.7830    0.0000 C   0  0  0  0  0  0  0  0  0  0  0  0
    2.0163   -1.1762    0.0000 C   0  0  0  0  0  0  0  0  0  0  0  0
    6.0210   -5.7830    0.0000 C   0  0  0  0  0  0  0  0  0  0  0  0
    2.0163   -3.5006    0.0000 C   0  0  0  0  0  0  0  0  0  0  0  0
    7.9954   -4.6488    0.0000 C   0  0  0  0  0  0  0  0  0  0  0  0
    0.0000   -2.3244    0.0000 F   0  0  0  0  0  0  0  0  0  0  0  0
    7.9954   -6.9592    0.0000 F   0  0  0  0  0  0  0  0  0  0  0  0
    7.9814   -2.3244    0.0000 C   0  0  0  0  0  0  0  0  0  0  0  0
    7.3372   -1.1762    0.0000 C   0  0  0  0  0  0  0  0  0  0  0  0
    6.0210   -1.1762    0.0000 C   0  0  0  0  0  0  0  0  0  0  0  0
   13.8624   -5.4189    0.0000 C   0  0  0  0  0  0  0  0  0  0  0  0
   11.5660   -5.4189    0.0000 C   0  0  0  0  0  0  0  0  0  0  0  0
   13.8624   -6.7491    0.0000 C   0  0  0  0  0  0  0  0  0  0  0  0
   11.5660   -6.7491    0.0000 C   0  0  0  0  0  0  0  0  0  0  0  0
   12.7002   -7.4073    0.0000 C   0  0  0  0  0  0  0  0  0  0  0  0
  1  2  1  0  0  0  0
  1  4  1  0  0  0  0
  1  6  1  0  0  0  0
  1  7  1  0  0  0  0
  2  5  1  0  0  0  0
  2  9  1  0  0  0  0
  3  4  1  0  0  0  0
  3  5  1  0  0  0  0
  4 13  2  0  0  0  0
  6 15  1  0  0  0  0
  7 14  1  0  0  0  0
  8 14  1  0  0  0  0
  8 28  1  0  0  0  0
  8 15  1  0  0  0  0
  9 31  1  0  0  0  0
  9 32  2  0  0  0  0
 10 30  1  0  0  0  0
 10 11  1  0  0  0  0
 10 12  1  0  0  0  0
 11 17  2  0  0  0  0
 11 19  1  0  0  0  0
 12 16  2  0  0  0  0
 12 18  1  0  0  0  0
 16 24  1  0  0  0  0
 17 25  1  0  0  0  0
 18 22  2  0  0  0  0
 19 23  2  0  0  0  0
 20 22  1  0  0  0  0
 20 26  1  0  0  0  0
 20 24  2  0  0  0  0
 21 23  1  0  0  0  0
 21 27  1  0  0  0  0
 21 25  2  0  0  0  0
 28 29  1  0  0  0  0
 29 30  1  0  0  0  0
 31 33  2  0  0  0  0
 32 34  1  0  0  0  0
 33 35  1  0  0  0  0
 34 35  2  0  0  0  0
M  END
> <ID>
10775

> <Formula>
C29H31F2N3O

> <FW>
475.5727

> <DSSTox_CID>
25152

> <DSSTox_RID>
80706

> <DSSTox_GSID>
45152

> <DSSTox_FileID_Sort>
5387

> <TS_ChemName>
Fluspirilene

> <TS_ChemName_Synonyms>


> <TS_CASRN>
1841-19-6

> <CASRN_ChemName_Relationship>
primary

> <TS_Description>
single chemical compound

> <ChemNote>


> <STRUCTURE_Shown>
tested chemical

> <STRUCTURE_Formula>
C29H31F2N3O

> <STRUCTURE_MW>
475.5727

> <STRUCTURE_ChemType>
defined organic

> <STRUCTURE_DefinedOrganicForm>
parent

> <STRUCTURE_IUPAC>
8-[4,4-bis(4-fluorophenyl)butyl]-1-phenyl-1,3,8-triazaspiro[4.5]decan-4-one

> <STRUCTURE_SMILES>
Fc1ccc(cc1)C(CCCN2CCC4(CC2)C(=O)NCN4c3ccccc3)c5ccc(F)cc5

> <STRUCTURE_SMILES_Desalt>
Fc1ccc(cc1)C(CCCN2CCC4(CC2)C(=O)NCN4c3ccccc3)c5ccc(F)cc5

> <Substance_modify_yyyymmdd>
20100107

$$$$
