1843-05-6
ChemmineR-0915142007XD

 24 25  0  0  0  0  0  0  0  0  1 V2000
   13.8413   -1.3306    0.0000 C   0  0  0  0  0  0  0  0  0  0  0  0
   13.8413    0.0000    0.0000 O   0  0  0  0  0  0  0  0  0  0  0  0
   12.6836   -2.0045    0.0000 C   0  0  0  0  0  0  0  0  0  0  0  0
   12.6836   -3.3351    0.0000 C   0  0  0  0  0  0  0  0  0  0  0  0
   11.5258   -1.3306    0.0000 C   0  0  0  0  0  0  0  0  0  0  0  0
   11.5258   -3.9917    0.0000 C   0  0  0  0  0  0  0  0  0  0  0  0
   10.3680   -2.0045    0.0000 C   0  0  0  0  0  0  0  0  0  0  0  0
   10.3680   -3.3351    0.0000 C   0  0  0  0  0  0  0  0  0  0  0  0
   13.8413   -3.9917    0.0000 O   0  0  0  0  0  0  0  0  0  0  0  0
    9.2103   -3.9917    0.0000 O   0  0  0  0  0  0  0  0  0  0  0  0
    8.0698   -3.3351    0.0000 C   0  0  0  0  0  0  0  0  0  0  0  0
    6.9120   -3.9917    0.0000 C   0  0  0  0  0  0  0  0  0  0  0  0
    5.7543   -3.3351    0.0000 C   0  0  0  0  0  0  0  0  0  0  0  0
    4.6138   -3.9917    0.0000 C   0  0  0  0  0  0  0  0  0  0  0  0
    3.4560   -3.3351    0.0000 C   0  0  0  0  0  0  0  0  0  0  0  0
    2.3155   -3.9917    0.0000 C   0  0  0  0  0  0  0  0  0  0  0  0
    1.1578   -3.3351    0.0000 C   0  0  0  0  0  0  0  0  0  0  0  0
    0.0000   -3.9917    0.0000 C   0  0  0  0  0  0  0  0  0  0  0  0
   14.9645   -2.0045    0.0000 C   0  0  0  0  0  0  0  0  0  0  0  0
   16.1223   -1.3306    0.0000 C   0  0  0  0  0  0  0  0  0  0  0  0
   14.9645   -3.3351    0.0000 C   0  0  0  0  0  0  0  0  0  0  0  0
   17.2801   -2.0045    0.0000 C   0  0  0  0  0  0  0  0  0  0  0  0
   16.1223   -3.9917    0.0000 C   0  0  0  0  0  0  0  0  0  0  0  0
   17.2801   -3.3351    0.0000 C   0  0  0  0  0  0  0  0  0  0  0  0
  1  2  2  0  0  0  0
  1  3  1  0  0  0  0
  1 19  1  0  0  0  0
  3  4  2  0  0  0  0
  3  5  1  0  0  0  0
  4  6  1  0  0  0  0
  4  9  1  0  0  0  0
  5  7  2  0  0  0  0
  6  8  2  0  0  0  0
  7  8  1  0  0  0  0
  8 10  1  0  0  0  0
 10 11  1  0  0  0  0
 11 12  1  0  0  0  0
 12 13  1  0  0  0  0
 13 14  1  0  0  0  0
 14 15  1  0  0  0  0
 15 16  1  0  0  0  0
 16 17  1  0  0  0  0
 17 18  1  0  0  0  0
 19 20  2  0  0  0  0
 19 21  1  0  0  0  0
 20 22  1  0  0  0  0
 21 23  2  0  0  0  0
 22 24  2  0  0  0  0
 23 24  1  0  0  0  0
M  END
> <ID>
5162

> <Formula>
C21H26O3

> <FW>
326.4293

> <DSSTox_CID>
7441

> <DSSTox_RID>
78456

> <DSSTox_GSID>
27441

> <DSSTox_FileID_Sort>
3139

> <TS_ChemName>
Octabenzone

> <TS_ChemName_Synonyms>
2-Hydroxy-4-octyloxybenzophenone (Methanone, [2-hydroxy-4-(octyloxy)phenyl]phenyl-)

> <TS_CASRN>
1843-05-6

> <CASRN_ChemName_Relationship>
primary

> <TS_Description>
single chemical compound

> <ChemNote>


> <STRUCTURE_Shown>
tested chemical

> <STRUCTURE_Formula>
C21H26O3

> <STRUCTURE_MW>
326.4293

> <STRUCTURE_ChemType>
defined organic

> <STRUCTURE_DefinedOrganicForm>
parent

> <STRUCTURE_IUPAC>
[2-hydroxy-4-(octyloxy)phenyl](phenyl)methanone

> <STRUCTURE_SMILES>
O=C(c1ccc(cc1O)OCCCCCCCC)c2ccccc2

> <STRUCTURE_SMILES_Desalt>
O=C(c1ccc(cc1O)OCCCCCCCC)c2ccccc2

> <Substance_modify_yyyymmdd>
20080429

$$$$
