18436-37-8
ChemmineR-0915142007XD

 12 12  0  0  0  0  0  0  0  0  1 V2000
    0.0000   -2.1231    0.0000 O   0  0  0  0  0  0  0  0  0  0  0  0
    0.4193   -3.3899    0.0000 C   0  0  0  0  0  0  0  0  0  0  0  0
    1.0616   -1.3381    0.0000 C   0  0  0  0  0  0  0  0  0  0  0  0
    1.7485   -3.3810    0.0000 C   0  0  0  0  0  0  0  0  0  0  0  0
    2.1499   -2.1231    0.0000 C   0  0  0  0  0  0  0  0  0  0  0  0
    1.0616    0.0000    0.0000 O   0  0  0  0  0  0  0  0  0  0  0  0
    3.4256   -1.7039    0.0000 C   0  0  0  0  0  0  0  0  0  0  0  0
    4.4068   -2.5870    0.0000 C   0  0  0  0  0  0  0  0  0  0  0  0
    5.6736   -2.1677    0.0000 C   0  0  0  0  0  0  0  0  0  0  0  0
    6.6727   -3.0420    0.0000 C   0  0  0  0  0  0  0  0  0  0  0  0
    7.9216   -2.6227    0.0000 C   0  0  0  0  0  0  0  0  0  0  0  0
    8.9207   -3.5058    0.0000 C   0  0  0  0  0  0  0  0  0  0  0  0
  1  2  1  0  0  0  0
  1  3  1  0  0  0  0
  2  4  1  0  0  0  0
  3  5  1  0  0  0  0
  3  6  2  0  0  0  0
  4  5  1  0  0  0  0
  5  7  1  0  0  0  0
  7  8  1  0  0  0  0
  8  9  1  0  0  0  0
  9 10  1  0  0  0  0
 10 11  1  0  0  0  0
 11 12  1  0  0  0  0
M  END
> <ID>
12578

> <Formula>
C10H18O2

> <FW>
170.2487

> <DSSTox_CID>
27437

> <DSSTox_RID>
82347

> <DSSTox_GSID>
47437

> <DSSTox_FileID_Sort>
7028

> <TS_ChemName>
alpha-Hexyl-gamma-butyrolactone

> <TS_ChemName_Synonyms>
3-Hexyldihydrofuran-2(3H)-one (alpha-Hexyl-gamma-butyrolactone)

> <TS_CASRN>
18436-37-8

> <CASRN_ChemName_Relationship>
primary

> <TS_Description>
single chemical compound

> <ChemNote>


> <STRUCTURE_Shown>
tested chemical

> <STRUCTURE_Formula>
C10H18O2

> <STRUCTURE_MW>
170.2487

> <STRUCTURE_ChemType>
defined organic

> <STRUCTURE_DefinedOrganicForm>
parent

> <STRUCTURE_IUPAC>
3-hexyldihydrofuran-2(3H)-one

> <STRUCTURE_SMILES>
O=C1OCCC1CCCCCC

> <STRUCTURE_SMILES_Desalt>
O=C1OCCC1CCCCCC

> <Substance_modify_yyyymmdd>
20100620

$$$$
