184475-35-2
ChemmineR-0915142007XD

 31 34  0  0  0  0  0  0  0  0  1 V2000
    8.0626   -6.6382    0.0000 C    0  0  0  0  0  0  0  0  0  0  0  0
    9.2105   -5.9744    0.0000 C    0  0  0  0  0  0  0  0  0  0  0  0
    8.0626   -7.9658    0.0000 C    0  0  0  0  0  0  0  0  0  0  0  0
    6.9148   -5.9744    0.0000 C    0  0  0  0  0  0  0  0  0  0  0  0
   10.3860   -6.6382    0.0000 N    0  0  0  0  0  0  0  0  0  0  0  0
    6.9148   -8.6297    0.0000 C    0  0  0  0  0  0  0  0  0  0  0  0
    9.2105   -4.6467    0.0000 N    0  0  0  0  0  0  0  0  0  0  0  0
    5.7669   -6.6382    0.0000 C    0  0  0  0  0  0  0  0  0  0  0  0
    5.7669   -7.9658    0.0000 C    0  0  0  0  0  0  0  0  0  0  0  0
   12.6817   -3.9829    0.0000 C    0  0  0  0  0  0  0  0  0  0  0  0
    9.2105   -8.6297    0.0000 N    0  0  0  0  0  0  0  0  0  0  0  0
   11.5339   -4.6467    0.0000 C    0  0  0  0  0  0  0  0  0  0  0  0
    2.3234   -1.9915    0.0000 N    0  0  0  0  0  0  0  0  0  0  0  0
   10.3860   -7.9658    0.0000 C    0  0  0  0  0  0  0  0  0  0  0  0
   10.3860   -3.9829    0.0000 C    0  0  0  0  0  0  0  0  0  0  0  0
   12.6817   -2.6553    0.0000 C    0  0  0  0  0  0  0  0  0  0  0  0
    0.0000   -0.6638    0.0000 O    0  0  0  0  0  0  0  0  0  0  0  0
   11.5339   -1.9915    0.0000 C    0  0  0  0  0  0  0  0  0  0  0  0
   13.8296   -4.6467    0.0000 Cl   0  0  0  0  0  0  0  0  0  0  0  0
   10.3860   -2.6553    0.0000 C    0  0  0  0  0  0  0  0  0  0  0  0
   13.8296   -1.9915    0.0000 F    0  0  0  0  0  0  0  0  0  0  0  0
    4.6191   -5.9744    0.0000 O    0  0  0  0  0  0  0  0  0  0  0  0
    4.6191   -8.6297    0.0000 O    0  0  0  0  0  0  0  0  0  0  0  0
    3.4712   -2.6553    0.0000 C    0  0  0  0  0  0  0  0  0  0  0  0
    3.4712   -3.9829    0.0000 C    0  0  0  0  0  0  0  0  0  0  0  0
    1.1755   -2.6553    0.0000 C    0  0  0  0  0  0  0  0  0  0  0  0
    2.3234   -0.6638    0.0000 C    0  0  0  0  0  0  0  0  0  0  0  0
    1.1755    0.0000    0.0000 C    0  0  0  0  0  0  0  0  0  0  0  0
    0.0000   -1.9915    0.0000 C    0  0  0  0  0  0  0  0  0  0  0  0
    4.6191   -4.6467    0.0000 C    0  0  0  0  0  0  0  0  0  0  0  0
    3.4712   -7.9658    0.0000 C    0  0  0  0  0  0  0  0  0  0  0  0
  1  2  1  0  0  0  0
  1  3  1  0  0  0  0
  1  4  2  0  0  0  0
  2  5  2  0  0  0  0
  2  7  1  0  0  0  0
  3  6  2  0  0  0  0
  3 11  1  0  0  0  0
  4  8  1  0  0  0  0
  5 14  1  0  0  0  0
  6  9  1  0  0  0  0
  7 15  1  0  0  0  0
  8  9  2  0  0  0  0
  8 22  1  0  0  0  0
  9 23  1  0  0  0  0
 10 12  1  0  0  0  0
 10 19  1  0  0  0  0
 10 16  2  0  0  0  0
 11 14  2  0  0  0  0
 12 15  2  0  0  0  0
 13 24  1  0  0  0  0
 13 26  1  0  0  0  0
 13 27  1  0  0  0  0
 15 20  1  0  0  0  0
 16 18  1  0  0  0  0
 16 21  1  0  0  0  0
 17 28  1  0  0  0  0
 17 29  1  0  0  0  0
 18 20  2  0  0  0  0
 22 30  1  0  0  0  0
 23 31  1  0  0  0  0
 24 25  1  0  0  0  0
 25 30  1  0  0  0  0
 26 29  1  0  0  0  0
 27 28  1  0  0  0  0
M  END
> <ID>
8056

> <Formula>
C22H24ClFN4O3

> <FW>
446.9024

> <DSSTox_CID>
21034

> <DSSTox_RID>
79614

> <DSSTox_GSID>
41034

> <DSSTox_FileID_Sort>
4296

> <TS_ChemName>
Gefitinib

> <TS_ChemName_Synonyms>


> <TS_CASRN>
184475-35-2

> <CASRN_ChemName_Relationship>
primary

> <TS_Description>
single chemical compound

> <ChemNote>


> <STRUCTURE_Shown>
tested chemical

> <STRUCTURE_Formula>
C22H24ClFN4O3

> <STRUCTURE_MW>
446.9024

> <STRUCTURE_ChemType>
defined organic

> <STRUCTURE_DefinedOrganicForm>
parent

> <STRUCTURE_IUPAC>
N-(3-chloro-4-fluorophenyl)-7-methoxy-6-[3-(morpholin-4-yl)propoxy]quinazolin-4-amine

> <STRUCTURE_SMILES>
Fc1ccc(cc1Cl)Nc2ncnc3cc(OC)c(cc23)OCCCN4CCOCC4

> <STRUCTURE_SMILES_Desalt>
Fc1ccc(cc1Cl)Nc2ncnc3cc(OC)c(cc23)OCCCN4CCOCC4

> <Substance_modify_yyyymmdd>
20080429

$$$$
