184653-84-7
ChemmineR-0915142007XD

 26 28  0  0  1  0  0  0  0  0  1 V2000
    1.1517   -4.4916    0.0000 C   0  0  0  0  0  0  0  0  0  0  0  0
    1.1517   -3.1619    0.0000 C   0  0  0  0  0  0  0  0  0  0  0  0
    0.0000   -2.4814    0.0000 O   0  0  0  0  0  0  0  0  0  0  0  0
    2.3139   -2.4814    0.0000 C   0  0  0  0  0  0  0  0  0  0  0  0
    2.3139   -1.1517    0.0000 C   0  0  0  0  0  0  0  0  0  0  0  0
    3.4656   -0.4921    0.0000 C   0  0  0  0  0  0  0  0  0  0  0  0
    4.6173   -1.1517    0.0000 C   0  0  0  0  0  0  0  0  0  0  0  0
    5.7585   -0.4921    0.0000 O   0  0  0  0  0  0  0  0  0  0  0  0
    6.9102   -1.1517    0.0000 C   0  0  0  0  0  0  0  0  0  0  0  0
    8.2399   -1.1517    0.0000 C   0  0  0  0  0  0  0  0  0  0  0  0
    7.5803    0.0000    0.0000 C   0  0  0  0  0  0  0  0  0  0  0  0
    6.9102   -2.4814    0.0000 C   0  0  0  0  0  0  0  0  0  0  0  0
    8.0619   -3.1619    0.0000 O   0  0  0  0  0  0  0  0  0  0  0  0
    5.7585   -3.1619    0.0000 C   0  0  0  0  0  0  0  0  0  0  0  0
    5.7585   -4.4916    0.0000 N   0  0  0  0  0  0  0  0  0  0  0  0
    4.6173   -5.1512    0.0000 C   0  0  0  0  0  0  0  0  0  0  0  0
    3.4656   -4.4916    0.0000 O   0  0  0  0  0  0  0  0  0  0  0  0
    4.6173   -6.4809    0.0000 C   0  0  0  0  0  0  0  0  0  0  0  0
    5.7585   -7.1510    0.0000 C   0  0  0  0  0  0  0  0  0  0  0  0
    5.7585   -8.4807    0.0000 C   0  0  0  0  0  0  0  0  0  0  0  0
    4.6173   -9.1403    0.0000 C   0  0  0  0  0  0  0  0  0  0  0  0
    4.6173  -10.4700    0.0000 F   0  0  0  0  0  0  0  0  0  0  0  0
    3.4656   -8.4807    0.0000 C   0  0  0  0  0  0  0  0  0  0  0  0
    3.4656   -7.1510    0.0000 C   0  0  0  0  0  0  0  0  0  0  0  0
    4.6173   -2.4814    0.0000 C   0  0  0  0  0  0  0  0  0  0  0  0
    3.4656   -3.1619    0.0000 C   0  0  0  0  0  0  0  0  0  0  0  0
  1  2  1  0  0  0  0
  2  3  2  0  0  0  0
  2  4  1  0  0  0  0
  4  5  1  0  0  0  0
  4 26  2  0  0  0  0
  5  6  2  0  0  0  0
  6  7  1  0  0  0  0
  7  8  1  0  0  0  0
  7 25  2  0  0  0  0
  8  9  1  0  0  0  0
  9 10  1  0  0  0  0
  9 11  1  0  0  0  0
  9 12  1  0  0  0  0
 12 13  1  6  0  0  0
 12 14  1  0  0  0  0
 14 15  1  1  0  0  0
 14 25  1  0  0  0  0
 15 16  1  0  0  0  0
 16 17  2  0  0  0  0
 16 18  1  0  0  0  0
 18 19  1  0  0  0  0
 18 24  2  0  0  0  0
 19 20  2  0  0  0  0
 20 21  1  0  0  0  0
 21 22  1  0  0  0  0
 21 23  2  0  0  0  0
 23 24  1  0  0  0  0
 25 26  1  0  0  0  0
M  END
> <ID>
12461

> <Formula>
C20H20FNO4

> <FW>
357.3755

> <DSSTox_CID>
27319

> <DSSTox_RID>
82267

> <DSSTox_GSID>
47319

> <DSSTox_FileID_Sort>
6948

> <TS_ChemName>
Carabersat

> <TS_ChemName_Synonyms>


> <TS_CASRN>
184653-84-7

> <CASRN_ChemName_Relationship>
primary

> <TS_Description>
single chemical compound

> <ChemNote>
stereochem

> <STRUCTURE_Shown>
tested chemical

> <STRUCTURE_Formula>
C20H20FNO4

> <STRUCTURE_MW>
357.3755

> <STRUCTURE_ChemType>
defined organic

> <STRUCTURE_DefinedOrganicForm>
parent

> <STRUCTURE_IUPAC>
N-[(3R,4S)-6-acetyl-3-hydroxy-2,2-dimethyl-3,4-dihydro-2H-chromen-4-yl]-4-fluorobenzamide

> <STRUCTURE_SMILES>
Fc1ccc(cc1)C(=O)N[C@H]2c3cc(ccc3OC(C)(C)[C@@H]2O)C(C)=O

> <STRUCTURE_SMILES_Desalt>
Fc1ccc(cc1)C(=O)N[C@H]2c3cc(ccc3OC(C)(C)[C@@H]2O)C(C)=O

> <Substance_modify_yyyymmdd>
20130910

$$$$
