18467-77-1
ChemmineR-0915142007XD

 22 24  0  0  1  0  0  0  0  0  1 V2000
    5.6888   -0.8186    0.0000 O   0  0  0  0  0  0  0  0  0  0  0  0
    4.9033   -1.8770    0.0000 C   0  0  0  0  0  0  0  0  0  0  0  0
    5.6888   -2.9519    0.0000 C   0  0  0  0  0  0  0  0  0  0  0  0
    6.9374   -2.5467    0.0000 O   0  0  0  0  0  0  0  0  0  0  0  0
    6.9374   -1.1411    0.0000 C   0  0  0  0  0  0  0  0  0  0  0  0
    6.4744   -4.0434    0.0000 C   0  0  0  0  0  0  0  0  0  0  0  0
    7.7891   -3.8780    0.0000 O   0  0  0  0  0  0  0  0  0  0  0  0
    5.9286   -5.2589    0.0000 O   0  0  0  0  0  0  0  0  0  0  0  0
    3.6382   -2.2904    0.0000 C   0  0  0  0  0  0  0  0  0  0  0  0
    2.4641   -1.6207    0.0000 O   0  0  0  0  0  0  0  0  0  0  0  0
    1.3313   -2.2904    0.0000 C   0  0  0  0  0  0  0  0  0  0  0  0
    1.3313   -3.6217    0.0000 O   0  0  0  0  0  0  0  0  0  0  0  0
    2.4641   -4.2832    0.0000 C   0  0  0  0  0  0  0  0  0  0  0  0
    3.6382   -3.6217    0.0000 C   0  0  0  0  0  0  0  0  0  0  0  0
    4.9033   -4.0434    0.0000 O   0  0  0  0  0  0  0  0  0  0  0  0
    0.0000   -2.2904    0.0000 C   0  0  0  0  0  0  0  0  0  0  0  0
    0.6532   -1.1245    0.0000 C   0  0  0  0  0  0  0  0  0  0  0  0
    7.4831    0.0000    0.0000 C   0  0  0  0  0  0  0  0  0  0  0  0
    8.2687   -1.1411    0.0000 C   0  0  0  0  0  0  0  0  0  0  0  0
    3.6382   -0.9674    0.0000 H   0  0  0  0  0  0  0  0  0  0  0  0
    3.6382   -4.9529    0.0000 H   0  0  0  0  0  0  0  0  0  0  0  0
    4.9033   -0.5457    0.0000 H   0  0  0  0  0  0  0  0  0  0  0  0
  1  5  1  0  0  0  0
  1  2  1  0  0  0  0
  2  3  1  0  0  0  0
  2  9  1  0  0  0  0
  2 22  1  1  0  0  0
  3  6  1  1  0  0  0
  3 15  1  0  0  0  0
  3  4  1  0  0  0  0
  4  5  1  0  0  0  0
  5 18  1  0  0  0  0
  5 19  1  0  0  0  0
  6  7  1  0  0  0  0
  6  8  2  0  0  0  0
  9 10  1  0  0  0  0
  9 14  1  0  0  0  0
  9 20  1  6  0  0  0
 10 11  1  0  0  0  0
 11 12  1  0  0  0  0
 11 16  1  0  0  0  0
 11 17  1  0  0  0  0
 12 13  1  0  0  0  0
 13 14  1  0  0  0  0
 14 15  1  0  0  0  0
 14 21  1  6  0  0  0
M  END
> <ID>
12594

> <Formula>
C12H18O7

> <FW>
274.2671

> <DSSTox_CID>
27454

> <DSSTox_RID>
82358

> <DSSTox_GSID>
47454

> <DSSTox_FileID_Sort>
7039

> <TS_ChemName>
Dikegulac

> <TS_ChemName_Synonyms>


> <TS_CASRN>
18467-77-1

> <CASRN_ChemName_Relationship>
primary

> <TS_Description>
single chemical compound

> <ChemNote>
stereochem

> <STRUCTURE_Shown>
tested chemical

> <STRUCTURE_Formula>
C12H18O7

> <STRUCTURE_MW>
274.2671

> <STRUCTURE_ChemType>
defined organic

> <STRUCTURE_DefinedOrganicForm>
parent

> <STRUCTURE_IUPAC>
(3aS,3bR,7aS,8aR)-2,2,5,5-tetramethyltetrahydro-8aH-[1,3]dioxolo[4,5]furo[3,2-d][1,3]dioxine-8a-carboxylic acid

> <STRUCTURE_SMILES>
O=C(O)[C@]23O[C@H]1COC(C)(C)O[C@H]1[C@@H]3OC(C)(C)O2

> <STRUCTURE_SMILES_Desalt>
O=C(O)[C@]23O[C@H]1COC(C)(C)O[C@H]1[C@@H]3OC(C)(C)O2

> <Substance_modify_yyyymmdd>
20100620

$$$$
