1847-24-1
ChemmineR-0915142007XD

 33 35  0  0  1  0  0  0  0  0  2 V2000
    9.5849   -4.5563    0.0000 N    0  0  0  0  0  0  0  0  0  0  0  0
    9.5849   -3.1269    0.0000 C    0  0  0  0  0  0  0  0  0  0  0  0
    8.1427   -4.5563    0.0000 C    0  0  0  0  0  0  0  0  0  0  0  0
    8.1427   -3.1269    0.0000 C    0  0  0  0  0  0  0  0  0  0  0  0
    2.6802   -3.1269    0.0000 C    0  0  0  0  0  0  0  0  0  0  0  0
    4.7988   -3.1269    0.0000 C    0  0  0  0  0  0  0  0  0  0  0  0
   10.8739   -4.9775    0.0000 C    0  0  0  0  0  0  0  0  0  0  0  0
   10.8739   -2.7312    0.0000 S    0  0  0  0  0  0  0  0  0  0  0  0
    5.9092   -2.4632    0.0000 C    0  0  0  0  0  0  0  0  0  0  0  0
    2.6802   -4.1734    0.0000 N    0  0  0  0  0  0  0  0  0  0  0  0
   11.6780   -3.8416    0.0000 C    0  0  0  0  0  0  0  0  0  0  0  0
    7.1855   -2.4632    0.0000 N    0  0  0  0  0  0  0  0  0  0  0  0
    1.9655   -2.2845    0.0000 C    0  0  0  0  0  0  0  0  0  0  0  0
    3.7523   -4.8882    0.0000 O    0  0  0  0  0  0  0  0  0  0  0  0
    4.7988   -4.1734    0.0000 C    0  0  0  0  0  0  0  0  0  0  0  0
   11.3717   -6.3559    0.0000 C    0  0  0  0  0  0  0  0  0  0  0  0
    7.3131   -5.4114    0.0000 O    0  0  0  0  0  0  0  0  0  0  0  0
    0.6509   -2.2845    0.0000 C    0  0  0  0  0  0  0  0  0  0  0  0
    2.6291   -1.1359    0.0000 C    0  0  0  0  0  0  0  0  0  0  0  0
    5.4497   -1.3273    0.0000 O    0  0  0  0  0  0  0  0  0  0  0  0
   12.7500   -6.6367    0.0000 O    0  0  0  0  0  0  0  0  0  0  0  0
   10.4400   -7.4280    0.0000 O    0  5  0  0  0  0  0  0  0  0  0  0
    0.0000   -3.4715    0.0000 Cl   0  0  0  0  0  0  0  0  0  0  0  0
    3.9182   -1.1487    0.0000 F    0  0  0  0  0  0  0  0  0  0  0  0
   12.2012   -2.5270    0.0000 C    0  0  0  0  0  0  0  0  0  0  0  0
   12.7628   -4.7605    0.0000 C    0  0  0  0  0  0  0  0  0  0  0  0
    5.7050   -4.8243    0.0000 C    0  0  0  0  0  0  0  0  0  0  0  0
    0.6509    0.0000    0.0000 C    0  0  0  0  0  0  0  0  0  0  0  0
    0.0000   -1.1614    0.0000 C    0  0  0  0  0  0  0  0  0  0  0  0
    1.9399    0.0000    0.0000 C    0  0  0  0  0  0  0  0  0  0  0  0
    8.1171   -1.8251    0.0000 H    0  0  0  0  0  0  0  0  0  0  0  0
    9.5721   -1.8889    0.0000 H    0  0  0  0  0  0  0  0  0  0  0  0
   12.0098   -7.7853    0.0000 Na   0  3  0  0  0  0  0  0  0  0  0  0
  1  2  1  0  0  0  0
  1  3  1  0  0  0  0
  1  7  1  0  0  0  0
  2  8  1  1  0  0  0
  2  4  1  0  0  0  0
  2 32  1  6  0  0  0
  3  4  1  0  0  0  0
  3 17  2  0  0  0  0
  4 12  1  1  0  0  0
  4 31  1  6  0  0  0
  5  6  1  0  0  0  0
  5 10  2  0  0  0  0
  5 13  1  0  0  0  0
  6  9  1  0  0  0  0
  6 15  2  0  0  0  0
  7 11  1  0  0  0  0
  7 16  1  6  0  0  0
  8 11  1  0  0  0  0
  9 12  1  0  0  0  0
  9 20  2  0  0  0  0
 10 14  1  0  0  0  0
 11 25  1  0  0  0  0
 11 26  1  0  0  0  0
 13 18  1  0  0  0  0
 13 19  2  0  0  0  0
 14 15  1  0  0  0  0
 15 27  1  0  0  0  0
 16 21  2  0  0  0  0
 16 22  1  0  0  0  0
 18 23  1  0  0  0  0
 18 29  2  0  0  0  0
 19 24  1  0  0  0  0
 19 30  1  0  0  0  0
 28 30  2  0  0  0  0
 28 29  1  0  0  0  0
M  END
> <ID>
10749

> <Formula>
C19H16ClFN3NaO5S

> <FW>
475.8536 (452.8644+22.9892)

> <DSSTox_CID>
25115

> <DSSTox_RID>
80681

> <DSSTox_GSID>
45115

> <DSSTox_FileID_Sort>
5363

> <TS_ChemName>
Floxacillin Na salt

> <TS_ChemName_Synonyms>


> <TS_CASRN>
1847-24-1

> <CASRN_ChemName_Relationship>
primary

> <TS_Description>
single chemical compound

> <ChemNote>
stereochem; parent [5250-39-5]

> <STRUCTURE_Shown>
tested chemical

> <STRUCTURE_Formula>
C19H16ClFN3NaO5S

> <STRUCTURE_MW>
475.8536

> <STRUCTURE_ChemType>
defined organic

> <STRUCTURE_DefinedOrganicForm>
salt

> <STRUCTURE_IUPAC>
sodium (2S,5R,6R)-6-({[3-(2-chloro-6-fluorophenyl)-5-methyl-1,2-oxazol-4-yl]carbonyl}amino)-3,3-dimethyl-7-oxo-4-thia-1-azabicyclo[3.2.0]heptane-2-carboxylate

> <STRUCTURE_SMILES>
[Na+].O=C([O-])[C@@H]3N4C(=O)[C@@H](NC(=O)c2c(C)onc2c1c(F)cccc1Cl)[C@H]4SC3(C)C

> <STRUCTURE_SMILES_Desalt>
OC(=O)[C@@H]3N4C(=O)[C@@H](NC(=O)c2c(C)onc2c1c(F)cccc1Cl)[C@H]4SC3(C)C

> <Substance_modify_yyyymmdd>
20100107

$$$$
