18479-57-7
ChemmineR-0915142007XD

 11 10  0  0  0  0  0  0  0  0  1 V2000
    0.0000   -1.3470    0.0000 C   0  0  0  0  0  0  0  0  0  0  0  0
    1.1534   -2.0003    0.0000 C   0  0  0  0  0  0  0  0  0  0  0  0
    2.3068   -1.3470    0.0000 C   0  0  0  0  0  0  0  0  0  0  0  0
    3.4601   -2.0003    0.0000 C   0  0  0  0  0  0  0  0  0  0  0  0
    4.6054   -1.3470    0.0000 C   0  0  0  0  0  0  0  0  0  0  0  0
    5.7427   -2.0003    0.0000 C   0  0  0  0  0  0  0  0  0  0  0  0
    6.8961   -1.3470    0.0000 C   0  0  0  0  0  0  0  0  0  0  0  0
    7.5655   -2.5003    0.0000 C   0  0  0  0  0  0  0  0  0  0  0  0
    2.3068    0.0000    0.0000 C   0  0  0  0  0  0  0  0  0  0  0  0
    8.0656   -0.6775    0.0000 O   0  0  0  0  0  0  0  0  0  0  0  0
    6.2428   -0.1774    0.0000 C   0  0  0  0  0  0  0  0  0  0  0  0
  1  2  1  0  0  0  0
  2  3  1  0  0  0  0
  3  4  1  0  0  0  0
  3  9  1  0  0  0  0
  4  5  1  0  0  0  0
  5  6  1  0  0  0  0
  6  7  1  0  0  0  0
  7  8  1  0  0  0  0
  7 10  1  0  0  0  0
  7 11  1  0  0  0  0
M  END
> <ID>
10459

> <Formula>
C10H22O

> <FW>
158.2811

> <DSSTox_CID>
24810

> <DSSTox_RID>
80493

> <DSSTox_GSID>
44810

> <DSSTox_FileID_Sort>
5175

> <TS_ChemName>
2,6-Dimethyloctan-2-ol

> <TS_ChemName_Synonyms>
2,6-Dimethyloctan-2-ol (2-Octanol, 2,6-dimethyl-)

> <TS_CASRN>
18479-57-7

> <CASRN_ChemName_Relationship>
primary

> <TS_Description>
single chemical compound

> <ChemNote>


> <STRUCTURE_Shown>
tested chemical

> <STRUCTURE_Formula>
C10H22O

> <STRUCTURE_MW>
158.2811

> <STRUCTURE_ChemType>
defined organic

> <STRUCTURE_DefinedOrganicForm>
parent

> <STRUCTURE_IUPAC>
2,6-dimethyloctan-2-ol

> <STRUCTURE_SMILES>
CC(C)(O)CCCC(C)CC

> <STRUCTURE_SMILES_Desalt>
CC(C)(O)CCCC(C)CC

> <Substance_modify_yyyymmdd>
20091116

$$$$
