18493-30-6
ChemmineR-0915142007XD

 22 23  0  0  0  0  0  0  0  0  1 V2000
    4.6088   -2.0068    0.0000 C   0  0  0  0  0  0  0  0  0  0  0  0
    4.6088   -3.3493    0.0000 C   0  0  0  0  0  0  0  0  0  0  0  0
    5.7713   -1.3425    0.0000 C   0  0  0  0  0  0  0  0  0  0  0  0
    6.9201   -2.0068    0.0000 C   0  0  0  0  0  0  0  0  0  0  0  0
    3.4462   -3.9998    0.0000 C   0  0  0  0  0  0  0  0  0  0  0  0
    3.4462   -1.3425    0.0000 C   0  0  0  0  0  0  0  0  0  0  0  0
    8.0688   -1.3425    0.0000 C   0  0  0  0  0  0  0  0  0  0  0  0
    5.7713    0.0000    0.0000 O   0  0  0  0  0  0  0  0  0  0  0  0
    2.2975   -3.3493    0.0000 C   0  0  0  0  0  0  0  0  0  0  0  0
    9.2175   -2.0068    0.0000 C   0  0  0  0  0  0  0  0  0  0  0  0
    2.2975   -2.0068    0.0000 C   0  0  0  0  0  0  0  0  0  0  0  0
    5.7713   -3.9998    0.0000 O   0  0  0  0  0  0  0  0  0  0  0  0
   11.5011   -3.3493    0.0000 C   0  0  0  0  0  0  0  0  0  0  0  0
   10.3663   -1.3425    0.0000 C   0  0  0  0  0  0  0  0  0  0  0  0
    9.2175   -3.3493    0.0000 C   0  0  0  0  0  0  0  0  0  0  0  0
   10.3663   -3.9998    0.0000 C   0  0  0  0  0  0  0  0  0  0  0  0
   11.5011   -2.0068    0.0000 C   0  0  0  0  0  0  0  0  0  0  0  0
    1.1487   -3.9998    0.0000 O   0  0  0  0  0  0  0  0  0  0  0  0
   12.6914   -3.9998    0.0000 O   0  0  0  0  0  0  0  0  0  0  0  0
    6.9201   -3.3493    0.0000 C   0  0  0  0  0  0  0  0  0  0  0  0
   13.8401   -3.3493    0.0000 C   0  0  0  0  0  0  0  0  0  0  0  0
    0.0000   -3.3493    0.0000 C   0  0  0  0  0  0  0  0  0  0  0  0
  1  2  2  0  0  0  0
  1  3  1  0  0  0  0
  1  6  1  0  0  0  0
  2  5  1  0  0  0  0
  2 12  1  0  0  0  0
  3  4  1  0  0  0  0
  3  8  2  0  0  0  0
  4  7  2  3  0  0  0
  5  9  2  0  0  0  0
  6 11  2  0  0  0  0
  7 10  1  0  0  0  0
  9 11  1  0  0  0  0
  9 18  1  0  0  0  0
 10 14  1  0  0  0  0
 10 15  2  0  0  0  0
 12 20  1  0  0  0  0
 13 16  2  0  0  0  0
 13 19  1  0  0  0  0
 13 17  1  0  0  0  0
 14 17  2  0  0  0  0
 15 16  1  0  0  0  0
 18 22  1  0  0  0  0
 19 21  1  0  0  0  0
M  END
> <ID>
11451

> <Formula>
C18H18O4

> <FW>
298.3331

> <DSSTox_CID>
26152

> <DSSTox_RID>
81383

> <DSSTox_GSID>
46152

> <DSSTox_FileID_Sort>
6064

> <TS_ChemName>
Metochalcone

> <TS_ChemName_Synonyms>


> <TS_CASRN>
18493-30-6

> <CASRN_ChemName_Relationship>
primary

> <TS_Description>
single chemical compound

> <ChemNote>


> <STRUCTURE_Shown>
tested chemical

> <STRUCTURE_Formula>
C18H18O4

> <STRUCTURE_MW>
298.3331

> <STRUCTURE_ChemType>
defined organic

> <STRUCTURE_DefinedOrganicForm>
parent

> <STRUCTURE_IUPAC>
1-(2,4-dimethoxyphenyl)-3-(4-methoxyphenyl)prop-2-en-1-one

> <STRUCTURE_SMILES>
COc2cc(ccc2C(=O)C=Cc1ccc(OC)cc1)OC

> <STRUCTURE_SMILES_Desalt>
COc2cc(ccc2C(=O)C=Cc1ccc(OC)cc1)OC

> <Substance_modify_yyyymmdd>
20110818

$$$$
