18507-89-6
ChemmineR-0915142007XD

 30 31  0  0  0  0  0  0  0  0  1 V2000
   11.5142   -3.9905    0.0000 C   0  0  0  0  0  0  0  0  0  0  0  0
    9.2557   -3.9905    0.0000 C   0  0  0  0  0  0  0  0  0  0  0  0
   10.3642   -4.6417    0.0000 C   0  0  0  0  0  0  0  0  0  0  0  0
    9.2557   -2.6465    0.0000 C   0  0  0  0  0  0  0  0  0  0  0  0
   10.3642   -1.9814    0.0000 N   0  0  0  0  0  0  0  0  0  0  0  0
    8.0641   -4.6417    0.0000 C   0  0  0  0  0  0  0  0  0  0  0  0
   12.7058   -4.6833    0.0000 C   0  0  0  0  0  0  0  0  0  0  0  0
   11.5142   -2.6465    0.0000 C   0  0  0  0  0  0  0  0  0  0  0  0
    8.0641   -1.9814    0.0000 C   0  0  0  0  0  0  0  0  0  0  0  0
    6.9141   -3.9905    0.0000 C   0  0  0  0  0  0  0  0  0  0  0  0
    6.9141   -2.6465    0.0000 C   0  0  0  0  0  0  0  0  0  0  0  0
   12.7058   -6.0273    0.0000 O   0  0  0  0  0  0  0  0  0  0  0  0
   10.3642   -5.9996    0.0000 O   0  0  0  0  0  0  0  0  0  0  0  0
   13.8558   -4.0736    0.0000 O   0  0  0  0  0  0  0  0  0  0  0  0
    5.7086   -4.6833    0.0000 O   0  0  0  0  0  0  0  0  0  0  0  0
    5.7086   -1.9814    0.0000 O   0  0  0  0  0  0  0  0  0  0  0  0
   13.8558   -2.7296    0.0000 C   0  0  0  0  0  0  0  0  0  0  0  0
    5.7086   -0.6512    0.0000 C   0  0  0  0  0  0  0  0  0  0  0  0
    4.5863   -4.0736    0.0000 C   0  0  0  0  0  0  0  0  0  0  0  0
    3.4362   -4.7526    0.0000 C   0  0  0  0  0  0  0  0  0  0  0  0
    3.3808   -2.1615    0.0000 C   0  0  0  0  0  0  0  0  0  0  0  0
    2.2724   -2.8127    0.0000 C   0  0  0  0  0  0  0  0  0  0  0  0
    1.1639   -4.8634    0.0000 C   0  0  0  0  0  0  0  0  0  0  0  0
    0.0000   -4.2676    0.0000 C   0  0  0  0  0  0  0  0  0  0  0  0
    0.0000   -2.9513    0.0000 C   0  0  0  0  0  0  0  0  0  0  0  0
    1.1223   -2.2585    0.0000 C   0  0  0  0  0  0  0  0  0  0  0  0
    2.2862   -4.1290    0.0000 C   0  0  0  0  0  0  0  0  0  0  0  0
    6.8448    0.0000    0.0000 C   0  0  0  0  0  0  0  0  0  0  0  0
   12.7197   -2.0922    0.0000 C   0  0  0  0  0  0  0  0  0  0  0  0
    4.6279   -2.7850    0.0000 C   0  0  0  0  0  0  0  0  0  0  0  0
  1  3  2  0  0  0  0
  1  7  1  0  0  0  0
  1  8  1  0  0  0  0
  2  3  1  0  0  0  0
  2  6  1  0  0  0  0
  2  4  2  0  0  0  0
  3 13  1  0  0  0  0
  4  5  1  0  0  0  0
  4  9  1  0  0  0  0
  5  8  2  0  0  0  0
  6 10  2  0  0  0  0
  7 12  2  0  0  0  0
  7 14  1  0  0  0  0
  9 11  2  0  0  0  0
 10 15  1  0  0  0  0
 10 11  1  0  0  0  0
 11 16  1  0  0  0  0
 14 17  1  0  0  0  0
 15 19  1  0  0  0  0
 16 18  1  0  0  0  0
 17 29  1  0  0  0  0
 18 28  1  0  0  0  0
 19 20  1  0  0  0  0
 20 27  1  0  0  0  0
 21 22  1  0  0  0  0
 21 30  1  0  0  0  0
 22 26  1  0  0  0  0
 23 27  1  0  0  0  0
 23 24  1  0  0  0  0
 24 25  1  0  0  0  0
 25 26  1  0  0  0  0
M  END
> <ID>
12023

> <Formula>
C24H35NO5

> <FW>
417.5384

> <DSSTox_CID>
26851

> <DSSTox_RID>
81960

> <DSSTox_GSID>
46851

> <DSSTox_FileID_Sort>
6641

> <TS_ChemName>
Decoquinate

> <TS_ChemName_Synonyms>


> <TS_CASRN>
18507-89-6

> <CASRN_ChemName_Relationship>
primary

> <TS_Description>
single chemical compound

> <ChemNote>
tautomers

> <STRUCTURE_Shown>
tested chemical

> <STRUCTURE_Formula>
C24H35NO5

> <STRUCTURE_MW>
417.5384

> <STRUCTURE_ChemType>
defined organic

> <STRUCTURE_DefinedOrganicForm>
parent

> <STRUCTURE_IUPAC>
ethyl 6-(decyloxy)-7-ethoxy-4-hydroxyquinoline-3-carboxylate

> <STRUCTURE_SMILES>
O=C(OCC)c1cnc2cc(OCC)c(cc2c1O)OCCCCCCCCCC

> <STRUCTURE_SMILES_Desalt>
O=C(OCC)c1cnc2cc(OCC)c(cc2c1O)OCCCCCCCCCC

> <Substance_modify_yyyymmdd>
20110729

$$$$
