18556-44-0
ChemmineR-0915142007XD

 66 73  0  0  1  0  0  0  0  0  1 V2000
    5.4922   -2.6575    0.0000 C   0  0  0  0  0  0  0  0  0  0  0  0
    4.3760   -2.0551    0.0000 C   0  0  0  0  0  0  0  0  0  0  0  0
    4.3760   -0.7618    0.0000 C   0  0  0  0  0  0  0  0  0  0  0  0
    6.5552   -2.0551    0.0000 C   0  0  0  0  0  0  0  0  0  0  0  0
    5.4390   -0.1595    0.0000 C   0  0  0  0  0  0  0  0  0  0  0  0
    6.5552   -0.7618    0.0000 C   0  0  0  0  0  0  0  0  0  0  0  0
    7.5119   -2.8170    0.0000 C   0  0  0  0  0  0  0  0  0  0  0  0
    8.7343   -2.5335    0.0000 C   0  0  0  0  0  0  0  0  0  0  0  0
    7.5473    0.0000    0.0000 N   0  0  0  0  0  0  0  0  0  0  0  0
    8.7343   -0.2835    0.0000 C   0  0  0  0  0  0  0  0  0  0  0  0
    9.2836   -1.3996    0.0000 C   0  0  0  0  0  0  0  0  0  0  0  0
    7.9194   -1.3465    0.0000 C   0  0  0  0  0  0  0  0  0  0  0  0
    3.2422   -2.6575    0.0000 N   0  0  0  0  0  0  0  0  0  0  0  0
    2.1792   -0.7618    0.0000 C   0  0  0  0  0  0  0  0  0  0  0  0
    2.1792   -2.0551    0.0000 C   0  0  0  0  0  0  0  0  0  0  0  0
    1.0630   -0.1595    0.0000 C   0  0  0  0  0  0  0  0  0  0  0  0
    1.0630   -2.6575    0.0000 C   0  0  0  0  0  0  0  0  0  0  0  0
    0.0000   -0.7618    0.0000 C   0  0  0  0  0  0  0  0  0  0  0  0
    0.0000   -2.0551    0.0000 C   0  0  0  0  0  0  0  0  0  0  0  0
   10.3820   -0.8150    0.0000 O   0  0  0  0  0  0  0  0  0  0  0  0
   10.3288   -2.0551    0.0000 C   0  0  0  0  0  0  0  0  0  0  0  0
   11.4627   -1.5236    0.0000 C   0  0  0  0  0  0  0  0  0  0  0  0
   11.8702   -4.6949    0.0000 C   0  0  0  0  0  0  0  0  0  0  0  0
   12.9332   -6.5906    0.0000 C   0  0  0  0  0  0  0  0  0  0  0  0
   11.8702   -5.9351    0.0000 C   0  0  0  0  0  0  0  0  0  0  0  0
   13.9962   -4.6949    0.0000 C   0  0  0  0  0  0  0  0  0  0  0  0
   10.7540   -6.5198    0.0000 N   0  0  0  0  0  0  0  0  0  0  0  0
   12.9332   -4.0571    0.0000 C   0  0  0  0  0  0  0  0  0  0  0  0
    9.6910   -5.9351    0.0000 C   0  0  0  0  0  0  0  0  0  0  0  0
   13.9962   -5.9351    0.0000 C   0  0  0  0  0  0  0  0  0  0  0  0
    9.6910   -4.6949    0.0000 C   0  0  0  0  0  0  0  0  0  0  0  0
    7.5119   -4.6949    0.0000 C   0  0  0  0  0  0  0  0  0  0  0  0
    8.5572   -6.5198    0.0000 C   0  0  0  0  0  0  0  0  0  0  0  0
    8.5572   -4.0571    0.0000 C   0  0  0  0  0  0  0  0  0  0  0  0
   12.9332   -2.8170    0.0000 N   0  0  0  0  0  0  0  0  0  0  0  0
    5.1910   -3.7028    0.0000 C   0  0  0  0  0  0  0  0  0  0  0  0
   13.4116   -7.4056    0.0000 C   0  0  0  0  0  0  0  0  0  0  0  0
    7.5119   -5.9351    0.0000 C   0  0  0  0  0  0  0  0  0  0  0  0
   10.7540   -4.0571    0.0000 C   0  0  0  0  0  0  0  0  0  0  0  0
   15.4135   -7.1930    0.0000 O   0  0  0  0  0  0  0  0  0  0  0  0
   15.1124   -4.0571    0.0000 C   0  0  0  0  0  0  0  0  0  0  0  0
   16.9549   -7.1930    0.0000 C   0  0  0  0  0  0  0  0  0  0  0  0
   10.7540   -2.8170    0.0000 C   0  0  0  0  0  0  0  0  0  0  0  0
   12.5789   -7.7776    0.0000 O   0  0  0  0  0  0  0  0  0  0  0  0
   15.1124   -2.8170    0.0000 C   0  0  0  0  0  0  0  0  0  0  0  0
   14.7226   -7.4056    0.0000 O   0  0  0  0  0  0  0  0  0  0  0  0
    4.0040   -4.0571    0.0000 O   0  0  0  0  0  0  0  0  0  0  0  0
   17.7167   -5.8288    0.0000 O   0  0  0  0  0  0  0  0  0  0  0  0
   15.1124   -5.4213    0.0000 C   0  0  0  0  0  0  0  0  0  0  0  0
   10.6832   -7.8308    0.0000 C   0  0  0  0  0  0  0  0  0  0  0  0
   13.9962   -2.1792    0.0000 C   0  0  0  0  0  0  0  0  0  0  0  0
   13.4116   -8.5395    0.0000 O   0  0  0  0  0  0  0  0  0  0  0  0
    6.0237   -4.4823    0.0000 O   0  0  0  0  0  0  0  0  0  0  0  0
    6.3780   -6.5198    0.0000 O   0  0  0  0  0  0  0  0  0  0  0  0
   17.5927   -8.3623    0.0000 C   0  0  0  0  0  0  0  0  0  0  0  0
    5.3682   -5.5808    0.0000 C   0  0  0  0  0  0  0  0  0  0  0  0
   14.5277   -9.1241    0.0000 C   0  0  0  0  0  0  0  0  0  0  0  0
    6.3780   -7.8308    0.0000 C   0  0  0  0  0  0  0  0  0  0  0  0
   16.2462   -4.8721    0.0000 C   0  0  0  0  0  0  0  0  0  0  0  0
   12.9332   -5.2973    0.0000 H   0  0  0  0  0  0  0  0  0  0  0  0
   11.5690   -7.1930    0.0000 H   0  0  0  0  0  0  0  0  0  0  0  0
    2.3209   -6.1300    0.0000 S   0  0  0  0  0  0  0  0  0  0  0  0
    3.5788   -6.1300    0.0000 O   0  0  0  0  0  0  0  0  0  0  0  0
    1.0807   -6.1300    0.0000 O   0  0  0  0  0  0  0  0  0  0  0  0
    2.3209   -7.3879    0.0000 O   0  0  0  0  0  0  0  0  0  0  0  0
    2.3209   -4.8898    0.0000 O   0  0  0  0  0  0  0  0  0  0  0  0
  1  2  1  0  0  0  0
  1  4  1  0  0  0  0
  1 32  1  6  0  0  0
  1 36  1  1  0  0  0
  2  3  2  0  0  0  0
  2 13  1  0  0  0  0
  3  5  1  0  0  0  0
  3 14  1  0  0  0  0
  4  7  1  0  0  0  0
  5  6  1  0  0  0  0
  6  9  1  0  0  0  0
  7  8  1  0  0  0  0
  7 12  1  6  0  0  0
  8 11  1  0  0  0  0
  9 10  1  0  0  0  0
  9 12  1  6  0  0  0
 10 11  1  0  0  0  0
 11 20  1  1  0  0  0
 11 21  1  6  0  0  0
 13 15  1  0  0  0  0
 14 16  2  0  0  0  0
 14 15  1  0  0  0  0
 15 17  2  0  0  0  0
 16 18  1  0  0  0  0
 17 19  1  0  0  0  0
 18 19  2  0  0  0  0
 21 22  1  0  0  0  0
 23 25  1  0  0  0  0
 23 28  1  0  0  0  0
 23 39  1  1  0  0  0
 23 31  1  0  0  0  0
 24 25  1  0  0  0  0
 24 37  1  6  0  0  0
 24 44  1  1  0  0  0
 24 30  1  0  0  0  0
 25 27  1  0  0  0  0
 25 61  1  1  0  0  0
 26 28  1  0  0  0  0
 26 30  1  0  0  0  0
 26 41  1  0  0  0  0
 26 49  1  6  0  0  0
 27 29  1  0  0  0  0
 27 50  1  0  0  0  0
 28 35  1  0  0  0  0
 28 60  1  6  0  0  0
 29 33  2  0  0  0  0
 29 31  1  0  0  0  0
 30 40  1  1  0  0  0
 31 34  2  0  0  0  0
 32 34  1  0  0  0  0
 32 38  2  0  0  0  0
 33 38  1  0  0  0  0
 35 51  1  0  0  0  0
 35 43  1  0  0  0  0
 36 47  2  0  0  0  0
 36 53  1  0  0  0  0
 37 46  2  0  0  0  0
 37 52  1  0  0  0  0
 38 54  1  0  0  0  0
 39 43  1  0  0  0  0
 40 42  1  0  0  0  0
 41 45  2  0  0  0  0
 42 48  2  0  0  0  0
 42 55  1  0  0  0  0
 45 51  1  0  0  0  0
 49 59  1  0  0  0  0
 52 57  1  0  0  0  0
 53 56  1  0  0  0  0
 54 58  1  0  0  0  0
 62 63  2  0  0  0  0
 62 64  2  0  0  0  0
 62 65  1  0  0  0  0
 62 66  1  0  0  0  0
M  END
> <ID>
12930

> <Formula>
C46H60N4O13S

> <FW>
909.0526 (810.9741+98.0785)

> <DSSTox_CID>
27831

> <DSSTox_RID>
82594

> <DSSTox_GSID>
47853

> <DSSTox_FileID_Sort>
7271

> <TS_ChemName>
Vinblastine sulfate

> <TS_ChemName_Synonyms>


> <TS_CASRN>
18556-44-0

> <CASRN_ChemName_Relationship>
primary

> <TS_Description>
single chemical compound

> <ChemNote>
stereochem; parent [865-21-4]

> <STRUCTURE_Shown>
tested chemical

> <STRUCTURE_Formula>
C46H60N4O13S

> <STRUCTURE_MW>
909.0526

> <STRUCTURE_ChemType>
defined organic

> <STRUCTURE_DefinedOrganicForm>
complex

> <STRUCTURE_IUPAC>
vincaleukoblastine sulfate (1:1)

> <STRUCTURE_SMILES>
O=S(=O)(O)O.O=C(OC)[C@@]2(C[C@@H]4C[C@@](O)(CC)C[N@](CCc1c3ccccc3nc12)C4)c5cc9c(cc5OC)N(C)[C@@H]6[C@]98CCN7CC=C[C@@](CC)([C@@H](OC(C)=O)[C@]6(O)C(=O)OC)[C@H]78

> <STRUCTURE_SMILES_Desalt>
O=C(OC)[C@@]2(C[C@@H]4C[C@@](O)(CC)C[N@](CCc1c3ccccc3nc12)C4)c5cc9c(cc5OC)N(C)[C@@H]6[C@]98CCN7CC=C[C@@](CC)([C@@H](OC(C)=O)[C@]6(O)C(=O)OC)[C@H]78

> <Substance_modify_yyyymmdd>
20110729

$$$$
