185517-21-9
ChemmineR-0915142007XD

 13 12  0  0  1  0  0  0  0  0  1 V2000
    8.0208   -1.3276    0.0000 C   0  0  0  0  0  0  0  0  0  0  0  0
    8.0208    0.0000    0.0000 O   0  0  0  0  0  0  0  0  0  0  0  0
    9.1916   -2.0006    0.0000 O   0  0  0  0  0  0  0  0  0  0  0  0
    6.9237   -2.0006    0.0000 C   0  0  0  0  0  0  0  0  0  0  0  0
    5.7436   -1.3276    0.0000 C   0  0  0  0  0  0  0  0  0  0  0  0
    1.1340   -1.3276    0.0000 C   0  0  0  0  0  0  0  0  0  0  0  0
    2.2956   -2.0006    0.0000 C   0  0  0  0  0  0  0  0  0  0  0  0
    4.6096   -2.0006    0.0000 C   0  0  0  0  0  0  0  0  0  0  0  0
    3.4480   -1.3276    0.0000 C   0  0  0  0  0  0  0  0  0  0  0  0
    0.0000   -2.0006    0.0000 C   0  0  0  0  0  0  0  0  0  0  0  0
    6.9237   -3.3189    0.0000 C   0  0  0  0  0  0  0  0  0  0  0  0
    8.0577   -3.9920    0.0000 C   0  0  0  0  0  0  0  0  0  0  0  0
    9.2193   -3.3189    0.0000 C   0  0  0  0  0  0  0  0  0  0  0  0
  1  2  2  0  0  0  0
  1  3  1  0  0  0  0
  1  4  1  0  0  0  0
  4  5  1  0  0  0  0
  4 11  1  6  0  0  0
  5  8  1  0  0  0  0
  6  7  1  0  0  0  0
  6 10  1  0  0  0  0
  7  9  1  0  0  0  0
  8  9  1  0  0  0  0
 11 12  1  0  0  0  0
 12 13  1  0  0  0  0
M  END
> <ID>
13830

> <Formula>
C11H22O2

> <FW>
186.2912

> <DSSTox_CID>
28767

> <DSSTox_RID>
83036

> <DSSTox_GSID>
48841

> <DSSTox_FileID_Sort>
7713

> <TS_ChemName>
Octanoic acid, 2-propyl-, (2R)-

> <TS_ChemName_Synonyms>
(R)-2-Propyloctanoic acid (Arundic Acid)

> <TS_CASRN>
185517-21-9

> <CASRN_ChemName_Relationship>
primary

> <TS_Description>
single chemical compound

> <ChemNote>


> <STRUCTURE_Shown>
tested chemical

> <STRUCTURE_Formula>
C11H22O2

> <STRUCTURE_MW>
186.2912

> <STRUCTURE_ChemType>
defined organic

> <STRUCTURE_DefinedOrganicForm>
parent

> <STRUCTURE_IUPAC>
(2R)-2-propyloctanoic acid

> <STRUCTURE_SMILES>
O=C(O)[C@@H](CCCCCC)CCC

> <STRUCTURE_SMILES_Desalt>
O=C(O)[C@@H](CCCCCC)CCC

> <Substance_modify_yyyymmdd>
20111204

$$$$
