18559-59-6
ChemmineR-0915142007XD

 26 27  0  0  1  0  0  0  0  0  1 V2000
    3.4568   -6.6135    0.0000 C    0  0  0  0  0  0  0  0  0  0  0  0
    8.0729   -2.6392    0.0000 C    0  0  0  0  0  0  0  0  0  0  0  0
    2.3287   -5.9615    0.0000 C    0  0  0  0  0  0  0  0  0  0  0  0
    4.6160   -5.9615    0.0000 C    0  0  0  0  0  0  0  0  0  0  0  0
    3.4568   -7.9590    0.0000 C    0  0  0  0  0  0  0  0  0  0  0  0
    6.8930   -1.9975    0.0000 C    0  0  0  0  0  0  0  0  0  0  0  0
    8.0729   -3.9847    0.0000 C    0  0  0  0  0  0  0  0  0  0  0  0
    1.1592   -6.6135    0.0000 C    0  0  0  0  0  0  0  0  0  0  0  0
    5.7338   -3.9847    0.0000 C    0  0  0  0  0  0  0  0  0  0  0  0
    2.3287   -8.6525    0.0000 C    0  0  0  0  0  0  0  0  0  0  0  0
    1.1592   -7.9590    0.0000 C    0  0  0  0  0  0  0  0  0  0  0  0
    5.7338   -6.6135    0.0000 N    0  0  0  0  0  0  0  0  0  0  0  0
    4.6160   -4.6367    0.0000 C    0  0  0  0  0  0  0  0  0  0  0  0
    5.7338   -2.6392    0.0000 C    0  0  0  0  0  0  0  0  0  0  0  0
    6.8930   -4.6367    0.0000 C    0  0  0  0  0  0  0  0  0  0  0  0
    9.1906   -1.9975    0.0000 O    0  0  0  0  0  0  0  0  0  0  0  0
    6.8930   -0.6624    0.0000 O    0  0  0  0  0  0  0  0  0  0  0  0
    9.1906   -4.6367    0.0000 O    0  0  0  0  0  0  0  0  0  0  0  0
    0.0000   -5.9615    0.0000 O    0  0  0  0  0  0  0  0  0  0  0  0
    5.7338   -7.9590    0.0000 C    0  0  0  0  0  0  0  0  0  0  0  0
    0.0000   -8.6525    0.0000 O    0  0  0  0  0  0  0  0  0  0  0  0
    4.6160   -8.6525    0.0000 C    0  0  0  0  0  0  0  0  0  0  0  0
   10.3498   -2.6392    0.0000 C    0  0  0  0  0  0  0  0  0  0  0  0
    8.0729    0.0000    0.0000 C    0  0  0  0  0  0  0  0  0  0  0  0
    9.1906   -5.9615    0.0000 C    0  0  0  0  0  0  0  0  0  0  0  0
    7.1207   -8.7146    0.0000 Cl   0  0  0  0  0  0  0  0  0  0  0  0
  1  3  1  0  0  0  0
  1  4  1  0  0  0  0
  1  5  2  0  0  0  0
  2  7  1  0  0  0  0
  2 16  1  0  0  0  0
  2  6  2  0  0  0  0
  3  8  2  0  0  0  0
  4 12  1  0  0  0  0
  4 13  1  6  0  0  0
  5 10  1  0  0  0  0
  5 22  1  0  0  0  0
  6 14  1  0  0  0  0
  6 17  1  0  0  0  0
  7 15  2  0  0  0  0
  7 18  1  0  0  0  0
  8 19  1  0  0  0  0
  8 11  1  0  0  0  0
  9 13  1  0  0  0  0
  9 14  2  0  0  0  0
  9 15  1  0  0  0  0
 10 11  2  0  0  0  0
 11 21  1  0  0  0  0
 12 20  1  0  0  0  0
 16 23  1  0  0  0  0
 17 24  1  0  0  0  0
 18 25  1  0  0  0  0
 20 22  1  0  0  0  0
M  END
> <ID>
13746

> <Formula>
C19H24ClNO5

> <FW>
381.8506 (345.3896+36.4609)

> <DSSTox_CID>
28682

> <DSSTox_RID>
82952

> <DSSTox_GSID>
48756

> <DSSTox_FileID_Sort>
7629

> <TS_ChemName>
Trimethoquinol

> <TS_ChemName_Synonyms>


> <TS_CASRN>
18559-59-6

> <CASRN_ChemName_Relationship>
primary

> <TS_Description>
single chemical compound

> <ChemNote>


> <STRUCTURE_Shown>
tested chemical

> <STRUCTURE_Formula>
C19H24ClNO5

> <STRUCTURE_MW>
381.8506

> <STRUCTURE_ChemType>
defined organic

> <STRUCTURE_DefinedOrganicForm>
complex

> <STRUCTURE_IUPAC>
(1S)-1-(3,4,5-trimethoxybenzyl)-1,2,3,4-tetrahydroisoquinoline-6,7-diol hydrochloride (1:1)

> <STRUCTURE_SMILES>
Cl.COc1cc(cc(OC)c1OC)C[C@@H]2NCCc3cc(O)c(O)cc23

> <STRUCTURE_SMILES_Desalt>
COc1cc(cc(OC)c1OC)C[C@@H]2NCCc3cc(O)c(O)cc23

> <Substance_modify_yyyymmdd>
20100107

$$$$
