186088-50-6
ChemmineR-0915142007XD

 17 16  0  0  0  0  0  0  0  0  2 V2000
    2.0001   -2.2881    0.0000 N   0  3  0  0  0  0  0  0  0  0  0  0
    0.6960   -2.2881    0.0000 C   0  0  0  0  0  0  0  0  0  0  0  0
    2.7361   -1.1440    0.0000 C   0  0  0  0  0  0  0  0  0  0  0  0
    2.0001    0.0000    0.0000 C   0  0  0  0  0  0  0  0  0  0  0  0
    0.0000   -1.1440    0.0000 C   0  0  0  0  0  0  0  0  0  0  0  0
    0.6960    0.0000    0.0000 C   0  0  0  0  0  0  0  0  0  0  0  0
    2.6721   -3.4721    0.0000 C   0  0  0  0  0  0  0  0  0  0  0  0
    1.9761   -4.6482    0.0000 C   0  0  0  0  0  0  0  0  0  0  0  0
    2.6401   -5.7922    0.0000 C   0  0  0  0  0  0  0  0  0  0  0  0
    1.9761   -6.9363    0.0000 C   0  0  0  0  0  0  0  0  0  0  0  0
    6.6803   -2.8961    0.0000 P   0  5  0  0  0  0  0  0  0  0  0  0
    5.3762   -2.8961    0.0000 F   0  0  0  0  0  0  0  0  0  0  0  0
    7.3363   -4.0402    0.0000 F   0  0  0  0  0  0  0  0  0  0  0  0
    7.3363   -1.7521    0.0000 F   0  0  0  0  0  0  0  0  0  0  0  0
    6.0242   -4.0402    0.0000 F   0  0  0  0  0  0  0  0  0  0  0  0
    6.0242   -1.7521    0.0000 F   0  0  0  0  0  0  0  0  0  0  0  0
    8.0003   -2.8961    0.0000 F   0  0  0  0  0  0  0  0  0  0  0  0
  1  2  2  0  0  0  0
  1  3  1  0  0  0  0
  1  7  1  0  0  0  0
  2  5  1  0  0  0  0
  3  4  2  0  0  0  0
  4  6  1  0  0  0  0
  5  6  2  0  0  0  0
  7  8  1  0  0  0  0
  8  9  1  0  0  0  0
  9 10  1  0  0  0  0
 11 12  1  0  0  0  0
 11 13  1  0  0  0  0
 11 14  1  0  0  0  0
 11 15  1  0  0  0  0
 11 16  1  0  0  0  0
 11 17  1  0  0  0  0
M  END
> <ID>
13007

> <Formula>
C9H14F6NP

> <FW>
281.1783 (136.2136+144.9647)

> <DSSTox_CID>
27908

> <DSSTox_RID>
82661

> <DSSTox_GSID>
47932

> <DSSTox_FileID_Sort>
7338

> <TS_ChemName>
1-Butylpyridinium hexafluorophosphate

> <TS_ChemName_Synonyms>


> <TS_CASRN>
186088-50-6

> <CASRN_ChemName_Relationship>
primary

> <TS_Description>
single chemical compound

> <ChemNote>
ammonium; parent [45806-95-9]

> <STRUCTURE_Shown>
tested chemical

> <STRUCTURE_Formula>
C9H14F6NP

> <STRUCTURE_MW>
281.1783

> <STRUCTURE_ChemType>
defined organic

> <STRUCTURE_DefinedOrganicForm>
salt

> <STRUCTURE_IUPAC>
1-butylpyridinium hexafluorophosphate

> <STRUCTURE_SMILES>
F[P-](F)(F)(F)(F)F.CCCC[n+]1ccccc1

> <STRUCTURE_SMILES_Desalt>
CCCC[n+]1ccccc1

> <Substance_modify_yyyymmdd>
20110418

$$$$
