1861-40-1
ChemmineR-0915142007XD

 23 23  0  0  0  0  0  0  0  0  2 V2000
    3.4486   -1.9884    0.0000 C   0  0  0  0  0  0  0  0  0  0  0  0
    4.5981   -3.9871    0.0000 C   0  0  0  0  0  0  0  0  0  0  0  0
    4.5981   -2.6615    0.0000 C   0  0  0  0  0  0  0  0  0  0  0  0
    5.7477   -4.6499    0.0000 N   0  3  0  0  0  0  0  0  0  0  0  0
    3.4486   -0.6628    0.0000 N   0  3  0  0  0  0  0  0  0  0  0  0
    1.1392   -4.6499    0.0000 C   0  0  0  0  0  0  0  0  0  0  0  0
    2.2887   -3.9871    0.0000 C   0  0  0  0  0  0  0  0  0  0  0  0
    2.2887   -2.6615    0.0000 C   0  0  0  0  0  0  0  0  0  0  0  0
    3.4486   -4.6499    0.0000 C   0  0  0  0  0  0  0  0  0  0  0  0
    5.7477   -1.9884    0.0000 N   0  0  0  0  0  0  0  0  0  0  0  0
    5.7477   -5.9755    0.0000 O   0  5  0  0  0  0  0  0  0  0  0  0
    2.2887    0.0000    0.0000 O   0  5  0  0  0  0  0  0  0  0  0  0
    4.5981    0.0000    0.0000 O   0  0  0  0  0  0  0  0  0  0  0  0
    6.8972   -3.9871    0.0000 O   0  0  0  0  0  0  0  0  0  0  0  0
    0.4764   -3.4900    0.0000 F   0  0  0  0  0  0  0  0  0  0  0  0
    1.8123   -5.7994    0.0000 F   0  0  0  0  0  0  0  0  0  0  0  0
    0.0000   -5.3127    0.0000 F   0  0  0  0  0  0  0  0  0  0  0  0
    5.7477   -0.6628    0.0000 C   0  0  0  0  0  0  0  0  0  0  0  0
    6.8972   -2.6615    0.0000 C   0  0  0  0  0  0  0  0  0  0  0  0
    8.0571   -1.9884    0.0000 C   0  0  0  0  0  0  0  0  0  0  0  0
    9.2066   -2.6615    0.0000 C   0  0  0  0  0  0  0  0  0  0  0  0
    6.8972    0.0000    0.0000 C   0  0  0  0  0  0  0  0  0  0  0  0
   10.3561   -1.9884    0.0000 C   0  0  0  0  0  0  0  0  0  0  0  0
  1  3  2  0  0  0  0
  1  5  1  0  0  0  0
  1  8  1  0  0  0  0
  2  3  1  0  0  0  0
  2  4  1  0  0  0  0
  2  9  2  0  0  0  0
  3 10  1  0  0  0  0
  4 11  1  0  0  0  0
  4 14  2  0  0  0  0
  5 12  1  0  0  0  0
  5 13  2  0  0  0  0
  6  7  1  0  0  0  0
  6 15  1  0  0  0  0
  6 16  1  0  0  0  0
  6 17  1  0  0  0  0
  7  8  2  0  0  0  0
  7  9  1  0  0  0  0
 10 18  1  0  0  0  0
 10 19  1  0  0  0  0
 18 22  1  0  0  0  0
 19 20  1  0  0  0  0
 20 21  1  0  0  0  0
 21 23  1  0  0  0  0
M  END
> <ID>
3416

> <Formula>
C13H16F3N3O4

> <FW>
335.279

> <DSSTox_CID>
3899

> <DSSTox_RID>
77223

> <DSSTox_GSID>
23899

> <DSSTox_FileID_Sort>
1906

> <TS_ChemName>
Benfluralin

> <TS_ChemName_Synonyms>
Benfluralin (Benefin)

> <TS_CASRN>
1861-40-1

> <CASRN_ChemName_Relationship>
primary

> <TS_Description>
single chemical compound

> <ChemNote>


> <STRUCTURE_Shown>
tested chemical

> <STRUCTURE_Formula>
C13H16F3N3O4

> <STRUCTURE_MW>
335.279

> <STRUCTURE_ChemType>
defined organic

> <STRUCTURE_DefinedOrganicForm>
parent

> <STRUCTURE_IUPAC>
N-butyl-N-ethyl-2,6-dinitro-4-(trifluoromethyl)aniline

> <STRUCTURE_SMILES>
[O-][N+](=O)c1cc(cc([N+]([O-])=O)c1N(CCCC)CC)C(F)(F)F

> <STRUCTURE_SMILES_Desalt>
[O-][N+](=O)c1cc(cc([N+]([O-])=O)c1N(CCCC)CC)C(F)(F)F

> <Substance_modify_yyyymmdd>
20080429

$$$$
