186392-65-4
ChemmineR-0915142007XD

 32 35  0  0  1  0  0  0  0  0  1 V2000
    3.3324   -5.6652    0.0000 C    0  0  0  0  0  0  0  0  0  0  0  0
    4.0148   -6.8236    0.0000 C    0  0  0  0  0  0  0  0  0  0  0  0
    4.2370   -4.6654    0.0000 C    0  0  0  0  0  0  0  0  0  0  0  0
    1.9995   -5.6652    0.0000 C    0  0  0  0  0  0  0  0  0  0  0  0
    5.3160   -6.5379    0.0000 N    0  0  0  0  0  0  0  0  0  0  0  0
    3.3324   -7.9820    0.0000 C    0  0  0  0  0  0  0  0  0  0  0  0
    5.4747   -5.2050    0.0000 C    0  0  0  0  0  0  0  0  0  0  0  0
    1.3330   -6.8236    0.0000 C    0  0  0  0  0  0  0  0  0  0  0  0
    1.9995   -7.9820    0.0000 C    0  0  0  0  0  0  0  0  0  0  0  0
    6.6332   -4.5385    0.0000 C    0  0  0  0  0  0  0  0  0  0  0  0
    0.0000   -6.8236    0.0000 Cl   0  0  0  0  0  0  0  0  0  0  0  0
    7.7916   -5.2050    0.0000 N    0  0  0  0  0  0  0  0  0  0  0  0
    6.6332   -3.2055    0.0000 O    0  0  0  0  0  0  0  0  0  0  0  0
    8.9341   -4.5385    0.0000 C    0  0  0  0  0  0  0  0  0  0  0  0
   10.0925   -5.2050    0.0000 C    0  0  0  0  0  0  0  0  0  0  0  0
    8.9341   -3.2055    0.0000 C    0  0  0  0  0  0  0  0  0  0  0  0
   11.2510   -4.5385    0.0000 C    0  0  0  0  0  0  0  0  0  0  0  0
   10.0925   -6.5379    0.0000 O    0  0  0  0  0  0  0  0  0  0  0  0
    9.8704   -2.2375    0.0000 C    0  0  0  0  0  0  0  0  0  0  0  0
   12.4253   -5.2050    0.0000 N    0  0  0  0  0  0  0  0  0  0  0  0
   11.2510   -3.4753    0.0000 O    0  0  0  0  0  0  0  0  0  0  0  0
    9.5213   -0.9521    0.0000 C    0  0  0  0  0  0  0  0  0  0  0  0
   11.1716   -2.5707    0.0000 C    0  0  0  0  0  0  0  0  0  0  0  0
   13.6472   -4.6654    0.0000 C    0  0  0  0  0  0  0  0  0  0  0  0
   12.5681   -6.5379    0.0000 C    0  0  0  0  0  0  0  0  0  0  0  0
   10.4575    0.0000    0.0000 C    0  0  0  0  0  0  0  0  0  0  0  0
   12.1079   -1.6186    0.0000 C    0  0  0  0  0  0  0  0  0  0  0  0
   14.5358   -5.6652    0.0000 C    0  0  0  0  0  0  0  0  0  0  0  0
   13.8693   -6.8236    0.0000 C    0  0  0  0  0  0  0  0  0  0  0  0
   11.7429   -0.3174    0.0000 C    0  0  0  0  0  0  0  0  0  0  0  0
   15.8688   -5.5065    0.0000 O    0  0  0  0  0  0  0  0  0  0  0  0
   14.4247   -8.0455    0.0000 O    0  0  0  0  0  0  0  0  0  0  0  0
  1  2  1  0  0  0  0
  1  3  1  0  0  0  0
  1  4  2  0  0  0  0
  2  5  1  0  0  0  0
  2  6  2  0  0  0  0
  3  7  2  0  0  0  0
  4  8  1  0  0  0  0
  5  7  1  0  0  0  0
  6  9  1  0  0  0  0
  7 10  1  0  0  0  0
  8 11  1  0  0  0  0
  8  9  2  0  0  0  0
 10 12  1  0  0  0  0
 10 13  2  0  0  0  0
 12 14  1  0  0  0  0
 14 15  1  0  0  0  0
 14 16  1  1  0  0  0
 15 17  1  0  0  0  0
 15 18  1  6  0  0  0
 16 19  1  0  0  0  0
 17 20  1  0  0  0  0
 17 21  2  0  0  0  0
 19 22  1  0  0  0  0
 19 23  2  0  0  0  0
 20 24  1  0  0  0  0
 20 25  1  0  0  0  0
 22 26  2  0  0  0  0
 23 27  1  0  0  0  0
 24 28  1  0  0  0  0
 25 29  1  0  0  0  0
 26 30  1  0  0  0  0
 27 30  2  0  0  0  0
 28 31  1  1  0  0  0
 28 29  1  0  0  0  0
 29 32  1  1  0  0  0
M  END
> <ID>
12394

> <Formula>
C23H24ClN3O5

> <FW>
457.9068

> <DSSTox_CID>
27252

> <DSSTox_RID>
82211

> <DSSTox_GSID>
47252

> <DSSTox_FileID_Sort>
6892

> <TS_ChemName>
Ingliforib

> <TS_ChemName_Synonyms>
CP-368296

> <TS_CASRN>
186392-65-4

> <CASRN_ChemName_Relationship>
primary

> <TS_Description>
single chemical compound

> <ChemNote>
stereochem

> <STRUCTURE_Shown>
tested chemical

> <STRUCTURE_Formula>
C23H24ClN3O5

> <STRUCTURE_MW>
457.9068

> <STRUCTURE_ChemType>
defined organic

> <STRUCTURE_DefinedOrganicForm>
parent

> <STRUCTURE_IUPAC>
5-chloro-N-{(2S,3R)-4-[(3R,4S)-3,4-dihydroxypyrrolidin-1-yl]-3-hydroxy-4-oxo-1-phenylbutan-2-yl}-1H-indole-2-carboxamide

> <STRUCTURE_SMILES>
O[C@H]1CN(C[C@H]1O)C(=O)[C@H](O)[C@H](Cc2ccccc2)NC(=O)c3cc4cc(Cl)ccc4n3

> <STRUCTURE_SMILES_Desalt>
O[C@H]1CN(C[C@H]1O)C(=O)[C@H](O)[C@H](Cc2ccccc2)NC(=O)c3cc4cc(Cl)ccc4n3

> <Substance_modify_yyyymmdd>
20130910

$$$$
