18640-74-9
ChemmineR-0915142007XD

  9  9  0  0  0  0  0  0  0  0  1 V2000
    0.0000   -2.2629    0.0000 C   0  0  0  0  0  0  0  0  0  0  0  0
    1.1509   -1.5957    0.0000 C   0  0  0  0  0  0  0  0  0  0  0  0
    1.1509   -0.2669    0.0000 C   0  0  0  0  0  0  0  0  0  0  0  0
    2.3018   -2.2629    0.0000 C   0  0  0  0  0  0  0  0  0  0  0  0
    3.4527   -1.5957    0.0000 C   0  0  0  0  0  0  0  0  0  0  0  0
    3.5917   -0.2780    0.0000 N   0  0  0  0  0  0  0  0  0  0  0  0
    4.8927    0.0000    0.0000 C   0  0  0  0  0  0  0  0  0  0  0  0
    5.5599   -1.1509    0.0000 C   0  0  0  0  0  0  0  0  0  0  0  0
    4.6703   -2.1405    0.0000 S   0  0  0  0  0  0  0  0  0  0  0  0
  1  2  1  0  0  0  0
  2  3  1  0  0  0  0
  2  4  1  0  0  0  0
  4  5  1  0  0  0  0
  5  6  2  0  0  0  0
  5  9  1  0  0  0  0
  6  7  1  0  0  0  0
  7  8  2  0  0  0  0
  8  9  1  0  0  0  0
M  END
> <ID>
4324

> <Formula>
C7H11NS

> <FW>
141.2339

> <DSSTox_CID>
5653

> <DSSTox_RID>
77869

> <DSSTox_GSID>
25653

> <DSSTox_FileID_Sort>
2552

> <TS_ChemName>
2-(2-Methylpropyl)thiazole

> <TS_ChemName_Synonyms>


> <TS_CASRN>
18640-74-9

> <CASRN_ChemName_Relationship>
primary

> <TS_Description>
single chemical compound

> <ChemNote>


> <STRUCTURE_Shown>
tested chemical

> <STRUCTURE_Formula>
C7H11NS

> <STRUCTURE_MW>
141.2339

> <STRUCTURE_ChemType>
defined organic

> <STRUCTURE_DefinedOrganicForm>
parent

> <STRUCTURE_IUPAC>
2-(2-methylpropyl)-1,3-thiazole

> <STRUCTURE_SMILES>
CC(C)Cc1nccs1

> <STRUCTURE_SMILES_Desalt>
CC(C)Cc1nccs1

> <Substance_modify_yyyymmdd>
20080429

$$$$
