18656-38-7
ChemmineR-0915142007XD

 46 45  0  0  0  0  0  0  0  0  2 V2000
    0.0000    0.0000    0.0000 C   0  0  0  0  0  0  0  0  0  0  0  0
    1.3188    0.0000    0.0000 C   0  0  0  0  0  0  0  0  0  0  0  0
    2.0009   -1.1596    0.0000 C   0  0  0  0  0  0  0  0  0  0  0  0
    3.3196   -1.1596    0.0000 C   0  0  0  0  0  0  0  0  0  0  0  0
    3.9790   -2.3192    0.0000 C   0  0  0  0  0  0  0  0  0  0  0  0
    5.3205   -2.3192    0.0000 C   0  0  0  0  0  0  0  0  0  0  0  0
    5.9799   -3.4560    0.0000 C   0  0  0  0  0  0  0  0  0  0  0  0
    7.3213   -3.4560    0.0000 C   0  0  0  0  0  0  0  0  0  0  0  0
    7.9807   -4.6156    0.0000 C   0  0  0  0  0  0  0  0  0  0  0  0
    9.2995   -4.6156    0.0000 C   0  0  0  0  0  0  0  0  0  0  0  0
    9.9816   -5.7752    0.0000 C   0  0  0  0  0  0  0  0  0  0  0  0
   11.3003   -5.7752    0.0000 C   0  0  0  0  0  0  0  0  0  0  0  0
   11.9597   -6.9121    0.0000 C   0  0  0  0  0  0  0  0  0  0  0  0
   13.3012   -6.9121    0.0000 C   0  0  0  0  0  0  0  0  0  0  0  0
   13.9606   -5.7752    0.0000 O   0  0  0  0  0  0  0  0  0  0  0  0
   13.9606   -8.0717    0.0000 O   0  0  0  0  0  0  0  0  0  0  0  0
   15.3021   -8.0717    0.0000 C   0  0  0  0  0  0  0  0  0  0  0  0
   15.9614   -9.2313    0.0000 C   0  0  0  0  0  0  0  0  0  0  0  0
   17.2802   -9.2313    0.0000 C   0  0  0  0  0  0  0  0  0  0  0  0
   17.9623   -8.0717    0.0000 O   0  0  0  0  0  0  0  0  0  0  0  0
   19.2811   -8.0717    0.0000 P   0  0  0  0  0  0  0  0  0  0  0  0
   20.6226   -8.0717    0.0000 O   0  5  0  0  0  0  0  0  0  0  0  0
   19.2811   -9.4132    0.0000 O   0  0  0  0  0  0  0  0  0  0  0  0
   19.2811   -6.7529    0.0000 O   0  0  0  0  0  0  0  0  0  0  0  0
   20.4407   -6.0708    0.0000 C   0  0  0  0  0  0  0  0  0  0  0  0
   20.4407   -4.7521    0.0000 C   0  0  0  0  0  0  0  0  0  0  0  0
   21.5775   -4.0927    0.0000 N   0  3  0  0  0  0  0  0  0  0  0  0
   22.2596   -5.2295    0.0000 C   0  0  0  0  0  0  0  0  0  0  0  0
   20.9181   -2.9331    0.0000 C   0  0  0  0  0  0  0  0  0  0  0  0
   22.7371   -3.4106    0.0000 C   0  0  0  0  0  0  0  0  0  0  0  0
   15.3021  -10.3681    0.0000 O   0  0  0  0  0  0  0  0  0  0  0  0
   13.9606  -10.3681    0.0000 C   0  0  0  0  0  0  0  0  0  0  0  0
   13.3012   -9.2313    0.0000 O   0  0  0  0  0  0  0  0  0  0  0  0
   13.3012  -11.5277    0.0000 C   0  0  0  0  0  0  0  0  0  0  0  0
   11.9597  -11.5277    0.0000 C   0  0  0  0  0  0  0  0  0  0  0  0
   11.3003  -10.3681    0.0000 C   0  0  0  0  0  0  0  0  0  0  0  0
    9.9816  -10.3681    0.0000 C   0  0  0  0  0  0  0  0  0  0  0  0
    9.2995   -9.2313    0.0000 C   0  0  0  0  0  0  0  0  0  0  0  0
    7.9807   -9.2313    0.0000 C   0  0  0  0  0  0  0  0  0  0  0  0
    7.3213   -8.0717    0.0000 C   0  0  0  0  0  0  0  0  0  0  0  0
    5.9799   -8.0717    0.0000 C   0  0  0  0  0  0  0  0  0  0  0  0
    5.3205   -6.9121    0.0000 C   0  0  0  0  0  0  0  0  0  0  0  0
    3.9790   -6.9121    0.0000 C   0  0  0  0  0  0  0  0  0  0  0  0
    3.3196   -5.7752    0.0000 C   0  0  0  0  0  0  0  0  0  0  0  0
    2.0009   -5.7752    0.0000 C   0  0  0  0  0  0  0  0  0  0  0  0
    1.3188   -4.6156    0.0000 C   0  0  0  0  0  0  0  0  0  0  0  0
  1  2  1  0  0  0  0
  2  3  1  0  0  0  0
  3  4  1  0  0  0  0
  4  5  1  0  0  0  0
  5  6  1  0  0  0  0
  6  7  1  0  0  0  0
  7  8  1  0  0  0  0
  8  9  1  0  0  0  0
  9 10  1  0  0  0  0
 10 11  1  0  0  0  0
 11 12  1  0  0  0  0
 12 13  1  0  0  0  0
 13 14  1  0  0  0  0
 14 15  2  0  0  0  0
 14 16  1  0  0  0  0
 16 17  1  0  0  0  0
 17 18  1  0  0  0  0
 18 19  1  0  0  0  0
 18 31  1  0  0  0  0
 19 20  1  0  0  0  0
 20 21  1  0  0  0  0
 21 22  1  0  0  0  0
 21 23  2  0  0  0  0
 21 24  1  0  0  0  0
 24 25  1  0  0  0  0
 25 26  1  0  0  0  0
 26 27  1  0  0  0  0
 27 28  1  0  0  0  0
 27 29  1  0  0  0  0
 27 30  1  0  0  0  0
 31 32  1  0  0  0  0
 32 33  2  0  0  0  0
 32 34  1  0  0  0  0
 34 35  1  0  0  0  0
 35 36  1  0  0  0  0
 36 37  1  0  0  0  0
 37 38  1  0  0  0  0
 38 39  1  0  0  0  0
 39 40  1  0  0  0  0
 40 41  1  0  0  0  0
 41 42  1  0  0  0  0
 42 43  1  0  0  0  0
 43 44  1  0  0  0  0
 44 45  1  0  0  0  0
 45 46  1  0  0  0  0
M  END
> <ID>
11992

> <Formula>
C36H72NO8P

> <FW>
677.9325

> <DSSTox_CID>
26816

> <DSSTox_RID>
81928

> <DSSTox_GSID>
46816

> <DSSTox_FileID_Sort>
6609

> <TS_ChemName>
1,2-Ditetradecanoyl-rac-glycerol-3-phosphocholine

> <TS_ChemName_Synonyms>


> <TS_CASRN>
18656-38-7

> <CASRN_ChemName_Relationship>
primary

> <TS_Description>
single chemical compound

> <ChemNote>
zwitterion; ammonium

> <STRUCTURE_Shown>
tested chemical

> <STRUCTURE_Formula>
C36H72NO8P

> <STRUCTURE_MW>
677.9325

> <STRUCTURE_ChemType>
defined organic

> <STRUCTURE_DefinedOrganicForm>
parent

> <STRUCTURE_IUPAC>
2,3-bis(tetradecanoyloxy)propyl 2-(trimethylammonio)ethyl phosphate

> <STRUCTURE_SMILES>
C[N+](C)(C)CCOP([O-])(=O)OCC(COC(=O)CCCCCCCCCCCCC)OC(=O)CCCCCCCCCCCCC

> <STRUCTURE_SMILES_Desalt>
C[N+](C)(C)CCOP(O)(=O)OCC(COC(=O)CCCCCCCCCCCCC)OC(=O)CCCCCCCCCCCCC

> <Substance_modify_yyyymmdd>
20110801

$$$$
