186826-86-8
ChemmineR-0915142007XD

 32 35  0  0  1  0  0  0  0  0  1 V2000
   11.5229   -4.1049    0.0000 Cl   0  0  0  0  0  0  0  0  0  0  0  0
    5.2620   -1.9976    0.0000 C    0  0  0  0  0  0  0  0  0  0  0  0
    5.2620   -3.3253    0.0000 C    0  0  0  0  0  0  0  0  0  0  0  0
    6.4070   -3.9952    0.0000 C    0  0  0  0  0  0  0  0  0  0  0  0
    6.4070   -1.3399    0.0000 C    0  0  0  0  0  0  0  0  0  0  0  0
    7.5642   -1.9976    0.0000 C    0  0  0  0  0  0  0  0  0  0  0  0
    7.5642   -3.3253    0.0000 C    0  0  0  0  0  0  0  0  0  0  0  0
    8.6970   -3.9952    0.0000 N    0  0  0  0  0  0  0  0  0  0  0  0
    9.8541   -3.3253    0.0000 C    0  0  0  0  0  0  0  0  0  0  0  0
    9.8541   -1.9976    0.0000 C    0  0  0  0  0  0  0  0  0  0  0  0
    8.6970   -1.3399    0.0000 C    0  0  0  0  0  0  0  0  0  0  0  0
    8.6970    0.0000    0.0000 O    0  0  0  0  0  0  0  0  0  0  0  0
   11.0235   -1.3399    0.0000 C    0  0  0  0  0  0  0  0  0  0  0  0
   11.0235    0.0000    0.0000 O    0  0  0  0  0  0  0  0  0  0  0  0
   12.1806   -1.9976    0.0000 O    0  0  0  0  0  0  0  0  0  0  0  0
    8.6970   -5.3229    0.0000 C    0  0  0  0  0  0  0  0  0  0  0  0
    8.0514   -6.4801    0.0000 C    0  0  0  0  0  0  0  0  0  0  0  0
    9.3913   -6.4801    0.0000 C    0  0  0  0  0  0  0  0  0  0  0  0
    6.4070   -5.3229    0.0000 O    0  0  0  0  0  0  0  0  0  0  0  0
    5.2620   -5.9807    0.0000 C    0  0  0  0  0  0  0  0  0  0  0  0
    4.0927   -1.3399    0.0000 F    0  0  0  0  0  0  0  0  0  0  0  0
    4.0927   -3.9952    0.0000 N    0  0  0  0  0  0  0  0  0  0  0  0
    2.8868   -3.4471    0.0000 C    0  0  0  0  0  0  0  0  0  0  0  0
    3.9587   -5.3108    0.0000 C    0  0  0  0  0  0  0  0  0  0  0  0
    2.6797   -5.6031    0.0000 C    0  0  0  0  0  0  0  0  0  0  0  0
    1.9854   -4.4459    0.0000 C    0  0  0  0  0  0  0  0  0  0  0  0
    0.6578   -4.4459    0.0000 N    0  0  0  0  0  0  0  0  0  0  0  0
    0.0000   -5.6031    0.0000 C    0  0  0  0  0  0  0  0  0  0  0  0
    0.6578   -6.7359    0.0000 C    0  0  0  0  0  0  0  0  0  0  0  0
    1.9854   -6.7359    0.0000 C    0  0  0  0  0  0  0  0  0  0  0  0
    1.3155   -3.2888    0.0000 H    0  0  0  0  0  0  0  0  0  0  0  0
    3.3375   -6.7359    0.0000 H    0  0  0  0  0  0  0  0  0  0  0  0
  2 21  1  0  0  0  0
  2  5  1  0  0  0  0
  2  3  2  0  0  0  0
  3 22  1  0  0  0  0
  3  4  1  0  0  0  0
  4  7  2  0  0  0  0
  4 19  1  0  0  0  0
  5  6  2  0  0  0  0
  6 11  1  0  0  0  0
  6  7  1  0  0  0  0
  7  8  1  0  0  0  0
  8 16  1  0  0  0  0
  8  9  1  0  0  0  0
  9 10  2  0  0  0  0
 10 11  1  0  0  0  0
 10 13  1  0  0  0  0
 11 12  2  0  0  0  0
 13 14  1  0  0  0  0
 13 15  2  0  0  0  0
 16 17  1  0  0  0  0
 16 18  1  0  0  0  0
 17 18  1  0  0  0  0
 19 20  1  0  0  0  0
 22 23  1  0  0  0  0
 22 24  1  0  0  0  0
 23 26  1  0  0  0  0
 24 25  1  0  0  0  0
 25 26  1  0  0  0  0
 25 30  1  0  0  0  0
 25 32  1  1  0  0  0
 26 27  1  0  0  0  0
 26 31  1  1  0  0  0
 27 28  1  0  0  0  0
 28 29  1  0  0  0  0
 29 30  1  0  0  0  0
M  END
> <ID>
11292

> <Formula>
C21H25ClFN3O4

> <FW>
437.8923 (36.4609+401.4314)

> <DSSTox_CID>
25921

> <DSSTox_RID>
81224

> <DSSTox_GSID>
45921

> <DSSTox_FileID_Sort>
5905

> <TS_ChemName>
Moxifloxacin hydrochloride

> <TS_ChemName_Synonyms>


> <TS_CASRN>
186826-86-8

> <CASRN_ChemName_Relationship>
primary

> <TS_Description>
single chemical compound

> <ChemNote>
stereochem; parent [151096-09-2]

> <STRUCTURE_Shown>
tested chemical

> <STRUCTURE_Formula>
C21H25ClFN3O4

> <STRUCTURE_MW>
437.8923

> <STRUCTURE_ChemType>
defined organic

> <STRUCTURE_DefinedOrganicForm>
complex

> <STRUCTURE_IUPAC>
1-cyclopropyl-6-fluoro-8-methoxy-7-[(4aS,7aS)-octahydro-6H-pyrrolo[3,4-b]pyridin-6-yl]-4-oxo-1,4-dihydroquinoline-3-carboxylic acid hydrochloride (1:1)

> <STRUCTURE_SMILES>
Cl.O=C(O)C2=CN(c1c(OC)c(c(F)cc1C2=O)N3C[C@@H]4CCCN[C@@H]4C3)C5CC5

> <STRUCTURE_SMILES_Desalt>
O=C(O)C2=CN(c1c(OC)c(c(F)cc1C2=O)N3C[C@@H]4CCCN[C@@H]4C3)C5CC5

> <Substance_modify_yyyymmdd>
20110930

$$$$
