18699-02-0
ChemmineR-0915142007XD

 14 14  0  0  0  0  0  0  0  0  1 V2000
    5.7595   -0.6749    0.0000 C   0  0  0  0  0  0  0  0  0  0  0  0
    5.7595   -1.9876    0.0000 C   0  0  0  0  0  0  0  0  0  0  0  0
    4.6224    0.0000    0.0000 C   0  0  0  0  0  0  0  0  0  0  0  0
    4.6224   -2.6625    0.0000 C   0  0  0  0  0  0  0  0  0  0  0  0
    3.4853   -0.6749    0.0000 C   0  0  0  0  0  0  0  0  0  0  0  0
    3.4853   -1.9876    0.0000 C   0  0  0  0  0  0  0  0  0  0  0  0
    6.9335    0.0000    0.0000 C   0  0  0  0  0  0  0  0  0  0  0  0
    8.0891   -0.6564    0.0000 C   0  0  0  0  0  0  0  0  0  0  0  0
    9.2447    0.0000    0.0000 O   0  0  0  0  0  0  0  0  0  0  0  0
    8.0891   -1.9876    0.0000 O   0  0  0  0  0  0  0  0  0  0  0  0
    2.3112   -2.6625    0.0000 N   0  0  0  0  0  0  0  0  0  0  0  0
    1.1556   -1.9876    0.0000 C   0  0  0  0  0  0  0  0  0  0  0  0
    0.0000   -2.6625    0.0000 C   0  0  0  0  0  0  0  0  0  0  0  0
    1.1556   -0.6564    0.0000 O   0  0  0  0  0  0  0  0  0  0  0  0
  1  2  1  0  0  0  0
  1  3  2  0  0  0  0
  1  7  1  0  0  0  0
  2  4  2  0  0  0  0
  3  5  1  0  0  0  0
  4  6  1  0  0  0  0
  5  6  2  0  0  0  0
  6 11  1  0  0  0  0
  7  8  1  0  0  0  0
  8  9  2  0  0  0  0
  8 10  1  0  0  0  0
 11 12  1  0  0  0  0
 12 13  1  0  0  0  0
 12 14  2  0  0  0  0
M  END
> <ID>
20

> <Formula>
C10H11NO3

> <FW>
193.1992

> <DSSTox_CID>
20

> <DSSTox_RID>
75323

> <DSSTox_GSID>
20020

> <DSSTox_FileID_Sort>
7

> <TS_ChemName>
4-Acetylaminophenylacetic acid

> <TS_ChemName_Synonyms>


> <TS_CASRN>
18699-02-0

> <CASRN_ChemName_Relationship>
primary

> <TS_Description>
single chemical compound

> <ChemNote>


> <STRUCTURE_Shown>
tested chemical

> <STRUCTURE_Formula>
C10H11NO3

> <STRUCTURE_MW>
193.1992

> <STRUCTURE_ChemType>
defined organic

> <STRUCTURE_DefinedOrganicForm>
parent

> <STRUCTURE_IUPAC>
[4-(acetylamino)phenyl]acetic acid

> <STRUCTURE_SMILES>
O=C(C)Nc1ccc(cc1)CC(=O)O

> <STRUCTURE_SMILES_Desalt>
O=C(C)Nc1ccc(cc1)CC(=O)O

> <Substance_modify_yyyymmdd>
20080429

$$$$
