18691-97-9
ChemmineR-0915142007XD

 15 16  0  0  0  0  0  0  0  0  1 V2000
    4.3273   -1.3257    0.0000 C   0  0  0  0  0  0  0  0  0  0  0  0
    3.5602   -2.4096    0.0000 N   0  0  0  0  0  0  0  0  0  0  0  0
    5.6697   -1.3257    0.0000 N   0  0  0  0  0  0  0  0  0  0  0  0
    3.5602   -0.2585    0.0000 S   0  0  0  0  0  0  0  0  0  0  0  0
    6.3284   -2.4930    0.0000 C   0  0  0  0  0  0  0  0  0  0  0  0
    2.3012   -2.0178    0.0000 C   0  0  0  0  0  0  0  0  0  0  0  0
    2.3012   -0.6754    0.0000 C   0  0  0  0  0  0  0  0  0  0  0  0
    5.6697   -3.6436    0.0000 O   0  0  0  0  0  0  0  0  0  0  0  0
    7.6791   -2.4930    0.0000 N   0  0  0  0  0  0  0  0  0  0  0  0
    6.3284   -0.1918    0.0000 C   0  0  0  0  0  0  0  0  0  0  0  0
    1.1506   -2.6681    0.0000 C   0  0  0  0  0  0  0  0  0  0  0  0
    1.1506    0.0000    0.0000 C   0  0  0  0  0  0  0  0  0  0  0  0
    8.3378   -3.6436    0.0000 C   0  0  0  0  0  0  0  0  0  0  0  0
    0.0000   -0.6754    0.0000 C   0  0  0  0  0  0  0  0  0  0  0  0
    0.0000   -2.0178    0.0000 C   0  0  0  0  0  0  0  0  0  0  0  0
  1  2  2  0  0  0  0
  1  3  1  0  0  0  0
  1  4  1  0  0  0  0
  2  6  1  0  0  0  0
  3  5  1  0  0  0  0
  3 10  1  0  0  0  0
  4  7  1  0  0  0  0
  5  8  2  0  0  0  0
  5  9  1  0  0  0  0
  6 11  1  0  0  0  0
  6  7  2  0  0  0  0
  7 12  1  0  0  0  0
  9 13  1  0  0  0  0
 11 15  2  0  0  0  0
 12 14  2  0  0  0  0
 14 15  1  0  0  0  0
M  END
> <ID>
7344

> <Formula>
C10H11N3OS

> <FW>
221.2788

> <DSSTox_CID>
17570

> <DSSTox_RID>
79338

> <DSSTox_GSID>
37570

> <DSSTox_FileID_Sort>
4020

> <TS_ChemName>
Methabenzthiazuron

> <TS_ChemName_Synonyms>


> <TS_CASRN>
18691-97-9

> <CASRN_ChemName_Relationship>
primary

> <TS_Description>
single chemical compound

> <ChemNote>


> <STRUCTURE_Shown>
tested chemical

> <STRUCTURE_Formula>
C10H11N3OS

> <STRUCTURE_MW>
221.2788

> <STRUCTURE_ChemType>
defined organic

> <STRUCTURE_DefinedOrganicForm>
parent

> <STRUCTURE_IUPAC>
1-(1,3-benzothiazol-2-yl)-1,3-dimethylurea

> <STRUCTURE_SMILES>
CNC(=O)N(C)c1nc2ccccc2s1

> <STRUCTURE_SMILES_Desalt>
CNC(=O)N(C)c1nc2ccccc2s1

> <Substance_modify_yyyymmdd>
20080429

$$$$
