18708-70-8
ChemmineR-0915142007XD

 12 12  0  0  0  0  0  0  0  0  2 V2000
    5.9827   -3.4580    0.0000 O    0  5  0  0  0  0  0  0  0  0  0  0
    5.3186   -2.3033    0.0000 N    0  3  0  0  0  0  0  0  0  0  0  0
    5.9827   -1.1547    0.0000 O    0  0  0  0  0  0  0  0  0  0  0  0
    3.9905   -2.3033    0.0000 C    0  0  0  0  0  0  0  0  0  0  0  0
    3.3264   -3.4580    0.0000 C    0  0  0  0  0  0  0  0  0  0  0  0
    3.9905   -4.6067    0.0000 Cl   0  0  0  0  0  0  0  0  0  0  0  0
    1.9922   -3.4580    0.0000 C    0  0  0  0  0  0  0  0  0  0  0  0
    1.3282   -2.3033    0.0000 C    0  0  0  0  0  0  0  0  0  0  0  0
    0.0000   -2.3033    0.0000 Cl   0  0  0  0  0  0  0  0  0  0  0  0
    1.9922   -1.1547    0.0000 C    0  0  0  0  0  0  0  0  0  0  0  0
    3.3264   -1.1547    0.0000 C    0  0  0  0  0  0  0  0  0  0  0  0
    3.9905    0.0000    0.0000 Cl   0  0  0  0  0  0  0  0  0  0  0  0
  1  2  1  0  0  0  0
  2  3  2  0  0  0  0
  2  4  1  0  0  0  0
  4  5  2  0  0  0  0
  4 11  1  0  0  0  0
  5  6  1  0  0  0  0
  5  7  1  0  0  0  0
  7  8  2  0  0  0  0
  8  9  1  0  0  0  0
  8 10  1  0  0  0  0
 10 11  2  0  0  0  0
 11 12  1  0  0  0  0
M  END
> <ID>
4591

> <Formula>
C6H2Cl3NO2

> <FW>
226.4446

> <DSSTox_CID>
6204

> <DSSTox_RID>
78056

> <DSSTox_GSID>
26204

> <DSSTox_FileID_Sort>
2739

> <TS_ChemName>
2,4,6-Trichloronitrobenzene

> <TS_ChemName_Synonyms>


> <TS_CASRN>
18708-70-8

> <CASRN_ChemName_Relationship>
primary

> <TS_Description>
single chemical compound

> <ChemNote>


> <STRUCTURE_Shown>
tested chemical

> <STRUCTURE_Formula>
C6H2Cl3NO2

> <STRUCTURE_MW>
226.4446

> <STRUCTURE_ChemType>
defined organic

> <STRUCTURE_DefinedOrganicForm>
parent

> <STRUCTURE_IUPAC>
1,3,5-trichloro-2-nitrobenzene

> <STRUCTURE_SMILES>
O=[N+]([O-])c1c(Cl)cc(Cl)cc1Cl

> <STRUCTURE_SMILES_Desalt>
O=[N+]([O-])c1c(Cl)cc(Cl)cc1Cl

> <Substance_modify_yyyymmdd>
20080429

$$$$
