187164-19-8
ChemmineR-0915142007XD

 21 23  0  0  1  0  0  0  0  0  1 V2000
    9.3742   -1.3301    0.0000 C    0  0  0  0  0  0  0  0  0  0  0  0
    9.1189   -2.6388    0.0000 C    0  0  0  0  0  0  0  0  0  0  0  0
    8.3740   -0.4469    0.0000 C    0  0  0  0  0  0  0  0  0  0  0  0
    7.8633   -3.0645    0.0000 C    0  0  0  0  0  0  0  0  0  0  0  0
    7.1078   -0.8832    0.0000 C    0  0  0  0  0  0  0  0  0  0  0  0
    6.8525   -2.2026    0.0000 C    0  0  0  0  0  0  0  0  0  0  0  0
    5.6501   -2.5644    0.0000 C    0  0  0  0  0  0  0  0  0  0  0  0
    5.6501   -3.9050    0.0000 C    0  0  0  0  0  0  0  0  0  0  0  0
    4.3839   -2.1494    0.0000 S    0  0  0  0  0  0  0  0  0  0  0  0
    4.3839   -4.3200    0.0000 S    0  0  0  0  0  0  0  0  0  0  0  0
    3.5965   -3.2453    0.0000 C    0  0  0  0  0  0  0  0  0  0  0  0
   10.6405   -0.9044    0.0000 Cl   0  0  0  0  0  0  0  0  0  0  0  0
    6.1183    0.0000    0.0000 Cl   0  0  0  0  0  0  0  0  0  0  0  0
    2.2664   -3.2453    0.0000 C    0  0  0  0  0  0  0  0  0  0  0  0
    1.6067   -2.0855    0.0000 C    0  0  0  0  0  0  0  0  0  0  0  0
    1.6067   -4.3839    0.0000 N    0  0  0  0  0  0  0  0  0  0  0  0
    2.1387   -5.6075    0.0000 C    0  0  0  0  0  0  0  0  0  0  0  0
    0.2767   -4.5222    0.0000 C    0  0  0  0  0  0  0  0  0  0  0  0
    1.1598   -6.5013    0.0000 N    0  0  0  0  0  0  0  0  0  0  0  0
    0.0000   -5.8310    0.0000 C    0  0  0  0  0  0  0  0  0  0  0  0
    2.2664   -0.9364    0.0000 N    0  0  0  0  0  0  0  0  0  0  0  0
  1  2  1  0  0  0  0
  1  3  2  0  0  0  0
  1 12  1  0  0  0  0
  2  4  2  0  0  0  0
  3  5  1  0  0  0  0
  4  6  1  0  0  0  0
  5  6  2  0  0  0  0
  5 13  1  0  0  0  0
  7  6  1  6  0  0  0
  7  8  1  0  0  0  0
  7  9  1  0  0  0  0
  8 10  1  0  0  0  0
  9 11  1  0  0  0  0
 10 11  1  0  0  0  0
 11 14  2  0  0  0  0
 14 15  1  0  0  0  0
 14 16  1  0  0  0  0
 15 21  3  0  0  0  0
 16 17  1  0  0  0  0
 16 18  1  0  0  0  0
 17 19  2  0  0  0  0
 18 20  2  0  0  0  0
 19 20  1  0  0  0  0
M  END
> <ID>
13605

> <Formula>
C14H9Cl2N3S2

> <FW>
354.2774

> <DSSTox_CID>
28533

> <DSSTox_RID>
82805

> <DSSTox_GSID>
48607

> <DSSTox_FileID_Sort>
7482

> <TS_ChemName>
Luliconazole

> <TS_ChemName_Synonyms>


> <TS_CASRN>
187164-19-8

> <CASRN_ChemName_Relationship>
primary

> <TS_Description>
single chemical compound

> <ChemNote>
stereochem

> <STRUCTURE_Shown>
tested chemical

> <STRUCTURE_Formula>
C14H9Cl2N3S2

> <STRUCTURE_MW>
354.2774

> <STRUCTURE_ChemType>
defined organic

> <STRUCTURE_DefinedOrganicForm>
parent

> <STRUCTURE_IUPAC>
(2E)-[(4R)-4-(2,4-dichlorophenyl)-1,3-dithiolan-2-ylidene](1H-imidazol-1-yl)acetonitrile

> <STRUCTURE_SMILES>
N#C/C(=C1/SC[C@H](S1)c2ccc(Cl)cc2Cl)n3ccnc3

> <STRUCTURE_SMILES_Desalt>
N#C/C(=C1/SC[C@H](S1)c2ccc(Cl)cc2Cl)n3ccnc3

> <Substance_modify_yyyymmdd>
20111014

$$$$
