187269-40-5
ChemmineR-0915142007XD

 62 67  0  0  1  0  0  0  0  0  1 V2000
    5.7495   -0.6359    0.0000 C   0  0  0  0  0  0  0  0  0  0  0  0
    6.9152    0.0000    0.0000 O   0  0  0  0  0  0  0  0  0  0  0  0
    4.6102    0.0000    0.0000 O   0  0  0  0  0  0  0  0  0  0  0  0
    5.7495   -1.9871    0.0000 C   0  0  0  0  0  0  0  0  0  0  0  0
   20.7457  -15.9501    0.0000 C   0  0  0  0  0  0  0  0  0  0  0  0
   19.5800  -16.6125    0.0000 O   0  0  0  0  0  0  0  0  0  0  0  0
   21.8850  -16.6125    0.0000 O   0  0  0  0  0  0  0  0  0  0  0  0
   20.7457  -14.6254    0.0000 C   0  0  0  0  0  0  0  0  0  0  0  0
   16.1356   -7.9751    0.0000 C   0  0  0  0  0  0  0  0  0  0  0  0
   14.9698   -8.6374    0.0000 C   0  0  0  0  0  0  0  0  0  0  0  0
   13.8305   -7.9751    0.0000 C   0  0  0  0  0  0  0  0  0  0  0  0
   12.6912   -8.6374    0.0000 C   0  0  0  0  0  0  0  0  0  0  0  0
   11.5254   -7.9751    0.0000 C   0  0  0  0  0  0  0  0  0  0  0  0
   10.3596   -8.6374    0.0000 C   0  0  0  0  0  0  0  0  0  0  0  0
   18.4407  -11.9758    0.0000 C   0  0  0  0  0  0  0  0  0  0  0  0
   18.4407  -10.6246    0.0000 C   0  0  0  0  0  0  0  0  0  0  0  0
   19.5800  -12.6117    0.0000 C   0  0  0  0  0  0  0  0  0  0  0  0
   17.2749  -12.6117    0.0000 C   0  0  0  0  0  0  0  0  0  0  0  0
   17.2749   -9.9622    0.0000 C   0  0  0  0  0  0  0  0  0  0  0  0
   19.5800   -9.9622    0.0000 C   0  0  0  0  0  0  0  0  0  0  0  0
   19.5800  -13.9630    0.0000 C   0  0  0  0  0  0  0  0  0  0  0  0
   17.2749   -8.6374    0.0000 C   0  0  0  0  0  0  0  0  0  0  0  0
   19.5800   -8.6374    0.0000 C   0  0  0  0  0  0  0  0  0  0  0  0
   17.2749  -13.9630    0.0000 C   0  0  0  0  0  0  0  0  0  0  0  0
   18.4407  -14.6254    0.0000 C   0  0  0  0  0  0  0  0  0  0  0  0
   18.4407   -7.9751    0.0000 C   0  0  0  0  0  0  0  0  0  0  0  0
   20.7457  -10.6246    0.0000 O   0  0  0  0  0  0  0  0  0  0  0  0
   21.8850   -9.9622    0.0000 C   0  0  0  0  0  0  0  0  0  0  0  0
   21.8850   -8.6374    0.0000 C   0  0  0  0  0  0  0  0  0  0  0  0
   20.7457   -7.9751    0.0000 O   0  0  0  0  0  0  0  0  0  0  0  0
   23.0508   -7.9751    0.0000 C   0  0  0  0  0  0  0  0  0  0  0  0
   23.0508   -6.6503    0.0000 O   0  0  0  0  0  0  0  0  0  0  0  0
   24.1901   -8.6374    0.0000 C   0  0  0  0  0  0  0  0  0  0  0  0
   25.3294   -7.9751    0.0000 O   0  0  0  0  0  0  0  0  0  0  0  0
   24.1901   -9.9622    0.0000 C   0  0  0  0  0  0  0  0  0  0  0  0
   23.0508  -10.6246    0.0000 O   0  0  0  0  0  0  0  0  0  0  0  0
   25.3294  -10.6246    0.0000 C   0  0  0  0  0  0  0  0  0  0  0  0
   26.4952   -9.9622    0.0000 O   0  0  0  0  0  0  0  0  0  0  0  0
    8.0545   -4.6367    0.0000 C   0  0  0  0  0  0  0  0  0  0  0  0
    8.0545   -5.9614    0.0000 C   0  0  0  0  0  0  0  0  0  0  0  0
    6.9152   -3.9743    0.0000 C   0  0  0  0  0  0  0  0  0  0  0  0
    9.2203   -3.9743    0.0000 C   0  0  0  0  0  0  0  0  0  0  0  0
    9.2203   -6.6503    0.0000 C   0  0  0  0  0  0  0  0  0  0  0  0
    6.9152   -6.6503    0.0000 C   0  0  0  0  0  0  0  0  0  0  0  0
    6.9152   -2.6495    0.0000 C   0  0  0  0  0  0  0  0  0  0  0  0
    9.2203   -7.9751    0.0000 C   0  0  0  0  0  0  0  0  0  0  0  0
    6.9152   -7.9751    0.0000 C   0  0  0  0  0  0  0  0  0  0  0  0
    9.2203   -2.6495    0.0000 C   0  0  0  0  0  0  0  0  0  0  0  0
    8.0545   -1.9871    0.0000 C   0  0  0  0  0  0  0  0  0  0  0  0
    8.0545   -8.6374    0.0000 C   0  0  0  0  0  0  0  0  0  0  0  0
    5.7495   -5.9614    0.0000 O   0  0  0  0  0  0  0  0  0  0  0  0
    4.6102   -6.6503    0.0000 C   0  0  0  0  0  0  0  0  0  0  0  0
    4.6102   -7.9751    0.0000 C   0  0  0  0  0  0  0  0  0  0  0  0
    5.7495   -8.6374    0.0000 O   0  0  0  0  0  0  0  0  0  0  0  0
    3.4709   -8.6374    0.0000 C   0  0  0  0  0  0  0  0  0  0  0  0
    3.4709   -9.9622    0.0000 O   0  0  0  0  0  0  0  0  0  0  0  0
    2.3051   -7.9751    0.0000 C   0  0  0  0  0  0  0  0  0  0  0  0
    1.1658   -8.6374    0.0000 O   0  0  0  0  0  0  0  0  0  0  0  0
    2.3051   -6.6503    0.0000 C   0  0  0  0  0  0  0  0  0  0  0  0
    3.4709   -5.9614    0.0000 O   0  0  0  0  0  0  0  0  0  0  0  0
    1.1658   -5.9614    0.0000 C   0  0  0  0  0  0  0  0  0  0  0  0
    0.0000   -6.6503    0.0000 O   0  0  0  0  0  0  0  0  0  0  0  0
  1  2  2  0  0  0  0
  1  3  1  0  0  0  0
  1  4  1  0  0  0  0
  4 45  1  0  0  0  0
  5  6  2  0  0  0  0
  5  7  1  0  0  0  0
  5  8  1  0  0  0  0
  8 21  1  0  0  0  0
  9 10  1  0  0  0  0
  9 22  1  0  0  0  0
 10 11  1  0  0  0  0
 11 12  1  0  0  0  0
 12 13  1  0  0  0  0
 13 14  1  0  0  0  0
 14 46  1  0  0  0  0
 15 16  1  0  0  0  0
 15 17  2  0  0  0  0
 15 18  1  0  0  0  0
 16 19  2  0  0  0  0
 16 20  1  0  0  0  0
 17 21  1  0  0  0  0
 18 24  2  0  0  0  0
 19 22  1  0  0  0  0
 20 23  2  0  0  0  0
 20 27  1  0  0  0  0
 21 25  2  0  0  0  0
 22 26  2  0  0  0  0
 23 26  1  0  0  0  0
 24 25  1  0  0  0  0
 28 27  1  6  0  0  0
 28 29  1  0  0  0  0
 28 36  1  0  0  0  0
 29 30  1  1  0  0  0
 29 31  1  0  0  0  0
 31 32  1  1  0  0  0
 31 33  1  0  0  0  0
 33 34  1  6  0  0  0
 33 35  1  0  0  0  0
 35 36  1  0  0  0  0
 35 37  1  1  0  0  0
 37 38  1  0  0  0  0
 39 40  1  0  0  0  0
 39 41  2  0  0  0  0
 39 42  1  0  0  0  0
 40 43  2  0  0  0  0
 40 44  1  0  0  0  0
 41 45  1  0  0  0  0
 42 48  2  0  0  0  0
 43 46  1  0  0  0  0
 44 47  2  0  0  0  0
 44 51  1  0  0  0  0
 45 49  2  0  0  0  0
 46 50  2  0  0  0  0
 47 50  1  0  0  0  0
 48 49  1  0  0  0  0
 52 51  1  6  0  0  0
 52 53  1  0  0  0  0
 52 60  1  0  0  0  0
 53 54  1  1  0  0  0
 53 55  1  0  0  0  0
 55 56  1  1  0  0  0
 55 57  1  0  0  0  0
 57 58  1  6  0  0  0
 57 59  1  0  0  0  0
 59 60  1  0  0  0  0
 59 61  1  1  0  0  0
 61 62  1  0  0  0  0
M  END
> <ID>
13772

> <Formula>
C46H54O16

> <FW>
862.9114

> <DSSTox_CID>
28709

> <DSSTox_RID>
82978

> <DSSTox_GSID>
48783

> <DSSTox_FileID_Sort>
7655

> <TS_ChemName>
Bimosiamose

> <TS_ChemName_Synonyms>


> <TS_CASRN>
187269-40-5

> <CASRN_ChemName_Relationship>
primary

> <TS_Description>
single chemical compound

> <ChemNote>
stereochem

> <STRUCTURE_Shown>
tested chemical

> <STRUCTURE_Formula>
C46H54O16

> <STRUCTURE_MW>
862.9114

> <STRUCTURE_ChemType>
defined organic

> <STRUCTURE_DefinedOrganicForm>
parent

> <STRUCTURE_IUPAC>
2,2'-{hexane-1,6-diylbis[6'-(alpha-D-mannopyranosyloxy)biphenyl-3',3-diyl]}diacetic acid

> <STRUCTURE_SMILES>
O=C(O)Cc1cccc(c1)c3cc(ccc3O[C@H]2O[C@H](CO)[C@@H](O)[C@H](O)[C@@H]2O)CCCCCCc5ccc(O[C@H]4O[C@H](CO)[C@@H](O)[C@H](O)[C@@H]4O)c(c5)c6cccc(CC(=O)O)c6

> <STRUCTURE_SMILES_Desalt>
O=C(O)Cc1cccc(c1)c3cc(ccc3O[C@H]2O[C@H](CO)[C@@H](O)[C@H](O)[C@@H]2O)CCCCCCc5ccc(O[C@H]4O[C@H](CO)[C@@H](O)[C@H](O)[C@@H]4O)c(c5)c6cccc(CC(=O)O)c6

> <Substance_modify_yyyymmdd>
20111204

$$$$
