1878-49-5
ChemmineR-0915142007XD

 12 12  0  0  0  0  0  0  0  0  1 V2000
    5.7589   -1.3274    0.0000 C   0  0  0  0  0  0  0  0  0  0  0  0
    5.7589    0.0000    0.0000 O   0  0  0  0  0  0  0  0  0  0  0  0
    6.9134   -1.9980    0.0000 O   0  0  0  0  0  0  0  0  0  0  0  0
    4.6112   -1.9980    0.0000 C   0  0  0  0  0  0  0  0  0  0  0  0
    3.4567   -1.3274    0.0000 O   0  0  0  0  0  0  0  0  0  0  0  0
    2.3022   -1.9980    0.0000 C   0  0  0  0  0  0  0  0  0  0  0  0
    2.3022   -3.3254    0.0000 C   0  0  0  0  0  0  0  0  0  0  0  0
    1.1545   -1.3274    0.0000 C   0  0  0  0  0  0  0  0  0  0  0  0
    1.1545   -3.9821    0.0000 C   0  0  0  0  0  0  0  0  0  0  0  0
    0.0000   -1.9842    0.0000 C   0  0  0  0  0  0  0  0  0  0  0  0
    0.0000   -3.3115    0.0000 C   0  0  0  0  0  0  0  0  0  0  0  0
    3.4567   -3.9821    0.0000 C   0  0  0  0  0  0  0  0  0  0  0  0
  1  2  2  0  0  0  0
  1  3  1  0  0  0  0
  1  4  1  0  0  0  0
  4  5  1  0  0  0  0
  5  6  1  0  0  0  0
  6  7  2  0  0  0  0
  6  8  1  0  0  0  0
  7  9  1  0  0  0  0
  7 12  1  0  0  0  0
  8 10  2  0  0  0  0
  9 11  2  0  0  0  0
 10 11  1  0  0  0  0
M  END
> <ID>
8407

> <Formula>
C9H10O3

> <FW>
166.1739

> <DSSTox_CID>
21441

> <DSSTox_RID>
79736

> <DSSTox_GSID>
41441

> <DSSTox_FileID_Sort>
4418

> <TS_ChemName>
(2-Methylphenoxy)acetic acid

> <TS_ChemName_Synonyms>
2-Methylphenoxyacetic acid

> <TS_CASRN>
1878-49-5

> <CASRN_ChemName_Relationship>
primary

> <TS_Description>
single chemical compound

> <ChemNote>


> <STRUCTURE_Shown>
tested chemical

> <STRUCTURE_Formula>
C9H10O3

> <STRUCTURE_MW>
166.1739

> <STRUCTURE_ChemType>
defined organic

> <STRUCTURE_DefinedOrganicForm>
parent

> <STRUCTURE_IUPAC>
(2-methylphenoxy)acetic acid

> <STRUCTURE_SMILES>
O=C(O)COc1ccccc1C

> <STRUCTURE_SMILES_Desalt>
O=C(O)COc1ccccc1C

> <Substance_modify_yyyymmdd>
20080825

$$$$
