18835-02-4
ChemmineR-0915142007XD

 13 12  0  0  0  0  0  0  0  0  1 V2000
    4.5932   -1.9904    0.0000 C   0  0  0  0  0  0  0  0  0  0  0  0
    4.5932   -0.6608    0.0000 O   0  0  0  0  0  0  0  0  0  0  0  0
    5.7455   -2.6511    0.0000 O   0  0  0  0  0  0  0  0  0  0  0  0
    3.4650   -2.6511    0.0000 C   0  0  0  0  0  0  0  0  0  0  0  0
    2.3127   -1.9904    0.0000 C   0  0  0  0  0  0  0  0  0  0  0  0
    2.3127   -0.6608    0.0000 C   0  0  0  0  0  0  0  0  0  0  0  0
    3.4650    0.0000    0.0000 C   0  0  0  0  0  0  0  0  0  0  0  0
    1.1523   -2.6673    0.0000 C   0  0  0  0  0  0  0  0  0  0  0  0
    1.1523   -3.9969    0.0000 O   0  0  0  0  0  0  0  0  0  0  0  0
    0.0000   -1.9904    0.0000 C   0  0  0  0  0  0  0  0  0  0  0  0
    1.1523    0.0000    0.0000 O   0  0  0  0  0  0  0  0  0  0  0  0
    6.9059   -1.9904    0.0000 C   0  0  0  0  0  0  0  0  0  0  0  0
    8.0582   -2.6511    0.0000 C   0  0  0  0  0  0  0  0  0  0  0  0
  1  2  2  0  0  0  0
  1  3  1  0  0  0  0
  1  4  1  0  0  0  0
  3 12  1  0  0  0  0
  4  5  1  0  0  0  0
  5  6  1  0  0  0  0
  5  8  1  0  0  0  0
  6  7  1  0  0  0  0
  6 11  2  0  0  0  0
  8  9  2  0  0  0  0
  8 10  1  0  0  0  0
 12 13  1  0  0  0  0
M  END
> <ID>
10510

> <Formula>
C9H14O4

> <FW>
186.2051

> <DSSTox_CID>
24863

> <DSSTox_RID>
80540

> <DSSTox_GSID>
44863

> <DSSTox_FileID_Sort>
5222

> <TS_ChemName>
Ethyl 3-acetyl-4-oxopentanoate

> <TS_ChemName_Synonyms>
Ethyl 3-acetyl-4-oxopentanoate (Pentanoic acid, 3-acetyl-4-oxo-, ethyl ester)

> <TS_CASRN>
18835-02-4

> <CASRN_ChemName_Relationship>
primary

> <TS_Description>
single chemical compound

> <ChemNote>
tautomers

> <STRUCTURE_Shown>
tested chemical

> <STRUCTURE_Formula>
C9H14O4

> <STRUCTURE_MW>
186.2051

> <STRUCTURE_ChemType>
defined organic

> <STRUCTURE_DefinedOrganicForm>
parent

> <STRUCTURE_IUPAC>
ethyl 3-acetyl-4-oxopentanoate

> <STRUCTURE_SMILES>
O=C(C)C(CC(=O)OCC)C(C)=O

> <STRUCTURE_SMILES_Desalt>
O=C(C)C(CC(=O)OCC)C(C)=O

> <Substance_modify_yyyymmdd>
20091116

$$$$
