188489-07-8
ChemmineR-0915142007XD

 27 28  0  0  0  0  0  0  0  0  1 V2000
    5.3329   -4.6150    0.0000 N    0  0  0  0  0  0  0  0  0  0  0  0
    4.6589   -5.7577    0.0000 N    0  0  0  0  0  0  0  0  0  0  0  0
    4.6589   -3.4722    0.0000 C    0  0  0  0  0  0  0  0  0  0  0  0
    3.3257   -5.7577    0.0000 C    0  0  0  0  0  0  0  0  0  0  0  0
    3.3257   -3.4722    0.0000 C    0  0  0  0  0  0  0  0  0  0  0  0
    2.6664   -4.6150    0.0000 C    0  0  0  0  0  0  0  0  0  0  0  0
    8.6439   -3.4722    0.0000 C    0  0  0  0  0  0  0  0  0  0  0  0
    9.3179   -4.6150    0.0000 C    0  0  0  0  0  0  0  0  0  0  0  0
    7.3107   -3.4722    0.0000 C    0  0  0  0  0  0  0  0  0  0  0  0
    8.6439   -5.7577    0.0000 C    0  0  0  0  0  0  0  0  0  0  0  0
    6.6661   -4.6150    0.0000 C    0  0  0  0  0  0  0  0  0  0  0  0
    7.3107   -5.7577    0.0000 C    0  0  0  0  0  0  0  0  0  0  0  0
   10.6511   -4.6150    0.0000 Cl   0  0  0  0  0  0  0  0  0  0  0  0
    6.6661   -6.9151    0.0000 F    0  0  0  0  0  0  0  0  0  0  0  0
    1.3332   -4.6150    0.0000 C    0  0  0  0  0  0  0  0  0  0  0  0
    1.3332   -3.2818    0.0000 F    0  0  0  0  0  0  0  0  0  0  0  0
    1.3332   -5.9482    0.0000 F    0  0  0  0  0  0  0  0  0  0  0  0
    0.0000   -4.6150    0.0000 F    0  0  0  0  0  0  0  0  0  0  0  0
    9.3179   -2.3148    0.0000 O    0  0  0  0  0  0  0  0  0  0  0  0
   10.6511   -2.3148    0.0000 C    0  0  0  0  0  0  0  0  0  0  0  0
   11.3104   -1.1574    0.0000 C    0  0  0  0  0  0  0  0  0  0  0  0
   12.6436   -1.1574    0.0000 O    0  0  0  0  0  0  0  0  0  0  0  0
   13.3175    0.0000    0.0000 C    0  0  0  0  0  0  0  0  0  0  0  0
   14.6507    0.0000    0.0000 C    0  0  0  0  0  0  0  0  0  0  0  0
   10.6511    0.0000    0.0000 O    0  0  0  0  0  0  0  0  0  0  0  0
    5.3329   -2.3148    0.0000 O    0  0  0  0  0  0  0  0  0  0  0  0
    2.6664   -2.3148    0.0000 C    0  0  0  0  0  0  0  0  0  0  0  0
  1  2  1  0  0  0  0
  1  3  1  0  0  0  0
  1 11  1  0  0  0  0
  2  4  2  0  0  0  0
  3  5  1  0  0  0  0
  3 26  2  0  0  0  0
  4  6  1  0  0  0  0
  5  6  2  0  0  0  0
  5 27  1  0  0  0  0
  6 15  1  0  0  0  0
  7  8  1  0  0  0  0
  7  9  2  0  0  0  0
  7 19  1  0  0  0  0
  8 10  2  0  0  0  0
  8 13  1  0  0  0  0
  9 11  1  0  0  0  0
 10 12  1  0  0  0  0
 11 12  2  0  0  0  0
 12 14  1  0  0  0  0
 15 16  1  0  0  0  0
 15 17  1  0  0  0  0
 15 18  1  0  0  0  0
 19 20  1  0  0  0  0
 20 21  1  0  0  0  0
 21 22  1  0  0  0  0
 21 25  2  0  0  0  0
 22 23  1  0  0  0  0
 23 24  1  0  0  0  0
M  END
> <ID>
6849

> <Formula>
C16H13ClF4N2O4

> <FW>
408.732

> <DSSTox_CID>
14618

> <DSSTox_RID>
79179

> <DSSTox_GSID>
34618

> <DSSTox_FileID_Sort>
3861

> <TS_ChemName>
Flufenpyr-ethyl

> <TS_ChemName_Synonyms>
Flufenpyr-ethyl (Acetic acid, [2-chloro-4-flupro-5-[5-methyl-6-oxo- 4-(trifluoromethyl)-1(6H)-pyridazinyl]phenoxy]-, ethyl ester)

> <TS_CASRN>
188489-07-8

> <CASRN_ChemName_Relationship>
primary

> <TS_Description>
single chemical compound

> <ChemNote>


> <STRUCTURE_Shown>
tested chemical

> <STRUCTURE_Formula>
C16H13ClF4N2O4

> <STRUCTURE_MW>
408.732

> <STRUCTURE_ChemType>
defined organic

> <STRUCTURE_DefinedOrganicForm>
parent

> <STRUCTURE_IUPAC>
ethyl {2-chloro-4-fluoro-5-[5-methyl-6-oxo-4-(trifluoromethyl)pyridazin-1(6H)-yl]phenoxy}acetate

> <STRUCTURE_SMILES>
O=C(OCC)COc1cc(c(F)cc1Cl)N2N=CC(=C(C)C2=O)C(F)(F)F

> <STRUCTURE_SMILES_Desalt>
O=C(OCC)COc1cc(c(F)cc1Cl)N2N=CC(=C(C)C2=O)C(F)(F)F

> <Substance_modify_yyyymmdd>
20080429

$$$$
