188425-85-6
ChemmineR-0915142007XD

 23 25  0  0  0  0  0  0  0  0  1 V2000
    3.4763   -2.0003    0.0000 C    0  0  0  0  0  0  0  0  0  0  0  0
    2.3068   -2.6536    0.0000 C    0  0  0  0  0  0  0  0  0  0  0  0
    3.4763   -0.6695    0.0000 O    0  0  0  0  0  0  0  0  0  0  0  0
    1.1534   -4.6539    0.0000 N    0  0  0  0  0  0  0  0  0  0  0  0
    2.3068   -3.9845    0.0000 C    0  0  0  0  0  0  0  0  0  0  0  0
    1.1534   -2.0003    0.0000 C    0  0  0  0  0  0  0  0  0  0  0  0
    0.0000   -3.9845    0.0000 C    0  0  0  0  0  0  0  0  0  0  0  0
    0.0000   -2.6536    0.0000 C    0  0  0  0  0  0  0  0  0  0  0  0
    4.6055   -2.6536    0.0000 N    0  0  0  0  0  0  0  0  0  0  0  0
    3.4763   -4.6539    0.0000 Cl   0  0  0  0  0  0  0  0  0  0  0  0
    6.9123   -2.6536    0.0000 C    0  0  0  0  0  0  0  0  0  0  0  0
    6.9123   -3.9845    0.0000 C    0  0  0  0  0  0  0  0  0  0  0  0
    5.7589   -2.0003    0.0000 C    0  0  0  0  0  0  0  0  0  0  0  0
    8.0657   -2.0003    0.0000 C    0  0  0  0  0  0  0  0  0  0  0  0
    8.0657   -4.6539    0.0000 C    0  0  0  0  0  0  0  0  0  0  0  0
    5.7589   -4.6539    0.0000 C    0  0  0  0  0  0  0  0  0  0  0  0
    5.7589   -0.6695    0.0000 C    0  0  0  0  0  0  0  0  0  0  0  0
    8.0657   -5.9848    0.0000 C    0  0  0  0  0  0  0  0  0  0  0  0
    5.7589   -5.9848    0.0000 C    0  0  0  0  0  0  0  0  0  0  0  0
    8.0657   -0.6695    0.0000 C    0  0  0  0  0  0  0  0  0  0  0  0
    6.9123    0.0000    0.0000 C    0  0  0  0  0  0  0  0  0  0  0  0
    6.9123   -6.6381    0.0000 C    0  0  0  0  0  0  0  0  0  0  0  0
    6.9123   -7.9689    0.0000 Cl   0  0  0  0  0  0  0  0  0  0  0  0
  1  2  1  0  0  0  0
  1  3  2  0  0  0  0
  1  9  1  0  0  0  0
  2  5  2  0  0  0  0
  2  6  1  0  0  0  0
  4  5  1  0  0  0  0
  4  7  2  0  0  0  0
  5 10  1  0  0  0  0
  6  8  2  0  0  0  0
  7  8  1  0  0  0  0
  9 13  1  0  0  0  0
 11 12  1  0  0  0  0
 11 13  2  0  0  0  0
 11 14  1  0  0  0  0
 12 15  2  0  0  0  0
 12 16  1  0  0  0  0
 13 17  1  0  0  0  0
 14 20  2  0  0  0  0
 15 18  1  0  0  0  0
 16 19  2  0  0  0  0
 17 21  2  0  0  0  0
 18 22  2  0  0  0  0
 19 22  1  0  0  0  0
 20 21  1  0  0  0  0
 22 23  1  0  0  0  0
M  END
> <ID>
6773

> <Formula>
C18H12Cl2N2O

> <FW>
343.2067

> <DSSTox_CID>
14392

> <DSSTox_RID>
79152

> <DSSTox_GSID>
34392

> <DSSTox_FileID_Sort>
3834

> <TS_ChemName>
Boscalid

> <TS_ChemName_Synonyms>
Boscalid (BAS 510 F) (3-Pyridinecarboxamide, 2-chloro-N-(4'-chloro[1,1'-biphenyl]-2-yl)-)

> <TS_CASRN>
188425-85-6

> <CASRN_ChemName_Relationship>
primary

> <TS_Description>
single chemical compound

> <ChemNote>


> <STRUCTURE_Shown>
tested chemical

> <STRUCTURE_Formula>
C18H12Cl2N2O

> <STRUCTURE_MW>
343.2067

> <STRUCTURE_ChemType>
defined organic

> <STRUCTURE_DefinedOrganicForm>
parent

> <STRUCTURE_IUPAC>
2-chloro-N-(4'-chlorobiphenyl-2-yl)pyridine-3-carboxamide

> <STRUCTURE_SMILES>
O=C(Nc2ccccc2c1ccc(Cl)cc1)c3cccnc3Cl

> <STRUCTURE_SMILES_Desalt>
O=C(Nc2ccccc2c1ccc(Cl)cc1)c3cccnc3Cl

> <Substance_modify_yyyymmdd>
20080429

$$$$
