18854-01-8
ChemmineR-0915142007XD

 20 21  0  0  0  0  0  0  0  0  1 V2000
    8.3268   -2.6479    0.0000 P   0  0  0  0  0  0  0  0  0  0  0  0
    7.8672   -3.8953    0.0000 S   0  0  0  0  0  0  0  0  0  0  0  0
    7.0794   -2.1227    0.0000 O   0  0  0  0  0  0  0  0  0  0  0  0
    9.5413   -3.2060    0.0000 O   0  0  0  0  0  0  0  0  0  0  0  0
    8.8410   -1.4115    0.0000 O   0  0  0  0  0  0  0  0  0  0  0  0
   10.1431   -1.2145    0.0000 C   0  0  0  0  0  0  0  0  0  0  0  0
   10.6683    0.0000    0.0000 C   0  0  0  0  0  0  0  0  0  0  0  0
    9.7492   -4.4971    0.0000 C   0  0  0  0  0  0  0  0  0  0  0  0
   10.9419   -5.0442    0.0000 C   0  0  0  0  0  0  0  0  0  0  0  0
    6.0180   -4.2017    0.0000 N   0  0  0  0  0  0  0  0  0  0  0  0
    4.7050   -4.6503    0.0000 O   0  0  0  0  0  0  0  0  0  0  0  0
    4.7159   -2.4619    0.0000 C   0  0  0  0  0  0  0  0  0  0  0  0
    3.9062   -3.5452    0.0000 C   0  0  0  0  0  0  0  0  0  0  0  0
    6.0180   -2.8449    0.0000 C   0  0  0  0  0  0  0  0  0  0  0  0
    2.6370   -3.5452    0.0000 C   0  0  0  0  0  0  0  0  0  0  0  0
    1.9805   -4.6941    0.0000 C   0  0  0  0  0  0  0  0  0  0  0  0
    1.9805   -2.3963    0.0000 C   0  0  0  0  0  0  0  0  0  0  0  0
    0.6565   -4.6941    0.0000 C   0  0  0  0  0  0  0  0  0  0  0  0
    0.6565   -2.3963    0.0000 C   0  0  0  0  0  0  0  0  0  0  0  0
    0.0000   -3.5452    0.0000 C   0  0  0  0  0  0  0  0  0  0  0  0
  1  2  2  0  0  0  0
  1  3  1  0  0  0  0
  1  4  1  0  0  0  0
  1  5  1  0  0  0  0
  3 14  1  0  0  0  0
  4  8  1  0  0  0  0
  5  6  1  0  0  0  0
  6  7  1  0  0  0  0
  8  9  1  0  0  0  0
 10 11  1  0  0  0  0
 10 14  2  0  0  0  0
 11 13  1  0  0  0  0
 12 13  2  0  0  0  0
 12 14  1  0  0  0  0
 13 15  1  0  0  0  0
 15 16  2  0  0  0  0
 15 17  1  0  0  0  0
 16 18  1  0  0  0  0
 17 19  2  0  0  0  0
 18 20  2  0  0  0  0
 19 20  1  0  0  0  0
M  END
> <ID>
9012

> <Formula>
C13H16NO4PS

> <FW>
313.3092

> <DSSTox_CID>
22080

> <DSSTox_RID>
79918

> <DSSTox_GSID>
42080

> <DSSTox_FileID_Sort>
4600

> <TS_ChemName>
Isoxathion

> <TS_ChemName_Synonyms>


> <TS_CASRN>
18854-01-8

> <CASRN_ChemName_Relationship>
primary

> <TS_Description>
single chemical compound

> <ChemNote>


> <STRUCTURE_Shown>
tested chemical

> <STRUCTURE_Formula>
C13H16NO4PS

> <STRUCTURE_MW>
313.3092

> <STRUCTURE_ChemType>
defined organic

> <STRUCTURE_DefinedOrganicForm>
parent

> <STRUCTURE_IUPAC>
O,O-diethyl O-(5-phenyl-1,2-oxazol-3-yl) phosphorothioate

> <STRUCTURE_SMILES>
S=P(Oc1cc(on1)c2ccccc2)(OCC)OCC

> <STRUCTURE_SMILES_Desalt>
S=P(Oc1cc(on1)c2ccccc2)(OCC)OCC

> <Substance_modify_yyyymmdd>
20080825

$$$$
