18851-33-7
ChemmineR-0915142007XD

 16 16  0  0  0  0  0  0  0  0  1 V2000
    3.9901   -2.3076    0.0000 C    0  0  0  0  0  0  0  0  0  0  0  0
    4.6551   -3.4580    0.0000 N    0  0  0  0  0  0  0  0  0  0  0  0
    5.9851   -3.4580    0.0000 C    0  0  0  0  0  0  0  0  0  0  0  0
    6.6501   -2.3076    0.0000 C    0  0  0  0  0  0  0  0  0  0  0  0
    5.9851   -1.1571    0.0000 C    0  0  0  0  0  0  0  0  0  0  0  0
    4.6551   -1.1571    0.0000 C    0  0  0  0  0  0  0  0  0  0  0  0
    3.9901    0.0000    0.0000 C    0  0  0  0  0  0  0  0  0  0  0  0
    2.6600    0.0000    0.0000 C    0  0  0  0  0  0  0  0  0  0  0  0
    1.9950   -1.1571    0.0000 C    0  0  0  0  0  0  0  0  0  0  0  0
    2.6600   -2.3076    0.0000 C    0  0  0  0  0  0  0  0  0  0  0  0
    1.9950   -3.4580    0.0000 N    0  0  0  0  0  0  0  0  0  0  0  0
    0.6650   -3.4580    0.0000 C    0  0  0  0  0  0  0  0  0  0  0  0
    0.0000   -2.3076    0.0000 C    0  0  0  0  0  0  0  0  0  0  0  0
    0.6650   -1.1571    0.0000 C    0  0  0  0  0  0  0  0  0  0  0  0
    2.0017   -4.8612    0.0000 Cl   0  0  0  0  0  0  0  0  0  0  0  0
    4.9277   -4.8612    0.0000 O    0  0  0  0  0  0  0  0  0  0  0  0
  1  2  1  0  0  0  0
  1  6  2  0  0  0  0
  1 10  1  0  0  0  0
  2  3  2  0  0  0  0
  3  4  1  0  0  0  0
  4  5  2  0  0  0  0
  5  6  1  0  0  0  0
  6  7  1  0  0  0  0
  7  8  2  0  0  0  0
  8  9  1  0  0  0  0
  9 10  2  0  0  0  0
  9 14  1  0  0  0  0
 10 11  1  0  0  0  0
 11 12  2  0  0  0  0
 12 13  1  0  0  0  0
 13 14  2  0  0  0  0
M  END
> <ID>
9977

> <Formula>
C12H11ClN2O

> <FW>
234.6815 (180.2053+36.4609+18.0153)

> <DSSTox_CID>
24309

> <DSSTox_RID>
80145

> <DSSTox_GSID>
44309

> <DSSTox_FileID_Sort>
4827

> <TS_ChemName>
1,10-Phenanthroline hydrochloride hydrate

> <TS_ChemName_Synonyms>


> <TS_CASRN>
18851-33-7

> <CASRN_ChemName_Relationship>
primary

> <TS_Description>
single chemical compound

> <ChemNote>
parent [66-71-7]

> <STRUCTURE_Shown>
tested chemical

> <STRUCTURE_Formula>
C12H11ClN2O

> <STRUCTURE_MW>
234.6815

> <STRUCTURE_ChemType>
defined organic

> <STRUCTURE_DefinedOrganicForm>
complex

> <STRUCTURE_IUPAC>
1,10-phenanthroline hydrochloride hydrate

> <STRUCTURE_SMILES>
Cl.O.c1ccnc3c1ccc2cccnc23

> <STRUCTURE_SMILES_Desalt>
c1ccnc3c1ccc2cccnc23

> <Substance_modify_yyyymmdd>
20090518

$$$$
