188589-32-4
ChemmineR-0915142007XD

 17 16  0  0  0  0  0  0  0  0  2 V2000
    2.8102  -12.2714    0.0000 C    0  0  0  0  0  0  0  0  0  0  0  0
   10.8725   -1.0799    0.0000 C    0  0  0  0  0  0  0  0  0  0  0  0
    2.6629  -10.9461    0.0000 C    0  0  0  0  0  0  0  0  0  0  0  0
    3.7428  -10.1607    0.0000 C    0  0  0  0  0  0  0  0  0  0  0  0
    3.6078   -8.8477    0.0000 C    0  0  0  0  0  0  0  0  0  0  0  0
    4.6877   -8.0623    0.0000 C    0  0  0  0  0  0  0  0  0  0  0  0
    4.5404   -6.7370    0.0000 C    0  0  0  0  0  0  0  0  0  0  0  0
    5.6203   -5.9516    0.0000 C    0  0  0  0  0  0  0  0  0  0  0  0
    5.4853   -4.6263    0.0000 C    0  0  0  0  0  0  0  0  0  0  0  0
    6.5529   -3.8532    0.0000 C    0  0  0  0  0  0  0  0  0  0  0  0
    6.4179   -2.5279    0.0000 C    0  0  0  0  0  0  0  0  0  0  0  0
    8.7618    0.0000    0.0000 C    0  0  0  0  0  0  0  0  0  0  0  0
    7.4978   -0.4172    0.0000 C    0  0  0  0  0  0  0  0  0  0  0  0
    8.7618   -2.1475    0.0000 C    0  0  0  0  0  0  0  0  0  0  0  0
    9.5472   -1.0799    0.0000 N    0  3  0  0  0  0  0  0  0  0  0  0
    7.4978   -1.7425    0.0000 N    0  0  0  0  0  0  0  0  0  0  0  0
    0.0000   -1.0799    0.0000 Br   0  5  0  0  0  0  0  0  0  0  0  0
  1  3  1  0  0  0  0
  2 15  1  0  0  0  0
  3  4  1  0  0  0  0
  4  5  1  0  0  0  0
  5  6  1  0  0  0  0
  6  7  1  0  0  0  0
  7  8  1  0  0  0  0
  8  9  1  0  0  0  0
  9 10  1  0  0  0  0
 10 11  1  0  0  0  0
 11 16  1  0  0  0  0
 12 13  2  0  0  0  0
 12 15  1  0  0  0  0
 13 16  1  0  0  0  0
 14 15  2  0  0  0  0
 14 16  1  0  0  0  0
M  END
> <ID>
14100

> <Formula>
C14H27BrN2

> <FW>
303.2816 (223.3770+79.9045)

> <DSSTox_CID>
29093

> <DSSTox_RID>
83312

> <DSSTox_GSID>
49237

> <DSSTox_FileID_Sort>
7987

> <TS_ChemName>
1-Decyl-3-methylimidazolium bromide

> <TS_ChemName_Synonyms>


> <TS_CASRN>
188589-32-4

> <CASRN_ChemName_Relationship>
primary

> <TS_Description>
single chemical compound

> <ChemNote>


> <STRUCTURE_Shown>
tested chemical

> <STRUCTURE_Formula>
C14H27BrN2

> <STRUCTURE_MW>
303.2816

> <STRUCTURE_ChemType>
defined organic

> <STRUCTURE_DefinedOrganicForm>
salt

> <STRUCTURE_IUPAC>
1-decyl-3-methyl-1H-imidazol-3-ium bromide

> <STRUCTURE_SMILES>
[Br-].C[n+]1ccn(CCCCCCCCCC)c1

> <STRUCTURE_SMILES_Desalt>
C[n+]1ccn(CCCCCCCCCC)c1

> <Substance_modify_yyyymmdd>
20111204

$$$$
