188627-80-7
ChemmineR-0915142007XD

 57 60  0  0  1  0  0  0  0  0  1 V2000
    8.8681   -6.8737    0.0000 C   0  0  0  0  0  0  0  0  0  0  0  0
    9.5264   -8.0161    0.0000 C   0  0  0  0  0  0  0  0  0  0  0  0
    7.5514   -6.8737    0.0000 O   0  0  0  0  0  0  0  0  0  0  0  0
   10.8431   -8.0161    0.0000 N   0  0  0  0  0  0  0  0  0  0  0  0
    7.5514   -9.1585    0.0000 S   0  0  0  0  0  0  0  0  0  0  0  0
    8.8681   -9.1585    0.0000 C   0  0  0  0  0  0  0  0  0  0  0  0
    9.5264   -5.7507    0.0000 N   0  0  0  0  0  0  0  0  0  0  0  0
   11.5014   -9.1585    0.0000 C   0  0  0  0  0  0  0  0  0  0  0  0
   10.8431  -10.3009    0.0000 O   0  0  0  0  0  0  0  0  0  0  0  0
   12.8181   -9.1585    0.0000 C   0  0  0  0  0  0  0  0  0  0  0  0
   13.5926   -8.0936    0.0000 N   0  0  0  0  0  0  0  0  0  0  0  0
   14.8512   -8.5002    0.0000 C   0  0  0  0  0  0  0  0  0  0  0  0
   14.8512   -9.8169    0.0000 C   0  0  0  0  0  0  0  0  0  0  0  0
   13.5926  -10.2235    0.0000 C   0  0  0  0  0  0  0  0  0  0  0  0
   13.1860   -6.8350    0.0000 C   0  0  0  0  0  0  0  0  0  0  0  0
   11.8693   -6.8350    0.0000 O   0  0  0  0  0  0  0  0  0  0  0  0
   13.8443   -5.6926    0.0000 C   0  0  0  0  0  0  0  0  0  0  0  0
   15.1610   -5.6926    0.0000 C   0  0  0  0  0  0  0  0  0  0  0  0
   13.1860   -4.5502    0.0000 N   0  0  0  0  0  0  0  0  0  0  0  0
   15.8193   -4.5309    0.0000 C   0  0  0  0  0  0  0  0  0  0  0  0
   15.0642   -3.4659    0.0000 C   0  0  0  0  0  0  0  0  0  0  0  0
   15.8193   -2.4010    0.0000 N   0  0  0  0  0  0  0  0  0  0  0  0
   17.0972   -2.8076    0.0000 C   0  0  0  0  0  0  0  0  0  0  0  0
   17.0972   -4.1242    0.0000 C   0  0  0  0  0  0  0  0  0  0  0  0
   18.2396   -4.7826    0.0000 C   0  0  0  0  0  0  0  0  0  0  0  0
   18.2396   -2.1493    0.0000 C   0  0  0  0  0  0  0  0  0  0  0  0
   19.3627   -2.8076    0.0000 C   0  0  0  0  0  0  0  0  0  0  0  0
   19.3627   -4.1242    0.0000 C   0  0  0  0  0  0  0  0  0  0  0  0
   13.8443   -1.1424    0.0000 O   0  0  0  0  0  0  0  0  0  0  0  0
    9.8943   -3.4272    0.0000 N   0  0  0  0  0  0  0  0  0  0  0  0
   13.8443   -3.4078    0.0000 O   0  0  0  0  0  0  0  0  0  0  0  0
   11.2110   -5.6926    0.0000 O   0  0  0  0  0  0  0  0  0  0  0  0
   11.2110   -3.4272    0.0000 C   0  0  0  0  0  0  0  0  0  0  0  0
   13.1860   -2.2848    0.0000 C   0  0  0  0  0  0  0  0  0  0  0  0
   11.8693   -4.5502    0.0000 C   0  0  0  0  0  0  0  0  0  0  0  0
   11.8693   -2.2848    0.0000 C   0  0  0  0  0  0  0  0  0  0  0  0
    9.2360   -2.2848    0.0000 C   0  0  0  0  0  0  0  0  0  0  0  0
    9.8943   -1.1424    0.0000 O   0  0  0  0  0  0  0  0  0  0  0  0
    7.2610   -1.1424    0.0000 N   0  0  0  0  0  0  0  0  0  0  0  0
    7.9193   -2.2848    0.0000 C   0  0  0  0  0  0  0  0  0  0  0  0
    5.9443   -1.1424    0.0000 C   0  0  0  0  0  0  0  0  0  0  0  0
    5.2666    0.0000    0.0000 O   0  0  0  0  0  0  0  0  0  0  0  0
    5.2666   -2.2848    0.0000 C   0  0  0  0  0  0  0  0  0  0  0  0
    5.9443   -3.4272    0.0000 N   0  0  0  0  0  0  0  0  0  0  0  0
    1.9944   -5.6926    0.0000 N   0  0  0  0  0  0  0  0  0  0  0  0
    1.2973   -4.5696    0.0000 C   0  0  0  0  0  0  0  0  0  0  0  0
    3.9500   -2.2848    0.0000 C   0  0  0  0  0  0  0  0  0  0  0  0
    1.9944   -3.4272    0.0000 C   0  0  0  0  0  0  0  0  0  0  0  0
    3.3110   -3.4272    0.0000 C   0  0  0  0  0  0  0  0  0  0  0  0
    1.2973   -6.8350    0.0000 C   0  0  0  0  0  0  0  0  0  0  0  0
    1.9944   -7.9774    0.0000 N   0  0  0  0  0  0  0  0  0  0  0  0
    0.0000   -6.8350    0.0000 N   0  0  0  0  0  0  0  0  0  0  0  0
    5.2666   -4.5502    0.0000 C   0  0  0  0  0  0  0  0  0  0  0  0
    3.9500   -4.5696    0.0000 O   0  0  0  0  0  0  0  0  0  0  0  0
    5.9443   -5.6926    0.0000 C   0  0  0  0  0  0  0  0  0  0  0  0
    5.2666   -6.8350    0.0000 C   0  0  0  0  0  0  0  0  0  0  0  0
    5.9443   -7.9774    0.0000 S   0  0  0  0  0  0  0  0  0  0  0  0
  1  2  1  0  0  0  0
  1  3  2  0  0  0  0
  1  7  1  0  0  0  0
  2  4  1  1  0  0  0
  2  6  1  0  0  0  0
  4  8  1  0  0  0  0
  5  6  1  0  0  0  0
  5 57  1  0  0  0  0
  8  9  2  0  0  0  0
  8 10  1  0  0  0  0
 10 11  1  1  0  0  0
 10 14  1  0  0  0  0
 11 12  1  0  0  0  0
 11 15  1  0  0  0  0
 12 13  1  0  0  0  0
 13 14  1  0  0  0  0
 15 16  2  0  0  0  0
 15 17  1  0  0  0  0
 17 18  1  0  0  0  0
 17 19  1  1  0  0  0
 18 20  1  0  0  0  0
 19 35  1  0  0  0  0
 20 21  2  0  0  0  0
 20 24  1  0  0  0  0
 21 22  1  0  0  0  0
 22 23  1  0  0  0  0
 23 24  2  0  0  0  0
 23 26  1  0  0  0  0
 24 25  1  0  0  0  0
 25 28  2  0  0  0  0
 26 27  2  0  0  0  0
 27 28  1  0  0  0  0
 29 34  1  0  0  0  0
 33 30  1  1  0  0  0
 30 37  1  0  0  0  0
 31 34  2  0  0  0  0
 32 35  2  0  0  0  0
 33 35  1  0  0  0  0
 33 36  1  0  0  0  0
 34 36  1  0  0  0  0
 37 38  2  0  0  0  0
 37 40  1  0  0  0  0
 39 40  1  0  0  0  0
 39 41  1  0  0  0  0
 41 42  2  0  0  0  0
 41 43  1  0  0  0  0
 43 44  1  1  0  0  0
 43 47  1  0  0  0  0
 44 53  1  0  0  0  0
 45 46  1  0  0  0  0
 45 50  1  0  0  0  0
 46 48  1  0  0  0  0
 47 49  1  0  0  0  0
 48 49  1  0  0  0  0
 50 51  1  0  0  0  0
 50 52  2  0  0  0  0
 53 54  2  0  0  0  0
 53 55  1  0  0  0  0
 55 56  1  0  0  0  0
 56 57  1  0  0  0  0
M  END
> <ID>
11875

> <Formula>
C35H49N11O9S2

> <FW>
831.9619

> <DSSTox_CID>
26673

> <DSSTox_RID>
81810

> <DSSTox_GSID>
46673

> <DSSTox_FileID_Sort>
6491

> <TS_ChemName>
Eptifibatide

> <TS_ChemName_Synonyms>


> <TS_CASRN>
188627-80-7

> <CASRN_ChemName_Relationship>
primary

> <TS_Description>
single chemical compound

> <ChemNote>
stereochem; tautomers

> <STRUCTURE_Shown>
tested chemical

> <STRUCTURE_Formula>
C35H49N11O9S2

> <STRUCTURE_MW>
831.9619

> <STRUCTURE_ChemType>
defined organic

> <STRUCTURE_DefinedOrganicForm>
parent

> <STRUCTURE_IUPAC>
[(3R,11S,17S,20S,25aS)-11-(4-carbamimidamidobutyl)-3-carbamoyl-20-(1H-indol-3-ylmethyl)-1,9,12,15,18,21-hexaoxodocosahydro-7H-pyrrolo[2,1-g][1,2,5,8,11,14,17,20]dithiahexaazacyclotricosin-17-yl]acetic acid

> <STRUCTURE_SMILES>
NC(=O)[C@@H]3CSSCCC(=O)N[C@@H](CCCCNC(=N)N)C(=O)NCC(=O)N[C@@H](CC(=O)O)C(=O)N[C@@H](Cc2cnc1ccccc12)C(=O)N4CCC[C@H]4C(=O)N3

> <STRUCTURE_SMILES_Desalt>
NC(=O)[C@@H]3CSSCCC(=O)N[C@@H](CCCCNC(=N)N)C(=O)NCC(=O)N[C@@H](CC(=O)O)C(=O)N[C@@H](Cc2cnc1ccccc12)C(=O)N4CCC[C@H]4C(=O)N3

> <Substance_modify_yyyymmdd>
20110808

$$$$
