189003-92-7
ChemmineR-0915142007XD

 33 37  0  0  0  0  0  0  0  0  1 V2000
    4.3591  -13.9874    0.0000 N   0  0  0  0  0  0  0  0  0  0  0  0
    4.3591  -15.3127    0.0000 C   0  0  0  0  0  0  0  0  0  0  0  0
    3.2094  -13.3008    0.0000 C   0  0  0  0  0  0  0  0  0  0  0  0
    3.2094  -15.9674    0.0000 C   0  0  0  0  0  0  0  0  0  0  0  0
    2.0598  -13.9874    0.0000 C   0  0  0  0  0  0  0  0  0  0  0  0
    2.0598  -15.3127    0.0000 C   0  0  0  0  0  0  0  0  0  0  0  0
    3.2094  -11.9755    0.0000 N   0  0  0  0  0  0  0  0  0  0  0  0
    2.0598  -11.3209    0.0000 C   0  0  0  0  0  0  0  0  0  0  0  0
    4.3591  -11.3049    0.0000 C   0  0  0  0  0  0  0  0  0  0  0  0
    2.0598   -9.9796    0.0000 C   0  0  0  0  0  0  0  0  0  0  0  0
    4.3591   -9.9796    0.0000 C   0  0  0  0  0  0  0  0  0  0  0  0
    3.2094   -9.3090    0.0000 N   0  0  0  0  0  0  0  0  0  0  0  0
    3.2094   -7.9837    0.0000 C   0  0  0  0  0  0  0  0  0  0  0  0
    4.3591   -7.3130    0.0000 C   0  0  0  0  0  0  0  0  0  0  0  0
    4.3591   -5.9718    0.0000 C   0  0  0  0  0  0  0  0  0  0  0  0
    3.2094   -5.3171    0.0000 C   0  0  0  0  0  0  0  0  0  0  0  0
    5.5087   -5.3171    0.0000 C   0  0  0  0  0  0  0  0  0  0  0  0
    3.2094   -3.9918    0.0000 C   0  0  0  0  0  0  0  0  0  0  0  0
    5.5087   -3.9918    0.0000 C   0  0  0  0  0  0  0  0  0  0  0  0
    4.3591   -3.3212    0.0000 N   0  0  0  0  0  0  0  0  0  0  0  0
    6.6744   -5.9718    0.0000 C   0  0  0  0  0  0  0  0  0  0  0  0
    7.8240   -5.3171    0.0000 C   0  0  0  0  0  0  0  0  0  0  0  0
    6.6744   -3.3212    0.0000 C   0  0  0  0  0  0  0  0  0  0  0  0
    7.8240   -3.9918    0.0000 C   0  0  0  0  0  0  0  0  0  0  0  0
    4.3591   -1.9800    0.0000 C   0  0  0  0  0  0  0  0  0  0  0  0
    3.2094   -1.3253    0.0000 C   0  0  0  0  0  0  0  0  0  0  0  0
    3.2094    0.0000    0.0000 O   0  0  0  0  0  0  0  0  0  0  0  0
    2.0598   -1.9800    0.0000 N   0  0  0  0  0  0  0  0  0  0  0  0
    2.0598   -3.3212    0.0000 O   0  0  0  0  0  0  0  0  0  0  0  0
    0.7824  -13.5563    0.0000 C   0  0  0  0  0  0  0  0  0  0  0  0
    0.0000  -14.6421    0.0000 C   0  0  0  0  0  0  0  0  0  0  0  0
    0.7824  -15.7119    0.0000 S   0  0  0  0  0  0  0  0  0  0  0  0
    8.9577   -3.3212    0.0000 F   0  0  0  0  0  0  0  0  0  0  0  0
  1  2  1  0  0  0  0
  1  3  2  0  0  0  0
  2  4  2  0  0  0  0
  3  5  1  0  0  0  0
  3  7  1  0  0  0  0
  4  6  1  0  0  0  0
  5  6  2  0  0  0  0
  5 30  1  0  0  0  0
  6 32  1  0  0  0  0
  7  8  1  0  0  0  0
  7  9  1  0  0  0  0
  8 10  1  0  0  0  0
  9 11  1  0  0  0  0
 10 12  1  0  0  0  0
 11 12  1  0  0  0  0
 12 13  1  0  0  0  0
 13 14  1  0  0  0  0
 14 15  1  0  0  0  0
 15 16  2  0  0  0  0
 15 17  1  0  0  0  0
 16 18  1  0  0  0  0
 17 21  1  0  0  0  0
 17 19  2  0  0  0  0
 18 20  1  0  0  0  0
 18 29  2  0  0  0  0
 19 20  1  0  0  0  0
 19 23  1  0  0  0  0
 20 25  1  0  0  0  0
 21 22  2  0  0  0  0
 22 24  1  0  0  0  0
 23 24  2  0  0  0  0
 24 33  1  0  0  0  0
 25 26  1  0  0  0  0
 26 27  2  0  0  0  0
 26 28  1  0  0  0  0
 30 31  2  0  0  0  0
 31 32  1  0  0  0  0
M  END
> <ID>
12497

> <Formula>
C24H24FN5O2S

> <FW>
465.5431

> <DSSTox_CID>
27355

> <DSSTox_RID>
82291

> <DSSTox_GSID>
47355

> <DSSTox_FileID_Sort>
6972

> <TS_ChemName>
Trelanserin

> <TS_ChemName_Synonyms>
SL650472

> <TS_CASRN>
189003-92-7

> <CASRN_ChemName_Relationship>
primary

> <TS_Description>
single chemical compound

> <ChemNote>


> <STRUCTURE_Shown>
tested chemical

> <STRUCTURE_Formula>
C24H24FN5O2S

> <STRUCTURE_MW>
465.5431

> <STRUCTURE_ChemType>
defined organic

> <STRUCTURE_DefinedOrganicForm>
parent

> <STRUCTURE_IUPAC>
2-[7-fluoro-2-oxo-4-{2-[4-(thieno[3,2-c]pyridin-4-yl)piperazin-1-yl]ethyl}quinolin-1(2H)-yl]acetamide

> <STRUCTURE_SMILES>
NC(=O)CN2c1cc(F)ccc1C(=CC2=O)CCN3CCN(CC3)c5nccc4sccc45

> <STRUCTURE_SMILES_Desalt>
NC(=O)CN2c1cc(F)ccc1C(=CC2=O)CCN3CCN(CC3)c5nccc4sccc45

> <Substance_modify_yyyymmdd>
20130910

$$$$
