18917-95-8
ChemmineR-0915142007XD

 25 24  0  0  0  0  0  0  0  0  1 V2000
    1.9921    0.0000    0.0000 O    0  0  0  0  0  0  0  0  0  0  0  0
    2.6623   -1.1543    0.0000 C    0  0  0  0  0  0  0  0  0  0  0  0
    3.9935   -1.1543    0.0000 O    0  0  0  0  0  0  0  0  0  0  0  0
    4.6544   -2.3086    0.0000 Mg   0  0  0  0  0  0  0  0  0  0  0  0
    5.3153   -1.1543    0.0000 O    0  0  0  0  0  0  0  0  0  0  0  0
    6.6465   -1.1543    0.0000 C    0  0  0  0  0  0  0  0  0  0  0  0
    7.3167    0.0000    0.0000 O    0  0  0  0  0  0  0  0  0  0  0  0
    7.3167   -2.3086    0.0000 C    0  0  0  0  0  0  0  0  0  0  0  0
    8.6479   -2.3086    0.0000 C    0  0  0  0  0  0  0  0  0  0  0  0
    9.3088   -3.4536    0.0000 C    0  0  0  0  0  0  0  0  0  0  0  0
    8.6479   -4.6079    0.0000 C    0  0  0  0  0  0  0  0  0  0  0  0
    7.3167   -4.6079    0.0000 C    0  0  0  0  0  0  0  0  0  0  0  0
    6.6465   -3.4536    0.0000 C    0  0  0  0  0  0  0  0  0  0  0  0
    5.3153   -3.4536    0.0000 O    0  0  0  0  0  0  0  0  0  0  0  0
    3.9935   -3.4536    0.0000 O    0  0  0  0  0  0  0  0  0  0  0  0
    2.6623   -3.4536    0.0000 C    0  0  0  0  0  0  0  0  0  0  0  0
    1.9921   -4.6079    0.0000 C    0  0  0  0  0  0  0  0  0  0  0  0
    0.6609   -4.6079    0.0000 C    0  0  0  0  0  0  0  0  0  0  0  0
    0.0000   -3.4536    0.0000 C    0  0  0  0  0  0  0  0  0  0  0  0
    0.6609   -2.3086    0.0000 C    0  0  0  0  0  0  0  0  0  0  0  0
    1.9921   -2.3086    0.0000 C    0  0  0  0  0  0  0  0  0  0  0  0
    0.7075   -5.7622    0.0000 O    0  0  0  0  0  0  0  0  0  0  0  0
    2.9230   -5.7156    0.0000 O    0  0  0  0  0  0  0  0  0  0  0  0
    5.2316   -5.8087    0.0000 O    0  0  0  0  0  0  0  0  0  0  0  0
    7.4750   -5.7622    0.0000 O    0  0  0  0  0  0  0  0  0  0  0  0
  1  2  2  0  0  0  0
  2  3  1  0  0  0  0
  2 21  1  0  0  0  0
  3  4  1  0  0  0  0
  4  5  1  0  0  0  0
  4 14  1  0  0  0  0
  4 15  1  0  0  0  0
  5  6  1  0  0  0  0
  6  7  2  0  0  0  0
  6  8  1  0  0  0  0
  8  9  2  0  0  0  0
  8 13  1  0  0  0  0
  9 10  1  0  0  0  0
 10 11  2  0  0  0  0
 11 12  1  0  0  0  0
 12 13  2  0  0  0  0
 13 14  1  0  0  0  0
 15 16  1  0  0  0  0
 16 17  2  0  0  0  0
 16 21  1  0  0  0  0
 17 18  1  0  0  0  0
 18 19  2  0  0  0  0
 19 20  1  0  0  0  0
 20 21  2  0  0  0  0
M  END
> <ID>
12060

> <Formula>
C14H16MgO10

> <FW>
368.5758 (296.5147+18.0153+18.0153+18.0153+18.0153)

> <DSSTox_CID>
26896

> <DSSTox_RID>
81998

> <DSSTox_GSID>
46896

> <DSSTox_FileID_Sort>
6679

> <TS_ChemName>
Magnesium salicylate tetrahydrate

> <TS_ChemName_Synonyms>


> <TS_CASRN>
18917-95-8

> <CASRN_ChemName_Relationship>
primary

> <TS_Description>
single chemical compound

> <ChemNote>
parent [69-72-7]

> <STRUCTURE_Shown>
tested chemical

> <STRUCTURE_Formula>
C14H16MgO10

> <STRUCTURE_MW>
368.5758

> <STRUCTURE_ChemType>
defined organic

> <STRUCTURE_DefinedOrganicForm>
salt

> <STRUCTURE_IUPAC>
magnesium, bis(2-hydroxybenzoato-O1,O2)-,tetrahydrate

> <STRUCTURE_SMILES>
O.O.O.O.O=C3O[Mg]2(Oc1ccccc1C(=O)O2)Oc4ccccc34

> <STRUCTURE_SMILES_Desalt>
O=C3O[Mg]2(Oc1ccccc1C(=O)O2)Oc4ccccc34

> <Substance_modify_yyyymmdd>
20110727

$$$$
