18924-66-8
ChemmineR-0915142007XD

 21 20  0  0  0  0  0  0  0  0  1 V2000
   18.4511   -3.2319    0.0000 C   0  0  0  0  0  0  0  0  0  0  0  0
   17.3151   -3.8783    0.0000 C   0  0  0  0  0  0  0  0  0  0  0  0
   19.5872   -3.8587    0.0000 O   0  0  0  0  0  0  0  0  0  0  0  0
   14.8863   -1.2732    0.0000 C   0  0  0  0  0  0  0  0  0  0  0  0
   16.1007   -1.9391    0.0000 C   0  0  0  0  0  0  0  0  0  0  0  0
   14.9058    0.0000    0.0000 O   0  0  0  0  0  0  0  0  0  0  0  0
   16.1007   -3.2123    0.0000 N   0  0  0  0  0  0  0  0  0  0  0  0
   14.9842   -3.9762    0.0000 C   0  0  0  0  0  0  0  0  0  0  0  0
   13.7698   -3.3102    0.0000 C   0  0  0  0  0  0  0  0  0  0  0  0
   12.6925   -4.0154    0.0000 C   0  0  0  0  0  0  0  0  0  0  0  0
   11.4977   -3.3494    0.0000 C   0  0  0  0  0  0  0  0  0  0  0  0
   10.4204   -4.0350    0.0000 C   0  0  0  0  0  0  0  0  0  0  0  0
    9.2256   -3.3690    0.0000 C   0  0  0  0  0  0  0  0  0  0  0  0
    8.1091   -4.1329    0.0000 C   0  0  0  0  0  0  0  0  0  0  0  0
    6.8947   -3.4865    0.0000 C   0  0  0  0  0  0  0  0  0  0  0  0
    5.7390   -4.1329    0.0000 C   0  0  0  0  0  0  0  0  0  0  0  0
    4.6030   -3.5061    0.0000 C   0  0  0  0  0  0  0  0  0  0  0  0
    3.4669   -4.1525    0.0000 C   0  0  0  0  0  0  0  0  0  0  0  0
    2.3309   -3.5257    0.0000 C   0  0  0  0  0  0  0  0  0  0  0  0
    1.1556   -4.2504    0.0000 C   0  0  0  0  0  0  0  0  0  0  0  0
    0.0000   -3.6432    0.0000 C   0  0  0  0  0  0  0  0  0  0  0  0
  1  2  1  0  0  0  0
  1  3  1  0  0  0  0
  2  7  1  0  0  0  0
  4  5  1  0  0  0  0
  4  6  1  0  0  0  0
  5  7  1  0  0  0  0
  7  8  1  0  0  0  0
  8  9  1  0  0  0  0
  9 10  1  0  0  0  0
 10 11  1  0  0  0  0
 11 12  1  0  0  0  0
 12 13  1  0  0  0  0
 13 14  1  0  0  0  0
 14 15  1  0  0  0  0
 15 16  1  0  0  0  0
 16 17  1  0  0  0  0
 17 18  1  0  0  0  0
 18 19  1  0  0  0  0
 19 20  1  0  0  0  0
 20 21  1  0  0  0  0
M  END
> <ID>
10512

> <Formula>
C18H39NO2

> <FW>
301.5078

> <DSSTox_CID>
24865

> <DSSTox_RID>
80541

> <DSSTox_GSID>
44865

> <DSSTox_FileID_Sort>
5223

> <TS_ChemName>
2,2'-(Tetradecylimino)diethanol

> <TS_ChemName_Synonyms>
2,2'-(Tetradecylimino)diethanol (Ethanol, 2,2'-(tetradecylimino)bis-)

> <TS_CASRN>
18924-66-8

> <CASRN_ChemName_Relationship>
primary

> <TS_Description>
single chemical compound

> <ChemNote>


> <STRUCTURE_Shown>
tested chemical

> <STRUCTURE_Formula>
C18H39NO2

> <STRUCTURE_MW>
301.5078

> <STRUCTURE_ChemType>
defined organic

> <STRUCTURE_DefinedOrganicForm>
parent

> <STRUCTURE_IUPAC>
2,2'-(tetradecylimino)diethanol

> <STRUCTURE_SMILES>
OCCN(CCCCCCCCCCCCCC)CCO

> <STRUCTURE_SMILES_Desalt>
OCCN(CCCCCCCCCCCCCC)CCO

> <Substance_modify_yyyymmdd>
20091116

$$$$
