1892-29-1
ChemmineR-0915142007XD

  8  7  0  0  0  0  0  0  0  0  1 V2000
    3.4744    0.0000    0.0000 S   0  0  0  0  0  0  0  0  0  0  0  0
    4.6244   -0.6560    0.0000 S   0  0  0  0  0  0  0  0  0  0  0  0
    2.3162   -0.6560    0.0000 C   0  0  0  0  0  0  0  0  0  0  0  0
    1.1581    0.0000    0.0000 C   0  0  0  0  0  0  0  0  0  0  0  0
    0.0000   -0.6560    0.0000 O   0  0  0  0  0  0  0  0  0  0  0  0
    5.7825    0.0000    0.0000 C   0  0  0  0  0  0  0  0  0  0  0  0
    6.9406   -0.6560    0.0000 C   0  0  0  0  0  0  0  0  0  0  0  0
    8.0987    0.0000    0.0000 O   0  0  0  0  0  0  0  0  0  0  0  0
  1  2  1  0  0  0  0
  1  3  1  0  0  0  0
  2  6  1  0  0  0  0
  3  4  1  0  0  0  0
  4  5  1  0  0  0  0
  6  7  1  0  0  0  0
  7  8  1  0  0  0  0
M  END
> <ID>
10061

> <Formula>
C4H10O2S2

> <FW>
154.251

> <DSSTox_CID>
24404

> <DSSTox_RID>
80204

> <DSSTox_GSID>
44404

> <DSSTox_FileID_Sort>
4886

> <TS_ChemName>
2-Hydroxyethyl disulfide

> <TS_ChemName_Synonyms>


> <TS_CASRN>
1892-29-1

> <CASRN_ChemName_Relationship>
primary

> <TS_Description>
single chemical compound

> <ChemNote>


> <STRUCTURE_Shown>
tested chemical

> <STRUCTURE_Formula>
C4H10O2S2

> <STRUCTURE_MW>
154.251

> <STRUCTURE_ChemType>
defined organic

> <STRUCTURE_DefinedOrganicForm>
parent

> <STRUCTURE_IUPAC>
2,2'-disulfanediyldiethanol

> <STRUCTURE_SMILES>
OCCSSCCO

> <STRUCTURE_SMILES_Desalt>
OCCSSCCO

> <Substance_modify_yyyymmdd>
20091116

$$$$
