1892-80-4
ChemmineR-0915142007XD

 26 27  0  0  0  0  0  0  0  0  1 V2000
    9.3700   -5.7190    0.0000 C    0  0  0  0  0  0  0  0  0  0  0  0
    9.3700   -4.3786    0.0000 C    0  0  0  0  0  0  0  0  0  0  0  0
   10.4933   -6.3828    0.0000 N    0  0  0  0  0  0  0  0  0  0  0  0
   11.6422   -4.3786    0.0000 N    0  0  0  0  0  0  0  0  0  0  0  0
   11.6422   -5.7190    0.0000 C    0  0  0  0  0  0  0  0  0  0  0  0
   10.4933   -3.7020    0.0000 C    0  0  0  0  0  0  0  0  0  0  0  0
    8.0934   -6.1403    0.0000 N    0  0  0  0  0  0  0  0  0  0  0  0
    8.0296   -3.9573    0.0000 N    0  0  0  0  0  0  0  0  0  0  0  0
    7.2636   -5.0552    0.0000 C    0  0  0  0  0  0  0  0  0  0  0  0
   12.7656   -6.3828    0.0000 O    0  0  0  0  0  0  0  0  0  0  0  0
   10.4933   -2.4255    0.0000 O    0  0  0  0  0  0  0  0  0  0  0  0
   10.4933   -7.7360    0.0000 C    0  0  0  0  0  0  0  0  0  0  0  0
   12.7656   -3.7020    0.0000 C    0  0  0  0  0  0  0  0  0  0  0  0
    5.7701   -2.6808    0.0000 N    0  0  0  0  0  0  0  0  0  0  0  0
    8.0296   -2.6808    0.0000 C    0  0  0  0  0  0  0  0  0  0  0  0
    3.4467   -2.6808    0.0000 C    0  0  0  0  0  0  0  0  0  0  0  0
    2.3106   -2.0170    0.0000 C    0  0  0  0  0  0  0  0  0  0  0  0
    6.8934   -2.0170    0.0000 C    0  0  0  0  0  0  0  0  0  0  0  0
    4.5829   -2.0170    0.0000 C    0  0  0  0  0  0  0  0  0  0  0  0
    2.3106   -0.6766    0.0000 C    0  0  0  0  0  0  0  0  0  0  0  0
    1.1744   -2.6808    0.0000 C    0  0  0  0  0  0  0  0  0  0  0  0
    4.5829   -0.6766    0.0000 C    0  0  0  0  0  0  0  0  0  0  0  0
    1.1744    0.0000    0.0000 C    0  0  0  0  0  0  0  0  0  0  0  0
    0.0000   -2.0170    0.0000 C    0  0  0  0  0  0  0  0  0  0  0  0
    0.0000   -0.6766    0.0000 C    0  0  0  0  0  0  0  0  0  0  0  0
    6.0892   -6.1147    0.0000 Cl   0  0  0  0  0  0  0  0  0  0  0  0
  1  2  2  0  0  0  0
  1  3  1  0  0  0  0
  1  7  1  0  0  0  0
  2  6  1  0  0  0  0
  2  8  1  0  0  0  0
  3  5  1  0  0  0  0
  3 12  1  0  0  0  0
  4  5  1  0  0  0  0
  4 13  1  0  0  0  0
  4  6  1  0  0  0  0
  5 10  2  0  0  0  0
  6 11  2  0  0  0  0
  7  9  2  0  0  0  0
  8 15  1  0  0  0  0
  8  9  1  0  0  0  0
 14 18  1  0  0  0  0
 14 19  1  0  0  0  0
 15 18  1  0  0  0  0
 16 19  1  0  0  0  0
 16 17  1  0  0  0  0
 17 20  1  0  0  0  0
 17 21  2  0  0  0  0
 19 22  1  0  0  0  0
 20 23  2  0  0  0  0
 21 24  1  0  0  0  0
 23 25  1  0  0  0  0
 24 25  2  0  0  0  0
M  END
> <ID>
13858

> <Formula>
C18H24ClN5O2

> <FW>
377.8685 (341.4075+36.4609)

> <DSSTox_CID>
28795

> <DSSTox_RID>
83064

> <DSSTox_GSID>
48869

> <DSSTox_FileID_Sort>
7741

> <TS_ChemName>
Fenethylline hydrochloride

> <TS_ChemName_Synonyms>


> <TS_CASRN>
1892-80-4

> <CASRN_ChemName_Relationship>
primary

> <TS_Description>
single chemical compound

> <ChemNote>


> <STRUCTURE_Shown>
tested chemical

> <STRUCTURE_Formula>
C18H24ClN5O2

> <STRUCTURE_MW>
377.8685

> <STRUCTURE_ChemType>
defined organic

> <STRUCTURE_DefinedOrganicForm>
complex

> <STRUCTURE_IUPAC>
1,3-dimethyl-7-{2-[(1-phenylpropan-2-yl)amino]ethyl}-3,7-dihydro-1H-purine-2,6-dione hydrochloride (1:1)

> <STRUCTURE_SMILES>
Cl.CC(Cc1ccccc1)NCCn3cnc2c3C(=O)N(C)C(=O)N2C

> <STRUCTURE_SMILES_Desalt>
CC(Cc1ccccc1)NCCn3cnc2c3C(=O)N(C)C(=O)N2C

> <Substance_modify_yyyymmdd>
20111204

$$$$
