1897-52-5
ChemmineR-0915142007XD

 10 10  0  0  0  0  0  0  0  0  1 V2000
    3.4646   -1.3325    0.0000 C   0  0  0  0  0  0  0  0  0  0  0  0
    3.4646    0.0000    0.0000 N   0  0  0  0  0  0  0  0  0  0  0  0
    2.3110   -1.9888    0.0000 C   0  0  0  0  0  0  0  0  0  0  0  0
    1.1535   -1.3325    0.0000 C   0  0  0  0  0  0  0  0  0  0  0  0
    2.3110   -3.3214    0.0000 C   0  0  0  0  0  0  0  0  0  0  0  0
    0.0000   -1.9888    0.0000 C   0  0  0  0  0  0  0  0  0  0  0  0
    1.1535   -3.9777    0.0000 C   0  0  0  0  0  0  0  0  0  0  0  0
    0.0000   -3.3214    0.0000 C   0  0  0  0  0  0  0  0  0  0  0  0
    1.1535    0.0000    0.0000 F   0  0  0  0  0  0  0  0  0  0  0  0
    3.4646   -3.9777    0.0000 F   0  0  0  0  0  0  0  0  0  0  0  0
  1  2  3  0  0  0  0
  1  3  1  0  0  0  0
  3  4  2  0  0  0  0
  3  5  1  0  0  0  0
  4  6  1  0  0  0  0
  4  9  1  0  0  0  0
  5  7  2  0  0  0  0
  5 10  1  0  0  0  0
  6  8  2  0  0  0  0
  7  8  1  0  0  0  0
M  END
> <ID>
10263

> <Formula>
C7H3F2N

> <FW>
139.1022

> <DSSTox_CID>
24609

> <DSSTox_RID>
80348

> <DSSTox_GSID>
44609

> <DSSTox_FileID_Sort>
5030

> <TS_ChemName>
2,6-Difluorobenzonitrile

> <TS_ChemName_Synonyms>
2,6-Difluorobenzonitrile (Benzonitrile, 2,6-difluoro-)

> <TS_CASRN>
1897-52-5

> <CASRN_ChemName_Relationship>
primary

> <TS_Description>
single chemical compound

> <ChemNote>


> <STRUCTURE_Shown>
tested chemical

> <STRUCTURE_Formula>
C7H3F2N

> <STRUCTURE_MW>
139.1022

> <STRUCTURE_ChemType>
defined organic

> <STRUCTURE_DefinedOrganicForm>
parent

> <STRUCTURE_IUPAC>
2,6-difluorobenzonitrile

> <STRUCTURE_SMILES>
N#Cc1c(F)cccc1F

> <STRUCTURE_SMILES_Desalt>
N#Cc1c(F)cccc1F

> <Substance_modify_yyyymmdd>
20091116

$$$$
