18979-55-0
ChemmineR-0915142007XD

 14 14  0  0  0  0  0  0  0  0  1 V2000
    1.1743   -0.6793    0.0000 C   0  0  0  0  0  0  0  0  0  0  0  0
    0.0000   -0.0115    0.0000 O   0  0  0  0  0  0  0  0  0  0  0  0
    2.3487    0.0000    0.0000 C   0  0  0  0  0  0  0  0  0  0  0  0
    1.2089   -2.0033    0.0000 C   0  0  0  0  0  0  0  0  0  0  0  0
    2.3256   -2.6365    0.0000 C   0  0  0  0  0  0  0  0  0  0  0  0
    3.4884   -0.6332    0.0000 C   0  0  0  0  0  0  0  0  0  0  0  0
    3.4884   -2.0033    0.0000 C   0  0  0  0  0  0  0  0  0  0  0  0
    4.6052   -2.6365    0.0000 O   0  0  0  0  0  0  0  0  0  0  0  0
    5.7795   -1.9572    0.0000 C   0  0  0  0  0  0  0  0  0  0  0  0
    6.9539   -2.6250    0.0000 C   0  0  0  0  0  0  0  0  0  0  0  0
    8.0476   -1.9572    0.0000 C   0  0  0  0  0  0  0  0  0  0  0  0
    9.2219   -2.6250    0.0000 C   0  0  0  0  0  0  0  0  0  0  0  0
   10.3387   -1.8996    0.0000 C   0  0  0  0  0  0  0  0  0  0  0  0
   11.5130   -2.5674    0.0000 C   0  0  0  0  0  0  0  0  0  0  0  0
  1  2  1  0  0  0  0
  1  3  2  0  0  0  0
  1  4  1  0  0  0  0
  3  6  1  0  0  0  0
  4  5  2  0  0  0  0
  5  7  1  0  0  0  0
  6  7  2  0  0  0  0
  7  8  1  0  0  0  0
  8  9  1  0  0  0  0
  9 10  1  0  0  0  0
 10 11  1  0  0  0  0
 11 12  1  0  0  0  0
 12 13  1  0  0  0  0
 13 14  1  0  0  0  0
M  END
> <ID>
13257

> <Formula>
C12H18O2

> <FW>
194.2701

> <DSSTox_CID>
28170

> <DSSTox_RID>
82731

> <DSSTox_GSID>
48195

> <DSSTox_FileID_Sort>
7408

> <TS_ChemName>
4-(Hexyloxy)phenol

> <TS_ChemName_Synonyms>
4-(Hexyloxy)phenol (hexyloxyphenol)

> <TS_CASRN>
18979-55-0

> <CASRN_ChemName_Relationship>
primary

> <TS_Description>
single chemical compound

> <ChemNote>


> <STRUCTURE_Shown>
tested chemical

> <STRUCTURE_Formula>
C12H18O2

> <STRUCTURE_MW>
194.2701

> <STRUCTURE_ChemType>
defined organic

> <STRUCTURE_DefinedOrganicForm>
parent

> <STRUCTURE_IUPAC>
4-(hexyloxy)phenol

> <STRUCTURE_SMILES>
Oc1ccc(OCCCCCC)cc1

> <STRUCTURE_SMILES_Desalt>
Oc1ccc(OCCCCCC)cc1

> <Substance_modify_yyyymmdd>
20110831

$$$$
