19044-88-3
ChemmineR-0915142007XD

 23 23  0  0  0  0  0  0  0  0  2 V2000
    4.5977   -1.9770    0.0000 C   0  0  0  0  0  0  0  0  0  0  0  0
    5.7379   -3.9724    0.0000 C   0  0  0  0  0  0  0  0  0  0  0  0
    8.0275   -1.2873    0.0000 S   0  0  0  0  0  0  0  0  0  0  0  0
    4.5977   -3.3011    0.0000 C   0  0  0  0  0  0  0  0  0  0  0  0
    3.4574   -1.3149    0.0000 N   0  3  0  0  0  0  0  0  0  0  0  0
    5.7379   -5.2965    0.0000 N   0  3  0  0  0  0  0  0  0  0  0  0
    6.8873   -1.9770    0.0000 C   0  0  0  0  0  0  0  0  0  0  0  0
    6.8873   -3.3011    0.0000 C   0  0  0  0  0  0  0  0  0  0  0  0
    5.7379   -1.3149    0.0000 C   0  0  0  0  0  0  0  0  0  0  0  0
    3.4574   -3.9724    0.0000 N   0  0  0  0  0  0  0  0  0  0  0  0
    8.7264   -2.4460    0.0000 O   0  0  0  0  0  0  0  0  0  0  0  0
    7.3563   -0.1379    0.0000 O   0  0  0  0  0  0  0  0  0  0  0  0
    3.4574    0.0000    0.0000 O   0  5  0  0  0  0  0  0  0  0  0  0
    6.8873   -5.9770    0.0000 O   0  5  0  0  0  0  0  0  0  0  0  0
    4.5977   -5.9678    0.0000 O   0  0  0  0  0  0  0  0  0  0  0  0
    2.3080   -1.9770    0.0000 O   0  0  0  0  0  0  0  0  0  0  0  0
    9.1953   -0.6069    0.0000 N   0  0  0  0  0  0  0  0  0  0  0  0
    2.3080   -3.3011    0.0000 C   0  0  0  0  0  0  0  0  0  0  0  0
    3.4574   -5.2965    0.0000 C   0  0  0  0  0  0  0  0  0  0  0  0
    1.1678   -3.9908    0.0000 C   0  0  0  0  0  0  0  0  0  0  0  0
    2.3080   -5.9770    0.0000 C   0  0  0  0  0  0  0  0  0  0  0  0
    0.0000   -3.3287    0.0000 C   0  0  0  0  0  0  0  0  0  0  0  0
    1.1402   -5.3149    0.0000 C   0  0  0  0  0  0  0  0  0  0  0  0
  1  4  1  0  0  0  0
  1  5  1  0  0  0  0
  1  9  2  0  0  0  0
  2  4  2  0  0  0  0
  2  6  1  0  0  0  0
  2  8  1  0  0  0  0
  3  7  1  0  0  0  0
  3 11  2  0  0  0  0
  3 12  2  0  0  0  0
  3 17  1  0  0  0  0
  4 10  1  0  0  0  0
  5 13  1  0  0  0  0
  5 16  2  0  0  0  0
  6 14  1  0  0  0  0
  6 15  2  0  0  0  0
  7  9  1  0  0  0  0
  7  8  2  0  0  0  0
 10 18  1  0  0  0  0
 10 19  1  0  0  0  0
 18 20  1  0  0  0  0
 19 21  1  0  0  0  0
 20 22  1  0  0  0  0
 21 23  1  0  0  0  0
M  END
> <ID>
3574

> <Formula>
C12H18N4O6S

> <FW>
346.3595

> <DSSTox_CID>
4238

> <DSSTox_RID>
77335

> <DSSTox_GSID>
24238

> <DSSTox_FileID_Sort>
2018

> <TS_ChemName>
Oryzalin

> <TS_ChemName_Synonyms>


> <TS_CASRN>
19044-88-3

> <CASRN_ChemName_Relationship>
primary

> <TS_Description>
single chemical compound

> <ChemNote>


> <STRUCTURE_Shown>
tested chemical

> <STRUCTURE_Formula>
C12H18N4O6S

> <STRUCTURE_MW>
346.3595

> <STRUCTURE_ChemType>
defined organic

> <STRUCTURE_DefinedOrganicForm>
parent

> <STRUCTURE_IUPAC>
4-(dipropylamino)-3,5-dinitrobenzenesulfonamide

> <STRUCTURE_SMILES>
O=S(N)(=O)c1cc(c(c(c1)[N+]([O-])=O)N(CCC)CCC)[N+]([O-])=O

> <STRUCTURE_SMILES_Desalt>
O=S(N)(=O)c1cc(c(c(c1)[N+]([O-])=O)N(CCC)CCC)[N+]([O-])=O

> <Substance_modify_yyyymmdd>
20080429

$$$$
