1906-79-2
ChemmineR-0915142007XD

  9  8  0  0  0  0  0  0  0  0  2 V2000
    1.9840   -2.3065    0.0000 N    0  3  0  0  0  0  0  0  0  0  0  0
    0.6573   -2.3065    0.0000 C    0  0  0  0  0  0  0  0  0  0  0  0
    2.6576   -1.1512    0.0000 C    0  0  0  0  0  0  0  0  0  0  0  0
    1.9840    0.0000    0.0000 C    0  0  0  0  0  0  0  0  0  0  0  0
    0.0000   -1.1512    0.0000 C    0  0  0  0  0  0  0  0  0  0  0  0
    0.6573    0.0000    0.0000 C    0  0  0  0  0  0  0  0  0  0  0  0
    2.6576   -3.4577    0.0000 C    0  0  0  0  0  0  0  0  0  0  0  0
    3.9844   -3.4577    0.0000 C    0  0  0  0  0  0  0  0  0  0  0  0
    4.0823   -1.1063    0.0000 Br   0  5  0  0  0  0  0  0  0  0  0  0
  1  2  2  0  0  0  0
  1  3  1  0  0  0  0
  1  7  1  0  0  0  0
  2  5  1  0  0  0  0
  3  4  2  0  0  0  0
  4  6  1  0  0  0  0
  5  6  2  0  0  0  0
  7  8  1  0  0  0  0
M  END
> <ID>
14101

> <Formula>
C7H10BrN

> <FW>
188.0650 (108.1605+79.9045)

> <DSSTox_CID>
29094

> <DSSTox_RID>
83313

> <DSSTox_GSID>
49238

> <DSSTox_FileID_Sort>
7988

> <TS_ChemName>
1-Ethylpyridinium bromide

> <TS_ChemName_Synonyms>


> <TS_CASRN>
1906-79-2

> <CASRN_ChemName_Relationship>
primary

> <TS_Description>
single chemical compound

> <ChemNote>


> <STRUCTURE_Shown>
tested chemical

> <STRUCTURE_Formula>
C7H10BrN

> <STRUCTURE_MW>
188.065

> <STRUCTURE_ChemType>
defined organic

> <STRUCTURE_DefinedOrganicForm>
salt

> <STRUCTURE_IUPAC>
1-ethylpyridinium bromide

> <STRUCTURE_SMILES>
[Br-].CC[n+]1ccccc1

> <STRUCTURE_SMILES_Desalt>
CC[n+]1ccccc1

> <Substance_modify_yyyymmdd>
20120522

$$$$
