191-24-2
ChemmineR-0915142007XD

 22 27  0  0  0  0  0  0  0  0  1 V2000
    3.4437   -4.6628    0.0000 C   0  0  0  0  0  0  0  0  0  0  0  0
    4.5870   -4.0016    0.0000 C   0  0  0  0  0  0  0  0  0  0  0  0
    2.3004   -4.0016    0.0000 C   0  0  0  0  0  0  0  0  0  0  0  0
    4.5870   -2.6586    0.0000 C   0  0  0  0  0  0  0  0  0  0  0  0
    2.3004   -2.6586    0.0000 C   0  0  0  0  0  0  0  0  0  0  0  0
    3.4437   -1.9974    0.0000 C   0  0  0  0  0  0  0  0  0  0  0  0
    5.7441   -4.6628    0.0000 C   0  0  0  0  0  0  0  0  0  0  0  0
    3.4437   -5.9990    0.0000 C   0  0  0  0  0  0  0  0  0  0  0  0
    1.1433   -4.6628    0.0000 C   0  0  0  0  0  0  0  0  0  0  0  0
    5.7441   -1.9974    0.0000 C   0  0  0  0  0  0  0  0  0  0  0  0
    6.8875   -4.0016    0.0000 C   0  0  0  0  0  0  0  0  0  0  0  0
    5.7441   -5.9990    0.0000 C   0  0  0  0  0  0  0  0  0  0  0  0
    2.3004   -6.6602    0.0000 C   0  0  0  0  0  0  0  0  0  0  0  0
    4.5870   -6.6602    0.0000 C   0  0  0  0  0  0  0  0  0  0  0  0
    6.8875   -2.6586    0.0000 C   0  0  0  0  0  0  0  0  0  0  0  0
    1.1433   -5.9990    0.0000 C   0  0  0  0  0  0  0  0  0  0  0  0
    3.4437   -0.6612    0.0000 C   0  0  0  0  0  0  0  0  0  0  0  0
    1.1433   -1.9974    0.0000 C   0  0  0  0  0  0  0  0  0  0  0  0
    0.0000   -2.6586    0.0000 C   0  0  0  0  0  0  0  0  0  0  0  0
    4.5870    0.0000    0.0000 C   0  0  0  0  0  0  0  0  0  0  0  0
    5.7441   -0.6612    0.0000 C   0  0  0  0  0  0  0  0  0  0  0  0
    0.0000   -4.0016    0.0000 C   0  0  0  0  0  0  0  0  0  0  0  0
  1  2  1  0  0  0  0
  1  3  1  0  0  0  0
  1  8  2  0  0  0  0
  2  4  1  0  0  0  0
  2  7  2  0  0  0  0
  3  5  2  0  0  0  0
  3  9  1  0  0  0  0
  4 10  2  0  0  0  0
  4  6  1  0  0  0  0
  5  6  1  0  0  0  0
  5 18  1  0  0  0  0
  6 17  2  0  0  0  0
  7 11  1  0  0  0  0
  7 12  1  0  0  0  0
  8 13  1  0  0  0  0
  8 14  1  0  0  0  0
  9 22  2  0  0  0  0
  9 16  1  0  0  0  0
 10 21  1  0  0  0  0
 10 15  1  0  0  0  0
 11 15  2  0  0  0  0
 12 14  2  0  0  0  0
 13 16  2  0  0  0  0
 17 20  1  0  0  0  0
 18 19  2  0  0  0  0
 19 22  1  0  0  0  0
 20 21  2  0  0  0  0
M  END
> <ID>
3421

> <Formula>
C22H12

> <FW>
276.3307

> <DSSTox_CID>
3908

> <DSSTox_RID>
77228

> <DSSTox_GSID>
23908

> <DSSTox_FileID_Sort>
1911

> <TS_ChemName>
Benzo(g,h,i)perylene

> <TS_ChemName_Synonyms>


> <TS_CASRN>
191-24-2

> <CASRN_ChemName_Relationship>
primary

> <TS_Description>
single chemical compound

> <ChemNote>


> <STRUCTURE_Shown>
tested chemical

> <STRUCTURE_Formula>
C22H12

> <STRUCTURE_MW>
276.3307

> <STRUCTURE_ChemType>
defined organic

> <STRUCTURE_DefinedOrganicForm>
parent

> <STRUCTURE_IUPAC>
benzo[ghi]perylene

> <STRUCTURE_SMILES>
c3cc2ccc1cccc6c1c2c4c3ccc5cccc6c45

> <STRUCTURE_SMILES_Desalt>
c3cc2ccc1cccc6c1c2c4c3ccc5cccc6c45

> <Substance_modify_yyyymmdd>
20080429

$$$$
