1910-68-5
ChemmineR-0915142007XD

 16 17  0  0  0  0  0  0  0  0  1 V2000
    3.5799   -3.4164    0.0000 C   0  0  0  0  0  0  0  0  0  0  0  0
    4.3563   -2.3212    0.0000 C   0  0  0  0  0  0  0  0  0  0  0  0
    3.5799   -1.2587    0.0000 N   0  0  0  0  0  0  0  0  0  0  0  0
    2.3048   -2.9996    0.0000 C   0  0  0  0  0  0  0  0  0  0  0  0
    2.3048   -1.6592    0.0000 C   0  0  0  0  0  0  0  0  0  0  0  0
    3.9967   -4.6751    0.0000 N   0  0  0  0  0  0  0  0  0  0  0  0
    3.4327   -6.8982    0.0000 C   0  0  0  0  0  0  0  0  0  0  0  0
    4.3563   -5.9501    0.0000 N   0  0  0  0  0  0  0  0  0  0  0  0
    5.6885   -2.3212    0.0000 O   0  0  0  0  0  0  0  0  0  0  0  0
    2.1577   -6.5794    0.0000 S   0  0  0  0  0  0  0  0  0  0  0  0
    3.7924   -8.1732    0.0000 N   0  0  0  0  0  0  0  0  0  0  0  0
    4.0130    0.0000    0.0000 C   0  0  0  0  0  0  0  0  0  0  0  0
    1.1606   -3.6616    0.0000 C   0  0  0  0  0  0  0  0  0  0  0  0
    1.1606   -0.9971    0.0000 C   0  0  0  0  0  0  0  0  0  0  0  0
    0.0000   -2.9996    0.0000 C   0  0  0  0  0  0  0  0  0  0  0  0
    0.0000   -1.6592    0.0000 C   0  0  0  0  0  0  0  0  0  0  0  0
  1  2  1  0  0  0  0
  1  4  1  0  0  0  0
  1  6  2  0  0  0  0
  2  3  1  0  0  0  0
  2  9  2  0  0  0  0
  3 12  1  0  0  0  0
  3  5  1  0  0  0  0
  4  5  2  0  0  0  0
  4 13  1  0  0  0  0
  5 14  1  0  0  0  0
  6  8  1  0  0  0  0
  7  8  1  0  0  0  0
  7 10  2  0  0  0  0
  7 11  1  0  0  0  0
 13 15  2  0  0  0  0
 14 16  2  0  0  0  0
 15 16  1  0  0  0  0
M  END
> <ID>
11659

> <Formula>
C10H10N4OS

> <FW>
234.2776

> <DSSTox_CID>
26413

> <DSSTox_RID>
81592

> <DSSTox_GSID>
46413

> <DSSTox_FileID_Sort>
6273

> <TS_ChemName>
Methisazone

> <TS_ChemName_Synonyms>


> <TS_CASRN>
1910-68-5

> <CASRN_ChemName_Relationship>
primary

> <TS_Description>
single chemical compound

> <ChemNote>


> <STRUCTURE_Shown>
tested chemical

> <STRUCTURE_Formula>
C10H10N4OS

> <STRUCTURE_MW>
234.2776

> <STRUCTURE_ChemType>
defined organic

> <STRUCTURE_DefinedOrganicForm>
parent

> <STRUCTURE_IUPAC>
2-(1-methyl-2-oxo-1,2-dihydro-3H-indol-3-ylidene)hydrazinecarbothioamide

> <STRUCTURE_SMILES>
NC(=S)N\N=C2/c1ccccc1N(C)C2=O

> <STRUCTURE_SMILES_Desalt>
NC(=S)N\N=C2/c1ccccc1N(C)C2=O

> <Substance_modify_yyyymmdd>
20110813

$$$$
