191114-48-4
ChemmineR-0915142007XD

 59 63  0  0  1  0  0  0  0  0  1 V2000
   11.3035   -6.7778    0.0000 C   0  0  0  0  0  0  0  0  0  0  0  0
   11.3035   -5.4352    0.0000 C   0  0  0  0  0  0  0  0  0  0  0  0
    9.2030   -6.0199    0.0000 C   0  0  0  0  0  0  0  0  0  0  0  0
    9.9826   -7.0376    0.0000 O   0  0  0  0  0  0  0  0  0  0  0  0
   10.0692   -4.9588    0.0000 N   0  0  0  0  0  0  0  0  0  0  0  0
   18.1895   -4.1143    0.0000 C   0  0  0  0  0  0  0  0  0  0  0  0
   12.5161   -4.7206    0.0000 C   0  0  0  0  0  0  0  0  0  0  0  0
   13.5988   -9.4412    0.0000 C   0  0  0  0  0  0  0  0  0  0  0  0
   14.7465   -7.4707    0.0000 C   0  0  0  0  0  0  0  0  0  0  0  0
   14.7465   -8.7483    0.0000 C   0  0  0  0  0  0  0  0  0  0  0  0
   18.1895   -2.7501    0.0000 C   0  0  0  0  0  0  0  0  0  0  0  0
   15.8941   -5.4135    0.0000 C   0  0  0  0  0  0  0  0  0  0  0  0
   15.8941   -6.7778    0.0000 C   0  0  0  0  0  0  0  0  0  0  0  0
    3.7678   -4.8072    0.0000 N   0  0  0  0  0  0  0  0  0  0  0  0
   12.5161   -3.3997    0.0000 C   0  0  0  0  0  0  0  0  0  0  0  0
   12.4944   -8.7699    0.0000 O   0  0  0  0  0  0  0  0  0  0  0  0
    3.3564   -3.5729    0.0000 C   0  0  0  0  0  0  0  0  0  0  0  0
   17.0851   -4.7639    0.0000 O   0  0  0  0  0  0  0  0  0  0  0  0
   19.3588   -2.0355    0.0000 C   0  0  0  0  0  0  0  0  0  0  0  0
   14.8114   -4.7206    0.0000 C   0  0  0  0  0  0  0  0  0  0  0  0
   12.4944   -7.4707    0.0000 C   0  0  0  0  0  0  0  0  0  0  0  0
   19.3805   -4.7639    0.0000 O   0  0  0  0  0  0  0  0  0  0  0  0
    4.4391   -2.7501    0.0000 C   0  0  0  0  0  0  0  0  0  0  0  0
    5.5002   -3.5729    0.0000 N   0  0  0  0  0  0  0  0  0  0  0  0
    5.0454   -4.8072    0.0000 C   0  0  0  0  0  0  0  0  0  0  0  0
   13.6421   -2.7284    0.0000 C   0  0  0  0  0  0  0  0  0  0  0  0
   14.8114   -3.3997    0.0000 C   0  0  0  0  0  0  0  0  0  0  0  0
   20.5065   -2.6851    0.0000 C   0  0  0  0  0  0  0  0  0  0  0  0
    2.2520   -2.9017    0.0000 C   0  0  0  0  0  0  0  0  0  0  0  0
    7.9254   -6.0199    0.0000 O   0  0  0  0  0  0  0  0  0  0  0  0
   19.3805   -0.6929    0.0000 N   0  0  0  0  0  0  0  0  0  0  0  0
   13.5988  -10.7838    0.0000 O   0  0  0  0  0  0  0  0  0  0  0  0
   16.0890   -8.2286    0.0000 O   0  0  0  0  0  0  0  0  0  0  0  0
   20.5065   -4.1143    0.0000 C   0  0  0  0  0  0  0  0  0  0  0  0
   11.6499   -2.5552    0.0000 O   0  0  0  0  0  0  0  0  0  0  0  0
    1.1044   -0.9311    0.0000 N   0  0  0  0  0  0  0  0  0  0  0  0
   17.0418   -2.1221    0.0000 O   0  0  0  0  0  0  0  0  0  0  0  0
   10.8271   -8.1636    0.0000 C   0  0  0  0  0  0  0  0  0  0  0  0
   13.4256   -5.0454    0.0000 O   0  0  0  0  0  0  0  0  0  0  0  0
   10.0692   -3.5080    0.0000 C   0  0  0  0  0  0  0  0  0  0  0  0
   11.4984   -3.9411    0.0000 C   0  0  0  0  0  0  0  0  0  0  0  0
   15.8292   -9.4845    0.0000 C   0  0  0  0  0  0  0  0  0  0  0  0
   17.0418   -7.4057    0.0000 C   0  0  0  0  0  0  0  0  0  0  0  0
    2.2520   -1.5591    0.0000 C   0  0  0  0  0  0  0  0  0  0  0  0
   15.7426   -3.7462    0.0000 C   0  0  0  0  0  0  0  0  0  0  0  0
    6.5829   -2.8583    0.0000 C   0  0  0  0  0  0  0  0  0  0  0  0
   11.5200   -8.5750    0.0000 C   0  0  0  0  0  0  0  0  0  0  0  0
   13.6421   -1.4292    0.0000 C   0  0  0  0  0  0  0  0  0  0  0  0
    1.1044   -3.5729    0.0000 C   0  0  0  0  0  0  0  0  0  0  0  0
    0.0000   -1.5591    0.0000 C   0  0  0  0  0  0  0  0  0  0  0  0
   18.1895    0.0000    0.0000 C   0  0  0  0  0  0  0  0  0  0  0  0
   20.5498    0.0000    0.0000 C   0  0  0  0  0  0  0  0  0  0  0  0
   21.6542   -4.8072    0.0000 C   0  0  0  0  0  0  0  0  0  0  0  0
   13.2740   -6.3230    0.0000 C   0  0  0  0  0  0  0  0  0  0  0  0
    8.8565   -2.8583    0.0000 C   0  0  0  0  0  0  0  0  0  0  0  0
    7.7305   -3.5080    0.0000 C   0  0  0  0  0  0  0  0  0  0  0  0
    0.0000   -2.9017    0.0000 C   0  0  0  0  0  0  0  0  0  0  0  0
   11.5200   -9.7877    0.0000 C   0  0  0  0  0  0  0  0  0  0  0  0
   10.8920   -4.4824    0.0000 H   0  0  0  0  0  0  0  0  0  0  0  0
  1  2  1  0  0  0  0
  1  4  1  0  0  0  0
  1 21  1  0  0  0  0
  1 38  1  6  0  0  0
  2  5  1  0  0  0  0
  2  7  1  0  0  0  0
  2 59  1  1  0  0  0
  3  4  1  0  0  0  0
  3 30  2  0  0  0  0
  3  5  1  0  0  0  0
  5 40  1  0  0  0  0
  6 18  1  1  0  0  0
  6 11  1  0  0  0  0
  6 22  1  0  0  0  0
  7 15  1  0  0  0  0
  7 41  1  6  0  0  0
  8 16  1  0  0  0  0
  8 10  1  0  0  0  0
  8 32  2  0  0  0  0
  9 10  1  0  0  0  0
  9 13  1  0  0  0  0
  9 33  2  0  0  0  0
 10 42  1  1  0  0  0
 11 19  1  0  0  0  0
 11 37  1  6  0  0  0
 12 13  1  0  0  0  0
 12 18  1  6  0  0  0
 12 20  1  0  0  0  0
 13 43  1  1  0  0  0
 14 25  2  0  0  0  0
 14 17  1  0  0  0  0
 15 26  1  0  0  0  0
 15 35  2  0  0  0  0
 16 21  1  0  0  0  0
 17 23  2  0  0  0  0
 17 29  1  0  0  0  0
 19 31  1  1  0  0  0
 19 28  1  0  0  0  0
 20 27  1  0  0  0  0
 20 39  1  0  0  0  0
 20 45  1  1  0  0  0
 21 47  1  1  0  0  0
 22 34  1  0  0  0  0
 23 24  1  0  0  0  0
 24 46  1  0  0  0  0
 24 25  1  0  0  0  0
 26 27  1  0  0  0  0
 26 48  1  6  0  0  0
 28 34  1  0  0  0  0
 29 44  2  0  0  0  0
 29 49  1  0  0  0  0
 31 51  1  0  0  0  0
 31 52  1  0  0  0  0
 34 53  1  1  0  0  0
 36 44  1  0  0  0  0
 36 50  2  0  0  0  0
 39 54  1  0  0  0  0
 40 55  1  0  0  0  0
 46 56  1  0  0  0  0
 47 58  1  0  0  0  0
 49 57  2  0  0  0  0
 50 57  1  0  0  0  0
 55 56  1  0  0  0  0
M  END
> <ID>
11695

> <Formula>
C43H65N5O10

> <FW>
812.0037

> <DSSTox_CID>
26455

> <DSSTox_RID>
81629

> <DSSTox_GSID>
46455

> <DSSTox_FileID_Sort>
6310

> <TS_ChemName>
Telithromycin

> <TS_ChemName_Synonyms>


> <TS_CASRN>
191114-48-4

> <CASRN_ChemName_Relationship>
primary

> <TS_Description>
single chemical compound

> <ChemNote>
stereochem; tautomers

> <STRUCTURE_Shown>
tested chemical

> <STRUCTURE_Formula>
C43H65N5O10

> <STRUCTURE_MW>
812.0037

> <STRUCTURE_ChemType>
defined organic

> <STRUCTURE_DefinedOrganicForm>
parent

> <STRUCTURE_IUPAC>
(3aS,4R,7R,9R,10R,11R,13R,15R,15aR)-4-ethyl-11-methoxy-3a,7,9,11,13,15-hexamethyl-2,6,8,14-tetraoxo-1-{4-[4-(pyridin-3-yl)-1H-imidazol-1-yl]butyl}tetradecahydro-2H-oxacyclotetradecino[4,3-d][1,3]oxazol-10-yl 3,4,6-trideoxy-3-(dimethylamino)-beta-D-xylo-he

> <STRUCTURE_SMILES>
CN(C)[C@H]5C[C@@H](C)O[C@@H](O[C@@H]3[C@@H](C)C(=O)[C@@H](C)C(=O)O[C@H](CC)[C@@]4(C)OC(=O)N(CCCCn1cc(nc1)c2cccnc2)[C@@H]4[C@@H](C)C(=O)[C@H](C)C[C@@]3(C)OC)[C@@H]5O

> <STRUCTURE_SMILES_Desalt>
CN(C)[C@H]5C[C@@H](C)O[C@@H](O[C@@H]3[C@@H](C)C(=O)[C@@H](C)C(=O)O[C@H](CC)[C@@]4(C)OC(=O)N(CCCCn1cc(nc1)c2cccnc2)[C@@H]4[C@@H](C)C(=O)[C@H](C)C[C@@]3(C)OC)[C@@H]5O

> <Substance_modify_yyyymmdd>
20110813

$$$$
