191732-72-6
ChemmineR-0915142007XD

 19 21  0  0  0  0  0  0  0  0  1 V2000
    1.1509    0.0000    0.0000 N   0  0  0  0  0  0  0  0  0  0  0  0
    1.1509   -1.3250    0.0000 C   0  0  0  0  0  0  0  0  0  0  0  0
    2.3018   -1.9923    0.0000 C   0  0  0  0  0  0  0  0  0  0  0  0
    3.5688   -1.5861    0.0000 C   0  0  0  0  0  0  0  0  0  0  0  0
    4.3522   -2.6597    0.0000 N   0  0  0  0  0  0  0  0  0  0  0  0
    5.6772   -2.6597    0.0000 C   0  0  0  0  0  0  0  0  0  0  0  0
    6.3445   -1.5088    0.0000 C   0  0  0  0  0  0  0  0  0  0  0  0
    7.6792   -1.5088    0.0000 C   0  0  0  0  0  0  0  0  0  0  0  0
    8.3369   -2.6597    0.0000 C   0  0  0  0  0  0  0  0  0  0  0  0
    9.6715   -2.6597    0.0000 O   0  0  0  0  0  0  0  0  0  0  0  0
    7.6792   -3.8106    0.0000 N   0  0  0  0  0  0  0  0  0  0  0  0
    6.3445   -3.8106    0.0000 C   0  0  0  0  0  0  0  0  0  0  0  0
    5.6772   -4.9615    0.0000 O   0  0  0  0  0  0  0  0  0  0  0  0
    3.5688   -3.7332    0.0000 C   0  0  0  0  0  0  0  0  0  0  0  0
    3.9847   -5.0002    0.0000 O   0  0  0  0  0  0  0  0  0  0  0  0
    2.3018   -3.3270    0.0000 C   0  0  0  0  0  0  0  0  0  0  0  0
    1.1509   -3.9847    0.0000 C   0  0  0  0  0  0  0  0  0  0  0  0
    0.0000   -3.3270    0.0000 C   0  0  0  0  0  0  0  0  0  0  0  0
    0.0000   -1.9923    0.0000 C   0  0  0  0  0  0  0  0  0  0  0  0
  1  2  1  0  0  0  0
  2  3  2  0  0  0  0
  2 19  1  0  0  0  0
  3  4  1  0  0  0  0
  3 16  1  0  0  0  0
  4  5  1  0  0  0  0
  5  6  1  0  0  0  0
  5 14  1  0  0  0  0
  6  7  1  0  0  0  0
  6 12  1  0  0  0  0
  7  8  1  0  0  0  0
  8  9  1  0  0  0  0
  9 10  2  0  0  0  0
  9 11  1  0  0  0  0
 11 12  1  0  0  0  0
 12 13  2  0  0  0  0
 14 15  2  0  0  0  0
 14 16  1  0  0  0  0
 16 17  2  0  0  0  0
 17 18  1  0  0  0  0
 18 19  2  0  0  0  0
M  END
> <ID>
11871

> <Formula>
C13H13N3O3

> <FW>
259.2606

> <DSSTox_CID>
26664

> <DSSTox_RID>
81806

> <DSSTox_GSID>
46664

> <DSSTox_FileID_Sort>
6487

> <TS_ChemName>
Lenalidomide

> <TS_ChemName_Synonyms>


> <TS_CASRN>
191732-72-6

> <CASRN_ChemName_Relationship>
primary

> <TS_Description>
single chemical compound

> <ChemNote>


> <STRUCTURE_Shown>
tested chemical

> <STRUCTURE_Formula>
C13H13N3O3

> <STRUCTURE_MW>
259.2606

> <STRUCTURE_ChemType>
defined organic

> <STRUCTURE_DefinedOrganicForm>
parent

> <STRUCTURE_IUPAC>
3-(4-amino-1-oxo-1,3-dihydro-2H-isoindol-2-yl)piperidine-2,6-dione

> <STRUCTURE_SMILES>
O=C1NC(=O)CCC1N3Cc2c(cccc2N)C3=O

> <STRUCTURE_SMILES_Desalt>
O=C1NC(=O)CCC1N3Cc2c(cccc2N)C3=O

> <Substance_modify_yyyymmdd>
20110808

$$$$
