1918-11-2
ChemmineR-0915142007XD

 20 20  0  0  0  0  0  0  0  0  1 V2000
    4.4954   -2.5914    0.0000 C   0  0  0  0  0  0  0  0  0  0  0  0
    3.8532   -3.7096    0.0000 C   0  0  0  0  0  0  0  0  0  0  0  0
    5.8251   -2.5914    0.0000 C   0  0  0  0  0  0  0  0  0  0  0  0
    1.9644   -1.1257    0.0000 C   0  0  0  0  0  0  0  0  0  0  0  0
    3.2639   -1.1257    0.0000 O   0  0  0  0  0  0  0  0  0  0  0  0
    2.5612   -3.7096    0.0000 C   0  0  0  0  0  0  0  0  0  0  0  0
    6.4295   -1.4657    0.0000 C   0  0  0  0  0  0  0  0  0  0  0  0
    4.4954   -4.8353    0.0000 C   0  0  0  0  0  0  0  0  0  0  0  0
    6.4295   -3.7096    0.0000 C   0  0  0  0  0  0  0  0  0  0  0  0
    1.3146   -2.2439    0.0000 O   0  0  0  0  0  0  0  0  0  0  0  0
    5.8251   -4.8353    0.0000 C   0  0  0  0  0  0  0  0  0  0  0  0
    1.3146    0.0000    0.0000 N   0  0  0  0  0  0  0  0  0  0  0  0
    2.5612   -5.0393    0.0000 C   0  0  0  0  0  0  0  0  0  0  0  0
    1.2315   -3.7096    0.0000 C   0  0  0  0  0  0  0  0  0  0  0  0
    2.5612   -2.4177    0.0000 C   0  0  0  0  0  0  0  0  0  0  0  0
    7.5552   -2.1381    0.0000 C   0  0  0  0  0  0  0  0  0  0  0  0
    5.3415   -0.8084    0.0000 C   0  0  0  0  0  0  0  0  0  0  0  0
    7.0868   -0.3400    0.0000 C   0  0  0  0  0  0  0  0  0  0  0  0
    6.4295   -5.9611    0.0000 C   0  0  0  0  0  0  0  0  0  0  0  0
    0.0000    0.0000    0.0000 C   0  0  0  0  0  0  0  0  0  0  0  0
  1  2  2  0  0  0  0
  1  3  1  0  0  0  0
  1  5  1  0  0  0  0
  2  6  1  0  0  0  0
  2  8  1  0  0  0  0
  3  7  1  0  0  0  0
  3  9  2  0  0  0  0
  4  5  1  0  0  0  0
  4 10  2  0  0  0  0
  4 12  1  0  0  0  0
  6 13  1  0  0  0  0
  6 14  1  0  0  0  0
  6 15  1  0  0  0  0
  7 16  1  0  0  0  0
  7 17  1  0  0  0  0
  7 18  1  0  0  0  0
  8 11  2  0  0  0  0
  9 11  1  0  0  0  0
 11 19  1  0  0  0  0
 12 20  1  0  0  0  0
M  END
> <ID>
9353

> <Formula>
C17H27NO2

> <FW>
277.4018

> <DSSTox_CID>
22441

> <DSSTox_RID>
80026

> <DSSTox_GSID>
42441

> <DSSTox_FileID_Sort>
4708

> <TS_ChemName>
Terbucarb

> <TS_ChemName_Synonyms>


> <TS_CASRN>
1918-11-2

> <CASRN_ChemName_Relationship>
primary

> <TS_Description>
single chemical compound

> <ChemNote>


> <STRUCTURE_Shown>
tested chemical

> <STRUCTURE_Formula>
C17H27NO2

> <STRUCTURE_MW>
277.4018

> <STRUCTURE_ChemType>
defined organic

> <STRUCTURE_DefinedOrganicForm>
parent

> <STRUCTURE_IUPAC>
2,6-di-tert-butyl-4-methylphenyl methylcarbamate

> <STRUCTURE_SMILES>
O=C(Oc1c(cc(C)cc1C(C)(C)C)C(C)(C)C)NC

> <STRUCTURE_SMILES_Desalt>
O=C(Oc1c(cc(C)cc1C(C)(C)C)C(C)(C)C)NC

> <Substance_modify_yyyymmdd>
20080825

$$$$
