1918-16-7
ChemmineR-0915142007XD

 14 14  0  0  0  0  0  0  0  0  1 V2000
    3.4497   -2.0272    0.0000 N    0  0  0  0  0  0  0  0  0  0  0  0
    4.6073   -2.6895    0.0000 C    0  0  0  0  0  0  0  0  0  0  0  0
    4.6073   -4.0199    0.0000 O    0  0  0  0  0  0  0  0  0  0  0  0
    2.2979   -2.6895    0.0000 C    0  0  0  0  0  0  0  0  0  0  0  0
    3.4497   -0.6969    0.0000 C    0  0  0  0  0  0  0  0  0  0  0  0
    5.7592   -2.0272    0.0000 C    0  0  0  0  0  0  0  0  0  0  0  0
    5.7592   -0.6969    0.0000 Cl   0  0  0  0  0  0  0  0  0  0  0  0
    2.2979   -4.0199    0.0000 C    0  0  0  0  0  0  0  0  0  0  0  0
    1.1518   -2.0272    0.0000 C    0  0  0  0  0  0  0  0  0  0  0  0
    4.5900   -0.0230    0.0000 C    0  0  0  0  0  0  0  0  0  0  0  0
    2.3094    0.0000    0.0000 C    0  0  0  0  0  0  0  0  0  0  0  0
    0.0000   -2.6895    0.0000 C    0  0  0  0  0  0  0  0  0  0  0  0
    1.1518   -4.6937    0.0000 C    0  0  0  0  0  0  0  0  0  0  0  0
    0.0000   -4.0199    0.0000 C    0  0  0  0  0  0  0  0  0  0  0  0
  1  2  1  0  0  0  0
  1  4  1  0  0  0  0
  1  5  1  0  0  0  0
  2  3  2  0  0  0  0
  2  6  1  0  0  0  0
  4  8  2  0  0  0  0
  4  9  1  0  0  0  0
  5 10  1  0  0  0  0
  5 11  1  0  0  0  0
  6  7  1  0  0  0  0
  8 13  1  0  0  0  0
  9 12  2  0  0  0  0
 12 14  1  0  0  0  0
 13 14  2  0  0  0  0
M  END
> <ID>
3597

> <Formula>
C11H14ClNO

> <FW>
211.688

> <DSSTox_CID>
4274

> <DSSTox_RID>
77351

> <DSSTox_GSID>
24274

> <DSSTox_FileID_Sort>
2034

> <TS_ChemName>
Propachlor

> <TS_ChemName_Synonyms>


> <TS_CASRN>
1918-16-7

> <CASRN_ChemName_Relationship>
primary

> <TS_Description>
single chemical compound

> <ChemNote>


> <STRUCTURE_Shown>
tested chemical

> <STRUCTURE_Formula>
C11H14ClNO

> <STRUCTURE_MW>
211.688

> <STRUCTURE_ChemType>
defined organic

> <STRUCTURE_DefinedOrganicForm>
parent

> <STRUCTURE_IUPAC>
2-chloro-N-phenyl-N-(propan-2-yl)acetamide

> <STRUCTURE_SMILES>
CC(C)N(C(=O)CCl)c1ccccc1

> <STRUCTURE_SMILES_Desalt>
CC(C)N(C(=O)CCl)c1ccccc1

> <Substance_modify_yyyymmdd>
20080429

$$$$
