1918-18-9
ChemmineR-0915142007XD

 13 13  0  0  0  0  0  0  0  0  1 V2000
    5.7487   -2.0076    0.0000 C    0  0  0  0  0  0  0  0  0  0  0  0
    5.7487   -0.6773    0.0000 O    0  0  0  0  0  0  0  0  0  0  0  0
    6.9097   -2.6687    0.0000 O    0  0  0  0  0  0  0  0  0  0  0  0
    4.6118   -2.6687    0.0000 N    0  0  0  0  0  0  0  0  0  0  0  0
    3.4508   -2.0076    0.0000 C    0  0  0  0  0  0  0  0  0  0  0  0
    2.3140   -2.6687    0.0000 C    0  0  0  0  0  0  0  0  0  0  0  0
    3.4669   -0.6773    0.0000 C    0  0  0  0  0  0  0  0  0  0  0  0
    1.1530   -1.9915    0.0000 C    0  0  0  0  0  0  0  0  0  0  0  0
    2.3140   -0.0161    0.0000 C    0  0  0  0  0  0  0  0  0  0  0  0
    1.1530   -0.6773    0.0000 C    0  0  0  0  0  0  0  0  0  0  0  0
    0.0000   -2.6687    0.0000 Cl   0  0  0  0  0  0  0  0  0  0  0  0
    0.0000    0.0000    0.0000 Cl   0  0  0  0  0  0  0  0  0  0  0  0
    8.0627   -2.0076    0.0000 C    0  0  0  0  0  0  0  0  0  0  0  0
  1  2  2  0  0  0  0
  1  3  1  0  0  0  0
  1  4  1  0  0  0  0
  3 13  1  0  0  0  0
  4  5  1  0  0  0  0
  5  6  2  0  0  0  0
  5  7  1  0  0  0  0
  6  8  1  0  0  0  0
  7  9  2  0  0  0  0
  8 10  2  0  0  0  0
  8 11  1  0  0  0  0
  9 10  1  0  0  0  0
 10 12  1  0  0  0  0
M  END
> <ID>
9349

> <Formula>
C8H7Cl2NO2

> <FW>
220.0527

> <DSSTox_CID>
22437

> <DSSTox_RID>
80024

> <DSSTox_GSID>
42437

> <DSSTox_FileID_Sort>
4706

> <TS_ChemName>
Swep

> <TS_ChemName_Synonyms>


> <TS_CASRN>
1918-18-9

> <CASRN_ChemName_Relationship>
primary

> <TS_Description>
single chemical compound

> <ChemNote>


> <STRUCTURE_Shown>
tested chemical

> <STRUCTURE_Formula>
C8H7Cl2NO2

> <STRUCTURE_MW>
220.0527

> <STRUCTURE_ChemType>
defined organic

> <STRUCTURE_DefinedOrganicForm>
parent

> <STRUCTURE_IUPAC>
methyl (3,4-dichlorophenyl)carbamate

> <STRUCTURE_SMILES>
Clc1ccc(NC(=O)OC)cc1Cl

> <STRUCTURE_SMILES_Desalt>
Clc1ccc(NC(=O)OC)cc1Cl

> <Substance_modify_yyyymmdd>
20080825

$$$$
