1918-02-1
ChemmineR-0915142007XD

 13 13  0  0  0  0  0  0  0  0  1 V2000
    3.4803   -1.9978    0.0000 C    0  0  0  0  0  0  0  0  0  0  0  0
    2.3395   -1.3493    0.0000 N    0  0  0  0  0  0  0  0  0  0  0  0
    3.4803   -3.3297    0.0000 C    0  0  0  0  0  0  0  0  0  0  0  0
    1.1813   -3.3297    0.0000 C    0  0  0  0  0  0  0  0  0  0  0  0
    2.3395   -3.9783    0.0000 C    0  0  0  0  0  0  0  0  0  0  0  0
    1.1813   -1.9978    0.0000 C    0  0  0  0  0  0  0  0  0  0  0  0
    4.6327   -1.3377    0.0000 C    0  0  0  0  0  0  0  0  0  0  0  0
    4.6327    0.0000    0.0000 O    0  0  0  0  0  0  0  0  0  0  0  0
    2.3395   -5.3102    0.0000 N    0  0  0  0  0  0  0  0  0  0  0  0
    0.0116   -3.9899    0.0000 Cl   0  0  0  0  0  0  0  0  0  0  0  0
    4.6327   -4.0015    0.0000 Cl   0  0  0  0  0  0  0  0  0  0  0  0
    0.0000   -1.3493    0.0000 Cl   0  0  0  0  0  0  0  0  0  0  0  0
    5.7908   -1.9805    0.0000 O    0  0  0  0  0  0  0  0  0  0  0  0
  1  2  1  0  0  0  0
  1  3  2  0  0  0  0
  1  7  1  0  0  0  0
  2  6  2  0  0  0  0
  3  5  1  0  0  0  0
  3 11  1  0  0  0  0
  4  5  2  0  0  0  0
  4 10  1  0  0  0  0
  4  6  1  0  0  0  0
  5  9  1  0  0  0  0
  6 12  1  0  0  0  0
  7  8  2  0  0  0  0
  7 13  1  0  0  0  0
M  END
> <ID>
1116

> <Formula>
C6H3Cl3N2O2

> <FW>
241.4592

> <DSSTox_CID>
1160

> <DSSTox_RID>
75983

> <DSSTox_GSID>
21160

> <DSSTox_FileID_Sort>
667

> <TS_ChemName>
Picloram

> <TS_ChemName_Synonyms>
Picloram (2-Pyridinecarboxylic acid, 4-amino-3,5,6-trichloro-) (2-amino-3,5,6-trichloropicolinicacid) (3-aminopicoline-5-carboxylic acid

> <TS_CASRN>
1918-02-1

> <CASRN_ChemName_Relationship>
primary

> <TS_Description>
single chemical compound

> <ChemNote>


> <STRUCTURE_Shown>
tested chemical

> <STRUCTURE_Formula>
C6H3Cl3N2O2

> <STRUCTURE_MW>
241.4592

> <STRUCTURE_ChemType>
defined organic

> <STRUCTURE_DefinedOrganicForm>
parent

> <STRUCTURE_IUPAC>
4-amino-3,5,6-trichloropyridine-2-carboxylic acid

> <STRUCTURE_SMILES>
Nc1c(Cl)c(nc(Cl)c1Cl)C(=O)O

> <STRUCTURE_SMILES_Desalt>
Nc1c(Cl)c(nc(Cl)c1Cl)C(=O)O

> <Substance_modify_yyyymmdd>
20080429

$$$$
