192-97-2
ChemmineR-0915142007XD

 20 24  0  0  0  0  0  0  0  0  1 V2000
    3.4643   -4.6006    0.0000 C   0  0  0  0  0  0  0  0  0  0  0  0
    2.3280   -3.9285    0.0000 C   0  0  0  0  0  0  0  0  0  0  0  0
    3.4643   -5.9309    0.0000 C   0  0  0  0  0  0  0  0  0  0  0  0
    4.5868   -3.9285    0.0000 C   0  0  0  0  0  0  0  0  0  0  0  0
    3.4643   -1.9192    0.0000 C   0  0  0  0  0  0  0  0  0  0  0  0
    4.5868   -2.5982    0.0000 C   0  0  0  0  0  0  0  0  0  0  0  0
    2.3280   -2.5982    0.0000 C   0  0  0  0  0  0  0  0  0  0  0  0
    3.4643   -0.5889    0.0000 C   0  0  0  0  0  0  0  0  0  0  0  0
    5.7231   -1.9192    0.0000 C   0  0  0  0  0  0  0  0  0  0  0  0
    5.7923   -4.6006    0.0000 C   0  0  0  0  0  0  0  0  0  0  0  0
    6.9286   -3.9285    0.0000 C   0  0  0  0  0  0  0  0  0  0  0  0
    5.7923   -5.9309    0.0000 C   0  0  0  0  0  0  0  0  0  0  0  0
    6.9286   -2.5982    0.0000 C   0  0  0  0  0  0  0  0  0  0  0  0
    5.7231   -0.5889    0.0000 C   0  0  0  0  0  0  0  0  0  0  0  0
    1.1363   -4.6006    0.0000 C   0  0  0  0  0  0  0  0  0  0  0  0
    1.1363   -1.9192    0.0000 C   0  0  0  0  0  0  0  0  0  0  0  0
    0.0000   -2.5982    0.0000 C   0  0  0  0  0  0  0  0  0  0  0  0
    0.0000   -3.9285    0.0000 C   0  0  0  0  0  0  0  0  0  0  0  0
    4.5868    0.0000    0.0000 C   0  0  0  0  0  0  0  0  0  0  0  0
    4.5868   -6.5891    0.0000 C   0  0  0  0  0  0  0  0  0  0  0  0
  1  2  2  0  0  0  0
  1  3  1  0  0  0  0
  1  4  1  0  0  0  0
  2  7  1  0  0  0  0
  2 15  1  0  0  0  0
  3 20  2  0  0  0  0
  4  6  2  0  0  0  0
  4 10  1  0  0  0  0
  5  6  1  0  0  0  0
  5  7  2  0  0  0  0
  5  8  1  0  0  0  0
  6  9  1  0  0  0  0
  7 16  1  0  0  0  0
  8 19  2  0  0  0  0
  9 13  1  0  0  0  0
  9 14  2  0  0  0  0
 10 11  1  0  0  0  0
 10 12  2  0  0  0  0
 11 13  2  0  0  0  0
 12 20  1  0  0  0  0
 14 19  1  0  0  0  0
 15 18  2  0  0  0  0
 16 17  2  0  0  0  0
 17 18  1  0  0  0  0
M  END
> <ID>
3358

> <Formula>
C20H12

> <FW>
252.3093

> <DSSTox_CID>
3764

> <DSSTox_RID>
77188

> <DSSTox_GSID>
23764

> <DSSTox_FileID_Sort>
1871

> <TS_ChemName>
Benzo(e)pyrene

> <TS_ChemName_Synonyms>


> <TS_CASRN>
192-97-2

> <CASRN_ChemName_Relationship>
primary

> <TS_Description>
single chemical compound

> <ChemNote>


> <STRUCTURE_Shown>
tested chemical

> <STRUCTURE_Formula>
C20H12

> <STRUCTURE_MW>
252.3093

> <STRUCTURE_ChemType>
defined organic

> <STRUCTURE_DefinedOrganicForm>
parent

> <STRUCTURE_IUPAC>
benzo[e]pyrene

> <STRUCTURE_SMILES>
c3ccc2ccc1cccc4c1c2c3c5ccccc45

> <STRUCTURE_SMILES_Desalt>
c3ccc2ccc1cccc4c1c2c3c5ccccc45

> <Substance_modify_yyyymmdd>
20080429

$$$$
