19216-56-9
ChemmineR-0915142007XD

 28 31  0  0  0  0  0  0  0  0  1 V2000
    6.8912   -3.9928    0.0000 C   0  0  0  0  0  0  0  0  0  0  0  0
    6.8912   -5.3681    0.0000 N   0  0  0  0  0  0  0  0  0  0  0  0
    4.5843   -5.3681    0.0000 C   0  0  0  0  0  0  0  0  0  0  0  0
    5.7673   -6.0039    0.0000 C   0  0  0  0  0  0  0  0  0  0  0  0
    5.7673   -3.3865    0.0000 N   0  0  0  0  0  0  0  0  0  0  0  0
    4.5843   -3.9928    0.0000 C   0  0  0  0  0  0  0  0  0  0  0  0
   11.5347   -1.3309    0.0000 C   0  0  0  0  0  0  0  0  0  0  0  0
    8.0890   -3.3865    0.0000 N   0  0  0  0  0  0  0  0  0  0  0  0
   10.3516   -2.0112    0.0000 N   0  0  0  0  0  0  0  0  0  0  0  0
    3.4604   -6.0039    0.0000 C   0  0  0  0  0  0  0  0  0  0  0  0
   12.6142   -2.0112    0.0000 C   0  0  0  0  0  0  0  0  0  0  0  0
    3.4604   -3.3865    0.0000 C   0  0  0  0  0  0  0  0  0  0  0  0
    2.3217   -5.3681    0.0000 C   0  0  0  0  0  0  0  0  0  0  0  0
    2.3217   -3.9928    0.0000 C   0  0  0  0  0  0  0  0  0  0  0  0
   13.6937   -1.2274    0.0000 O   0  0  0  0  0  0  0  0  0  0  0  0
    8.0890   -2.0112    0.0000 C   0  0  0  0  0  0  0  0  0  0  0  0
    9.2277   -3.9928    0.0000 C   0  0  0  0  0  0  0  0  0  0  0  0
   10.3516   -3.3865    0.0000 C   0  0  0  0  0  0  0  0  0  0  0  0
    9.2277   -1.3753    0.0000 C   0  0  0  0  0  0  0  0  0  0  0  0
   11.5347    0.0000    0.0000 O   0  0  0  0  0  0  0  0  0  0  0  0
   13.0135   -3.2977    0.0000 C   0  0  0  0  0  0  0  0  0  0  0  0
   14.7880   -1.9668    0.0000 C   0  0  0  0  0  0  0  0  0  0  0  0
   14.3887   -3.2977    0.0000 C   0  0  0  0  0  0  0  0  0  0  0  0
    5.7673   -7.3792    0.0000 N   0  0  0  0  0  0  0  0  0  0  0  0
    1.1978   -6.0483    0.0000 O   0  0  0  0  0  0  0  0  0  0  0  0
    1.1978   -3.3421    0.0000 O   0  0  0  0  0  0  0  0  0  0  0  0
    0.0000   -3.9928    0.0000 C   0  0  0  0  0  0  0  0  0  0  0  0
    0.0000   -5.4124    0.0000 C   0  0  0  0  0  0  0  0  0  0  0  0
  1  2  2  0  0  0  0
  1  5  1  0  0  0  0
  1  8  1  0  0  0  0
  2  4  1  0  0  0  0
  3  6  1  0  0  0  0
  3 10  1  0  0  0  0
  3  4  2  0  0  0  0
  4 24  1  0  0  0  0
  5  6  2  0  0  0  0
  6 12  1  0  0  0  0
  7  9  1  0  0  0  0
  7 11  1  0  0  0  0
  7 20  2  0  0  0  0
  8 16  1  0  0  0  0
  8 17  1  0  0  0  0
  9 18  1  0  0  0  0
  9 19  1  0  0  0  0
 10 13  2  0  0  0  0
 11 15  1  0  0  0  0
 11 21  2  0  0  0  0
 12 14  2  0  0  0  0
 13 14  1  0  0  0  0
 13 25  1  0  0  0  0
 14 26  1  0  0  0  0
 15 22  1  0  0  0  0
 16 19  1  0  0  0  0
 17 18  1  0  0  0  0
 21 23  1  0  0  0  0
 22 23  2  0  0  0  0
 25 28  1  0  0  0  0
 26 27  1  0  0  0  0
M  END
> <ID>
14065

> <Formula>
C19H21N5O4

> <FW>
383.4011

> <DSSTox_CID>
29008

> <DSSTox_RID>
83272

> <DSSTox_GSID>
49082

> <DSSTox_FileID_Sort>
7947

> <TS_ChemName>
Prazosin

> <TS_ChemName_Synonyms>


> <TS_CASRN>
19216-56-9

> <CASRN_ChemName_Relationship>
primary

> <TS_Description>
single chemical compound

> <ChemNote>


> <STRUCTURE_Shown>
tested chemical

> <STRUCTURE_Formula>
C19H21N5O4

> <STRUCTURE_MW>
383.4011

> <STRUCTURE_ChemType>
defined organic

> <STRUCTURE_DefinedOrganicForm>
parent

> <STRUCTURE_IUPAC>
[4-(4-amino-6,7-dimethoxyquinazolin-2-yl)piperazin-1-yl](furan-2-yl)methanone

> <STRUCTURE_SMILES>
O=C(N1CCN(CC1)c3nc2cc(OC)c(OC)cc2c(N)n3)c4ccco4

> <STRUCTURE_SMILES_Desalt>
O=C(N1CCN(CC1)c3nc2cc(OC)c(OC)cc2c(N)n3)c4ccco4

> <Substance_modify_yyyymmdd>
20111204

$$$$
