19224-26-1
ChemmineR-0915142007XD

 21 22  0  0  0  0  0  0  0  0  1 V2000
    3.4615   -4.6441    0.0000 C   0  0  0  0  0  0  0  0  0  0  0  0
    4.6095   -3.9880    0.0000 C   0  0  0  0  0  0  0  0  0  0  0  0
    4.6095   -2.6587    0.0000 C   0  0  0  0  0  0  0  0  0  0  0  0
    2.3048   -3.9707    0.0000 O   0  0  0  0  0  0  0  0  0  0  0  0
    5.7662   -4.6441    0.0000 O   0  0  0  0  0  0  0  0  0  0  0  0
    1.1567   -4.6441    0.0000 C   0  0  0  0  0  0  0  0  0  0  0  0
    0.0000   -3.9707    0.0000 O   0  0  0  0  0  0  0  0  0  0  0  0
    1.1567   -5.9734    0.0000 C   0  0  0  0  0  0  0  0  0  0  0  0
    2.3048   -6.6294    0.0000 C   0  0  0  0  0  0  0  0  0  0  0  0
    0.0000   -6.6294    0.0000 C   0  0  0  0  0  0  0  0  0  0  0  0
    2.3048   -7.9588    0.0000 C   0  0  0  0  0  0  0  0  0  0  0  0
    0.0000   -7.9588    0.0000 C   0  0  0  0  0  0  0  0  0  0  0  0
    1.1567   -8.6321    0.0000 C   0  0  0  0  0  0  0  0  0  0  0  0
    6.9143   -3.9880    0.0000 C   0  0  0  0  0  0  0  0  0  0  0  0
    8.0710   -4.6441    0.0000 O   0  0  0  0  0  0  0  0  0  0  0  0
    6.9143   -2.6587    0.0000 C   0  0  0  0  0  0  0  0  0  0  0  0
    5.7662   -1.9854    0.0000 C   0  0  0  0  0  0  0  0  0  0  0  0
    8.0710   -1.9854    0.0000 C   0  0  0  0  0  0  0  0  0  0  0  0
    5.7662   -0.6560    0.0000 C   0  0  0  0  0  0  0  0  0  0  0  0
    8.0710   -0.6560    0.0000 C   0  0  0  0  0  0  0  0  0  0  0  0
    6.9143    0.0000    0.0000 C   0  0  0  0  0  0  0  0  0  0  0  0
  1  2  1  0  0  0  0
  1  4  1  0  0  0  0
  2  3  1  0  0  0  0
  2  5  1  0  0  0  0
  4  6  1  0  0  0  0
  5 14  1  0  0  0  0
  6  7  2  0  0  0  0
  6  8  1  0  0  0  0
  8  9  2  0  0  0  0
  8 10  1  0  0  0  0
  9 11  1  0  0  0  0
 10 12  2  0  0  0  0
 11 13  2  0  0  0  0
 12 13  1  0  0  0  0
 14 15  2  0  0  0  0
 14 16  1  0  0  0  0
 16 17  2  0  0  0  0
 16 18  1  0  0  0  0
 17 19  1  0  0  0  0
 18 20  2  0  0  0  0
 19 21  2  0  0  0  0
 20 21  1  0  0  0  0
M  END
> <ID>
5409

> <Formula>
C17H16O4

> <FW>
284.3065

> <DSSTox_CID>
7802

> <DSSTox_RID>
78572

> <DSSTox_GSID>
27802

> <DSSTox_FileID_Sort>
3255

> <TS_ChemName>
1,2-Propanediol, dibenzoate

> <TS_ChemName_Synonyms>
1,2-Propanediyl dibenzoate

> <TS_CASRN>
19224-26-1

> <CASRN_ChemName_Relationship>
primary

> <TS_Description>
single chemical compound

> <ChemNote>


> <STRUCTURE_Shown>
tested chemical

> <STRUCTURE_Formula>
C17H16O4

> <STRUCTURE_MW>
284.3065

> <STRUCTURE_ChemType>
defined organic

> <STRUCTURE_DefinedOrganicForm>
parent

> <STRUCTURE_IUPAC>
propane-1,2-diyl dibenzoate

> <STRUCTURE_SMILES>
CC(OC(=O)c1ccccc1)COC(=O)c2ccccc2

> <STRUCTURE_SMILES_Desalt>
CC(OC(=O)c1ccccc1)COC(=O)c2ccccc2

> <Substance_modify_yyyymmdd>
20080429

$$$$
