19248-13-6
ChemmineR-0915142007XD

 13 13  0  0  0  0  0  0  0  0  1 V2000
    3.4664   -4.6526    0.0000 C   0  0  0  0  0  0  0  0  0  0  0  0
    4.6008   -3.9962    0.0000 C   0  0  0  0  0  0  0  0  0  0  0  0
    2.3090   -3.9962    0.0000 N   0  0  0  0  0  0  0  0  0  0  0  0
    5.7582   -4.6526    0.0000 N   0  0  0  0  0  0  0  0  0  0  0  0
    1.1574   -4.6526    0.0000 C   0  0  0  0  0  0  0  0  0  0  0  0
    0.0000   -3.9962    0.0000 C   0  0  0  0  0  0  0  0  0  0  0  0
    2.3090   -2.6660    0.0000 C   0  0  0  0  0  0  0  0  0  0  0  0
    1.1574   -1.9923    0.0000 C   0  0  0  0  0  0  0  0  0  0  0  0
    3.4664   -1.9923    0.0000 C   0  0  0  0  0  0  0  0  0  0  0  0
    1.1574   -0.6564    0.0000 C   0  0  0  0  0  0  0  0  0  0  0  0
    3.4664   -0.6564    0.0000 C   0  0  0  0  0  0  0  0  0  0  0  0
    2.3090    0.0000    0.0000 C   0  0  0  0  0  0  0  0  0  0  0  0
    0.0000    0.0000    0.0000 C   0  0  0  0  0  0  0  0  0  0  0  0
  1  2  1  0  0  0  0
  1  3  1  0  0  0  0
  2  4  1  0  0  0  0
  3  5  1  0  0  0  0
  3  7  1  0  0  0  0
  5  6  1  0  0  0  0
  7  8  2  0  0  0  0
  7  9  1  0  0  0  0
  8 10  1  0  0  0  0
  9 11  2  0  0  0  0
 10 12  2  0  0  0  0
 10 13  1  0  0  0  0
 11 12  1  0  0  0  0
M  END
> <ID>
5410

> <Formula>
C11H18N2

> <FW>
178.274

> <DSSTox_CID>
7803

> <DSSTox_RID>
78573

> <DSSTox_GSID>
27803

> <DSSTox_FileID_Sort>
3256

> <TS_ChemName>
N-Ethyl-N-(3-methylphenyl)ethane-1,2-diamine

> <TS_ChemName_Synonyms>


> <TS_CASRN>
19248-13-6

> <CASRN_ChemName_Relationship>
primary

> <TS_Description>
single chemical compound

> <ChemNote>


> <STRUCTURE_Shown>
tested chemical

> <STRUCTURE_Formula>
C11H18N2

> <STRUCTURE_MW>
178.274

> <STRUCTURE_ChemType>
defined organic

> <STRUCTURE_DefinedOrganicForm>
parent

> <STRUCTURE_IUPAC>
N-ethyl-N-(3-methylphenyl)ethane-1,2-diamine

> <STRUCTURE_SMILES>
CCN(CCN)c1cc(C)ccc1

> <STRUCTURE_SMILES_Desalt>
CCN(CCN)c1cc(C)ccc1

> <Substance_modify_yyyymmdd>
20080429

$$$$
