192725-17-0
ChemmineR-0915142007XD

 46 49  0  0  1  0  0  0  0  0  1 V2000
    9.1936   -2.0042    0.0000 C   0  0  0  0  0  0  0  0  0  0  0  0
   10.3336   -2.6477    0.0000 C   0  0  0  0  0  0  0  0  0  0  0  0
   11.4920   -2.0042    0.0000 C   0  0  0  0  0  0  0  0  0  0  0  0
   11.4920   -0.6803    0.0000 C   0  0  0  0  0  0  0  0  0  0  0  0
   10.3336    0.0000    0.0000 C   0  0  0  0  0  0  0  0  0  0  0  0
    9.1936   -0.6803    0.0000 C   0  0  0  0  0  0  0  0  0  0  0  0
    1.1400   -6.6378    0.0000 C   0  0  0  0  0  0  0  0  0  0  0  0
    0.0000   -5.9942    0.0000 C   0  0  0  0  0  0  0  0  0  0  0  0
    0.0000   -4.6703    0.0000 C   0  0  0  0  0  0  0  0  0  0  0  0
    1.1400   -3.9716    0.0000 C   0  0  0  0  0  0  0  0  0  0  0  0
    2.2984   -4.6703    0.0000 C   0  0  0  0  0  0  0  0  0  0  0  0
    2.2984   -5.9942    0.0000 C   0  0  0  0  0  0  0  0  0  0  0  0
    3.4384   -6.6378    0.0000 C   0  0  0  0  0  0  0  0  0  0  0  0
    3.4384   -3.9716    0.0000 O   0  0  0  0  0  0  0  0  0  0  0  0
    1.1400   -2.6477    0.0000 C   0  0  0  0  0  0  0  0  0  0  0  0
    4.5968   -4.6703    0.0000 C   0  0  0  0  0  0  0  0  0  0  0  0
    5.7368   -3.9716    0.0000 C   0  0  0  0  0  0  0  0  0  0  0  0
    5.7368   -2.6477    0.0000 O   0  0  0  0  0  0  0  0  0  0  0  0
    6.8952   -4.6703    0.0000 N   0  0  0  0  0  0  0  0  0  0  0  0
    8.0352   -3.9716    0.0000 C   0  0  0  0  0  0  0  0  0  0  0  0
    9.1936   -4.6703    0.0000 C   0  0  0  0  0  0  0  0  0  0  0  0
   10.3336   -3.9716    0.0000 C   0  0  0  0  0  0  0  0  0  0  0  0
   11.4920   -4.6703    0.0000 C   0  0  0  0  0  0  0  0  0  0  0  0
   12.6320   -3.9716    0.0000 N   0  0  0  0  0  0  0  0  0  0  0  0
   13.7903   -4.6703    0.0000 C   0  0  0  0  0  0  0  0  0  0  0  0
   14.9487   -3.9716    0.0000 C   0  0  0  0  0  0  0  0  0  0  0  0
   16.0887   -4.6703    0.0000 N   0  0  0  0  0  0  0  0  0  0  0  0
    8.0352   -2.6477    0.0000 C   0  0  0  0  0  0  0  0  0  0  0  0
    9.1936   -5.9942    0.0000 O   0  0  0  0  0  0  0  0  0  0  0  0
   11.4920   -6.0126    0.0000 C   0  0  0  0  0  0  0  0  0  0  0  0
   13.7903   -5.9942    0.0000 O   0  0  0  0  0  0  0  0  0  0  0  0
   17.2471   -3.9716    0.0000 C   0  0  0  0  0  0  0  0  0  0  0  0
   18.3871   -4.6703    0.0000 C   0  0  0  0  0  0  0  0  0  0  0  0
   18.3871   -5.9942    0.0000 C   0  0  0  0  0  0  0  0  0  0  0  0
   16.0887   -5.9942    0.0000 C   0  0  0  0  0  0  0  0  0  0  0  0
   14.9487   -6.6378    0.0000 O   0  0  0  0  0  0  0  0  0  0  0  0
   17.2471   -6.6378    0.0000 N   0  0  0  0  0  0  0  0  0  0  0  0
   14.9487   -2.6477    0.0000 C   0  0  0  0  0  0  0  0  0  0  0  0
   16.0887   -2.0042    0.0000 C   0  0  0  0  0  0  0  0  0  0  0  0
   13.7903   -2.0042    0.0000 C   0  0  0  0  0  0  0  0  0  0  0  0
   11.4920   -8.3110    0.0000 C   0  0  0  0  0  0  0  0  0  0  0  0
   10.8300   -9.4510    0.0000 C   0  0  0  0  0  0  0  0  0  0  0  0
    9.5061   -9.4510    0.0000 C   0  0  0  0  0  0  0  0  0  0  0  0
    8.8442   -8.3110    0.0000 C   0  0  0  0  0  0  0  0  0  0  0  0
    9.5061   -7.1526    0.0000 C   0  0  0  0  0  0  0  0  0  0  0  0
   10.8300   -7.1526    0.0000 C   0  0  0  0  0  0  0  0  0  0  0  0
  1  6  1  0  0  0  0
  1  2  2  0  0  0  0
  1 28  1  0  0  0  0
  2  3  1  0  0  0  0
  3  4  2  0  0  0  0
  4  5  1  0  0  0  0
  5  6  2  0  0  0  0
  7 12  1  0  0  0  0
  7  8  2  0  0  0  0
  8  9  1  0  0  0  0
  9 10  2  0  0  0  0
 10 15  1  0  0  0  0
 10 11  1  0  0  0  0
 11 12  2  0  0  0  0
 11 14  1  0  0  0  0
 12 13  1  0  0  0  0
 14 16  1  0  0  0  0
 16 17  1  0  0  0  0
 17 18  2  0  0  0  0
 17 19  1  0  0  0  0
 19 20  1  0  0  0  0
 20 28  1  1  0  0  0
 20 21  1  0  0  0  0
 21 29  1  6  0  0  0
 21 22  1  0  0  0  0
 22 23  1  0  0  0  0
 23 24  1  0  0  0  0
 23 30  1  1  0  0  0
 24 25  1  0  0  0  0
 25 26  1  0  0  0  0
 25 31  2  0  0  0  0
 26 27  1  0  0  0  0
 26 38  1  6  0  0  0
 27 32  1  0  0  0  0
 27 35  1  0  0  0  0
 30 46  1  0  0  0  0
 32 33  1  0  0  0  0
 33 34  1  0  0  0  0
 34 37  1  0  0  0  0
 35 37  1  0  0  0  0
 35 36  2  0  0  0  0
 38 39  1  0  0  0  0
 38 40  1  0  0  0  0
 41 42  2  0  0  0  0
 41 46  1  0  0  0  0
 42 43  1  0  0  0  0
 43 44  2  0  0  0  0
 44 45  1  0  0  0  0
 45 46  2  0  0  0  0
M  END
> <ID>
11696

> <Formula>
C37H48N4O5

> <FW>
628.8008

> <DSSTox_CID>
26456

> <DSSTox_RID>
81630

> <DSSTox_GSID>
46456

> <DSSTox_FileID_Sort>
6311

> <TS_ChemName>
Lopinavir

> <TS_ChemName_Synonyms>


> <TS_CASRN>
192725-17-0

> <CASRN_ChemName_Relationship>
primary

> <TS_Description>
single chemical compound

> <ChemNote>
stereochem

> <STRUCTURE_Shown>
tested chemical

> <STRUCTURE_Formula>
C37H48N4O5

> <STRUCTURE_MW>
628.8008

> <STRUCTURE_ChemType>
defined organic

> <STRUCTURE_DefinedOrganicForm>
parent

> <STRUCTURE_IUPAC>
(2S)-N-[(2S,4S,5S)-5-{[(2,6-dimethylphenoxy)acetyl]amino}-4-hydroxy-1,6-diphenylhexan-2-yl]-3-methyl-2-(2-oxotetrahydropyrimidin-1(2H)-yl)butanamide

> <STRUCTURE_SMILES>
CC(C)[C@@H](C(=O)N[C@@H](Cc1ccccc1)C[C@H](O)[C@H](Cc2ccccc2)NC(=O)COc3c(C)cccc3C)N4CCCNC4=O

> <STRUCTURE_SMILES_Desalt>
CC(C)[C@@H](C(=O)N[C@@H](Cc1ccccc1)C[C@H](O)[C@H](Cc2ccccc2)NC(=O)COc3c(C)cccc3C)N4CCCNC4=O

> <Substance_modify_yyyymmdd>
20110813

$$$$
