1927-06-6
ChemmineR-0915142007XD

  8  6  0  0  0  0  0  0  0  0  2 V2000
    1.1597   -1.9605    0.0000 N    0  3  0  0  0  0  0  0  0  0  0  0
    4.6020   -1.3024    0.0000 O    0  0  0  0  0  0  0  0  0  0  0  0
    2.3010   -1.3024    0.0000 C    0  0  0  0  0  0  0  0  0  0  0  0
    0.0000   -2.6370    0.0000 C    0  0  0  0  0  0  0  0  0  0  0  0
    0.4970   -0.8008    0.0000 C    0  0  0  0  0  0  0  0  0  0  0  0
    1.8178   -3.1202    0.0000 C    0  0  0  0  0  0  0  0  0  0  0  0
    3.4423   -1.9605    0.0000 C    0  0  0  0  0  0  0  0  0  0  0  0
    1.9651    0.0000    0.0000 Br   0  5  0  0  0  0  0  0  0  0  0  0
  1  3  1  0  0  0  0
  1  4  1  0  0  0  0
  1  5  1  0  0  0  0
  1  6  1  0  0  0  0
  2  7  1  0  0  0  0
  3  7  1  0  0  0  0
M  END
> <ID>
13997

> <Formula>
C5H14BrNO

> <FW>
184.0748 (104.1702+79.9045)

> <DSSTox_CID>
28938

> <DSSTox_RID>
83204

> <DSSTox_GSID>
49012

> <DSSTox_FileID_Sort>
7880

> <TS_ChemName>
Choline bromide

> <TS_ChemName_Synonyms>


> <TS_CASRN>
1927-06-6

> <CASRN_ChemName_Relationship>
primary

> <TS_Description>
single chemical compound

> <ChemNote>


> <STRUCTURE_Shown>
tested chemical

> <STRUCTURE_Formula>
C5H14BrNO

> <STRUCTURE_MW>
184.0748

> <STRUCTURE_ChemType>
defined organic

> <STRUCTURE_DefinedOrganicForm>
salt

> <STRUCTURE_IUPAC>
2-hydroxy-N,N,N-trimethylethanaminium bromide

> <STRUCTURE_SMILES>
[Br-].C[N+](C)(C)CCO

> <STRUCTURE_SMILES_Desalt>
C[N+](C)(C)CCO

> <Substance_modify_yyyymmdd>
20111204

$$$$
