1928-47-8
ChemmineR-0915142007XD

 22 22  0  0  0  0  0  0  0  0  1 V2000
   10.3564   -3.9809    0.0000 Cl   0  0  0  0  0  0  0  0  0  0  0  0
   11.5237   -3.3224    0.0000 C    0  0  0  0  0  0  0  0  0  0  0  0
   11.5237   -1.9905    0.0000 C    0  0  0  0  0  0  0  0  0  0  0  0
   12.6611   -1.3170    0.0000 C    0  0  0  0  0  0  0  0  0  0  0  0
   13.8135   -1.9905    0.0000 C    0  0  0  0  0  0  0  0  0  0  0  0
   13.8135   -3.3224    0.0000 C    0  0  0  0  0  0  0  0  0  0  0  0
   12.6611   -3.9809    0.0000 C    0  0  0  0  0  0  0  0  0  0  0  0
   14.9658   -3.9809    0.0000 Cl   0  0  0  0  0  0  0  0  0  0  0  0
   14.9658   -1.3170    0.0000 Cl   0  0  0  0  0  0  0  0  0  0  0  0
   10.3564   -1.3170    0.0000 O    0  0  0  0  0  0  0  0  0  0  0  0
    9.2190   -1.9905    0.0000 C    0  0  0  0  0  0  0  0  0  0  0  0
    8.0666   -1.3170    0.0000 C    0  0  0  0  0  0  0  0  0  0  0  0
    8.0666    0.0000    0.0000 O    0  0  0  0  0  0  0  0  0  0  0  0
    6.9142   -1.9905    0.0000 O    0  0  0  0  0  0  0  0  0  0  0  0
    5.7618   -1.3320    0.0000 C    0  0  0  0  0  0  0  0  0  0  0  0
    4.6095   -1.9905    0.0000 C    0  0  0  0  0  0  0  0  0  0  0  0
    3.4421   -1.3320    0.0000 C    0  0  0  0  0  0  0  0  0  0  0  0
    2.2898   -2.0054    0.0000 C    0  0  0  0  0  0  0  0  0  0  0  0
    1.1524   -1.3320    0.0000 C    0  0  0  0  0  0  0  0  0  0  0  0
    4.6095   -3.3224    0.0000 C    0  0  0  0  0  0  0  0  0  0  0  0
    3.4721   -3.9959    0.0000 C    0  0  0  0  0  0  0  0  0  0  0  0
    0.0000   -2.0054    0.0000 C    0  0  0  0  0  0  0  0  0  0  0  0
  1  2  1  0  0  0  0
  2  3  2  0  0  0  0
  2  7  1  0  0  0  0
  3  4  1  0  0  0  0
  3 10  1  0  0  0  0
  4  5  2  0  0  0  0
  5  6  1  0  0  0  0
  5  9  1  0  0  0  0
  6  7  2  0  0  0  0
  6  8  1  0  0  0  0
 10 11  1  0  0  0  0
 11 12  1  0  0  0  0
 12 13  2  0  0  0  0
 12 14  1  0  0  0  0
 14 15  1  0  0  0  0
 15 16  1  0  0  0  0
 16 17  1  0  0  0  0
 16 20  1  0  0  0  0
 17 18  1  0  0  0  0
 18 19  1  0  0  0  0
 19 22  1  0  0  0  0
 20 21  1  0  0  0  0
M  END
> <ID>
8295

> <Formula>
C16H21Cl3O3

> <FW>
367.6951

> <DSSTox_CID>
21329

> <DSSTox_RID>
79690

> <DSSTox_GSID>
41329

> <DSSTox_FileID_Sort>
4372

> <TS_ChemName>
2,4,5-T-2-ethylhexyl

> <TS_ChemName_Synonyms>
2,4,5-Trichlorophenoxyacetic acid 2-ethylhexyl ester

> <TS_CASRN>
1928-47-8

> <CASRN_ChemName_Relationship>
primary

> <TS_Description>
single chemical compound

> <ChemNote>


> <STRUCTURE_Shown>
tested chemical

> <STRUCTURE_Formula>
C16H21Cl3O3

> <STRUCTURE_MW>
367.6951

> <STRUCTURE_ChemType>
defined organic

> <STRUCTURE_DefinedOrganicForm>
parent

> <STRUCTURE_IUPAC>
2-ethylhexyl (2,4,5-trichlorophenoxy)acetate

> <STRUCTURE_SMILES>
Clc1cc(OCC(=O)OCC(CC)CCCC)c(Cl)cc1Cl

> <STRUCTURE_SMILES_Desalt>
Clc1cc(OCC(=O)OCC(CC)CCCC)c(Cl)cc1Cl

> <Substance_modify_yyyymmdd>
20080825

$$$$
