1928-38-7
ChemmineR-0915142007XD

 14 14  0  0  0  0  0  0  0  0  1 V2000
    6.9123   -1.3566    0.0000 C    0  0  0  0  0  0  0  0  0  0  0  0
    6.9123    0.0000    0.0000 O    0  0  0  0  0  0  0  0  0  0  0  0
    8.0751   -2.0119    0.0000 O    0  0  0  0  0  0  0  0  0  0  0  0
    5.7679   -2.0119    0.0000 C    0  0  0  0  0  0  0  0  0  0  0  0
    4.5959   -1.3566    0.0000 O    0  0  0  0  0  0  0  0  0  0  0  0
    3.4700   -2.0119    0.0000 C    0  0  0  0  0  0  0  0  0  0  0  0
    3.4700   -3.3316    0.0000 C    0  0  0  0  0  0  0  0  0  0  0  0
    2.2979   -1.3566    0.0000 C    0  0  0  0  0  0  0  0  0  0  0  0
    2.2979   -4.0053    0.0000 C    0  0  0  0  0  0  0  0  0  0  0  0
    1.1536   -2.0119    0.0000 C    0  0  0  0  0  0  0  0  0  0  0  0
    1.1536   -3.3316    0.0000 C    0  0  0  0  0  0  0  0  0  0  0  0
    4.5959   -4.0053    0.0000 Cl   0  0  0  0  0  0  0  0  0  0  0  0
    0.0000   -4.0053    0.0000 Cl   0  0  0  0  0  0  0  0  0  0  0  0
    9.2287   -1.3382    0.0000 C    0  0  0  0  0  0  0  0  0  0  0  0
  1  2  2  0  0  0  0
  1  3  1  0  0  0  0
  1  4  1  0  0  0  0
  3 14  1  0  0  0  0
  4  5  1  0  0  0  0
  5  6  1  0  0  0  0
  6  7  2  0  0  0  0
  6  8  1  0  0  0  0
  7  9  1  0  0  0  0
  7 12  1  0  0  0  0
  8 10  2  0  0  0  0
  9 11  2  0  0  0  0
 10 11  1  0  0  0  0
 11 13  1  0  0  0  0
M  END
> <ID>
8315

> <Formula>
C9H8Cl2O3

> <FW>
235.064

> <DSSTox_CID>
21349

> <DSSTox_RID>
79694

> <DSSTox_GSID>
41349

> <DSSTox_FileID_Sort>
4376

> <TS_ChemName>
2,4-D-methyl

> <TS_ChemName_Synonyms>


> <TS_CASRN>
1928-38-7

> <CASRN_ChemName_Relationship>
primary

> <TS_Description>
single chemical compound

> <ChemNote>


> <STRUCTURE_Shown>
tested chemical

> <STRUCTURE_Formula>
C9H8Cl2O3

> <STRUCTURE_MW>
235.064

> <STRUCTURE_ChemType>
defined organic

> <STRUCTURE_DefinedOrganicForm>
parent

> <STRUCTURE_IUPAC>
methyl (2,4-dichlorophenoxy)acetate

> <STRUCTURE_SMILES>
Clc1cc(Cl)ccc1OCC(=O)OC

> <STRUCTURE_SMILES_Desalt>
Clc1cc(Cl)ccc1OCC(=O)OC

> <Substance_modify_yyyymmdd>
20080825

$$$$
