192939-46-1
ChemmineR-0915142007XD

 36 38  0  0  1  0  0  0  0  0  1 V2000
   14.3380   -0.9395    0.0000 C   0  0  0  0  0  0  0  0  0  0  0  0
   14.6852   -2.2263    0.0000 C   0  0  0  0  0  0  0  0  0  0  0  0
   15.9720   -2.5735    0.0000 C   0  0  0  0  0  0  0  0  0  0  0  0
   16.9115   -1.6340    0.0000 C   0  0  0  0  0  0  0  0  0  0  0  0
   16.5643   -0.3472    0.0000 C   0  0  0  0  0  0  0  0  0  0  0  0
   15.2980    0.0000    0.0000 C   0  0  0  0  0  0  0  0  0  0  0  0
   13.7253   -3.1658    0.0000 C   0  0  0  0  0  0  0  0  0  0  0  0
   12.8062   -2.2263    0.0000 H   0  0  0  0  0  0  0  0  0  0  0  0
   12.8062   -4.1053    0.0000 C   0  0  0  0  0  0  0  0  0  0  0  0
   11.5194   -3.7377    0.0000 N   0  0  0  0  0  0  0  0  0  0  0  0
   10.3552   -4.4117    0.0000 C   0  0  0  0  0  0  0  0  0  0  0  0
   11.0292   -5.5555    0.0000 H   0  0  0  0  0  0  0  0  0  0  0  0
    9.2115   -5.0857    0.0000 C   0  0  0  0  0  0  0  0  0  0  0  0
    8.0473   -4.4117    0.0000 N   0  0  0  0  0  0  0  0  0  0  0  0
    6.9035   -5.0653    0.0000 C   0  0  0  0  0  0  0  0  0  0  0  0
    5.7597   -4.4117    0.0000 C   0  0  0  0  0  0  0  0  0  0  0  0
    5.7597   -3.0637    0.0000 C   0  0  0  0  0  0  0  0  0  0  0  0
    4.5955   -2.3897    0.0000 C   0  0  0  0  0  0  0  0  0  0  0  0
    3.4517   -3.0637    0.0000 C   0  0  0  0  0  0  0  0  0  0  0  0
    2.2875   -2.3897    0.0000 C   0  0  0  0  0  0  0  0  0  0  0  0
    1.1438   -3.0637    0.0000 N   0  0  0  0  0  0  0  0  0  0  0  0
    0.0000   -2.3897    0.0000 O   0  0  0  0  0  0  0  0  0  0  0  0
    2.3080   -1.0621    0.0000 N   0  0  0  0  0  0  0  0  0  0  0  0
    3.4517   -4.3913    0.0000 C   0  0  0  0  0  0  0  0  0  0  0  0
    4.5955   -5.0449    0.0000 C   0  0  0  0  0  0  0  0  0  0  0  0
    9.1910   -6.3929    0.0000 O   0  0  0  0  0  0  0  0  0  0  0  0
    9.7016   -3.2475    0.0000 C   0  0  0  0  0  0  0  0  0  0  0  0
   10.8454   -2.5939    0.0000 C   0  0  0  0  0  0  0  0  0  0  0  0
   13.1330   -5.3921    0.0000 O   0  0  0  0  0  0  0  0  0  0  0  0
   14.6852   -4.1053    0.0000 N   0  0  0  0  0  0  0  0  0  0  0  0
   15.9720   -3.7581    0.0000 C   0  0  0  0  0  0  0  0  0  0  0  0
   16.8911   -4.7181    0.0000 C   0  0  0  0  0  0  0  0  0  0  0  0
   18.1983   -4.3708    0.0000 O   0  0  0  0  0  0  0  0  0  0  0  0
   19.1174   -5.3104    0.0000 C   0  0  0  0  0  0  0  0  0  0  0  0
   20.4245   -4.9632    0.0000 C   0  0  0  0  0  0  0  0  0  0  0  0
   16.5643   -5.9844    0.0000 O   0  0  0  0  0  0  0  0  0  0  0  0
  1  2  1  0  0  0  0
  1  6  1  0  0  0  0
  2  3  1  0  0  0  0
  7  2  1  1  0  0  0
  3  4  1  0  0  0  0
  4  5  1  0  0  0  0
  5  6  1  0  0  0  0
  7  8  1  6  0  0  0
  7  9  1  0  0  0  0
  7 30  1  0  0  0  0
  9 10  1  0  0  0  0
  9 29  2  0  0  0  0
 10 11  1  0  0  0  0
 10 28  1  0  0  0  0
 11 12  1  1  0  0  0
 11 13  1  6  0  0  0
 11 27  1  0  0  0  0
 13 14  1  0  0  0  0
 13 26  2  0  0  0  0
 14 15  1  0  0  0  0
 15 16  1  0  0  0  0
 16 17  2  0  0  0  0
 16 25  1  0  0  0  0
 17 18  1  0  0  0  0
 18 19  2  0  0  0  0
 19 20  1  0  0  0  0
 19 24  1  0  0  0  0
 20 21  2  0  0  0  0
 20 23  1  0  0  0  0
 21 22  1  0  0  0  0
 24 25  2  0  0  0  0
 27 28  1  0  0  0  0
 30 31  1  0  0  0  0
 31 32  1  0  0  0  0
 32 33  1  0  0  0  0
 32 36  2  0  0  0  0
 33 34  1  0  0  0  0
 34 35  1  0  0  0  0
M  END
> <ID>
14059

> <Formula>
C24H35N5O5

> <FW>
473.5652

> <DSSTox_CID>
29001

> <DSSTox_RID>
83266

> <DSSTox_GSID>
49075

> <DSSTox_FileID_Sort>
7941

> <TS_ChemName>
Ximelagatran

> <TS_ChemName_Synonyms>


> <TS_CASRN>
192939-46-1

> <CASRN_ChemName_Relationship>
primary

> <TS_Description>
single chemical compound

> <ChemNote>


> <STRUCTURE_Shown>
tested chemical

> <STRUCTURE_Formula>
C24H35N5O5

> <STRUCTURE_MW>
473.5652

> <STRUCTURE_ChemType>
defined organic

> <STRUCTURE_DefinedOrganicForm>
parent

> <STRUCTURE_IUPAC>
ethyl N-{(1R)-1-cyclohexyl-2-[(2S)-2-{[4-(N'-hydroxycarbamimidoyl)benzyl]carbamoyl}azetidin-1-yl]-2-oxoethyl}glycinate

> <STRUCTURE_SMILES>
O=C(NCc1ccc(cc1)C(\N)=N\O)[C@@H]3CCN3C(=O)[C@H](NCC(=O)OCC)C2CCCCC2

> <STRUCTURE_SMILES_Desalt>
O=C(NCc1ccc(cc1)C(\N)=N\O)[C@@H]3CCN3C(=O)[C@H](NCC(=O)OCC)C2CCCCC2

> <Substance_modify_yyyymmdd>
20111204

$$$$
