1929-73-3
ChemmineR-0915142007XD

 20 20  0  0  0  0  0  0  0  0  1 V2000
    6.9082   -1.3397    0.0000 C    0  0  0  0  0  0  0  0  0  0  0  0
    6.9082    0.0000    0.0000 O    0  0  0  0  0  0  0  0  0  0  0  0
    8.0703   -2.0014    0.0000 O    0  0  0  0  0  0  0  0  0  0  0  0
    5.7622   -2.0014    0.0000 C    0  0  0  0  0  0  0  0  0  0  0  0
    4.6001   -1.3397    0.0000 O    0  0  0  0  0  0  0  0  0  0  0  0
    3.4702   -2.0014    0.0000 C    0  0  0  0  0  0  0  0  0  0  0  0
    3.4702   -3.3250    0.0000 C    0  0  0  0  0  0  0  0  0  0  0  0
    2.3081   -1.3397    0.0000 C    0  0  0  0  0  0  0  0  0  0  0  0
    2.3081   -4.0029    0.0000 C    0  0  0  0  0  0  0  0  0  0  0  0
    1.1621   -2.0014    0.0000 C    0  0  0  0  0  0  0  0  0  0  0  0
    1.1621   -3.3250    0.0000 C    0  0  0  0  0  0  0  0  0  0  0  0
    4.6001   -4.0029    0.0000 Cl   0  0  0  0  0  0  0  0  0  0  0  0
    0.0000   -4.0029    0.0000 Cl   0  0  0  0  0  0  0  0  0  0  0  0
    9.2324   -1.3397    0.0000 C    0  0  0  0  0  0  0  0  0  0  0  0
   10.3784   -2.0014    0.0000 C    0  0  0  0  0  0  0  0  0  0  0  0
   11.5405   -1.3397    0.0000 O    0  0  0  0  0  0  0  0  0  0  0  0
   12.6865   -2.0014    0.0000 C    0  0  0  0  0  0  0  0  0  0  0  0
   13.8486   -1.3397    0.0000 C    0  0  0  0  0  0  0  0  0  0  0  0
   14.9785   -2.0014    0.0000 C    0  0  0  0  0  0  0  0  0  0  0  0
   16.1406   -1.3397    0.0000 C    0  0  0  0  0  0  0  0  0  0  0  0
  1  2  2  0  0  0  0
  1  3  1  0  0  0  0
  1  4  1  0  0  0  0
  3 14  1  0  0  0  0
  4  5  1  0  0  0  0
  5  6  1  0  0  0  0
  6  7  2  0  0  0  0
  6  8  1  0  0  0  0
  7  9  1  0  0  0  0
  7 12  1  0  0  0  0
  8 10  2  0  0  0  0
  9 11  2  0  0  0  0
 10 11  1  0  0  0  0
 11 13  1  0  0  0  0
 14 15  1  0  0  0  0
 15 16  1  0  0  0  0
 16 17  1  0  0  0  0
 17 18  1  0  0  0  0
 18 19  1  0  0  0  0
 19 20  1  0  0  0  0
M  END
> <ID>
6411

> <Formula>
C14H18Cl2O4

> <FW>
321.1963

> <DSSTox_CID>
12309

> <DSSTox_RID>
78911

> <DSSTox_GSID>
32309

> <DSSTox_FileID_Sort>
3593

> <TS_ChemName>
2,4-D-Butotyl

> <TS_ChemName_Synonyms>
2,4-D butoxyethanol ester;  2,4-D butoxyethyl ester

> <TS_CASRN>
1929-73-3

> <CASRN_ChemName_Relationship>
primary

> <TS_Description>
single chemical compound

> <ChemNote>
derivative of 2,4-D [94-75-7]

> <STRUCTURE_Shown>
tested chemical

> <STRUCTURE_Formula>
C14H18Cl2O4

> <STRUCTURE_MW>
321.1963

> <STRUCTURE_ChemType>
defined organic

> <STRUCTURE_DefinedOrganicForm>
parent

> <STRUCTURE_IUPAC>
2-butoxyethyl (2,4-dichlorophenoxy)acetate

> <STRUCTURE_SMILES>
Clc1cc(Cl)ccc1OCC(=O)OCCOCCCC

> <STRUCTURE_SMILES_Desalt>
Clc1cc(Cl)ccc1OCC(=O)OCCOCCCC

> <Substance_modify_yyyymmdd>
20080429

$$$$
