1929-77-7
ChemmineR-0915142007XD

 13 12  0  0  0  0  0  0  0  0  1 V2000
    2.3038   -1.3283    0.0000 C   0  0  0  0  0  0  0  0  0  0  0  0
    3.4453   -1.9856    0.0000 N   0  0  0  0  0  0  0  0  0  0  0  0
    2.3038    0.0000    0.0000 O   0  0  0  0  0  0  0  0  0  0  0  0
    1.1415   -1.9994    0.0000 S   0  0  0  0  0  0  0  0  0  0  0  0
    4.6007   -1.3145    0.0000 C   0  0  0  0  0  0  0  0  0  0  0  0
    3.4453   -3.3208    0.0000 C   0  0  0  0  0  0  0  0  0  0  0  0
    1.1415   -3.3277    0.0000 C   0  0  0  0  0  0  0  0  0  0  0  0
    5.7630   -1.9856    0.0000 C   0  0  0  0  0  0  0  0  0  0  0  0
    2.3038   -3.9780    0.0000 C   0  0  0  0  0  0  0  0  0  0  0  0
    0.0000   -3.9919    0.0000 C   0  0  0  0  0  0  0  0  0  0  0  0
    0.0000   -5.3202    0.0000 C   0  0  0  0  0  0  0  0  0  0  0  0
    6.9183   -1.3145    0.0000 C   0  0  0  0  0  0  0  0  0  0  0  0
    2.3038   -5.3063    0.0000 C   0  0  0  0  0  0  0  0  0  0  0  0
  1  2  1  0  0  0  0
  1  3  2  0  0  0  0
  1  4  1  0  0  0  0
  2  5  1  0  0  0  0
  2  6  1  0  0  0  0
  4  7  1  0  0  0  0
  5  8  1  0  0  0  0
  6  9  1  0  0  0  0
  7 10  1  0  0  0  0
  8 12  1  0  0  0  0
  9 13  1  0  0  0  0
 10 11  1  0  0  0  0
M  END
> <ID>
3649

> <Formula>
C10H21NOS

> <FW>
203.3448

> <DSSTox_CID>
4376

> <DSSTox_RID>
77384

> <DSSTox_GSID>
24376

> <DSSTox_FileID_Sort>
2067

> <TS_ChemName>
Vernolate

> <TS_ChemName_Synonyms>
Vernolate (Vernam)

> <TS_CASRN>
1929-77-7

> <CASRN_ChemName_Relationship>
primary

> <TS_Description>
single chemical compound

> <ChemNote>


> <STRUCTURE_Shown>
tested chemical

> <STRUCTURE_Formula>
C10H21NOS

> <STRUCTURE_MW>
203.3448

> <STRUCTURE_ChemType>
defined organic

> <STRUCTURE_DefinedOrganicForm>
parent

> <STRUCTURE_IUPAC>
S-propyl dipropylcarbamothioate

> <STRUCTURE_SMILES>
O=C(SCCC)N(CCC)CCC

> <STRUCTURE_SMILES_Desalt>
O=C(SCCC)N(CCC)CCC

> <Substance_modify_yyyymmdd>
20080429

$$$$
