192927-63-2
ChemmineR-0915142007XD

 33 35  0  0  1  0  0  0  0  0  1 V2000
    5.2525   -4.7529    0.0000 C    0  0  0  0  0  0  0  0  0  0  0  0
    5.2525   -3.4245    0.0000 C    0  0  0  0  0  0  0  0  0  0  0  0
    6.3859   -2.7299    0.0000 C    0  0  0  0  0  0  0  0  0  0  0  0
    6.3859   -5.3988    0.0000 C    0  0  0  0  0  0  0  0  0  0  0  0
    7.5802   -4.7529    0.0000 C    0  0  0  0  0  0  0  0  0  0  0  0
    7.5802   -3.4245    0.0000 C    0  0  0  0  0  0  0  0  0  0  0  0
    8.7258   -2.7299    0.0000 N    0  0  0  0  0  0  0  0  0  0  0  0
    9.8714   -3.4245    0.0000 C    0  0  0  0  0  0  0  0  0  0  0  0
    9.8714   -4.7529    0.0000 C    0  0  0  0  0  0  0  0  0  0  0  0
    8.7258   -5.3988    0.0000 C    0  0  0  0  0  0  0  0  0  0  0  0
    8.7258   -6.7393    0.0000 O    0  0  0  0  0  0  0  0  0  0  0  0
   11.0413   -5.3988    0.0000 C    0  0  0  0  0  0  0  0  0  0  0  0
   11.0413   -6.7393    0.0000 O    0  0  0  0  0  0  0  0  0  0  0  0
   12.1869   -4.7529    0.0000 O    0  0  0  0  0  0  0  0  0  0  0  0
    8.7258   -1.3893    0.0000 C    0  0  0  0  0  0  0  0  0  0  0  0
    8.0799   -0.2437    0.0000 C    0  0  0  0  0  0  0  0  0  0  0  0
    9.3717   -0.2437    0.0000 C    0  0  0  0  0  0  0  0  0  0  0  0
    6.3859   -1.3893    0.0000 O    0  0  0  0  0  0  0  0  0  0  0  0
    5.2525   -0.7434    0.0000 C    0  0  0  0  0  0  0  0  0  0  0  0
    4.0582   -5.3988    0.0000 F    0  0  0  0  0  0  0  0  0  0  0  0
    4.0582   -2.7299    0.0000 N    0  0  0  0  0  0  0  0  0  0  0  0
    2.8639   -3.2783    0.0000 C    0  0  0  0  0  0  0  0  0  0  0  0
    3.9607   -1.4381    0.0000 C    0  0  0  0  0  0  0  0  0  0  0  0
    2.6811   -1.1456    0.0000 C    0  0  0  0  0  0  0  0  0  0  0  0
    1.9865   -2.2789    0.0000 C    0  0  0  0  0  0  0  0  0  0  0  0
    0.6459   -2.2789    0.0000 N    0  0  0  0  0  0  0  0  0  0  0  0
    0.0000   -1.1456    0.0000 C    0  0  0  0  0  0  0  0  0  0  0  0
    0.6459    0.0000    0.0000 C    0  0  0  0  0  0  0  0  0  0  0  0
    1.9865    0.0000    0.0000 C    0  0  0  0  0  0  0  0  0  0  0  0
    1.2918   -3.4611    0.0000 H    0  0  0  0  0  0  0  0  0  0  0  0
    3.3148    0.0000    0.0000 H    0  0  0  0  0  0  0  0  0  0  0  0
    1.6940   -6.2031    0.0000 Cl   0  0  0  0  0  0  0  0  0  0  0  0
    4.3507   -6.4712    0.0000 O    0  0  0  0  0  0  0  0  0  0  0  0
  1 20  1  0  0  0  0
  1  4  1  0  0  0  0
  1  2  2  0  0  0  0
  2 21  1  0  0  0  0
  2  3  1  0  0  0  0
  3  6  2  0  0  0  0
  3 18  1  0  0  0  0
  4  5  2  0  0  0  0
  5 10  1  0  0  0  0
  5  6  1  0  0  0  0
  6  7  1  0  0  0  0
  7 15  1  0  0  0  0
  7  8  1  0  0  0  0
  8  9  2  0  0  0  0
  9 10  1  0  0  0  0
  9 12  1  0  0  0  0
 10 11  2  0  0  0  0
 12 13  1  0  0  0  0
 12 14  2  0  0  0  0
 15 16  1  0  0  0  0
 15 17  1  0  0  0  0
 16 17  1  0  0  0  0
 18 19  1  0  0  0  0
 21 22  1  0  0  0  0
 21 23  1  0  0  0  0
 22 25  1  0  0  0  0
 23 24  1  0  0  0  0
 24 25  1  0  0  0  0
 24 29  1  0  0  0  0
 24 31  1  6  0  0  0
 25 26  1  0  0  0  0
 25 30  1  6  0  0  0
 26 27  1  0  0  0  0
 27 28  1  0  0  0  0
 28 29  1  0  0  0  0
M  END
> <ID>
14047

> <Formula>
C21H27ClFN3O5

> <FW>
455.9076 (401.4314+36.4609+18.0153)

> <DSSTox_CID>
28989

> <DSSTox_RID>
83254

> <DSSTox_GSID>
49063

> <DSSTox_FileID_Sort>
7929

> <TS_ChemName>
Moxifloxacin hydrochloride monohydrate

> <TS_ChemName_Synonyms>


> <TS_CASRN>
192927-63-2

> <CASRN_ChemName_Relationship>
primary

> <TS_Description>
single chemical compound

> <ChemNote>


> <STRUCTURE_Shown>
tested chemical

> <STRUCTURE_Formula>
C21H27ClFN3O5

> <STRUCTURE_MW>
455.9076

> <STRUCTURE_ChemType>
defined organic

> <STRUCTURE_DefinedOrganicForm>
complex

> <STRUCTURE_IUPAC>
1-cyclopropyl-6-fluoro-8-methoxy-7-[(4aS,7aS)-octahydro-6H-pyrrolo[3,4-b]pyridin-6-yl]-4-oxo-1,4-dihydroquinoline-3-carboxylic acid hydrochloride hydrate

> <STRUCTURE_SMILES>
Cl.O.O=C(O)C2=CN(c1c(OC)c(c(F)cc1C2=O)N3C[C@@H]4CCCN[C@@H]4C3)C5CC5

> <STRUCTURE_SMILES_Desalt>
O=C(O)C2=CN(c1c(OC)c(c(F)cc1C2=O)N3C[C@@H]4CCCN[C@@H]4C3)C5CC5

> <Substance_modify_yyyymmdd>
20111204

$$$$
