19322-27-1
ChemmineR-0915142007XD

  8  8  0  0  0  0  0  0  0  0  1 V2000
    3.4054   -0.7838    0.0000 O   0  0  0  0  0  0  0  0  0  0  0  0
    3.0211   -2.0622    0.0000 C   0  0  0  0  0  0  0  0  0  0  0  0
    2.3324    0.0000    0.0000 C   0  0  0  0  0  0  0  0  0  0  0  0
    1.6780   -2.0622    0.0000 C   0  0  0  0  0  0  0  0  0  0  0  0
    1.2632   -0.8028    0.0000 C   0  0  0  0  0  0  0  0  0  0  0  0
    0.0000   -0.4033    0.0000 O   0  0  0  0  0  0  0  0  0  0  0  0
    0.8941   -3.1200    0.0000 O   0  0  0  0  0  0  0  0  0  0  0  0
    3.8049   -3.1352    0.0000 C   0  0  0  0  0  0  0  0  0  0  0  0
  1  2  1  0  0  0  0
  1  3  1  0  0  0  0
  2  4  2  0  0  0  0
  2  8  1  0  0  0  0
  3  5  1  0  0  0  0
  4  5  1  0  0  0  0
  4  7  1  0  0  0  0
  5  6  2  0  0  0  0
M  END
> <ID>
12559

> <Formula>
C5H6O3

> <FW>
114.0993

> <DSSTox_CID>
27417

> <DSSTox_RID>
82331

> <DSSTox_GSID>
47417

> <DSSTox_FileID_Sort>
7012

> <TS_ChemName>
4-Hydroxy-5-methyl-3-furanone

> <TS_ChemName_Synonyms>


> <TS_CASRN>
19322-27-1

> <CASRN_ChemName_Relationship>
primary

> <TS_Description>
single chemical compound

> <ChemNote>
tautomers

> <STRUCTURE_Shown>
tested chemical

> <STRUCTURE_Formula>
C5H6O3

> <STRUCTURE_MW>
114.0993

> <STRUCTURE_ChemType>
defined organic

> <STRUCTURE_DefinedOrganicForm>
parent

> <STRUCTURE_IUPAC>
4-hydroxy-5-methylfuran-3(2H)-one

> <STRUCTURE_SMILES>
CC=1OCC(=O)C=1O

> <STRUCTURE_SMILES_Desalt>
CC=1OCC(=O)C=1O

> <Substance_modify_yyyymmdd>
20100618

$$$$
