1934-75-4
ChemmineR-0915142007XD

  6  4  0  0  0  0  0  0  0  0  2 V2000
    2.3049   -1.3276    0.0000 N    0  5  0  0  0  0  0  0  0  0  0  0
    3.4574   -0.6546    0.0000 C    0  0  0  0  0  0  0  0  0  0  0  0
    1.1525   -0.6546    0.0000 C    0  0  0  0  0  0  0  0  0  0  0  0
    4.6099    0.0000    0.0000 N    0  0  0  0  0  0  0  0  0  0  0  0
    0.0000    0.0000    0.0000 N    0  0  0  0  0  0  0  0  0  0  0  0
    2.3372   -2.3695    0.0000 Na   0  3  0  0  0  0  0  0  0  0  0  0
  1  2  1  0  0  0  0
  1  3  1  0  0  0  0
  2  4  3  0  0  0  0
  3  5  3  0  0  0  0
M  END
> <ID>
14268

> <Formula>
C2N3Na

> <FW>
89.0313 (66.0420+22.9892)

> <DSSTox_CID>
29364

> <DSSTox_RID>
83479

> <DSSTox_GSID>
49404

> <DSSTox_FileID_Sort>
8154

> <TS_ChemName>
Cyanamide,cyano-,sodium salt

> <TS_ChemName_Synonyms>


> <TS_CASRN>
1934-75-4

> <CASRN_ChemName_Relationship>
primary

> <TS_Description>
single chemical compound

> <ChemNote>


> <STRUCTURE_Shown>
tested chemical

> <STRUCTURE_Formula>
C2N3Na

> <STRUCTURE_MW>
89.0313

> <STRUCTURE_ChemType>
defined organic

> <STRUCTURE_DefinedOrganicForm>
salt

> <STRUCTURE_IUPAC>
sodium dicyanoazanide

> <STRUCTURE_SMILES>
[Na+].N#C[N-]C#N

> <STRUCTURE_SMILES_Desalt>
N#CNC#N

> <Substance_modify_yyyymmdd>
20111204

$$$$
