19355-69-2
ChemmineR-0915142007XD

  6  5  0  0  0  0  0  0  0  0  1 V2000
    1.3284   -1.3324    0.0000 C   0  0  0  0  0  0  0  0  0  0  0  0
    2.6608   -1.3324    0.0000 C   0  0  0  0  0  0  0  0  0  0  0  0
    3.9892   -1.3324    0.0000 C   0  0  0  0  0  0  0  0  0  0  0  0
    0.0000   -1.3324    0.0000 N   0  0  0  0  0  0  0  0  0  0  0  0
    2.6608   -2.6608    0.0000 N   0  0  0  0  0  0  0  0  0  0  0  0
    2.6608    0.0000    0.0000 C   0  0  0  0  0  0  0  0  0  0  0  0
  1  2  1  0  0  0  0
  1  4  3  0  0  0  0
  2  3  1  0  0  0  0
  2  5  1  0  0  0  0
  2  6  1  0  0  0  0
M  END
> <ID>
5411

> <Formula>
C4H8N2

> <FW>
84.1197

> <DSSTox_CID>
7804

> <DSSTox_RID>
78574

> <DSSTox_GSID>
27804

> <DSSTox_FileID_Sort>
3257

> <TS_ChemName>
Propanenitrile, 2-amino-2-methyl-

> <TS_ChemName_Synonyms>


> <TS_CASRN>
19355-69-2

> <CASRN_ChemName_Relationship>
primary

> <TS_Description>
single chemical compound

> <ChemNote>


> <STRUCTURE_Shown>
tested chemical

> <STRUCTURE_Formula>
C4H8N2

> <STRUCTURE_MW>
84.1197

> <STRUCTURE_ChemType>
defined organic

> <STRUCTURE_DefinedOrganicForm>
parent

> <STRUCTURE_IUPAC>
2-amino-2-methylpropanenitrile

> <STRUCTURE_SMILES>
N#CC(C)(C)N

> <STRUCTURE_SMILES_Desalt>
N#CC(C)(C)N

> <Substance_modify_yyyymmdd>
20080429

$$$$
