19356-17-3
ChemmineR-0915142007XD

 31 33  0  0  1  0  0  0  0  0  1 V2000
    4.5443   -3.0408    0.0000 C   0  0  0  0  0  0  0  0  0  0  0  0
    4.5443   -4.3536    0.0000 C   0  0  0  0  0  0  0  0  0  0  0  0
    2.2890   -8.2695    0.0000 C   0  0  0  0  0  0  0  0  0  0  0  0
    5.6439   -2.4012    0.0000 C   0  0  0  0  0  0  0  0  0  0  0  0
    2.2890   -6.9567    0.0000 C   0  0  0  0  0  0  0  0  0  0  0  0
    3.4223   -8.9428    0.0000 C   0  0  0  0  0  0  0  0  0  0  0  0
    3.4223   -5.0044    0.0000 C   0  0  0  0  0  0  0  0  0  0  0  0
    3.4223   -6.3172    0.0000 C   0  0  0  0  0  0  0  0  0  0  0  0
    6.7660   -4.3536    0.0000 C   0  0  0  0  0  0  0  0  0  0  0  0
    6.7660   -3.0408    0.0000 C   0  0  0  0  0  0  0  0  0  0  0  0
    1.1557   -8.9428    0.0000 C   0  0  0  0  0  0  0  0  0  0  0  0
    3.4223  -10.2331    0.0000 C   0  0  0  0  0  0  0  0  0  0  0  0
    4.5443   -8.2695    0.0000 C   0  0  0  0  0  0  0  0  0  0  0  0
   10.1546   -1.1108    0.0000 C   0  0  0  0  0  0  0  0  0  0  0  0
    5.6439   -1.1108    0.0000 C   0  0  0  0  0  0  0  0  0  0  0  0
    3.4223   -2.4012    0.0000 C   0  0  0  0  0  0  0  0  0  0  0  0
    4.5443   -1.7841    0.0000 C   0  0  0  0  0  0  0  0  0  0  0  0
    1.1557  -10.2331    0.0000 C   0  0  0  0  0  0  0  0  0  0  0  0
    2.2890  -10.8727    0.0000 C   0  0  0  0  0  0  0  0  0  0  0  0
   11.2205   -0.4825    0.0000 O   0  0  0  0  0  0  0  0  0  0  0  0
    2.2890   -4.3536    0.0000 C   0  0  0  0  0  0  0  0  0  0  0  0
    0.0000  -10.9064    0.0000 O   0  0  0  0  0  0  0  0  0  0  0  0
    2.2890   -3.0408    0.0000 C   0  0  0  0  0  0  0  0  0  0  0  0
    7.8432   -1.1108    0.0000 C   0  0  0  0  0  0  0  0  0  0  0  0
    8.9989   -0.4825    0.0000 C   0  0  0  0  0  0  0  0  0  0  0  0
    6.7660   -0.4488    0.0000 C   0  0  0  0  0  0  0  0  0  0  0  0
   10.1546   -2.4012    0.0000 C   0  0  0  0  0  0  0  0  0  0  0  0
    9.4140    0.0000    0.0000 C   0  0  0  0  0  0  0  0  0  0  0  0
    4.5443   -0.4488    0.0000 C   0  0  0  0  0  0  0  0  0  0  0  0
    4.5443   -5.7113    0.0000 H   0  0  0  0  0  0  0  0  0  0  0  0
    6.7884   -1.7280    0.0000 H   0  0  0  0  0  0  0  0  0  0  0  0
  1  2  1  0  0  0  0
  1  4  1  0  0  0  0
  1 16  1  0  0  0  0
  1 17  1  1  0  0  0
  2  7  1  0  0  0  0
  2  9  1  0  0  0  0
  2 30  1  6  0  0  0
  3  5  2  0  0  0  0
  3  6  1  0  0  0  0
  3 11  1  0  0  0  0
  4 10  1  0  0  0  0
  4 15  1  0  0  0  0
  4 31  1  6  0  0  0
  5  8  1  0  0  0  0
  6 12  1  0  0  0  0
  6 13  2  0  0  0  0
  7  8  2  0  0  0  0
  7 21  1  0  0  0  0
  9 10  1  0  0  0  0
 11 18  1  0  0  0  0
 12 19  1  0  0  0  0
 14 25  1  0  0  0  0
 14 20  1  0  0  0  0
 14 27  1  0  0  0  0
 14 28  1  0  0  0  0
 15 26  1  0  0  0  0
 15 29  1  6  0  0  0
 16 23  1  0  0  0  0
 18 19  1  0  0  0  0
 18 22  1  6  0  0  0
 21 23  1  0  0  0  0
 24 26  1  0  0  0  0
 24 25  1  0  0  0  0
M  END
> <ID>
2461

> <Formula>
C27H44O2

> <FW>
400.6371

> <DSSTox_CID>
2721

> <DSSTox_RID>
76699

> <DSSTox_GSID>
22721

> <DSSTox_FileID_Sort>
1383

> <TS_ChemName>
Calcifediol

> <TS_ChemName_Synonyms>


> <TS_CASRN>
19356-17-3

> <CASRN_ChemName_Relationship>
primary

> <TS_Description>
single chemical compound

> <ChemNote>
stereochem

> <STRUCTURE_Shown>
tested chemical

> <STRUCTURE_Formula>
C27H44O2

> <STRUCTURE_MW>
400.6371

> <STRUCTURE_ChemType>
defined organic

> <STRUCTURE_DefinedOrganicForm>
parent

> <STRUCTURE_IUPAC>
(3S,5Z,7E)-9,10-secocholesta-5,7,10-triene-3,25-diol

> <STRUCTURE_SMILES>
C=C3CC[C@H](O)C\C3=C\C=C1/CCC[C@]2(C)[C@H](CC[C@@H]12)[C@H](C)CCCC(C)(C)O

> <STRUCTURE_SMILES_Desalt>
C=C3CC[C@H](O)C\C3=C\C=C1/CCC[C@]2(C)[C@H](CC[C@@H]12)[C@H](C)CCCC(C)(C)O

> <Substance_modify_yyyymmdd>
20080429

$$$$
