1936-15-8
ChemmineR-0915142007XD

 29 29  0  0  0  0  0  0  0  0  2 V2000
    5.1351   -2.6640    0.0000 C    0  0  0  0  0  0  0  0  0  0  0  0
    5.1351   -3.9900    0.0000 C    0  0  0  0  0  0  0  0  0  0  0  0
    3.9900   -4.6530    0.0000 C    0  0  0  0  0  0  0  0  0  0  0  0
    2.8328   -3.9900    0.0000 C    0  0  0  0  0  0  0  0  0  0  0  0
    2.8328   -2.6640    0.0000 C    0  0  0  0  0  0  0  0  0  0  0  0
    3.9900   -1.9890    0.0000 C    0  0  0  0  0  0  0  0  0  0  0  0
    3.9900   -0.6630    0.0000 C    0  0  0  0  0  0  0  0  0  0  0  0
    5.1351    0.0000    0.0000 C    0  0  0  0  0  0  0  0  0  0  0  0
    6.2924   -0.6630    0.0000 C    0  0  0  0  0  0  0  0  0  0  0  0
    6.2924   -1.9890    0.0000 C    0  0  0  0  0  0  0  0  0  0  0  0
    7.4375   -2.6640    0.0000 N    0  0  0  0  0  0  0  0  0  0  0  0
    8.5947   -1.9890    0.0000 N    0  0  0  0  0  0  0  0  0  0  0  0
    9.7519   -2.6640    0.0000 C    0  0  0  0  0  0  0  0  0  0  0  0
   10.8971   -1.9890    0.0000 C    0  0  0  0  0  0  0  0  0  0  0  0
   12.0543   -2.6640    0.0000 C    0  0  0  0  0  0  0  0  0  0  0  0
   12.0543   -3.9900    0.0000 C    0  0  0  0  0  0  0  0  0  0  0  0
   10.8971   -4.6530    0.0000 C    0  0  0  0  0  0  0  0  0  0  0  0
    9.7519   -3.9900    0.0000 C    0  0  0  0  0  0  0  0  0  0  0  0
    7.4375    0.0000    0.0000 O    0  0  0  0  0  0  0  0  0  0  0  0
    1.6756   -4.6530    0.0000 S    0  0  0  0  0  0  0  0  0  0  0  0
    1.0126   -3.5078    0.0000 O    0  0  0  0  0  0  0  0  0  0  0  0
    2.3506   -5.8102    0.0000 O    0  0  0  0  0  0  0  0  0  0  0  0
    0.5304   -5.3160    0.0000 O    0  5  0  0  0  0  0  0  0  0  0  0
    6.2924   -4.6530    0.0000 S    0  0  0  0  0  0  0  0  0  0  0  0
    6.9553   -3.5078    0.0000 O    0  0  0  0  0  0  0  0  0  0  0  0
    5.6294   -5.8102    0.0000 O    0  0  0  0  0  0  0  0  0  0  0  0
    7.4375   -5.3160    0.0000 O    0  5  0  0  0  0  0  0  0  0  0  0
    8.8238   -5.8705    0.0000 Na   0  3  0  0  0  0  0  0  0  0  0  0
    0.0000   -6.4852    0.0000 Na   0  3  0  0  0  0  0  0  0  0  0  0
  1  2  2  0  0  0  0
  1  6  1  0  0  0  0
  1 10  1  0  0  0  0
  2  3  1  0  0  0  0
  2 24  1  0  0  0  0
  3  4  2  0  0  0  0
  4  5  1  0  0  0  0
  4 20  1  0  0  0  0
  5  6  2  0  0  0  0
  6  7  1  0  0  0  0
  7  8  2  0  0  0  0
  8  9  1  0  0  0  0
  9 10  2  0  0  0  0
  9 19  1  0  0  0  0
 10 11  1  0  0  0  0
 11 12  2  0  0  0  0
 12 13  1  0  0  0  0
 13 14  2  0  0  0  0
 13 18  1  0  0  0  0
 14 15  1  0  0  0  0
 15 16  2  0  0  0  0
 16 17  1  0  0  0  0
 17 18  2  0  0  0  0
 20 21  2  0  0  0  0
 20 22  2  0  0  0  0
 20 23  1  0  0  0  0
 24 25  2  0  0  0  0
 24 26  2  0  0  0  0
 24 27  1  0  0  0  0
M  END
> <ID>
1042

> <Formula>
C16H10N2Na2O7S2

> <FW>
452.3693 (406.3909+22.9892+22.9892)

> <DSSTox_CID>
1082

> <DSSTox_RID>
75931

> <DSSTox_GSID>
21082

> <DSSTox_FileID_Sort>
615

> <TS_ChemName>
C.I. Acid orange 10

> <TS_ChemName_Synonyms>
C.I. Acid orange 10 (Orange G)

> <TS_CASRN>
1936-15-8

> <CASRN_ChemName_Relationship>
primary

> <TS_Description>
single chemical compound

> <ChemNote>
parent [14245-98-8]

> <STRUCTURE_Shown>
tested chemical

> <STRUCTURE_Formula>
C16H10N2Na2O7S2

> <STRUCTURE_MW>
452.3693

> <STRUCTURE_ChemType>
defined organic

> <STRUCTURE_DefinedOrganicForm>
salt

> <STRUCTURE_IUPAC>
disodium 7-hydroxy-8-[(E)-phenyldiazenyl]naphthalene-1,3-disulfonate

> <STRUCTURE_SMILES>
[Na+].[Na+].[O-]S(=O)(=O)c3cc(cc2ccc(O)c(/N=N/c1ccccc1)c23)S([O-])(=O)=O

> <STRUCTURE_SMILES_Desalt>
O=S(=O)(O)c3cc(cc2ccc(O)c(/N=N/c1ccccc1)c23)S(=O)(=O)O

> <Substance_modify_yyyymmdd>
20080429

$$$$
