19368-18-4
ChemmineR-0915142007XD

 20 21  0  0  0  0  0  0  0  0  1 V2000
    2.3062   -2.6529    0.0000 C   0  0  0  0  0  0  0  0  0  0  0  0
    2.3062   -3.9834    0.0000 C   0  0  0  0  0  0  0  0  0  0  0  0
    1.1531   -1.9836    0.0000 C   0  0  0  0  0  0  0  0  0  0  0  0
    1.1531   -4.6366    0.0000 C   0  0  0  0  0  0  0  0  0  0  0  0
    0.0000   -2.6529    0.0000 C   0  0  0  0  0  0  0  0  0  0  0  0
    0.0000   -3.9834    0.0000 C   0  0  0  0  0  0  0  0  0  0  0  0
    1.1531   -0.6532    0.0000 C   0  0  0  0  0  0  0  0  0  0  0  0
    0.0000    0.0000    0.0000 O   0  0  0  0  0  0  0  0  0  0  0  0
    2.3062    0.0000    0.0000 O   0  0  0  0  0  0  0  0  0  0  0  0
    3.4432   -1.9836    0.0000 C   0  0  0  0  0  0  0  0  0  0  0  0
    3.4432   -0.6532    0.0000 O   0  0  0  0  0  0  0  0  0  0  0  0
    4.5882   -2.6529    0.0000 N   0  0  0  0  0  0  0  0  0  0  0  0
    5.7574   -1.9836    0.0000 C   0  0  0  0  0  0  0  0  0  0  0  0
    5.7574   -0.6532    0.0000 C   0  0  0  0  0  0  0  0  0  0  0  0
    6.9105   -2.6529    0.0000 C   0  0  0  0  0  0  0  0  0  0  0  0
    6.9105    0.0000    0.0000 C   0  0  0  0  0  0  0  0  0  0  0  0
    8.0636   -1.9836    0.0000 C   0  0  0  0  0  0  0  0  0  0  0  0
    8.0636   -0.6532    0.0000 C   0  0  0  0  0  0  0  0  0  0  0  0
    4.5882    0.0000    0.0000 C   0  0  0  0  0  0  0  0  0  0  0  0
    6.9105   -3.9834    0.0000 C   0  0  0  0  0  0  0  0  0  0  0  0
  1  2  1  0  0  0  0
  1  3  2  0  0  0  0
  1 10  1  0  0  0  0
  2  4  2  0  0  0  0
  3  5  1  0  0  0  0
  3  7  1  0  0  0  0
  4  6  1  0  0  0  0
  5  6  2  0  0  0  0
  7  8  2  0  0  0  0
  7  9  1  0  0  0  0
 10 11  2  0  0  0  0
 10 12  1  0  0  0  0
 12 13  1  0  0  0  0
 13 14  1  0  0  0  0
 13 15  2  0  0  0  0
 14 16  2  0  0  0  0
 14 19  1  0  0  0  0
 15 17  1  0  0  0  0
 15 20  1  0  0  0  0
 16 18  1  0  0  0  0
 17 18  2  0  0  0  0
M  END
> <ID>
11592

> <Formula>
C16H15NO3

> <FW>
269.2952

> <DSSTox_CID>
26300

> <DSSTox_RID>
81525

> <DSSTox_GSID>
46300

> <DSSTox_FileID_Sort>
6206

> <TS_ChemName>
Ftaxilide

> <TS_ChemName_Synonyms>


> <TS_CASRN>
19368-18-4

> <CASRN_ChemName_Relationship>
primary

> <TS_Description>
single chemical compound

> <ChemNote>


> <STRUCTURE_Shown>
tested chemical

> <STRUCTURE_Formula>
C16H15NO3

> <STRUCTURE_MW>
269.2952

> <STRUCTURE_ChemType>
defined organic

> <STRUCTURE_DefinedOrganicForm>
parent

> <STRUCTURE_IUPAC>
2-[(2,6-dimethylphenyl)carbamoyl]benzoic acid

> <STRUCTURE_SMILES>
O=C(Nc1c(C)cccc1C)c2ccccc2C(=O)O

> <STRUCTURE_SMILES_Desalt>
O=C(Nc1c(C)cccc1C)c2ccccc2C(=O)O

> <Substance_modify_yyyymmdd>
20110815

$$$$
