19406-86-1
ChemmineR-0915142007XD

 11 11  0  0  0  0  0  0  0  0  1 V2000
    4.6041   -1.3311    0.0000 C   0  0  0  0  0  0  0  0  0  0  0  0
    4.6041    0.0000    0.0000 O   0  0  0  0  0  0  0  0  0  0  0  0
    3.4689   -1.9938    0.0000 C   0  0  0  0  0  0  0  0  0  0  0  0
    2.3107   -1.3311    0.0000 C   0  0  0  0  0  0  0  0  0  0  0  0
    3.4689   -3.3249    0.0000 C   0  0  0  0  0  0  0  0  0  0  0  0
    1.1582   -1.9938    0.0000 C   0  0  0  0  0  0  0  0  0  0  0  0
    2.3107   -3.9818    0.0000 C   0  0  0  0  0  0  0  0  0  0  0  0
    1.1582   -3.3249    0.0000 C   0  0  0  0  0  0  0  0  0  0  0  0
    5.7623   -1.9938    0.0000 N   0  0  0  0  0  0  0  0  0  0  0  0
    0.0000   -1.3311    0.0000 N   0  0  0  0  0  0  0  0  0  0  0  0
    0.0000   -3.9818    0.0000 C   0  0  0  0  0  0  0  0  0  0  0  0
  1  2  2  0  0  0  0
  1  3  1  0  0  0  0
  1  9  1  0  0  0  0
  3  4  2  0  0  0  0
  3  5  1  0  0  0  0
  4  6  1  0  0  0  0
  5  7  2  0  0  0  0
  6  8  2  0  0  0  0
  6 10  1  0  0  0  0
  7  8  1  0  0  0  0
  8 11  1  0  0  0  0
M  END
> <ID>
10064

> <Formula>
C8H10N2O

> <FW>
150.1778

> <DSSTox_CID>
24407

> <DSSTox_RID>
80206

> <DSSTox_GSID>
44407

> <DSSTox_FileID_Sort>
4888

> <TS_ChemName>
3-Amino-4-methylbenzamide

> <TS_ChemName_Synonyms>
3-Amino-4-methylbenzamide (Benzamide, 3-amino-4-methyl-)

> <TS_CASRN>
19406-86-1

> <CASRN_ChemName_Relationship>
primary

> <TS_Description>
single chemical compound

> <ChemNote>


> <STRUCTURE_Shown>
tested chemical

> <STRUCTURE_Formula>
C8H10N2O

> <STRUCTURE_MW>
150.1778

> <STRUCTURE_ChemType>
defined organic

> <STRUCTURE_DefinedOrganicForm>
parent

> <STRUCTURE_IUPAC>
3-amino-4-methylbenzamide

> <STRUCTURE_SMILES>
Cc1ccc(cc1N)C(N)=O

> <STRUCTURE_SMILES_Desalt>
Cc1ccc(cc1N)C(N)=O

> <Substance_modify_yyyymmdd>
20091116

$$$$
