194098-25-4
ChemmineR-0915142007XD

 22 24  0  0  0  0  0  0  0  0  1 V2000
    2.5956   -2.2993    0.0000 C   0  0  0  0  0  0  0  0  0  0  0  0
    3.8282   -2.8326    0.0000 C   0  0  0  0  0  0  0  0  0  0  0  0
    1.7067   -3.3185    0.0000 C   0  0  0  0  0  0  0  0  0  0  0  0
    2.1807   -1.0785    0.0000 C   0  0  0  0  0  0  0  0  0  0  0  0
    4.9659   -2.1689    0.0000 C   0  0  0  0  0  0  0  0  0  0  0  0
    3.7333   -4.1837    0.0000 C   0  0  0  0  0  0  0  0  0  0  0  0
    2.3822   -4.5037    0.0000 N   0  0  0  0  0  0  0  0  0  0  0  0
    0.4267   -3.0696    0.0000 C   0  0  0  0  0  0  0  0  0  0  0  0
    0.8770   -0.8059    0.0000 C   0  0  0  0  0  0  0  0  0  0  0  0
    2.9867    0.0000    0.0000 O   0  0  0  0  0  0  0  0  0  0  0  0
    6.1274   -2.8326    0.0000 N   0  0  0  0  0  0  0  0  0  0  0  0
    4.9896   -0.8533    0.0000 O   0  0  0  0  0  0  0  0  0  0  0  0
    0.0000   -1.7896    0.0000 C   0  0  0  0  0  0  0  0  0  0  0  0
    7.2533   -2.1452    0.0000 C   0  0  0  0  0  0  0  0  0  0  0  0
    8.4030   -2.8089    0.0000 C   0  0  0  0  0  0  0  0  0  0  0  0
    7.2533   -0.8178    0.0000 C   0  0  0  0  0  0  0  0  0  0  0  0
    9.5526   -2.1215    0.0000 C   0  0  0  0  0  0  0  0  0  0  0  0
    8.4030   -0.1541    0.0000 C   0  0  0  0  0  0  0  0  0  0  0  0
    9.5526   -0.8059    0.0000 C   0  0  0  0  0  0  0  0  0  0  0  0
   10.6904   -0.1541    0.0000 C   0  0  0  0  0  0  0  0  0  0  0  0
   11.8519   -0.7704    0.0000 N   0  0  0  0  0  0  0  0  0  0  0  0
   11.8400   -2.0741    0.0000 C   0  0  0  0  0  0  0  0  0  0  0  0
  1  2  1  0  0  0  0
  1  3  2  0  0  0  0
  1  4  1  0  0  0  0
  2  5  1  0  0  0  0
  2  6  2  0  0  0  0
  3  7  1  0  0  0  0
  3  8  1  0  0  0  0
  4  9  1  0  0  0  0
  4 10  2  0  0  0  0
  5 11  1  0  0  0  0
  5 12  2  0  0  0  0
  6  7  1  0  0  0  0
  8 13  1  0  0  0  0
  9 13  1  0  0  0  0
 11 14  1  0  0  0  0
 14 15  1  0  0  0  0
 14 16  2  0  0  0  0
 15 17  2  0  0  0  0
 16 18  1  0  0  0  0
 17 19  1  0  0  0  0
 18 19  2  0  0  0  0
 19 20  1  0  0  0  0
 20 21  1  0  0  0  0
 21 22  1  0  0  0  0
M  END
> <ID>
12418

> <Formula>
C17H19N3O2

> <FW>
297.3517

> <DSSTox_CID>
27276

> <DSSTox_RID>
82230

> <DSSTox_GSID>
47276

> <DSSTox_FileID_Sort>
6911

> <TS_ChemName>
CP-409092

> <TS_ChemName_Synonyms>


> <TS_CASRN>
194098-25-4

> <CASRN_ChemName_Relationship>
primary

> <TS_Description>
single chemical compound

> <ChemNote>


> <STRUCTURE_Shown>
tested chemical

> <STRUCTURE_Formula>
C17H19N3O2

> <STRUCTURE_MW>
297.3517

> <STRUCTURE_ChemType>
defined organic

> <STRUCTURE_DefinedOrganicForm>
parent

> <STRUCTURE_IUPAC>
N-{4-[(methylamino)methyl]phenyl}-4-oxo-4,5,6,7-tetrahydro-1H-indole-3-carboxamide

> <STRUCTURE_SMILES>
CNCc1ccc(cc1)NC(=O)c3cnc2CCCC(=O)c23

> <STRUCTURE_SMILES_Desalt>
CNCc1ccc(cc1)NC(=O)c3cnc2CCCC(=O)c23

> <Substance_modify_yyyymmdd>
20130910

$$$$
