19408-46-9
ChemmineR-0915142007XD

 28 28  0  0  1  0  0  0  0  0  1 V2000
    1.1398   -7.9788    0.0000 C    0  0  0  0  0  0  0  0  0  0  0  0
    1.1398   -9.2991    0.0000 C    0  0  0  0  0  0  0  0  0  0  0  0
    2.2909   -9.9537    0.0000 C    0  0  0  0  0  0  0  0  0  0  0  0
    3.4533   -9.2991    0.0000 C    0  0  0  0  0  0  0  0  0  0  0  0
    3.4533   -7.9788    0.0000 C    0  0  0  0  0  0  0  0  0  0  0  0
    2.2909   -7.3016    0.0000 C    0  0  0  0  0  0  0  0  0  0  0  0
    4.6044   -7.3016    0.0000 O    0  0  0  0  0  0  0  0  0  0  0  0
    0.0000   -9.9763    0.0000 O    0  0  0  0  0  0  0  0  0  0  0  0
    2.2909  -11.2854    0.0000 O    0  0  0  0  0  0  0  0  0  0  0  0
    2.2909   -5.9700    0.0000 O    0  0  0  0  0  0  0  0  0  0  0  0
    0.0000   -7.3016    0.0000 O    0  0  0  0  0  0  0  0  0  0  0  0
    4.6044   -9.9763    0.0000 O    0  0  0  0  0  0  0  0  0  0  0  0
    4.6044   -5.9700    0.0000 C    0  0  0  0  0  0  0  0  0  0  0  0
    5.7442   -5.3154    0.0000 C    0  0  0  0  0  0  0  0  0  0  0  0
    5.7442   -3.9837    0.0000 C    0  0  0  0  0  0  0  0  0  0  0  0
    4.6044   -3.3292    0.0000 C    0  0  0  0  0  0  0  0  0  0  0  0
    3.4533   -3.9837    0.0000 C    0  0  0  0  0  0  0  0  0  0  0  0
    3.4533   -5.3154    0.0000 O    0  0  0  0  0  0  0  0  0  0  0  0
    3.6565   -6.9066    0.0000 H    0  0  0  0  0  0  0  0  0  0  0  0
    2.2909   -3.3066    0.0000 C    0  0  0  0  0  0  0  0  0  0  0  0
    6.9066   -5.9700    0.0000 N    0  0  0  0  0  0  0  0  0  0  0  0
    4.6044   -1.9862    0.0000 N    0  0  0  0  0  0  0  0  0  0  0  0
    5.7668   -1.3317    0.0000 C    0  0  0  0  0  0  0  0  0  0  0  0
    5.7668    0.0000    0.0000 N    0  0  0  0  0  0  0  0  0  0  0  0
    6.9066   -2.0088    0.0000 C    0  0  0  0  0  0  0  0  0  0  0  0
    6.9066   -3.3292    0.0000 O    0  0  0  0  0  0  0  0  0  0  0  0
    8.0577   -1.3317    0.0000 O    0  0  0  0  0  0  0  0  0  0  0  0
   10.2020   -4.9656    0.0000 Cl   0  0  0  0  0  0  0  0  0  0  0  0
  1  2  1  0  0  0  0
  1  6  1  0  0  0  0
  1 11  1  6  0  0  0
  2  8  1  1  0  0  0
  2  3  1  0  0  0  0
  3  9  1  1  0  0  0
  3  4  1  0  0  0  0
  4  5  1  0  0  0  0
  4 12  1  6  0  0  0
  5  7  1  1  0  0  0
  5  6  1  0  0  0  0
  6 10  1  6  0  0  0
  7 13  1  0  0  0  0
 13 14  1  0  0  0  0
 13 18  1  0  0  0  0
 13 19  1  6  0  0  0
 14 15  1  0  0  0  0
 14 21  1  6  0  0  0
 15 16  1  0  0  0  0
 16 17  1  0  0  0  0
 16 22  1  1  0  0  0
 17 18  1  0  0  0  0
 17 20  1  6  0  0  0
 22 23  1  0  0  0  0
 23 24  2  0  0  0  0
 23 25  1  0  0  0  0
 25 26  2  0  0  0  0
 25 27  1  0  0  0  0
M  END
> <ID>
7934

> <Formula>
C14H26ClN3O9

> <FW>
415.8239 (379.3630+36.4609)

> <DSSTox_CID>
20739

> <DSSTox_RID>
79582

> <DSSTox_GSID>
40739

> <DSSTox_FileID_Sort>
4264

> <TS_ChemName>
Kasugamycin hydrochloride

> <TS_ChemName_Synonyms>


> <TS_CASRN>
19408-46-9

> <CASRN_ChemName_Relationship>
primary

> <TS_Description>
single chemical compound

> <ChemNote>
stereochem; parent [6980-18-3]

> <STRUCTURE_Shown>
tested chemical

> <STRUCTURE_Formula>
C14H26ClN3O9

> <STRUCTURE_MW>
415.8239

> <STRUCTURE_ChemType>
defined organic

> <STRUCTURE_DefinedOrganicForm>
complex

> <STRUCTURE_IUPAC>
(1S,2R,3S,4R,5S,6S)-2,3,4,5,6-pentahydroxycyclohexyl 2-amino-4-[(carboxycarbonoimidoyl)amino]-2,3,4,6-tetradeoxy-alpha-D-arabino-hexopyranoside hydrochloride (1:1)

> <STRUCTURE_SMILES>
Cl.O=C(O)C(=N)N[C@H]2C[C@H](N)[C@@H](O[C@@H]1[C@@H](O)[C@@H](O)[C@H](O)[C@H](O)[C@H]1O)O[C@@H]2C

> <STRUCTURE_SMILES_Desalt>
O=C(O)C(=N)N[C@H]2C[C@H](N)[C@@H](O[C@@H]1[C@@H](O)[C@@H](O)[C@H](O)[C@H](O)[C@H]1O)O[C@@H]2C

> <Substance_modify_yyyymmdd>
20080429

$$$$
