1943-97-1
ChemmineR-0915142007XD

 24 28  0  0  0  0  0  0  0  0  1 V2000
    3.9556   -3.3490    0.0000 C   0  0  0  0  0  0  0  0  0  0  0  0
    4.6390   -2.2042    0.0000 C   0  0  0  0  0  0  0  0  0  0  0  0
    5.7838   -1.4353    0.0000 C   0  0  0  0  0  0  0  0  0  0  0  0
    5.3310   -2.6912    0.0000 C   0  0  0  0  0  0  0  0  0  0  0  0
    5.5361    0.0000    0.0000 C   0  0  0  0  0  0  0  0  0  0  0  0
    7.1508   -2.2896    0.0000 C   0  0  0  0  0  0  0  0  0  0  0  0
    6.5955   -3.3832    0.0000 C   0  0  0  0  0  0  0  0  0  0  0  0
    7.4669   -4.2375    0.0000 C   0  0  0  0  0  0  0  0  0  0  0  0
    8.5433   -3.6736    0.0000 C   0  0  0  0  0  0  0  0  0  0  0  0
    8.3554   -2.4776    0.0000 C   0  0  0  0  0  0  0  0  0  0  0  0
    3.9556   -4.5621    0.0000 C   0  0  0  0  0  0  0  0  0  0  0  0
    4.9979   -5.1687    0.0000 C   0  0  0  0  0  0  0  0  0  0  0  0
    2.8962   -5.1687    0.0000 C   0  0  0  0  0  0  0  0  0  0  0  0
    4.9979   -6.3904    0.0000 C   0  0  0  0  0  0  0  0  0  0  0  0
    2.8962   -6.3904    0.0000 C   0  0  0  0  0  0  0  0  0  0  0  0
    3.9556   -6.9970    0.0000 C   0  0  0  0  0  0  0  0  0  0  0  0
    3.0073   -2.5630    0.0000 C   0  0  0  0  0  0  0  0  0  0  0  0
    1.8795   -2.9987    0.0000 C   0  0  0  0  0  0  0  0  0  0  0  0
    3.2123   -1.3669    0.0000 C   0  0  0  0  0  0  0  0  0  0  0  0
    0.9398   -2.2384    0.0000 C   0  0  0  0  0  0  0  0  0  0  0  0
    2.2554   -0.6066    0.0000 C   0  0  0  0  0  0  0  0  0  0  0  0
    1.1277   -1.0423    0.0000 C   0  0  0  0  0  0  0  0  0  0  0  0
    0.0000   -0.1196    0.0000 O   0  0  0  0  0  0  0  0  0  0  0  0
    3.9556   -8.2272    0.0000 O   0  0  0  0  0  0  0  0  0  0  0  0
  1  2  1  0  0  0  0
  1  4  1  0  0  0  0
  1 11  1  0  0  0  0
  1 17  1  0  0  0  0
  2  3  1  0  0  0  0
  3  5  1  0  0  0  0
  3  6  1  0  0  0  0
  4  5  1  0  0  0  0
  4  7  1  0  0  0  0
  6  7  1  0  0  0  0
  6 10  1  0  0  0  0
  7  8  1  0  0  0  0
  8  9  1  0  0  0  0
  9 10  1  0  0  0  0
 11 12  1  0  0  0  0
 11 13  2  0  0  0  0
 12 14  2  0  0  0  0
 13 15  1  0  0  0  0
 14 16  1  0  0  0  0
 15 16  2  0  0  0  0
 16 24  1  0  0  0  0
 17 18  1  0  0  0  0
 17 19  2  0  0  0  0
 18 20  2  0  0  0  0
 19 21  1  0  0  0  0
 20 22  1  0  0  0  0
 21 22  2  0  0  0  0
 22 23  1  0  0  0  0
M  END
> <ID>
12968

> <Formula>
C22H24O2

> <FW>
320.4248

> <DSSTox_CID>
27869

> <DSSTox_RID>
82622

> <DSSTox_GSID>
47893

> <DSSTox_FileID_Sort>
7299

> <TS_ChemName>
4,4'-Octahydro-1H-4,7-methanoindene-5,5-diyldiphenol

> <TS_ChemName_Synonyms>


> <TS_CASRN>
1943-97-1

> <CASRN_ChemName_Relationship>
primary

> <TS_Description>
single chemical compound

> <ChemNote>


> <STRUCTURE_Shown>
tested chemical

> <STRUCTURE_Formula>
C22H24O2

> <STRUCTURE_MW>
320.4248

> <STRUCTURE_ChemType>
defined organic

> <STRUCTURE_DefinedOrganicForm>
parent

> <STRUCTURE_IUPAC>
4,4'-octahydro-1H-4,7-methanoindene-5,5-diyldiphenol

> <STRUCTURE_SMILES>
Oc1ccc(cc1)C4(CC2CC4C3CCCC23)c5ccc(O)cc5

> <STRUCTURE_SMILES_Desalt>
Oc1ccc(cc1)C4(CC2CC4C3CCCC23)c5ccc(O)cc5

> <Substance_modify_yyyymmdd>


$$$$
