19438-61-0
ChemmineR-0915142007XD

 12 13  0  0  0  0  0  0  0  0  1 V2000
    3.4447   -1.6291    0.0000 C   0  0  0  0  0  0  0  0  0  0  0  0
    3.4447   -3.0278    0.0000 C   0  0  0  0  0  0  0  0  0  0  0  0
    5.4852   -2.3312    0.0000 O   0  0  0  0  0  0  0  0  0  0  0  0
    4.6899   -1.2616    0.0000 C   0  0  0  0  0  0  0  0  0  0  0  0
    4.6899   -3.3954    0.0000 C   0  0  0  0  0  0  0  0  0  0  0  0
    2.2489   -1.0038    0.0000 C   0  0  0  0  0  0  0  0  0  0  0  0
    2.2489   -3.6532    0.0000 C   0  0  0  0  0  0  0  0  0  0  0  0
    1.1300   -3.0278    0.0000 C   0  0  0  0  0  0  0  0  0  0  0  0
    1.1300   -1.6291    0.0000 C   0  0  0  0  0  0  0  0  0  0  0  0
    5.1177   -4.6570    0.0000 O   0  0  0  0  0  0  0  0  0  0  0  0
    5.1177    0.0000    0.0000 O   0  0  0  0  0  0  0  0  0  0  0  0
    0.0000   -0.9709    0.0000 C   0  0  0  0  0  0  0  0  0  0  0  0
  1  2  2  0  0  0  0
  1  4  1  0  0  0  0
  1  6  1  0  0  0  0
  2  5  1  0  0  0  0
  2  7  1  0  0  0  0
  3  4  1  0  0  0  0
  3  5  1  0  0  0  0
  4 11  2  0  0  0  0
  5 10  2  0  0  0  0
  6  9  2  0  0  0  0
  7  8  2  0  0  0  0
  8  9  1  0  0  0  0
  9 12  1  0  0  0  0
M  END
> <ID>
5412

> <Formula>
C9H6O3

> <FW>
162.1421

> <DSSTox_CID>
7805

> <DSSTox_RID>
78575

> <DSSTox_GSID>
27805

> <DSSTox_FileID_Sort>
3258

> <TS_ChemName>
1,3-Isobenzofurandione, 5-methyl-

> <TS_ChemName_Synonyms>
4-Methylphthalic anhydride (1,3-Isobenzofurandione, 5-methyl-)

> <TS_CASRN>
19438-61-0

> <CASRN_ChemName_Relationship>
primary

> <TS_Description>
single chemical compound

> <ChemNote>


> <STRUCTURE_Shown>
tested chemical

> <STRUCTURE_Formula>
C9H6O3

> <STRUCTURE_MW>
162.1421

> <STRUCTURE_ChemType>
defined organic

> <STRUCTURE_DefinedOrganicForm>
parent

> <STRUCTURE_IUPAC>
5-methyl-2-benzofuran-1,3-dione

> <STRUCTURE_SMILES>
Cc1ccc2C(=O)OC(=O)c2c1

> <STRUCTURE_SMILES_Desalt>
Cc1ccc2C(=O)OC(=O)c2c1

> <Substance_modify_yyyymmdd>
20080429

$$$$
