1944-12-3
ChemmineR-0915142007XD

 23 23  0  0  0  0  0  0  0  0  1 V2000
    3.4751   -3.3228    0.0000 C    0  0  0  0  0  0  0  0  0  0  0  0
    2.3398   -3.9735    0.0000 C    0  0  0  0  0  0  0  0  0  0  0  0
    3.4751   -1.9798    0.0000 C    0  0  0  0  0  0  0  0  0  0  0  0
    2.3398   -1.3153    0.0000 C    0  0  0  0  0  0  0  0  0  0  0  0
    1.1768   -3.3228    0.0000 C    0  0  0  0  0  0  0  0  0  0  0  0
    1.1768   -1.9798    0.0000 C    0  0  0  0  0  0  0  0  0  0  0  0
    6.9224   -3.9735    0.0000 N    0  0  0  0  0  0  0  0  0  0  0  0
    4.6380   -3.9735    0.0000 C    0  0  0  0  0  0  0  0  0  0  0  0
    5.7733   -3.3228    0.0000 C    0  0  0  0  0  0  0  0  0  0  0  0
   10.3698   -3.3228    0.0000 C    0  0  0  0  0  0  0  0  0  0  0  0
   12.6819   -1.9798    0.0000 C    0  0  0  0  0  0  0  0  0  0  0  0
    9.2207   -3.9735    0.0000 C    0  0  0  0  0  0  0  0  0  0  0  0
    0.0000   -3.9735    0.0000 O    0  0  0  0  0  0  0  0  0  0  0  0
    2.3398    0.0000    0.0000 O    0  0  0  0  0  0  0  0  0  0  0  0
   11.5328   -3.9735    0.0000 C    0  0  0  0  0  0  0  0  0  0  0  0
   10.3698   -1.9798    0.0000 C    0  0  0  0  0  0  0  0  0  0  0  0
   12.6819   -3.3228    0.0000 C    0  0  0  0  0  0  0  0  0  0  0  0
   11.5328   -1.3153    0.0000 C    0  0  0  0  0  0  0  0  0  0  0  0
    4.6380   -5.3026    0.0000 O    0  0  0  0  0  0  0  0  0  0  0  0
   13.8449   -1.3014    0.0000 O    0  0  0  0  0  0  0  0  0  0  0  0
    8.0854   -3.3228    0.0000 C    0  0  0  0  0  0  0  0  0  0  0  0
    8.0854   -1.9798    0.0000 C    0  0  0  0  0  0  0  0  0  0  0  0
    9.8160   -5.0672    0.0000 Br   0  0  0  0  0  0  0  0  0  0  0  0
  1  2  2  0  0  0  0
  1  3  1  0  0  0  0
  1  8  1  0  0  0  0
  2  5  1  0  0  0  0
  3  4  2  0  0  0  0
  4  6  1  0  0  0  0
  4 14  1  0  0  0  0
  5 13  1  0  0  0  0
  5  6  2  0  0  0  0
  7  9  1  0  0  0  0
  7 21  1  0  0  0  0
  8  9  1  0  0  0  0
  8 19  1  0  0  0  0
 10 12  1  0  0  0  0
 10 15  1  0  0  0  0
 10 16  2  0  0  0  0
 11 18  2  0  0  0  0
 11 20  1  0  0  0  0
 11 17  1  0  0  0  0
 12 21  1  0  0  0  0
 15 17  2  0  0  0  0
 16 18  1  0  0  0  0
 21 22  1  0  0  0  0
M  END
> <ID>
10935

> <Formula>
C17H22BrNO4

> <FW>
384.2649 (303.3529+80.9119)

> <DSSTox_CID>
25419

> <DSSTox_RID>
80867

> <DSSTox_GSID>
45419

> <DSSTox_FileID_Sort>
5548

> <TS_ChemName>
Fenoterol hydrobromide

> <TS_ChemName_Synonyms>


> <TS_CASRN>
1944-12-3

> <CASRN_ChemName_Relationship>
primary

> <TS_Description>
single chemical compound

> <ChemNote>
parent [13392-18-2]

> <STRUCTURE_Shown>
tested chemical

> <STRUCTURE_Formula>
C17H22BrNO4

> <STRUCTURE_MW>
384.2649

> <STRUCTURE_ChemType>
defined organic

> <STRUCTURE_DefinedOrganicForm>
complex

> <STRUCTURE_IUPAC>
5-(1-hydroxy-2-{[1-(4-hydroxyphenyl)propan-2-yl]amino}ethyl)benzene-1,3-diol hydrobromide (1:1)

> <STRUCTURE_SMILES>
Br.Oc1cc(cc(O)c1)C(O)CNC(C)Cc2ccc(O)cc2

> <STRUCTURE_SMILES_Desalt>
Oc1cc(cc(O)c1)C(O)CNC(C)Cc2ccc(O)cc2

> <Substance_modify_yyyymmdd>
20100107

$$$$
