19455-21-1
ChemmineR-0915142007XD

  8  6  0  0  0  0  0  0  0  0  2 V2000
    4.6032   -1.2736    0.0000 C   0  0  0  0  0  0  0  0  0  0  0  0
    4.6032    0.0000    0.0000 O   0  0  0  0  0  0  0  0  0  0  0  0
    5.7112   -1.8904    0.0000 O   0  5  0  0  0  0  0  0  0  0  0  0
    3.5181   -1.8904    0.0000 C   0  0  0  0  0  0  0  0  0  0  0  0
    2.3816   -1.2907    0.0000 C   0  0  0  0  0  0  0  0  0  0  0  0
    1.2108   -2.0617    0.0000 C   0  0  0  0  0  0  0  0  0  0  0  0
    0.0000   -1.1708    0.0000 C   0  0  0  0  0  0  0  0  0  0  0  0
    2.8270   -2.6271    0.0000 K   0  3  0  0  0  0  0  0  0  0  0  0
  1  2  2  0  0  0  0
  1  3  1  0  0  0  0
  1  4  1  0  0  0  0
  4  5  1  0  0  0  0
  5  6  1  0  0  0  0
  6  7  1  0  0  0  0
M  END
> <ID>
13701

> <Formula>
C5H9KO2

> <FW>
140.2221 (101.1243+39.0978)

> <DSSTox_CID>
28635

> <DSSTox_RID>
82905

> <DSSTox_GSID>
48709

> <DSSTox_FileID_Sort>
7582

> <TS_ChemName>
Potassium pentanoate

> <TS_ChemName_Synonyms>
Valeric acid

> <TS_CASRN>
19455-21-1

> <CASRN_ChemName_Relationship>
primary

> <TS_Description>
single chemical compound

> <ChemNote>


> <STRUCTURE_Shown>
tested chemical

> <STRUCTURE_Formula>
C5H9KO2

> <STRUCTURE_MW>
140.2221

> <STRUCTURE_ChemType>
defined organic

> <STRUCTURE_DefinedOrganicForm>
salt

> <STRUCTURE_IUPAC>
potassium pentanoate

> <STRUCTURE_SMILES>
[K+].[O-]C(=O)CCCC

> <STRUCTURE_SMILES_Desalt>
CCCCC(=O)O

> <Substance_modify_yyyymmdd>
20111204

$$$$
