194798-83-9
ChemmineR-0915142007XD

 26 28  0  0  0  0  0  0  0  0  1 V2000
    4.0398   -4.6225    0.0000 C   0  0  0  0  0  0  0  0  0  0  0  0
    5.3707   -4.6225    0.0000 C   0  0  0  0  0  0  0  0  0  0  0  0
    3.3862   -3.4649    0.0000 O   0  0  0  0  0  0  0  0  0  0  0  0
    3.3704   -5.7723    0.0000 C   0  0  0  0  0  0  0  0  0  0  0  0
    4.7013   -3.4649    0.0000 C   0  0  0  0  0  0  0  0  0  0  0  0
    4.0398   -2.3073    0.0000 C   0  0  0  0  0  0  0  0  0  0  0  0
    6.0479   -3.4649    0.0000 C   0  0  0  0  0  0  0  0  0  0  0  0
    4.7170   -1.1576    0.0000 C   0  0  0  0  0  0  0  0  0  0  0  0
    6.7015   -2.3073    0.0000 C   0  0  0  0  0  0  0  0  0  0  0  0
    6.0479   -1.1576    0.0000 C   0  0  0  0  0  0  0  0  0  0  0  0
    2.0396   -5.7723    0.0000 N   0  0  0  0  0  0  0  0  0  0  0  0
    1.2679   -6.8511    0.0000 N   0  0  0  0  0  0  0  0  0  0  0  0
    1.2679   -4.7013    0.0000 C   0  0  0  0  0  0  0  0  0  0  0  0
    0.0000   -6.4338    0.0000 C   0  0  0  0  0  0  0  0  0  0  0  0
    0.0000   -5.1029    0.0000 N   0  0  0  0  0  0  0  0  0  0  0  0
    6.0479   -5.7723    0.0000 N   0  0  0  0  0  0  0  0  0  0  0  0
    7.3630   -5.9219    0.0000 N   0  0  0  0  0  0  0  0  0  0  0  0
    5.5045   -6.9929    0.0000 C   0  0  0  0  0  0  0  0  0  0  0  0
    7.6307   -7.2134    0.0000 C   0  0  0  0  0  0  0  0  0  0  0  0
    6.4810   -7.8749    0.0000 N   0  0  0  0  0  0  0  0  0  0  0  0
    2.0553   -3.4649    0.0000 P   0  0  0  0  0  0  0  0  0  0  0  0
    1.3781   -2.3073    0.0000 O   0  0  0  0  0  0  0  0  0  0  0  0
    2.6775   -4.6383    0.0000 O   0  0  0  0  0  0  0  0  0  0  0  0
    0.9292   -4.1737    0.0000 O   0  0  0  0  0  0  0  0  0  0  0  0
    6.7015    0.0000    0.0000 F   0  0  0  0  0  0  0  0  0  0  0  0
    2.7090   -2.3073    0.0000 F   0  0  0  0  0  0  0  0  0  0  0  0
  1  2  1  0  0  0  0
  1  3  1  0  0  0  0
  1  4  1  0  0  0  0
  1  5  1  0  0  0  0
  2 16  1  0  0  0  0
  3 21  1  0  0  0  0
  4 11  1  0  0  0  0
  5  6  1  0  0  0  0
  5  7  2  0  0  0  0
  6  8  2  0  0  0  0
  6 26  1  0  0  0  0
  7  9  1  0  0  0  0
  8 10  1  0  0  0  0
  9 10  2  0  0  0  0
 10 25  1  0  0  0  0
 11 12  1  0  0  0  0
 11 13  1  0  0  0  0
 12 14  2  0  0  0  0
 13 15  2  0  0  0  0
 14 15  1  0  0  0  0
 16 17  1  0  0  0  0
 16 18  1  0  0  0  0
 17 19  2  0  0  0  0
 18 20  2  0  0  0  0
 19 20  1  0  0  0  0
 21 22  1  0  0  0  0
 21 23  1  0  0  0  0
 21 24  2  0  0  0  0
M  END
> <ID>
13599

> <Formula>
C13H13F2N6O4P

> <FW>
386.2507

> <DSSTox_CID>
28527

> <DSSTox_RID>
82799

> <DSSTox_GSID>
48601

> <DSSTox_FileID_Sort>
7476

> <TS_ChemName>
Fosfluconazole

> <TS_ChemName_Synonyms>


> <TS_CASRN>
194798-83-9

> <CASRN_ChemName_Relationship>
primary

> <TS_Description>
single chemical compound

> <ChemNote>


> <STRUCTURE_Shown>
tested chemical

> <STRUCTURE_Formula>
C13H13F2N6O4P

> <STRUCTURE_MW>
386.2507

> <STRUCTURE_ChemType>
defined organic

> <STRUCTURE_DefinedOrganicForm>
parent

> <STRUCTURE_IUPAC>
2-(2,4-difluorophenyl)-1,3-di(1H-1,2,4-triazol-1-yl)propan-2-yl dihydrogen phosphate

> <STRUCTURE_SMILES>
Fc1ccc(c(F)c1)C(OP(=O)(O)O)(Cn2cncn2)Cn3cncn3

> <STRUCTURE_SMILES_Desalt>
Fc1ccc(c(F)c1)C(OP(=O)(O)O)(Cn2cncn2)Cn3cncn3

> <Substance_modify_yyyymmdd>
20111014

$$$$
