1949-20-8
ChemmineR-0915142007XD

 31 31  0  0  0  0  0  0  0  0  1 V2000
    2.7177    0.0000    0.0000 C   0  0  0  0  0  0  0  0  0  0  0  0
    1.5000   -0.5471    0.0000 C   0  0  0  0  0  0  0  0  0  0  0  0
    1.3412   -1.8706    0.0000 N   0  0  0  0  0  0  0  0  0  0  0  0
    0.1412   -2.4000    0.0000 C   0  0  0  0  0  0  0  0  0  0  0  0
    0.0000   -3.7236    0.0000 C   0  0  0  0  0  0  0  0  0  0  0  0
    2.4353   -2.6471    0.0000 C   0  0  0  0  0  0  0  0  0  0  0  0
    3.6530   -2.1000    0.0000 C   0  0  0  0  0  0  0  0  0  0  0  0
    4.7118   -2.8942    0.0000 C   0  0  0  0  0  0  0  0  0  0  0  0
    5.9824   -2.4706    0.0000 N   0  0  0  0  0  0  0  0  0  0  0  0
    6.7589   -3.5648    0.0000 C   0  0  0  0  0  0  0  0  0  0  0  0
    5.9824   -4.6236    0.0000 N   0  0  0  0  0  0  0  0  0  0  0  0
    4.7118   -4.2177    0.0000 O   0  0  0  0  0  0  0  0  0  0  0  0
    8.1001   -3.5648    0.0000 C   0  0  0  0  0  0  0  0  0  0  0  0
    8.7707   -2.4000    0.0000 C   0  0  0  0  0  0  0  0  0  0  0  0
   10.0943   -2.4000    0.0000 C   0  0  0  0  0  0  0  0  0  0  0  0
   10.7649   -3.5648    0.0000 C   0  0  0  0  0  0  0  0  0  0  0  0
   10.0943   -4.6942    0.0000 C   0  0  0  0  0  0  0  0  0  0  0  0
    8.7707   -4.6942    0.0000 C   0  0  0  0  0  0  0  0  0  0  0  0
   12.0355   -4.6059    0.0000 O   0  0  0  0  0  0  0  0  0  0  0  0
   13.1825   -5.2765    0.0000 C   0  0  0  0  0  0  0  0  0  0  0  0
   13.1825   -6.6001    0.0000 O   0  0  0  0  0  0  0  0  0  0  0  0
   14.3120   -4.6059    0.0000 C   0  0  0  0  0  0  0  0  0  0  0  0
   14.3120   -3.2648    0.0000 C   0  0  0  0  0  0  0  0  0  0  0  0
   12.9884   -3.2648    0.0000 O   0  0  0  0  0  0  0  0  0  0  0  0
   15.6708   -3.2648    0.0000 C   0  0  0  0  0  0  0  0  0  0  0  0
   16.3238   -4.4471    0.0000 C   0  0  0  0  0  0  0  0  0  0  0  0
   15.6708   -5.5766    0.0000 O   0  0  0  0  0  0  0  0  0  0  0  0
   17.6473   -4.4471    0.0000 O   0  0  0  0  0  0  0  0  0  0  0  0
   14.3120   -1.9412    0.0000 C   0  0  0  0  0  0  0  0  0  0  0  0
   13.1825   -1.2706    0.0000 O   0  0  0  0  0  0  0  0  0  0  0  0
   15.4943   -1.2706    0.0000 O   0  0  0  0  0  0  0  0  0  0  0  0
  1  2  1  0  0  0  0
  2  3  1  0  0  0  0
  3  4  1  0  0  0  0
  3  6  1  0  0  0  0
  4  5  1  0  0  0  0
  6  7  1  0  0  0  0
  7  8  1  0  0  0  0
  8  9  2  0  0  0  0
  8 12  1  0  0  0  0
  9 10  1  0  0  0  0
 10 11  2  0  0  0  0
 10 13  1  0  0  0  0
 11 12  1  0  0  0  0
 13 14  2  0  0  0  0
 13 18  1  0  0  0  0
 14 15  1  0  0  0  0
 15 16  2  0  0  0  0
 16 17  1  0  0  0  0
 17 18  2  0  0  0  0
 19 20  1  0  0  0  0
 20 21  2  0  0  0  0
 20 22  1  0  0  0  0
 22 23  1  0  0  0  0
 23 24  1  0  0  0  0
 23 25  1  0  0  0  0
 23 29  1  0  0  0  0
 25 26  1  0  0  0  0
 26 27  1  0  0  0  0
 26 28  2  0  0  0  0
 29 30  1  0  0  0  0
 29 31  2  0  0  0  0
M  END
> <ID>
11021

> <Formula>
C20H27N3O8

> <FW>
437.4437 (245.3202+192.1235)

> <DSSTox_CID>
25556

> <DSSTox_RID>
80953

> <DSSTox_GSID>
45556

> <DSSTox_FileID_Sort>
5634

> <TS_ChemName>
Oxalamine citrate

> <TS_ChemName_Synonyms>


> <TS_CASRN>
1949-20-8

> <CASRN_ChemName_Relationship>
primary

> <TS_Description>
single chemical compound

> <ChemNote>
parent [959-14-8]

> <STRUCTURE_Shown>
tested chemical

> <STRUCTURE_Formula>
C20H27N3O8

> <STRUCTURE_MW>
437.4437

> <STRUCTURE_ChemType>
defined organic

> <STRUCTURE_DefinedOrganicForm>
complex

> <STRUCTURE_IUPAC>
N,N-diethyl-2-(3-phenyl-1,2,4-oxadiazol-5-yl)ethanamine 2-hydroxypropane-1,2,3-tricarboxylate (1:1)

> <STRUCTURE_SMILES>
O=C(O)C(O)(CC(=O)O)CC(=O)O.CCN(CC)CCc1nc(no1)c2ccccc2

> <STRUCTURE_SMILES_Desalt>
CCN(CC)CCc1nc(no1)c2ccccc2

> <Substance_modify_yyyymmdd>
20100107

$$$$
