19504-77-9
ChemmineR-0915142007XD

 21 21  0  0  0  0  0  0  0  0  1 V2000
    0.0000  -11.0479    0.0000 C   0  0  0  0  0  0  0  0  0  0  0  0
    0.8949  -10.0647    0.0000 C   0  0  0  0  0  0  0  0  0  0  0  0
    2.1875  -10.3409    0.0000 C   0  0  0  0  0  0  0  0  0  0  0  0
    3.0824   -9.3466    0.0000 C   0  0  0  0  0  0  0  0  0  0  0  0
    4.3860   -9.6228    0.0000 C   0  0  0  0  0  0  0  0  0  0  0  0
    4.7948  -10.8933    0.0000 O   0  0  0  0  0  0  0  0  0  0  0  0
    5.2699   -8.6395    0.0000 C   0  0  0  0  0  0  0  0  0  0  0  0
    6.5735   -8.9157    0.0000 C   0  0  0  0  0  0  0  0  0  0  0  0
    6.9823  -10.1751    0.0000 C   0  0  0  0  0  0  0  0  0  0  0  0
    7.4684   -7.9214    0.0000 C   0  0  0  0  0  0  0  0  0  0  0  0
    7.0486   -6.6619    0.0000 C   0  0  0  0  0  0  0  0  0  0  0  0
    7.9435   -5.6676    0.0000 C   0  0  0  0  0  0  0  0  0  0  0  0
    7.5347   -4.4081    0.0000 C   0  0  0  0  0  0  0  0  0  0  0  0
    8.4185   -3.4138    0.0000 C   0  0  0  0  0  0  0  0  0  0  0  0
    9.7222   -3.6900    0.0000 O   0  0  0  0  0  0  0  0  0  0  0  0
    8.0098   -2.1543    0.0000 N   0  0  0  0  0  0  0  0  0  0  0  0
    8.7942   -1.0716    0.0000 C   0  0  0  0  0  0  0  0  0  0  0  0
    8.0098    0.0000    0.0000 C   0  0  0  0  0  0  0  0  0  0  0  0
    6.7503   -0.4088    0.0000 C   0  0  0  0  0  0  0  0  0  0  0  0
    6.7503   -1.7456    0.0000 C   0  0  0  0  0  0  0  0  0  0  0  0
    5.6676   -2.5189    0.0000 O   0  0  0  0  0  0  0  0  0  0  0  0
  1  2  1  0  0  0  0
  2  3  1  0  0  0  0
  3  4  1  0  0  0  0
  4  5  1  0  0  0  0
  5  6  1  0  0  0  0
  5  7  1  0  0  0  0
  7  8  2  0  0  0  0
  8  9  1  0  0  0  0
  8 10  1  0  0  0  0
 10 11  2  0  0  0  0
 11 12  1  0  0  0  0
 12 13  2  0  0  0  0
 13 14  1  0  0  0  0
 14 15  2  0  0  0  0
 14 16  1  0  0  0  0
 16 17  1  0  0  0  0
 16 20  1  0  0  0  0
 17 18  1  0  0  0  0
 18 19  1  0  0  0  0
 19 20  1  0  0  0  0
 20 21  2  0  0  0  0
M  END
> <ID>
16078

> <Formula>
C17H25NO3

> <FW>
291.3853

> <DSSTox_CID>
31465

> <DSSTox_RID>
97350

> <DSSTox_GSID>
57676

> <DSSTox_FileID_Sort>
8417

> <TS_ChemName>
Variotin

> <TS_ChemName_Synonyms>
Pecilocin

> <TS_CASRN>
19504-77-9

> <CASRN_ChemName_Relationship>
primary

> <TS_Description>
single chemical compound

> <ChemNote>


> <STRUCTURE_Shown>
tested chemical

> <STRUCTURE_Formula>
C17H25NO3

> <STRUCTURE_MW>
291.3853

> <STRUCTURE_ChemType>
defined organic

> <STRUCTURE_DefinedOrganicForm>
parent

> <STRUCTURE_IUPAC>
1-[(2E,4E,6E)-8-hydroxy-6-methyldodeca-2,4,6-trienoyl]pyrrolidin-2-one

> <STRUCTURE_SMILES>
O=C1CCCN1C(=O)/C=C/C=CC(\C)=C\C(O)CCCC

> <STRUCTURE_SMILES_Desalt>
O=C1CCCN1C(=O)/C=C/C=CC(\C)=C\C(O)CCCC

> <Substance_modify_yyyymmdd>
20131018

$$$$
