1954-79-6
ChemmineR-0915142007XD

 11 10  0  0  0  0  0  0  0  0  1 V2000
    3.4427   -3.3301    0.0000 N    0  0  0  0  0  0  0  0  0  0  0  0
    4.5981   -1.3273    0.0000 C    0  0  0  0  0  0  0  0  0  0  0  0
    4.5981   -2.6724    0.0000 C    0  0  0  0  0  0  0  0  0  0  0  0
    2.3050   -2.6724    0.0000 C    0  0  0  0  0  0  0  0  0  0  0  0
    2.3050   -1.3273    0.0000 O    0  0  0  0  0  0  0  0  0  0  0  0
    3.2649   -1.3273    0.0000 Cl   0  0  0  0  0  0  0  0  0  0  0  0
    4.5981    0.0000    0.0000 Cl   0  0  0  0  0  0  0  0  0  0  0  0
    5.9254   -1.3273    0.0000 Cl   0  0  0  0  0  0  0  0  0  0  0  0
    1.1377   -3.3301    0.0000 N    0  0  0  0  0  0  0  0  0  0  0  0
    5.7477   -3.3301    0.0000 O    0  0  0  0  0  0  0  0  0  0  0  0
    0.0000   -2.6724    0.0000 C    0  0  0  0  0  0  0  0  0  0  0  0
  1  3  1  0  0  0  0
  1  4  1  0  0  0  0
  2  3  1  0  0  0  0
  2  6  1  0  0  0  0
  2  7  1  0  0  0  0
  2  8  1  0  0  0  0
  3 10  1  0  0  0  0
  4  5  2  0  0  0  0
  4  9  1  0  0  0  0
  9 11  1  0  0  0  0
M  END
> <ID>
11631

> <Formula>
C4H7Cl3N2O2

> <FW>
221.4696

> <DSSTox_CID>
26383

> <DSSTox_RID>
81564

> <DSSTox_GSID>
46383

> <DSSTox_FileID_Sort>
6245

> <TS_ChemName>
Mecloralurea

> <TS_ChemName_Synonyms>


> <TS_CASRN>
1954-79-6

> <CASRN_ChemName_Relationship>
primary

> <TS_Description>
single chemical compound

> <ChemNote>


> <STRUCTURE_Shown>
tested chemical

> <STRUCTURE_Formula>
C4H7Cl3N2O2

> <STRUCTURE_MW>
221.4696

> <STRUCTURE_ChemType>
defined organic

> <STRUCTURE_DefinedOrganicForm>
parent

> <STRUCTURE_IUPAC>
1-methyl-3-(2,2,2-trichloro-1-hydroxyethyl)urea

> <STRUCTURE_SMILES>
CNC(=O)NC(O)C(Cl)(Cl)Cl

> <STRUCTURE_SMILES_Desalt>
CNC(=O)NC(O)C(Cl)(Cl)Cl

> <Substance_modify_yyyymmdd>
20110814

$$$$
