19562-30-2
ChemmineR-0915142007XD

 21 23  0  0  0  0  0  0  0  0  1 V2000
    3.9916    0.0000    0.0000 C   0  0  0  0  0  0  0  0  0  0  0  0
    4.6536   -1.1534    0.0000 C   0  0  0  0  0  0  0  0  0  0  0  0
    3.9916   -2.2967    0.0000 N   0  0  0  0  0  0  0  0  0  0  0  0
    2.6577   -2.2967    0.0000 C   0  0  0  0  0  0  0  0  0  0  0  0
    1.9958   -3.4501    0.0000 C   0  0  0  0  0  0  0  0  0  0  0  0
    0.6619   -3.4501    0.0000 C   0  0  0  0  0  0  0  0  0  0  0  0
    0.0000   -2.2967    0.0000 O   0  0  0  0  0  0  0  0  0  0  0  0
    0.0000   -4.6034    0.0000 O   0  0  0  0  0  0  0  0  0  0  0  0
    2.6577   -4.6034    0.0000 C   0  0  0  0  0  0  0  0  0  0  0  0
    1.9958   -5.7568    0.0000 O   0  0  0  0  0  0  0  0  0  0  0  0
    3.9916   -4.6034    0.0000 C   0  0  0  0  0  0  0  0  0  0  0  0
    4.6536   -3.4501    0.0000 C   0  0  0  0  0  0  0  0  0  0  0  0
    5.9875   -3.4501    0.0000 N   0  0  0  0  0  0  0  0  0  0  0  0
    6.6494   -4.6034    0.0000 C   0  0  0  0  0  0  0  0  0  0  0  0
    5.9875   -5.7568    0.0000 N   0  0  0  0  0  0  0  0  0  0  0  0
    4.6536   -5.7568    0.0000 C   0  0  0  0  0  0  0  0  0  0  0  0
    7.9833   -4.6034    0.0000 N   0  0  0  0  0  0  0  0  0  0  0  0
    8.7655   -3.5303    0.0000 C   0  0  0  0  0  0  0  0  0  0  0  0
   10.0292   -3.9415    0.0000 C   0  0  0  0  0  0  0  0  0  0  0  0
   10.0292   -5.2653    0.0000 C   0  0  0  0  0  0  0  0  0  0  0  0
    8.7655   -5.6765    0.0000 C   0  0  0  0  0  0  0  0  0  0  0  0
  1  2  1  0  0  0  0
  2  3  1  0  0  0  0
  3  4  1  0  0  0  0
  3 12  1  0  0  0  0
  4  5  2  0  0  0  0
  5  6  1  0  0  0  0
  5  9  1  0  0  0  0
  6  7  1  0  0  0  0
  6  8  2  0  0  0  0
  9 10  2  0  0  0  0
  9 11  1  0  0  0  0
 11 12  2  0  0  0  0
 11 16  1  0  0  0  0
 12 13  1  0  0  0  0
 13 14  2  0  0  0  0
 14 15  1  0  0  0  0
 14 17  1  0  0  0  0
 15 16  2  0  0  0  0
 17 18  1  0  0  0  0
 17 21  1  0  0  0  0
 18 19  1  0  0  0  0
 19 20  1  0  0  0  0
 20 21  1  0  0  0  0
M  END
> <ID>
10938

> <Formula>
C14H16N4O3

> <FW>
288.3018

> <DSSTox_CID>
25424

> <DSSTox_RID>
80870

> <DSSTox_GSID>
45424

> <DSSTox_FileID_Sort>
5551

> <TS_ChemName>
Piromidic acid

> <TS_ChemName_Synonyms>


> <TS_CASRN>
19562-30-2

> <CASRN_ChemName_Relationship>
primary

> <TS_Description>
single chemical compound

> <ChemNote>


> <STRUCTURE_Shown>
tested chemical

> <STRUCTURE_Formula>
C14H16N4O3

> <STRUCTURE_MW>
288.3018

> <STRUCTURE_ChemType>
defined organic

> <STRUCTURE_DefinedOrganicForm>
parent

> <STRUCTURE_IUPAC>
8-ethyl-5-oxo-2-(pyrrolidin-1-yl)-5,8-dihydropyrido[2,3-d]pyrimidine-6-carboxylic acid

> <STRUCTURE_SMILES>
O=C(O)C2=CN(CC)c1nc(ncc1C2=O)N3CCCC3

> <STRUCTURE_SMILES_Desalt>
O=C(O)C2=CN(CC)c1nc(ncc1C2=O)N3CCCC3

> <Substance_modify_yyyymmdd>
20100107

$$$$
