1961-77-9
ChemmineR-0915142007XD

 28 31  0  0  1  0  0  0  0  0  1 V2000
    3.4818   -5.8285    0.0000 C    0  0  0  0  0  0  0  0  0  0  0  0
    3.4818   -4.5025    0.0000 C    0  0  0  0  0  0  0  0  0  0  0  0
    6.9446   -2.4993    0.0000 C    0  0  0  0  0  0  0  0  0  0  0  0
    8.2037   -2.0796    0.0000 C    0  0  0  0  0  0  0  0  0  0  0  0
    5.8189   -4.5025    0.0000 C    0  0  0  0  0  0  0  0  0  0  0  0
    4.6456   -6.5344    0.0000 C    0  0  0  0  0  0  0  0  0  0  0  0
    5.8189   -5.8285    0.0000 C    0  0  0  0  0  0  0  0  0  0  0  0
    4.6456   -3.8443    0.0000 C    0  0  0  0  0  0  0  0  0  0  0  0
    6.9446   -3.8252    0.0000 C    0  0  0  0  0  0  0  0  0  0  0  0
    2.3562   -6.4867    0.0000 C    0  0  0  0  0  0  0  0  0  0  0  0
    5.7999   -1.8697    0.0000 C    0  0  0  0  0  0  0  0  0  0  0  0
    8.9955   -3.1384    0.0000 C    0  0  0  0  0  0  0  0  0  0  0  0
    9.5392   -2.0796    0.0000 O    0  0  0  0  0  0  0  0  0  0  0  0
    4.6456   -2.5279    0.0000 C    0  0  0  0  0  0  0  0  0  0  0  0
    8.2228   -4.2163    0.0000 C    0  0  0  0  0  0  0  0  0  0  0  0
    2.3562   -3.8443    0.0000 C    0  0  0  0  0  0  0  0  0  0  0  0
    8.2037   -0.7154    0.0000 C    0  0  0  0  0  0  0  0  0  0  0  0
    1.1829   -5.8285    0.0000 C    0  0  0  0  0  0  0  0  0  0  0  0
    6.9923   -0.0477    0.0000 O    0  0  0  0  0  0  0  0  0  0  0  0
    4.6456   -7.7554    0.0000 Cl   0  0  0  0  0  0  0  0  0  0  0  0
    0.0000   -6.5058    0.0000 O    0  0  0  0  0  0  0  0  0  0  0  0
    1.1829   -4.5025    0.0000 C    0  0  0  0  0  0  0  0  0  0  0  0
    3.4818   -3.1670    0.0000 C    0  0  0  0  0  0  0  0  0  0  0  0
    6.9446   -1.2115    0.0000 C    0  0  0  0  0  0  0  0  0  0  0  0
    9.3485    0.0000    0.0000 C    0  0  0  0  0  0  0  0  0  0  0  0
    5.8189   -3.1670    0.0000 H    0  0  0  0  0  0  0  0  0  0  0  0
    6.9446   -5.1607    0.0000 H    0  0  0  0  0  0  0  0  0  0  0  0
    4.6456   -5.1703    0.0000 H    0  0  0  0  0  0  0  0  0  0  0  0
  1  2  1  0  0  0  0
  1  6  1  0  0  0  0
  1 10  2  0  0  0  0
  2  8  1  0  0  0  0
  2 16  1  0  0  0  0
  2 23  1  1  0  0  0
  3  9  1  0  0  0  0
  3  4  1  0  0  0  0
  3 24  1  1  0  0  0
  3 11  1  0  0  0  0
  4 13  1  6  0  0  0
  4 17  1  1  0  0  0
  4 12  1  0  0  0  0
  5  7  1  0  0  0  0
  5  9  1  0  0  0  0
  5  8  1  0  0  0  0
  5 26  1  1  0  0  0
  6  7  2  0  0  0  0
  6 20  1  0  0  0  0
  8 14  1  0  0  0  0
  8 28  1  6  0  0  0
  9 15  1  0  0  0  0
  9 27  1  6  0  0  0
 10 18  1  0  0  0  0
 11 14  1  0  0  0  0
 12 15  1  0  0  0  0
 16 22  1  0  0  0  0
 17 19  2  0  0  0  0
 17 25  1  0  0  0  0
 18 21  2  0  0  0  0
 18 22  1  0  0  0  0
M  END
> <ID>
2530

> <Formula>
C21H27ClO3

> <FW>
362.8903

> <DSSTox_CID>
2796

> <DSSTox_RID>
76731

> <DSSTox_GSID>
22796

> <DSSTox_FileID_Sort>
1415

> <TS_ChemName>
Chlormadinone

> <TS_ChemName_Synonyms>


> <TS_CASRN>
1961-77-9

> <CASRN_ChemName_Relationship>
primary

> <TS_Description>
single chemical compound

> <ChemNote>
stereochem

> <STRUCTURE_Shown>
tested chemical

> <STRUCTURE_Formula>
C21H27ClO3

> <STRUCTURE_MW>
362.8903

> <STRUCTURE_ChemType>
defined organic

> <STRUCTURE_DefinedOrganicForm>
parent

> <STRUCTURE_IUPAC>
6-chloro-17-hydroxypregna-4,6-diene-3,20-dione

> <STRUCTURE_SMILES>
CC(=O)[C@@]3(O)CC[C@H]2[C@@H]4C=C(Cl)C1=CC(=O)CC[C@]1(C)[C@H]4CC[C@@]23C

> <STRUCTURE_SMILES_Desalt>
CC(=O)[C@@]3(O)CC[C@H]2[C@@H]4C=C(Cl)C1=CC(=O)CC[C@]1(C)[C@H]4CC[C@@]23C

> <Substance_modify_yyyymmdd>
20080429

$$$$
