19666-30-9
ChemmineR-0915142007XD

 22 23  0  0  0  0  0  0  0  0  1 V2000
    6.9087   -2.1293    0.0000 N    0  0  0  0  0  0  0  0  0  0  0  0
    8.1585   -2.5459    0.0000 N    0  0  0  0  0  0  0  0  0  0  0  0
    6.9087   -0.7985    0.0000 C    0  0  0  0  0  0  0  0  0  0  0  0
    8.1585   -0.3935    0.0000 O    0  0  0  0  0  0  0  0  0  0  0  0
    8.9107   -1.4697    0.0000 C    0  0  0  0  0  0  0  0  0  0  0  0
    5.7630   -2.8005    0.0000 C    0  0  0  0  0  0  0  0  0  0  0  0
    4.6058   -2.1293    0.0000 C    0  0  0  0  0  0  0  0  0  0  0  0
    5.7630   -4.1313    0.0000 C    0  0  0  0  0  0  0  0  0  0  0  0
    3.4601   -2.8005    0.0000 C    0  0  0  0  0  0  0  0  0  0  0  0
    4.6058   -4.8025    0.0000 C    0  0  0  0  0  0  0  0  0  0  0  0
    3.4601   -4.1313    0.0000 C    0  0  0  0  0  0  0  0  0  0  0  0
   10.2415   -1.4697    0.0000 C    0  0  0  0  0  0  0  0  0  0  0  0
    5.8440    0.0000    0.0000 O    0  0  0  0  0  0  0  0  0  0  0  0
    2.2913   -2.1177    0.0000 O    0  0  0  0  0  0  0  0  0  0  0  0
    6.9087   -4.8141    0.0000 Cl   0  0  0  0  0  0  0  0  0  0  0  0
    2.2913   -4.8141    0.0000 Cl   0  0  0  0  0  0  0  0  0  0  0  0
    1.1572   -2.7773    0.0000 C    0  0  0  0  0  0  0  0  0  0  0  0
   10.2415   -0.1389    0.0000 C    0  0  0  0  0  0  0  0  0  0  0  0
   10.2415   -2.8005    0.0000 C    0  0  0  0  0  0  0  0  0  0  0  0
   11.5723   -1.4697    0.0000 C    0  0  0  0  0  0  0  0  0  0  0  0
    0.0000   -2.1177    0.0000 C    0  0  0  0  0  0  0  0  0  0  0  0
    1.1572   -4.1197    0.0000 C    0  0  0  0  0  0  0  0  0  0  0  0
  1  2  1  0  0  0  0
  1  3  1  0  0  0  0
  1  6  1  0  0  0  0
  2  5  2  0  0  0  0
  3  4  1  0  0  0  0
  3 13  2  0  0  0  0
  4  5  1  0  0  0  0
  5 12  1  0  0  0  0
  6  7  1  0  0  0  0
  6  8  2  0  0  0  0
  7  9  2  0  0  0  0
  8 10  1  0  0  0  0
  8 15  1  0  0  0  0
  9 14  1  0  0  0  0
  9 11  1  0  0  0  0
 10 11  2  0  0  0  0
 11 16  1  0  0  0  0
 12 18  1  0  0  0  0
 12 19  1  0  0  0  0
 12 20  1  0  0  0  0
 14 17  1  0  0  0  0
 17 21  1  0  0  0  0
 17 22  1  0  0  0  0
M  END
> <ID>
3575

> <Formula>
C15H18Cl2N2O3

> <FW>
345.221

> <DSSTox_CID>
4239

> <DSSTox_RID>
77336

> <DSSTox_GSID>
24239

> <DSSTox_FileID_Sort>
2019

> <TS_ChemName>
Oxadiazon

> <TS_ChemName_Synonyms>


> <TS_CASRN>
19666-30-9

> <CASRN_ChemName_Relationship>
primary

> <TS_Description>
single chemical compound

> <ChemNote>


> <STRUCTURE_Shown>
tested chemical

> <STRUCTURE_Formula>
C15H18Cl2N2O3

> <STRUCTURE_MW>
345.221

> <STRUCTURE_ChemType>
defined organic

> <STRUCTURE_DefinedOrganicForm>
parent

> <STRUCTURE_IUPAC>
5-tert-butyl-3-[2,4-dichloro-5-(propan-2-yloxy)phenyl]-1,3,4-oxadiazol-2(3H)-one

> <STRUCTURE_SMILES>
O=C2OC(=NN2c1cc(OC(C)C)c(Cl)cc1Cl)C(C)(C)C

> <STRUCTURE_SMILES_Desalt>
O=C2OC(=NN2c1cc(OC(C)C)c(Cl)cc1Cl)C(C)(C)C

> <Substance_modify_yyyymmdd>
20080429

$$$$
