196618-13-0_1
ChemmineR-0915142007XD

 32 31  0  0  1  0  0  0  0  0  1 V2000
    4.5942   -5.3216    0.0000 O   0  0  0  0  0  0  0  0  0  0  0  0
    3.4669   -5.9761    0.0000 C   0  0  0  0  0  0  0  0  0  0  0  0
    3.4669   -7.3217    0.0000 C   0  0  0  0  0  0  0  0  0  0  0  0
    2.2911   -7.9642    0.0000 C   0  0  0  0  0  0  0  0  0  0  0  0
    2.3032   -5.3094    0.0000 C   0  0  0  0  0  0  0  0  0  0  0  0
    1.1395   -5.9640    0.0000 C   0  0  0  0  0  0  0  0  0  0  0  0
    3.4669   -1.9880    0.0000 C   0  0  0  0  0  0  0  0  0  0  0  0
    3.4669   -3.3214    0.0000 C   0  0  0  0  0  0  0  0  0  0  0  0
    4.6306   -4.0003    0.0000 C   0  0  0  0  0  0  0  0  0  0  0  0
    5.7580   -3.3214    0.0000 C   0  0  0  0  0  0  0  0  0  0  0  0
    5.7580   -1.9880    0.0000 C   0  0  0  0  0  0  0  0  0  0  0  0
    4.6306   -1.3334    0.0000 C   0  0  0  0  0  0  0  0  0  0  0  0
    6.9095   -1.3334    0.0000 C   0  0  0  0  0  0  0  0  0  0  0  0
    8.0733   -2.0001    0.0000 O   0  0  0  0  0  0  0  0  0  0  0  0
    9.2370   -1.3334    0.0000 C   0  0  0  0  0  0  0  0  0  0  0  0
   10.3764   -2.0001    0.0000 C   0  0  0  0  0  0  0  0  0  0  0  0
    6.9095    0.0000    0.0000 O   0  0  0  0  0  0  0  0  0  0  0  0
    2.3032   -1.3092    0.0000 N   0  0  0  0  0  0  0  0  0  0  0  0
    2.3032   -3.9881    0.0000 N   0  0  0  0  0  0  0  0  0  0  0  0
    1.1395   -3.3214    0.0000 C   0  0  0  0  0  0  0  0  0  0  0  0
    0.0000   -3.9881    0.0000 C   0  0  0  0  0  0  0  0  0  0  0  0
    1.1395   -1.9880    0.0000 O   0  0  0  0  0  0  0  0  0  0  0  0
    8.6672   -5.5761    0.0000 C   0  0  0  0  0  0  0  0  0  0  0  0
    9.8309   -6.2186    0.0000 C   0  0  0  0  0  0  0  0  0  0  0  0
    7.5156   -6.2186    0.0000 C   0  0  0  0  0  0  0  0  0  0  0  0
   10.9825   -5.5761    0.0000 C   0  0  0  0  0  0  0  0  0  0  0  0
   10.9825   -4.2427    0.0000 O   0  0  0  0  0  0  0  0  0  0  0  0
    7.5156   -7.5641    0.0000 O   0  0  0  0  0  0  0  0  0  0  0  0
   12.1220   -6.2186    0.0000 O   0  0  0  0  0  0  0  0  0  0  0  0
    6.3883   -5.5761    0.0000 O   0  0  0  0  0  0  0  0  0  0  0  0
    9.8309   -7.5641    0.0000 O   0  0  0  0  0  0  0  0  0  0  0  0
    8.6672   -4.2427    0.0000 O   0  0  0  0  0  0  0  0  0  0  0  0
  1  2  1  0  0  0  0
  9  1  1  1  0  0  0
  2  5  1  0  0  0  0
  2  3  1  0  0  0  0
  3  4  1  0  0  0  0
  5  6  1  0  0  0  0
  7  8  1  0  0  0  0
  7 18  1  1  0  0  0
  7 12  1  0  0  0  0
  8 19  1  6  0  0  0
  8  9  1  0  0  0  0
  9 10  1  0  0  0  0
 10 11  2  0  0  0  0
 11 12  1  0  0  0  0
 11 13  1  0  0  0  0
 13 14  1  0  0  0  0
 13 17  2  0  0  0  0
 14 15  1  0  0  0  0
 15 16  1  0  0  0  0
 19 20  1  0  0  0  0
 20 21  1  0  0  0  0
 20 22  2  0  0  0  0
 23 24  1  0  0  0  0
 23 25  1  0  0  0  0
 23 32  1  0  0  0  0
 24 26  1  0  0  0  0
 24 31  1  0  0  0  0
 25 28  2  0  0  0  0
 25 30  1  0  0  0  0
 26 27  2  0  0  0  0
 26 29  1  0  0  0  0
M  END
> <ID>
11318

> <Formula>
C20H34N2O10

> <FW>
462.4914 (312.4045+150.0868)

> <DSSTox_CID>
25954

> <DSSTox_RID>
81250

> <DSSTox_GSID>
45954

> <DSSTox_FileID_Sort>
5931

> <TS_ChemName>
Oseltamivir tartrate

> <TS_ChemName_Synonyms>


> <TS_CASRN>
196618-13-0_1

> <CASRN_ChemName_Relationship>
CAS for parent

> <TS_Description>
single chemical compound

> <ChemNote>
stereochem; parent [196618-13-0]

> <STRUCTURE_Shown>
tested chemical

> <STRUCTURE_Formula>
C20H34N2O10

> <STRUCTURE_MW>
462.4914

> <STRUCTURE_ChemType>
defined organic

> <STRUCTURE_DefinedOrganicForm>
complex

> <STRUCTURE_IUPAC>
2,3-dihydroxybutanedioic acid - ethyl (3R,4R,5S)-4-(acetylamino)-5-amino-3-(pentan-3-yloxy)cyclohex-1-ene-1-carboxylate (1:1)

> <STRUCTURE_SMILES>
O=C(O)C(O)C(O)C(=O)O.O=C(OCC)C1=C[C@@H](OC(CC)CC)[C@H](NC(C)=O)[C@@H](N)C1

> <STRUCTURE_SMILES_Desalt>
O=C(OCC)C1=C[C@@H](OC(CC)CC)[C@H](NC(C)=O)[C@@H](N)C1

> <Substance_modify_yyyymmdd>
20130911

$$$$
