196808-45-4
ChemmineR-0915142007XD

 41 45  0  0  1  0  0  0  0  0  1 V2000
   16.1804   -3.7538    0.0000 C   0  0  0  0  0  0  0  0  0  0  0  0
   15.2904   -4.7408    0.0000 C   0  0  0  0  0  0  0  0  0  0  0  0
   15.5655   -6.0515    0.0000 O   0  0  0  0  0  0  0  0  0  0  0  0
   14.4167   -6.7148    0.0000 C   0  0  0  0  0  0  0  0  0  0  0  0
   13.4459   -5.8249    0.0000 N   0  0  0  0  0  0  0  0  0  0  0  0
   13.9637   -4.5952    0.0000 C   0  0  0  0  0  0  0  0  0  0  0  0
   13.3164   -3.4626    0.0000 C   0  0  0  0  0  0  0  0  0  0  0  0
   11.9735   -3.4626    0.0000 C   0  0  0  0  0  0  0  0  0  0  0  0
   11.3101   -2.3138    0.0000 O   0  0  0  0  0  0  0  0  0  0  0  0
    9.9671   -2.3138    0.0000 C   0  0  0  0  0  0  0  0  0  0  0  0
    9.3199   -3.4626    0.0000 C   0  0  0  0  0  0  0  0  0  0  0  0
    7.9931   -3.4626    0.0000 C   0  0  0  0  0  0  0  0  0  0  0  0
    7.3135   -2.3138    0.0000 C   0  0  0  0  0  0  0  0  0  0  0  0
    5.9867   -2.3138    0.0000 C   0  0  0  0  0  0  0  0  0  0  0  0
    5.3233   -3.4626    0.0000 C   0  0  0  0  0  0  0  0  0  0  0  0
    3.9965   -3.4626    0.0000 N   0  0  0  0  0  0  0  0  0  0  0  0
    3.3170   -4.5952    0.0000 C   0  0  0  0  0  0  0  0  0  0  0  0
    3.9965   -5.7602    0.0000 C   0  0  0  0  0  0  0  0  0  0  0  0
    3.3170   -6.9090    0.0000 C   0  0  0  0  0  0  0  0  0  0  0  0
    1.9902   -6.9090    0.0000 C   0  0  0  0  0  0  0  0  0  0  0  0
    1.3268   -5.7602    0.0000 C   0  0  0  0  0  0  0  0  0  0  0  0
    1.9902   -4.5952    0.0000 C   0  0  0  0  0  0  0  0  0  0  0  0
    1.3268   -3.4626    0.0000 C   0  0  0  0  0  0  0  0  0  0  0  0
    0.0000   -3.4626    0.0000 O   0  0  0  0  0  0  0  0  0  0  0  0
    1.9902   -2.3138    0.0000 C   0  0  0  0  0  0  0  0  0  0  0  0
    1.3268   -1.1488    0.0000 C   0  0  0  0  0  0  0  0  0  0  0  0
    1.9902    0.0000    0.0000 C   0  0  0  0  0  0  0  0  0  0  0  0
    3.3170    0.0000    0.0000 C   0  0  0  0  0  0  0  0  0  0  0  0
    3.9965   -1.1488    0.0000 C   0  0  0  0  0  0  0  0  0  0  0  0
    3.3170   -2.3138    0.0000 C   0  0  0  0  0  0  0  0  0  0  0  0
    5.9867   -4.5952    0.0000 C   0  0  0  0  0  0  0  0  0  0  0  0
    5.3233   -5.7602    0.0000 O   0  0  0  0  0  0  0  0  0  0  0  0
    7.3135   -4.5952    0.0000 O   0  0  0  0  0  0  0  0  0  0  0  0
    7.9931   -1.1488    0.0000 C   0  0  0  0  0  0  0  0  0  0  0  0
    9.3199   -1.1488    0.0000 C   0  0  0  0  0  0  0  0  0  0  0  0
   14.2873   -8.0255    0.0000 C   0  0  0  0  0  0  0  0  0  0  0  0
   15.3552   -8.8183    0.0000 C   0  0  0  0  0  0  0  0  0  0  0  0
   15.2257  -10.1451    0.0000 C   0  0  0  0  0  0  0  0  0  0  0  0
   13.9960  -10.6790    0.0000 C   0  0  0  0  0  0  0  0  0  0  0  0
   12.9281   -9.9024    0.0000 C   0  0  0  0  0  0  0  0  0  0  0  0
   13.0737   -8.5756    0.0000 C   0  0  0  0  0  0  0  0  0  0  0  0
  1  2  1  0  0  0  0
  2  3  1  0  0  0  0
  2  6  2  0  0  0  0
  3  4  1  0  0  0  0
  4  5  2  0  0  0  0
  4 36  1  0  0  0  0
  5  6  1  0  0  0  0
  6  7  1  0  0  0  0
  7  8  1  0  0  0  0
  8  9  1  0  0  0  0
  9 10  1  0  0  0  0
 10 11  1  0  0  0  0
 10 35  2  0  0  0  0
 11 12  2  0  0  0  0
 12 13  1  0  0  0  0
 13 14  1  0  0  0  0
 13 34  2  0  0  0  0
 14 15  1  0  0  0  0
 15 16  1  0  0  0  0
 15 31  1  1  0  0  0
 16 17  1  0  0  0  0
 17 18  1  0  0  0  0
 17 22  2  0  0  0  0
 18 19  2  0  0  0  0
 19 20  1  0  0  0  0
 20 21  2  0  0  0  0
 21 22  1  0  0  0  0
 22 23  1  0  0  0  0
 23 24  2  0  0  0  0
 23 25  1  0  0  0  0
 25 26  1  0  0  0  0
 25 30  2  0  0  0  0
 26 27  2  0  0  0  0
 27 28  1  0  0  0  0
 28 29  2  0  0  0  0
 29 30  1  0  0  0  0
 31 32  2  0  0  0  0
 31 33  1  0  0  0  0
 34 35  1  0  0  0  0
 36 37  1  0  0  0  0
 36 41  2  0  0  0  0
 37 38  2  0  0  0  0
 38 39  1  0  0  0  0
 39 40  2  0  0  0  0
 40 41  1  0  0  0  0
M  END
> <ID>
12452

> <Formula>
C34H30N2O5

> <FW>
546.6124

> <DSSTox_CID>
27310

> <DSSTox_RID>
82260

> <DSSTox_GSID>
47310

> <DSSTox_FileID_Sort>
6941

> <TS_ChemName>
Farglitazar

> <TS_ChemName_Synonyms>


> <TS_CASRN>
196808-45-4

> <CASRN_ChemName_Relationship>
primary

> <TS_Description>
single chemical compound

> <ChemNote>
stereochem

> <STRUCTURE_Shown>
tested chemical

> <STRUCTURE_Formula>
C34H30N2O5

> <STRUCTURE_MW>
546.6124

> <STRUCTURE_ChemType>
defined organic

> <STRUCTURE_DefinedOrganicForm>
parent

> <STRUCTURE_IUPAC>
N-(2-benzoylphenyl)-O-[2-(5-methyl-2-phenyl-1,3-oxazol-4-yl)ethyl]-L-tyrosine

> <STRUCTURE_SMILES>
O=C(O)[C@@H](Nc2ccccc2C(=O)c1ccccc1)Cc3ccc(cc3)OCCc4nc(oc4C)c5ccccc5

> <STRUCTURE_SMILES_Desalt>
O=C(O)[C@@H](Nc2ccccc2C(=O)c1ccccc1)Cc3ccc(cc3)OCCc4nc(oc4C)c5ccccc5

> <Substance_modify_yyyymmdd>
20130910

$$$$
