197077-55-7
ChemmineR-0915142007XD

 29 32  0  0  0  0  0  0  0  0  2 V2000
    4.6461   -1.9744    0.0000 N    0  0  0  0  0  0  0  0  0  0  0  0
    4.6461   -4.7186    0.0000 C    0  0  0  0  0  0  0  0  0  0  0  0
    3.6318   -1.1955    0.0000 C    0  0  0  0  0  0  0  0  0  0  0  0
    5.6696   -1.1955    0.0000 C    0  0  0  0  0  0  0  0  0  0  0  0
    5.7601   -5.3435    0.0000 C    0  0  0  0  0  0  0  0  0  0  0  0
    3.5865   -5.3435    0.0000 C    0  0  0  0  0  0  0  0  0  0  0  0
    2.4363   -1.5849    0.0000 C    0  0  0  0  0  0  0  0  0  0  0  0
    4.0212    0.0000    0.0000 N    0  0  0  0  0  0  0  0  0  0  0  0
    5.2711    0.0000    0.0000 N    0  0  0  0  0  0  0  0  0  0  0  0
    6.8922   -1.5849    0.0000 C    0  0  0  0  0  0  0  0  0  0  0  0
    5.7601   -6.6386    0.0000 C    0  0  0  0  0  0  0  0  0  0  0  0
    6.8741   -4.7186    0.0000 N    0  0  0  0  0  0  0  0  0  0  0  0
    3.5865   -6.6386    0.0000 C    0  0  0  0  0  0  0  0  0  0  0  0
    2.4816   -4.7186    0.0000 Cl   0  0  0  0  0  0  0  0  0  0  0  0
    2.1646   -2.8348    0.0000 C    0  0  0  0  0  0  0  0  0  0  0  0
    1.4944   -0.7517    0.0000 C    0  0  0  0  0  0  0  0  0  0  0  0
    7.8341   -0.7517    0.0000 O    0  0  0  0  0  0  0  0  0  0  0  0
    4.6461   -7.2454    0.0000 C    0  0  0  0  0  0  0  0  0  0  0  0
    6.8741   -7.2454    0.0000 N    0  0  0  0  0  0  0  0  0  0  0  0
    7.9609   -5.3435    0.0000 C    0  0  0  0  0  0  0  0  0  0  0  0
    2.4816   -7.2454    0.0000 Cl   0  0  0  0  0  0  0  0  0  0  0  0
    0.9419   -3.2514    0.0000 N    0  3  0  0  0  0  0  0  0  0  0  0
    0.2717   -1.1321    0.0000 C    0  0  0  0  0  0  0  0  0  0  0  0
    9.0568   -1.1321    0.0000 C    0  0  0  0  0  0  0  0  0  0  0  0
    7.9609   -6.6386    0.0000 C    0  0  0  0  0  0  0  0  0  0  0  0
    9.0568   -4.7186    0.0000 O    0  0  0  0  0  0  0  0  0  0  0  0
    0.0000   -2.3819    0.0000 C    0  0  0  0  0  0  0  0  0  0  0  0
    0.5525   -4.9722    0.0000 O    0  5  0  0  0  0  0  0  0  0  0  0
    9.0568   -7.2454    0.0000 O    0  0  0  0  0  0  0  0  0  0  0  0
  1  2  1  0  0  0  0
  1  3  1  0  0  0  0
  1  4  1  0  0  0  0
  2  5  1  0  0  0  0
  2  6  2  0  0  0  0
  3  7  1  0  0  0  0
  3  8  2  0  0  0  0
  4  9  2  0  0  0  0
  4 10  1  0  0  0  0
  5 11  2  0  0  0  0
  5 12  1  0  0  0  0
  6 13  1  0  0  0  0
  6 14  1  0  0  0  0
  7 15  2  0  0  0  0
  7 16  1  0  0  0  0
  8  9  1  0  0  0  0
 10 17  1  0  0  0  0
 11 18  1  0  0  0  0
 11 19  1  0  0  0  0
 12 20  1  0  0  0  0
 13 21  1  0  0  0  0
 13 18  2  0  0  0  0
 15 22  1  0  0  0  0
 16 23  2  0  0  0  0
 17 24  1  0  0  0  0
 19 25  1  0  0  0  0
 20 26  2  0  0  0  0
 20 25  1  0  0  0  0
 22 27  2  0  0  0  0
 22 28  1  0  0  0  0
 23 27  1  0  0  0  0
 25 29  2  0  0  0  0
M  END
> <ID>
12429

> <Formula>
C17H12Cl2N6O4

> <FW>
435.221

> <DSSTox_CID>
27287

> <DSSTox_RID>
82241

> <DSSTox_GSID>
47287

> <DSSTox_FileID_Sort>
6922

> <TS_ChemName>
UK-333747

> <TS_ChemName_Synonyms>


> <TS_CASRN>
197077-55-7

> <CASRN_ChemName_Relationship>
primary

> <TS_Description>
single chemical compound

> <ChemNote>
ammonium

> <STRUCTURE_Shown>
tested chemical

> <STRUCTURE_Formula>
C17H12Cl2N6O4

> <STRUCTURE_MW>
435.221

> <STRUCTURE_ChemType>
defined organic

> <STRUCTURE_DefinedOrganicForm>
parent

> <STRUCTURE_IUPAC>
6,7-dichloro-5-[3-(methoxymethyl)-5-(1-oxidopyridin-3-yl)-4H-1,2,4-triazol-4-yl]-1,4-dihydroquinoxaline-2,3-dione

> <STRUCTURE_SMILES>
[O-][n+]1cccc(c1)c4nnc(COC)n4c2c(Cl)c(Cl)cc3NC(=O)C(=O)Nc23

> <STRUCTURE_SMILES_Desalt>
O[n+]1cccc(c1)c4nnc(COC)n4c2c(Cl)c(Cl)cc3NC(=O)C(=O)Nc23

> <Substance_modify_yyyymmdd>
20130910

$$$$
