19719-28-9
ChemmineR-0915142007XD

 12 12  0  0  0  0  0  0  0  0  1 V2000
    4.5907    0.0000    0.0000 C    0  0  0  0  0  0  0  0  0  0  0  0
    3.4516   -0.6420    0.0000 C    0  0  0  0  0  0  0  0  0  0  0  0
    3.4516   -1.9605    0.0000 C    0  0  0  0  0  0  0  0  0  0  0  0
    2.2988    0.0000    0.0000 C    0  0  0  0  0  0  0  0  0  0  0  0
    2.2988   -2.6509    0.0000 C    0  0  0  0  0  0  0  0  0  0  0  0
    1.1390   -0.6420    0.0000 C    0  0  0  0  0  0  0  0  0  0  0  0
    1.1390   -1.9605    0.0000 C    0  0  0  0  0  0  0  0  0  0  0  0
    4.6045   -2.6509    0.0000 Cl   0  0  0  0  0  0  0  0  0  0  0  0
    0.0000   -2.6509    0.0000 Cl   0  0  0  0  0  0  0  0  0  0  0  0
    5.7504   -0.6765    0.0000 C    0  0  0  0  0  0  0  0  0  0  0  0
    6.9033   -0.0207    0.0000 O    0  0  0  0  0  0  0  0  0  0  0  0
    5.7504   -2.0088    0.0000 O    0  0  0  0  0  0  0  0  0  0  0  0
  1  2  1  0  0  0  0
  1 10  1  0  0  0  0
  2  3  2  0  0  0  0
  2  4  1  0  0  0  0
  3  5  1  0  0  0  0
  3  8  1  0  0  0  0
  4  6  2  0  0  0  0
  5  7  2  0  0  0  0
  6  7  1  0  0  0  0
  7  9  1  0  0  0  0
 10 11  1  0  0  0  0
 10 12  2  0  0  0  0
M  END
> <ID>
8329

> <Formula>
C8H6Cl2O2

> <FW>
205.038

> <DSSTox_CID>
21363

> <DSSTox_RID>
79700

> <DSSTox_GSID>
41363

> <DSSTox_FileID_Sort>
4382

> <TS_ChemName>
2,4-Dichlorophenylacetic acid

> <TS_ChemName_Synonyms>


> <TS_CASRN>
19719-28-9

> <CASRN_ChemName_Relationship>
primary

> <TS_Description>
single chemical compound

> <ChemNote>


> <STRUCTURE_Shown>
tested chemical

> <STRUCTURE_Formula>
C8H6Cl2O2

> <STRUCTURE_MW>
205.038

> <STRUCTURE_ChemType>
defined organic

> <STRUCTURE_DefinedOrganicForm>
parent

> <STRUCTURE_IUPAC>
(2,4-dichlorophenyl)acetic acid

> <STRUCTURE_SMILES>
Clc1cc(Cl)ccc1CC(=O)O

> <STRUCTURE_SMILES_Desalt>
Clc1cc(Cl)ccc1CC(=O)O

> <Substance_modify_yyyymmdd>
20080825

$$$$
