19750-95-9
ChemmineR-0915142007XD

 14 13  0  0  0  0  0  0  0  0  1 V2000
    4.6016   -1.3163    0.0000 N    0  0  0  0  0  0  0  0  0  0  0  0
    5.7788   -1.9691    0.0000 C    0  0  0  0  0  0  0  0  0  0  0  0
    3.4566   -2.0012    0.0000 C    0  0  0  0  0  0  0  0  0  0  0  0
    2.3329   -1.3163    0.0000 C    0  0  0  0  0  0  0  0  0  0  0  0
    1.1451   -2.0012    0.0000 C    0  0  0  0  0  0  0  0  0  0  0  0
    6.9238   -1.3163    0.0000 N    0  0  0  0  0  0  0  0  0  0  0  0
    3.4566   -3.3175    0.0000 C    0  0  0  0  0  0  0  0  0  0  0  0
    1.1451   -3.3175    0.0000 C    0  0  0  0  0  0  0  0  0  0  0  0
    2.3329   -4.0023    0.0000 C    0  0  0  0  0  0  0  0  0  0  0  0
    0.0000   -4.0023    0.0000 Cl   0  0  0  0  0  0  0  0  0  0  0  0
    2.3329    0.0000    0.0000 C    0  0  0  0  0  0  0  0  0  0  0  0
    6.9238    0.0000    0.0000 C    0  0  0  0  0  0  0  0  0  0  0  0
    8.0689   -1.9691    0.0000 C    0  0  0  0  0  0  0  0  0  0  0  0
   10.7015   -2.0012    0.0000 Cl   0  0  0  0  0  0  0  0  0  0  0  0
  1  2  2  0  0  0  0
  1  3  1  0  0  0  0
  2  6  1  0  0  0  0
  3  4  1  0  0  0  0
  3  7  2  0  0  0  0
  4  5  2  0  0  0  0
  4 11  1  0  0  0  0
  5  8  1  0  0  0  0
  6 12  1  0  0  0  0
  6 13  1  0  0  0  0
  7  9  1  0  0  0  0
  8  9  2  0  0  0  0
  8 10  1  0  0  0  0
M  END
> <ID>
10460

> <Formula>
C10H14Cl2N2

> <FW>
233.1376 (196.6766+36.4609)

> <DSSTox_CID>
24811

> <DSSTox_RID>
80494

> <DSSTox_GSID>
44811

> <DSSTox_FileID_Sort>
5176

> <TS_ChemName>
Chlordimeform hydrochloride

> <TS_ChemName_Synonyms>


> <TS_CASRN>
19750-95-9

> <CASRN_ChemName_Relationship>
primary

> <TS_Description>
single chemical compound

> <ChemNote>
parent [6164-98-3]

> <STRUCTURE_Shown>
tested chemical

> <STRUCTURE_Formula>
C10H14Cl2N2

> <STRUCTURE_MW>
233.1376

> <STRUCTURE_ChemType>
defined organic

> <STRUCTURE_DefinedOrganicForm>
complex

> <STRUCTURE_IUPAC>
N'-(4-chloro-2-methylphenyl)-N,N-dimethylimidoformamide hydrochloride (1:1)

> <STRUCTURE_SMILES>
Cl.Clc1cc(C)c(/N=C/N(C)C)cc1

> <STRUCTURE_SMILES_Desalt>
Clc1cc(C)c(/N=C/N(C)C)cc1

> <Substance_modify_yyyymmdd>
20091116

$$$$
