1975-78-6
ChemmineR-0915142007XD

 11 10  0  0  0  0  0  0  0  0  1 V2000
    1.1390   -0.6673    0.0000 C   0  0  0  0  0  0  0  0  0  0  0  0
    2.2895    0.0000    0.0000 C   0  0  0  0  0  0  0  0  0  0  0  0
    3.4400   -0.6673    0.0000 C   0  0  0  0  0  0  0  0  0  0  0  0
    4.6019    0.0000    0.0000 C   0  0  0  0  0  0  0  0  0  0  0  0
    5.7524   -0.6673    0.0000 C   0  0  0  0  0  0  0  0  0  0  0  0
    6.9029    0.0000    0.0000 C   0  0  0  0  0  0  0  0  0  0  0  0
    8.0649   -0.6673    0.0000 C   0  0  0  0  0  0  0  0  0  0  0  0
    9.2154    0.0000    0.0000 C   0  0  0  0  0  0  0  0  0  0  0  0
   10.3659   -0.6673    0.0000 C   0  0  0  0  0  0  0  0  0  0  0  0
   11.5049    0.0000    0.0000 C   0  0  0  0  0  0  0  0  0  0  0  0
    0.0000   -1.3346    0.0000 N   0  0  0  0  0  0  0  0  0  0  0  0
  1  2  1  0  0  0  0
  1 11  3  0  0  0  0
  2  3  1  0  0  0  0
  3  4  1  0  0  0  0
  4  5  1  0  0  0  0
  5  6  1  0  0  0  0
  6  7  1  0  0  0  0
  7  8  1  0  0  0  0
  8  9  1  0  0  0  0
  9 10  1  0  0  0  0
M  END
> <ID>
5165

> <Formula>
C10H19N

> <FW>
153.2646

> <DSSTox_CID>
7449

> <DSSTox_RID>
78458

> <DSSTox_GSID>
27449

> <DSSTox_FileID_Sort>
3141

> <TS_ChemName>
Decanenitrile

> <TS_ChemName_Synonyms>


> <TS_CASRN>
1975-78-6

> <CASRN_ChemName_Relationship>
primary

> <TS_Description>
single chemical compound

> <ChemNote>


> <STRUCTURE_Shown>
tested chemical

> <STRUCTURE_Formula>
C10H19N

> <STRUCTURE_MW>
153.2646

> <STRUCTURE_ChemType>
defined organic

> <STRUCTURE_DefinedOrganicForm>
parent

> <STRUCTURE_IUPAC>
decanenitrile

> <STRUCTURE_SMILES>
CCCCCCCCCC#N

> <STRUCTURE_SMILES_Desalt>
CCCCCCCCCC#N

> <Substance_modify_yyyymmdd>
20080429

$$$$
