19774-82-4
ChemmineR-0915142007XD

 32 33  0  0  0  0  0  0  0  0  1 V2000
    3.7137   -2.6739    0.0000 C    0  0  0  0  0  0  0  0  0  0  0  0
    3.5537   -1.3712    0.0000 C    0  0  0  0  0  0  0  0  0  0  0  0
    4.8678   -3.3137    0.0000 C    0  0  0  0  0  0  0  0  0  0  0  0
    2.2739   -1.1198    0.0000 O    0  0  0  0  0  0  0  0  0  0  0  0
    4.8678   -4.6392    0.0000 C    0  0  0  0  0  0  0  0  0  0  0  0
    2.5253   -3.2223    0.0000 C    0  0  0  0  0  0  0  0  0  0  0  0
    1.6454   -2.2511    0.0000 C    0  0  0  0  0  0  0  0  0  0  0  0
    4.9135   -7.3588    0.0000 C    0  0  0  0  0  0  0  0  0  0  0  0
    6.0790   -6.7075    0.0000 C    0  0  0  0  0  0  0  0  0  0  0  0
    3.7822   -6.7075    0.0000 C    0  0  0  0  0  0  0  0  0  0  0  0
    3.7822   -5.3591    0.0000 C    0  0  0  0  0  0  0  0  0  0  0  0
    6.0790   -5.3591    0.0000 C    0  0  0  0  0  0  0  0  0  0  0  0
    6.0790   -2.6281    0.0000 O    0  0  0  0  0  0  0  0  0  0  0  0
    2.5939   -7.3588    0.0000 I    0  0  0  0  0  0  0  0  0  0  0  0
    7.2788   -7.4388    0.0000 I    0  0  0  0  0  0  0  0  0  0  0  0
    4.9135   -8.7414    0.0000 O    0  0  0  0  0  0  0  0  0  0  0  0
    4.5136   -0.4913    0.0000 C    0  0  0  0  0  0  0  0  0  0  0  0
    1.4740   -9.4613    0.0000 N    0  0  0  0  0  0  0  0  0  0  0  0
    2.1482   -4.4450    0.0000 C    0  0  0  0  0  0  0  0  0  0  0  0
    3.8051   -9.4156    0.0000 C    0  0  0  0  0  0  0  0  0  0  0  0
    0.3885   -2.5482    0.0000 C    0  0  0  0  0  0  0  0  0  0  0  0
    2.5939   -8.7757    0.0000 C    0  0  0  0  0  0  0  0  0  0  0  0
    1.4740  -10.7754    0.0000 C    0  0  0  0  0  0  0  0  0  0  0  0
    0.2400   -8.8557    0.0000 C    0  0  0  0  0  0  0  0  0  0  0  0
    5.7476   -0.8799    0.0000 C    0  0  0  0  0  0  0  0  0  0  0  0
    6.7075    0.0000    0.0000 C    0  0  0  0  0  0  0  0  0  0  0  0
    0.2400   -7.4731    0.0000 C    0  0  0  0  0  0  0  0  0  0  0  0
    2.7310  -11.4267    0.0000 C    0  0  0  0  0  0  0  0  0  0  0  0
    0.8799   -4.7421    0.0000 C    0  0  0  0  0  0  0  0  0  0  0  0
    0.0000   -3.7937    0.0000 C    0  0  0  0  0  0  0  0  0  0  0  0
    7.9416   -0.3885    0.0000 C    0  0  0  0  0  0  0  0  0  0  0  0
    9.8156   -3.9651    0.0000 Cl   0  0  0  0  0  0  0  0  0  0  0  0
  1  2  2  0  0  0  0
  1  3  1  0  0  0  0
  1  6  1  0  0  0  0
  2  4  1  0  0  0  0
  2 17  1  0  0  0  0
  3  5  1  0  0  0  0
  3 13  2  0  0  0  0
  4  7  1  0  0  0  0
  5 11  1  0  0  0  0
  5 12  2  0  0  0  0
  6  7  2  0  0  0  0
  6 19  1  0  0  0  0
  7 21  1  0  0  0  0
  8  9  2  0  0  0  0
  8 16  1  0  0  0  0
  8 10  1  0  0  0  0
  9 12  1  0  0  0  0
  9 15  1  0  0  0  0
 10 11  2  0  0  0  0
 10 14  1  0  0  0  0
 16 20  1  0  0  0  0
 17 25  1  0  0  0  0
 18 22  1  0  0  0  0
 18 23  1  0  0  0  0
 18 24  1  0  0  0  0
 19 29  2  0  0  0  0
 20 22  1  0  0  0  0
 21 30  2  0  0  0  0
 23 28  1  0  0  0  0
 24 27  1  0  0  0  0
 25 26  1  0  0  0  0
 26 31  1  0  0  0  0
 29 30  1  0  0  0  0
M  END
> <ID>
7267

> <Formula>
C25H30ClI2NO3

> <FW>
681.7725 (645.3116+36.4609)

> <DSSTox_CID>
17185

> <DSSTox_RID>
79304

> <DSSTox_GSID>
37185

> <DSSTox_FileID_Sort>
3986

> <TS_ChemName>
Amiodarone hydrochloride

> <TS_ChemName_Synonyms>


> <TS_CASRN>
19774-82-4

> <CASRN_ChemName_Relationship>
primary

> <TS_Description>
single chemical compound

> <ChemNote>
parent [1951-25-3]

> <STRUCTURE_Shown>
tested chemical

> <STRUCTURE_Formula>
C25H30ClI2NO3

> <STRUCTURE_MW>
681.7725

> <STRUCTURE_ChemType>
defined organic

> <STRUCTURE_DefinedOrganicForm>
complex

> <STRUCTURE_IUPAC>
(2-butyl-1-benzofuran-3-yl){4-[2-(diethylamino)ethoxy]-3,5-diiodophenyl}methanone hydrochloride (1:1)

> <STRUCTURE_SMILES>
Cl.CCN(CC)CCOc1c(I)cc(cc1I)C(=O)c2c3ccccc3oc2CCCC

> <STRUCTURE_SMILES_Desalt>
CCN(CC)CCOc1c(I)cc(cc1I)C(=O)c2c3ccccc3oc2CCCC

> <Substance_modify_yyyymmdd>
20080429

$$$$
