1977-11-3
ChemmineR-0915142007XD

 22 25  0  0  0  0  0  0  0  0  1 V2000
    4.1927   -4.4198    0.0000 C   0  0  0  0  0  0  0  0  0  0  0  0
    2.7548   -4.4198    0.0000 N   0  0  0  0  0  0  0  0  0  0  0  0
    4.9117   -3.2921    0.0000 N   0  0  0  0  0  0  0  0  0  0  0  0
    4.6846   -5.5323    0.0000 C   0  0  0  0  0  0  0  0  0  0  0  0
    2.3461   -5.5323    0.0000 C   0  0  0  0  0  0  0  0  0  0  0  0
    4.6846   -6.8794    0.0000 C   0  0  0  0  0  0  0  0  0  0  0  0
    3.5040   -7.5681    0.0000 C   0  0  0  0  0  0  0  0  0  0  0  0
    2.3461   -6.8794    0.0000 C   0  0  0  0  0  0  0  0  0  0  0  0
    6.1983   -1.0293    0.0000 N   0  0  0  0  0  0  0  0  0  0  0  0
    6.2285   -3.2921    0.0000 C   0  0  0  0  0  0  0  0  0  0  0  0
    4.2230   -2.1493    0.0000 C   0  0  0  0  0  0  0  0  0  0  0  0
    4.8739   -1.0293    0.0000 C   0  0  0  0  0  0  0  0  0  0  0  0
    6.8643   -2.1493    0.0000 C   0  0  0  0  0  0  0  0  0  0  0  0
    5.8880   -4.8436    0.0000 C   0  0  0  0  0  0  0  0  0  0  0  0
    5.8880   -7.5681    0.0000 C   0  0  0  0  0  0  0  0  0  0  0  0
    6.7205    0.0000    0.0000 C   0  0  0  0  0  0  0  0  0  0  0  0
    1.1731   -4.8436    0.0000 C   0  0  0  0  0  0  0  0  0  0  0  0
    1.1731   -7.5681    0.0000 C   0  0  0  0  0  0  0  0  0  0  0  0
    7.0610   -5.5323    0.0000 C   0  0  0  0  0  0  0  0  0  0  0  0
    7.0610   -6.8794    0.0000 C   0  0  0  0  0  0  0  0  0  0  0  0
    0.0000   -5.5323    0.0000 C   0  0  0  0  0  0  0  0  0  0  0  0
    0.0000   -6.8794    0.0000 C   0  0  0  0  0  0  0  0  0  0  0  0
  1  2  2  0  0  0  0
  1  3  1  0  0  0  0
  1  4  1  0  0  0  0
  2  5  1  0  0  0  0
  3 10  1  0  0  0  0
  3 11  1  0  0  0  0
  4  6  2  0  0  0  0
  4 14  1  0  0  0  0
  5  8  2  0  0  0  0
  5 17  1  0  0  0  0
  6  7  1  0  0  0  0
  6 15  1  0  0  0  0
  7  8  1  0  0  0  0
  8 18  1  0  0  0  0
  9 12  1  0  0  0  0
  9 16  1  0  0  0  0
  9 13  1  0  0  0  0
 10 13  1  0  0  0  0
 11 12  1  0  0  0  0
 14 19  2  0  0  0  0
 15 20  2  0  0  0  0
 17 21  2  0  0  0  0
 18 22  2  0  0  0  0
 19 20  1  0  0  0  0
 21 22  1  0  0  0  0
M  END
> <ID>
13748

> <Formula>
C19H21N3

> <FW>
291.3901

> <DSSTox_CID>
28684

> <DSSTox_RID>
82954

> <DSSTox_GSID>
48758

> <DSSTox_FileID_Sort>
7631

> <TS_ChemName>
Perlapine

> <TS_ChemName_Synonyms>


> <TS_CASRN>
1977-11-3

> <CASRN_ChemName_Relationship>
primary

> <TS_Description>
single chemical compound

> <ChemNote>
stereochem

> <STRUCTURE_Shown>
tested chemical

> <STRUCTURE_Formula>
C19H21N3

> <STRUCTURE_MW>
291.3901

> <STRUCTURE_ChemType>
defined organic

> <STRUCTURE_DefinedOrganicForm>
parent

> <STRUCTURE_IUPAC>
6-(4-methylpiperazin-1-yl)-11H-dibenzo[b,e]azepine

> <STRUCTURE_SMILES>
CN1CCN(CC1)C2=Nc4ccccc4Cc3ccccc23

> <STRUCTURE_SMILES_Desalt>
CN1CCN(CC1)C2=Nc4ccccc4Cc3ccccc23

> <Substance_modify_yyyymmdd>
20111204

$$$$
