1982-49-6
ChemmineR-0915142007XD

 17 18  0  0  0  0  0  0  0  0  1 V2000
    4.6037   -2.0164    0.0000 C   0  0  0  0  0  0  0  0  0  0  0  0
    3.4712   -2.6702    0.0000 N   0  0  0  0  0  0  0  0  0  0  0  0
    5.7547   -2.6702    0.0000 N   0  0  0  0  0  0  0  0  0  0  0  0
    2.3019   -1.9980    0.0000 C   0  0  0  0  0  0  0  0  0  0  0  0
    4.6037   -0.6721    0.0000 O   0  0  0  0  0  0  0  0  0  0  0  0
    1.1509   -2.6702    0.0000 C   0  0  0  0  0  0  0  0  0  0  0  0
    6.9056   -2.0164    0.0000 C   0  0  0  0  0  0  0  0  0  0  0  0
    2.3019   -0.6721    0.0000 C   0  0  0  0  0  0  0  0  0  0  0  0
    1.1509   -3.9960    0.0000 C   0  0  0  0  0  0  0  0  0  0  0  0
    0.0000   -1.9980    0.0000 C   0  0  0  0  0  0  0  0  0  0  0  0
    6.9056   -0.6721    0.0000 C   0  0  0  0  0  0  0  0  0  0  0  0
    8.0565   -2.6702    0.0000 C   0  0  0  0  0  0  0  0  0  0  0  0
    1.1509    0.0000    0.0000 C   0  0  0  0  0  0  0  0  0  0  0  0
    0.0000   -0.6721    0.0000 C   0  0  0  0  0  0  0  0  0  0  0  0
    9.2075   -2.0164    0.0000 C   0  0  0  0  0  0  0  0  0  0  0  0
    8.0565   -0.0184    0.0000 C   0  0  0  0  0  0  0  0  0  0  0  0
    9.2075   -0.6721    0.0000 C   0  0  0  0  0  0  0  0  0  0  0  0
  1  2  1  0  0  0  0
  1  3  1  0  0  0  0
  1  5  2  0  0  0  0
  2  4  1  0  0  0  0
  3  7  1  0  0  0  0
  4  6  1  0  0  0  0
  4  8  1  0  0  0  0
  6  9  1  0  0  0  0
  6 10  1  0  0  0  0
  7 11  2  0  0  0  0
  7 12  1  0  0  0  0
  8 13  1  0  0  0  0
 10 14  1  0  0  0  0
 11 16  1  0  0  0  0
 12 15  2  0  0  0  0
 13 14  1  0  0  0  0
 15 17  1  0  0  0  0
 16 17  2  0  0  0  0
M  END
> <ID>
6469

> <Formula>
C14H20N2O

> <FW>
232.3214

> <DSSTox_CID>
12474

> <DSSTox_RID>
78952

> <DSSTox_GSID>
32474

> <DSSTox_FileID_Sort>
3634

> <TS_ChemName>
Siduron

> <TS_ChemName_Synonyms>


> <TS_CASRN>
1982-49-6

> <CASRN_ChemName_Relationship>
primary

> <TS_Description>
single chemical compound

> <ChemNote>


> <STRUCTURE_Shown>
tested chemical

> <STRUCTURE_Formula>
C14H20N2O

> <STRUCTURE_MW>
232.3214

> <STRUCTURE_ChemType>
defined organic

> <STRUCTURE_DefinedOrganicForm>
parent

> <STRUCTURE_IUPAC>
1-(2-methylcyclohexyl)-3-phenylurea

> <STRUCTURE_SMILES>
O=C(NC1CCCCC1C)Nc2ccccc2

> <STRUCTURE_SMILES_Desalt>
O=C(NC1CCCCC1C)Nc2ccccc2

> <Substance_modify_yyyymmdd>
20080429

$$$$
