1982-47-4
ChemmineR-0915142007XD

 20 21  0  0  0  0  0  0  0  0  1 V2000
   10.3673   -0.6681    0.0000 C    0  0  0  0  0  0  0  0  0  0  0  0
   11.5192    0.0000    0.0000 O    0  0  0  0  0  0  0  0  0  0  0  0
   10.3673   -1.9928    0.0000 N    0  0  0  0  0  0  0  0  0  0  0  0
    9.2154    0.0000    0.0000 N    0  0  0  0  0  0  0  0  0  0  0  0
    8.0635   -0.6681    0.0000 C    0  0  0  0  0  0  0  0  0  0  0  0
    8.0635   -1.9928    0.0000 C    0  0  0  0  0  0  0  0  0  0  0  0
    6.9115    0.0000    0.0000 C    0  0  0  0  0  0  0  0  0  0  0  0
    6.9115   -2.6609    0.0000 C    0  0  0  0  0  0  0  0  0  0  0  0
    5.7596   -0.6681    0.0000 C    0  0  0  0  0  0  0  0  0  0  0  0
    5.7596   -1.9928    0.0000 C    0  0  0  0  0  0  0  0  0  0  0  0
    4.6077   -2.6609    0.0000 O    0  0  0  0  0  0  0  0  0  0  0  0
    3.4558   -1.9928    0.0000 C    0  0  0  0  0  0  0  0  0  0  0  0
    2.3038   -2.6609    0.0000 C    0  0  0  0  0  0  0  0  0  0  0  0
    3.4558   -0.6681    0.0000 C    0  0  0  0  0  0  0  0  0  0  0  0
    1.1519   -1.9928    0.0000 C    0  0  0  0  0  0  0  0  0  0  0  0
    2.3038    0.0000    0.0000 C    0  0  0  0  0  0  0  0  0  0  0  0
    1.1519   -0.6681    0.0000 C    0  0  0  0  0  0  0  0  0  0  0  0
    0.0000    0.0000    0.0000 Cl   0  0  0  0  0  0  0  0  0  0  0  0
   11.5192   -2.6609    0.0000 C    0  0  0  0  0  0  0  0  0  0  0  0
    9.2154   -2.6609    0.0000 C    0  0  0  0  0  0  0  0  0  0  0  0
  1  2  2  0  0  0  0
  1  3  1  0  0  0  0
  1  4  1  0  0  0  0
  3 19  1  0  0  0  0
  3 20  1  0  0  0  0
  4  5  1  0  0  0  0
  5  6  2  0  0  0  0
  5  7  1  0  0  0  0
  6  8  1  0  0  0  0
  7  9  2  0  0  0  0
  8 10  2  0  0  0  0
  9 10  1  0  0  0  0
 10 11  1  0  0  0  0
 11 12  1  0  0  0  0
 12 13  2  0  0  0  0
 12 14  1  0  0  0  0
 13 15  1  0  0  0  0
 14 16  2  0  0  0  0
 15 17  2  0  0  0  0
 16 17  1  0  0  0  0
 17 18  1  0  0  0  0
M  END
> <ID>
7664

> <Formula>
C15H15ClN2O2

> <FW>
290.7448

> <DSSTox_CID>
20287

> <DSSTox_RID>
79471

> <DSSTox_GSID>
40287

> <DSSTox_FileID_Sort>
4153

> <TS_ChemName>
Chloroxuron

> <TS_ChemName_Synonyms>


> <TS_CASRN>
1982-47-4

> <CASRN_ChemName_Relationship>
primary

> <TS_Description>
single chemical compound

> <ChemNote>


> <STRUCTURE_Shown>
tested chemical

> <STRUCTURE_Formula>
C15H15ClN2O2

> <STRUCTURE_MW>
290.7448

> <STRUCTURE_ChemType>
defined organic

> <STRUCTURE_DefinedOrganicForm>
parent

> <STRUCTURE_IUPAC>
3-[4-(4-chlorophenoxy)phenyl]-1,1-dimethylurea

> <STRUCTURE_SMILES>
Clc2ccc(Oc1ccc(NC(=O)N(C)C)cc1)cc2

> <STRUCTURE_SMILES_Desalt>
Clc2ccc(Oc1ccc(NC(=O)N(C)C)cc1)cc2

> <Substance_modify_yyyymmdd>
20080429

$$$$
