1984-15-2
ChemmineR-0915142007XD

  9  8  0  0  0  0  0  0  0  0  1 V2000
    0.0000   -1.8163    0.0000 O   0  0  0  0  0  0  0  0  0  0  0  0
    1.1525   -1.1525    0.0000 P   0  0  0  0  0  0  0  0  0  0  0  0
    0.4887    0.0000    0.0000 O   0  0  0  0  0  0  0  0  0  0  0  0
    1.8163   -2.3050    0.0000 O   0  0  0  0  0  0  0  0  0  0  0  0
    2.3050   -0.4887    0.0000 C   0  0  0  0  0  0  0  0  0  0  0  0
    3.4575   -1.1525    0.0000 P   0  0  0  0  0  0  0  0  0  0  0  0
    4.1213    0.0000    0.0000 O   0  0  0  0  0  0  0  0  0  0  0  0
    4.6099   -1.8163    0.0000 O   0  0  0  0  0  0  0  0  0  0  0  0
    2.7936   -2.3050    0.0000 O   0  0  0  0  0  0  0  0  0  0  0  0
  1  2  1  0  0  0  0
  2  3  1  0  0  0  0
  2  4  2  0  0  0  0
  2  5  1  0  0  0  0
  5  6  1  0  0  0  0
  6  7  1  0  0  0  0
  6  8  1  0  0  0  0
  6  9  2  0  0  0  0
M  END
> <ID>
11137

> <Formula>
CH6O6P2

> <FW>
176.0023

> <DSSTox_CID>
25696

> <DSSTox_RID>
81068

> <DSSTox_GSID>
45696

> <DSSTox_FileID_Sort>
5749

> <TS_ChemName>
Medronic acid

> <TS_ChemName_Synonyms>


> <TS_CASRN>
1984-15-2

> <CASRN_ChemName_Relationship>
primary

> <TS_Description>
single chemical compound

> <ChemNote>


> <STRUCTURE_Shown>
tested chemical

> <STRUCTURE_Formula>
CH6O6P2

> <STRUCTURE_MW>
176.0023

> <STRUCTURE_ChemType>
defined organic

> <STRUCTURE_DefinedOrganicForm>
parent

> <STRUCTURE_IUPAC>
methanediylbis(phosphonic acid)

> <STRUCTURE_SMILES>
O=P(O)(O)CP(=O)(O)O

> <STRUCTURE_SMILES_Desalt>
O=P(O)(O)CP(=O)(O)O

> <Substance_modify_yyyymmdd>
20110819

$$$$
