198470-85-8
ChemmineR-0915142007XD

 27 28  0  0  0  0  0  0  0  0  2 V2000
    0.0000   -3.3057    0.0000 O    0  0  0  0  0  0  0  0  0  0  0  0
    0.7533   -2.2263    0.0000 N    0  0  0  0  0  0  0  0  0  0  0  0
    2.0239   -3.9803    0.0000 C    0  0  0  0  0  0  0  0  0  0  0  0
    0.7533   -4.3739    0.0000 C    0  0  0  0  0  0  0  0  0  0  0  0
    3.1820   -5.9255    0.0000 C    0  0  0  0  0  0  0  0  0  0  0  0
    3.1820   -4.6212    0.0000 C    0  0  0  0  0  0  0  0  0  0  0  0
    4.3289   -3.9803    0.0000 C    0  0  0  0  0  0  0  0  0  0  0  0
    5.4870   -4.6212    0.0000 C    0  0  0  0  0  0  0  0  0  0  0  0
    5.4870   -5.9255    0.0000 C    0  0  0  0  0  0  0  0  0  0  0  0
    4.3289   -6.6001    0.0000 C    0  0  0  0  0  0  0  0  0  0  0  0
    6.6226   -6.6001    0.0000 S    0  0  0  0  0  0  0  0  0  0  0  0
    7.7807   -5.9255    0.0000 N    0  5  0  0  0  0  0  0  0  0  0  0
    0.3486   -5.6444    0.0000 C    0  0  0  0  0  0  0  0  0  0  0  0
    3.1820   -0.6521    0.0000 C    0  0  0  0  0  0  0  0  0  0  0  0
    4.3289    0.0000    0.0000 C    0  0  0  0  0  0  0  0  0  0  0  0
    5.4870   -0.6521    0.0000 C    0  0  0  0  0  0  0  0  0  0  0  0
    5.4870   -2.0014    0.0000 C    0  0  0  0  0  0  0  0  0  0  0  0
    4.3289   -2.6760    0.0000 C    0  0  0  0  0  0  0  0  0  0  0  0
    8.8939   -6.6001    0.0000 C    0  0  0  0  0  0  0  0  0  0  0  0
   10.0857   -5.9255    0.0000 C    0  0  0  0  0  0  0  0  0  0  0  0
    8.8939   -7.9494    0.0000 O    0  0  0  0  0  0  0  0  0  0  0  0
   11.2438   -6.6001    0.0000 C    0  0  0  0  0  0  0  0  0  0  0  0
    3.1820   -2.0014    0.0000 C    0  0  0  0  0  0  0  0  0  0  0  0
    2.0239   -2.6198    0.0000 C    0  0  0  0  0  0  0  0  0  0  0  0
    5.9480   -7.7582    0.0000 O    0  0  0  0  0  0  0  0  0  0  0  0
    7.2748   -7.7582    0.0000 O    0  0  0  0  0  0  0  0  0  0  0  0
    6.9824   -8.9951    0.0000 Na   0  3  0  0  0  0  0  0  0  0  0  0
  1  2  1  0  0  0  0
  1  4  1  0  0  0  0
  2 24  2  0  0  0  0
  3 24  1  0  0  0  0
  3  4  2  0  0  0  0
  3  6  1  0  0  0  0
  4 13  1  0  0  0  0
  5  6  2  0  0  0  0
  5 10  1  0  0  0  0
  6  7  1  0  0  0  0
  7  8  2  0  0  0  0
  8  9  1  0  0  0  0
  9 10  2  0  0  0  0
  9 11  1  0  0  0  0
 11 12  1  0  0  0  0
 11 25  2  0  0  0  0
 11 26  2  0  0  0  0
 12 19  1  0  0  0  0
 14 23  2  0  0  0  0
 14 15  1  0  0  0  0
 15 16  2  0  0  0  0
 16 17  1  0  0  0  0
 17 18  2  0  0  0  0
 18 23  1  0  0  0  0
 19 20  1  0  0  0  0
 19 21  2  0  0  0  0
 20 22  1  0  0  0  0
 23 24  1  0  0  0  0
M  END
> <ID>
13665

> <Formula>
C19H17N2NaO4S

> <FW>
392.4040 (369.4148+22.9892)

> <DSSTox_CID>
28596

> <DSSTox_RID>
82867

> <DSSTox_GSID>
48670

> <DSSTox_FileID_Sort>
7544

> <TS_ChemName>
Parecoxib sodium

> <TS_ChemName_Synonyms>


> <TS_CASRN>
198470-85-8

> <CASRN_ChemName_Relationship>
primary

> <TS_Description>
single chemical compound

> <ChemNote>


> <STRUCTURE_Shown>
tested chemical

> <STRUCTURE_Formula>
C19H17N2NaO4S

> <STRUCTURE_MW>
392.404

> <STRUCTURE_ChemType>
defined organic

> <STRUCTURE_DefinedOrganicForm>
salt

> <STRUCTURE_IUPAC>
sodium {[4-(5-methyl-3-phenyl-1,2-oxazol-4-yl)phenyl]sulfonyl}(propanoyl)azanide

> <STRUCTURE_SMILES>
[Na+].CCC(=O)[N-]S(=O)(=O)c1ccc(cc1)c3c(C)onc3c2ccccc2

> <STRUCTURE_SMILES_Desalt>
CCC(=O)NS(=O)(=O)c1ccc(cc1)c3c(C)onc3c2ccccc2

> <Substance_modify_yyyymmdd>
20111204

$$$$
