198481-33-3
ChemmineR-0915142007XD

 39 42  0  0  0  0  0  0  0  0  1 V2000
    4.7297   -3.4124    0.0000 N   0  0  0  0  0  0  0  0  0  0  0  0
    5.5074   -2.3331    0.0000 C   0  0  0  0  0  0  0  0  0  0  0  0
    6.8407   -2.3331    0.0000 C   0  0  0  0  0  0  0  0  0  0  0  0
    7.5073   -3.4759    0.0000 C   0  0  0  0  0  0  0  0  0  0  0  0
    8.8405   -3.4759    0.0000 C   0  0  0  0  0  0  0  0  0  0  0  0
    9.5071   -2.3331    0.0000 C   0  0  0  0  0  0  0  0  0  0  0  0
   10.8403   -2.3173    0.0000 O   0  0  0  0  0  0  0  0  0  0  0  0
    8.8405   -1.1904    0.0000 C   0  0  0  0  0  0  0  0  0  0  0  0
    7.5073   -1.1904    0.0000 C   0  0  0  0  0  0  0  0  0  0  0  0
    4.7297   -1.2697    0.0000 C   0  0  0  0  0  0  0  0  0  0  0  0
    5.1424    0.0000    0.0000 C   0  0  0  0  0  0  0  0  0  0  0  0
    3.4600   -1.6665    0.0000 C   0  0  0  0  0  0  0  0  0  0  0  0
    2.3014   -1.0158    0.0000 C   0  0  0  0  0  0  0  0  0  0  0  0
    1.1586   -1.6665    0.0000 C   0  0  0  0  0  0  0  0  0  0  0  0
    0.0000   -1.0158    0.0000 O   0  0  0  0  0  0  0  0  0  0  0  0
    1.1586   -2.9997    0.0000 C   0  0  0  0  0  0  0  0  0  0  0  0
    2.3014   -3.6663    0.0000 C   0  0  0  0  0  0  0  0  0  0  0  0
    3.4600   -2.9997    0.0000 C   0  0  0  0  0  0  0  0  0  0  0  0
    5.1424   -4.6821    0.0000 C   0  0  0  0  0  0  0  0  0  0  0  0
    6.4439   -4.9519    0.0000 C   0  0  0  0  0  0  0  0  0  0  0  0
    6.8565   -6.2217    0.0000 C   0  0  0  0  0  0  0  0  0  0  0  0
    8.1580   -6.4915    0.0000 C   0  0  0  0  0  0  0  0  0  0  0  0
    9.0468   -5.4916    0.0000 C   0  0  0  0  0  0  0  0  0  0  0  0
   10.3483   -5.7931    0.0000 O   0  0  0  0  0  0  0  0  0  0  0  0
   11.2371   -4.7932    0.0000 C   0  0  0  0  0  0  0  0  0  0  0  0
   12.5386   -5.0630    0.0000 C   0  0  0  0  0  0  0  0  0  0  0  0
   13.4274   -4.0631    0.0000 N   0  0  0  0  0  0  0  0  0  0  0  0
   14.6971   -4.4599    0.0000 C   0  0  0  0  0  0  0  0  0  0  0  0
   15.7923   -3.6822    0.0000 C   0  0  0  0  0  0  0  0  0  0  0  0
   15.8716   -2.3490    0.0000 C   0  0  0  0  0  0  0  0  0  0  0  0
   14.8717   -1.4761    0.0000 C   0  0  0  0  0  0  0  0  0  0  0  0
   13.5861   -1.6824    0.0000 C   0  0  0  0  0  0  0  0  0  0  0  0
   12.9195   -2.8569    0.0000 C   0  0  0  0  0  0  0  0  0  0  0  0
    8.6342   -4.2377    0.0000 C   0  0  0  0  0  0  0  0  0  0  0  0
    7.3327   -3.9520    0.0000 C   0  0  0  0  0  0  0  0  0  0  0  0
    2.2220   -4.9837    0.0000 C   0  0  0  0  0  0  0  0  0  0  0  0
    1.0793   -4.3171    0.0000 C   0  0  0  0  0  0  0  0  0  0  0  0
    2.2220   -6.3169    0.0000 O   0  0  0  0  0  0  0  0  0  0  0  0
    3.3807   -4.3171    0.0000 O   0  0  0  0  0  0  0  0  0  0  0  0
  1  2  1  0  0  0  0
  1 18  1  0  0  0  0
  1 19  1  0  0  0  0
  2  3  1  0  0  0  0
  2 10  2  0  0  0  0
  3  4  2  0  0  0  0
  3  9  1  0  0  0  0
  4  5  1  0  0  0  0
  5  6  2  0  0  0  0
  6  7  1  0  0  0  0
  6  8  1  0  0  0  0
  8  9  2  0  0  0  0
 10 11  1  0  0  0  0
 10 12  1  0  0  0  0
 12 13  1  0  0  0  0
 12 18  2  0  0  0  0
 13 14  2  0  0  0  0
 14 15  1  0  0  0  0
 14 16  1  0  0  0  0
 16 17  2  0  0  0  0
 17 18  1  0  0  0  0
 19 20  1  0  0  0  0
 20 21  1  0  0  0  0
 20 35  2  0  0  0  0
 21 22  2  0  0  0  0
 22 23  1  0  0  0  0
 23 24  1  0  0  0  0
 23 34  2  0  0  0  0
 24 25  1  0  0  0  0
 25 26  1  0  0  0  0
 26 27  1  0  0  0  0
 27 28  1  0  0  0  0
 27 33  1  0  0  0  0
 28 29  1  0  0  0  0
 29 30  1  0  0  0  0
 30 31  1  0  0  0  0
 31 32  1  0  0  0  0
 32 33  1  0  0  0  0
 34 35  1  0  0  0  0
 36 37  1  0  0  0  0
 36 38  2  0  0  0  0
 36 39  1  0  0  0  0
M  END
> <ID>
13652

> <Formula>
C32H38N2O5

> <FW>
530.6545 (470.6026+60.0520)

> <DSSTox_CID>
28583

> <DSSTox_RID>
82854

> <DSSTox_GSID>
48657

> <DSSTox_FileID_Sort>
7531

> <TS_ChemName>
Bazedoxifene

> <TS_ChemName_Synonyms>


> <TS_CASRN>
198481-33-3

> <CASRN_ChemName_Relationship>
primary

> <TS_Description>
single chemical compound

> <ChemNote>


> <STRUCTURE_Shown>
tested chemical

> <STRUCTURE_Formula>
C32H38N2O5

> <STRUCTURE_MW>
530.6545

> <STRUCTURE_ChemType>
defined organic

> <STRUCTURE_DefinedOrganicForm>
complex

> <STRUCTURE_IUPAC>
1-{4-[2-(azepan-1-yl)ethoxy]benzyl}-2-(4-hydroxyphenyl)-3-methyl-1H-indol-5-ol acetate (1:1)

> <STRUCTURE_SMILES>
CC(=O)O.Oc1ccc(cc1)c5c(C)c2cc(O)ccc2n5Cc3ccc(cc3)OCCN4CCCCCC4

> <STRUCTURE_SMILES_Desalt>
Oc1ccc(cc1)c5c(C)c2cc(O)ccc2n5Cc3ccc(cc3)OCCN4CCCCCC4

> <Substance_modify_yyyymmdd>
20111204

$$$$
