1985-51-9
ChemmineR-0915142007XD

 17 16  0  0  0  0  0  0  0  0  1 V2000
    0.0000   -2.0002    0.0000 C   0  0  0  0  0  0  0  0  0  0  0  0
    1.1495   -1.3220    0.0000 C   0  0  0  0  0  0  0  0  0  0  0  0
    2.2991   -2.0002    0.0000 C   0  0  0  0  0  0  0  0  0  0  0  0
    3.4486   -1.3220    0.0000 O   0  0  0  0  0  0  0  0  0  0  0  0
    4.6096   -2.0002    0.0000 C   0  0  0  0  0  0  0  0  0  0  0  0
    5.7592   -1.3220    0.0000 C   0  0  0  0  0  0  0  0  0  0  0  0
    1.1495    0.0000    0.0000 C   0  0  0  0  0  0  0  0  0  0  0  0
    2.2991   -3.3222    0.0000 O   0  0  0  0  0  0  0  0  0  0  0  0
    6.9087   -2.0002    0.0000 C   0  0  0  0  0  0  0  0  0  0  0  0
    5.7592    0.0000    0.0000 C   0  0  0  0  0  0  0  0  0  0  0  0
    4.6096   -0.6667    0.0000 C   0  0  0  0  0  0  0  0  0  0  0  0
    8.0467   -1.3220    0.0000 O   0  0  0  0  0  0  0  0  0  0  0  0
    9.1963   -2.0002    0.0000 C   0  0  0  0  0  0  0  0  0  0  0  0
   10.3458   -1.3220    0.0000 C   0  0  0  0  0  0  0  0  0  0  0  0
   11.4953   -2.0002    0.0000 C   0  0  0  0  0  0  0  0  0  0  0  0
   10.3458    0.0000    0.0000 C   0  0  0  0  0  0  0  0  0  0  0  0
    9.1963   -3.3222    0.0000 O   0  0  0  0  0  0  0  0  0  0  0  0
  1  2  1  0  0  0  0
  2  3  1  0  0  0  0
  2  7  2  0  0  0  0
  3  4  1  0  0  0  0
  3  8  2  0  0  0  0
  4  5  1  0  0  0  0
  5  6  1  0  0  0  0
  6  9  1  0  0  0  0
  6 10  1  0  0  0  0
  6 11  1  0  0  0  0
  9 12  1  0  0  0  0
 12 13  1  0  0  0  0
 13 14  1  0  0  0  0
 13 17  2  0  0  0  0
 14 15  1  0  0  0  0
 14 16  2  0  0  0  0
M  END
> <ID>
10514

> <Formula>
C13H20O4

> <FW>
240.2955

> <DSSTox_CID>
24867

> <DSSTox_RID>
80542

> <DSSTox_GSID>
44867

> <DSSTox_FileID_Sort>
5224

> <TS_ChemName>
2,2-Dimethylpropane-1,3-diyl bis(2-methylprop-2-enoate)

> <TS_ChemName_Synonyms>
2,2-Dimethylpropane-1,3-diyl bis(2-methylprop-2-enoate) (2-Propenoic acid, 2-methyl-, 2,2-dimethyl-1,3-propanediyl ester)

> <TS_CASRN>
1985-51-9

> <CASRN_ChemName_Relationship>
primary

> <TS_Description>
single chemical compound

> <ChemNote>


> <STRUCTURE_Shown>
tested chemical

> <STRUCTURE_Formula>
C13H20O4

> <STRUCTURE_MW>
240.2955

> <STRUCTURE_ChemType>
defined organic

> <STRUCTURE_DefinedOrganicForm>
parent

> <STRUCTURE_IUPAC>
2,2-dimethylpropane-1,3-diyl bis(2-methylprop-2-enoate)

> <STRUCTURE_SMILES>
O=C(OCC(C)(C)COC(=O)C(=C)C)C(=C)C

> <STRUCTURE_SMILES_Desalt>
O=C(OCC(C)(C)COC(=O)C(=C)C)C(=C)C

> <Substance_modify_yyyymmdd>
20091116

$$$$
