1986-53-4
ChemmineR-0915142007XD

 30 33  0  0  1  0  0  0  0  0  1 V2000
   12.5744   -9.4685    0.0000 C   0  0  0  0  0  0  0  0  0  0  0  0
   11.4176  -10.1350    0.0000 C   0  0  0  0  0  0  0  0  0  0  0  0
   10.2607   -9.4685    0.0000 C   0  0  0  0  0  0  0  0  0  0  0  0
   10.2607   -8.1357    0.0000 O   0  0  0  0  0  0  0  0  0  0  0  0
    9.1039  -10.1350    0.0000 O   0  0  0  0  0  0  0  0  0  0  0  0
    7.9470   -9.4685    0.0000 C   0  0  0  0  0  0  0  0  0  0  0  0
    7.9596  -10.7889    0.0000 H   0  0  0  0  0  0  0  0  0  0  0  0
    8.6261   -8.3117    0.0000 C   0  0  0  0  0  0  0  0  0  0  0  0
    7.9470   -7.1800    0.0000 C   0  0  0  0  0  0  0  0  0  0  0  0
    6.6141   -7.1548    0.0000 C   0  0  0  0  0  0  0  0  0  0  0  0
    5.9477   -6.0231    0.0000 C   0  0  0  0  0  0  0  0  0  0  0  0
    6.6141   -4.8663    0.0000 C   0  0  0  0  0  0  0  0  0  0  0  0
    5.9603   -3.7095    0.0000 C   0  0  0  0  0  0  0  0  0  0  0  0
    4.6274   -3.7095    0.0000 C   0  0  0  0  0  0  0  0  0  0  0  0
    5.2813   -2.5526    0.0000 C   0  0  0  0  0  0  0  0  0  0  0  0
    3.7472   -2.7161    0.0000 C   0  0  0  0  0  0  0  0  0  0  0  0
    4.7154   -1.8233    0.0000 H   0  0  0  0  0  0  0  0  0  0  0  0
    2.5275   -3.2568    0.0000 C   0  0  0  0  0  0  0  0  0  0  0  0
    2.6658   -4.5771    0.0000 C   0  0  0  0  0  0  0  0  0  0  0  0
    3.9484   -4.8663    0.0000 C   0  0  0  0  0  0  0  0  0  0  0  0
    4.6274   -5.9980    0.0000 C   0  0  0  0  0  0  0  0  0  0  0  0
    3.9609   -7.1548    0.0000 C   0  0  0  0  0  0  0  0  0  0  0  0
    4.6274   -8.3117    0.0000 C   0  0  0  0  0  0  0  0  0  0  0  0
    5.9603   -8.3117    0.0000 C   0  0  0  0  0  0  0  0  0  0  0  0
    6.6141   -9.4685    0.0000 C   0  0  0  0  0  0  0  0  0  0  0  0
    3.1939   -1.4964    0.0000 O   0  0  0  0  0  0  0  0  0  0  0  0
    1.8610   -1.3580    0.0000 C   0  0  0  0  0  0  0  0  0  0  0  0
    1.0940   -2.4394    0.0000 O   0  0  0  0  0  0  0  0  0  0  0  0
    1.3203   -0.1383    0.0000 C   0  0  0  0  0  0  0  0  0  0  0  0
    0.0000    0.0000    0.0000 C   0  0  0  0  0  0  0  0  0  0  0  0
  1  2  1  0  0  0  0
  2  3  1  0  0  0  0
  3  4  2  0  0  0  0
  3  5  1  0  0  0  0
  5  6  1  0  0  0  0
  6  7  1  1  0  0  0
  6  8  1  0  0  0  0
  6 25  1  0  0  0  0
  8  9  1  0  0  0  0
  9 10  1  0  0  0  0
 10 11  1  0  0  0  0
 10 24  1  0  0  0  0
 11 12  1  0  0  0  0
 11 21  1  0  0  0  0
 12 13  1  0  0  0  0
 13 14  1  0  0  0  0
 14 15  1  0  0  0  0
 14 16  1  0  0  0  0
 14 20  1  0  0  0  0
 16 17  1  0  0  0  0
 16 18  1  0  0  0  0
 16 26  1  6  0  0  0
 18 19  1  0  0  0  0
 19 20  1  0  0  0  0
 20 21  1  0  0  0  0
 21 22  1  0  0  0  0
 22 23  1  0  0  0  0
 23 24  1  0  0  0  0
 24 25  2  0  0  0  0
 26 27  1  0  0  0  0
 27 28  2  0  0  0  0
 27 29  1  0  0  0  0
 29 30  1  0  0  0  0
M  END
> <ID>
16079

> <Formula>
C24H36O4

> <FW>
388.5402

> <DSSTox_CID>
31466

> <DSSTox_RID>
97351

> <DSSTox_GSID>
57677

> <DSSTox_FileID_Sort>
8418

> <TS_ChemName>
Bolandiol dipropionate

> <TS_ChemName_Synonyms>


> <TS_CASRN>
1986-53-4

> <CASRN_ChemName_Relationship>
primary

> <TS_Description>
single chemical compound

> <ChemNote>


> <STRUCTURE_Shown>
tested chemical

> <STRUCTURE_Formula>
C24H36O4

> <STRUCTURE_MW>
388.5402

> <STRUCTURE_ChemType>
defined organic

> <STRUCTURE_DefinedOrganicForm>
parent

> <STRUCTURE_IUPAC>
(3alpha,17alpha)-estr-4-ene-3,17-diyl dipropanoate

> <STRUCTURE_SMILES>
CCC(=O)O[C@H]2CCC3C4CCC1(C)C(CC[C@@H]1OC(=O)CC)C4CCC3=C2

> <STRUCTURE_SMILES_Desalt>
CCC(=O)O[C@H]2CCC3C4CCC1(C)C(CC[C@@H]1OC(=O)CC)C4CCC3=C2

> <Substance_modify_yyyymmdd>
20131018

$$$$
