1987-50-4
ChemmineR-0915142007XD

 14 14  0  0  0  0  0  0  0  0  1 V2000
    5.3217   -2.3049    0.0000 C   0  0  0  0  0  0  0  0  0  0  0  0
    3.9884   -2.3049    0.0000 C   0  0  0  0  0  0  0  0  0  0  0  0
    5.9770   -1.1525    0.0000 C   0  0  0  0  0  0  0  0  0  0  0  0
    3.3218   -3.4574    0.0000 C   0  0  0  0  0  0  0  0  0  0  0  0
    1.9886   -3.4574    0.0000 C   0  0  0  0  0  0  0  0  0  0  0  0
    1.3332   -4.5986    0.0000 C   0  0  0  0  0  0  0  0  0  0  0  0
    0.0000   -4.5986    0.0000 C   0  0  0  0  0  0  0  0  0  0  0  0
    9.3101   -2.3049    0.0000 C   0  0  0  0  0  0  0  0  0  0  0  0
    7.9768   -2.3049    0.0000 C   0  0  0  0  0  0  0  0  0  0  0  0
    9.9654   -1.1525    0.0000 C   0  0  0  0  0  0  0  0  0  0  0  0
    7.3102   -1.1525    0.0000 C   0  0  0  0  0  0  0  0  0  0  0  0
    9.3101    0.0000    0.0000 C   0  0  0  0  0  0  0  0  0  0  0  0
    7.9768    0.0000    0.0000 C   0  0  0  0  0  0  0  0  0  0  0  0
   11.2987   -1.1525    0.0000 O   0  0  0  0  0  0  0  0  0  0  0  0
  1  2  1  0  0  0  0
  1  3  1  0  0  0  0
  2  4  1  0  0  0  0
  3 11  1  0  0  0  0
  4  5  1  0  0  0  0
  5  6  1  0  0  0  0
  6  7  1  0  0  0  0
  8  9  1  0  0  0  0
  8 10  2  0  0  0  0
  9 11  2  0  0  0  0
 10 12  1  0  0  0  0
 10 14  1  0  0  0  0
 11 13  1  0  0  0  0
 12 13  2  0  0  0  0
M  END
> <ID>
5771

> <Formula>
C13H20O

> <FW>
192.2973

> <DSSTox_CID>
9036

> <DSSTox_RID>
79362

> <DSSTox_GSID>
37714

> <DSSTox_FileID_Sort>
4044

> <TS_ChemName>
4-Heptylphenol

> <TS_ChemName_Synonyms>


> <TS_CASRN>
1987-50-4

> <CASRN_ChemName_Relationship>
primary

> <TS_Description>
single chemical compound

> <ChemNote>


> <STRUCTURE_Shown>
tested chemical

> <STRUCTURE_Formula>
C13H20O

> <STRUCTURE_MW>
192.2973

> <STRUCTURE_ChemType>
defined organic

> <STRUCTURE_DefinedOrganicForm>
parent

> <STRUCTURE_IUPAC>
4-heptylphenol

> <STRUCTURE_SMILES>
Oc1ccc(CCCCCCC)cc1

> <STRUCTURE_SMILES_Desalt>
Oc1ccc(CCCCCCC)cc1

> <Substance_modify_yyyymmdd>
20080429

$$$$
