19881-18-6
ChemmineR-0915142007XD

 19 20  0  0  0  0  0  0  0  0  2 V2000
    1.1810   -2.6542    0.0000 N   0  3  0  0  0  0  0  0  0  0  0  0
   11.5438   -1.9811    0.0000 C   0  0  0  0  0  0  0  0  0  0  0  0
    2.3367   -1.9811    0.0000 C   0  0  0  0  0  0  0  0  0  0  0  0
    1.1810   -3.9622    0.0000 O   0  5  0  0  0  0  0  0  0  0  0  0
   10.4135   -2.6542    0.0000 N   0  0  0  0  0  0  0  0  0  0  0  0
    0.0000   -1.9811    0.0000 O   0  0  0  0  0  0  0  0  0  0  0  0
   12.6994   -1.3080    0.0000 S   0  0  0  0  0  0  0  0  0  0  0  0
    5.7528    0.0000    0.0000 O   0  0  0  0  0  0  0  0  0  0  0  0
    2.3367   -0.6223    0.0000 C   0  0  0  0  0  0  0  0  0  0  0  0
    3.4669   -2.6542    0.0000 C   0  0  0  0  0  0  0  0  0  0  0  0
    9.2325   -1.9811    0.0000 C   0  0  0  0  0  0  0  0  0  0  0  0
    4.6226   -0.6223    0.0000 C   0  0  0  0  0  0  0  0  0  0  0  0
    6.9466   -0.6223    0.0000 C   0  0  0  0  0  0  0  0  0  0  0  0
    3.4669    0.0000    0.0000 C   0  0  0  0  0  0  0  0  0  0  0  0
    4.6226   -1.9811    0.0000 C   0  0  0  0  0  0  0  0  0  0  0  0
    8.0768   -2.6542    0.0000 C   0  0  0  0  0  0  0  0  0  0  0  0
    9.2325   -0.6223    0.0000 C   0  0  0  0  0  0  0  0  0  0  0  0
    6.9466   -1.9811    0.0000 C   0  0  0  0  0  0  0  0  0  0  0  0
    8.0768    0.0000    0.0000 C   0  0  0  0  0  0  0  0  0  0  0  0
  1  3  1  0  0  0  0
  1  4  1  0  0  0  0
  1  6  2  0  0  0  0
  2  5  2  0  0  0  0
  2  7  2  0  0  0  0
  3  9  2  0  0  0  0
  3 10  1  0  0  0  0
  5 11  1  0  0  0  0
  8 12  1  0  0  0  0
  8 13  1  0  0  0  0
  9 14  1  0  0  0  0
 10 15  2  0  0  0  0
 11 17  1  0  0  0  0
 11 16  2  0  0  0  0
 12 15  1  0  0  0  0
 12 14  2  0  0  0  0
 13 18  2  0  0  0  0
 13 19  1  0  0  0  0
 16 18  1  0  0  0  0
 17 19  2  0  0  0  0
M  END
> <ID>
13761

> <Formula>
C13H8N2O3S

> <FW>
272.2792

> <DSSTox_CID>
28698

> <DSSTox_RID>
82967

> <DSSTox_GSID>
48772

> <DSSTox_FileID_Sort>
7644

> <TS_ChemName>
Nitroscanate

> <TS_ChemName_Synonyms>


> <TS_CASRN>
19881-18-6

> <CASRN_ChemName_Relationship>
primary

> <TS_Description>
single chemical compound

> <ChemNote>


> <STRUCTURE_Shown>
tested chemical

> <STRUCTURE_Formula>
C13H8N2O3S

> <STRUCTURE_MW>
272.2792

> <STRUCTURE_ChemType>
defined organic

> <STRUCTURE_DefinedOrganicForm>
parent

> <STRUCTURE_IUPAC>
1-isothiocyanato-4-(4-nitrophenoxy)benzene

> <STRUCTURE_SMILES>
[O-][N+](=O)c1ccc(cc1)Oc2ccc(cc2)\N=C=S

> <STRUCTURE_SMILES_Desalt>
[O-][N+](=O)c1ccc(cc1)Oc2ccc(cc2)\N=C=S

> <Substance_modify_yyyymmdd>
20100107

$$$$
