198904-31-3
ChemmineR-0915142007XD

 51 53  0  0  1  0  0  0  0  0  1 V2000
   12.4799   -6.7592    0.0000 C   0  0  0  0  0  0  0  0  0  0  0  0
    4.5289   -7.4232    0.0000 C   0  0  0  0  0  0  0  0  0  0  0  0
    5.6526   -6.7592    0.0000 N   0  0  0  0  0  0  0  0  0  0  0  0
   13.6036   -7.4062    0.0000 C   0  0  0  0  0  0  0  0  0  0  0  0
    3.3881   -6.7763    0.0000 C   0  0  0  0  0  0  0  0  0  0  0  0
   11.3562   -7.4062    0.0000 N   0  0  0  0  0  0  0  0  0  0  0  0
   10.1985   -6.7592    0.0000 N   0  0  0  0  0  0  0  0  0  0  0  0
   14.7443   -5.4483    0.0000 C   0  0  0  0  0  0  0  0  0  0  0  0
    2.2644   -8.7513    0.0000 C   0  0  0  0  0  0  0  0  0  0  0  0
   14.7443   -6.7592    0.0000 N   0  0  0  0  0  0  0  0  0  0  0  0
    2.2474   -7.4403    0.0000 N   0  0  0  0  0  0  0  0  0  0  0  0
    6.7933   -7.4062    0.0000 C   0  0  0  0  0  0  0  0  0  0  0  0
    9.0748   -7.4062    0.0000 C   0  0  0  0  0  0  0  0  0  0  0  0
    7.9170   -6.7592    0.0000 C   0  0  0  0  0  0  0  0  0  0  0  0
   13.6036   -8.7172    0.0000 C   0  0  0  0  0  0  0  0  0  0  0  0
    3.3711   -5.4653    0.0000 C   0  0  0  0  0  0  0  0  0  0  0  0
   12.4799   -5.4483    0.0000 O   0  0  0  0  0  0  0  0  0  0  0  0
    4.5289   -8.7342    0.0000 O   0  0  0  0  0  0  0  0  0  0  0  0
   14.7443   -0.6640    0.0000 N   0  0  0  0  0  0  0  0  0  0  0  0
   13.6206   -2.6220    0.0000 C   0  0  0  0  0  0  0  0  0  0  0  0
   14.7443   -1.9750    0.0000 C   0  0  0  0  0  0  0  0  0  0  0  0
    6.7933   -8.7172    0.0000 C   0  0  0  0  0  0  0  0  0  0  0  0
   13.6036   -4.7842    0.0000 O   0  0  0  0  0  0  0  0  0  0  0  0
    3.4222   -9.3982    0.0000 O   0  0  0  0  0  0  0  0  0  0  0  0
   10.1985   -4.5970    0.0000 C   0  0  0  0  0  0  0  0  0  0  0  0
   12.4799   -1.9750    0.0000 C   0  0  0  0  0  0  0  0  0  0  0  0
   13.6206   -3.9330    0.0000 C   0  0  0  0  0  0  0  0  0  0  0  0
    1.1407   -9.4153    0.0000 O   0  0  0  0  0  0  0  0  0  0  0  0
   15.8851   -4.8013    0.0000 O   0  0  0  0  0  0  0  0  0  0  0  0
   11.3562   -3.9330    0.0000 C   0  0  0  0  0  0  0  0  0  0  0  0
    7.9170   -5.3291    0.0000 O   0  0  0  0  0  0  0  0  0  0  0  0
    7.9170   -9.3812    0.0000 C   0  0  0  0  0  0  0  0  0  0  0  0
   12.4799   -4.5970    0.0000 C   0  0  0  0  0  0  0  0  0  0  0  0
   11.3562   -2.6220    0.0000 C   0  0  0  0  0  0  0  0  0  0  0  0
   14.9316   -8.7342    0.0000 C   0  0  0  0  0  0  0  0  0  0  0  0
    4.6821   -5.4483    0.0000 C   0  0  0  0  0  0  0  0  0  0  0  0
    2.0601   -5.4823    0.0000 C   0  0  0  0  0  0  0  0  0  0  0  0
    3.3541   -4.1543    0.0000 C   0  0  0  0  0  0  0  0  0  0  0  0
   12.2926   -8.7172    0.0000 C   0  0  0  0  0  0  0  0  0  0  0  0
   13.6036  -10.0282    0.0000 C   0  0  0  0  0  0  0  0  0  0  0  0
   15.8851    0.0000    0.0000 C   0  0  0  0  0  0  0  0  0  0  0  0
   15.8851   -2.6220    0.0000 C   0  0  0  0  0  0  0  0  0  0  0  0
   17.0258   -5.4483    0.0000 C   0  0  0  0  0  0  0  0  0  0  0  0
    0.0000   -8.7853    0.0000 C   0  0  0  0  0  0  0  0  0  0  0  0
    9.0748   -8.7172    0.0000 C   0  0  0  0  0  0  0  0  0  0  0  0
    7.9170  -10.6922    0.0000 C   0  0  0  0  0  0  0  0  0  0  0  0
   17.0258   -0.6640    0.0000 C   0  0  0  0  0  0  0  0  0  0  0  0
   17.0258   -1.9750    0.0000 C   0  0  0  0  0  0  0  0  0  0  0  0
   10.1985   -9.3812    0.0000 C   0  0  0  0  0  0  0  0  0  0  0  0
    9.0748  -11.3392    0.0000 C   0  0  0  0  0  0  0  0  0  0  0  0
   10.1985  -10.6922    0.0000 C   0  0  0  0  0  0  0  0  0  0  0  0
  1  4  1  0  0  0  0
  1  6  1  0  0  0  0
  1 17  2  0  0  0  0
  2  3  1  0  0  0  0
  2  5  1  0  0  0  0
  2 18  2  0  0  0  0
  3 12  1  0  0  0  0
  4 10  1  0  0  0  0
  4 15  1  1  0  0  0
  5 11  1  0  0  0  0
  5 16  1  1  0  0  0
  6  7  1  0  0  0  0
  7 13  1  0  0  0  0
  7 25  1  0  0  0  0
  8 10  1  0  0  0  0
  8 23  2  0  0  0  0
  8 29  1  0  0  0  0
  9 11  1  0  0  0  0
  9 24  2  0  0  0  0
  9 28  1  0  0  0  0
 12 14  1  0  0  0  0
 12 22  1  6  0  0  0
 13 14  1  0  0  0  0
 14 31  1  1  0  0  0
 15 35  1  0  0  0  0
 15 39  1  0  0  0  0
 15 40  1  0  0  0  0
 16 36  1  0  0  0  0
 16 37  1  0  0  0  0
 16 38  1  0  0  0  0
 19 21  2  0  0  0  0
 19 41  1  0  0  0  0
 20 27  1  0  0  0  0
 20 21  1  0  0  0  0
 20 26  2  0  0  0  0
 21 42  1  0  0  0  0
 22 32  1  0  0  0  0
 25 30  1  0  0  0  0
 26 34  1  0  0  0  0
 27 33  2  0  0  0  0
 28 44  1  0  0  0  0
 29 43  1  0  0  0  0
 30 33  1  0  0  0  0
 30 34  2  0  0  0  0
 32 45  2  0  0  0  0
 32 46  1  0  0  0  0
 41 47  2  0  0  0  0
 42 48  2  0  0  0  0
 45 49  1  0  0  0  0
 46 50  2  0  0  0  0
 47 48  1  0  0  0  0
 49 51  2  0  0  0  0
 50 51  1  0  0  0  0
M  END
> <ID>
13684

> <Formula>
C38H52N6O7

> <FW>
704.8555

> <DSSTox_CID>
28617

> <DSSTox_RID>
82887

> <DSSTox_GSID>
48691

> <DSSTox_FileID_Sort>
7564

> <TS_ChemName>
Atazanavir

> <TS_ChemName_Synonyms>


> <TS_CASRN>
198904-31-3

> <CASRN_ChemName_Relationship>
primary

> <TS_Description>
single chemical compound

> <ChemNote>


> <STRUCTURE_Shown>
tested chemical

> <STRUCTURE_Formula>
C38H52N6O7

> <STRUCTURE_MW>
704.8555

> <STRUCTURE_ChemType>
defined organic

> <STRUCTURE_DefinedOrganicForm>
parent

> <STRUCTURE_IUPAC>
methyl {(5S,10S,11S,14S)-11-benzyl-5-tert-butyl-10-hydroxy-15,15-dimethyl-3,6,13-trioxo-8-[4-(pyridin-2-yl)benzyl]-2-oxa-4,7,8,12-tetraazahexadecan-14-yl}carbamate

> <STRUCTURE_SMILES>
CC(C)(C)[C@H](NC(=O)OC)C(=O)N[C@@H](Cc1ccccc1)[C@@H](O)CN(NC(=O)[C@@H](NC(=O)OC)C(C)(C)C)Cc2ccc(cc2)c3ccccn3

> <STRUCTURE_SMILES_Desalt>
CC(C)(C)[C@H](NC(=O)OC)C(=O)N[C@@H](Cc1ccccc1)[C@@H](O)CN(NC(=O)[C@@H](NC(=O)OC)C(C)(C)C)Cc2ccc(cc2)c3ccccn3

> <Substance_modify_yyyymmdd>
20111204

$$$$
