199119-58-9
ChemmineR-0915142007XD

 30 30  0  0  0  0  0  0  0  0  2 V2000
    4.9133   -2.3060    0.0000 N    0  0  0  0  0  0  0  0  0  0  0  0
    4.2528   -1.1588    0.0000 C    0  0  0  0  0  0  0  0  0  0  0  0
    6.2343   -2.3060    0.0000 C    0  0  0  0  0  0  0  0  0  0  0  0
    6.9064   -1.1588    0.0000 C    0  0  0  0  0  0  0  0  0  0  0  0
    4.9133    0.0000    0.0000 C    0  0  0  0  0  0  0  0  0  0  0  0
    6.2343    0.0000    0.0000 C    0  0  0  0  0  0  0  0  0  0  0  0
    6.9064   -3.4648    0.0000 S    0  0  0  0  0  0  0  0  0  0  0  0
    8.0768   -2.8159    0.0000 O    0  0  0  0  0  0  0  0  0  0  0  0
    7.5901   -4.6352    0.0000 O    0  0  0  0  0  0  0  0  0  0  0  0
    5.7592   -4.1369    0.0000 N    0  5  0  0  0  0  0  0  0  0  0  0
    5.7592   -5.4695    0.0000 C    0  0  0  0  0  0  0  0  0  0  0  0
    6.9064   -6.1300    0.0000 O    0  0  0  0  0  0  0  0  0  0  0  0
    4.6004   -6.1300    0.0000 N    0  0  0  0  0  0  0  0  0  0  0  0
    3.4532   -4.1369    0.0000 N    0  0  0  0  0  0  0  0  0  0  0  0
    2.2944   -6.1300    0.0000 N    0  0  0  0  0  0  0  0  0  0  0  0
    3.4532   -5.4695    0.0000 C    0  0  0  0  0  0  0  0  0  0  0  0
    1.1588   -4.1369    0.0000 C    0  0  0  0  0  0  0  0  0  0  0  0
    2.2944   -3.4648    0.0000 C    0  0  0  0  0  0  0  0  0  0  0  0
    1.1588   -5.4695    0.0000 C    0  0  0  0  0  0  0  0  0  0  0  0
    0.0000   -6.1300    0.0000 O    0  0  0  0  0  0  0  0  0  0  0  0
    0.0000   -7.4511    0.0000 C    0  0  0  0  0  0  0  0  0  0  0  0
    2.2944   -2.1438    0.0000 O    0  0  0  0  0  0  0  0  0  0  0  0
    1.1588   -1.4833    0.0000 C    0  0  0  0  0  0  0  0  0  0  0  0
    8.2506   -1.1588    0.0000 O    0  0  0  0  0  0  0  0  0  0  0  0
    8.9227   -2.3060    0.0000 C    0  0  0  0  0  0  0  0  0  0  0  0
   10.2554   -2.3060    0.0000 C    0  0  0  0  0  0  0  0  0  0  0  0
   10.2554   -3.6386    0.0000 F    0  0  0  0  0  0  0  0  0  0  0  0
   10.2554   -0.9850    0.0000 F    0  0  0  0  0  0  0  0  0  0  0  0
   11.5880   -2.3060    0.0000 F    0  0  0  0  0  0  0  0  0  0  0  0
    4.5425   -3.6850    0.0000 Na   0  3  0  0  0  0  0  0  0  0  0  0
  1  2  1  0  0  0  0
  1  3  2  0  0  0  0
  2  5  2  0  0  0  0
  3  4  1  0  0  0  0
  3  7  1  0  0  0  0
  4  6  2  0  0  0  0
  4 24  1  0  0  0  0
  5  6  1  0  0  0  0
  7  8  2  0  0  0  0
  7 10  1  0  0  0  0
  7  9  2  0  0  0  0
 10 11  1  0  0  0  0
 11 12  2  0  0  0  0
 11 13  1  0  0  0  0
 13 16  1  0  0  0  0
 14 16  2  0  0  0  0
 14 18  1  0  0  0  0
 15 16  1  0  0  0  0
 15 19  2  0  0  0  0
 17 18  2  0  0  0  0
 17 19  1  0  0  0  0
 18 22  1  0  0  0  0
 19 20  1  0  0  0  0
 20 21  1  0  0  0  0
 22 23  1  0  0  0  0
 24 25  1  0  0  0  0
 25 26  1  0  0  0  0
 26 27  1  0  0  0  0
 26 28  1  0  0  0  0
 26 29  1  0  0  0  0
M  END
> <ID>
7616

> <Formula>
C14H13F3N5NaO6S

> <FW>
459.3329 (436.3437+22.9892)

> <DSSTox_CID>
20222

> <DSSTox_RID>
79453

> <DSSTox_GSID>
40222

> <DSSTox_FileID_Sort>
4135

> <TS_ChemName>
Trifloxysulfuron-sodium

> <TS_ChemName_Synonyms>


> <TS_CASRN>
199119-58-9

> <CASRN_ChemName_Relationship>
primary

> <TS_Description>
single chemical compound

> <ChemNote>
parent [145099-21-4]

> <STRUCTURE_Shown>
tested chemical

> <STRUCTURE_Formula>
C14H13F3N5NaO6S

> <STRUCTURE_MW>
459.3329

> <STRUCTURE_ChemType>
defined organic

> <STRUCTURE_DefinedOrganicForm>
salt

> <STRUCTURE_IUPAC>
sodium [(4,6-dimethoxypyrimidin-2-yl)carbamoyl]{[3-(2,2,2-trifluoroethoxy)pyridin-2-yl]sulfonyl}azanide

> <STRUCTURE_SMILES>
[Na+].O=S(=O)([N-]C(=O)Nc1nc(OC)cc(OC)n1)c2ncccc2OCC(F)(F)F

> <STRUCTURE_SMILES_Desalt>
O=S(=O)(NC(=O)Nc1nc(OC)cc(OC)n1)c2ncccc2OCC(F)(F)F

> <Substance_modify_yyyymmdd>
20080429

$$$$
