199171-88-5
ChemmineR-0915142007XD

 29 32  0  0  1  0  0  0  0  0  1 V2000
    4.5881   -4.4737    0.0000 C   0  0  0  0  0  0  0  0  0  0  0  0
    5.7437   -3.8101    0.0000 C   0  0  0  0  0  0  0  0  0  0  0  0
    3.4554   -3.8101    0.0000 C   0  0  0  0  0  0  0  0  0  0  0  0
    4.5881   -5.7895    0.0000 C   0  0  0  0  0  0  0  0  0  0  0  0
    5.7437   -5.1373    0.0000 C   0  0  0  0  0  0  0  0  0  0  0  0
    6.8993   -4.4737    0.0000 C   0  0  0  0  0  0  0  0  0  0  0  0
    5.7437   -2.4943    0.0000 C   0  0  0  0  0  0  0  0  0  0  0  0
    2.2998   -4.4737    0.0000 C   0  0  0  0  0  0  0  0  0  0  0  0
    3.4554   -6.4645    0.0000 C   0  0  0  0  0  0  0  0  0  0  0  0
    6.8993   -5.7895    0.0000 N   0  0  0  0  0  0  0  0  0  0  0  0
    8.0549   -3.8101    0.0000 C   0  0  0  0  0  0  0  0  0  0  0  0
    6.8993   -1.8192    0.0000 C   0  0  0  0  0  0  0  0  0  0  0  0
    2.2998   -5.7895    0.0000 C   0  0  0  0  0  0  0  0  0  0  0  0
    9.3021   -4.2105    0.0000 N   0  0  0  0  0  0  0  0  0  0  0  0
    8.0549   -2.4943    0.0000 C   0  0  0  0  0  0  0  0  0  0  0  0
    1.1442   -6.4645    0.0000 C   0  0  0  0  0  0  0  0  0  0  0  0
    9.7254   -5.4691    0.0000 C   0  0  0  0  0  0  0  0  0  0  0  0
   10.0915   -3.1350    0.0000 N   0  0  0  0  0  0  0  0  0  0  0  0
    9.3364   -2.0824    0.0000 C   0  0  0  0  0  0  0  0  0  0  0  0
    0.0000   -5.7895    0.0000 O   0  0  0  0  0  0  0  0  0  0  0  0
    1.1556   -7.8146    0.0000 O   0  0  0  0  0  0  0  0  0  0  0  0
   11.0297   -5.7666    0.0000 C   0  0  0  0  0  0  0  0  0  0  0  0
    8.8215   -6.4645    0.0000 C   0  0  0  0  0  0  0  0  0  0  0  0
    9.7597   -0.8238    0.0000 C   0  0  0  0  0  0  0  0  0  0  0  0
   11.4416   -7.0137    0.0000 C   0  0  0  0  0  0  0  0  0  0  0  0
    9.2448   -7.7346    0.0000 C   0  0  0  0  0  0  0  0  0  0  0  0
    8.7185    0.0000    0.0000 C   0  0  0  0  0  0  0  0  0  0  0  0
   10.5378   -8.0091    0.0000 C   0  0  0  0  0  0  0  0  0  0  0  0
    1.1098   -5.1030    0.0000 H   0  0  0  0  0  0  0  0  0  0  0  0
  1  2  1  6  0  0  0
  1  3  1  0  0  0  0
  1  4  1  0  0  0  0
  1  5  1  1  0  0  0
  2  6  2  0  0  0  0
  2  7  1  0  0  0  0
  3  8  1  0  0  0  0
  4  9  1  0  0  0  0
  5 10  3  0  0  0  0
  6 11  1  0  0  0  0
  7 12  2  0  0  0  0
  8 13  1  0  0  0  0
  9 13  1  0  0  0  0
 11 14  1  0  0  0  0
 11 15  2  0  0  0  0
 12 15  1  0  0  0  0
 13 16  1  1  0  0  0
 13 29  1  6  0  0  0
 14 17  1  0  0  0  0
 14 18  1  0  0  0  0
 15 19  1  0  0  0  0
 16 20  1  0  0  0  0
 16 21  2  0  0  0  0
 17 22  1  0  0  0  0
 17 23  1  0  0  0  0
 18 19  2  0  0  0  0
 19 24  1  0  0  0  0
 22 25  1  0  0  0  0
 23 26  1  0  0  0  0
 24 27  1  0  0  0  0
 25 28  1  0  0  0  0
 26 28  1  0  0  0  0
M  END
> <ID>
12395

> <Formula>
C23H29N3O2

> <FW>
379.4953

> <DSSTox_CID>
27253

> <DSSTox_RID>
82212

> <DSSTox_GSID>
47253

> <DSSTox_FileID_Sort>
6893

> <TS_ChemName>
CP-401387

> <TS_ChemName_Synonyms>


> <TS_CASRN>
199171-88-5

> <CASRN_ChemName_Relationship>
primary

> <TS_Description>
single chemical compound

> <ChemNote>
stereochem

> <STRUCTURE_Shown>
tested chemical

> <STRUCTURE_Formula>
C23H29N3O2

> <STRUCTURE_MW>
379.4953

> <STRUCTURE_ChemType>
defined organic

> <STRUCTURE_DefinedOrganicForm>
parent

> <STRUCTURE_IUPAC>
cis-4-cyano-4-(1-cyclohexyl-3-ethyl-1H-indazol-6-yl)cyclohexanecarboxylic acid

> <STRUCTURE_SMILES>
O=C(O)[C@H]1CC[C@@](C#N)(CC1)c2ccc3c(c2)n(nc3CC)C4CCCCC4

> <STRUCTURE_SMILES_Desalt>
O=C(O)[C@H]1CC[C@@](C#N)(CC1)c2ccc3c(c2)n(nc3CC)C4CCCCC4

> <Substance_modify_yyyymmdd>
20130910

$$$$
