19932-84-4
ChemmineR-0915142007XD

 11 12  0  0  0  0  0  0  0  0  1 V2000
    4.6887   -0.2730    0.0000 N    0  0  0  0  0  0  0  0  0  0  0  0
    5.4804   -1.3240    0.0000 C    0  0  0  0  0  0  0  0  0  0  0  0
    4.6887   -2.3887    0.0000 O    0  0  0  0  0  0  0  0  0  0  0  0
    3.4261   -0.6279    0.0000 C    0  0  0  0  0  0  0  0  0  0  0  0
    3.4261   -2.0202    0.0000 C    0  0  0  0  0  0  0  0  0  0  0  0
    2.2454   -2.6685    0.0000 C    0  0  0  0  0  0  0  0  0  0  0  0
    1.1329   -2.0202    0.0000 C    0  0  0  0  0  0  0  0  0  0  0  0
    1.1329   -0.6279    0.0000 C    0  0  0  0  0  0  0  0  0  0  0  0
    2.2454    0.0000    0.0000 C    0  0  0  0  0  0  0  0  0  0  0  0
    6.8249   -1.3240    0.0000 O    0  0  0  0  0  0  0  0  0  0  0  0
    0.0000   -2.6822    0.0000 Cl   0  0  0  0  0  0  0  0  0  0  0  0
  1  2  1  0  0  0  0
  1  4  1  0  0  0  0
  2  3  1  0  0  0  0
  2 10  2  0  0  0  0
  3  5  1  0  0  0  0
  4  5  2  0  0  0  0
  4  9  1  0  0  0  0
  5  6  1  0  0  0  0
  6  7  2  0  0  0  0
  7  8  1  0  0  0  0
  7 11  1  0  0  0  0
  8  9  2  0  0  0  0
M  END
> <ID>
8511

> <Formula>
C7H4ClNO2

> <FW>
169.5652

> <DSSTox_CID>
21545

> <DSSTox_RID>
79773

> <DSSTox_GSID>
41545

> <DSSTox_FileID_Sort>
4455

> <TS_ChemName>
6-Chloro-2,3-dihydrobenzoxazol-2-one

> <TS_ChemName_Synonyms>


> <TS_CASRN>
19932-84-4

> <CASRN_ChemName_Relationship>
primary

> <TS_Description>
single chemical compound

> <ChemNote>
tautomers

> <STRUCTURE_Shown>
tested chemical

> <STRUCTURE_Formula>
C7H4ClNO2

> <STRUCTURE_MW>
169.5652

> <STRUCTURE_ChemType>
defined organic

> <STRUCTURE_DefinedOrganicForm>
parent

> <STRUCTURE_IUPAC>
6-chloro-1,3-benzoxazol-2(3H)-one

> <STRUCTURE_SMILES>
Clc1ccc2NC(=O)Oc2c1

> <STRUCTURE_SMILES_Desalt>
Clc1ccc2NC(=O)Oc2c1

> <Substance_modify_yyyymmdd>
20080825

$$$$
