19952-47-7
ChemmineR-0915142007XD

 11 12  0  0  0  0  0  0  0  0  1 V2000
    0.0000   -3.4138    0.0000 N    0  0  0  0  0  0  0  0  0  0  0  0
    1.1502   -2.7520    0.0000 C    0  0  0  0  0  0  0  0  0  0  0  0
    2.3686   -3.2930    0.0000 N    0  0  0  0  0  0  0  0  0  0  0  0
    3.2562   -2.3056    0.0000 C    0  0  0  0  0  0  0  0  0  0  0  0
    2.5945   -1.1502    0.0000 C    0  0  0  0  0  0  0  0  0  0  0  0
    3.2562    0.0000    0.0000 C    0  0  0  0  0  0  0  0  0  0  0  0
    4.5850    0.0000    0.0000 C    0  0  0  0  0  0  0  0  0  0  0  0
    5.2520   -1.1502    0.0000 C    0  0  0  0  0  0  0  0  0  0  0  0
    4.5850   -2.3056    0.0000 C    0  0  0  0  0  0  0  0  0  0  0  0
    5.2520   -3.4558    0.0000 Cl   0  0  0  0  0  0  0  0  0  0  0  0
    1.2920   -1.4285    0.0000 S    0  0  0  0  0  0  0  0  0  0  0  0
  1  2  1  0  0  0  0
  2  3  2  0  0  0  0
  2 11  1  0  0  0  0
  3  4  1  0  0  0  0
  4  5  2  0  0  0  0
  4  9  1  0  0  0  0
  5  6  1  0  0  0  0
  5 11  1  0  0  0  0
  6  7  2  0  0  0  0
  7  8  1  0  0  0  0
  8  9  2  0  0  0  0
  9 10  1  0  0  0  0
M  END
> <ID>
3694

> <Formula>
C7H5ClN2S

> <FW>
184.646

> <DSSTox_CID>
4470

> <DSSTox_RID>
77413

> <DSSTox_GSID>
24470

> <DSSTox_FileID_Sort>
2096

> <TS_ChemName>
2-Amino-4-chlorobenzothiazole

> <TS_ChemName_Synonyms>


> <TS_CASRN>
19952-47-7

> <CASRN_ChemName_Relationship>
primary

> <TS_Description>
single chemical compound

> <ChemNote>


> <STRUCTURE_Shown>
tested chemical

> <STRUCTURE_Formula>
C7H5ClN2S

> <STRUCTURE_MW>
184.646

> <STRUCTURE_ChemType>
defined organic

> <STRUCTURE_DefinedOrganicForm>
parent

> <STRUCTURE_IUPAC>
4-chloro-1,3-benzothiazol-2-amine

> <STRUCTURE_SMILES>
Clc2cccc1sc(N)nc12

> <STRUCTURE_SMILES_Desalt>
Clc2cccc1sc(N)nc12

> <Substance_modify_yyyymmdd>
20080429

$$$$
