199584-38-8
ChemmineR-0915142007XD

 13 13  0  0  0  0  0  0  0  0  1 V2000
    3.9861   -4.6085    0.0000 C   0  0  0  0  0  0  0  0  0  0  0  0
    2.8310   -5.2669    0.0000 C   0  0  0  0  0  0  0  0  0  0  0  0
    5.1352   -3.9382    0.0000 C   0  0  0  0  0  0  0  0  0  0  0  0
    3.3277   -3.4594    0.0000 C   0  0  0  0  0  0  0  0  0  0  0  0
    3.9861   -2.3043    0.0000 C   0  0  0  0  0  0  0  0  0  0  0  0
    3.3277   -1.1551    0.0000 C   0  0  0  0  0  0  0  0  0  0  0  0
    1.9990   -1.1551    0.0000 C   0  0  0  0  0  0  0  0  0  0  0  0
    1.3287    0.0000    0.0000 O   0  0  0  0  0  0  0  0  0  0  0  0
    0.0000    0.0000    0.0000 C   0  0  0  0  0  0  0  0  0  0  0  0
    1.3287   -2.3043    0.0000 C   0  0  0  0  0  0  0  0  0  0  0  0
    1.9990   -3.4594    0.0000 C   0  0  0  0  0  0  0  0  0  0  0  0
    4.6564   -5.7637    0.0000 C   0  0  0  0  0  0  0  0  0  0  0  0
    5.9851   -5.7637    0.0000 C   0  0  0  0  0  0  0  0  0  0  0  0
  1  2  1  0  0  0  0
  1  3  1  0  0  0  0
  1  4  1  0  0  0  0
  1 12  1  0  0  0  0
  4  5  1  0  0  0  0
  4 11  1  0  0  0  0
  5  6  1  0  0  0  0
  6  7  1  0  0  0  0
  7  8  1  0  0  0  0
  7 10  1  0  0  0  0
  8  9  1  0  0  0  0
 10 11  1  0  0  0  0
 12 13  1  0  0  0  0
M  END
> <ID>
13249

> <Formula>
C12H24O

> <FW>
184.3184

> <DSSTox_CID>
28162

> <DSSTox_RID>
82723

> <DSSTox_GSID>
48187

> <DSSTox_FileID_Sort>
7400

> <TS_ChemName>
1-Methoxy-4-tert-pentylcyclohexane

> <TS_ChemName_Synonyms>


> <TS_CASRN>
199584-38-8

> <CASRN_ChemName_Relationship>
primary

> <TS_Description>
single chemical compound

> <ChemNote>


> <STRUCTURE_Shown>
tested chemical

> <STRUCTURE_Formula>
C12H24O

> <STRUCTURE_MW>
184.3184

> <STRUCTURE_ChemType>
defined organic

> <STRUCTURE_DefinedOrganicForm>
parent

> <STRUCTURE_IUPAC>
1-methoxy-4-(2-methylbutan-2-yl)cyclohexane

> <STRUCTURE_SMILES>
COC1CCC(CC1)C(C)(C)CC

> <STRUCTURE_SMILES_Desalt>
COC1CCC(CC1)C(C)(C)CC

> <Substance_modify_yyyymmdd>
20110630

$$$$
