20004-62-0
ChemmineR-0915142007XD

 28 32  0  0  0  0  0  0  0  0  1 V2000
    2.3012    0.0000    0.0000 C   0  0  0  0  0  0  0  0  0  0  0  0
    2.3012   -1.3314    0.0000 C   0  0  0  0  0  0  0  0  0  0  0  0
    3.4519   -1.9971    0.0000 C   0  0  0  0  0  0  0  0  0  0  0  0
    4.6025   -1.3314    0.0000 C   0  0  0  0  0  0  0  0  0  0  0  0
    5.7613   -1.9971    0.0000 C   0  0  0  0  0  0  0  0  0  0  0  0
    5.7613   -3.3286    0.0000 C   0  0  0  0  0  0  0  0  0  0  0  0
    4.6025   -3.9943    0.0000 C   0  0  0  0  0  0  0  0  0  0  0  0
    3.4519   -3.3286    0.0000 C   0  0  0  0  0  0  0  0  0  0  0  0
    2.3012   -3.9943    0.0000 C   0  0  0  0  0  0  0  0  0  0  0  0
    1.1506   -3.3286    0.0000 C   0  0  0  0  0  0  0  0  0  0  0  0
    1.1506   -1.9971    0.0000 C   0  0  0  0  0  0  0  0  0  0  0  0
    0.0000   -3.9943    0.0000 O   0  0  0  0  0  0  0  0  0  0  0  0
    2.3012   -5.3175    0.0000 C   0  0  0  0  0  0  0  0  0  0  0  0
    1.1506   -5.9832    0.0000 O   0  0  0  0  0  0  0  0  0  0  0  0
    3.4519   -5.9832    0.0000 C   0  0  0  0  0  0  0  0  0  0  0  0
    4.6025   -5.3175    0.0000 C   0  0  0  0  0  0  0  0  0  0  0  0
    5.7613   -5.9832    0.0000 C   0  0  0  0  0  0  0  0  0  0  0  0
    5.7613   -7.3147    0.0000 C   0  0  0  0  0  0  0  0  0  0  0  0
    6.9119   -7.9804    0.0000 O   0  0  0  0  0  0  0  0  0  0  0  0
    4.6025   -7.9804    0.0000 C   0  0  0  0  0  0  0  0  0  0  0  0
    3.4519   -7.3147    0.0000 C   0  0  0  0  0  0  0  0  0  0  0  0
    2.3012   -7.9804    0.0000 O   0  0  0  0  0  0  0  0  0  0  0  0
    6.9119   -5.3175    0.0000 C   0  0  0  0  0  0  0  0  0  0  0  0
    8.0626   -5.9832    0.0000 O   0  0  0  0  0  0  0  0  0  0  0  0
    6.9119   -3.9943    0.0000 C   0  0  0  0  0  0  0  0  0  0  0  0
    7.3640   -2.7450    0.0000 C   0  0  0  0  0  0  0  0  0  0  0  0
    8.2187   -4.2244    0.0000 C   0  0  0  0  0  0  0  0  0  0  0  0
    4.6025    0.0000    0.0000 O   0  0  0  0  0  0  0  0  0  0  0  0
  1  2  1  0  0  0  0
  2  3  2  0  0  0  0
  2 11  1  0  0  0  0
  3  4  1  0  0  0  0
  3  8  1  0  0  0  0
  4  5  2  0  0  0  0
  4 28  1  0  0  0  0
  5  6  1  0  0  0  0
  6  7  2  0  0  0  0
  6 25  1  0  0  0  0
  7  8  1  0  0  0  0
  7 16  1  0  0  0  0
  8  9  2  0  0  0  0
  9 10  1  0  0  0  0
  9 13  1  0  0  0  0
 10 11  2  0  0  0  0
 10 12  1  0  0  0  0
 13 14  2  0  0  0  0
 13 15  1  0  0  0  0
 15 16  2  0  0  0  0
 15 21  1  0  0  0  0
 16 17  1  0  0  0  0
 17 18  2  0  0  0  0
 17 23  1  0  0  0  0
 18 19  1  0  0  0  0
 18 20  1  0  0  0  0
 20 21  2  0  0  0  0
 21 22  1  0  0  0  0
 23 24  2  0  0  0  0
 23 25  1  0  0  0  0
 25 26  1  0  0  0  0
 25 27  1  0  0  0  0
M  END
> <ID>
11407

> <Formula>
C22H16O6

> <FW>
376.3588

> <DSSTox_CID>
26101

> <DSSTox_RID>
81339

> <DSSTox_GSID>
46101

> <DSSTox_FileID_Sort>
6020

> <TS_ChemName>
Geliomycin

> <TS_ChemName_Synonyms>


> <TS_CASRN>
20004-62-0

> <CASRN_ChemName_Relationship>
primary

> <TS_Description>
single chemical compound

> <ChemNote>


> <STRUCTURE_Shown>
tested chemical

> <STRUCTURE_Formula>
C22H16O6

> <STRUCTURE_MW>
376.3588

> <STRUCTURE_ChemType>
defined organic

> <STRUCTURE_DefinedOrganicForm>
parent

> <STRUCTURE_IUPAC>
3,5,7,10-tetrahydroxy-1,1,9-trimethyl-2H-benzo[cd]pyrene-2,6(1H)-dione

> <STRUCTURE_SMILES>
Oc5cc1c3c4c(C(=O)c2c(O)cc(O)c(C(=O)C1(C)C)c23)c(O)cc(C)c45

> <STRUCTURE_SMILES_Desalt>
Oc5cc1c3c4c(C(=O)c2c(O)cc(O)c(C(=O)C1(C)C)c23)c(O)cc(C)c45

> <Substance_modify_yyyymmdd>
20120822

$$$$
