2001-81-2
ChemmineR-0915142007XD

 24 24  0  0  0  0  0  0  0  0  2 V2000
    4.3937   -1.9003    0.0000 C    0  0  0  0  0  0  0  0  0  0  0  0
    3.2514   -2.6033    0.0000 C    0  0  0  0  0  0  0  0  0  0  0  0
    8.9962   -2.0101    0.0000 N    0  3  0  0  0  0  0  0  0  0  0  0
    4.3937   -0.5822    0.0000 O    0  0  0  0  0  0  0  0  0  0  0  0
    2.0980   -1.9003    0.0000 C    0  0  0  0  0  0  0  0  0  0  0  0
    3.2514   -3.9104    0.0000 C    0  0  0  0  0  0  0  0  0  0  0  0
    5.5251   -2.5703    0.0000 O    0  0  0  0  0  0  0  0  0  0  0  0
    6.6675   -1.9332    0.0000 C    0  0  0  0  0  0  0  0  0  0  0  0
    7.8428   -2.6253    0.0000 C    0  0  0  0  0  0  0  0  0  0  0  0
    8.3481   -0.8019    0.0000 C    0  0  0  0  0  0  0  0  0  0  0  0
    9.6662   -3.1525    0.0000 C    0  0  0  0  0  0  0  0  0  0  0  0
   10.1715   -1.3071    0.0000 C    0  0  0  0  0  0  0  0  0  0  0  0
    1.9332   -0.5822    0.0000 C    0  0  0  0  0  0  0  0  0  0  0  0
    0.8458   -2.4605    0.0000 C    0  0  0  0  0  0  0  0  0  0  0  0
    2.2078   -4.6134    0.0000 C    0  0  0  0  0  0  0  0  0  0  0  0
    4.3608   -4.6134    0.0000 C    0  0  0  0  0  0  0  0  0  0  0  0
    6.9970   -0.8348    0.0000 C    0  0  0  0  0  0  0  0  0  0  0  0
   10.9843   -3.1525    0.0000 C    0  0  0  0  0  0  0  0  0  0  0  0
   10.1715    0.0000    0.0000 C    0  0  0  0  0  0  0  0  0  0  0  0
    3.9214   -5.9315    0.0000 C    0  0  0  0  0  0  0  0  0  0  0  0
    2.6033   -5.9315    0.0000 C    0  0  0  0  0  0  0  0  0  0  0  0
    0.6700   -0.3295    0.0000 C    0  0  0  0  0  0  0  0  0  0  0  0
    0.0000   -1.4499    0.0000 C    0  0  0  0  0  0  0  0  0  0  0  0
    6.7004   -4.1521    0.0000 Br   0  5  0  0  0  0  0  0  0  0  0  0
  1  2  1  0  0  0  0
  1  4  2  0  0  0  0
  1  7  1  0  0  0  0
  2  5  1  0  0  0  0
  2  6  1  0  0  0  0
  3  9  1  0  0  0  0
  3 10  1  0  0  0  0
  3 11  1  0  0  0  0
  3 12  1  0  0  0  0
  5 13  1  0  0  0  0
  5 14  1  0  0  0  0
  6 15  1  0  0  0  0
  6 16  1  0  0  0  0
  7  8  1  0  0  0  0
  8  9  1  0  0  0  0
 10 17  1  0  0  0  0
 11 18  1  0  0  0  0
 12 19  1  0  0  0  0
 13 22  1  0  0  0  0
 14 23  1  0  0  0  0
 15 21  1  0  0  0  0
 16 20  1  0  0  0  0
 20 21  1  0  0  0  0
 22 23  1  0  0  0  0
M  END
> <ID>
13786

> <Formula>
C20H38BrNO2

> <FW>
404.4252 (324.5207+79.9045)

> <DSSTox_CID>
28723

> <DSSTox_RID>
82992

> <DSSTox_GSID>
48797

> <DSSTox_FileID_Sort>
7669

> <TS_ChemName>
Diponium bromide

> <TS_ChemName_Synonyms>


> <TS_CASRN>
2001-81-2

> <CASRN_ChemName_Relationship>
primary

> <TS_Description>
single chemical compound

> <ChemNote>


> <STRUCTURE_Shown>
tested chemical

> <STRUCTURE_Formula>
C20H38BrNO2

> <STRUCTURE_MW>
404.4252

> <STRUCTURE_ChemType>
defined organic

> <STRUCTURE_DefinedOrganicForm>
salt

> <STRUCTURE_IUPAC>
2-[(dicyclopentylacetyl)oxy]-N,N,N-triethylethanaminium bromide

> <STRUCTURE_SMILES>
[Br-].CC[N+](CC)(CC)CCOC(=O)C(C1CCCC1)C2CCCC2

> <STRUCTURE_SMILES_Desalt>
CC[N+](CC)(CC)CCOC(=O)C(C1CCCC1)C2CCCC2

> <Substance_modify_yyyymmdd>
20111204

$$$$
