2002-29-1
ChemmineR-0915142007XD

 37 40  0  0  1  0  0  0  0  0  1 V2000
    3.6364   -5.4683    0.0000 C   0  0  0  0  0  0  0  0  0  0  0  0
    7.1625   -3.4573    0.0000 C   0  0  0  0  0  0  0  0  0  0  0  0
    4.7796   -4.8347    0.0000 C   0  0  0  0  0  0  0  0  0  0  0  0
    3.6364   -6.8870    0.0000 C   0  0  0  0  0  0  0  0  0  0  0  0
    7.1625   -4.8347    0.0000 C   0  0  0  0  0  0  0  0  0  0  0  0
    5.9779   -5.4683    0.0000 C   0  0  0  0  0  0  0  0  0  0  0  0
    8.4986   -2.9890    0.0000 C   0  0  0  0  0  0  0  0  0  0  0  0
    4.7796   -3.4573    0.0000 C   0  0  0  0  0  0  0  0  0  0  0  0
    2.4380   -4.8347    0.0000 C   0  0  0  0  0  0  0  0  0  0  0  0
    5.9779   -2.7548    0.0000 C   0  0  0  0  0  0  0  0  0  0  0  0
    9.2699   -4.1322    0.0000 C   0  0  0  0  0  0  0  0  0  0  0  0
    8.4435   -5.2479    0.0000 C   0  0  0  0  0  0  0  0  0  0  0  0
    5.9779   -6.8870    0.0000 C   0  0  0  0  0  0  0  0  0  0  0  0
    4.7796   -7.5895    0.0000 C   0  0  0  0  0  0  0  0  0  0  0  0
    2.4380   -7.5895    0.0000 C   0  0  0  0  0  0  0  0  0  0  0  0
    8.4986   -1.6116    0.0000 C   0  0  0  0  0  0  0  0  0  0  0  0
   11.8457   -1.1157    0.0000 C   0  0  0  0  0  0  0  0  0  0  0  0
    1.1983   -5.4683    0.0000 C   0  0  0  0  0  0  0  0  0  0  0  0
    1.1983   -6.8870    0.0000 C   0  0  0  0  0  0  0  0  0  0  0  0
   12.7686   -1.7080    0.0000 C   0  0  0  0  0  0  0  0  0  0  0  0
   10.8815   -1.6667    0.0000 O   0  0  0  0  0  0  0  0  0  0  0  0
    9.6969   -0.9642    0.0000 C   0  0  0  0  0  0  0  0  0  0  0  0
    4.7245   -5.9779    0.0000 F   0  0  0  0  0  0  0  0  0  0  0  0
   11.8457    0.0000    0.0000 O   0  0  0  0  0  0  0  0  0  0  0  0
    7.3003   -0.9366    0.0000 O   0  0  0  0  0  0  0  0  0  0  0  0
    0.0000   -7.6171    0.0000 O   0  0  0  0  0  0  0  0  0  0  0  0
    9.8760   -2.9890    0.0000 O   0  0  0  0  0  0  0  0  0  0  0  0
    3.6364   -4.1322    0.0000 C   0  0  0  0  0  0  0  0  0  0  0  0
    7.1625   -2.0248    0.0000 C   0  0  0  0  0  0  0  0  0  0  0  0
    3.5813   -2.7548    0.0000 O   0  0  0  0  0  0  0  0  0  0  0  0
    4.7245   -8.7328    0.0000 F   0  0  0  0  0  0  0  0  0  0  0  0
   10.6473   -4.0909    0.0000 C   0  0  0  0  0  0  0  0  0  0  0  0
   12.1625   -2.7135    0.0000 C   0  0  0  0  0  0  0  0  0  0  0  0
   13.4022   -0.7438    0.0000 C   0  0  0  0  0  0  0  0  0  0  0  0
   13.7741   -2.3416    0.0000 C   0  0  0  0  0  0  0  0  0  0  0  0
    5.9779   -4.1322    0.0000 H   0  0  0  0  0  0  0  0  0  0  0  0
    7.1625   -6.1570    0.0000 H   0  0  0  0  0  0  0  0  0  0  0  0
  1  3  1  0  0  0  0
  1  4  1  0  0  0  0
  1  9  1  0  0  0  0
  1 28  1  0  0  0  0
  2 10  1  0  0  0  0
  2  7  1  0  0  0  0
  2 29  1  0  0  0  0
  2  5  1  0  0  0  0
  3  6  1  0  0  0  0
  3  8  1  0  0  0  0
  3 23  1  6  0  0  0
  4 14  1  0  0  0  0
  4 15  2  0  0  0  0
  5  6  1  0  0  0  0
  5 12  1  0  0  0  0
  5 37  1  6  0  0  0
  6 13  1  0  0  0  0
  6 36  1  0  0  0  0
  7 16  1  1  0  0  0
  7 27  1  6  0  0  0
  7 11  1  0  0  0  0
  8 10  1  0  0  0  0
  8 30  1  1  0  0  0
  9 18  2  0  0  0  0
 11 12  1  0  0  0  0
 11 32  1  6  0  0  0
 13 14  1  0  0  0  0
 14 31  1  6  0  0  0
 15 19  1  0  0  0  0
 16 22  1  0  0  0  0
 16 25  2  0  0  0  0
 17 21  1  0  0  0  0
 17 20  1  0  0  0  0
 17 24  2  0  0  0  0
 18 19  1  0  0  0  0
 19 26  2  0  0  0  0
 20 33  1  0  0  0  0
 20 34  1  0  0  0  0
 20 35  1  0  0  0  0
 21 22  1  0  0  0  0
M  END
> <ID>
13990

> <Formula>
C27H36F2O6

> <FW>
494.5679

> <DSSTox_CID>
28931

> <DSSTox_RID>
83197

> <DSSTox_GSID>
49005

> <DSSTox_FileID_Sort>
7873

> <TS_ChemName>
Flumethasone pivalate

> <TS_ChemName_Synonyms>


> <TS_CASRN>
2002-29-1

> <CASRN_ChemName_Relationship>
primary

> <TS_Description>
single chemical compound

> <ChemNote>


> <STRUCTURE_Shown>
tested chemical

> <STRUCTURE_Formula>
C27H36F2O6

> <STRUCTURE_MW>
494.5679

> <STRUCTURE_ChemType>
defined organic

> <STRUCTURE_DefinedOrganicForm>
parent

> <STRUCTURE_IUPAC>
(6alpha,8xi,10xi,11beta,13xi,16alpha)-6,9-difluoro-11,17-dihydroxy-16-methyl-3,20-dioxopregna-1,4-dien-21-yl 2,2-dimethylpropanoate

> <STRUCTURE_SMILES>
CC(C)(C)C(=O)OCC(=O)[C@@]4(O)[C@H](C)C[C@@H]3C4(C)C[C@H](O)[C@@]2(F)C3C[C@H](F)C1=CC(=O)C=CC12C

> <STRUCTURE_SMILES_Desalt>
CC(C)(C)C(=O)OCC(=O)[C@@]4(O)[C@H](C)C[C@@H]3C4(C)C[C@H](O)[C@@]2(F)C3C[C@H](F)C1=CC(=O)C=CC12C

> <Substance_modify_yyyymmdd>
20111204

$$$$
