200707-85-3
ChemmineR-0915142007XD

 29 29  0  0  0  0  0  0  0  0  1 V2000
    4.2770   -8.2997    0.0000 Cl   0  0  0  0  0  0  0  0  0  0  0  0
    9.9148   -8.1053    0.0000 Cl   0  0  0  0  0  0  0  0  0  0  0  0
    1.1365   -6.6547    0.0000 C    0  0  0  0  0  0  0  0  0  0  0  0
    0.0000   -5.9818    0.0000 O    0  0  0  0  0  0  0  0  0  0  0  0
    2.2880   -5.9818    0.0000 C    0  0  0  0  0  0  0  0  0  0  0  0
    1.1365   -7.9857    0.0000 N    0  0  0  0  0  0  0  0  0  0  0  0
    3.4395   -6.6547    0.0000 O    0  0  0  0  0  0  0  0  0  0  0  0
    4.5910   -5.9818    0.0000 C    0  0  0  0  0  0  0  0  0  0  0  0
    5.7425   -6.6547    0.0000 C    0  0  0  0  0  0  0  0  0  0  0  0
    6.8940   -5.9818    0.0000 N    0  0  0  0  0  0  0  0  0  0  0  0
    9.2119   -4.6508    0.0000 N    0  0  0  0  0  0  0  0  0  0  0  0
    9.2119   -5.9818    0.0000 C    0  0  0  0  0  0  0  0  0  0  0  0
    6.8940   -4.6508    0.0000 C    0  0  0  0  0  0  0  0  0  0  0  0
    8.0605   -3.9928    0.0000 C    0  0  0  0  0  0  0  0  0  0  0  0
    8.0605   -6.6547    0.0000 C    0  0  0  0  0  0  0  0  0  0  0  0
   10.3485   -3.9928    0.0000 C    0  0  0  0  0  0  0  0  0  0  0  0
   13.8030   -4.6508    0.0000 C    0  0  0  0  0  0  0  0  0  0  0  0
   13.8030   -5.9818    0.0000 C    0  0  0  0  0  0  0  0  0  0  0  0
   12.6515   -6.6547    0.0000 C    0  0  0  0  0  0  0  0  0  0  0  0
   11.5000   -5.9818    0.0000 C    0  0  0  0  0  0  0  0  0  0  0  0
   11.5000   -4.6508    0.0000 C    0  0  0  0  0  0  0  0  0  0  0  0
   12.6515   -3.9928    0.0000 C    0  0  0  0  0  0  0  0  0  0  0  0
   14.9545   -6.6547    0.0000 Cl   0  0  0  0  0  0  0  0  0  0  0  0
    9.2119   -0.6580    0.0000 C    0  0  0  0  0  0  0  0  0  0  0  0
   10.3485    0.0000    0.0000 C    0  0  0  0  0  0  0  0  0  0  0  0
   11.5000   -0.6580    0.0000 C    0  0  0  0  0  0  0  0  0  0  0  0
   11.5000   -1.9889    0.0000 C    0  0  0  0  0  0  0  0  0  0  0  0
   10.3485   -2.6619    0.0000 C    0  0  0  0  0  0  0  0  0  0  0  0
    9.2119   -1.9889    0.0000 C    0  0  0  0  0  0  0  0  0  0  0  0
  3  4  2  0  0  0  0
  3  6  1  0  0  0  0
  3  5  1  0  0  0  0
  5  7  1  0  0  0  0
  7  8  1  0  0  0  0
  8  9  1  0  0  0  0
  9 10  1  0  0  0  0
 10 13  1  0  0  0  0
 10 15  1  0  0  0  0
 11 12  1  0  0  0  0
 11 14  1  0  0  0  0
 11 16  1  0  0  0  0
 12 15  1  0  0  0  0
 13 14  1  0  0  0  0
 16 21  1  0  0  0  0
 16 28  1  0  0  0  0
 17 22  2  0  0  0  0
 17 18  1  0  0  0  0
 18 19  2  0  0  0  0
 18 23  1  0  0  0  0
 19 20  1  0  0  0  0
 20 21  2  0  0  0  0
 21 22  1  0  0  0  0
 24 29  2  0  0  0  0
 24 25  1  0  0  0  0
 25 26  2  0  0  0  0
 26 27  1  0  0  0  0
 27 28  2  0  0  0  0
 28 29  1  0  0  0  0
M  END
> <ID>
14036

> <Formula>
C21H28Cl3N3O2

> <FW>
460.8249 (36.4609+36.4609+387.9030)

> <DSSTox_CID>
28978

> <DSSTox_RID>
83243

> <DSSTox_GSID>
49052

> <DSSTox_FileID_Sort>
7918

> <TS_ChemName>
Cetirizine amide dihydrochloride

> <TS_ChemName_Synonyms>


> <TS_CASRN>
200707-85-3

> <CASRN_ChemName_Relationship>
primary

> <TS_Description>
single chemical compound

> <ChemNote>


> <STRUCTURE_Shown>
tested chemical

> <STRUCTURE_Formula>
C21H28Cl3N3O2

> <STRUCTURE_MW>
460.8249

> <STRUCTURE_ChemType>
defined organic

> <STRUCTURE_DefinedOrganicForm>
complex

> <STRUCTURE_IUPAC>
2-(2-{4-[(4-chlorophenyl)(phenyl)methyl]piperazin-1-yl}ethoxy)acetamide dihydrochloride

> <STRUCTURE_SMILES>
Cl.Cl.NC(=O)COCCN1CCN(CC1)C(c2ccc(Cl)cc2)c3ccccc3

> <STRUCTURE_SMILES_Desalt>
NC(=O)COCCN1CCN(CC1)C(c2ccc(Cl)cc2)c3ccccc3

> <Substance_modify_yyyymmdd>
20111204

$$$$
