2008-39-1
ChemmineR-0915142007XD

 16 15  0  0  0  0  0  0  0  0  1 V2000
   12.2129   -3.2609    0.0000 C    0  0  0  0  0  0  0  0  0  0  0  0
   11.0649   -2.5891    0.0000 N    0  0  0  0  0  0  0  0  0  0  0  0
    9.9047   -3.2609    0.0000 C    0  0  0  0  0  0  0  0  0  0  0  0
    6.9125   -1.3312    0.0000 C    0  0  0  0  0  0  0  0  0  0  0  0
    6.9125    0.0000    0.0000 O    0  0  0  0  0  0  0  0  0  0  0  0
    8.0727   -1.9907    0.0000 O    0  0  0  0  0  0  0  0  0  0  0  0
    5.7645   -1.9907    0.0000 C    0  0  0  0  0  0  0  0  0  0  0  0
    4.5798   -1.3312    0.0000 O    0  0  0  0  0  0  0  0  0  0  0  0
    3.4563   -1.9907    0.0000 C    0  0  0  0  0  0  0  0  0  0  0  0
    3.4563   -3.3219    0.0000 C    0  0  0  0  0  0  0  0  0  0  0  0
    2.3082   -1.3312    0.0000 C    0  0  0  0  0  0  0  0  0  0  0  0
    2.3082   -3.9936    0.0000 C    0  0  0  0  0  0  0  0  0  0  0  0
    1.1480   -1.9907    0.0000 C    0  0  0  0  0  0  0  0  0  0  0  0
    1.1480   -3.3219    0.0000 C    0  0  0  0  0  0  0  0  0  0  0  0
    4.5798   -3.9936    0.0000 Cl   0  0  0  0  0  0  0  0  0  0  0  0
    0.0000   -3.9936    0.0000 Cl   0  0  0  0  0  0  0  0  0  0  0  0
  1  2  1  0  0  0  0
  2  3  1  0  0  0  0
  4  5  2  0  0  0  0
  4  6  1  0  0  0  0
  4  7  1  0  0  0  0
  7  8  1  0  0  0  0
  8  9  1  0  0  0  0
  9 10  2  0  0  0  0
  9 11  1  0  0  0  0
 10 12  1  0  0  0  0
 10 15  1  0  0  0  0
 11 13  2  0  0  0  0
 12 14  2  0  0  0  0
 13 14  1  0  0  0  0
 14 16  1  0  0  0  0
M  END
> <ID>
3905

> <Formula>
C10H13Cl2NO3

> <FW>
266.1211 (45.0837+221.0374)

> <DSSTox_CID>
4896

> <DSSTox_RID>
77572

> <DSSTox_GSID>
24896

> <DSSTox_FileID_Sort>
2255

> <TS_ChemName>
2,4-D, Dimethylamine salt

> <TS_ChemName_Synonyms>
2,4-D, dimethylamine salt (DMA-4 herbicide)

> <TS_CASRN>
2008-39-1

> <CASRN_ChemName_Relationship>
primary

> <TS_Description>
single chemical compound

> <ChemNote>
parent[94-75-7]

> <STRUCTURE_Shown>
tested chemical

> <STRUCTURE_Formula>
C10H13Cl2NO3

> <STRUCTURE_MW>
266.1211

> <STRUCTURE_ChemType>
defined organic

> <STRUCTURE_DefinedOrganicForm>
complex

> <STRUCTURE_IUPAC>
(2,4-dichlorophenoxy)acetic acid - N-methylmethanamine (1:1)

> <STRUCTURE_SMILES>
Clc1cc(Cl)ccc1OCC(=O)O.CNC

> <STRUCTURE_SMILES_Desalt>
Clc1cc(Cl)ccc1OCC(=O)O

> <Substance_modify_yyyymmdd>
20130408

$$$$
