2008-58-4
ChemmineR-0915142007XD

 11 11  0  0  0  0  0  0  0  0  1 V2000
    2.6581   -1.1545    0.0000 C    0  0  0  0  0  0  0  0  0  0  0  0
    1.9971    0.0000    0.0000 Cl   0  0  0  0  0  0  0  0  0  0  0  0
    3.9895   -1.1545    0.0000 C    0  0  0  0  0  0  0  0  0  0  0  0
    4.6552   -2.3043    0.0000 C    0  0  0  0  0  0  0  0  0  0  0  0
    3.9895   -3.4588    0.0000 C    0  0  0  0  0  0  0  0  0  0  0  0
    2.6581   -3.4588    0.0000 C    0  0  0  0  0  0  0  0  0  0  0  0
    1.9971   -4.6086    0.0000 Cl   0  0  0  0  0  0  0  0  0  0  0  0
    1.9971   -2.3043    0.0000 C    0  0  0  0  0  0  0  0  0  0  0  0
    0.6657   -2.3043    0.0000 C    0  0  0  0  0  0  0  0  0  0  0  0
    0.0000   -3.4588    0.0000 O    0  0  0  0  0  0  0  0  0  0  0  0
    0.0000   -1.1545    0.0000 N    0  0  0  0  0  0  0  0  0  0  0  0
  1  2  1  0  0  0  0
  1  3  2  0  0  0  0
  1  8  1  0  0  0  0
  3  4  1  0  0  0  0
  4  5  2  0  0  0  0
  5  6  1  0  0  0  0
  6  7  1  0  0  0  0
  6  8  2  0  0  0  0
  8  9  1  0  0  0  0
  9 10  2  0  0  0  0
  9 11  1  0  0  0  0
M  END
> <ID>
2009

> <Formula>
C7H5Cl2NO

> <FW>
190.0267

> <DSSTox_CID>
2170

> <DSSTox_RID>
76511

> <DSSTox_GSID>
22170

> <DSSTox_FileID_Sort>
1195

> <TS_ChemName>
2,6-Dichlorobenzamide

> <TS_ChemName_Synonyms>


> <TS_CASRN>
2008-58-4

> <CASRN_ChemName_Relationship>
primary

> <TS_Description>
single chemical compound

> <ChemNote>


> <STRUCTURE_Shown>
tested chemical

> <STRUCTURE_Formula>
C7H5Cl2NO

> <STRUCTURE_MW>
190.0267

> <STRUCTURE_ChemType>
defined organic

> <STRUCTURE_DefinedOrganicForm>
parent

> <STRUCTURE_IUPAC>
2,6-dichlorobenzamide

> <STRUCTURE_SMILES>
O=C(N)c1c(Cl)cccc1Cl

> <STRUCTURE_SMILES_Desalt>
O=C(N)c1c(Cl)cccc1Cl

> <Substance_modify_yyyymmdd>
20080429

$$$$
