2008-41-5
ChemmineR-0915142007XD

 14 13  0  0  0  0  0  0  0  0  1 V2000
    3.4632   -2.0086    0.0000 C   0  0  0  0  0  0  0  0  0  0  0  0
    2.2926   -2.6666    0.0000 N   0  0  0  0  0  0  0  0  0  0  0  0
    3.4632   -0.6719    0.0000 O   0  0  0  0  0  0  0  0  0  0  0  0
    2.2926   -3.9965    0.0000 C   0  0  0  0  0  0  0  0  0  0  0  0
    1.1567   -2.0086    0.0000 C   0  0  0  0  0  0  0  0  0  0  0  0
    4.5991   -2.6666    0.0000 S   0  0  0  0  0  0  0  0  0  0  0  0
    1.1567   -0.6719    0.0000 C   0  0  0  0  0  0  0  0  0  0  0  0
    1.1567   -4.6684    0.0000 C   0  0  0  0  0  0  0  0  0  0  0  0
    5.7697   -2.0086    0.0000 C   0  0  0  0  0  0  0  0  0  0  0  0
    0.0000    0.0000    0.0000 C   0  0  0  0  0  0  0  0  0  0  0  0
    0.0000   -3.9965    0.0000 C   0  0  0  0  0  0  0  0  0  0  0  0
    2.2926    0.0000    0.0000 C   0  0  0  0  0  0  0  0  0  0  0  0
    1.1567   -5.9982    0.0000 C   0  0  0  0  0  0  0  0  0  0  0  0
    6.9264   -2.6666    0.0000 C   0  0  0  0  0  0  0  0  0  0  0  0
  1  2  1  0  0  0  0
  1  3  2  0  0  0  0
  1  6  1  0  0  0  0
  2  4  1  0  0  0  0
  2  5  1  0  0  0  0
  4  8  1  0  0  0  0
  5  7  1  0  0  0  0
  6  9  1  0  0  0  0
  7 10  1  0  0  0  0
  7 12  1  0  0  0  0
  8 11  1  0  0  0  0
  8 13  1  0  0  0  0
  9 14  1  0  0  0  0
M  END
> <ID>
3432

> <Formula>
C11H23NOS

> <FW>
217.3714

> <DSSTox_CID>
3936

> <DSSTox_RID>
77235

> <DSSTox_GSID>
23936

> <DSSTox_FileID_Sort>
1918

> <TS_ChemName>
Butylate

> <TS_ChemName_Synonyms>


> <TS_CASRN>
2008-41-5

> <CASRN_ChemName_Relationship>
primary

> <TS_Description>
single chemical compound

> <ChemNote>


> <STRUCTURE_Shown>
tested chemical

> <STRUCTURE_Formula>
C11H23NOS

> <STRUCTURE_MW>
217.3714

> <STRUCTURE_ChemType>
defined organic

> <STRUCTURE_DefinedOrganicForm>
parent

> <STRUCTURE_IUPAC>
S-ethyl bis(2-methylpropyl)carbamothioate

> <STRUCTURE_SMILES>
CC(C)CN(CC(C)C)C(=O)SCC

> <STRUCTURE_SMILES_Desalt>
CC(C)CN(CC(C)C)C(=O)SCC

> <Substance_modify_yyyymmdd>
20080429

$$$$
