200940-23-4
ChemmineR-0915142007XD

 32 34  0  0  0  0  0  0  0  0  1 V2000
    6.9108   -0.6896    0.0000 C    0  0  0  0  0  0  0  0  0  0  0  0
    6.9108   -2.0101    0.0000 C    0  0  0  0  0  0  0  0  0  0  0  0
    5.7663    0.0000    0.0000 C    0  0  0  0  0  0  0  0  0  0  0  0
    5.7663   -2.6704    0.0000 N    0  0  0  0  0  0  0  0  0  0  0  0
    4.6219   -0.6896    0.0000 C    0  0  0  0  0  0  0  0  0  0  0  0
    4.6219   -2.0101    0.0000 C    0  0  0  0  0  0  0  0  0  0  0  0
    2.3036   -0.6896    0.0000 C    0  0  0  0  0  0  0  0  0  0  0  0
    2.3036   -2.0101    0.0000 C    0  0  0  0  0  0  0  0  0  0  0  0
    1.1591    0.0000    0.0000 N    0  0  0  0  0  0  0  0  0  0  0  0
    1.1591   -2.6704    0.0000 C    0  0  0  0  0  0  0  0  0  0  0  0
    0.0000   -0.6896    0.0000 C    0  0  0  0  0  0  0  0  0  0  0  0
    0.0000   -2.0101    0.0000 C    0  0  0  0  0  0  0  0  0  0  0  0
    3.4627   -2.6704    0.0000 O    0  0  0  0  0  0  0  0  0  0  0  0
    8.0699    0.0000    0.0000 N    0  0  0  0  0  0  0  0  0  0  0  0
    9.2144   -0.6896    0.0000 C    0  0  0  0  0  0  0  0  0  0  0  0
   10.3735    0.0000    0.0000 O    0  0  0  0  0  0  0  0  0  0  0  0
    9.2144   -2.0101    0.0000 N    0  0  0  0  0  0  0  0  0  0  0  0
   10.3002   -2.7878    0.0000 C    0  0  0  0  0  0  0  0  0  0  0  0
    8.1433   -2.7878    0.0000 C    0  0  0  0  0  0  0  0  0  0  0  0
    9.8893   -4.0496    0.0000 C    0  0  0  0  0  0  0  0  0  0  0  0
    8.5688   -4.0496    0.0000 C    0  0  0  0  0  0  0  0  0  0  0  0
   11.6060   -2.5090    0.0000 C    0  0  0  0  0  0  0  0  0  0  0  0
   12.4864   -3.5067    0.0000 C    0  0  0  0  0  0  0  0  0  0  0  0
   10.7697   -5.0474    0.0000 C    0  0  0  0  0  0  0  0  0  0  0  0
   12.0755   -4.7686    0.0000 C    0  0  0  0  0  0  0  0  0  0  0  0
    3.4627    0.0000    0.0000 C    0  0  0  0  0  0  0  0  0  0  0  0
   13.7922   -3.1986    0.0000 C    0  0  0  0  0  0  0  0  0  0  0  0
   14.6726   -4.2110    0.0000 F    0  0  0  0  0  0  0  0  0  0  0  0
   14.2177   -1.9661    0.0000 F    0  0  0  0  0  0  0  0  0  0  0  0
   12.9119   -2.2449    0.0000 F    0  0  0  0  0  0  0  0  0  0  0  0
   12.9706   -5.7517    0.0000 C    0  0  0  0  0  0  0  0  0  0  0  0
    6.0011   -4.4605    0.0000 Cl   0  0  0  0  0  0  0  0  0  0  0  0
  1  2  1  0  0  0  0
  1  3  2  0  0  0  0
  1 14  1  0  0  0  0
  2  4  2  0  0  0  0
  3  5  1  0  0  0  0
  4  6  1  0  0  0  0
  5  6  2  0  0  0  0
  6 13  1  0  0  0  0
  7  8  1  0  0  0  0
  7  9  2  0  0  0  0
  7 26  1  0  0  0  0
  8 10  2  0  0  0  0
  8 13  1  0  0  0  0
  9 11  1  0  0  0  0
 10 12  1  0  0  0  0
 11 12  2  0  0  0  0
 14 15  1  0  0  0  0
 15 16  2  0  0  0  0
 15 17  1  0  0  0  0
 17 18  1  0  0  0  0
 17 19  1  0  0  0  0
 18 22  1  0  0  0  0
 18 20  2  0  0  0  0
 19 21  1  0  0  0  0
 20 21  1  0  0  0  0
 20 24  1  0  0  0  0
 22 23  2  0  0  0  0
 23 25  1  0  0  0  0
 23 27  1  0  0  0  0
 24 25  2  0  0  0  0
 25 31  1  0  0  0  0
 27 28  1  0  0  0  0
 27 29  1  0  0  0  0
 27 30  1  0  0  0  0
M  END
> <ID>
12464

> <Formula>
C22H20ClF3N4O2

> <FW>
464.8680 (428.4071+36.4609)

> <DSSTox_CID>
27322

> <DSSTox_RID>
82269

> <DSSTox_GSID>
47322

> <DSSTox_FileID_Sort>
6950

> <TS_ChemName>
SB243213A

> <TS_ChemName_Synonyms>


> <TS_CASRN>
200940-23-4

> <CASRN_ChemName_Relationship>
primary

> <TS_Description>
single chemical compound

> <ChemNote>


> <STRUCTURE_Shown>
tested chemical

> <STRUCTURE_Formula>
C22H20ClF3N4O2

> <STRUCTURE_MW>
464.868

> <STRUCTURE_ChemType>
defined organic

> <STRUCTURE_DefinedOrganicForm>
complex

> <STRUCTURE_IUPAC>
5-methyl-N-{6-[(2-methylpyridin-3-yl)oxy]pyridin-3-yl}-6-(trifluoromethyl)-2,3-dihydro-1H-indole-1-carboxamide hydrochloride (1:1)

> <STRUCTURE_SMILES>
Cl.Cc4ncccc4Oc1ccc(cn1)NC(=O)N3CCc2cc(C)c(cc23)C(F)(F)F

> <STRUCTURE_SMILES_Desalt>
Cc4ncccc4Oc1ccc(cn1)NC(=O)N3CCc2cc(C)c(cc23)C(F)(F)F

> <Substance_modify_yyyymmdd>
20130910

$$$$
