2009-83-8
ChemmineR-0915142007XD

  8  7  0  0  0  0  0  0  0  0  1 V2000
    3.3378   -2.2911    0.0000 C    0  0  0  0  0  0  0  0  0  0  0  0
    3.9966   -1.1346    0.0000 C    0  0  0  0  0  0  0  0  0  0  0  0
    2.0056   -2.2911    0.0000 C    0  0  0  0  0  0  0  0  0  0  0  0
    5.3288   -1.1346    0.0000 C    0  0  0  0  0  0  0  0  0  0  0  0
    1.3322   -3.4476    0.0000 C    0  0  0  0  0  0  0  0  0  0  0  0
    5.9875    0.0000    0.0000 C    0  0  0  0  0  0  0  0  0  0  0  0
    0.0000   -3.4476    0.0000 Cl   0  0  0  0  0  0  0  0  0  0  0  0
    7.3197    0.0000    0.0000 O    0  0  0  0  0  0  0  0  0  0  0  0
  1  2  1  0  0  0  0
  1  3  1  0  0  0  0
  2  4  1  0  0  0  0
  3  5  1  0  0  0  0
  4  6  1  0  0  0  0
  5  7  1  0  0  0  0
  6  8  1  0  0  0  0
M  END
> <ID>
14103

> <Formula>
C6H13ClO

> <FW>
136.6198

> <DSSTox_CID>
29096

> <DSSTox_RID>
83315

> <DSSTox_GSID>
49240

> <DSSTox_FileID_Sort>
7990

> <TS_ChemName>
6-Chlorohexan-1-ol

> <TS_ChemName_Synonyms>


> <TS_CASRN>
2009-83-8

> <CASRN_ChemName_Relationship>
primary

> <TS_Description>
single chemical compound

> <ChemNote>


> <STRUCTURE_Shown>
tested chemical

> <STRUCTURE_Formula>
C6H13ClO

> <STRUCTURE_MW>
136.6198

> <STRUCTURE_ChemType>
defined organic

> <STRUCTURE_DefinedOrganicForm>
parent

> <STRUCTURE_IUPAC>
6-chlorohexan-1-ol

> <STRUCTURE_SMILES>
ClCCCCCCO

> <STRUCTURE_SMILES_Desalt>
ClCCCCCCO

> <Substance_modify_yyyymmdd>
20111204

$$$$
