20098-48-0
ChemmineR-0915142007XD

 12 12  0  0  0  0  0  0  0  0  2 V2000
    5.9827   -3.4580    0.0000 O    0  5  0  0  0  0  0  0  0  0  0  0
    5.3186   -2.3033    0.0000 N    0  3  0  0  0  0  0  0  0  0  0  0
    5.9827   -1.1547    0.0000 O    0  0  0  0  0  0  0  0  0  0  0  0
    3.9905   -2.3033    0.0000 C    0  0  0  0  0  0  0  0  0  0  0  0
    3.3264   -3.4580    0.0000 C    0  0  0  0  0  0  0  0  0  0  0  0
    1.9922   -3.4580    0.0000 C    0  0  0  0  0  0  0  0  0  0  0  0
    1.3282   -2.3033    0.0000 C    0  0  0  0  0  0  0  0  0  0  0  0
    0.0000   -2.3033    0.0000 Cl   0  0  0  0  0  0  0  0  0  0  0  0
    1.9922   -1.1547    0.0000 C    0  0  0  0  0  0  0  0  0  0  0  0
    3.3264   -1.1547    0.0000 C    0  0  0  0  0  0  0  0  0  0  0  0
    1.3282    0.0000    0.0000 Cl   0  0  0  0  0  0  0  0  0  0  0  0
    1.3282   -4.6067    0.0000 Cl   0  0  0  0  0  0  0  0  0  0  0  0
  1  2  1  0  0  0  0
  2  3  2  0  0  0  0
  2  4  1  0  0  0  0
  4  5  2  0  0  0  0
  4 10  1  0  0  0  0
  5  6  1  0  0  0  0
  6  7  2  0  0  0  0
  6 12  1  0  0  0  0
  7  8  1  0  0  0  0
  7  9  1  0  0  0  0
  9 10  2  0  0  0  0
  9 11  1  0  0  0  0
M  END
> <ID>
4592

> <Formula>
C6H2Cl3NO2

> <FW>
226.4446

> <DSSTox_CID>
6205

> <DSSTox_RID>
78057

> <DSSTox_GSID>
26205

> <DSSTox_FileID_Sort>
2740

> <TS_ChemName>
3,4,5-Trichloronitrobenzene

> <TS_ChemName_Synonyms>


> <TS_CASRN>
20098-48-0

> <CASRN_ChemName_Relationship>
primary

> <TS_Description>
single chemical compound

> <ChemNote>


> <STRUCTURE_Shown>
tested chemical

> <STRUCTURE_Formula>
C6H2Cl3NO2

> <STRUCTURE_MW>
226.4446

> <STRUCTURE_ChemType>
defined organic

> <STRUCTURE_DefinedOrganicForm>
parent

> <STRUCTURE_IUPAC>
1,2,3-trichloro-5-nitrobenzene

> <STRUCTURE_SMILES>
Clc1cc(cc(Cl)c1Cl)[N+]([O-])=O

> <STRUCTURE_SMILES_Desalt>
Clc1cc(cc(Cl)c1Cl)[N+]([O-])=O

> <Substance_modify_yyyymmdd>
20080429

$$$$
