201530-41-8
ChemmineR-0915142007XD

 28 31  0  0  0  0  0  0  0  0  1 V2000
    2.4739   -6.7859    0.0000 N   0  0  0  0  0  0  0  0  0  0  0  0
    2.8901   -5.5374    0.0000 C   0  0  0  0  0  0  0  0  0  0  0  0
    3.5606   -7.5720    0.0000 C   0  0  0  0  0  0  0  0  0  0  0  0
    4.2195   -5.5374    0.0000 N   0  0  0  0  0  0  0  0  0  0  0  0
    4.6357   -6.7859    0.0000 N   0  0  0  0  0  0  0  0  0  0  0  0
    5.0056   -4.4392    0.0000 C   0  0  0  0  0  0  0  0  0  0  0  0
    4.4623   -3.2369    0.0000 C   0  0  0  0  0  0  0  0  0  0  0  0
    6.3119   -4.5895    0.0000 C   0  0  0  0  0  0  0  0  0  0  0  0
    5.2484   -2.1502    0.0000 C   0  0  0  0  0  0  0  0  0  0  0  0
    7.0980   -3.5143    0.0000 C   0  0  0  0  0  0  0  0  0  0  0  0
    6.5547   -2.2889    0.0000 C   0  0  0  0  0  0  0  0  0  0  0  0
    2.1040   -4.4392    0.0000 C   0  0  0  0  0  0  0  0  0  0  0  0
    0.7861   -4.5895    0.0000 C   0  0  0  0  0  0  0  0  0  0  0  0
    2.6473   -3.2369    0.0000 C   0  0  0  0  0  0  0  0  0  0  0  0
    0.0000   -3.5143    0.0000 C   0  0  0  0  0  0  0  0  0  0  0  0
    1.8612   -2.1502    0.0000 C   0  0  0  0  0  0  0  0  0  0  0  0
    0.5433   -2.2889    0.0000 C   0  0  0  0  0  0  0  0  0  0  0  0
    3.5606   -8.9015    0.0000 C   0  0  0  0  0  0  0  0  0  0  0  0
    4.6935   -9.5720    0.0000 C   0  0  0  0  0  0  0  0  0  0  0  0
    2.4045   -9.5720    0.0000 C   0  0  0  0  0  0  0  0  0  0  0  0
    4.6935  -10.9014    0.0000 C   0  0  0  0  0  0  0  0  0  0  0  0
    2.4045  -10.9014    0.0000 C   0  0  0  0  0  0  0  0  0  0  0  0
    3.5606  -11.5603    0.0000 C   0  0  0  0  0  0  0  0  0  0  0  0
    0.2428   -5.8033    0.0000 O   0  0  0  0  0  0  0  0  0  0  0  0
    5.8495   -8.9015    0.0000 O   0  0  0  0  0  0  0  0  0  0  0  0
    7.3408   -1.2138    0.0000 C   0  0  0  0  0  0  0  0  0  0  0  0
    8.6703   -1.3641    0.0000 O   0  0  0  0  0  0  0  0  0  0  0  0
    6.7975    0.0000    0.0000 O   0  0  0  0  0  0  0  0  0  0  0  0
  1  2  2  0  0  0  0
  1  3  1  0  0  0  0
  2  4  1  0  0  0  0
  2 12  1  0  0  0  0
  3  5  2  0  0  0  0
  3 18  1  0  0  0  0
  4  5  1  0  0  0  0
  4  6  1  0  0  0  0
  6  7  1  0  0  0  0
  6  8  2  0  0  0  0
  7  9  2  0  0  0  0
  8 10  1  0  0  0  0
  9 11  1  0  0  0  0
 10 11  2  0  0  0  0
 11 26  1  0  0  0  0
 12 13  1  0  0  0  0
 12 14  2  0  0  0  0
 13 15  2  0  0  0  0
 13 24  1  0  0  0  0
 14 16  1  0  0  0  0
 15 17  1  0  0  0  0
 16 17  2  0  0  0  0
 18 19  1  0  0  0  0
 18 20  2  0  0  0  0
 19 21  2  0  0  0  0
 19 25  1  0  0  0  0
 20 22  1  0  0  0  0
 21 23  1  0  0  0  0
 22 23  2  0  0  0  0
 26 27  1  0  0  0  0
 26 28  2  0  0  0  0
M  END
> <ID>
13594

> <Formula>
C21H15N3O4

> <FW>
373.3615

> <DSSTox_CID>
28522

> <DSSTox_RID>
82794

> <DSSTox_GSID>
48596

> <DSSTox_FileID_Sort>
7471

> <TS_ChemName>
Deferasirox

> <TS_ChemName_Synonyms>


> <TS_CASRN>
201530-41-8

> <CASRN_ChemName_Relationship>
primary

> <TS_Description>
single chemical compound

> <ChemNote>


> <STRUCTURE_Shown>
tested chemical

> <STRUCTURE_Formula>
C21H15N3O4

> <STRUCTURE_MW>
373.3615

> <STRUCTURE_ChemType>
defined organic

> <STRUCTURE_DefinedOrganicForm>
parent

> <STRUCTURE_IUPAC>
4-[3,5-bis(2-hydroxyphenyl)-1H-1,2,4-triazol-1-yl]benzoic acid

> <STRUCTURE_SMILES>
O=C(O)c1ccc(cc1)n3nc(nc3c2ccccc2O)c4ccccc4O

> <STRUCTURE_SMILES_Desalt>
O=C(O)c1ccc(cc1)n3nc(nc3c2ccccc2O)c4ccccc4O

> <Substance_modify_yyyymmdd>
20111014

$$$$
