201605-51-8_1
ChemmineR-0915142007XD

 40 43  0  0  1  0  0  0  0  0  2 V2000
   11.3482   -8.3788    0.0000 Na   0  3  0  0  0  0  0  0  0  0  0  0
    0.0000   -7.5041    0.0000 C    0  0  0  0  0  0  0  0  0  0  0  0
    1.1624   -6.8365    0.0000 C    0  0  0  0  0  0  0  0  0  0  0  0
    1.1624   -5.5015    0.0000 C    0  0  0  0  0  0  0  0  0  0  0  0
    2.3134   -4.8339    0.0000 C    0  0  0  0  0  0  0  0  0  0  0  0
    3.4758   -5.5015    0.0000 C    0  0  0  0  0  0  0  0  0  0  0  0
    4.6267   -4.8339    0.0000 N    0  0  0  0  0  0  0  0  0  0  0  0
    5.7892   -5.5015    0.0000 C    0  0  0  0  0  0  0  0  0  0  0  0
    6.9286   -4.8339    0.0000 O    0  0  0  0  0  0  0  0  0  0  0  0
    5.7892   -6.8365    0.0000 C    0  0  0  0  0  0  0  0  0  0  0  0
    6.9286   -7.5041    0.0000 C    0  0  0  0  0  0  0  0  0  0  0  0
    8.0911   -6.8365    0.0000 C    0  0  0  0  0  0  0  0  0  0  0  0
    9.2420   -7.5041    0.0000 C    0  0  0  0  0  0  0  0  0  0  0  0
    9.2420   -8.9197    0.0000 O    0  5  0  0  0  0  0  0  0  0  0  0
   10.4044   -6.8365    0.0000 O    0  0  0  0  0  0  0  0  0  0  0  0
    6.9286   -8.8392    0.0000 C    0  0  0  0  0  0  0  0  0  0  0  0
    8.0911   -9.4952    0.0000 C    0  0  0  0  0  0  0  0  0  0  0  0
    8.0911  -10.8303    0.0000 C    0  0  0  0  0  0  0  0  0  0  0  0
    6.9286  -11.5093    0.0000 C    0  0  0  0  0  0  0  0  0  0  0  0
    5.7892  -10.8303    0.0000 C    0  0  0  0  0  0  0  0  0  0  0  0
    5.7892   -9.4952    0.0000 C    0  0  0  0  0  0  0  0  0  0  0  0
    3.4758   -6.8365    0.0000 C    0  0  0  0  0  0  0  0  0  0  0  0
    2.3134   -7.5041    0.0000 C    0  0  0  0  0  0  0  0  0  0  0  0
    4.6267   -7.5041    0.0000 C    0  0  0  0  0  0  0  0  0  0  0  0
    2.3134   -3.4988    0.0000 C    0  0  0  0  0  0  0  0  0  0  0  0
    1.1624   -2.8313    0.0000 O    0  0  0  0  0  0  0  0  0  0  0  0
    3.4758   -2.8313    0.0000 N    0  0  0  0  0  0  0  0  0  0  0  0
    3.4758   -1.4962    0.0000 C    0  0  0  0  0  0  0  0  0  0  0  0
    4.6267   -0.8402    0.0000 C    0  0  0  0  0  0  0  0  0  0  0  0
    5.7892   -1.4962    0.0000 C    0  0  0  0  0  0  0  0  0  0  0  0
    5.7432   -0.2877    0.0000 C    0  0  0  0  0  0  0  0  0  0  0  0
    7.0437    0.0000    0.0000 C    0  0  0  0  0  0  0  0  0  0  0  0
    7.6997   -1.1624    0.0000 C    0  0  0  0  0  0  0  0  0  0  0  0
    6.8135   -2.1522    0.0000 C    0  0  0  0  0  0  0  0  0  0  0  0
    5.7892   -2.8313    0.0000 C    0  0  0  0  0  0  0  0  0  0  0  0
    4.6267   -3.4988    0.0000 C    0  0  0  0  0  0  0  0  0  0  0  0
    4.6267  -11.5093    0.0000 C    0  0  0  0  0  0  0  0  0  0  0  0
    3.4758  -10.8303    0.0000 C    0  0  0  0  0  0  0  0  0  0  0  0
    4.6267   -8.8392    0.0000 C    0  0  0  0  0  0  0  0  0  0  0  0
    3.4758   -9.4952    0.0000 C    0  0  0  0  0  0  0  0  0  0  0  0
  2  3  1  0  0  0  0
  3  4  2  0  0  0  0
  3 23  1  0  0  0  0
  4  5  1  0  0  0  0
  5  6  2  0  0  0  0
  5 25  1  0  0  0  0
  6  7  1  0  0  0  0
  6 22  1  0  0  0  0
  7  8  1  0  0  0  0
  8  9  2  0  0  0  0
  8 10  1  0  0  0  0
 11 10  1  6  0  0  0
 11 12  1  0  0  0  0
 11 16  1  0  0  0  0
 12 13  1  0  0  0  0
 13 14  1  0  0  0  0
 13 15  2  0  0  0  0
 16 17  2  0  0  0  0
 16 21  1  0  0  0  0
 17 18  1  0  0  0  0
 18 19  2  0  0  0  0
 19 20  1  0  0  0  0
 20 37  1  0  0  0  0
 20 21  2  0  0  0  0
 21 39  1  0  0  0  0
 22 23  2  0  0  0  0
 22 24  1  0  0  0  0
 25 26  2  0  0  0  0
 25 27  1  0  0  0  0
 27 28  1  0  0  0  0
 27 36  1  0  0  0  0
 28 29  1  0  0  0  0
 29 30  1  0  0  0  0
 30 31  1  0  0  0  0
 30 34  1  0  0  0  0
 30 35  1  0  0  0  0
 31 32  1  0  0  0  0
 32 33  1  0  0  0  0
 33 34  1  0  0  0  0
 35 36  1  0  0  0  0
 37 38  2  0  0  0  0
 38 40  1  0  0  0  0
 39 40  2  0  0  0  0
M  END
> <ID>
11185

> <Formula>
C33H37N2NaO4

> <FW>
548.6476 (22.9892+525.6584)

> <DSSTox_CID>
25775

> <DSSTox_RID>
81117

> <DSSTox_GSID>
45775

> <DSSTox_FileID_Sort>
5798

> <TS_ChemName>
Itriglumide sodium

> <TS_ChemName_Synonyms>


> <TS_CASRN>
201605-51-8_1

> <CASRN_ChemName_Relationship>
CAS for parent

> <TS_Description>
single chemical compound

> <ChemNote>
stereochem; parent [201605-51-8]

> <STRUCTURE_Shown>
tested chemical

> <STRUCTURE_Formula>
C33H37N2NaO4

> <STRUCTURE_MW>
548.6476

> <STRUCTURE_ChemType>
defined organic

> <STRUCTURE_DefinedOrganicForm>
salt

> <STRUCTURE_IUPAC>
sodium (3R)-5-{[2-(8-azaspiro[4.5]dec-8-ylcarbonyl)-4,6-dimethylphenyl]amino}-3-(naphthalen-1-yl)-5-oxopentanoate

> <STRUCTURE_SMILES>
[Na+].[O-]C(=O)C[C@@H](CC(=O)Nc1c(C)cc(C)cc1C(=O)N3CCC2(CCCC2)CC3)c5cccc4ccccc45

> <STRUCTURE_SMILES_Desalt>
O=C(O)C[C@@H](CC(=O)Nc1c(C)cc(C)cc1C(=O)N3CCC2(CCCC2)CC3)c5cccc4ccccc45

> <Substance_modify_yyyymmdd>
20130911

$$$$
