201677-61-4
ChemmineR-0915142007XD

 35 31  0  0  0  0  0  0  0  0  2 V2000
    4.9636   -5.1771    0.0000 O    0  0  0  0  0  0  0  0  0  0  0  0
    1.8680   -5.1771    0.0000 O    0  0  0  0  0  0  0  0  0  0  0  0
    7.9524   -5.4083    0.0000 O    0  0  0  0  0  0  0  0  0  0  0  0
    4.9280   -6.7071    0.0000 O    0  0  0  0  0  0  0  0  0  0  0  0
   17.7906   -1.4588    0.0000 Na   0  3  0  0  0  0  0  0  0  0  0  0
    4.6611   -2.4551    0.0000 C    0  0  0  0  0  0  0  0  0  0  0  0
    5.3194   -1.3165    0.0000 C    0  0  0  0  0  0  0  0  0  0  0  0
    6.6537   -1.3165    0.0000 C    0  0  0  0  0  0  0  0  0  0  0  0
    7.3297   -2.4551    0.0000 C    0  0  0  0  0  0  0  0  0  0  0  0
    6.6537   -3.6115    0.0000 C    0  0  0  0  0  0  0  0  0  0  0  0
    5.3194   -3.6115    0.0000 C    0  0  0  0  0  0  0  0  0  0  0  0
    3.3268   -2.4551    0.0000 O    0  0  0  0  0  0  0  0  0  0  0  0
    2.6686   -1.3165    0.0000 C    0  0  0  0  0  0  0  0  0  0  0  0
    3.3268   -0.1601    0.0000 O    0  0  0  0  0  0  0  0  0  0  0  0
    1.3343   -1.3165    0.0000 C    0  0  0  0  0  0  0  0  0  0  0  0
    1.3343    0.0000    0.0000 C    0  0  0  0  0  0  0  0  0  0  0  0
    1.3521   -2.6508    0.0000 C    0  0  0  0  0  0  0  0  0  0  0  0
    0.0000   -1.3165    0.0000 C    0  0  0  0  0  0  0  0  0  0  0  0
    8.6462   -2.4551    0.0000 S    0  0  0  0  0  0  0  0  0  0  0  0
    9.9805   -2.4551    0.0000 N    0  0  0  0  0  0  0  0  0  0  0  0
   10.6388   -3.6115    0.0000 C    0  0  0  0  0  0  0  0  0  0  0  0
    8.6462   -3.7894    0.0000 O    0  0  0  0  0  0  0  0  0  0  0  0
    8.6462   -1.1208    0.0000 O    0  0  0  0  0  0  0  0  0  0  0  0
    9.9805   -4.7857    0.0000 C    0  0  0  0  0  0  0  0  0  0  0  0
   10.6388   -5.9243    0.0000 C    0  0  0  0  0  0  0  0  0  0  0  0
   11.9731   -5.9243    0.0000 C    0  0  0  0  0  0  0  0  0  0  0  0
   12.6491   -4.7857    0.0000 C    0  0  0  0  0  0  0  0  0  0  0  0
   11.9731   -3.6115    0.0000 C    0  0  0  0  0  0  0  0  0  0  0  0
   12.6491   -2.4551    0.0000 C    0  0  0  0  0  0  0  0  0  0  0  0
   11.9731   -1.3165    0.0000 O    0  0  0  0  0  0  0  0  0  0  0  0
   13.9834   -2.4551    0.0000 N    0  0  0  0  0  0  0  0  0  0  0  0
   14.6417   -1.3165    0.0000 C    0  0  0  0  0  0  0  0  0  0  0  0
   15.9582   -1.3165    0.0000 C    0  0  0  0  0  0  0  0  0  0  0  0
   16.6342   -0.1601    0.0000 O    0  5  0  0  0  0  0  0  0  0  0  0
   16.6342   -2.4551    0.0000 O    0  0  0  0  0  0  0  0  0  0  0  0
  6 11  1  0  0  0  0
  6  7  2  0  0  0  0
  6 12  1  0  0  0  0
  7  8  1  0  0  0  0
  8  9  2  0  0  0  0
  9 10  1  0  0  0  0
  9 19  1  0  0  0  0
 10 11  2  0  0  0  0
 12 13  1  0  0  0  0
 13 14  2  0  0  0  0
 13 15  1  0  0  0  0
 15 16  1  0  0  0  0
 15 17  1  0  0  0  0
 15 18  1  0  0  0  0
 19 20  1  0  0  0  0
 19 22  2  0  0  0  0
 19 23  2  0  0  0  0
 20 21  1  0  0  0  0
 21 24  2  0  0  0  0
 21 28  1  0  0  0  0
 24 25  1  0  0  0  0
 25 26  2  0  0  0  0
 26 27  1  0  0  0  0
 27 28  2  0  0  0  0
 28 29  1  0  0  0  0
 29 30  2  0  0  0  0
 29 31  1  0  0  0  0
 31 32  1  0  0  0  0
 32 33  1  0  0  0  0
 33 34  1  0  0  0  0
 33 35  2  0  0  0  0
M  END
> <ID>
11921

> <Formula>
C20H29N2NaO11S

> <FW>
528.5058 (18.0153+18.0153+18.0153+18.0153+22.9892+433.4555)

> <DSSTox_CID>
26727

> <DSSTox_RID>
81857

> <DSSTox_GSID>
46727

> <DSSTox_FileID_Sort>
6538

> <TS_ChemName>
Sivelestat sodium tetrahydrate

> <TS_ChemName_Synonyms>


> <TS_CASRN>
201677-61-4

> <CASRN_ChemName_Relationship>
primary

> <TS_Description>
single chemical compound

> <ChemNote>
parent [127373-66-4]

> <STRUCTURE_Shown>
tested chemical

> <STRUCTURE_Formula>
C20H29N2NaO11S

> <STRUCTURE_MW>
528.5058

> <STRUCTURE_ChemType>
defined organic

> <STRUCTURE_DefinedOrganicForm>
salt complex

> <STRUCTURE_IUPAC>
sodium ({2-[({4-[(2,2-dimethylpropanoyl)oxy]phenyl}sulfonyl)amino]benzoyl}amino)acetate hydrate (1:1:4)

> <STRUCTURE_SMILES>
[Na+].O.O.O.O.O=S(=O)(Nc1ccccc1C(=O)NCC([O-])=O)c2ccc(OC(=O)C(C)(C)C)cc2

> <STRUCTURE_SMILES_Desalt>
O=S(=O)(Nc1ccccc1C(=O)NCC(=O)O)c2ccc(OC(=O)C(C)(C)C)cc2

> <Substance_modify_yyyymmdd>
20110804

$$$$
