2020-25-9
ChemmineR-0915142007XD

 20 20  0  0  0  0  0  0  0  0  1 V2000
    4.5768   -1.9542    0.0000 C   0  0  0  0  0  0  0  0  0  0  0  0
    5.7082   -2.6398    0.0000 C   0  0  0  0  0  0  0  0  0  0  0  0
    6.8567   -1.9542    0.0000 C   0  0  0  0  0  0  0  0  0  0  0  0
    7.9880   -2.6398    0.0000 C   0  0  0  0  0  0  0  0  0  0  0  0
    9.1537   -1.9542    0.0000 C   0  0  0  0  0  0  0  0  0  0  0  0
   10.2850   -2.6398    0.0000 C   0  0  0  0  0  0  0  0  0  0  0  0
   11.4335   -1.9542    0.0000 C   0  0  0  0  0  0  0  0  0  0  0  0
   12.5649   -2.6398    0.0000 C   0  0  0  0  0  0  0  0  0  0  0  0
   13.7133   -1.9542    0.0000 C   0  0  0  0  0  0  0  0  0  0  0  0
   14.8447   -2.6398    0.0000 C   0  0  0  0  0  0  0  0  0  0  0  0
   16.0103   -1.9542    0.0000 C   0  0  0  0  0  0  0  0  0  0  0  0
    4.5768   -0.6342    0.0000 O   0  0  0  0  0  0  0  0  0  0  0  0
    3.4283   -2.6398    0.0000 O   0  0  0  0  0  0  0  0  0  0  0  0
   17.1417   -2.6398    0.0000 I   0  0  0  0  0  0  0  0  0  0  0  0
    1.1314    0.0000    0.0000 C   0  0  0  0  0  0  0  0  0  0  0  0
    0.0000   -0.6342    0.0000 C   0  0  0  0  0  0  0  0  0  0  0  0
    0.0000   -2.0056    0.0000 C   0  0  0  0  0  0  0  0  0  0  0  0
    1.1314   -2.6398    0.0000 C   0  0  0  0  0  0  0  0  0  0  0  0
    2.2970   -1.9542    0.0000 C   0  0  0  0  0  0  0  0  0  0  0  0
    2.2970   -0.6342    0.0000 C   0  0  0  0  0  0  0  0  0  0  0  0
  1  2  1  0  0  0  0
  1 13  1  0  0  0  0
  1 12  2  0  0  0  0
  2  3  1  0  0  0  0
  3  4  1  0  0  0  0
  4  5  1  0  0  0  0
  5  6  1  0  0  0  0
  6  7  1  0  0  0  0
  7  8  1  0  0  0  0
  8  9  1  0  0  0  0
  9 10  1  0  0  0  0
 10 11  3  0  0  0  0
 11 14  1  0  0  0  0
 13 19  1  0  0  0  0
 15 20  2  0  0  0  0
 15 16  1  0  0  0  0
 16 17  2  0  0  0  0
 17 18  1  0  0  0  0
 18 19  2  0  0  0  0
 19 20  1  0  0  0  0
M  END
> <ID>
13767

> <Formula>
C17H21IO2

> <FW>
384.2519

> <DSSTox_CID>
28704

> <DSSTox_RID>
82973

> <DSSTox_GSID>
48778

> <DSSTox_FileID_Sort>
7650

> <TS_ChemName>
Phenyl 11-iodo-10-undecynoate

> <TS_ChemName_Synonyms>


> <TS_CASRN>
2020-25-9

> <CASRN_ChemName_Relationship>
primary

> <TS_Description>
single chemical compound

> <ChemNote>


> <STRUCTURE_Shown>
tested chemical

> <STRUCTURE_Formula>
C17H21IO2

> <STRUCTURE_MW>
384.2519

> <STRUCTURE_ChemType>
defined organic

> <STRUCTURE_DefinedOrganicForm>
parent

> <STRUCTURE_IUPAC>
phenyl 11-iodoundec-10-ynoate

> <STRUCTURE_SMILES>
O=C(Oc1ccccc1)CCCCCCCCC#CI

> <STRUCTURE_SMILES_Desalt>
O=C(Oc1ccccc1)CCCCCCCCC#CI

> <Substance_modify_yyyymmdd>
20111204

$$$$
