202138-50-9
ChemmineR-0915142007XD

 45 45  0  0  1  0  0  0  0  0  1 V2000
   11.2695   -5.8559    0.0000 N   0  0  0  0  0  0  0  0  0  0  0  0
   12.5256   -4.1044    0.0000 C   0  0  0  0  0  0  0  0  0  0  0  0
   12.5256   -5.4313    0.0000 C   0  0  0  0  0  0  0  0  0  0  0  0
   11.2695   -3.6975    0.0000 N   0  0  0  0  0  0  0  0  0  0  0  0
   10.4911   -4.7767    0.0000 C   0  0  0  0  0  0  0  0  0  0  0  0
    6.5989   -4.6706    0.0000 P   0  0  0  0  0  0  0  0  0  0  0  0
   13.6755   -3.4498    0.0000 C   0  0  0  0  0  0  0  0  0  0  0  0
   13.6755   -6.1036    0.0000 N   0  0  0  0  0  0  0  0  0  0  0  0
   14.8432   -4.1044    0.0000 N   0  0  0  0  0  0  0  0  0  0  0  0
   10.5972   -6.9881    0.0000 C   0  0  0  0  0  0  0  0  0  0  0  0
   14.8432   -5.4313    0.0000 C   0  0  0  0  0  0  0  0  0  0  0  0
    7.2712   -5.8205    0.0000 C   0  0  0  0  0  0  0  0  0  0  0  0
    7.7666   -3.9983    0.0000 O   0  0  0  0  0  0  0  0  0  0  0  0
    5.9443   -3.5206    0.0000 O   0  0  0  0  0  0  0  0  0  0  0  0
    5.4667   -5.3251    0.0000 O   0  0  0  0  0  0  0  0  0  0  0  0
    8.5981   -5.8205    0.0000 O   0  0  0  0  0  0  0  0  0  0  0  0
   13.6755   -2.1230    0.0000 N   0  0  0  0  0  0  0  0  0  0  0  0
    9.2704   -6.9881    0.0000 C   0  0  0  0  0  0  0  0  0  0  0  0
    8.5981   -8.1204    0.0000 C   0  0  0  0  0  0  0  0  0  0  0  0
    4.6175   -3.5206    0.0000 C   0  0  0  0  0  0  0  0  0  0  0  0
    3.9806   -2.3530    0.0000 O   0  0  0  0  0  0  0  0  0  0  0  0
    2.6537   -2.3530    0.0000 C   0  0  0  0  0  0  0  0  0  0  0  0
    1.9991   -1.1853    0.0000 O   0  0  0  0  0  0  0  0  0  0  0  0
    1.9814   -3.4852    0.0000 O   0  0  0  0  0  0  0  0  0  0  0  0
    0.6723   -1.1853    0.0000 C   0  0  0  0  0  0  0  0  0  0  0  0
    0.0177    0.0000    0.0000 C   0  0  0  0  0  0  0  0  0  0  0  0
    0.0000   -2.3176    0.0000 C   0  0  0  0  0  0  0  0  0  0  0  0
    5.4667   -6.6697    0.0000 C   0  0  0  0  0  0  0  0  0  0  0  0
    4.3167   -7.2889    0.0000 O   0  0  0  0  0  0  0  0  0  0  0  0
    4.3167   -8.6158    0.0000 C   0  0  0  0  0  0  0  0  0  0  0  0
    3.1491   -9.3057    0.0000 O   0  0  0  0  0  0  0  0  0  0  0  0
    5.4313   -9.3057    0.0000 O   0  0  0  0  0  0  0  0  0  0  0  0
    3.1491  -10.6326    0.0000 C   0  0  0  0  0  0  0  0  0  0  0  0
    2.0168  -11.2872    0.0000 C   0  0  0  0  0  0  0  0  0  0  0  0
    4.3167  -11.2872    0.0000 C   0  0  0  0  0  0  0  0  0  0  0  0
   13.0917   -9.6065    0.0000 C   0  0  0  0  0  0  0  0  0  0  0  0
   16.5416   -8.9342    0.0000 C   0  0  0  0  0  0  0  0  0  0  0  0
   14.2417   -8.9342    0.0000 C   0  0  0  0  0  0  0  0  0  0  0  0
   15.3916   -9.6065    0.0000 C   0  0  0  0  0  0  0  0  0  0  0  0
   13.0917  -10.9510    0.0000 O   0  0  0  0  0  0  0  0  0  0  0  0
   16.5416   -7.5897    0.0000 O   0  0  0  0  0  0  0  0  0  0  0  0
   11.9418   -8.9342    0.0000 O   0  0  0  0  0  0  0  0  0  0  0  0
   17.6915   -9.6065    0.0000 O   0  0  0  0  0  0  0  0  0  0  0  0
   15.3916  -10.9510    0.0000 H   0  0  0  0  0  0  0  0  0  0  0  0
   14.2417   -7.6074    0.0000 H   0  0  0  0  0  0  0  0  0  0  0  0
  1  3  1  0  0  0  0
  1  5  1  0  0  0  0
  1 10  1  0  0  0  0
  2  3  2  0  0  0  0
  2  7  1  0  0  0  0
  2  4  1  0  0  0  0
  3  8  1  0  0  0  0
  4  5  2  0  0  0  0
  6 12  1  0  0  0  0
  6 13  2  0  0  0  0
  6 14  1  0  0  0  0
  6 15  1  0  0  0  0
  7 17  1  0  0  0  0
  7  9  2  0  0  0  0
  8 11  2  0  0  0  0
  9 11  1  0  0  0  0
 10 18  1  0  0  0  0
 12 16  1  0  0  0  0
 14 20  1  0  0  0  0
 15 28  1  0  0  0  0
 16 18  1  0  0  0  0
 18 19  1  1  0  0  0
 20 21  1  0  0  0  0
 21 22  1  0  0  0  0
 22 23  1  0  0  0  0
 22 24  2  0  0  0  0
 23 25  1  0  0  0  0
 25 26  1  0  0  0  0
 25 27  1  0  0  0  0
 28 29  1  0  0  0  0
 29 30  1  0  0  0  0
 30 31  1  0  0  0  0
 30 32  2  0  0  0  0
 31 33  1  0  0  0  0
 33 34  1  0  0  0  0
 33 35  1  0  0  0  0
 36 38  1  0  0  0  0
 36 40  2  0  0  0  0
 36 42  1  0  0  0  0
 37 39  1  0  0  0  0
 37 41  2  0  0  0  0
 37 43  1  0  0  0  0
 38 39  2  3  0  0  0
 38 45  1  0  0  0  0
 39 44  1  0  0  0  0
M  END
> <ID>
14497

> <Formula>
C23H34N5O14P

> <FW>
635.5149 (519.4428+116.0722)

> <DSSTox_CID>
29808

> <DSSTox_RID>
79447

> <DSSTox_GSID>
50426

> <DSSTox_FileID_Sort>
4129

> <TS_ChemName>
Tenofovir disoproxil fumarate

> <TS_ChemName_Synonyms>


> <TS_CASRN>
202138-50-9

> <CASRN_ChemName_Relationship>
primary

> <TS_Description>
single chemical compound

> <ChemNote>
stereochem; parent [147127-20-6]

> <STRUCTURE_Shown>
tested chemical

> <STRUCTURE_Formula>
C23H34N5O14P

> <STRUCTURE_MW>
635.5149

> <STRUCTURE_ChemType>
defined organic

> <STRUCTURE_DefinedOrganicForm>
complex

> <STRUCTURE_IUPAC>
bis({[(propan-2-yloxy)carbonyl]oxy}methyl) ({[(2R)-1-(6-amino-9H-purin-9-yl)propan-2-yl]oxy}methyl)phosphonate (2E)-but-2-enedioate (1:1)

> <STRUCTURE_SMILES>
O=C(O)C=CC(=O)O.CC(C)OC(=O)OCOP(=O)(OCOC(=O)OC(C)C)CO[C@H](C)Cn2cnc1c(N)ncnc12

> <STRUCTURE_SMILES_Desalt>
CC(C)OC(=O)OCOP(=O)(OCOC(=O)OC(C)C)CO[C@H](C)Cn2cnc1c(N)ncnc12

> <Substance_modify_yyyymmdd>
20130906

$$$$
