202189-78-4
ChemmineR-0915142007XD

 34 37  0  0  0  0  0  0  0  0  1 V2000
    4.0231   -8.9848    0.0000 C   0  0  0  0  0  0  0  0  0  0  0  0
    4.3080   -7.6773    0.0000 C   0  0  0  0  0  0  0  0  0  0  0  0
    3.3190   -6.7889    0.0000 O   0  0  0  0  0  0  0  0  0  0  0  0
    3.5872   -5.4814    0.0000 C   0  0  0  0  0  0  0  0  0  0  0  0
    2.6150   -4.5930    0.0000 C   0  0  0  0  0  0  0  0  0  0  0  0
    2.8832   -3.3023    0.0000 N   0  0  0  0  0  0  0  0  0  0  0  0
    4.0901   -2.7491    0.0000 C   0  0  0  0  0  0  0  0  0  0  0  0
    3.9560   -1.4416    0.0000 N   0  0  0  0  0  0  0  0  0  0  0  0
    2.6653   -1.1566    0.0000 C   0  0  0  0  0  0  0  0  0  0  0  0
    1.9948    0.0000    0.0000 C   0  0  0  0  0  0  0  0  0  0  0  0
    0.6705    0.0000    0.0000 C   0  0  0  0  0  0  0  0  0  0  0  0
    0.0000   -1.1566    0.0000 C   0  0  0  0  0  0  0  0  0  0  0  0
    0.6705   -2.3133    0.0000 C   0  0  0  0  0  0  0  0  0  0  0  0
    1.9948   -2.3133    0.0000 C   0  0  0  0  0  0  0  0  0  0  0  0
    5.2467   -3.4196    0.0000 C   0  0  0  0  0  0  0  0  0  0  0  0
    5.2467   -4.7439    0.0000 C   0  0  0  0  0  0  0  0  0  0  0  0
    6.4034   -5.4144    0.0000 C   0  0  0  0  0  0  0  0  0  0  0  0
    7.5600   -4.7439    0.0000 N   0  0  0  0  0  0  0  0  0  0  0  0
    7.5600   -3.4196    0.0000 C   0  0  0  0  0  0  0  0  0  0  0  0
    6.4034   -2.7491    0.0000 C   0  0  0  0  0  0  0  0  0  0  0  0
    8.6999   -5.4144    0.0000 C   0  0  0  0  0  0  0  0  0  0  0  0
    9.8565   -4.7439    0.0000 C   0  0  0  0  0  0  0  0  0  0  0  0
   11.0131   -5.4144    0.0000 C   0  0  0  0  0  0  0  0  0  0  0  0
   11.0131   -6.7386    0.0000 C   0  0  0  0  0  0  0  0  0  0  0  0
   12.1530   -7.4091    0.0000 C   0  0  0  0  0  0  0  0  0  0  0  0
   13.3096   -6.7386    0.0000 C   0  0  0  0  0  0  0  0  0  0  0  0
   13.3096   -5.4144    0.0000 C   0  0  0  0  0  0  0  0  0  0  0  0
   12.1530   -4.7439    0.0000 C   0  0  0  0  0  0  0  0  0  0  0  0
   14.4663   -7.4091    0.0000 C   0  0  0  0  0  0  0  0  0  0  0  0
   13.7957   -8.5658    0.0000 C   0  0  0  0  0  0  0  0  0  0  0  0
   15.1200   -6.2525    0.0000 C   0  0  0  0  0  0  0  0  0  0  0  0
   15.6061   -8.0796    0.0000 C   0  0  0  0  0  0  0  0  0  0  0  0
   15.6061   -9.4039    0.0000 O   0  0  0  0  0  0  0  0  0  0  0  0
   16.7628   -7.4091    0.0000 O   0  0  0  0  0  0  0  0  0  0  0  0
  1  2  1  0  0  0  0
  2  3  1  0  0  0  0
  3  4  1  0  0  0  0
  4  5  1  0  0  0  0
  5  6  1  0  0  0  0
  6  7  1  0  0  0  0
  6 14  1  0  0  0  0
  7  8  2  0  0  0  0
  7 15  1  0  0  0  0
  8  9  1  0  0  0  0
  9 10  2  0  0  0  0
  9 14  1  0  0  0  0
 10 11  1  0  0  0  0
 11 12  2  0  0  0  0
 12 13  1  0  0  0  0
 13 14  2  0  0  0  0
 15 16  1  0  0  0  0
 15 20  1  0  0  0  0
 16 17  1  0  0  0  0
 17 18  1  0  0  0  0
 18 19  1  0  0  0  0
 18 21  1  0  0  0  0
 19 20  1  0  0  0  0
 21 22  1  0  0  0  0
 22 23  1  0  0  0  0
 23 24  2  0  0  0  0
 23 28  1  0  0  0  0
 24 25  1  0  0  0  0
 25 26  2  0  0  0  0
 26 27  1  0  0  0  0
 26 29  1  0  0  0  0
 27 28  2  0  0  0  0
 29 30  1  0  0  0  0
 29 31  1  0  0  0  0
 29 32  1  0  0  0  0
 32 33  1  0  0  0  0
 32 34  2  0  0  0  0
M  END
> <ID>
16080

> <Formula>
C28H37N3O3

> <FW>
463.6117

> <DSSTox_CID>
31467

> <DSSTox_RID>
97352

> <DSSTox_GSID>
57678

> <DSSTox_FileID_Sort>
8419

> <TS_ChemName>
Bilastine

> <TS_ChemName_Synonyms>


> <TS_CASRN>
202189-78-4

> <CASRN_ChemName_Relationship>
primary

> <TS_Description>
single chemical compound

> <ChemNote>


> <STRUCTURE_Shown>
tested chemical

> <STRUCTURE_Formula>
C28H37N3O3

> <STRUCTURE_MW>
463.6117

> <STRUCTURE_ChemType>
defined organic

> <STRUCTURE_DefinedOrganicForm>
parent

> <STRUCTURE_IUPAC>
2-[4-(2-{4-[1-(2-ethoxyethyl)-1H-benzimidazol-2-yl]piperidin-1-yl}ethyl)phenyl]-2-methylpropanoic acid

> <STRUCTURE_SMILES>
O=C(O)C(C)(C)c4ccc(CCN1CCC(CC1)c3nc2ccccc2n3CCOCC)cc4

> <STRUCTURE_SMILES_Desalt>
O=C(O)C(C)(C)c4ccc(CCN1CCC(CC1)c3nc2ccccc2n3CCOCC)cc4

> <Substance_modify_yyyymmdd>
20131018

$$$$
