2021-28-5
ChemmineR-0915142007XD

 13 13  0  0  0  0  0  0  0  0  1 V2000
    2.3047   -1.9912    0.0000 C   0  0  0  0  0  0  0  0  0  0  0  0
    3.4662   -1.3275    0.0000 C   0  0  0  0  0  0  0  0  0  0  0  0
    4.6186   -1.9912    0.0000 C   0  0  0  0  0  0  0  0  0  0  0  0
    5.7709   -1.3275    0.0000 C   0  0  0  0  0  0  0  0  0  0  0  0
    6.9232   -1.9912    0.0000 O   0  0  0  0  0  0  0  0  0  0  0  0
    8.0664   -1.3275    0.0000 C   0  0  0  0  0  0  0  0  0  0  0  0
    9.2187   -1.9912    0.0000 C   0  0  0  0  0  0  0  0  0  0  0  0
    5.7709    0.0000    0.0000 O   0  0  0  0  0  0  0  0  0  0  0  0
    2.3047   -3.3187    0.0000 C   0  0  0  0  0  0  0  0  0  0  0  0
    1.1523   -3.9917    0.0000 C   0  0  0  0  0  0  0  0  0  0  0  0
    0.0000   -3.3187    0.0000 C   0  0  0  0  0  0  0  0  0  0  0  0
    0.0000   -1.9912    0.0000 C   0  0  0  0  0  0  0  0  0  0  0  0
    1.1523   -1.3275    0.0000 C   0  0  0  0  0  0  0  0  0  0  0  0
  1  2  1  0  0  0  0
  1  9  1  0  0  0  0
  1 13  2  0  0  0  0
  2  3  1  0  0  0  0
  3  4  1  0  0  0  0
  4  5  1  0  0  0  0
  4  8  2  0  0  0  0
  5  6  1  0  0  0  0
  6  7  1  0  0  0  0
  9 10  2  0  0  0  0
 10 11  1  0  0  0  0
 11 12  2  0  0  0  0
 12 13  1  0  0  0  0
M  END
> <ID>
12246

> <Formula>
C11H14O2

> <FW>
178.2277

> <DSSTox_CID>
27095

> <DSSTox_RID>
82107

> <DSSTox_GSID>
47095

> <DSSTox_FileID_Sort>
6788

> <TS_ChemName>
Ethyl hydrocinnamate

> <TS_ChemName_Synonyms>


> <TS_CASRN>
2021-28-5

> <CASRN_ChemName_Relationship>
primary

> <TS_Description>
single chemical compound

> <ChemNote>


> <STRUCTURE_Shown>
tested chemical

> <STRUCTURE_Formula>
C11H14O2

> <STRUCTURE_MW>
178.2277

> <STRUCTURE_ChemType>
defined organic

> <STRUCTURE_DefinedOrganicForm>
parent

> <STRUCTURE_IUPAC>
ethyl 3-phenylpropanoate

> <STRUCTURE_SMILES>
O=C(CCc1ccccc1)OCC

> <STRUCTURE_SMILES_Desalt>
O=C(CCc1ccccc1)OCC

> <Substance_modify_yyyymmdd>
20100429

$$$$
