20229-30-5
ChemmineR-0915142007XD

 24 27  0  0  0  0  0  0  0  0  1 V2000
    4.4168   -4.6503    0.0000 C   0  0  0  0  0  0  0  0  0  0  0  0
    5.2437   -5.7009    0.0000 C   0  0  0  0  0  0  0  0  0  0  0  0
    4.9810   -3.4536    0.0000 N   0  0  0  0  0  0  0  0  0  0  0  0
    3.0840   -4.6503    0.0000 C   0  0  0  0  0  0  0  0  0  0  0  0
    4.9421   -6.9948    0.0000 C   0  0  0  0  0  0  0  0  0  0  0  0
    6.4987   -5.3215    0.0000 C   0  0  0  0  0  0  0  0  0  0  0  0
    4.3098   -2.2959    0.0000 C   0  0  0  0  0  0  0  0  0  0  0  0
    6.3041   -3.4536    0.0000 C   0  0  0  0  0  0  0  0  0  0  0  0
    2.2376   -5.7009    0.0000 C   0  0  0  0  0  0  0  0  0  0  0  0
    3.7358   -7.5591    0.0000 S   0  0  0  0  0  0  0  0  0  0  0  0
    5.9052   -7.8996    0.0000 C   0  0  0  0  0  0  0  0  0  0  0  0
    7.4910   -6.2068    0.0000 C   0  0  0  0  0  0  0  0  0  0  0  0
    4.9810   -1.1480    0.0000 C   0  0  0  0  0  0  0  0  0  0  0  0
    6.9754   -2.2959    0.0000 C   0  0  0  0  0  0  0  0  0  0  0  0
    2.5392   -6.9948    0.0000 C   0  0  0  0  0  0  0  0  0  0  0  0
    0.9826   -5.3215    0.0000 C   0  0  0  0  0  0  0  0  0  0  0  0
    7.1894   -7.5202    0.0000 C   0  0  0  0  0  0  0  0  0  0  0  0
    8.7460   -5.8080    0.0000 S   0  0  0  0  0  0  0  0  0  0  0  0
    6.3041   -1.1480    0.0000 N   0  0  0  0  0  0  0  0  0  0  0  0
    1.5566   -7.8996    0.0000 C   0  0  0  0  0  0  0  0  0  0  0  0
    0.0000   -6.2068    0.0000 C   0  0  0  0  0  0  0  0  0  0  0  0
    9.7286   -6.7127    0.0000 C   0  0  0  0  0  0  0  0  0  0  0  0
    6.9754    0.0000    0.0000 C   0  0  0  0  0  0  0  0  0  0  0  0
    0.2821   -7.5202    0.0000 C   0  0  0  0  0  0  0  0  0  0  0  0
  1  2  1  0  0  0  0
  1  3  1  0  0  0  0
  1  4  1  0  0  0  0
  2  5  2  0  0  0  0
  2  6  1  0  0  0  0
  3  7  1  0  0  0  0
  3  8  1  0  0  0  0
  4  9  1  0  0  0  0
  5 10  1  0  0  0  0
  5 11  1  0  0  0  0
  6 12  2  0  0  0  0
  7 13  1  0  0  0  0
  8 14  1  0  0  0  0
  9 15  2  0  0  0  0
  9 16  1  0  0  0  0
 10 15  1  0  0  0  0
 11 17  2  0  0  0  0
 12 18  1  0  0  0  0
 12 17  1  0  0  0  0
 13 19  1  0  0  0  0
 14 19  1  0  0  0  0
 15 20  1  0  0  0  0
 16 21  2  0  0  0  0
 18 22  1  0  0  0  0
 19 23  1  0  0  0  0
 20 24  2  0  0  0  0
 21 24  1  0  0  0  0
M  END
> <ID>
9811

> <Formula>
C20H24N2S2

> <FW>
356.548

> <DSSTox_CID>
24000

> <DSSTox_RID>
80096

> <DSSTox_GSID>
44000

> <DSSTox_FileID_Sort>
4778

> <TS_ChemName>
Metitepine

> <TS_ChemName_Synonyms>


> <TS_CASRN>
20229-30-5

> <CASRN_ChemName_Relationship>
primary

> <TS_Description>
single chemical compound

> <ChemNote>


> <STRUCTURE_Shown>
tested chemical

> <STRUCTURE_Formula>
C20H24N2S2

> <STRUCTURE_MW>
356.548

> <STRUCTURE_ChemType>
defined organic

> <STRUCTURE_DefinedOrganicForm>
parent

> <STRUCTURE_IUPAC>
1-methyl-4-[8-(methylsulfanyl)-10,11-dihydrodibenzo[b,f]thiepin-10-yl]piperazine

> <STRUCTURE_SMILES>
CN1CCN(CC1)C2Cc4ccccc4Sc3ccc(SC)cc23

> <STRUCTURE_SMILES_Desalt>
CN1CCN(CC1)C2Cc4ccccc4Sc3ccc(SC)cc23

> <Substance_modify_yyyymmdd>
20090130

$$$$
