202409-33-4
ChemmineR-0915142007XD

 24 26  0  0  0  0  0  0  0  0  1 V2000
    3.4640   -4.0076    0.0000 C    0  0  0  0  0  0  0  0  0  0  0  0
    3.4640   -5.3342    0.0000 C    0  0  0  0  0  0  0  0  0  0  0  0
    2.3032   -3.3350    0.0000 C    0  0  0  0  0  0  0  0  0  0  0  0
    2.3032   -5.9975    0.0000 N    0  0  0  0  0  0  0  0  0  0  0  0
    1.1516   -4.0076    0.0000 C    0  0  0  0  0  0  0  0  0  0  0  0
    1.1516   -5.3342    0.0000 C    0  0  0  0  0  0  0  0  0  0  0  0
    4.6156   -3.3350    0.0000 C    0  0  0  0  0  0  0  0  0  0  0  0
    4.6156   -2.0084    0.0000 C    0  0  0  0  0  0  0  0  0  0  0  0
    5.7672   -3.9891    0.0000 C    0  0  0  0  0  0  0  0  0  0  0  0
    5.7672   -1.3359    0.0000 C    0  0  0  0  0  0  0  0  0  0  0  0
    6.9188   -3.3350    0.0000 C    0  0  0  0  0  0  0  0  0  0  0  0
    6.9188   -2.0084    0.0000 C    0  0  0  0  0  0  0  0  0  0  0  0
    4.6156   -5.9975    0.0000 C    0  0  0  0  0  0  0  0  0  0  0  0
    5.7672   -5.3342    0.0000 C    0  0  0  0  0  0  0  0  0  0  0  0
    4.6156   -7.3242    0.0000 C    0  0  0  0  0  0  0  0  0  0  0  0
    6.9188   -5.9975    0.0000 C    0  0  0  0  0  0  0  0  0  0  0  0
    5.7672   -7.9967    0.0000 N    0  0  0  0  0  0  0  0  0  0  0  0
    6.9188   -7.3242    0.0000 C    0  0  0  0  0  0  0  0  0  0  0  0
    0.0000   -3.3350    0.0000 Cl   0  0  0  0  0  0  0  0  0  0  0  0
    8.0612   -7.9967    0.0000 C    0  0  0  0  0  0  0  0  0  0  0  0
    8.0612   -1.3359    0.0000 S    0  0  0  0  0  0  0  0  0  0  0  0
    9.2128   -2.0084    0.0000 O    0  0  0  0  0  0  0  0  0  0  0  0
    8.0612    0.0000    0.0000 C    0  0  0  0  0  0  0  0  0  0  0  0
    6.9188   -0.6725    0.0000 O    0  0  0  0  0  0  0  0  0  0  0  0
  1  2  1  0  0  0  0
  1  3  2  0  0  0  0
  1  7  1  0  0  0  0
  2  4  2  0  0  0  0
  2 13  1  0  0  0  0
  3  5  1  0  0  0  0
  4  6  1  0  0  0  0
  5  6  2  0  0  0  0
  5 19  1  0  0  0  0
  7  8  1  0  0  0  0
  7  9  2  0  0  0  0
  8 10  2  0  0  0  0
  9 11  1  0  0  0  0
 10 12  1  0  0  0  0
 11 12  2  0  0  0  0
 12 21  1  0  0  0  0
 13 14  1  0  0  0  0
 13 15  2  0  0  0  0
 14 16  2  0  0  0  0
 15 17  1  0  0  0  0
 16 18  1  0  0  0  0
 17 18  2  0  0  0  0
 18 20  1  0  0  0  0
 21 22  2  0  0  0  0
 21 23  1  0  0  0  0
 21 24  2  0  0  0  0
M  END
> <ID>
11697

> <Formula>
C18H15ClN2O2S

> <FW>
358.8419

> <DSSTox_CID>
26457

> <DSSTox_RID>
81631

> <DSSTox_GSID>
46457

> <DSSTox_FileID_Sort>
6312

> <TS_ChemName>
Etoricoxib

> <TS_ChemName_Synonyms>


> <TS_CASRN>
202409-33-4

> <CASRN_ChemName_Relationship>
primary

> <TS_Description>
single chemical compound

> <ChemNote>


> <STRUCTURE_Shown>
tested chemical

> <STRUCTURE_Formula>
C18H15ClN2O2S

> <STRUCTURE_MW>
358.8419

> <STRUCTURE_ChemType>
defined organic

> <STRUCTURE_DefinedOrganicForm>
parent

> <STRUCTURE_IUPAC>
5-chloro-6'-methyl-3-[4-(methylsulfonyl)phenyl]-2,3'-bipyridine

> <STRUCTURE_SMILES>
CS(=O)(=O)c1ccc(cc1)c3cc(Cl)cnc3c2cnc(C)cc2

> <STRUCTURE_SMILES_Desalt>
CS(=O)(=O)c1ccc(cc1)c3cc(Cl)cnc3c2cnc(C)cc2

> <Substance_modify_yyyymmdd>
20110812

$$$$
