2026-24-6
ChemmineR-0915142007XD

 26 27  0  0  1  0  0  0  0  0  1 V2000
    7.4067   -6.9613    0.0000 O   0  0  0  0  0  0  0  0  0  0  0  0
    8.5394   -6.3126    0.0000 C   0  0  0  0  0  0  0  0  0  0  0  0
    9.6819   -6.9613    0.0000 C   0  0  0  0  0  0  0  0  0  0  0  0
    8.5394   -5.0055    0.0000 O   0  0  0  0  0  0  0  0  0  0  0  0
    2.3237   -2.6819    0.0000 C   0  0  0  0  0  0  0  0  0  0  0  0
    2.3237   -4.0180    0.0000 C   0  0  0  0  0  0  0  0  0  0  0  0
    3.4758   -3.3306    0.0000 C   0  0  0  0  0  0  0  0  0  0  0  0
    2.3237   -5.3347    0.0000 C   0  0  0  0  0  0  0  0  0  0  0  0
    1.1425   -3.3306    0.0000 C   0  0  0  0  0  0  0  0  0  0  0  0
    4.6183   -4.0180    0.0000 C   0  0  0  0  0  0  0  0  0  0  0  0
    3.4758   -1.9945    0.0000 C   0  0  0  0  0  0  0  0  0  0  0  0
    1.1425   -5.9931    0.0000 C   0  0  0  0  0  0  0  0  0  0  0  0
    3.4758   -5.9931    0.0000 C   0  0  0  0  0  0  0  0  0  0  0  0
    0.0000   -4.0180    0.0000 C   0  0  0  0  0  0  0  0  0  0  0  0
    4.6183   -5.3347    0.0000 C   0  0  0  0  0  0  0  0  0  0  0  0
    5.7607   -3.3306    0.0000 C   0  0  0  0  0  0  0  0  0  0  0  0
    4.6183   -1.3555    0.0000 C   0  0  0  0  0  0  0  0  0  0  0  0
    1.8299   -7.1549    0.0000 C   0  0  0  0  0  0  0  0  0  0  0  0
    0.4938   -7.1549    0.0000 C   0  0  0  0  0  0  0  0  0  0  0  0
    0.0000   -5.3347    0.0000 C   0  0  0  0  0  0  0  0  0  0  0  0
    5.7607   -1.9945    0.0000 C   0  0  0  0  0  0  0  0  0  0  0  0
    1.1618   -8.3168    0.0000 N   0  0  0  0  0  0  0  0  0  0  0  0
    6.9419   -1.3555    0.0000 C   0  0  0  0  0  0  0  0  0  0  0  0
    8.0941   -1.9945    0.0000 C   0  0  0  0  0  0  0  0  0  0  0  0
    6.9419    0.0000    0.0000 C   0  0  0  0  0  0  0  0  0  0  0  0
    2.3237   -6.6805    0.0000 H   0  0  0  0  0  0  0  0  0  0  0  0
  1  2  1  0  0  0  0
  2  3  1  0  0  0  0
  2  4  2  0  0  0  0
  6  5  1  1  0  0  0
  6  7  1  0  0  0  0
  6  8  1  0  0  0  0
  6  9  1  0  0  0  0
  7 10  1  0  0  0  0
  7 11  2  0  0  0  0
  8 12  1  0  0  0  0
  8 13  1  0  0  0  0
  8 26  1  6  0  0  0
  9 14  1  0  0  0  0
 10 15  1  0  0  0  0
 10 16  2  0  0  0  0
 11 17  1  0  0  0  0
 12 18  1  6  0  0  0
 12 19  1  1  0  0  0
 12 20  1  0  0  0  0
 13 15  1  0  0  0  0
 14 20  1  0  0  0  0
 16 21  1  0  0  0  0
 17 21  2  0  0  0  0
 18 22  1  0  0  0  0
 21 23  1  0  0  0  0
 23 24  1  0  0  0  0
 23 25  1  0  0  0  0
M  END
> <ID>
12252

> <Formula>
C22H35NO2

> <FW>
345.5188 (60.0520+285.4668)

> <DSSTox_CID>
27102

> <DSSTox_RID>
82112

> <DSSTox_GSID>
47102

> <DSSTox_FileID_Sort>
6793

> <TS_ChemName>
Dehydroabietylamine acetate

> <TS_ChemName_Synonyms>


> <TS_CASRN>
2026-24-6

> <CASRN_ChemName_Relationship>
primary

> <TS_Description>
single chemical compound

> <ChemNote>
stereochem; parent [1446-61-3]

> <STRUCTURE_Shown>
tested chemical

> <STRUCTURE_Formula>
C22H35NO2

> <STRUCTURE_MW>
345.5188

> <STRUCTURE_ChemType>
defined organic

> <STRUCTURE_DefinedOrganicForm>
complex

> <STRUCTURE_IUPAC>
abieta-8(14),9(11),12-trien-18-amine acetate (1:1)

> <STRUCTURE_SMILES>
CC(=O)O.CC(C)c2cc3CC[C@@H]1[C@](C)(CCC[C@@]1(C)CN)c3cc2

> <STRUCTURE_SMILES_Desalt>
CC(C)c2cc3CC[C@@H]1[C@](C)(CCC[C@@]1(C)CN)c3cc2

> <Substance_modify_yyyymmdd>
20100429

$$$$
