2031-67-6
ChemmineR-0915142007XD

 11 10  0  0  0  0  0  0  0  0  1 V2000
    3.3186   -3.3319    0.0000 Si   0  0  0  0  0  0  0  0  0  0  0  0
    3.3186   -2.0018    0.0000 O    0  0  0  0  0  0  0  0  0  0  0  0
    3.3186   -4.6620    0.0000 O    0  0  0  0  0  0  0  0  0  0  0  0
    4.6487   -3.3319    0.0000 C    0  0  0  0  0  0  0  0  0  0  0  0
    1.9885   -3.3319    0.0000 O    0  0  0  0  0  0  0  0  0  0  0  0
    4.4692   -1.3301    0.0000 C    0  0  0  0  0  0  0  0  0  0  0  0
    4.4692    0.0000    0.0000 C    0  0  0  0  0  0  0  0  0  0  0  0
    2.1614   -5.3204    0.0000 C    0  0  0  0  0  0  0  0  0  0  0  0
    2.1614   -6.6505    0.0000 C    0  0  0  0  0  0  0  0  0  0  0  0
    1.3301   -2.1814    0.0000 C    0  0  0  0  0  0  0  0  0  0  0  0
    0.0000   -2.1814    0.0000 C    0  0  0  0  0  0  0  0  0  0  0  0
  1  2  1  0  0  0  0
  1  3  1  0  0  0  0
  1  4  1  0  0  0  0
  1  5  1  0  0  0  0
  2  6  1  0  0  0  0
  3  8  1  0  0  0  0
  5 10  1  0  0  0  0
  6  7  1  0  0  0  0
  8  9  1  0  0  0  0
 10 11  1  0  0  0  0
M  END
> <ID>
9396

> <Formula>
C7H18O3Si

> <FW>
178.3015

> <DSSTox_CID>
22490

> <DSSTox_RID>
80036

> <DSSTox_GSID>
42490

> <DSSTox_FileID_Sort>
4718

> <TS_ChemName>
Triethoxymethylsilane

> <TS_ChemName_Synonyms>


> <TS_CASRN>
2031-67-6

> <CASRN_ChemName_Relationship>
primary

> <TS_Description>
single chemical compound

> <ChemNote>


> <STRUCTURE_Shown>
tested chemical

> <STRUCTURE_Formula>
C7H18O3Si

> <STRUCTURE_MW>
178.3015

> <STRUCTURE_ChemType>
organometallic

> <STRUCTURE_DefinedOrganicForm>


> <STRUCTURE_IUPAC>
triethoxy(methyl)silane

> <STRUCTURE_SMILES>
CCO[Si](C)(OCC)OCC

> <STRUCTURE_SMILES_Desalt>
CCO[Si](C)(OCC)OCC

> <Substance_modify_yyyymmdd>
20080825

$$$$
