203389-28-0
ChemmineR-0915142007XD

 15 14  0  0  0  0  0  0  0  0  2 V2000
    5.9922   -7.0868    0.0000 C   0  0  0  0  0  0  0  0  0  0  0  0
    5.3291   -5.9363    0.0000 C   0  0  0  0  0  0  0  0  0  0  0  0
    5.9922   -4.7858    0.0000 C   0  0  0  0  0  0  0  0  0  0  0  0
    7.3265   -0.1758    0.0000 C   0  0  0  0  0  0  0  0  0  0  0  0
    5.9922   -0.1758    0.0000 C   0  0  0  0  0  0  0  0  0  0  0  0
    7.9896   -1.3263    0.0000 C   0  0  0  0  0  0  0  0  0  0  0  0
    5.3291   -3.6273    0.0000 C   0  0  0  0  0  0  0  0  0  0  0  0
    5.3291   -1.3263    0.0000 C   0  0  0  0  0  0  0  0  0  0  0  0
    7.3265   -2.4768    0.0000 C   0  0  0  0  0  0  0  0  0  0  0  0
    5.9922   -2.4768    0.0000 N   0  3  0  0  0  0  0  0  0  0  0  0
    1.3343   -1.3263    0.0000 B   0  5  0  0  0  0  0  0  0  0  0  0
    0.0000   -1.3263    0.0000 F   0  0  0  0  0  0  0  0  0  0  0  0
    1.3343   -2.6605    0.0000 F   0  0  0  0  0  0  0  0  0  0  0  0
    1.3343    0.0000    0.0000 F   0  0  0  0  0  0  0  0  0  0  0  0
    2.6605   -1.3263    0.0000 F   0  0  0  0  0  0  0  0  0  0  0  0
  1  2  1  0  0  0  0
  2  3  1  0  0  0  0
  3  7  1  0  0  0  0
  4  5  2  0  0  0  0
  4  6  1  0  0  0  0
  5  8  1  0  0  0  0
  6  9  2  0  0  0  0
  7 10  1  0  0  0  0
  8 10  2  0  0  0  0
  9 10  1  0  0  0  0
 11 12  1  0  0  0  0
 11 13  1  0  0  0  0
 11 14  1  0  0  0  0
 11 15  1  0  0  0  0
M  END
> <ID>
14104

> <Formula>
C9H14BF4N

> <FW>
223.0188 (136.2136+86.8052)

> <DSSTox_CID>
29097

> <DSSTox_RID>
83316

> <DSSTox_GSID>
49241

> <DSSTox_FileID_Sort>
7991

> <TS_ChemName>
1-Butylpyridinium tetrafluoroborate

> <TS_ChemName_Synonyms>


> <TS_CASRN>
203389-28-0

> <CASRN_ChemName_Relationship>
primary

> <TS_Description>
single chemical compound

> <ChemNote>


> <STRUCTURE_Shown>
tested chemical

> <STRUCTURE_Formula>
C9H14BF4N

> <STRUCTURE_MW>
223.0188

> <STRUCTURE_ChemType>
defined organic

> <STRUCTURE_DefinedOrganicForm>
complex

> <STRUCTURE_IUPAC>
1-butylpyridinium tetrafluoroborate

> <STRUCTURE_SMILES>
F[B-](F)(F)F.CCCC[n+]1ccccc1

> <STRUCTURE_SMILES_Desalt>
CCCC[n+]1ccccc1

> <Substance_modify_yyyymmdd>
20111204

$$$$
