203313-25-1
ChemmineR-0915142007XD

 27 29  0  0  1  0  0  0  0  0  1 V2000
    2.2771   -7.1655    0.0000 C   0  0  0  0  0  0  0  0  0  0  0  0
    2.2771   -8.4816    0.0000 C   0  0  0  0  0  0  0  0  0  0  0  0
    1.1385   -6.5075    0.0000 C   0  0  0  0  0  0  0  0  0  0  0  0
    1.1385   -9.1293    0.0000 C   0  0  0  0  0  0  0  0  0  0  0  0
    0.0000   -7.1655    0.0000 C   0  0  0  0  0  0  0  0  0  0  0  0
    0.0000   -8.4816    0.0000 C   0  0  0  0  0  0  0  0  0  0  0  0
    3.4052   -6.5075    0.0000 C   0  0  0  0  0  0  0  0  0  0  0  0
    3.5514   -5.2018    0.0000 C   0  0  0  0  0  0  0  0  0  0  0  0
    4.6064   -7.0402    0.0000 C   0  0  0  0  0  0  0  0  0  0  0  0
    4.8258   -4.9302    0.0000 C   0  0  0  0  0  0  0  0  0  0  0  0
    5.4838   -6.0688    0.0000 N   0  0  0  0  0  0  0  0  0  0  0  0
    5.5152   -3.8126    0.0000 C   0  0  0  0  0  0  0  0  0  0  0  0
    7.2178   -4.2513    0.0000 C   0  0  0  0  0  0  0  0  0  0  0  0
    8.2205   -3.8021    0.0000 C   0  0  0  0  0  0  0  0  0  0  0  0
    7.5520   -4.9407    0.0000 C   0  0  0  0  0  0  0  0  0  0  0  0
    5.8703   -4.4706    0.0000 C   0  0  0  0  0  0  0  0  0  0  0  0
    1.1385   -5.1913    0.0000 C   0  0  0  0  0  0  0  0  0  0  0  0
    1.1385  -10.4454    0.0000 C   0  0  0  0  0  0  0  0  0  0  0  0
    4.8780   -8.3250    0.0000 O   0  0  0  0  0  0  0  0  0  0  0  0
    2.5696   -4.3244    0.0000 O   0  0  0  0  0  0  0  0  0  0  0  0
    2.8411   -3.0396    0.0000 C   0  0  0  0  0  0  0  0  0  0  0  0
    1.8697   -2.1622    0.0000 O   0  0  0  0  0  0  0  0  0  0  0  0
    2.1413   -0.8774    0.0000 C   0  0  0  0  0  0  0  0  0  0  0  0
    1.1699    0.0000    0.0000 C   0  0  0  0  0  0  0  0  0  0  0  0
    4.0946   -2.6322    0.0000 O   0  0  0  0  0  0  0  0  0  0  0  0
    9.2024   -2.9247    0.0000 O   0  0  0  0  0  0  0  0  0  0  0  0
   10.4454   -3.3321    0.0000 C   0  0  0  0  0  0  0  0  0  0  0  0
  1  2  1  0  0  0  0
  1  3  2  0  0  0  0
  1  7  1  0  0  0  0
  2  4  2  0  0  0  0
  3  5  1  0  0  0  0
  3 17  1  0  0  0  0
  4  6  1  0  0  0  0
  4 18  1  0  0  0  0
  5  6  2  0  0  0  0
  7  8  2  0  0  0  0
  7  9  1  0  0  0  0
  8 10  1  0  0  0  0
  8 20  1  0  0  0  0
  9 11  1  0  0  0  0
  9 19  2  0  0  0  0
 10 11  1  0  0  0  0
 10 12  1  6  0  0  0
 10 16  1  0  0  0  0
 12 13  1  0  0  0  0
 14 13  1  6  0  0  0
 14 15  1  0  0  0  0
 14 26  1  0  0  0  0
 15 16  1  0  0  0  0
 20 21  1  0  0  0  0
 21 22  1  0  0  0  0
 21 25  2  0  0  0  0
 22 23  1  0  0  0  0
 23 24  1  0  0  0  0
 26 27  1  0  0  0  0
M  END
> <ID>
10000

> <Formula>
C21H27NO5

> <FW>
373.4428

> <DSSTox_CID>
24342

> <DSSTox_RID>
80158

> <DSSTox_GSID>
44342

> <DSSTox_FileID_Sort>
4840

> <TS_ChemName>
Spirotetramat

> <TS_ChemName_Synonyms>


> <TS_CASRN>
203313-25-1

> <CASRN_ChemName_Relationship>
primary

> <TS_Description>
single chemical compound

> <ChemNote>
stereochem

> <STRUCTURE_Shown>
tested chemical

> <STRUCTURE_Formula>
C21H27NO5

> <STRUCTURE_MW>
373.4428

> <STRUCTURE_ChemType>
defined organic

> <STRUCTURE_DefinedOrganicForm>
parent

> <STRUCTURE_IUPAC>
(5s,8s)-3-(2,5-dimethylphenyl)-8-methoxy-2-oxo-1-azaspiro[4.5]dec-3-en-4-yl ethyl carbonate

> <STRUCTURE_SMILES>
O=C(OCC)OC2=C(C(=O)N[C@@]12CC[C@H](CC1)OC)c3cc(C)ccc3C

> <STRUCTURE_SMILES_Desalt>
O=C(OCC)OC2=C(C(=O)N[C@@]12CC[C@H](CC1)OC)c3cc(C)ccc3C

> <Substance_modify_yyyymmdd>
20091022

$$$$
