2037-95-8
ChemmineR-0915142007XD

 12 13  0  0  0  0  0  0  0  0  1 V2000
    5.7579    0.0000    0.0000 O   0  0  0  0  0  0  0  0  0  0  0  0
    4.6063   -0.6679    0.0000 C   0  0  0  0  0  0  0  0  0  0  0  0
    4.6063   -1.9980    0.0000 N   0  0  0  0  0  0  0  0  0  0  0  0
    3.4547   -2.6601    0.0000 C   0  0  0  0  0  0  0  0  0  0  0  0
    3.4547   -3.9902    0.0000 O   0  0  0  0  0  0  0  0  0  0  0  0
    2.3031   -1.9980    0.0000 C   0  0  0  0  0  0  0  0  0  0  0  0
    1.1516   -2.6601    0.0000 C   0  0  0  0  0  0  0  0  0  0  0  0
    0.0000   -1.9980    0.0000 C   0  0  0  0  0  0  0  0  0  0  0  0
    0.0000   -0.6679    0.0000 C   0  0  0  0  0  0  0  0  0  0  0  0
    1.1516    0.0000    0.0000 C   0  0  0  0  0  0  0  0  0  0  0  0
    2.3031   -0.6679    0.0000 C   0  0  0  0  0  0  0  0  0  0  0  0
    3.4547    0.0000    0.0000 O   0  0  0  0  0  0  0  0  0  0  0  0
  1  2  2  0  0  0  0
  2  3  1  0  0  0  0
  2 12  1  0  0  0  0
  3  4  1  0  0  0  0
  4  5  2  0  0  0  0
  4  6  1  0  0  0  0
  6  7  2  0  0  0  0
  6 11  1  0  0  0  0
  7  8  1  0  0  0  0
  8  9  2  0  0  0  0
  9 10  1  0  0  0  0
 10 11  2  0  0  0  0
 11 12  1  0  0  0  0
M  END
> <ID>
11808

> <Formula>
C8H5NO3

> <FW>
163.1302

> <DSSTox_CID>
26584

> <DSSTox_RID>
81742

> <DSSTox_GSID>
46584

> <DSSTox_FileID_Sort>
6423

> <TS_ChemName>
Carsalam

> <TS_ChemName_Synonyms>


> <TS_CASRN>
2037-95-8

> <CASRN_ChemName_Relationship>
primary

> <TS_Description>
single chemical compound

> <ChemNote>


> <STRUCTURE_Shown>
tested chemical

> <STRUCTURE_Formula>
C8H5NO3

> <STRUCTURE_MW>
163.1302

> <STRUCTURE_ChemType>
defined organic

> <STRUCTURE_DefinedOrganicForm>
parent

> <STRUCTURE_IUPAC>
2H-1,3-benzoxazine-2,4(3H)-dione

> <STRUCTURE_SMILES>
O=C2NC(=O)Oc1ccccc12

> <STRUCTURE_SMILES_Desalt>
O=C2NC(=O)Oc1ccccc12

> <Substance_modify_yyyymmdd>
20110810

$$$$
