203866-13-1
ChemmineR-0915142007XD

 18 18  0  0  1  0  0  0  0  0  1 V2000
    0.0000   -5.1275    0.0000 C   0  0  0  0  0  0  0  0  0  0  0  0
    0.1184   -6.7183    0.0000 C   0  0  0  0  0  0  0  0  0  0  0  0
    1.9681   -7.3990    0.0000 C   0  0  0  0  0  0  0  0  0  0  0  0
    1.5908   -6.1116    0.0000 C   0  0  0  0  0  0  0  0  0  0  0  0
    2.4047   -5.1275    0.0000 O   0  0  0  0  0  0  0  0  0  0  0  0
    4.7058   -5.5197    0.0000 O   0  0  0  0  0  0  0  0  0  0  0  0
    5.8230   -4.4320    0.0000 O   0  0  0  0  0  0  0  0  0  0  0  0
    4.5208   -1.2578    0.0000 C   0  0  0  0  0  0  0  0  0  0  0  0
    2.8930   -2.4491    0.0000 C   0  0  0  0  0  0  0  0  0  0  0  0
    3.2704   -1.2578    0.0000 C   0  0  0  0  0  0  0  0  0  0  0  0
    4.9203   -2.4491    0.0000 C   0  0  0  0  0  0  0  0  0  0  0  0
    5.7490   -3.3887    0.0000 C   0  0  0  0  0  0  0  0  0  0  0  0
    3.9067   -4.4468    0.0000 C   0  0  0  0  0  0  0  0  0  0  0  0
    2.1161   -0.7399    0.0000 F   0  0  0  0  0  0  0  0  0  0  0  0
    3.9067   -3.1890    0.0000 N   0  0  0  0  0  0  0  0  0  0  0  0
    6.9921   -3.1150    0.0000 O   0  0  0  0  0  0  0  0  0  0  0  0
    3.1446    0.0000    0.0000 H   0  0  0  0  0  0  0  0  0  0  0  0
    6.1412   -2.1975    0.0000 H   0  0  0  0  0  0  0  0  0  0  0  0
  1  4  1  0  0  0  0
  2  4  1  0  0  0  0
  3  4  1  0  0  0  0
  4  5  1  0  0  0  0
  5 13  1  0  0  0  0
  6 13  2  0  0  0  0
  7 12  2  0  0  0  0
  8 10  1  0  0  0  0
  8 11  1  0  0  0  0
  9 10  1  0  0  0  0
  9 15  1  0  0  0  0
 10 17  1  0  0  0  0
 10 14  1  1  0  0  0
 11 18  1  6  0  0  0
 11 12  1  1  0  0  0
 11 15  1  0  0  0  0
 12 16  1  0  0  0  0
 13 15  1  0  0  0  0
M  END
> <ID>
14105

> <Formula>
C10H16FNO4

> <FW>
233.2367

> <DSSTox_CID>
29098

> <DSSTox_RID>
83317

> <DSSTox_GSID>
49242

> <DSSTox_FileID_Sort>
7992

> <TS_ChemName>
1,2-Pyrrolidinedicarboxylicacid,4-fluoro-,1-(1,1-dimethylethyl)ester,(2S,4S)-

> <TS_ChemName_Synonyms>


> <TS_CASRN>
203866-13-1

> <CASRN_ChemName_Relationship>
primary

> <TS_Description>
single chemical compound

> <ChemNote>
stereochem

> <STRUCTURE_Shown>
tested chemical

> <STRUCTURE_Formula>
C10H16FNO4

> <STRUCTURE_MW>
233.2367

> <STRUCTURE_ChemType>
defined organic

> <STRUCTURE_DefinedOrganicForm>
parent

> <STRUCTURE_IUPAC>
(4S)-1-(tert-butoxycarbonyl)-4-fluoro-L-proline

> <STRUCTURE_SMILES>
CC(C)(C)OC(=O)N1C[C@@H](F)C[C@H]1C(=O)O

> <STRUCTURE_SMILES_Desalt>
CC(C)(C)OC(=O)N1C[C@@H](F)C[C@H]1C(=O)O

> <Substance_modify_yyyymmdd>
20111204

$$$$
