2039-76-1
ChemmineR-0915142007XD

 17 19  0  0  0  0  0  0  0  0  1 V2000
    8.0613   -2.6602    0.0000 C   0  0  0  0  0  0  0  0  0  0  0  0
    0.0000   -0.6610    0.0000 C   0  0  0  0  0  0  0  0  0  0  0  0
    1.1528    0.0000    0.0000 C   0  0  0  0  0  0  0  0  0  0  0  0
    0.0000   -1.9911    0.0000 C   0  0  0  0  0  0  0  0  0  0  0  0
    2.3055   -0.6610    0.0000 C   0  0  0  0  0  0  0  0  0  0  0  0
    1.1528   -3.9904    0.0000 C   0  0  0  0  0  0  0  0  0  0  0  0
    2.3055   -4.6514    0.0000 C   0  0  0  0  0  0  0  0  0  0  0  0
    4.6030   -4.6514    0.0000 C   0  0  0  0  0  0  0  0  0  0  0  0
    5.7558   -3.9904    0.0000 C   0  0  0  0  0  0  0  0  0  0  0  0
    4.6030   -1.9911    0.0000 C   0  0  0  0  0  0  0  0  0  0  0  0
    6.9086   -1.9911    0.0000 C   0  0  0  0  0  0  0  0  0  0  0  0
    1.1528   -2.6602    0.0000 C   0  0  0  0  0  0  0  0  0  0  0  0
    3.4583   -3.9904    0.0000 C   0  0  0  0  0  0  0  0  0  0  0  0
    5.7558   -2.6602    0.0000 C   0  0  0  0  0  0  0  0  0  0  0  0
    2.3055   -1.9911    0.0000 C   0  0  0  0  0  0  0  0  0  0  0  0
    3.4583   -2.6602    0.0000 C   0  0  0  0  0  0  0  0  0  0  0  0
    6.9086   -0.6610    0.0000 O   0  0  0  0  0  0  0  0  0  0  0  0
  1 11  1  0  0  0  0
  2  3  2  0  0  0  0
  2  4  1  0  0  0  0
  3  5  1  0  0  0  0
  4 12  2  0  0  0  0
  5 15  2  0  0  0  0
  6  7  2  0  0  0  0
  6 12  1  0  0  0  0
  7 13  1  0  0  0  0
  8  9  2  0  0  0  0
  8 13  1  0  0  0  0
  9 14  1  0  0  0  0
 10 14  2  0  0  0  0
 10 16  1  0  0  0  0
 11 14  1  0  0  0  0
 11 17  2  0  0  0  0
 12 15  1  0  0  0  0
 13 16  2  0  0  0  0
 15 16  1  0  0  0  0
M  END
> <ID>
14106

> <Formula>
C16H12O

> <FW>
220.2659

> <DSSTox_CID>
29099

> <DSSTox_RID>
83318

> <DSSTox_GSID>
49243

> <DSSTox_FileID_Sort>
7993

> <TS_ChemName>
3-Acetylphenanthrene

> <TS_ChemName_Synonyms>


> <TS_CASRN>
2039-76-1

> <CASRN_ChemName_Relationship>
primary

> <TS_Description>
single chemical compound

> <ChemNote>


> <STRUCTURE_Shown>
tested chemical

> <STRUCTURE_Formula>
C16H12O

> <STRUCTURE_MW>
220.2659

> <STRUCTURE_ChemType>
defined organic

> <STRUCTURE_DefinedOrganicForm>
parent

> <STRUCTURE_IUPAC>
1-(phenanthren-3-yl)ethanone

> <STRUCTURE_SMILES>
CC(=O)c2ccc3ccc1ccccc1c3c2

> <STRUCTURE_SMILES_Desalt>
CC(=O)c2ccc3ccc1ccccc1c3c2

> <Substance_modify_yyyymmdd>
20111204

$$$$
