203942-49-8
ChemmineR-0915142007XD

 49 52  0  0  1  0  0  0  0  0  2 V2000
    8.0859   -6.0577    0.0000 C    0  0  0  0  0  0  0  0  0  0  0  0
    8.0859   -7.3828    0.0000 C    0  0  0  0  0  0  0  0  0  0  0  0
    6.9366   -8.0589    0.0000 C    0  0  0  0  0  0  0  0  0  0  0  0
    6.9366   -9.3840    0.0000 C    0  0  0  0  0  0  0  0  0  0  0  0
    5.7872   -7.3828    0.0000 C    0  0  0  0  0  0  0  0  0  0  0  0
    8.0859  -10.0465    0.0000 C    0  0  0  0  0  0  0  0  0  0  0  0
    5.7872  -10.0465    0.0000 C    0  0  0  0  0  0  0  0  0  0  0  0
    4.6244   -8.0589    0.0000 N    0  0  0  0  0  0  0  0  0  0  0  0
    8.0859  -11.3717    0.0000 C    0  0  0  0  0  0  0  0  0  0  0  0
    5.7872  -11.3717    0.0000 C    0  0  0  0  0  0  0  0  0  0  0  0
    3.4750   -7.3828    0.0000 C    0  0  0  0  0  0  0  0  0  0  0  0
    4.6244   -9.3840    0.0000 C    0  0  0  0  0  0  0  0  0  0  0  0
    6.9366  -12.0477    0.0000 C    0  0  0  0  0  0  0  0  0  0  0  0
    9.2217  -12.0477    0.0000 Cl   0  0  0  0  0  0  0  0  0  0  0  0
    3.4750   -6.0577    0.0000 C    0  0  0  0  0  0  0  0  0  0  0  0
    2.3257   -8.0589    0.0000 O    0  0  0  0  0  0  0  0  0  0  0  0
    6.9366  -13.3729    0.0000 Cl   0  0  0  0  0  0  0  0  0  0  0  0
    2.3257   -5.3951    0.0000 C    0  0  0  0  0  0  0  0  0  0  0  0
    4.6244   -5.3951    0.0000 C    0  0  0  0  0  0  0  0  0  0  0  0
    2.3257   -4.0700    0.0000 C    0  0  0  0  0  0  0  0  0  0  0  0
    4.6244   -4.0700    0.0000 C    0  0  0  0  0  0  0  0  0  0  0  0
    3.4750   -3.3939    0.0000 C    0  0  0  0  0  0  0  0  0  0  0  0
    1.1493   -3.3939    0.0000 C    0  0  0  0  0  0  0  0  0  0  0  0
    5.7872   -3.3939    0.0000 C    0  0  0  0  0  0  0  0  0  0  0  0
    0.5003   -4.5433    0.0000 F    0  0  0  0  0  0  0  0  0  0  0  0
    1.8254   -2.2446    0.0000 F    0  0  0  0  0  0  0  0  0  0  0  0
    0.0000   -2.7178    0.0000 F    0  0  0  0  0  0  0  0  0  0  0  0
    6.4363   -4.5433    0.0000 F    0  0  0  0  0  0  0  0  0  0  0  0
    5.1112   -2.2446    0.0000 F    0  0  0  0  0  0  0  0  0  0  0  0
    6.9366   -2.7178    0.0000 F    0  0  0  0  0  0  0  0  0  0  0  0
    9.1812   -3.4750    0.0000 C    0  0  0  0  0  0  0  0  0  0  0  0
    9.8708   -4.6244    0.0000 C    0  0  0  0  0  0  0  0  0  0  0  0
    9.8708   -2.2987    0.0000 C    0  0  0  0  0  0  0  0  0  0  0  0
    7.8290   -3.4750    0.0000 C    0  0  0  0  0  0  0  0  0  0  0  0
    9.1676   -4.3404    0.0000 N    0  3  0  0  0  0  0  0  0  0  0  0
    9.8302   -5.5033    0.0000 C    0  0  0  0  0  0  0  0  0  0  0  0
   10.2088   -3.1235    0.0000 C    0  0  0  0  0  0  0  0  0  0  0  0
    7.8155   -4.3404    0.0000 C    0  0  0  0  0  0  0  0  0  0  0  0
    8.5186   -2.3122    0.0000 C    0  0  0  0  0  0  0  0  0  0  0  0
    7.1935   -2.3122    0.0000 C    0  0  0  0  0  0  0  0  0  0  0  0
    9.1812   -1.1629    0.0000 C    0  0  0  0  0  0  0  0  0  0  0  0
    6.5174   -1.1493    0.0000 C    0  0  0  0  0  0  0  0  0  0  0  0
    8.5186    0.0000    0.0000 C    0  0  0  0  0  0  0  0  0  0  0  0
    7.1935    0.0000    0.0000 C    0  0  0  0  0  0  0  0  0  0  0  0
   12.1965   -6.0982    0.0000 S    0  0  0  0  0  0  0  0  0  0  0  0
   12.1965   -7.6262    0.0000 O    0  0  0  0  0  0  0  0  0  0  0  0
   13.5216   -6.0982    0.0000 O    0  5  0  0  0  0  0  0  0  0  0  0
   12.1965   -4.7731    0.0000 O    0  0  0  0  0  0  0  0  0  0  0  0
   10.8037   -6.0982    0.0000 C    0  0  0  0  0  0  0  0  0  0  0  0
  1  2  1  0  0  0  0
  1 35  1  0  0  0  0
  2  3  1  0  0  0  0
  3  4  1  1  0  0  0
  3  5  1  0  0  0  0
  4  6  2  0  0  0  0
  4  7  1  0  0  0  0
  5  8  1  0  0  0  0
  6  9  1  0  0  0  0
  7 10  2  0  0  0  0
  8 11  1  0  0  0  0
  8 12  1  0  0  0  0
  9 13  2  0  0  0  0
  9 14  1  0  0  0  0
 10 13  1  0  0  0  0
 11 15  1  0  0  0  0
 11 16  2  0  0  0  0
 13 17  1  0  0  0  0
 15 18  2  0  0  0  0
 15 19  1  0  0  0  0
 18 20  1  0  0  0  0
 19 21  2  0  0  0  0
 20 22  2  0  0  0  0
 20 23  1  0  0  0  0
 21 24  1  0  0  0  0
 21 22  1  0  0  0  0
 23 25  1  0  0  0  0
 23 26  1  0  0  0  0
 23 27  1  0  0  0  0
 24 28  1  0  0  0  0
 24 29  1  0  0  0  0
 24 30  1  0  0  0  0
 31 32  1  0  0  0  0
 31 33  1  0  0  0  0
 31 34  1  0  0  0  0
 31 39  1  0  0  0  0
 32 36  1  0  0  0  0
 33 37  1  0  0  0  0
 34 38  1  0  0  0  0
 35 36  1  0  0  0  0
 35 37  1  0  0  0  0
 35 38  1  0  0  0  0
 39 40  1  0  0  0  0
 39 41  1  0  0  0  0
 40 42  1  0  0  0  0
 41 43  1  0  0  0  0
 42 44  1  0  0  0  0
 43 44  1  0  0  0  0
 45 46  2  0  0  0  0
 45 47  1  0  0  0  0
 45 48  2  0  0  0  0
 45 49  1  0  0  0  0
M  END
> <ID>
12430

> <Formula>
C34H42Cl2F6N2O4S

> <FW>
759.6697 (664.5714+95.0983)

> <DSSTox_CID>
27288

> <DSSTox_RID>
82242

> <DSSTox_GSID>
47288

> <DSSTox_FileID_Sort>
6923

> <TS_ChemName>
UK-337312

> <TS_ChemName_Synonyms>


> <TS_CASRN>
203942-49-8

> <CASRN_ChemName_Relationship>
primary

> <TS_Description>
single chemical compound

> <ChemNote>
ammonium; stereochem

> <STRUCTURE_Shown>
tested chemical

> <STRUCTURE_Formula>
C34H42Cl2F6N2O4S

> <STRUCTURE_MW>
759.6697

> <STRUCTURE_ChemType>
defined organic

> <STRUCTURE_DefinedOrganicForm>
complex

> <STRUCTURE_IUPAC>
1-[(3S)-4-{[3,5-bis(trifluoromethyl)benzoyl](methyl)amino}-3-(3,4-dichlorophenyl)butyl]-4-cyclohexyl-1-azoniabicyclo[2.2.2]octane methanesulfonate

> <STRUCTURE_SMILES>
[O-]S(C)(=O)=O.FC(F)(F)c1cc(cc(c1)C(F)(F)F)C(=O)N(C)C[C@@H](CC[N+]23CCC(CC2)(CC3)C4CCCCC4)c5ccc(Cl)c(Cl)c5

> <STRUCTURE_SMILES_Desalt>
FC(F)(F)c1cc(cc(c1)C(F)(F)F)C(=O)N(C)C[C@@H](CC[N+]23CCC(CC2)(CC3)C4CCCCC4)c5ccc(Cl)c(Cl)c5

> <Substance_modify_yyyymmdd>
20130910

$$$$
