204005-46-9
ChemmineR-0915142007XD

 18 20  0  0  0  0  0  0  0  0  1 V2000
    2.3074   -4.3209    0.0000 C   0  0  0  0  0  0  0  0  0  0  0  0
    2.3074   -5.6431    0.0000 C   0  0  0  0  0  0  0  0  0  0  0  0
    1.1494   -3.6641    0.0000 C   0  0  0  0  0  0  0  0  0  0  0  0
    1.1494   -6.3171    0.0000 C   0  0  0  0  0  0  0  0  0  0  0  0
    0.0000   -4.3209    0.0000 C   0  0  0  0  0  0  0  0  0  0  0  0
    0.0000   -5.6431    0.0000 C   0  0  0  0  0  0  0  0  0  0  0  0
    3.5691   -3.8974    0.0000 C   0  0  0  0  0  0  0  0  0  0  0  0
    4.3555   -4.9863    0.0000 C   0  0  0  0  0  0  0  0  0  0  0  0
    3.5691   -6.0579    0.0000 N   0  0  0  0  0  0  0  0  0  0  0  0
    3.9839   -2.6357    0.0000 C   0  0  0  0  0  0  0  0  0  0  0  0
    5.2801   -2.3678    0.0000 C   0  0  0  0  0  0  0  0  0  0  0  0
    5.8246   -1.1494    0.0000 C   0  0  0  0  0  0  0  0  0  0  0  0
    6.2739   -3.2580    0.0000 N   0  0  0  0  0  0  0  0  0  0  0  0
    7.1554   -1.2963    0.0000 C   0  0  0  0  0  0  0  0  0  0  0  0
    7.4233   -2.5925    0.0000 C   0  0  0  0  0  0  0  0  0  0  0  0
    5.1505    0.0000    0.0000 C   0  0  0  0  0  0  0  0  0  0  0  0
    8.6418   -3.1283    0.0000 C   0  0  0  0  0  0  0  0  0  0  0  0
    5.6777   -4.9863    0.0000 O   0  0  0  0  0  0  0  0  0  0  0  0
  1  3  2  0  0  0  0
  1  7  1  0  0  0  0
  1  2  1  0  0  0  0
  2  4  2  0  0  0  0
  2  9  1  0  0  0  0
  3  5  1  0  0  0  0
  4  6  1  0  0  0  0
  5  6  2  0  0  0  0
  7  8  1  0  0  0  0
  7 10  2  3  0  0  0
  8  9  1  0  0  0  0
  8 18  2  0  0  0  0
 10 11  1  0  0  0  0
 11 12  2  0  0  0  0
 11 13  1  0  0  0  0
 12 14  1  0  0  0  0
 12 16  1  0  0  0  0
 13 15  1  0  0  0  0
 14 15  2  0  0  0  0
 15 17  1  0  0  0  0
M  END
> <ID>
8127

> <Formula>
C15H14N2O

> <FW>
238.2845

> <DSSTox_CID>
21132

> <DSSTox_RID>
79631

> <DSSTox_GSID>
41132

> <DSSTox_FileID_Sort>
4313

> <TS_ChemName>
SU-5416

> <TS_ChemName_Synonyms>


> <TS_CASRN>
204005-46-9

> <CASRN_ChemName_Relationship>
primary

> <TS_Description>
mixture of Z,E isomers

> <ChemNote>
mixture of Z,E isomers; stereochem

> <STRUCTURE_Shown>
representative isomer in mixture

> <STRUCTURE_Formula>
C15H14N2O

> <STRUCTURE_MW>
238.2845

> <STRUCTURE_ChemType>
defined organic

> <STRUCTURE_DefinedOrganicForm>
parent

> <STRUCTURE_IUPAC>
3-[(3,5-dimethyl-1H-pyrrol-2-yl)methylidene]-1,3-dihydro-2H-indol-2-one

> <STRUCTURE_SMILES>
Cc3cc(C)nc3C=C1c2ccccc2NC1=O

> <STRUCTURE_SMILES_Desalt>
Cc3cc(C)nc3C=C1c2ccccc2NC1=O

> <Substance_modify_yyyymmdd>
20110902

$$$$
