2043-57-4
ChemmineR-0915142007XD

 22 21  0  0  0  0  0  0  0  0  1 V2000
    1.1426   -1.2765    0.0000 C   0  0  0  0  0  0  0  0  0  0  0  0
    2.2956   -1.9868    0.0000 C   0  0  0  0  0  0  0  0  0  0  0  0
    3.4279   -1.2765    0.0000 C   0  0  0  0  0  0  0  0  0  0  0  0
    4.5500   -1.9868    0.0000 C   0  0  0  0  0  0  0  0  0  0  0  0
    5.7441   -1.2765    0.0000 C   0  0  0  0  0  0  0  0  0  0  0  0
    6.8662   -1.9868    0.0000 C   0  0  0  0  0  0  0  0  0  0  0  0
    7.9985   -1.2765    0.0000 C   0  0  0  0  0  0  0  0  0  0  0  0
    9.1412   -1.9868    0.0000 C   0  0  0  0  0  0  0  0  0  0  0  0
    0.0000   -1.9868    0.0000 F   0  0  0  0  0  0  0  0  0  0  0  0
    1.1426    0.0000    0.0000 F   0  0  0  0  0  0  0  0  0  0  0  0
    1.1426   -2.6250    0.0000 F   0  0  0  0  0  0  0  0  0  0  0  0
    2.2956   -3.2838    0.0000 F   0  0  0  0  0  0  0  0  0  0  0  0
    2.2956   -0.6485    0.0000 F   0  0  0  0  0  0  0  0  0  0  0  0
    3.4279    0.0000    0.0000 F   0  0  0  0  0  0  0  0  0  0  0  0
    3.4279   -2.6250    0.0000 F   0  0  0  0  0  0  0  0  0  0  0  0
    4.5500   -3.2838    0.0000 F   0  0  0  0  0  0  0  0  0  0  0  0
    4.5500   -0.6485    0.0000 F   0  0  0  0  0  0  0  0  0  0  0  0
    5.7441    0.0000    0.0000 F   0  0  0  0  0  0  0  0  0  0  0  0
    5.7441   -2.6250    0.0000 F   0  0  0  0  0  0  0  0  0  0  0  0
   10.2941   -1.2765    0.0000 I   0  0  0  0  0  0  0  0  0  0  0  0
    6.8662   -3.3147    0.0000 F   0  0  0  0  0  0  0  0  0  0  0  0
    6.8353   -0.6485    0.0000 F   0  0  0  0  0  0  0  0  0  0  0  0
  1  2  1  0  0  0  0
  1  9  1  0  0  0  0
  1 10  1  0  0  0  0
  1 11  1  0  0  0  0
  2  3  1  0  0  0  0
  2 12  1  0  0  0  0
  2 13  1  0  0  0  0
  3  4  1  0  0  0  0
  3 14  1  0  0  0  0
  3 15  1  0  0  0  0
  4  5  1  0  0  0  0
  4 16  1  0  0  0  0
  4 17  1  0  0  0  0
  5  6  1  0  0  0  0
  5 18  1  0  0  0  0
  5 19  1  0  0  0  0
  6  7  1  0  0  0  0
  6 21  1  0  0  0  0
  6 22  1  0  0  0  0
  7  8  1  0  0  0  0
  8 20  1  0  0  0  0
M  END
> <ID>
12688

> <Formula>
C8H4F13I

> <FW>
474.0011

> <DSSTox_CID>
27565

> <DSSTox_RID>
82422

> <DSSTox_GSID>
47565

> <DSSTox_FileID_Sort>
7103

> <TS_ChemName>
1H,1H,2H,2H-Perfluorooctyl iodide

> <TS_ChemName_Synonyms>


> <TS_CASRN>
2043-57-4

> <CASRN_ChemName_Relationship>
primary

> <TS_Description>
single chemical compound

> <ChemNote>


> <STRUCTURE_Shown>
tested chemical

> <STRUCTURE_Formula>
C8H4F13I

> <STRUCTURE_MW>
474.0011

> <STRUCTURE_ChemType>
defined organic

> <STRUCTURE_DefinedOrganicForm>
parent

> <STRUCTURE_IUPAC>
1,1,1,2,2,3,3,4,4,5,5,6,6-tridecafluoro-8-iodooctane

> <STRUCTURE_SMILES>
FC(F)(C(F)(F)CCI)C(F)(F)C(F)(F)C(F)(F)C(F)(F)F

> <STRUCTURE_SMILES_Desalt>
FC(F)(C(F)(F)CCI)C(F)(F)C(F)(F)C(F)(F)C(F)(F)F

> <Substance_modify_yyyymmdd>
20100929

$$$$
