20445-94-7
ChemmineR-0915142007XD

 24 22  0  0  0  0  0  0  0  0  2 V2000
    9.3148   -6.9120    0.0000 C   0  0  0  0  0  0  0  0  0  0  0  0
   10.9999   -0.6085    0.0000 C   0  0  0  0  0  0  0  0  0  0  0  0
   13.2935    0.0000    0.0000 C   0  0  0  0  0  0  0  0  0  0  0  0
   15.6027   -4.6028    0.0000 C   0  0  0  0  0  0  0  0  0  0  0  0
   10.6411   -6.9120    0.0000 C   0  0  0  0  0  0  0  0  0  0  0  0
   10.9999   -1.9503    0.0000 C   0  0  0  0  0  0  0  0  0  0  0  0
   13.9644   -1.1546    0.0000 C   0  0  0  0  0  0  0  0  0  0  0  0
   14.4481   -5.2737    0.0000 C   0  0  0  0  0  0  0  0  0  0  0  0
   11.3120   -5.7574    0.0000 C   0  0  0  0  0  0  0  0  0  0  0  0
   12.1545   -2.6057    0.0000 C   0  0  0  0  0  0  0  0  0  0  0  0
   13.2935   -2.2936    0.0000 C   0  0  0  0  0  0  0  0  0  0  0  0
   12.6382   -5.7574    0.0000 C   0  0  0  0  0  0  0  0  0  0  0  0
   12.1545   -3.9319    0.0000 C   0  0  0  0  0  0  0  0  0  0  0  0
   13.9644   -3.4482    0.0000 C   0  0  0  0  0  0  0  0  0  0  0  0
   13.2935   -4.6028    0.0000 P   0  3  0  0  0  0  0  0  0  0  0  0
    0.0000   -6.9120    0.0000 C   0  0  0  0  0  0  0  0  0  0  0  0
    6.6468   -4.6028    0.0000 C   0  0  0  0  0  0  0  0  0  0  0  0
    1.3262   -6.9120    0.0000 C   0  0  0  0  0  0  0  0  0  0  0  0
    5.3205   -4.6028    0.0000 C   0  0  0  0  0  0  0  0  0  0  0  0
    3.3234   -7.0836    0.0000 O   0  5  0  0  0  0  0  0  0  0  0  0
    3.3234   -4.4312    0.0000 O   0  0  0  0  0  0  0  0  0  0  0  0
    1.9972   -5.7574    0.0000 O   0  0  0  0  0  0  0  0  0  0  0  0
    4.6496   -5.7574    0.0000 O   0  0  0  0  0  0  0  0  0  0  0  0
    3.3234   -5.7574    0.0000 P   0  0  0  0  0  0  0  0  0  0  0  0
  1  5  1  0  0  0  0
  2  6  1  0  0  0  0
  3  7  1  0  0  0  0
  4  8  1  0  0  0  0
  5  9  1  0  0  0  0
  6 10  1  0  0  0  0
  7 11  1  0  0  0  0
  8 15  1  0  0  0  0
  9 12  1  0  0  0  0
 10 13  1  0  0  0  0
 11 14  1  0  0  0  0
 12 15  1  0  0  0  0
 13 15  1  0  0  0  0
 14 15  1  0  0  0  0
 16 18  1  0  0  0  0
 17 19  1  0  0  0  0
 18 22  1  0  0  0  0
 19 23  1  0  0  0  0
 20 24  1  0  0  0  0
 21 24  2  0  0  0  0
 22 24  1  0  0  0  0
 23 24  1  0  0  0  0
M  END
> <ID>
14107

> <Formula>
C18H42O4P2

> <FW>
384.4712 (231.3771+153.0941)

> <DSSTox_CID>
29100

> <DSSTox_RID>
83319

> <DSSTox_GSID>
49244

> <DSSTox_FileID_Sort>
7994

> <TS_ChemName>
Ethyltributylphosphonium diethylphosphate

> <TS_ChemName_Synonyms>


> <TS_CASRN>
20445-94-7

> <CASRN_ChemName_Relationship>
primary

> <TS_Description>
single chemical compound

> <ChemNote>


> <STRUCTURE_Shown>
tested chemical

> <STRUCTURE_Formula>
C18H42O4P2

> <STRUCTURE_MW>
384.4712

> <STRUCTURE_ChemType>
defined organic

> <STRUCTURE_DefinedOrganicForm>
complex

> <STRUCTURE_IUPAC>
tributyl(ethyl)phosphonium diethyl phosphate

> <STRUCTURE_SMILES>
[O-]P(=O)(OCC)OCC.CC[P+](CCCC)(CCCC)CCCC

> <STRUCTURE_SMILES_Desalt>
CCCC[P+](CC)(CCCC)CCCC

> <Substance_modify_yyyymmdd>
20111204

$$$$
