2044-64-6
ChemmineR-0915142007XD

  9  8  0  0  0  0  0  0  0  0  1 V2000
    2.3018   -1.3293    0.0000 C   0  0  0  0  0  0  0  0  0  0  0  0
    3.4526   -1.9968    0.0000 C   0  0  0  0  0  0  0  0  0  0  0  0
    4.6035   -1.3293    0.0000 C   0  0  0  0  0  0  0  0  0  0  0  0
    5.7544   -1.9968    0.0000 C   0  0  0  0  0  0  0  0  0  0  0  0
    2.3018    0.0000    0.0000 O   0  0  0  0  0  0  0  0  0  0  0  0
    1.1509   -1.9968    0.0000 N   0  0  0  0  0  0  0  0  0  0  0  0
    0.0000   -1.3293    0.0000 C   0  0  0  0  0  0  0  0  0  0  0  0
    1.1509   -3.3260    0.0000 C   0  0  0  0  0  0  0  0  0  0  0  0
    4.6035    0.0000    0.0000 O   0  0  0  0  0  0  0  0  0  0  0  0
  1  2  1  0  0  0  0
  1  6  1  0  0  0  0
  1  5  2  0  0  0  0
  2  3  1  0  0  0  0
  3  4  1  0  0  0  0
  3  9  2  0  0  0  0
  6  7  1  0  0  0  0
  6  8  1  0  0  0  0
M  END
> <ID>
5169

> <Formula>
C6H11NO2

> <FW>
129.157

> <DSSTox_CID>
7454

> <DSSTox_RID>
78460

> <DSSTox_GSID>
27454

> <DSSTox_FileID_Sort>
3143

> <TS_ChemName>
N,N-Dimethylacetoacetamide

> <TS_ChemName_Synonyms>
N,N-Dimethylacetoacetamide  (Butanamide, N,N-dimethyl-3-oxo-)

> <TS_CASRN>
2044-64-6

> <CASRN_ChemName_Relationship>
primary

> <TS_Description>
single chemical compound

> <ChemNote>
tautomers

> <STRUCTURE_Shown>
tested chemical

> <STRUCTURE_Formula>
C6H11NO2

> <STRUCTURE_MW>
129.157

> <STRUCTURE_ChemType>
defined organic

> <STRUCTURE_DefinedOrganicForm>
parent

> <STRUCTURE_IUPAC>
N,N-dimethyl-3-oxobutanamide

> <STRUCTURE_SMILES>
CC(=O)CC(=O)N(C)C

> <STRUCTURE_SMILES_Desalt>
CC(=O)CC(=O)N(C)C

> <Substance_modify_yyyymmdd>
20080429

$$$$
