204519-65-3
ChemmineR-0915142007XD

 33 35  0  0  0  0  0  0  0  0  1 V2000
   10.0142   -4.0165    0.0000 N   0  0  0  0  0  0  0  0  0  0  0  0
   11.1734   -3.3426    0.0000 C   0  0  0  0  0  0  0  0  0  0  0  0
   11.1734   -2.0217    0.0000 C   0  0  0  0  0  0  0  0  0  0  0  0
   10.0008   -1.3478    0.0000 C   0  0  0  0  0  0  0  0  0  0  0  0
    8.8551   -2.0217    0.0000 C   0  0  0  0  0  0  0  0  0  0  0  0
    7.6960   -1.3478    0.0000 C   0  0  0  0  0  0  0  0  0  0  0  0
    6.5638   -2.0217    0.0000 C   0  0  0  0  0  0  0  0  0  0  0  0
    6.5638   -3.3830    0.0000 C   0  0  0  0  0  0  0  0  0  0  0  0
    7.7095   -4.0165    0.0000 N   0  0  0  0  0  0  0  0  0  0  0  0
    8.8551   -3.3830    0.0000 C   0  0  0  0  0  0  0  0  0  0  0  0
   12.3190   -1.3478    0.0000 C   0  0  0  0  0  0  0  0  0  0  0  0
   12.3190    0.0000    0.0000 O   0  0  0  0  0  0  0  0  0  0  0  0
   13.4781   -2.0082    0.0000 O   0  0  0  0  0  0  0  0  0  0  0  0
   10.0008    0.0000    0.0000 O   0  0  0  0  0  0  0  0  0  0  0  0
    5.4182   -1.3748    0.0000 F   0  0  0  0  0  0  0  0  0  0  0  0
   10.0142   -5.3508    0.0000 C   0  0  0  0  0  0  0  0  0  0  0  0
    9.3942   -6.4965    0.0000 C   0  0  0  0  0  0  0  0  0  0  0  0
   10.7016   -6.4965    0.0000 C   0  0  0  0  0  0  0  0  0  0  0  0
    5.4182   -4.0300    0.0000 N   0  0  0  0  0  0  0  0  0  0  0  0
    5.4182   -5.3508    0.0000 C   0  0  0  0  0  0  0  0  0  0  0  0
    4.1243   -5.7552    0.0000 C   0  0  0  0  0  0  0  0  0  0  0  0
    3.3561   -4.6769    0.0000 C   0  0  0  0  0  0  0  0  0  0  0  0
    4.1378   -3.5717    0.0000 C   0  0  0  0  0  0  0  0  0  0  0  0
    2.0217   -4.6769    0.0000 N   0  0  0  0  0  0  0  0  0  0  0  0
    1.3478   -3.5717    0.0000 O   0  0  0  0  0  0  0  0  0  0  0  0
    0.0000   -3.5717    0.0000 C   0  0  0  0  0  0  0  0  0  0  0  0
    3.7065   -7.0221    0.0000 C   0  0  0  0  0  0  0  0  0  0  0  0
    2.3991   -7.2917    0.0000 N   0  0  0  0  0  0  0  0  0  0  0  0
    5.9843   -7.5343    0.0000 C   0  0  0  0  0  0  0  0  0  0  0  0
    7.3186   -7.5343    0.0000 S   0  0  0  0  0  0  0  0  0  0  0  0
    7.3186   -8.8416    0.0000 O   0  0  0  0  0  0  0  0  0  0  0  0
    7.3186   -6.2134    0.0000 O   0  0  0  0  0  0  0  0  0  0  0  0
    8.6125   -7.5343    0.0000 O   0  0  0  0  0  0  0  0  0  0  0  0
  1  2  1  0  0  0  0
  1 10  1  0  0  0  0
  1 16  1  0  0  0  0
  2  3  2  0  0  0  0
  3  4  1  0  0  0  0
  3 11  1  0  0  0  0
  4  5  1  0  0  0  0
  4 14  2  0  0  0  0
  5  6  1  0  0  0  0
  5 10  2  0  0  0  0
  6  7  2  0  0  0  0
  7  8  1  0  0  0  0
  7 15  1  0  0  0  0
  8  9  2  0  0  0  0
  8 19  1  0  0  0  0
  9 10  1  0  0  0  0
 11 12  2  0  0  0  0
 11 13  1  0  0  0  0
 16 17  1  0  0  0  0
 16 18  1  0  0  0  0
 17 18  1  0  0  0  0
 19 20  1  0  0  0  0
 19 23  1  0  0  0  0
 20 21  1  0  0  0  0
 21 22  1  0  0  0  0
 21 27  1  0  0  0  0
 22 23  1  0  0  0  0
 22 24  2  0  0  0  0
 24 25  1  0  0  0  0
 25 26  1  0  0  0  0
 27 28  1  0  0  0  0
 29 30  1  0  0  0  0
 30 31  1  0  0  0  0
 30 32  2  0  0  0  0
 30 33  2  0  0  0  0
M  END
> <ID>
11313

> <Formula>
C19H24FN5O7S

> <FW>
485.4866 (389.3809+96.1057)

> <DSSTox_CID>
25948

> <DSSTox_RID>
81245

> <DSSTox_GSID>
45948

> <DSSTox_FileID_Sort>
5926

> <TS_ChemName>
Gemifloxacin mesylate

> <TS_ChemName_Synonyms>


> <TS_CASRN>
204519-65-3

> <CASRN_ChemName_Relationship>
primary

> <TS_Description>
single chemical compound

> <ChemNote>
stereochem; tautomers; parent [175463-14-6]

> <STRUCTURE_Shown>
tested chemical

> <STRUCTURE_Formula>
C19H24FN5O7S

> <STRUCTURE_MW>
485.4866

> <STRUCTURE_ChemType>
defined organic

> <STRUCTURE_DefinedOrganicForm>
complex

> <STRUCTURE_IUPAC>
7-[(4Z)-3-(aminomethyl)-4-(methoxyimino)pyrrolidin-1-yl]-1-cyclopropyl-6-fluoro-4-oxo-1,4-dihydro-1,8-naphthyridine-3-carboxylic acid methanesulfonate (1:1)

> <STRUCTURE_SMILES>
CS(=O)(=O)O.CO\N=C1/CN(CC1CN)c2nc3c(cc2F)C(=O)C(=CN3C4CC4)C(=O)O

> <STRUCTURE_SMILES_Desalt>
CO\N=C1/CN(CC1CN)c2nc3c(cc2F)C(=O)C(=CN3C4CC4)C(=O)O

> <Substance_modify_yyyymmdd>
20110930

$$$$
