205-99-2
ChemmineR-0915142007XD

 20 24  0  0  0  0  0  0  0  0  1 V2000
    4.4203   -1.9507    0.0000 C   0  0  0  0  0  0  0  0  0  0  0  0
    4.4203   -0.6800    0.0000 C   0  0  0  0  0  0  0  0  0  0  0  0
    3.3108   -2.5860    0.0000 C   0  0  0  0  0  0  0  0  0  0  0  0
    5.5388   -2.5860    0.0000 C   0  0  0  0  0  0  0  0  0  0  0  0
    2.1923   -0.6800    0.0000 C   0  0  0  0  0  0  0  0  0  0  0  0
    2.1923   -1.9507    0.0000 C   0  0  0  0  0  0  0  0  0  0  0  0
    5.5388   -0.0268    0.0000 C   0  0  0  0  0  0  0  0  0  0  0  0
    6.6573   -1.9507    0.0000 C   0  0  0  0  0  0  0  0  0  0  0  0
    6.6573   -0.6800    0.0000 C   0  0  0  0  0  0  0  0  0  0  0  0
    3.3108   -3.8566    0.0000 C   0  0  0  0  0  0  0  0  0  0  0  0
    5.5388   -3.8566    0.0000 C   0  0  0  0  0  0  0  0  0  0  0  0
    1.0738   -0.0268    0.0000 C   0  0  0  0  0  0  0  0  0  0  0  0
    1.0738   -2.5860    0.0000 C   0  0  0  0  0  0  0  0  0  0  0  0
    7.7937   -2.6486    0.0000 C   0  0  0  0  0  0  0  0  0  0  0  0
    4.4203   -4.5366    0.0000 C   0  0  0  0  0  0  0  0  0  0  0  0
    7.7937    0.0000    0.0000 C   0  0  0  0  0  0  0  0  0  0  0  0
    0.0000   -1.9507    0.0000 C   0  0  0  0  0  0  0  0  0  0  0  0
    0.0000   -0.6800    0.0000 C   0  0  0  0  0  0  0  0  0  0  0  0
    8.9480   -1.9865    0.0000 C   0  0  0  0  0  0  0  0  0  0  0  0
    8.9480   -0.6622    0.0000 C   0  0  0  0  0  0  0  0  0  0  0  0
  1  2  1  0  0  0  0
  1  3  1  0  0  0  0
  1  4  2  0  0  0  0
  2  5  1  0  0  0  0
  2  7  2  0  0  0  0
  3  6  1  0  0  0  0
  3 10  2  0  0  0  0
  4  8  1  0  0  0  0
  4 11  1  0  0  0  0
  5 12  1  0  0  0  0
  5  6  2  0  0  0  0
  6 13  1  0  0  0  0
  7  9  1  0  0  0  0
  8  9  2  0  0  0  0
  8 14  1  0  0  0  0
  9 16  1  0  0  0  0
 10 15  1  0  0  0  0
 11 15  2  0  0  0  0
 12 18  2  0  0  0  0
 13 17  2  0  0  0  0
 14 19  2  0  0  0  0
 16 20  2  0  0  0  0
 17 18  1  0  0  0  0
 19 20  1  0  0  0  0
M  END
> <ID>
3420

> <Formula>
C20H12

> <FW>
252.3093

> <DSSTox_CID>
3907

> <DSSTox_RID>
77227

> <DSSTox_GSID>
23907

> <DSSTox_FileID_Sort>
1910

> <TS_ChemName>
Benzo(b)fluoranthene

> <TS_ChemName_Synonyms>


> <TS_CASRN>
205-99-2

> <CASRN_ChemName_Relationship>
primary

> <TS_Description>
single chemical compound

> <ChemNote>


> <STRUCTURE_Shown>
tested chemical

> <STRUCTURE_Formula>
C20H12

> <STRUCTURE_MW>
252.3093

> <STRUCTURE_ChemType>
defined organic

> <STRUCTURE_DefinedOrganicForm>
parent

> <STRUCTURE_IUPAC>
benzo[e]acephenanthrylene

> <STRUCTURE_SMILES>
c1cccc5c1cc4c2c5cccc2c3ccccc34

> <STRUCTURE_SMILES_Desalt>
c1cccc5c1cc4c2c5cccc2c3ccccc34

> <Substance_modify_yyyymmdd>
20080429

$$$$
