2050-47-7
ChemmineR-0915142007XD

 15 16  0  0  0  0  0  0  0  0  1 V2000
    9.2124   -2.6624    0.0000 Br   0  0  0  0  0  0  0  0  0  0  0  0
    0.0000   -2.6624    0.0000 Br   0  0  0  0  0  0  0  0  0  0  0  0
    8.0609   -0.6725    0.0000 C    0  0  0  0  0  0  0  0  0  0  0  0
    8.0609   -1.9899    0.0000 C    0  0  0  0  0  0  0  0  0  0  0  0
    6.9185    0.0000    0.0000 C    0  0  0  0  0  0  0  0  0  0  0  0
    6.9185   -2.6624    0.0000 C    0  0  0  0  0  0  0  0  0  0  0  0
    5.7578   -0.6725    0.0000 C    0  0  0  0  0  0  0  0  0  0  0  0
    5.7578   -1.9899    0.0000 C    0  0  0  0  0  0  0  0  0  0  0  0
    3.4639   -0.6725    0.0000 C    0  0  0  0  0  0  0  0  0  0  0  0
    3.4639   -1.9899    0.0000 C    0  0  0  0  0  0  0  0  0  0  0  0
    2.3123    0.0000    0.0000 C    0  0  0  0  0  0  0  0  0  0  0  0
    2.3123   -2.6624    0.0000 C    0  0  0  0  0  0  0  0  0  0  0  0
    1.1516   -0.6725    0.0000 C    0  0  0  0  0  0  0  0  0  0  0  0
    1.1516   -1.9899    0.0000 C    0  0  0  0  0  0  0  0  0  0  0  0
    4.6062    0.0000    0.0000 O    0  0  0  0  0  0  0  0  0  0  0  0
  1  4  1  0  0  0  0
  2 14  1  0  0  0  0
  3  4  1  0  0  0  0
  3  5  2  0  0  0  0
  4  6  2  0  0  0  0
  5  7  1  0  0  0  0
  6  8  1  0  0  0  0
  7  8  2  0  0  0  0
  7 15  1  0  0  0  0
  9 10  1  0  0  0  0
  9 11  2  0  0  0  0
  9 15  1  0  0  0  0
 10 12  2  0  0  0  0
 11 13  1  0  0  0  0
 12 14  1  0  0  0  0
 13 14  2  0  0  0  0
M  END
> <ID>
3469

> <Formula>
C12H8Br2O

> <FW>
327.9993

> <DSSTox_CID>
4015

> <DSSTox_RID>
77259

> <DSSTox_GSID>
24015

> <DSSTox_FileID_Sort>
1942

> <TS_ChemName>
4,4'-Dibromodiphenyl ether

> <TS_ChemName_Synonyms>


> <TS_CASRN>
2050-47-7

> <CASRN_ChemName_Relationship>
primary

> <TS_Description>
single chemical compound

> <ChemNote>


> <STRUCTURE_Shown>
tested chemical

> <STRUCTURE_Formula>
C12H8Br2O

> <STRUCTURE_MW>
327.9993

> <STRUCTURE_ChemType>
defined organic

> <STRUCTURE_DefinedOrganicForm>
parent

> <STRUCTURE_IUPAC>
bis(4-bromophenyl) ether

> <STRUCTURE_SMILES>
Brc2ccc(Oc1ccc(Br)cc1)cc2

> <STRUCTURE_SMILES_Desalt>
Brc2ccc(Oc1ccc(Br)cc1)cc2

> <Substance_modify_yyyymmdd>
20080429

$$$$
