2050-60-4
ChemmineR-0915142007XD

 14 13  0  0  0  0  0  0  0  0  1 V2000
    5.7526   -1.3275    0.0000 C   0  0  0  0  0  0  0  0  0  0  0  0
    6.8905   -1.9976    0.0000 C   0  0  0  0  0  0  0  0  0  0  0  0
    5.7526    0.0000    0.0000 O   0  0  0  0  0  0  0  0  0  0  0  0
    4.6021   -1.9976    0.0000 O   0  0  0  0  0  0  0  0  0  0  0  0
    6.8905   -3.3252    0.0000 O   0  0  0  0  0  0  0  0  0  0  0  0
    8.0411   -1.3275    0.0000 O   0  0  0  0  0  0  0  0  0  0  0  0
    3.4516   -1.3275    0.0000 C   0  0  0  0  0  0  0  0  0  0  0  0
    2.3011   -1.9976    0.0000 C   0  0  0  0  0  0  0  0  0  0  0  0
    1.1505   -1.3275    0.0000 C   0  0  0  0  0  0  0  0  0  0  0  0
    0.0000   -1.9976    0.0000 C   0  0  0  0  0  0  0  0  0  0  0  0
    9.1916   -1.9976    0.0000 C   0  0  0  0  0  0  0  0  0  0  0  0
   10.3421   -1.3275    0.0000 C   0  0  0  0  0  0  0  0  0  0  0  0
   11.4926   -1.9976    0.0000 C   0  0  0  0  0  0  0  0  0  0  0  0
   12.6432   -1.3275    0.0000 C   0  0  0  0  0  0  0  0  0  0  0  0
  1  2  1  0  0  0  0
  1  4  1  0  0  0  0
  1  3  2  0  0  0  0
  2  6  1  0  0  0  0
  2  5  2  0  0  0  0
  4  7  1  0  0  0  0
  6 11  1  0  0  0  0
  7  8  1  0  0  0  0
  8  9  1  0  0  0  0
  9 10  1  0  0  0  0
 11 12  1  0  0  0  0
 12 13  1  0  0  0  0
 13 14  1  0  0  0  0
M  END
> <ID>
8862

> <Formula>
C10H18O4

> <FW>
202.2475

> <DSSTox_CID>
21916

> <DSSTox_RID>
79876

> <DSSTox_GSID>
41916

> <DSSTox_FileID_Sort>
4558

> <TS_ChemName>
Dibutyl ethanedioate

> <TS_ChemName_Synonyms>
Dibutyl ethanedioate (Dibutyl oxalate)

> <TS_CASRN>
2050-60-4

> <CASRN_ChemName_Relationship>
primary

> <TS_Description>
single chemical compound

> <ChemNote>


> <STRUCTURE_Shown>
tested chemical

> <STRUCTURE_Formula>
C10H18O4

> <STRUCTURE_MW>
202.2475

> <STRUCTURE_ChemType>
defined organic

> <STRUCTURE_DefinedOrganicForm>
parent

> <STRUCTURE_IUPAC>
dibutyl ethanedioate

> <STRUCTURE_SMILES>
O=C(OCCCC)C(=O)OCCCC

> <STRUCTURE_SMILES_Desalt>
O=C(OCCCC)C(=O)OCCCC

> <Substance_modify_yyyymmdd>
20080825

$$$$
