2050-43-3
ChemmineR-0915142007XD

 12 12  0  0  0  0  0  0  0  0  1 V2000
    1.1445   -0.6589    0.0000 C   0  0  0  0  0  0  0  0  0  0  0  0
    1.1445   -1.9837    0.0000 O   0  0  0  0  0  0  0  0  0  0  0  0
    0.0000    0.0000    0.0000 C   0  0  0  0  0  0  0  0  0  0  0  0
    2.3097    0.0000    0.0000 N   0  0  0  0  0  0  0  0  0  0  0  0
    4.6264   -2.6288    0.0000 C   0  0  0  0  0  0  0  0  0  0  0  0
    5.7917   -1.9837    0.0000 C   0  0  0  0  0  0  0  0  0  0  0  0
    5.7917   -0.6451    0.0000 C   0  0  0  0  0  0  0  0  0  0  0  0
    4.6472    0.0000    0.0000 C   0  0  0  0  0  0  0  0  0  0  0  0
    3.4681   -0.6589    0.0000 C   0  0  0  0  0  0  0  0  0  0  0  0
    3.4681   -1.9837    0.0000 C   0  0  0  0  0  0  0  0  0  0  0  0
    2.3375   -2.6774    0.0000 C   0  0  0  0  0  0  0  0  0  0  0  0
    6.9362   -2.6635    0.0000 C   0  0  0  0  0  0  0  0  0  0  0  0
  1  2  2  0  0  0  0
  1  4  1  0  0  0  0
  1  3  1  0  0  0  0
  4  9  1  0  0  0  0
  5 10  2  0  0  0  0
  5  6  1  0  0  0  0
  6  7  2  0  0  0  0
  6 12  1  0  0  0  0
  7  8  1  0  0  0  0
  8  9  2  0  0  0  0
  9 10  1  0  0  0  0
 10 11  1  0  0  0  0
M  END
> <ID>
10515

> <Formula>
C10H13NO

> <FW>
163.2163

> <DSSTox_CID>
24868

> <DSSTox_RID>
80543

> <DSSTox_GSID>
44868

> <DSSTox_FileID_Sort>
5225

> <TS_ChemName>
N-(2,4-Dimethylphenyl)acetamide

> <TS_ChemName_Synonyms>
N-(2,4-Dimethylphenyl)acetamide (Acetamide, N-(2,4-dimethylphenyl)-)

> <TS_CASRN>
2050-43-3

> <CASRN_ChemName_Relationship>
primary

> <TS_Description>
single chemical compound

> <ChemNote>


> <STRUCTURE_Shown>
tested chemical

> <STRUCTURE_Formula>
C10H13NO

> <STRUCTURE_MW>
163.2163

> <STRUCTURE_ChemType>
defined organic

> <STRUCTURE_DefinedOrganicForm>
parent

> <STRUCTURE_IUPAC>
N-(2,4-dimethylphenyl)acetamide

> <STRUCTURE_SMILES>
O=C(C)Nc1ccc(C)cc1C

> <STRUCTURE_SMILES_Desalt>
O=C(C)Nc1ccc(C)cc1C

> <Substance_modify_yyyymmdd>
20091116

$$$$
