2052-15-5
ChemmineR-0915142007XD

 12 11  0  0  0  0  0  0  0  0  1 V2000
    5.7585   -1.3281    0.0000 C   0  0  0  0  0  0  0  0  0  0  0  0
    6.9102   -1.9921    0.0000 C   0  0  0  0  0  0  0  0  0  0  0  0
    8.0619   -1.3281    0.0000 C   0  0  0  0  0  0  0  0  0  0  0  0
    9.2240   -1.9921    0.0000 C   0  0  0  0  0  0  0  0  0  0  0  0
   10.3756   -1.3281    0.0000 C   0  0  0  0  0  0  0  0  0  0  0  0
    5.7585    0.0000    0.0000 O   0  0  0  0  0  0  0  0  0  0  0  0
    4.6068   -1.9921    0.0000 O   0  0  0  0  0  0  0  0  0  0  0  0
    9.2240   -3.3202    0.0000 O   0  0  0  0  0  0  0  0  0  0  0  0
    3.4447   -1.3281    0.0000 C   0  0  0  0  0  0  0  0  0  0  0  0
    2.3138   -1.9921    0.0000 C   0  0  0  0  0  0  0  0  0  0  0  0
    1.1517   -1.3281    0.0000 C   0  0  0  0  0  0  0  0  0  0  0  0
    0.0000   -1.9921    0.0000 C   0  0  0  0  0  0  0  0  0  0  0  0
  1  2  1  0  0  0  0
  1  7  1  0  0  0  0
  1  6  2  0  0  0  0
  2  3  1  0  0  0  0
  3  4  1  0  0  0  0
  4  5  1  0  0  0  0
  4  8  2  0  0  0  0
  7  9  1  0  0  0  0
  9 10  1  0  0  0  0
 10 11  1  0  0  0  0
 11 12  1  0  0  0  0
M  END
> <ID>
7500

> <Formula>
C9H16O3

> <FW>
172.2215

> <DSSTox_CID>
18800

> <DSSTox_RID>
79396

> <DSSTox_GSID>
38800

> <DSSTox_FileID_Sort>
4078

> <TS_ChemName>
Butyl 4-oxopentanoate

> <TS_ChemName_Synonyms>
Butyl 4-oxopentanoate; Butyl levulinate

> <TS_CASRN>
2052-15-5

> <CASRN_ChemName_Relationship>
primary

> <TS_Description>
single chemical compound

> <ChemNote>


> <STRUCTURE_Shown>
tested chemical

> <STRUCTURE_Formula>
C9H16O3

> <STRUCTURE_MW>
172.2215

> <STRUCTURE_ChemType>
defined organic

> <STRUCTURE_DefinedOrganicForm>
parent

> <STRUCTURE_IUPAC>
butyl 4-oxopentanoate

> <STRUCTURE_SMILES>
O=C(CCC(C)=O)OCCCC

> <STRUCTURE_SMILES_Desalt>
O=C(CCC(C)=O)OCCCC

> <Substance_modify_yyyymmdd>
20080429

$$$$
