20535-83-5
ChemmineR-0915142007XD

 12 13  0  0  0  0  0  0  0  0  1 V2000
    2.0481   -3.9860    0.0000 C   0  0  0  0  0  0  0  0  0  0  0  0
    2.0481   -2.6592    0.0000 C   0  0  0  0  0  0  0  0  0  0  0  0
    0.7818   -2.2573    0.0000 N   0  0  0  0  0  0  0  0  0  0  0  0
    0.7818   -4.3989    0.0000 N   0  0  0  0  0  0  0  0  0  0  0  0
    0.0000   -3.3309    0.0000 C   0  0  0  0  0  0  0  0  0  0  0  0
    3.1987   -4.6577    0.0000 N   0  0  0  0  0  0  0  0  0  0  0  0
    4.3549   -2.6592    0.0000 N   0  0  0  0  0  0  0  0  0  0  0  0
    4.3549   -3.9860    0.0000 C   0  0  0  0  0  0  0  0  0  0  0  0
    3.1987   -1.9985    0.0000 C   0  0  0  0  0  0  0  0  0  0  0  0
    5.5055   -4.6577    0.0000 N   0  0  0  0  0  0  0  0  0  0  0  0
    3.1987   -0.6717    0.0000 O   0  0  0  0  0  0  0  0  0  0  0  0
    4.3549    0.0000    0.0000 C   0  0  0  0  0  0  0  0  0  0  0  0
  1  2  2  0  0  0  0
  1  4  1  0  0  0  0
  1  6  1  0  0  0  0
  2  3  1  0  0  0  0
  2  9  1  0  0  0  0
  3  5  1  0  0  0  0
  4  5  2  0  0  0  0
  6  8  2  0  0  0  0
  7  8  1  0  0  0  0
  7  9  2  0  0  0  0
  8 10  1  0  0  0  0
  9 11  1  0  0  0  0
 11 12  1  0  0  0  0
M  END
> <ID>
14269

> <Formula>
C6H7N5O

> <FW>
165.1527

> <DSSTox_CID>
29365

> <DSSTox_RID>
83480

> <DSSTox_GSID>
49405

> <DSSTox_FileID_Sort>
8155

> <TS_ChemName>
O6-Methylguanine

> <TS_ChemName_Synonyms>


> <TS_CASRN>
20535-83-5

> <CASRN_ChemName_Relationship>
primary

> <TS_Description>
single chemical compound

> <ChemNote>


> <STRUCTURE_Shown>
tested chemical

> <STRUCTURE_Formula>
C6H7N5O

> <STRUCTURE_MW>
165.1527

> <STRUCTURE_ChemType>
defined organic

> <STRUCTURE_DefinedOrganicForm>
parent

> <STRUCTURE_IUPAC>
6-methoxy-7H-purin-2-amine

> <STRUCTURE_SMILES>
COc1nc(N)nc2ncnc12

> <STRUCTURE_SMILES_Desalt>
COc1nc(N)nc2ncnc12

> <Substance_modify_yyyymmdd>
20111204

$$$$
