20559-55-1
ChemmineR-0915142007XD

 18 19  0  0  0  0  0  0  0  0  1 V2000
    8.9788   -2.2966    0.0000 C   0  0  0  0  0  0  0  0  0  0  0  0
    8.1873   -3.3735    0.0000 N   0  0  0  0  0  0  0  0  0  0  0  0
    8.1873   -1.2456    0.0000 N   0  0  0  0  0  0  0  0  0  0  0  0
   10.3153   -2.2966    0.0000 N   0  0  0  0  0  0  0  0  0  0  0  0
    6.9158   -2.9583    0.0000 C   0  0  0  0  0  0  0  0  0  0  0  0
   10.9640   -1.1548    0.0000 C   0  0  0  0  0  0  0  0  0  0  0  0
    6.9158   -1.6478    0.0000 C   0  0  0  0  0  0  0  0  0  0  0  0
    5.7869   -3.6331    0.0000 C   0  0  0  0  0  0  0  0  0  0  0  0
   10.3153    0.0000    0.0000 O   0  0  0  0  0  0  0  0  0  0  0  0
    5.7869   -0.9731    0.0000 C   0  0  0  0  0  0  0  0  0  0  0  0
    4.6192   -2.9583    0.0000 C   0  0  0  0  0  0  0  0  0  0  0  0
   12.3005   -1.1548    0.0000 O   0  0  0  0  0  0  0  0  0  0  0  0
    4.6192   -1.6478    0.0000 C   0  0  0  0  0  0  0  0  0  0  0  0
    3.4644   -3.6331    0.0000 O   0  0  0  0  0  0  0  0  0  0  0  0
    2.3096   -2.9583    0.0000 C   0  0  0  0  0  0  0  0  0  0  0  0
   12.9752    0.0000    0.0000 C   0  0  0  0  0  0  0  0  0  0  0  0
    1.1548   -3.6331    0.0000 C   0  0  0  0  0  0  0  0  0  0  0  0
    0.0000   -2.9583    0.0000 C   0  0  0  0  0  0  0  0  0  0  0  0
  1  2  2  0  0  0  0
  1  3  1  0  0  0  0
  1  4  1  0  0  0  0
  2  5  1  0  0  0  0
  3  7  1  0  0  0  0
  4  6  1  0  0  0  0
  5  8  1  0  0  0  0
  5  7  2  0  0  0  0
  6  9  2  0  0  0  0
  6 12  1  0  0  0  0
  7 10  1  0  0  0  0
  8 11  2  0  0  0  0
 10 13  2  0  0  0  0
 11 14  1  0  0  0  0
 11 13  1  0  0  0  0
 12 16  1  0  0  0  0
 14 15  1  0  0  0  0
 15 17  1  0  0  0  0
 17 18  1  0  0  0  0
M  END
> <ID>
11078

> <Formula>
C12H15N3O3

> <FW>
249.2658

> <DSSTox_CID>
25625

> <DSSTox_RID>
81010

> <DSSTox_GSID>
45625

> <DSSTox_FileID_Sort>
5691

> <TS_ChemName>
Oxibendazole

> <TS_ChemName_Synonyms>


> <TS_CASRN>
20559-55-1

> <CASRN_ChemName_Relationship>
primary

> <TS_Description>
single chemical compound

> <ChemNote>
tautomers

> <STRUCTURE_Shown>
tested chemical

> <STRUCTURE_Formula>
C12H15N3O3

> <STRUCTURE_MW>
249.2658

> <STRUCTURE_ChemType>
defined organic

> <STRUCTURE_DefinedOrganicForm>
parent

> <STRUCTURE_IUPAC>
methyl (5-propoxy-1H-benzimidazol-2-yl)carbamate

> <STRUCTURE_SMILES>
O=C(OC)Nc1nc2cc(ccc2n1)OCCC

> <STRUCTURE_SMILES_Desalt>
O=C(OC)Nc1nc2cc(ccc2n1)OCCC

> <Substance_modify_yyyymmdd>
20100107

$$$$
