20554-84-1
ChemmineR-0915142007XD

 18 20  0  0  1  0  0  0  0  0  1 V2000
    2.3066   -2.6806    0.0000 C   0  0  0  0  0  0  0  0  0  0  0  0
    2.3066   -3.9759    0.0000 O   0  0  0  0  0  0  0  0  0  0  0  0
    1.1498   -3.3248    0.0000 C   0  0  0  0  0  0  0  0  0  0  0  0
    3.4425   -3.3248    0.0000 C   0  0  0  0  0  0  0  0  0  0  0  0
    3.7334   -4.6200    0.0000 O   0  0  0  0  0  0  0  0  0  0  0  0
    5.0425   -4.7586    0.0000 C   0  0  0  0  0  0  0  0  0  0  0  0
    5.5967   -3.5533    0.0000 C   0  0  0  0  0  0  0  0  0  0  0  0
    4.5992   -2.6598    0.0000 C   0  0  0  0  0  0  0  0  0  0  0  0
    4.5992   -1.3507    0.0000 C   0  0  0  0  0  0  0  0  0  0  0  0
    5.7214   -5.9361    0.0000 O   0  0  0  0  0  0  0  0  0  0  0  0
    2.3066   -1.3299    0.0000 C   0  0  0  0  0  0  0  0  0  0  0  0
    6.9266   -3.3178    0.0000 C   0  0  0  0  0  0  0  0  0  0  0  0
    1.1498   -0.6650    0.0000 C   0  0  0  0  0  0  0  0  0  0  0  0
    3.4425   -0.6650    0.0000 C   0  0  0  0  0  0  0  0  0  0  0  0
    0.0000   -2.6598    0.0000 C   0  0  0  0  0  0  0  0  0  0  0  0
    0.0139   -4.1144    0.0000 C   0  0  0  0  0  0  0  0  0  0  0  0
    0.0000   -1.3507    0.0000 C   0  0  0  0  0  0  0  0  0  0  0  0
    2.3066    0.0000    0.0000 C   0  0  0  0  0  0  0  0  0  0  0  0
  1  2  1  1  0  0  0
  1  3  1  0  0  0  0
  1  4  1  0  0  0  0
  2  3  1  0  0  0  0
  3 15  1  0  0  0  0
  3 16  1  1  0  0  0
  4  5  1  6  0  0  0
  4  8  1  0  0  0  0
  5  6  1  0  0  0  0
  6 10  2  0  0  0  0
  6  7  1  0  0  0  0
  8  7  1  1  0  0  0
  7 12  2  0  0  0  0
  8  9  1  0  0  0  0
  9 14  1  0  0  0  0
 11 14  1  0  0  0  0
 11 18  1  0  0  0  0
 11 13  2  0  0  0  0
 13 17  1  0  0  0  0
 15 17  1  0  0  0  0
M  END
> <ID>
7813

> <Formula>
C15H20O3

> <FW>
248.3175

> <DSSTox_CID>
20579

> <DSSTox_RID>
79507

> <DSSTox_GSID>
40579

> <DSSTox_FileID_Sort>
4189

> <TS_ChemName>
Parthenolide

> <TS_ChemName_Synonyms>
Parthenolide (NFkB inhibitor) (PTL)

> <TS_CASRN>
20554-84-1

> <CASRN_ChemName_Relationship>
primary

> <TS_Description>
single chemical compound

> <ChemNote>
stereochem

> <STRUCTURE_Shown>
tested chemical

> <STRUCTURE_Formula>
C15H20O3

> <STRUCTURE_MW>
248.3175

> <STRUCTURE_ChemType>
defined organic

> <STRUCTURE_DefinedOrganicForm>
parent

> <STRUCTURE_IUPAC>
(1aR,7aS,10aS,10bS)-1a,5-dimethyl-8-methylidene-2,3,6,7,7a,8,10a,10b-octahydrooxireno[9,10]cyclodeca[1,2-b]furan-9(1aH)-one

> <STRUCTURE_SMILES>
C[C@]23CCC=C(C)CC[C@H]1C(=C)C(=O)O[C@@H]1[C@@H]3O2

> <STRUCTURE_SMILES_Desalt>
C[C@]23CCC=C(C)CC[C@H]1C(=C)C(=O)O[C@@H]1[C@@H]3O2

> <Substance_modify_yyyymmdd>
20080429

$$$$
