20562-02-1
ChemmineR-0915142007XD

 67 75  0  0  1  0  0  0  0  0  1 V2000
   19.4773   -3.0018    0.0000 N   0  0  0  0  0  0  0  0  0  0  0  0
   16.3151   -2.7727    0.0000 C   0  0  0  0  0  0  0  0  0  0  0  0
   17.5067   -2.3373    0.0000 C   0  0  0  0  0  0  0  0  0  0  0  0
   18.2629   -3.4143    0.0000 C   0  0  0  0  0  0  0  0  0  0  0  0
   16.3151   -4.0330    0.0000 C   0  0  0  0  0  0  0  0  0  0  0  0
   12.9009   -4.6746    0.0000 C   0  0  0  0  0  0  0  0  0  0  0  0
   19.4773   -1.7186    0.0000 C   0  0  0  0  0  0  0  0  0  0  0  0
   18.3087   -1.2832    0.0000 C   0  0  0  0  0  0  0  0  0  0  0  0
   12.9009   -6.0036    0.0000 C   0  0  0  0  0  0  0  0  0  0  0  0
   14.0237   -4.0330    0.0000 C   0  0  0  0  0  0  0  0  0  0  0  0
   15.1465   -4.6746    0.0000 C   0  0  0  0  0  0  0  0  0  0  0  0
   17.5067   -4.4454    0.0000 C   0  0  0  0  0  0  0  0  0  0  0  0
   15.1465   -2.1081    0.0000 C   0  0  0  0  0  0  0  0  0  0  0  0
   14.0237   -6.6452    0.0000 C   0  0  0  0  0  0  0  0  0  0  0  0
   15.1465   -6.0036    0.0000 C   0  0  0  0  0  0  0  0  0  0  0  0
   14.0237   -2.7727    0.0000 C   0  0  0  0  0  0  0  0  0  0  0  0
    9.4866   -6.7139    0.0000 O   0  0  0  0  0  0  0  0  0  0  0  0
   11.7551   -4.0330    0.0000 C   0  0  0  0  0  0  0  0  0  0  0  0
   20.6460   -3.6434    0.0000 C   0  0  0  0  0  0  0  0  0  0  0  0
   20.6918   -1.0770    0.0000 C   0  0  0  0  0  0  0  0  0  0  0  0
   11.7551   -6.6452    0.0000 C   0  0  0  0  0  0  0  0  0  0  0  0
   10.6323   -6.0036    0.0000 C   0  0  0  0  0  0  0  0  0  0  0  0
   16.3151   -1.5124    0.0000 C   0  0  0  0  0  0  0  0  0  0  0  0
   10.6323   -4.6746    0.0000 C   0  0  0  0  0  0  0  0  0  0  0  0
   21.7917   -1.7186    0.0000 C   0  0  0  0  0  0  0  0  0  0  0  0
   12.9009   -3.4143    0.0000 C   0  0  0  0  0  0  0  0  0  0  0  0
   21.7917   -3.0018    0.0000 C   0  0  0  0  0  0  0  0  0  0  0  0
   17.9650    0.0000    0.0000 C   0  0  0  0  0  0  0  0  0  0  0  0
   22.9145   -3.6434    0.0000 C   0  0  0  0  0  0  0  0  0  0  0  0
   19.5002   -0.3895    0.0000 H   0  0  0  0  0  0  0  0  0  0  0  0
   18.2629   -2.0394    0.0000 H   0  0  0  0  0  0  0  0  0  0  0  0
   17.5067   -3.6892    0.0000 H   0  0  0  0  0  0  0  0  0  0  0  0
   16.3151   -5.3849    0.0000 H   0  0  0  0  0  0  0  0  0  0  0  0
   15.1465   -3.3226    0.0000 H   0  0  0  0  0  0  0  0  0  0  0  0
   14.0237   -5.3849    0.0000 H   0  0  0  0  0  0  0  0  0  0  0  0
    8.1346   -6.7139    0.0000 C   0  0  0  0  0  0  0  0  0  0  0  0
    7.4701   -7.9055    0.0000 C   0  0  0  0  0  0  0  0  0  0  0  0
    7.4472   -5.5453    0.0000 O   0  0  0  0  0  0  0  0  0  0  0  0
    6.0953   -7.9055    0.0000 C   0  0  0  0  0  0  0  0  0  0  0  0
    6.0953   -5.5682    0.0000 C   0  0  0  0  0  0  0  0  0  0  0  0
    5.4307   -6.7369    0.0000 C   0  0  0  0  0  0  0  0  0  0  0  0
    8.1346   -9.0512    0.0000 O   0  0  0  0  0  0  0  0  0  0  0  0
    5.4307   -9.0971    0.0000 O   0  0  0  0  0  0  0  0  0  0  0  0
    4.0559   -6.7369    0.0000 O   0  0  0  0  0  0  0  0  0  0  0  0
    5.4078   -4.3767    0.0000 C   0  0  0  0  0  0  0  0  0  0  0  0
    4.0559   -4.3767    0.0000 O   0  0  0  0  0  0  0  0  0  0  0  0
    4.0788   -9.0971    0.0000 C   0  0  0  0  0  0  0  0  0  0  0  0
    3.4143  -10.2657    0.0000 C   0  0  0  0  0  0  0  0  0  0  0  0
    3.3913   -7.9284    0.0000 O   0  0  0  0  0  0  0  0  0  0  0  0
    2.0623  -10.2657    0.0000 C   0  0  0  0  0  0  0  0  0  0  0  0
    2.0394   -7.9284    0.0000 C   0  0  0  0  0  0  0  0  0  0  0  0
    1.3749   -9.0971    0.0000 C   0  0  0  0  0  0  0  0  0  0  0  0
    4.1017  -11.4343    0.0000 O   0  0  0  0  0  0  0  0  0  0  0  0
    1.3749  -11.4573    0.0000 O   0  0  0  0  0  0  0  0  0  0  0  0
    0.0229   -9.1200    0.0000 O   0  0  0  0  0  0  0  0  0  0  0  0
    1.3520   -6.7598    0.0000 C   0  0  0  0  0  0  0  0  0  0  0  0
    0.0000   -6.7598    0.0000 O   0  0  0  0  0  0  0  0  0  0  0  0
    8.1576  -10.4261    0.0000 C   0  0  0  0  0  0  0  0  0  0  0  0
    9.3262  -11.0906    0.0000 C   0  0  0  0  0  0  0  0  0  0  0  0
    6.9889  -11.0906    0.0000 O   0  0  0  0  0  0  0  0  0  0  0  0
    9.3262  -12.4426    0.0000 C   0  0  0  0  0  0  0  0  0  0  0  0
    6.9889  -12.4655    0.0000 C   0  0  0  0  0  0  0  0  0  0  0  0
    8.1805  -13.1300    0.0000 C   0  0  0  0  0  0  0  0  0  0  0  0
   10.4948  -10.4032    0.0000 O   0  0  0  0  0  0  0  0  0  0  0  0
   10.5178  -13.1071    0.0000 O   0  0  0  0  0  0  0  0  0  0  0  0
    8.1805  -14.4820    0.0000 O   0  0  0  0  0  0  0  0  0  0  0  0
    5.8203  -13.1300    0.0000 C   0  0  0  0  0  0  0  0  0  0  0  0
  1  4  1  0  0  0  0
  1  7  1  0  0  0  0
  1 19  1  0  0  0  0
  2  3  1  0  0  0  0
  2 13  1  0  0  0  0
  2 23  1  1  0  0  0
  2  5  1  0  0  0  0
  3  4  1  0  0  0  0
  3  8  1  0  0  0  0
  3 32  1  6  0  0  0
  4 12  1  0  0  0  0
  4 31  1  6  0  0  0
  5 12  1  0  0  0  0
  5 11  1  0  0  0  0
  5 33  1  6  0  0  0
  6 10  1  0  0  0  0
  6 18  1  0  0  0  0
  6 26  1  1  0  0  0
  6  9  1  0  0  0  0
  7  8  1  0  0  0  0
  7 20  1  0  0  0  0
  7 30  1  6  0  0  0
  8 28  1  6  0  0  0
  9 14  2  0  0  0  0
  9 21  1  0  0  0  0
 10 11  1  0  0  0  0
 10 16  1  0  0  0  0
 10 35  1  6  0  0  0
 11 15  1  0  0  0  0
 11 34  1  1  0  0  0
 13 16  1  0  0  0  0
 14 15  1  0  0  0  0
 17 22  1  0  0  0  0
 36 17  1  1  0  0  0
 18 24  1  0  0  0  0
 19 27  1  0  0  0  0
 20 25  1  0  0  0  0
 21 22  1  0  0  0  0
 22 24  1  0  0  0  0
 25 27  1  0  0  0  0
 27 29  1  6  0  0  0
 36 37  1  0  0  0  0
 36 38  1  0  0  0  0
 37 39  1  0  0  0  0
 37 42  1  6  0  0  0
 38 40  1  0  0  0  0
 39 41  1  0  0  0  0
 39 43  1  1  0  0  0
 40 41  1  0  0  0  0
 40 45  1  1  0  0  0
 41 44  1  1  0  0  0
 58 42  1  6  0  0  0
 47 43  1  1  0  0  0
 45 46  1  0  0  0  0
 47 48  1  0  0  0  0
 47 49  1  0  0  0  0
 48 50  1  0  0  0  0
 48 53  1  6  0  0  0
 49 51  1  0  0  0  0
 50 52  1  0  0  0  0
 50 54  1  1  0  0  0
 51 52  1  0  0  0  0
 51 56  1  1  0  0  0
 52 55  1  6  0  0  0
 56 57  1  0  0  0  0
 58 59  1  0  0  0  0
 58 60  1  0  0  0  0
 59 61  1  0  0  0  0
 59 64  1  6  0  0  0
 60 62  1  0  0  0  0
 61 63  1  0  0  0  0
 61 65  1  6  0  0  0
 62 63  1  0  0  0  0
 62 67  1  6  0  0  0
 63 66  1  1  0  0  0
M  END
> <ID>
6283

> <Formula>
C45H73NO15

> <FW>
868.0588

> <DSSTox_CID>
10707

> <DSSTox_RID>
78857

> <DSSTox_GSID>
30707

> <DSSTox_FileID_Sort>
3539

> <TS_ChemName>
alpha-Solanine

> <TS_ChemName_Synonyms>
alpha-Solanine (Solanine)

> <TS_CASRN>
20562-02-1

> <CASRN_ChemName_Relationship>
primary

> <TS_Description>
single chemical compound

> <ChemNote>
stereochem

> <STRUCTURE_Shown>
tested chemical

> <STRUCTURE_Formula>
C45H73NO15

> <STRUCTURE_MW>
868.0588

> <STRUCTURE_ChemType>
defined organic

> <STRUCTURE_DefinedOrganicForm>
parent

> <STRUCTURE_IUPAC>
solanid-5-en-3-yl 6-deoxy-beta-L-mannopyranosyl-(1->2)-[beta-D-glucopyranosyl-(1->3)]-beta-D-galactopyranoside

> <STRUCTURE_SMILES>
O[C@@H]9[C@@H](O)[C@H](O)[C@@H](CO)O[C@H]9O[C@H]8[C@@H](O)[C@@H](CO)O[C@@H](OC6CC[C@@]3(C)C(=CC[C@H]2[C@@H]4C[C@@H]1N5C[C@@H](C)CC[C@@H]5[C@@H](C)[C@@H]1[C@@]4(C)CC[C@@H]23)C6)[C@@H]8O[C@H]7O[C@@H](C)[C@H](O)[C@@H](O)[C@H]7O

> <STRUCTURE_SMILES_Desalt>
O[C@@H]9[C@@H](O)[C@H](O)[C@@H](CO)O[C@H]9O[C@H]8[C@@H](O)[C@@H](CO)O[C@@H](OC6CC[C@@]3(C)C(=CC[C@H]2[C@@H]4C[C@@H]1N5C[C@@H](C)CC[C@@H]5[C@@H](C)[C@@H]1[C@@]4(C)CC[C@@H]23)C6)[C@@H]8O[C@H]7O[C@@H](C)[C@H](O)[C@@H](O)[C@H]7O

> <Substance_modify_yyyymmdd>
20080429

$$$$
