2057-49-0
ChemmineR-0915142007XD

 15 16  0  0  0  0  0  0  0  0  1 V2000
    0.0000   -2.0063    0.0000 N   0  0  0  0  0  0  0  0  0  0  0  0
    0.0000   -0.6718    0.0000 C   0  0  0  0  0  0  0  0  0  0  0  0
    1.1320   -2.6598    0.0000 C   0  0  0  0  0  0  0  0  0  0  0  0
    2.2916   -2.0063    0.0000 C   0  0  0  0  0  0  0  0  0  0  0  0
    1.1320    0.0000    0.0000 C   0  0  0  0  0  0  0  0  0  0  0  0
    2.2916   -0.6718    0.0000 C   0  0  0  0  0  0  0  0  0  0  0  0
    3.4420    0.0000    0.0000 C   0  0  0  0  0  0  0  0  0  0  0  0
    4.5925   -0.6718    0.0000 C   0  0  0  0  0  0  0  0  0  0  0  0
    5.7429    0.0000    0.0000 C   0  0  0  0  0  0  0  0  0  0  0  0
    9.2033   -0.6718    0.0000 C   0  0  0  0  0  0  0  0  0  0  0  0
    9.2033   -2.0063    0.0000 C   0  0  0  0  0  0  0  0  0  0  0  0
    8.0529   -2.6598    0.0000 C   0  0  0  0  0  0  0  0  0  0  0  0
    6.9025   -2.0063    0.0000 C   0  0  0  0  0  0  0  0  0  0  0  0
    6.9025   -0.6718    0.0000 C   0  0  0  0  0  0  0  0  0  0  0  0
    8.0529    0.0000    0.0000 C   0  0  0  0  0  0  0  0  0  0  0  0
  1  2  2  0  0  0  0
  1  3  1  0  0  0  0
  2  5  1  0  0  0  0
  3  4  2  0  0  0  0
  4  6  1  0  0  0  0
  5  6  2  0  0  0  0
  6  7  1  0  0  0  0
  7  8  1  0  0  0  0
  8  9  1  0  0  0  0
  9 14  1  0  0  0  0
 10 15  2  0  0  0  0
 10 11  1  0  0  0  0
 11 12  2  0  0  0  0
 12 13  1  0  0  0  0
 13 14  2  0  0  0  0
 14 15  1  0  0  0  0
M  END
> <ID>
10516

> <Formula>
C14H15N

> <FW>
197.2756

> <DSSTox_CID>
24869

> <DSSTox_RID>
80544

> <DSSTox_GSID>
44869

> <DSSTox_FileID_Sort>
5226

> <TS_ChemName>
4-(3-Phenylpropyl)pyridine

> <TS_ChemName_Synonyms>
4-(3-Phenylpropyl)pyridine (Pyridine, 4-(3-phenylpropyl)-)

> <TS_CASRN>
2057-49-0

> <CASRN_ChemName_Relationship>
primary

> <TS_Description>
single chemical compound

> <ChemNote>


> <STRUCTURE_Shown>
tested chemical

> <STRUCTURE_Formula>
C14H15N

> <STRUCTURE_MW>
197.2756

> <STRUCTURE_ChemType>
defined organic

> <STRUCTURE_DefinedOrganicForm>
parent

> <STRUCTURE_IUPAC>
4-(3-phenylpropyl)pyridine

> <STRUCTURE_SMILES>
C(CCc1ccncc1)c2ccccc2

> <STRUCTURE_SMILES_Desalt>
C(CCc1ccncc1)c2ccccc2

> <Substance_modify_yyyymmdd>
20091116

$$$$
