20570-96-1
ChemmineR-0915142007XD

 11  9  0  0  0  0  0  0  0  0  1 V2000
    3.3207   -1.1488    0.0000 C    0  0  0  0  0  0  0  0  0  0  0  0
    3.9848    0.0000    0.0000 C    0  0  0  0  0  0  0  0  0  0  0  0
    5.3190    0.0000    0.0000 C    0  0  0  0  0  0  0  0  0  0  0  0
    5.9832   -1.1488    0.0000 C    0  0  0  0  0  0  0  0  0  0  0  0
    5.3190   -2.3035    0.0000 C    0  0  0  0  0  0  0  0  0  0  0  0
    3.9848   -2.3035    0.0000 C    0  0  0  0  0  0  0  0  0  0  0  0
    1.9984   -1.1488    0.0000 C    0  0  0  0  0  0  0  0  0  0  0  0
    1.3342    0.0000    0.0000 N    0  0  0  0  0  0  0  0  0  0  0  0
    0.0000    0.0000    0.0000 N    0  0  0  0  0  0  0  0  0  0  0  0
    2.7702   -2.7523    0.0000 Cl   0  0  0  0  0  0  0  0  0  0  0  0
    0.8376   -2.7523    0.0000 Cl   0  0  0  0  0  0  0  0  0  0  0  0
  1  2  2  0  0  0  0
  1  6  1  0  0  0  0
  1  7  1  0  0  0  0
  2  3  1  0  0  0  0
  3  4  2  0  0  0  0
  4  5  1  0  0  0  0
  5  6  2  0  0  0  0
  7  8  1  0  0  0  0
  8  9  1  0  0  0  0
M  END
> <ID>
154

> <Formula>
C7H12Cl2N2

> <FW>
195.0896 (122.1677+36.4609+36.4609)

> <DSSTox_CID>
157

> <DSSTox_RID>
75409

> <DSSTox_GSID>
20157

> <DSSTox_FileID_Sort>
93

> <TS_ChemName>
Benzylhydrazine dihydrochloride

> <TS_ChemName_Synonyms>


> <TS_CASRN>
20570-96-1

> <CASRN_ChemName_Relationship>
primary

> <TS_Description>
single chemical compound

> <ChemNote>
parent [555-96-4]

> <STRUCTURE_Shown>
tested chemical

> <STRUCTURE_Formula>
C7H12Cl2N2

> <STRUCTURE_MW>
195.0896

> <STRUCTURE_ChemType>
defined organic

> <STRUCTURE_DefinedOrganicForm>
complex

> <STRUCTURE_IUPAC>
benzylhydrazine dihydrochloride

> <STRUCTURE_SMILES>
Cl.Cl.NNCc1ccccc1

> <STRUCTURE_SMILES_Desalt>
NNCc1ccccc1

> <Substance_modify_yyyymmdd>
20080429

$$$$
