2058-94-8
ChemmineR-0915142007XD

 34 33  0  0  0  0  0  0  0  0  1 V2000
    1.1452   -1.4349    0.0000 C   0  0  0  0  0  0  0  0  0  0  0  0
    2.2766   -2.0972    0.0000 C   0  0  0  0  0  0  0  0  0  0  0  0
    3.4218   -1.4349    0.0000 C   0  0  0  0  0  0  0  0  0  0  0  0
    4.6083   -2.0972    0.0000 C   0  0  0  0  0  0  0  0  0  0  0  0
    5.7397   -1.4349    0.0000 C   0  0  0  0  0  0  0  0  0  0  0  0
    6.9125   -2.0972    0.0000 C   0  0  0  0  0  0  0  0  0  0  0  0
    8.0439   -1.4349    0.0000 C   0  0  0  0  0  0  0  0  0  0  0  0
    9.1891   -2.0972    0.0000 C   0  0  0  0  0  0  0  0  0  0  0  0
   10.3204   -1.4349    0.0000 C   0  0  0  0  0  0  0  0  0  0  0  0
   11.5070   -2.0972    0.0000 C   0  0  0  0  0  0  0  0  0  0  0  0
   12.6522   -1.4349    0.0000 C   0  0  0  0  0  0  0  0  0  0  0  0
    1.1452   -0.0966    0.0000 O   0  0  0  0  0  0  0  0  0  0  0  0
    0.0000   -2.0972    0.0000 O   0  0  0  0  0  0  0  0  0  0  0  0
    2.2766   -3.4218    0.0000 F   0  0  0  0  0  0  0  0  0  0  0  0
    3.4218   -2.7733    0.0000 F   0  0  0  0  0  0  0  0  0  0  0  0
    3.4631    0.0000    0.0000 F   0  0  0  0  0  0  0  0  0  0  0  0
    2.2628   -0.7727    0.0000 F   0  0  0  0  0  0  0  0  0  0  0  0
    4.6083   -3.4218    0.0000 F   0  0  0  0  0  0  0  0  0  0  0  0
    5.7535   -2.7595    0.0000 F   0  0  0  0  0  0  0  0  0  0  0  0
    5.7259   -0.1104    0.0000 F   0  0  0  0  0  0  0  0  0  0  0  0
    4.5945   -0.7727    0.0000 F   0  0  0  0  0  0  0  0  0  0  0  0
    6.9263   -3.4218    0.0000 F   0  0  0  0  0  0  0  0  0  0  0  0
    8.0577   -2.7595    0.0000 F   0  0  0  0  0  0  0  0  0  0  0  0
    8.0439   -0.1104    0.0000 F   0  0  0  0  0  0  0  0  0  0  0  0
    6.8987   -0.7727    0.0000 F   0  0  0  0  0  0  0  0  0  0  0  0
    9.1891   -3.4218    0.0000 F   0  0  0  0  0  0  0  0  0  0  0  0
   10.3342   -2.7733    0.0000 F   0  0  0  0  0  0  0  0  0  0  0  0
   10.3204   -0.1104    0.0000 F   0  0  0  0  0  0  0  0  0  0  0  0
    9.1753   -0.7727    0.0000 F   0  0  0  0  0  0  0  0  0  0  0  0
   11.5208   -3.4218    0.0000 F   0  0  0  0  0  0  0  0  0  0  0  0
   12.6660   -2.7595    0.0000 F   0  0  0  0  0  0  0  0  0  0  0  0
   13.7974   -2.0834    0.0000 F   0  0  0  0  0  0  0  0  0  0  0  0
   12.6384   -0.1104    0.0000 F   0  0  0  0  0  0  0  0  0  0  0  0
   11.4932   -0.7727    0.0000 F   0  0  0  0  0  0  0  0  0  0  0  0
  1  2  1  0  0  0  0
  1 13  1  0  0  0  0
  1 12  2  0  0  0  0
  2  3  1  0  0  0  0
  2 14  1  0  0  0  0
  2 15  1  0  0  0  0
  3  4  1  0  0  0  0
  3 16  1  0  0  0  0
  3 17  1  0  0  0  0
  4  5  1  0  0  0  0
  4 18  1  0  0  0  0
  4 19  1  0  0  0  0
  5  6  1  0  0  0  0
  5 20  1  0  0  0  0
  5 21  1  0  0  0  0
  6  7  1  0  0  0  0
  6 22  1  0  0  0  0
  6 23  1  0  0  0  0
  7  8  1  0  0  0  0
  7 24  1  0  0  0  0
  7 25  1  0  0  0  0
  8  9  1  0  0  0  0
  8 26  1  0  0  0  0
  8 27  1  0  0  0  0
  9 10  1  0  0  0  0
  9 28  1  0  0  0  0
  9 29  1  0  0  0  0
 10 11  1  0  0  0  0
 10 30  1  0  0  0  0
 10 31  1  0  0  0  0
 11 32  1  0  0  0  0
 11 33  1  0  0  0  0
 11 34  1  0  0  0  0
M  END
> <ID>
12676

> <Formula>
C11HF21O2

> <FW>
564.0909

> <DSSTox_CID>
27553

> <DSSTox_RID>
82415

> <DSSTox_GSID>
47553

> <DSSTox_FileID_Sort>
7096

> <TS_ChemName>
Perfluoroundecanoic acid

> <TS_ChemName_Synonyms>


> <TS_CASRN>
2058-94-8

> <CASRN_ChemName_Relationship>
primary

> <TS_Description>
single chemical compound

> <ChemNote>


> <STRUCTURE_Shown>
tested chemical

> <STRUCTURE_Formula>
C11HF21O2

> <STRUCTURE_MW>
564.0909

> <STRUCTURE_ChemType>
defined organic

> <STRUCTURE_DefinedOrganicForm>
parent

> <STRUCTURE_IUPAC>
henicosafluoroundecanoic acid

> <STRUCTURE_SMILES>
FC(F)(C(F)(F)C(=O)O)C(F)(F)C(F)(F)C(F)(F)C(F)(F)C(F)(F)C(F)(F)C(F)(F)C(F)(F)F

> <STRUCTURE_SMILES_Desalt>
FC(F)(C(F)(F)C(=O)O)C(F)(F)C(F)(F)C(F)(F)C(F)(F)C(F)(F)C(F)(F)C(F)(F)C(F)(F)F

> <Substance_modify_yyyymmdd>
20100929

$$$$
