2058-52-8
ChemmineR-0915142007XD

 23 26  0  0  0  0  0  0  0  0  1 V2000
    2.2915   -2.4808    0.0000 S    0  0  0  0  0  0  0  0  0  0  0  0
    1.9029   -3.7561    0.0000 C    0  0  0  0  0  0  0  0  0  0  0  0
    2.6502   -4.8520    0.0000 C    0  0  0  0  0  0  0  0  0  0  0  0
    3.9553   -4.9317    0.0000 N    0  0  0  0  0  0  0  0  0  0  0  0
    4.9018   -3.9952    0.0000 C    0  0  0  0  0  0  0  0  0  0  0  0
    6.1671   -4.3837    0.0000 N    0  0  0  0  0  0  0  0  0  0  0  0
    7.1136   -3.4472    0.0000 C    0  0  0  0  0  0  0  0  0  0  0  0
    8.3989   -3.8557    0.0000 C    0  0  0  0  0  0  0  0  0  0  0  0
    8.6778   -5.1310    0.0000 N    0  0  0  0  0  0  0  0  0  0  0  0
    9.9631   -5.5395    0.0000 C    0  0  0  0  0  0  0  0  0  0  0  0
    7.7313   -6.0775    0.0000 C    0  0  0  0  0  0  0  0  0  0  0  0
    6.4461   -5.6590    0.0000 C    0  0  0  0  0  0  0  0  0  0  0  0
    4.6826   -2.6601    0.0000 C    0  0  0  0  0  0  0  0  0  0  0  0
    3.5369   -1.9926    0.0000 C    0  0  0  0  0  0  0  0  0  0  0  0
    3.5369   -0.6675    0.0000 C    0  0  0  0  0  0  0  0  0  0  0  0
    4.6826    0.0000    0.0000 C    0  0  0  0  0  0  0  0  0  0  0  0
    5.8384   -0.6675    0.0000 C    0  0  0  0  0  0  0  0  0  0  0  0
    6.9841    0.0000    0.0000 Cl   0  0  0  0  0  0  0  0  0  0  0  0
    5.8384   -1.9926    0.0000 C    0  0  0  0  0  0  0  0  0  0  0  0
    2.0723   -6.0476    0.0000 C    0  0  0  0  0  0  0  0  0  0  0  0
    0.7472   -6.1472    0.0000 C    0  0  0  0  0  0  0  0  0  0  0  0
    0.0000   -5.0513    0.0000 C    0  0  0  0  0  0  0  0  0  0  0  0
    0.5779   -3.8557    0.0000 C    0  0  0  0  0  0  0  0  0  0  0  0
  1  2  1  0  0  0  0
  1 14  1  0  0  0  0
  2  3  2  0  0  0  0
  2 23  1  0  0  0  0
  3  4  1  0  0  0  0
  3 20  1  0  0  0  0
  4  5  2  0  0  0  0
  5  6  1  0  0  0  0
  5 13  1  0  0  0  0
  6  7  1  0  0  0  0
  6 12  1  0  0  0  0
  7  8  1  0  0  0  0
  8  9  1  0  0  0  0
  9 10  1  0  0  0  0
  9 11  1  0  0  0  0
 11 12  1  0  0  0  0
 13 14  2  0  0  0  0
 13 19  1  0  0  0  0
 14 15  1  0  0  0  0
 15 16  2  0  0  0  0
 16 17  1  0  0  0  0
 17 18  1  0  0  0  0
 17 19  2  0  0  0  0
 20 21  2  0  0  0  0
 21 22  1  0  0  0  0
 22 23  2  0  0  0  0
M  END
> <ID>
2577

> <Formula>
C18H18ClN3S

> <FW>
343.8736

> <DSSTox_CID>
2851

> <DSSTox_RID>
76758

> <DSSTox_GSID>
22851

> <DSSTox_FileID_Sort>
1442

> <TS_ChemName>
Clothiapine

> <TS_ChemName_Synonyms>


> <TS_CASRN>
2058-52-8

> <CASRN_ChemName_Relationship>
primary

> <TS_Description>
single chemical compound

> <ChemNote>


> <STRUCTURE_Shown>
tested chemical

> <STRUCTURE_Formula>
C18H18ClN3S

> <STRUCTURE_MW>
343.8736

> <STRUCTURE_ChemType>
defined organic

> <STRUCTURE_DefinedOrganicForm>
parent

> <STRUCTURE_IUPAC>
2-chloro-11-(4-methylpiperazin-1-yl)dibenzo[b,f][1,4]thiazepine

> <STRUCTURE_SMILES>
CN1CCN(CC1)C3=Nc4ccccc4Sc2ccc(Cl)cc23

> <STRUCTURE_SMILES_Desalt>
CN1CCN(CC1)C3=Nc4ccccc4Sc2ccc(Cl)cc23

> <Substance_modify_yyyymmdd>
20080429

$$$$
