20594-83-6
ChemmineR-0915142007XD

 26 31  0  0  1  0  0  0  0  0  1 V2000
    2.3077   -3.9393    0.0000 C   0  0  0  0  0  0  0  0  0  0  0  0
    3.3881   -4.5787    0.0000 C   0  0  0  0  0  0  0  0  0  0  0  0
    2.3077   -2.6385    0.0000 C   0  0  0  0  0  0  0  0  0  0  0  0
    1.1318   -4.5934    0.0000 C   0  0  0  0  0  0  0  0  0  0  0  0
    1.1318   -1.9844    0.0000 C   0  0  0  0  0  0  0  0  0  0  0  0
    0.3675   -3.2264    0.0000 O   0  0  0  0  0  0  0  0  0  0  0  0
    4.5493   -3.9393    0.0000 C   0  0  0  0  0  0  0  0  0  0  0  0
    5.1373   -4.5493    0.0000 N   0  0  0  0  0  0  0  0  0  0  0  0
    3.3881   -1.9844    0.0000 C   0  0  0  0  0  0  0  0  0  0  0  0
    4.5493   -2.6385    0.0000 C   0  0  0  0  0  0  0  0  0  0  0  0
    2.3077   -5.2328    0.0000 C   0  0  0  0  0  0  0  0  0  0  0  0
    3.3881   -5.8649    0.0000 C   0  0  0  0  0  0  0  0  0  0  0  0
    1.1318   -0.6615    0.0000 C   0  0  0  0  0  0  0  0  0  0  0  0
    4.7551   -5.2328    0.0000 C   0  0  0  0  0  0  0  0  0  0  0  0
    6.3941   -4.5493    0.0000 C   0  0  0  0  0  0  0  0  0  0  0  0
    1.1318   -5.9016    0.0000 C   0  0  0  0  0  0  0  0  0  0  0  0
    3.3881   -0.6615    0.0000 C   0  0  0  0  0  0  0  0  0  0  0  0
    3.3881   -3.3220    0.0000 O   0  0  0  0  0  0  0  0  0  0  0  0
    2.3077   -6.5705    0.0000 C   0  0  0  0  0  0  0  0  0  0  0  0
    2.3077   -0.0147    0.0000 C   0  0  0  0  0  0  0  0  0  0  0  0
    0.0000    0.0000    0.0000 O   0  0  0  0  0  0  0  0  0  0  0  0
    0.0294   -6.6146    0.0000 O   0  0  0  0  0  0  0  0  0  0  0  0
    6.3941   -3.2117    0.0000 C   0  0  0  0  0  0  0  0  0  0  0  0
    6.3794   -1.3009    0.0000 C   0  0  0  0  0  0  0  0  0  0  0  0
    7.3495   -2.2857    0.0000 C   0  0  0  0  0  0  0  0  0  0  0  0
    5.4386   -2.2416    0.0000 C   0  0  0  0  0  0  0  0  0  0  0  0
  1  2  1  0  0  0  0
  1  3  1  0  0  0  0
  1  4  1  0  0  0  0
  1 11  1  1  0  0  0
  2  7  1  0  0  0  0
  2 12  1  0  0  0  0
  2 18  1  1  0  0  0
  3  5  1  0  0  0  0
  3  9  2  0  0  0  0
  4  6  1  6  0  0  0
  4 16  1  0  0  0  0
  5 13  2  0  0  0  0
  5  6  1  0  0  0  0
  7  8  1  1  0  0  0
  7 10  1  0  0  0  0
  8 14  1  0  0  0  0
  8 15  1  0  0  0  0
  9 10  1  0  0  0  0
  9 17  1  0  0  0  0
 11 14  1  0  0  0  0
 12 19  1  0  0  0  0
 13 21  1  0  0  0  0
 13 20  1  0  0  0  0
 15 23  1  0  0  0  0
 16 19  1  0  0  0  0
 16 22  1  6  0  0  0
 17 20  2  0  0  0  0
 23 25  1  0  0  0  0
 23 26  1  0  0  0  0
 24 26  1  0  0  0  0
 24 25  1  0  0  0  0
M  END
> <ID>
3002

> <Formula>
C21H27NO4

> <FW>
357.4434

> <DSSTox_CID>
3345

> <DSSTox_RID>
76984

> <DSSTox_GSID>
23345

> <DSSTox_FileID_Sort>
1668

> <TS_ChemName>
Nalbuphine

> <TS_ChemName_Synonyms>


> <TS_CASRN>
20594-83-6

> <CASRN_ChemName_Relationship>
primary

> <TS_Description>
single chemical compound

> <ChemNote>
stereochem

> <STRUCTURE_Shown>
tested chemical

> <STRUCTURE_Formula>
C21H27NO4

> <STRUCTURE_MW>
357.4434

> <STRUCTURE_ChemType>
defined organic

> <STRUCTURE_DefinedOrganicForm>
parent

> <STRUCTURE_IUPAC>
(5alpha,6alpha)-17-(cyclobutylmethyl)-4,5-epoxymorphinan-3,6,14-triol

> <STRUCTURE_SMILES>
Oc1ccc2C[C@H]4N(CC[C@@]35[C@@H](Oc1c23)[C@@H](O)CC[C@@]45O)CC6CCC6

> <STRUCTURE_SMILES_Desalt>
Oc1ccc2C[C@H]4N(CC[C@@]35[C@@H](Oc1c23)[C@@H](O)CC[C@@]45O)CC6CCC6

> <Substance_modify_yyyymmdd>
20080429

$$$$
