206-44-0
ChemmineR-0915142007XD

 16 19  0  0  0  0  0  0  0  0  1 V2000
    4.4365   -2.5608    0.0000 C   0  0  0  0  0  0  0  0  0  0  0  0
    5.5273   -1.9222    0.0000 C   0  0  0  0  0  0  0  0  0  0  0  0
    3.3124   -1.9222    0.0000 C   0  0  0  0  0  0  0  0  0  0  0  0
    5.5273   -0.6385    0.0000 C   0  0  0  0  0  0  0  0  0  0  0  0
    3.3124   -0.6385    0.0000 C   0  0  0  0  0  0  0  0  0  0  0  0
    4.4365    0.0000    0.0000 C   0  0  0  0  0  0  0  0  0  0  0  0
    4.4365   -3.8445    0.0000 C   0  0  0  0  0  0  0  0  0  0  0  0
    5.5273   -4.4830    0.0000 C   0  0  0  0  0  0  0  0  0  0  0  0
    6.6514   -2.5608    0.0000 C   0  0  0  0  0  0  0  0  0  0  0  0
    6.6514   -3.8445    0.0000 C   0  0  0  0  0  0  0  0  0  0  0  0
    2.2149   -3.8445    0.0000 C   0  0  0  0  0  0  0  0  0  0  0  0
    2.2149   -2.5608    0.0000 C   0  0  0  0  0  0  0  0  0  0  0  0
    1.0975   -4.4830    0.0000 C   0  0  0  0  0  0  0  0  0  0  0  0
    0.0000   -3.8445    0.0000 C   0  0  0  0  0  0  0  0  0  0  0  0
    1.0975   -1.9222    0.0000 C   0  0  0  0  0  0  0  0  0  0  0  0
    0.0000   -2.5608    0.0000 C   0  0  0  0  0  0  0  0  0  0  0  0
  1  3  2  0  0  0  0
  1  2  1  0  0  0  0
  1  7  1  0  0  0  0
  2  4  2  0  0  0  0
  2  9  1  0  0  0  0
  3  5  1  0  0  0  0
  3 12  1  0  0  0  0
  4  6  1  0  0  0  0
  5  6  2  0  0  0  0
  7  8  2  0  0  0  0
  7 11  1  0  0  0  0
  8 10  1  0  0  0  0
  9 10  2  0  0  0  0
 11 13  1  0  0  0  0
 11 12  2  0  0  0  0
 12 15  1  0  0  0  0
 13 14  2  0  0  0  0
 14 16  1  0  0  0  0
 15 16  2  0  0  0  0
M  END
> <ID>
3503

> <Formula>
C16H10

> <FW>
202.2506

> <DSSTox_CID>
4104

> <DSSTox_RID>
77290

> <DSSTox_GSID>
24104

> <DSSTox_FileID_Sort>
1973

> <TS_ChemName>
Fluoranthene

> <TS_ChemName_Synonyms>
Fla

> <TS_CASRN>
206-44-0

> <CASRN_ChemName_Relationship>
primary

> <TS_Description>
single chemical compound

> <ChemNote>


> <STRUCTURE_Shown>
tested chemical

> <STRUCTURE_Formula>
C16H10

> <STRUCTURE_MW>
202.2506

> <STRUCTURE_ChemType>
defined organic

> <STRUCTURE_DefinedOrganicForm>
parent

> <STRUCTURE_IUPAC>
fluoranthene

> <STRUCTURE_SMILES>
c1cccc4c1c2cccc3cccc4c23

> <STRUCTURE_SMILES_Desalt>
c1cccc4c1c2cccc3cccc4c23

> <Substance_modify_yyyymmdd>
20080429

$$$$
