2062-77-3
ChemmineR-0915142007XD

 30 31  0  0  0  0  0  0  0  0  1 V2000
    8.1131   -6.7935    0.0000 Cl   0  0  0  0  0  0  0  0  0  0  0  0
    4.3172   -5.4576    0.0000 O    0  0  0  0  0  0  0  0  0  0  0  0
    4.7733   -4.2194    0.0000 C    0  0  0  0  0  0  0  0  0  0  0  0
    4.7733   -2.8836    0.0000 C    0  0  0  0  0  0  0  0  0  0  0  0
    5.9300   -2.2156    0.0000 C    0  0  0  0  0  0  0  0  0  0  0  0
    7.0867   -2.8836    0.0000 N    0  0  0  0  0  0  0  0  0  0  0  0
    8.2271   -2.2156    0.0000 C    0  0  0  0  0  0  0  0  0  0  0  0
    9.3838   -2.8836    0.0000 C    0  0  0  0  0  0  0  0  0  0  0  0
   10.5405   -2.2156    0.0000 C    0  0  0  0  0  0  0  0  0  0  0  0
   11.6808   -2.8836    0.0000 C    0  0  0  0  0  0  0  0  0  0  0  0
   11.6808   -4.2194    0.0000 O    0  0  0  0  0  0  0  0  0  0  0  0
   12.8375   -2.2156    0.0000 C    0  0  0  0  0  0  0  0  0  0  0  0
   12.8375   -0.8960    0.0000 C    0  0  0  0  0  0  0  0  0  0  0  0
   13.9942   -0.2281    0.0000 C    0  0  0  0  0  0  0  0  0  0  0  0
   15.1346   -0.8960    0.0000 C    0  0  0  0  0  0  0  0  0  0  0  0
   16.2913   -0.2281    0.0000 F    0  0  0  0  0  0  0  0  0  0  0  0
   15.1346   -2.2156    0.0000 C    0  0  0  0  0  0  0  0  0  0  0  0
   13.9942   -2.8836    0.0000 C    0  0  0  0  0  0  0  0  0  0  0  0
    7.0867   -4.2194    0.0000 C    0  0  0  0  0  0  0  0  0  0  0  0
    5.9300   -4.8874    0.0000 C    0  0  0  0  0  0  0  0  0  0  0  0
    3.4700   -3.9914    0.0000 C    0  0  0  0  0  0  0  0  0  0  0  0
    2.6066   -5.0014    0.0000 C    0  0  0  0  0  0  0  0  0  0  0  0
    1.3033   -4.7733    0.0000 C    0  0  0  0  0  0  0  0  0  0  0  0
    0.8471   -3.5189    0.0000 C    0  0  0  0  0  0  0  0  0  0  0  0
    1.7106   -2.5089    0.0000 C    0  0  0  0  0  0  0  0  0  0  0  0
    3.0139   -2.7369    0.0000 C    0  0  0  0  0  0  0  0  0  0  0  0
    1.2544   -1.2544    0.0000 C    0  0  0  0  0  0  0  0  0  0  0  0
    0.0000   -1.7106    0.0000 F    0  0  0  0  0  0  0  0  0  0  0  0
    0.7983    0.0000    0.0000 F    0  0  0  0  0  0  0  0  0  0  0  0
    2.4926   -0.7983    0.0000 F    0  0  0  0  0  0  0  0  0  0  0  0
  2  3  1  0  0  0  0
  3  4  1  0  0  0  0
  3 20  1  0  0  0  0
  3 21  1  0  0  0  0
  4  5  1  0  0  0  0
  5  6  1  0  0  0  0
  6  7  1  0  0  0  0
  6 19  1  0  0  0  0
  7  8  1  0  0  0  0
  8  9  1  0  0  0  0
  9 10  1  0  0  0  0
 10 11  2  0  0  0  0
 10 12  1  0  0  0  0
 12 13  2  0  0  0  0
 12 18  1  0  0  0  0
 13 14  1  0  0  0  0
 14 15  2  0  0  0  0
 15 16  1  0  0  0  0
 15 17  1  0  0  0  0
 17 18  2  0  0  0  0
 19 20  1  0  0  0  0
 21 22  2  0  0  0  0
 21 26  1  0  0  0  0
 22 23  1  0  0  0  0
 23 24  2  0  0  0  0
 24 25  1  0  0  0  0
 25 26  2  0  0  0  0
 25 27  1  0  0  0  0
 27 28  1  0  0  0  0
 27 29  1  0  0  0  0
 27 30  1  0  0  0  0
M  END
> <ID>
11215

> <Formula>
C22H24ClF4NO2

> <FW>
445.8781 (36.4609+409.4171)

> <DSSTox_CID>
25810

> <DSSTox_RID>
81147

> <DSSTox_GSID>
45810

> <DSSTox_FileID_Sort>
5828

> <TS_ChemName>
Trifluperidol hydrochloride

> <TS_ChemName_Synonyms>


> <TS_CASRN>
2062-77-3

> <CASRN_ChemName_Relationship>
primary

> <TS_Description>
single chemical compound

> <ChemNote>
parent [749-13-3]

> <STRUCTURE_Shown>
tested chemical

> <STRUCTURE_Formula>
C22H24ClF4NO2

> <STRUCTURE_MW>
445.8781

> <STRUCTURE_ChemType>
defined organic

> <STRUCTURE_DefinedOrganicForm>
complex

> <STRUCTURE_IUPAC>
1-(4-fluorophenyl)-4-{4-hydroxy-4-[3-(trifluoromethyl)phenyl]piperidin-1-yl}butan-1-one hydrochloride (1:1)

> <STRUCTURE_SMILES>
Cl.FC(F)(F)c1cccc(c1)C3(O)CCN(CCCC(=O)c2ccc(F)cc2)CC3

> <STRUCTURE_SMILES_Desalt>
FC(F)(F)c1cccc(c1)C3(O)CCN(CCCC(=O)c2ccc(F)cc2)CC3

> <Substance_modify_yyyymmdd>
20110909

$$$$
