206361-99-1
ChemmineR-0915142007XD

 40 43  0  0  1  0  0  0  0  0  1 V2000
   12.4944   -7.9882    0.0000 C   0  0  0  0  0  0  0  0  0  0  0  0
   12.4944   -6.6637    0.0000 C   0  0  0  0  0  0  0  0  0  0  0  0
   13.6551   -5.9946    0.0000 C   0  0  0  0  0  0  0  0  0  0  0  0
   11.3610   -5.9809    0.0000 C   0  0  0  0  0  0  0  0  0  0  0  0
   10.2003   -6.6364    0.0000 N   0  0  0  0  0  0  0  0  0  0  0  0
    9.0533   -5.9809    0.0000 C   0  0  0  0  0  0  0  0  0  0  0  0
    9.0670   -4.6564    0.0000 C   0  0  0  0  0  0  0  0  0  0  0  0
   10.2277   -3.9873    0.0000 O   0  0  0  0  0  0  0  0  0  0  0  0
    7.9199   -3.9736    0.0000 C   0  0  0  0  0  0  0  0  0  0  0  0
    7.9199   -2.6491    0.0000 C   0  0  0  0  0  0  0  0  0  0  0  0
    9.0806   -1.9936    0.0000 C   0  0  0  0  0  0  0  0  0  0  0  0
   10.2277   -2.6627    0.0000 C   0  0  0  0  0  0  0  0  0  0  0  0
   11.3883   -1.9936    0.0000 C   0  0  0  0  0  0  0  0  0  0  0  0
   11.3883   -0.6554    0.0000 C   0  0  0  0  0  0  0  0  0  0  0  0
   10.2413    0.0000    0.0000 C   0  0  0  0  0  0  0  0  0  0  0  0
    9.0806   -0.6554    0.0000 C   0  0  0  0  0  0  0  0  0  0  0  0
    6.7729   -4.6291    0.0000 N   0  0  0  0  0  0  0  0  0  0  0  0
    5.6259   -3.9600    0.0000 C   0  0  0  0  0  0  0  0  0  0  0  0
    5.6122   -2.6491    0.0000 O   0  0  0  0  0  0  0  0  0  0  0  0
    4.4789   -4.6291    0.0000 O   0  0  0  0  0  0  0  0  0  0  0  0
    3.3182   -3.9463    0.0000 C   0  0  0  0  0  0  0  0  0  0  0  0
    3.1953   -2.6354    0.0000 C   0  0  0  0  0  0  0  0  0  0  0  0
    1.8981   -2.3350    0.0000 O   0  0  0  0  0  0  0  0  0  0  0  0
    1.2153   -3.4957    0.0000 C   0  0  0  0  0  0  0  0  0  0  0  0
    0.0000   -4.0282    0.0000 O   0  0  0  0  0  0  0  0  0  0  0  0
    0.1229   -5.3528    0.0000 C   0  0  0  0  0  0  0  0  0  0  0  0
    1.4338   -5.6259    0.0000 C   0  0  0  0  0  0  0  0  0  0  0  0
    2.1029   -4.4925    0.0000 C   0  0  0  0  0  0  0  0  0  0  0  0
   10.2003   -7.9746    0.0000 S   0  0  0  0  0  0  0  0  0  0  0  0
   11.5385   -7.9746    0.0000 O   0  0  0  0  0  0  0  0  0  0  0  0
    8.8758   -7.9746    0.0000 O   0  0  0  0  0  0  0  0  0  0  0  0
   10.2003   -9.2991    0.0000 C   0  0  0  0  0  0  0  0  0  0  0  0
    9.0533   -9.9819    0.0000 C   0  0  0  0  0  0  0  0  0  0  0  0
    9.0533  -11.3064    0.0000 C   0  0  0  0  0  0  0  0  0  0  0  0
   10.1867  -11.9619    0.0000 C   0  0  0  0  0  0  0  0  0  0  0  0
   10.1867  -13.3001    0.0000 N   0  0  0  0  0  0  0  0  0  0  0  0
   11.3474  -11.3064    0.0000 C   0  0  0  0  0  0  0  0  0  0  0  0
   11.3474   -9.9819    0.0000 C   0  0  0  0  0  0  0  0  0  0  0  0
    0.3414   -2.4989    0.0000 H   0  0  0  0  0  0  0  0  0  0  0  0
    2.9905   -5.4893    0.0000 H   0  0  0  0  0  0  0  0  0  0  0  0
  1  2  1  0  0  0  0
  2  3  1  0  0  0  0
  2  4  1  0  0  0  0
  4  5  1  0  0  0  0
  5  6  1  0  0  0  0
  5 29  1  0  0  0  0
  6  7  1  0  0  0  0
  7  8  1  6  0  0  0
  7  9  1  0  0  0  0
  9 10  1  1  0  0  0
  9 17  1  0  0  0  0
 10 11  1  0  0  0  0
 11 12  2  0  0  0  0
 11 16  1  0  0  0  0
 12 13  1  0  0  0  0
 13 14  2  0  0  0  0
 14 15  1  0  0  0  0
 15 16  2  0  0  0  0
 17 18  1  0  0  0  0
 18 19  2  0  0  0  0
 18 20  1  0  0  0  0
 21 20  1  6  0  0  0
 21 22  1  0  0  0  0
 21 28  1  0  0  0  0
 22 23  1  0  0  0  0
 23 24  1  0  0  0  0
 24 25  1  0  0  0  0
 24 28  1  0  0  0  0
 24 39  1  1  0  0  0
 25 26  1  0  0  0  0
 26 27  1  0  0  0  0
 27 28  1  0  0  0  0
 28 40  1  1  0  0  0
 29 30  2  0  0  0  0
 29 31  2  0  0  0  0
 29 32  1  0  0  0  0
 32 33  2  0  0  0  0
 32 38  1  0  0  0  0
 33 34  1  0  0  0  0
 34 35  2  0  0  0  0
 35 36  1  0  0  0  0
 35 37  1  0  0  0  0
 37 38  2  0  0  0  0
M  END
> <ID>
11962

> <Formula>
C27H37N3O7S

> <FW>
547.6636

> <DSSTox_CID>
26779

> <DSSTox_RID>
81898

> <DSSTox_GSID>
46779

> <DSSTox_FileID_Sort>
6579

> <TS_ChemName>
Darunavir

> <TS_ChemName_Synonyms>


> <TS_CASRN>
206361-99-1

> <CASRN_ChemName_Relationship>
primary

> <TS_Description>
single chemical compound

> <ChemNote>
stereochem

> <STRUCTURE_Shown>
tested chemical

> <STRUCTURE_Formula>
C27H37N3O7S

> <STRUCTURE_MW>
547.6636

> <STRUCTURE_ChemType>
defined organic

> <STRUCTURE_DefinedOrganicForm>
parent

> <STRUCTURE_IUPAC>
(3R,3aS,6aR)-hexahydrofuro[2,3-b]furan-3-yl [(2S,3R)-4-{[(4-aminophenyl)sulfonyl](2-methylpropyl)amino}-3-hydroxy-1-phenylbutan-2-yl]carbamate

> <STRUCTURE_SMILES>
Nc1ccc(cc1)S(=O)(=O)N(CC(C)C)C[C@@H](O)[C@H](Cc2ccccc2)NC(=O)O[C@H]3CO[C@H]4OCC[C@@H]34

> <STRUCTURE_SMILES_Desalt>
Nc1ccc(cc1)S(=O)(=O)N(CC(C)C)C[C@@H](O)[C@H](Cc2ccccc2)NC(=O)O[C@H]3CO[C@H]4OCC[C@@H]34

> <Substance_modify_yyyymmdd>
20110802

$$$$
