20665-85-4
ChemmineR-0915142007XD

 16 16  0  0  0  0  0  0  0  0  1 V2000
    5.9948   -2.2957    0.0000 O   0  0  0  0  0  0  0  0  0  0  0  0
    6.6532   -1.1435    0.0000 C   0  0  0  0  0  0  0  0  0  0  0  0
    4.6607   -2.2957    0.0000 C   0  0  0  0  0  0  0  0  0  0  0  0
    7.9873   -1.1435    0.0000 C   0  0  0  0  0  0  0  0  0  0  0  0
    5.9948    0.0000    0.0000 O   0  0  0  0  0  0  0  0  0  0  0  0
    4.0023   -3.4392    0.0000 C   0  0  0  0  0  0  0  0  0  0  0  0
    4.0023   -1.1435    0.0000 C   0  0  0  0  0  0  0  0  0  0  0  0
    8.6630   -2.2957    0.0000 C   0  0  0  0  0  0  0  0  0  0  0  0
    8.6630    0.0000    0.0000 C   0  0  0  0  0  0  0  0  0  0  0  0
    4.6607   -4.5914    0.0000 O   0  0  0  0  0  0  0  0  0  0  0  0
    2.6682   -3.4392    0.0000 C   0  0  0  0  0  0  0  0  0  0  0  0
    2.6682   -1.1435    0.0000 C   0  0  0  0  0  0  0  0  0  0  0  0
    4.0023   -5.7522    0.0000 C   0  0  0  0  0  0  0  0  0  0  0  0
    1.9925   -2.2957    0.0000 C   0  0  0  0  0  0  0  0  0  0  0  0
    0.6584   -2.2957    0.0000 C   0  0  0  0  0  0  0  0  0  0  0  0
    0.0000   -1.1435    0.0000 O   0  0  0  0  0  0  0  0  0  0  0  0
  1  2  1  0  0  0  0
  1  3  1  0  0  0  0
  2  4  1  0  0  0  0
  2  5  2  0  0  0  0
  3  6  2  0  0  0  0
  3  7  1  0  0  0  0
  4  8  1  0  0  0  0
  4  9  1  0  0  0  0
  6 10  1  0  0  0  0
  6 11  1  0  0  0  0
  7 12  2  0  0  0  0
 10 13  1  0  0  0  0
 11 14  2  0  0  0  0
 12 14  1  0  0  0  0
 14 15  1  0  0  0  0
 15 16  2  0  0  0  0
M  END
> <ID>
12347

> <Formula>
C12H14O4

> <FW>
222.2372

> <DSSTox_CID>
27201

> <DSSTox_RID>
82196

> <DSSTox_GSID>
47201

> <DSSTox_FileID_Sort>
6877

> <TS_ChemName>
Vanillin isobutyrate

> <TS_ChemName_Synonyms>


> <TS_CASRN>
20665-85-4

> <CASRN_ChemName_Relationship>
primary

> <TS_Description>
single chemical compound

> <ChemNote>


> <STRUCTURE_Shown>
tested chemical

> <STRUCTURE_Formula>
C12H14O4

> <STRUCTURE_MW>
222.2372

> <STRUCTURE_ChemType>
defined organic

> <STRUCTURE_DefinedOrganicForm>
parent

> <STRUCTURE_IUPAC>
4-formyl-2-methoxyphenyl 2-methylpropanoate

> <STRUCTURE_SMILES>
COc1cc(ccc1OC(=O)C(C)C)C=O

> <STRUCTURE_SMILES_Desalt>
COc1cc(ccc1OC(=O)C(C)C)C=O

> <Substance_modify_yyyymmdd>
20100503

$$$$
