20684-06-4
ChemmineR-0915142007XD

 29 30  0  0  0  0  0  0  0  0  1 V2000
    3.4493   -6.8056    0.0000 C    0  0  0  0  0  0  0  0  0  0  0  0
    3.4493   -5.4734    0.0000 C    0  0  0  0  0  0  0  0  0  0  0  0
    2.3133   -7.4769    0.0000 N    0  0  0  0  0  0  0  0  0  0  0  0
    1.1566   -5.4734    0.0000 N    0  0  0  0  0  0  0  0  0  0  0  0
    1.1566   -6.8056    0.0000 C    0  0  0  0  0  0  0  0  0  0  0  0
    2.3133   -4.8125    0.0000 C    0  0  0  0  0  0  0  0  0  0  0  0
    4.7195   -7.2187    0.0000 N    0  0  0  0  0  0  0  0  0  0  0  0
    4.7195   -5.0707    0.0000 N    0  0  0  0  0  0  0  0  0  0  0  0
    5.5044   -6.1447    0.0000 C    0  0  0  0  0  0  0  0  0  0  0  0
    5.1120   -3.8004    0.0000 C    0  0  0  0  0  0  0  0  0  0  0  0
    0.0000   -7.4769    0.0000 O    0  0  0  0  0  0  0  0  0  0  0  0
    2.3133   -3.4803    0.0000 O    0  0  0  0  0  0  0  0  0  0  0  0
    6.8263   -6.1447    0.0000 C    0  0  0  0  0  0  0  0  0  0  0  0
    2.3133   -8.8091    0.0000 C    0  0  0  0  0  0  0  0  0  0  0  0
    0.0000   -4.8125    0.0000 C    0  0  0  0  0  0  0  0  0  0  0  0
    6.4132   -3.5319    0.0000 C    0  0  0  0  0  0  0  0  0  0  0  0
    6.8263   -2.2823    0.0000 N    0  0  0  0  0  0  0  0  0  0  0  0
    7.4872   -7.2807    0.0000 C    0  0  0  0  0  0  0  0  0  0  0  0
   10.3272   -2.6954    0.0000 O    0  0  0  0  0  0  0  0  0  0  0  0
    8.1275   -1.9932    0.0000 C    0  0  0  0  0  0  0  0  0  0  0  0
    5.9485   -1.2909    0.0000 C    0  0  0  0  0  0  0  0  0  0  0  0
    9.0157   -2.9846    0.0000 C    0  0  0  0  0  0  0  0  0  0  0  0
    6.8263   -8.4373    0.0000 C    0  0  0  0  0  0  0  0  0  0  0  0
    8.7988   -7.2807    0.0000 C    0  0  0  0  0  0  0  0  0  0  0  0
    6.3616    0.0000    0.0000 C    0  0  0  0  0  0  0  0  0  0  0  0
    9.4804   -8.4373    0.0000 C    0  0  0  0  0  0  0  0  0  0  0  0
    7.4872   -9.5940    0.0000 C    0  0  0  0  0  0  0  0  0  0  0  0
    8.7988   -9.5940    0.0000 C    0  0  0  0  0  0  0  0  0  0  0  0
    8.5922   -4.8435    0.0000 Cl   0  0  0  0  0  0  0  0  0  0  0  0
  1  2  2  0  0  0  0
  1  3  1  0  0  0  0
  1  7  1  0  0  0  0
  2  6  1  0  0  0  0
  2  8  1  0  0  0  0
  3  5  1  0  0  0  0
  3 14  1  0  0  0  0
  4  5  1  0  0  0  0
  4 15  1  0  0  0  0
  4  6  1  0  0  0  0
  5 11  2  0  0  0  0
  6 12  2  0  0  0  0
  7  9  2  0  0  0  0
  8 10  1  0  0  0  0
  8  9  1  0  0  0  0
  9 13  1  0  0  0  0
 10 16  1  0  0  0  0
 13 18  1  0  0  0  0
 16 17  1  0  0  0  0
 17 20  1  0  0  0  0
 17 21  1  0  0  0  0
 18 23  2  0  0  0  0
 18 24  1  0  0  0  0
 19 22  1  0  0  0  0
 20 22  1  0  0  0  0
 21 25  1  0  0  0  0
 23 27  1  0  0  0  0
 24 26  2  0  0  0  0
 26 28  1  0  0  0  0
 27 28  2  0  0  0  0
M  END
> <ID>
13713

> <Formula>
C20H28ClN5O3

> <FW>
421.9210 (385.4601+36.4609)

> <DSSTox_CID>
28647

> <DSSTox_RID>
82917

> <DSSTox_GSID>
48721

> <DSSTox_FileID_Sort>
7594

> <TS_ChemName>
Bamifylline Hydrochloride

> <TS_ChemName_Synonyms>


> <TS_CASRN>
20684-06-4

> <CASRN_ChemName_Relationship>
primary

> <TS_Description>
single chemical compound

> <ChemNote>


> <STRUCTURE_Shown>
tested chemical

> <STRUCTURE_Formula>
C20H28ClN5O3

> <STRUCTURE_MW>
421.921

> <STRUCTURE_ChemType>
defined organic

> <STRUCTURE_DefinedOrganicForm>
complex

> <STRUCTURE_IUPAC>
8-benzyl-7-{2-[ethyl(2-hydroxyethyl)amino]ethyl}-1,3-dimethyl-3,7-dihydro-1H-purine-2,6-dione hydrochloride (1:1)

> <STRUCTURE_SMILES>
Cl.CCN(CCO)CCn2c3C(=O)N(C)C(=O)N(C)c3nc2Cc1ccccc1

> <STRUCTURE_SMILES_Desalt>
CCN(CCO)CCn2c3C(=O)N(C)C(=O)N(C)c3nc2Cc1ccccc1

> <Substance_modify_yyyymmdd>
20111204

$$$$
