207-08-9
ChemmineR-0915142007XD

 20 24  0  0  0  0  0  0  0  0  1 V2000
    6.8600   -2.1161    0.0000 C   0  0  0  0  0  0  0  0  0  0  0  0
    6.2530   -1.0581    0.0000 C   0  0  0  0  0  0  0  0  0  0  0  0
    6.2530   -3.1395    0.0000 C   0  0  0  0  0  0  0  0  0  0  0  0
    8.0742   -2.1161    0.0000 C   0  0  0  0  0  0  0  0  0  0  0  0
    5.0908   -1.3616    0.0000 C   0  0  0  0  0  0  0  0  0  0  0  0
    6.8600    0.0000    0.0000 C   0  0  0  0  0  0  0  0  0  0  0  0
    5.0908   -2.8446    0.0000 C   0  0  0  0  0  0  0  0  0  0  0  0
    6.8600   -4.2062    0.0000 C   0  0  0  0  0  0  0  0  0  0  0  0
    8.6726   -1.0581    0.0000 C   0  0  0  0  0  0  0  0  0  0  0  0
    8.6726   -3.1395    0.0000 C   0  0  0  0  0  0  0  0  0  0  0  0
    3.8160   -0.6331    0.0000 C   0  0  0  0  0  0  0  0  0  0  0  0
    8.0742    0.0000    0.0000 C   0  0  0  0  0  0  0  0  0  0  0  0
    3.8160   -3.5731    0.0000 C   0  0  0  0  0  0  0  0  0  0  0  0
    8.0742   -4.2062    0.0000 C   0  0  0  0  0  0  0  0  0  0  0  0
    2.5411   -1.3616    0.0000 C   0  0  0  0  0  0  0  0  0  0  0  0
    2.5411   -2.8446    0.0000 C   0  0  0  0  0  0  0  0  0  0  0  0
    1.2749   -0.6331    0.0000 C   0  0  0  0  0  0  0  0  0  0  0  0
    1.2749   -3.5731    0.0000 C   0  0  0  0  0  0  0  0  0  0  0  0
    0.0000   -1.3616    0.0000 C   0  0  0  0  0  0  0  0  0  0  0  0
    0.0000   -2.8446    0.0000 C   0  0  0  0  0  0  0  0  0  0  0  0
  1  2  1  0  0  0  0
  1  3  2  0  0  0  0
  1  4  1  0  0  0  0
  2  5  1  0  0  0  0
  2  6  2  0  0  0  0
  3  7  1  0  0  0  0
  3  8  1  0  0  0  0
  4  9  1  0  0  0  0
  4 10  2  0  0  0  0
  5 11  1  0  0  0  0
  5  7  2  0  0  0  0
  6 12  1  0  0  0  0
  7 13  1  0  0  0  0
  8 14  2  0  0  0  0
  9 12  2  0  0  0  0
 10 14  1  0  0  0  0
 11 15  2  0  0  0  0
 13 16  2  0  0  0  0
 15 17  1  0  0  0  0
 15 16  1  0  0  0  0
 16 18  1  0  0  0  0
 17 19  2  0  0  0  0
 18 20  2  0  0  0  0
 19 20  1  0  0  0  0
M  END
> <ID>
3422

> <Formula>
C20H12

> <FW>
252.3093

> <DSSTox_CID>
3909

> <DSSTox_RID>
77229

> <DSSTox_GSID>
23909

> <DSSTox_FileID_Sort>
1912

> <TS_ChemName>
Benzo(k)fluoranthene

> <TS_ChemName_Synonyms>


> <TS_CASRN>
207-08-9

> <CASRN_ChemName_Relationship>
primary

> <TS_Description>
single chemical compound

> <ChemNote>


> <STRUCTURE_Shown>
tested chemical

> <STRUCTURE_Formula>
C20H12

> <STRUCTURE_MW>
252.3093

> <STRUCTURE_ChemType>
defined organic

> <STRUCTURE_DefinedOrganicForm>
parent

> <STRUCTURE_IUPAC>
benzo[k]fluoranthene

> <STRUCTURE_SMILES>
c3c5c1cccc2cccc(c12)c5cc4ccccc34

> <STRUCTURE_SMILES_Desalt>
c3c5c1cccc2cccc(c12)c5cc4ccccc34

> <Substance_modify_yyyymmdd>
20080429

$$$$
