20702-77-6
ChemmineR-0915142007XD

 43 46  0  0  1  0  0  0  0  0  1 V2000
    5.0004   -6.0436    0.0000 C   0  0  0  0  0  0  0  0  0  0  0  0
    4.0830   -6.9609    0.0000 C   0  0  0  0  0  0  0  0  0  0  0  0
    4.3708   -8.8136    0.0000 O   0  0  0  0  0  0  0  0  0  0  0  0
    3.4355   -9.7489    0.0000 C   0  0  0  0  0  0  0  0  0  0  0  0
    3.7773  -11.0080    0.0000 C   0  0  0  0  0  0  0  0  0  0  0  0
    2.8599  -11.9253    0.0000 C   0  0  0  0  0  0  0  0  0  0  0  0
    1.6008  -11.5836    0.0000 C   0  0  0  0  0  0  0  0  0  0  0  0
    0.6835  -12.5009    0.0000 O   0  0  0  0  0  0  0  0  0  0  0  0
    1.2591  -10.3245    0.0000 C   0  0  0  0  0  0  0  0  0  0  0  0
    2.1764   -9.4072    0.0000 O   0  0  0  0  0  0  0  0  0  0  0  0
    0.0000   -9.9827    0.0000 C   0  0  0  0  0  0  0  0  0  0  0  0
    3.2017  -13.1844    0.0000 O   0  0  0  0  0  0  0  0  0  0  0  0
    5.0363  -11.3318    0.0000 O   0  0  0  0  0  0  0  0  0  0  0  0
    2.8239   -6.6192    0.0000 C   0  0  0  0  0  0  0  0  0  0  0  0
    2.4822   -5.3601    0.0000 C   0  0  0  0  0  0  0  0  0  0  0  0
    1.2231   -5.0363    0.0000 O   0  0  0  0  0  0  0  0  0  0  0  0
    3.3995   -4.4428    0.0000 C   0  0  0  0  0  0  0  0  0  0  0  0
    4.6586   -4.7845    0.0000 O   0  0  0  0  0  0  0  0  0  0  0  0
    3.0758   -3.1837    0.0000 C   0  0  0  0  0  0  0  0  0  0  0  0
    1.8167   -2.8419    0.0000 O   0  0  0  0  0  0  0  0  0  0  0  0
    1.9066   -7.5545    0.0000 O   0  0  0  0  0  0  0  0  0  0  0  0
    6.9070   -5.6479    0.0000 O   0  0  0  0  0  0  0  0  0  0  0  0
    8.2020   -5.6479    0.0000 C   0  0  0  0  0  0  0  0  0  0  0  0
    8.8675   -4.5147    0.0000 C   0  0  0  0  0  0  0  0  0  0  0  0
   10.1626   -4.5147    0.0000 C   0  0  0  0  0  0  0  0  0  0  0  0
   10.8101   -5.6479    0.0000 C   0  0  0  0  0  0  0  0  0  0  0  0
   12.1232   -5.6479    0.0000 C   0  0  0  0  0  0  0  0  0  0  0  0
   12.7707   -4.5147    0.0000 C   0  0  0  0  0  0  0  0  0  0  0  0
   14.0837   -4.5147    0.0000 C   0  0  0  0  0  0  0  0  0  0  0  0
   14.7313   -3.3995    0.0000 C   0  0  0  0  0  0  0  0  0  0  0  0
   14.0837   -2.2664    0.0000 C   0  0  0  0  0  0  0  0  0  0  0  0
   14.7313   -1.1332    0.0000 C   0  0  0  0  0  0  0  0  0  0  0  0
   16.0263   -1.1332    0.0000 C   0  0  0  0  0  0  0  0  0  0  0  0
   16.6919    0.0000    0.0000 O   0  0  0  0  0  0  0  0  0  0  0  0
   17.9869    0.0000    0.0000 C   0  0  0  0  0  0  0  0  0  0  0  0
   16.6919   -2.2664    0.0000 C   0  0  0  0  0  0  0  0  0  0  0  0
   16.0263   -3.3995    0.0000 C   0  0  0  0  0  0  0  0  0  0  0  0
   14.0837    0.0000    0.0000 O   0  0  0  0  0  0  0  0  0  0  0  0
   12.7707   -6.7811    0.0000 O   0  0  0  0  0  0  0  0  0  0  0  0
   10.1626   -6.7811    0.0000 C   0  0  0  0  0  0  0  0  0  0  0  0
    8.8675   -6.7811    0.0000 C   0  0  0  0  0  0  0  0  0  0  0  0
   10.8101   -7.9142    0.0000 O   0  0  0  0  0  0  0  0  0  0  0  0
   10.8101   -3.3995    0.0000 O   0  0  0  0  0  0  0  0  0  0  0  0
  1  2  1  0  0  0  0
  1 18  1  0  0  0  0
  1 22  1  1  0  0  0
  2  3  1  6  0  0  0
  2 14  1  0  0  0  0
  4  3  1  1  0  0  0
  4  5  1  0  0  0  0
  4 10  1  0  0  0  0
  5  6  1  0  0  0  0
  5 13  1  6  0  0  0
  6  7  1  0  0  0  0
  6 12  1  6  0  0  0
  7  8  1  1  0  0  0
  7  9  1  0  0  0  0
  9 10  1  0  0  0  0
  9 11  1  6  0  0  0
 14 15  1  0  0  0  0
 14 21  1  1  0  0  0
 15 16  1  6  0  0  0
 15 17  1  0  0  0  0
 17 18  1  0  0  0  0
 17 19  1  1  0  0  0
 19 20  1  0  0  0  0
 22 23  1  0  0  0  0
 23 24  2  0  0  0  0
 23 41  1  0  0  0  0
 24 25  1  0  0  0  0
 25 26  2  0  0  0  0
 25 43  1  0  0  0  0
 26 27  1  0  0  0  0
 26 40  1  0  0  0  0
 27 28  1  0  0  0  0
 27 39  2  0  0  0  0
 28 29  1  0  0  0  0
 29 30  1  0  0  0  0
 30 31  2  0  0  0  0
 30 37  1  0  0  0  0
 31 32  1  0  0  0  0
 32 33  2  0  0  0  0
 32 38  1  0  0  0  0
 33 34  1  0  0  0  0
 33 36  1  0  0  0  0
 34 35  1  0  0  0  0
 36 37  2  0  0  0  0
 40 41  2  0  0  0  0
 40 42  1  0  0  0  0
M  END
> <ID>
4358

> <Formula>
C28H36O15

> <FW>
612.5764

> <DSSTox_CID>
5706

> <DSSTox_RID>
77887

> <DSSTox_GSID>
25706

> <DSSTox_FileID_Sort>
2570

> <TS_ChemName>
Neohesperidin dihydrochalcone

> <TS_ChemName_Synonyms>


> <TS_CASRN>
20702-77-6

> <CASRN_ChemName_Relationship>
primary

> <TS_Description>
single chemical compound

> <ChemNote>
stereochem

> <STRUCTURE_Shown>
tested chemical

> <STRUCTURE_Formula>
C28H36O15

> <STRUCTURE_MW>
612.5764

> <STRUCTURE_ChemType>
defined organic

> <STRUCTURE_DefinedOrganicForm>
parent

> <STRUCTURE_IUPAC>
3,5-dihydroxy-4-[3-(3-hydroxy-4-methoxyphenyl)propanoyl]phenyl 2-O-(6-deoxy-alpha-L-mannopyranosyl)-beta-D-glucopyranoside

> <STRUCTURE_SMILES>
COc1ccc(cc1O)CCC(=O)c2c(O)cc(cc2O)O[C@@H]4O[C@H](CO)[C@@H](O)[C@H](O)[C@H]4O[C@@H]3O[C@@H](C)[C@H](O)[C@@H](O)[C@H]3O

> <STRUCTURE_SMILES_Desalt>
COc1ccc(cc1O)CCC(=O)c2c(O)cc(cc2O)O[C@@H]4O[C@H](CO)[C@@H](O)[C@H](O)[C@H]4O[C@@H]3O[C@@H](C)[C@H](O)[C@@H](O)[C@H]3O

> <Substance_modify_yyyymmdd>
20080429

$$$$
