20701-77-3
ChemmineR-0915142007XD

 27 27  0  0  0  0  0  0  0  0  1 V2000
    8.3635   -4.7673    0.0000 C   0  0  0  0  0  0  0  0  0  0  0  0
    7.0369   -4.7673    0.0000 C   0  0  0  0  0  0  0  0  0  0  0  0
    6.3737   -3.6376    0.0000 C   0  0  0  0  0  0  0  0  0  0  0  0
    5.2233   -4.2906    0.0000 C   0  0  0  0  0  0  0  0  0  0  0  0
    4.0729   -3.6376    0.0000 O   0  0  0  0  0  0  0  0  0  0  0  0
    5.2233   -5.6171    0.0000 N   0  0  0  0  0  0  0  0  0  0  0  0
    5.7000   -2.4769    0.0000 C   0  0  0  0  0  0  0  0  0  0  0  0
    4.3735   -2.4769    0.0000 C   0  0  0  0  0  0  0  0  0  0  0  0
    3.7206   -1.3265    0.0000 C   0  0  0  0  0  0  0  0  0  0  0  0
    4.3735   -0.1762    0.0000 C   0  0  0  0  0  0  0  0  0  0  0  0
    5.7000   -0.1762    0.0000 C   0  0  0  0  0  0  0  0  0  0  0  0
    6.3737   -1.3265    0.0000 C   0  0  0  0  0  0  0  0  0  0  0  0
    7.5240   -2.9640    0.0000 C   0  0  0  0  0  0  0  0  0  0  0  0
    7.5240   -1.6271    0.0000 C   0  0  0  0  0  0  0  0  0  0  0  0
    8.6848   -0.9742    0.0000 C   0  0  0  0  0  0  0  0  0  0  0  0
    9.8351   -1.6271    0.0000 C   0  0  0  0  0  0  0  0  0  0  0  0
    9.8351   -2.9640    0.0000 C   0  0  0  0  0  0  0  0  0  0  0  0
    8.6848   -3.6376    0.0000 C   0  0  0  0  0  0  0  0  0  0  0  0
    9.0371   -5.9280    0.0000 N   0  0  0  0  0  0  0  0  0  0  0  0
    8.3635   -7.0784    0.0000 C   0  0  0  0  0  0  0  0  0  0  0  0
   10.3637   -5.9280    0.0000 C   0  0  0  0  0  0  0  0  0  0  0  0
    9.5760   -4.1973    0.0000 C   0  0  0  0  0  0  0  0  0  0  0  0
    0.0000   -1.3265    0.0000 O   0  0  0  0  0  0  0  0  0  0  0  0
    1.3265   -1.3265    0.0000 S   0  0  0  0  0  0  0  0  0  0  0  0
    1.3265   -2.6531    0.0000 O   0  0  0  0  0  0  0  0  0  0  0  0
    1.3265    0.0000    0.0000 O   0  0  0  0  0  0  0  0  0  0  0  0
    2.6635   -1.3265    0.0000 O   0  0  0  0  0  0  0  0  0  0  0  0
  1  2  1  0  0  0  0
  1 19  1  0  0  0  0
  1 22  1  0  0  0  0
  2  3  1  0  0  0  0
  3  4  1  0  0  0  0
  3  7  1  0  0  0  0
  3 13  1  0  0  0  0
  4  5  2  0  0  0  0
  4  6  1  0  0  0  0
  7  8  1  0  0  0  0
  7 12  2  0  0  0  0
  8  9  2  0  0  0  0
  9 10  1  0  0  0  0
 10 11  2  0  0  0  0
 11 12  1  0  0  0  0
 13 14  1  0  0  0  0
 13 18  2  0  0  0  0
 14 15  2  0  0  0  0
 15 16  1  0  0  0  0
 16 17  2  0  0  0  0
 17 18  1  0  0  0  0
 19 20  1  0  0  0  0
 19 21  1  0  0  0  0
 23 24  1  0  0  0  0
 24 25  2  0  0  0  0
 24 26  2  0  0  0  0
 24 27  1  0  0  0  0
M  END
> <ID>
16010

> <Formula>
C19H26N2O5S

> <FW>
394.4851 (296.4067+98.0785)

> <DSSTox_CID>
31393

> <DSSTox_RID>
97280

> <DSSTox_GSID>
57604

> <DSSTox_FileID_Sort>
8347

> <TS_ChemName>
Aminopentamide sulfate

> <TS_ChemName_Synonyms>
Dimevamide sulfate; Valeramide, 4-(dimethylamino)-2,2-diphenyl-, sulfate (1:1)

> <TS_CASRN>
20701-77-3

> <CASRN_ChemName_Relationship>
primary

> <TS_Description>
single chemical compound

> <ChemNote>


> <STRUCTURE_Shown>
tested chemical

> <STRUCTURE_Formula>
C19H26N2O5S

> <STRUCTURE_MW>
394.4851

> <STRUCTURE_ChemType>
defined organic

> <STRUCTURE_DefinedOrganicForm>
complex

> <STRUCTURE_IUPAC>
4-(dimethylamino)-2,2-diphenylpentanamide sulfate (1:1)

> <STRUCTURE_SMILES>
O=S(=O)(O)O.NC(=O)C(CC(C)N(C)C)(c1ccccc1)c2ccccc2

> <STRUCTURE_SMILES_Desalt>
NC(=O)C(CC(C)N(C)C)(c1ccccc1)c2ccccc2

> <Substance_modify_yyyymmdd>
20131121

$$$$
