20711-10-8
ChemmineR-0915142007XD

 18 17  0  0  0  0  0  0  0  0  1 V2000
   16.0780   -1.3269    0.0000 C   0  0  0  0  0  0  0  0  0  0  0  0
   16.0780    0.0000    0.0000 O   0  0  0  0  0  0  0  0  0  0  0  0
   14.9406   -1.9990    0.0000 O   0  0  0  0  0  0  0  0  0  0  0  0
   17.2326   -1.9990    0.0000 C   0  0  0  0  0  0  0  0  0  0  0  0
   13.7860   -1.3269    0.0000 C   0  0  0  0  0  0  0  0  0  0  0  0
   12.6315   -1.9990    0.0000 C   0  0  0  0  0  0  0  0  0  0  0  0
   11.4769   -1.3269    0.0000 C   0  0  0  0  0  0  0  0  0  0  0  0
   10.3395   -1.9990    0.0000 C   0  0  0  0  0  0  0  0  0  0  0  0
    9.1850   -1.3269    0.0000 C   0  0  0  0  0  0  0  0  0  0  0  0
    8.0304   -1.9990    0.0000 C   0  0  0  0  0  0  0  0  0  0  0  0
    6.8930   -1.3269    0.0000 C   0  0  0  0  0  0  0  0  0  0  0  0
    5.7557   -1.9990    0.0000 C   0  0  0  0  0  0  0  0  0  0  0  0
    4.6011   -1.3269    0.0000 C   0  0  0  0  0  0  0  0  0  0  0  0
    3.4465   -1.9990    0.0000 C   0  0  0  0  0  0  0  0  0  0  0  0
    2.2919   -1.3269    0.0000 C   0  0  0  0  0  0  0  0  0  0  0  0
    1.1546   -1.9990    0.0000 C   0  0  0  0  0  0  0  0  0  0  0  0
    1.1546   -3.3259    0.0000 C   0  0  0  0  0  0  0  0  0  0  0  0
    0.0000   -3.9807    0.0000 C   0  0  0  0  0  0  0  0  0  0  0  0
  1  2  2  0  0  0  0
  1  3  1  0  0  0  0
  1  4  1  0  0  0  0
  3  5  1  0  0  0  0
  5  6  1  0  0  0  0
  6  7  1  0  0  0  0
  7  8  1  0  0  0  0
  8  9  1  0  0  0  0
  9 10  1  0  0  0  0
 10 11  1  0  0  0  0
 11 12  1  0  0  0  0
 12 13  1  0  0  0  0
 13 14  1  0  0  0  0
 14 15  1  0  0  0  0
 15 16  2  0  0  0  0
 16 17  1  0  0  0  0
 17 18  1  0  0  0  0
M  END
> <ID>
7013

> <Formula>
C16H30O2

> <FW>
254.4082

> <DSSTox_CID>
15266

> <DSSTox_RID>
79251

> <DSSTox_GSID>
35266

> <DSSTox_FileID_Sort>
3933

> <TS_ChemName>
(Z)-11-Tetradecenyl acetate

> <TS_ChemName_Synonyms>


> <TS_CASRN>
20711-10-8

> <CASRN_ChemName_Relationship>
primary

> <TS_Description>
single chemical compound

> <ChemNote>
stereochem

> <STRUCTURE_Shown>
tested chemical

> <STRUCTURE_Formula>
C16H30O2

> <STRUCTURE_MW>
254.4082

> <STRUCTURE_ChemType>
defined organic

> <STRUCTURE_DefinedOrganicForm>
parent

> <STRUCTURE_IUPAC>
(11Z)-tetradec-11-en-1-yl acetate

> <STRUCTURE_SMILES>
CC(=O)OCCCCCCCCCC/C=C\CC

> <STRUCTURE_SMILES_Desalt>
CC(=O)OCCCCCCCCCC/C=C\CC

> <Substance_modify_yyyymmdd>
20080429

$$$$
