207386-92-3
ChemmineR-0915142007XD

 16 16  0  0  0  0  0  0  0  0  1 V2000
    3.6186   -5.3334    0.0000 N   0  0  0  0  0  0  0  0  0  0  0  0
    2.4779   -4.6460    0.0000 C   0  0  0  0  0  0  0  0  0  0  0  0
    2.4779   -3.3315    0.0000 C   0  0  0  0  0  0  0  0  0  0  0  0
    4.7820   -4.6460    0.0000 C   0  0  0  0  0  0  0  0  0  0  0  0
    1.3296   -5.3334    0.0000 C   0  0  0  0  0  0  0  0  0  0  0  0
    1.3296   -2.6667    0.0000 C   0  0  0  0  0  0  0  0  0  0  0  0
    3.6186   -2.6667    0.0000 C   0  0  0  0  0  0  0  0  0  0  0  0
    4.7820   -3.3315    0.0000 C   0  0  0  0  0  0  0  0  0  0  0  0
    0.1813   -3.3315    0.0000 C   0  0  0  0  0  0  0  0  0  0  0  0
    0.1813   -4.6611    0.0000 C   0  0  0  0  0  0  0  0  0  0  0  0
    1.3296   -1.3296    0.0000 S   0  0  0  0  0  0  0  0  0  0  0  0
    2.6592   -1.3296    0.0000 O   0  0  0  0  0  0  0  0  0  0  0  0
    0.0000   -1.3296    0.0000 O   0  0  0  0  0  0  0  0  0  0  0  0
    1.3296    0.0000    0.0000 O   0  0  0  0  0  0  0  0  0  0  0  0
    1.3296   -6.6630    0.0000 O   0  0  0  0  0  0  0  0  0  0  0  0
    7.5544   -4.3362    0.0000 O   0  0  0  0  0  0  0  0  0  0  0  0
  1  2  2  0  0  0  0
  1  4  1  0  0  0  0
  2  3  1  0  0  0  0
  2  5  1  0  0  0  0
  3  6  1  0  0  0  0
  3  7  2  0  0  0  0
  4  8  2  0  0  0  0
  5 10  2  0  0  0  0
  5 15  1  0  0  0  0
  6  9  2  0  0  0  0
  6 11  1  0  0  0  0
  7  8  1  0  0  0  0
  9 10  1  0  0  0  0
 11 12  2  0  0  0  0
 11 13  1  0  0  0  0
 11 14  2  0  0  0  0
M  END
> <ID>
9982

> <Formula>
C9H9NO5S

> <FW>
243.2365 (225.2212+18.0153)

> <DSSTox_CID>
24317

> <DSSTox_RID>
80150

> <DSSTox_GSID>
44317

> <DSSTox_FileID_Sort>
4832

> <TS_ChemName>
8-Hydroxyquinoline-5-sulfonic acid hydrate (1:x)

> <TS_ChemName_Synonyms>
8-Hydroxyquinoline-5-sulfonic acid hydrate

> <TS_CASRN>
207386-92-3

> <CASRN_ChemName_Relationship>
primary

> <TS_Description>
single chemical compound

> <ChemNote>
parent [84-88-8]

> <STRUCTURE_Shown>
tested chemical

> <STRUCTURE_Formula>
C9H9NO5S

> <STRUCTURE_MW>
243.2365

> <STRUCTURE_ChemType>
defined organic

> <STRUCTURE_DefinedOrganicForm>
complex

> <STRUCTURE_IUPAC>
8-hydroxyquinoline-5-sulfonic acid hydrate (1:1)

> <STRUCTURE_SMILES>
O.O=S(=O)(O)c1ccc(O)c2ncccc12

> <STRUCTURE_SMILES_Desalt>
O=S(=O)(O)c1ccc(O)c2ncccc12

> <Substance_modify_yyyymmdd>
20090518

$$$$
