207572-66-5
ChemmineR-0915142007XD

 22 24  0  0  0  0  0  0  0  0  1 V2000
    3.7004   -1.4107    0.0000 C   0  0  0  0  0  0  0  0  0  0  0  0
    3.7004   -2.9175    0.0000 C   0  0  0  0  0  0  0  0  0  0  0  0
    2.3857   -0.6426    0.0000 C   0  0  0  0  0  0  0  0  0  0  0  0
    2.3857   -3.6857    0.0000 C   0  0  0  0  0  0  0  0  0  0  0  0
    1.0931   -1.4107    0.0000 C   0  0  0  0  0  0  0  0  0  0  0  0
    1.0931   -2.9175    0.0000 C   0  0  0  0  0  0  0  0  0  0  0  0
    0.0000   -3.5379    0.0000 C   0  0  0  0  0  0  0  0  0  0  0  0
    5.5248   -2.1641    0.0000 C   0  0  0  0  0  0  0  0  0  0  0  0
    6.7804   -2.1641    0.0000 C   0  0  0  0  0  0  0  0  0  0  0  0
    4.9044   -3.2351    0.0000 C   0  0  0  0  0  0  0  0  0  0  0  0
    7.3861   -3.2351    0.0000 C   0  0  0  0  0  0  0  0  0  0  0  0
    5.5248   -4.3283    0.0000 C   0  0  0  0  0  0  0  0  0  0  0  0
    6.7804   -4.3283    0.0000 C   0  0  0  0  0  0  0  0  0  0  0  0
    4.9044   -1.0710    0.0000 N   0  0  0  0  0  0  0  0  0  0  0  0
    5.5248    0.0000    0.0000 C   0  0  0  0  0  0  0  0  0  0  0  0
    7.3861   -1.0710    0.0000 N   0  0  0  0  0  0  0  0  0  0  0  0
    6.7804    0.0000    0.0000 C   0  0  0  0  0  0  0  0  0  0  0  0
    3.7521   -6.8248    0.0000 O   0  0  0  0  0  0  0  0  0  0  0  0
    3.7521   -4.1362    0.0000 C   0  0  0  0  0  0  0  0  0  0  0  0
    2.4005   -5.4805    0.0000 O   0  0  0  0  0  0  0  0  0  0  0  0
    5.0964   -5.4805    0.0000 O   0  0  0  0  0  0  0  0  0  0  0  0
    3.7521   -5.4805    0.0000 S   0  0  0  0  0  0  0  0  0  0  0  0
  1  3  2  0  0  0  0
  1 14  1  0  0  0  0
  1  2  1  0  0  0  0
  2  4  2  0  0  0  0
  2 10  1  0  0  0  0
  3  5  1  0  0  0  0
  4  6  1  0  0  0  0
  5  6  2  0  0  0  0
  6  7  1  0  0  0  0
  8 14  1  0  0  0  0
  8 10  2  0  0  0  0
  8  9  1  0  0  0  0
  9 11  1  0  0  0  0
  9 16  1  0  0  0  0
 10 12  1  0  0  0  0
 11 13  1  0  0  0  0
 12 13  1  0  0  0  0
 14 15  1  0  0  0  0
 15 17  1  0  0  0  0
 16 17  1  0  0  0  0
 18 22  1  0  0  0  0
 19 22  1  0  0  0  0
 20 22  2  0  0  0  0
 21 22  2  0  0  0  0
M  END
> <ID>
11105

> <Formula>
C16H22N2O3S

> <FW>
322.4225 (226.3168+96.1057)

> <DSSTox_CID>
25660

> <DSSTox_RID>
81037

> <DSSTox_GSID>
45660

> <DSSTox_FileID_Sort>
5718

> <TS_ChemName>
Pirlindole mesylate

> <TS_ChemName_Synonyms>


> <TS_CASRN>
207572-66-5

> <CASRN_ChemName_Relationship>
primary

> <TS_Description>
single chemical compound

> <ChemNote>
parent [60762-57-4]

> <STRUCTURE_Shown>
tested chemical

> <STRUCTURE_Formula>
C16H22N2O3S

> <STRUCTURE_MW>
322.4225

> <STRUCTURE_ChemType>
defined organic

> <STRUCTURE_DefinedOrganicForm>
complex

> <STRUCTURE_IUPAC>
8-methyl-2,3,3a,4,5,6-hexahydro-1H-pyrazino[3,2,1-jk]carbazole methanesulfonate (1:1)

> <STRUCTURE_SMILES>
CS(=O)(=O)O.Cc1ccc2c(c1)c3CCCC4NCCn2c34

> <STRUCTURE_SMILES_Desalt>
Cc1ccc2c(c1)c3CCCC4NCCn2c34

> <Substance_modify_yyyymmdd>
20100107

$$$$
