207671-44-1
ChemmineR-0915142007XD

 57 60  0  0  1  0  0  0  0  0  1 V2000
    3.4975   -4.7520    0.0000 C   0  0  0  0  0  0  0  0  0  0  0  0
    3.4975   -6.0826    0.0000 C   0  0  0  0  0  0  0  0  0  0  0  0
    2.3380   -4.0487    0.0000 C   0  0  0  0  0  0  0  0  0  0  0  0
    2.3380   -6.7098    0.0000 C   0  0  0  0  0  0  0  0  0  0  0  0
    1.1405   -4.7520    0.0000 C   0  0  0  0  0  0  0  0  0  0  0  0
    1.1405   -6.0826    0.0000 C   0  0  0  0  0  0  0  0  0  0  0  0
    5.8355   -4.7520    0.0000 C   0  0  0  0  0  0  0  0  0  0  0  0
    5.8355   -6.0826    0.0000 C   0  0  0  0  0  0  0  0  0  0  0  0
    4.6950   -4.0487    0.0000 C   0  0  0  0  0  0  0  0  0  0  0  0
    4.6950   -6.7098    0.0000 N   0  0  0  0  0  0  0  0  0  0  0  0
    4.6950   -2.7181    0.0000 C   0  0  0  0  0  0  0  0  0  0  0  0
    5.8355   -2.0148    0.0000 C   0  0  0  0  0  0  0  0  0  0  0  0
    5.8355   -0.6843    0.0000 C   0  0  0  0  0  0  0  0  0  0  0  0
    6.9759   -2.7181    0.0000 N   0  0  0  0  0  0  0  0  0  0  0  0
    6.9759    0.0000    0.0000 C   0  0  0  0  0  0  0  0  0  0  0  0
    8.1734   -2.0148    0.0000 C   0  0  0  0  0  0  0  0  0  0  0  0
    8.1734   -0.6843    0.0000 C   0  0  0  0  0  0  0  0  0  0  0  0
    9.3139    0.0000    0.0000 C   0  0  0  0  0  0  0  0  0  0  0  0
   10.5114   -0.6843    0.0000 C   0  0  0  0  0  0  0  0  0  0  0  0
    6.5958   -1.0074    0.0000 C   0  0  0  0  0  0  0  0  0  0  0  0
    7.6032   -1.5967    0.0000 C   0  0  0  0  0  0  0  0  0  0  0  0
    3.4975   -2.0148    0.0000 O   0  0  0  0  0  0  0  0  0  0  0  0
    0.0000   -4.0487    0.0000 O   0  0  0  0  0  0  0  0  0  0  0  0
    0.0000   -2.7181    0.0000 C   0  0  0  0  0  0  0  0  0  0  0  0
    5.4553   -3.2884    0.0000 H   0  0  0  0  0  0  0  0  0  0  0  0
   15.5105   -2.6041    0.0000 C   0  0  0  0  0  0  0  0  0  0  0  0
   15.5105   -1.2735    0.0000 C   0  0  0  0  0  0  0  0  0  0  0  0
   16.6700   -3.2884    0.0000 C   0  0  0  0  0  0  0  0  0  0  0  0
   16.6700   -0.5702    0.0000 C   0  0  0  0  0  0  0  0  0  0  0  0
   17.8675   -2.6041    0.0000 C   0  0  0  0  0  0  0  0  0  0  0  0
   17.8675   -1.2735    0.0000 C   0  0  0  0  0  0  0  0  0  0  0  0
   13.1726   -2.6041    0.0000 C   0  0  0  0  0  0  0  0  0  0  0  0
   13.1726   -1.2735    0.0000 C   0  0  0  0  0  0  0  0  0  0  0  0
   14.3130   -3.2884    0.0000 C   0  0  0  0  0  0  0  0  0  0  0  0
   14.3130   -0.5702    0.0000 N   0  0  0  0  0  0  0  0  0  0  0  0
   14.3130   -4.6189    0.0000 C   0  0  0  0  0  0  0  0  0  0  0  0
   13.1726   -5.3222    0.0000 C   0  0  0  0  0  0  0  0  0  0  0  0
   13.1726   -6.6528    0.0000 C   0  0  0  0  0  0  0  0  0  0  0  0
   12.0321   -4.6189    0.0000 N   0  0  0  0  0  0  0  0  0  0  0  0
   12.0321   -7.3371    0.0000 C   0  0  0  0  0  0  0  0  0  0  0  0
   10.8346   -5.3222    0.0000 C   0  0  0  0  0  0  0  0  0  0  0  0
   10.8346   -6.6528    0.0000 C   0  0  0  0  0  0  0  0  0  0  0  0
    9.6941   -7.3371    0.0000 C   0  0  0  0  0  0  0  0  0  0  0  0
    8.4966   -6.6528    0.0000 C   0  0  0  0  0  0  0  0  0  0  0  0
   12.4122   -6.3297    0.0000 C   0  0  0  0  0  0  0  0  0  0  0  0
   11.4048   -5.7594    0.0000 C   0  0  0  0  0  0  0  0  0  0  0  0
   15.5105   -5.3222    0.0000 O   0  0  0  0  0  0  0  0  0  0  0  0
   19.0080   -3.2884    0.0000 O   0  0  0  0  0  0  0  0  0  0  0  0
   19.0080   -4.6189    0.0000 C   0  0  0  0  0  0  0  0  0  0  0  0
   13.5527   -4.0487    0.0000 H   0  0  0  0  0  0  0  0  0  0  0  0
    5.7784   -8.2115    0.0000 O   0  0  0  0  0  0  0  0  0  0  0  0
    7.5462   -9.6181    0.0000 S   0  0  0  0  0  0  0  0  0  0  0  0
    7.5462   -8.2875    0.0000 O   0  0  0  0  0  0  0  0  0  0  0  0
    7.5462  -10.9486    0.0000 O   0  0  0  0  0  0  0  0  0  0  0  0
    8.8767   -9.6181    0.0000 O   0  0  0  0  0  0  0  0  0  0  0  0
    6.2156   -9.6181    0.0000 O   0  0  0  0  0  0  0  0  0  0  0  0
   10.8726   -8.4015    0.0000 O   0  0  0  0  0  0  0  0  0  0  0  0
  1  3  2  0  0  0  0
  1  9  1  0  0  0  0
  1  2  1  0  0  0  0
  2  4  2  0  0  0  0
  2 10  1  0  0  0  0
  3  5  1  0  0  0  0
  4  6  1  0  0  0  0
  5  6  2  0  0  0  0
  5 23  1  0  0  0  0
  7  8  1  0  0  0  0
  7  9  2  0  0  0  0
  8 10  2  0  0  0  0
  9 11  1  0  0  0  0
 11 12  1  0  0  0  0
 11 22  1  1  0  0  0
 12 13  1  0  0  0  0
 12 14  1  0  0  0  0
 12 25  1  1  0  0  0
 13 15  1  0  0  0  0
 14 16  1  0  0  0  0
 14 21  1  6  0  0  0
 15 17  1  0  0  0  0
 15 20  1  6  0  0  0
 16 17  1  0  0  0  0
 17 18  1  1  0  0  0
 18 19  2  0  0  0  0
 20 21  1  0  0  0  0
 23 24  1  0  0  0  0
 26 28  2  0  0  0  0
 26 34  1  0  0  0  0
 26 27  1  0  0  0  0
 27 29  2  0  0  0  0
 27 35  1  0  0  0  0
 28 30  1  0  0  0  0
 29 31  1  0  0  0  0
 30 31  2  0  0  0  0
 30 48  1  0  0  0  0
 32 33  1  0  0  0  0
 32 34  2  0  0  0  0
 33 35  2  0  0  0  0
 34 36  1  0  0  0  0
 36 37  1  0  0  0  0
 36 47  1  1  0  0  0
 37 38  1  0  0  0  0
 37 39  1  0  0  0  0
 37 50  1  1  0  0  0
 38 40  1  0  0  0  0
 39 41  1  0  0  0  0
 39 46  1  6  0  0  0
 40 42  1  0  0  0  0
 40 45  1  6  0  0  0
 41 42  1  0  0  0  0
 42 43  1  1  0  0  0
 43 44  2  0  0  0  0
 45 46  1  0  0  0  0
 48 49  1  0  0  0  0
 52 53  2  0  0  0  0
 52 54  2  0  0  0  0
 52 55  1  0  0  0  0
 52 56  1  0  0  0  0
M  END
> <ID>
13967

> <Formula>
C40H54N4O10S

> <FW>
782.9426 (324.4168+324.4168+18.0153+98.0785+18.0153)

> <DSSTox_CID>
28905

> <DSSTox_RID>
83173

> <DSSTox_GSID>
48979

> <DSSTox_FileID_Sort>
7850

> <TS_ChemName>
Quinine hemisulfate salt monohydrate

> <TS_ChemName_Synonyms>


> <TS_CASRN>
207671-44-1

> <CASRN_ChemName_Relationship>
primary

> <TS_Description>
single chemical compound

> <ChemNote>


> <STRUCTURE_Shown>
tested chemical

> <STRUCTURE_Formula>
C40H54N4O10S

> <STRUCTURE_MW>
782.9426

> <STRUCTURE_ChemType>
defined organic

> <STRUCTURE_DefinedOrganicForm>
complex

> <STRUCTURE_IUPAC>
(8alpha,9R)-6'-methoxycinchonan-9-ol sulfate hydrate (2:1:2)

> <STRUCTURE_SMILES>
O.O.O=S(=O)(O)O.COc1cc2c(cc1)nccc2[C@@H](O)[C@@H]4C[C@@H]3CC[N@]4C[C@@H]3C=C.COc1cc2c(cc1)nccc2[C@@H](O)[C@@H]4C[C@@H]3CC[N@]4C[C@@H]3C=C

> <STRUCTURE_SMILES_Desalt>
COc1cc2c(cc1)nccc2[C@@H](O)[C@@H]4C[C@@H]3CC[N@]4C[C@@H]3C=C

> <Substance_modify_yyyymmdd>
20111204

$$$$
