207736-05-8
ChemmineR-0915142007XD

 34 36  0  0  1  0  0  0  0  0  1 V2000
    7.3281   -4.6483    0.0000 C   0  0  0  0  0  0  0  0  0  0  0  0
    7.3281   -3.3249    0.0000 C   0  0  0  0  0  0  0  0  0  0  0  0
    8.4860   -5.3265    0.0000 O   0  0  0  0  0  0  0  0  0  0  0  0
    5.9882   -4.6483    0.0000 C   0  0  0  0  0  0  0  0  0  0  0  0
    6.6499   -5.8062    0.0000 C   0  0  0  0  0  0  0  0  0  0  0  0
    8.4860   -2.6633    0.0000 C   0  0  0  0  0  0  0  0  0  0  0  0
    9.6274   -4.6483    0.0000 C   0  0  0  0  0  0  0  0  0  0  0  0
    5.3265   -3.5069    0.0000 C   0  0  0  0  0  0  0  0  0  0  0  0
    5.3265   -5.8062    0.0000 C   0  0  0  0  0  0  0  0  0  0  0  0
    7.3281   -6.9642    0.0000 C   0  0  0  0  0  0  0  0  0  0  0  0
    9.6274   -3.3249    0.0000 C   0  0  0  0  0  0  0  0  0  0  0  0
    8.4860   -1.3399    0.0000 O   0  0  0  0  0  0  0  0  0  0  0  0
   10.7688   -5.3265    0.0000 O   0  0  0  0  0  0  0  0  0  0  0  0
    3.9866   -3.5069    0.0000 C   0  0  0  0  0  0  0  0  0  0  0  0
   10.7688   -2.6633    0.0000 S   0  0  0  0  0  0  0  0  0  0  0  0
    3.3415   -4.6483    0.0000 C   0  0  0  0  0  0  0  0  0  0  0  0
    3.3415   -2.3655    0.0000 C   0  0  0  0  0  0  0  0  0  0  0  0
   11.9267   -3.3249    0.0000 C   0  0  0  0  0  0  0  0  0  0  0  0
    2.0016   -4.6483    0.0000 C   0  0  0  0  0  0  0  0  0  0  0  0
    2.0016   -2.3655    0.0000 C   0  0  0  0  0  0  0  0  0  0  0  0
   13.0847   -2.6633    0.0000 C   0  0  0  0  0  0  0  0  0  0  0  0
   11.9267   -4.6483    0.0000 C   0  0  0  0  0  0  0  0  0  0  0  0
    1.3234   -3.5069    0.0000 C   0  0  0  0  0  0  0  0  0  0  0  0
   14.2261   -3.3249    0.0000 C   0  0  0  0  0  0  0  0  0  0  0  0
   13.0847   -1.3399    0.0000 C   0  0  0  0  0  0  0  0  0  0  0  0
   13.0847   -5.3265    0.0000 C   0  0  0  0  0  0  0  0  0  0  0  0
    0.0000   -3.5069    0.0000 N   0  0  0  0  0  0  0  0  0  0  0  0
   14.2261   -4.6483    0.0000 C   0  0  0  0  0  0  0  0  0  0  0  0
   11.7448   -1.3399    0.0000 C   0  0  0  0  0  0  0  0  0  0  0  0
   14.4080   -1.3399    0.0000 C   0  0  0  0  0  0  0  0  0  0  0  0
   13.0847    0.0000    0.0000 C   0  0  0  0  0  0  0  0  0  0  0  0
   13.0847   -6.6664    0.0000 C   0  0  0  0  0  0  0  0  0  0  0  0
   15.3840   -5.3265    0.0000 C   0  0  0  0  0  0  0  0  0  0  0  0
   16.5420   -4.6483    0.0000 O   0  0  0  0  0  0  0  0  0  0  0  0
  1  2  1  0  0  0  0
  1  3  1  0  0  0  0
  1  4  1  1  0  0  0
  1  5  1  6  0  0  0
  2  6  1  0  0  0  0
  3  7  1  0  0  0  0
  4  8  1  0  0  0  0
  5  9  1  0  0  0  0
  5 10  1  0  0  0  0
  6 11  2  0  0  0  0
  6 12  1  0  0  0  0
  7 13  2  0  0  0  0
  7 11  1  0  0  0  0
  8 14  1  0  0  0  0
 11 15  1  0  0  0  0
 14 16  1  0  0  0  0
 14 17  2  0  0  0  0
 15 18  1  0  0  0  0
 16 19  2  0  0  0  0
 17 20  1  0  0  0  0
 18 21  1  0  0  0  0
 18 22  2  0  0  0  0
 19 23  1  0  0  0  0
 20 23  2  0  0  0  0
 21 24  2  0  0  0  0
 21 25  1  0  0  0  0
 22 26  1  0  0  0  0
 23 27  1  0  0  0  0
 24 28  1  0  0  0  0
 25 29  1  0  0  0  0
 25 30  1  0  0  0  0
 25 31  1  0  0  0  0
 26 32  1  0  0  0  0
 26 28  2  0  0  0  0
 28 33  1  0  0  0  0
 33 34  1  0  0  0  0
M  END
> <ID>
12404

> <Formula>
C28H37NO4S

> <FW>
483.6627

> <DSSTox_CID>
27262

> <DSSTox_RID>
82219

> <DSSTox_GSID>
47262

> <DSSTox_FileID_Sort>
6900

> <TS_ChemName>
CI-1029

> <TS_ChemName_Synonyms>
PD-178390

> <TS_CASRN>
207736-05-8

> <CASRN_ChemName_Relationship>
primary

> <TS_Description>
single chemical compound

> <ChemNote>
stereochem

> <STRUCTURE_Shown>
tested chemical

> <STRUCTURE_Formula>
C28H37NO4S

> <STRUCTURE_MW>
483.6627

> <STRUCTURE_ChemType>
defined organic

> <STRUCTURE_DefinedOrganicForm>
parent

> <STRUCTURE_IUPAC>
(6S)-6-[2-(4-aminophenyl)ethyl]-3-{[2-tert-butyl-4-(hydroxymethyl)-5-methylphenyl]sulfanyl}-4-hydroxy-6-(propan-2-yl)-5,6-dihydro-2H-pyran-2-one

> <STRUCTURE_SMILES>
CC(C)[C@]3(CCc1ccc(N)cc1)CC(O)=C(Sc2cc(C)c(CO)cc2C(C)(C)C)C(=O)O3

> <STRUCTURE_SMILES_Desalt>
CC(C)[C@]3(CCc1ccc(N)cc1)CC(O)=C(Sc2cc(C)c(CO)cc2C(C)(C)C)C(=O)O3

> <Substance_modify_yyyymmdd>
20131114

$$$$
