207844-01-7
ChemmineR-0915142007XD

 53 54  0  0  1  0  0  0  0  0  2 V2000
    2.7907   -6.7375    0.0000 O    0  0  0  0  0  0  0  0  0  0  0  0
    9.2225   -6.6311    0.0000 O    0  0  0  0  0  0  0  0  0  0  0  0
    5.5680   -6.5780    0.0000 Ca   0  2  0  0  0  0  0  0  0  0  0  0
    3.8671  -10.2059    0.0000 C    0  0  0  0  0  0  0  0  0  0  0  0
    4.6378  -11.2955    0.0000 N    0  0  0  0  0  0  0  0  0  0  0  0
    3.8671  -12.3719    0.0000 C    0  0  0  0  0  0  0  0  0  0  0  0
    2.6046  -11.9600    0.0000 C    0  0  0  0  0  0  0  0  0  0  0  0
    1.4618  -12.6244    0.0000 C    0  0  0  0  0  0  0  0  0  0  0  0
    0.3056  -11.9600    0.0000 C    0  0  0  0  0  0  0  0  0  0  0  0
    0.3056  -10.6311    0.0000 C    0  0  0  0  0  0  0  0  0  0  0  0
    1.4618   -9.9667    0.0000 C    0  0  0  0  0  0  0  0  0  0  0  0
    2.6046  -10.6311    0.0000 C    0  0  0  0  0  0  0  0  0  0  0  0
    8.6378   -8.9833    0.0000 C    0  0  0  0  0  0  0  0  0  0  0  0
    7.9866  -10.1394    0.0000 C    0  0  0  0  0  0  0  0  0  0  0  0
    6.6577  -10.1394    0.0000 C    0  0  0  0  0  0  0  0  0  0  0  0
    5.9667  -11.2955    0.0000 C    0  0  0  0  0  0  0  0  0  0  0  0
    9.9667   -8.9833    0.0000 O    0  0  0  0  0  0  0  0  0  0  0  0
    7.9866   -7.8271    0.0000 O    0  5  0  0  0  0  0  0  0  0  0  0
    6.6577  -12.4384    0.0000 O    0  0  0  0  0  0  0  0  0  0  0  0
    8.6378  -11.2955    0.0000 C    0  0  0  0  0  0  0  0  0  0  0  0
    9.9667  -11.2955    0.0000 C    0  0  0  0  0  0  0  0  0  0  0  0
   10.6577  -12.4384    0.0000 C    0  0  0  0  0  0  0  0  0  0  0  0
   11.9866  -12.4384    0.0000 C    0  0  0  0  0  0  0  0  0  0  0  0
   12.6244  -11.2955    0.0000 C    0  0  0  0  0  0  0  0  0  0  0  0
   11.9866  -10.1394    0.0000 C    0  0  0  0  0  0  0  0  0  0  0  0
   10.6577  -10.1394    0.0000 C    0  0  0  0  0  0  0  0  0  0  0  0
    2.6046   -9.2889    0.0000 H    0  0  0  0  0  0  0  0  0  0  0  0
    2.6046  -13.2889    0.0000 H    0  0  0  0  0  0  0  0  0  0  0  0
    3.5614   -2.3787    0.0000 C    0  0  0  0  0  0  0  0  0  0  0  0
    4.3322   -3.4684    0.0000 N    0  0  0  0  0  0  0  0  0  0  0  0
    3.5614   -4.5448    0.0000 C    0  0  0  0  0  0  0  0  0  0  0  0
    2.2990   -4.1196    0.0000 C    0  0  0  0  0  0  0  0  0  0  0  0
    1.1561   -4.7973    0.0000 C    0  0  0  0  0  0  0  0  0  0  0  0
    0.0000   -4.1196    0.0000 C    0  0  0  0  0  0  0  0  0  0  0  0
    0.0000   -2.7907    0.0000 C    0  0  0  0  0  0  0  0  0  0  0  0
    1.1561   -2.1395    0.0000 C    0  0  0  0  0  0  0  0  0  0  0  0
    2.2990   -2.7907    0.0000 C    0  0  0  0  0  0  0  0  0  0  0  0
    8.3321   -1.1561    0.0000 C    0  0  0  0  0  0  0  0  0  0  0  0
    7.6943   -2.3123    0.0000 C    0  0  0  0  0  0  0  0  0  0  0  0
    6.3521   -2.3123    0.0000 C    0  0  0  0  0  0  0  0  0  0  0  0
    5.6611   -3.4684    0.0000 C    0  0  0  0  0  0  0  0  0  0  0  0
    9.6610   -1.1561    0.0000 O    0  0  0  0  0  0  0  0  0  0  0  0
    7.6943    0.0000    0.0000 O    0  5  0  0  0  0  0  0  0  0  0  0
    6.3521   -4.6112    0.0000 O    0  0  0  0  0  0  0  0  0  0  0  0
    8.3321   -3.4684    0.0000 C    0  0  0  0  0  0  0  0  0  0  0  0
    9.6610   -3.4684    0.0000 C    0  0  0  0  0  0  0  0  0  0  0  0
   10.3520   -4.6112    0.0000 C    0  0  0  0  0  0  0  0  0  0  0  0
   11.6809   -4.6112    0.0000 C    0  0  0  0  0  0  0  0  0  0  0  0
   12.3321   -3.4684    0.0000 C    0  0  0  0  0  0  0  0  0  0  0  0
   11.6809   -2.3123    0.0000 C    0  0  0  0  0  0  0  0  0  0  0  0
   10.3520   -2.3123    0.0000 C    0  0  0  0  0  0  0  0  0  0  0  0
    2.2990   -1.4618    0.0000 H    0  0  0  0  0  0  0  0  0  0  0  0
    2.2990   -5.4617    0.0000 H    0  0  0  0  0  0  0  0  0  0  0  0
  4  5  1  0  0  0  0
  4 12  1  0  0  0  0
  5  6  1  0  0  0  0
  5 16  1  0  0  0  0
  6  7  1  0  0  0  0
  7  8  1  0  0  0  0
  7 12  1  0  0  0  0
  7 28  1  6  0  0  0
  8  9  1  0  0  0  0
  9 10  1  0  0  0  0
 10 11  1  0  0  0  0
 11 12  1  0  0  0  0
 12 27  1  6  0  0  0
 14 13  1  1  0  0  0
 13 17  2  0  0  0  0
 13 18  1  0  0  0  0
 14 15  1  0  0  0  0
 14 20  1  0  0  0  0
 15 16  1  0  0  0  0
 16 19  2  0  0  0  0
 20 21  1  0  0  0  0
 21 22  1  0  0  0  0
 21 26  2  0  0  0  0
 22 23  2  0  0  0  0
 23 24  1  0  0  0  0
 24 25  2  0  0  0  0
 25 26  1  0  0  0  0
 29 30  1  0  0  0  0
 29 37  1  0  0  0  0
 30 31  1  0  0  0  0
 30 41  1  0  0  0  0
 31 32  1  0  0  0  0
 32 33  1  0  0  0  0
 32 37  1  0  0  0  0
 32 53  1  6  0  0  0
 33 34  1  0  0  0  0
 34 35  1  0  0  0  0
 35 36  1  0  0  0  0
 36 37  1  0  0  0  0
 37 52  1  6  0  0  0
 39 38  1  1  0  0  0
 38 42  2  0  0  0  0
 38 43  1  0  0  0  0
 39 40  1  0  0  0  0
 39 45  1  0  0  0  0
 40 41  1  0  0  0  0
 41 44  2  0  0  0  0
 45 46  1  0  0  0  0
 46 47  1  0  0  0  0
 46 51  2  0  0  0  0
 47 48  2  0  0  0  0
 48 49  1  0  0  0  0
 49 50  2  0  0  0  0
 50 51  1  0  0  0  0
M  END
> <ID>
11922

> <Formula>
C38H52CaN2O8

> <FW>
704.9061 (18.0153+18.0153+40.0769+314.3993+314.3993)

> <DSSTox_CID>
26728

> <DSSTox_RID>
81858

> <DSSTox_GSID>
46728

> <DSSTox_FileID_Sort>
6539

> <TS_ChemName>
Mitiglinide calcium dihydrate

> <TS_ChemName_Synonyms>


> <TS_CASRN>
207844-01-7

> <CASRN_ChemName_Relationship>
primary

> <TS_Description>
single chemical compound

> <ChemNote>
absolute stereochem; rotation (-); parent [145375-43-5]

> <STRUCTURE_Shown>
tested chemical

> <STRUCTURE_Formula>
C38H52CaN2O8

> <STRUCTURE_MW>
704.9061

> <STRUCTURE_ChemType>
defined organic

> <STRUCTURE_DefinedOrganicForm>
salt

> <STRUCTURE_IUPAC>
calcium (2S)-2-benzyl-4-[(3aR,7aS)-octahydro-2H-isoindol-2-yl]-4-oxobutanoate hydrate (1:2:2)

> <STRUCTURE_SMILES>
[Ca+2].O.O.[O-]C(=O)[C@@H](Cc1ccccc1)CC(=O)N2C[C@@H]3CCCC[C@@H]3C2.[O-]C(=O)[C@@H](Cc1ccccc1)CC(=O)N2C[C@@H]3CCCC[C@@H]3C2

> <STRUCTURE_SMILES_Desalt>
O=C(O)[C@@H](Cc1ccccc1)CC(=O)N2C[C@@H]3CCCC[C@@H]3C2

> <Substance_modify_yyyymmdd>
20110804

$$$$
