20780-48-7
ChemmineR-0915142007XD

 14 13  0  0  0  0  0  0  0  0  1 V2000
    0.0000   -3.3303    0.0000 C   0  0  0  0  0  0  0  0  0  0  0  0
    1.1478   -3.9931    0.0000 C   0  0  0  0  0  0  0  0  0  0  0  0
    2.2956   -3.3303    0.0000 C   0  0  0  0  0  0  0  0  0  0  0  0
    3.4434   -3.9931    0.0000 C   0  0  0  0  0  0  0  0  0  0  0  0
    4.6074   -3.3303    0.0000 C   0  0  0  0  0  0  0  0  0  0  0  0
    5.7714   -3.9931    0.0000 C   0  0  0  0  0  0  0  0  0  0  0  0
    6.9354   -3.3303    0.0000 C   0  0  0  0  0  0  0  0  0  0  0  0
    8.0832   -3.9931    0.0000 C   0  0  0  0  0  0  0  0  0  0  0  0
    2.2956   -2.0046    0.0000 O   0  0  0  0  0  0  0  0  0  0  0  0
    2.2956   -4.6559    0.0000 C   0  0  0  0  0  0  0  0  0  0  0  0
    6.9354   -2.0046    0.0000 C   0  0  0  0  0  0  0  0  0  0  0  0
    1.1316   -1.3256    0.0000 C   0  0  0  0  0  0  0  0  0  0  0  0
    0.0000   -2.0046    0.0000 O   0  0  0  0  0  0  0  0  0  0  0  0
    1.1316    0.0000    0.0000 C   0  0  0  0  0  0  0  0  0  0  0  0
  1  2  1  0  0  0  0
  2  3  1  0  0  0  0
  3  4  1  0  0  0  0
  3  9  1  0  0  0  0
  3 10  1  0  0  0  0
  4  5  1  0  0  0  0
  5  6  1  0  0  0  0
  6  7  1  0  0  0  0
  7  8  1  0  0  0  0
  7 11  1  0  0  0  0
  9 12  1  0  0  0  0
 12 13  2  0  0  0  0
 12 14  1  0  0  0  0
M  END
> <ID>
8453

> <Formula>
C12H24O2

> <FW>
200.3178

> <DSSTox_CID>
21487

> <DSSTox_RID>
79748

> <DSSTox_GSID>
41487

> <DSSTox_FileID_Sort>
4430

> <TS_ChemName>
3,7-Dimethyloctan-3-yl acetate

> <TS_ChemName_Synonyms>


> <TS_CASRN>
20780-48-7

> <CASRN_ChemName_Relationship>
primary

> <TS_Description>
single chemical compound

> <ChemNote>


> <STRUCTURE_Shown>
tested chemical

> <STRUCTURE_Formula>
C12H24O2

> <STRUCTURE_MW>
200.3178

> <STRUCTURE_ChemType>
defined organic

> <STRUCTURE_DefinedOrganicForm>
parent

> <STRUCTURE_IUPAC>
3,7-dimethyloctan-3-yl acetate

> <STRUCTURE_SMILES>
O=C(C)OC(C)(CCCC(C)C)CC

> <STRUCTURE_SMILES_Desalt>
O=C(C)OC(C)(CCCC(C)C)CC

> <Substance_modify_yyyymmdd>
20080825

$$$$
