207801-27-2
ChemmineR-0915142007XD

 29 32  0  0  1  0  0  0  0  0  1 V2000
    2.3318   -4.6269    0.0000 O   0  0  0  0  0  0  0  0  0  0  0  0
    4.4075   -1.8928    0.0000 C   0  0  0  0  0  0  0  0  0  0  0  0
    4.4075   -0.7955    0.0000 C   0  0  0  0  0  0  0  0  0  0  0  0
    3.3650   -2.5695    0.0000 N   0  0  0  0  0  0  0  0  0  0  0  0
    5.6328   -2.7067    0.0000 C   0  0  0  0  0  0  0  0  0  0  0  0
    6.7392   -4.7550    0.0000 C   0  0  0  0  0  0  0  0  0  0  0  0
    6.7392   -2.0209    0.0000 N   0  0  0  0  0  0  0  0  0  0  0  0
    6.7392   -6.1540    0.0000 C   0  0  0  0  0  0  0  0  0  0  0  0
    5.6328   -4.0966    0.0000 C   0  0  0  0  0  0  0  0  0  0  0  0
    2.3318   -0.7955    0.0000 C   0  0  0  0  0  0  0  0  0  0  0  0
    2.3318   -1.8928    0.0000 C   0  0  0  0  0  0  0  0  0  0  0  0
    7.9371   -4.0600    0.0000 C   0  0  0  0  0  0  0  0  0  0  0  0
    5.7334   -6.8490    0.0000 C   0  0  0  0  0  0  0  0  0  0  0  0
    7.9371   -2.6701    0.0000 C   0  0  0  0  0  0  0  0  0  0  0  0
    5.5505   -0.0549    0.0000 C   0  0  0  0  0  0  0  0  0  0  0  0
    6.7392   -0.7498    0.0000 C   0  0  0  0  0  0  0  0  0  0  0  0
    7.9371   -6.8124    0.0000 C   0  0  0  0  0  0  0  0  0  0  0  0
    5.7334   -7.8365    0.0000 O   0  0  0  0  0  0  0  0  0  0  0  0
    9.1442   -4.7275    0.0000 C   0  0  0  0  0  0  0  0  0  0  0  0
    9.1442   -6.1174    0.0000 C   0  0  0  0  0  0  0  0  0  0  0  0
    4.8190   -6.3826    0.0000 O   0  0  0  0  0  0  0  0  0  0  0  0
    7.8823   -7.9554    0.0000 O   0  0  0  0  0  0  0  0  0  0  0  0
    1.1247    0.0000    0.0000 C   0  0  0  0  0  0  0  0  0  0  0  0
    1.1796   -2.7067    0.0000 C   0  0  0  0  0  0  0  0  0  0  0  0
    0.0000   -0.6675    0.0000 C   0  0  0  0  0  0  0  0  0  0  0  0
    0.0000   -2.0209    0.0000 C   0  0  0  0  0  0  0  0  0  0  0  0
    5.6328   -1.3625    0.0000 H   0  0  0  0  0  0  0  0  0  0  0  0
    6.7392   -3.4199    0.0000 H   0  0  0  0  0  0  0  0  0  0  0  0
    7.9371   -5.4042    0.0000 H   0  0  0  0  0  0  0  0  0  0  0  0
  2  3  2  0  0  0  0
  2  4  1  0  0  0  0
  2  5  1  0  0  0  0
  3 10  1  0  0  0  0
  3 15  1  0  0  0  0
  4 11  1  0  0  0  0
  5  7  1  0  0  0  0
  5  9  1  0  0  0  0
  5 27  1  6  0  0  0
  6  9  1  0  0  0  0
  6  8  1  0  0  0  0
  6 12  1  0  0  0  0
  6 28  1  6  0  0  0
  7 14  1  0  0  0  0
  7 16  1  0  0  0  0
  8 13  1  6  0  0  0
  8 17  1  0  0  0  0
 10 23  1  0  0  0  0
 10 11  2  0  0  0  0
 11 24  1  0  0  0  0
 12 19  1  0  0  0  0
 12 14  1  0  0  0  0
 12 29  1  1  0  0  0
 13 18  2  0  0  0  0
 13 21  1  0  0  0  0
 15 16  1  0  0  0  0
 17 22  1  6  0  0  0
 17 20  1  0  0  0  0
 19 20  1  0  0  0  0
 23 25  2  0  0  0  0
 24 26  2  0  0  0  0
 25 26  1  0  0  0  0
M  END
> <ID>
11042

> <Formula>
C20H26N2O4

> <FW>
358.4314 (18.0153+340.4162)

> <DSSTox_CID>
25578

> <DSSTox_RID>
80974

> <DSSTox_GSID>
45578

> <DSSTox_FileID_Sort>
5655

> <TS_ChemName>
Yohimbic acid monohydrate

> <TS_ChemName_Synonyms>


> <TS_CASRN>
207801-27-2

> <CASRN_ChemName_Relationship>
primary

> <TS_Description>
single chemical compound

> <ChemNote>
stereochem; parent [522-87-2]

> <STRUCTURE_Shown>
tested chemical

> <STRUCTURE_Formula>
C20H26N2O4

> <STRUCTURE_MW>
358.4314

> <STRUCTURE_ChemType>
defined organic

> <STRUCTURE_DefinedOrganicForm>
complex

> <STRUCTURE_IUPAC>
(16alpha,17alpha)-17-hydroxyyohimban-16-carboxylic acid hydrate (1:1)

> <STRUCTURE_SMILES>
O.O=C(O)[C@H]2[C@@H](O)CC[C@H]3CN4CCc1c5ccccc5nc1[C@@H]4C[C@H]23

> <STRUCTURE_SMILES_Desalt>
O=C(O)[C@H]2[C@@H](O)CC[C@H]3CN4CCc1c5ccccc5nc1[C@@H]4C[C@H]23

> <Substance_modify_yyyymmdd>
20100107

$$$$
