2079-89-2
ChemmineR-0915142007XD

 18 15  0  0  0  0  0  0  0  0  1 V2000
   10.5150   -4.5675    0.0000 N   0  0  0  0  0  0  0  0  0  0  0  0
    9.1787   -4.5675    0.0000 C   0  0  0  0  0  0  0  0  0  0  0  0
    8.5215   -5.7175    0.0000 C   0  0  0  0  0  0  0  0  0  0  0  0
    7.1852   -5.7175    0.0000 C   0  0  0  0  0  0  0  0  0  0  0  0
    5.8599   -5.7175    0.0000 N   0  0  0  0  0  0  0  0  0  0  0  0
    4.6551   -4.5675    0.0000 N   0  0  0  0  0  0  0  0  0  0  0  0
    3.3297   -4.5675    0.0000 C   0  0  0  0  0  0  0  0  0  0  0  0
    2.6616   -5.7175    0.0000 C   0  0  0  0  0  0  0  0  0  0  0  0
    1.3363   -5.7175    0.0000 C   0  0  0  0  0  0  0  0  0  0  0  0
    0.0000   -5.7175    0.0000 N   0  0  0  0  0  0  0  0  0  0  0  0
   10.9531   -1.9935    0.0000 O   0  0  0  0  0  0  0  0  0  0  0  0
    9.8030   -1.3253    0.0000 C   0  0  0  0  0  0  0  0  0  0  0  0
    9.8030    0.0000    0.0000 O   0  0  0  0  0  0  0  0  0  0  0  0
    8.6530   -1.9935    0.0000 C   0  0  0  0  0  0  0  0  0  0  0  0
    7.4919   -1.3253    0.0000 C   0  0  0  0  0  0  0  0  0  0  0  0
    6.3419   -1.9935    0.0000 C   0  0  0  0  0  0  0  0  0  0  0  0
    5.1918   -1.3253    0.0000 O   0  0  0  0  0  0  0  0  0  0  0  0
    6.3419   -3.3188    0.0000 O   0  0  0  0  0  0  0  0  0  0  0  0
  1  2  1  0  0  0  0
  2  3  1  0  0  0  0
  3  4  1  0  0  0  0
  4  5  3  0  0  0  0
  6  7  1  0  0  0  0
  7  8  1  0  0  0  0
  8  9  1  0  0  0  0
  9 10  3  0  0  0  0
 11 12  1  0  0  0  0
 12 13  2  0  0  0  0
 12 14  1  0  0  0  0
 14 15  2  0  0  0  0
 15 16  1  0  0  0  0
 16 17  1  0  0  0  0
 16 18  2  0  0  0  0
M  END
> <ID>
11163

> <Formula>
C10H16N4O4

> <FW>
256.2584 (70.0931+70.0931+116.0722)

> <DSSTox_CID>
25751

> <DSSTox_RID>
81095

> <DSSTox_GSID>
45751

> <DSSTox_FileID_Sort>
5776

> <TS_ChemName>
3-Aminopropionitrile fumarate

> <TS_ChemName_Synonyms>


> <TS_CASRN>
2079-89-2

> <CASRN_ChemName_Relationship>
primary

> <TS_Description>
single chemical compound

> <ChemNote>
parent [151-18-8]

> <STRUCTURE_Shown>
tested chemical

> <STRUCTURE_Formula>
C10H16N4O4

> <STRUCTURE_MW>
256.2584

> <STRUCTURE_ChemType>
defined organic

> <STRUCTURE_DefinedOrganicForm>
salt

> <STRUCTURE_IUPAC>
3-aminopropanenitrile (2E)-but-2-enedioate (2:1)

> <STRUCTURE_SMILES>
NCCC#N.O=C(O)/C=C/C(=O)O.N#CCCN

> <STRUCTURE_SMILES_Desalt>
O=C(O)/C=C/C(=O)O

> <Substance_modify_yyyymmdd>
20110826

$$$$
