208-96-8
ChemmineR-0915142007XD

 12 14  0  0  0  0  0  0  0  0  1 V2000
    1.4108    0.0000    0.0000 C   0  0  0  0  0  0  0  0  0  0  0  0
    3.0822    0.0000    0.0000 C   0  0  0  0  0  0  0  0  0  0  0  0
    2.2465   -1.9365    0.0000 C   0  0  0  0  0  0  0  0  0  0  0  0
    3.3698   -1.2850    0.0000 C   0  0  0  0  0  0  0  0  0  0  0  0
    1.1233   -1.2850    0.0000 C   0  0  0  0  0  0  0  0  0  0  0  0
    2.2465   -3.2485    0.0000 C   0  0  0  0  0  0  0  0  0  0  0  0
    0.0000   -3.2485    0.0000 C   0  0  0  0  0  0  0  0  0  0  0  0
    4.4930   -3.2485    0.0000 C   0  0  0  0  0  0  0  0  0  0  0  0
    0.0000   -1.9365    0.0000 C   0  0  0  0  0  0  0  0  0  0  0  0
    4.4930   -1.9365    0.0000 C   0  0  0  0  0  0  0  0  0  0  0  0
    3.3698   -3.8955    0.0000 C   0  0  0  0  0  0  0  0  0  0  0  0
    1.1233   -3.8955    0.0000 C   0  0  0  0  0  0  0  0  0  0  0  0
  1  2  2  0  0  0  0
  1  5  1  0  0  0  0
  2  4  1  0  0  0  0
  3  5  2  0  0  0  0
  3  6  1  0  0  0  0
  3  4  1  0  0  0  0
  4 10  2  0  0  0  0
  5  9  1  0  0  0  0
  6 11  1  0  0  0  0
  6 12  2  0  0  0  0
  7  9  2  0  0  0  0
  7 12  1  0  0  0  0
  8 10  1  0  0  0  0
  8 11  2  0  0  0  0
M  END
> <ID>
3386

> <Formula>
C12H8

> <FW>
152.1919

> <DSSTox_CID>
3845

> <DSSTox_RID>
77204

> <DSSTox_GSID>
23845

> <DSSTox_FileID_Sort>
1887

> <TS_ChemName>
Acenaphthylene

> <TS_ChemName_Synonyms>


> <TS_CASRN>
208-96-8

> <CASRN_ChemName_Relationship>
primary

> <TS_Description>
single chemical compound

> <ChemNote>


> <STRUCTURE_Shown>
tested chemical

> <STRUCTURE_Formula>
C12H8

> <STRUCTURE_MW>
152.1919

> <STRUCTURE_ChemType>
defined organic

> <STRUCTURE_DefinedOrganicForm>
parent

> <STRUCTURE_IUPAC>
acenaphthylene

> <STRUCTURE_SMILES>
c1cc2cccc3C=Cc(c1)c23

> <STRUCTURE_SMILES_Desalt>
c1cc2cccc3C=Cc(c1)c23

> <Substance_modify_yyyymmdd>
20080429

$$$$
