2081-08-5
ChemmineR-0915142007XD

 16 17  0  0  0  0  0  0  0  0  1 V2000
    1.1509   -3.3145    0.0000 C   0  0  0  0  0  0  0  0  0  0  0  0
    0.0000   -3.9866    0.0000 O   0  0  0  0  0  0  0  0  0  0  0  0
    1.1509   -1.9887    0.0000 C   0  0  0  0  0  0  0  0  0  0  0  0
    2.3017   -3.9866    0.0000 C   0  0  0  0  0  0  0  0  0  0  0  0
    3.4618   -3.3145    0.0000 C   0  0  0  0  0  0  0  0  0  0  0  0
    2.3017   -1.3258    0.0000 C   0  0  0  0  0  0  0  0  0  0  0  0
    3.4618   -1.9887    0.0000 C   0  0  0  0  0  0  0  0  0  0  0  0
    8.0560   -3.3145    0.0000 C   0  0  0  0  0  0  0  0  0  0  0  0
    9.2068   -3.9866    0.0000 O   0  0  0  0  0  0  0  0  0  0  0  0
    6.9051   -3.9866    0.0000 C   0  0  0  0  0  0  0  0  0  0  0  0
    8.0560   -1.9887    0.0000 C   0  0  0  0  0  0  0  0  0  0  0  0
    6.9051   -1.3258    0.0000 C   0  0  0  0  0  0  0  0  0  0  0  0
    5.7451   -3.3145    0.0000 C   0  0  0  0  0  0  0  0  0  0  0  0
    5.7451   -1.9887    0.0000 C   0  0  0  0  0  0  0  0  0  0  0  0
    4.6126   -1.3258    0.0000 C   0  0  0  0  0  0  0  0  0  0  0  0
    4.6126    0.0000    0.0000 C   0  0  0  0  0  0  0  0  0  0  0  0
  1  2  1  0  0  0  0
  1  3  2  0  0  0  0
  1  4  1  0  0  0  0
  3  6  1  0  0  0  0
  4  5  2  0  0  0  0
  5  7  1  0  0  0  0
  6  7  2  0  0  0  0
  7 15  1  0  0  0  0
  8  9  1  0  0  0  0
  8 10  2  0  0  0  0
  8 11  1  0  0  0  0
 10 13  1  0  0  0  0
 11 12  2  0  0  0  0
 12 14  1  0  0  0  0
 13 14  2  0  0  0  0
 14 15  1  0  0  0  0
 15 16  1  0  0  0  0
M  END
> <ID>
12966

> <Formula>
C14H14O2

> <FW>
214.2598

> <DSSTox_CID>
27867

> <DSSTox_RID>
82620

> <DSSTox_GSID>
47891

> <DSSTox_FileID_Sort>
7297

> <TS_ChemName>
Bisphenol E

> <TS_ChemName_Synonyms>
Bisphenol E (Phenol, 4,4'-ethylidenebis-)

> <TS_CASRN>
2081-08-5

> <CASRN_ChemName_Relationship>
primary

> <TS_Description>
single chemical compound

> <ChemNote>


> <STRUCTURE_Shown>
tested chemical

> <STRUCTURE_Formula>
C14H14O2

> <STRUCTURE_MW>
214.2598

> <STRUCTURE_ChemType>
defined organic

> <STRUCTURE_DefinedOrganicForm>
parent

> <STRUCTURE_IUPAC>
4,4'-ethane-1,1-diyldiphenol

> <STRUCTURE_SMILES>
CC(c1ccc(O)cc1)c2ccc(O)cc2

> <STRUCTURE_SMILES_Desalt>
CC(c1ccc(O)cc1)c2ccc(O)cc2

> <Substance_modify_yyyymmdd>


$$$$
