2082-81-7
ChemmineR-0915142007XD

 16 15  0  0  0  0  0  0  0  0  1 V2000
    4.6007   -2.0152    0.0000 C   0  0  0  0  0  0  0  0  0  0  0  0
    5.7541   -1.3561    0.0000 C   0  0  0  0  0  0  0  0  0  0  0  0
    6.8948   -2.0152    0.0000 C   0  0  0  0  0  0  0  0  0  0  0  0
    8.0481   -1.3561    0.0000 C   0  0  0  0  0  0  0  0  0  0  0  0
    9.2268   -2.0152    0.0000 O   0  0  0  0  0  0  0  0  0  0  0  0
    3.4474   -1.3561    0.0000 O   0  0  0  0  0  0  0  0  0  0  0  0
    2.2940   -2.0279    0.0000 C   0  0  0  0  0  0  0  0  0  0  0  0
   10.3675   -1.3435    0.0000 C   0  0  0  0  0  0  0  0  0  0  0  0
    1.1407   -1.3688    0.0000 C   0  0  0  0  0  0  0  0  0  0  0  0
    2.3067   -3.3587    0.0000 O   0  0  0  0  0  0  0  0  0  0  0  0
   11.5209   -1.9899    0.0000 C   0  0  0  0  0  0  0  0  0  0  0  0
   10.3675    0.0000    0.0000 O   0  0  0  0  0  0  0  0  0  0  0  0
   11.5335   -3.3206    0.0000 C   0  0  0  0  0  0  0  0  0  0  0  0
   12.6742   -1.3181    0.0000 C   0  0  0  0  0  0  0  0  0  0  0  0
    1.1407   -0.0380    0.0000 C   0  0  0  0  0  0  0  0  0  0  0  0
    0.0000   -2.0279    0.0000 C   0  0  0  0  0  0  0  0  0  0  0  0
  1  2  1  0  0  0  0
  1  6  1  0  0  0  0
  2  3  1  0  0  0  0
  3  4  1  0  0  0  0
  4  5  1  0  0  0  0
  5  8  1  0  0  0  0
  6  7  1  0  0  0  0
  7  9  1  0  0  0  0
  7 10  2  0  0  0  0
  8 11  1  0  0  0  0
  8 12  2  0  0  0  0
  9 15  2  0  0  0  0
  9 16  1  0  0  0  0
 11 13  2  0  0  0  0
 11 14  1  0  0  0  0
M  END
> <ID>
10517

> <Formula>
C12H18O4

> <FW>
226.2689

> <DSSTox_CID>
24870

> <DSSTox_RID>
80545

> <DSSTox_GSID>
44870

> <DSSTox_FileID_Sort>
5227

> <TS_ChemName>
Butane-1,4-diyl bis(2-methylprop-2-enoate)

> <TS_ChemName_Synonyms>
Butane-1,4-diyl bis(2-methylprop-2-enoate) (2-Propenoic acid, 2-methyl-, 1,4-butanediyl ester)

> <TS_CASRN>
2082-81-7

> <CASRN_ChemName_Relationship>
primary

> <TS_Description>
single chemical compound

> <ChemNote>


> <STRUCTURE_Shown>
tested chemical

> <STRUCTURE_Formula>
C12H18O4

> <STRUCTURE_MW>
226.2689

> <STRUCTURE_ChemType>
defined organic

> <STRUCTURE_DefinedOrganicForm>
parent

> <STRUCTURE_IUPAC>
butane-1,4-diyl bis(2-methylprop-2-enoate)

> <STRUCTURE_SMILES>
O=C(OCCCCOC(=O)C(=C)C)C(=C)C

> <STRUCTURE_SMILES_Desalt>
O=C(OCCCCOC(=O)C(=C)C)C(=C)C

> <Substance_modify_yyyymmdd>
20091116

$$$$
