20830-81-3
ChemmineR-0915142007XD

 38 42  0  0  1  0  0  0  0  0  1 V2000
    3.8533   -9.5826    0.0000 C   0  0  0  0  0  0  0  0  0  0  0  0
    3.0041   -8.5685    0.0000 C   0  0  0  0  0  0  0  0  0  0  0  0
    1.6858   -8.7967    0.0000 O   0  0  0  0  0  0  0  0  0  0  0  0
    3.4604   -7.3137    0.0000 C   0  0  0  0  0  0  0  0  0  0  0  0
    2.1421   -7.0855    0.0000 O   0  0  0  0  0  0  0  0  0  0  0  0
    3.4604   -5.9828    0.0000 C   0  0  0  0  0  0  0  0  0  0  0  0
    4.6138   -5.3110    0.0000 C   0  0  0  0  0  0  0  0  0  0  0  0
    4.6138   -3.9927    0.0000 O   0  0  0  0  0  0  0  0  0  0  0  0
    3.4604   -3.3209    0.0000 C   0  0  0  0  0  0  0  0  0  0  0  0
    2.3069   -3.9927    0.0000 C   0  0  0  0  0  0  0  0  0  0  0  0
    1.1535   -3.3209    0.0000 C   0  0  0  0  0  0  0  0  0  0  0  0
    0.0000   -3.9927    0.0000 N   0  0  0  0  0  0  0  0  0  0  0  0
    1.1535   -1.9900    0.0000 C   0  0  0  0  0  0  0  0  0  0  0  0
    0.0000   -1.3309    0.0000 O   0  0  0  0  0  0  0  0  0  0  0  0
    2.3069   -1.3309    0.0000 C   0  0  0  0  0  0  0  0  0  0  0  0
    2.3069    0.0000    0.0000 C   0  0  0  0  0  0  0  0  0  0  0  0
    3.4604   -1.9900    0.0000 O   0  0  0  0  0  0  0  0  0  0  0  0
    5.7673   -5.9828    0.0000 C   0  0  0  0  0  0  0  0  0  0  0  0
    6.9081   -5.3110    0.0000 C   0  0  0  0  0  0  0  0  0  0  0  0
    6.9081   -3.9927    0.0000 O   0  0  0  0  0  0  0  0  0  0  0  0
    8.0615   -5.9828    0.0000 C   0  0  0  0  0  0  0  0  0  0  0  0
    9.2150   -5.3110    0.0000 C   0  0  0  0  0  0  0  0  0  0  0  0
    9.2150   -3.9927    0.0000 O   0  0  0  0  0  0  0  0  0  0  0  0
   10.3684   -5.9828    0.0000 C   0  0  0  0  0  0  0  0  0  0  0  0
   11.5219   -5.3110    0.0000 C   0  0  0  0  0  0  0  0  0  0  0  0
   11.5219   -3.9927    0.0000 O   0  0  0  0  0  0  0  0  0  0  0  0
   12.6754   -3.3209    0.0000 C   0  0  0  0  0  0  0  0  0  0  0  0
   12.6754   -5.9828    0.0000 C   0  0  0  0  0  0  0  0  0  0  0  0
   12.6754   -7.3137    0.0000 C   0  0  0  0  0  0  0  0  0  0  0  0
   11.5219   -7.9728    0.0000 C   0  0  0  0  0  0  0  0  0  0  0  0
   10.3684   -7.3137    0.0000 C   0  0  0  0  0  0  0  0  0  0  0  0
    9.2150   -7.9728    0.0000 C   0  0  0  0  0  0  0  0  0  0  0  0
    9.2150   -9.3037    0.0000 O   0  0  0  0  0  0  0  0  0  0  0  0
    8.0615   -7.3137    0.0000 C   0  0  0  0  0  0  0  0  0  0  0  0
    6.9081   -7.9728    0.0000 C   0  0  0  0  0  0  0  0  0  0  0  0
    6.9081   -9.3037    0.0000 O   0  0  0  0  0  0  0  0  0  0  0  0
    5.7673   -7.3137    0.0000 C   0  0  0  0  0  0  0  0  0  0  0  0
    4.6138   -7.9728    0.0000 C   0  0  0  0  0  0  0  0  0  0  0  0
  1  2  1  0  0  0  0
  2  3  2  0  0  0  0
  4  2  1  1  0  0  0
  4  5  1  6  0  0  0
  4  6  1  0  0  0  0
  4 38  1  0  0  0  0
  6  7  1  0  0  0  0
  7  8  1  6  0  0  0
  7 18  1  0  0  0  0
  9  8  1  1  0  0  0
  9 10  1  0  0  0  0
  9 17  1  0  0  0  0
 10 11  1  0  0  0  0
 11 12  1  6  0  0  0
 11 13  1  0  0  0  0
 13 14  1  6  0  0  0
 13 15  1  0  0  0  0
 15 16  1  6  0  0  0
 15 17  1  0  0  0  0
 18 19  2  0  0  0  0
 18 37  1  0  0  0  0
 19 20  1  0  0  0  0
 19 21  1  0  0  0  0
 21 22  1  0  0  0  0
 21 34  2  0  0  0  0
 22 23  2  0  0  0  0
 22 24  1  0  0  0  0
 24 25  2  0  0  0  0
 24 31  1  0  0  0  0
 25 26  1  0  0  0  0
 25 28  1  0  0  0  0
 26 27  1  0  0  0  0
 28 29  2  0  0  0  0
 29 30  1  0  0  0  0
 30 31  2  0  0  0  0
 31 32  1  0  0  0  0
 32 33  2  0  0  0  0
 32 34  1  0  0  0  0
 34 35  1  0  0  0  0
 35 36  1  0  0  0  0
 35 37  2  0  0  0  0
 37 38  1  0  0  0  0
M  END
> <ID>
2602

> <Formula>
C27H29NO10

> <FW>
527.5199

> <DSSTox_CID>
2883

> <DSSTox_RID>
76773

> <DSSTox_GSID>
22883

> <DSSTox_FileID_Sort>
1457

> <TS_ChemName>
Daunorubicin

> <TS_ChemName_Synonyms>
Daunomycin

> <TS_CASRN>
20830-81-3

> <CASRN_ChemName_Relationship>
primary

> <TS_Description>
single chemical compound

> <ChemNote>
stereochem

> <STRUCTURE_Shown>
tested chemical

> <STRUCTURE_Formula>
C27H29NO10

> <STRUCTURE_MW>
527.5199

> <STRUCTURE_ChemType>
defined organic

> <STRUCTURE_DefinedOrganicForm>
parent

> <STRUCTURE_IUPAC>
(1S,3S)-3-acetyl-3,5,12-trihydroxy-10-methoxy-6,11-dioxo-1,2,3,4,6,11-hexahydrotetracen-1-yl 3-amino-2,3,6-trideoxy-alpha-L-lyxo-hexopyranoside

> <STRUCTURE_SMILES>
CC(=O)[C@@]4(O)C[C@H](O[C@H]1C[C@H](N)[C@H](O)[C@H](C)O1)c5c(O)c3C(=O)c2c(OC)cccc2C(=O)c3c(O)c5C4

> <STRUCTURE_SMILES_Desalt>
CC(=O)[C@@]4(O)C[C@H](O[C@H]1C[C@H](N)[C@H](O)[C@H](C)O1)c5c(O)c3C(=O)c2c(OC)cccc2C(=O)c3c(O)c5C4

> <Substance_modify_yyyymmdd>
20080429

$$$$
