20830-75-5
ChemmineR-0915142007XD

 58 65  0  0  1  0  0  0  0  0  1 V2000
   13.6719   -8.9779    0.0000 O   0  0  0  0  0  0  0  0  0  0  0  0
   12.5326   -8.3399    0.0000 C   0  0  0  0  0  0  0  0  0  0  0  0
   11.3933   -8.9779    0.0000 C   0  0  0  0  0  0  0  0  0  0  0  0
   12.5326   -6.9955    0.0000 O   0  0  0  0  0  0  0  0  0  0  0  0
   10.2539   -8.3399    0.0000 C   0  0  0  0  0  0  0  0  0  0  0  0
   11.3933   -6.3574    0.0000 C   0  0  0  0  0  0  0  0  0  0  0  0
   10.2539   -6.9955    0.0000 C   0  0  0  0  0  0  0  0  0  0  0  0
    9.1146   -6.3574    0.0000 O   0  0  0  0  0  0  0  0  0  0  0  0
    7.9753   -6.9955    0.0000 C   0  0  0  0  0  0  0  0  0  0  0  0
    7.9753   -8.3399    0.0000 O   0  0  0  0  0  0  0  0  0  0  0  0
    6.8360   -6.3574    0.0000 C   0  0  0  0  0  0  0  0  0  0  0  0
    6.8360   -8.9779    0.0000 C   0  0  0  0  0  0  0  0  0  0  0  0
    5.6966   -6.9955    0.0000 C   0  0  0  0  0  0  0  0  0  0  0  0
    5.6966   -8.3399    0.0000 C   0  0  0  0  0  0  0  0  0  0  0  0
    4.5573   -8.9779    0.0000 O   0  0  0  0  0  0  0  0  0  0  0  0
    3.4180   -8.3399    0.0000 C   0  0  0  0  0  0  0  0  0  0  0  0
    2.2787   -8.9779    0.0000 C   0  0  0  0  0  0  0  0  0  0  0  0
    3.4180   -6.9955    0.0000 O   0  0  0  0  0  0  0  0  0  0  0  0
    1.1393   -8.3399    0.0000 C   0  0  0  0  0  0  0  0  0  0  0  0
    2.2787   -6.3574    0.0000 C   0  0  0  0  0  0  0  0  0  0  0  0
    1.1393   -6.9955    0.0000 C   0  0  0  0  0  0  0  0  0  0  0  0
    9.1146   -8.9779    0.0000 O   0  0  0  0  0  0  0  0  0  0  0  0
    4.5573   -6.3574    0.0000 O   0  0  0  0  0  0  0  0  0  0  0  0
    0.0000   -6.3574    0.0000 O   0  0  0  0  0  0  0  0  0  0  0  0
    0.0000   -8.9779    0.0000 O   0  0  0  0  0  0  0  0  0  0  0  0
    2.2787   -5.0586    0.0000 C   0  0  0  0  0  0  0  0  0  0  0  0
    6.8360  -10.2995    0.0000 C   0  0  0  0  0  0  0  0  0  0  0  0
   11.3933   -5.0586    0.0000 C   0  0  0  0  0  0  0  0  0  0  0  0
   14.8112   -8.3399    0.0000 C   0  0  0  0  0  0  0  0  0  0  0  0
   14.8112   -6.9955    0.0000 C   0  0  0  0  0  0  0  0  0  0  0  0
   15.9506   -8.9779    0.0000 C   0  0  0  0  0  0  0  0  0  0  0  0
   15.9506   -6.3574    0.0000 C   0  0  0  0  0  0  0  0  0  0  0  0
   17.0899   -8.3399    0.0000 C   0  0  0  0  0  0  0  0  0  0  0  0
   17.0899   -7.0183    0.0000 C   0  0  0  0  0  0  0  0  0  0  0  0
   18.2292   -8.9779    0.0000 C   0  0  0  0  0  0  0  0  0  0  0  0
   19.3686   -8.3399    0.0000 C   0  0  0  0  0  0  0  0  0  0  0  0
   18.2292   -6.3574    0.0000 C   0  0  0  0  0  0  0  0  0  0  0  0
   19.3686   -6.9955    0.0000 C   0  0  0  0  0  0  0  0  0  0  0  0
   18.2292   -5.0586    0.0000 C   0  0  0  0  0  0  0  0  0  0  0  0
   19.3686   -4.3750    0.0000 C   0  0  0  0  0  0  0  0  0  0  0  0
   20.5079   -6.3574    0.0000 C   0  0  0  0  0  0  0  0  0  0  0  0
   20.5079   -5.0586    0.0000 C   0  0  0  0  0  0  0  0  0  0  0  0
   22.7865   -6.3574    0.0000 C   0  0  0  0  0  0  0  0  0  0  0  0
   21.6472   -4.3750    0.0000 C   0  0  0  0  0  0  0  0  0  0  0  0
   22.7865   -5.0586    0.0000 C   0  0  0  0  0  0  0  0  0  0  0  0
   21.6472   -3.0762    0.0000 C   0  0  0  0  0  0  0  0  0  0  0  0
   20.5762   -2.3242    0.0000 C   0  0  0  0  0  0  0  0  0  0  0  0
   22.6954   -2.3242    0.0000 C   0  0  0  0  0  0  0  0  0  0  0  0
   20.9864   -1.0482    0.0000 C   0  0  0  0  0  0  0  0  0  0  0  0
   22.3080   -1.0482    0.0000 O   0  0  0  0  0  0  0  0  0  0  0  0
   17.0899   -5.6966    0.0000 C   0  0  0  0  0  0  0  0  0  0  0  0
   17.0899   -9.6387    0.0000 H   0  0  0  0  0  0  0  0  0  0  0  0
   18.2292   -7.7018    0.0000 H   0  0  0  0  0  0  0  0  0  0  0  0
   19.3686   -5.6738    0.0000 H   0  0  0  0  0  0  0  0  0  0  0  0
   20.5079   -7.7018    0.0000 O   0  0  0  0  0  0  0  0  0  0  0  0
   20.5079   -3.7370    0.0000 C   0  0  0  0  0  0  0  0  0  0  0  0
   20.1889    0.0000    0.0000 O   0  0  0  0  0  0  0  0  0  0  0  0
   19.3686   -3.0762    0.0000 O   0  0  0  0  0  0  0  0  0  0  0  0
  2  1  1  1  0  0  0
 29  1  1  1  0  0  0
  2  3  1  0  0  0  0
  2  4  1  0  0  0  0
  3  5  1  0  0  0  0
  4  6  1  0  0  0  0
  5  7  1  0  0  0  0
  5 22  1  6  0  0  0
  6  7  1  0  0  0  0
  6 28  1  1  0  0  0
  7  8  1  6  0  0  0
  9  8  1  6  0  0  0
  9 10  1  0  0  0  0
  9 11  1  0  0  0  0
 10 12  1  0  0  0  0
 11 13  1  0  0  0  0
 12 14  1  0  0  0  0
 12 27  1  6  0  0  0
 13 14  1  0  0  0  0
 13 23  1  1  0  0  0
 14 15  1  1  0  0  0
 16 15  1  1  0  0  0
 16 17  1  0  0  0  0
 16 18  1  0  0  0  0
 17 19  1  0  0  0  0
 18 20  1  0  0  0  0
 19 21  1  0  0  0  0
 19 25  1  6  0  0  0
 20 21  1  0  0  0  0
 20 26  1  1  0  0  0
 21 24  1  6  0  0  0
 29 30  1  0  0  0  0
 29 31  1  0  0  0  0
 30 32  1  0  0  0  0
 31 33  1  0  0  0  0
 32 34  1  0  0  0  0
 33 35  1  0  0  0  0
 33 34  1  0  0  0  0
 33 52  1  1  0  0  0
 34 37  1  0  0  0  0
 34 51  1  1  0  0  0
 35 36  1  0  0  0  0
 36 38  1  0  0  0  0
 37 39  1  0  0  0  0
 37 38  1  0  0  0  0
 37 53  1  6  0  0  0
 38 41  1  0  0  0  0
 38 54  1  1  0  0  0
 39 40  1  0  0  0  0
 40 42  1  0  0  0  0
 40 58  1  1  0  0  0
 41 43  1  0  0  0  0
 41 42  1  0  0  0  0
 41 55  1  1  0  0  0
 42 44  1  0  0  0  0
 42 56  1  1  0  0  0
 43 45  1  0  0  0  0
 44 45  1  0  0  0  0
 44 46  1  1  0  0  0
 46 47  2  0  0  0  0
 46 48  1  0  0  0  0
 47 49  1  0  0  0  0
 48 50  1  0  0  0  0
 49 50  1  0  0  0  0
 49 57  2  0  0  0  0
M  END
> <ID>
2642

> <Formula>
C41H64O14

> <FW>
780.9385

> <DSSTox_CID>
2934

> <DSSTox_RID>
76794

> <DSSTox_GSID>
22934

> <DSSTox_FileID_Sort>
1478

> <TS_ChemName>
Digoxin

> <TS_ChemName_Synonyms>


> <TS_CASRN>
20830-75-5

> <CASRN_ChemName_Relationship>
primary

> <TS_Description>
single chemical compound

> <ChemNote>
stereochem; tautomers

> <STRUCTURE_Shown>
tested chemical

> <STRUCTURE_Formula>
C41H64O14

> <STRUCTURE_MW>
780.9385

> <STRUCTURE_ChemType>
defined organic

> <STRUCTURE_DefinedOrganicForm>
parent

> <STRUCTURE_IUPAC>
(3beta,5beta,12beta)-3-{[2,6-dideoxy-beta-D-ribo-hexopyranosyl-(1->4)-2,6-dideoxy-beta-D-ribo-hexopyranosyl-(1->4)-2,6-dideoxy-beta-D-ribo-hexopyranosyl]oxy}-12,14-dihydroxycard-20(22)-enolide

> <STRUCTURE_SMILES>
O=C1C=C(CO1)[C@H]2CC[C@@]8(O)[C@]2(C)[C@H](O)C[C@H]4[C@H]8CC[C@@H]3C[C@H](CC[C@@]34C)O[C@@H]7O[C@H](C)[C@@H](O[C@H]6C[C@H](O)[C@H](O[C@H]5C[C@H](O)[C@H](O)[C@@H](C)O5)[C@@H](C)O6)[C@@H](O)C7

> <STRUCTURE_SMILES_Desalt>
O=C1C=C(CO1)[C@H]2CC[C@@]8(O)[C@]2(C)[C@H](O)C[C@H]4[C@H]8CC[C@@H]3C[C@H](CC[C@@]34C)O[C@@H]7O[C@H](C)[C@@H](O[C@H]6C[C@H](O)[C@H](O[C@H]5C[C@H](O)[C@H](O)[C@@H](C)O5)[C@@H](C)O6)[C@@H](O)C7

> <Substance_modify_yyyymmdd>
20080429

$$$$
