208993-54-8
ChemmineR-0915142007XD

 43 48  0  0  1  0  0  0  0  0  1 V2000
   11.7748   -6.4299    0.0000 N    0  0  0  0  0  0  0  0  0  0  0  0
   13.0005   -4.4206    0.0000 N    0  0  0  0  0  0  0  0  0  0  0  0
   11.7748   -5.1037    0.0000 C    0  0  0  0  0  0  0  0  0  0  0  0
   14.1458   -6.4299    0.0000 C    0  0  0  0  0  0  0  0  0  0  0  0
   13.0005   -7.0327    0.0000 C    0  0  0  0  0  0  0  0  0  0  0  0
   14.1458   -5.1037    0.0000 C    0  0  0  0  0  0  0  0  0  0  0  0
   15.3313   -6.8519    0.0000 S    0  0  0  0  0  0  0  0  0  0  0  0
   16.0747   -5.7668    0.0000 C    0  0  0  0  0  0  0  0  0  0  0  0
   15.4117   -4.6416    0.0000 C    0  0  0  0  0  0  0  0  0  0  0  0
   16.0747   -3.4963    0.0000 N    0  0  0  0  0  0  0  0  0  0  0  0
   17.4210   -5.7668    0.0000 N    0  0  0  0  0  0  0  0  0  0  0  0
   18.0841   -4.6416    0.0000 C    0  0  0  0  0  0  0  0  0  0  0  0
   17.4210   -3.4963    0.0000 C    0  0  0  0  0  0  0  0  0  0  0  0
   10.6495   -4.4206    0.0000 O    0  0  0  0  0  0  0  0  0  0  0  0
   13.0005   -8.4593    0.0000 O    0  0  0  0  0  0  0  0  0  0  0  0
   18.0841   -2.3509    0.0000 C    0  0  0  0  0  0  0  0  0  0  0  0
   17.4210   -1.2056    0.0000 C    0  0  0  0  0  0  0  0  0  0  0  0
   19.4303   -2.3509    0.0000 C    0  0  0  0  0  0  0  0  0  0  0  0
   18.0841    0.0000    0.0000 C    0  0  0  0  0  0  0  0  0  0  0  0
   20.0934   -1.2056    0.0000 C    0  0  0  0  0  0  0  0  0  0  0  0
   19.4303    0.0000    0.0000 C    0  0  0  0  0  0  0  0  0  0  0  0
   10.6495   -7.0327    0.0000 C    0  0  0  0  0  0  0  0  0  0  0  0
    9.5042   -6.4299    0.0000 C    0  0  0  0  0  0  0  0  0  0  0  0
    8.3790   -7.0327    0.0000 C    0  0  0  0  0  0  0  0  0  0  0  0
    7.2336   -6.4299    0.0000 C    0  0  0  0  0  0  0  0  0  0  0  0
    6.0883   -7.0327    0.0000 N    0  0  0  0  0  0  0  0  0  0  0  0
    4.8224   -6.5706    0.0000 C    0  0  0  0  0  0  0  0  0  0  0  0
    5.8874   -8.4593    0.0000 C    0  0  0  0  0  0  0  0  0  0  0  0
    3.9584   -7.5149    0.0000 C    0  0  0  0  0  0  0  0  0  0  0  0
    4.6215   -8.7205    0.0000 C    0  0  0  0  0  0  0  0  0  0  0  0
    2.6121   -9.8659    0.0000 O    0  0  0  0  0  0  0  0  0  0  0  0
    2.0093   -8.7205    0.0000 C    0  0  0  0  0  0  0  0  0  0  0  0
    2.6121   -7.5149    0.0000 C    0  0  0  0  0  0  0  0  0  0  0  0
    3.9584   -9.8659    0.0000 C    0  0  0  0  0  0  0  0  0  0  0  0
    0.6631   -8.7205    0.0000 C    0  0  0  0  0  0  0  0  0  0  0  0
    0.0000   -7.5149    0.0000 C    0  0  0  0  0  0  0  0  0  0  0  0
    0.6631   -6.3696    0.0000 C    0  0  0  0  0  0  0  0  0  0  0  0
    2.0093   -6.3696    0.0000 C    0  0  0  0  0  0  0  0  0  0  0  0
    2.6121   -5.2444    0.0000 O    0  0  0  0  0  0  0  0  0  0  0  0
    2.0093   -4.0991    0.0000 C    0  0  0  0  0  0  0  0  0  0  0  0
    3.9584   -6.1888    0.0000 H    0  0  0  0  0  0  0  0  0  0  0  0
    4.6215  -10.0668    0.0000 H    0  0  0  0  0  0  0  0  0  0  0  0
    8.7607   -9.4238    0.0000 Cl   0  0  0  0  0  0  0  0  0  0  0  0
  1  3  1  0  0  0  0
  1  5  1  0  0  0  0
  1 22  1  0  0  0  0
  2  3  1  0  0  0  0
  2  6  1  0  0  0  0
  3 14  2  0  0  0  0
  4  5  1  0  0  0  0
  4  6  2  0  0  0  0
  4  7  1  0  0  0  0
  5 15  2  0  0  0  0
  6  9  1  0  0  0  0
  7  8  1  0  0  0  0
  8  9  2  0  0  0  0
  8 11  1  0  0  0  0
  9 10  1  0  0  0  0
 10 13  2  0  0  0  0
 11 12  2  0  0  0  0
 12 13  1  0  0  0  0
 13 16  1  0  0  0  0
 16 17  2  0  0  0  0
 16 18  1  0  0  0  0
 17 19  1  0  0  0  0
 18 20  2  0  0  0  0
 19 21  2  0  0  0  0
 20 21  1  0  0  0  0
 22 23  1  0  0  0  0
 23 24  1  0  0  0  0
 24 25  1  0  0  0  0
 25 26  1  0  0  0  0
 26 27  1  0  0  0  0
 26 28  1  0  0  0  0
 27 29  1  0  0  0  0
 28 30  1  0  0  0  0
 29 30  1  0  0  0  0
 29 33  1  0  0  0  0
 29 41  1  1  0  0  0
 30 34  1  0  0  0  0
 30 42  1  1  0  0  0
 31 32  1  0  0  0  0
 31 34  1  0  0  0  0
 32 33  1  0  0  0  0
 32 35  2  0  0  0  0
 33 38  2  0  0  0  0
 35 36  1  0  0  0  0
 36 37  2  0  0  0  0
 37 38  1  0  0  0  0
 38 39  1  0  0  0  0
 39 40  1  0  0  0  0
M  END
> <ID>
13998

> <Formula>
C30H30ClN5O4S

> <FW>
592.1083 (555.6474+36.4609)

> <DSSTox_CID>
28939

> <DSSTox_RID>
83205

> <DSSTox_GSID>
49013

> <DSSTox_FileID_Sort>
7881

> <TS_ChemName>
Fiduxosin hydrochloride

> <TS_ChemName_Synonyms>


> <TS_CASRN>
208993-54-8

> <CASRN_ChemName_Relationship>
primary

> <TS_Description>
single chemical compound

> <ChemNote>
parent [208993-54-8]

> <STRUCTURE_Shown>
tested chemical

> <STRUCTURE_Formula>
C30H30ClN5O4S

> <STRUCTURE_MW>
592.1083

> <STRUCTURE_ChemType>
defined organic

> <STRUCTURE_DefinedOrganicForm>
complex

> <STRUCTURE_IUPAC>
3-{4-[(3aR,9bR)-9-methoxy-1,3a,4,9b-tetrahydrochromeno[3,4-c]pyrrol-2(3H)-yl]butyl}-8-phenylpyrazino[2',3':4,5]thieno[3,2-d]pyrimidine-2,4(1H,3H)-dione hydrochloride (1:1)

> <STRUCTURE_SMILES>
Cl.COc1cccc2OC[C@H]3CN(C[C@H]3c12)CCCCN5C(=O)Nc4c6nc(cnc6sc4C5=O)c7ccccc7

> <STRUCTURE_SMILES_Desalt>
COc1cccc2OC[C@H]3CN(C[C@H]3c12)CCCCN5C(=O)Nc4c6nc(cnc6sc4C5=O)c7ccccc7

> <Substance_modify_yyyymmdd>
20111204

$$$$
