2094-99-7
ChemmineR-0915142007XD

 15 15  0  0  0  0  0  0  0  0  1 V2000
    4.5990   -1.9815    0.0000 C   0  0  0  0  0  0  0  0  0  0  0  0
    4.6174   -3.2995    0.0000 C   0  0  0  0  0  0  0  0  0  0  0  0
    3.4746   -3.9723    0.0000 C   0  0  0  0  0  0  0  0  0  0  0  0
    2.3133   -3.3087    0.0000 C   0  0  0  0  0  0  0  0  0  0  0  0
    2.3133   -1.9907    0.0000 C   0  0  0  0  0  0  0  0  0  0  0  0
    3.4561   -1.3179    0.0000 C   0  0  0  0  0  0  0  0  0  0  0  0
    5.7602   -1.2995    0.0000 C   0  0  0  0  0  0  0  0  0  0  0  0
    5.0782   -0.1567    0.0000 C   0  0  0  0  0  0  0  0  0  0  0  0
    8.0551   -1.2903    0.0000 C   0  0  0  0  0  0  0  0  0  0  0  0
    6.9123   -0.6267    0.0000 N   0  0  0  0  0  0  0  0  0  0  0  0
    9.2164   -1.9447    0.0000 O   0  0  0  0  0  0  0  0  0  0  0  0
    6.4146   -2.4608    0.0000 C   0  0  0  0  0  0  0  0  0  0  0  0
    1.1428   -1.3364    0.0000 C   0  0  0  0  0  0  0  0  0  0  0  0
    1.1428    0.0000    0.0000 C   0  0  0  0  0  0  0  0  0  0  0  0
    0.0000   -2.0092    0.0000 C   0  0  0  0  0  0  0  0  0  0  0  0
  1  2  2  0  0  0  0
  1  6  1  0  0  0  0
  1  7  1  0  0  0  0
  2  3  1  0  0  0  0
  3  4  2  0  0  0  0
  4  5  1  0  0  0  0
  5  6  2  0  0  0  0
  5 13  1  0  0  0  0
  7  8  1  0  0  0  0
  7 10  1  0  0  0  0
  7 12  1  0  0  0  0
  9 10  2  0  0  0  0
  9 11  2  0  0  0  0
 13 14  2  0  0  0  0
 13 15  1  0  0  0  0
M  END
> <ID>
10518

> <Formula>
C13H15NO

> <FW>
201.2643

> <DSSTox_CID>
24871

> <DSSTox_RID>
80546

> <DSSTox_GSID>
44871

> <DSSTox_FileID_Sort>
5228

> <TS_ChemName>
1-(2-Isocyanatopropan-2-yl)-3-(prop-1-en-2-yl)benzene

> <TS_ChemName_Synonyms>
Benzene, 1-(1-isocyanato-1-methylethyl)-3-(1-methylethenyl)-

> <TS_CASRN>
2094-99-7

> <CASRN_ChemName_Relationship>
primary

> <TS_Description>
single chemical compound

> <ChemNote>


> <STRUCTURE_Shown>
tested chemical

> <STRUCTURE_Formula>
C13H15NO

> <STRUCTURE_MW>
201.2643

> <STRUCTURE_ChemType>
defined organic

> <STRUCTURE_DefinedOrganicForm>
parent

> <STRUCTURE_IUPAC>
1-(2-isocyanatopropan-2-yl)-3-(prop-1-en-2-yl)benzene

> <STRUCTURE_SMILES>
C=C(C)c1cccc(c1)C(C)(C)\N=C=O

> <STRUCTURE_SMILES_Desalt>
C=C(C)c1cccc(c1)C(C)(C)\N=C=O

> <Substance_modify_yyyymmdd>
20091116

$$$$
