2095-03-6
ChemmineR-0915142007XD

 23 26  0  0  0  0  0  0  0  0  1 V2000
    0.0000   -2.6652    0.0000 O   0  0  0  0  0  0  0  0  0  0  0  0
    1.3326   -2.6652    0.0000 C   0  0  0  0  0  0  0  0  0  0  0  0
    0.6581   -3.8168    0.0000 C   0  0  0  0  0  0  0  0  0  0  0  0
   16.4519   -2.6652    0.0000 O   0  0  0  0  0  0  0  0  0  0  0  0
   15.1193   -2.6652    0.0000 C   0  0  0  0  0  0  0  0  0  0  0  0
   15.7774   -3.8168    0.0000 C   0  0  0  0  0  0  0  0  0  0  0  0
    8.2260    0.0000    0.0000 C   0  0  0  0  0  0  0  0  0  0  0  0
   11.6644   -1.9907    0.0000 C   0  0  0  0  0  0  0  0  0  0  0  0
   11.6644   -0.6581    0.0000 C   0  0  0  0  0  0  0  0  0  0  0  0
   10.5128    0.0000    0.0000 C   0  0  0  0  0  0  0  0  0  0  0  0
    9.3776   -0.6745    0.0000 C   0  0  0  0  0  0  0  0  0  0  0  0
    9.3611   -1.9907    0.0000 C   0  0  0  0  0  0  0  0  0  0  0  0
   10.5128   -2.6652    0.0000 C   0  0  0  0  0  0  0  0  0  0  0  0
    4.7711   -1.9907    0.0000 C   0  0  0  0  0  0  0  0  0  0  0  0
    4.7711   -0.6745    0.0000 C   0  0  0  0  0  0  0  0  0  0  0  0
    5.9062    0.0000    0.0000 C   0  0  0  0  0  0  0  0  0  0  0  0
    7.0579   -0.6745    0.0000 C   0  0  0  0  0  0  0  0  0  0  0  0
    7.0579   -2.0071    0.0000 C   0  0  0  0  0  0  0  0  0  0  0  0
    5.9227   -2.6652    0.0000 C   0  0  0  0  0  0  0  0  0  0  0  0
   12.8160   -2.6652    0.0000 O   0  0  0  0  0  0  0  0  0  0  0  0
    3.6194   -2.6652    0.0000 O   0  0  0  0  0  0  0  0  0  0  0  0
   13.9677   -1.9907    0.0000 C   0  0  0  0  0  0  0  0  0  0  0  0
    2.4842   -1.9907    0.0000 C   0  0  0  0  0  0  0  0  0  0  0  0
  1  2  1  0  0  0  0
  1  3  1  0  0  0  0
  2  3  1  0  0  0  0
  2 23  1  0  0  0  0
  4  5  1  0  0  0  0
  4  6  1  0  0  0  0
  5  6  1  0  0  0  0
  5 22  1  0  0  0  0
  7 11  1  0  0  0  0
  7 17  1  0  0  0  0
  8 13  2  0  0  0  0
  8  9  1  0  0  0  0
  8 20  1  0  0  0  0
  9 10  2  0  0  0  0
 10 11  1  0  0  0  0
 11 12  2  0  0  0  0
 12 13  1  0  0  0  0
 14 19  2  0  0  0  0
 14 15  1  0  0  0  0
 14 21  1  0  0  0  0
 15 16  2  0  0  0  0
 16 17  1  0  0  0  0
 17 18  2  0  0  0  0
 18 19  1  0  0  0  0
 20 22  1  0  0  0  0
 21 23  1  0  0  0  0
M  END
> <ID>
10519

> <Formula>
C19H20O4

> <FW>
312.3597

> <DSSTox_CID>
24872

> <DSSTox_RID>
80547

> <DSSTox_GSID>
44872

> <DSSTox_FileID_Sort>
5229

> <TS_ChemName>
Bis[4-(glycidyloxy)phenyl]methane

> <TS_ChemName_Synonyms>
Bis[4-(glycidyloxy)phenyl]methane (2,2'-[Methanediylbis(benzene-4,1-diyloxymethanediyl)]dioxirane) (Oxirane, 2,2'-[methylenebis(4,1-phenyleneoxymethylene)]bis-)

> <TS_CASRN>
2095-03-6

> <CASRN_ChemName_Relationship>
primary

> <TS_Description>
single chemical compound

> <ChemNote>


> <STRUCTURE_Shown>
tested chemical

> <STRUCTURE_Formula>
C19H20O4

> <STRUCTURE_MW>
312.3597

> <STRUCTURE_ChemType>
defined organic

> <STRUCTURE_DefinedOrganicForm>
parent

> <STRUCTURE_IUPAC>
2,2'-[methanediylbis(benzene-4,1-diyloxymethanediyl)]dioxirane

> <STRUCTURE_SMILES>
c2cc(OCC1CO1)ccc2Cc4ccc(OCC3CO3)cc4

> <STRUCTURE_SMILES_Desalt>
c2cc(OCC1CO1)ccc2Cc4ccc(OCC3CO3)cc4

> <Substance_modify_yyyymmdd>
20091116

$$$$
