2100-42-7
ChemmineR-0915142007XD

 11 11  0  0  0  0  0  0  0  0  1 V2000
    4.6687   -2.2977    0.0000 C    0  0  0  0  0  0  0  0  0  0  0  0
    3.9960   -3.4499    0.0000 C    0  0  0  0  0  0  0  0  0  0  0  0
    2.6640   -3.4499    0.0000 C    0  0  0  0  0  0  0  0  0  0  0  0
    2.0047   -2.2977    0.0000 C    0  0  0  0  0  0  0  0  0  0  0  0
    2.6640   -1.1522    0.0000 C    0  0  0  0  0  0  0  0  0  0  0  0
    3.9960   -1.1522    0.0000 C    0  0  0  0  0  0  0  0  0  0  0  0
    4.6687    0.0000    0.0000 Cl   0  0  0  0  0  0  0  0  0  0  0  0
    6.0007   -2.2977    0.0000 O    0  0  0  0  0  0  0  0  0  0  0  0
    6.6601   -1.1522    0.0000 C    0  0  0  0  0  0  0  0  0  0  0  0
    0.6727   -2.2977    0.0000 O    0  0  0  0  0  0  0  0  0  0  0  0
    0.0000   -3.4499    0.0000 C    0  0  0  0  0  0  0  0  0  0  0  0
  1  2  2  0  0  0  0
  1  6  1  0  0  0  0
  1  8  1  0  0  0  0
  2  3  1  0  0  0  0
  3  4  2  0  0  0  0
  4  5  1  0  0  0  0
  4 10  1  0  0  0  0
  5  6  2  0  0  0  0
  6  7  1  0  0  0  0
  8  9  1  0  0  0  0
 10 11  1  0  0  0  0
M  END
> <ID>
8369

> <Formula>
C8H9ClO2

> <FW>
172.6089

> <DSSTox_CID>
21403

> <DSSTox_RID>
79714

> <DSSTox_GSID>
41403

> <DSSTox_FileID_Sort>
4396

> <TS_ChemName>
2-Chloro-1,4-dimethoxybenzene

> <TS_ChemName_Synonyms>


> <TS_CASRN>
2100-42-7

> <CASRN_ChemName_Relationship>
primary

> <TS_Description>
single chemical compound

> <ChemNote>


> <STRUCTURE_Shown>
tested chemical

> <STRUCTURE_Formula>
C8H9ClO2

> <STRUCTURE_MW>
172.6089

> <STRUCTURE_ChemType>
defined organic

> <STRUCTURE_DefinedOrganicForm>
parent

> <STRUCTURE_IUPAC>
2-chloro-1,4-dimethoxybenzene

> <STRUCTURE_SMILES>
COc1ccc(cc1Cl)OC

> <STRUCTURE_SMILES_Desalt>
COc1ccc(cc1Cl)OC

> <Substance_modify_yyyymmdd>
20080825

$$$$
