21030-42-2_1
ChemmineR-0915142007XD

 23 24  0  0  1  0  0  0  0  0  1 V2000
    1.5999   -2.2549    0.0000 C    0  0  0  0  0  0  0  0  0  0  0  0
    3.3215   -3.5461    0.0000 C    0  0  0  0  0  0  0  0  0  0  0  0
    2.4888   -2.8537    0.0000 C    0  0  0  0  0  0  0  0  0  0  0  0
    0.9076   -2.8537    0.0000 C    0  0  0  0  0  0  0  0  0  0  0  0
    0.6737   -1.5344    0.0000 N    0  0  0  0  0  0  0  0  0  0  0  0
    3.0970   -2.2736    0.0000 C    0  0  0  0  0  0  0  0  0  0  0  0
    0.0655   -4.0139    0.0000 C    0  0  0  0  0  0  0  0  0  0  0  0
    1.0666   -3.4057    0.0000 C    0  0  0  0  0  0  0  0  0  0  0  0
    0.0000   -0.3836    0.0000 C    0  0  0  0  0  0  0  0  0  0  0  0
    4.0045   -4.7063    0.0000 O    0  0  0  0  0  0  0  0  0  0  0  0
    3.9671   -1.2538    0.0000 C    0  0  0  0  0  0  0  0  0  0  0  0
    3.3215   -5.8758    0.0000 C    0  0  0  0  0  0  0  0  0  0  0  0
    4.0045   -7.0360    0.0000 C    0  0  0  0  0  0  0  0  0  0  0  0
    1.9836   -5.8758    0.0000 O    0  0  0  0  0  0  0  0  0  0  0  0
    6.0162   -8.1775    0.0000 C    0  0  0  0  0  0  0  0  0  0  0  0
    5.3425   -9.3377    0.0000 C    0  0  0  0  0  0  0  0  0  0  0  0
    5.3425   -7.0360    0.0000 C    0  0  0  0  0  0  0  0  0  0  0  0
    4.0045   -9.3564    0.0000 C    0  0  0  0  0  0  0  0  0  0  0  0
    3.3402   -8.1962    0.0000 C    0  0  0  0  0  0  0  0  0  0  0  0
    5.2957   -1.4970    0.0000 O    0  0  0  0  0  0  0  0  0  0  0  0
    3.5180    0.0000    0.0000 O    0  0  0  0  0  0  0  0  0  0  0  0
    6.1472   -0.4865    0.0000 C    0  0  0  0  0  0  0  0  0  0  0  0
    5.4174   -3.2560    0.0000 Cl   0  0  0  0  0  0  0  0  0  0  0  0
  1  5  1  1  0  0  0
  1  6  1  0  0  0  0
  1  8  1  0  0  0  0
  2  3  1  0  0  0  0
  2  6  1  0  0  0  0
  2 10  1  6  0  0  0
  3  4  1  0  0  0  0
  4  5  1  6  0  0  0
  4  7  1  0  0  0  0
  5  9  1  0  0  0  0
  6 11  1  1  0  0  0
  7  8  1  0  0  0  0
 10 12  1  0  0  0  0
 11 20  1  0  0  0  0
 11 21  2  0  0  0  0
 12 13  1  0  0  0  0
 12 14  2  0  0  0  0
 13 17  1  0  0  0  0
 13 19  2  0  0  0  0
 15 16  1  0  0  0  0
 15 17  2  0  0  0  0
 16 18  2  0  0  0  0
 18 19  1  0  0  0  0
 20 22  1  0  0  0  0
M  END
> <ID>
11382

> <Formula>
C17H22ClNO4

> <FW>
339.8139 (303.3529+36.4609)

> <DSSTox_CID>
26063

> <DSSTox_RID>
81314

> <DSSTox_GSID>
46063

> <DSSTox_FileID_Sort>
5995

> <TS_ChemName>
Allococaine hydrochloride

> <TS_ChemName_Synonyms>


> <TS_CASRN>
21030-42-2_1

> <CASRN_ChemName_Relationship>
CAS for parent

> <TS_Description>
single chemical compound

> <ChemNote>
relative stereochem; parent [21030-42-2]

> <STRUCTURE_Shown>
tested chemical

> <STRUCTURE_Formula>
C17H22ClNO4

> <STRUCTURE_MW>
339.8139

> <STRUCTURE_ChemType>
defined organic

> <STRUCTURE_DefinedOrganicForm>
complex

> <STRUCTURE_IUPAC>
methyl (1R,2R,3R,5S)-3-(benzoyloxy)-8-methyl-8-azabicyclo[3.2.1]octane-2-carboxylate hydrochloride (1:1)

> <STRUCTURE_SMILES>
Cl.CN3[C@H]1CC[C@@H]3[C@H]([C@@H](C1)OC(=O)c2ccccc2)C(=O)OC

> <STRUCTURE_SMILES_Desalt>
CN3[C@H]1CC[C@@H]3[C@H]([C@@H](C1)OC(=O)c2ccccc2)C(=O)OC

> <Substance_modify_yyyymmdd>
20130911

$$$$
