2104-96-3
ChemmineR-0915142007XD

 16 16  0  0  0  0  0  0  0  0  1 V2000
    4.6098   -1.9945    0.0000 P    0  0  0  0  0  0  0  0  0  0  0  0
    3.4541   -3.9824    0.0000 C    0  0  0  0  0  0  0  0  0  0  0  0
    2.3115   -3.3286    0.0000 C    0  0  0  0  0  0  0  0  0  0  0  0
    4.6098   -3.3286    0.0000 O    0  0  0  0  0  0  0  0  0  0  0  0
    2.2983   -5.9769    0.0000 C    0  0  0  0  0  0  0  0  0  0  0  0
    3.4541   -5.3033    0.0000 C    0  0  0  0  0  0  0  0  0  0  0  0
    1.1558   -3.9824    0.0000 C    0  0  0  0  0  0  0  0  0  0  0  0
    1.1558   -5.3165    0.0000 C    0  0  0  0  0  0  0  0  0  0  0  0
    3.2758   -1.9945    0.0000 S    0  0  0  0  0  0  0  0  0  0  0  0
    5.9439   -1.9945    0.0000 O    0  0  0  0  0  0  0  0  0  0  0  0
    4.6098   -0.6604    0.0000 O    0  0  0  0  0  0  0  0  0  0  0  0
    4.6098   -5.9769    0.0000 Cl   0  0  0  0  0  0  0  0  0  0  0  0
    0.0000   -5.9769    0.0000 Br   0  0  0  0  0  0  0  0  0  0  0  0
    0.0000   -3.3286    0.0000 Cl   0  0  0  0  0  0  0  0  0  0  0  0
    6.6044   -3.1503    0.0000 C    0  0  0  0  0  0  0  0  0  0  0  0
    5.7656    0.0000    0.0000 C    0  0  0  0  0  0  0  0  0  0  0  0
  1  4  1  0  0  0  0
  1  9  2  0  0  0  0
  1 10  1  0  0  0  0
  1 11  1  0  0  0  0
  2  4  1  0  0  0  0
  2  3  1  0  0  0  0
  2  6  2  0  0  0  0
  3  7  2  0  0  0  0
  5  6  1  0  0  0  0
  5  8  2  0  0  0  0
  6 12  1  0  0  0  0
  7 14  1  0  0  0  0
  7  8  1  0  0  0  0
  8 13  1  0  0  0  0
 10 15  1  0  0  0  0
 11 16  1  0  0  0  0
M  END
> <ID>
8639

> <Formula>
C8H8BrCl2O3PS

> <FW>
365.9961

> <DSSTox_CID>
21683

> <DSSTox_RID>
79817

> <DSSTox_GSID>
41683

> <DSSTox_FileID_Sort>
4499

> <TS_ChemName>
Bromofos

> <TS_ChemName_Synonyms>
Bromofos (Bromophos)

> <TS_CASRN>
2104-96-3

> <CASRN_ChemName_Relationship>
primary

> <TS_Description>
single chemical compound

> <ChemNote>


> <STRUCTURE_Shown>
tested chemical

> <STRUCTURE_Formula>
C8H8BrCl2O3PS

> <STRUCTURE_MW>
365.9961

> <STRUCTURE_ChemType>
defined organic

> <STRUCTURE_DefinedOrganicForm>
parent

> <STRUCTURE_IUPAC>
O-(4-bromo-2,5-dichlorophenyl) O,O-dimethyl phosphorothioate

> <STRUCTURE_SMILES>
Clc1cc(OP(=S)(OC)OC)c(Cl)cc1Br

> <STRUCTURE_SMILES_Desalt>
Clc1cc(OP(=S)(OC)OC)c(Cl)cc1Br

> <Substance_modify_yyyymmdd>
20080825

$$$$
