2104-09-8
ChemmineR-0915142007XD

 15 16  0  0  0  0  0  0  0  0  2 V2000
    3.1238   -1.1475    0.0000 C   0  0  0  0  0  0  0  0  0  0  0  0
    2.3406   -2.2222    0.0000 N   0  0  0  0  0  0  0  0  0  0  0  0
    1.0747   -1.8124    0.0000 C   0  0  0  0  0  0  0  0  0  0  0  0
    1.0747   -0.4827    0.0000 S   0  0  0  0  0  0  0  0  0  0  0  0
    2.3406   -0.0729    0.0000 C   0  0  0  0  0  0  0  0  0  0  0  0
    0.0000   -2.5956    0.0000 N   0  0  0  0  0  0  0  0  0  0  0  0
    4.4535   -1.1475    0.0000 C   0  0  0  0  0  0  0  0  0  0  0  0
    5.1184    0.0000    0.0000 C   0  0  0  0  0  0  0  0  0  0  0  0
    6.4480    0.0000    0.0000 C   0  0  0  0  0  0  0  0  0  0  0  0
    7.1129   -1.1475    0.0000 C   0  0  0  0  0  0  0  0  0  0  0  0
    6.4480   -2.3042    0.0000 C   0  0  0  0  0  0  0  0  0  0  0  0
    5.1184   -2.3042    0.0000 C   0  0  0  0  0  0  0  0  0  0  0  0
    8.4426   -1.1475    0.0000 N   0  3  0  0  0  0  0  0  0  0  0  0
    9.1074    0.0000    0.0000 O   0  5  0  0  0  0  0  0  0  0  0  0
    9.1074   -2.3042    0.0000 O   0  0  0  0  0  0  0  0  0  0  0  0
  1  2  1  0  0  0  0
  1  5  2  0  0  0  0
  1  7  1  0  0  0  0
  2  3  2  0  0  0  0
  3  4  1  0  0  0  0
  3  6  1  0  0  0  0
  4  5  1  0  0  0  0
  7  8  2  0  0  0  0
  7 12  1  0  0  0  0
  8  9  1  0  0  0  0
  9 10  2  0  0  0  0
 10 11  1  0  0  0  0
 10 13  1  0  0  0  0
 11 12  2  0  0  0  0
 13 14  1  0  0  0  0
 13 15  2  0  0  0  0
M  END
> <ID>
64

> <Formula>
C9H7N3O2S

> <FW>
221.2358

> <DSSTox_CID>
65

> <DSSTox_RID>
79430

> <DSSTox_GSID>
39238

> <DSSTox_FileID_Sort>
4112

> <TS_ChemName>
2-Amino-4-(p-nitrophenyl)thiazole

> <TS_ChemName_Synonyms>


> <TS_CASRN>
2104-09-8

> <CASRN_ChemName_Relationship>
primary

> <TS_Description>
single chemical compound

> <ChemNote>


> <STRUCTURE_Shown>
tested chemical

> <STRUCTURE_Formula>
C9H7N3O2S

> <STRUCTURE_MW>
221.2358

> <STRUCTURE_ChemType>
defined organic

> <STRUCTURE_DefinedOrganicForm>
parent

> <STRUCTURE_IUPAC>
4-(4-nitrophenyl)-1,3-thiazol-2-amine

> <STRUCTURE_SMILES>
Nc1nc(cs1)c2ccc(cc2)[N+]([O-])=O

> <STRUCTURE_SMILES_Desalt>
Nc1nc(cs1)c2ccc(cc2)[N+]([O-])=O

> <Substance_modify_yyyymmdd>
20080429

$$$$
