2105-43-3
ChemmineR-0915142007XD

 27 27  0  0  0  0  0  0  0  0  1 V2000
    2.3696    0.0000    0.0000 N    0  0  0  0  0  0  0  0  0  0  0  0
    3.5470   -2.0119    0.0000 C    0  0  0  0  0  0  0  0  0  0  0  0
    3.5470   -0.6855    0.0000 C    0  0  0  0  0  0  0  0  0  0  0  0
    5.8570   -2.0119    0.0000 N    0  0  0  0  0  0  0  0  0  0  0  0
    7.0194   -2.6528    0.0000 C    0  0  0  0  0  0  0  0  0  0  0  0
    8.2117   -1.9821    0.0000 C    0  0  0  0  0  0  0  0  0  0  0  0
    4.6945   -2.6677    0.0000 C    0  0  0  0  0  0  0  0  0  0  0  0
    1.2072   -2.0119    0.0000 N    0  0  0  0  0  0  0  0  0  0  0  0
    1.2072   -0.6855    0.0000 C    0  0  0  0  0  0  0  0  0  0  0  0
    5.8570   -0.6855    0.0000 C    0  0  0  0  0  0  0  0  0  0  0  0
    2.3696   -2.6677    0.0000 C    0  0  0  0  0  0  0  0  0  0  0  0
    9.3741   -2.6379    0.0000 S    0  0  0  0  0  0  0  0  0  0  0  0
   10.5366   -1.9672    0.0000 S    0  0  0  0  0  0  0  0  0  0  0  0
    7.0194   -0.0149    0.0000 O    0  0  0  0  0  0  0  0  0  0  0  0
   14.1282   -2.3547    0.0000 O    0  0  0  0  0  0  0  0  0  0  0  0
    4.6945    0.0000    0.0000 N    0  0  0  0  0  0  0  0  0  0  0  0
    8.2117   -0.7005    0.0000 C    0  0  0  0  0  0  0  0  0  0  0  0
   11.6990   -2.6230    0.0000 C    0  0  0  0  0  0  0  0  0  0  0  0
   12.8615   -1.9523    0.0000 C    0  0  0  0  0  0  0  0  0  0  0  0
    7.0194   -4.0090    0.0000 C    0  0  0  0  0  0  0  0  0  0  0  0
   10.5366   -0.7154    0.0000 O    0  0  0  0  0  0  0  0  0  0  0  0
    0.0000   -0.0298    0.0000 C    0  0  0  0  0  0  0  0  0  0  0  0
    9.3741   -0.0298    0.0000 C    0  0  0  0  0  0  0  0  0  0  0  0
   14.9032   -1.2668    0.0000 C    0  0  0  0  0  0  0  0  0  0  0  0
   12.8615   -0.7303    0.0000 C    0  0  0  0  0  0  0  0  0  0  0  0
   14.1282   -0.3130    0.0000 C    0  0  0  0  0  0  0  0  0  0  0  0
   11.4606   -3.8897    0.0000 Cl   0  0  0  0  0  0  0  0  0  0  0  0
  1  3  1  0  0  0  0
  1  9  2  0  0  0  0
  2  3  2  0  0  0  0
  2  7  1  0  0  0  0
  2 11  1  0  0  0  0
  3 16  1  0  0  0  0
  4  7  1  0  0  0  0
  4  5  1  0  0  0  0
  4 10  1  0  0  0  0
  5  6  2  0  0  0  0
  5 20  1  0  0  0  0
  6 12  1  0  0  0  0
  6 17  1  0  0  0  0
  8  9  1  0  0  0  0
  8 11  2  0  0  0  0
  9 22  1  0  0  0  0
 10 14  2  0  0  0  0
 12 13  1  0  0  0  0
 13 18  1  0  0  0  0
 15 19  1  0  0  0  0
 15 24  1  0  0  0  0
 17 23  1  0  0  0  0
 18 19  1  0  0  0  0
 19 25  1  0  0  0  0
 21 23  1  0  0  0  0
 24 26  1  0  0  0  0
 25 26  1  0  0  0  0
M  END
> <ID>
13600

> <Formula>
C17H27ClN4O3S2

> <FW>
435.0043 (398.5433+36.4609)

> <DSSTox_CID>
28528

> <DSSTox_RID>
82800

> <DSSTox_GSID>
48602

> <DSSTox_FileID_Sort>
7477

> <TS_ChemName>
Fursultiamine hydrochloride

> <TS_ChemName_Synonyms>


> <TS_CASRN>
2105-43-3

> <CASRN_ChemName_Relationship>
primary

> <TS_Description>
single chemical compound

> <ChemNote>
parent [804-30-8]

> <STRUCTURE_Shown>
tested chemical

> <STRUCTURE_Formula>
C17H27ClN4O3S2

> <STRUCTURE_MW>
435.0043

> <STRUCTURE_ChemType>
defined organic

> <STRUCTURE_DefinedOrganicForm>
complex

> <STRUCTURE_IUPAC>
N-[(4-amino-2-methylpyrimidin-5-yl)methyl]-N-{(2E)-5-hydroxy-3-[(tetrahydrofuran-2-ylmethyl)disulfanyl]pent-2-en-2-yl}formamide hydrochloride (1:1)

> <STRUCTURE_SMILES>
Cl.Cc2ncc(CN(C=O)C(/C)=C(/SSCC1CCCO1)CCO)c(N)n2

> <STRUCTURE_SMILES_Desalt>
Cc2ncc(CN(C=O)C(/C)=C(/SSCC1CCCO1)CCO)c(N)n2

> <Substance_modify_yyyymmdd>
20111014

$$$$
