210631-68-8
ChemmineR-0915142007XD

 25 27  0  0  0  0  0  0  0  0  1 V2000
    6.6659   -1.6391    0.0000 C   0  0  0  0  0  0  0  0  0  0  0  0
    6.6659   -0.2881    0.0000 O   0  0  0  0  0  0  0  0  0  0  0  0
    5.5334   -2.2948    0.0000 C   0  0  0  0  0  0  0  0  0  0  0  0
    4.3711   -1.6391    0.0000 C   0  0  0  0  0  0  0  0  0  0  0  0
    5.5334   -3.6359    0.0000 C   0  0  0  0  0  0  0  0  0  0  0  0
    3.2386   -2.2948    0.0000 C   0  0  0  0  0  0  0  0  0  0  0  0
    4.3711   -4.2618    0.0000 C   0  0  0  0  0  0  0  0  0  0  0  0
    3.2386   -3.6359    0.0000 C   0  0  0  0  0  0  0  0  0  0  0  0
    0.8841   -2.1855    0.0000 N   0  0  0  0  0  0  0  0  0  0  0  0
    0.0000   -1.2020    0.0000 O   0  0  0  0  0  0  0  0  0  0  0  0
    1.9372   -0.2881    0.0000 C   0  0  0  0  0  0  0  0  0  0  0  0
    0.6457    0.0000    0.0000 C   0  0  0  0  0  0  0  0  0  0  0  0
    2.0862   -1.6391    0.0000 C   0  0  0  0  0  0  0  0  0  0  0  0
    4.3711   -0.2881    0.0000 C   0  0  0  0  0  0  0  0  0  0  0  0
    2.0862   -4.2618    0.0000 S   0  0  0  0  0  0  0  0  0  0  0  0
    1.4504   -3.1293    0.0000 O   0  0  0  0  0  0  0  0  0  0  0  0
    2.7319   -5.4738    0.0000 O   0  0  0  0  0  0  0  0  0  0  0  0
    0.9636   -4.9671    0.0000 C   0  0  0  0  0  0  0  0  0  0  0  0
    9.9342   -2.7418    0.0000 N   0  0  0  0  0  0  0  0  0  0  0  0
    9.2885   -3.8743    0.0000 N   0  0  0  0  0  0  0  0  0  0  0  0
    7.8580   -2.2948    0.0000 C   0  0  0  0  0  0  0  0  0  0  0  0
    7.9672   -3.6359    0.0000 C   0  0  0  0  0  0  0  0  0  0  0  0
    9.0501   -1.7286    0.0000 C   0  0  0  0  0  0  0  0  0  0  0  0
    7.0136   -4.5101    0.0000 O   0  0  0  0  0  0  0  0  0  0  0  0
    9.8448   -5.0764    0.0000 C   0  0  0  0  0  0  0  0  0  0  0  0
  1  2  2  0  0  0  0
  1  3  1  0  0  0  0
  1 21  1  0  0  0  0
  3  4  2  0  0  0  0
  3  5  1  0  0  0  0
  4  6  1  0  0  0  0
  4 14  1  0  0  0  0
  5  7  2  0  0  0  0
  6  8  2  0  0  0  0
  6 13  1  0  0  0  0
  7  8  1  0  0  0  0
  8 15  1  0  0  0  0
  9 10  1  0  0  0  0
  9 13  2  0  0  0  0
 10 12  1  0  0  0  0
 11 12  1  0  0  0  0
 11 13  1  0  0  0  0
 15 16  2  0  0  0  0
 15 17  2  0  0  0  0
 15 18  1  0  0  0  0
 19 20  1  0  0  0  0
 19 23  2  0  0  0  0
 20 22  1  0  0  0  0
 20 25  1  0  0  0  0
 21 22  2  0  0  0  0
 21 23  1  0  0  0  0
 22 24  1  0  0  0  0
M  END
> <ID>
6887

> <Formula>
C16H17N3O5S

> <FW>
363.3883

> <DSSTox_CID>
14722

> <DSSTox_RID>
79195

> <DSSTox_GSID>
34722

> <DSSTox_FileID_Sort>
3877

> <TS_ChemName>
Topramezone

> <TS_ChemName_Synonyms>
Topramezone (Methanone, [3-(4,5-dihydro-3-isoxazolyl)-2-methyl-4-(methylsulfonyl)phenyl](5-hydroxy-1-methyl-1H-pyrazol-4-yl)-) (BAS 670H)

> <TS_CASRN>
210631-68-8

> <CASRN_ChemName_Relationship>
primary

> <TS_Description>
single chemical compound

> <ChemNote>
tautomers

> <STRUCTURE_Shown>
tested chemical

> <STRUCTURE_Formula>
C16H17N3O5S

> <STRUCTURE_MW>
363.3883

> <STRUCTURE_ChemType>
defined organic

> <STRUCTURE_DefinedOrganicForm>
parent

> <STRUCTURE_IUPAC>
[3-(4,5-dihydro-1,2-oxazol-3-yl)-2-methyl-4-(methylsulfonyl)phenyl](5-hydroxy-1-methyl-1H-pyrazol-4-yl)methanone

> <STRUCTURE_SMILES>
Oc1n(C)ncc1C(=O)c3ccc(c(C=2CCON=2)c3C)S(C)(=O)=O

> <STRUCTURE_SMILES_Desalt>
Oc1n(C)ncc1C(=O)c3ccc(c(C=2CCON=2)c3C)S(C)(=O)=O

> <Substance_modify_yyyymmdd>
20080429

$$$$
