2107-76-8
ChemmineR-0915142007XD

 14 15  0  0  0  0  0  0  0  0  1 V2000
    2.3021    0.0000    0.0000 C   0  0  0  0  0  0  0  0  0  0  0  0
    2.3021   -1.3273    0.0000 C   0  0  0  0  0  0  0  0  0  0  0  0
    1.1545   -1.9910    0.0000 C   0  0  0  0  0  0  0  0  0  0  0  0
    1.1545   -3.3252    0.0000 C   0  0  0  0  0  0  0  0  0  0  0  0
    0.0000   -3.9889    0.0000 O   0  0  0  0  0  0  0  0  0  0  0  0
    2.3021   -3.9889    0.0000 O   0  0  0  0  0  0  0  0  0  0  0  0
    3.4566   -3.3252    0.0000 C   0  0  0  0  0  0  0  0  0  0  0  0
    3.4566   -1.9910    0.0000 C   0  0  0  0  0  0  0  0  0  0  0  0
    4.6111   -1.3273    0.0000 C   0  0  0  0  0  0  0  0  0  0  0  0
    5.7587   -1.9910    0.0000 C   0  0  0  0  0  0  0  0  0  0  0  0
    5.7587   -3.3252    0.0000 C   0  0  0  0  0  0  0  0  0  0  0  0
    4.6111   -3.9889    0.0000 C   0  0  0  0  0  0  0  0  0  0  0  0
    6.9132   -3.9889    0.0000 O   0  0  0  0  0  0  0  0  0  0  0  0
    4.6111    0.0000    0.0000 O   0  0  0  0  0  0  0  0  0  0  0  0
  1  2  1  0  0  0  0
  2  3  2  0  0  0  0
  2  8  1  0  0  0  0
  3  4  1  0  0  0  0
  4  5  2  0  0  0  0
  4  6  1  0  0  0  0
  6  7  1  0  0  0  0
  7  8  2  0  0  0  0
  7 12  1  0  0  0  0
  8  9  1  0  0  0  0
  9 10  2  0  0  0  0
  9 14  1  0  0  0  0
 10 11  1  0  0  0  0
 11 12  2  0  0  0  0
 11 13  1  0  0  0  0
M  END
> <ID>
4005

> <Formula>
C10H8O4

> <FW>
192.1681

> <DSSTox_CID>
5078

> <DSSTox_RID>
77654

> <DSSTox_GSID>
25078

> <DSSTox_FileID_Sort>
2337

> <TS_ChemName>
5,7-Dihydroxy-4-methylcoumarin

> <TS_ChemName_Synonyms>


> <TS_CASRN>
2107-76-8

> <CASRN_ChemName_Relationship>
primary

> <TS_Description>
single chemical compound

> <ChemNote>


> <STRUCTURE_Shown>
tested chemical

> <STRUCTURE_Formula>
C10H8O4

> <STRUCTURE_MW>
192.1681

> <STRUCTURE_ChemType>
defined organic

> <STRUCTURE_DefinedOrganicForm>
parent

> <STRUCTURE_IUPAC>
5,7-dihydroxy-4-methyl-2H-chromen-2-one

> <STRUCTURE_SMILES>
Oc2cc(O)cc1OC(=O)C=C(C)c12

> <STRUCTURE_SMILES_Desalt>
Oc2cc(O)cc1OC(=O)C=C(C)c12

> <Substance_modify_yyyymmdd>
20080429

$$$$
