210826-40-7
ChemmineR-0915142007XD

 28 31  0  0  0  0  0  0  0  0  1 V2000
    3.3946   -3.3946    0.0000 C   0  0  0  0  0  0  0  0  0  0  0  0
    3.6753   -2.1184    0.0000 C   0  0  0  0  0  0  0  0  0  0  0  0
    2.1695   -3.7902    0.0000 C   0  0  0  0  0  0  0  0  0  0  0  0
    4.3389   -4.3134    0.0000 N   0  0  0  0  0  0  0  0  0  0  0  0
    2.6672   -1.2379    0.0000 C   0  0  0  0  0  0  0  0  0  0  0  0
    4.8111   -1.4548    0.0000 C   0  0  0  0  0  0  0  0  0  0  0  0
    1.1741   -2.9096    0.0000 C   0  0  0  0  0  0  0  0  0  0  0  0
    1.6462   -5.0153    0.0000 C   0  0  0  0  0  0  0  0  0  0  0  0
    5.6023   -3.9689    0.0000 C   0  0  0  0  0  0  0  0  0  0  0  0
    1.4293   -1.6335    0.0000 C   0  0  0  0  0  0  0  0  0  0  0  0
    3.1904    0.0000    0.0000 C   0  0  0  0  0  0  0  0  0  0  0  0
    4.5559   -0.1021    0.0000 C   0  0  0  0  0  0  0  0  0  0  0  0
    0.0000   -3.5733    0.0000 C   0  0  0  0  0  0  0  0  0  0  0  0
    0.2680   -4.9005    0.0000 C   0  0  0  0  0  0  0  0  0  0  0  0
    6.5978   -4.8111    0.0000 N   0  0  0  0  0  0  0  0  0  0  0  0
    5.9341   -2.7182    0.0000 O   0  0  0  0  0  0  0  0  0  0  0  0
    7.8484   -4.4028    0.0000 S   0  0  0  0  0  0  0  0  0  0  0  0
    9.1118   -4.0327    0.0000 C   0  0  0  0  0  0  0  0  0  0  0  0
    8.1802   -5.6917    0.0000 O   0  0  0  0  0  0  0  0  0  0  0  0
    7.6825   -3.1011    0.0000 O   0  0  0  0  0  0  0  0  0  0  0  0
    9.5457   -2.7565    0.0000 C   0  0  0  0  0  0  0  0  0  0  0  0
   10.1965   -4.7856    0.0000 O   0  0  0  0  0  0  0  0  0  0  0  0
   10.8729   -2.6927    0.0000 C   0  0  0  0  0  0  0  0  0  0  0  0
   11.3195   -3.9689    0.0000 C   0  0  0  0  0  0  0  0  0  0  0  0
   11.6003   -1.6080    0.0000 C   0  0  0  0  0  0  0  0  0  0  0  0
   12.3532   -0.5105    0.0000 C   0  0  0  0  0  0  0  0  0  0  0  0
   12.7616   -2.2843    0.0000 C   0  0  0  0  0  0  0  0  0  0  0  0
   10.5666   -0.7785    0.0000 O   0  0  0  0  0  0  0  0  0  0  0  0
  1  2  2  0  0  0  0
  1  3  1  0  0  0  0
  1  4  1  0  0  0  0
  2  5  1  0  0  0  0
  2  6  1  0  0  0  0
  3  7  2  0  0  0  0
  3  8  1  0  0  0  0
  4  9  1  0  0  0  0
  5 10  2  0  0  0  0
  5 11  1  0  0  0  0
  6 12  1  0  0  0  0
  7 13  1  0  0  0  0
  7 10  1  0  0  0  0
  8 14  1  0  0  0  0
  9 15  1  0  0  0  0
  9 16  2  0  0  0  0
 11 12  1  0  0  0  0
 13 14  1  0  0  0  0
 15 17  1  0  0  0  0
 17 18  1  0  0  0  0
 17 19  2  0  0  0  0
 17 20  2  0  0  0  0
 18 21  2  0  0  0  0
 18 22  1  0  0  0  0
 21 23  1  0  0  0  0
 22 24  1  0  0  0  0
 23 25  1  0  0  0  0
 23 24  2  0  0  0  0
 25 26  1  0  0  0  0
 25 27  1  0  0  0  0
 25 28  1  0  0  0  0
M  END
> <ID>
12443

> <Formula>
C20H24N2O5S

> <FW>
404.48

> <DSSTox_CID>
27301

> <DSSTox_RID>
82252

> <DSSTox_GSID>
47301

> <DSSTox_FileID_Sort>
6933

> <TS_ChemName>
CP-456773

> <TS_ChemName_Synonyms>


> <TS_CASRN>
210826-40-7

> <CASRN_ChemName_Relationship>
primary

> <TS_Description>
single chemical compound

> <ChemNote>


> <STRUCTURE_Shown>
tested chemical

> <STRUCTURE_Formula>
C20H24N2O5S

> <STRUCTURE_MW>
404.48

> <STRUCTURE_ChemType>
defined organic

> <STRUCTURE_DefinedOrganicForm>
parent

> <STRUCTURE_IUPAC>
N-(1,2,3,5,6,7-hexahydro-s-indacen-4-ylcarbamoyl)-4-(2-hydroxypropan-2-yl)furan-2-sulfonamide

> <STRUCTURE_SMILES>
OC(C)(C)c1coc(c1)S(=O)(=O)NC(=O)Nc3c4CCCc4cc2CCCc23

> <STRUCTURE_SMILES_Desalt>
OC(C)(C)c1coc(c1)S(=O)(=O)NC(=O)Nc3c4CCCc4cc2CCCc23

> <Substance_modify_yyyymmdd>
20130910

$$$$
