2110-18-1
ChemmineR-0915142007XD

 15 16  0  0  0  0  0  0  0  0  1 V2000
    0.6550   -2.3097    0.0000 N   0  0  0  0  0  0  0  0  0  0  0  0
    0.0000   -1.1548    0.0000 C   0  0  0  0  0  0  0  0  0  0  0  0
    1.9822   -2.3097    0.0000 C   0  0  0  0  0  0  0  0  0  0  0  0
    2.6630   -1.1548    0.0000 C   0  0  0  0  0  0  0  0  0  0  0  0
    0.6550    0.0000    0.0000 C   0  0  0  0  0  0  0  0  0  0  0  0
    1.9822    0.0000    0.0000 C   0  0  0  0  0  0  0  0  0  0  0  0
    2.6630   -3.4559    0.0000 C   0  0  0  0  0  0  0  0  0  0  0  0
    3.9902   -3.4387    0.0000 C   0  0  0  0  0  0  0  0  0  0  0  0
    4.6452   -4.5935    0.0000 C   0  0  0  0  0  0  0  0  0  0  0  0
    7.9632   -5.7656    0.0000 C   0  0  0  0  0  0  0  0  0  0  0  0
    8.6182   -4.6107    0.0000 C   0  0  0  0  0  0  0  0  0  0  0  0
    7.9632   -3.4559    0.0000 C   0  0  0  0  0  0  0  0  0  0  0  0
    6.6360   -3.4559    0.0000 C   0  0  0  0  0  0  0  0  0  0  0  0
    5.9552   -4.6107    0.0000 C   0  0  0  0  0  0  0  0  0  0  0  0
    6.6360   -5.7656    0.0000 C   0  0  0  0  0  0  0  0  0  0  0  0
  1  2  2  0  0  0  0
  1  3  1  0  0  0  0
  2  5  1  0  0  0  0
  3  4  2  0  0  0  0
  3  7  1  0  0  0  0
  4  6  1  0  0  0  0
  5  6  2  0  0  0  0
  7  8  1  0  0  0  0
  8  9  1  0  0  0  0
  9 14  1  0  0  0  0
 10 15  2  0  0  0  0
 10 11  1  0  0  0  0
 11 12  2  0  0  0  0
 12 13  1  0  0  0  0
 13 14  2  0  0  0  0
 14 15  1  0  0  0  0
M  END
> <ID>
9275

> <Formula>
C14H15N

> <FW>
197.2756

> <DSSTox_CID>
22356

> <DSSTox_RID>
80004

> <DSSTox_GSID>
42356

> <DSSTox_FileID_Sort>
4686

> <TS_ChemName>
2-(3-Phenylpropyl)pyridine

> <TS_ChemName_Synonyms>


> <TS_CASRN>
2110-18-1

> <CASRN_ChemName_Relationship>
primary

> <TS_Description>
single chemical compound

> <ChemNote>


> <STRUCTURE_Shown>
tested chemical

> <STRUCTURE_Formula>
C14H15N

> <STRUCTURE_MW>
197.2756

> <STRUCTURE_ChemType>
defined organic

> <STRUCTURE_DefinedOrganicForm>
parent

> <STRUCTURE_IUPAC>
2-(3-phenylpropyl)pyridine

> <STRUCTURE_SMILES>
C(CCc1ccccn1)c2ccccc2

> <STRUCTURE_SMILES_Desalt>
C(CCc1ccccn1)c2ccccc2

> <Substance_modify_yyyymmdd>
20080825

$$$$
