21145-77-7
ChemmineR-0915142007XD

 19 20  0  0  0  0  0  0  0  0  1 V2000
    3.4358   -3.1381    0.0000 C   0  0  0  0  0  0  0  0  0  0  0  0
    3.4358   -1.8185    0.0000 C   0  0  0  0  0  0  0  0  0  0  0  0
    4.6106   -1.1426    0.0000 C   0  0  0  0  0  0  0  0  0  0  0  0
    4.6106   -3.8059    0.0000 C   0  0  0  0  0  0  0  0  0  0  0  0
    2.2932   -1.1426    0.0000 C   0  0  0  0  0  0  0  0  0  0  0  0
    2.2932   -3.8059    0.0000 C   0  0  0  0  0  0  0  0  0  0  0  0
    5.7531   -3.1381    0.0000 C   0  0  0  0  0  0  0  0  0  0  0  0
    1.1587   -1.8185    0.0000 C   0  0  0  0  0  0  0  0  0  0  0  0
    1.1587   -3.1381    0.0000 C   0  0  0  0  0  0  0  0  0  0  0  0
    5.7531   -1.8185    0.0000 C   0  0  0  0  0  0  0  0  0  0  0  0
    6.9038   -1.1426    0.0000 C   0  0  0  0  0  0  0  0  0  0  0  0
    6.9038   -3.8059    0.0000 C   0  0  0  0  0  0  0  0  0  0  0  0
    6.9199   -5.1416    0.0000 O   0  0  0  0  0  0  0  0  0  0  0  0
    8.0463   -3.1381    0.0000 C   0  0  0  0  0  0  0  0  0  0  0  0
    1.6093   -4.9485    0.0000 C   0  0  0  0  0  0  0  0  0  0  0  0
    2.9530   -4.9807    0.0000 C   0  0  0  0  0  0  0  0  0  0  0  0
    0.0000   -1.1426    0.0000 C   0  0  0  0  0  0  0  0  0  0  0  0
    2.9691    0.0000    0.0000 C   0  0  0  0  0  0  0  0  0  0  0  0
    1.6254    0.0000    0.0000 C   0  0  0  0  0  0  0  0  0  0  0  0
  1  2  2  0  0  0  0
  1  4  1  0  0  0  0
  1  6  1  0  0  0  0
  2  3  1  0  0  0  0
  2  5  1  0  0  0  0
  3 10  2  0  0  0  0
  4  7  2  0  0  0  0
  5  8  1  0  0  0  0
  5 18  1  0  0  0  0
  5 19  1  0  0  0  0
  6  9  1  0  0  0  0
  6 15  1  0  0  0  0
  6 16  1  0  0  0  0
  7 10  1  0  0  0  0
  7 12  1  0  0  0  0
  8  9  1  0  0  0  0
  8 17  1  0  0  0  0
 10 11  1  0  0  0  0
 12 13  2  0  0  0  0
 12 14  1  0  0  0  0
M  END
> <ID>
8510

> <Formula>
C18H26O

> <FW>
258.3984

> <DSSTox_CID>
21544

> <DSSTox_RID>
79772

> <DSSTox_GSID>
41544

> <DSSTox_FileID_Sort>
4454

> <TS_ChemName>
1-(3,5,5,6,8,8-Hexamethyl-5,6,7,8-tetrahydronaphthalen-2-yl)ethanone

> <TS_ChemName_Synonyms>
6-Acetyl-1,1,2,4,4,7-hexamethyltetralin

> <TS_CASRN>
21145-77-7

> <CASRN_ChemName_Relationship>
primary

> <TS_Description>
single chemical compound

> <ChemNote>
Alt CAS [1506-02-1]

> <STRUCTURE_Shown>
tested chemical

> <STRUCTURE_Formula>
C18H26O

> <STRUCTURE_MW>
258.3984

> <STRUCTURE_ChemType>
defined organic

> <STRUCTURE_DefinedOrganicForm>
parent

> <STRUCTURE_IUPAC>
1-(3,5,5,6,8,8-hexamethyl-5,6,7,8-tetrahydronaphthalen-2-yl)ethanone

> <STRUCTURE_SMILES>
CC(=O)c1cc2c(cc1C)C(C)(C)C(C)CC2(C)C

> <STRUCTURE_SMILES_Desalt>
CC(=O)c1cc2c(cc1C)C(C)(C)C(C)CC2(C)C

> <Substance_modify_yyyymmdd>
20121217

$$$$
