21187-98-4
ChemmineR-0915142007XD

 22 24  0  0  0  0  0  0  0  0  1 V2000
    1.4394   -4.3792    0.0000 C   0  0  0  0  0  0  0  0  0  0  0  0
    0.1342   -4.1109    0.0000 C   0  0  0  0  0  0  0  0  0  0  0  0
    0.0000   -2.7812    0.0000 C   0  0  0  0  0  0  0  0  0  0  0  0
    1.2198   -2.2445    0.0000 C   0  0  0  0  0  0  0  0  0  0  0  0
    2.1103   -3.2326    0.0000 C   0  0  0  0  0  0  0  0  0  0  0  0
    3.3180   -2.6836    0.0000 C   0  0  0  0  0  0  0  0  0  0  0  0
    3.1838   -1.3662    0.0000 N   0  0  0  0  0  0  0  0  0  0  0  0
    4.1718   -0.4757    0.0000 N   0  0  0  0  0  0  0  0  0  0  0  0
    5.4283   -0.8905    0.0000 C   0  0  0  0  0  0  0  0  0  0  0  0
    6.4164    0.0000    0.0000 O   0  0  0  0  0  0  0  0  0  0  0  0
    5.7820   -2.1713    0.0000 N   0  0  0  0  0  0  0  0  0  0  0  0
    7.0629   -2.5129    0.0000 S   0  0  0  0  0  0  0  0  0  0  0  0
    6.7213   -3.8059    0.0000 O   0  0  0  0  0  0  0  0  0  0  0  0
    7.4044   -1.2320    0.0000 O   0  0  0  0  0  0  0  0  0  0  0  0
    8.3437   -2.8666    0.0000 C   0  0  0  0  0  0  0  0  0  0  0  0
    9.2830   -1.9151    0.0000 C   0  0  0  0  0  0  0  0  0  0  0  0
   10.5638   -2.2689    0.0000 C   0  0  0  0  0  0  0  0  0  0  0  0
   10.9176   -3.5497    0.0000 C   0  0  0  0  0  0  0  0  0  0  0  0
   12.1984   -3.8913    0.0000 C   0  0  0  0  0  0  0  0  0  0  0  0
    9.9783   -4.4890    0.0000 C   0  0  0  0  0  0  0  0  0  0  0  0
    8.6853   -4.1475    0.0000 C   0  0  0  0  0  0  0  0  0  0  0  0
    1.8786   -1.0857    0.0000 C   0  0  0  0  0  0  0  0  0  0  0  0
  1  2  1  0  0  0  0
  1  5  1  0  0  0  0
  2  3  1  0  0  0  0
  3  4  1  0  0  0  0
  4  5  1  0  0  0  0
  4 22  1  0  0  0  0
  5  6  1  0  0  0  0
  6  7  1  0  0  0  0
  7  8  1  0  0  0  0
  7 22  1  0  0  0  0
  8  9  1  0  0  0  0
  9 10  2  0  0  0  0
  9 11  1  0  0  0  0
 11 12  1  0  0  0  0
 12 13  2  0  0  0  0
 12 14  2  0  0  0  0
 12 15  1  0  0  0  0
 15 16  2  0  0  0  0
 15 21  1  0  0  0  0
 16 17  1  0  0  0  0
 17 18  2  0  0  0  0
 18 19  1  0  0  0  0
 18 20  1  0  0  0  0
 20 21  2  0  0  0  0
M  END
> <ID>
2781

> <Formula>
C15H21N3O3S

> <FW>
323.4105

> <DSSTox_CID>
3095

> <DSSTox_RID>
76872

> <DSSTox_GSID>
23095

> <DSSTox_FileID_Sort>
1556

> <TS_ChemName>
Gliclazide

> <TS_ChemName_Synonyms>


> <TS_CASRN>
21187-98-4

> <CASRN_ChemName_Relationship>
primary

> <TS_Description>
single chemical compound

> <ChemNote>


> <STRUCTURE_Shown>
tested chemical

> <STRUCTURE_Formula>
C15H21N3O3S

> <STRUCTURE_MW>
323.4105

> <STRUCTURE_ChemType>
defined organic

> <STRUCTURE_DefinedOrganicForm>
parent

> <STRUCTURE_IUPAC>
N-(hexahydrocyclopenta[c]pyrrol-2(1H)-ylcarbamoyl)-4-methylbenzenesulfonamide

> <STRUCTURE_SMILES>
Cc1ccc(cc1)S(=O)(=O)NC(=O)NN2CC3CCCC3C2

> <STRUCTURE_SMILES_Desalt>
Cc1ccc(cc1)S(=O)(=O)NC(=O)NN2CC3CCCC3C2

> <Substance_modify_yyyymmdd>
20080429

$$$$
