211915-06-9
ChemmineR-0915142007XD

 46 49  0  0  0  0  0  0  0  0  1 V2000
   10.1429  -22.7420    0.0000 C   0  0  0  0  0  0  0  0  0  0  0  0
    9.4834  -21.5822    0.0000 C   0  0  0  0  0  0  0  0  0  0  0  0
    8.1416  -21.5822    0.0000 C   0  0  0  0  0  0  0  0  0  0  0  0
    7.4821  -20.4451    0.0000 C   0  0  0  0  0  0  0  0  0  0  0  0
    6.1403  -20.4451    0.0000 C   0  0  0  0  0  0  0  0  0  0  0  0
    5.4808  -19.2852    0.0000 C   0  0  0  0  0  0  0  0  0  0  0  0
    4.1618  -19.2852    0.0000 O   0  0  0  0  0  0  0  0  0  0  0  0
    3.5023  -18.1481    0.0000 C   0  0  0  0  0  0  0  0  0  0  0  0
    4.1618  -16.9883    0.0000 O   0  0  0  0  0  0  0  0  0  0  0  0
    2.1605  -18.1481    0.0000 N   0  0  0  0  0  0  0  0  0  0  0  0
    1.5010  -16.9883    0.0000 C   0  0  0  0  0  0  0  0  0  0  0  0
    0.1592  -16.9883    0.0000 N   0  0  0  0  0  0  0  0  0  0  0  0
    2.1605  -15.8284    0.0000 C   0  0  0  0  0  0  0  0  0  0  0  0
    3.5023  -15.8284    0.0000 C   0  0  0  0  0  0  0  0  0  0  0  0
    4.1618  -14.6913    0.0000 C   0  0  0  0  0  0  0  0  0  0  0  0
    3.5023  -13.5315    0.0000 C   0  0  0  0  0  0  0  0  0  0  0  0
    4.1618  -12.3716    0.0000 N   0  0  0  0  0  0  0  0  0  0  0  0
    3.5023  -11.2345    0.0000 C   0  0  0  0  0  0  0  0  0  0  0  0
    4.1618  -10.0747    0.0000 C   0  0  0  0  0  0  0  0  0  0  0  0
    3.6160   -8.8694    0.0000 N   0  0  0  0  0  0  0  0  0  0  0  0
    4.5939   -7.9824    0.0000 C   0  0  0  0  0  0  0  0  0  0  0  0
    5.7537   -8.6420    0.0000 C   0  0  0  0  0  0  0  0  0  0  0  0
    6.9136   -7.9824    0.0000 C   0  0  0  0  0  0  0  0  0  0  0  0
    6.9136   -6.6407    0.0000 C   0  0  0  0  0  0  0  0  0  0  0  0
    5.7537   -5.9811    0.0000 C   0  0  0  0  0  0  0  0  0  0  0  0
    4.5939   -6.6407    0.0000 C   0  0  0  0  0  0  0  0  0  0  0  0
    5.7537   -4.6621    0.0000 C   0  0  0  0  0  0  0  0  0  0  0  0
    6.9136   -3.9799    0.0000 O   0  0  0  0  0  0  0  0  0  0  0  0
    4.5939   -3.9799    0.0000 N   0  0  0  0  0  0  0  0  0  0  0  0
    4.5939   -2.6608    0.0000 C   0  0  0  0  0  0  0  0  0  0  0  0
    3.4568   -2.0013    0.0000 C   0  0  0  0  0  0  0  0  0  0  0  0
    3.4568   -0.6595    0.0000 C   0  0  0  0  0  0  0  0  0  0  0  0
    4.5939    0.0000    0.0000 O   0  0  0  0  0  0  0  0  0  0  0  0
    2.2969    0.0000    0.0000 O   0  0  0  0  0  0  0  0  0  0  0  0
    1.1598   -0.6595    0.0000 C   0  0  0  0  0  0  0  0  0  0  0  0
    0.0000    0.0000    0.0000 C   0  0  0  0  0  0  0  0  0  0  0  0
    3.4568   -4.6621    0.0000 C   0  0  0  0  0  0  0  0  0  0  0  0
    2.2969   -3.9799    0.0000 N   0  0  0  0  0  0  0  0  0  0  0  0
    1.1598   -4.6621    0.0000 C   0  0  0  0  0  0  0  0  0  0  0  0
    1.1598   -5.9811    0.0000 C   0  0  0  0  0  0  0  0  0  0  0  0
    2.2969   -6.6407    0.0000 C   0  0  0  0  0  0  0  0  0  0  0  0
    3.4568   -5.9811    0.0000 C   0  0  0  0  0  0  0  0  0  0  0  0
    5.4808   -9.9383    0.0000 N   0  0  0  0  0  0  0  0  0  0  0  0
    6.3678  -10.9389    0.0000 C   0  0  0  0  0  0  0  0  0  0  0  0
    2.1605  -13.5315    0.0000 C   0  0  0  0  0  0  0  0  0  0  0  0
    1.5010  -14.6913    0.0000 C   0  0  0  0  0  0  0  0  0  0  0  0
  1  2  1  0  0  0  0
  2  3  1  0  0  0  0
  3  4  1  0  0  0  0
  4  5  1  0  0  0  0
  5  6  1  0  0  0  0
  6  7  1  0  0  0  0
  7  8  1  0  0  0  0
  8  9  2  0  0  0  0
  8 10  1  0  0  0  0
 10 11  2  0  0  0  0
 11 12  1  0  0  0  0
 11 13  1  0  0  0  0
 13 14  2  0  0  0  0
 13 46  1  0  0  0  0
 14 15  1  0  0  0  0
 15 16  2  0  0  0  0
 16 17  1  0  0  0  0
 16 45  1  0  0  0  0
 17 18  1  0  0  0  0
 18 19  1  0  0  0  0
 19 20  2  0  0  0  0
 19 43  1  0  0  0  0
 20 21  1  0  0  0  0
 21 22  2  0  0  0  0
 21 26  1  0  0  0  0
 22 23  1  0  0  0  0
 22 43  1  0  0  0  0
 23 24  2  0  0  0  0
 24 25  1  0  0  0  0
 25 26  2  0  0  0  0
 25 27  1  0  0  0  0
 27 28  2  0  0  0  0
 27 29  1  0  0  0  0
 29 30  1  0  0  0  0
 29 37  1  0  0  0  0
 30 31  1  0  0  0  0
 31 32  1  0  0  0  0
 32 33  2  0  0  0  0
 32 34  1  0  0  0  0
 34 35  1  0  0  0  0
 35 36  1  0  0  0  0
 37 38  2  0  0  0  0
 37 42  1  0  0  0  0
 38 39  1  0  0  0  0
 39 40  2  0  0  0  0
 40 41  1  0  0  0  0
 41 42  2  0  0  0  0
 43 44  1  0  0  0  0
 45 46  2  0  0  0  0
M  END
> <ID>
16083

> <Formula>
C34H41N7O5

> <FW>
627.7332

> <DSSTox_CID>
31470

> <DSSTox_RID>
97355

> <DSSTox_GSID>
57681

> <DSSTox_FileID_Sort>
8422

> <TS_ChemName>
Dabigatran etexilate

> <TS_ChemName_Synonyms>


> <TS_CASRN>
211915-06-9

> <CASRN_ChemName_Relationship>
primary

> <TS_Description>
single chemical compound

> <ChemNote>


> <STRUCTURE_Shown>
tested chemical

> <STRUCTURE_Formula>
C34H41N7O5

> <STRUCTURE_MW>
627.7332

> <STRUCTURE_ChemType>
defined organic

> <STRUCTURE_DefinedOrganicForm>
parent

> <STRUCTURE_IUPAC>
ethyl N-[(2-{[(4-{N-[(hexyloxy)carbonyl]carbamimidoyl}phenyl)amino]methyl}-1-methyl-1H-benzimidazol-5-yl)carbonyl]-N-pyridin-2-yl-beta-alaninate

> <STRUCTURE_SMILES>
O=C(OCCCCCC)\N=C(\N)c1ccc(cc1)NCc3nc2cc(ccc2n3C)C(=O)N(CCC(=O)OCC)c4ccccn4

> <STRUCTURE_SMILES_Desalt>
O=C(OCCCCCC)\N=C(\N)c1ccc(cc1)NCc3nc2cc(ccc2n3C)C(=O)N(CCC(=O)OCC)c4ccccn4

> <Substance_modify_yyyymmdd>
20131018

$$$$
