21216-78-4
ChemmineR-0915142007XD

 26 28  0  0  0  0  0  0  0  0  2 V2000
    6.1542   -6.3404    0.0000 C   0  0  0  0  0  0  0  0  0  0  0  0
    4.1844   -5.0370    0.0000 O   0  0  0  0  0  0  0  0  0  0  0  0
    5.4878   -5.1840    0.0000 C   0  0  0  0  0  0  0  0  0  0  0  0
    6.0268   -3.9786    0.0000 C   0  0  0  0  0  0  0  0  0  0  0  0
    5.0566   -3.0771    0.0000 O   0  0  0  0  0  0  0  0  0  0  0  0
    3.9002   -3.7337    0.0000 C   0  0  0  0  0  0  0  0  0  0  0  0
    3.8317   -0.2254    0.0000 C   0  0  0  0  0  0  0  0  0  0  0  0
    2.5185    0.0000    0.0000 C   0  0  0  0  0  0  0  0  0  0  0  0
    1.6855   -1.0290    0.0000 C   0  0  0  0  0  0  0  0  0  0  0  0
    2.1363   -2.2637    0.0000 C   0  0  0  0  0  0  0  0  0  0  0  0
    3.4495   -2.4989    0.0000 C   0  0  0  0  0  0  0  0  0  0  0  0
    4.3020   -1.4797    0.0000 C   0  0  0  0  0  0  0  0  0  0  0  0
    0.8820   -5.5662    0.0000 C   0  0  0  0  0  0  0  0  0  0  0  0
    0.0000   -4.5666    0.0000 C   0  0  0  0  0  0  0  0  0  0  0  0
    0.4214   -3.3025    0.0000 C   0  0  0  0  0  0  0  0  0  0  0  0
    1.7149   -3.0281    0.0000 C   0  0  0  0  0  0  0  0  0  0  0  0
    2.5969   -4.0276    0.0000 C   0  0  0  0  0  0  0  0  0  0  0  0
    2.1951   -5.2918    0.0000 C   0  0  0  0  0  0  0  0  0  0  0  0
    6.8205   -7.4869    0.0000 C   0  0  0  0  0  0  0  0  0  0  0  0
    9.7996   -5.0076    0.0000 C   0  0  0  0  0  0  0  0  0  0  0  0
    9.7996   -6.3404    0.0000 C   0  0  0  0  0  0  0  0  0  0  0  0
    8.6433   -4.3314    0.0000 C   0  0  0  0  0  0  0  0  0  0  0  0
    8.6433   -7.0067    0.0000 C   0  0  0  0  0  0  0  0  0  0  0  0
    7.4869   -5.0076    0.0000 C   0  0  0  0  0  0  0  0  0  0  0  0
    7.4869   -6.3404    0.0000 N   0  3  0  0  0  0  0  0  0  0  0  0
    7.8397   -8.2121    0.0000 I   0  5  0  0  0  0  0  0  0  0  0  0
  1  3  1  0  0  0  0
  1 25  1  0  0  0  0
  2  3  1  0  0  0  0
  2  6  1  0  0  0  0
  3  4  1  0  0  0  0
  4  5  1  0  0  0  0
  5  6  1  0  0  0  0
  6 11  1  0  0  0  0
  6 17  1  0  0  0  0
  7 12  2  0  0  0  0
  7  8  1  0  0  0  0
  8  9  2  0  0  0  0
  9 10  1  0  0  0  0
 10 11  2  0  0  0  0
 11 12  1  0  0  0  0
 13 18  2  0  0  0  0
 13 14  1  0  0  0  0
 14 15  2  0  0  0  0
 15 16  1  0  0  0  0
 16 17  2  0  0  0  0
 17 18  1  0  0  0  0
 19 25  1  0  0  0  0
 20 21  1  0  0  0  0
 20 22  1  0  0  0  0
 21 23  1  0  0  0  0
 22 24  1  0  0  0  0
 23 25  1  0  0  0  0
 24 25  1  0  0  0  0
M  END
> <ID>
13770

> <Formula>
C22H28INO2

> <FW>
465.3677 (338.4627+126.9050)

> <DSSTox_CID>
28707

> <DSSTox_RID>
82976

> <DSSTox_GSID>
48781

> <DSSTox_FileID_Sort>
7653

> <TS_ChemName>
Anacolin

> <TS_ChemName_Synonyms>
DIPHENYLPIPERIDINOMETHYLDIOXOLAN IODIDE (Anacolin)

> <TS_CASRN>
21216-78-4

> <CASRN_ChemName_Relationship>
primary

> <TS_Description>
single chemical compound

> <ChemNote>


> <STRUCTURE_Shown>
tested chemical

> <STRUCTURE_Formula>
C22H28INO2

> <STRUCTURE_MW>
465.3677

> <STRUCTURE_ChemType>
defined organic

> <STRUCTURE_DefinedOrganicForm>
salt

> <STRUCTURE_IUPAC>
1-[(2,2-diphenyl-1,3-dioxolan-4-yl)methyl]-1-methylpiperidinium iodide

> <STRUCTURE_SMILES>
[I-].C[N+]1(CCCCC1)CC2COC(O2)(c3ccccc3)c4ccccc4

> <STRUCTURE_SMILES_Desalt>
C[N+]1(CCCCC1)CC2COC(O2)(c3ccccc3)c4ccccc4

> <Substance_modify_yyyymmdd>
20111204

$$$$
