212141-51-0
ChemmineR-0915142007XD

 27 28  0  0  0  0  0  0  0  0  1 V2000
    2.0330   -6.6564    0.0000 C    0  0  0  0  0  0  0  0  0  0  0  0
    0.8853   -6.0006    0.0000 N    0  0  0  0  0  0  0  0  0  0  0  0
    0.8853   -4.6671    0.0000 N    0  0  0  0  0  0  0  0  0  0  0  0
    2.0330   -4.0004    0.0000 C    0  0  0  0  0  0  0  0  0  0  0  0
    3.1916   -4.6671    0.0000 C    0  0  0  0  0  0  0  0  0  0  0  0
    4.3502   -4.0004    0.0000 C    0  0  0  0  0  0  0  0  0  0  0  0
    5.4869   -4.6671    0.0000 C    0  0  0  0  0  0  0  0  0  0  0  0
    5.4869   -6.0006    0.0000 C    0  0  0  0  0  0  0  0  0  0  0  0
    4.3502   -6.6564    0.0000 C    0  0  0  0  0  0  0  0  0  0  0  0
    3.1916   -6.0006    0.0000 C    0  0  0  0  0  0  0  0  0  0  0  0
    2.0330   -2.6669    0.0000 C    0  0  0  0  0  0  0  0  0  0  0  0
    3.1916   -2.0111    0.0000 C    0  0  0  0  0  0  0  0  0  0  0  0
    3.1916   -0.6777    0.0000 C    0  0  0  0  0  0  0  0  0  0  0  0
    4.3502    0.0000    0.0000 C    0  0  0  0  0  0  0  0  0  0  0  0
    5.4869   -0.6777    0.0000 N    0  0  0  0  0  0  0  0  0  0  0  0
    5.4869   -2.0111    0.0000 C    0  0  0  0  0  0  0  0  0  0  0  0
    4.3502   -2.6669    0.0000 C    0  0  0  0  0  0  0  0  0  0  0  0
    2.0330   -7.9899    0.0000 N    0  0  0  0  0  0  0  0  0  0  0  0
    3.1916   -8.6676    0.0000 C    0  0  0  0  0  0  0  0  0  0  0  0
    4.3502   -7.9899    0.0000 C    0  0  0  0  0  0  0  0  0  0  0  0
    5.4869   -8.6676    0.0000 C    0  0  0  0  0  0  0  0  0  0  0  0
    5.4869  -10.0010    0.0000 C    0  0  0  0  0  0  0  0  0  0  0  0
    4.3502  -10.6568    0.0000 C    0  0  0  0  0  0  0  0  0  0  0  0
    3.1916  -10.0010    0.0000 C    0  0  0  0  0  0  0  0  0  0  0  0
    6.6455  -10.6568    0.0000 Cl   0  0  0  0  0  0  0  0  0  0  0  0
    0.0000  -10.7005    0.0000 Cl   0  0  0  0  0  0  0  0  0  0  0  0
    2.3718  -10.9301    0.0000 Cl   0  0  0  0  0  0  0  0  0  0  0  0
  1  2  1  0  0  0  0
  1 10  2  0  0  0  0
  1 18  1  0  0  0  0
  2  3  2  0  0  0  0
  3  4  1  0  0  0  0
  4  5  2  0  0  0  0
  4 11  1  0  0  0  0
  5  6  1  0  0  0  0
  5 10  1  0  0  0  0
  6  7  2  0  0  0  0
  7  8  1  0  0  0  0
  8  9  2  0  0  0  0
  9 10  1  0  0  0  0
 11 12  1  0  0  0  0
 12 13  1  0  0  0  0
 12 17  2  0  0  0  0
 13 14  2  0  0  0  0
 14 15  1  0  0  0  0
 15 16  2  0  0  0  0
 16 17  1  0  0  0  0
 18 19  1  0  0  0  0
 19 20  1  0  0  0  0
 19 24  2  0  0  0  0
 20 21  2  0  0  0  0
 21 22  1  0  0  0  0
 22 23  2  0  0  0  0
 22 25  1  0  0  0  0
 23 24  1  0  0  0  0
M  END
> <ID>
14057

> <Formula>
C20H17Cl3N4

> <FW>
419.7348 (346.8129+36.4609+36.4609)

> <DSSTox_CID>
28999

> <DSSTox_RID>
83264

> <DSSTox_GSID>
49073

> <DSSTox_FileID_Sort>
7939

> <TS_ChemName>
Vatalanib dihydrochloride

> <TS_ChemName_Synonyms>


> <TS_CASRN>
212141-51-0

> <CASRN_ChemName_Relationship>
primary

> <TS_Description>
single chemical compound

> <ChemNote>


> <STRUCTURE_Shown>
tested chemical

> <STRUCTURE_Formula>
C20H17Cl3N4

> <STRUCTURE_MW>
419.7348

> <STRUCTURE_ChemType>
defined organic

> <STRUCTURE_DefinedOrganicForm>
complex

> <STRUCTURE_IUPAC>
N-(4-chlorophenyl)-4-(pyridin-4-ylmethyl)phthalazin-1-amine dihydrochloride

> <STRUCTURE_SMILES>
Cl.Cl.Clc1ccc(cc1)Nc4nnc(Cc2ccncc2)c3ccccc34

> <STRUCTURE_SMILES_Desalt>
Clc1ccc(cc1)Nc4nnc(Cc2ccncc2)c3ccccc34

> <Substance_modify_yyyymmdd>
20111204

$$$$
