212141-54-3
ChemmineR-0915142007XD

 25 28  0  0  0  0  0  0  0  0  1 V2000
    8.0614    0.0000    0.0000 Cl   0  0  0  0  0  0  0  0  0  0  0  0
    8.0614   -1.3269    0.0000 C    0  0  0  0  0  0  0  0  0  0  0  0
    9.2187   -1.9954    0.0000 C    0  0  0  0  0  0  0  0  0  0  0  0
    9.2187   -3.3223    0.0000 C    0  0  0  0  0  0  0  0  0  0  0  0
    8.0614   -3.9908    0.0000 C    0  0  0  0  0  0  0  0  0  0  0  0
    8.0614   -5.3177    0.0000 N    0  0  0  0  0  0  0  0  0  0  0  0
    6.9140   -5.9862    0.0000 C    0  0  0  0  0  0  0  0  0  0  0  0
    5.7567   -5.3177    0.0000 N    0  0  0  0  0  0  0  0  0  0  0  0
    4.6093   -5.9862    0.0000 N    0  0  0  0  0  0  0  0  0  0  0  0
    4.6093   -7.3131    0.0000 C    0  0  0  0  0  0  0  0  0  0  0  0
    3.4520   -7.9815    0.0000 C    0  0  0  0  0  0  0  0  0  0  0  0
    2.3047   -7.3131    0.0000 C    0  0  0  0  0  0  0  0  0  0  0  0
    1.1473   -7.9815    0.0000 C    0  0  0  0  0  0  0  0  0  0  0  0
    0.0000   -7.3131    0.0000 C    0  0  0  0  0  0  0  0  0  0  0  0
    0.0000   -5.9862    0.0000 N    0  0  0  0  0  0  0  0  0  0  0  0
    1.1473   -5.3177    0.0000 C    0  0  0  0  0  0  0  0  0  0  0  0
    2.3047   -5.9862    0.0000 C    0  0  0  0  0  0  0  0  0  0  0  0
    5.7567   -7.9815    0.0000 C    0  0  0  0  0  0  0  0  0  0  0  0
    6.9140   -7.3131    0.0000 C    0  0  0  0  0  0  0  0  0  0  0  0
    8.0614   -7.9815    0.0000 C    0  0  0  0  0  0  0  0  0  0  0  0
    8.0614   -9.3085    0.0000 C    0  0  0  0  0  0  0  0  0  0  0  0
    6.9140   -9.9769    0.0000 C    0  0  0  0  0  0  0  0  0  0  0  0
    5.7567   -9.3085    0.0000 C    0  0  0  0  0  0  0  0  0  0  0  0
    6.9140   -3.3223    0.0000 C    0  0  0  0  0  0  0  0  0  0  0  0
    6.9140   -1.9954    0.0000 C    0  0  0  0  0  0  0  0  0  0  0  0
  1  2  1  0  0  0  0
  2  3  2  0  0  0  0
  2 25  1  0  0  0  0
  3  4  1  0  0  0  0
  4  5  2  0  0  0  0
  5  6  1  0  0  0  0
  5 24  1  0  0  0  0
  6  7  1  0  0  0  0
  7  8  2  0  0  0  0
  7 19  1  0  0  0  0
  8  9  1  0  0  0  0
  9 10  2  0  0  0  0
 10 11  1  0  0  0  0
 10 18  1  0  0  0  0
 11 12  1  0  0  0  0
 12 13  2  0  0  0  0
 12 17  1  0  0  0  0
 13 14  1  0  0  0  0
 14 15  2  0  0  0  0
 15 16  1  0  0  0  0
 16 17  2  0  0  0  0
 18 19  2  0  0  0  0
 18 23  1  0  0  0  0
 19 20  1  0  0  0  0
 20 21  2  0  0  0  0
 21 22  1  0  0  0  0
 22 23  2  0  0  0  0
 24 25  2  0  0  0  0
M  END
> <ID>
12078

> <Formula>
C20H15ClN4

> <FW>
346.8129

> <DSSTox_CID>
26919

> <DSSTox_RID>
82015

> <DSSTox_GSID>
46919

> <DSSTox_FileID_Sort>
6696

> <TS_ChemName>
Vatalanib

> <TS_ChemName_Synonyms>


> <TS_CASRN>
212141-54-3

> <CASRN_ChemName_Relationship>
primary

> <TS_Description>
single chemical compound

> <ChemNote>


> <STRUCTURE_Shown>
tested chemical

> <STRUCTURE_Formula>
C20H15ClN4

> <STRUCTURE_MW>
346.8129

> <STRUCTURE_ChemType>
defined organic

> <STRUCTURE_DefinedOrganicForm>
parent

> <STRUCTURE_IUPAC>
N-(4-chlorophenyl)-4-(pyridin-4-ylmethyl)phthalazin-1-amine

> <STRUCTURE_SMILES>
Clc1ccc(cc1)Nc4nnc(Cc2ccncc2)c3ccccc34

> <STRUCTURE_SMILES_Desalt>
Clc1ccc(cc1)Nc4nnc(Cc2ccncc2)c3ccccc34

> <Substance_modify_yyyymmdd>
20110725

$$$$
