21221-18-1
ChemmineR-0915142007XD

 24 26  0  0  0  0  0  0  0  0  1 V2000
    2.2846   -6.0146    0.0000 C   0  0  0  0  0  0  0  0  0  0  0  0
    2.2846   -7.3480    0.0000 C   0  0  0  0  0  0  0  0  0  0  0  0
    1.1376   -5.3245    0.0000 C   0  0  0  0  0  0  0  0  0  0  0  0
    1.1376   -7.9914    0.0000 C   0  0  0  0  0  0  0  0  0  0  0  0
    0.0000   -6.0146    0.0000 C   0  0  0  0  0  0  0  0  0  0  0  0
    0.0000   -7.3480    0.0000 C   0  0  0  0  0  0  0  0  0  0  0  0
    1.1376   -4.0004    0.0000 C   0  0  0  0  0  0  0  0  0  0  0  0
    0.0000   -3.3476    0.0000 C   0  0  0  0  0  0  0  0  0  0  0  0
    2.2846   -3.3103    0.0000 C   0  0  0  0  0  0  0  0  0  0  0  0
    0.0000   -1.9769    0.0000 C   0  0  0  0  0  0  0  0  0  0  0  0
    2.2846   -1.9769    0.0000 C   0  0  0  0  0  0  0  0  0  0  0  0
    1.1376   -1.3335    0.0000 N   0  0  0  0  0  0  0  0  0  0  0  0
    3.4595   -4.0004    0.0000 C   0  0  0  0  0  0  0  0  0  0  0  0
    3.4595   -5.3245    0.0000 O   0  0  0  0  0  0  0  0  0  0  0  0
    4.5972   -3.3103    0.0000 C   0  0  0  0  0  0  0  0  0  0  0  0
    4.5972   -1.9769    0.0000 C   0  0  0  0  0  0  0  0  0  0  0  0
    5.7721   -4.0004    0.0000 C   0  0  0  0  0  0  0  0  0  0  0  0
    5.7721   -1.3335    0.0000 C   0  0  0  0  0  0  0  0  0  0  0  0
    6.9004   -3.3103    0.0000 C   0  0  0  0  0  0  0  0  0  0  0  0
    6.9004   -1.9769    0.0000 C   0  0  0  0  0  0  0  0  0  0  0  0
    1.1376   -9.3249    0.0000 F   0  0  0  0  0  0  0  0  0  0  0  0
    8.0754   -1.3335    0.0000 F   0  0  0  0  0  0  0  0  0  0  0  0
    0.0000   -4.6438    0.0000 O   0  0  0  0  0  0  0  0  0  0  0  0
    1.1376    0.0000    0.0000 C   0  0  0  0  0  0  0  0  0  0  0  0
  1  2  1  0  0  0  0
  1  3  2  0  0  0  0
  2  4  2  0  0  0  0
  3  5  1  0  0  0  0
  3  7  1  0  0  0  0
  4  6  1  0  0  0  0
  4 21  1  0  0  0  0
  5  6  2  0  0  0  0
  7  8  1  0  0  0  0
  7  9  1  0  0  0  0
  7 23  1  0  0  0  0
  8 10  1  0  0  0  0
  9 11  1  0  0  0  0
  9 13  1  0  0  0  0
 10 12  1  0  0  0  0
 11 12  1  0  0  0  0
 12 24  1  0  0  0  0
 13 14  2  0  0  0  0
 13 15  1  0  0  0  0
 15 16  1  0  0  0  0
 15 17  2  0  0  0  0
 16 18  2  0  0  0  0
 17 19  1  0  0  0  0
 18 20  1  0  0  0  0
 19 20  2  0  0  0  0
 20 22  1  0  0  0  0
M  END
> <ID>
11576

> <Formula>
C19H19F2NO2

> <FW>
331.3565

> <DSSTox_CID>
26283

> <DSSTox_RID>
81509

> <DSSTox_GSID>
46283

> <DSSTox_FileID_Sort>
6190

> <TS_ChemName>
Flazalone

> <TS_ChemName_Synonyms>


> <TS_CASRN>
21221-18-1

> <CASRN_ChemName_Relationship>
primary

> <TS_Description>
single chemical compound

> <ChemNote>


> <STRUCTURE_Shown>
tested chemical

> <STRUCTURE_Formula>
C19H19F2NO2

> <STRUCTURE_MW>
331.3565

> <STRUCTURE_ChemType>
defined organic

> <STRUCTURE_DefinedOrganicForm>
parent

> <STRUCTURE_IUPAC>
(4-fluorophenyl)[4-(4-fluorophenyl)-4-hydroxy-1-methylpiperidin-3-yl]methanone

> <STRUCTURE_SMILES>
O=C(C1CN(C)CCC1(O)c2ccc(F)cc2)c3ccc(F)cc3

> <STRUCTURE_SMILES_Desalt>
O=C(C1CN(C)CCC1(O)c2ccc(F)cc2)c3ccc(F)cc3

> <Substance_modify_yyyymmdd>
20110815

$$$$
