2122-70-5
ChemmineR-0915142007XD

 16 17  0  0  0  0  0  0  0  0  1 V2000
    3.4478   -3.9934    0.0000 C   0  0  0  0  0  0  0  0  0  0  0  0
    3.4478   -5.3246    0.0000 C   0  0  0  0  0  0  0  0  0  0  0  0
    2.3085   -3.3339    0.0000 C   0  0  0  0  0  0  0  0  0  0  0  0
    2.3085   -5.9961    0.0000 C   0  0  0  0  0  0  0  0  0  0  0  0
    4.5990   -5.9961    0.0000 C   0  0  0  0  0  0  0  0  0  0  0  0
    4.5990   -3.3339    0.0000 C   0  0  0  0  0  0  0  0  0  0  0  0
    5.7563   -3.9934    0.0000 C   0  0  0  0  0  0  0  0  0  0  0  0
    5.7563   -5.3246    0.0000 C   0  0  0  0  0  0  0  0  0  0  0  0
    1.1573   -5.3246    0.0000 C   0  0  0  0  0  0  0  0  0  0  0  0
    1.1573   -3.9934    0.0000 C   0  0  0  0  0  0  0  0  0  0  0  0
    3.4478   -1.3311    0.0000 C   0  0  0  0  0  0  0  0  0  0  0  0
    3.4478    0.0000    0.0000 O   0  0  0  0  0  0  0  0  0  0  0  0
    2.3085   -2.0027    0.0000 O   0  0  0  0  0  0  0  0  0  0  0  0
    4.5990   -2.0027    0.0000 C   0  0  0  0  0  0  0  0  0  0  0  0
    1.1573   -1.3311    0.0000 C   0  0  0  0  0  0  0  0  0  0  0  0
    0.0000   -2.0027    0.0000 C   0  0  0  0  0  0  0  0  0  0  0  0
  1  2  2  0  0  0  0
  1  3  1  0  0  0  0
  1  6  1  0  0  0  0
  2  4  1  0  0  0  0
  2  5  1  0  0  0  0
  3 10  2  0  0  0  0
  4  9  2  0  0  0  0
  5  8  2  0  0  0  0
  6  7  2  0  0  0  0
  6 14  1  0  0  0  0
  7  8  1  0  0  0  0
  9 10  1  0  0  0  0
 11 12  2  0  0  0  0
 11 13  1  0  0  0  0
 11 14  1  0  0  0  0
 13 15  1  0  0  0  0
 15 16  1  0  0  0  0
M  END
> <ID>
6837

> <Formula>
C14H14O2

> <FW>
214.2598

> <DSSTox_CID>
14583

> <DSSTox_RID>
79170

> <DSSTox_GSID>
34583

> <DSSTox_FileID_Sort>
3852

> <TS_ChemName>
Ethyl 1-naphthaleneacetate

> <TS_ChemName_Synonyms>


> <TS_CASRN>
2122-70-5

> <CASRN_ChemName_Relationship>
primary

> <TS_Description>
single chemical compound

> <ChemNote>


> <STRUCTURE_Shown>
tested chemical

> <STRUCTURE_Formula>
C14H14O2

> <STRUCTURE_MW>
214.2598

> <STRUCTURE_ChemType>
defined organic

> <STRUCTURE_DefinedOrganicForm>
parent

> <STRUCTURE_IUPAC>
ethyl naphthalen-1-ylacetate

> <STRUCTURE_SMILES>
O=C(OCC)Cc2cccc1ccccc12

> <STRUCTURE_SMILES_Desalt>
O=C(OCC)Cc2cccc1ccccc12

> <Substance_modify_yyyymmdd>
20080429

$$$$
