2122-86-3
ChemmineR-0915142007XD

 14 15  0  0  0  0  0  0  0  0  2 V2000
    4.5865   -2.4461    0.0000 C   0  0  0  0  0  0  0  0  0  0  0  0
    3.2555   -2.3022    0.0000 C   0  0  0  0  0  0  0  0  0  0  0  0
    2.3652   -3.2915    0.0000 O   0  0  0  0  0  0  0  0  0  0  0  0
    1.1511   -2.7519    0.0000 C   0  0  0  0  0  0  0  0  0  0  0  0
    1.2950   -1.4299    0.0000 N   0  0  0  0  0  0  0  0  0  0  0  0
    2.5900   -1.1511    0.0000 N   0  0  0  0  0  0  0  0  0  0  0  0
    0.0000   -3.4174    0.0000 O   0  0  0  0  0  0  0  0  0  0  0  0
    5.4768   -1.4569    0.0000 O   0  0  0  0  0  0  0  0  0  0  0  0
    6.6908   -1.9965    0.0000 C   0  0  0  0  0  0  0  0  0  0  0  0
    7.8419   -1.3310    0.0000 N   0  3  0  0  0  0  0  0  0  0  0  0
    7.8419    0.0000    0.0000 O   0  0  0  0  0  0  0  0  0  0  0  0
    8.9931   -1.9965    0.0000 O   0  5  0  0  0  0  0  0  0  0  0  0
    6.5469   -3.3184    0.0000 C   0  0  0  0  0  0  0  0  0  0  0  0
    5.2430   -3.5972    0.0000 C   0  0  0  0  0  0  0  0  0  0  0  0
  1  2  1  0  0  0  0
  1  8  1  0  0  0  0
  1 14  2  0  0  0  0
  2  3  1  0  0  0  0
  2  6  2  0  0  0  0
  3  4  1  0  0  0  0
  4  5  2  0  0  0  0
  4  7  1  0  0  0  0
  5  6  1  0  0  0  0
  8  9  1  0  0  0  0
  9 10  1  0  0  0  0
  9 13  2  0  0  0  0
 10 11  2  0  0  0  0
 10 12  1  0  0  0  0
 13 14  1  0  0  0  0
M  END
> <ID>
912

> <Formula>
C6H3N3O5

> <FW>
197.1051

> <DSSTox_CID>
948

> <DSSTox_RID>
75883

> <DSSTox_GSID>
20948

> <DSSTox_FileID_Sort>
567

> <TS_ChemName>
5-(5-Nitro-2-furyl)-1,3,4-oxadiazole-2-ol

> <TS_ChemName_Synonyms>


> <TS_CASRN>
2122-86-3

> <CASRN_ChemName_Relationship>
primary

> <TS_Description>
single chemical compound

> <ChemNote>


> <STRUCTURE_Shown>
tested chemical

> <STRUCTURE_Formula>
C6H3N3O5

> <STRUCTURE_MW>
197.1051

> <STRUCTURE_ChemType>
defined organic

> <STRUCTURE_DefinedOrganicForm>
parent

> <STRUCTURE_IUPAC>
5-(5-nitrofuran-2-yl)-1,3,4-oxadiazol-2-ol

> <STRUCTURE_SMILES>
Oc1nnc(o1)c2oc(cc2)[N+]([O-])=O

> <STRUCTURE_SMILES_Desalt>
Oc1nnc(o1)c2oc(cc2)[N+]([O-])=O

> <Substance_modify_yyyymmdd>
20080429

$$$$
