21228-13-7
ChemmineR-0915142007XD

 24 27  0  0  0  0  0  0  0  0  1 V2000
    0.0000   -2.3088    0.0000 C    0  0  0  0  0  0  0  0  0  0  0  0
    1.1544   -2.9765    0.0000 N    0  0  0  0  0  0  0  0  0  0  0  0
    1.1544   -4.3120    0.0000 C    0  0  0  0  0  0  0  0  0  0  0  0
    2.3088   -4.9684    0.0000 C    0  0  0  0  0  0  0  0  0  0  0  0
    3.4518   -4.3120    0.0000 C    0  0  0  0  0  0  0  0  0  0  0  0
    3.4518   -2.9765    0.0000 C    0  0  0  0  0  0  0  0  0  0  0  0
    2.3088   -2.3088    0.0000 C    0  0  0  0  0  0  0  0  0  0  0  0
    4.7194   -2.5691    0.0000 C    0  0  0  0  0  0  0  0  0  0  0  0
    5.5003   -3.6442    0.0000 C    0  0  0  0  0  0  0  0  0  0  0  0
    6.8245   -3.5084    0.0000 C    0  0  0  0  0  0  0  0  0  0  0  0
    7.3677   -2.2861    0.0000 C    0  0  0  0  0  0  0  0  0  0  0  0
    6.5868   -1.2110    0.0000 C    0  0  0  0  0  0  0  0  0  0  0  0
    5.2626   -1.3581    0.0000 C    0  0  0  0  0  0  0  0  0  0  0  0
    7.1187    0.0000    0.0000 Cl   0  0  0  0  0  0  0  0  0  0  0  0
    4.7194   -4.7194    0.0000 N    0  0  0  0  0  0  0  0  0  0  0  0
    5.1268   -5.9870    0.0000 C    0  0  0  0  0  0  0  0  0  0  0  0
    6.4284   -6.2586    0.0000 C    0  0  0  0  0  0  0  0  0  0  0  0
    6.8358   -7.5262    0.0000 C    0  0  0  0  0  0  0  0  0  0  0  0
    5.9530   -8.5108    0.0000 C    0  0  0  0  0  0  0  0  0  0  0  0
    6.3604   -9.7783    0.0000 N    0  0  0  0  0  0  0  0  0  0  0  0
    7.6620  -10.0500    0.0000 C    0  0  0  0  0  0  0  0  0  0  0  0
    8.0694  -11.3175    0.0000 C    0  0  0  0  0  0  0  0  0  0  0  0
    8.5560   -9.0653    0.0000 C    0  0  0  0  0  0  0  0  0  0  0  0
    8.1373   -7.7978    0.0000 C    0  0  0  0  0  0  0  0  0  0  0  0
  1  2  1  0  0  0  0
  2  3  1  0  0  0  0
  2  7  1  0  0  0  0
  3  4  1  0  0  0  0
  4  5  1  0  0  0  0
  5  6  2  0  0  0  0
  5 15  1  0  0  0  0
  6  7  1  0  0  0  0
  6  8  1  0  0  0  0
  8  9  2  0  0  0  0
  8 13  1  0  0  0  0
  9 10  1  0  0  0  0
  9 15  1  0  0  0  0
 10 11  2  0  0  0  0
 11 12  1  0  0  0  0
 12 13  2  0  0  0  0
 12 14  1  0  0  0  0
 15 16  1  0  0  0  0
 16 17  1  0  0  0  0
 17 18  1  0  0  0  0
 18 19  2  0  0  0  0
 18 24  1  0  0  0  0
 19 20  1  0  0  0  0
 20 21  2  0  0  0  0
 21 22  1  0  0  0  0
 21 23  1  0  0  0  0
 23 24  2  0  0  0  0
M  END
> <ID>
16084

> <Formula>
C20H22ClN3

> <FW>
339.8618

> <DSSTox_CID>
31471

> <DSSTox_RID>
97356

> <DSSTox_GSID>
57682

> <DSSTox_FileID_Sort>
8423

> <TS_ChemName>
Dorastine

> <TS_ChemName_Synonyms>


> <TS_CASRN>
21228-13-7

> <CASRN_ChemName_Relationship>
primary

> <TS_Description>
single chemical compound

> <ChemNote>


> <STRUCTURE_Shown>
tested chemical

> <STRUCTURE_Formula>
C20H22ClN3

> <STRUCTURE_MW>
339.8618

> <STRUCTURE_ChemType>
defined organic

> <STRUCTURE_DefinedOrganicForm>
parent

> <STRUCTURE_IUPAC>
8-chloro-2-methyl-5-[2-(6-methylpyridin-3-yl)ethyl]-2,3,4,5-tetrahydro-1H-pyrido[4,3-b]indole

> <STRUCTURE_SMILES>
Cc1ccc(cn1)CCn3c4ccc(Cl)cc4c2CN(C)CCc23

> <STRUCTURE_SMILES_Desalt>
Cc1ccc(cn1)CCn3c4ccc(Cl)cc4c2CN(C)CCc23

> <Substance_modify_yyyymmdd>
20131018

$$$$
