21245-02-3
ChemmineR-0915142007XD

 20 20  0  0  0  0  0  0  0  0  1 V2000
    5.7381   -1.3242    0.0000 C   0  0  0  0  0  0  0  0  0  0  0  0
    5.7381    0.0000    0.0000 O   0  0  0  0  0  0  0  0  0  0  0  0
    4.5933   -2.0001    0.0000 C   0  0  0  0  0  0  0  0  0  0  0  0
    6.8968   -2.0001    0.0000 O   0  0  0  0  0  0  0  0  0  0  0  0
    4.5933   -3.3242    0.0000 C   0  0  0  0  0  0  0  0  0  0  0  0
    3.4346   -1.3242    0.0000 C   0  0  0  0  0  0  0  0  0  0  0  0
    3.4346   -3.9863    0.0000 C   0  0  0  0  0  0  0  0  0  0  0  0
    2.2897   -2.0001    0.0000 C   0  0  0  0  0  0  0  0  0  0  0  0
    2.2897   -3.3242    0.0000 C   0  0  0  0  0  0  0  0  0  0  0  0
    1.1587   -3.9863    0.0000 N   0  0  0  0  0  0  0  0  0  0  0  0
    0.0000   -3.3242    0.0000 C   0  0  0  0  0  0  0  0  0  0  0  0
    1.1587   -5.3105    0.0000 C   0  0  0  0  0  0  0  0  0  0  0  0
    8.0554   -1.3242    0.0000 C   0  0  0  0  0  0  0  0  0  0  0  0
    9.2003   -2.0001    0.0000 C   0  0  0  0  0  0  0  0  0  0  0  0
   10.3590   -1.3242    0.0000 C   0  0  0  0  0  0  0  0  0  0  0  0
   11.5038   -2.0001    0.0000 C   0  0  0  0  0  0  0  0  0  0  0  0
   12.6349   -1.3242    0.0000 C   0  0  0  0  0  0  0  0  0  0  0  0
   13.7936   -2.0001    0.0000 C   0  0  0  0  0  0  0  0  0  0  0  0
    9.2003   -3.3242    0.0000 C   0  0  0  0  0  0  0  0  0  0  0  0
   10.3590   -3.9863    0.0000 C   0  0  0  0  0  0  0  0  0  0  0  0
  1  2  2  0  0  0  0
  1  3  1  0  0  0  0
  1  4  1  0  0  0  0
  3  5  2  0  0  0  0
  3  6  1  0  0  0  0
  4 13  1  0  0  0  0
  5  7  1  0  0  0  0
  6  8  2  0  0  0  0
  7  9  2  0  0  0  0
  8  9  1  0  0  0  0
  9 10  1  0  0  0  0
 10 11  1  0  0  0  0
 10 12  1  0  0  0  0
 13 14  1  0  0  0  0
 14 15  1  0  0  0  0
 14 19  1  0  0  0  0
 15 16  1  0  0  0  0
 16 17  1  0  0  0  0
 17 18  1  0  0  0  0
 19 20  1  0  0  0  0
M  END
> <ID>
5945

> <Formula>
C17H27NO2

> <FW>
277.4018

> <DSSTox_CID>
9320

> <DSSTox_RID>
78762

> <DSSTox_GSID>
29320

> <DSSTox_FileID_Sort>
3444

> <TS_ChemName>
2-Ethylhexyl 4-(dimethylamino)benzoate

> <TS_ChemName_Synonyms>
2-Ethylhexyl 4-(dimethylamino)benzoate (2-Ethylhexyl-p-dimethyl-aminobenzoate)

> <TS_CASRN>
21245-02-3

> <CASRN_ChemName_Relationship>
primary

> <TS_Description>
single chemical compound

> <ChemNote>


> <STRUCTURE_Shown>
tested chemical

> <STRUCTURE_Formula>
C17H27NO2

> <STRUCTURE_MW>
277.4018

> <STRUCTURE_ChemType>
defined organic

> <STRUCTURE_DefinedOrganicForm>
parent

> <STRUCTURE_IUPAC>
2-ethylhexyl 4-(dimethylamino)benzoate

> <STRUCTURE_SMILES>
CN(C)c1ccc(cc1)C(=O)OCC(CC)CCCC

> <STRUCTURE_SMILES_Desalt>
CN(C)c1ccc(cc1)C(=O)OCC(CC)CCCC

> <Substance_modify_yyyymmdd>
20080429

$$$$
