21245-01-2
ChemmineR-0915142007XD

 17 17  0  0  0  0  0  0  0  0  1 V2000
    5.7498   -1.3225    0.0000 C   0  0  0  0  0  0  0  0  0  0  0  0
    4.5999   -2.0009    0.0000 C   0  0  0  0  0  0  0  0  0  0  0  0
    2.2884   -3.3234    0.0000 C   0  0  0  0  0  0  0  0  0  0  0  0
    1.1385   -3.9789    0.0000 N   0  0  0  0  0  0  0  0  0  0  0  0
    5.7498    0.0000    0.0000 O   0  0  0  0  0  0  0  0  0  0  0  0
    4.5999   -3.3234    0.0000 C   0  0  0  0  0  0  0  0  0  0  0  0
    3.4384   -1.3225    0.0000 C   0  0  0  0  0  0  0  0  0  0  0  0
    2.2884   -2.0009    0.0000 C   0  0  0  0  0  0  0  0  0  0  0  0
    3.4384   -3.9789    0.0000 C   0  0  0  0  0  0  0  0  0  0  0  0
    6.8998   -2.0009    0.0000 O   0  0  0  0  0  0  0  0  0  0  0  0
    1.1385   -5.3128    0.0000 C   0  0  0  0  0  0  0  0  0  0  0  0
    0.0000   -3.3234    0.0000 C   0  0  0  0  0  0  0  0  0  0  0  0
    8.0613   -1.3225    0.0000 C   0  0  0  0  0  0  0  0  0  0  0  0
    9.2112   -2.0009    0.0000 C   0  0  0  0  0  0  0  0  0  0  0  0
   11.4997   -2.0009    0.0000 C   0  0  0  0  0  0  0  0  0  0  0  0
   10.3612   -1.3225    0.0000 C   0  0  0  0  0  0  0  0  0  0  0  0
   10.3612    0.0000    0.0000 C   0  0  0  0  0  0  0  0  0  0  0  0
  1  2  1  0  0  0  0
  1  5  2  0  0  0  0
  1 10  1  0  0  0  0
  2  6  2  0  0  0  0
  2  7  1  0  0  0  0
  3  8  1  0  0  0  0
  3  4  1  0  0  0  0
  3  9  2  0  0  0  0
  4 11  1  0  0  0  0
  4 12  1  0  0  0  0
  6  9  1  0  0  0  0
  7  8  2  0  0  0  0
 10 13  1  0  0  0  0
 13 14  1  0  0  0  0
 14 16  1  0  0  0  0
 15 16  1  0  0  0  0
 16 17  1  0  0  0  0
M  END
> <ID>
11805

> <Formula>
C14H21NO2

> <FW>
235.322

> <DSSTox_CID>
26580

> <DSSTox_RID>
81739

> <DSSTox_GSID>
46580

> <DSSTox_FileID_Sort>
6420

> <TS_ChemName>
Padimate

> <TS_ChemName_Synonyms>


> <TS_CASRN>
21245-01-2

> <CASRN_ChemName_Relationship>
primary

> <TS_Description>
single chemical compound

> <ChemNote>


> <STRUCTURE_Shown>
tested chemical

> <STRUCTURE_Formula>
C14H21NO2

> <STRUCTURE_MW>
235.322

> <STRUCTURE_ChemType>
defined organic

> <STRUCTURE_DefinedOrganicForm>
parent

> <STRUCTURE_IUPAC>
3-methylbutyl 4-(dimethylamino)benzoate

> <STRUCTURE_SMILES>
CN(C)c1ccc(cc1)C(=O)OCCC(C)C

> <STRUCTURE_SMILES_Desalt>
CN(C)c1ccc(cc1)C(=O)OCCC(C)C

> <Substance_modify_yyyymmdd>
20110810

$$$$
