21256-18-8
ChemmineR-0915142007XD

 22 24  0  0  0  0  0  0  0  0  1 V2000
    3.4737   -4.0067    0.0000 C   0  0  0  0  0  0  0  0  0  0  0  0
    3.4737   -2.6743    0.0000 C   0  0  0  0  0  0  0  0  0  0  0  0
    4.7299   -4.4064    0.0000 N   0  0  0  0  0  0  0  0  0  0  0  0
    4.7299   -2.2555    0.0000 O   0  0  0  0  0  0  0  0  0  0  0  0
    5.5103   -3.3214    0.0000 C   0  0  0  0  0  0  0  0  0  0  0  0
    2.3031   -4.6728    0.0000 C   0  0  0  0  0  0  0  0  0  0  0  0
    8.8318   -2.1794    0.0000 C   0  0  0  0  0  0  0  0  0  0  0  0
    2.3031   -1.9986    0.0000 C   0  0  0  0  0  0  0  0  0  0  0  0
    9.5170   -3.3214    0.0000 O   0  0  0  0  0  0  0  0  0  0  0  0
    6.8237   -3.3214    0.0000 C   0  0  0  0  0  0  0  0  0  0  0  0
    7.4994   -2.1794    0.0000 C   0  0  0  0  0  0  0  0  0  0  0  0
    9.4980   -1.0278    0.0000 O   0  0  0  0  0  0  0  0  0  0  0  0
    2.3031   -6.0147    0.0000 C   0  0  0  0  0  0  0  0  0  0  0  0
    1.1801   -2.6743    0.0000 C   0  0  0  0  0  0  0  0  0  0  0  0
    1.1611   -4.0067    0.0000 C   0  0  0  0  0  0  0  0  0  0  0  0
    2.3031   -0.6662    0.0000 C   0  0  0  0  0  0  0  0  0  0  0  0
    1.1801    0.0000    0.0000 C   0  0  0  0  0  0  0  0  0  0  0  0
    0.0000   -4.6919    0.0000 C   0  0  0  0  0  0  0  0  0  0  0  0
    1.1611   -6.6809    0.0000 C   0  0  0  0  0  0  0  0  0  0  0  0
    0.0190   -1.9890    0.0000 C   0  0  0  0  0  0  0  0  0  0  0  0
    0.0190   -0.6662    0.0000 C   0  0  0  0  0  0  0  0  0  0  0  0
    0.0000   -6.0147    0.0000 C   0  0  0  0  0  0  0  0  0  0  0  0
  1  2  2  0  0  0  0
  1  3  1  0  0  0  0
  1  6  1  0  0  0  0
  2  4  1  0  0  0  0
  2  8  1  0  0  0  0
  3  5  2  0  0  0  0
  4  5  1  0  0  0  0
  5 10  1  0  0  0  0
  6 13  2  0  0  0  0
  6 15  1  0  0  0  0
  7 11  1  0  0  0  0
  7  9  2  0  0  0  0
  7 12  1  0  0  0  0
  8 14  2  0  0  0  0
  8 16  1  0  0  0  0
 10 11  1  0  0  0  0
 13 19  1  0  0  0  0
 14 20  1  0  0  0  0
 15 18  2  0  0  0  0
 16 17  2  0  0  0  0
 17 21  1  0  0  0  0
 18 22  1  0  0  0  0
 19 22  2  0  0  0  0
 20 21  2  0  0  0  0
M  END
> <ID>
10752

> <Formula>
C18H15NO3

> <FW>
293.3166

> <DSSTox_CID>
25118

> <DSSTox_RID>
80684

> <DSSTox_GSID>
45118

> <DSSTox_FileID_Sort>
5366

> <TS_ChemName>
Oxaprozin

> <TS_ChemName_Synonyms>


> <TS_CASRN>
21256-18-8

> <CASRN_ChemName_Relationship>
primary

> <TS_Description>
single chemical compound

> <ChemNote>


> <STRUCTURE_Shown>
tested chemical

> <STRUCTURE_Formula>
C18H15NO3

> <STRUCTURE_MW>
293.3166

> <STRUCTURE_ChemType>
defined organic

> <STRUCTURE_DefinedOrganicForm>
parent

> <STRUCTURE_IUPAC>
3-(4,5-diphenyl-1,3-oxazol-2-yl)propanoic acid

> <STRUCTURE_SMILES>
OC(=O)CCc1nc(c(o1)c2ccccc2)c3ccccc3

> <STRUCTURE_SMILES_Desalt>
OC(=O)CCc1nc(c(o1)c2ccccc2)c3ccccc3

> <Substance_modify_yyyymmdd>
20100107

$$$$
