212631-79-3
ChemmineR-0915142007XD

 25 27  0  0  0  0  0  0  0  0  1 V2000
    3.4574   -2.0028    0.0000 C    0  0  0  0  0  0  0  0  0  0  0  0
    3.4574   -3.3309    0.0000 C    0  0  0  0  0  0  0  0  0  0  0  0
    2.3084   -1.3281    0.0000 C    0  0  0  0  0  0  0  0  0  0  0  0
    2.3084   -3.9844    0.0000 C    0  0  0  0  0  0  0  0  0  0  0  0
    1.1489   -2.0028    0.0000 C    0  0  0  0  0  0  0  0  0  0  0  0
    1.1489   -3.3309    0.0000 C    0  0  0  0  0  0  0  0  0  0  0  0
    4.6169   -3.9844    0.0000 N    0  0  0  0  0  0  0  0  0  0  0  0
    4.6169   -5.3231    0.0000 C    0  0  0  0  0  0  0  0  0  0  0  0
    5.7658   -5.9872    0.0000 C    0  0  0  0  0  0  0  0  0  0  0  0
    3.4574   -5.9872    0.0000 C    0  0  0  0  0  0  0  0  0  0  0  0
    5.7658   -7.3259    0.0000 C    0  0  0  0  0  0  0  0  0  0  0  0
    3.4574   -7.3259    0.0000 C    0  0  0  0  0  0  0  0  0  0  0  0
    4.6169   -7.9794    0.0000 C    0  0  0  0  0  0  0  0  0  0  0  0
    6.9253   -5.3231    0.0000 Cl   0  0  0  0  0  0  0  0  0  0  0  0
    4.6169   -9.3075    0.0000 I    0  0  0  0  0  0  0  0  0  0  0  0
    2.3084   -5.3231    0.0000 F    0  0  0  0  0  0  0  0  0  0  0  0
    0.0000   -3.9844    0.0000 F    0  0  0  0  0  0  0  0  0  0  0  0
    4.6169   -1.3281    0.0000 C    0  0  0  0  0  0  0  0  0  0  0  0
    5.7658   -1.9817    0.0000 N    0  0  0  0  0  0  0  0  0  0  0  0
    4.6169    0.0000    0.0000 O    0  0  0  0  0  0  0  0  0  0  0  0
    6.9253   -1.3281    0.0000 O    0  0  0  0  0  0  0  0  0  0  0  0
    8.0532   -1.9817    0.0000 C    0  0  0  0  0  0  0  0  0  0  0  0
    9.2127   -1.3281    0.0000 C    0  0  0  0  0  0  0  0  0  0  0  0
    9.8873   -0.1792    0.0000 C    0  0  0  0  0  0  0  0  0  0  0  0
   10.5408   -1.3281    0.0000 C    0  0  0  0  0  0  0  0  0  0  0  0
  1  2  1  0  0  0  0
  1  3  2  0  0  0  0
  1 18  1  0  0  0  0
  2  4  2  0  0  0  0
  2  7  1  0  0  0  0
  3  5  1  0  0  0  0
  4  6  1  0  0  0  0
  4 16  1  0  0  0  0
  5  6  2  0  0  0  0
  6 17  1  0  0  0  0
  7  8  1  0  0  0  0
  8  9  1  0  0  0  0
  8 10  2  0  0  0  0
  9 11  2  0  0  0  0
  9 14  1  0  0  0  0
 10 12  1  0  0  0  0
 11 13  1  0  0  0  0
 12 13  2  0  0  0  0
 13 15  1  0  0  0  0
 18 19  1  0  0  0  0
 18 20  2  0  0  0  0
 19 21  1  0  0  0  0
 21 22  1  0  0  0  0
 22 23  1  0  0  0  0
 23 24  1  0  0  0  0
 23 25  1  0  0  0  0
 24 25  1  0  0  0  0
M  END
> <ID>
13934

> <Formula>
C17H14ClF2IN2O2

> <FW>
478.6595

> <DSSTox_CID>
28871

> <DSSTox_RID>
83140

> <DSSTox_GSID>
48945

> <DSSTox_FileID_Sort>
7817

> <TS_ChemName>
C.I. 1040

> <TS_ChemName_Synonyms>
CI-1040

> <TS_CASRN>
212631-79-3

> <CASRN_ChemName_Relationship>
primary

> <TS_Description>
single chemical compound

> <ChemNote>


> <STRUCTURE_Shown>
tested chemical

> <STRUCTURE_Formula>
C17H14ClF2IN2O2

> <STRUCTURE_MW>
478.6595

> <STRUCTURE_ChemType>
defined organic

> <STRUCTURE_DefinedOrganicForm>
parent

> <STRUCTURE_IUPAC>
2-[(2-chloro-4-iodophenyl)amino]-N-(cyclopropylmethoxy)-3,4-difluorobenzamide

> <STRUCTURE_SMILES>
O=C(NOCC1CC1)c3ccc(F)c(F)c3Nc2ccc(I)cc2Cl

> <STRUCTURE_SMILES_Desalt>
O=C(NOCC1CC1)c3ccc(F)c(F)c3Nc2ccc(I)cc2Cl

> <Substance_modify_yyyymmdd>
20111204

$$$$
