2127-01-7
ChemmineR-0915142007XD

 21 23  0  0  0  0  0  0  0  0  1 V2000
    0.5011   -1.5247    0.0000 N    0  0  0  0  0  0  0  0  0  0  0  0
    1.1515   -2.6655    0.0000 S    0  0  0  0  0  0  0  0  0  0  0  0
    1.8339   -3.8170    0.0000 O    0  0  0  0  0  0  0  0  0  0  0  0
    0.0000   -3.3159    0.0000 O    0  0  0  0  0  0  0  0  0  0  0  0
    2.2923   -1.9831    0.0000 C    0  0  0  0  0  0  0  0  0  0  0  0
    3.4652   -2.6655    0.0000 C    0  0  0  0  0  0  0  0  0  0  0  0
    4.6273   -1.9831    0.0000 C    0  0  0  0  0  0  0  0  0  0  0  0
    4.6273   -0.6504    0.0000 C    0  0  0  0  0  0  0  0  0  0  0  0
    5.8961   -0.2559    0.0000 C    0  0  0  0  0  0  0  0  0  0  0  0
    6.6638   -1.3328    0.0000 N    0  0  0  0  0  0  0  0  0  0  0  0
    7.9965   -1.3328    0.0000 C    0  0  0  0  0  0  0  0  0  0  0  0
    8.6682   -2.4842    0.0000 C    0  0  0  0  0  0  0  0  0  0  0  0
   10.0010   -2.4842    0.0000 C    0  0  0  0  0  0  0  0  0  0  0  0
   10.6620   -1.3328    0.0000 C    0  0  0  0  0  0  0  0  0  0  0  0
   10.0010   -0.1919    0.0000 C    0  0  0  0  0  0  0  0  0  0  0  0
    8.6682   -0.1919    0.0000 C    0  0  0  0  0  0  0  0  0  0  0  0
    5.8961   -2.3990    0.0000 C    0  0  0  0  0  0  0  0  0  0  0  0
    6.2906   -3.6677    0.0000 O    0  0  0  0  0  0  0  0  0  0  0  0
    3.4652    0.0000    0.0000 C    0  0  0  0  0  0  0  0  0  0  0  0
    2.2923   -0.6504    0.0000 C    0  0  0  0  0  0  0  0  0  0  0  0
    1.1515    0.0000    0.0000 Cl   0  0  0  0  0  0  0  0  0  0  0  0
  1  2  1  0  0  0  0
  2  3  2  0  0  0  0
  2  4  2  0  0  0  0
  2  5  1  0  0  0  0
  5  6  2  0  0  0  0
  5 20  1  0  0  0  0
  6  7  1  0  0  0  0
  7  8  2  0  0  0  0
  7 17  1  0  0  0  0
  8  9  1  0  0  0  0
  8 19  1  0  0  0  0
  9 10  1  0  0  0  0
 10 11  1  0  0  0  0
 10 17  1  0  0  0  0
 11 12  1  0  0  0  0
 11 16  1  0  0  0  0
 12 13  1  0  0  0  0
 13 14  1  0  0  0  0
 14 15  1  0  0  0  0
 15 16  1  0  0  0  0
 17 18  2  0  0  0  0
 19 20  2  0  0  0  0
 20 21  1  0  0  0  0
M  END
> <ID>
16085

> <Formula>
C14H17ClN2O3S

> <FW>
328.8144

> <DSSTox_CID>
31472

> <DSSTox_RID>
97357

> <DSSTox_GSID>
57683

> <DSSTox_FileID_Sort>
8424

> <TS_ChemName>
Chlorexolone

> <TS_ChemName_Synonyms>


> <TS_CASRN>
2127-01-7

> <CASRN_ChemName_Relationship>
primary

> <TS_Description>
single chemical compound

> <ChemNote>


> <STRUCTURE_Shown>
tested chemical

> <STRUCTURE_Formula>
C14H17ClN2O3S

> <STRUCTURE_MW>
328.8144

> <STRUCTURE_ChemType>
defined organic

> <STRUCTURE_DefinedOrganicForm>
parent

> <STRUCTURE_IUPAC>
6-chloro-2-cyclohexyl-3-oxoisoindoline-5-sulfonamide

> <STRUCTURE_SMILES>
NS(=O)(=O)c1cc2C(=O)N(Cc2cc1Cl)C3CCCCC3

> <STRUCTURE_SMILES_Desalt>
NS(=O)(=O)c1cc2C(=O)N(Cc2cc1Cl)C3CCCCC3

> <Substance_modify_yyyymmdd>
20131018

$$$$
