21282-97-3
ChemmineR-0915142007XD

 15 14  0  0  0  0  0  0  0  0  1 V2000
    2.3087   -1.3506    0.0000 C   0  0  0  0  0  0  0  0  0  0  0  0
    3.4630   -2.0085    0.0000 C   0  0  0  0  0  0  0  0  0  0  0  0
    1.1543   -2.0085    0.0000 C   0  0  0  0  0  0  0  0  0  0  0  0
    3.4630   -3.3360    0.0000 O   0  0  0  0  0  0  0  0  0  0  0  0
    1.1543   -3.3360    0.0000 O   0  0  0  0  0  0  0  0  0  0  0  0
    4.6289   -1.3506    0.0000 O   0  0  0  0  0  0  0  0  0  0  0  0
    0.0000   -1.3506    0.0000 C   0  0  0  0  0  0  0  0  0  0  0  0
    5.7717   -2.0085    0.0000 C   0  0  0  0  0  0  0  0  0  0  0  0
    6.9260   -1.3506    0.0000 C   0  0  0  0  0  0  0  0  0  0  0  0
    8.0804   -2.0085    0.0000 O   0  0  0  0  0  0  0  0  0  0  0  0
    9.2347   -1.3506    0.0000 C   0  0  0  0  0  0  0  0  0  0  0  0
   10.3890   -2.0085    0.0000 C   0  0  0  0  0  0  0  0  0  0  0  0
    9.2347    0.0000    0.0000 O   0  0  0  0  0  0  0  0  0  0  0  0
   10.3890   -3.3360    0.0000 C   0  0  0  0  0  0  0  0  0  0  0  0
   11.5434   -1.3506    0.0000 C   0  0  0  0  0  0  0  0  0  0  0  0
  1  2  1  0  0  0  0
  1  3  1  0  0  0  0
  2  4  2  0  0  0  0
  2  6  1  0  0  0  0
  3  5  2  0  0  0  0
  3  7  1  0  0  0  0
  6  8  1  0  0  0  0
  8  9  1  0  0  0  0
  9 10  1  0  0  0  0
 10 11  1  0  0  0  0
 11 12  1  0  0  0  0
 11 13  2  0  0  0  0
 12 14  2  0  0  0  0
 12 15  1  0  0  0  0
M  END
> <ID>
8354

> <Formula>
C10H14O5

> <FW>
214.2152

> <DSSTox_CID>
21388

> <DSSTox_RID>
79710

> <DSSTox_GSID>
41388

> <DSSTox_FileID_Sort>
4392

> <TS_ChemName>
2-[Methacryloyloxy]ethyl acetoacetate

> <TS_ChemName_Synonyms>


> <TS_CASRN>
21282-97-3

> <CASRN_ChemName_Relationship>
primary

> <TS_Description>
single chemical compound

> <ChemNote>
tautomers

> <STRUCTURE_Shown>
tested chemical

> <STRUCTURE_Formula>
C10H14O5

> <STRUCTURE_MW>
214.2152

> <STRUCTURE_ChemType>
defined organic

> <STRUCTURE_DefinedOrganicForm>
parent

> <STRUCTURE_IUPAC>
2-[(2-methylacryloyl)oxy]ethyl 3-oxobutanoate

> <STRUCTURE_SMILES>
O=C(CC(C)=O)OCCOC(=O)C(=C)C

> <STRUCTURE_SMILES_Desalt>
O=C(CC(C)=O)OCCOC(=O)C(=C)C

> <Substance_modify_yyyymmdd>
20080825

$$$$
