2135-17-3
ChemmineR-0915142007XD

 31 34  0  0  1  0  0  0  0  0  1 V2000
   10.4710    0.0000    0.0000 O   0  0  0  0  0  0  0  0  0  0  0  0
    3.5078   -5.1518    0.0000 C   0  0  0  0  0  0  0  0  0  0  0  0
    6.9737   -3.1518    0.0000 C   0  0  0  0  0  0  0  0  0  0  0  0
    4.6596   -4.4921    0.0000 C   0  0  0  0  0  0  0  0  0  0  0  0
    3.5078   -6.4921    0.0000 C   0  0  0  0  0  0  0  0  0  0  0  0
    6.9737   -4.4921    0.0000 C   0  0  0  0  0  0  0  0  0  0  0  0
    5.8114   -5.1518    0.0000 C   0  0  0  0  0  0  0  0  0  0  0  0
    8.2407   -2.7434    0.0000 C   0  0  0  0  0  0  0  0  0  0  0  0
    4.6596   -3.1518    0.0000 C   0  0  0  0  0  0  0  0  0  0  0  0
    2.3455   -4.4921    0.0000 C   0  0  0  0  0  0  0  0  0  0  0  0
    5.8114   -2.4816    0.0000 C   0  0  0  0  0  0  0  0  0  0  0  0
    9.0156   -3.8219    0.0000 C   0  0  0  0  0  0  0  0  0  0  0  0
    8.2407   -4.9005    0.0000 C   0  0  0  0  0  0  0  0  0  0  0  0
    5.8114   -6.4921    0.0000 C   0  0  0  0  0  0  0  0  0  0  0  0
    4.6596   -7.1517    0.0000 C   0  0  0  0  0  0  0  0  0  0  0  0
    2.3455   -7.1517    0.0000 C   0  0  0  0  0  0  0  0  0  0  0  0
    8.6072   -1.4659    0.0000 C   0  0  0  0  0  0  0  0  0  0  0  0
    1.1728   -5.1518    0.0000 C   0  0  0  0  0  0  0  0  0  0  0  0
    1.1728   -6.4816    0.0000 C   0  0  0  0  0  0  0  0  0  0  0  0
    4.6282   -5.7800    0.0000 F   0  0  0  0  0  0  0  0  0  0  0  0
    7.6858   -0.5131    0.0000 O   0  0  0  0  0  0  0  0  0  0  0  0
    0.0000   -7.1413    0.0000 O   0  0  0  0  0  0  0  0  0  0  0  0
    9.5601   -2.6073    0.0000 O   0  0  0  0  0  0  0  0  0  0  0  0
    3.5078   -3.7905    0.0000 C   0  0  0  0  0  0  0  0  0  0  0  0
    7.0051   -1.8848    0.0000 C   0  0  0  0  0  0  0  0  0  0  0  0
    3.5078   -2.4712    0.0000 O   0  0  0  0  0  0  0  0  0  0  0  0
    4.6596   -8.4920    0.0000 F   0  0  0  0  0  0  0  0  0  0  0  0
   10.3559   -3.8219    0.0000 C   0  0  0  0  0  0  0  0  0  0  0  0
    9.8951   -1.1309    0.0000 C   0  0  0  0  0  0  0  0  0  0  0  0
    5.8114   -3.8115    0.0000 H   0  0  0  0  0  0  0  0  0  0  0  0
    6.9737   -5.8114    0.0000 H   0  0  0  0  0  0  0  0  0  0  0  0
  1 29  1  0  0  0  0
  2  4  1  0  0  0  0
  2  5  1  0  0  0  0
  2 10  1  0  0  0  0
  2 24  1  1  0  0  0
  3 11  1  0  0  0  0
  3  8  1  0  0  0  0
  3 25  1  1  0  0  0
  3  6  1  0  0  0  0
  4  7  1  0  0  0  0
  4  9  1  0  0  0  0
  4 20  1  6  0  0  0
  5 15  1  0  0  0  0
  5 16  2  0  0  0  0
  6  7  1  0  0  0  0
  6 13  1  0  0  0  0
  6 31  1  6  0  0  0
  7 14  1  0  0  0  0
  7 30  1  1  0  0  0
  8 17  1  1  0  0  0
  8 23  1  6  0  0  0
  8 12  1  0  0  0  0
  9 11  1  0  0  0  0
  9 26  1  1  0  0  0
 10 18  2  0  0  0  0
 12 13  1  0  0  0  0
 12 28  1  6  0  0  0
 14 15  1  0  0  0  0
 15 27  1  6  0  0  0
 16 19  1  0  0  0  0
 17 21  2  0  0  0  0
 17 29  1  0  0  0  0
 18 19  1  0  0  0  0
 19 22  2  0  0  0  0
M  END
> <ID>
10898

> <Formula>
C22H28F2O5

> <FW>
410.4515

> <DSSTox_CID>
25365

> <DSSTox_RID>
80828

> <DSSTox_GSID>
45365

> <DSSTox_FileID_Sort>
5509

> <TS_ChemName>
Flumethasone

> <TS_ChemName_Synonyms>


> <TS_CASRN>
2135-17-3

> <CASRN_ChemName_Relationship>
primary

> <TS_Description>
single chemical compound

> <ChemNote>
stereochem; tautomers

> <STRUCTURE_Shown>
tested chemical

> <STRUCTURE_Formula>
C22H28F2O5

> <STRUCTURE_MW>
410.4515

> <STRUCTURE_ChemType>
defined organic

> <STRUCTURE_DefinedOrganicForm>
parent

> <STRUCTURE_IUPAC>
(6alpha,11beta,16alpha)-6,9-difluoro-11,17,21-trihydroxy-16-methylpregna-1,4-diene-3,20-dione

> <STRUCTURE_SMILES>
OCC(=O)[C@@]4(O)[C@H](C)C[C@@H]3[C@]4(C)C[C@H](O)[C@@]2(F)[C@H]3C[C@H](F)C1=CC(=O)C=C[C@@]12C

> <STRUCTURE_SMILES_Desalt>
OCC(=O)[C@@]4(O)[C@H](C)C[C@@H]3[C@]4(C)C[C@H](O)[C@@]2(F)[C@H]3C[C@H](F)C1=CC(=O)C=C[C@@]12C

> <Substance_modify_yyyymmdd>
20100107

$$$$
