2139-47-1
ChemmineR-0915142007XD

 23 25  0  0  0  0  0  0  0  0  1 V2000
    8.5835    0.0000    0.0000 C   0  0  0  0  0  0  0  0  0  0  0  0
    7.8032   -1.0804    0.0000 N   0  0  0  0  0  0  0  0  0  0  0  0
    8.2114   -2.3410    0.0000 N   0  0  0  0  0  0  0  0  0  0  0  0
    9.4719   -2.7491    0.0000 C   0  0  0  0  0  0  0  0  0  0  0  0
   10.4683   -1.8608    0.0000 C   0  0  0  0  0  0  0  0  0  0  0  0
   11.7288   -2.2809    0.0000 C   0  0  0  0  0  0  0  0  0  0  0  0
   12.0049   -3.5775    0.0000 C   0  0  0  0  0  0  0  0  0  0  0  0
   11.0205   -4.4658    0.0000 C   0  0  0  0  0  0  0  0  0  0  0  0
    9.7480   -4.0577    0.0000 C   0  0  0  0  0  0  0  0  0  0  0  0
    7.1309   -3.1213    0.0000 C   0  0  0  0  0  0  0  0  0  0  0  0
    7.1309   -4.4538    0.0000 O   0  0  0  0  0  0  0  0  0  0  0  0
    6.0625   -2.3410    0.0000 C   0  0  0  0  0  0  0  0  0  0  0  0
    6.4707   -1.0804    0.0000 C   0  0  0  0  0  0  0  0  0  0  0  0
    5.6903    0.0000    0.0000 C   0  0  0  0  0  0  0  0  0  0  0  0
    4.7900   -2.7491    0.0000 N   0  0  0  0  0  0  0  0  0  0  0  0
    3.8536   -1.8127    0.0000 C   0  0  0  0  0  0  0  0  0  0  0  0
    4.2017   -0.5282    0.0000 O   0  0  0  0  0  0  0  0  0  0  0  0
    2.5691   -2.1609    0.0000 C   0  0  0  0  0  0  0  0  0  0  0  0
    2.2209   -3.4454    0.0000 C   0  0  0  0  0  0  0  0  0  0  0  0
    0.9364   -3.7816    0.0000 N   0  0  0  0  0  0  0  0  0  0  0  0
    0.0000   -2.8452    0.0000 C   0  0  0  0  0  0  0  0  0  0  0  0
    0.3481   -1.5606    0.0000 C   0  0  0  0  0  0  0  0  0  0  0  0
    1.6327   -1.2125    0.0000 C   0  0  0  0  0  0  0  0  0  0  0  0
  1  2  1  0  0  0  0
  2  3  1  0  0  0  0
  2 13  1  0  0  0  0
  3  4  1  0  0  0  0
  3 10  1  0  0  0  0
  4  5  2  0  0  0  0
  4  9  1  0  0  0  0
  5  6  1  0  0  0  0
  6  7  2  0  0  0  0
  7  8  1  0  0  0  0
  8  9  2  0  0  0  0
 10 11  2  0  0  0  0
 10 12  1  0  0  0  0
 12 13  2  0  0  0  0
 12 15  1  0  0  0  0
 13 14  1  0  0  0  0
 15 16  1  0  0  0  0
 16 17  2  0  0  0  0
 16 18  1  0  0  0  0
 18 19  2  0  0  0  0
 18 23  1  0  0  0  0
 19 20  1  0  0  0  0
 20 21  2  0  0  0  0
 21 22  1  0  0  0  0
 22 23  2  0  0  0  0
M  END
> <ID>
10899

> <Formula>
C17H16N4O2

> <FW>
308.3345

> <DSSTox_CID>
25366

> <DSSTox_RID>
80829

> <DSSTox_GSID>
45366

> <DSSTox_FileID_Sort>
5510

> <TS_ChemName>
Nifenazone

> <TS_ChemName_Synonyms>


> <TS_CASRN>
2139-47-1

> <CASRN_ChemName_Relationship>
primary

> <TS_Description>
single chemical compound

> <ChemNote>


> <STRUCTURE_Shown>
tested chemical

> <STRUCTURE_Formula>
C17H16N4O2

> <STRUCTURE_MW>
308.3345

> <STRUCTURE_ChemType>
defined organic

> <STRUCTURE_DefinedOrganicForm>
parent

> <STRUCTURE_IUPAC>
N-(1,5-dimethyl-3-oxo-2-phenyl-2,3-dihydro-1H-pyrazol-4-yl)pyridine-3-carboxamide

> <STRUCTURE_SMILES>
O=C3C(NC(=O)c1cccnc1)=C(C)N(C)N3c2ccccc2

> <STRUCTURE_SMILES_Desalt>
O=C3C(NC(=O)c1cccnc1)=C(C)N(C)N3c2ccccc2

> <Substance_modify_yyyymmdd>
20100107

$$$$
