2140-46-7
ChemmineR-0915142007XD

 33 36  0  0  1  0  0  0  0  0  1 V2000
    6.7975   -2.6679    0.0000 C   0  0  0  0  0  0  0  0  0  0  0  0
    3.2923   -4.6830    0.0000 C   0  0  0  0  0  0  0  0  0  0  0  0
    3.2923   -6.0454    0.0000 C   0  0  0  0  0  0  0  0  0  0  0  0
    6.7975   -4.0302    0.0000 C   0  0  0  0  0  0  0  0  0  0  0  0
    4.4560   -4.0160    0.0000 C   0  0  0  0  0  0  0  0  0  0  0  0
    5.6338   -4.6830    0.0000 C   0  0  0  0  0  0  0  0  0  0  0  0
    8.0889   -2.2564    0.0000 C   0  0  0  0  0  0  0  0  0  0  0  0
    4.4560   -6.7123    0.0000 C   0  0  0  0  0  0  0  0  0  0  0  0
    5.6338   -2.0151    0.0000 C   0  0  0  0  0  0  0  0  0  0  0  0
    5.6338   -6.0454    0.0000 C   0  0  0  0  0  0  0  0  0  0  0  0
    4.4560   -2.6679    0.0000 C   0  0  0  0  0  0  0  0  0  0  0  0
    8.0889   -4.4560    0.0000 C   0  0  0  0  0  0  0  0  0  0  0  0
    2.1145   -4.0160    0.0000 C   0  0  0  0  0  0  0  0  0  0  0  0
    8.8410   -3.3491    0.0000 C   0  0  0  0  0  0  0  0  0  0  0  0
    2.1145   -6.7123    0.0000 C   0  0  0  0  0  0  0  0  0  0  0  0
    8.5288   -0.9792    0.0000 C   0  0  0  0  0  0  0  0  0  0  0  0
    6.7975   -1.4049    0.0000 C   0  0  0  0  0  0  0  0  0  0  0  0
    0.9508   -4.6830    0.0000 C   0  0  0  0  0  0  0  0  0  0  0  0
    0.9508   -6.0312    0.0000 C   0  0  0  0  0  0  0  0  0  0  0  0
    3.2923   -3.4200    0.0000 C   0  0  0  0  0  0  0  0  0  0  0  0
    0.0000   -6.6130    0.0000 O   0  0  0  0  0  0  0  0  0  0  0  0
   10.6432   -1.8023    0.0000 C   0  0  0  0  0  0  0  0  0  0  0  0
    9.8627   -0.7663    0.0000 C   0  0  0  0  0  0  0  0  0  0  0  0
    7.6631    0.0000    0.0000 C   0  0  0  0  0  0  0  0  0  0  0  0
   12.0056   -1.6036    0.0000 C   0  0  0  0  0  0  0  0  0  0  0  0
   12.8428   -2.6395    0.0000 C   0  0  0  0  0  0  0  0  0  0  0  0
   12.3462   -3.8883    0.0000 C   0  0  0  0  0  0  0  0  0  0  0  0
   14.1910   -2.4267    0.0000 C   0  0  0  0  0  0  0  0  0  0  0  0
    4.4560   -5.3784    0.0000 H   0  0  0  0  0  0  0  0  0  0  0  0
    6.8117   -5.3500    0.0000 H   0  0  0  0  0  0  0  0  0  0  0  0
    8.1030   -3.4342    0.0000 H   0  0  0  0  0  0  0  0  0  0  0  0
    5.6338   -3.3349    0.0000 H   0  0  0  0  0  0  0  0  0  0  0  0
   13.6801   -3.6897    0.0000 O   0  0  0  0  0  0  0  0  0  0  0  0
  1  4  1  0  0  0  0
  1  7  1  0  0  0  0
  1  9  1  0  0  0  0
  1 17  1  1  0  0  0
  2  5  1  0  0  0  0
  2  3  1  0  0  0  0
  2 13  1  0  0  0  0
  2 20  1  1  0  0  0
  3 15  1  0  0  0  0
  3  8  2  0  0  0  0
  4  6  1  0  0  0  0
  4 12  1  0  0  0  0
  4 30  1  6  0  0  0
  5 11  1  0  0  0  0
  5 29  1  6  0  0  0
  5  6  1  0  0  0  0
  6 10  1  0  0  0  0
  6 32  1  1  0  0  0
  7 14  1  0  0  0  0
  7 16  1  0  0  0  0
  7 31  1  6  0  0  0
  8 10  1  0  0  0  0
  9 11  1  0  0  0  0
 12 14  1  0  0  0  0
 13 18  1  0  0  0  0
 15 19  1  0  0  0  0
 16 23  1  0  0  0  0
 16 24  1  6  0  0  0
 18 19  1  0  0  0  0
 19 21  1  1  0  0  0
 22 23  1  0  0  0  0
 22 25  1  0  0  0  0
 25 26  1  0  0  0  0
 26 27  1  0  0  0  0
 26 28  1  0  0  0  0
 26 33  1  0  0  0  0
M  END
> <ID>
9831

> <Formula>
C27H46O2

> <FW>
402.6529

> <DSSTox_CID>
24023

> <DSSTox_RID>
80099

> <DSSTox_GSID>
44023

> <DSSTox_FileID_Sort>
4781

> <TS_ChemName>
25-Hydroxycholesterol

> <TS_ChemName_Synonyms>


> <TS_CASRN>
2140-46-7

> <CASRN_ChemName_Relationship>
primary

> <TS_Description>
single chemical compound

> <ChemNote>
stereochem

> <STRUCTURE_Shown>
tested chemical

> <STRUCTURE_Formula>
C27H46O2

> <STRUCTURE_MW>
402.6529

> <STRUCTURE_ChemType>
defined organic

> <STRUCTURE_DefinedOrganicForm>
parent

> <STRUCTURE_IUPAC>
(3beta)-cholest-5-ene-3,25-diol

> <STRUCTURE_SMILES>
CC(C)(O)CCC[C@@H](C)[C@H]4CC[C@@H]3[C@]4(C)CC[C@H]2[C@H]3CC=C1C[C@@H](O)CC[C@@]12C

> <STRUCTURE_SMILES_Desalt>
CC(C)(O)CCC[C@@H](C)[C@H]4CC[C@@H]3[C@]4(C)CC[C@H]2[C@H]3CC=C1C[C@@H](O)CC[C@@]12C

> <Substance_modify_yyyymmdd>
20090207

$$$$
