21416-67-1
ChemmineR-0915142007XD

 19 20  0  0  0  0  0  0  0  0  1 V2000
    4.6481   -4.6049    0.0000 C   0  0  0  0  0  0  0  0  0  0  0  0
    3.9915   -3.4558    0.0000 C   0  0  0  0  0  0  0  0  0  0  0  0
    4.6481   -2.2981    0.0000 C   0  0  0  0  0  0  0  0  0  0  0  0
    5.9785   -2.2981    0.0000 N   0  0  0  0  0  0  0  0  0  0  0  0
    6.6438   -1.1491    0.0000 C   0  0  0  0  0  0  0  0  0  0  0  0
    7.9743   -1.1491    0.0000 C   0  0  0  0  0  0  0  0  0  0  0  0
    8.6395    0.0000    0.0000 O   0  0  0  0  0  0  0  0  0  0  0  0
    8.6395   -2.2981    0.0000 N   0  0  0  0  0  0  0  0  0  0  0  0
    7.9743   -3.4558    0.0000 C   0  0  0  0  0  0  0  0  0  0  0  0
    8.6395   -4.6049    0.0000 O   0  0  0  0  0  0  0  0  0  0  0  0
    6.6438   -3.4558    0.0000 C   0  0  0  0  0  0  0  0  0  0  0  0
    2.6610   -3.4558    0.0000 N   0  0  0  0  0  0  0  0  0  0  0  0
    1.9957   -4.6049    0.0000 C   0  0  0  0  0  0  0  0  0  0  0  0
    0.6652   -4.6049    0.0000 C   0  0  0  0  0  0  0  0  0  0  0  0
    0.0000   -5.7539    0.0000 O   0  0  0  0  0  0  0  0  0  0  0  0
    0.0000   -3.4558    0.0000 N   0  0  0  0  0  0  0  0  0  0  0  0
    0.6652   -2.2981    0.0000 C   0  0  0  0  0  0  0  0  0  0  0  0
    0.0000   -1.1491    0.0000 O   0  0  0  0  0  0  0  0  0  0  0  0
    1.9957   -2.2981    0.0000 C   0  0  0  0  0  0  0  0  0  0  0  0
  1  2  1  0  0  0  0
  2  3  1  0  0  0  0
  2 12  1  0  0  0  0
  3  4  1  0  0  0  0
  4  5  1  0  0  0  0
  4 11  1  0  0  0  0
  5  6  1  0  0  0  0
  6  7  2  0  0  0  0
  6  8  1  0  0  0  0
  8  9  1  0  0  0  0
  9 10  2  0  0  0  0
  9 11  1  0  0  0  0
 12 13  1  0  0  0  0
 12 19  1  0  0  0  0
 13 14  1  0  0  0  0
 14 15  2  0  0  0  0
 14 16  1  0  0  0  0
 16 17  1  0  0  0  0
 17 18  2  0  0  0  0
 17 19  1  0  0  0  0
M  END
> <ID>
703

> <Formula>
C11H16N4O4

> <FW>
268.2691

> <DSSTox_CID>
733

> <DSSTox_RID>
75760

> <DSSTox_GSID>
20733

> <DSSTox_FileID_Sort>
444

> <TS_ChemName>
ICRF-159

> <TS_ChemName_Synonyms>


> <TS_CASRN>
21416-67-1

> <CASRN_ChemName_Relationship>
primary

> <TS_Description>
single chemical compound

> <ChemNote>


> <STRUCTURE_Shown>
tested chemical

> <STRUCTURE_Formula>
C11H16N4O4

> <STRUCTURE_MW>
268.2691

> <STRUCTURE_ChemType>
defined organic

> <STRUCTURE_DefinedOrganicForm>
parent

> <STRUCTURE_IUPAC>
4,4'-propane-1,2-diyldipiperazine-2,6-dione

> <STRUCTURE_SMILES>
O=C2CN(CC(C)N1CC(=O)NC(=O)C1)CC(=O)N2

> <STRUCTURE_SMILES_Desalt>
O=C2CN(CC(C)N1CC(=O)NC(=O)C1)CC(=O)N2

> <Substance_modify_yyyymmdd>
20080429

$$$$
