21434-91-3
ChemmineR-0915142007XD

 23 23  0  0  0  0  0  0  0  0  1 V2000
    2.2989   -2.6745    0.0000 C   0  0  0  0  0  0  0  0  0  0  0  0
    4.6278   -4.0118    0.0000 C   0  0  0  0  0  0  0  0  0  0  0  0
    3.4709   -1.9984    0.0000 C   0  0  0  0  0  0  0  0  0  0  0  0
    2.2989   -4.0118    0.0000 C   0  0  0  0  0  0  0  0  0  0  0  0
    5.7848   -4.6579    0.0000 C   0  0  0  0  0  0  0  0  0  0  0  0
    3.4709   -4.6579    0.0000 C   0  0  0  0  0  0  0  0  0  0  0  0
    4.6278   -2.6745    0.0000 C   0  0  0  0  0  0  0  0  0  0  0  0
   13.8684   -4.0118    0.0000 C   0  0  0  0  0  0  0  0  0  0  0  0
    5.7848   -5.9951    0.0000 O   0  0  0  0  0  0  0  0  0  0  0  0
   13.8684   -2.6745    0.0000 O   0  0  0  0  0  0  0  0  0  0  0  0
    6.9267   -4.0118    0.0000 N   0  0  0  0  0  0  0  0  0  0  0  0
    1.1570   -1.9984    0.0000 O   0  0  0  0  0  0  0  0  0  0  0  0
    1.1570   -4.6579    0.0000 O   0  0  0  0  0  0  0  0  0  0  0  0
    3.4709   -0.6611    0.0000 O   0  0  0  0  0  0  0  0  0  0  0  0
   15.0254   -4.6579    0.0000 O   0  0  0  0  0  0  0  0  0  0  0  0
   12.7265   -4.6579    0.0000 C   0  0  0  0  0  0  0  0  0  0  0  0
    8.0987   -4.6579    0.0000 C   0  0  0  0  0  0  0  0  0  0  0  0
    1.1570   -0.6611    0.0000 C   0  0  0  0  0  0  0  0  0  0  0  0
    4.6278    0.0000    0.0000 C   0  0  0  0  0  0  0  0  0  0  0  0
    0.0000   -4.0118    0.0000 C   0  0  0  0  0  0  0  0  0  0  0  0
   11.5545   -4.0118    0.0000 C   0  0  0  0  0  0  0  0  0  0  0  0
    9.2406   -4.0118    0.0000 C   0  0  0  0  0  0  0  0  0  0  0  0
   10.4126   -4.6579    0.0000 C   0  0  0  0  0  0  0  0  0  0  0  0
  1  3  1  0  0  0  0
  1  4  2  0  0  0  0
  1 12  1  0  0  0  0
  2  6  2  0  0  0  0
  2  5  1  0  0  0  0
  2  7  1  0  0  0  0
  3  7  2  0  0  0  0
  3 14  1  0  0  0  0
  4  6  1  0  0  0  0
  4 13  1  0  0  0  0
  5  9  2  0  0  0  0
  5 11  1  0  0  0  0
  8 16  1  0  0  0  0
  8 10  2  0  0  0  0
  8 15  1  0  0  0  0
 11 17  1  0  0  0  0
 12 18  1  0  0  0  0
 13 20  1  0  0  0  0
 14 19  1  0  0  0  0
 16 21  1  0  0  0  0
 17 22  1  0  0  0  0
 21 23  1  0  0  0  0
 22 23  1  0  0  0  0
M  END
> <ID>
11136

> <Formula>
C16H23NO6

> <FW>
325.3569

> <DSSTox_CID>
25695

> <DSSTox_RID>
81067

> <DSSTox_GSID>
45695

> <DSSTox_FileID_Sort>
5748

> <TS_ChemName>
Capobenic acid

> <TS_ChemName_Synonyms>


> <TS_CASRN>
21434-91-3

> <CASRN_ChemName_Relationship>
primary

> <TS_Description>
single chemical compound

> <ChemNote>


> <STRUCTURE_Shown>
tested chemical

> <STRUCTURE_Formula>
C16H23NO6

> <STRUCTURE_MW>
325.3569

> <STRUCTURE_ChemType>
defined organic

> <STRUCTURE_DefinedOrganicForm>
parent

> <STRUCTURE_IUPAC>
6-[(3,4,5-trimethoxybenzoyl)amino]hexanoic acid

> <STRUCTURE_SMILES>
COc1c(cc(cc1OC)C(=O)NCCCCCC(=O)O)OC

> <STRUCTURE_SMILES_Desalt>
COc1c(cc(cc1OC)C(=O)NCCCCCC(=O)O)OC

> <Substance_modify_yyyymmdd>
20110819

$$$$
