2144-08-3
ChemmineR-0915142007XD

 11 11  0  0  0  0  0  0  0  0  1 V2000
    3.9897   -4.6071    0.0000 O   0  0  0  0  0  0  0  0  0  0  0  0
    3.3263   -3.4553    0.0000 C   0  0  0  0  0  0  0  0  0  0  0  0
    3.9897   -2.3035    0.0000 C   0  0  0  0  0  0  0  0  0  0  0  0
    3.3263   -1.1518    0.0000 C   0  0  0  0  0  0  0  0  0  0  0  0
    1.9949   -1.1518    0.0000 C   0  0  0  0  0  0  0  0  0  0  0  0
    1.3314    0.0000    0.0000 C   0  0  0  0  0  0  0  0  0  0  0  0
    0.0000    0.0000    0.0000 O   0  0  0  0  0  0  0  0  0  0  0  0
    1.3314   -2.3035    0.0000 C   0  0  0  0  0  0  0  0  0  0  0  0
    1.9949   -3.4553    0.0000 C   0  0  0  0  0  0  0  0  0  0  0  0
    1.3314   -4.6071    0.0000 O   0  0  0  0  0  0  0  0  0  0  0  0
    0.0000   -2.3035    0.0000 O   0  0  0  0  0  0  0  0  0  0  0  0
  1  2  1  0  0  0  0
  2  3  2  0  0  0  0
  2  9  1  0  0  0  0
  3  4  1  0  0  0  0
  4  5  2  0  0  0  0
  5  6  1  0  0  0  0
  5  8  1  0  0  0  0
  6  7  2  0  0  0  0
  8  9  2  0  0  0  0
  8 11  1  0  0  0  0
  9 10  1  0  0  0  0
M  END
> <ID>
16086

> <Formula>
C7H6O4

> <FW>
154.1201

> <DSSTox_CID>
31473

> <DSSTox_RID>
97358

> <DSSTox_GSID>
57684

> <DSSTox_FileID_Sort>
8425

> <TS_ChemName>
2,3,4-Trihydroxybenzaldehyde

> <TS_ChemName_Synonyms>


> <TS_CASRN>
2144-08-3

> <CASRN_ChemName_Relationship>
primary

> <TS_Description>
single chemical compound

> <ChemNote>


> <STRUCTURE_Shown>
tested chemical

> <STRUCTURE_Formula>
C7H6O4

> <STRUCTURE_MW>
154.1201

> <STRUCTURE_ChemType>
defined organic

> <STRUCTURE_DefinedOrganicForm>
parent

> <STRUCTURE_IUPAC>
2,3,4-trihydroxybenzaldehyde

> <STRUCTURE_SMILES>
Oc1ccc(C=O)c(O)c1O

> <STRUCTURE_SMILES_Desalt>
Oc1ccc(C=O)c(O)c1O

> <Substance_modify_yyyymmdd>
20131018

$$$$
