2144-53-8
ChemmineR-0915142007XD

 27 26  0  0  0  0  0  0  0  0  1 V2000
    2.3128   -1.3434    0.0000 C   0  0  0  0  0  0  0  0  0  0  0  0
    1.1495   -1.9804    0.0000 C   0  0  0  0  0  0  0  0  0  0  0  0
    2.3128    0.0000    0.0000 O   0  0  0  0  0  0  0  0  0  0  0  0
    0.0000   -1.3434    0.0000 C   0  0  0  0  0  0  0  0  0  0  0  0
    3.4484   -1.9804    0.0000 O   0  0  0  0  0  0  0  0  0  0  0  0
    1.1495   -3.3238    0.0000 C   0  0  0  0  0  0  0  0  0  0  0  0
    4.6118   -1.3434    0.0000 C   0  0  0  0  0  0  0  0  0  0  0  0
    5.7613   -1.9804    0.0000 C   0  0  0  0  0  0  0  0  0  0  0  0
    6.9246   -1.3434    0.0000 C   0  0  0  0  0  0  0  0  0  0  0  0
    8.0879   -1.9804    0.0000 C   0  0  0  0  0  0  0  0  0  0  0  0
    9.2374   -1.3434    0.0000 C   0  0  0  0  0  0  0  0  0  0  0  0
   10.4007   -1.9804    0.0000 C   0  0  0  0  0  0  0  0  0  0  0  0
   11.5364   -1.3434    0.0000 C   0  0  0  0  0  0  0  0  0  0  0  0
   12.6997   -1.9804    0.0000 C   0  0  0  0  0  0  0  0  0  0  0  0
    6.9246    0.0000    0.0000 F   0  0  0  0  0  0  0  0  0  0  0  0
    6.9246   -2.6729    0.0000 F   0  0  0  0  0  0  0  0  0  0  0  0
    8.0879   -3.3238    0.0000 F   0  0  0  0  0  0  0  0  0  0  0  0
    8.0879   -0.6509    0.0000 F   0  0  0  0  0  0  0  0  0  0  0  0
    9.2374    0.0000    0.0000 F   0  0  0  0  0  0  0  0  0  0  0  0
    9.2374   -2.6729    0.0000 F   0  0  0  0  0  0  0  0  0  0  0  0
   10.4007   -3.3238    0.0000 F   0  0  0  0  0  0  0  0  0  0  0  0
   10.4007   -0.6509    0.0000 F   0  0  0  0  0  0  0  0  0  0  0  0
   11.5364    0.0000    0.0000 F   0  0  0  0  0  0  0  0  0  0  0  0
   12.6997   -0.6509    0.0000 F   0  0  0  0  0  0  0  0  0  0  0  0
   13.8492   -1.3434    0.0000 F   0  0  0  0  0  0  0  0  0  0  0  0
   12.6997   -3.3238    0.0000 F   0  0  0  0  0  0  0  0  0  0  0  0
   13.8492   -2.6729    0.0000 F   0  0  0  0  0  0  0  0  0  0  0  0
  1  2  1  0  0  0  0
  1  3  2  0  0  0  0
  1  5  1  0  0  0  0
  2  4  2  0  0  0  0
  2  6  1  0  0  0  0
  5  7  1  0  0  0  0
  7  8  1  0  0  0  0
  8  9  1  0  0  0  0
  9 10  1  0  0  0  0
  9 15  1  0  0  0  0
  9 16  1  0  0  0  0
 10 11  1  0  0  0  0
 10 17  1  0  0  0  0
 10 18  1  0  0  0  0
 11 12  1  0  0  0  0
 11 19  1  0  0  0  0
 11 20  1  0  0  0  0
 12 13  1  0  0  0  0
 12 21  1  0  0  0  0
 12 22  1  0  0  0  0
 13 14  1  0  0  0  0
 13 23  1  0  0  0  0
 13 24  1  0  0  0  0
 14 25  1  0  0  0  0
 14 26  1  0  0  0  0
 14 27  1  0  0  0  0
M  END
> <ID>
12681

> <Formula>
C12H9F13O2

> <FW>
432.1779

> <DSSTox_CID>
27558

> <DSSTox_RID>
82418

> <DSSTox_GSID>
47558

> <DSSTox_FileID_Sort>
7099

> <TS_ChemName>
3,3,4,4,5,5,6,6,7,7,8,8,8-Tridecafluorooctyl methacrylate

> <TS_ChemName_Synonyms>


> <TS_CASRN>
2144-53-8

> <CASRN_ChemName_Relationship>
primary

> <TS_Description>
single chemical compound

> <ChemNote>


> <STRUCTURE_Shown>
tested chemical

> <STRUCTURE_Formula>
C12H9F13O2

> <STRUCTURE_MW>
432.1779

> <STRUCTURE_ChemType>
defined organic

> <STRUCTURE_DefinedOrganicForm>
parent

> <STRUCTURE_IUPAC>
3,3,4,4,5,5,6,6,7,7,8,8,8-tridecafluorooctyl 2-methylprop-2-enoate

> <STRUCTURE_SMILES>
FC(F)(CCOC(=O)C(=C)C)C(F)(F)C(F)(F)C(F)(F)C(F)(F)C(F)(F)F

> <STRUCTURE_SMILES_Desalt>
FC(F)(CCOC(=O)C(=C)C)C(F)(F)C(F)(F)C(F)(F)C(F)(F)C(F)(F)F

> <Substance_modify_yyyymmdd>
20100929

$$$$
