21440-97-1
ChemmineR-0915142007XD

 14 15  0  0  0  0  0  0  0  0  1 V2000
    2.9709    0.0000    0.0000 C    0  0  0  0  0  0  0  0  0  0  0  0
    2.3007   -1.1538    0.0000 C    0  0  0  0  0  0  0  0  0  0  0  0
    1.6374    0.0000    0.0000 C    0  0  0  0  0  0  0  0  0  0  0  0
    1.1538   -1.8171    0.0000 O    0  0  0  0  0  0  0  0  0  0  0  0
    1.1538   -3.1505    0.0000 C    0  0  0  0  0  0  0  0  0  0  0  0
    0.0000   -3.8137    0.0000 O    0  0  0  0  0  0  0  0  0  0  0  0
    2.3007   -3.8137    0.0000 N    0  0  0  0  0  0  0  0  0  0  0  0
    3.4545   -3.1505    0.0000 C    0  0  0  0  0  0  0  0  0  0  0  0
    3.4545   -1.8171    0.0000 C    0  0  0  0  0  0  0  0  0  0  0  0
    4.6083   -1.1538    0.0000 C    0  0  0  0  0  0  0  0  0  0  0  0
    5.7552   -1.8171    0.0000 C    0  0  0  0  0  0  0  0  0  0  0  0
    6.9090   -1.1538    0.0000 Br   0  0  0  0  0  0  0  0  0  0  0  0
    5.7552   -3.1505    0.0000 C    0  0  0  0  0  0  0  0  0  0  0  0
    4.6083   -3.8137    0.0000 C    0  0  0  0  0  0  0  0  0  0  0  0
  1  2  1  0  0  0  0
  2  3  1  0  0  0  0
  2  4  1  0  0  0  0
  2  9  1  0  0  0  0
  4  5  1  0  0  0  0
  5  6  2  0  0  0  0
  5  7  1  0  0  0  0
  7  8  1  0  0  0  0
  8  9  2  0  0  0  0
  8 14  1  0  0  0  0
  9 10  1  0  0  0  0
 10 11  2  0  0  0  0
 11 12  1  0  0  0  0
 11 13  1  0  0  0  0
 13 14  2  0  0  0  0
M  END
> <ID>
16087

> <Formula>
C10H10BrNO2

> <FW>
256.0959

> <DSSTox_CID>
31474

> <DSSTox_RID>
97359

> <DSSTox_GSID>
57685

> <DSSTox_FileID_Sort>
8426

> <TS_ChemName>
Brofoxine

> <TS_ChemName_Synonyms>


> <TS_CASRN>
21440-97-1

> <CASRN_ChemName_Relationship>
primary

> <TS_Description>
single chemical compound

> <ChemNote>


> <STRUCTURE_Shown>
tested chemical

> <STRUCTURE_Formula>
C10H10BrNO2

> <STRUCTURE_MW>
256.0959

> <STRUCTURE_ChemType>
defined organic

> <STRUCTURE_DefinedOrganicForm>
parent

> <STRUCTURE_IUPAC>
6-bromo-4,4-dimethyl-1,4-dihydro-2H-3,1-benzoxazin-2-one

> <STRUCTURE_SMILES>
Brc1ccc2NC(=O)OC(C)(C)c2c1

> <STRUCTURE_SMILES_Desalt>
Brc1ccc2NC(=O)OC(C)(C)c2c1

> <Substance_modify_yyyymmdd>
20131018

$$$$
