214535-77-0
ChemmineR-0915142007XD

 28 30  0  0  0  0  0  0  0  0  1 V2000
    2.3020   -2.0027    0.0000 C   0  0  0  0  0  0  0  0  0  0  0  0
    2.3020   -3.3264    0.0000 C   0  0  0  0  0  0  0  0  0  0  0  0
    3.4530   -1.3236    0.0000 C   0  0  0  0  0  0  0  0  0  0  0  0
    1.1510   -1.3236    0.0000 C   0  0  0  0  0  0  0  0  0  0  0  0
    3.4530   -3.9824    0.0000 O   0  0  0  0  0  0  0  0  0  0  0  0
    1.1510   -3.9824    0.0000 N   0  0  0  0  0  0  0  0  0  0  0  0
    4.6155   -2.0027    0.0000 N   0  0  0  0  0  0  0  0  0  0  0  0
    3.4530    0.0000    0.0000 O   0  0  0  0  0  0  0  0  0  0  0  0
    0.0000   -2.0027    0.0000 C   0  0  0  0  0  0  0  0  0  0  0  0
    3.4530   -5.3176    0.0000 C   0  0  0  0  0  0  0  0  0  0  0  0
    0.0000   -3.3264    0.0000 C   0  0  0  0  0  0  0  0  0  0  0  0
    5.7665   -1.3236    0.0000 C   0  0  0  0  0  0  0  0  0  0  0  0
    4.6155   -5.9851    0.0000 C   0  0  0  0  0  0  0  0  0  0  0  0
    2.3020   -5.9851    0.0000 C   0  0  0  0  0  0  0  0  0  0  0  0
    6.9174   -2.0027    0.0000 C   0  0  0  0  0  0  0  0  0  0  0  0
    4.6155   -7.3203    0.0000 C   0  0  0  0  0  0  0  0  0  0  0  0
    2.3020   -7.3203    0.0000 C   0  0  0  0  0  0  0  0  0  0  0  0
    8.0569   -1.3236    0.0000 C   0  0  0  0  0  0  0  0  0  0  0  0
    6.9174   -3.3264    0.0000 C   0  0  0  0  0  0  0  0  0  0  0  0
    3.4530   -7.9763    0.0000 C   0  0  0  0  0  0  0  0  0  0  0  0
    9.2079   -2.0027    0.0000 C   0  0  0  0  0  0  0  0  0  0  0  0
    8.0569   -3.9824    0.0000 C   0  0  0  0  0  0  0  0  0  0  0  0
    3.4530   -9.3000    0.0000 F   0  0  0  0  0  0  0  0  0  0  0  0
    9.2079   -3.3264    0.0000 C   0  0  0  0  0  0  0  0  0  0  0  0
   10.3589   -3.9824    0.0000 C   0  0  0  0  0  0  0  0  0  0  0  0
   11.0265   -2.8314    0.0000 C   0  0  0  0  0  0  0  0  0  0  0  0
    9.7028   -5.1334    0.0000 C   0  0  0  0  0  0  0  0  0  0  0  0
   11.5099   -4.6615    0.0000 O   0  0  0  0  0  0  0  0  0  0  0  0
  1  2  1  0  0  0  0
  1  3  1  0  0  0  0
  1  4  2  0  0  0  0
  2  5  1  0  0  0  0
  2  6  2  0  0  0  0
  3  7  1  0  0  0  0
  3  8  2  0  0  0  0
  4  9  1  0  0  0  0
  5 10  1  0  0  0  0
  6 11  1  0  0  0  0
  7 12  1  0  0  0  0
  9 11  2  0  0  0  0
 10 13  1  0  0  0  0
 10 14  2  0  0  0  0
 12 15  1  0  0  0  0
 13 16  2  0  0  0  0
 14 17  1  0  0  0  0
 15 18  1  0  0  0  0
 15 19  2  0  0  0  0
 16 20  1  0  0  0  0
 17 20  2  0  0  0  0
 18 21  2  0  0  0  0
 19 22  1  0  0  0  0
 20 23  1  0  0  0  0
 21 24  1  0  0  0  0
 22 24  2  0  0  0  0
 24 25  1  0  0  0  0
 25 26  1  0  0  0  0
 25 27  1  0  0  0  0
 25 28  1  0  0  0  0
M  END
> <ID>
12420

> <Formula>
C22H21FN2O3

> <FW>
380.4121

> <DSSTox_CID>
27278

> <DSSTox_RID>
82232

> <DSSTox_GSID>
47278

> <DSSTox_FileID_Sort>
6913

> <TS_ChemName>
CP-457677

> <TS_ChemName_Synonyms>


> <TS_CASRN>
214535-77-0

> <CASRN_ChemName_Relationship>
primary

> <TS_Description>
single chemical compound

> <ChemNote>


> <STRUCTURE_Shown>
tested chemical

> <STRUCTURE_Formula>
C22H21FN2O3

> <STRUCTURE_MW>
380.4121

> <STRUCTURE_ChemType>
defined organic

> <STRUCTURE_DefinedOrganicForm>
parent

> <STRUCTURE_IUPAC>
2-(4-fluorophenoxy)-N-[4-(2-hydroxypropan-2-yl)benzyl]pyridine-3-carboxamide

> <STRUCTURE_SMILES>
CC(C)(O)c1ccc(cc1)CNC(=O)c3cccnc3Oc2ccc(F)cc2

> <STRUCTURE_SMILES_Desalt>
CC(C)(O)c1ccc(cc1)CNC(=O)c3cccnc3Oc2ccc(F)cc2

> <Substance_modify_yyyymmdd>
20130910

$$$$
