21462-39-5
ChemmineR-0915142007XD

 28 28  0  0  1  0  0  0  0  0  1 V2000
   11.1938   -2.6735    0.0000 C    0  0  0  0  0  0  0  0  0  0  0  0
   11.1938   -4.0238    0.0000 C    0  0  0  0  0  0  0  0  0  0  0  0
   10.0595   -2.0119    0.0000 O    0  0  0  0  0  0  0  0  0  0  0  0
   10.0595   -4.6854    0.0000 C    0  0  0  0  0  0  0  0  0  0  0  0
    8.8983   -2.6735    0.0000 C    0  0  0  0  0  0  0  0  0  0  0  0
    8.8983   -4.0238    0.0000 C    0  0  0  0  0  0  0  0  0  0  0  0
   12.3550   -2.0119    0.0000 S    0  0  0  0  0  0  0  0  0  0  0  0
   13.5027   -2.6735    0.0000 C    0  0  0  0  0  0  0  0  0  0  0  0
   12.3550   -4.6854    0.0000 O    0  0  0  0  0  0  0  0  0  0  0  0
   10.0595   -6.0222    0.0000 O    0  0  0  0  0  0  0  0  0  0  0  0
    7.7236   -4.6854    0.0000 O    0  0  0  0  0  0  0  0  0  0  0  0
    7.7236   -2.0119    0.0000 C    0  0  0  0  0  0  0  0  0  0  0  0
    7.7236   -0.6751    0.0000 C    0  0  0  0  0  0  0  0  0  0  0  0
    6.5758   -2.6870    0.0000 N    0  0  0  0  0  0  0  0  0  0  0  0
    8.8983    0.0000    0.0000 Cl   0  0  0  0  0  0  0  0  0  0  0  0
    6.5758   -0.0270    0.0000 C    0  0  0  0  0  0  0  0  0  0  0  0
    5.4146   -2.0119    0.0000 C    0  0  0  0  0  0  0  0  0  0  0  0
    5.4146   -0.6751    0.0000 O    0  0  0  0  0  0  0  0  0  0  0  0
    4.2669   -2.6870    0.0000 C    0  0  0  0  0  0  0  0  0  0  0  0
    2.1064   -2.6735    0.0000 C    0  0  0  0  0  0  0  0  0  0  0  0
    3.1731   -1.9039    0.0000 N    0  0  0  0  0  0  0  0  0  0  0  0
    2.5250   -3.9563    0.0000 C    0  0  0  0  0  0  0  0  0  0  0  0
    3.8618   -3.9563    0.0000 C    0  0  0  0  0  0  0  0  0  0  0  0
    3.1731   -0.5536    0.0000 C    0  0  0  0  0  0  0  0  0  0  0  0
    2.0119   -4.9690    0.0000 C    0  0  0  0  0  0  0  0  0  0  0  0
    0.6751   -4.9690    0.0000 C    0  0  0  0  0  0  0  0  0  0  0  0
    0.0000   -3.7943    0.0000 C    0  0  0  0  0  0  0  0  0  0  0  0
    4.3479   -5.5901    0.0000 Cl   0  0  0  0  0  0  0  0  0  0  0  0
  1  2  1  0  0  0  0
  1  3  1  0  0  0  0
  1  7  1  6  0  0  0
  2  4  1  0  0  0  0
  2  9  1  6  0  0  0
  5  3  1  1  0  0  0
  4  6  1  0  0  0  0
  4 10  1  1  0  0  0
  5  6  1  0  0  0  0
  5 12  1  0  0  0  0
  6 11  1  1  0  0  0
  7  8  1  0  0  0  0
 12 13  1  0  0  0  0
 12 14  1  6  0  0  0
 13 15  1  6  0  0  0
 13 16  1  0  0  0  0
 14 17  1  0  0  0  0
 17 18  2  0  0  0  0
 19 17  1  6  0  0  0
 19 21  1  0  0  0  0
 19 23  1  0  0  0  0
 20 21  1  0  0  0  0
 20 22  1  0  0  0  0
 21 24  1  0  0  0  0
 22 23  1  0  0  0  0
 22 25  1  1  0  0  0
 25 26  1  0  0  0  0
 26 27  1  0  0  0  0
M  END
> <ID>
10940

> <Formula>
C18H34Cl2N2O5S

> <FW>
461.4440 (424.9830+36.4609)

> <DSSTox_CID>
25428

> <DSSTox_RID>
80872

> <DSSTox_GSID>
45428

> <DSSTox_FileID_Sort>
5553

> <TS_ChemName>
Clindamycin hydrochloride

> <TS_ChemName_Synonyms>


> <TS_CASRN>
21462-39-5

> <CASRN_ChemName_Relationship>
primary

> <TS_Description>
single chemical compound

> <ChemNote>
stereochem; parent [18323-44-9]

> <STRUCTURE_Shown>
tested chemical

> <STRUCTURE_Formula>
C18H34Cl2N2O5S

> <STRUCTURE_MW>
461.444

> <STRUCTURE_ChemType>
defined organic

> <STRUCTURE_DefinedOrganicForm>
complex

> <STRUCTURE_IUPAC>
methyl (5R)-5-[(1S,2S)-2-chloro-1-{[(4R)-1-methyl-4-propyl-L-prolyl]amino}propyl]-1-thio-beta-L-arabinopyranoside hydrochloride (1:1)

> <STRUCTURE_SMILES>
Cl.O[C@@H]1[C@@H](O)[C@@H](O)[C@H](O[C@@H]1SC)[C@H](NC(=O)[C@@H]2C[C@@H](CCC)CN2C)[C@H](C)Cl

> <STRUCTURE_SMILES_Desalt>
O[C@@H]1[C@@H](O)[C@@H](O)[C@H](O[C@@H]1SC)[C@H](NC(=O)[C@@H]2C[C@@H](CCC)CN2C)[C@H](C)Cl

> <Substance_modify_yyyymmdd>
20100107

$$$$
