215-58-7
ChemmineR-0915142007XD

 22 26  0  0  0  0  0  0  0  0  1 V2000
    0.6657   -6.9081    0.0000 C   0  0  0  0  0  0  0  0  0  0  0  0
    0.0000   -5.7582    0.0000 C   0  0  0  0  0  0  0  0  0  0  0  0
    8.6460   -4.6083    0.0000 C   0  0  0  0  0  0  0  0  0  0  0  0
    5.9830    0.0000    0.0000 C   0  0  0  0  0  0  0  0  0  0  0  0
    7.9802   -5.7582    0.0000 C   0  0  0  0  0  0  0  0  0  0  0  0
    4.6515    0.0000    0.0000 C   0  0  0  0  0  0  0  0  0  0  0  0
    1.9972   -6.9081    0.0000 C   0  0  0  0  0  0  0  0  0  0  0  0
    0.6657   -4.6083    0.0000 C   0  0  0  0  0  0  0  0  0  0  0  0
    7.9802   -3.4497    0.0000 C   0  0  0  0  0  0  0  0  0  0  0  0
    6.6487   -1.1499    0.0000 C   0  0  0  0  0  0  0  0  0  0  0  0
    6.6487   -5.7582    0.0000 C   0  0  0  0  0  0  0  0  0  0  0  0
    3.9944   -1.1499    0.0000 C   0  0  0  0  0  0  0  0  0  0  0  0
    3.9944   -5.7582    0.0000 C   0  0  0  0  0  0  0  0  0  0  0  0
    2.6630   -3.4497    0.0000 C   0  0  0  0  0  0  0  0  0  0  0  0
    2.6630   -5.7582    0.0000 C   0  0  0  0  0  0  0  0  0  0  0  0
    1.9972   -4.6083    0.0000 C   0  0  0  0  0  0  0  0  0  0  0  0
    6.6487   -3.4497    0.0000 C   0  0  0  0  0  0  0  0  0  0  0  0
    5.9830   -2.2998    0.0000 C   0  0  0  0  0  0  0  0  0  0  0  0
    5.9830   -4.6083    0.0000 C   0  0  0  0  0  0  0  0  0  0  0  0
    4.6515   -2.2998    0.0000 C   0  0  0  0  0  0  0  0  0  0  0  0
    4.6515   -4.6083    0.0000 C   0  0  0  0  0  0  0  0  0  0  0  0
    3.9944   -3.4497    0.0000 C   0  0  0  0  0  0  0  0  0  0  0  0
  1  2  2  0  0  0  0
  1  7  1  0  0  0  0
  2  8  1  0  0  0  0
  3  5  2  0  0  0  0
  3  9  1  0  0  0  0
  4  6  2  0  0  0  0
  4 10  1  0  0  0  0
  5 11  1  0  0  0  0
  6 12  1  0  0  0  0
  7 15  2  0  0  0  0
  8 16  2  0  0  0  0
  9 17  2  0  0  0  0
 10 18  2  0  0  0  0
 11 19  2  0  0  0  0
 12 20  2  0  0  0  0
 13 15  1  0  0  0  0
 13 21  2  0  0  0  0
 14 16  1  0  0  0  0
 14 22  2  0  0  0  0
 15 16  1  0  0  0  0
 17 18  1  0  0  0  0
 17 19  1  0  0  0  0
 18 20  1  0  0  0  0
 19 21  1  0  0  0  0
 20 22  1  0  0  0  0
 21 22  1  0  0  0  0
M  END
> <ID>
14108

> <Formula>
C22H14

> <FW>
278.3466

> <DSSTox_CID>
29101

> <DSSTox_RID>
83320

> <DSSTox_GSID>
49245

> <DSSTox_FileID_Sort>
7995

> <TS_ChemName>
Dibenz[a,c]anthracene

> <TS_ChemName_Synonyms>


> <TS_CASRN>
215-58-7

> <CASRN_ChemName_Relationship>
primary

> <TS_Description>
single chemical compound

> <ChemNote>


> <STRUCTURE_Shown>
tested chemical

> <STRUCTURE_Formula>
C22H14

> <STRUCTURE_MW>
278.3466

> <STRUCTURE_ChemType>
defined organic

> <STRUCTURE_DefinedOrganicForm>
parent

> <STRUCTURE_IUPAC>
benzo[f]tetraphene

> <STRUCTURE_SMILES>
c3cc4c1ccccc1c2cc5ccccc5cc2c4cc3

> <STRUCTURE_SMILES_Desalt>
c3cc4c1ccccc1c2cc5ccccc5cc2c4cc3

> <Substance_modify_yyyymmdd>
20111204

$$$$
