215297-27-1
ChemmineR-0915142007XD

 40 44  0  0  0  0  0  0  0  0  1 V2000
   12.6540   -4.1121    0.0000 C   0  0  0  0  0  0  0  0  0  0  0  0
   12.6540   -2.7850    0.0000 C   0  0  0  0  0  0  0  0  0  0  0  0
   13.9250   -4.5233    0.0000 C   0  0  0  0  0  0  0  0  0  0  0  0
   11.4951   -4.7850    0.0000 N   0  0  0  0  0  0  0  0  0  0  0  0
   13.9250   -2.3738    0.0000 N   0  0  0  0  0  0  0  0  0  0  0  0
   11.4951   -2.1121    0.0000 C   0  0  0  0  0  0  0  0  0  0  0  0
   14.7100   -3.4579    0.0000 N   0  0  0  0  0  0  0  0  0  0  0  0
   14.3362   -5.7756    0.0000 C   0  0  0  0  0  0  0  0  0  0  0  0
   10.3737   -4.1121    0.0000 C   0  0  0  0  0  0  0  0  0  0  0  0
   10.3737   -2.7850    0.0000 N   0  0  0  0  0  0  0  0  0  0  0  0
   11.4951   -0.7850    0.0000 O   0  0  0  0  0  0  0  0  0  0  0  0
   16.0371   -3.4579    0.0000 C   0  0  0  0  0  0  0  0  0  0  0  0
   15.6446   -6.0747    0.0000 C   0  0  0  0  0  0  0  0  0  0  0  0
    9.2148   -4.7850    0.0000 C   0  0  0  0  0  0  0  0  0  0  0  0
   16.7100   -2.2990    0.0000 C   0  0  0  0  0  0  0  0  0  0  0  0
    9.2148   -6.0934    0.0000 C   0  0  0  0  0  0  0  0  0  0  0  0
    8.0559   -4.1121    0.0000 C   0  0  0  0  0  0  0  0  0  0  0  0
   16.0371   -1.1589    0.0000 C   0  0  0  0  0  0  0  0  0  0  0  0
   18.0371   -2.2990    0.0000 N   0  0  0  0  0  0  0  0  0  0  0  0
    8.0559   -6.7662    0.0000 C   0  0  0  0  0  0  0  0  0  0  0  0
   10.3737   -6.7662    0.0000 O   0  0  0  0  0  0  0  0  0  0  0  0
    6.8971   -4.7850    0.0000 C   0  0  0  0  0  0  0  0  0  0  0  0
   16.7100    0.0000    0.0000 C   0  0  0  0  0  0  0  0  0  0  0  0
   18.6913   -1.1589    0.0000 C   0  0  0  0  0  0  0  0  0  0  0  0
    6.8971   -6.0934    0.0000 C   0  0  0  0  0  0  0  0  0  0  0  0
   10.3737   -8.1120    0.0000 C   0  0  0  0  0  0  0  0  0  0  0  0
    5.7569   -4.1121    0.0000 S   0  0  0  0  0  0  0  0  0  0  0  0
   18.0371    0.0000    0.0000 C   0  0  0  0  0  0  0  0  0  0  0  0
   11.4951   -8.7662    0.0000 C   0  0  0  0  0  0  0  0  0  0  0  0
    4.5981   -3.4579    0.0000 N   0  0  0  0  0  0  0  0  0  0  0  0
    5.0840   -5.2709    0.0000 O   0  0  0  0  0  0  0  0  0  0  0  0
    6.4111   -2.9532    0.0000 O   0  0  0  0  0  0  0  0  0  0  0  0
   11.4951  -10.0933    0.0000 C   0  0  0  0  0  0  0  0  0  0  0  0
    3.4579   -4.1121    0.0000 C   0  0  0  0  0  0  0  0  0  0  0  0
    4.5981   -2.1121    0.0000 C   0  0  0  0  0  0  0  0  0  0  0  0
    2.2990   -3.4579    0.0000 C   0  0  0  0  0  0  0  0  0  0  0  0
    3.4579   -1.4392    0.0000 C   0  0  0  0  0  0  0  0  0  0  0  0
    2.2990   -2.1121    0.0000 N   0  0  0  0  0  0  0  0  0  0  0  0
    1.1589   -1.4392    0.0000 C   0  0  0  0  0  0  0  0  0  0  0  0
    0.0000   -2.1121    0.0000 C   0  0  0  0  0  0  0  0  0  0  0  0
  1  2  1  0  0  0  0
  1  3  2  0  0  0  0
  1  4  1  0  0  0  0
  2  5  2  0  0  0  0
  2  6  1  0  0  0  0
  3  7  1  0  0  0  0
  3  8  1  0  0  0  0
  4  9  2  0  0  0  0
  5  7  1  0  0  0  0
  6 10  1  0  0  0  0
  6 11  2  0  0  0  0
  7 12  1  0  0  0  0
  8 13  1  0  0  0  0
  9 14  1  0  0  0  0
  9 10  1  0  0  0  0
 12 15  1  0  0  0  0
 14 16  2  0  0  0  0
 14 17  1  0  0  0  0
 15 18  2  0  0  0  0
 15 19  1  0  0  0  0
 16 20  1  0  0  0  0
 16 21  1  0  0  0  0
 17 22  2  0  0  0  0
 18 23  1  0  0  0  0
 19 24  2  0  0  0  0
 20 25  2  0  0  0  0
 21 26  1  0  0  0  0
 22 27  1  0  0  0  0
 22 25  1  0  0  0  0
 23 28  2  0  0  0  0
 24 28  1  0  0  0  0
 26 29  1  0  0  0  0
 27 30  1  0  0  0  0
 27 31  2  0  0  0  0
 27 32  2  0  0  0  0
 29 33  1  0  0  0  0
 30 34  1  0  0  0  0
 30 35  1  0  0  0  0
 34 36  1  0  0  0  0
 35 37  1  0  0  0  0
 36 38  1  0  0  0  0
 37 38  1  0  0  0  0
 38 39  1  0  0  0  0
 39 40  1  0  0  0  0
M  END
> <ID>
12431

> <Formula>
C28H35N7O4S

> <FW>
565.687

> <DSSTox_CID>
27289

> <DSSTox_RID>
82243

> <DSSTox_GSID>
47289

> <DSSTox_FileID_Sort>
6924

> <TS_ChemName>
UK-343664

> <TS_ChemName_Synonyms>


> <TS_CASRN>
215297-27-1

> <CASRN_ChemName_Relationship>
primary

> <TS_Description>
single chemical compound

> <ChemNote>


> <STRUCTURE_Shown>
tested chemical

> <STRUCTURE_Formula>
C28H35N7O4S

> <STRUCTURE_MW>
565.687

> <STRUCTURE_ChemType>
defined organic

> <STRUCTURE_DefinedOrganicForm>
parent

> <STRUCTURE_IUPAC>
3-ethyl-5-{5-[(4-ethylpiperazin-1-yl)sulfonyl]-2-propoxyphenyl}-2-(pyridin-2-ylmethyl)-2,6-dihydro-7H-pyrazolo[4,3-d]pyrimidin-7-one

> <STRUCTURE_SMILES>
O=S(=O)(c4cc(C3=Nc2c(CC)n(Cc1ccccn1)nc2C(=O)N3)c(OCCC)cc4)N5CCN(CC)CC5

> <STRUCTURE_SMILES_Desalt>
O=S(=O)(c4cc(C3=Nc2c(CC)n(Cc1ccccn1)nc2C(=O)N3)c(OCCC)cc4)N5CCN(CC)CC5

> <Substance_modify_yyyymmdd>
20130910

$$$$
