2152-34-3
ChemmineR-0915142007XD

 13 14  0  0  0  0  0  0  0  0  1 V2000
    1.0735   -1.6778    0.0000 N   0  0  0  0  0  0  0  0  0  0  0  0
    2.3390   -1.2655    0.0000 C   0  0  0  0  0  0  0  0  0  0  0  0
    2.7513    0.0000    0.0000 O   0  0  0  0  0  0  0  0  0  0  0  0
    3.1210   -2.3461    0.0000 C   0  0  0  0  0  0  0  0  0  0  0  0
    4.4505   -2.3461    0.0000 C   0  0  0  0  0  0  0  0  0  0  0  0
    5.1187   -1.1944    0.0000 C   0  0  0  0  0  0  0  0  0  0  0  0
    6.4482   -1.1944    0.0000 C   0  0  0  0  0  0  0  0  0  0  0  0
    7.1094   -2.3461    0.0000 C   0  0  0  0  0  0  0  0  0  0  0  0
    6.4482   -3.4978    0.0000 C   0  0  0  0  0  0  0  0  0  0  0  0
    5.1187   -3.4978    0.0000 C   0  0  0  0  0  0  0  0  0  0  0  0
    2.3390   -3.4196    0.0000 O   0  0  0  0  0  0  0  0  0  0  0  0
    1.0735   -3.0073    0.0000 C   0  0  0  0  0  0  0  0  0  0  0  0
    0.0000   -3.7893    0.0000 N   0  0  0  0  0  0  0  0  0  0  0  0
  1  2  1  0  0  0  0
  1 12  2  0  0  0  0
  2  3  2  0  0  0  0
  2  4  1  0  0  0  0
  4  5  1  0  0  0  0
  4 11  1  0  0  0  0
  5  6  2  0  0  0  0
  5 10  1  0  0  0  0
  6  7  1  0  0  0  0
  7  8  2  0  0  0  0
  8  9  1  0  0  0  0
  9 10  2  0  0  0  0
 11 12  1  0  0  0  0
 12 13  1  0  0  0  0
M  END
> <ID>
3074

> <Formula>
C9H8N2O2

> <FW>
176.172

> <DSSTox_CID>
3427

> <DSSTox_RID>
81815

> <DSSTox_GSID>
23427

> <DSSTox_FileID_Sort>
6496

> <TS_ChemName>
Pemoline

> <TS_ChemName_Synonyms>


> <TS_CASRN>
2152-34-3

> <CASRN_ChemName_Relationship>
primary

> <TS_Description>
single chemical compound

> <ChemNote>
tautomers

> <STRUCTURE_Shown>
tested chemical

> <STRUCTURE_Formula>
C9H8N2O2

> <STRUCTURE_MW>
176.172

> <STRUCTURE_ChemType>
defined organic

> <STRUCTURE_DefinedOrganicForm>
parent

> <STRUCTURE_IUPAC>
2-amino-5-phenyl-1,3-oxazol-4(5H)-one

> <STRUCTURE_SMILES>
NC1=NC(=O)C(O1)c2ccccc2

> <STRUCTURE_SMILES_Desalt>
NC1=NC(=O)C(O1)c2ccccc2

> <Substance_modify_yyyymmdd>
20080429

$$$$
