21540-35-2
ChemmineR-0915142007XD

 13 13  0  0  0  0  0  0  0  0  1 V2000
    5.7717   -1.9938    0.0000 C   0  0  0  0  0  0  0  0  0  0  0  0
    5.7717   -0.6619    0.0000 S   0  0  0  0  0  0  0  0  0  0  0  0
    6.9098   -2.6719    0.0000 N   0  0  0  0  0  0  0  0  0  0  0  0
    4.6092   -2.6558    0.0000 N   0  0  0  0  0  0  0  0  0  0  0  0
    6.9098   -3.9958    0.0000 C   0  0  0  0  0  0  0  0  0  0  0  0
    8.0722   -2.0100    0.0000 C   0  0  0  0  0  0  0  0  0  0  0  0
    3.4630   -1.9938    0.0000 C   0  0  0  0  0  0  0  0  0  0  0  0
    2.3006   -2.6558    0.0000 C   0  0  0  0  0  0  0  0  0  0  0  0
    3.4468   -0.6619    0.0000 C   0  0  0  0  0  0  0  0  0  0  0  0
    1.1624   -1.9777    0.0000 C   0  0  0  0  0  0  0  0  0  0  0  0
    2.3006    0.0000    0.0000 C   0  0  0  0  0  0  0  0  0  0  0  0
    1.1463   -0.6619    0.0000 C   0  0  0  0  0  0  0  0  0  0  0  0
    0.0000   -2.6558    0.0000 C   0  0  0  0  0  0  0  0  0  0  0  0
  1  2  2  0  0  0  0
  1  3  1  0  0  0  0
  1  4  1  0  0  0  0
  3  5  1  0  0  0  0
  3  6  1  0  0  0  0
  4  7  1  0  0  0  0
  7  8  2  0  0  0  0
  7  9  1  0  0  0  0
  8 10  1  0  0  0  0
  9 11  2  0  0  0  0
 10 12  2  0  0  0  0
 10 13  1  0  0  0  0
 11 12  1  0  0  0  0
M  END
> <ID>
9071

> <Formula>
C10H14N2S

> <FW>
194.2966

> <DSSTox_CID>
22140

> <DSSTox_RID>
79934

> <DSSTox_GSID>
42140

> <DSSTox_FileID_Sort>
4616

> <TS_ChemName>
Methiuron

> <TS_ChemName_Synonyms>


> <TS_CASRN>
21540-35-2

> <CASRN_ChemName_Relationship>
primary

> <TS_Description>
single chemical compound

> <ChemNote>


> <STRUCTURE_Shown>
tested chemical

> <STRUCTURE_Formula>
C10H14N2S

> <STRUCTURE_MW>
194.2966

> <STRUCTURE_ChemType>
defined organic

> <STRUCTURE_DefinedOrganicForm>
parent

> <STRUCTURE_IUPAC>
1,1-dimethyl-3-(3-methylphenyl)thiourea

> <STRUCTURE_SMILES>
S=C(Nc1cc(C)ccc1)N(C)C

> <STRUCTURE_SMILES_Desalt>
S=C(Nc1cc(C)ccc1)N(C)C

> <Substance_modify_yyyymmdd>
20080825

$$$$
