2155-70-6
ChemmineR-0915142007XD

 19 18  0  0  0  0  0  0  0  0  1 V2000
    4.6028   -3.9860    0.0000 Sn   0  0  0  0  0  0  0  0  0  0  0  0
    4.6028   -5.3116    0.0000 O    0  0  0  0  0  0  0  0  0  0  0  0
    3.4521   -3.3324    0.0000 C    0  0  0  0  0  0  0  0  0  0  0  0
    5.7535   -3.3140    0.0000 C    0  0  0  0  0  0  0  0  0  0  0  0
    4.6028   -2.6604    0.0000 C    0  0  0  0  0  0  0  0  0  0  0  0
    3.4521   -5.9652    0.0000 C    0  0  0  0  0  0  0  0  0  0  0  0
    2.2830   -3.9860    0.0000 C    0  0  0  0  0  0  0  0  0  0  0  0
    6.9042   -3.9860    0.0000 C    0  0  0  0  0  0  0  0  0  0  0  0
    5.7535   -1.9884    0.0000 C    0  0  0  0  0  0  0  0  0  0  0  0
    3.4521   -7.2908    0.0000 C    0  0  0  0  0  0  0  0  0  0  0  0
    2.2830   -5.3116    0.0000 O    0  0  0  0  0  0  0  0  0  0  0  0
    1.1507   -3.3324    0.0000 C    0  0  0  0  0  0  0  0  0  0  0  0
    8.0548   -3.2956    0.0000 C    0  0  0  0  0  0  0  0  0  0  0  0
    5.7535   -0.6628    0.0000 C    0  0  0  0  0  0  0  0  0  0  0  0
    4.6028   -7.9628    0.0000 C    0  0  0  0  0  0  0  0  0  0  0  0
    2.2830   -7.9444    0.0000 C    0  0  0  0  0  0  0  0  0  0  0  0
    0.0000   -3.9860    0.0000 C    0  0  0  0  0  0  0  0  0  0  0  0
    9.2055   -3.9860    0.0000 C    0  0  0  0  0  0  0  0  0  0  0  0
    6.9042    0.0000    0.0000 C    0  0  0  0  0  0  0  0  0  0  0  0
  1  2  1  0  0  0  0
  1  3  1  0  0  0  0
  1  4  1  0  0  0  0
  1  5  1  0  0  0  0
  2  6  1  0  0  0  0
  3  7  1  0  0  0  0
  4  8  1  0  0  0  0
  5  9  1  0  0  0  0
  6 10  1  0  0  0  0
  6 11  2  0  0  0  0
  7 12  1  0  0  0  0
  8 13  1  0  0  0  0
  9 14  1  0  0  0  0
 10 15  1  0  0  0  0
 10 16  2  0  0  0  0
 12 17  1  0  0  0  0
 13 18  1  0  0  0  0
 14 19  1  0  0  0  0
M  END
> <ID>
7002

> <Formula>
C16H32O2Sn

> <FW>
375.1341

> <DSSTox_CID>
15204

> <DSSTox_RID>
79247

> <DSSTox_GSID>
35204

> <DSSTox_FileID_Sort>
3929

> <TS_ChemName>
Tributyltin methacrylate

> <TS_ChemName_Synonyms>
Stannane, tributyl(2-methyl-1-oxo-2-propenyl)oxy-

> <TS_CASRN>
2155-70-6

> <CASRN_ChemName_Relationship>
primary

> <TS_Description>
single chemical compound

> <ChemNote>


> <STRUCTURE_Shown>
tested chemical

> <STRUCTURE_Formula>
C16H32O2Sn

> <STRUCTURE_MW>
375.1341

> <STRUCTURE_ChemType>
organometallic

> <STRUCTURE_DefinedOrganicForm>


> <STRUCTURE_IUPAC>
tributyl[(2-methylacryloyl)oxy]stannane

> <STRUCTURE_SMILES>
CCCC[Sn](CCCC)(OC(=O)C(=C)C)CCCC

> <STRUCTURE_SMILES_Desalt>
CCCC[Sn](CCCC)(OC(=O)C(=C)C)CCCC

> <Substance_modify_yyyymmdd>
20080429

$$$$
