2156-96-9
ChemmineR-0915142007XD

 15 14  0  0  0  0  0  0  0  0  1 V2000
   12.6821   -1.3326    0.0000 C   0  0  0  0  0  0  0  0  0  0  0  0
   13.8200   -2.0064    0.0000 C   0  0  0  0  0  0  0  0  0  0  0  0
   14.9729   -1.3476    0.0000 C   0  0  0  0  0  0  0  0  0  0  0  0
   12.6821    0.0000    0.0000 O   0  0  0  0  0  0  0  0  0  0  0  0
   11.5142   -1.9914    0.0000 O   0  0  0  0  0  0  0  0  0  0  0  0
   10.3762   -1.3176    0.0000 C   0  0  0  0  0  0  0  0  0  0  0  0
    9.2233   -1.9764    0.0000 C   0  0  0  0  0  0  0  0  0  0  0  0
    8.0704   -1.3026    0.0000 C   0  0  0  0  0  0  0  0  0  0  0  0
    6.9025   -1.9465    0.0000 C   0  0  0  0  0  0  0  0  0  0  0  0
    5.7496   -1.2727    0.0000 C   0  0  0  0  0  0  0  0  0  0  0  0
    4.5967   -1.9315    0.0000 C   0  0  0  0  0  0  0  0  0  0  0  0
    3.4587   -1.2577    0.0000 C   0  0  0  0  0  0  0  0  0  0  0  0
    2.2909   -1.9165    0.0000 C   0  0  0  0  0  0  0  0  0  0  0  0
    1.1529   -1.2428    0.0000 C   0  0  0  0  0  0  0  0  0  0  0  0
    0.0000   -1.9016    0.0000 C   0  0  0  0  0  0  0  0  0  0  0  0
  1  2  1  0  0  0  0
  1  5  1  0  0  0  0
  1  4  2  0  0  0  0
  2  3  2  0  0  0  0
  5  6  1  0  0  0  0
  6  7  1  0  0  0  0
  7  8  1  0  0  0  0
  8  9  1  0  0  0  0
  9 10  1  0  0  0  0
 10 11  1  0  0  0  0
 11 12  1  0  0  0  0
 12 13  1  0  0  0  0
 13 14  1  0  0  0  0
 14 15  1  0  0  0  0
M  END
> <ID>
10520

> <Formula>
C13H24O2

> <FW>
212.3285

> <DSSTox_CID>
24873

> <DSSTox_RID>
80548

> <DSSTox_GSID>
44873

> <DSSTox_FileID_Sort>
5230

> <TS_ChemName>
Decyl prop-2-enoate

> <TS_ChemName_Synonyms>
Decyl prop-2-enoate (2-Propenoic acid, decyl ester)

> <TS_CASRN>
2156-96-9

> <CASRN_ChemName_Relationship>
primary

> <TS_Description>
single chemical compound

> <ChemNote>


> <STRUCTURE_Shown>
tested chemical

> <STRUCTURE_Formula>
C13H24O2

> <STRUCTURE_MW>
212.3285

> <STRUCTURE_ChemType>
defined organic

> <STRUCTURE_DefinedOrganicForm>
parent

> <STRUCTURE_IUPAC>
decyl prop-2-enoate

> <STRUCTURE_SMILES>
C=CC(=O)OCCCCCCCCCC

> <STRUCTURE_SMILES_Desalt>
C=CC(=O)OCCCCCCCCCC

> <Substance_modify_yyyymmdd>
20091116

$$$$
