2156-56-1
ChemmineR-0915142007XD

  7  5  0  0  0  0  0  0  0  0  2 V2000
    0.0000   -1.6692    0.0000 Na   0  3  0  0  0  0  0  0  0  0  0  0
    4.9167   -2.0031    0.0000 C    0  0  0  0  0  0  0  0  0  0  0  0
    4.9167   -3.3324    0.0000 O    0  0  0  0  0  0  0  0  0  0  0  0
    6.0700   -1.3293    0.0000 O    0  5  0  0  0  0  0  0  0  0  0  0
    3.7634   -1.3293    0.0000 C    0  0  0  0  0  0  0  0  0  0  0  0
    3.7634    0.0000    0.0000 Cl   0  0  0  0  0  0  0  0  0  0  0  0
    2.6283   -2.0031    0.0000 Cl   0  0  0  0  0  0  0  0  0  0  0  0
  2  3  2  0  0  0  0
  2  4  1  0  0  0  0
  2  5  1  0  0  0  0
  5  6  1  0  0  0  0
  5  7  1  0  0  0  0
M  END
> <ID>
7274

> <Formula>
C2HCl2NaO2

> <FW>
150.9239 (22.9892+127.9347)

> <DSSTox_CID>
17207

> <DSSTox_RID>
79307

> <DSSTox_GSID>
37207

> <DSSTox_FileID_Sort>
3989

> <TS_ChemName>
Sodium dichloroacetate

> <TS_ChemName_Synonyms>
Sodium dichloroacetate (Dichloroacetate) (DCA)

> <TS_CASRN>
2156-56-1

> <CASRN_ChemName_Relationship>
primary

> <TS_Description>
single chemical compound

> <ChemNote>
parent [79-43-6]

> <STRUCTURE_Shown>
tested chemical

> <STRUCTURE_Formula>
C2HCl2NaO2

> <STRUCTURE_MW>
150.9239

> <STRUCTURE_ChemType>
defined organic

> <STRUCTURE_DefinedOrganicForm>
salt

> <STRUCTURE_IUPAC>
sodium dichloroacetate

> <STRUCTURE_SMILES>
[Na+].ClC(Cl)C([O-])=O

> <STRUCTURE_SMILES_Desalt>
ClC(Cl)C(=O)O

> <Substance_modify_yyyymmdd>
20080429

$$$$
