21564-17-0
ChemmineR-0915142007XD

 14 15  0  0  0  0  0  0  0  0  1 V2000
    7.6737   -2.3057    0.0000 S   0  0  0  0  0  0  0  0  0  0  0  0
    8.3402   -1.1439    0.0000 C   0  0  0  0  0  0  0  0  0  0  0  0
    9.0067    0.0000    0.0000 N   0  0  0  0  0  0  0  0  0  0  0  0
    6.3497   -2.3057    0.0000 C   0  0  0  0  0  0  0  0  0  0  0  0
    5.6832   -3.4586    0.0000 S   0  0  0  0  0  0  0  0  0  0  0  0
    3.5667   -2.3868    0.0000 N   0  0  0  0  0  0  0  0  0  0  0  0
    3.5667   -4.5394    0.0000 S   0  0  0  0  0  0  0  0  0  0  0  0
    4.3502   -3.4586    0.0000 C   0  0  0  0  0  0  0  0  0  0  0  0
    2.3057   -2.7921    0.0000 C   0  0  0  0  0  0  0  0  0  0  0  0
    2.3057   -4.1251    0.0000 C   0  0  0  0  0  0  0  0  0  0  0  0
    1.1619   -4.7916    0.0000 C   0  0  0  0  0  0  0  0  0  0  0  0
    0.0000   -4.1251    0.0000 C   0  0  0  0  0  0  0  0  0  0  0  0
    0.0000   -2.7921    0.0000 C   0  0  0  0  0  0  0  0  0  0  0  0
    1.1619   -2.1346    0.0000 C   0  0  0  0  0  0  0  0  0  0  0  0
  1  2  1  0  0  0  0
  1  4  1  0  0  0  0
  2  3  3  0  0  0  0
  4  5  1  0  0  0  0
  5  8  1  0  0  0  0
  6  8  2  0  0  0  0
  6  9  1  0  0  0  0
  7  8  1  0  0  0  0
  7 10  1  0  0  0  0
  9 10  1  0  0  0  0
  9 14  2  0  0  0  0
 10 11  2  0  0  0  0
 11 12  1  0  0  0  0
 12 13  2  0  0  0  0
 13 14  1  0  0  0  0
M  END
> <ID>
6563

> <Formula>
C9H6N2S3

> <FW>
238.3523

> <DSSTox_CID>
12647

> <DSSTox_RID>
79023

> <DSSTox_GSID>
32647

> <DSSTox_FileID_Sort>
3705

> <TS_ChemName>
2-(Thiocyanomethylthio)benzothiazole

> <TS_ChemName_Synonyms>
2-(Thiocyanomethylthio)benzothiazole (TCMTB)

> <TS_CASRN>
21564-17-0

> <CASRN_ChemName_Relationship>
primary

> <TS_Description>
single chemical compound

> <ChemNote>


> <STRUCTURE_Shown>
tested chemical

> <STRUCTURE_Formula>
C9H6N2S3

> <STRUCTURE_MW>
238.3523

> <STRUCTURE_ChemType>
defined organic

> <STRUCTURE_DefinedOrganicForm>
parent

> <STRUCTURE_IUPAC>
(1,3-benzothiazol-2-ylsulfanyl)methyl thiocyanate

> <STRUCTURE_SMILES>
N#CSCSc1nc2ccccc2s1

> <STRUCTURE_SMILES_Desalt>
N#CSCSc1nc2ccccc2s1

> <Substance_modify_yyyymmdd>
20080429

$$$$
