21590-92-1
ChemmineR-0915142007XD

 28 31  0  0  0  0  0  0  0  0  1 V2000
    4.4664   -1.9209    0.0000 N   0  0  0  0  0  0  0  0  0  0  0  0
    4.4664   -3.2639    0.0000 C   0  0  0  0  0  0  0  0  0  0  0  0
    3.3420   -1.2806    0.0000 C   0  0  0  0  0  0  0  0  0  0  0  0
    2.2488   -3.2639    0.0000 C   0  0  0  0  0  0  0  0  0  0  0  0
    2.2488   -1.9209    0.0000 C   0  0  0  0  0  0  0  0  0  0  0  0
    5.5596   -3.8886    0.0000 N   0  0  0  0  0  0  0  0  0  0  0  0
    3.3420   -0.0312    0.0000 O   0  0  0  0  0  0  0  0  0  0  0  0
   13.3680   -1.8584    0.0000 N   0  0  0  0  0  0  0  0  0  0  0  0
    5.5596   -1.2806    0.0000 C   0  0  0  0  0  0  0  0  0  0  0  0
    6.7152   -3.2639    0.0000 C   0  0  0  0  0  0  0  0  0  0  0  0
    8.9016   -1.9209    0.0000 C   0  0  0  0  0  0  0  0  0  0  0  0
    7.8084   -3.8886    0.0000 C   0  0  0  0  0  0  0  0  0  0  0  0
    6.7152   -1.9209    0.0000 C   0  0  0  0  0  0  0  0  0  0  0  0
    1.1556   -1.2806    0.0000 C   0  0  0  0  0  0  0  0  0  0  0  0
    1.1556   -3.8886    0.0000 C   0  0  0  0  0  0  0  0  0  0  0  0
    8.9016   -3.2639    0.0000 C   0  0  0  0  0  0  0  0  0  0  0  0
    7.8084   -1.2806    0.0000 C   0  0  0  0  0  0  0  0  0  0  0  0
   10.0572   -1.2806    0.0000 O   0  0  0  0  0  0  0  0  0  0  0  0
   12.2748   -1.2337    0.0000 C   0  0  0  0  0  0  0  0  0  0  0  0
   11.1973   -1.8584    0.0000 C   0  0  0  0  0  0  0  0  0  0  0  0
   13.3680   -3.3108    0.0000 C   0  0  0  0  0  0  0  0  0  0  0  0
   14.5236   -1.2337    0.0000 C   0  0  0  0  0  0  0  0  0  0  0  0
    5.5596    0.0000    0.0000 C   0  0  0  0  0  0  0  0  0  0  0  0
    0.0000   -1.9209    0.0000 C   0  0  0  0  0  0  0  0  0  0  0  0
    0.0000   -3.2639    0.0000 C   0  0  0  0  0  0  0  0  0  0  0  0
   14.5236   -3.9354    0.0000 C   0  0  0  0  0  0  0  0  0  0  0  0
   15.6168   -1.8584    0.0000 C   0  0  0  0  0  0  0  0  0  0  0  0
   15.6168   -3.3108    0.0000 C   0  0  0  0  0  0  0  0  0  0  0  0
  1  2  1  0  0  0  0
  1  3  1  0  0  0  0
  1  9  1  0  0  0  0
  2  4  1  0  0  0  0
  2  6  1  0  0  0  0
  3  5  1  0  0  0  0
  3  7  2  0  0  0  0
  4 15  1  0  0  0  0
  4  5  2  0  0  0  0
  5 14  1  0  0  0  0
  6 10  1  0  0  0  0
  8 19  1  0  0  0  0
  8 21  1  0  0  0  0
  8 22  1  0  0  0  0
  9 23  1  0  0  0  0
 10 12  2  0  0  0  0
 10 13  1  0  0  0  0
 11 17  1  0  0  0  0
 11 18  1  0  0  0  0
 11 16  2  0  0  0  0
 12 16  1  0  0  0  0
 13 17  2  0  0  0  0
 14 24  2  0  0  0  0
 15 25  2  0  0  0  0
 18 20  1  0  0  0  0
 19 20  1  0  0  0  0
 21 26  1  0  0  0  0
 22 27  1  0  0  0  0
 24 25  1  0  0  0  0
 26 28  1  0  0  0  0
 27 28  1  0  0  0  0
M  END
> <ID>
13789

> <Formula>
C23H29N3O2

> <FW>
379.4953

> <DSSTox_CID>
28726

> <DSSTox_RID>
82995

> <DSSTox_GSID>
48800

> <DSSTox_FileID_Sort>
7672

> <TS_ChemName>
Etomidoline

> <TS_ChemName_Synonyms>


> <TS_CASRN>
21590-92-1

> <CASRN_ChemName_Relationship>
primary

> <TS_Description>
single chemical compound

> <ChemNote>


> <STRUCTURE_Shown>
tested chemical

> <STRUCTURE_Formula>
C23H29N3O2

> <STRUCTURE_MW>
379.4953

> <STRUCTURE_ChemType>
defined organic

> <STRUCTURE_DefinedOrganicForm>
parent

> <STRUCTURE_IUPAC>
2-ethyl-3-({4-[2-(piperidin-1-yl)ethoxy]phenyl}amino)-2,3-dihydro-1H-isoindol-1-one

> <STRUCTURE_SMILES>
O=C4c1ccccc1C(Nc3ccc(OCCN2CCCCC2)cc3)N4CC

> <STRUCTURE_SMILES_Desalt>
O=C4c1ccccc1C(Nc3ccc(OCCN2CCCCC2)cc3)N4CC

> <Substance_modify_yyyymmdd>
20111204

$$$$
