21609-90-5
ChemmineR-0915142007XD

 20 21  0  0  0  0  0  0  0  0  1 V2000
    3.4578   -2.0063    0.0000 P    0  0  0  0  0  0  0  0  0  0  0  0
    5.7784   -1.9878    0.0000 C    0  0  0  0  0  0  0  0  0  0  0  0
    4.6043   -1.3129    0.0000 O    0  0  0  0  0  0  0  0  0  0  0  0
    5.7784   -3.3099    0.0000 C    0  0  0  0  0  0  0  0  0  0  0  0
    8.0713   -1.9785    0.0000 C    0  0  0  0  0  0  0  0  0  0  0  0
    6.9156   -1.3221    0.0000 C    0  0  0  0  0  0  0  0  0  0  0  0
    6.9156   -3.9663    0.0000 C    0  0  0  0  0  0  0  0  0  0  0  0
    8.0713   -3.3006    0.0000 C    0  0  0  0  0  0  0  0  0  0  0  0
    2.7644   -0.8506    0.0000 S    0  0  0  0  0  0  0  0  0  0  0  0
    2.2929   -2.6904    0.0000 C    0  0  0  0  0  0  0  0  0  0  0  0
    4.1327   -3.1527    0.0000 O    0  0  0  0  0  0  0  0  0  0  0  0
    6.9156    0.0000    0.0000 Cl   0  0  0  0  0  0  0  0  0  0  0  0
    6.9156   -5.2977    0.0000 Cl   0  0  0  0  0  0  0  0  0  0  0  0
    9.2455   -3.9663    0.0000 Br   0  0  0  0  0  0  0  0  0  0  0  0
    1.1557   -2.0340    0.0000 C    0  0  0  0  0  0  0  0  0  0  0  0
    2.2929   -4.0126    0.0000 C    0  0  0  0  0  0  0  0  0  0  0  0
    3.4763   -4.3177    0.0000 C    0  0  0  0  0  0  0  0  0  0  0  0
    0.0000   -2.6812    0.0000 C    0  0  0  0  0  0  0  0  0  0  0  0
    1.1557   -4.6690    0.0000 C    0  0  0  0  0  0  0  0  0  0  0  0
    0.0000   -4.0033    0.0000 C    0  0  0  0  0  0  0  0  0  0  0  0
  1  3  1  0  0  0  0
  1  9  2  0  0  0  0
  1 10  1  0  0  0  0
  1 11  1  0  0  0  0
  2  3  1  0  0  0  0
  2  4  2  0  0  0  0
  2  6  1  0  0  0  0
  4  7  1  0  0  0  0
  5  6  2  0  0  0  0
  5  8  1  0  0  0  0
  6 12  1  0  0  0  0
  7 13  1  0  0  0  0
  7  8  2  0  0  0  0
  8 14  1  0  0  0  0
 10 15  1  0  0  0  0
 10 16  2  0  0  0  0
 11 17  1  0  0  0  0
 15 18  2  0  0  0  0
 16 19  1  0  0  0  0
 18 20  1  0  0  0  0
 19 20  2  0  0  0  0
M  END
> <ID>
7656

> <Formula>
C13H10BrCl2O2PS

> <FW>
412.0661

> <DSSTox_CID>
20279

> <DSSTox_RID>
79467

> <DSSTox_GSID>
40279

> <DSSTox_FileID_Sort>
4149

> <TS_ChemName>
Leptophos

> <TS_ChemName_Synonyms>


> <TS_CASRN>
21609-90-5

> <CASRN_ChemName_Relationship>
primary

> <TS_Description>
single chemical compound

> <ChemNote>


> <STRUCTURE_Shown>
tested chemical

> <STRUCTURE_Formula>
C13H10BrCl2O2PS

> <STRUCTURE_MW>
412.0661

> <STRUCTURE_ChemType>
defined organic

> <STRUCTURE_DefinedOrganicForm>
parent

> <STRUCTURE_IUPAC>
O-(4-bromo-2,5-dichlorophenyl) O-methyl phenylphosphonothioate

> <STRUCTURE_SMILES>
Clc2cc(OP(=S)(OC)c1ccccc1)c(Cl)cc2Br

> <STRUCTURE_SMILES_Desalt>
Clc2cc(OP(=S)(OC)c1ccccc1)c(Cl)cc2Br

> <Substance_modify_yyyymmdd>
20080429

$$$$
