2160-93-2
ChemmineR-0915142007XD

 11 10  0  0  0  0  0  0  0  0  1 V2000
    1.1538   -2.6530    0.0000 C   0  0  0  0  0  0  0  0  0  0  0  0
    2.3007   -3.3232    0.0000 C   0  0  0  0  0  0  0  0  0  0  0  0
    0.0000   -3.3232    0.0000 O   0  0  0  0  0  0  0  0  0  0  0  0
    5.7552   -2.6530    0.0000 C   0  0  0  0  0  0  0  0  0  0  0  0
    4.6083   -3.3232    0.0000 C   0  0  0  0  0  0  0  0  0  0  0  0
    6.9090   -3.3232    0.0000 O   0  0  0  0  0  0  0  0  0  0  0  0
    3.4545   -2.6530    0.0000 N   0  0  0  0  0  0  0  0  0  0  0  0
    3.4545   -1.3265    0.0000 C   0  0  0  0  0  0  0  0  0  0  0  0
    2.1280   -1.3265    0.0000 C   0  0  0  0  0  0  0  0  0  0  0  0
    4.7810   -1.3265    0.0000 C   0  0  0  0  0  0  0  0  0  0  0  0
    3.4545    0.0000    0.0000 C   0  0  0  0  0  0  0  0  0  0  0  0
  1  2  1  0  0  0  0
  1  3  1  0  0  0  0
  2  7  1  0  0  0  0
  4  5  1  0  0  0  0
  4  6  1  0  0  0  0
  5  7  1  0  0  0  0
  7  8  1  0  0  0  0
  8  9  1  0  0  0  0
  8 10  1  0  0  0  0
  8 11  1  0  0  0  0
M  END
> <ID>
5873

> <Formula>
C8H19NO2

> <FW>
161.242

> <DSSTox_CID>
9230

> <DSSTox_RID>
78719

> <DSSTox_GSID>
29230

> <DSSTox_FileID_Sort>
3401

> <TS_ChemName>
2,2'-(tert-Butylimino)diethanol

> <TS_ChemName_Synonyms>


> <TS_CASRN>
2160-93-2

> <CASRN_ChemName_Relationship>
primary

> <TS_Description>
single chemical compound

> <ChemNote>


> <STRUCTURE_Shown>
tested chemical

> <STRUCTURE_Formula>
C8H19NO2

> <STRUCTURE_MW>
161.242

> <STRUCTURE_ChemType>
defined organic

> <STRUCTURE_DefinedOrganicForm>
parent

> <STRUCTURE_IUPAC>
2,2'-(tert-butylimino)diethanol

> <STRUCTURE_SMILES>
CC(C)(C)N(CCO)CCO

> <STRUCTURE_SMILES_Desalt>
CC(C)(C)N(CCO)CCO

> <Substance_modify_yyyymmdd>
20080429

$$$$
