21626-89-1
ChemmineR-0915142007XD

 20 23  0  0  0  0  0  0  0  0  1 V2000
    3.4551    0.0000    0.0000 O   0  0  0  0  0  0  0  0  0  0  0  0
    3.4551   -1.3268    0.0000 C   0  0  0  0  0  0  0  0  0  0  0  0
    4.6068   -1.9902    0.0000 N   0  0  0  0  0  0  0  0  0  0  0  0
    5.7585   -1.3268    0.0000 C   0  0  0  0  0  0  0  0  0  0  0  0
    6.9103   -1.9902    0.0000 C   0  0  0  0  0  0  0  0  0  0  0  0
    8.0620   -1.3268    0.0000 C   0  0  0  0  0  0  0  0  0  0  0  0
    9.2137   -1.9902    0.0000 C   0  0  0  0  0  0  0  0  0  0  0  0
    9.2137   -3.3169    0.0000 C   0  0  0  0  0  0  0  0  0  0  0  0
    8.0620   -3.9895    0.0000 C   0  0  0  0  0  0  0  0  0  0  0  0
    6.9103   -3.3169    0.0000 C   0  0  0  0  0  0  0  0  0  0  0  0
    5.7585   -3.9895    0.0000 C   0  0  0  0  0  0  0  0  0  0  0  0
    5.7585   -5.3163    0.0000 O   0  0  0  0  0  0  0  0  0  0  0  0
    4.6068   -3.3169    0.0000 N   0  0  0  0  0  0  0  0  0  0  0  0
    3.4551   -3.9895    0.0000 C   0  0  0  0  0  0  0  0  0  0  0  0
    2.3034   -3.3169    0.0000 C   0  0  0  0  0  0  0  0  0  0  0  0
    1.1517   -3.9895    0.0000 C   0  0  0  0  0  0  0  0  0  0  0  0
    0.0000   -3.3169    0.0000 C   0  0  0  0  0  0  0  0  0  0  0  0
    0.0000   -1.9902    0.0000 C   0  0  0  0  0  0  0  0  0  0  0  0
    1.1517   -1.3268    0.0000 C   0  0  0  0  0  0  0  0  0  0  0  0
    2.3034   -1.9902    0.0000 C   0  0  0  0  0  0  0  0  0  0  0  0
  1  2  2  0  0  0  0
  2  3  1  0  0  0  0
  2 20  1  0  0  0  0
  3  4  1  0  0  0  0
  3 13  1  0  0  0  0
  4  5  1  0  0  0  0
  5  6  2  0  0  0  0
  5 10  1  0  0  0  0
  6  7  1  0  0  0  0
  7  8  2  0  0  0  0
  8  9  1  0  0  0  0
  9 10  2  0  0  0  0
 10 11  1  0  0  0  0
 11 12  2  0  0  0  0
 11 13  1  0  0  0  0
 13 14  1  0  0  0  0
 14 15  1  0  0  0  0
 15 16  1  0  0  0  0
 15 20  2  0  0  0  0
 16 17  2  0  0  0  0
 17 18  1  0  0  0  0
 18 19  2  0  0  0  0
 19 20  1  0  0  0  0
M  END
> <ID>
453

> <Formula>
C16H12N2O2

> <FW>
264.2787

> <DSSTox_CID>
469

> <DSSTox_RID>
75611

> <DSSTox_GSID>
20469

> <DSSTox_FileID_Sort>
295

> <TS_ChemName>
Diftalone

> <TS_ChemName_Synonyms>


> <TS_CASRN>
21626-89-1

> <CASRN_ChemName_Relationship>
primary

> <TS_Description>
single chemical compound

> <ChemNote>


> <STRUCTURE_Shown>
tested chemical

> <STRUCTURE_Formula>
C16H12N2O2

> <STRUCTURE_MW>
264.2787

> <STRUCTURE_ChemType>
defined organic

> <STRUCTURE_DefinedOrganicForm>
parent

> <STRUCTURE_IUPAC>
phthalazino[2,3-b]phthalazine-5,12(7H,14H)-dione

> <STRUCTURE_SMILES>
O=C1c4ccccc4CN2C(=O)c3ccccc3CN12

> <STRUCTURE_SMILES_Desalt>
O=C1c4ccccc4CN2C(=O)c3ccccc3CN12

> <Substance_modify_yyyymmdd>
20080429

$$$$
