216299-72-8
ChemmineR-0915142007XD

 24 23  0  0  0  0  0  0  0  0  2 V2000
    3.3961   -1.7254    0.0000 N   0  0  0  0  0  0  0  0  0  0  0  0
    5.4502   -1.0818    0.0000 N   0  3  0  0  0  0  0  0  0  0  0  0
    4.6560   -2.1500    0.0000 C   0  0  0  0  0  0  0  0  0  0  0  0
    3.3961   -0.3971    0.0000 C   0  0  0  0  0  0  0  0  0  0  0  0
    4.6697    0.0000    0.0000 C   0  0  0  0  0  0  0  0  0  0  0  0
    6.7785   -1.0818    0.0000 C   0  0  0  0  0  0  0  0  0  0  0  0
    2.3143   -2.4923    0.0000 C   0  0  0  0  0  0  0  0  0  0  0  0
    1.0955   -1.9582    0.0000 C   0  0  0  0  0  0  0  0  0  0  0  0
    0.0000   -2.7251    0.0000 C   0  0  0  0  0  0  0  0  0  0  0  0
    9.7501   -2.7936    0.0000 O   0  0  0  0  0  0  0  0  0  0  0  0
    9.0928   -3.9302    0.0000 S   0  0  0  0  0  0  0  0  0  0  0  0
    8.4081   -5.0805    0.0000 O   0  0  0  0  0  0  0  0  0  0  0  0
    7.9151   -3.2729    0.0000 C   0  0  0  0  0  0  0  0  0  0  0  0
    7.2441   -4.4095    0.0000 F   0  0  0  0  0  0  0  0  0  0  0  0
    8.5725   -2.1089    0.0000 F   0  0  0  0  0  0  0  0  0  0  0  0
    6.7648   -2.6019    0.0000 F   0  0  0  0  0  0  0  0  0  0  0  0
   10.2294   -4.5875    0.0000 N   0  5  0  0  0  0  0  0  0  0  0  0
   10.7087   -2.7936    0.0000 O   0  0  0  0  0  0  0  0  0  0  0  0
   11.3660   -3.9302    0.0000 S   0  0  0  0  0  0  0  0  0  0  0  0
   12.0781   -5.0805    0.0000 O   0  0  0  0  0  0  0  0  0  0  0  0
   12.5574   -3.2729    0.0000 C   0  0  0  0  0  0  0  0  0  0  0  0
   11.8864   -2.1089    0.0000 F   0  0  0  0  0  0  0  0  0  0  0  0
   13.2010   -4.4095    0.0000 F   0  0  0  0  0  0  0  0  0  0  0  0
   13.6940   -2.6019    0.0000 F   0  0  0  0  0  0  0  0  0  0  0  0
  1  3  1  0  0  0  0
  1  4  1  0  0  0  0
  1  7  1  0  0  0  0
  2  3  2  0  0  0  0
  2  5  1  0  0  0  0
  2  6  1  0  0  0  0
  4  5  2  0  0  0  0
  7  8  1  0  0  0  0
  8  9  1  0  0  0  0
 10 11  2  0  0  0  0
 11 12  2  0  0  0  0
 11 13  1  0  0  0  0
 11 17  1  0  0  0  0
 13 14  1  0  0  0  0
 13 15  1  0  0  0  0
 13 16  1  0  0  0  0
 17 19  1  0  0  0  0
 18 19  2  0  0  0  0
 19 20  2  0  0  0  0
 19 21  1  0  0  0  0
 21 22  1  0  0  0  0
 21 23  1  0  0  0  0
 21 24  1  0  0  0  0
M  END
> <ID>
13022

> <Formula>
C9H13F6N3O4S2

> <FW>
405.3376 (125.1910+280.1467)

> <DSSTox_CID>
27923

> <DSSTox_RID>
82676

> <DSSTox_GSID>
47947

> <DSSTox_FileID_Sort>
7353

> <TS_ChemName>
1-Methyl-3-propylimidazolium bis(trifluoromethylsulfonyl)imide

> <TS_ChemName_Synonyms>


> <TS_CASRN>
216299-72-8

> <CASRN_ChemName_Relationship>
primary

> <TS_Description>
single chemical compound

> <ChemNote>
ammonium; parent [80432-06-0]

> <STRUCTURE_Shown>
tested chemical

> <STRUCTURE_Formula>
C9H13F6N3O4S2

> <STRUCTURE_MW>
405.3376

> <STRUCTURE_ChemType>
defined organic

> <STRUCTURE_DefinedOrganicForm>
salt

> <STRUCTURE_IUPAC>
3-methyl-1-propyl-1H-imidazol-3-ium bis[(trifluoromethyl)sulfonyl]azanide

> <STRUCTURE_SMILES>
C[n+]1ccn(CCC)c1.FC(F)(F)S(=O)(=O)[N-]S(=O)(=O)C(F)(F)F

> <STRUCTURE_SMILES_Desalt>
O=S(=O)(NS(=O)(=O)C(F)(F)F)C(F)(F)F

> <Substance_modify_yyyymmdd>
20110418

$$$$
