2163-42-0
ChemmineR-0915142007XD

  6  5  0  0  0  0  0  0  0  0  1 V2000
    0.0000   -1.9986    0.0000 C   0  0  0  0  0  0  0  0  0  0  0  0
    1.1494   -1.3255    0.0000 C   0  0  0  0  0  0  0  0  0  0  0  0
    2.3023   -1.9986    0.0000 C   0  0  0  0  0  0  0  0  0  0  0  0
    0.0000   -3.3241    0.0000 O   0  0  0  0  0  0  0  0  0  0  0  0
    3.4518   -1.3255    0.0000 O   0  0  0  0  0  0  0  0  0  0  0  0
    1.1494    0.0000    0.0000 C   0  0  0  0  0  0  0  0  0  0  0  0
  1  2  1  0  0  0  0
  1  4  1  0  0  0  0
  2  3  1  0  0  0  0
  2  6  1  0  0  0  0
  3  5  1  0  0  0  0
M  END
> <ID>
5874

> <Formula>
C4H10O2

> <FW>
90.121

> <DSSTox_CID>
9231

> <DSSTox_RID>
78720

> <DSSTox_GSID>
29231

> <DSSTox_FileID_Sort>
3402

> <TS_ChemName>
2-Methylpropane-1,3-diol

> <TS_ChemName_Synonyms>


> <TS_CASRN>
2163-42-0

> <CASRN_ChemName_Relationship>
primary

> <TS_Description>
single chemical compound

> <ChemNote>


> <STRUCTURE_Shown>
tested chemical

> <STRUCTURE_Formula>
C4H10O2

> <STRUCTURE_MW>
90.121

> <STRUCTURE_ChemType>
defined organic

> <STRUCTURE_DefinedOrganicForm>
parent

> <STRUCTURE_IUPAC>
2-methylpropane-1,3-diol

> <STRUCTURE_SMILES>
CC(CO)CO

> <STRUCTURE_SMILES_Desalt>
CC(CO)CO

> <Substance_modify_yyyymmdd>
20080429

$$$$
