216300-12-8
ChemmineR-0915142007XD

 16 15  0  0  0  0  0  0  0  0  2 V2000
    5.3493   -4.7156    0.0000 C   0  0  0  0  0  0  0  0  0  0  0  0
   10.7416   -1.1493    0.0000 C   0  0  0  0  0  0  0  0  0  0  0  0
    6.4235   -3.9314    0.0000 C   0  0  0  0  0  0  0  0  0  0  0  0
    6.2946   -2.6102    0.0000 C   0  0  0  0  0  0  0  0  0  0  0  0
    8.6255   -0.0752    0.0000 C   0  0  0  0  0  0  0  0  0  0  0  0
    7.3687   -0.4941    0.0000 C   0  0  0  0  0  0  0  0  0  0  0  0
    8.6255   -2.2235    0.0000 C   0  0  0  0  0  0  0  0  0  0  0  0
    9.4096   -1.1493    0.0000 N   0  3  0  0  0  0  0  0  0  0  0  0
    7.3687   -1.8261    0.0000 N   0  0  0  0  0  0  0  0  0  0  0  0
    0.0000   -1.1493    0.0000 F   0  0  0  0  0  0  0  0  0  0  0  0
    0.6767   -2.3094    0.0000 F   0  0  0  0  0  0  0  0  0  0  0  0
    2.0087   -2.3094    0.0000 F   0  0  0  0  0  0  0  0  0  0  0  0
    2.0087    0.0000    0.0000 F   0  0  0  0  0  0  0  0  0  0  0  0
    0.6767    0.0000    0.0000 F   0  0  0  0  0  0  0  0  0  0  0  0
    2.6639   -1.1493    0.0000 F   0  0  0  0  0  0  0  0  0  0  0  0
    1.3320   -1.1493    0.0000 P   0  5  0  0  0  0  0  0  0  0  0  0
  1  3  1  0  0  0  0
  2  8  1  0  0  0  0
  3  4  1  0  0  0  0
  4  9  1  0  0  0  0
  5  6  2  0  0  0  0
  5  8  1  0  0  0  0
  6  9  1  0  0  0  0
  7  8  2  0  0  0  0
  7  9  1  0  0  0  0
 10 16  1  0  0  0  0
 11 16  1  0  0  0  0
 12 16  1  0  0  0  0
 13 16  1  0  0  0  0
 14 16  1  0  0  0  0
 15 16  1  0  0  0  0
M  END
> <ID>
14109

> <Formula>
C7H13F6N2P

> <FW>
270.1557 (125.1910+144.9647)

> <DSSTox_CID>
29102

> <DSSTox_RID>
83321

> <DSSTox_GSID>
49246

> <DSSTox_FileID_Sort>
7996

> <TS_ChemName>
1-Methyl-3-propylimidazolium hexafluorophosphate

> <TS_ChemName_Synonyms>


> <TS_CASRN>
216300-12-8

> <CASRN_ChemName_Relationship>
primary

> <TS_Description>
single chemical compound

> <ChemNote>


> <STRUCTURE_Shown>
tested chemical

> <STRUCTURE_Formula>
C7H13F6N2P

> <STRUCTURE_MW>
270.1557

> <STRUCTURE_ChemType>
defined organic

> <STRUCTURE_DefinedOrganicForm>
complex

> <STRUCTURE_IUPAC>
3-methyl-1-propyl-1H-imidazol-3-ium hexafluorophosphate

> <STRUCTURE_SMILES>
C[n+]1ccn(CCC)c1.F[P-](F)(F)(F)(F)F

> <STRUCTURE_SMILES_Desalt>
C[n+]1ccn(CCC)c1

> <Substance_modify_yyyymmdd>
20111204

$$$$
