2165-19-7
ChemmineR-0915142007XD

 15 16  0  0  0  0  0  0  0  0  1 V2000
    0.0000   -1.9889    0.0000 N   0  0  0  0  0  0  0  0  0  0  0  0
    1.1510   -2.6611    0.0000 C   0  0  0  0  0  0  0  0  0  0  0  0
    1.1510   -3.9870    0.0000 N   0  0  0  0  0  0  0  0  0  0  0  0
    2.3020   -1.9889    0.0000 N   0  0  0  0  0  0  0  0  0  0  0  0
    3.4530   -2.6611    0.0000 C   0  0  0  0  0  0  0  0  0  0  0  0
    4.6040   -1.9889    0.0000 C   0  0  0  0  0  0  0  0  0  0  0  0
    4.6040   -0.6630    0.0000 C   0  0  0  0  0  0  0  0  0  0  0  0
    5.7550    0.0000    0.0000 O   0  0  0  0  0  0  0  0  0  0  0  0
    6.9059   -0.6630    0.0000 C   0  0  0  0  0  0  0  0  0  0  0  0
    8.0569    0.0000    0.0000 C   0  0  0  0  0  0  0  0  0  0  0  0
    9.2079   -0.6630    0.0000 C   0  0  0  0  0  0  0  0  0  0  0  0
    9.2079   -1.9889    0.0000 C   0  0  0  0  0  0  0  0  0  0  0  0
    8.0569   -2.6611    0.0000 C   0  0  0  0  0  0  0  0  0  0  0  0
    6.9059   -1.9889    0.0000 C   0  0  0  0  0  0  0  0  0  0  0  0
    5.7550   -2.6611    0.0000 O   0  0  0  0  0  0  0  0  0  0  0  0
  1  2  1  0  0  0  0
  2  3  2  0  0  0  0
  2  4  1  0  0  0  0
  4  5  1  0  0  0  0
  5  6  1  0  0  0  0
  6  7  1  0  0  0  0
  6 15  1  0  0  0  0
  7  8  1  0  0  0  0
  8  9  1  0  0  0  0
  9 10  2  0  0  0  0
  9 14  1  0  0  0  0
 10 11  1  0  0  0  0
 11 12  2  0  0  0  0
 12 13  1  0  0  0  0
 13 14  2  0  0  0  0
 14 15  1  0  0  0  0
M  END
> <ID>
11465

> <Formula>
C10H13N3O2

> <FW>
207.2291

> <DSSTox_CID>
26166

> <DSSTox_RID>
81397

> <DSSTox_GSID>
46166

> <DSSTox_FileID_Sort>
6078

> <TS_ChemName>
Guanoxan

> <TS_ChemName_Synonyms>


> <TS_CASRN>
2165-19-7

> <CASRN_ChemName_Relationship>
primary

> <TS_Description>
single chemical compound

> <ChemNote>


> <STRUCTURE_Shown>
tested chemical

> <STRUCTURE_Formula>
C10H13N3O2

> <STRUCTURE_MW>
207.2291

> <STRUCTURE_ChemType>
defined organic

> <STRUCTURE_DefinedOrganicForm>
parent

> <STRUCTURE_IUPAC>
1-(2,3-dihydro-1,4-benzodioxin-2-ylmethyl)guanidine

> <STRUCTURE_SMILES>
N=C(N)NCC1COc2ccccc2O1

> <STRUCTURE_SMILES_Desalt>
N=C(N)NCC1COc2ccccc2O1

> <Substance_modify_yyyymmdd>
20110818

$$$$
