21679-14-1
ChemmineR-0915142007XD

 20 22  0  0  1  0  0  0  0  0  1 V2000
    4.5769   -3.5871    0.0000 N   0  0  0  0  0  0  0  0  0  0  0  0
    3.3812   -3.2149    0.0000 C   0  0  0  0  0  0  0  0  0  0  0  0
    3.3812   -1.9163    0.0000 C   0  0  0  0  0  0  0  0  0  0  0  0
    4.5769   -1.5283    0.0000 N   0  0  0  0  0  0  0  0  0  0  0  0
    5.3213   -2.5735    0.0000 C   0  0  0  0  0  0  0  0  0  0  0  0
    2.2647   -1.2749    0.0000 C   0  0  0  0  0  0  0  0  0  0  0  0
    2.2647   -3.8563    0.0000 N   0  0  0  0  0  0  0  0  0  0  0  0
    1.1719   -1.9163    0.0000 N   0  0  0  0  0  0  0  0  0  0  0  0
    1.1719   -3.2149    0.0000 C   0  0  0  0  0  0  0  0  0  0  0  0
    2.2647    0.0000    0.0000 N   0  0  0  0  0  0  0  0  0  0  0  0
    4.5769   -5.5034    0.0000 C   0  0  0  0  0  0  0  0  0  0  0  0
    2.4152   -5.5034    0.0000 C   0  0  0  0  0  0  0  0  0  0  0  0
    3.5079   -4.7195    0.0000 O   0  0  0  0  0  0  0  0  0  0  0  0
    2.8428   -6.7783    0.0000 C   0  0  0  0  0  0  0  0  0  0  0  0
    4.1652   -6.7783    0.0000 C   0  0  0  0  0  0  0  0  0  0  0  0
    2.1855   -7.9185    0.0000 O   0  0  0  0  0  0  0  0  0  0  0  0
    4.9333   -7.8394    0.0000 O   0  0  0  0  0  0  0  0  0  0  0  0
    1.1403   -5.0758    0.0000 C   0  0  0  0  0  0  0  0  0  0  0  0
    0.1663   -5.9785    0.0000 O   0  0  0  0  0  0  0  0  0  0  0  0
    0.0000   -3.8563    0.0000 F   0  0  0  0  0  0  0  0  0  0  0  0
  1  2  1  0  0  0  0
  1  5  1  0  0  0  0
 11  1  1  1  0  0  0
  2  3  2  0  0  0  0
  2  7  1  0  0  0  0
  3  6  1  0  0  0  0
  3  4  1  0  0  0  0
  4  5  2  0  0  0  0
  6 10  1  0  0  0  0
  6  8  2  0  0  0  0
  7  9  2  0  0  0  0
  8  9  1  0  0  0  0
  9 20  1  0  0  0  0
 11 13  1  0  0  0  0
 11 15  1  0  0  0  0
 12 13  1  0  0  0  0
 12 14  1  0  0  0  0
 12 18  1  1  0  0  0
 14 15  1  0  0  0  0
 14 16  1  6  0  0  0
 15 17  1  1  0  0  0
 18 19  1  0  0  0  0
M  END
> <ID>
7554

> <Formula>
C10H12FN5O4

> <FW>
285.2318

> <DSSTox_CID>
19657

> <DSSTox_RID>
76857

> <DSSTox_GSID>
39657

> <DSSTox_FileID_Sort>
1541

> <TS_ChemName>
Fludarabine

> <TS_ChemName_Synonyms>


> <TS_CASRN>
21679-14-1

> <CASRN_ChemName_Relationship>
primary

> <TS_Description>
single chemical compound

> <ChemNote>
stereochem

> <STRUCTURE_Shown>
tested chemical

> <STRUCTURE_Formula>
C10H12FN5O4

> <STRUCTURE_MW>
285.2318

> <STRUCTURE_ChemType>
defined organic

> <STRUCTURE_DefinedOrganicForm>
parent

> <STRUCTURE_IUPAC>
9-(beta-D-arabinofuranosyl)-2-fluoro-9H-purin-6-amine

> <STRUCTURE_SMILES>
Nc3nc(F)nc2c3ncn2[C@@H]1O[C@H](CO)[C@@H](O)[C@@H]1O

> <STRUCTURE_SMILES_Desalt>
Nc3nc(F)nc2c3ncn2[C@@H]1O[C@H](CO)[C@@H](O)[C@@H]1O

> <Substance_modify_yyyymmdd>
20080429

$$$$
