2169-64-4
ChemmineR-0915142007XD

 26 27  0  0  1  0  0  0  0  0  1 V2000
    6.7366   -3.7860    0.0000 N   0  0  0  0  0  0  0  0  0  0  0  0
    6.7260   -5.9752    0.0000 C   0  0  0  0  0  0  0  0  0  0  0  0
    5.6579   -3.1515    0.0000 C   0  0  0  0  0  0  0  0  0  0  0  0
    7.8471   -3.1304    0.0000 N   0  0  0  0  0  0  0  0  0  0  0  0
    6.3136   -7.2019    0.0000 C   0  0  0  0  0  0  0  0  0  0  0  0
    5.6579   -1.8719    0.0000 N   0  0  0  0  0  0  0  0  0  0  0  0
    5.7002   -5.1714    0.0000 O   0  0  0  0  0  0  0  0  0  0  0  0
    5.0022   -7.2019    0.0000 C   0  0  0  0  0  0  0  0  0  0  0  0
    4.6321   -5.9540    0.0000 C   0  0  0  0  0  0  0  0  0  0  0  0
    7.8471   -1.8719    0.0000 C   0  0  0  0  0  0  0  0  0  0  0  0
    6.7366   -1.2585    0.0000 C   0  0  0  0  0  0  0  0  0  0  0  0
    4.5369   -3.8072    0.0000 O   0  0  0  0  0  0  0  0  0  0  0  0
    6.7366    0.0000    0.0000 O   0  0  0  0  0  0  0  0  0  0  0  0
    7.0645   -8.2278    0.0000 O   0  0  0  0  0  0  0  0  0  0  0  0
    4.2196   -8.2595    0.0000 O   0  0  0  0  0  0  0  0  0  0  0  0
    3.3736   -5.4993    0.0000 C   0  0  0  0  0  0  0  0  0  0  0  0
    2.3055   -6.1550    0.0000 O   0  0  0  0  0  0  0  0  0  0  0  0
    1.1210   -5.4993    0.0000 C   0  0  0  0  0  0  0  0  0  0  0  0
    0.0000   -6.1867    0.0000 O   0  0  0  0  0  0  0  0  0  0  0  0
    1.1210   -4.1879    0.0000 C   0  0  0  0  0  0  0  0  0  0  0  0
    4.8436   -9.4122    0.0000 C   0  0  0  0  0  0  0  0  0  0  0  0
    4.1879  -10.5755    0.0000 O   0  0  0  0  0  0  0  0  0  0  0  0
    6.1338   -9.4122    0.0000 C   0  0  0  0  0  0  0  0  0  0  0  0
    8.3758   -8.2278    0.0000 C   0  0  0  0  0  0  0  0  0  0  0  0
    9.0209   -9.3805    0.0000 O   0  0  0  0  0  0  0  0  0  0  0  0
    9.0421   -7.0962    0.0000 C   0  0  0  0  0  0  0  0  0  0  0  0
  2  1  1  1  0  0  0
  1  3  1  0  0  0  0
  1  4  1  0  0  0  0
  2  5  1  0  0  0  0
  2  7  1  0  0  0  0
  3  6  1  0  0  0  0
  3 12  2  0  0  0  0
  4 10  2  0  0  0  0
  5  8  1  0  0  0  0
  5 14  1  6  0  0  0
  6 11  1  0  0  0  0
  7  9  1  0  0  0  0
  8 15  1  6  0  0  0
  8  9  1  0  0  0  0
  9 16  1  1  0  0  0
 10 11  1  0  0  0  0
 11 13  2  0  0  0  0
 14 24  1  0  0  0  0
 15 21  1  0  0  0  0
 16 17  1  0  0  0  0
 17 18  1  0  0  0  0
 18 19  2  0  0  0  0
 18 20  1  0  0  0  0
 21 22  2  0  0  0  0
 21 23  1  0  0  0  0
 24 25  2  0  0  0  0
 24 26  1  0  0  0  0
M  END
> <ID>
2385

> <Formula>
C14H17N3O9

> <FW>
371.2995

> <DSSTox_CID>
2635

> <DSSTox_RID>
76667

> <DSSTox_GSID>
22635

> <DSSTox_FileID_Sort>
1351

> <TS_ChemName>
6-Azaribine

> <TS_ChemName_Synonyms>


> <TS_CASRN>
2169-64-4

> <CASRN_ChemName_Relationship>
primary

> <TS_Description>
single chemical compound

> <ChemNote>
stereochem

> <STRUCTURE_Shown>
tested chemical

> <STRUCTURE_Formula>
C14H17N3O9

> <STRUCTURE_MW>
371.2995

> <STRUCTURE_ChemType>
defined organic

> <STRUCTURE_DefinedOrganicForm>
parent

> <STRUCTURE_IUPAC>
2-(2,3,5-tri-O-acetyl-beta-D-ribofuranosyl)-1,2,4-triazine-3,5(2H,4H)-dione

> <STRUCTURE_SMILES>
CC(=O)OC[C@H]2O[C@@H](N1N=CC(=O)NC1=O)[C@H](OC(C)=O)[C@@H]2OC(C)=O

> <STRUCTURE_SMILES_Desalt>
CC(=O)OC[C@H]2O[C@@H](N1N=CC(=O)NC1=O)[C@H](OC(C)=O)[C@@H]2OC(C)=O

> <Substance_modify_yyyymmdd>
20080429

$$$$
