2169-75-7
ChemmineR-0915142007XD

 38 41  0  0  1  0  0  0  0  0  1 V2000
    9.3598   -6.7306    0.0000 O   0  0  0  0  0  0  0  0  0  0  0  0
   10.5166   -7.3766    0.0000 C   0  0  0  0  0  0  0  0  0  0  0  0
   10.5166   -8.7137    0.0000 O   0  0  0  0  0  0  0  0  0  0  0  0
   11.6884   -6.7306    0.0000 C   0  0  0  0  0  0  0  0  0  0  0  0
   11.6884   -5.3935    0.0000 C   0  0  0  0  0  0  0  0  0  0  0  0
   10.3513   -5.3935    0.0000 O   0  0  0  0  0  0  0  0  0  0  0  0
   12.9955   -5.3935    0.0000 C   0  0  0  0  0  0  0  0  0  0  0  0
   13.6565   -6.5353    0.0000 C   0  0  0  0  0  0  0  0  0  0  0  0
   12.9955   -7.6921    0.0000 O   0  0  0  0  0  0  0  0  0  0  0  0
   15.0237   -6.5353    0.0000 O   0  0  0  0  0  0  0  0  0  0  0  0
   11.6884   -4.0414    0.0000 C   0  0  0  0  0  0  0  0  0  0  0  0
   10.5166   -3.3653    0.0000 O   0  0  0  0  0  0  0  0  0  0  0  0
   12.8302   -3.3653    0.0000 O   0  0  0  0  0  0  0  0  0  0  0  0
    1.5925   -1.8629    0.0000 C   0  0  0  0  0  0  0  0  0  0  0  0
    3.3052   -3.1400    0.0000 C   0  0  0  0  0  0  0  0  0  0  0  0
    2.4789   -2.4489    0.0000 C   0  0  0  0  0  0  0  0  0  0  0  0
    0.9014   -2.4489    0.0000 C   0  0  0  0  0  0  0  0  0  0  0  0
    0.6761   -1.1418    0.0000 N   0  0  0  0  0  0  0  0  0  0  0  0
    3.0799   -1.8780    0.0000 C   0  0  0  0  0  0  0  0  0  0  0  0
    0.0601   -3.6057    0.0000 C   0  0  0  0  0  0  0  0  0  0  0  0
    1.0667   -3.0047    0.0000 C   0  0  0  0  0  0  0  0  0  0  0  0
    0.0000    0.0000    0.0000 C   0  0  0  0  0  0  0  0  0  0  0  0
    3.3503   -4.5672    0.0000 O   0  0  0  0  0  0  0  0  0  0  0  0
    4.4019   -5.4085    0.0000 C   0  0  0  0  0  0  0  0  0  0  0  0
    5.6038   -4.8076    0.0000 C   0  0  0  0  0  0  0  0  0  0  0  0
    4.1165   -6.7006    0.0000 C   0  0  0  0  0  0  0  0  0  0  0  0
    6.8057   -5.3935    0.0000 C   0  0  0  0  0  0  0  0  0  0  0  0
    4.9278   -7.7522    0.0000 C   0  0  0  0  0  0  0  0  0  0  0  0
    6.2799   -7.7372    0.0000 C   0  0  0  0  0  0  0  0  0  0  0  0
    7.0912   -6.6705    0.0000 C   0  0  0  0  0  0  0  0  0  0  0  0
    2.7944   -6.8959    0.0000 C   0  0  0  0  0  0  0  0  0  0  0  0
    5.4837   -3.4855    0.0000 C   0  0  0  0  0  0  0  0  0  0  0  0
    7.9025   -4.6423    0.0000 C   0  0  0  0  0  0  0  0  0  0  0  0
    4.4470   -8.9842    0.0000 C   0  0  0  0  0  0  0  0  0  0  0  0
    6.5804   -2.7493    0.0000 C   0  0  0  0  0  0  0  0  0  0  0  0
    2.3136   -8.1428    0.0000 C   0  0  0  0  0  0  0  0  0  0  0  0
    7.8424   -3.3954    0.0000 C   0  0  0  0  0  0  0  0  0  0  0  0
    3.1400   -9.1795    0.0000 C   0  0  0  0  0  0  0  0  0  0  0  0
  1  2  1  0  0  0  0
  2  3  2  0  0  0  0
  2  4  1  0  0  0  0
  4  5  1  0  0  0  0
  5  6  1  0  0  0  0
  5  7  1  0  0  0  0
  5 11  1  0  0  0  0
  7  8  1  0  0  0  0
  8  9  1  0  0  0  0
  8 10  2  0  0  0  0
 11 12  1  0  0  0  0
 11 13  2  0  0  0  0
 14 18  1  1  0  0  0
 14 19  1  0  0  0  0
 14 21  1  0  0  0  0
 15 16  1  0  0  0  0
 15 19  1  0  0  0  0
 15 23  1  6  0  0  0
 16 17  1  0  0  0  0
 17 18  1  6  0  0  0
 17 20  1  0  0  0  0
 18 22  1  0  0  0  0
 20 21  1  0  0  0  0
 23 24  1  0  0  0  0
 24 25  1  0  0  0  0
 24 26  1  0  0  0  0
 25 27  1  0  0  0  0
 25 32  2  0  0  0  0
 26 28  2  0  0  0  0
 26 31  1  0  0  0  0
 27 30  1  0  0  0  0
 27 33  2  0  0  0  0
 28 29  1  0  0  0  0
 28 34  1  0  0  0  0
 29 30  1  0  0  0  0
 31 36  2  0  0  0  0
 32 35  1  0  0  0  0
 33 37  1  0  0  0  0
 34 38  2  0  0  0  0
 35 37  2  0  0  0  0
 36 38  1  0  0  0  0
M  END
> <ID>
11022

> <Formula>
C29H35NO8

> <FW>
525.5901 (192.1235+333.4666)

> <DSSTox_CID>
25557

> <DSSTox_RID>
80954

> <DSSTox_GSID>
45557

> <DSSTox_FileID_Sort>
5635

> <TS_ChemName>
Deptropine citrate

> <TS_ChemName_Synonyms>


> <TS_CASRN>
2169-75-7

> <CASRN_ChemName_Relationship>
primary

> <TS_Description>
single chemical compound

> <ChemNote>
stereochem; parent [604-51-3]

> <STRUCTURE_Shown>
tested chemical

> <STRUCTURE_Formula>
C29H35NO8

> <STRUCTURE_MW>
525.5901

> <STRUCTURE_ChemType>
defined organic

> <STRUCTURE_DefinedOrganicForm>
complex

> <STRUCTURE_IUPAC>
(3-endo)-3-(10,11-dihydro-5H-dibenzo[a,d][7]annulen-5-yloxy)-8-methyl-8-azabicyclo[3.2.1]octane 2-hydroxypropane-1,2,3-tricarboxylate (1:1)

> <STRUCTURE_SMILES>
CN5[C@H]1CC[C@@H]5C[C@@H](C1)OC3c4ccccc4CCc2ccccc23.O=C(O)C(O)(CC(=O)O)CC(=O)O

> <STRUCTURE_SMILES_Desalt>
CN5[C@H]1CC[C@@H]5C[C@@H](C1)OC3c4ccccc4CCc2ccccc23

> <Substance_modify_yyyymmdd>
20100107

$$$$
