21725-46-2
ChemmineR-0915142007XD

 16 16  0  0  0  0  0  0  0  0  1 V2000
    5.7576   -1.1826    0.0000 C    0  0  0  0  0  0  0  0  0  0  0  0
    4.6268   -0.5187    0.0000 N    0  0  0  0  0  0  0  0  0  0  0  0
    5.7576   -2.5313    0.0000 N    0  0  0  0  0  0  0  0  0  0  0  0
    3.4753   -2.5313    0.0000 N    0  0  0  0  0  0  0  0  0  0  0  0
    3.4753   -1.1826    0.0000 C    0  0  0  0  0  0  0  0  0  0  0  0
    4.6268   -3.1952    0.0000 C    0  0  0  0  0  0  0  0  0  0  0  0
   10.3740   -2.4586    0.0000 N    0  0  0  0  0  0  0  0  0  0  0  0
    6.9298   -0.5083    0.0000 N    0  0  0  0  0  0  0  0  0  0  0  0
    9.2432   -1.8362    0.0000 C    0  0  0  0  0  0  0  0  0  0  0  0
    8.0710   -1.1826    0.0000 C    0  0  0  0  0  0  0  0  0  0  0  0
    2.3030   -0.5083    0.0000 N    0  0  0  0  0  0  0  0  0  0  0  0
    4.6268   -4.5231    0.0000 Cl   0  0  0  0  0  0  0  0  0  0  0  0
    8.7245    0.0000    0.0000 C    0  0  0  0  0  0  0  0  0  0  0  0
    7.4485   -2.3134    0.0000 C    0  0  0  0  0  0  0  0  0  0  0  0
    1.1411   -1.1826    0.0000 C    0  0  0  0  0  0  0  0  0  0  0  0
    0.0000   -0.5083    0.0000 C    0  0  0  0  0  0  0  0  0  0  0  0
  1  2  1  0  0  0  0
  1  3  2  0  0  0  0
  1  8  1  0  0  0  0
  2  5  2  0  0  0  0
  3  6  1  0  0  0  0
  4  6  2  0  0  0  0
  4  5  1  0  0  0  0
  5 11  1  0  0  0  0
  6 12  1  0  0  0  0
  7  9  3  0  0  0  0
  8 10  1  0  0  0  0
  9 10  1  0  0  0  0
 10 13  1  0  0  0  0
 10 14  1  0  0  0  0
 11 15  1  0  0  0  0
 15 16  1  0  0  0  0
M  END
> <ID>
3456

> <Formula>
C9H13ClN6

> <FW>
240.6927

> <DSSTox_CID>
3990

> <DSSTox_RID>
77249

> <DSSTox_GSID>
23990

> <DSSTox_FileID_Sort>
1932

> <TS_ChemName>
Cyanazine

> <TS_ChemName_Synonyms>


> <TS_CASRN>
21725-46-2

> <CASRN_ChemName_Relationship>
primary

> <TS_Description>
single chemical compound

> <ChemNote>


> <STRUCTURE_Shown>
tested chemical

> <STRUCTURE_Formula>
C9H13ClN6

> <STRUCTURE_MW>
240.6927

> <STRUCTURE_ChemType>
defined organic

> <STRUCTURE_DefinedOrganicForm>
parent

> <STRUCTURE_IUPAC>
2-{[4-chloro-6-(ethylamino)-1,3,5-triazin-2-yl]amino}-2-methylpropanenitrile

> <STRUCTURE_SMILES>
Clc1nc(NCC)nc(NC(C)(C)C#N)n1

> <STRUCTURE_SMILES_Desalt>
Clc1nc(NCC)nc(NC(C)(C)C#N)n1

> <Substance_modify_yyyymmdd>
20080429

$$$$
