21722-83-8
ChemmineR-0915142007XD

 12 12  0  0  0  0  0  0  0  0  1 V2000
    6.8799   -0.7217    0.0000 C   0  0  0  0  0  0  0  0  0  0  0  0
    6.8799   -2.0367    0.0000 O   0  0  0  0  0  0  0  0  0  0  0  0
    5.7252   -0.0481    0.0000 O   0  0  0  0  0  0  0  0  0  0  0  0
    8.0185   -0.0481    0.0000 C   0  0  0  0  0  0  0  0  0  0  0  0
    4.5705   -0.7217    0.0000 C   0  0  0  0  0  0  0  0  0  0  0  0
    3.4159   -0.0321    0.0000 C   0  0  0  0  0  0  0  0  0  0  0  0
    2.2773   -0.6896    0.0000 C   0  0  0  0  0  0  0  0  0  0  0  0
    1.1226    0.0000    0.0000 C   0  0  0  0  0  0  0  0  0  0  0  0
    0.0000   -0.7217    0.0000 C   0  0  0  0  0  0  0  0  0  0  0  0
    0.0000   -2.0367    0.0000 C   0  0  0  0  0  0  0  0  0  0  0  0
    1.1386   -2.7263    0.0000 C   0  0  0  0  0  0  0  0  0  0  0  0
    2.2773   -2.0046    0.0000 C   0  0  0  0  0  0  0  0  0  0  0  0
  1  2  2  0  0  0  0
  1  3  1  0  0  0  0
  1  4  1  0  0  0  0
  3  5  1  0  0  0  0
  5  6  1  0  0  0  0
  6  7  1  0  0  0  0
  7  8  1  0  0  0  0
  7 12  1  0  0  0  0
  8  9  1  0  0  0  0
  9 10  1  0  0  0  0
 10 11  1  0  0  0  0
 11 12  1  0  0  0  0
M  END
> <ID>
12335

> <Formula>
C10H18O2

> <FW>
170.2487

> <DSSTox_CID>
27188

> <DSSTox_RID>
82184

> <DSSTox_GSID>
47188

> <DSSTox_FileID_Sort>
6865

> <TS_ChemName>
2-Cyclohexylethyl acetate

> <TS_ChemName_Synonyms>
2-Cyclohexylethyl acetate (FEMA 2348)

> <TS_CASRN>
21722-83-8

> <CASRN_ChemName_Relationship>
primary

> <TS_Description>
single chemical compound

> <ChemNote>


> <STRUCTURE_Shown>
tested chemical

> <STRUCTURE_Formula>
C10H18O2

> <STRUCTURE_MW>
170.2487

> <STRUCTURE_ChemType>
defined organic

> <STRUCTURE_DefinedOrganicForm>
parent

> <STRUCTURE_IUPAC>
2-cyclohexylethyl acetate

> <STRUCTURE_SMILES>
CC(=O)OCCC1CCCCC1

> <STRUCTURE_SMILES_Desalt>
CC(=O)OCCC1CCCCC1

> <Substance_modify_yyyymmdd>
20100503

$$$$
