21736-83-4
ChemmineR-0915142007XD

 28 28  0  0  1  0  0  0  0  0  1 V2000
    5.7734   -3.3241    0.0000 C    0  0  0  0  0  0  0  0  0  0  0  0
    3.4714   -3.3241    0.0000 C    0  0  0  0  0  0  0  0  0  0  0  0
    3.4714   -1.9981    0.0000 C    0  0  0  0  0  0  0  0  0  0  0  0
    5.7734   -1.9981    0.0000 C    0  0  0  0  0  0  0  0  0  0  0  0
    4.6040   -3.9870    0.0000 O    0  0  0  0  0  0  0  0  0  0  0  0
    4.6040   -1.3259    0.0000 O    0  0  0  0  0  0  0  0  0  0  0  0
    2.3020   -3.9870    0.0000 C    0  0  0  0  0  0  0  0  0  0  0  0
    2.3020   -1.3259    0.0000 C    0  0  0  0  0  0  0  0  0  0  0  0
    1.1510   -1.9981    0.0000 C    0  0  0  0  0  0  0  0  0  0  0  0
    1.1510   -3.3241    0.0000 C    0  0  0  0  0  0  0  0  0  0  0  0
    6.9060   -3.9870    0.0000 C    0  0  0  0  0  0  0  0  0  0  0  0
    6.9060   -1.3259    0.0000 O    0  0  0  0  0  0  0  0  0  0  0  0
    8.0754   -3.3241    0.0000 C    0  0  0  0  0  0  0  0  0  0  0  0
    8.0754   -1.9981    0.0000 C    0  0  0  0  0  0  0  0  0  0  0  0
    5.7734   -4.6592    0.0000 O    0  0  0  0  0  0  0  0  0  0  0  0
    6.9060   -5.3130    0.0000 O    0  0  0  0  0  0  0  0  0  0  0  0
    2.3020   -5.3130    0.0000 N    0  0  0  0  0  0  0  0  0  0  0  0
    0.0000   -1.3259    0.0000 N    0  0  0  0  0  0  0  0  0  0  0  0
    2.3020    0.0000    0.0000 O    0  0  0  0  0  0  0  0  0  0  0  0
    0.0000   -3.9870    0.0000 O    0  0  0  0  0  0  0  0  0  0  0  0
    9.2079   -1.3259    0.0000 C    0  0  0  0  0  0  0  0  0  0  0  0
    0.0000    0.0000    0.0000 C    0  0  0  0  0  0  0  0  0  0  0  0
    1.1510   -5.9852    0.0000 C    0  0  0  0  0  0  0  0  0  0  0  0
    3.4714   -0.6722    0.0000 H    0  0  0  0  0  0  0  0  0  0  0  0
    3.4714   -4.6592    0.0000 H    0  0  0  0  0  0  0  0  0  0  0  0
    5.7734   -0.6722    0.0000 H    0  0  0  0  0  0  0  0  0  0  0  0
    2.5138   -6.6389    0.0000 Cl   0  0  0  0  0  0  0  0  0  0  0  0
    5.3682   -6.6850    0.0000 Cl   0  0  0  0  0  0  0  0  0  0  0  0
  1  4  1  0  0  0  0
  1  5  1  0  0  0  0
  1 11  1  0  0  0  0
  1 15  1  1  0  0  0
  2  5  1  0  0  0  0
  2  3  1  0  0  0  0
  2  7  1  0  0  0  0
  2 25  1  1  0  0  0
  3  8  1  0  0  0  0
  3 24  1  6  0  0  0
  3  6  1  0  0  0  0
  4  6  1  0  0  0  0
  4 12  1  0  0  0  0
  4 26  1  1  0  0  0
  7 10  1  0  0  0  0
  7 17  1  1  0  0  0
  8 19  1  6  0  0  0
  8  9  1  0  0  0  0
  9 10  1  0  0  0  0
  9 18  1  1  0  0  0
 10 20  1  1  0  0  0
 11 13  1  0  0  0  0
 11 16  2  0  0  0  0
 12 14  1  0  0  0  0
 13 14  1  0  0  0  0
 14 21  1  6  0  0  0
 17 23  1  0  0  0  0
 18 22  1  0  0  0  0
M  END
> <ID>
10941

> <Formula>
C14H26Cl2N2O7

> <FW>
405.2714 (332.3496+36.4609+36.4609)

> <DSSTox_CID>
25429

> <DSSTox_RID>
80873

> <DSSTox_GSID>
45429

> <DSSTox_FileID_Sort>
5554

> <TS_ChemName>
Spectinomycin dihydrochloride

> <TS_ChemName_Synonyms>


> <TS_CASRN>
21736-83-4

> <CASRN_ChemName_Relationship>
primary

> <TS_Description>
single chemical compound

> <ChemNote>
stereochem; parent [1695-77-8]

> <STRUCTURE_Shown>
tested chemical

> <STRUCTURE_Formula>
C14H26Cl2N2O7

> <STRUCTURE_MW>
405.2714

> <STRUCTURE_ChemType>
defined organic

> <STRUCTURE_DefinedOrganicForm>
complex

> <STRUCTURE_IUPAC>
(2R,4aR,5aR,6S,7S,8R,9S,9aR,10aS)-4a,7,9-trihydroxy-2-methyl-6,8-bis(methylamino)decahydro-4H-pyrano[2,3-b][1,4]benzodioxin-4-one dihydrochloride

> <STRUCTURE_SMILES>
Cl.Cl.C[C@H]1O[C@H]2O[C@@H]3[C@@H](O)[C@H](NC)[C@H](O)[C@H](NC)[C@H]3O[C@@]2(O)C(=O)C1

> <STRUCTURE_SMILES_Desalt>
C[C@H]1O[C@H]2O[C@@H]3[C@@H](O)[C@H](NC)[C@H](O)[C@H](NC)[C@H]3O[C@@]2(O)C(=O)C1

> <Substance_modify_yyyymmdd>
20100107

$$$$
