21738-42-1
ChemmineR-0915142007XD

 20 21  0  0  0  0  0  0  0  0  2 V2000
    2.3030   -3.3278    0.0000 C   0  0  0  0  0  0  0  0  0  0  0  0
    1.1515   -3.9957    0.0000 N   0  3  0  0  0  0  0  0  0  0  0  0
    0.0000   -3.3278    0.0000 O   0  5  0  0  0  0  0  0  0  0  0  0
    1.1515   -5.3199    0.0000 O   0  0  0  0  0  0  0  0  0  0  0  0
    2.3030   -1.9921    0.0000 C   0  0  0  0  0  0  0  0  0  0  0  0
    1.1515   -1.3357    0.0000 C   0  0  0  0  0  0  0  0  0  0  0  0
    1.1515    0.0000    0.0000 O   0  0  0  0  0  0  0  0  0  0  0  0
    3.4545   -1.3357    0.0000 C   0  0  0  0  0  0  0  0  0  0  0  0
    4.6060   -1.9921    0.0000 C   0  0  0  0  0  0  0  0  0  0  0  0
    4.6060   -3.3278    0.0000 C   0  0  0  0  0  0  0  0  0  0  0  0
    3.4545   -3.9957    0.0000 C   0  0  0  0  0  0  0  0  0  0  0  0
    5.7575   -3.9957    0.0000 N   0  0  0  0  0  0  0  0  0  0  0  0
    6.9090   -3.3278    0.0000 C   0  0  0  0  0  0  0  0  0  0  0  0
    8.0604   -3.9957    0.0000 C   0  0  0  0  0  0  0  0  0  0  0  0
    9.2119   -3.3278    0.0000 N   0  0  0  0  0  0  0  0  0  0  0  0
   10.3634   -3.9957    0.0000 C   0  0  0  0  0  0  0  0  0  0  0  0
   11.5149   -3.3278    0.0000 C   0  0  0  0  0  0  0  0  0  0  0  0
   10.3634   -5.3199    0.0000 C   0  0  0  0  0  0  0  0  0  0  0  0
    6.9090   -1.9921    0.0000 C   0  0  0  0  0  0  0  0  0  0  0  0
    5.7575   -1.3357    0.0000 C   0  0  0  0  0  0  0  0  0  0  0  0
  1  2  1  0  0  0  0
  1  5  2  0  0  0  0
  1 11  1  0  0  0  0
  2  3  1  0  0  0  0
  2  4  2  0  0  0  0
  5  6  1  0  0  0  0
  5  8  1  0  0  0  0
  6  7  1  0  0  0  0
  8  9  2  0  0  0  0
  9 10  1  0  0  0  0
  9 20  1  0  0  0  0
 10 11  2  0  0  0  0
 10 12  1  0  0  0  0
 12 13  1  0  0  0  0
 13 14  1  0  0  0  0
 13 19  1  0  0  0  0
 14 15  1  0  0  0  0
 15 16  1  0  0  0  0
 16 17  1  0  0  0  0
 16 18  1  0  0  0  0
 19 20  1  0  0  0  0
M  END
> <ID>
3047

> <Formula>
C14H21N3O3

> <FW>
279.3348

> <DSSTox_CID>
3398

> <DSSTox_RID>
77013

> <DSSTox_GSID>
23398

> <DSSTox_FileID_Sort>
1697

> <TS_ChemName>
Oxamniquine

> <TS_ChemName_Synonyms>


> <TS_CASRN>
21738-42-1

> <CASRN_ChemName_Relationship>
primary

> <TS_Description>
single chemical compound

> <ChemNote>


> <STRUCTURE_Shown>
tested chemical

> <STRUCTURE_Formula>
C14H21N3O3

> <STRUCTURE_MW>
279.3348

> <STRUCTURE_ChemType>
defined organic

> <STRUCTURE_DefinedOrganicForm>
parent

> <STRUCTURE_IUPAC>
{7-nitro-2-[(propan-2-ylamino)methyl]-1,2,3,4-tetrahydroquinolin-6-yl}methanol

> <STRUCTURE_SMILES>
[O-][N+](=O)c1cc2NC(CCc2cc1CO)CNC(C)C

> <STRUCTURE_SMILES_Desalt>
[O-][N+](=O)c1cc2NC(CCc2cc1CO)CNC(C)C

> <Substance_modify_yyyymmdd>
20080429

$$$$
