2174-64-3
ChemmineR-0915142007XD

 10 10  0  0  0  0  0  0  0  0  1 V2000
    0.0000   -3.3246    0.0000 C   0  0  0  0  0  0  0  0  0  0  0  0
    1.1582   -3.9988    0.0000 O   0  0  0  0  0  0  0  0  0  0  0  0
    2.3105   -3.3246    0.0000 C   0  0  0  0  0  0  0  0  0  0  0  0
    2.3105   -2.0109    0.0000 C   0  0  0  0  0  0  0  0  0  0  0  0
    3.4514   -1.3368    0.0000 C   0  0  0  0  0  0  0  0  0  0  0  0
    4.6038   -2.0109    0.0000 C   0  0  0  0  0  0  0  0  0  0  0  0
    4.6038   -3.3419    0.0000 C   0  0  0  0  0  0  0  0  0  0  0  0
    3.4514   -3.9988    0.0000 C   0  0  0  0  0  0  0  0  0  0  0  0
    5.7620   -3.9988    0.0000 O   0  0  0  0  0  0  0  0  0  0  0  0
    3.4514    0.0000    0.0000 O   0  0  0  0  0  0  0  0  0  0  0  0
  1  2  1  0  0  0  0
  2  3  1  0  0  0  0
  3  4  2  0  0  0  0
  3  8  1  0  0  0  0
  4  5  1  0  0  0  0
  5  6  2  0  0  0  0
  5 10  1  0  0  0  0
  6  7  1  0  0  0  0
  7  8  2  0  0  0  0
  7  9  1  0  0  0  0
M  END
> <ID>
11756

> <Formula>
C7H8O3

> <FW>
140.1366

> <DSSTox_CID>
26525

> <DSSTox_RID>
81690

> <DSSTox_GSID>
46525

> <DSSTox_FileID_Sort>
6371

> <TS_ChemName>
Flamenol

> <TS_ChemName_Synonyms>


> <TS_CASRN>
2174-64-3

> <CASRN_ChemName_Relationship>
primary

> <TS_Description>
single chemical compound

> <ChemNote>


> <STRUCTURE_Shown>
tested chemical

> <STRUCTURE_Formula>
C7H8O3

> <STRUCTURE_MW>
140.1366

> <STRUCTURE_ChemType>
defined organic

> <STRUCTURE_DefinedOrganicForm>
parent

> <STRUCTURE_IUPAC>
5-methoxybenzene-1,3-diol

> <STRUCTURE_SMILES>
Oc1cc(O)cc(OC)c1

> <STRUCTURE_SMILES_Desalt>
Oc1cc(O)cc(OC)c1

> <Substance_modify_yyyymmdd>
20110811

$$$$
