2174-16-5
ChemmineR-0915142007XD

 20 19  0  0  0  0  0  0  0  0  1 V2000
    3.4442   -2.3056    0.0000 C   0  0  0  0  0  0  0  0  0  0  0  0
    3.4442   -0.9820    0.0000 O   0  0  0  0  0  0  0  0  0  0  0  0
    2.2914   -2.9603    0.0000 C   0  0  0  0  0  0  0  0  0  0  0  0
    4.5970   -2.9603    0.0000 O   0  0  0  0  0  0  0  0  0  0  0  0
    1.1528   -2.3056    0.0000 C   0  0  0  0  0  0  0  0  0  0  0  0
    2.2914   -4.2839    0.0000 C   0  0  0  0  0  0  0  0  0  0  0  0
    0.0000   -2.9603    0.0000 C   0  0  0  0  0  0  0  0  0  0  0  0
    1.1528   -4.9385    0.0000 C   0  0  0  0  0  0  0  0  0  0  0  0
    0.0000   -4.2839    0.0000 C   0  0  0  0  0  0  0  0  0  0  0  0
    1.1528   -0.9820    0.0000 O   0  0  0  0  0  0  0  0  0  0  0  0
    9.5925   -1.3663    0.0000 C   0  0  0  0  0  0  0  0  0  0  0  0
   10.7737   -2.0352    0.0000 C   0  0  0  0  0  0  0  0  0  0  0  0
    9.5925    0.0000    0.0000 O   0  0  0  0  0  0  0  0  0  0  0  0
   13.0509   -3.3588    0.0000 C   0  0  0  0  0  0  0  0  0  0  0  0
   11.8981   -4.0135    0.0000 C   0  0  0  0  0  0  0  0  0  0  0  0
   14.2321   -4.0135    0.0000 O   0  0  0  0  0  0  0  0  0  0  0  0
    9.6209   -5.3655    0.0000 C   0  0  0  0  0  0  0  0  0  0  0  0
    9.5925   -4.0419    0.0000 C   0  0  0  0  0  0  0  0  0  0  0  0
    8.4681   -6.0344    0.0000 O   0  0  0  0  0  0  0  0  0  0  0  0
   10.7737   -3.3588    0.0000 N   0  0  0  0  0  0  0  0  0  0  0  0
  1  2  2  0  0  0  0
  1  3  1  0  0  0  0
  1  4  1  0  0  0  0
  3  5  2  0  0  0  0
  3  6  1  0  0  0  0
  5  7  1  0  0  0  0
  5 10  1  0  0  0  0
  6  8  2  0  0  0  0
  7  9  2  0  0  0  0
  8  9  1  0  0  0  0
 11 12  1  0  0  0  0
 11 13  1  0  0  0  0
 12 20  1  0  0  0  0
 14 15  1  0  0  0  0
 14 16  1  0  0  0  0
 15 20  1  0  0  0  0
 17 18  1  0  0  0  0
 17 19  1  0  0  0  0
 18 20  1  0  0  0  0
M  END
> <ID>
13042

> <Formula>
C13H21NO6

> <FW>
287.3089 (138.1207+149.1882)

> <DSSTox_CID>
27945

> <DSSTox_RID>
82697

> <DSSTox_GSID>
47969

> <DSSTox_FileID_Sort>
7374

> <TS_ChemName>
Trolamine salicylate

> <TS_ChemName_Synonyms>
Trolamine salicylate (Benzoic acid, 2-hydroxy-, compd. with 2,2',2''-nitrilotris[ethanol] (1:1))

> <TS_CASRN>
2174-16-5

> <CASRN_ChemName_Relationship>
primary

> <TS_Description>
single chemical compound

> <ChemNote>
parent [69-72-7]

> <STRUCTURE_Shown>
tested chemical

> <STRUCTURE_Formula>
C13H21NO6

> <STRUCTURE_MW>
287.3089

> <STRUCTURE_ChemType>
defined organic

> <STRUCTURE_DefinedOrganicForm>
complex

> <STRUCTURE_IUPAC>
2-hydroxybenzoic acid - 2,2',2''-nitrilotriethanol (1:1)

> <STRUCTURE_SMILES>
OC(=O)c1ccccc1O.OCCN(CCO)CCO

> <STRUCTURE_SMILES_Desalt>
OCCN(CCO)CCO

> <Substance_modify_yyyymmdd>
20110418

$$$$
