21799-87-1
ChemmineR-0915142007XD

 13 12  0  0  0  0  0  0  0  0  2 V2000
    2.6121   -2.6600    0.0000 C   0  0  0  0  0  0  0  0  0  0  0  0
    3.7666   -3.3197    0.0000 C   0  0  0  0  0  0  0  0  0  0  0  0
    3.7666   -4.6497    0.0000 C   0  0  0  0  0  0  0  0  0  0  0  0
    2.6121   -5.3200    0.0000 C   0  0  0  0  0  0  0  0  0  0  0  0
    1.4577   -4.6497    0.0000 C   0  0  0  0  0  0  0  0  0  0  0  0
    1.4577   -3.3197    0.0000 C   0  0  0  0  0  0  0  0  0  0  0  0
    2.6121   -1.3300    0.0000 S   0  0  0  0  0  0  0  0  0  0  0  0
    3.9421   -1.3300    0.0000 O   0  0  0  0  0  0  0  0  0  0  0  0
    1.2821   -1.3300    0.0000 O   0  5  0  0  0  0  0  0  0  0  0  0
    2.6121    0.0000    0.0000 O   0  0  0  0  0  0  0  0  0  0  0  0
    0.3032   -2.6600    0.0000 O   0  0  0  0  0  0  0  0  0  0  0  0
    4.9051   -5.3200    0.0000 O   0  0  0  0  0  0  0  0  0  0  0  0
    0.0000   -0.2873    0.0000 K   0  3  0  0  0  0  0  0  0  0  0  0
  1  2  2  0  0  0  0
  1  6  1  0  0  0  0
  1  7  1  0  0  0  0
  2  3  1  0  0  0  0
  3  4  2  0  0  0  0
  3 12  1  0  0  0  0
  4  5  1  0  0  0  0
  5  6  2  0  0  0  0
  6 11  1  0  0  0  0
  7  8  2  0  0  0  0
  7  9  1  0  0  0  0
  7 10  2  0  0  0  0
M  END
> <ID>
10067

> <Formula>
C6H5KO5S

> <FW>
228.2642 (189.1664+39.0978)

> <DSSTox_CID>
24410

> <DSSTox_RID>
80209

> <DSSTox_GSID>
44410

> <DSSTox_FileID_Sort>
4891

> <TS_ChemName>
Potassium 2,5-dihydroxybenzenesulfonate

> <TS_ChemName_Synonyms>
Potassium 2,5-dihydroxybenzenesulfonate (Benzenesulfonic acid, 2,5-dihydroxy-, monopotassium salt)

> <TS_CASRN>
21799-87-1

> <CASRN_ChemName_Relationship>
primary

> <TS_Description>
single chemical compound

> <ChemNote>
parent [88-46-0]

> <STRUCTURE_Shown>
tested chemical

> <STRUCTURE_Formula>
C6H5KO5S

> <STRUCTURE_MW>
228.2642

> <STRUCTURE_ChemType>
defined organic

> <STRUCTURE_DefinedOrganicForm>
salt

> <STRUCTURE_IUPAC>
potassium 2,5-dihydroxybenzenesulfonate

> <STRUCTURE_SMILES>
[K+].Oc1ccc(O)cc1S(=O)([O-])=O

> <STRUCTURE_SMILES_Desalt>
Oc1ccc(O)cc1S(O)(=O)=O

> <Substance_modify_yyyymmdd>
20091116

$$$$
