2179-57-9
ChemmineR-0915142007XD

  8  7  0  0  0  0  0  0  0  0  1 V2000
    3.4534    0.0000    0.0000 S   0  0  0  0  0  0  0  0  0  0  0  0
    4.5965   -0.6681    0.0000 S   0  0  0  0  0  0  0  0  0  0  0  0
    0.0000   -0.6681    0.0000 C   0  0  0  0  0  0  0  0  0  0  0  0
    1.1511    0.0000    0.0000 C   0  0  0  0  0  0  0  0  0  0  0  0
    2.3023   -0.6681    0.0000 C   0  0  0  0  0  0  0  0  0  0  0  0
    8.0499    0.0000    0.0000 C   0  0  0  0  0  0  0  0  0  0  0  0
    6.8988   -0.6681    0.0000 C   0  0  0  0  0  0  0  0  0  0  0  0
    5.7477    0.0000    0.0000 C   0  0  0  0  0  0  0  0  0  0  0  0
  1  2  1  0  0  0  0
  1  5  1  0  0  0  0
  2  8  1  0  0  0  0
  3  4  2  0  0  0  0
  4  5  1  0  0  0  0
  6  7  2  0  0  0  0
  7  8  1  0  0  0  0
M  END
> <ID>
7003

> <Formula>
C6H10S2

> <FW>
146.2736

> <DSSTox_CID>
15206

> <DSSTox_RID>
79248

> <DSSTox_GSID>
35206

> <DSSTox_FileID_Sort>
3930

> <TS_ChemName>
Diallyl disulfide

> <TS_ChemName_Synonyms>
Diallyl disulfide (Disulfide, di-2-propenyl)

> <TS_CASRN>
2179-57-9

> <CASRN_ChemName_Relationship>
primary

> <TS_Description>
single chemical compound

> <ChemNote>


> <STRUCTURE_Shown>
tested chemical

> <STRUCTURE_Formula>
C6H10S2

> <STRUCTURE_MW>
146.2736

> <STRUCTURE_ChemType>
defined organic

> <STRUCTURE_DefinedOrganicForm>
parent

> <STRUCTURE_IUPAC>
diprop-2-en-1-yl disulfide

> <STRUCTURE_SMILES>
C=CCSSCC=C

> <STRUCTURE_SMILES_Desalt>
C=CCSSCC=C

> <Substance_modify_yyyymmdd>
20080429

$$$$
