2179-37-5
ChemmineR-0915142007XD

 21 22  0  0  0  0  0  0  0  0  1 V2000
    2.1636   -2.9874    0.0000 C   0  0  0  0  0  0  0  0  0  0  0  0
    1.1225   -2.1546    0.0000 C   0  0  0  0  0  0  0  0  0  0  0  0
    1.1225   -0.8238    0.0000 C   0  0  0  0  0  0  0  0  0  0  0  0
    2.1727    0.0000    0.0000 C   0  0  0  0  0  0  0  0  0  0  0  0
    3.4672   -0.2987    0.0000 C   0  0  0  0  0  0  0  0  0  0  0  0
    4.0376   -1.5028    0.0000 C   0  0  0  0  0  0  0  0  0  0  0  0
    3.4582   -2.6977    0.0000 C   0  0  0  0  0  0  0  0  0  0  0  0
    3.4582   -4.0285    0.0000 C   0  0  0  0  0  0  0  0  0  0  0  0
    2.3085   -4.6984    0.0000 C   0  0  0  0  0  0  0  0  0  0  0  0
    1.1497   -4.0285    0.0000 C   0  0  0  0  0  0  0  0  0  0  0  0
    0.0000   -4.6894    0.0000 C   0  0  0  0  0  0  0  0  0  0  0  0
    0.0000   -6.0201    0.0000 C   0  0  0  0  0  0  0  0  0  0  0  0
    1.1497   -6.6810    0.0000 C   0  0  0  0  0  0  0  0  0  0  0  0
    2.2994   -6.0201    0.0000 C   0  0  0  0  0  0  0  0  0  0  0  0
    4.7527   -2.9965    0.0000 O   0  0  0  0  0  0  0  0  0  0  0  0
    5.1420   -4.2729    0.0000 C   0  0  0  0  0  0  0  0  0  0  0  0
    6.4456   -4.5717    0.0000 C   0  0  0  0  0  0  0  0  0  0  0  0
    6.8349   -5.8391    0.0000 C   0  0  0  0  0  0  0  0  0  0  0  0
    8.1113   -6.1288    0.0000 N   0  0  0  0  0  0  0  0  0  0  0  0
    9.0528   -5.1873    0.0000 C   0  0  0  0  0  0  0  0  0  0  0  0
    8.5187   -7.4143    0.0000 C   0  0  0  0  0  0  0  0  0  0  0  0
  1  2  1  0  0  0  0
  1  7  1  0  0  0  0
  2  3  1  0  0  0  0
  3  4  1  0  0  0  0
  4  5  1  0  0  0  0
  5  6  1  0  0  0  0
  6  7  1  0  0  0  0
  7  8  1  0  0  0  0
  7 15  1  0  0  0  0
  8  9  1  0  0  0  0
  9 10  2  0  0  0  0
  9 14  1  0  0  0  0
 10 11  1  0  0  0  0
 11 12  2  0  0  0  0
 12 13  1  0  0  0  0
 13 14  2  0  0  0  0
 15 16  1  0  0  0  0
 16 17  1  0  0  0  0
 17 18  1  0  0  0  0
 18 19  1  0  0  0  0
 19 20  1  0  0  0  0
 19 21  1  0  0  0  0
M  END
> <ID>
2395

> <Formula>
C19H31NO

> <FW>
289.4555

> <DSSTox_CID>
2646

> <DSSTox_RID>
97536

> <DSSTox_GSID>
22646

> <DSSTox_FileID_Sort>
8310

> <TS_ChemName>
Bencyclane

> <TS_ChemName_Synonyms>


> <TS_CASRN>
2179-37-5

> <CASRN_ChemName_Relationship>
primary

> <TS_Description>
single chemical compound

> <ChemNote>


> <STRUCTURE_Shown>
tested chemical

> <STRUCTURE_Formula>
C19H31NO

> <STRUCTURE_MW>
289.4555

> <STRUCTURE_ChemType>
defined organic

> <STRUCTURE_DefinedOrganicForm>
parent

> <STRUCTURE_IUPAC>
3-[(1-benzylcycloheptyl)oxy]-N,N-dimethylpropan-1-amine

> <STRUCTURE_SMILES>
CN(C)CCCOC1(CCCCCC1)Cc2ccccc2

> <STRUCTURE_SMILES_Desalt>
CN(C)CCCOC1(CCCCCC1)Cc2ccccc2

> <Substance_modify_yyyymmdd>
20080429

$$$$
