218-01-9
ChemmineR-0915142007XD

 18 21  0  0  0  0  0  0  0  0  1 V2000
    3.9927   -2.3075    0.0000 C   0  0  0  0  0  0  0  0  0  0  0  0
    4.6495   -1.1580    0.0000 C   0  0  0  0  0  0  0  0  0  0  0  0
    5.9804   -1.1580    0.0000 C   0  0  0  0  0  0  0  0  0  0  0  0
    6.6458    0.0000    0.0000 C   0  0  0  0  0  0  0  0  0  0  0  0
    7.9767    0.0000    0.0000 C   0  0  0  0  0  0  0  0  0  0  0  0
    8.6422   -1.1580    0.0000 C   0  0  0  0  0  0  0  0  0  0  0  0
    7.9767   -2.3075    0.0000 C   0  0  0  0  0  0  0  0  0  0  0  0
    6.6458   -2.3075    0.0000 C   0  0  0  0  0  0  0  0  0  0  0  0
    5.9804   -3.4569    0.0000 C   0  0  0  0  0  0  0  0  0  0  0  0
    4.6495   -3.4569    0.0000 C   0  0  0  0  0  0  0  0  0  0  0  0
    3.9927    0.0000    0.0000 C   0  0  0  0  0  0  0  0  0  0  0  0
    2.6618    0.0000    0.0000 C   0  0  0  0  0  0  0  0  0  0  0  0
    1.9963   -1.1580    0.0000 C   0  0  0  0  0  0  0  0  0  0  0  0
    2.6618   -2.3075    0.0000 C   0  0  0  0  0  0  0  0  0  0  0  0
    1.9963   -3.4569    0.0000 C   0  0  0  0  0  0  0  0  0  0  0  0
    0.6654   -3.4569    0.0000 C   0  0  0  0  0  0  0  0  0  0  0  0
    0.0000   -2.3075    0.0000 C   0  0  0  0  0  0  0  0  0  0  0  0
    0.6654   -1.1580    0.0000 C   0  0  0  0  0  0  0  0  0  0  0  0
  1  2  2  0  0  0  0
  1 10  1  0  0  0  0
  1 14  1  0  0  0  0
  2  3  1  0  0  0  0
  2 11  1  0  0  0  0
  3  4  1  0  0  0  0
  3  8  2  0  0  0  0
  4  5  2  0  0  0  0
  5  6  1  0  0  0  0
  6  7  2  0  0  0  0
  7  8  1  0  0  0  0
  8  9  1  0  0  0  0
  9 10  2  0  0  0  0
 11 12  2  0  0  0  0
 12 13  1  0  0  0  0
 13 14  2  0  0  0  0
 13 18  1  0  0  0  0
 14 15  1  0  0  0  0
 15 16  2  0  0  0  0
 16 17  1  0  0  0  0
 17 18  2  0  0  0  0
M  END
> <ID>
2224

> <Formula>
C18H12

> <FW>
228.2879

> <DSSTox_CID>
2432

> <DSSTox_RID>
76588

> <DSSTox_GSID>
22432

> <DSSTox_FileID_Sort>
1272

> <TS_ChemName>
Chrysene

> <TS_ChemName_Synonyms>


> <TS_CASRN>
218-01-9

> <CASRN_ChemName_Relationship>
primary

> <TS_Description>
single chemical compound

> <ChemNote>


> <STRUCTURE_Shown>
tested chemical

> <STRUCTURE_Formula>
C18H12

> <STRUCTURE_MW>
228.2879

> <STRUCTURE_ChemType>
defined organic

> <STRUCTURE_DefinedOrganicForm>
parent

> <STRUCTURE_IUPAC>
chrysene

> <STRUCTURE_SMILES>
c1cc4ccccc4c2ccc3ccccc3c12

> <STRUCTURE_SMILES_Desalt>
c1cc4ccccc4c2ccc3ccccc3c12

> <Substance_modify_yyyymmdd>
20080429

$$$$
