2181-04-6
ChemmineR-0915142007XD

 30 32  0  0  1  0  0  0  0  0  2 V2000
    6.8918   -6.0982    0.0000 C   0  0  0  0  0  0  0  0  0  0  0  0
    5.7327   -6.7560    0.0000 C   0  0  0  0  0  0  0  0  0  0  0  0
    6.8918   -4.7720    0.0000 C   0  0  0  0  0  0  0  0  0  0  0  0
    8.1344   -6.4950    0.0000 C   0  0  0  0  0  0  0  0  0  0  0  0
    4.5841   -6.0982    0.0000 C   0  0  0  0  0  0  0  0  0  0  0  0
    5.7327   -8.1030    0.0000 C   0  0  0  0  0  0  0  0  0  0  0  0
    8.1344   -4.3543    0.0000 C   0  0  0  0  0  0  0  0  0  0  0  0
    5.7327   -4.1142    0.0000 C   0  0  0  0  0  0  0  0  0  0  0  0
    8.9175   -5.4299    0.0000 C   0  0  0  0  0  0  0  0  0  0  0  0
    3.4459   -6.7560    0.0000 C   0  0  0  0  0  0  0  0  0  0  0  0
    4.5841   -4.7720    0.0000 C   0  0  0  0  0  0  0  0  0  0  0  0
    4.5841   -8.7400    0.0000 C   0  0  0  0  0  0  0  0  0  0  0  0
    7.8837   -3.0595    0.0000 C   0  0  0  0  0  0  0  0  0  0  0  0
    3.4459   -8.1030    0.0000 C   0  0  0  0  0  0  0  0  0  0  0  0
    2.3077   -6.0982    0.0000 C   0  0  0  0  0  0  0  0  0  0  0  0
    3.4459   -5.2315    0.0000 C   0  0  0  0  0  0  0  0  0  0  0  0
    2.3077   -8.7400    0.0000 C   0  0  0  0  0  0  0  0  0  0  0  0
    1.1486   -6.7560    0.0000 C   0  0  0  0  0  0  0  0  0  0  0  0
    1.1486   -8.1030    0.0000 C   0  0  0  0  0  0  0  0  0  0  0  0
    0.0000   -8.7400    0.0000 O   0  0  0  0  0  0  0  0  0  0  0  0
    9.1264   -3.4668    0.0000 O   0  0  0  0  0  0  0  0  0  0  0  0
    6.8918   -3.4250    0.0000 C   0  0  0  0  0  0  0  0  0  0  0  0
    5.7327   -5.4299    0.0000 H   0  0  0  0  0  0  0  0  0  0  0  0
    6.8918   -7.4139    0.0000 H   0  0  0  0  0  0  0  0  0  0  0  0
    4.5841   -7.4139    0.0000 H   0  0  0  0  0  0  0  0  0  0  0  0
    8.8549   -2.1719    0.0000 C   0  0  0  0  0  0  0  0  0  0  0  0
    8.5834   -0.8876    0.0000 C   0  0  0  0  0  0  0  0  0  0  0  0
    7.3199   -0.4803    0.0000 O   0  0  0  0  0  0  0  0  0  0  0  0
    9.5754    0.0000    0.0000 O   0  5  0  0  0  0  0  0  0  0  0  0
   10.4421   -1.2322    0.0000 K   0  3  0  0  0  0  0  0  0  0  0  0
  1  4  1  0  0  0  0
  1  2  1  0  0  0  0
  1  3  1  0  0  0  0
  1 24  1  6  0  0  0
  2  5  1  0  0  0  0
  2  6  1  0  0  0  0
  2 23  1  1  0  0  0
  3  7  1  0  0  0  0
  3  8  1  0  0  0  0
  3 22  1  1  0  0  0
  4  9  1  0  0  0  0
  5 10  1  0  0  0  0
  5 11  1  0  0  0  0
  5 25  1  6  0  0  0
  6 12  2  0  0  0  0
  7 13  1  6  0  0  0
  7  9  1  0  0  0  0
  7 21  1  0  0  0  0
  8 11  1  0  0  0  0
 10 14  1  0  0  0  0
 10 15  1  0  0  0  0
 10 16  1  1  0  0  0
 12 14  1  0  0  0  0
 13 26  1  0  0  0  0
 14 17  2  0  0  0  0
 15 18  1  0  0  0  0
 17 19  1  0  0  0  0
 18 19  1  0  0  0  0
 19 20  2  0  0  0  0
 26 27  1  0  0  0  0
 27 28  2  0  0  0  0
 27 29  1  0  0  0  0
M  END
> <ID>
11063

> <Formula>
C22H29KO4

> <FW>
396.5616 (357.4638+39.0978)

> <DSSTox_CID>
25602

> <DSSTox_RID>
80995

> <DSSTox_GSID>
45602

> <DSSTox_FileID_Sort>
5676

> <TS_ChemName>
Canrenoate potassium

> <TS_ChemName_Synonyms>


> <TS_CASRN>
2181-04-6

> <CASRN_ChemName_Relationship>
primary

> <TS_Description>
single chemical compound

> <ChemNote>
stereochem; parent [4138-96-9]

> <STRUCTURE_Shown>
tested chemical

> <STRUCTURE_Formula>
C22H29KO4

> <STRUCTURE_MW>
396.5616

> <STRUCTURE_ChemType>
defined organic

> <STRUCTURE_DefinedOrganicForm>
salt

> <STRUCTURE_IUPAC>
potassium 3-[(8R,9S,10R,13S,14S,17R)-17-hydroxy-10,13-dimethyl-3-oxo-2,3,8,9,10,11,12,13,14,15,16,17-dodecahydro-1H-cyclopenta[a]phenanthren-17-yl]propanoate

> <STRUCTURE_SMILES>
[K+].[O-]C(=O)CC[C@]3(O)CC[C@H]2[C@@H]4C=CC1=CC(=O)CC[C@]1(C)[C@H]4CC[C@@]23C

> <STRUCTURE_SMILES_Desalt>
O=C(O)CC[C@]3(O)CC[C@H]2[C@@H]4C=CC1=CC(=O)CC[C@]1(C)[C@H]4CC[C@@]23C

> <Substance_modify_yyyymmdd>
20100107

$$$$
