21829-25-4
ChemmineR-0915142007XD

 25 26  0  0  0  0  0  0  0  0  2 V2000
    7.6332   -5.7985    0.0000 C   0  0  0  0  0  0  0  0  0  0  0  0
    6.5139   -6.4466    0.0000 O   0  0  0  0  0  0  0  0  0  0  0  0
    5.4114   -5.7985    0.0000 C   0  0  0  0  0  0  0  0  0  0  0  0
    4.2837   -6.4466    0.0000 O   0  0  0  0  0  0  0  0  0  0  0  0
    5.4114   -4.5193    0.0000 C   0  0  0  0  0  0  0  0  0  0  0  0
    6.5139   -3.8713    0.0000 C   0  0  0  0  0  0  0  0  0  0  0  0
    7.6332   -4.5193    0.0000 C   0  0  0  0  0  0  0  0  0  0  0  0
    6.5139   -2.5753    0.0000 N   0  0  0  0  0  0  0  0  0  0  0  0
    5.4114   -1.9272    0.0000 C   0  0  0  0  0  0  0  0  0  0  0  0
    4.2837   -2.5753    0.0000 C   0  0  0  0  0  0  0  0  0  0  0  0
    4.2837   -3.8713    0.0000 C   0  0  0  0  0  0  0  0  0  0  0  0
    2.4238   -5.0411    0.0000 C   0  0  0  0  0  0  0  0  0  0  0  0
    1.4475   -4.1995    0.0000 C   0  0  0  0  0  0  0  0  0  0  0  0
    0.2356   -4.6540    0.0000 C   0  0  0  0  0  0  0  0  0  0  0  0
    0.0000   -5.9079    0.0000 C   0  0  0  0  0  0  0  0  0  0  0  0
    0.9762   -6.7495    0.0000 C   0  0  0  0  0  0  0  0  0  0  0  0
    2.2050   -6.2951    0.0000 C   0  0  0  0  0  0  0  0  0  0  0  0
    2.6847   -7.2713    0.0000 N   0  3  0  0  0  0  0  0  0  0  0  0
    4.0901   -7.9614    0.0000 O   0  0  0  0  0  0  0  0  0  0  0  0
    1.9441   -8.4159    0.0000 O   0  5  0  0  0  0  0  0  0  0  0  0
    3.1560   -1.9272    0.0000 C   0  0  0  0  0  0  0  0  0  0  0  0
    2.0535   -2.5753    0.0000 O   0  0  0  0  0  0  0  0  0  0  0  0
    3.1560   -0.6480    0.0000 O   0  0  0  0  0  0  0  0  0  0  0  0
    4.2837    0.0000    0.0000 C   0  0  0  0  0  0  0  0  0  0  0  0
    5.4114   -0.6480    0.0000 C   0  0  0  0  0  0  0  0  0  0  0  0
  1  2  1  0  0  0  0
  2  3  1  0  0  0  0
  3  4  2  0  0  0  0
  3  5  1  0  0  0  0
  5  6  2  0  0  0  0
  5 11  1  0  0  0  0
  6  7  1  0  0  0  0
  6  8  1  0  0  0  0
  8  9  1  0  0  0  0
  9 10  2  0  0  0  0
  9 25  1  0  0  0  0
 10 11  1  0  0  0  0
 10 21  1  0  0  0  0
 11 12  1  0  0  0  0
 12 13  2  0  0  0  0
 12 17  1  0  0  0  0
 13 14  1  0  0  0  0
 14 15  2  0  0  0  0
 15 16  1  0  0  0  0
 16 17  2  0  0  0  0
 17 18  1  0  0  0  0
 18 19  2  0  0  0  0
 18 20  1  0  0  0  0
 21 22  2  0  0  0  0
 21 23  1  0  0  0  0
 23 24  1  0  0  0  0
M  END
> <ID>
4364

> <Formula>
C17H18N2O6

> <FW>
346.3346

> <DSSTox_CID>
5715

> <DSSTox_RID>
77889

> <DSSTox_GSID>
25715

> <DSSTox_FileID_Sort>
2572

> <TS_ChemName>
Nifedipine

> <TS_ChemName_Synonyms>


> <TS_CASRN>
21829-25-4

> <CASRN_ChemName_Relationship>
primary

> <TS_Description>
single chemical compound

> <ChemNote>
tautomers

> <STRUCTURE_Shown>
tested chemical

> <STRUCTURE_Formula>
C17H18N2O6

> <STRUCTURE_MW>
346.3346

> <STRUCTURE_ChemType>
defined organic

> <STRUCTURE_DefinedOrganicForm>
parent

> <STRUCTURE_IUPAC>
dimethyl 2,6-dimethyl-4-(2-nitrophenyl)-1,4-dihydropyridine-3,5-dicarboxylate

> <STRUCTURE_SMILES>
CC=1NC(C)=C(C(C=1C(=O)OC)c2ccccc2[N+]([O-])=O)C(=O)OC

> <STRUCTURE_SMILES_Desalt>
CC=1NC(C)=C(C(C=1C(=O)OC)c2ccccc2[N+]([O-])=O)C(=O)OC

> <Substance_modify_yyyymmdd>
20080429

$$$$
