21850-44-2
ChemmineR-0915142007XD

 31 32  0  0  0  0  0  0  0  0  1 V2000
    5.9719   -2.3021    0.0000 C    0  0  0  0  0  0  0  0  0  0  0  0
    6.6490   -3.4667    0.0000 C    0  0  0  0  0  0  0  0  0  0  0  0
    5.9719   -4.6177    0.0000 C    0  0  0  0  0  0  0  0  0  0  0  0
    4.6448   -4.6177    0.0000 C    0  0  0  0  0  0  0  0  0  0  0  0
    3.9813   -3.4667    0.0000 C    0  0  0  0  0  0  0  0  0  0  0  0
    4.6448   -2.3021    0.0000 C    0  0  0  0  0  0  0  0  0  0  0  0
    2.6542   -3.4667    0.0000 Br   0  0  0  0  0  0  0  0  0  0  0  0
    6.6490   -5.7688    0.0000 Br   0  0  0  0  0  0  0  0  0  0  0  0
    3.9813   -5.7688    0.0000 O    0  0  0  0  0  0  0  0  0  0  0  0
    2.6542   -5.7688    0.0000 C    0  0  0  0  0  0  0  0  0  0  0  0
    1.9906   -6.9198    0.0000 C    0  0  0  0  0  0  0  0  0  0  0  0
    0.6500   -6.9198    0.0000 C    0  0  0  0  0  0  0  0  0  0  0  0
    2.6542   -8.0709    0.0000 Br   0  0  0  0  0  0  0  0  0  0  0  0
    0.0000   -8.0709    0.0000 Br   0  0  0  0  0  0  0  0  0  0  0  0
    7.8000   -1.8281    0.0000 C    0  0  0  0  0  0  0  0  0  0  0  0
    8.9511   -1.1510    0.0000 C    0  0  0  0  0  0  0  0  0  0  0  0
   10.1021   -1.8281    0.0000 C    0  0  0  0  0  0  0  0  0  0  0  0
   10.1021   -3.1552    0.0000 C    0  0  0  0  0  0  0  0  0  0  0  0
    8.9511   -3.8188    0.0000 C    0  0  0  0  0  0  0  0  0  0  0  0
    7.8000   -3.1552    0.0000 C    0  0  0  0  0  0  0  0  0  0  0  0
    8.9511   -5.1458    0.0000 Br   0  0  0  0  0  0  0  0  0  0  0  0
   11.2396   -1.1510    0.0000 Br   0  0  0  0  0  0  0  0  0  0  0  0
   11.2396   -3.8188    0.0000 O    0  0  0  0  0  0  0  0  0  0  0  0
   11.2396   -5.1458    0.0000 C    0  0  0  0  0  0  0  0  0  0  0  0
   12.3907   -5.8094    0.0000 C    0  0  0  0  0  0  0  0  0  0  0  0
   12.3907   -7.1365    0.0000 C    0  0  0  0  0  0  0  0  0  0  0  0
   13.5417   -5.1458    0.0000 Br   0  0  0  0  0  0  0  0  0  0  0  0
   13.5417   -7.8000    0.0000 Br   0  0  0  0  0  0  0  0  0  0  0  0
    6.6490   -1.1510    0.0000 C    0  0  0  0  0  0  0  0  0  0  0  0
    5.4844   -0.5010    0.0000 C    0  0  0  0  0  0  0  0  0  0  0  0
    7.2990    0.0000    0.0000 C    0  0  0  0  0  0  0  0  0  0  0  0
  1  2  2  0  0  0  0
  1  6  1  0  0  0  0
  1 29  1  0  0  0  0
  2  3  1  0  0  0  0
  3  4  2  0  0  0  0
  3  8  1  0  0  0  0
  4  5  1  0  0  0  0
  4  9  1  0  0  0  0
  5  6  2  0  0  0  0
  5  7  1  0  0  0  0
  9 10  1  0  0  0  0
 10 11  1  0  0  0  0
 11 12  1  0  0  0  0
 11 13  1  0  0  0  0
 12 14  1  0  0  0  0
 15 16  2  0  0  0  0
 15 20  1  0  0  0  0
 15 29  1  0  0  0  0
 16 17  1  0  0  0  0
 17 18  2  0  0  0  0
 17 22  1  0  0  0  0
 18 19  1  0  0  0  0
 18 23  1  0  0  0  0
 19 20  2  0  0  0  0
 19 21  1  0  0  0  0
 23 24  1  0  0  0  0
 24 25  1  0  0  0  0
 25 26  1  0  0  0  0
 25 27  1  0  0  0  0
 26 28  1  0  0  0  0
 29 30  1  0  0  0  0
 29 31  1  0  0  0  0
M  END
> <ID>
6397

> <Formula>
C21H20Br8O2

> <FW>
943.6143

> <DSSTox_CID>
12129

> <DSSTox_RID>
78906

> <DSSTox_GSID>
32129

> <DSSTox_FileID_Sort>
3588

> <TS_ChemName>
2,2',3,3'-Tetrabromobisphenol A

> <TS_ChemName_Synonyms>
bis(2,3-dibromopropyl ether)

> <TS_CASRN>
21850-44-2

> <CASRN_ChemName_Relationship>
primary

> <TS_Description>
single chemical compound

> <ChemNote>


> <STRUCTURE_Shown>
tested chemical

> <STRUCTURE_Formula>
C21H20Br8O2

> <STRUCTURE_MW>
943.6143

> <STRUCTURE_ChemType>
defined organic

> <STRUCTURE_DefinedOrganicForm>
parent

> <STRUCTURE_IUPAC>
1,1'-propane-2,2-diylbis[3,5-dibromo-4-(2,3-dibromopropoxy)benzene]

> <STRUCTURE_SMILES>
Brc1cc(cc(Br)c1OCC(Br)CBr)C(C)(C)c2cc(Br)c(OCC(Br)CBr)c(Br)c2

> <STRUCTURE_SMILES_Desalt>
Brc1cc(cc(Br)c1OCC(Br)CBr)C(C)(C)c2cc(Br)c(OCC(Br)CBr)c(Br)c2

> <Substance_modify_yyyymmdd>
20080429

$$$$
