218600-53-4
ChemmineR-0915142007XD

 40 44  0  0  1  0  0  0  0  0  1 V2000
    6.9043   -5.8134    0.0000 C   0  0  0  0  0  0  0  0  0  0  0  0
    8.0504   -5.1368    0.0000 C   0  0  0  0  0  0  0  0  0  0  0  0
    4.6121   -5.8134    0.0000 C   0  0  0  0  0  0  0  0  0  0  0  0
    5.7582   -5.1368    0.0000 C   0  0  0  0  0  0  0  0  0  0  0  0
    8.0504   -3.8250    0.0000 C   0  0  0  0  0  0  0  0  0  0  0  0
    9.1965   -3.1484    0.0000 C   0  0  0  0  0  0  0  0  0  0  0  0
    4.6121   -7.1528    0.0000 C   0  0  0  0  0  0  0  0  0  0  0  0
   10.3564   -3.8250    0.0000 C   0  0  0  0  0  0  0  0  0  0  0  0
    6.9043   -7.1528    0.0000 C   0  0  0  0  0  0  0  0  0  0  0  0
    9.1965   -5.8134    0.0000 C   0  0  0  0  0  0  0  0  0  0  0  0
    5.7444   -3.8250    0.0000 C   0  0  0  0  0  0  0  0  0  0  0  0
    6.9043   -3.1622    0.0000 C   0  0  0  0  0  0  0  0  0  0  0  0
    5.7444   -7.8019    0.0000 C   0  0  0  0  0  0  0  0  0  0  0  0
    3.4521   -7.8019    0.0000 C   0  0  0  0  0  0  0  0  0  0  0  0
    9.1965   -1.8227    0.0000 C   0  0  0  0  0  0  0  0  0  0  0  0
   10.3564   -5.1506    0.0000 C   0  0  0  0  0  0  0  0  0  0  0  0
   10.3564   -1.1599    0.0000 C   0  0  0  0  0  0  0  0  0  0  0  0
   11.5164   -3.1484    0.0000 C   0  0  0  0  0  0  0  0  0  0  0  0
    3.4521   -5.1368    0.0000 C   0  0  0  0  0  0  0  0  0  0  0  0
   11.5164   -1.8227    0.0000 C   0  0  0  0  0  0  0  0  0  0  0  0
    7.7742   -6.8214    0.0000 C   0  0  0  0  0  0  0  0  0  0  0  0
    8.5061   -6.3934    0.0000 C   0  0  0  0  0  0  0  0  0  0  0  0
    4.6121   -4.4878    0.0000 C   0  0  0  0  0  0  0  0  0  0  0  0
   11.5164   -4.4878    0.0000 C   0  0  0  0  0  0  0  0  0  0  0  0
    2.2922   -7.1528    0.0000 C   0  0  0  0  0  0  0  0  0  0  0  0
    2.2922   -5.8134    0.0000 C   0  0  0  0  0  0  0  0  0  0  0  0
    3.9216   -9.0584    0.0000 C   0  0  0  0  0  0  0  0  0  0  0  0
    2.7893   -8.9618    0.0000 C   0  0  0  0  0  0  0  0  0  0  0  0
    9.6936    0.0000    0.0000 C   0  0  0  0  0  0  0  0  0  0  0  0
   11.0193    0.0000    0.0000 C   0  0  0  0  0  0  0  0  0  0  0  0
    4.6121   -8.4785    0.0000 H   0  0  0  0  0  0  0  0  0  0  0  0
    7.6085   -2.5684    0.0000 H   0  0  0  0  0  0  0  0  0  0  0  0
    8.3542   -2.1403    0.0000 H   0  0  0  0  0  0  0  0  0  0  0  0
   11.5164   -5.8134    0.0000 O   0  0  0  0  0  0  0  0  0  0  0  0
   12.6487   -3.8250    0.0000 O   0  0  0  0  0  0  0  0  0  0  0  0
    1.1599   -5.1368    0.0000 C   0  0  0  0  0  0  0  0  0  0  0  0
    0.0000   -4.4878    0.0000 N   0  0  0  0  0  0  0  0  0  0  0  0
    1.1461   -7.8019    0.0000 O   0  0  0  0  0  0  0  0  0  0  0  0
    6.9043   -1.8365    0.0000 O   0  0  0  0  0  0  0  0  0  0  0  0
   13.8086   -4.4878    0.0000 C   0  0  0  0  0  0  0  0  0  0  0  0
  1  9  1  0  0  0  0
  1 21  1  1  0  0  0
  1  2  1  0  0  0  0
  1  4  1  0  0  0  0
  2  5  1  0  0  0  0
  2 10  1  0  0  0  0
  2 22  1  6  0  0  0
  3 19  1  0  0  0  0
  3 23  1  1  0  0  0
  3  7  1  0  0  0  0
  3  4  1  0  0  0  0
  4 11  2  0  0  0  0
  5  6  1  0  0  0  0
  5 12  1  0  0  0  0
  5 32  1  1  0  0  0
  6 15  1  0  0  0  0
  6  8  1  0  0  0  0
  6 33  1  1  0  0  0
  7 13  1  0  0  0  0
  7 14  1  0  0  0  0
  7 31  1  6  0  0  0
  8 16  1  0  0  0  0
  8 18  1  0  0  0  0
  8 24  1  1  0  0  0
  9 13  1  0  0  0  0
 10 16  1  0  0  0  0
 11 12  1  0  0  0  0
 12 39  2  0  0  0  0
 14 25  1  0  0  0  0
 14 27  1  6  0  0  0
 14 28  1  1  0  0  0
 15 17  1  0  0  0  0
 17 29  1  1  0  0  0
 17 30  1  6  0  0  0
 17 20  1  0  0  0  0
 18 20  1  0  0  0  0
 19 26  2  0  0  0  0
 24 35  1  0  0  0  0
 24 34  2  0  0  0  0
 25 26  1  0  0  0  0
 25 38  2  0  0  0  0
 26 36  1  0  0  0  0
 35 40  1  0  0  0  0
 36 37  3  0  0  0  0
M  END
> <ID>
13754

> <Formula>
C32H43NO4

> <FW>
505.6881

> <DSSTox_CID>
28690

> <DSSTox_RID>
82960

> <DSSTox_GSID>
48764

> <DSSTox_FileID_Sort>
7637

> <TS_ChemName>
Bardoxolone methyl

> <TS_ChemName_Synonyms>
RTA 402

> <TS_CASRN>
218600-53-4

> <CASRN_ChemName_Relationship>
primary

> <TS_Description>
single chemical compound

> <ChemNote>
stereochem; tautomers

> <STRUCTURE_Shown>
tested chemical

> <STRUCTURE_Formula>
C32H43NO4

> <STRUCTURE_MW>
505.6881

> <STRUCTURE_ChemType>
defined organic

> <STRUCTURE_DefinedOrganicForm>
parent

> <STRUCTURE_IUPAC>
methyl 2-cyano-3,12-dioxooleana-1,9(11)-dien-28-oate

> <STRUCTURE_SMILES>
O=C(OC)[C@]12CC[C@@]3(C)[C@]4(C)CC[C@H]5[C@@](C)(C)C(=O)C(=C[C@]5(C)C4=CC(=O)[C@@H]3[C@@H]2C[C@](C)(C)CC1)C#N

> <STRUCTURE_SMILES_Desalt>
O=C(OC)[C@]12CC[C@@]3(C)[C@]4(C)CC[C@H]5[C@@](C)(C)C(=O)C(=C[C@]5(C)C4=CC(=O)[C@@H]3[C@@H]2C[C@](C)(C)CC1)C#N

> <Substance_modify_yyyymmdd>
20100107

$$$$
