21948-70-9
ChemmineR-0915142007XD

  8  8  0  0  0  0  0  0  0  0  1 V2000
    2.0020   -0.0140    0.0000 N   0  0  0  0  0  0  0  0  0  0  0  0
    0.6923   -2.3060    0.0000 N   0  0  0  0  0  0  0  0  0  0  0  0
    2.6942   -1.1600    0.0000 C   0  0  0  0  0  0  0  0  0  0  0  0
    0.0000   -1.1600    0.0000 C   0  0  0  0  0  0  0  0  0  0  0  0
    2.0020   -2.3060    0.0000 C   0  0  0  0  0  0  0  0  0  0  0  0
    0.6923   -0.0140    0.0000 C   0  0  0  0  0  0  0  0  0  0  0  0
    4.0320   -1.1600    0.0000 S   0  0  0  0  0  0  0  0  0  0  0  0
    4.6775    0.0000    0.0000 C   0  0  0  0  0  0  0  0  0  0  0  0
  1  3  2  0  0  0  0
  1  6  1  0  0  0  0
  2  4  1  0  0  0  0
  2  5  2  0  0  0  0
  3  5  1  0  0  0  0
  3  7  1  0  0  0  0
  4  6  2  0  0  0  0
  7  8  1  0  0  0  0
M  END
> <ID>
12622

> <Formula>
C5H6N2S

> <FW>
126.1795

> <DSSTox_CID>
27491

> <DSSTox_RID>
82379

> <DSSTox_GSID>
47491

> <DSSTox_FileID_Sort>
7060

> <TS_ChemName>
Pyrazinyl methyl sulfide

> <TS_ChemName_Synonyms>


> <TS_CASRN>
21948-70-9

> <CASRN_ChemName_Relationship>
primary

> <TS_Description>
single chemical compound

> <ChemNote>


> <STRUCTURE_Shown>
tested chemical

> <STRUCTURE_Formula>
C5H6N2S

> <STRUCTURE_MW>
126.1795

> <STRUCTURE_ChemType>
defined organic

> <STRUCTURE_DefinedOrganicForm>
parent

> <STRUCTURE_IUPAC>
2-(methylsulfanyl)pyrazine

> <STRUCTURE_SMILES>
CSc1cnccn1

> <STRUCTURE_SMILES_Desalt>
CSc1cnccn1

> <Substance_modify_yyyymmdd>
20100704

$$$$
