219790-72-4
ChemmineR-0915142007XD

 30 33  0  0  0  0  0  0  0  0  1 V2000
    1.3320   -0.2760    0.0000 O   0  0  0  0  0  0  0  0  0  0  0  0
    2.6519   -0.2760    0.0000 C   0  0  0  0  0  0  0  0  0  0  0  0
    3.3359   -1.4160    0.0000 C   0  0  0  0  0  0  0  0  0  0  0  0
    2.6519   -2.5559    0.0000 C   0  0  0  0  0  0  0  0  0  0  0  0
    1.3080   -2.3879    0.0000 O   0  0  0  0  0  0  0  0  0  0  0  0
    4.6199   -1.3680    0.0000 N   0  0  0  0  0  0  0  0  0  0  0  0
    5.0279   -0.0240    0.0000 C   0  0  0  0  0  0  0  0  0  0  0  0
    6.4078    0.0000    0.0000 N   0  0  0  0  0  0  0  0  0  0  0  0
    6.8398   -1.2960    0.0000 C   0  0  0  0  0  0  0  0  0  0  0  0
    5.7478   -2.0759    0.0000 C   0  0  0  0  0  0  0  0  0  0  0  0
    5.7478   -3.4079    0.0000 C   0  0  0  0  0  0  0  0  0  0  0  0
    6.8878   -4.0799    0.0000 C   0  0  0  0  0  0  0  0  0  0  0  0
    6.8878   -5.3998    0.0000 C   0  0  0  0  0  0  0  0  0  0  0  0
    5.7478   -6.0598    0.0000 N   0  0  0  0  0  0  0  0  0  0  0  0
    4.5959   -5.3998    0.0000 C   0  0  0  0  0  0  0  0  0  0  0  0
    3.4559   -6.0598    0.0000 O   0  0  0  0  0  0  0  0  0  0  0  0
    2.3039   -5.3998    0.0000 C   0  0  0  0  0  0  0  0  0  0  0  0
    1.1520   -6.0598    0.0000 C   0  0  0  0  0  0  0  0  0  0  0  0
    0.0000   -5.3998    0.0000 C   0  0  0  0  0  0  0  0  0  0  0  0
    0.0000   -4.0799    0.0000 C   0  0  0  0  0  0  0  0  0  0  0  0
    1.1520   -3.4079    0.0000 C   0  0  0  0  0  0  0  0  0  0  0  0
    2.3039   -4.0799    0.0000 C   0  0  0  0  0  0  0  0  0  0  0  0
    4.5959   -4.0799    0.0000 N   0  0  0  0  0  0  0  0  0  0  0  0
    8.1118   -1.5720    0.0000 C   0  0  0  0  0  0  0  0  0  0  0  0
    8.5198   -2.8319    0.0000 C   0  0  0  0  0  0  0  0  0  0  0  0
    9.7917   -3.1679    0.0000 C   0  0  0  0  0  0  0  0  0  0  0  0
   10.7157   -2.2079    0.0000 C   0  0  0  0  0  0  0  0  0  0  0  0
   11.9997   -2.5079    0.0000 F   0  0  0  0  0  0  0  0  0  0  0  0
   10.3197   -0.9360    0.0000 C   0  0  0  0  0  0  0  0  0  0  0  0
    9.0477   -0.6240    0.0000 C   0  0  0  0  0  0  0  0  0  0  0  0
  1  2  1  0  0  0  0
  2  3  1  0  0  0  0
  3  4  1  0  0  0  0
  3  6  1  0  0  0  0
  4  5  1  0  0  0  0
  6  7  1  0  0  0  0
  6 10  1  0  0  0  0
  7  8  2  0  0  0  0
  8  9  1  0  0  0  0
  9 10  2  0  0  0  0
  9 24  1  0  0  0  0
 10 11  1  0  0  0  0
 11 12  2  0  0  0  0
 11 23  1  0  0  0  0
 12 13  1  0  0  0  0
 13 14  2  0  0  0  0
 14 15  1  0  0  0  0
 15 16  1  0  0  0  0
 15 23  2  0  0  0  0
 16 17  1  0  0  0  0
 17 18  1  0  0  0  0
 17 22  2  0  0  0  0
 18 19  2  0  0  0  0
 19 20  1  0  0  0  0
 20 21  2  0  0  0  0
 21 22  1  0  0  0  0
 24 25  1  0  0  0  0
 24 30  2  0  0  0  0
 25 26  2  0  0  0  0
 26 27  1  0  0  0  0
 27 28  1  0  0  0  0
 27 29  2  0  0  0  0
 29 30  1  0  0  0  0
M  END
> <ID>
12466

> <Formula>
C22H19FN4O3

> <FW>
406.4097

> <DSSTox_CID>
27324

> <DSSTox_RID>
82270

> <DSSTox_GSID>
47324

> <DSSTox_FileID_Sort>
6951

> <TS_ChemName>
SB281832

> <TS_ChemName_Synonyms>


> <TS_CASRN>
219790-72-4

> <CASRN_ChemName_Relationship>
primary

> <TS_Description>
single chemical compound

> <ChemNote>


> <STRUCTURE_Shown>
tested chemical

> <STRUCTURE_Formula>
C22H19FN4O3

> <STRUCTURE_MW>
406.4097

> <STRUCTURE_ChemType>
defined organic

> <STRUCTURE_DefinedOrganicForm>
parent

> <STRUCTURE_IUPAC>
2-[4-(4-fluorophenyl)-5-(2-phenoxypyrimidin-4-yl)-1H-imidazol-1-yl]propane-1,3-diol

> <STRUCTURE_SMILES>
OCC(CO)n4cnc(c1ccc(F)cc1)c4c3ccnc(Oc2ccccc2)n3

> <STRUCTURE_SMILES_Desalt>
OCC(CO)n4cnc(c1ccc(F)cc1)c4c3ccnc(Oc2ccccc2)n3

> <Substance_modify_yyyymmdd>
20130910

$$$$
