219714-96-2
ChemmineR-0915142007XD

 32 34  0  0  0  0  0  0  0  0  1 V2000
    3.8808   -2.5291    0.0000 C   0  0  0  0  0  0  0  0  0  0  0  0
    3.2254   -3.6760    0.0000 C   0  0  0  0  0  0  0  0  0  0  0  0
    3.2254   -1.3926    0.0000 C   0  0  0  0  0  0  0  0  0  0  0  0
    1.9045   -3.6760    0.0000 C   0  0  0  0  0  0  0  0  0  0  0  0
    1.9045   -1.3926    0.0000 C   0  0  0  0  0  0  0  0  0  0  0  0
    1.2390   -2.5291    0.0000 C   0  0  0  0  0  0  0  0  0  0  0  0
    5.2016   -2.5291    0.0000 O   0  0  0  0  0  0  0  0  0  0  0  0
    3.8808   -4.8125    0.0000 S   0  0  0  0  0  0  0  0  0  0  0  0
    1.2390   -4.8125    0.0000 C   0  0  0  0  0  0  0  0  0  0  0  0
    0.0000   -4.8125    0.0000 F   0  0  0  0  0  0  0  0  0  0  0  0
    1.8329   -5.8160    0.0000 F   0  0  0  0  0  0  0  0  0  0  0  0
    0.5836   -5.9594    0.0000 F   0  0  0  0  0  0  0  0  0  0  0  0
    4.5463   -5.9594    0.0000 O   0  0  0  0  0  0  0  0  0  0  0  0
    2.7339   -5.4883    0.0000 O   0  0  0  0  0  0  0  0  0  0  0  0
    5.0276   -4.1675    0.0000 N   0  0  0  0  0  0  0  0  0  0  0  0
    6.1642   -4.8125    0.0000 C   0  0  0  0  0  0  0  0  0  0  0  0
    6.3075   -6.1334    0.0000 N   0  0  0  0  0  0  0  0  0  0  0  0
    7.3826   -4.2801    0.0000 N   0  0  0  0  0  0  0  0  0  0  0  0
    7.5977   -6.4099    0.0000 N   0  0  0  0  0  0  0  0  0  0  0  0
    8.2530   -5.2631    0.0000 C   0  0  0  0  0  0  0  0  0  0  0  0
    8.2530   -7.5465    0.0000 C   0  0  0  0  0  0  0  0  0  0  0  0
    9.5739   -7.5465    0.0000 N   0  0  0  0  0  0  0  0  0  0  0  0
    9.5739   -5.2631    0.0000 C   0  0  0  0  0  0  0  0  0  0  0  0
   10.2395   -6.4099    0.0000 C   0  0  0  0  0  0  0  0  0  0  0  0
    7.5977   -8.6933    0.0000 O   0  0  0  0  0  0  0  0  0  0  0  0
    8.2530   -9.8401    0.0000 C   0  0  0  0  0  0  0  0  0  0  0  0
   10.2395   -4.1163    0.0000 O   0  0  0  0  0  0  0  0  0  0  0  0
    9.5739   -2.9694    0.0000 C   0  0  0  0  0  0  0  0  0  0  0  0
    5.9286   -1.2595    0.0000 C   0  0  0  0  0  0  0  0  0  0  0  0
    7.3929   -1.2595    0.0000 C   0  0  0  0  0  0  0  0  0  0  0  0
    8.1199    0.0000    0.0000 F   0  0  0  0  0  0  0  0  0  0  0  0
    8.1199   -2.5291    0.0000 F   0  0  0  0  0  0  0  0  0  0  0  0
  1  2  1  0  0  0  0
  1  3  2  0  0  0  0
  1  7  1  0  0  0  0
  2  4  2  0  0  0  0
  2  8  1  0  0  0  0
  3  5  1  0  0  0  0
  4  6  1  0  0  0  0
  4  9  1  0  0  0  0
  5  6  2  0  0  0  0
  7 29  1  0  0  0  0
  8 13  2  0  0  0  0
  8 14  2  0  0  0  0
  8 15  1  0  0  0  0
  9 10  1  0  0  0  0
  9 11  1  0  0  0  0
  9 12  1  0  0  0  0
 15 16  1  0  0  0  0
 16 17  2  0  0  0  0
 16 18  1  0  0  0  0
 17 19  1  0  0  0  0
 18 20  2  0  0  0  0
 19 21  1  0  0  0  0
 19 20  1  0  0  0  0
 20 23  1  0  0  0  0
 21 22  2  0  0  0  0
 21 25  1  0  0  0  0
 22 24  1  0  0  0  0
 23 24  2  0  0  0  0
 23 27  1  0  0  0  0
 25 26  1  0  0  0  0
 27 28  1  0  0  0  0
 29 30  1  0  0  0  0
 30 31  1  0  0  0  0
 30 32  1  0  0  0  0
M  END
> <ID>
6913

> <Formula>
C16H14F5N5O5S

> <FW>
483.3699

> <DSSTox_CID>
14803

> <DSSTox_RID>
79204

> <DSSTox_GSID>
34803

> <DSSTox_FileID_Sort>
3886

> <TS_ChemName>
Penoxsulam

> <TS_ChemName_Synonyms>


> <TS_CASRN>
219714-96-2

> <CASRN_ChemName_Relationship>
primary

> <TS_Description>
single chemical compound

> <ChemNote>


> <STRUCTURE_Shown>
tested chemical

> <STRUCTURE_Formula>
C16H14F5N5O5S

> <STRUCTURE_MW>
483.3699

> <STRUCTURE_ChemType>
defined organic

> <STRUCTURE_DefinedOrganicForm>
parent

> <STRUCTURE_IUPAC>
2-(2,2-difluoroethoxy)-N-(5,8-dimethoxy[1,2,4]triazolo[1,5-c]pyrimidin-2-yl)-6-(trifluoromethyl)benzenesulfonamide

> <STRUCTURE_SMILES>
FC(F)(F)c1cccc(OCC(F)F)c1S(=O)(=O)Nc2nc3c(cnc(OC)n3n2)OC

> <STRUCTURE_SMILES_Desalt>
FC(F)(F)c1cccc(OCC(F)F)c1S(=O)(=O)Nc2nc3c(cnc(OC)n3n2)OC

> <Substance_modify_yyyymmdd>
20080429

$$$$
