219861-08-2
ChemmineR-0915142007XD

 30 31  0  0  1  0  0  0  0  0  1 V2000
    7.9751   -1.7292    0.0000 C   0  0  0  0  0  0  0  0  0  0  0  0
    6.7104   -1.3034    0.0000 N   0  0  0  0  0  0  0  0  0  0  0  0
    6.4394    0.0000    0.0000 C   0  0  0  0  0  0  0  0  0  0  0  0
    5.7297   -2.2067    0.0000 C   0  0  0  0  0  0  0  0  0  0  0  0
    6.0007   -3.5101    0.0000 C   0  0  0  0  0  0  0  0  0  0  0  0
    5.0199   -4.3876    0.0000 C   0  0  0  0  0  0  0  0  0  0  0  0
    5.2909   -5.6651    0.0000 C   0  0  0  0  0  0  0  0  0  0  0  0
    5.1490   -7.0072    0.0000 O   0  0  0  0  0  0  0  0  0  0  0  0
    6.3749   -7.5492    0.0000 C   0  0  0  0  0  0  0  0  0  0  0  0
    7.2524   -6.5685    0.0000 C   0  0  0  0  0  0  0  0  0  0  0  0
    8.5816   -6.5685    0.0000 C   0  0  0  0  0  0  0  0  0  0  0  0
    9.2655   -5.4200    0.0000 C   0  0  0  0  0  0  0  0  0  0  0  0
    8.5816   -4.2585    0.0000 C   0  0  0  0  0  0  0  0  0  0  0  0
    7.2524   -4.2585    0.0000 C   0  0  0  0  0  0  0  0  0  0  0  0
    6.5943   -5.4200    0.0000 C   0  0  0  0  0  0  0  0  0  0  0  0
   10.5818   -5.4200    0.0000 C   0  0  0  0  0  0  0  0  0  0  0  0
   11.9110   -5.4200    0.0000 N   0  0  0  0  0  0  0  0  0  0  0  0
    3.9746   -5.5490    0.0000 C   0  0  0  0  0  0  0  0  0  0  0  0
    3.4326   -4.3360    0.0000 C   0  0  0  0  0  0  0  0  0  0  0  0
    2.1035   -4.1940    0.0000 C   0  0  0  0  0  0  0  0  0  0  0  0
    1.3292   -5.2651    0.0000 C   0  0  0  0  0  0  0  0  0  0  0  0
    0.0000   -5.1231    0.0000 F   0  0  0  0  0  0  0  0  0  0  0  0
    1.8583   -6.4910    0.0000 C   0  0  0  0  0  0  0  0  0  0  0  0
    3.2004   -6.6201    0.0000 C   0  0  0  0  0  0  0  0  0  0  0  0
   12.9047   -2.8132    0.0000 O   0  0  0  0  0  0  0  0  0  0  0  0
   12.2336   -1.6647    0.0000 C   0  0  0  0  0  0  0  0  0  0  0  0
   12.9047   -0.5162    0.0000 O   0  0  0  0  0  0  0  0  0  0  0  0
   10.9173   -1.6647    0.0000 C   0  0  0  0  0  0  0  0  0  0  0  0
   10.2463   -2.8132    0.0000 O   0  0  0  0  0  0  0  0  0  0  0  0
   10.2463   -0.5033    0.0000 O   0  0  0  0  0  0  0  0  0  0  0  0
  1  2  1  0  0  0  0
  2  3  1  0  0  0  0
  2  4  1  0  0  0  0
  4  5  1  0  0  0  0
  5  6  1  0  0  0  0
  7  6  1  6  0  0  0
  7  8  1  0  0  0  0
  7 15  1  0  0  0  0
  7 18  1  1  0  0  0
  8  9  1  0  0  0  0
  9 10  1  0  0  0  0
 10 11  2  0  0  0  0
 10 15  1  0  0  0  0
 11 12  1  0  0  0  0
 12 13  2  0  0  0  0
 12 16  1  0  0  0  0
 13 14  1  0  0  0  0
 14 15  2  0  0  0  0
 16 17  3  0  0  0  0
 18 19  2  0  0  0  0
 18 24  1  0  0  0  0
 19 20  1  0  0  0  0
 20 21  2  0  0  0  0
 21 22  1  0  0  0  0
 21 23  1  0  0  0  0
 23 24  2  0  0  0  0
 25 26  1  0  0  0  0
 26 27  2  0  0  0  0
 26 28  1  0  0  0  0
 28 29  1  0  0  0  0
 28 30  2  0  0  0  0
M  END
> <ID>
11350

> <Formula>
C22H23FN2O5

> <FW>
414.4268 (324.3919+90.0349)

> <DSSTox_CID>
26003

> <DSSTox_RID>
81282

> <DSSTox_GSID>
46003

> <DSSTox_FileID_Sort>
5963

> <TS_ChemName>
Escitalopram oxalate

> <TS_ChemName_Synonyms>


> <TS_CASRN>
219861-08-2

> <CASRN_ChemName_Relationship>
primary

> <TS_Description>
single chemical compound

> <ChemNote>
stereochem; parent [128196-01-0]

> <STRUCTURE_Shown>
tested chemical

> <STRUCTURE_Formula>
C22H23FN2O5

> <STRUCTURE_MW>
414.4268

> <STRUCTURE_ChemType>
defined organic

> <STRUCTURE_DefinedOrganicForm>
complex

> <STRUCTURE_IUPAC>
(1S)-1-[3-(dimethylamino)propyl]-1-(4-fluorophenyl)-1,3-dihydro-2-benzofuran-5-carbonitrile ethanedioate (1:1)

> <STRUCTURE_SMILES>
O=C(O)C(=O)O.CN(C)CCC[C@]2(OCc1cc(ccc12)C#N)c3ccc(F)cc3

> <STRUCTURE_SMILES_Desalt>
CN(C)CCC[C@]2(OCc1cc(ccc12)C#N)c3ccc(F)cc3

> <Substance_modify_yyyymmdd>
20110824

$$$$
