219947-96-3
ChemmineR-0915142007XD

 31 30  0  0  0  0  0  0  0  0  2 V2000
    0.1509  -20.6996    0.0000 C   0  0  0  0  0  0  0  0  0  0  0  0
   11.9669   -1.0565    0.0000 C   0  0  0  0  0  0  0  0  0  0  0  0
    0.0000  -19.3843    0.0000 C   0  0  0  0  0  0  0  0  0  0  0  0
    1.0781  -18.6080    0.0000 C   0  0  0  0  0  0  0  0  0  0  0  0
    0.9487  -17.2712    0.0000 C   0  0  0  0  0  0  0  0  0  0  0  0
    2.0053  -16.4734    0.0000 C   0  0  0  0  0  0  0  0  0  0  0  0
    1.8975  -15.1797    0.0000 C   0  0  0  0  0  0  0  0  0  0  0  0
    2.9756  -14.3819    0.0000 C   0  0  0  0  0  0  0  0  0  0  0  0
    2.8246  -13.0666    0.0000 C   0  0  0  0  0  0  0  0  0  0  0  0
    3.9027  -12.2688    0.0000 C   0  0  0  0  0  0  0  0  0  0  0  0
    3.7518  -10.9751    0.0000 C   0  0  0  0  0  0  0  0  0  0  0  0
    4.8299  -10.1773    0.0000 C   0  0  0  0  0  0  0  0  0  0  0  0
    4.7005   -8.8404    0.0000 C   0  0  0  0  0  0  0  0  0  0  0  0
    5.7786   -8.0642    0.0000 C   0  0  0  0  0  0  0  0  0  0  0  0
    5.6277   -6.7489    0.0000 C   0  0  0  0  0  0  0  0  0  0  0  0
    6.7058   -5.9511    0.0000 C   0  0  0  0  0  0  0  0  0  0  0  0
    6.5549   -4.6358    0.0000 C   0  0  0  0  0  0  0  0  0  0  0  0
    7.6545   -3.8596    0.0000 C   0  0  0  0  0  0  0  0  0  0  0  0
    7.5252   -2.5228    0.0000 C   0  0  0  0  0  0  0  0  0  0  0  0
    9.8539    0.0000    0.0000 C   0  0  0  0  0  0  0  0  0  0  0  0
    8.5817   -0.4097    0.0000 C   0  0  0  0  0  0  0  0  0  0  0  0
    9.8539   -2.1346    0.0000 C   0  0  0  0  0  0  0  0  0  0  0  0
   10.6517   -1.0565    0.0000 N   0  3  0  0  0  0  0  0  0  0  0  0
    8.5817   -1.7681    0.0000 N   0  0  0  0  0  0  0  0  0  0  0  0
    4.7005  -20.3977    0.0000 F   0  0  0  0  0  0  0  0  0  0  0  0
    5.3474  -21.5620    0.0000 F   0  0  0  0  0  0  0  0  0  0  0  0
    6.6842  -21.5620    0.0000 F   0  0  0  0  0  0  0  0  0  0  0  0
    6.6842  -19.2549    0.0000 F   0  0  0  0  0  0  0  0  0  0  0  0
    5.3474  -19.2549    0.0000 F   0  0  0  0  0  0  0  0  0  0  0  0
    7.3527  -20.3977    0.0000 F   0  0  0  0  0  0  0  0  0  0  0  0
    6.0158  -20.3977    0.0000 P   0  5  0  0  0  0  0  0  0  0  0  0
  1  3  1  0  0  0  0
  2 23  1  0  0  0  0
  3  4  1  0  0  0  0
  4  5  1  0  0  0  0
  5  6  1  0  0  0  0
  6  7  1  0  0  0  0
  7  8  1  0  0  0  0
  8  9  1  0  0  0  0
  9 10  1  0  0  0  0
 10 11  1  0  0  0  0
 11 12  1  0  0  0  0
 12 13  1  0  0  0  0
 13 14  1  0  0  0  0
 14 15  1  0  0  0  0
 15 16  1  0  0  0  0
 16 17  1  0  0  0  0
 17 18  1  0  0  0  0
 18 19  1  0  0  0  0
 19 24  1  0  0  0  0
 20 21  2  0  0  0  0
 20 23  1  0  0  0  0
 21 24  1  0  0  0  0
 22 23  2  0  0  0  0
 22 24  1  0  0  0  0
 25 31  1  0  0  0  0
 26 31  1  0  0  0  0
 27 31  1  0  0  0  0
 28 31  1  0  0  0  0
 29 31  1  0  0  0  0
 30 31  1  0  0  0  0
M  END
> <ID>
14113

> <Formula>
C22H43F6N2P

> <FW>
480.5544 (335.5897+144.9647)

> <DSSTox_CID>
29106

> <DSSTox_RID>
83325

> <DSSTox_GSID>
49250

> <DSSTox_FileID_Sort>
8000

> <TS_ChemName>
1-Methyl-3-octadecylimidazolium hexafluorophosphate

> <TS_ChemName_Synonyms>


> <TS_CASRN>
219947-96-3

> <CASRN_ChemName_Relationship>
primary

> <TS_Description>
single chemical compound

> <ChemNote>


> <STRUCTURE_Shown>
tested chemical

> <STRUCTURE_Formula>
C22H43F6N2P

> <STRUCTURE_MW>
480.5544

> <STRUCTURE_ChemType>
defined organic

> <STRUCTURE_DefinedOrganicForm>
complex

> <STRUCTURE_IUPAC>
3-methyl-1-octadecyl-1H-imidazol-3-ium hexafluorophosphate

> <STRUCTURE_SMILES>
F[P-](F)(F)(F)(F)F.C[n+]1ccn(CCCCCCCCCCCCCCCCCC)c1

> <STRUCTURE_SMILES_Desalt>
C[n+]1ccn(CCCCCCCCCCCCCCCCCC)c1

> <Substance_modify_yyyymmdd>
20111204

$$$$
