219947-95-2
ChemmineR-0915142007XD

 29 28  0  0  0  0  0  0  0  0  2 V2000
    0.1484  -18.5449    0.0000 C   0  0  0  0  0  0  0  0  0  0  0  0
   11.0156   -1.0756    0.0000 C   0  0  0  0  0  0  0  0  0  0  0  0
    0.0000  -17.2282    0.0000 C   0  0  0  0  0  0  0  0  0  0  0  0
    1.0756  -16.4493    0.0000 C   0  0  0  0  0  0  0  0  0  0  0  0
    0.9458  -15.1141    0.0000 C   0  0  0  0  0  0  0  0  0  0  0  0
    2.0214  -14.3352    0.0000 C   0  0  0  0  0  0  0  0  0  0  0  0
    1.8730  -13.0185    0.0000 C   0  0  0  0  0  0  0  0  0  0  0  0
    2.9672  -12.2396    0.0000 C   0  0  0  0  0  0  0  0  0  0  0  0
    2.8003  -10.9229    0.0000 C   0  0  0  0  0  0  0  0  0  0  0  0
    3.8944  -10.1440    0.0000 C   0  0  0  0  0  0  0  0  0  0  0  0
    3.7461   -8.8274    0.0000 C   0  0  0  0  0  0  0  0  0  0  0  0
    4.8217   -8.0485    0.0000 C   0  0  0  0  0  0  0  0  0  0  0  0
    4.6918   -6.7132    0.0000 C   0  0  0  0  0  0  0  0  0  0  0  0
    5.7489   -5.9529    0.0000 C   0  0  0  0  0  0  0  0  0  0  0  0
    5.6191   -4.6177    0.0000 C   0  0  0  0  0  0  0  0  0  0  0  0
    6.6947   -3.8388    0.0000 C   0  0  0  0  0  0  0  0  0  0  0  0
    6.5463   -2.5221    0.0000 C   0  0  0  0  0  0  0  0  0  0  0  0
    8.9015    0.0000    0.0000 C   0  0  0  0  0  0  0  0  0  0  0  0
    7.6219   -0.4080    0.0000 C   0  0  0  0  0  0  0  0  0  0  0  0
    8.9015   -2.1512    0.0000 C   0  0  0  0  0  0  0  0  0  0  0  0
    9.6619   -1.0756    0.0000 N   0  3  0  0  0  0  0  0  0  0  0  0
    7.6219   -1.7247    0.0000 N   0  0  0  0  0  0  0  0  0  0  0  0
    5.2853  -17.3580    0.0000 F   0  0  0  0  0  0  0  0  0  0  0  0
    5.9714  -18.5078    0.0000 F   0  0  0  0  0  0  0  0  0  0  0  0
    7.2696  -18.5078    0.0000 F   0  0  0  0  0  0  0  0  0  0  0  0
    7.2696  -16.2082    0.0000 F   0  0  0  0  0  0  0  0  0  0  0  0
    5.9714  -16.2082    0.0000 F   0  0  0  0  0  0  0  0  0  0  0  0
    7.9557  -17.3580    0.0000 F   0  0  0  0  0  0  0  0  0  0  0  0
    6.6020  -17.3580    0.0000 P   0  5  0  0  0  0  0  0  0  0  0  0
  1  3  1  0  0  0  0
  2 21  1  0  0  0  0
  3  4  1  0  0  0  0
  4  5  1  0  0  0  0
  5  6  1  0  0  0  0
  6  7  1  0  0  0  0
  7  8  1  0  0  0  0
  8  9  1  0  0  0  0
  9 10  1  0  0  0  0
 10 11  1  0  0  0  0
 11 12  1  0  0  0  0
 12 13  1  0  0  0  0
 13 14  1  0  0  0  0
 14 15  1  0  0  0  0
 15 16  1  0  0  0  0
 16 17  1  0  0  0  0
 17 22  1  0  0  0  0
 18 19  2  0  0  0  0
 18 21  1  0  0  0  0
 19 22  1  0  0  0  0
 20 21  2  0  0  0  0
 20 22  1  0  0  0  0
 23 29  1  0  0  0  0
 24 29  1  0  0  0  0
 25 29  1  0  0  0  0
 26 29  1  0  0  0  0
 27 29  1  0  0  0  0
 28 29  1  0  0  0  0
M  END
> <ID>
14112

> <Formula>
C20H39F6N2P

> <FW>
452.5012 (307.5365+144.9647)

> <DSSTox_CID>
29105

> <DSSTox_RID>
83324

> <DSSTox_GSID>
49249

> <DSSTox_FileID_Sort>
7999

> <TS_ChemName>
1-Hexadecyl-3-methylimidazolium hexafluorophosphate

> <TS_ChemName_Synonyms>


> <TS_CASRN>
219947-95-2

> <CASRN_ChemName_Relationship>
primary

> <TS_Description>
single chemical compound

> <ChemNote>


> <STRUCTURE_Shown>
tested chemical

> <STRUCTURE_Formula>
C20H39F6N2P

> <STRUCTURE_MW>
452.5012

> <STRUCTURE_ChemType>
defined organic

> <STRUCTURE_DefinedOrganicForm>
complex

> <STRUCTURE_IUPAC>
1-hexadecyl-3-methyl-1H-imidazol-3-ium hexafluorophosphate

> <STRUCTURE_SMILES>
F[P-](F)(F)(F)(F)F.C[n+]1ccn(CCCCCCCCCCCCCCCC)c1

> <STRUCTURE_SMILES_Desalt>
C[n+]1ccn(CCCCCCCCCCCCCCCC)c1

> <Substance_modify_yyyymmdd>
20111204

$$$$
