219947-93-0
ChemmineR-0915142007XD

 25 24  0  0  0  0  0  0  0  0  2 V2000
   16.4488   -4.7250    0.0000 P   0  5  0  0  0  0  0  0  0  0  0  0
   15.1343   -4.7250    0.0000 F   0  0  0  0  0  0  0  0  0  0  0  0
   17.1060   -5.8619    0.0000 F   0  0  0  0  0  0  0  0  0  0  0  0
   17.1060   -3.5882    0.0000 F   0  0  0  0  0  0  0  0  0  0  0  0
   15.7915   -5.8619    0.0000 F   0  0  0  0  0  0  0  0  0  0  0  0
   15.7915   -3.5882    0.0000 F   0  0  0  0  0  0  0  0  0  0  0  0
   17.7632   -4.7250    0.0000 F   0  0  0  0  0  0  0  0  0  0  0  0
   15.8981   -1.0658    0.0000 N   0  3  0  0  0  0  0  0  0  0  0  0
   13.8020   -1.7053    0.0000 N   0  0  0  0  0  0  0  0  0  0  0  0
   15.1165   -2.1671    0.0000 C   0  0  0  0  0  0  0  0  0  0  0  0
   15.1165    0.0000    0.0000 C   0  0  0  0  0  0  0  0  0  0  0  0
   13.8020   -0.3908    0.0000 C   0  0  0  0  0  0  0  0  0  0  0  0
   12.7540   -2.5046    0.0000 C   0  0  0  0  0  0  0  0  0  0  0  0
   11.5106   -1.9717    0.0000 C   0  0  0  0  0  0  0  0  0  0  0  0
   10.4448   -2.7533    0.0000 C   0  0  0  0  0  0  0  0  0  0  0  0
    9.1836   -2.1671    0.0000 C   0  0  0  0  0  0  0  0  0  0  0  0
    8.0823   -2.9487    0.0000 C   0  0  0  0  0  0  0  0  0  0  0  0
    6.8389   -2.4336    0.0000 C   0  0  0  0  0  0  0  0  0  0  0  0
    5.7908   -3.2151    0.0000 C   0  0  0  0  0  0  0  0  0  0  0  0
    4.5474   -2.6823    0.0000 C   0  0  0  0  0  0  0  0  0  0  0  0
    3.4283   -3.4105    0.0000 C   0  0  0  0  0  0  0  0  0  0  0  0
    2.2559   -2.8954    0.0000 C   0  0  0  0  0  0  0  0  0  0  0  0
   17.2126   -1.0658    0.0000 C   0  0  0  0  0  0  0  0  0  0  0  0
    1.2079   -3.6592    0.0000 C   0  0  0  0  0  0  0  0  0  0  0  0
    0.0000   -3.1263    0.0000 C   0  0  0  0  0  0  0  0  0  0  0  0
  1  2  1  0  0  0  0
  1  3  1  0  0  0  0
  1  4  1  0  0  0  0
  1  5  1  0  0  0  0
  1  6  1  0  0  0  0
  1  7  1  0  0  0  0
  8 10  2  0  0  0  0
  8 11  1  0  0  0  0
  8 23  1  0  0  0  0
  9 10  1  0  0  0  0
  9 12  1  0  0  0  0
  9 13  1  0  0  0  0
 11 12  2  0  0  0  0
 13 14  1  0  0  0  0
 14 15  1  0  0  0  0
 15 16  1  0  0  0  0
 16 17  1  0  0  0  0
 17 18  1  0  0  0  0
 18 19  1  0  0  0  0
 19 20  1  0  0  0  0
 20 21  1  0  0  0  0
 21 22  1  0  0  0  0
 22 24  1  0  0  0  0
 24 25  1  0  0  0  0
M  END
> <ID>
12994

> <Formula>
C16H31F6N2P

> <FW>
396.3949 (144.9647+251.4302)

> <DSSTox_CID>
27895

> <DSSTox_RID>
82648

> <DSSTox_GSID>
47919

> <DSSTox_FileID_Sort>
7325

> <TS_ChemName>
1-Dodecyl-3-methylimidazolium hexafluorophosphate

> <TS_ChemName_Synonyms>


> <TS_CASRN>
219947-93-0

> <CASRN_ChemName_Relationship>
primary

> <TS_Description>
single chemical compound

> <ChemNote>
ammonium; parent [46928-10-3]

> <STRUCTURE_Shown>
tested chemical

> <STRUCTURE_Formula>
C16H31F6N2P

> <STRUCTURE_MW>
396.3949

> <STRUCTURE_ChemType>
defined organic

> <STRUCTURE_DefinedOrganicForm>
salt

> <STRUCTURE_IUPAC>
1-dodecyl-3-methyl-1H-imidazol-3-ium hexafluorophosphate

> <STRUCTURE_SMILES>
F[P-](F)(F)(F)(F)F.C[n+]1ccn(CCCCCCCCCCCC)c1

> <STRUCTURE_SMILES_Desalt>
C[n+]1ccn(CCCCCCCCCCCC)c1

> <Substance_modify_yyyymmdd>
20110419

$$$$
