219947-94-1
ChemmineR-0915142007XD

 27 26  0  0  0  0  0  0  0  0  2 V2000
    0.1214  -16.4425    0.0000 C   0  0  0  0  0  0  0  0  0  0  0  0
   10.0598   -1.0927    0.0000 C   0  0  0  0  0  0  0  0  0  0  0  0
    0.0000  -15.1243    0.0000 C   0  0  0  0  0  0  0  0  0  0  0  0
    1.0754  -14.3612    0.0000 C   0  0  0  0  0  0  0  0  0  0  0  0
    0.9193  -13.0257    0.0000 C   0  0  0  0  0  0  0  0  0  0  0  0
    1.9946  -12.2452    0.0000 C   0  0  0  0  0  0  0  0  0  0  0  0
    1.8732  -10.9270    0.0000 C   0  0  0  0  0  0  0  0  0  0  0  0
    2.9312  -10.1638    0.0000 C   0  0  0  0  0  0  0  0  0  0  0  0
    2.8098   -8.8283    0.0000 C   0  0  0  0  0  0  0  0  0  0  0  0
    3.8852   -8.0305    0.0000 C   0  0  0  0  0  0  0  0  0  0  0  0
    3.7291   -6.7296    0.0000 C   0  0  0  0  0  0  0  0  0  0  0  0
    4.8044   -5.9491    0.0000 C   0  0  0  0  0  0  0  0  0  0  0  0
    4.6830   -4.6136    0.0000 C   0  0  0  0  0  0  0  0  0  0  0  0
    5.7410   -3.8331    0.0000 C   0  0  0  0  0  0  0  0  0  0  0  0
    5.6023   -2.5149    0.0000 C   0  0  0  0  0  0  0  0  0  0  0  0
    7.9611    0.0000    0.0000 C   0  0  0  0  0  0  0  0  0  0  0  0
    6.6776   -0.3989    0.0000 C   0  0  0  0  0  0  0  0  0  0  0  0
    7.9611   -2.1507    0.0000 C   0  0  0  0  0  0  0  0  0  0  0  0
    8.7416   -1.0927    0.0000 N   0  3  0  0  0  0  0  0  0  0  0  0
    6.6776   -1.7344    0.0000 N   0  0  0  0  0  0  0  0  0  0  0  0
    4.3535  -16.2170    0.0000 F   0  0  0  0  0  0  0  0  0  0  0  0
    5.0125  -17.3444    0.0000 F   0  0  0  0  0  0  0  0  0  0  0  0
    6.3481  -17.3444    0.0000 F   0  0  0  0  0  0  0  0  0  0  0  0
    6.3481  -15.0376    0.0000 F   0  0  0  0  0  0  0  0  0  0  0  0
    5.0125  -15.0376    0.0000 F   0  0  0  0  0  0  0  0  0  0  0  0
    7.0245  -16.2170    0.0000 F   0  0  0  0  0  0  0  0  0  0  0  0
    5.6890  -16.2170    0.0000 P   0  5  0  0  0  0  0  0  0  0  0  0
  1  3  1  0  0  0  0
  2 19  1  0  0  0  0
  3  4  1  0  0  0  0
  4  5  1  0  0  0  0
  5  6  1  0  0  0  0
  6  7  1  0  0  0  0
  7  8  1  0  0  0  0
  8  9  1  0  0  0  0
  9 10  1  0  0  0  0
 10 11  1  0  0  0  0
 11 12  1  0  0  0  0
 12 13  1  0  0  0  0
 13 14  1  0  0  0  0
 14 15  1  0  0  0  0
 15 20  1  0  0  0  0
 16 17  2  0  0  0  0
 16 19  1  0  0  0  0
 17 20  1  0  0  0  0
 18 19  2  0  0  0  0
 18 20  1  0  0  0  0
 21 27  1  0  0  0  0
 22 27  1  0  0  0  0
 23 27  1  0  0  0  0
 24 27  1  0  0  0  0
 25 27  1  0  0  0  0
 26 27  1  0  0  0  0
M  END
> <ID>
14111

> <Formula>
C18H35F6N2P

> <FW>
424.4481 (279.4834+144.9647)

> <DSSTox_CID>
29104

> <DSSTox_RID>
83323

> <DSSTox_GSID>
49248

> <DSSTox_FileID_Sort>
7998

> <TS_ChemName>
1-Methyl-3-tetradecylimidazolium hexafluorophosphate

> <TS_ChemName_Synonyms>


> <TS_CASRN>
219947-94-1

> <CASRN_ChemName_Relationship>
primary

> <TS_Description>
single chemical compound

> <ChemNote>


> <STRUCTURE_Shown>
tested chemical

> <STRUCTURE_Formula>
C18H35F6N2P

> <STRUCTURE_MW>
424.4481

> <STRUCTURE_ChemType>
defined organic

> <STRUCTURE_DefinedOrganicForm>
complex

> <STRUCTURE_IUPAC>
3-methyl-1-tetradecyl-1H-imidazol-3-ium hexafluorophosphate

> <STRUCTURE_SMILES>
F[P-](F)(F)(F)(F)F.C[n+]1ccn(CCCCCCCCCCCCCC)c1

> <STRUCTURE_SMILES_Desalt>
C[n+]1ccn(CCCCCCCCCCCCCC)c1

> <Substance_modify_yyyymmdd>
20111204

$$$$
