220127-57-1
ChemmineR-0915142007XD

 42 45  0  0  0  0  0  0  0  0  1 V2000
    1.1595   -3.9818    0.0000 C   0  0  0  0  0  0  0  0  0  0  0  0
    1.1595   -2.6472    0.0000 N   0  0  0  0  0  0  0  0  0  0  0  0
    2.2972   -1.9909    0.0000 C   0  0  0  0  0  0  0  0  0  0  0  0
    3.4567   -2.6472    0.0000 C   0  0  0  0  0  0  0  0  0  0  0  0
    3.4567   -3.9818    0.0000 N   0  0  0  0  0  0  0  0  0  0  0  0
    2.2972   -4.6600    0.0000 C   0  0  0  0  0  0  0  0  0  0  0  0
    0.0000   -1.9909    0.0000 C   0  0  0  0  0  0  0  0  0  0  0  0
    4.6162   -4.6600    0.0000 C   0  0  0  0  0  0  0  0  0  0  0  0
    5.7539   -3.9818    0.0000 C   0  0  0  0  0  0  0  0  0  0  0  0
    5.7539   -2.6472    0.0000 C   0  0  0  0  0  0  0  0  0  0  0  0
    6.9134   -1.9909    0.0000 C   0  0  0  0  0  0  0  0  0  0  0  0
    8.0510   -2.6472    0.0000 C   0  0  0  0  0  0  0  0  0  0  0  0
    8.0510   -3.9818    0.0000 C   0  0  0  0  0  0  0  0  0  0  0  0
    6.9134   -4.6600    0.0000 C   0  0  0  0  0  0  0  0  0  0  0  0
    9.2106   -1.9909    0.0000 C   0  0  0  0  0  0  0  0  0  0  0  0
   10.3701   -2.6472    0.0000 N   0  0  0  0  0  0  0  0  0  0  0  0
    9.2106   -0.6563    0.0000 O   0  0  0  0  0  0  0  0  0  0  0  0
   11.5077   -1.9909    0.0000 C   0  0  0  0  0  0  0  0  0  0  0  0
   12.6673   -2.6472    0.0000 C   0  0  0  0  0  0  0  0  0  0  0  0
   13.8268   -1.9909    0.0000 C   0  0  0  0  0  0  0  0  0  0  0  0
   13.8268   -0.6563    0.0000 C   0  0  0  0  0  0  0  0  0  0  0  0
   12.6673    0.0000    0.0000 C   0  0  0  0  0  0  0  0  0  0  0  0
   11.5077   -0.6563    0.0000 C   0  0  0  0  0  0  0  0  0  0  0  0
   14.9644    0.0000    0.0000 C   0  0  0  0  0  0  0  0  0  0  0  0
   14.9644   -2.6472    0.0000 N   0  0  0  0  0  0  0  0  0  0  0  0
   16.1240   -1.9909    0.0000 C   0  0  0  0  0  0  0  0  0  0  0  0
   16.1240   -0.6563    0.0000 N   0  0  0  0  0  0  0  0  0  0  0  0
   17.2616    0.0000    0.0000 C   0  0  0  0  0  0  0  0  0  0  0  0
   18.4211   -0.6563    0.0000 C   0  0  0  0  0  0  0  0  0  0  0  0
   18.4211   -1.9909    0.0000 C   0  0  0  0  0  0  0  0  0  0  0  0
   17.2616   -2.6472    0.0000 N   0  0  0  0  0  0  0  0  0  0  0  0
   19.5807   -2.6472    0.0000 C   0  0  0  0  0  0  0  0  0  0  0  0
   20.7183   -1.9909    0.0000 C   0  0  0  0  0  0  0  0  0  0  0  0
   21.8778   -2.6472    0.0000 C   0  0  0  0  0  0  0  0  0  0  0  0
   21.8778   -3.9818    0.0000 C   0  0  0  0  0  0  0  0  0  0  0  0
   20.7183   -4.6600    0.0000 N   0  0  0  0  0  0  0  0  0  0  0  0
   19.5807   -3.9818    0.0000 C   0  0  0  0  0  0  0  0  0  0  0  0
    9.8231   -5.0319    0.0000 C   0  0  0  0  0  0  0  0  0  0  0  0
   11.1577   -5.0319    0.0000 S   0  0  0  0  0  0  0  0  0  0  0  0
   11.1577   -3.6974    0.0000 O   0  0  0  0  0  0  0  0  0  0  0  0
   11.1577   -6.3664    0.0000 O   0  0  0  0  0  0  0  0  0  0  0  0
   12.4922   -5.0319    0.0000 O   0  0  0  0  0  0  0  0  0  0  0  0
  1  2  1  0  0  0  0
  1  6  1  0  0  0  0
  2  3  1  0  0  0  0
  2  7  1  0  0  0  0
  3  4  1  0  0  0  0
  4  5  1  0  0  0  0
  5  6  1  0  0  0  0
  5  8  1  0  0  0  0
  8  9  1  0  0  0  0
  9 10  2  0  0  0  0
  9 14  1  0  0  0  0
 10 11  1  0  0  0  0
 11 12  2  0  0  0  0
 12 13  1  0  0  0  0
 12 15  1  0  0  0  0
 13 14  2  0  0  0  0
 15 16  1  0  0  0  0
 15 17  2  0  0  0  0
 16 18  1  0  0  0  0
 18 19  2  0  0  0  0
 18 23  1  0  0  0  0
 19 20  1  0  0  0  0
 20 21  2  0  0  0  0
 20 25  1  0  0  0  0
 21 22  1  0  0  0  0
 21 24  1  0  0  0  0
 22 23  2  0  0  0  0
 25 26  1  0  0  0  0
 26 27  2  0  0  0  0
 26 31  1  0  0  0  0
 27 28  1  0  0  0  0
 28 29  2  0  0  0  0
 29 30  1  0  0  0  0
 30 31  2  0  0  0  0
 30 32  1  0  0  0  0
 32 33  2  0  0  0  0
 32 37  1  0  0  0  0
 33 34  1  0  0  0  0
 34 35  2  0  0  0  0
 35 36  1  0  0  0  0
 36 37  2  0  0  0  0
 38 39  1  0  0  0  0
 39 40  2  0  0  0  0
 39 41  2  0  0  0  0
 39 42  1  0  0  0  0
M  END
> <ID>
7780

> <Formula>
C30H35N7O4S

> <FW>
589.7084 (493.6027+96.1057)

> <DSSTox_CID>
20502

> <DSSTox_RID>
79501

> <DSSTox_GSID>
40502

> <DSSTox_FileID_Sort>
4183

> <TS_ChemName>
Imatinib mesylate

> <TS_ChemName_Synonyms>
Imatinib Mesylate (STI571)

> <TS_CASRN>
220127-57-1

> <CASRN_ChemName_Relationship>
primary

> <TS_Description>
single chemical compound

> <ChemNote>
parent [152459-95-5]

> <STRUCTURE_Shown>
tested chemical

> <STRUCTURE_Formula>
C30H35N7O4S

> <STRUCTURE_MW>
589.7084

> <STRUCTURE_ChemType>
defined organic

> <STRUCTURE_DefinedOrganicForm>
complex

> <STRUCTURE_IUPAC>
4-[(4-methylpiperazin-1-yl)methyl]-N-(4-methyl-3-{[4-(pyridin-3-yl)pyrimidin-2-yl]amino}phenyl)benzamide methanesulfonate (1:1)

> <STRUCTURE_SMILES>
CS(=O)(=O)O.Cc3ccc(cc3Nc1nc(ccn1)c2cccnc2)NC(=O)c4ccc(cc4)CN5CCN(C)CC5

> <STRUCTURE_SMILES_Desalt>
Cc3ccc(cc3Nc1nc(ccn1)c2cccnc2)NC(=O)c4ccc(cc4)CN5CCN(C)CC5

> <Substance_modify_yyyymmdd>
20080429

$$$$
