2201-39-0
ChemmineR-0915142007XD

 17 19  0  0  0  0  0  0  0  0  1 V2000
    2.3019   -3.3094    0.0000 C   0  0  0  0  0  0  0  0  0  0  0  0
    2.3019   -4.6438    0.0000 C   0  0  0  0  0  0  0  0  0  0  0  0
    3.4561   -2.6355    0.0000 C   0  0  0  0  0  0  0  0  0  0  0  0
    3.4561   -5.3043    0.0000 C   0  0  0  0  0  0  0  0  0  0  0  0
    4.5971   -3.3094    0.0000 C   0  0  0  0  0  0  0  0  0  0  0  0
    4.5971   -4.6438    0.0000 C   0  0  0  0  0  0  0  0  0  0  0  0
    2.3019   -1.9950    0.0000 C   0  0  0  0  0  0  0  0  0  0  0  0
    4.6304   -1.9950    0.0000 N   0  0  0  0  0  0  0  0  0  0  0  0
    0.0000   -0.6605    0.0000 C   0  0  0  0  0  0  0  0  0  0  0  0
    0.0000   -1.9950    0.0000 C   0  0  0  0  0  0  0  0  0  0  0  0
    1.1276    0.0000    0.0000 C   0  0  0  0  0  0  0  0  0  0  0  0
    1.1276   -2.6688    0.0000 C   0  0  0  0  0  0  0  0  0  0  0  0
    2.3019   -0.6605    0.0000 C   0  0  0  0  0  0  0  0  0  0  0  0
    6.6721   -1.3144    0.0000 C   0  0  0  0  0  0  0  0  0  0  0  0
    5.8848   -0.2402    0.0000 C   0  0  0  0  0  0  0  0  0  0  0  0
    5.8848   -2.3953    0.0000 C   0  0  0  0  0  0  0  0  0  0  0  0
    4.6304   -0.6605    0.0000 C   0  0  0  0  0  0  0  0  0  0  0  0
  1  2  1  0  0  0  0
  1  3  1  0  0  0  0
  2  4  1  0  0  0  0
  3  5  1  0  0  0  0
  3  7  1  0  0  0  0
  3  8  1  0  0  0  0
  4  6  1  0  0  0  0
  5  6  1  0  0  0  0
  7 12  1  0  0  0  0
  7 13  2  0  0  0  0
  8 16  1  0  0  0  0
  8 17  1  0  0  0  0
  9 10  1  0  0  0  0
  9 11  2  0  0  0  0
 10 12  2  0  0  0  0
 11 13  1  0  0  0  0
 14 15  1  0  0  0  0
 14 16  1  0  0  0  0
 15 17  1  0  0  0  0
M  END
> <ID>
11466

> <Formula>
C16H23N

> <FW>
229.3605

> <DSSTox_CID>
26167

> <DSSTox_RID>
81398

> <DSSTox_GSID>
46167

> <DSSTox_FileID_Sort>
6079

> <TS_ChemName>
Rolicyclidine

> <TS_ChemName_Synonyms>


> <TS_CASRN>
2201-39-0

> <CASRN_ChemName_Relationship>
primary

> <TS_Description>
single chemical compound

> <ChemNote>


> <STRUCTURE_Shown>
tested chemical

> <STRUCTURE_Formula>
C16H23N

> <STRUCTURE_MW>
229.3605

> <STRUCTURE_ChemType>
defined organic

> <STRUCTURE_DefinedOrganicForm>
parent

> <STRUCTURE_IUPAC>
1-(1-phenylcyclohexyl)pyrrolidine

> <STRUCTURE_SMILES>
C1CCC(CC1)(c2ccccc2)N3CCCC3

> <STRUCTURE_SMILES_Desalt>
C1CCC(CC1)(c2ccccc2)N3CCCC3

> <Substance_modify_yyyymmdd>
20110818

$$$$
