22047-25-2
ChemmineR-0915142007XD

  9  9  0  0  0  0  0  0  0  0  1 V2000
    2.0017   -0.0187    0.0000 N   0  0  0  0  0  0  0  0  0  0  0  0
    0.6922   -2.3104    0.0000 N   0  0  0  0  0  0  0  0  0  0  0  0
    2.6939   -1.1646    0.0000 C   0  0  0  0  0  0  0  0  0  0  0  0
    0.0000   -1.1646    0.0000 C   0  0  0  0  0  0  0  0  0  0  0  0
    2.0017   -2.3104    0.0000 C   0  0  0  0  0  0  0  0  0  0  0  0
    0.6922   -0.0187    0.0000 C   0  0  0  0  0  0  0  0  0  0  0  0
    4.0175   -1.1646    0.0000 C   0  0  0  0  0  0  0  0  0  0  0  0
    4.6769    0.0000    0.0000 O   0  0  0  0  0  0  0  0  0  0  0  0
    4.6769   -2.3244    0.0000 C   0  0  0  0  0  0  0  0  0  0  0  0
  1  3  2  0  0  0  0
  1  6  1  0  0  0  0
  2  4  1  0  0  0  0
  2  5  2  0  0  0  0
  3  5  1  0  0  0  0
  3  7  1  0  0  0  0
  4  6  2  0  0  0  0
  7  8  2  0  0  0  0
  7  9  1  0  0  0  0
M  END
> <ID>
12236

> <Formula>
C6H6N2O

> <FW>
122.1246

> <DSSTox_CID>
27085

> <DSSTox_RID>
82097

> <DSSTox_GSID>
47085

> <DSSTox_FileID_Sort>
6778

> <TS_ChemName>
Acetylpyrazine

> <TS_ChemName_Synonyms>


> <TS_CASRN>
22047-25-2

> <CASRN_ChemName_Relationship>
primary

> <TS_Description>
single chemical compound

> <ChemNote>


> <STRUCTURE_Shown>
tested chemical

> <STRUCTURE_Formula>
C6H6N2O

> <STRUCTURE_MW>
122.1246

> <STRUCTURE_ChemType>
defined organic

> <STRUCTURE_DefinedOrganicForm>
parent

> <STRUCTURE_IUPAC>
1-(pyrazin-2-yl)ethanone

> <STRUCTURE_SMILES>
CC(=O)c1cnccn1

> <STRUCTURE_SMILES_Desalt>
CC(=O)c1cnccn1

> <Substance_modify_yyyymmdd>
20100429

$$$$
