22047-49-0
ChemmineR-0915142007XD

 28 27  0  0  0  0  0  0  0  0  1 V2000
    8.0758   -2.6550    0.0000 C   0  0  0  0  0  0  0  0  0  0  0  0
    9.2373   -1.9913    0.0000 C   0  0  0  0  0  0  0  0  0  0  0  0
   10.3713   -2.6550    0.0000 C   0  0  0  0  0  0  0  0  0  0  0  0
   11.5329   -1.9913    0.0000 C   0  0  0  0  0  0  0  0  0  0  0  0
   12.6944   -2.6550    0.0000 C   0  0  0  0  0  0  0  0  0  0  0  0
   13.8284   -1.9913    0.0000 C   0  0  0  0  0  0  0  0  0  0  0  0
   14.9623   -2.6550    0.0000 C   0  0  0  0  0  0  0  0  0  0  0  0
   16.1239   -1.9913    0.0000 C   0  0  0  0  0  0  0  0  0  0  0  0
   17.2855   -2.6550    0.0000 C   0  0  0  0  0  0  0  0  0  0  0  0
   18.4470   -1.9913    0.0000 C   0  0  0  0  0  0  0  0  0  0  0  0
   19.6086   -2.6550    0.0000 C   0  0  0  0  0  0  0  0  0  0  0  0
   20.7425   -1.9913    0.0000 C   0  0  0  0  0  0  0  0  0  0  0  0
   21.9041   -2.6550    0.0000 C   0  0  0  0  0  0  0  0  0  0  0  0
   23.0381   -1.9913    0.0000 C   0  0  0  0  0  0  0  0  0  0  0  0
   24.2273   -2.6550    0.0000 C   0  0  0  0  0  0  0  0  0  0  0  0
   25.3612   -1.9913    0.0000 C   0  0  0  0  0  0  0  0  0  0  0  0
   26.4951   -2.6550    0.0000 C   0  0  0  0  0  0  0  0  0  0  0  0
   27.6567   -1.9913    0.0000 C   0  0  0  0  0  0  0  0  0  0  0  0
    8.0758   -3.9826    0.0000 O   0  0  0  0  0  0  0  0  0  0  0  0
    6.9142   -1.9913    0.0000 O   0  0  0  0  0  0  0  0  0  0  0  0
    5.7526   -2.6550    0.0000 C   0  0  0  0  0  0  0  0  0  0  0  0
    4.6187   -1.9913    0.0000 C   0  0  0  0  0  0  0  0  0  0  0  0
    3.4571   -2.6550    0.0000 C   0  0  0  0  0  0  0  0  0  0  0  0
    2.2955   -1.9913    0.0000 C   0  0  0  0  0  0  0  0  0  0  0  0
    1.1616   -2.6550    0.0000 C   0  0  0  0  0  0  0  0  0  0  0  0
    0.0000   -1.9913    0.0000 C   0  0  0  0  0  0  0  0  0  0  0  0
    4.6187   -0.6638    0.0000 C   0  0  0  0  0  0  0  0  0  0  0  0
    3.4571    0.0000    0.0000 C   0  0  0  0  0  0  0  0  0  0  0  0
  1  2  1  0  0  0  0
  1 20  1  0  0  0  0
  1 19  2  0  0  0  0
  2  3  1  0  0  0  0
  3  4  1  0  0  0  0
  4  5  1  0  0  0  0
  5  6  1  0  0  0  0
  6  7  1  0  0  0  0
  7  8  1  0  0  0  0
  8  9  1  0  0  0  0
  9 10  1  0  0  0  0
 10 11  1  0  0  0  0
 11 12  1  0  0  0  0
 12 13  1  0  0  0  0
 13 14  1  0  0  0  0
 14 15  1  0  0  0  0
 15 16  1  0  0  0  0
 16 17  1  0  0  0  0
 17 18  1  0  0  0  0
 20 21  1  0  0  0  0
 21 22  1  0  0  0  0
 22 23  1  0  0  0  0
 22 27  1  0  0  0  0
 23 24  1  0  0  0  0
 24 25  1  0  0  0  0
 25 26  1  0  0  0  0
 27 28  1  0  0  0  0
M  END
> <ID>
12325

> <Formula>
C26H52O2

> <FW>
396.6899

> <DSSTox_CID>
27178

> <DSSTox_RID>
82175

> <DSSTox_GSID>
47178

> <DSSTox_FileID_Sort>
6856

> <TS_ChemName>
2-Ethylhexyl octadecanoate

> <TS_ChemName_Synonyms>
2-Ethylhexyl octadecanoate (Isooctyl stearate)

> <TS_CASRN>
22047-49-0

> <CASRN_ChemName_Relationship>
primary

> <TS_Description>
single chemical compound

> <ChemNote>


> <STRUCTURE_Shown>
tested chemical

> <STRUCTURE_Formula>
C26H52O2

> <STRUCTURE_MW>
396.6899

> <STRUCTURE_ChemType>
defined organic

> <STRUCTURE_DefinedOrganicForm>
parent

> <STRUCTURE_IUPAC>
2-ethylhexyl octadecanoate

> <STRUCTURE_SMILES>
O=C(CCCCCCCCCCCCCCCCC)OCC(CCCC)CC

> <STRUCTURE_SMILES_Desalt>
O=C(CCCCCCCCCCCCCCCCC)OCC(CCCC)CC

> <Substance_modify_yyyymmdd>
20100503

$$$$
