220620-09-7
ChemmineR-0915142007XD

 44 47  0  0  1  0  0  0  0  0  1 V2000
   14.9733   -1.3277    0.0000 C   0  0  0  0  0  0  0  0  0  0  0  0
   16.1166   -1.9915    0.0000 C   0  0  0  0  0  0  0  0  0  0  0  0
   16.1166   -3.3192    0.0000 C   0  0  0  0  0  0  0  0  0  0  0  0
   14.9733   -3.9830    0.0000 C   0  0  0  0  0  0  0  0  0  0  0  0
   13.8300   -3.3192    0.0000 C   0  0  0  0  0  0  0  0  0  0  0  0
   12.6683   -3.9830    0.0000 C   0  0  0  0  0  0  0  0  0  0  0  0
   11.5066   -3.3192    0.0000 C   0  0  0  0  0  0  0  0  0  0  0  0
   10.3633   -3.9830    0.0000 C   0  0  0  0  0  0  0  0  0  0  0  0
    9.2016   -3.3192    0.0000 C   0  0  0  0  0  0  0  0  0  0  0  0
    8.0583   -3.9830    0.0000 C   0  0  0  0  0  0  0  0  0  0  0  0
    6.9150   -3.3192    0.0000 C   0  0  0  0  0  0  0  0  0  0  0  0
    6.9150   -1.9915    0.0000 C   0  0  0  0  0  0  0  0  0  0  0  0
    8.0583   -1.3277    0.0000 C   0  0  0  0  0  0  0  0  0  0  0  0
    9.2016   -1.9915    0.0000 C   0  0  0  0  0  0  0  0  0  0  0  0
   10.3633   -1.3277    0.0000 C   0  0  0  0  0  0  0  0  0  0  0  0
   11.5066   -1.9915    0.0000 C   0  0  0  0  0  0  0  0  0  0  0  0
   12.6683   -1.3277    0.0000 C   0  0  0  0  0  0  0  0  0  0  0  0
   13.8300   -1.9915    0.0000 C   0  0  0  0  0  0  0  0  0  0  0  0
   17.2967   -1.3277    0.0000 C   0  0  0  0  0  0  0  0  0  0  0  0
   17.2967    0.0000    0.0000 O   0  0  0  0  0  0  0  0  0  0  0  0
   18.4400   -1.9915    0.0000 N   0  0  0  0  0  0  0  0  0  0  0  0
   10.3633    0.0000    0.0000 O   0  0  0  0  0  0  0  0  0  0  0  0
   14.9733    0.0000    0.0000 O   0  0  0  0  0  0  0  0  0  0  0  0
   13.8300   -0.6638    0.0000 O   0  0  0  0  0  0  0  0  0  0  0  0
   12.6683    0.0000    0.0000 O   0  0  0  0  0  0  0  0  0  0  0  0
    8.0583    0.0000    0.0000 O   0  0  0  0  0  0  0  0  0  0  0  0
   17.2967   -3.9830    0.0000 O   0  0  0  0  0  0  0  0  0  0  0  0
    5.7348   -1.3277    0.0000 N   0  0  0  0  0  0  0  0  0  0  0  0
    8.0583   -5.3292    0.0000 N   0  0  0  0  0  0  0  0  0  0  0  0
    6.9150   -5.9930    0.0000 C   0  0  0  0  0  0  0  0  0  0  0  0
    9.2016   -5.9930    0.0000 C   0  0  0  0  0  0  0  0  0  0  0  0
   14.9733   -5.3292    0.0000 N   0  0  0  0  0  0  0  0  0  0  0  0
   16.1166   -5.9930    0.0000 C   0  0  0  0  0  0  0  0  0  0  0  0
   13.8300   -5.9930    0.0000 C   0  0  0  0  0  0  0  0  0  0  0  0
   13.8300   -4.6653    0.0000 H   0  0  0  0  0  0  0  0  0  0  0  0
   11.5066   -4.6653    0.0000 H   0  0  0  0  0  0  0  0  0  0  0  0
    4.5916   -1.9915    0.0000 C   0  0  0  0  0  0  0  0  0  0  0  0
    3.4298   -1.3461    0.0000 C   0  0  0  0  0  0  0  0  0  0  0  0
    4.6100   -3.3192    0.0000 O   0  0  0  0  0  0  0  0  0  0  0  0
    2.3050   -2.0100    0.0000 N   0  0  0  0  0  0  0  0  0  0  0  0
    1.1433   -1.3461    0.0000 C   0  0  0  0  0  0  0  0  0  0  0  0
    0.0000   -2.0100    0.0000 C   0  0  0  0  0  0  0  0  0  0  0  0
    1.1433   -0.0184    0.0000 C   0  0  0  0  0  0  0  0  0  0  0  0
    1.1433   -2.6738    0.0000 C   0  0  0  0  0  0  0  0  0  0  0  0
  1  2  1  0  0  0  0
  1 18  1  0  0  0  0
  1 23  2  0  0  0  0
  2  3  2  0  0  0  0
  2 19  1  0  0  0  0
  3  4  1  0  0  0  0
  3 27  1  0  0  0  0
  4  5  1  0  0  0  0
  4 32  1  1  0  0  0
  5  6  1  0  0  0  0
  5 18  1  0  0  0  0
  5 35  1  1  0  0  0
  6  7  1  0  0  0  0
  7  8  1  0  0  0  0
  7 16  1  0  0  0  0
  7 36  1  1  0  0  0
  8  9  1  0  0  0  0
  9 10  1  0  0  0  0
  9 14  2  0  0  0  0
 10 11  2  0  0  0  0
 10 29  1  0  0  0  0
 11 12  1  0  0  0  0
 12 13  2  0  0  0  0
 12 28  1  0  0  0  0
 13 14  1  0  0  0  0
 13 26  1  0  0  0  0
 14 15  1  0  0  0  0
 15 16  1  0  0  0  0
 15 22  2  0  0  0  0
 16 17  2  0  0  0  0
 17 18  1  0  0  0  0
 17 25  1  0  0  0  0
 18 24  1  1  0  0  0
 19 20  2  0  0  0  0
 19 21  1  0  0  0  0
 28 37  1  0  0  0  0
 29 30  1  0  0  0  0
 29 31  1  0  0  0  0
 32 33  1  0  0  0  0
 32 34  1  0  0  0  0
 37 38  1  0  0  0  0
 37 39  2  0  0  0  0
 38 40  1  0  0  0  0
 40 41  1  0  0  0  0
 41 42  1  0  0  0  0
 41 43  1  0  0  0  0
 41 44  1  0  0  0  0
M  END
> <ID>
13580

> <Formula>
C29H39N5O8

> <FW>
585.6487

> <DSSTox_CID>
28507

> <DSSTox_RID>
82779

> <DSSTox_GSID>
48581

> <DSSTox_FileID_Sort>
7456

> <TS_ChemName>
Tigecycline

> <TS_ChemName_Synonyms>


> <TS_CASRN>
220620-09-7

> <CASRN_ChemName_Relationship>
primary

> <TS_Description>
single chemical compound

> <ChemNote>


> <STRUCTURE_Shown>
tested chemical

> <STRUCTURE_Formula>
C29H39N5O8

> <STRUCTURE_MW>
585.6487

> <STRUCTURE_ChemType>
defined organic

> <STRUCTURE_DefinedOrganicForm>
parent

> <STRUCTURE_IUPAC>
(4S,4aS,5aR,12aS)-9-[(N-tert-butylglycyl)amino]-4,7-bis(dimethylamino)-3,10,12,12a-tetrahydroxy-1,11-dioxo-1,4,4a,5,5a,6,11,12a-octahydrotetracene-2-carboxamide

> <STRUCTURE_SMILES>
CC(C)(C)NCC(=O)Nc1cc(N(C)C)c2C[C@H]3C[C@H]4[C@@H](C(O)=C(C(=O)[C@@]4(O)C(O)=C3C(=O)c2c1O)C(N)=O)N(C)C

> <STRUCTURE_SMILES_Desalt>
CC(C)(C)NCC(=O)Nc1cc(N(C)C)c2C[C@H]3C[C@H]4[C@@H](C(O)=C(C(=O)[C@@]4(O)C(O)=C3C(=O)c2c1O)C(N)=O)N(C)C

> <Substance_modify_yyyymmdd>
20111014

$$$$
