2207-75-2
ChemmineR-0915142007XD

 12 11  0  0  0  0  0  0  0  0  2 V2000
    0.0000    0.0000    0.0000 O   0  0  0  0  0  0  0  0  0  0  0  0
    1.1543   -0.6763    0.0000 C   0  0  0  0  0  0  0  0  0  0  0  0
    1.1543   -2.0036    0.0000 N   0  0  0  0  0  0  0  0  0  0  0  0
    2.2934   -2.6647    0.0000 C   0  0  0  0  0  0  0  0  0  0  0  0
    3.4478   -2.0036    0.0000 N   0  0  0  0  0  0  0  0  0  0  0  0
    3.4478   -0.6763    0.0000 C   0  0  0  0  0  0  0  0  0  0  0  0
    2.2934    0.0000    0.0000 N   0  0  0  0  0  0  0  0  0  0  0  0
    4.6021    0.0000    0.0000 O   0  0  0  0  0  0  0  0  0  0  0  0
    2.2934   -3.9970    0.0000 C   0  0  0  0  0  0  0  0  0  0  0  0
    1.1543   -4.6682    0.0000 O   0  5  0  0  0  0  0  0  0  0  0  0
    3.4478   -4.6682    0.0000 O   0  0  0  0  0  0  0  0  0  0  0  0
    5.0852   -4.6377    0.0000 K   0  3  0  0  0  0  0  0  0  0  0  0
  1  2  1  0  0  0  0
  2  3  2  0  0  0  0
  2  7  1  0  0  0  0
  3  4  1  0  0  0  0
  4  5  2  0  0  0  0
  4  9  1  0  0  0  0
  5  6  1  0  0  0  0
  6  7  2  0  0  0  0
  6  8  1  0  0  0  0
  9 10  1  0  0  0  0
  9 11  2  0  0  0  0
M  END
> <ID>
11793

> <Formula>
C4H2KN3O4

> <FW>
195.1747 (156.0769+39.0978)

> <DSSTox_CID>
26568

> <DSSTox_RID>
81727

> <DSSTox_GSID>
46568

> <DSSTox_FileID_Sort>
6408

> <TS_ChemName>
Potassium oxonate

> <TS_ChemName_Synonyms>


> <TS_CASRN>
2207-75-2

> <CASRN_ChemName_Relationship>
primary

> <TS_Description>
single chemical compound

> <ChemNote>
tautomers; parent [937-13-3]

> <STRUCTURE_Shown>
tested chemical

> <STRUCTURE_Formula>
C4H2KN3O4

> <STRUCTURE_MW>
195.1747

> <STRUCTURE_ChemType>
defined organic

> <STRUCTURE_DefinedOrganicForm>
salt

> <STRUCTURE_IUPAC>
potassium 4,6-dihydroxy-1,3,5-triazine-2-carboxylate

> <STRUCTURE_SMILES>
[K+].O=C([O-])c1nc(O)nc(O)n1

> <STRUCTURE_SMILES_Desalt>
OC(=O)c1nc(O)nc(O)n1

> <Substance_modify_yyyymmdd>
20110810

$$$$
