220860-50-4
ChemmineR-0915142007XD

 24 26  0  0  0  0  0  0  0  0  1 V2000
    5.7688   -2.0079    0.0000 C   0  0  0  0  0  0  0  0  0  0  0  0
    5.7688   -3.3414    0.0000 C   0  0  0  0  0  0  0  0  0  0  0  0
    6.9226   -1.3486    0.0000 C   0  0  0  0  0  0  0  0  0  0  0  0
    4.6151   -1.3486    0.0000 N   0  0  0  0  0  0  0  0  0  0  0  0
    6.9226   -4.0007    0.0000 N   0  0  0  0  0  0  0  0  0  0  0  0
    4.6151   -4.0007    0.0000 C   0  0  0  0  0  0  0  0  0  0  0  0
    8.0614   -2.0079    0.0000 C   0  0  0  0  0  0  0  0  0  0  0  0
    6.9226   -0.0150    0.0000 O   0  0  0  0  0  0  0  0  0  0  0  0
    3.4463   -2.0079    0.0000 C   0  0  0  0  0  0  0  0  0  0  0  0
    8.0614   -3.3264    0.0000 C   0  0  0  0  0  0  0  0  0  0  0  0
    3.4463   -3.3414    0.0000 C   0  0  0  0  0  0  0  0  0  0  0  0
    9.2151   -1.3336    0.0000 C   0  0  0  0  0  0  0  0  0  0  0  0
    2.2925   -1.3486    0.0000 O   0  0  0  0  0  0  0  0  0  0  0  0
   10.3689   -2.0079    0.0000 N   0  0  0  0  0  0  0  0  0  0  0  0
    9.2151    0.0000    0.0000 O   0  0  0  0  0  0  0  0  0  0  0  0
    1.1538   -2.0079    0.0000 C   0  0  0  0  0  0  0  0  0  0  0  0
   11.5377   -1.3336    0.0000 C   0  0  0  0  0  0  0  0  0  0  0  0
    0.0000   -1.3486    0.0000 C   0  0  0  0  0  0  0  0  0  0  0  0
   12.6914   -2.0079    0.0000 C   0  0  0  0  0  0  0  0  0  0  0  0
   12.6914   -3.3264    0.0000 C   0  0  0  0  0  0  0  0  0  0  0  0
   13.8302   -1.3336    0.0000 C   0  0  0  0  0  0  0  0  0  0  0  0
   13.8302   -4.0007    0.0000 C   0  0  0  0  0  0  0  0  0  0  0  0
   14.9840   -2.0079    0.0000 C   0  0  0  0  0  0  0  0  0  0  0  0
   14.9840   -3.3264    0.0000 C   0  0  0  0  0  0  0  0  0  0  0  0
  1  2  2  0  0  0  0
  1  3  1  0  0  0  0
  1  4  1  0  0  0  0
  2  5  1  0  0  0  0
  2  6  1  0  0  0  0
  3  7  1  0  0  0  0
  3  8  2  0  0  0  0
  4  9  2  0  0  0  0
  5 10  1  0  0  0  0
  6 11  2  0  0  0  0
  7 12  1  0  0  0  0
  7 10  2  0  0  0  0
  9 13  1  0  0  0  0
  9 11  1  0  0  0  0
 12 14  1  0  0  0  0
 12 15  2  0  0  0  0
 13 16  1  0  0  0  0
 14 17  1  0  0  0  0
 16 18  1  0  0  0  0
 17 19  1  0  0  0  0
 19 20  2  0  0  0  0
 19 21  1  0  0  0  0
 20 22  1  0  0  0  0
 21 23  2  0  0  0  0
 22 24  2  0  0  0  0
 23 24  1  0  0  0  0
M  END
> <ID>
12396

> <Formula>
C18H17N3O3

> <FW>
323.3459

> <DSSTox_CID>
27254

> <DSSTox_RID>
82213

> <DSSTox_GSID>
47254

> <DSSTox_FileID_Sort>
6894

> <TS_ChemName>
CP-457920

> <TS_ChemName_Synonyms>


> <TS_CASRN>
220860-50-4

> <CASRN_ChemName_Relationship>
primary

> <TS_Description>
single chemical compound

> <ChemNote>


> <STRUCTURE_Shown>
tested chemical

> <STRUCTURE_Formula>
C18H17N3O3

> <STRUCTURE_MW>
323.3459

> <STRUCTURE_ChemType>
defined organic

> <STRUCTURE_DefinedOrganicForm>
parent

> <STRUCTURE_IUPAC>
N-benzyl-6-ethoxy-4-oxo-1,4-dihydro-1,5-naphthyridine-3-carboxamide

> <STRUCTURE_SMILES>
CCOc1ccc2NC=C(C(=O)c2n1)C(=O)NCc3ccccc3

> <STRUCTURE_SMILES_Desalt>
CCOc1ccc2NC=C(C(=O)c2n1)C(=O)NCc3ccccc3

> <Substance_modify_yyyymmdd>
20130910

$$$$
