2210-79-9
ChemmineR-0915142007XD

 12 13  0  0  0  0  0  0  0  0  1 V2000
    3.6359   -2.6578    0.0000 O   0  0  0  0  0  0  0  0  0  0  0  0
    2.4806   -1.9987    0.0000 C   0  0  0  0  0  0  0  0  0  0  0  0
    1.3325   -2.6578    0.0000 C   0  0  0  0  0  0  0  0  0  0  0  0
    0.6662   -3.8131    0.0000 C   0  0  0  0  0  0  0  0  0  0  0  0
    0.0000   -2.6578    0.0000 O   0  0  0  0  0  0  0  0  0  0  0  0
    4.7841   -1.9987    0.0000 C   0  0  0  0  0  0  0  0  0  0  0  0
    4.7841   -0.6662    0.0000 C   0  0  0  0  0  0  0  0  0  0  0  0
    5.9393    0.0000    0.0000 C   0  0  0  0  0  0  0  0  0  0  0  0
    7.0875   -0.6662    0.0000 C   0  0  0  0  0  0  0  0  0  0  0  0
    7.0875   -1.9987    0.0000 C   0  0  0  0  0  0  0  0  0  0  0  0
    5.9393   -2.6578    0.0000 C   0  0  0  0  0  0  0  0  0  0  0  0
    5.9393   -3.9903    0.0000 C   0  0  0  0  0  0  0  0  0  0  0  0
  1  2  1  0  0  0  0
  1  6  1  0  0  0  0
  2  3  1  0  0  0  0
  3  4  1  0  0  0  0
  3  5  1  0  0  0  0
  4  5  1  0  0  0  0
  6  7  2  0  0  0  0
  6 11  1  0  0  0  0
  7  8  1  0  0  0  0
  8  9  2  0  0  0  0
  9 10  1  0  0  0  0
 10 11  2  0  0  0  0
 11 12  1  0  0  0  0
M  END
> <ID>
3886

> <Formula>
C10H12O2

> <FW>
164.2011

> <DSSTox_CID>
4862

> <DSSTox_RID>
77556

> <DSSTox_GSID>
24862

> <DSSTox_FileID_Sort>
2239

> <TS_ChemName>
o-Cresyl glycidyl ether

> <TS_ChemName_Synonyms>
o-Cresyl glycidyl ether (Oxirane, [(2-methylphenoxy)methyl]-)

> <TS_CASRN>
2210-79-9

> <CASRN_ChemName_Relationship>
primary

> <TS_Description>
single chemical compound

> <ChemNote>


> <STRUCTURE_Shown>
tested chemical

> <STRUCTURE_Formula>
C10H12O2

> <STRUCTURE_MW>
164.2011

> <STRUCTURE_ChemType>
defined organic

> <STRUCTURE_DefinedOrganicForm>
parent

> <STRUCTURE_IUPAC>
2-[(2-methylphenoxy)methyl]oxirane

> <STRUCTURE_SMILES>
Cc2ccccc2OCC1CO1

> <STRUCTURE_SMILES_Desalt>
Cc2ccccc2OCC1CO1

> <Substance_modify_yyyymmdd>
20080429

$$$$
