2210-25-5
ChemmineR-0915142007XD

  8  7  0  0  0  0  0  0  0  0  1 V2000
    2.3115   -1.3291    0.0000 C   0  0  0  0  0  0  0  0  0  0  0  0
    2.3115    0.0000    0.0000 O   0  0  0  0  0  0  0  0  0  0  0  0
    1.1558   -1.9879    0.0000 C   0  0  0  0  0  0  0  0  0  0  0  0
    0.0000   -1.3291    0.0000 C   0  0  0  0  0  0  0  0  0  0  0  0
    3.4673   -1.9879    0.0000 N   0  0  0  0  0  0  0  0  0  0  0  0
    4.6231   -1.3291    0.0000 C   0  0  0  0  0  0  0  0  0  0  0  0
    5.7789   -1.9879    0.0000 C   0  0  0  0  0  0  0  0  0  0  0  0
    4.6231    0.0000    0.0000 C   0  0  0  0  0  0  0  0  0  0  0  0
  1  2  2  0  0  0  0
  1  3  1  0  0  0  0
  1  5  1  0  0  0  0
  3  4  2  0  0  0  0
  5  6  1  0  0  0  0
  6  7  1  0  0  0  0
  6  8  1  0  0  0  0
M  END
> <ID>
6644

> <Formula>
C6H11NO

> <FW>
113.1576

> <DSSTox_CID>
13754

> <DSSTox_RID>
79094

> <DSSTox_GSID>
33754

> <DSSTox_FileID_Sort>
3776

> <TS_ChemName>
N-Isopropylacrylamide

> <TS_ChemName_Synonyms>


> <TS_CASRN>
2210-25-5

> <CASRN_ChemName_Relationship>
primary

> <TS_Description>
single chemical compound

> <ChemNote>


> <STRUCTURE_Shown>
tested chemical

> <STRUCTURE_Formula>
C6H11NO

> <STRUCTURE_MW>
113.1576

> <STRUCTURE_ChemType>
defined organic

> <STRUCTURE_DefinedOrganicForm>
parent

> <STRUCTURE_IUPAC>
N-(propan-2-yl)prop-2-enamide

> <STRUCTURE_SMILES>
CC(C)NC(=O)C=C

> <STRUCTURE_SMILES_Desalt>
CC(C)NC(=O)C=C

> <Substance_modify_yyyymmdd>
20080429

$$$$
