2210-77-7
ChemmineR-0915142007XD

 17 18  0  0  0  0  0  0  0  0  1 V2000
    2.3184   -3.4261    0.0000 C   0  0  0  0  0  0  0  0  0  0  0  0
    2.3184   -2.0889    0.0000 N   0  0  0  0  0  0  0  0  0  0  0  0
    3.4736   -1.4322    0.0000 C   0  0  0  0  0  0  0  0  0  0  0  0
    5.7761   -1.4322    0.0000 N   0  0  0  0  0  0  0  0  0  0  0  0
    4.6130   -2.0889    0.0000 C   0  0  0  0  0  0  0  0  0  0  0  0
    3.4736   -4.0987    0.0000 C   0  0  0  0  0  0  0  0  0  0  0  0
    1.1552   -4.0987    0.0000 C   0  0  0  0  0  0  0  0  0  0  0  0
    3.4736   -0.0950    0.0000 O   0  0  0  0  0  0  0  0  0  0  0  0
    6.0452   -0.1266    0.0000 C   0  0  0  0  0  0  0  0  0  0  0  0
    6.9155   -2.0889    0.0000 C   0  0  0  0  0  0  0  0  0  0  0  0
    2.3184   -6.0768    0.0000 C   0  0  0  0  0  0  0  0  0  0  0  0
    3.4736   -5.4201    0.0000 C   0  0  0  0  0  0  0  0  0  0  0  0
    1.1552   -5.4201    0.0000 C   0  0  0  0  0  0  0  0  0  0  0  0
    4.6130   -3.4261    0.0000 C   0  0  0  0  0  0  0  0  0  0  0  0
    0.0000   -3.4103    0.0000 C   0  0  0  0  0  0  0  0  0  0  0  0
    7.3665    0.0000    0.0000 C   0  0  0  0  0  0  0  0  0  0  0  0
    7.9125   -1.2027    0.0000 C   0  0  0  0  0  0  0  0  0  0  0  0
  1  2  1  0  0  0  0
  1  6  1  0  0  0  0
  1  7  2  0  0  0  0
  2  3  1  0  0  0  0
  3  5  1  0  0  0  0
  3  8  2  0  0  0  0
  4  5  1  0  0  0  0
  4  9  1  0  0  0  0
  4 10  1  0  0  0  0
  6 12  2  0  0  0  0
  6 14  1  0  0  0  0
  7 13  1  0  0  0  0
  7 15  1  0  0  0  0
  9 16  1  0  0  0  0
 10 17  1  0  0  0  0
 11 13  2  0  0  0  0
 11 12  1  0  0  0  0
 16 17  1  0  0  0  0
M  END
> <ID>
11449

> <Formula>
C14H20N2O

> <FW>
232.3214

> <DSSTox_CID>
26150

> <DSSTox_RID>
81381

> <DSSTox_GSID>
46150

> <DSSTox_FileID_Sort>
6062

> <TS_ChemName>
Pyrrocaine

> <TS_ChemName_Synonyms>


> <TS_CASRN>
2210-77-7

> <CASRN_ChemName_Relationship>
primary

> <TS_Description>
single chemical compound

> <ChemNote>


> <STRUCTURE_Shown>
tested chemical

> <STRUCTURE_Formula>
C14H20N2O

> <STRUCTURE_MW>
232.3214

> <STRUCTURE_ChemType>
defined organic

> <STRUCTURE_DefinedOrganicForm>
parent

> <STRUCTURE_IUPAC>
N-(2,6-dimethylphenyl)-2-(pyrrolidin-1-yl)acetamide

> <STRUCTURE_SMILES>
O=C(Nc1c(C)cccc1C)CN2CCCC2

> <STRUCTURE_SMILES_Desalt>
O=C(Nc1c(C)cccc1C)CN2CCCC2

> <Substance_modify_yyyymmdd>
20110818

$$$$
