22113-88-8
ChemmineR-0915142007XD

  8  6  0  0  0  0  0  0  0  0  2 V2000
    3.5114   -0.9853    0.0000 N   0  0  0  0  0  0  0  0  0  0  0  0
    2.2965   -1.5260    0.0000 C   0  0  0  0  0  0  0  0  0  0  0  0
    1.2149   -0.7556    0.0000 C   0  0  0  0  0  0  0  0  0  0  0  0
    0.0000   -1.3038    0.0000 C   0  0  0  0  0  0  0  0  0  0  0  0
    6.7339   -1.1408    0.0000 N   0  3  0  0  0  0  0  0  0  0  0  0
    7.3932   -2.2965    0.0000 O   0  0  0  0  0  0  0  0  0  0  0  0
    7.4080    0.0000    0.0000 O   0  0  0  0  0  0  0  0  0  0  0  0
    5.4004   -1.1112    0.0000 O   0  5  0  0  0  0  0  0  0  0  0  0
  1  2  1  0  0  0  0
  2  3  1  0  0  0  0
  3  4  1  0  0  0  0
  5  6  1  0  0  0  0
  5  7  2  0  0  0  0
  5  8  1  0  0  0  0
M  END
> <ID>
13002

> <Formula>
C3H10N2O3

> <FW>
122.1231 (59.1103+63.0128)

> <DSSTox_CID>
27903

> <DSSTox_RID>
82656

> <DSSTox_GSID>
47927

> <DSSTox_FileID_Sort>
7333

> <TS_ChemName>
Propylammonium nitrate

> <TS_ChemName_Synonyms>


> <TS_CASRN>
22113-88-8

> <CASRN_ChemName_Relationship>
primary

> <TS_Description>
single chemical compound

> <ChemNote>
ammonium; parent [107-10-8]

> <STRUCTURE_Shown>
tested chemical

> <STRUCTURE_Formula>
C3H10N2O3

> <STRUCTURE_MW>
122.1231

> <STRUCTURE_ChemType>
defined organic

> <STRUCTURE_DefinedOrganicForm>
complex

> <STRUCTURE_IUPAC>
propan-1-amine nitrate (1:1)

> <STRUCTURE_SMILES>
CCCN.[O-][N+](=O)O

> <STRUCTURE_SMILES_Desalt>
CCCN

> <Substance_modify_yyyymmdd>
20110417

$$$$
