22113-86-6
ChemmineR-0915142007XD

  7  5  0  0  0  0  0  0  0  0  2 V2000
    1.9929   -0.5580    0.0000 N   0  0  0  0  0  0  0  0  0  0  0  0
    0.6577   -0.5580    0.0000 C   0  0  0  0  0  0  0  0  0  0  0  0
    0.0000   -1.7139    0.0000 C   0  0  0  0  0  0  0  0  0  0  0  0
    5.9721   -1.1360    0.0000 N   0  3  0  0  0  0  0  0  0  0  0  0
    6.6298   -2.2919    0.0000 O   0  5  0  0  0  0  0  0  0  0  0  0
    6.6430    0.0000    0.0000 O   0  0  0  0  0  0  0  0  0  0  0  0
    4.6368   -1.1027    0.0000 O   0  0  0  0  0  0  0  0  0  0  0  0
  1  2  1  0  0  0  0
  2  3  1  0  0  0  0
  4  5  1  0  0  0  0
  4  6  2  0  0  0  0
  4  7  1  0  0  0  0
M  END
> <ID>
12976

> <Formula>
C2H8N2O3

> <FW>
108.0965 (45.0837+63.0128)

> <DSSTox_CID>
27877

> <DSSTox_RID>
82630

> <DSSTox_GSID>
47901

> <DSSTox_FileID_Sort>
7307

> <TS_ChemName>
Ethylammonium nitrate

> <TS_ChemName_Synonyms>


> <TS_CASRN>
22113-86-6

> <CASRN_ChemName_Relationship>
primary

> <TS_Description>
single chemical compound

> <ChemNote>
parent [75-04-7]

> <STRUCTURE_Shown>
tested chemical

> <STRUCTURE_Formula>
C2H8N2O3

> <STRUCTURE_MW>
108.0965

> <STRUCTURE_ChemType>
defined organic

> <STRUCTURE_DefinedOrganicForm>
salt

> <STRUCTURE_IUPAC>
ethanamine nitrate (1:1)

> <STRUCTURE_SMILES>
CCN.[O-][N+](=O)O

> <STRUCTURE_SMILES_Desalt>
[O-][N+](=O)O

> <Substance_modify_yyyymmdd>
20110419

$$$$
