221246-12-4
ChemmineR-0915142007XD

 37 40  0  0  0  0  0  0  0  0  2 V2000
    3.4678   -5.4444    0.0000 C   0  0  0  0  0  0  0  0  0  0  0  0
    4.6353   -6.1149    0.0000 C   0  0  0  0  0  0  0  0  0  0  0  0
    2.3119   -6.1149    0.0000 C   0  0  0  0  0  0  0  0  0  0  0  0
    3.4678   -4.1036    0.0000 C   0  0  0  0  0  0  0  0  0  0  0  0
    4.6353   -7.4442    0.0000 N   0  0  0  0  0  0  0  0  0  0  0  0
    5.7797   -5.4444    0.0000 C   0  0  0  0  0  0  0  0  0  0  0  0
    2.3119   -7.4442    0.0000 C   0  0  0  0  0  0  0  0  0  0  0  0
    1.1444   -5.4444    0.0000 C   0  0  0  0  0  0  0  0  0  0  0  0
    2.3119   -3.4331    0.0000 C   0  0  0  0  0  0  0  0  0  0  0  0
    4.6353   -3.4331    0.0000 C   0  0  0  0  0  0  0  0  0  0  0  0
    5.7797   -8.1031    0.0000 C   0  0  0  0  0  0  0  0  0  0  0  0
    3.4678   -8.1031    0.0000 S   0  0  0  0  0  0  0  0  0  0  0  0
    6.9471   -6.1033    0.0000 O   0  5  0  0  0  0  0  0  0  0  0  0
    5.7797   -4.1036    0.0000 O   0  0  0  0  0  0  0  0  0  0  0  0
    1.1444   -8.1031    0.0000 C   0  0  0  0  0  0  0  0  0  0  0  0
    0.0000   -6.1149    0.0000 C   0  0  0  0  0  0  0  0  0  0  0  0
    2.3119   -2.1038    0.0000 C   0  0  0  0  0  0  0  0  0  0  0  0
    4.6353   -2.1038    0.0000 C   0  0  0  0  0  0  0  0  0  0  0  0
    5.7797   -9.4440    0.0000 C   0  0  0  0  0  0  0  0  0  0  0  0
    6.9471   -7.4442    0.0000 C   0  0  0  0  0  0  0  0  0  0  0  0
    4.2654   -8.7620    0.0000 O   0  0  0  0  0  0  0  0  0  0  0  0
    2.3119   -8.7851    0.0000 O   0  0  0  0  0  0  0  0  0  0  0  0
    0.0000   -7.4442    0.0000 C   0  0  0  0  0  0  0  0  0  0  0  0
    3.4678   -1.4334    0.0000 C   0  0  0  0  0  0  0  0  0  0  0  0
    1.3062   -1.2137    0.0000 O   0  0  0  0  0  0  0  0  0  0  0  0
    5.7797   -1.4334    0.0000 C   0  0  0  0  0  0  0  0  0  0  0  0
    6.9471  -10.1260    0.0000 C   0  0  0  0  0  0  0  0  0  0  0  0
    4.9243  -10.5074    0.0000 C   0  0  0  0  0  0  0  0  0  0  0  0
    8.0915   -8.1031    0.0000 C   0  0  0  0  0  0  0  0  0  0  0  0
    3.1788   -0.1272    0.0000 O   0  0  0  0  0  0  0  0  0  0  0  0
    1.8610    0.0000    0.0000 C   0  0  0  0  0  0  0  0  0  0  0  0
    5.5369   -0.1272    0.0000 C   0  0  0  0  0  0  0  0  0  0  0  0
    8.0915   -9.4440    0.0000 C   0  0  0  0  0  0  0  0  0  0  0  0
    4.0804  -11.5593    0.0000 F   0  0  0  0  0  0  0  0  0  0  0  0
    5.9877  -11.3628    0.0000 F   0  0  0  0  0  0  0  0  0  0  0  0
    3.8724   -9.6520    0.0000 F   0  0  0  0  0  0  0  0  0  0  0  0
    9.0741   -4.5197    0.0000 K   0  3  0  0  0  0  0  0  0  0  0  0
  1  2  2  0  0  0  0
  1  3  1  0  0  0  0
  1  4  1  0  0  0  0
  2  5  1  0  0  0  0
  2  6  1  0  0  0  0
  3  7  2  0  0  0  0
  3  8  1  0  0  0  0
  4  9  2  0  0  0  0
  4 10  1  0  0  0  0
  5 11  1  0  0  0  0
  5 12  1  0  0  0  0
  6 13  1  0  0  0  0
  6 14  2  0  0  0  0
  7 15  1  0  0  0  0
  7 12  1  0  0  0  0
  8 16  2  0  0  0  0
  9 17  1  0  0  0  0
 10 18  2  0  0  0  0
 11 19  1  0  0  0  0
 11 20  2  0  0  0  0
 12 21  2  0  0  0  0
 12 22  2  0  0  0  0
 15 23  2  0  0  0  0
 16 23  1  0  0  0  0
 17 24  2  0  0  0  0
 17 25  1  0  0  0  0
 18 26  1  0  0  0  0
 18 24  1  0  0  0  0
 19 27  2  0  0  0  0
 19 28  1  0  0  0  0
 20 29  1  0  0  0  0
 24 30  1  0  0  0  0
 25 31  1  0  0  0  0
 26 32  1  0  0  0  0
 27 33  1  0  0  0  0
 28 34  1  0  0  0  0
 28 35  1  0  0  0  0
 28 36  1  0  0  0  0
 29 33  2  0  0  0  0
 30 31  1  0  0  0  0
M  END
> <ID>
12391

> <Formula>
C25H17F3KNO6S

> <FW>
555.5641 (516.4663+39.0978)

> <DSSTox_CID>
27249

> <DSSTox_RID>
82209

> <DSSTox_GSID>
47249

> <DSSTox_FileID_Sort>
6890

> <TS_ChemName>
Fandosentan potassium salt

> <TS_ChemName_Synonyms>


> <TS_CASRN>
221246-12-4

> <CASRN_ChemName_Relationship>
primary

> <TS_Description>
single chemical compound

> <ChemNote>


> <STRUCTURE_Shown>
tested chemical

> <STRUCTURE_Formula>
C25H17F3KNO6S

> <STRUCTURE_MW>
555.5641

> <STRUCTURE_ChemType>
defined organic

> <STRUCTURE_DefinedOrganicForm>
salt

> <STRUCTURE_IUPAC>
potassium 4-(7-ethyl-1,3-benzodioxol-5-yl)-2-[2-(trifluoromethyl)phenyl]-2H-1,2-benzothiazine-3-carboxylate 1,1-dioxide

> <STRUCTURE_SMILES>
[K+].FC(F)(F)c5ccccc5N2C(=C(c1ccccc1S2(=O)=O)c3cc(CC)c4OCOc4c3)C([O-])=O

> <STRUCTURE_SMILES_Desalt>
FC(F)(F)c5ccccc5N2C(=C(c1ccccc1S2(=O)=O)c3cc(CC)c4OCOc4c3)C(=O)O

> <Substance_modify_yyyymmdd>
20130910

$$$$
