22131-79-9
ChemmineR-0915142007XD

 15 15  0  0  0  0  0  0  0  0  1 V2000
    5.7597   -2.0304    0.0000 C    0  0  0  0  0  0  0  0  0  0  0  0
    1.1706   -2.0304    0.0000 C    0  0  0  0  0  0  0  0  0  0  0  0
    5.7597   -0.7148    0.0000 C    0  0  0  0  0  0  0  0  0  0  0  0
    4.6306   -2.7038    0.0000 C    0  0  0  0  0  0  0  0  0  0  0  0
    3.4807   -2.0304    0.0000 C    0  0  0  0  0  0  0  0  0  0  0  0
    0.0000   -2.7038    0.0000 O    0  0  0  0  0  0  0  0  0  0  0  0
    2.3101   -2.7038    0.0000 C    0  0  0  0  0  0  0  0  0  0  0  0
    4.6306   -0.0414    0.0000 C    0  0  0  0  0  0  0  0  0  0  0  0
    9.2094    0.0000    0.0000 C    0  0  0  0  0  0  0  0  0  0  0  0
   10.3592   -0.6526    0.0000 C    0  0  0  0  0  0  0  0  0  0  0  0
    6.9096   -2.7245    0.0000 Cl   0  0  0  0  0  0  0  0  0  0  0  0
    3.4807   -0.7148    0.0000 C    0  0  0  0  0  0  0  0  0  0  0  0
    1.1706   -0.7148    0.0000 O    0  0  0  0  0  0  0  0  0  0  0  0
    6.9096   -0.0104    0.0000 O    0  0  0  0  0  0  0  0  0  0  0  0
    8.0802   -0.6837    0.0000 C    0  0  0  0  0  0  0  0  0  0  0  0
  1  3  1  0  0  0  0
  1  4  2  0  0  0  0
  1 11  1  0  0  0  0
  2  7  1  0  0  0  0
  2  6  2  0  0  0  0
  2 13  1  0  0  0  0
  3  8  2  0  0  0  0
  3 14  1  0  0  0  0
  4  5  1  0  0  0  0
  5  7  1  0  0  0  0
  5 12  2  0  0  0  0
  8 12  1  0  0  0  0
  9 15  1  0  0  0  0
  9 10  2  0  0  0  0
 14 15  1  0  0  0  0
M  END
> <ID>
37

> <Formula>
C11H11ClO3

> <FW>
226.6562

> <DSSTox_CID>
38

> <DSSTox_RID>
75332

> <DSSTox_GSID>
20038

> <DSSTox_FileID_Sort>
16

> <TS_ChemName>
Alclofenac

> <TS_ChemName_Synonyms>


> <TS_CASRN>
22131-79-9

> <CASRN_ChemName_Relationship>
primary

> <TS_Description>
single chemical compound

> <ChemNote>


> <STRUCTURE_Shown>
tested chemical

> <STRUCTURE_Formula>
C11H11ClO3

> <STRUCTURE_MW>
226.6562

> <STRUCTURE_ChemType>
defined organic

> <STRUCTURE_DefinedOrganicForm>
parent

> <STRUCTURE_IUPAC>
[3-chloro-4-(prop-2-en-1-yloxy)phenyl]acetic acid

> <STRUCTURE_SMILES>
Clc1cc(ccc1OCC=C)CC(=O)O

> <STRUCTURE_SMILES_Desalt>
Clc1cc(ccc1OCC=C)CC(=O)O

> <Substance_modify_yyyymmdd>
20080429

$$$$
