221671-62-1
ChemmineR-0915142007XD

 49 52  0  0  0  0  0  0  0  0  1 V2000
    3.4756   -4.1472    0.0000 C    0  0  0  0  0  0  0  0  0  0  0  0
    3.4756   -5.4904    0.0000 C    0  0  0  0  0  0  0  0  0  0  0  0
    2.3171   -3.4588    0.0000 C    0  0  0  0  0  0  0  0  0  0  0  0
    2.3171   -6.1453    0.0000 C    0  0  0  0  0  0  0  0  0  0  0  0
    1.1585   -4.1472    0.0000 C    0  0  0  0  0  0  0  0  0  0  0  0
    1.1585   -5.4904    0.0000 C    0  0  0  0  0  0  0  0  0  0  0  0
    4.7517   -3.7275    0.0000 N    0  0  0  0  0  0  0  0  0  0  0  0
    5.5408   -4.8020    0.0000 C    0  0  0  0  0  0  0  0  0  0  0  0
    4.7517   -5.9102    0.0000 C    0  0  0  0  0  0  0  0  0  0  0  0
    0.0000   -6.1453    0.0000 C    0  0  0  0  0  0  0  0  0  0  0  0
    2.3171   -2.1324    0.0000 C    0  0  0  0  0  0  0  0  0  0  0  0
    5.1714   -2.4514    0.0000 C    0  0  0  0  0  0  0  0  0  0  0  0
    6.4811   -2.1827    0.0000 C    0  0  0  0  0  0  0  0  0  0  0  0
    6.9008   -0.9067    0.0000 O    0  0  0  0  0  0  0  0  0  0  0  0
    7.3710   -3.1734    0.0000 O    0  0  0  0  0  0  0  0  0  0  0  0
    6.8840   -4.8020    0.0000 C    0  0  0  0  0  0  0  0  0  0  0  0
    7.5557   -5.9606    0.0000 N    0  0  0  0  0  0  0  0  0  0  0  0
    8.8821   -5.9606    0.0000 C    0  0  0  0  0  0  0  0  0  0  0  0
    9.5873   -4.8356    0.0000 S    0  0  0  0  0  0  0  0  0  0  0  0
    9.7552   -6.9680    0.0000 N    0  0  0  0  0  0  0  0  0  0  0  0
   10.8633   -5.1043    0.0000 C    0  0  0  0  0  0  0  0  0  0  0  0
   10.9977   -6.4475    0.0000 C    0  0  0  0  0  0  0  0  0  0  0  0
   12.1226   -7.1527    0.0000 C    0  0  0  0  0  0  0  0  0  0  0  0
   14.4733   -7.1527    0.0000 C    0  0  0  0  0  0  0  0  0  0  0  0
   14.4733   -8.4791    0.0000 C    0  0  0  0  0  0  0  0  0  0  0  0
   13.3147   -6.4811    0.0000 C    0  0  0  0  0  0  0  0  0  0  0  0
   13.3147   -9.1507    0.0000 C    0  0  0  0  0  0  0  0  0  0  0  0
   12.1226   -8.4791    0.0000 C    0  0  0  0  0  0  0  0  0  0  0  0
   11.8876   -4.2480    0.0000 C    0  0  0  0  0  0  0  0  0  0  0  0
   11.6357   -2.9215    0.0000 C    0  0  0  0  0  0  0  0  0  0  0  0
   12.6431   -2.0484    0.0000 C    0  0  0  0  0  0  0  0  0  0  0  0
   14.9434   -1.9645    0.0000 C    0  0  0  0  0  0  0  0  0  0  0  0
   13.8352   -2.6697    0.0000 C    0  0  0  0  0  0  0  0  0  0  0  0
   14.9098   -0.6045    0.0000 C    0  0  0  0  0  0  0  0  0  0  0  0
   13.7177    0.0000    0.0000 C    0  0  0  0  0  0  0  0  0  0  0  0
   12.5928   -0.7220    0.0000 C    0  0  0  0  0  0  0  0  0  0  0  0
   10.9809   -9.1507    0.0000 O    0  0  0  0  0  0  0  0  0  0  0  0
    9.8223   -8.4791    0.0000 C    0  0  0  0  0  0  0  0  0  0  0  0
   15.6318   -9.1507    0.0000 Cl   0  0  0  0  0  0  0  0  0  0  0  0
   15.6318   -6.4811    0.0000 O    0  0  0  0  0  0  0  0  0  0  0  0
   16.7903   -7.1527    0.0000 C    0  0  0  0  0  0  0  0  0  0  0  0
    7.3542   -4.0633    0.0000 O    0  0  0  0  0  0  0  0  0  0  0  0
    5.1714   -9.2851    0.0000 C    0  0  0  0  0  0  0  0  0  0  0  0
    5.1714  -10.6283    0.0000 O    0  0  0  0  0  0  0  0  0  0  0  0
    6.3467   -8.6134    0.0000 O    0  0  0  0  0  0  0  0  0  0  0  0
    4.0297   -8.6134    0.0000 C    0  0  0  0  0  0  0  0  0  0  0  0
    4.0297   -7.2702    0.0000 F    0  0  0  0  0  0  0  0  0  0  0  0
    2.8544   -9.2851    0.0000 F    0  0  0  0  0  0  0  0  0  0  0  0
    2.8544   -7.9586    0.0000 F    0  0  0  0  0  0  0  0  0  0  0  0
  1  3  2  0  0  0  0
  1  7  1  0  0  0  0
  1  2  1  0  0  0  0
  2  4  2  0  0  0  0
  2  9  1  0  0  0  0
  3  5  1  0  0  0  0
  3 11  1  0  0  0  0
  4  6  1  0  0  0  0
  5  6  2  0  0  0  0
  6 10  1  0  0  0  0
  7  8  1  0  0  0  0
  7 12  1  0  0  0  0
  8  9  2  0  0  0  0
  8 16  1  0  0  0  0
 12 13  1  0  0  0  0
 13 14  2  0  0  0  0
 13 15  1  0  0  0  0
 16 17  1  0  0  0  0
 16 42  2  0  0  0  0
 17 18  1  0  0  0  0
 18 19  1  0  0  0  0
 18 20  2  0  0  0  0
 19 21  1  0  0  0  0
 20 22  1  0  0  0  0
 21 22  2  0  0  0  0
 21 29  1  0  0  0  0
 22 23  1  0  0  0  0
 23 26  1  0  0  0  0
 23 28  2  0  0  0  0
 24 25  1  0  0  0  0
 24 26  2  0  0  0  0
 24 40  1  0  0  0  0
 25 27  2  0  0  0  0
 25 39  1  0  0  0  0
 27 28  1  0  0  0  0
 28 37  1  0  0  0  0
 29 30  1  0  0  0  0
 30 31  1  0  0  0  0
 31 33  1  0  0  0  0
 31 36  1  0  0  0  0
 32 33  1  0  0  0  0
 32 34  1  0  0  0  0
 34 35  1  0  0  0  0
 35 36  1  0  0  0  0
 37 38  1  0  0  0  0
 40 41  1  0  0  0  0
 43 44  2  0  0  0  0
 43 45  1  0  0  0  0
 43 46  1  0  0  0  0
 46 47  1  0  0  0  0
 46 48  1  0  0  0  0
 46 49  1  0  0  0  0
M  END
> <ID>
12511

> <Formula>
C34H37ClF3N3O7S

> <FW>
724.1867 (610.1633+114.0233)

> <DSSTox_CID>
27369

> <DSSTox_RID>
82302

> <DSSTox_GSID>
47369

> <DSSTox_FileID_Sort>
6983

> <TS_ChemName>
SR146131

> <TS_ChemName_Synonyms>
SR146131A

> <TS_CASRN>
221671-62-1

> <CASRN_ChemName_Relationship>
primary

> <TS_Description>
single chemical compound

> <ChemNote>


> <STRUCTURE_Shown>
tested chemical

> <STRUCTURE_Formula>
C34H37ClF3N3O7S

> <STRUCTURE_MW>
724.1867

> <STRUCTURE_ChemType>
defined organic

> <STRUCTURE_DefinedOrganicForm>
complex

> <STRUCTURE_IUPAC>
(2-{[4-(4-chloro-2,5-dimethoxyphenyl)-5-(2-cyclohexylethyl)-1,3-thiazol-2-yl]carbamoyl}-5,7-dimethyl-1H-indol-1-yl)acetic acid trifluoroacetate (1:1)

> <STRUCTURE_SMILES>
O=C(Nc3nc(c1cc(OC)c(Cl)cc1OC)c(CCC2CCCCC2)s3)c5cc4cc(C)cc(C)c4n5CC(=O)O.FC(F)(F)C(=O)O

> <STRUCTURE_SMILES_Desalt>
O=C(Nc3nc(c1cc(OC)c(Cl)cc1OC)c(CCC2CCCCC2)s3)c5cc4cc(C)cc(C)c4n5CC(=O)O

> <Substance_modify_yyyymmdd>
20130910

$$$$
