2217-44-9
ChemmineR-0915142007XD

 30 30  0  0  0  0  0  0  0  0  2 V2000
    1.4607   -9.2007    0.0000 Na   0  3  0  0  0  0  0  0  0  0  0  0
    4.5340   -0.1233    0.0000 Na   0  3  0  0  0  0  0  0  0  0  0  0
    4.9987   -6.2034    0.0000 C    0  0  0  0  0  0  0  0  0  0  0  0
    3.4147   -5.2643    0.0000 C    0  0  0  0  0  0  0  0  0  0  0  0
    2.2670   -5.9283    0.0000 C    0  0  0  0  0  0  0  0  0  0  0  0
    7.2847   -7.5218    0.0000 C    0  0  0  0  0  0  0  0  0  0  0  0
    6.1559   -8.1668    0.0000 C    0  0  0  0  0  0  0  0  0  0  0  0
    7.2847   -6.2034    0.0000 C    0  0  0  0  0  0  0  0  0  0  0  0
    6.1559   -5.5394    0.0000 C    0  0  0  0  0  0  0  0  0  0  0  0
    4.9987   -7.5218    0.0000 C    0  0  0  0  0  0  0  0  0  0  0  0
    3.4147   -3.9459    0.0000 C    0  0  0  0  0  0  0  0  0  0  0  0
    3.4147   -1.3185    0.0000 C    0  0  0  0  0  0  0  0  0  0  0  0
    2.2670   -7.2467    0.0000 C    0  0  0  0  0  0  0  0  0  0  0  0
    2.2670   -1.9824    0.0000 C    0  0  0  0  0  0  0  0  0  0  0  0
    4.5340   -1.9824    0.0000 C    0  0  0  0  0  0  0  0  0  0  0  0
    3.4147   -7.8823    0.0000 C    0  0  0  0  0  0  0  0  0  0  0  0
    2.2670   -3.3009    0.0000 C    0  0  0  0  0  0  0  0  0  0  0  0
    4.5340   -3.3009    0.0000 C    0  0  0  0  0  0  0  0  0  0  0  0
    3.4147    0.0000    0.0000 O    0  5  0  0  0  0  0  0  0  0  0  0
    8.4039   -8.1668    0.0000 O    0  0  0  0  0  0  0  0  0  0  0  0
    3.4147   -9.2007    0.0000 O    0  5  0  0  0  0  0  0  0  0  0  0
    4.5340   -7.2847    0.0000 O    0  0  0  0  0  0  0  0  0  0  0  0
    8.4039   -5.5394    0.0000 I    0  0  0  0  0  0  0  0  0  0  0  0
    6.1559   -9.4853    0.0000 I    0  0  0  0  0  0  0  0  0  0  0  0
    1.1382   -1.3185    0.0000 I    0  0  0  0  0  0  0  0  0  0  0  0
    5.6912   -1.3185    0.0000 I    0  0  0  0  0  0  0  0  0  0  0  0
    1.1382   -5.2643    0.0000 C    0  0  0  0  0  0  0  0  0  0  0  0
    1.1382   -7.8823    0.0000 C    0  0  0  0  0  0  0  0  0  0  0  0
    0.0000   -5.9283    0.0000 C    0  0  0  0  0  0  0  0  0  0  0  0
    0.0000   -7.2467    0.0000 C    0  0  0  0  0  0  0  0  0  0  0  0
  3  4  2  0  0  0  0
  3  9  1  0  0  0  0
  3 10  1  0  0  0  0
  4  5  1  0  0  0  0
  4 11  1  0  0  0  0
  5 13  2  0  0  0  0
  5 27  1  0  0  0  0
  6  7  1  0  0  0  0
  6 20  2  0  0  0  0
  6  8  1  0  0  0  0
  7 10  2  0  0  0  0
  7 24  1  0  0  0  0
  8  9  2  0  0  0  0
  8 23  1  0  0  0  0
 11 17  2  0  0  0  0
 11 18  1  0  0  0  0
 12 15  1  0  0  0  0
 12 19  1  0  0  0  0
 12 14  2  0  0  0  0
 13 16  1  0  0  0  0
 13 28  1  0  0  0  0
 14 17  1  0  0  0  0
 14 25  1  0  0  0  0
 15 18  2  0  0  0  0
 15 26  1  0  0  0  0
 16 21  1  0  0  0  0
 16 22  2  0  0  0  0
 27 29  2  0  0  0  0
 28 30  2  0  0  0  0
 29 30  1  0  0  0  0
M  END
> <ID>
11955

> <Formula>
C20H8I4Na2O4

> <FW>
865.8725 (22.9892+22.9892+819.8941)

> <DSSTox_CID>
26768

> <DSSTox_RID>
81891

> <DSSTox_GSID>
46768

> <DSSTox_FileID_Sort>
6572

> <TS_ChemName>
Iodophthalein sodium

> <TS_ChemName_Synonyms>


> <TS_CASRN>
2217-44-9

> <CASRN_ChemName_Relationship>
primary

> <TS_Description>
single chemical compound

> <ChemNote>
tautomers; parent [386-17-4]

> <STRUCTURE_Shown>
tested chemical

> <STRUCTURE_Formula>
C20H8I4Na2O4

> <STRUCTURE_MW>
865.8725

> <STRUCTURE_ChemType>
defined organic

> <STRUCTURE_DefinedOrganicForm>
salt

> <STRUCTURE_IUPAC>
disodium 2-[(3,5-diiodo-4-oxidophenyl)(3,5-diiodo-4-oxocyclohexa-2,5-dien-1-ylidene)methyl]benzoate

> <STRUCTURE_SMILES>
[Na+].[Na+].IC1=CC(\C=C(I)C1=O)=C(/c2cc(I)c([O-])c(I)c2)c3ccccc3C([O-])=O

> <STRUCTURE_SMILES_Desalt>
IC1=CC(\C=C(I)C1=O)=C(/c2cc(I)c(O)c(I)c2)c3ccccc3C(=O)O

> <Substance_modify_yyyymmdd>
20110802

$$$$
