2217-02-9
ChemmineR-0915142007XD

 12 13  0  0  1  0  0  0  0  0  1 V2000
    0.0000   -2.9832    0.0000 C   0  0  0  0  0  0  0  0  0  0  0  0
    0.5514   -1.9833    0.0000 C   0  0  0  0  0  0  0  0  0  0  0  0
    1.5225   -1.2961    0.0000 C   0  0  0  0  0  0  0  0  0  0  0  0
    1.1645   -2.3865    0.0000 C   0  0  0  0  0  0  0  0  0  0  0  0
    1.1768    0.0000    0.0000 C   0  0  0  0  0  0  0  0  0  0  0  0
    2.7281   -1.9956    0.0000 C   0  0  0  0  0  0  0  0  0  0  0  0
    2.2796   -2.9503    0.0000 C   0  0  0  0  0  0  0  0  0  0  0  0
    3.9213   -1.6418    0.0000 O   0  0  0  0  0  0  0  0  0  0  0  0
    2.3125   -4.1147    0.0000 C   0  0  0  0  0  0  0  0  0  0  0  0
    3.4728   -2.9667    0.0000 C   0  0  0  0  0  0  0  0  0  0  0  0
    2.5182   -0.5514    0.0000 C   0  0  0  0  0  0  0  0  0  0  0  0
    0.4979   -3.5922    0.0000 H   0  0  0  0  0  0  0  0  0  0  0  0
  1  2  1  0  0  0  0
  1  4  1  0  0  0  0
  2  3  1  0  0  0  0
  3  5  1  0  0  0  0
  3  6  1  0  0  0  0
  3 11  1  1  0  0  0
  4  5  1  0  0  0  0
  4  7  1  0  0  0  0
  4 12  1  6  0  0  0
  6  7  1  0  0  0  0
  6  8  1  1  0  0  0
  7  9  1  0  0  0  0
  7 10  1  0  0  0  0
M  END
> <ID>
9976

> <Formula>
C10H18O

> <FW>
154.2493

> <DSSTox_CID>
24307

> <DSSTox_RID>
80144

> <DSSTox_GSID>
44307

> <DSSTox_FileID_Sort>
4826

> <TS_ChemName>
(1R)-endo-(+)-Fenchyl alcohol

> <TS_ChemName_Synonyms>


> <TS_CASRN>
2217-02-9

> <CASRN_ChemName_Relationship>
primary

> <TS_Description>
single chemical compound

> <ChemNote>
stereochem

> <STRUCTURE_Shown>
tested chemical

> <STRUCTURE_Formula>
C10H18O

> <STRUCTURE_MW>
154.2493

> <STRUCTURE_ChemType>
defined organic

> <STRUCTURE_DefinedOrganicForm>
parent

> <STRUCTURE_IUPAC>
(1R,2R,4S)-1,3,3-trimethylbicyclo[2.2.1]heptan-2-ol

> <STRUCTURE_SMILES>
C[C@@]12CC[C@@H](C1)C(C)(C)[C@@H]2O

> <STRUCTURE_SMILES_Desalt>
C[C@@]12CC[C@@H](C1)C(C)(C)[C@@H]2O

> <Substance_modify_yyyymmdd>
20090518

$$$$
