2219-82-1
ChemmineR-0915142007XD

 12 12  0  0  0  0  0  0  0  0  1 V2000
    2.2874   -1.3170    0.0000 C   0  0  0  0  0  0  0  0  0  0  0  0
    2.2874    0.0000    0.0000 O   0  0  0  0  0  0  0  0  0  0  0  0
    3.4542   -1.9986    0.0000 C   0  0  0  0  0  0  0  0  0  0  0  0
    1.1668   -1.9986    0.0000 C   0  0  0  0  0  0  0  0  0  0  0  0
    1.1668   -3.3098    0.0000 C   0  0  0  0  0  0  0  0  0  0  0  0
    3.4542   -3.3098    0.0000 C   0  0  0  0  0  0  0  0  0  0  0  0
    2.2874   -3.9913    0.0000 C   0  0  0  0  0  0  0  0  0  0  0  0
    4.6094   -1.3285    0.0000 C   0  0  0  0  0  0  0  0  0  0  0  0
    4.6094    0.0000    0.0000 C   0  0  0  0  0  0  0  0  0  0  0  0
    5.7762   -2.0101    0.0000 C   0  0  0  0  0  0  0  0  0  0  0  0
    5.7762   -0.6816    0.0000 C   0  0  0  0  0  0  0  0  0  0  0  0
    0.0000   -1.3285    0.0000 C   0  0  0  0  0  0  0  0  0  0  0  0
  1  2  1  0  0  0  0
  1  3  2  0  0  0  0
  1  4  1  0  0  0  0
  3  6  1  0  0  0  0
  3  8  1  0  0  0  0
  4  5  2  0  0  0  0
  4 12  1  0  0  0  0
  5  7  1  0  0  0  0
  6  7  2  0  0  0  0
  8  9  1  0  0  0  0
  8 10  1  0  0  0  0
  8 11  1  0  0  0  0
M  END
> <ID>
12605

> <Formula>
C11H16O

> <FW>
164.2441

> <DSSTox_CID>
27468

> <DSSTox_RID>
82368

> <DSSTox_GSID>
47468

> <DSSTox_FileID_Sort>
7049

> <TS_ChemName>
Phenol, 2-(1,1-dimethylethyl)-6-methyl-

> <TS_ChemName_Synonyms>


> <TS_CASRN>
2219-82-1

> <CASRN_ChemName_Relationship>
primary

> <TS_Description>
single chemical compound

> <ChemNote>


> <STRUCTURE_Shown>
tested chemical

> <STRUCTURE_Formula>
C11H16O

> <STRUCTURE_MW>
164.2441

> <STRUCTURE_ChemType>
defined organic

> <STRUCTURE_DefinedOrganicForm>
parent

> <STRUCTURE_IUPAC>
2-tert-butyl-6-methylphenol

> <STRUCTURE_SMILES>
CC(C)(C)c1cccc(C)c1O

> <STRUCTURE_SMILES_Desalt>
CC(C)(C)c1cccc(C)c1O

> <Substance_modify_yyyymmdd>
20100621

$$$$
