22195-34-2
ChemmineR-0915142007XD

 35 36  0  0  0  0  0  0  0  0  1 V2000
    2.8175   -5.5404    0.0000 C   0  0  0  0  0  0  0  0  0  0  0  0
    6.9019   -2.3258    0.0000 C   0  0  0  0  0  0  0  0  0  0  0  0
    3.5171   -4.5004    0.0000 O   0  0  0  0  0  0  0  0  0  0  0  0
    3.5171   -6.5615    0.0000 O   0  0  0  0  0  0  0  0  0  0  0  0
    6.9019   -1.0211    0.0000 N   0  0  0  0  0  0  0  0  0  0  0  0
    5.7862   -2.9688    0.0000 N   0  0  0  0  0  0  0  0  0  0  0  0
    4.6895   -4.8975    0.0000 C   0  0  0  0  0  0  0  0  0  0  0  0
    8.0175   -2.9688    0.0000 N   0  0  0  0  0  0  0  0  0  0  0  0
    4.6895   -6.1644    0.0000 C   0  0  0  0  0  0  0  0  0  0  0  0
    5.7862   -4.2546    0.0000 C   0  0  0  0  0  0  0  0  0  0  0  0
    2.0989   -6.7695    0.0000 C   0  0  0  0  0  0  0  0  0  0  0  0
    2.1178   -4.3302    0.0000 C   0  0  0  0  0  0  0  0  0  0  0  0
    0.6996   -6.7695    0.0000 C   0  0  0  0  0  0  0  0  0  0  0  0
    0.6996   -4.3302    0.0000 C   0  0  0  0  0  0  0  0  0  0  0  0
    0.0000   -5.5404    0.0000 C   0  0  0  0  0  0  0  0  0  0  0  0
   13.7092   -4.5193    0.0000 C   0  0  0  0  0  0  0  0  0  0  0  0
   17.7936   -1.3047    0.0000 C   0  0  0  0  0  0  0  0  0  0  0  0
   14.4089   -3.4793    0.0000 O   0  0  0  0  0  0  0  0  0  0  0  0
   14.4089   -5.5404    0.0000 O   0  0  0  0  0  0  0  0  0  0  0  0
   17.7936    0.0000    0.0000 N   0  0  0  0  0  0  0  0  0  0  0  0
   16.6591   -1.9477    0.0000 N   0  0  0  0  0  0  0  0  0  0  0  0
   15.5812   -3.8764    0.0000 C   0  0  0  0  0  0  0  0  0  0  0  0
   18.9093   -1.9477    0.0000 N   0  0  0  0  0  0  0  0  0  0  0  0
   15.5812   -5.1433    0.0000 C   0  0  0  0  0  0  0  0  0  0  0  0
   16.6591   -3.2335    0.0000 C   0  0  0  0  0  0  0  0  0  0  0  0
   12.9718   -5.7484    0.0000 C   0  0  0  0  0  0  0  0  0  0  0  0
   12.9907   -3.3091    0.0000 C   0  0  0  0  0  0  0  0  0  0  0  0
   11.5725   -5.7484    0.0000 C   0  0  0  0  0  0  0  0  0  0  0  0
   11.5725   -3.3091    0.0000 C   0  0  0  0  0  0  0  0  0  0  0  0
   10.8917   -4.5193    0.0000 C   0  0  0  0  0  0  0  0  0  0  0  0
    8.1310   -6.6372    0.0000 S   0  0  0  0  0  0  0  0  0  0  0  0
    9.5303   -6.6372    0.0000 O   0  0  0  0  0  0  0  0  0  0  0  0
    6.7128   -6.6372    0.0000 O   0  0  0  0  0  0  0  0  0  0  0  0
    8.1310   -8.0554    0.0000 O   0  0  0  0  0  0  0  0  0  0  0  0
    8.1310   -5.2379    0.0000 O   0  0  0  0  0  0  0  0  0  0  0  0
  1  3  1  0  0  0  0
  1  4  1  0  0  0  0
  1 11  1  0  0  0  0
  1 12  1  0  0  0  0
  2  6  1  0  0  0  0
  2  5  2  0  0  0  0
  2  8  1  0  0  0  0
  3  7  1  0  0  0  0
  4  9  1  0  0  0  0
  6 10  1  0  0  0  0
  7 10  1  0  0  0  0
  7  9  1  0  0  0  0
 11 13  1  0  0  0  0
 12 14  1  0  0  0  0
 13 15  1  0  0  0  0
 14 15  1  0  0  0  0
 16 18  1  0  0  0  0
 16 19  1  0  0  0  0
 16 26  1  0  0  0  0
 16 27  1  0  0  0  0
 17 21  1  0  0  0  0
 17 20  2  0  0  0  0
 17 23  1  0  0  0  0
 18 22  1  0  0  0  0
 19 24  1  0  0  0  0
 21 25  1  0  0  0  0
 22 25  1  0  0  0  0
 22 24  1  0  0  0  0
 26 28  1  0  0  0  0
 27 29  1  0  0  0  0
 28 30  1  0  0  0  0
 29 30  1  0  0  0  0
 31 32  2  0  0  0  0
 31 33  2  0  0  0  0
 31 34  1  0  0  0  0
 31 35  1  0  0  0  0
M  END
> <ID>
10942

> <Formula>
C20H40N6O8S

> <FW>
524.6320 (213.2768+213.2768+98.0785)

> <DSSTox_CID>
25432

> <DSSTox_RID>
80874

> <DSSTox_GSID>
45432

> <DSSTox_FileID_Sort>
5555

> <TS_ChemName>
Guanadrel sulfate

> <TS_ChemName_Synonyms>


> <TS_CASRN>
22195-34-2

> <CASRN_ChemName_Relationship>
primary

> <TS_Description>
single chemical compound

> <ChemNote>
parent [40580-59-4]

> <STRUCTURE_Shown>
tested chemical

> <STRUCTURE_Formula>
C20H40N6O8S

> <STRUCTURE_MW>
524.632

> <STRUCTURE_ChemType>
defined organic

> <STRUCTURE_DefinedOrganicForm>
complex

> <STRUCTURE_IUPAC>
1-(1,4-dioxaspiro[4.5]dec-2-ylmethyl)guanidine sulfate (2:1)

> <STRUCTURE_SMILES>
O=S(=O)(O)O.N=C(N)NCC2COC1(CCCCC1)O2.N=C(N)NCC2COC1(CCCCC1)O2

> <STRUCTURE_SMILES_Desalt>
N=C(N)NCC2COC1(CCCCC1)O2

> <Substance_modify_yyyymmdd>
20100107

$$$$
