22204-91-7
ChemmineR-0915142007XD

 27 29  0  0  0  0  0  0  0  0  1 V2000
    5.9823   -2.4625    0.0000 C    0  0  0  0  0  0  0  0  0  0  0  0
    5.1391   -1.1108    0.0000 O    0  0  0  0  0  0  0  0  0  0  0  0
    5.1391   -3.8008    0.0000 O    0  0  0  0  0  0  0  0  0  0  0  0
    7.3473   -2.4625    0.0000 C    0  0  0  0  0  0  0  0  0  0  0  0
    8.0299   -3.6268    0.0000 O    0  0  0  0  0  0  0  0  0  0  0  0
    8.0299   -1.2848    0.0000 O    0  0  0  0  0  0  0  0  0  0  0  0
    9.3548   -3.6268    0.0000 C    0  0  0  0  0  0  0  0  0  0  0  0
   10.0240   -2.4625    0.0000 C    0  0  0  0  0  0  0  0  0  0  0  0
   10.0240   -4.7912    0.0000 C    0  0  0  0  0  0  0  0  0  0  0  0
   11.3890   -2.4625    0.0000 C    0  0  0  0  0  0  0  0  0  0  0  0
   11.3890   -4.7912    0.0000 C    0  0  0  0  0  0  0  0  0  0  0  0
   12.0448   -3.6268    0.0000 N    0  0  0  0  0  0  0  0  0  0  0  0
   13.3831   -3.6268    0.0000 C    0  0  0  0  0  0  0  0  0  0  0  0
    3.8543   -1.1108    0.0000 C    0  0  0  0  0  0  0  0  0  0  0  0
    3.2253   -2.2350    0.0000 C    0  0  0  0  0  0  0  0  0  0  0  0
    3.2253    0.0000    0.0000 C    0  0  0  0  0  0  0  0  0  0  0  0
    1.9406   -2.2350    0.0000 C    0  0  0  0  0  0  0  0  0  0  0  0
    1.9406    0.0000    0.0000 C    0  0  0  0  0  0  0  0  0  0  0  0
    1.2848   -1.1108    0.0000 C    0  0  0  0  0  0  0  0  0  0  0  0
    0.0000   -1.1108    0.0000 Cl   0  0  0  0  0  0  0  0  0  0  0  0
    3.8543   -3.8008    0.0000 C    0  0  0  0  0  0  0  0  0  0  0  0
    3.2253   -4.9250    0.0000 C    0  0  0  0  0  0  0  0  0  0  0  0
    3.2253   -2.7034    0.0000 C    0  0  0  0  0  0  0  0  0  0  0  0
    1.9406   -4.9250    0.0000 C    0  0  0  0  0  0  0  0  0  0  0  0
    1.9406   -2.7034    0.0000 C    0  0  0  0  0  0  0  0  0  0  0  0
    1.2848   -3.8008    0.0000 C    0  0  0  0  0  0  0  0  0  0  0  0
    0.0000   -3.8008    0.0000 Cl   0  0  0  0  0  0  0  0  0  0  0  0
  1  2  1  0  0  0  0
  1  3  1  0  0  0  0
  1  4  1  0  0  0  0
  2 14  1  0  0  0  0
  3 21  1  0  0  0  0
  4  5  1  0  0  0  0
  4  6  2  0  0  0  0
  5  7  1  0  0  0  0
  7  8  1  0  0  0  0
  7  9  1  0  0  0  0
  8 10  1  0  0  0  0
  9 11  1  0  0  0  0
 10 12  1  0  0  0  0
 11 12  1  0  0  0  0
 12 13  1  0  0  0  0
 14 15  1  0  0  0  0
 14 16  2  0  0  0  0
 15 17  2  0  0  0  0
 16 18  1  0  0  0  0
 17 19  1  0  0  0  0
 18 19  2  0  0  0  0
 19 20  1  0  0  0  0
 21 22  1  0  0  0  0
 21 23  2  0  0  0  0
 22 24  2  0  0  0  0
 23 25  1  0  0  0  0
 24 26  1  0  0  0  0
 25 26  2  0  0  0  0
 26 27  1  0  0  0  0
M  END
> <ID>
11512

> <Formula>
C20H21Cl2NO4

> <FW>
410.291

> <DSSTox_CID>
26217

> <DSSTox_RID>
81445

> <DSSTox_GSID>
46217

> <DSSTox_FileID_Sort>
6126

> <TS_ChemName>
Lifibrate

> <TS_ChemName_Synonyms>


> <TS_CASRN>
22204-91-7

> <CASRN_ChemName_Relationship>
primary

> <TS_Description>
single chemical compound

> <ChemNote>


> <STRUCTURE_Shown>
tested chemical

> <STRUCTURE_Formula>
C20H21Cl2NO4

> <STRUCTURE_MW>
410.291

> <STRUCTURE_ChemType>
defined organic

> <STRUCTURE_DefinedOrganicForm>
parent

> <STRUCTURE_IUPAC>
1-methylpiperidin-4-yl bis(4-chlorophenoxy)acetate

> <STRUCTURE_SMILES>
CN3CCC(OC(=O)C(Oc1ccc(Cl)cc1)Oc2ccc(Cl)cc2)CC3

> <STRUCTURE_SMILES_Desalt>
CN3CCC(OC(=O)C(Oc1ccc(Cl)cc1)Oc2ccc(Cl)cc2)CC3

> <Substance_modify_yyyymmdd>
20110819

$$$$
