22204-53-1
ChemmineR-0915142007XD

 17 18  0  0  1  0  0  0  0  0  1 V2000
    6.9139   -1.9828    0.0000 C   0  0  0  0  0  0  0  0  0  0  0  0
    9.2185   -1.9828    0.0000 C   0  0  0  0  0  0  0  0  0  0  0  0
    5.7719   -1.3288    0.0000 C   0  0  0  0  0  0  0  0  0  0  0  0
    8.0766   -1.3288    0.0000 C   0  0  0  0  0  0  0  0  0  0  0  0
    4.6092   -1.9828    0.0000 C   0  0  0  0  0  0  0  0  0  0  0  0
    4.6092   -3.3116    0.0000 C   0  0  0  0  0  0  0  0  0  0  0  0
    6.9139   -3.3116    0.0000 C   0  0  0  0  0  0  0  0  0  0  0  0
    9.2185   -3.3116    0.0000 O   0  0  0  0  0  0  0  0  0  0  0  0
    3.4673   -3.9864    0.0000 C   0  0  0  0  0  0  0  0  0  0  0  0
    5.7719   -3.9864    0.0000 C   0  0  0  0  0  0  0  0  0  0  0  0
    3.4673   -1.3288    0.0000 C   0  0  0  0  0  0  0  0  0  0  0  0
    2.3046   -3.3116    0.0000 C   0  0  0  0  0  0  0  0  0  0  0  0
   10.3812   -1.3288    0.0000 O   0  0  0  0  0  0  0  0  0  0  0  0
    2.3046   -1.9828    0.0000 C   0  0  0  0  0  0  0  0  0  0  0  0
    1.1627   -3.9864    0.0000 O   0  0  0  0  0  0  0  0  0  0  0  0
    8.0766    0.0000    0.0000 C   0  0  0  0  0  0  0  0  0  0  0  0
    0.0000   -3.3116    0.0000 C   0  0  0  0  0  0  0  0  0  0  0  0
  1  3  1  0  0  0  0
  1  4  1  0  0  0  0
  1  7  2  0  0  0  0
  2  4  1  0  0  0  0
  2  8  2  0  0  0  0
  2 13  1  0  0  0  0
  3  5  2  0  0  0  0
  4 16  1  6  0  0  0
  5 11  1  0  0  0  0
  5  6  1  0  0  0  0
  6 10  2  0  0  0  0
  6  9  1  0  0  0  0
  7 10  1  0  0  0  0
  9 12  2  0  0  0  0
 11 14  2  0  0  0  0
 12 15  1  0  0  0  0
 12 14  1  0  0  0  0
 15 17  1  0  0  0  0
M  END
> <ID>
7884

> <Formula>
C14H14O3

> <FW>
230.2592

> <DSSTox_CID>
20686

> <DSSTox_RID>
79542

> <DSSTox_GSID>
40686

> <DSSTox_FileID_Sort>
4224

> <TS_ChemName>
Naproxen

> <TS_ChemName_Synonyms>


> <TS_CASRN>
22204-53-1

> <CASRN_ChemName_Relationship>
primary

> <TS_Description>
single chemical compound

> <ChemNote>
stereochem

> <STRUCTURE_Shown>
tested chemical

> <STRUCTURE_Formula>
C14H14O3

> <STRUCTURE_MW>
230.2592

> <STRUCTURE_ChemType>
defined organic

> <STRUCTURE_DefinedOrganicForm>
parent

> <STRUCTURE_IUPAC>
(2S)-2-(6-methoxynaphthalen-2-yl)propanoic acid

> <STRUCTURE_SMILES>
O=C(O)[C@@H](C)c1ccc2cc(ccc2c1)OC

> <STRUCTURE_SMILES_Desalt>
O=C(O)[C@@H](C)c1ccc2cc(ccc2c1)OC

> <Substance_modify_yyyymmdd>
20080429

$$$$
