2224-15-9
ChemmineR-0915142007XD

 12 13  0  0  0  0  0  0  0  0  1 V2000
    0.6533    0.0000    0.0000 O   0  0  0  0  0  0  0  0  0  0  0  0
    1.3280   -1.1567    0.0000 C   0  0  0  0  0  0  0  0  0  0  0  0
    0.0000   -1.1567    0.0000 C   0  0  0  0  0  0  0  0  0  0  0  0
   10.0352   -2.9774    0.0000 O   0  0  0  0  0  0  0  0  0  0  0  0
    9.3819   -1.8207    0.0000 C   0  0  0  0  0  0  0  0  0  0  0  0
   10.7099   -1.8207    0.0000 C   0  0  0  0  0  0  0  0  0  0  0  0
    5.9226   -1.1567    0.0000 C   0  0  0  0  0  0  0  0  0  0  0  0
    4.7659   -1.8207    0.0000 C   0  0  0  0  0  0  0  0  0  0  0  0
    7.0793   -1.8207    0.0000 O   0  0  0  0  0  0  0  0  0  0  0  0
    3.6200   -1.1567    0.0000 O   0  0  0  0  0  0  0  0  0  0  0  0
    8.2252   -1.1567    0.0000 C   0  0  0  0  0  0  0  0  0  0  0  0
    2.4847   -1.8207    0.0000 C   0  0  0  0  0  0  0  0  0  0  0  0
  1  2  1  0  0  0  0
  1  3  1  0  0  0  0
  2  3  1  0  0  0  0
  2 12  1  0  0  0  0
  4  5  1  0  0  0  0
  4  6  1  0  0  0  0
  5  6  1  0  0  0  0
  5 11  1  0  0  0  0
  7  8  1  0  0  0  0
  7  9  1  0  0  0  0
  8 10  1  0  0  0  0
  9 11  1  0  0  0  0
 10 12  1  0  0  0  0
M  END
> <ID>
10523

> <Formula>
C8H14O4

> <FW>
174.1944

> <DSSTox_CID>
24876

> <DSSTox_RID>
80550

> <DSSTox_GSID>
44876

> <DSSTox_FileID_Sort>
5232

> <TS_ChemName>
Ethylene glycol diglycidyl ether

> <TS_ChemName_Synonyms>
Ethylene glycol diglycidyl ether (2,2'-[Ethane-1,2-diylbis(oxymethanediyl)]dioxirane) (Oxirane, 2,2'-[1,2-ethanediylbis(oxymethylene)]bis-)

> <TS_CASRN>
2224-15-9

> <CASRN_ChemName_Relationship>
primary

> <TS_Description>
single chemical compound

> <ChemNote>


> <STRUCTURE_Shown>
tested chemical

> <STRUCTURE_Formula>
C8H14O4

> <STRUCTURE_MW>
174.1944

> <STRUCTURE_ChemType>
defined organic

> <STRUCTURE_DefinedOrganicForm>
parent

> <STRUCTURE_IUPAC>
2,2'-[ethane-1,2-diylbis(oxymethanediyl)]dioxirane

> <STRUCTURE_SMILES>
C(OCCOCC1CO1)C2CO2

> <STRUCTURE_SMILES_Desalt>
C(OCCOCC1CO1)C2CO2

> <Substance_modify_yyyymmdd>
20091116

$$$$
