2224-49-9
ChemmineR-0915142007XD

 24 22  0  0  0  0  0  0  0  0  1 V2000
    1.1367   -1.3421    0.0000 C   0  0  0  0  0  0  0  0  0  0  0  0
    2.2733   -2.0268    0.0000 C   0  0  0  0  0  0  0  0  0  0  0  0
    3.4100   -1.3421    0.0000 C   0  0  0  0  0  0  0  0  0  0  0  0
    4.5741   -2.0268    0.0000 C   0  0  0  0  0  0  0  0  0  0  0  0
    5.7108   -1.3421    0.0000 C   0  0  0  0  0  0  0  0  0  0  0  0
    6.8474   -2.0268    0.0000 C   0  0  0  0  0  0  0  0  0  0  0  0
    7.9841   -1.3421    0.0000 C   0  0  0  0  0  0  0  0  0  0  0  0
    9.1208   -2.0268    0.0000 C   0  0  0  0  0  0  0  0  0  0  0  0
   10.2848   -1.3421    0.0000 C   0  0  0  0  0  0  0  0  0  0  0  0
   11.4215   -2.0268    0.0000 C   0  0  0  0  0  0  0  0  0  0  0  0
   12.5582   -1.3421    0.0000 C   0  0  0  0  0  0  0  0  0  0  0  0
   13.6949   -2.0268    0.0000 C   0  0  0  0  0  0  0  0  0  0  0  0
    1.1367    0.0000    0.0000 O   0  0  0  0  0  0  0  0  0  0  0  0
    0.0000   -2.0268    0.0000 O   0  0  0  0  0  0  0  0  0  0  0  0
    5.9984   -5.2999    0.0000 C   0  0  0  0  0  0  0  0  0  0  0  0
    4.8480   -4.6289    0.0000 O   0  0  0  0  0  0  0  0  0  0  0  0
    7.1487   -4.6289    0.0000 C   0  0  0  0  0  0  0  0  0  0  0  0
    8.2854   -5.2999    0.0000 N   0  0  0  0  0  0  0  0  0  0  0  0
    8.2854   -6.6146    0.0000 C   0  0  0  0  0  0  0  0  0  0  0  0
    9.4358   -7.2720    0.0000 C   0  0  0  0  0  0  0  0  0  0  0  0
    9.4358   -8.6004    0.0000 O   0  0  0  0  0  0  0  0  0  0  0  0
    9.4358   -4.6289    0.0000 C   0  0  0  0  0  0  0  0  0  0  0  0
   10.5861   -5.2999    0.0000 C   0  0  0  0  0  0  0  0  0  0  0  0
   11.7365   -4.6289    0.0000 O   0  0  0  0  0  0  0  0  0  0  0  0
  1  2  1  0  0  0  0
  1 14  1  0  0  0  0
  1 13  2  0  0  0  0
  2  3  1  0  0  0  0
  3  4  1  0  0  0  0
  4  5  1  0  0  0  0
  5  6  1  0  0  0  0
  6  7  1  0  0  0  0
  7  8  1  0  0  0  0
  8  9  1  0  0  0  0
  9 10  1  0  0  0  0
 10 11  1  0  0  0  0
 11 12  1  0  0  0  0
 15 17  1  0  0  0  0
 15 16  1  0  0  0  0
 17 18  1  0  0  0  0
 18 22  1  0  0  0  0
 18 19  1  0  0  0  0
 19 20  1  0  0  0  0
 20 21  1  0  0  0  0
 22 23  1  0  0  0  0
 23 24  1  0  0  0  0
M  END
> <ID>
12330

> <Formula>
C18H39NO5

> <FW>
349.5060 (200.3178+149.1882)

> <DSSTox_CID>
27183

> <DSSTox_RID>
82179

> <DSSTox_GSID>
47183

> <DSSTox_FileID_Sort>
6860

> <TS_ChemName>
Triethanolamine Laurate

> <TS_ChemName_Synonyms>


> <TS_CASRN>
2224-49-9

> <CASRN_ChemName_Relationship>
primary

> <TS_Description>
single chemical compound

> <ChemNote>
parent [143-07-7]

> <STRUCTURE_Shown>
tested chemical

> <STRUCTURE_Formula>
C18H39NO5

> <STRUCTURE_MW>
349.506

> <STRUCTURE_ChemType>
defined organic

> <STRUCTURE_DefinedOrganicForm>
complex

> <STRUCTURE_IUPAC>
dodecanoic acid - 2,2',2''-nitrilotriethanol (1:1)

> <STRUCTURE_SMILES>
OCCN(CCO)CCO.CCCCCCCCCCCC(=O)O

> <STRUCTURE_SMILES_Desalt>
O=C(O)CCCCCCCCCCC

> <Substance_modify_yyyymmdd>
20100503

$$$$
