22252-43-3
ChemmineR-0915142007XD

 15 16  0  0  1  0  0  0  0  0  1 V2000
    2.2814   -5.3347    0.0000 H   0  0  0  0  0  0  0  0  0  0  0  0
    2.2814    0.0000    0.0000 O   0  0  0  0  0  0  0  0  0  0  0  0
    4.5800    0.0000    0.0000 O   0  0  0  0  0  0  0  0  0  0  0  0
    0.0000   -1.7211    0.0000 O   0  0  0  0  0  0  0  0  0  0  0  0
    5.7178   -1.9955    0.0000 C   0  0  0  0  0  0  0  0  0  0  0  0
    3.4192   -0.6747    0.0000 C   0  0  0  0  0  0  0  0  0  0  0  0
    0.0000   -4.9345    0.0000 N   0  0  0  0  0  0  0  0  0  0  0  0
    0.9492   -4.0025    0.0000 C   0  0  0  0  0  0  0  0  0  0  0  0
    2.2814   -2.6702    0.0000 N   0  0  0  0  0  0  0  0  0  0  0  0
    2.2814   -4.0025    0.0000 C   0  0  0  0  0  0  0  0  0  0  0  0
    0.9492   -2.6702    0.0000 C   0  0  0  0  0  0  0  0  0  0  0  0
    4.5800   -3.9853    0.0000 C   0  0  0  0  0  0  0  0  0  0  0  0
    4.5800   -2.6702    0.0000 C   0  0  0  0  0  0  0  0  0  0  0  0
    3.4192   -4.6600    0.0000 S   0  0  0  0  0  0  0  0  0  0  0  0
    3.4192   -2.0127    0.0000 C   0  0  0  0  0  0  0  0  0  0  0  0
 10  1  1  1  0  0  0
  2  6  1  0  0  0  0
  3  6  2  0  0  0  0
  4 11  2  0  0  0  0
  5 13  1  0  0  0  0
  6 15  1  0  0  0  0
  8  7  1  6  0  0  0
  8 10  1  0  0  0  0
  8 11  1  0  0  0  0
  9 11  1  0  0  0  0
  9 15  1  0  0  0  0
  9 10  1  0  0  0  0
 10 14  1  0  0  0  0
 12 13  1  0  0  0  0
 12 14  1  0  0  0  0
 13 15  2  0  0  0  0
M  END
> <ID>
16089

> <Formula>
C8H10N2O3S

> <FW>
214.2416

> <DSSTox_CID>
31476

> <DSSTox_RID>
97361

> <DSSTox_GSID>
57687

> <DSSTox_FileID_Sort>
8428

> <TS_ChemName>
7-Aminodeacetoxycephalosporanic acid

> <TS_ChemName_Synonyms>


> <TS_CASRN>
22252-43-3

> <CASRN_ChemName_Relationship>
primary

> <TS_Description>
single chemical compound

> <ChemNote>
Absolute stereochemistry (6R,7R)

> <STRUCTURE_Shown>
tested chemical

> <STRUCTURE_Formula>
C8H10N2O3S

> <STRUCTURE_MW>
214.2416

> <STRUCTURE_ChemType>
defined organic

> <STRUCTURE_DefinedOrganicForm>
parent

> <STRUCTURE_IUPAC>
(6R,7R)-7-amino-3-methyl-8-oxo-5-thia-1-azabicyclo[4.2.0]oct-2-ene-2-carboxylic acid

> <STRUCTURE_SMILES>
CC=1CS[C@@H]2[C@H](N)C(=O)N2C=1C(=O)O

> <STRUCTURE_SMILES_Desalt>
CC=1CS[C@@H]2[C@H](N)C(=O)N2C=1C(=O)O

> <Substance_modify_yyyymmdd>
20131121

$$$$
