22316-47-8
ChemmineR-0915142007XD

 21 23  0  0  0  0  0  0  0  0  1 V2000
    2.4260   -8.1958    0.0000 C    0  0  0  0  0  0  0  0  0  0  0  0
    2.1227   -6.9009    0.0000 N    0  0  0  0  0  0  0  0  0  0  0  0
    0.8278   -6.6058    0.0000 C    0  0  0  0  0  0  0  0  0  0  0  0
    0.0000   -7.6467    0.0000 O    0  0  0  0  0  0  0  0  0  0  0  0
    0.2541   -5.4010    0.0000 C    0  0  0  0  0  0  0  0  0  0  0  0
    0.8278   -4.2045    0.0000 C    0  0  0  0  0  0  0  0  0  0  0  0
    0.0000   -3.1636    0.0000 O    0  0  0  0  0  0  0  0  0  0  0  0
    2.1227   -3.9094    0.0000 N    0  0  0  0  0  0  0  0  0  0  0  0
    2.4014   -2.6309    0.0000 C    0  0  0  0  0  0  0  0  0  0  0  0
    1.4671   -1.6883    0.0000 C    0  0  0  0  0  0  0  0  0  0  0  0
    1.7457   -0.4098    0.0000 C    0  0  0  0  0  0  0  0  0  0  0  0
    3.0325    0.0000    0.0000 C    0  0  0  0  0  0  0  0  0  0  0  0
    3.9750   -0.9425    0.0000 C    0  0  0  0  0  0  0  0  0  0  0  0
    3.6963   -2.2211    0.0000 C    0  0  0  0  0  0  0  0  0  0  0  0
    3.1636   -4.7372    0.0000 C    0  0  0  0  0  0  0  0  0  0  0  0
    4.3192   -4.0733    0.0000 C    0  0  0  0  0  0  0  0  0  0  0  0
    5.4748   -4.7372    0.0000 C    0  0  0  0  0  0  0  0  0  0  0  0
    5.4748   -6.0731    0.0000 C    0  0  0  0  0  0  0  0  0  0  0  0
    4.3192   -6.7370    0.0000 C    0  0  0  0  0  0  0  0  0  0  0  0
    3.1636   -6.0731    0.0000 C    0  0  0  0  0  0  0  0  0  0  0  0
    6.6222   -4.0733    0.0000 Cl   0  0  0  0  0  0  0  0  0  0  0  0
  1  2  1  0  0  0  0
  2  3  1  0  0  0  0
  2 20  1  0  0  0  0
  3  4  2  0  0  0  0
  3  5  1  0  0  0  0
  5  6  1  0  0  0  0
  6  7  2  0  0  0  0
  6  8  1  0  0  0  0
  8  9  1  0  0  0  0
  8 15  1  0  0  0  0
  9 10  2  0  0  0  0
  9 14  1  0  0  0  0
 10 11  1  0  0  0  0
 11 12  2  0  0  0  0
 12 13  1  0  0  0  0
 13 14  2  0  0  0  0
 15 16  2  0  0  0  0
 15 20  1  0  0  0  0
 16 17  1  0  0  0  0
 17 18  2  0  0  0  0
 17 21  1  0  0  0  0
 18 19  1  0  0  0  0
 19 20  2  0  0  0  0
M  END
> <ID>
11947

> <Formula>
C16H13ClN2O2

> <FW>
300.7396

> <DSSTox_CID>
26759

> <DSSTox_RID>
81883

> <DSSTox_GSID>
46759

> <DSSTox_FileID_Sort>
6564

> <TS_ChemName>
Clobazam

> <TS_ChemName_Synonyms>


> <TS_CASRN>
22316-47-8

> <CASRN_ChemName_Relationship>
primary

> <TS_Description>
single chemical compound

> <ChemNote>


> <STRUCTURE_Shown>
tested chemical

> <STRUCTURE_Formula>
C16H13ClN2O2

> <STRUCTURE_MW>
300.7396

> <STRUCTURE_ChemType>
defined organic

> <STRUCTURE_DefinedOrganicForm>
parent

> <STRUCTURE_IUPAC>
7-chloro-1-methyl-5-phenyl-1H-1,5-benzodiazepine-2,4(3H,5H)-dione

> <STRUCTURE_SMILES>
Clc1ccc2c(c1)N(C(=O)CC(=O)N2C)c3ccccc3

> <STRUCTURE_SMILES_Desalt>
Clc1ccc2c(c1)N(C(=O)CC(=O)N2C)c3ccccc3

> <Substance_modify_yyyymmdd>
20080429

$$$$
