22328-94-5
ChemmineR-0915142007XD

 17 17  0  0  1  0  0  0  0  0  1 V2000
    1.9873   -3.4636    0.0000 C   0  0  0  0  0  0  0  0  0  0  0  0
    2.6606   -2.3118    0.0000 C   0  0  0  0  0  0  0  0  0  0  0  0
    1.9873   -1.1518    0.0000 N   0  0  0  0  0  0  0  0  0  0  0  0
    0.6570   -1.1518    0.0000 C   0  0  0  0  0  0  0  0  0  0  0  0
    0.0000    0.0000    0.0000 O   0  0  0  0  0  0  0  0  0  0  0  0
    0.0000   -2.3118    0.0000 N   0  0  0  0  0  0  0  0  0  0  0  0
    0.6570   -3.4636    0.0000 C   0  0  0  0  0  0  0  0  0  0  0  0
    0.0000   -4.6155    0.0000 O   0  0  0  0  0  0  0  0  0  0  0  0
    3.9909   -2.3118    0.0000 O   0  0  0  0  0  0  0  0  0  0  0  0
    1.9873   -4.7939    0.0000 C   0  0  0  0  0  0  0  0  0  0  0  0
    1.9873   -6.1242    0.0000 C   0  0  0  0  0  0  0  0  0  0  0  0
    3.1392   -6.7813    0.0000 C   0  0  0  0  0  0  0  0  0  0  0  0
    3.1392   -8.1116    0.0000 C   0  0  0  0  0  0  0  0  0  0  0  0
    3.3176   -4.7939    0.0000 C   0  0  0  0  0  0  0  0  0  0  0  0
    3.1392   -4.1207    0.0000 C   0  0  0  0  0  0  0  0  0  0  0  0
    4.2991   -3.4636    0.0000 C   0  0  0  0  0  0  0  0  0  0  0  0
    5.4510   -4.1207    0.0000 C   0  0  0  0  0  0  0  0  0  0  0  0
  1  2  1  0  0  0  0
  1  7  1  0  0  0  0
 10  1  1  1  0  0  0
  1 15  1  0  0  0  0
  2  3  1  0  0  0  0
  2  9  2  0  0  0  0
  3  4  1  0  0  0  0
  4  5  2  0  0  0  0
  4  6  1  0  0  0  0
  6  7  1  0  0  0  0
  7  8  2  0  0  0  0
 10 11  1  1  0  0  0
 10 14  1  0  0  0  0
 11 12  1  0  0  0  0
 12 13  1  0  0  0  0
 15 16  1  0  0  0  0
 16 17  2  0  0  0  0
M  END
> <ID>
13863

> <Formula>
C12H18N2O3

> <FW>
238.2829

> <DSSTox_CID>
28800

> <DSSTox_RID>
83069

> <DSSTox_GSID>
48874

> <DSSTox_FileID_Sort>
7746

> <TS_ChemName>
R-(+)-Secobarbital

> <TS_ChemName_Synonyms>


> <TS_CASRN>
22328-94-5

> <CASRN_ChemName_Relationship>
primary

> <TS_Description>
single chemical compound

> <ChemNote>


> <STRUCTURE_Shown>
tested chemical

> <STRUCTURE_Formula>
C12H18N2O3

> <STRUCTURE_MW>
238.2829

> <STRUCTURE_ChemType>
defined organic

> <STRUCTURE_DefinedOrganicForm>
parent

> <STRUCTURE_IUPAC>
5-[(2S)-pentan-2-yl]-5-(prop-2-en-1-yl)pyrimidine-2,4,6(1H,3H,5H)-trione

> <STRUCTURE_SMILES>
O=C1NC(=O)NC(=O)C1(CC=C)[C@@H](C)CCC

> <STRUCTURE_SMILES_Desalt>
O=C1NC(=O)NC(=O)C1(CC=C)[C@@H](C)CCC

> <Substance_modify_yyyymmdd>
20111204

$$$$
