223437-11-4
ChemmineR-0915142007XD

 25 24  0  0  0  0  0  0  0  0  2 V2000
    1.1783   -3.9715    0.0000 N   0  3  0  0  0  0  0  0  0  0  0  0
    2.2694   -4.7570    0.0000 C   0  0  0  0  0  0  0  0  0  0  0  0
    0.0982   -4.7570    0.0000 C   0  0  0  0  0  0  0  0  0  0  0  0
    1.8330   -6.0336    0.0000 C   0  0  0  0  0  0  0  0  0  0  0  0
    0.5128   -6.0336    0.0000 C   0  0  0  0  0  0  0  0  0  0  0  0
    1.1783   -2.6513    0.0000 C   0  0  0  0  0  0  0  0  0  0  0  0
    2.3130   -1.9966    0.0000 C   0  0  0  0  0  0  0  0  0  0  0  0
    2.3130   -0.6655    0.0000 C   0  0  0  0  0  0  0  0  0  0  0  0
    3.4696    0.0000    0.0000 C   0  0  0  0  0  0  0  0  0  0  0  0
    0.0000   -3.3823    0.0000 C   0  0  0  0  0  0  0  0  0  0  0  0
    6.9828   -3.3823    0.0000 O   0  0  0  0  0  0  0  0  0  0  0  0
    6.3063   -4.5170    0.0000 S   0  0  0  0  0  0  0  0  0  0  0  0
    5.6190   -5.6626    0.0000 O   0  0  0  0  0  0  0  0  0  0  0  0
    5.1389   -3.8624    0.0000 C   0  0  0  0  0  0  0  0  0  0  0  0
    4.4734   -5.0080    0.0000 F   0  0  0  0  0  0  0  0  0  0  0  0
    5.7935   -2.7058    0.0000 F   0  0  0  0  0  0  0  0  0  0  0  0
    3.9933   -3.1859    0.0000 F   0  0  0  0  0  0  0  0  0  0  0  0
    7.4629   -5.1825    0.0000 N   0  5  0  0  0  0  0  0  0  0  0  0
    7.9211   -3.3823    0.0000 O   0  0  0  0  0  0  0  0  0  0  0  0
    8.5757   -4.5170    0.0000 S   0  0  0  0  0  0  0  0  0  0  0  0
    9.2849   -5.6626    0.0000 O   0  0  0  0  0  0  0  0  0  0  0  0
    9.7650   -3.8624    0.0000 C   0  0  0  0  0  0  0  0  0  0  0  0
    9.0885   -2.7058    0.0000 F   0  0  0  0  0  0  0  0  0  0  0  0
   10.4196   -5.0080    0.0000 F   0  0  0  0  0  0  0  0  0  0  0  0
   10.9106   -3.1859    0.0000 F   0  0  0  0  0  0  0  0  0  0  0  0
  1  2  1  0  0  0  0
  1  3  1  0  0  0  0
  1  6  1  0  0  0  0
  1 10  1  0  0  0  0
  2  4  1  0  0  0  0
  3  5  1  0  0  0  0
  4  5  1  0  0  0  0
  6  7  1  0  0  0  0
  7  8  1  0  0  0  0
  8  9  1  0  0  0  0
 11 12  2  0  0  0  0
 12 13  2  0  0  0  0
 12 14  1  0  0  0  0
 12 18  1  0  0  0  0
 14 15  1  0  0  0  0
 14 16  1  0  0  0  0
 14 17  1  0  0  0  0
 18 20  1  0  0  0  0
 19 20  2  0  0  0  0
 20 21  2  0  0  0  0
 20 22  1  0  0  0  0
 22 23  1  0  0  0  0
 22 24  1  0  0  0  0
 22 25  1  0  0  0  0
M  END
> <ID>
13041

> <Formula>
C11H20F6N2O4S2

> <FW>
422.4079 (142.2613+280.1467)

> <DSSTox_CID>
27944

> <DSSTox_RID>
82696

> <DSSTox_GSID>
47968

> <DSSTox_FileID_Sort>
7373

> <TS_ChemName>
1-Butyl-1-methylpyrrolidinium bis(trifluoromethanesulfonyl)imide

> <TS_ChemName_Synonyms>


> <TS_CASRN>
223437-11-4

> <CASRN_ChemName_Relationship>
primary

> <TS_Description>
single chemical compound

> <ChemNote>
ammonium; parent [223437-10-3]

> <STRUCTURE_Shown>
tested chemical

> <STRUCTURE_Formula>
C11H20F6N2O4S2

> <STRUCTURE_MW>
422.4079

> <STRUCTURE_ChemType>
defined organic

> <STRUCTURE_DefinedOrganicForm>
salt

> <STRUCTURE_IUPAC>
1-butyl-1-methylpyrrolidinium bis[(trifluoromethyl)sulfonyl]azanide

> <STRUCTURE_SMILES>
CCCC[N+]1(C)CCCC1.FC(F)(F)S(=O)(=O)[N-]S(=O)(=O)C(F)(F)F

> <STRUCTURE_SMILES_Desalt>
O=S(=O)(NS(=O)(=O)C(F)(F)F)C(F)(F)F

> <Substance_modify_yyyymmdd>
20110418

$$$$
