223436-99-5
ChemmineR-0915142007XD

 23 22  0  0  0  0  0  0  0  0  2 V2000
    1.1572   -1.9999    0.0000 N   0  3  0  0  0  0  0  0  0  0  0  0
    2.2246   -2.7864    0.0000 C   0  0  0  0  0  0  0  0  0  0  0  0
    0.0786   -2.7864    0.0000 C   0  0  0  0  0  0  0  0  0  0  0  0
    1.8089   -4.0335    0.0000 C   0  0  0  0  0  0  0  0  0  0  0  0
    0.4831   -4.0335    0.0000 C   0  0  0  0  0  0  0  0  0  0  0  0
    1.1572   -0.6516    0.0000 C   0  0  0  0  0  0  0  0  0  0  0  0
    0.0000    0.0000    0.0000 C   0  0  0  0  0  0  0  0  0  0  0  0
    2.3257   -1.3932    0.0000 C   0  0  0  0  0  0  0  0  0  0  0  0
    7.3030   -1.2022    0.0000 O   0  0  0  0  0  0  0  0  0  0  0  0
    6.6288   -2.3369    0.0000 S   0  0  0  0  0  0  0  0  0  0  0  0
    5.9323   -3.4942    0.0000 O   0  0  0  0  0  0  0  0  0  0  0  0
    5.4604   -1.6853    0.0000 C   0  0  0  0  0  0  0  0  0  0  0  0
    4.7863   -2.8313    0.0000 F   0  0  0  0  0  0  0  0  0  0  0  0
    6.1120   -0.5281    0.0000 F   0  0  0  0  0  0  0  0  0  0  0  0
    4.3031   -1.0112    0.0000 F   0  0  0  0  0  0  0  0  0  0  0  0
    7.7748   -3.0111    0.0000 N   0  5  0  0  0  0  0  0  0  0  0  0
    8.2467   -1.2022    0.0000 O   0  0  0  0  0  0  0  0  0  0  0  0
    8.8984   -2.3369    0.0000 S   0  0  0  0  0  0  0  0  0  0  0  0
    9.6062   -3.4942    0.0000 O   0  0  0  0  0  0  0  0  0  0  0  0
   10.0781   -1.6853    0.0000 C   0  0  0  0  0  0  0  0  0  0  0  0
    9.4152   -0.5281    0.0000 F   0  0  0  0  0  0  0  0  0  0  0  0
   10.7410   -2.8313    0.0000 F   0  0  0  0  0  0  0  0  0  0  0  0
   11.2353   -1.0112    0.0000 F   0  0  0  0  0  0  0  0  0  0  0  0
  1  2  1  0  0  0  0
  1  3  1  0  0  0  0
  1  6  1  0  0  0  0
  1  8  1  0  0  0  0
  2  4  1  0  0  0  0
  3  5  1  0  0  0  0
  4  5  1  0  0  0  0
  6  7  1  0  0  0  0
  9 10  2  0  0  0  0
 10 11  2  0  0  0  0
 10 12  1  0  0  0  0
 10 16  1  0  0  0  0
 12 13  1  0  0  0  0
 12 14  1  0  0  0  0
 12 15  1  0  0  0  0
 16 18  1  0  0  0  0
 17 18  2  0  0  0  0
 18 19  2  0  0  0  0
 18 20  1  0  0  0  0
 20 21  1  0  0  0  0
 20 22  1  0  0  0  0
 20 23  1  0  0  0  0
M  END
> <ID>
13015

> <Formula>
C9H16F6N2O4S2

> <FW>
394.3548 (114.2081+280.1467)

> <DSSTox_CID>
27916

> <DSSTox_RID>
82669

> <DSSTox_GSID>
47940

> <DSSTox_FileID_Sort>
7346

> <TS_ChemName>
1-Ethyl-1-methylpyrrolidinium bis(trifluoromethylsulfonyl)imide

> <TS_ChemName_Synonyms>


> <TS_CASRN>
223436-99-5

> <CASRN_ChemName_Relationship>
primary

> <TS_Description>
single chemical compound

> <ChemNote>
ammonium; parent [15302-90-6]

> <STRUCTURE_Shown>
tested chemical

> <STRUCTURE_Formula>
C9H16F6N2O4S2

> <STRUCTURE_MW>
394.3548

> <STRUCTURE_ChemType>
defined organic

> <STRUCTURE_DefinedOrganicForm>
salt

> <STRUCTURE_IUPAC>
1-ethyl-1-methylpyrrolidinium bis[(trifluoromethyl)sulfonyl]azanide

> <STRUCTURE_SMILES>
C[N+]1(CC)CCCC1.FC(F)(F)S(=O)(=O)[N-]S(=O)(=O)C(F)(F)F

> <STRUCTURE_SMILES_Desalt>
O=S(=O)(NS(=O)(=O)C(F)(F)F)C(F)(F)F

> <Substance_modify_yyyymmdd>
20110418

$$$$
