22345-47-7
ChemmineR-0915142007XD

 28 30  0  0  0  0  0  0  0  0  1 V2000
    8.9661   -5.5153    0.0000 C   0  0  0  0  0  0  0  0  0  0  0  0
   10.1197   -6.1832    0.0000 O   0  0  0  0  0  0  0  0  0  0  0  0
   10.1197   -7.5088    0.0000 C   0  0  0  0  0  0  0  0  0  0  0  0
    7.8226   -6.1832    0.0000 C   0  0  0  0  0  0  0  0  0  0  0  0
    7.8226   -7.5088    0.0000 O   0  0  0  0  0  0  0  0  0  0  0  0
    8.9661   -8.1767    0.0000 C   0  0  0  0  0  0  0  0  0  0  0  0
    6.6689   -5.5153    0.0000 C   0  0  0  0  0  0  0  0  0  0  0  0
    6.6689   -4.1896    0.0000 C   0  0  0  0  0  0  0  0  0  0  0  0
    7.8226   -3.5217    0.0000 C   0  0  0  0  0  0  0  0  0  0  0  0
    8.9661   -4.1896    0.0000 C   0  0  0  0  0  0  0  0  0  0  0  0
    8.0351   -2.1960    0.0000 C   0  0  0  0  0  0  0  0  0  0  0  0
    9.2899   -1.8216    0.0000 C   0  0  0  0  0  0  0  0  0  0  0  0
    9.5834   -0.5262    0.0000 C   0  0  0  0  0  0  0  0  0  0  0  0
    7.0939   -1.2548    0.0000 C   0  0  0  0  0  0  0  0  0  0  0  0
    7.5999    0.0000    0.0000 C   0  0  0  0  0  0  0  0  0  0  0  0
    5.7885   -1.3358    0.0000 N   0  0  0  0  0  0  0  0  0  0  0  0
    5.0396   -2.4287    0.0000 N   0  0  0  0  0  0  0  0  0  0  0  0
    5.4141   -3.6836    0.0000 C   0  0  0  0  0  0  0  0  0  0  0  0
    4.4729   -4.6247    0.0000 C   0  0  0  0  0  0  0  0  0  0  0  0
    4.7360   -5.8897    0.0000 C   0  0  0  0  0  0  0  0  0  0  0  0
    3.7949   -6.8207    0.0000 C   0  0  0  0  0  0  0  0  0  0  0  0
    2.4895   -6.3957    0.0000 C   0  0  0  0  0  0  0  0  0  0  0  0
    1.5483   -7.3368    0.0000 O   0  0  0  0  0  0  0  0  0  0  0  0
    0.2631   -6.9320    0.0000 C   0  0  0  0  0  0  0  0  0  0  0  0
    2.2263   -5.1408    0.0000 C   0  0  0  0  0  0  0  0  0  0  0  0
    0.9411   -4.7259    0.0000 O   0  0  0  0  0  0  0  0  0  0  0  0
    0.0000   -5.6670    0.0000 C   0  0  0  0  0  0  0  0  0  0  0  0
    3.1675   -4.1997    0.0000 C   0  0  0  0  0  0  0  0  0  0  0  0
  1  2  1  0  0  0  0
  1  4  2  0  0  0  0
  1 10  1  0  0  0  0
  2  3  1  0  0  0  0
  4  5  1  0  0  0  0
  4  7  1  0  0  0  0
  5  6  1  0  0  0  0
  7  8  2  0  0  0  0
  8  9  1  0  0  0  0
  8 18  1  0  0  0  0
  9 10  2  0  0  0  0
  9 11  1  0  0  0  0
 11 12  1  0  0  0  0
 11 14  1  0  0  0  0
 12 13  1  0  0  0  0
 14 15  1  0  0  0  0
 14 16  2  0  0  0  0
 16 17  1  0  0  0  0
 17 18  2  0  0  0  0
 18 19  1  0  0  0  0
 19 20  2  0  0  0  0
 19 28  1  0  0  0  0
 20 21  1  0  0  0  0
 21 22  2  0  0  0  0
 22 23  1  0  0  0  0
 22 25  1  0  0  0  0
 23 24  1  0  0  0  0
 25 26  1  0  0  0  0
 25 28  2  0  0  0  0
 26 27  1  0  0  0  0
M  END
> <ID>
3289

> <Formula>
C22H26N2O4

> <FW>
382.4528

> <DSSTox_CID>
3681

> <DSSTox_RID>
77145

> <DSSTox_GSID>
23681

> <DSSTox_FileID_Sort>
1828

> <TS_ChemName>
Tofisopam

> <TS_ChemName_Synonyms>


> <TS_CASRN>
22345-47-7

> <CASRN_ChemName_Relationship>
primary

> <TS_Description>
single chemical compound

> <ChemNote>


> <STRUCTURE_Shown>
tested chemical

> <STRUCTURE_Formula>
C22H26N2O4

> <STRUCTURE_MW>
382.4528

> <STRUCTURE_ChemType>
defined organic

> <STRUCTURE_DefinedOrganicForm>
parent

> <STRUCTURE_IUPAC>
1-(3,4-dimethoxyphenyl)-5-ethyl-7,8-dimethoxy-4-methyl-5H-2,3-benzodiazepine

> <STRUCTURE_SMILES>
COc1ccc(cc1OC)C3=NN=C(C)C(CC)c2cc(OC)c(cc23)OC

> <STRUCTURE_SMILES_Desalt>
COc1ccc(cc1OC)C3=NN=C(C)C(CC)c2cc(OC)c(cc23)OC

> <Substance_modify_yyyymmdd>
20080429

$$$$
