223437-05-6
ChemmineR-0915142007XD

 24 23  0  0  0  0  0  0  0  0  2 V2000
    1.0813   -3.4560    0.0000 N   0  3  0  0  0  0  0  0  0  0  0  0
    2.1524   -4.2341    0.0000 C   0  0  0  0  0  0  0  0  0  0  0  0
    0.0000   -4.2341    0.0000 C   0  0  0  0  0  0  0  0  0  0  0  0
    1.7381   -5.5074    0.0000 C   0  0  0  0  0  0  0  0  0  0  0  0
    0.4042   -5.5074    0.0000 C   0  0  0  0  0  0  0  0  0  0  0  0
    1.7381   -2.2939    0.0000 C   0  0  0  0  0  0  0  0  0  0  0  0
    0.4042   -2.2939    0.0000 C   0  0  0  0  0  0  0  0  0  0  0  0
    1.0813   -1.1419    0.0000 C   0  0  0  0  0  0  0  0  0  0  0  0
    0.4042    0.0000    0.0000 C   0  0  0  0  0  0  0  0  0  0  0  0
    6.1643   -1.0611    0.0000 O   0  0  0  0  0  0  0  0  0  0  0  0
    5.5074   -2.1929    0.0000 S   0  0  0  0  0  0  0  0  0  0  0  0
    4.8203   -3.3348    0.0000 O   0  0  0  0  0  0  0  0  0  0  0  0
    4.3352   -1.5360    0.0000 C   0  0  0  0  0  0  0  0  0  0  0  0
    3.6581   -2.6779    0.0000 F   0  0  0  0  0  0  0  0  0  0  0  0
    4.9920   -0.3840    0.0000 F   0  0  0  0  0  0  0  0  0  0  0  0
    3.1832   -0.8691    0.0000 F   0  0  0  0  0  0  0  0  0  0  0  0
    6.6493   -2.8598    0.0000 N   0  5  0  0  0  0  0  0  0  0  0  0
    7.1142   -1.0611    0.0000 O   0  0  0  0  0  0  0  0  0  0  0  0
    7.7710   -2.1929    0.0000 S   0  0  0  0  0  0  0  0  0  0  0  0
    8.4784   -3.3348    0.0000 O   0  0  0  0  0  0  0  0  0  0  0  0
    8.9635   -1.5360    0.0000 C   0  0  0  0  0  0  0  0  0  0  0  0
    8.2864   -0.3840    0.0000 F   0  0  0  0  0  0  0  0  0  0  0  0
    9.6102   -2.6779    0.0000 F   0  0  0  0  0  0  0  0  0  0  0  0
   10.1054   -0.8691    0.0000 F   0  0  0  0  0  0  0  0  0  0  0  0
  1  2  1  0  0  0  0
  1  3  1  0  0  0  0
  1  6  1  0  0  0  0
  1  7  1  0  0  0  0
  2  4  1  0  0  0  0
  3  5  1  0  0  0  0
  4  5  1  0  0  0  0
  7  8  1  0  0  0  0
  8  9  1  0  0  0  0
 10 11  2  0  0  0  0
 11 12  2  0  0  0  0
 11 13  1  0  0  0  0
 11 17  1  0  0  0  0
 13 14  1  0  0  0  0
 13 15  1  0  0  0  0
 13 16  1  0  0  0  0
 17 19  1  0  0  0  0
 18 19  2  0  0  0  0
 19 20  2  0  0  0  0
 19 21  1  0  0  0  0
 21 22  1  0  0  0  0
 21 23  1  0  0  0  0
 21 24  1  0  0  0  0
M  END
> <ID>
13017

> <Formula>
C10H18F6N2O4S2

> <FW>
408.3813 (128.2347+280.1467)

> <DSSTox_CID>
27918

> <DSSTox_RID>
82671

> <DSSTox_GSID>
47942

> <DSSTox_FileID_Sort>
7348

> <TS_ChemName>
1-Methyl-1-propylpyrrolidinium bis(trifluoromethylsulfonyl)imide

> <TS_ChemName_Synonyms>


> <TS_CASRN>
223437-05-6

> <CASRN_ChemName_Relationship>
primary

> <TS_Description>
single chemical compound

> <ChemNote>
ammonium; parent [108259-90-1]

> <STRUCTURE_Shown>
tested chemical

> <STRUCTURE_Formula>
C10H18F6N2O4S2

> <STRUCTURE_MW>
408.3813

> <STRUCTURE_ChemType>
defined organic

> <STRUCTURE_DefinedOrganicForm>
salt

> <STRUCTURE_IUPAC>
1-methyl-1-propylpyrrolidinium bis[(trifluoromethyl)sulfonyl]azanide

> <STRUCTURE_SMILES>
C[N+]1(CCC)CCCC1.FC(F)(F)S(=O)(=O)[N-]S(=O)(=O)C(F)(F)F

> <STRUCTURE_SMILES_Desalt>
O=S(=O)(NS(=O)(=O)C(F)(F)F)C(F)(F)F

> <Substance_modify_yyyymmdd>
20110418

$$$$
