2235-54-3
ChemmineR-0915142007XD

 18 16  0  0  0  0  0  0  0  0  2 V2000
    2.7308   -1.1526    0.0000 S   0  0  0  0  0  0  0  0  0  0  0  0
    1.5782   -1.8087    0.0000 O   0  0  0  0  0  0  0  0  0  0  0  0
    3.3869   -2.3052    0.0000 O   0  0  0  0  0  0  0  0  0  0  0  0
    2.0570    0.0000    0.0000 O   0  5  0  0  0  0  0  0  0  0  0  0
    3.8834   -0.4788    0.0000 O   0  0  0  0  0  0  0  0  0  0  0  0
    5.0360   -1.1526    0.0000 C   0  0  0  0  0  0  0  0  0  0  0  0
    6.1886   -0.4788    0.0000 C   0  0  0  0  0  0  0  0  0  0  0  0
    7.3412   -1.1526    0.0000 C   0  0  0  0  0  0  0  0  0  0  0  0
    8.4939   -0.4965    0.0000 C   0  0  0  0  0  0  0  0  0  0  0  0
    9.6465   -1.1526    0.0000 C   0  0  0  0  0  0  0  0  0  0  0  0
   10.8168   -0.4965    0.0000 C   0  0  0  0  0  0  0  0  0  0  0  0
   11.9694   -1.1526    0.0000 C   0  0  0  0  0  0  0  0  0  0  0  0
   13.1220   -0.4965    0.0000 C   0  0  0  0  0  0  0  0  0  0  0  0
   14.2746   -1.1526    0.0000 C   0  0  0  0  0  0  0  0  0  0  0  0
   15.4273   -0.4965    0.0000 C   0  0  0  0  0  0  0  0  0  0  0  0
   16.5799   -1.1526    0.0000 C   0  0  0  0  0  0  0  0  0  0  0  0
   17.7325   -0.4965    0.0000 C   0  0  0  0  0  0  0  0  0  0  0  0
    0.0000   -0.0355    0.0000 N   0  3  0  0  0  0  0  0  0  0  0  0
  1  2  2  0  0  0  0
  1  3  2  0  0  0  0
  1  4  1  0  0  0  0
  1  5  1  0  0  0  0
  5  6  1  0  0  0  0
  6  7  1  0  0  0  0
  7  8  1  0  0  0  0
  8  9  1  0  0  0  0
  9 10  1  0  0  0  0
 10 11  1  0  0  0  0
 11 12  1  0  0  0  0
 12 13  1  0  0  0  0
 13 14  1  0  0  0  0
 14 15  1  0  0  0  0
 15 16  1  0  0  0  0
 16 17  1  0  0  0  0
M  END
> <ID>
5174

> <Formula>
C12H29NO4S

> <FW>
283.4280 (265.3900+18.0379)

> <DSSTox_CID>
7462

> <DSSTox_RID>
78462

> <DSSTox_GSID>
27462

> <DSSTox_FileID_Sort>
3145

> <TS_ChemName>
Ammonium dodecyl sulfate

> <TS_ChemName_Synonyms>
Sulfuric acid, monododecyl ester, ammonium salt

> <TS_CASRN>
2235-54-3

> <CASRN_ChemName_Relationship>
primary

> <TS_Description>
single chemical compound

> <ChemNote>
parent [151-41-7]

> <STRUCTURE_Shown>
tested chemical

> <STRUCTURE_Formula>
C12H29NO4S

> <STRUCTURE_MW>
283.428

> <STRUCTURE_ChemType>
defined organic

> <STRUCTURE_DefinedOrganicForm>
salt

> <STRUCTURE_IUPAC>
ammonium dodecyl sulfate

> <STRUCTURE_SMILES>
[NH4+].[O-]S(=O)(=O)OCCCCCCCCCCCC

> <STRUCTURE_SMILES_Desalt>
OS(=O)(=O)OCCCCCCCCCCCC

> <Substance_modify_yyyymmdd>
20080429

$$$$
