223652-90-2
ChemmineR-0915142007XD

 37 39  0  0  1  0  0  0  0  0  1 V2000
    2.8606   -0.3525    0.0000 N   0  0  0  0  0  0  0  0  0  0  0  0
    4.1756   -0.4881    0.0000 C   0  0  0  0  0  0  0  0  0  0  0  0
    2.3318   -1.5591    0.0000 C   0  0  0  0  0  0  0  0  0  0  0  0
    4.4332   -1.7896    0.0000 C   0  0  0  0  0  0  0  0  0  0  0  0
    3.2944   -2.4403    0.0000 C   0  0  0  0  0  0  0  0  0  0  0  0
    5.5856   -2.4403    0.0000 C   0  0  0  0  0  0  0  0  0  0  0  0
    5.5856   -3.7554    0.0000 C   0  0  0  0  0  0  0  0  0  0  0  0
    3.2944   -3.7554    0.0000 C   0  0  0  0  0  0  0  0  0  0  0  0
    4.4332   -4.4197    0.0000 C   0  0  0  0  0  0  0  0  0  0  0  0
    1.0303   -1.8302    0.0000 C   0  0  0  0  0  0  0  0  0  0  0  0
    6.7244   -4.4197    0.0000 C   0  0  0  0  0  0  0  0  0  0  0  0
    7.8632   -3.7554    0.0000 C   0  0  0  0  0  0  0  0  0  0  0  0
    6.7244   -5.7347    0.0000 C   0  0  0  0  0  0  0  0  0  0  0  0
    9.0020   -4.4197    0.0000 C   0  0  0  0  0  0  0  0  0  0  0  0
    7.8632   -6.3855    0.0000 C   0  0  0  0  0  0  0  0  0  0  0  0
    9.0020   -5.7347    0.0000 C   0  0  0  0  0  0  0  0  0  0  0  0
   10.1544   -3.7554    0.0000 N   0  0  0  0  0  0  0  0  0  0  0  0
   11.2796   -4.4197    0.0000 C   0  0  0  0  0  0  0  0  0  0  0  0
   10.1544   -6.3855    0.0000 C   0  0  0  0  0  0  0  0  0  0  0  0
   11.2796   -5.7347    0.0000 C   0  0  0  0  0  0  0  0  0  0  0  0
    7.8903   -2.1827    0.0000 O   0  0  0  0  0  0  0  0  0  0  0  0
    6.9277   -1.2744    0.0000 C   0  0  0  0  0  0  0  0  0  0  0  0
    5.6805   -1.6811    0.0000 F   0  0  0  0  0  0  0  0  0  0  0  0
    7.2260    0.0000    0.0000 F   0  0  0  0  0  0  0  0  0  0  0  0
   10.1544   -2.4403    0.0000 C   0  0  0  0  0  0  0  0  0  0  0  0
    9.4765   -1.2879    0.0000 C   0  0  0  0  0  0  0  0  0  0  0  0
   10.7915   -1.2879    0.0000 C   0  0  0  0  0  0  0  0  0  0  0  0
   10.1544   -7.7005    0.0000 O   0  0  0  0  0  0  0  0  0  0  0  0
   12.4184   -6.3855    0.0000 C   0  0  0  0  0  0  0  0  0  0  0  0
   12.4184   -7.7005    0.0000 O   0  0  0  0  0  0  0  0  0  0  0  0
   13.5572   -5.7347    0.0000 O   0  0  0  0  0  0  0  0  0  0  0  0
    1.3828   -4.9213    0.0000 S   0  0  0  0  0  0  0  0  0  0  0  0
    1.3828   -6.4261    0.0000 O   0  0  0  0  0  0  0  0  0  0  0  0
    2.6979   -4.9213    0.0000 O   0  0  0  0  0  0  0  0  0  0  0  0
    1.3828   -3.6062    0.0000 O   0  0  0  0  0  0  0  0  0  0  0  0
    0.0000   -4.9213    0.0000 C   0  0  0  0  0  0  0  0  0  0  0  0
    4.4603   -6.4126    0.0000 O   0  0  0  0  0  0  0  0  0  0  0  0
  1  2  1  0  0  0  0
  1  3  1  0  0  0  0
  2  4  1  0  0  0  0
  3  5  1  0  0  0  0
  3 10  1  1  0  0  0
  4  6  1  0  0  0  0
  4  5  2  0  0  0  0
  5  8  1  0  0  0  0
  6  7  2  0  0  0  0
  7  9  1  0  0  0  0
  7 11  1  0  0  0  0
  8  9  2  0  0  0  0
 11 12  1  0  0  0  0
 11 13  2  0  0  0  0
 12 14  2  0  0  0  0
 12 21  1  0  0  0  0
 13 15  1  0  0  0  0
 14 17  1  0  0  0  0
 14 16  1  0  0  0  0
 15 16  2  0  0  0  0
 16 19  1  0  0  0  0
 17 18  1  0  0  0  0
 17 25  1  0  0  0  0
 18 20  2  0  0  0  0
 19 20  1  0  0  0  0
 19 28  2  0  0  0  0
 20 29  1  0  0  0  0
 21 22  1  0  0  0  0
 22 23  1  0  0  0  0
 22 24  1  0  0  0  0
 25 26  1  0  0  0  0
 25 27  1  0  0  0  0
 26 27  1  0  0  0  0
 29 30  1  0  0  0  0
 29 31  2  0  0  0  0
 32 33  2  0  0  0  0
 32 34  1  0  0  0  0
 32 35  2  0  0  0  0
 32 36  1  0  0  0  0
M  END
> <ID>
13640

> <Formula>
C24H26F2N2O8S

> <FW>
540.5336 (426.4127+96.1057+18.0153)

> <DSSTox_CID>
28570

> <DSSTox_RID>
82842

> <DSSTox_GSID>
48644

> <DSSTox_FileID_Sort>
7519

> <TS_ChemName>
Garenoxacin mesylate hydrate

> <TS_ChemName_Synonyms>
Garenoxacin

> <TS_CASRN>
223652-90-2

> <CASRN_ChemName_Relationship>
primary

> <TS_Description>
single chemical compound

> <ChemNote>
absolute stereochem;rptation (+); parent [194804-75-6]

> <STRUCTURE_Shown>
tested chemical

> <STRUCTURE_Formula>
C24H26F2N2O8S

> <STRUCTURE_MW>
540.5336

> <STRUCTURE_ChemType>
defined organic

> <STRUCTURE_DefinedOrganicForm>
complex

> <STRUCTURE_IUPAC>
1-cyclopropyl-8-(difluoromethoxy)-7-[(1R)-1-methyl-2,3-dihydro-1H-isoindol-5-yl]-4-oxo-1,4-dihydroquinoline-3-carboxylic acid methanesulfonate hydrate (1:1:1)

> <STRUCTURE_SMILES>
O.CS(=O)(=O)O.C[C@H]1NCc2cc(ccc12)c3ccc4c(c3OC(F)F)N(C=C(C4=O)C(=O)O)C5CC5

> <STRUCTURE_SMILES_Desalt>
C[C@H]1NCc2cc(ccc12)c3ccc4c(c3OC(F)F)N(C=C(C4=O)C(=O)O)C5CC5

> <Substance_modify_yyyymmdd>
20111016

$$$$
