2236-31-9
ChemmineR-0915142007XD

 38 41  0  0  1  0  0  0  0  0  1 V2000
   11.9404  -12.2115    0.0000 C   0  0  0  0  0  0  0  0  0  0  0  0
   11.6435  -10.9077    0.0000 C   0  0  0  0  0  0  0  0  0  0  0  0
   10.3398  -10.5463    0.0000 C   0  0  0  0  0  0  0  0  0  0  0  0
    9.4620  -11.5919    0.0000 O   0  0  0  0  0  0  0  0  0  0  0  0
    9.9912   -9.3458    0.0000 O   0  0  0  0  0  0  0  0  0  0  0  0
    9.0360   -8.4551    0.0000 C   0  0  0  0  0  0  0  0  0  0  0  0
    8.2873   -9.6040    0.0000 H   0  0  0  0  0  0  0  0  0  0  0  0
    7.8871   -7.9646    0.0000 C   0  0  0  0  0  0  0  0  0  0  0  0
    7.5386   -6.7254    0.0000 C   0  0  0  0  0  0  0  0  0  0  0  0
    6.8803   -7.9775    0.0000 H   0  0  0  0  0  0  0  0  0  0  0  0
    6.4285   -5.9638    0.0000 C   0  0  0  0  0  0  0  0  0  0  0  0
    5.6669   -7.1126    0.0000 H   0  0  0  0  0  0  0  0  0  0  0  0
    5.1634   -6.3768    0.0000 C   0  0  0  0  0  0  0  0  0  0  0  0
    4.0533   -5.6927    0.0000 C   0  0  0  0  0  0  0  0  0  0  0  0
    4.2469   -4.3889    0.0000 C   0  0  0  0  0  0  0  0  0  0  0  0
    5.4603   -3.8984    0.0000 C   0  0  0  0  0  0  0  0  0  0  0  0
    5.6023   -2.5559    0.0000 C   0  0  0  0  0  0  0  0  0  0  0  0
    4.5567   -1.7685    0.0000 C   0  0  0  0  0  0  0  0  0  0  0  0
    3.3562   -2.3106    0.0000 C   0  0  0  0  0  0  0  0  0  0  0  0
    3.1755   -3.6144    0.0000 C   0  0  0  0  0  0  0  0  0  0  0  0
    2.2590   -1.5619    0.0000 O   0  0  0  0  0  0  0  0  0  0  0  0
    1.0585   -2.1428    0.0000 C   0  0  0  0  0  0  0  0  0  0  0  0
    0.8778   -3.4595    0.0000 O   0  0  0  0  0  0  0  0  0  0  0  0
    0.0000   -1.3296    0.0000 C   0  0  0  0  0  0  0  0  0  0  0  0
    0.1936    0.0000    0.0000 C   0  0  0  0  0  0  0  0  0  0  0  0
    6.5446   -4.6342    0.0000 C   0  0  0  0  0  0  0  0  0  0  0  0
    7.1255   -3.3820    0.0000 H   0  0  0  0  0  0  0  0  0  0  0  0
    7.8097   -4.2598    0.0000 C   0  0  0  0  0  0  0  0  0  0  0  0
    8.8036   -4.9956    0.0000 C   0  0  0  0  0  0  0  0  0  0  0  0
    8.8295   -6.2994    0.0000 C   0  0  0  0  0  0  0  0  0  0  0  0
    9.8105   -5.2925    0.0000 C   0  0  0  0  0  0  0  0  0  0  0  0
    9.7331   -7.2546    0.0000 C   0  0  0  0  0  0  0  0  0  0  0  0
   10.8690   -7.9904    0.0000 H   0  0  0  0  0  0  0  0  0  0  0  0
   10.8432   -6.5705    0.0000 O   0  0  0  0  0  0  0  0  0  0  0  0
   12.1211   -6.6092    0.0000 C   0  0  0  0  0  0  0  0  0  0  0  0
   12.9086   -7.7064    0.0000 O   0  0  0  0  0  0  0  0  0  0  0  0
   12.8440   -5.4732    0.0000 C   0  0  0  0  0  0  0  0  0  0  0  0
   12.2244   -4.2856    0.0000 C   0  0  0  0  0  0  0  0  0  0  0  0
  1  2  1  0  0  0  0
  2  3  1  0  0  0  0
  3  4  2  0  0  0  0
  3  5  1  0  0  0  0
  5  6  1  0  0  0  0
  6  7  1  1  0  0  0
  6  8  1  0  0  0  0
  6 32  1  0  0  0  0
  8  9  1  0  0  0  0
  9 10  1  6  0  0  0
  9 11  1  0  0  0  0
  9 30  1  0  0  0  0
 11 12  1  1  0  0  0
 11 13  1  0  0  0  0
 11 26  1  0  0  0  0
 13 14  1  0  0  0  0
 14 15  1  0  0  0  0
 15 16  2  0  0  0  0
 15 20  1  0  0  0  0
 16 17  1  0  0  0  0
 16 26  1  0  0  0  0
 17 18  2  0  0  0  0
 18 19  1  0  0  0  0
 19 20  2  0  0  0  0
 19 21  1  0  0  0  0
 21 22  1  0  0  0  0
 22 23  2  0  0  0  0
 22 24  1  0  0  0  0
 24 25  1  0  0  0  0
 26 27  1  6  0  0  0
 26 28  1  0  0  0  0
 28 29  1  0  0  0  0
 29 30  1  0  0  0  0
 30 31  1  1  0  0  0
 30 32  1  0  0  0  0
 32 33  1  0  0  0  0
 32 34  1  1  0  0  0
 34 35  1  0  0  0  0
 35 36  2  0  0  0  0
 35 37  1  0  0  0  0
 37 38  1  0  0  0  0
M  END
> <ID>
16091

> <Formula>
C27H36O6

> <FW>
456.5711

> <DSSTox_CID>
31478

> <DSSTox_RID>
97363

> <DSSTox_GSID>
57689

> <DSSTox_FileID_Sort>
8430

> <TS_ChemName>
Estriol tripropionate

> <TS_ChemName_Synonyms>


> <TS_CASRN>
2236-31-9

> <CASRN_ChemName_Relationship>
primary

> <TS_Description>
single chemical compound

> <ChemNote>


> <STRUCTURE_Shown>
tested chemical

> <STRUCTURE_Formula>
C27H36O6

> <STRUCTURE_MW>
456.5711

> <STRUCTURE_ChemType>
defined organic

> <STRUCTURE_DefinedOrganicForm>
parent

> <STRUCTURE_IUPAC>
(16alpha,17beta)-estra-1,3,5(10)-triene-3,16,17-triyl tripropanoate

> <STRUCTURE_SMILES>
CCC(=O)Oc3cc4CC[C@@H]2[C@H](CC[C@@]1(C)[C@H]2C[C@@H](OC(=O)CC)[C@@H]1OC(=O)CC)c4cc3

> <STRUCTURE_SMILES_Desalt>
CCC(=O)Oc3cc4CC[C@@H]2[C@H](CC[C@@]1(C)[C@H]2C[C@@H](OC(=O)CC)[C@@H]1OC(=O)CC)c4cc3

> <Substance_modify_yyyymmdd>
20131018

$$$$
