22373-78-0
ChemmineR-0915142007XD

 53 56  0  0  1  0  0  0  0  0  2 V2000
    3.3200   -8.3492    0.0000 Na   0  3  0  0  0  0  0  0  0  0  0  0
    9.4493   -2.3378    0.0000 C    0  0  0  0  0  0  0  0  0  0  0  0
   10.5102   -3.1039    0.0000 O    0  0  0  0  0  0  0  0  0  0  0  0
    9.8619   -1.0805    0.0000 C    0  0  0  0  0  0  0  0  0  0  0  0
   11.5907   -2.3378    0.0000 C    0  0  0  0  0  0  0  0  0  0  0  0
   11.1781   -1.0805    0.0000 C    0  0  0  0  0  0  0  0  0  0  0  0
   12.9069   -2.3378    0.0000 C    0  0  0  0  0  0  0  0  0  0  0  0
    8.1331   -2.3378    0.0000 C    0  0  0  0  0  0  0  0  0  0  0  0
   13.9677   -3.1039    0.0000 O    0  0  0  0  0  0  0  0  0  0  0  0
   13.3194   -1.0805    0.0000 C    0  0  0  0  0  0  0  0  0  0  0  0
   15.0679   -2.3378    0.0000 C    0  0  0  0  0  0  0  0  0  0  0  0
   14.6357   -1.0805    0.0000 C    0  0  0  0  0  0  0  0  0  0  0  0
    5.9721   -2.3378    0.0000 C    0  0  0  0  0  0  0  0  0  0  0  0
    7.0526   -3.1039    0.0000 O    0  0  0  0  0  0  0  0  0  0  0  0
    6.3847   -1.0805    0.0000 C    0  0  0  0  0  0  0  0  0  0  0  0
    7.7206   -1.0805    0.0000 C    0  0  0  0  0  0  0  0  0  0  0  0
   16.2073   -3.0057    0.0000 C    0  0  0  0  0  0  0  0  0  0  0  0
   16.2073   -4.3416    0.0000 O    0  0  0  0  0  0  0  0  0  0  0  0
   18.5058   -3.0057    0.0000 C    0  0  0  0  0  0  0  0  0  0  0  0
   18.5058   -4.3416    0.0000 C    0  0  0  0  0  0  0  0  0  0  0  0
   17.3467   -2.3378    0.0000 C    0  0  0  0  0  0  0  0  0  0  0  0
   17.3467   -5.0095    0.0000 C    0  0  0  0  0  0  0  0  0  0  0  0
   17.3467   -1.0019    0.0000 C    0  0  0  0  0  0  0  0  0  0  0  0
   15.0679   -3.6737    0.0000 H    0  0  0  0  0  0  0  0  0  0  0  0
   16.2073   -1.6698    0.0000 H    0  0  0  0  0  0  0  0  0  0  0  0
   16.6984   -6.1293    0.0000 O    0  0  0  0  0  0  0  0  0  0  0  0
   18.0343   -6.1293    0.0000 C    0  0  0  0  0  0  0  0  0  0  0  0
   17.3860   -7.3080    0.0000 O    0  0  0  0  0  0  0  0  0  0  0  0
   19.6452   -5.0095    0.0000 C    0  0  0  0  0  0  0  0  0  0  0  0
   12.1014   -1.1591    0.0000 H    0  0  0  0  0  0  0  0  0  0  0  0
   12.5533    0.0000    0.0000 C    0  0  0  0  0  0  0  0  0  0  0  0
   12.2390   -3.4968    0.0000 C    0  0  0  0  0  0  0  0  0  0  0  0
    9.1154   -3.6540    0.0000 H    0  0  0  0  0  0  0  0  0  0  0  0
   11.5907   -4.6166    0.0000 C    0  0  0  0  0  0  0  0  0  0  0  0
    8.6046   -0.9233    0.0000 C    0  0  0  0  0  0  0  0  0  0  0  0
    3.3200   -6.9544    0.0000 O    0  0  0  0  0  0  0  0  0  0  0  0
    1.9645   -6.9544    0.0000 C    0  0  0  0  0  0  0  0  0  0  0  0
    1.3359   -8.0938    0.0000 O    0  5  0  0  0  0  0  0  0  0  0  0
    3.9880   -5.7953    0.0000 C    0  0  0  0  0  0  0  0  0  0  0  0
    3.3200   -4.6166    0.0000 C    0  0  0  0  0  0  0  0  0  0  0  0
    1.3359   -5.7953    0.0000 C    0  0  0  0  0  0  0  0  0  0  0  0
    1.9645   -4.6166    0.0000 C    0  0  0  0  0  0  0  0  0  0  0  0
    3.9880   -3.4968    0.0000 C    0  0  0  0  0  0  0  0  0  0  0  0
    3.3200   -2.3378    0.0000 C    0  0  0  0  0  0  0  0  0  0  0  0
    1.3359   -3.4968    0.0000 O    0  0  0  0  0  0  0  0  0  0  0  0
    1.9645   -2.3378    0.0000 C    0  0  0  0  0  0  0  0  0  0  0  0
    5.3042   -3.4968    0.0000 O    0  0  0  0  0  0  0  0  0  0  0  0
    3.9880   -1.1787    0.0000 C    0  0  0  0  0  0  0  0  0  0  0  0
    5.3042   -1.1787    0.0000 C    0  0  0  0  0  0  0  0  0  0  0  0
    0.0000   -5.7953    0.0000 C    0  0  0  0  0  0  0  0  0  0  0  0
    4.6363   -4.6166    0.0000 H    0  0  0  0  0  0  0  0  0  0  0  0
    0.0000   -3.4968    0.0000 C    0  0  0  0  0  0  0  0  0  0  0  0
    3.3200   -0.0589    0.0000 O    0  0  0  0  0  0  0  0  0  0  0  0
  2  3  1  0  0  0  0
  2  4  1  0  0  0  0
  2  8  1  0  0  0  0
  2 33  1  6  0  0  0
  3  5  1  0  0  0  0
  4  6  1  0  0  0  0
  5  6  1  0  0  0  0
  5  7  1  0  0  0  0
  5 32  1  6  0  0  0
  7  9  1  0  0  0  0
  7 10  1  0  0  0  0
  7 30  1  6  0  0  0
  8 14  1  0  0  0  0
  8 16  1  0  0  0  0
  8 35  1  6  0  0  0
  9 11  1  0  0  0  0
 10 12  1  0  0  0  0
 10 31  1  1  0  0  0
 11 12  1  0  0  0  0
 11 17  1  0  0  0  0
 11 25  1  1  0  0  0
 13 14  1  1  0  0  0
 13 15  1  6  0  0  0
 13 47  1  0  0  0  0
 13 49  1  0  0  0  0
 15 16  1  0  0  0  0
 17 21  1  0  0  0  0
 17 18  1  0  0  0  0
 17 24  1  1  0  0  0
 18 22  1  0  0  0  0
 19 20  1  0  0  0  0
 19 21  1  0  0  0  0
 20 22  1  0  0  0  0
 20 29  1  1  0  0  0
 21 23  1  1  0  0  0
 22 26  1  0  0  0  0
 22 27  1  6  0  0  0
 27 28  1  0  0  0  0
 32 34  1  0  0  0  0
 36 37  2  0  0  0  0
 37 38  1  0  0  0  0
 37 41  1  0  0  0  0
 40 39  1  1  0  0  0
 40 43  1  0  0  0  0
 40 42  1  0  0  0  0
 41 42  1  0  0  0  0
 41 50  1  1  0  0  0
 42 45  1  6  0  0  0
 43 47  1  0  0  0  0
 43 44  1  0  0  0  0
 43 51  1  1  0  0  0
 44 46  1  6  0  0  0
 44 48  1  0  0  0  0
 45 52  1  0  0  0  0
 48 49  1  0  0  0  0
 48 53  1  1  0  0  0
M  END
> <ID>
11038

> <Formula>
C36H61NaO11

> <FW>
692.8527 (22.9892+669.8635)

> <DSSTox_CID>
25573

> <DSSTox_RID>
80970

> <DSSTox_GSID>
45573

> <DSSTox_FileID_Sort>
5651

> <TS_ChemName>
Monensin sodium

> <TS_ChemName_Synonyms>


> <TS_CASRN>
22373-78-0

> <CASRN_ChemName_Relationship>
primary

> <TS_Description>
single chemical compound

> <ChemNote>
stereochem; parent [17090-79-8]

> <STRUCTURE_Shown>
tested chemical

> <STRUCTURE_Formula>
C36H61NaO11

> <STRUCTURE_MW>
692.8527

> <STRUCTURE_ChemType>
defined organic

> <STRUCTURE_DefinedOrganicForm>
salt

> <STRUCTURE_IUPAC>
sodium (2S,3R,4S)-4-[(2S,5R,7S,8R,9S)-2-{(2S,2'R,3'S,5R,5'R)-2-ethyl-5'-[(2S,3S,5R,6R)-6-hydroxy-6-(hydroxymethyl)-3,5-dimethyltetrahydro-2H-pyran-2-yl]-3'-methyloctahydro-2,2'-bifuran-5-yl}-9-hydroxy-2,8-dimethyl-1,6-dioxaspiro[4.5]dec-7-yl]-3-methoxy-2-

> <STRUCTURE_SMILES>
[Na+].OC[C@]1(O)O[C@@H]([C@@H](C)C[C@H]1C)[C@H]2C[C@H](C)[C@@H](O2)[C@]3(CC)CC[C@@H](O3)[C@]5(C)CC[C@]4(C[C@H](O)[C@@H](C)[C@H](O4)[C@@H](C)[C@@H](OC)[C@H](C)C([O-])=O)O5

> <STRUCTURE_SMILES_Desalt>
OC[C@]1(O)O[C@@H]([C@@H](C)C[C@H]1C)[C@H]2C[C@H](C)[C@@H](O2)[C@]3(CC)CC[C@@H](O3)[C@]5(C)CC[C@]4(C[C@H](O)[C@@H](C)[C@H](O4)[C@@H](C)[C@@H](OC)[C@H](C)C(=O)O)O5

> <Substance_modify_yyyymmdd>
20100107

$$$$
