223769-64-0
ChemmineR-0915142007XD

 31 30  0  0  0  0  0  0  0  0  1 V2000
   11.1125   -5.8054    0.0000 S   0  0  0  0  0  0  0  0  0  0  0  0
   11.1125   -7.3003    0.0000 O   0  0  0  0  0  0  0  0  0  0  0  0
   12.4206   -5.8054    0.0000 O   0  0  0  0  0  0  0  0  0  0  0  0
   11.1125   -4.4973    0.0000 O   0  0  0  0  0  0  0  0  0  0  0  0
    9.7421   -5.8054    0.0000 C   0  0  0  0  0  0  0  0  0  0  0  0
    1.4451   -4.9209    0.0000 S   0  0  0  0  0  0  0  0  0  0  0  0
    1.4451   -6.4158    0.0000 O   0  0  0  0  0  0  0  0  0  0  0  0
    2.7657   -4.9209    0.0000 O   0  0  0  0  0  0  0  0  0  0  0  0
    1.4451   -3.6128    0.0000 O   0  0  0  0  0  0  0  0  0  0  0  0
    0.0747   -4.9209    0.0000 C   0  0  0  0  0  0  0  0  0  0  0  0
    2.6286   -3.4259    0.0000 C   0  0  0  0  0  0  0  0  0  0  0  0
    1.9559   -2.2673    0.0000 C   0  0  0  0  0  0  0  0  0  0  0  0
    0.6478   -2.2673    0.0000 C   0  0  0  0  0  0  0  0  0  0  0  0
    0.0000   -3.4259    0.0000 N   0  0  0  0  0  0  0  0  0  0  0  0
    0.0000   -1.1461    0.0000 N   0  0  0  0  0  0  0  0  0  0  0  0
    2.6286   -1.1461    0.0000 C   0  0  0  0  0  0  0  0  0  0  0  0
    3.9367   -1.1461    0.0000 C   0  0  0  0  0  0  0  0  0  0  0  0
    4.5845    0.0000    0.0000 O   0  0  0  0  0  0  0  0  0  0  0  0
    4.5845   -2.2673    0.0000 C   0  0  0  0  0  0  0  0  0  0  0  0
    5.8926   -2.2673    0.0000 C   0  0  0  0  0  0  0  0  0  0  0  0
    6.5653   -3.4259    0.0000 C   0  0  0  0  0  0  0  0  0  0  0  0
    7.8859   -3.4259    0.0000 C   0  0  0  0  0  0  0  0  0  0  0  0
    8.5337   -2.2673    0.0000 C   0  0  0  0  0  0  0  0  0  0  0  0
    9.8293   -2.2673    0.0000 C   0  0  0  0  0  0  0  0  0  0  0  0
   10.5020   -3.4259    0.0000 C   0  0  0  0  0  0  0  0  0  0  0  0
   11.8101   -3.4259    0.0000 C   0  0  0  0  0  0  0  0  0  0  0  0
   12.4579   -4.5596    0.0000 N   0  0  0  0  0  0  0  0  0  0  0  0
   12.4579   -2.2673    0.0000 N   0  0  0  0  0  0  0  0  0  0  0  0
    9.8293   -4.5596    0.0000 C   0  0  0  0  0  0  0  0  0  0  0  0
    8.5337   -4.5596    0.0000 C   0  0  0  0  0  0  0  0  0  0  0  0
    3.9367   -3.4259    0.0000 C   0  0  0  0  0  0  0  0  0  0  0  0
  1  2  2  0  0  0  0
  1  3  1  0  0  0  0
  1  4  2  0  0  0  0
  1  5  1  0  0  0  0
  6  7  2  0  0  0  0
  6  8  1  0  0  0  0
  6  9  2  0  0  0  0
  6 10  1  0  0  0  0
 11 12  2  0  0  0  0
 11 31  1  0  0  0  0
 12 13  1  0  0  0  0
 12 16  1  0  0  0  0
 13 14  1  0  0  0  0
 13 15  2  0  0  0  0
 16 17  2  0  0  0  0
 17 18  1  0  0  0  0
 17 19  1  0  0  0  0
 19 20  1  0  0  0  0
 19 31  2  0  0  0  0
 20 21  2  3  0  0  0
 21 22  1  0  0  0  0
 22 23  2  0  0  0  0
 22 30  1  0  0  0  0
 23 24  1  0  0  0  0
 24 25  2  0  0  0  0
 25 26  1  0  0  0  0
 25 29  1  0  0  0  0
 26 27  1  0  0  0  0
 26 28  2  0  0  0  0
 29 30  2  0  0  0  0
M  END
> <ID>
11814

> <Formula>
C18H24N4O7S2

> <FW>
472.5358 (96.1057+96.1057+280.3244)

> <DSSTox_CID>
26592

> <DSSTox_RID>
81749

> <DSSTox_GSID>
46592

> <DSSTox_FileID_Sort>
6430

> <TS_ChemName>
Hydroxystilbamidine bis(methanesulfonate)

> <TS_ChemName_Synonyms>


> <TS_CASRN>
223769-64-0

> <CASRN_ChemName_Relationship>
primary

> <TS_Description>
mixture of Z,E isomers

> <ChemNote>
mixture of Z,E isomers; parent [495-99-8]

> <STRUCTURE_Shown>
representative isomer in mixture

> <STRUCTURE_Formula>
C18H24N4O7S2

> <STRUCTURE_MW>
472.5358

> <STRUCTURE_ChemType>
defined organic

> <STRUCTURE_DefinedOrganicForm>
complex

> <STRUCTURE_IUPAC>
4-[2-(4-carbamimidoylphenyl)ethenyl]-3-hydroxybenzenecarboximidamide methanesulfonate (1:2)

> <STRUCTURE_SMILES>
Oc2cc(ccc2C=Cc1ccc(cc1)C(=N)N)C(=N)N.CS(=O)(=O)O.CS(=O)(=O)O

> <STRUCTURE_SMILES_Desalt>
Oc2cc(ccc2C=Cc1ccc(cc1)C(=N)N)C(=N)N

> <Substance_modify_yyyymmdd>
20110810

$$$$
