2243-61-0
ChemmineR-0915142007XD

 12 13  0  0  0  0  0  0  0  0  1 V2000
    3.4580    0.0000    0.0000 N   0  0  0  0  0  0  0  0  0  0  0  0
    3.4580   -1.3300    0.0000 C   0  0  0  0  0  0  0  0  0  0  0  0
    4.6072   -1.9950    0.0000 C   0  0  0  0  0  0  0  0  0  0  0  0
    4.6072   -3.3250    0.0000 C   0  0  0  0  0  0  0  0  0  0  0  0
    3.4580   -3.9901    0.0000 C   0  0  0  0  0  0  0  0  0  0  0  0
    3.4580   -5.3201    0.0000 N   0  0  0  0  0  0  0  0  0  0  0  0
    2.3036   -3.3250    0.0000 C   0  0  0  0  0  0  0  0  0  0  0  0
    1.1491   -3.9901    0.0000 C   0  0  0  0  0  0  0  0  0  0  0  0
    0.0000   -3.3250    0.0000 C   0  0  0  0  0  0  0  0  0  0  0  0
    0.0000   -1.9950    0.0000 C   0  0  0  0  0  0  0  0  0  0  0  0
    1.1491   -1.3300    0.0000 C   0  0  0  0  0  0  0  0  0  0  0  0
    2.3036   -1.9950    0.0000 C   0  0  0  0  0  0  0  0  0  0  0  0
  1  2  1  0  0  0  0
  2  3  2  0  0  0  0
  2 12  1  0  0  0  0
  3  4  1  0  0  0  0
  4  5  2  0  0  0  0
  5  6  1  0  0  0  0
  5  7  1  0  0  0  0
  7  8  2  0  0  0  0
  7 12  1  0  0  0  0
  8  9  1  0  0  0  0
  9 10  2  0  0  0  0
 10 11  1  0  0  0  0
 11 12  2  0  0  0  0
M  END
> <ID>
4353

> <Formula>
C10H10N2

> <FW>
158.1998

> <DSSTox_CID>
5696

> <DSSTox_RID>
77885

> <DSSTox_GSID>
25696

> <DSSTox_FileID_Sort>
2568

> <TS_ChemName>
1,4-Naphthalenediamine

> <TS_ChemName_Synonyms>


> <TS_CASRN>
2243-61-0

> <CASRN_ChemName_Relationship>
primary

> <TS_Description>
single chemical compound

> <ChemNote>


> <STRUCTURE_Shown>
tested chemical

> <STRUCTURE_Formula>
C10H10N2

> <STRUCTURE_MW>
158.1998

> <STRUCTURE_ChemType>
defined organic

> <STRUCTURE_DefinedOrganicForm>
parent

> <STRUCTURE_IUPAC>
naphthalene-1,4-diamine

> <STRUCTURE_SMILES>
Nc1ccc(N)c2ccccc12

> <STRUCTURE_SMILES_Desalt>
Nc1ccc(N)c2ccccc12

> <Substance_modify_yyyymmdd>
20080429

$$$$
