2243-76-7
ChemmineR-0915142007XD

 21 22  0  0  0  0  0  0  0  0  2 V2000
   12.6552   -3.9990    0.0000 O   0  0  0  0  0  0  0  0  0  0  0  0
   11.5036   -3.3283    0.0000 C   0  0  0  0  0  0  0  0  0  0  0  0
   10.3520   -3.9990    0.0000 C   0  0  0  0  0  0  0  0  0  0  0  0
   10.3520   -5.3152    0.0000 C   0  0  0  0  0  0  0  0  0  0  0  0
   11.5036   -5.9859    0.0000 O   0  0  0  0  0  0  0  0  0  0  0  0
    9.2003   -5.9859    0.0000 C   0  0  0  0  0  0  0  0  0  0  0  0
    8.0361   -5.3152    0.0000 C   0  0  0  0  0  0  0  0  0  0  0  0
    8.0361   -3.9990    0.0000 C   0  0  0  0  0  0  0  0  0  0  0  0
    6.9097   -3.3283    0.0000 N   0  0  0  0  0  0  0  0  0  0  0  0
    5.7455   -3.9990    0.0000 N   0  0  0  0  0  0  0  0  0  0  0  0
    4.5938   -3.3283    0.0000 C   0  0  0  0  0  0  0  0  0  0  0  0
    3.4422   -3.9990    0.0000 C   0  0  0  0  0  0  0  0  0  0  0  0
    2.3032   -3.3283    0.0000 C   0  0  0  0  0  0  0  0  0  0  0  0
    2.3032   -1.9995    0.0000 C   0  0  0  0  0  0  0  0  0  0  0  0
    1.1516   -1.3288    0.0000 N   0  3  0  0  0  0  0  0  0  0  0  0
    0.0000   -1.9995    0.0000 O   0  5  0  0  0  0  0  0  0  0  0  0
    1.1516    0.0000    0.0000 O   0  0  0  0  0  0  0  0  0  0  0  0
    3.4422   -1.3288    0.0000 C   0  0  0  0  0  0  0  0  0  0  0  0
    4.5938   -1.9995    0.0000 C   0  0  0  0  0  0  0  0  0  0  0  0
    9.2003   -3.3283    0.0000 C   0  0  0  0  0  0  0  0  0  0  0  0
   11.5036   -1.9995    0.0000 O   0  0  0  0  0  0  0  0  0  0  0  0
  1  2  1  0  0  0  0
  2  3  1  0  0  0  0
  2 21  2  0  0  0  0
  3  4  2  0  0  0  0
  3 20  1  0  0  0  0
  4  5  1  0  0  0  0
  4  6  1  0  0  0  0
  6  7  2  0  0  0  0
  7  8  1  0  0  0  0
  8  9  1  0  0  0  0
  8 20  2  0  0  0  0
  9 10  2  0  0  0  0
 10 11  1  0  0  0  0
 11 12  2  0  0  0  0
 11 19  1  0  0  0  0
 12 13  1  0  0  0  0
 13 14  2  0  0  0  0
 14 15  1  0  0  0  0
 14 18  1  0  0  0  0
 15 16  1  0  0  0  0
 15 17  2  0  0  0  0
 18 19  2  0  0  0  0
M  END
> <ID>
6602

> <Formula>
C13H9N3O5

> <FW>
287.2277

> <DSSTox_CID>
13163

> <DSSTox_RID>
79053

> <DSSTox_GSID>
33163

> <DSSTox_FileID_Sort>
3735

> <TS_ChemName>
Alizarin Yellow R

> <TS_ChemName_Synonyms>


> <TS_CASRN>
2243-76-7

> <CASRN_ChemName_Relationship>
primary

> <TS_Description>
single chemical compound

> <ChemNote>


> <STRUCTURE_Shown>
tested chemical

> <STRUCTURE_Formula>
C13H9N3O5

> <STRUCTURE_MW>
287.2277

> <STRUCTURE_ChemType>
defined organic

> <STRUCTURE_DefinedOrganicForm>
parent

> <STRUCTURE_IUPAC>
2-hydroxy-5-[(E)-(4-nitrophenyl)diazenyl]benzoic acid

> <STRUCTURE_SMILES>
OC(=O)c1cc(ccc1O)/N=N/c2ccc(cc2)[N+]([O-])=O

> <STRUCTURE_SMILES_Desalt>
OC(=O)c1cc(ccc1O)/N=N/c2ccc(cc2)[N+]([O-])=O

> <Substance_modify_yyyymmdd>
20080429

$$$$
