2243-62-1
ChemmineR-0915142007XD

 12 13  0  0  0  0  0  0  0  0  1 V2000
    5.7579   -1.9922    0.0000 N   0  0  0  0  0  0  0  0  0  0  0  0
    4.6063   -2.6601    0.0000 C   0  0  0  0  0  0  0  0  0  0  0  0
    3.4547   -1.9922    0.0000 C   0  0  0  0  0  0  0  0  0  0  0  0
    2.3031   -2.6601    0.0000 C   0  0  0  0  0  0  0  0  0  0  0  0
    2.3031   -3.9902    0.0000 C   0  0  0  0  0  0  0  0  0  0  0  0
    3.4547   -4.6524    0.0000 C   0  0  0  0  0  0  0  0  0  0  0  0
    4.6063   -3.9902    0.0000 C   0  0  0  0  0  0  0  0  0  0  0  0
    1.1516   -1.9922    0.0000 C   0  0  0  0  0  0  0  0  0  0  0  0
    1.1516   -0.6622    0.0000 C   0  0  0  0  0  0  0  0  0  0  0  0
    2.3031    0.0000    0.0000 C   0  0  0  0  0  0  0  0  0  0  0  0
    3.4547   -0.6622    0.0000 C   0  0  0  0  0  0  0  0  0  0  0  0
    0.0000   -2.6601    0.0000 N   0  0  0  0  0  0  0  0  0  0  0  0
  1  2  1  0  0  0  0
  2  3  2  0  0  0  0
  2  7  1  0  0  0  0
  3  4  1  0  0  0  0
  3 11  1  0  0  0  0
  4  5  2  0  0  0  0
  4  8  1  0  0  0  0
  5  6  1  0  0  0  0
  6  7  2  0  0  0  0
  8  9  2  0  0  0  0
  8 12  1  0  0  0  0
  9 10  1  0  0  0  0
 10 11  2  0  0  0  0
M  END
> <ID>
882

> <Formula>
C10H10N2

> <FW>
158.1998

> <DSSTox_CID>
916

> <DSSTox_RID>
75863

> <DSSTox_GSID>
20916

> <DSSTox_FileID_Sort>
547

> <TS_ChemName>
1,5-Naphthalenediamine

> <TS_ChemName_Synonyms>


> <TS_CASRN>
2243-62-1

> <CASRN_ChemName_Relationship>
primary

> <TS_Description>
single chemical compound

> <ChemNote>


> <STRUCTURE_Shown>
tested chemical

> <STRUCTURE_Formula>
C10H10N2

> <STRUCTURE_MW>
158.1998

> <STRUCTURE_ChemType>
defined organic

> <STRUCTURE_DefinedOrganicForm>
parent

> <STRUCTURE_IUPAC>
naphthalene-1,5-diamine

> <STRUCTURE_SMILES>
Nc2cccc1c2cccc1N

> <STRUCTURE_SMILES_Desalt>
Nc2cccc1c2cccc1N

> <Substance_modify_yyyymmdd>
20080429

$$$$
