2244-21-5
ChemmineR-0915142007XD

 12 11  0  0  0  0  0  0  0  0  2 V2000
    1.3296    0.0000    0.0000 Cl   0  0  0  0  0  0  0  0  0  0  0  0
    1.9944   -1.1553    0.0000 N    0  0  0  0  0  0  0  0  0  0  0  0
    3.3240   -1.1553    0.0000 C    0  0  0  0  0  0  0  0  0  0  0  0
    3.9888   -2.3042    0.0000 N    0  0  0  0  0  0  0  0  0  0  0  0
    3.3240   -3.4595    0.0000 C    0  0  0  0  0  0  0  0  0  0  0  0
    3.9888   -4.6084    0.0000 O    0  5  0  0  0  0  0  0  0  0  0  0
    3.9888    0.0000    0.0000 O    0  0  0  0  0  0  0  0  0  0  0  0
    1.3296   -2.3042    0.0000 C    0  0  0  0  0  0  0  0  0  0  0  0
    1.9944   -3.4595    0.0000 N    0  0  0  0  0  0  0  0  0  0  0  0
    1.3296   -4.6084    0.0000 Cl   0  0  0  0  0  0  0  0  0  0  0  0
    0.0000   -2.3042    0.0000 O    0  0  0  0  0  0  0  0  0  0  0  0
    6.4544   -5.6540    0.0000 K    0  3  0  0  0  0  0  0  0  0  0  0
  1  2  1  0  0  0  0
  2  3  1  0  0  0  0
  2  8  1  0  0  0  0
  3  4  1  0  0  0  0
  3  7  2  0  0  0  0
  4  5  2  0  0  0  0
  5  6  1  0  0  0  0
  5  9  1  0  0  0  0
  8  9  1  0  0  0  0
  8 11  2  0  0  0  0
  9 10  1  0  0  0  0
M  END
> <ID>
4581

> <Formula>
C3Cl2KN3O3

> <FW>
236.0547 (196.9569+39.0978)

> <DSSTox_CID>
6178

> <DSSTox_RID>
78048

> <DSSTox_GSID>
26178

> <DSSTox_FileID_Sort>
2731

> <TS_ChemName>
Potassium dichloroisocyanurate

> <TS_ChemName_Synonyms>
Potassium dichloroisocyanurate (s-Triazine-2,4,6(1H,3H,5H)-trione, 1,3-dichloro-, potassium salt)

> <TS_CASRN>
2244-21-5

> <CASRN_ChemName_Relationship>
primary

> <TS_Description>
single chemical compound

> <ChemNote>
parent [2782-57-2]

> <STRUCTURE_Shown>
tested chemical

> <STRUCTURE_Formula>
C3Cl2KN3O3

> <STRUCTURE_MW>
236.0547

> <STRUCTURE_ChemType>
defined organic

> <STRUCTURE_DefinedOrganicForm>
salt

> <STRUCTURE_IUPAC>
potassium 1,5-dichloro-4,6-dioxo-1,4,5,6-tetrahydro-1,3,5-triazin-2-olate

> <STRUCTURE_SMILES>
[K+].ClN1C([O-])=NC(=O)N(Cl)C1=O

> <STRUCTURE_SMILES_Desalt>
ClN1C(O)=NC(=O)N(Cl)C1=O

> <Substance_modify_yyyymmdd>
20080429

$$$$
