22457-89-2
ChemmineR-0915142007XD

 31 32  0  0  0  0  0  0  0  0  1 V2000
    0.0000   -6.6569    0.0000 C   0  0  0  0  0  0  0  0  0  0  0  0
    1.1539   -5.9975    0.0000 C   0  0  0  0  0  0  0  0  0  0  0  0
    2.3077   -6.6569    0.0000 N   0  0  0  0  0  0  0  0  0  0  0  0
    3.4616   -5.9975    0.0000 C   0  0  0  0  0  0  0  0  0  0  0  0
    3.4616   -4.6788    0.0000 C   0  0  0  0  0  0  0  0  0  0  0  0
    4.6154   -3.9941    0.0000 C   0  0  0  0  0  0  0  0  0  0  0  0
    4.6154   -2.6501    0.0000 N   0  0  0  0  0  0  0  0  0  0  0  0
    3.4616   -2.0034    0.0000 C   0  0  0  0  0  0  0  0  0  0  0  0
    3.4616   -0.6720    0.0000 O   0  0  0  0  0  0  0  0  0  0  0  0
    5.7693   -2.0034    0.0000 C   0  0  0  0  0  0  0  0  0  0  0  0
    5.7693   -0.6720    0.0000 C   0  0  0  0  0  0  0  0  0  0  0  0
    6.9105   -2.6501    0.0000 C   0  0  0  0  0  0  0  0  0  0  0  0
    6.9105   -3.9941    0.0000 C   0  0  0  0  0  0  0  0  0  0  0  0
    8.0643   -4.6788    0.0000 C   0  0  0  0  0  0  0  0  0  0  0  0
    8.0643   -5.9975    0.0000 O   0  0  0  0  0  0  0  0  0  0  0  0
    9.2182   -6.6569    0.0000 P   0  0  0  0  0  0  0  0  0  0  0  0
    9.8902   -5.5030    0.0000 O   0  0  0  0  0  0  0  0  0  0  0  0
   10.3721   -7.3289    0.0000 O   0  0  0  0  0  0  0  0  0  0  0  0
    8.5715   -7.8107    0.0000 O   0  0  0  0  0  0  0  0  0  0  0  0
    8.0643   -2.0034    0.0000 S   0  0  0  0  0  0  0  0  0  0  0  0
    9.2182   -2.6501    0.0000 C   0  0  0  0  0  0  0  0  0  0  0  0
    9.2182   -3.9941    0.0000 O   0  0  0  0  0  0  0  0  0  0  0  0
   10.3721   -2.0034    0.0000 C   0  0  0  0  0  0  0  0  0  0  0  0
   10.3721   -0.6720    0.0000 C   0  0  0  0  0  0  0  0  0  0  0  0
   11.5259    0.0000    0.0000 C   0  0  0  0  0  0  0  0  0  0  0  0
   12.6798   -0.6720    0.0000 C   0  0  0  0  0  0  0  0  0  0  0  0
   12.6798   -2.0034    0.0000 C   0  0  0  0  0  0  0  0  0  0  0  0
   11.5259   -2.6501    0.0000 C   0  0  0  0  0  0  0  0  0  0  0  0
    2.3077   -3.9941    0.0000 C   0  0  0  0  0  0  0  0  0  0  0  0
    1.1539   -4.6788    0.0000 N   0  0  0  0  0  0  0  0  0  0  0  0
    4.6154   -6.6569    0.0000 N   0  0  0  0  0  0  0  0  0  0  0  0
  1  2  1  0  0  0  0
  2  3  2  0  0  0  0
  2 30  1  0  0  0  0
  3  4  1  0  0  0  0
  4  5  2  0  0  0  0
  4 31  1  0  0  0  0
  5  6  1  0  0  0  0
  5 29  1  0  0  0  0
  6  7  1  0  0  0  0
  7  8  1  0  0  0  0
  7 10  1  0  0  0  0
  8  9  2  0  0  0  0
 10 11  1  0  0  0  0
 10 12  2  3  0  0  0
 12 13  1  0  0  0  0
 12 20  1  0  0  0  0
 13 14  1  0  0  0  0
 14 15  1  0  0  0  0
 15 16  1  0  0  0  0
 16 17  1  0  0  0  0
 16 18  1  0  0  0  0
 16 19  2  0  0  0  0
 20 21  1  0  0  0  0
 21 22  2  0  0  0  0
 21 23  1  0  0  0  0
 23 24  2  0  0  0  0
 23 28  1  0  0  0  0
 24 25  1  0  0  0  0
 25 26  2  0  0  0  0
 26 27  1  0  0  0  0
 27 28  2  0  0  0  0
 29 30  2  0  0  0  0
M  END
> <ID>
10943

> <Formula>
C19H23N4O6PS

> <FW>
466.4479

> <DSSTox_CID>
25433

> <DSSTox_RID>
80875

> <DSSTox_GSID>
45433

> <DSSTox_FileID_Sort>
5556

> <TS_ChemName>
Benfotiamine

> <TS_ChemName_Synonyms>


> <TS_CASRN>
22457-89-2

> <CASRN_ChemName_Relationship>
primary

> <TS_Description>
single chemical compound

> <ChemNote>
stereochem

> <STRUCTURE_Shown>
tested chemical

> <STRUCTURE_Formula>
C19H23N4O6PS

> <STRUCTURE_MW>
466.4479

> <STRUCTURE_ChemType>
defined organic

> <STRUCTURE_DefinedOrganicForm>
parent

> <STRUCTURE_IUPAC>
S-[2-{[(4-amino-2-methylpyrimidin-5-yl)methyl](formyl)amino}-5-(phosphonooxy)pent-2-en-3-yl] benzenecarbothioate

> <STRUCTURE_SMILES>
Nc2nc(C)ncc2CN(C=O)C(C)=C(CCOP(=O)(O)O)SC(=O)c1ccccc1

> <STRUCTURE_SMILES_Desalt>
Nc2nc(C)ncc2CN(C=O)C(C)=C(CCOP(=O)(O)O)SC(=O)c1ccccc1

> <Substance_modify_yyyymmdd>
20100107

$$$$
