22465-48-1
ChemmineR-0915142007XD

 96103  0  0  1  0  0  0  0  0  1 V2000
   12.8216   -7.5234    0.0000 Co   0  0  0  0  0  0  0  0  0  0  0  0
   13.5845   -6.1671    0.0000 O    0  0  0  0  0  0  0  0  0  0  0  0
   12.9064   -5.1710    0.0000 C    0  0  0  0  0  0  0  0  0  0  0  0
   12.6308   -3.6663    0.0000 C    0  0  0  0  0  0  0  0  0  0  0  0
   11.5500   -5.5949    0.0000 O    0  0  0  0  0  0  0  0  0  0  0  0
   10.7023   -4.5988    0.0000 C    0  0  0  0  0  0  0  0  0  0  0  0
   12.2070   -4.9167    0.0000 C    0  0  0  0  0  0  0  0  0  0  0  0
   10.0453   -5.7644    0.0000 C    0  0  0  0  0  0  0  0  0  0  0  0
   12.4189   -6.5274    0.0000 N    0  0  0  0  0  0  0  0  0  0  0  0
   11.0414   -6.7817    0.0000 C    0  0  0  0  0  0  0  0  0  0  0  0
   14.8137   -5.3406    0.0000 C    0  0  0  0  0  0  0  0  0  0  0  0
   13.7541   -4.4717    0.0000 C    0  0  0  0  0  0  0  0  0  0  0  0
   16.1488   -5.0862    0.0000 C    0  0  0  0  0  0  0  0  0  0  0  0
   14.4110   -6.7393    0.0000 N    0  0  0  0  0  0  0  0  0  0  0  0
   16.7422   -6.2942    0.0000 C    0  0  0  0  0  0  0  0  0  0  0  0
   15.7038   -7.0996    0.0000 C    0  0  0  0  0  0  0  0  0  0  0  0
   16.2124   -8.2863    0.0000 C    0  0  0  0  0  0  0  0  0  0  0  0
   15.3011   -9.1976    0.0000 C    0  0  0  0  0  0  0  0  0  0  0  0
   10.5963  -10.1301    0.0000 C    0  0  0  0  0  0  0  0  0  0  0  0
   11.8255   -9.6215    0.0000 C    0  0  0  0  0  0  0  0  0  0  0  0
    9.9394   -9.0281    0.0000 C    0  0  0  0  0  0  0  0  0  0  0  0
   12.2706   -8.3499    0.0000 N    0  0  0  0  0  0  0  0  0  0  0  0
   10.9778   -8.0744    0.0000 C    0  0  0  0  0  0  0  0  0  0  0  0
   13.7964   -9.9818    0.0000 C    0  0  0  0  0  0  0  0  0  0  0  0
   12.6732  -10.5963    0.0000 C    0  0  0  0  0  0  0  0  0  0  0  0
   14.6865  -10.9990    0.0000 C    0  0  0  0  0  0  0  0  0  0  0  0
   14.0720   -8.6466    0.0000 N    0  0  0  0  0  0  0  0  0  0  0  0
   15.8733  -10.4056    0.0000 C    0  0  0  0  0  0  0  0  0  0  0  0
   12.5885  -11.8891    0.0000 C    0  0  0  0  0  0  0  0  0  0  0  0
   14.1779   -3.2425    0.0000 C    0  0  0  0  0  0  0  0  0  0  0  0
   17.0601   -1.6954    0.0000 N    0  0  0  0  0  0  0  0  0  0  0  0
   17.2932   -2.9882    0.0000 C    0  0  0  0  0  0  0  0  0  0  0  0
   16.2336   -3.7511    0.0000 C    0  0  0  0  0  0  0  0  0  0  0  0
   18.5648   -3.3061    0.0000 O    0  0  0  0  0  0  0  0  0  0  0  0
   17.4840   -4.9379    0.0000 C    0  0  0  0  0  0  0  0  0  0  0  0
   17.9714   -6.7181    0.0000 C    0  0  0  0  0  0  0  0  0  0  0  0
   18.4588   -7.9049    0.0000 C    0  0  0  0  0  0  0  0  0  0  0  0
   19.7516   -8.1804    0.0000 C    0  0  0  0  0  0  0  0  0  0  0  0
   20.1543   -9.4308    0.0000 N    0  0  0  0  0  0  0  0  0  0  0  0
   20.6629   -7.2267    0.0000 O    0  0  0  0  0  0  0  0  0  0  0  0
   14.4110  -12.2494    0.0000 C    0  0  0  0  0  0  0  0  0  0  0  0
   15.1740  -13.2666    0.0000 C    0  0  0  0  0  0  0  0  0  0  0  0
   14.9197  -14.5382    0.0000 C    0  0  0  0  0  0  0  0  0  0  0  0
   13.7753  -15.1740    0.0000 O    0  0  0  0  0  0  0  0  0  0  0  0
   15.9793  -15.3435    0.0000 N    0  0  0  0  0  0  0  0  0  0  0  0
   10.3632   -3.3696    0.0000 C    0  0  0  0  0  0  0  0  0  0  0  0
   10.9990   -2.2888    0.0000 C    0  0  0  0  0  0  0  0  0  0  0  0
   10.4056   -1.1020    0.0000 C    0  0  0  0  0  0  0  0  0  0  0  0
   11.1262    0.0000    0.0000 O    0  0  0  0  0  0  0  0  0  0  0  0
    9.0917   -1.0384    0.0000 N    0  0  0  0  0  0  0  0  0  0  0  0
    8.7314   -6.0187    0.0000 C    0  0  0  0  0  0  0  0  0  0  0  0
    7.5446   -5.9551    0.0000 C    0  0  0  0  0  0  0  0  0  0  0  0
    6.8664   -4.7896    0.0000 O    0  0  0  0  0  0  0  0  0  0  0  0
    6.6969   -6.9724    0.0000 N    0  0  0  0  0  0  0  0  0  0  0  0
    9.1764   -4.7260    0.0000 C    0  0  0  0  0  0  0  0  0  0  0  0
    9.8122   -6.8240    0.0000 C    0  0  0  0  0  0  0  0  0  0  0  0
    8.6042   -8.8797    0.0000 C    0  0  0  0  0  0  0  0  0  0  0  0
    7.5234   -9.4943    0.0000 C    0  0  0  0  0  0  0  0  0  0  0  0
    6.2942   -8.9645    0.0000 O    0  0  0  0  0  0  0  0  0  0  0  0
    7.3751  -10.8295    0.0000 N    0  0  0  0  0  0  0  0  0  0  0  0
   10.8083  -11.4441    0.0000 C    0  0  0  0  0  0  0  0  0  0  0  0
    9.8758  -12.3130    0.0000 C    0  0  0  0  0  0  0  0  0  0  0  0
   10.0877  -13.6057    0.0000 C    0  0  0  0  0  0  0  0  0  0  0  0
   11.3169  -13.9660    0.0000 N    0  0  0  0  0  0  0  0  0  0  0  0
   11.8255  -15.1740    0.0000 C    0  0  0  0  0  0  0  0  0  0  0  0
   10.5116  -18.5012    0.0000 P    0  0  0  0  0  0  0  0  0  0  0  0
   11.0626  -16.2336    0.0000 C    0  0  0  0  0  0  0  0  0  0  0  0
   11.4017  -17.5052    0.0000 O    0  0  0  0  0  0  0  0  0  0  0  0
    8.9009  -14.1567    0.0000 O    0  0  0  0  0  0  0  0  0  0  0  0
    9.3460  -10.5752    0.0000 C    0  0  0  0  0  0  0  0  0  0  0  0
    9.8122  -15.8098    0.0000 C    0  0  0  0  0  0  0  0  0  0  0  0
    9.5791  -17.6111    0.0000 O    0  0  0  0  0  0  0  0  0  0  0  0
   11.4229  -19.4549    0.0000 O    0  0  0  0  0  0  0  0  0  0  0  0
    7.6294  -17.8019    0.0000 C    0  0  0  0  0  0  0  0  0  0  0  0
    6.2730  -17.9714    0.0000 O    0  0  0  0  0  0  0  0  0  0  0  0
    8.2228  -18.9887    0.0000 C    0  0  0  0  0  0  0  0  0  0  0  0
    6.0399  -19.3065    0.0000 C    0  0  0  0  0  0  0  0  0  0  0  0
    7.2267  -19.8999    0.0000 C    0  0  0  0  0  0  0  0  0  0  0  0
    9.4731  -19.3277    0.0000 O    0  0  0  0  0  0  0  0  0  0  0  0
    7.4174  -21.1927    0.0000 O    0  0  0  0  0  0  0  0  0  0  0  0
    4.8531  -19.7304    0.0000 N    0  0  0  0  0  0  0  0  0  0  0  0
    7.8837  -16.5303    0.0000 C    0  0  0  0  0  0  0  0  0  0  0  0
    6.9300  -15.6190    0.0000 O    0  0  0  0  0  0  0  0  0  0  0  0
    1.2504  -18.1410    0.0000 C    0  0  0  0  0  0  0  0  0  0  0  0
    2.2464  -17.2932    0.0000 C    0  0  0  0  0  0  0  0  0  0  0  0
    1.4623  -19.4337    0.0000 C    0  0  0  0  0  0  0  0  0  0  0  0
    3.4968  -17.7595    0.0000 C    0  0  0  0  0  0  0  0  0  0  0  0
    2.6703  -19.8788    0.0000 C    0  0  0  0  0  0  0  0  0  0  0  0
    3.7299  -19.0310    0.0000 C    0  0  0  0  0  0  0  0  0  0  0  0
    3.1577  -21.1503    0.0000 N    0  0  0  0  0  0  0  0  0  0  0  0
    4.5352  -21.0444    0.0000 C    0  0  0  0  0  0  0  0  0  0  0  0
    0.0000  -17.6959    0.0000 C    0  0  0  0  0  0  0  0  0  0  0  0
    2.0557  -15.9793    0.0000 C    0  0  0  0  0  0  0  0  0  0  0  0
    9.7486   -8.1380    0.0000 H    0  0  0  0  0  0  0  0  0  0  0  0
   16.4879  -11.5924    0.0000 C    0  0  0  0  0  0  0  0  0  0  0  0
   17.1661  -10.0030    0.0000 C    0  0  0  0  0  0  0  0  0  0  0  0
  1  2  1  0  0  0  0
  1  9  1  0  0  0  0
  2  3  1  0  0  0  0
  3  4  1  0  0  0  0
  3  5  2  0  0  0  0
  6  7  1  0  0  0  0
  6  8  1  0  0  0  0
  6 46  1  6  0  0  0
  7  9  1  0  0  0  0
  7 12  2  0  0  0  0
  8 10  1  0  0  0  0
  8 51  1  0  0  0  0
  8 55  1  6  0  0  0
  9 10  1  0  0  0  0
 10 23  1  0  0  0  0
 10 56  1  6  0  0  0
 11 12  1  0  0  0  0
 11 13  1  0  0  0  0
 11 14  2  0  0  0  0
 12 30  1  0  0  0  0
 13 15  1  0  0  0  0
 13 33  1  1  0  0  0
 13 35  1  0  0  0  0
 14 16  1  0  0  0  0
 15 16  1  0  0  0  0
 15 36  1  6  0  0  0
 16 17  2  0  0  0  0
 17 18  1  0  0  0  0
 18 27  2  0  0  0  0
 18 28  1  0  0  0  0
 19 20  1  0  0  0  0
 19 21  1  0  0  0  0
 19 61  1  0  0  0  0
 19 70  1  1  0  0  0
 20 22  2  0  0  0  0
 20 25  1  0  0  0  0
 21 23  1  0  0  0  0
 21 57  1  1  0  0  0
 22 23  1  0  0  0  0
 23 94  1  1  0  0  0
 24 25  2  0  0  0  0
 24 26  1  0  0  0  0
 24 27  1  0  0  0  0
 25 29  1  0  0  0  0
 26 28  1  0  0  0  0
 26 41  1  6  0  0  0
 28 95  1  0  0  0  0
 28 96  1  0  0  0  0
 31 32  1  0  0  0  0
 32 33  1  0  0  0  0
 32 34  2  0  0  0  0
 36 37  1  0  0  0  0
 37 38  1  0  0  0  0
 38 39  1  0  0  0  0
 38 40  2  0  0  0  0
 41 42  1  0  0  0  0
 42 43  1  0  0  0  0
 43 44  2  0  0  0  0
 43 45  1  0  0  0  0
 46 47  1  0  0  0  0
 47 48  1  0  0  0  0
 48 49  2  0  0  0  0
 48 50  1  0  0  0  0
 51 52  1  0  0  0  0
 52 53  2  0  0  0  0
 52 54  1  0  0  0  0
 57 58  1  0  0  0  0
 58 59  2  0  0  0  0
 58 60  1  0  0  0  0
 61 62  1  0  0  0  0
 62 63  1  0  0  0  0
 63 64  1  0  0  0  0
 63 69  2  0  0  0  0
 64 65  1  0  0  0  0
 65 67  1  0  0  0  0
 66 68  1  0  0  0  0
 66 72  1  0  0  0  0
 66 73  2  0  0  0  0
 66 79  1  0  0  0  0
 67 68  1  0  0  0  0
 67 71  1  0  0  0  0
 74 75  1  0  0  0  0
 74 76  1  0  0  0  0
 74 82  1  6  0  0  0
 75 77  1  0  0  0  0
 76 78  1  0  0  0  0
 76 79  1  1  0  0  0
 77 78  1  0  0  0  0
 77 81  1  1  0  0  0
 78 80  1  1  0  0  0
 81 89  1  0  0  0  0
 81 91  1  0  0  0  0
 82 83  1  0  0  0  0
 84 85  1  0  0  0  0
 84 86  2  0  0  0  0
 84 92  1  0  0  0  0
 85 87  2  0  0  0  0
 85 93  1  0  0  0  0
 86 88  1  0  0  0  0
 87 89  1  0  0  0  0
 88 89  2  0  0  0  0
 88 90  1  0  0  0  0
 90 91  2  0  0  0  0
M  END
> <ID>
12062

> <Formula>
C64H92CoN13O16P

> <FW>
1389.3997

> <DSSTox_CID>
26901

> <DSSTox_RID>
82000

> <DSSTox_GSID>
46901

> <DSSTox_FileID_Sort>
6681

> <TS_ChemName>
Hydroxocobalamin acetate

> <TS_ChemName_Synonyms>


> <TS_CASRN>
22465-48-1

> <CASRN_ChemName_Relationship>
primary

> <TS_Description>
single chemical compound

> <ChemNote>
stereochem

> <STRUCTURE_Shown>
tested chemical

> <STRUCTURE_Formula>
C64H92CoN13O16P

> <STRUCTURE_MW>
1389.3997

> <STRUCTURE_ChemType>
organometallic

> <STRUCTURE_DefinedOrganicForm>


> <STRUCTURE_IUPAC>
acetic acid; cobalt(2+); [(2R,3S,4R,5S)-5-(5,6-dimethylbenzimidazol-1-yl)-4-hydroxy-2-(hydroxymethyl)oxolan-3-yl] [(2S)-1-[3-[(2R,3R,4Z,7S,9Z,12S,13S,14Z,17S,18S,19R)-2,13,18-tris(2-amino-2-oxoethyl)-7,12,17-tris(3-amino-3-oxopropyl)-3,5,8,8,13,15,18,19-o

> <STRUCTURE_SMILES>
NC(=O)CC[C@@H]8C=2N=C(C(C)=C1[C@@H](CCC(N)=O)[C@](C)(CC(N)=O)[C@@](C)(N1[Co]OC(C)=O)[C@@H]7N=C(C(C)=C3N=C(C=2)C(C)(C)[C@@H]3CCC(N)=O)[C@](C)(CCC(=O)NCC(C)OP(=O)(O)O[C@@H]6[C@@H](CO)O[C@H](n5cnc4cc(C)c(C)cc45)[C@@H]6O)[C@H]7CC(N)=O)[C@@]8(C)CC(N)=O

> <STRUCTURE_SMILES_Desalt>
NC(=O)CC[C@@H]8C=2N=C(C(C)=C1[C@@H](CCC(N)=O)[C@](C)(CC(N)=O)[C@@](C)(N1[Co]OC(C)=O)[C@@H]7N=C(C(C)=C3N=C(C=2)C(C)(C)[C@@H]3CCC(N)=O)[C@](C)(CCC(=O)NCC(C)OP(=O)(O)O[C@@H]6[C@@H](CO)O[C@H](n5cnc4cc(C)c(C)cc45)[C@@H]6O)[C@H]7CC(N)=O)[C@@]8(C)CC(N)=O

> <Substance_modify_yyyymmdd>
20110727

$$$$
