22560-50-5
ChemmineR-0915142007XD

 13 10  0  0  0  0  0  0  0  0  2 V2000
    5.6862   -2.5986    0.0000 Na   0  3  0  0  0  0  0  0  0  0  0  0
    0.0000    0.0000    0.0000 Na   0  3  0  0  0  0  0  0  0  0  0  0
    0.2729   -1.4102    0.0000 O    0  0  0  0  0  0  0  0  0  0  0  0
    1.6035   -1.4102    0.0000 P    0  0  0  0  0  0  0  0  0  0  0  0
    1.6035   -0.0796    0.0000 O    0  5  0  0  0  0  0  0  0  0  0  0
    1.6035   -2.7407    0.0000 O    0  0  0  0  0  0  0  0  0  0  0  0
    2.9284   -1.4102    0.0000 C    0  0  0  0  0  0  0  0  0  0  0  0
    2.9284   -2.7407    0.0000 Cl   0  0  0  0  0  0  0  0  0  0  0  0
    2.9284   -0.0796    0.0000 Cl   0  0  0  0  0  0  0  0  0  0  0  0
    4.2590   -1.4102    0.0000 P    0  0  0  0  0  0  0  0  0  0  0  0
    4.2590   -0.0796    0.0000 O    0  0  0  0  0  0  0  0  0  0  0  0
    4.2590   -2.7407    0.0000 O    0  5  0  0  0  0  0  0  0  0  0  0
    5.5895   -1.4102    0.0000 O    0  0  0  0  0  0  0  0  0  0  0  0
  3  4  1  0  0  0  0
  4  5  1  0  0  0  0
  4  6  2  0  0  0  0
  4  7  1  0  0  0  0
  7  8  1  0  0  0  0
  7  9  1  0  0  0  0
  7 10  1  0  0  0  0
 10 11  1  0  0  0  0
 10 12  1  0  0  0  0
 10 13  2  0  0  0  0
M  END
> <ID>
10832

> <Formula>
CH2Cl2Na2O6P2

> <FW>
288.8560 (22.9892+22.9892+242.8776)

> <DSSTox_CID>
25225

> <DSSTox_RID>
80762

> <DSSTox_GSID>
45225

> <DSSTox_FileID_Sort>
5443

> <TS_ChemName>
Clodronic acid, disodium salt

> <TS_ChemName_Synonyms>


> <TS_CASRN>
22560-50-5

> <CASRN_ChemName_Relationship>
primary

> <TS_Description>
single chemical compound

> <ChemNote>
parent [10596-23-3]

> <STRUCTURE_Shown>
tested chemical

> <STRUCTURE_Formula>
CH2Cl2Na2O6P2

> <STRUCTURE_MW>
288.856

> <STRUCTURE_ChemType>
defined organic

> <STRUCTURE_DefinedOrganicForm>
salt

> <STRUCTURE_IUPAC>
disodium (dichloromethanediyl)bis[hydrogen (phosphonate)]

> <STRUCTURE_SMILES>
[Na+].[Na+].ClC(Cl)(P(O)([O-])=O)P([O-])(=O)O

> <STRUCTURE_SMILES_Desalt>
ClC(Cl)(P(O)(=O)O)P(=O)(O)O

> <Substance_modify_yyyymmdd>
20100107

$$$$
