2259-85-0
ChemmineR-0915142007XD

 13 12  0  0  0  0  0  0  0  0  1 V2000
   12.6964   -1.9933    0.0000 C   0  0  0  0  0  0  0  0  0  0  0  0
   11.5410   -1.3331    0.0000 C   0  0  0  0  0  0  0  0  0  0  0  0
   10.3857   -1.9933    0.0000 C   0  0  0  0  0  0  0  0  0  0  0  0
    9.2303   -1.3331    0.0000 C   0  0  0  0  0  0  0  0  0  0  0  0
    8.0622   -1.9933    0.0000 C   0  0  0  0  0  0  0  0  0  0  0  0
    6.9069   -1.3331    0.0000 C   0  0  0  0  0  0  0  0  0  0  0  0
    5.7896   -1.9933    0.0000 C   0  0  0  0  0  0  0  0  0  0  0  0
    4.6342   -1.3331    0.0000 C   0  0  0  0  0  0  0  0  0  0  0  0
    3.4661   -1.9933    0.0000 C   0  0  0  0  0  0  0  0  0  0  0  0
    2.3107   -1.3331    0.0000 C   0  0  0  0  0  0  0  0  0  0  0  0
    2.3107    0.0000    0.0000 O   0  0  0  0  0  0  0  0  0  0  0  0
    1.1554   -1.9933    0.0000 N   0  0  0  0  0  0  0  0  0  0  0  0
    0.0000   -1.3331    0.0000 O   0  0  0  0  0  0  0  0  0  0  0  0
  1  2  1  0  0  0  0
  2  3  1  0  0  0  0
  3  4  1  0  0  0  0
  4  5  1  0  0  0  0
  5  6  1  0  0  0  0
  6  7  1  0  0  0  0
  7  8  1  0  0  0  0
  8  9  1  0  0  0  0
  9 10  1  0  0  0  0
 10 11  2  0  0  0  0
 10 12  1  0  0  0  0
 12 13  1  0  0  0  0
M  END
> <ID>
12050

> <Formula>
C10H21NO2

> <FW>
187.2792

> <DSSTox_CID>
26883

> <DSSTox_RID>
81987

> <DSSTox_GSID>
46883

> <DSSTox_FileID_Sort>
6668

> <TS_ChemName>
Decanohydroxamic acid

> <TS_ChemName_Synonyms>


> <TS_CASRN>
2259-85-0

> <CASRN_ChemName_Relationship>
primary

> <TS_Description>
single chemical compound

> <ChemNote>


> <STRUCTURE_Shown>
tested chemical

> <STRUCTURE_Formula>
C10H21NO2

> <STRUCTURE_MW>
187.2792

> <STRUCTURE_ChemType>
defined organic

> <STRUCTURE_DefinedOrganicForm>
parent

> <STRUCTURE_IUPAC>
N-hydroxydecanamide

> <STRUCTURE_SMILES>
O=C(CCCCCCCCC)NO

> <STRUCTURE_SMILES_Desalt>
O=C(CCCCCCCCC)NO

> <Substance_modify_yyyymmdd>
20110727

$$$$
