2265-64-7
ChemmineR-0915142007XD

 40 44  0  0  1  0  0  0  0  0  1 V2000
    8.4896    0.0000    0.0000 C   0  0  0  0  0  0  0  0  0  0  0  0
    8.7215   -1.3453    0.0000 C   0  0  0  0  0  0  0  0  0  0  0  0
    9.8929   -0.6495    0.0000 H   0  0  0  0  0  0  0  0  0  0  0  0
    9.6145   -2.2152    0.0000 C   0  0  0  0  0  0  0  0  0  0  0  0
    9.4870   -3.4561    0.0000 C   0  0  0  0  0  0  0  0  0  0  0  0
   10.6352   -2.7023    0.0000 H   0  0  0  0  0  0  0  0  0  0  0  0
    9.8349   -4.7551    0.0000 C   0  0  0  0  0  0  0  0  0  0  0  0
   11.0759   -4.2100    0.0000 H   0  0  0  0  0  0  0  0  0  0  0  0
   11.0759   -5.1146    0.0000 C   0  0  0  0  0  0  0  0  0  0  0  0
   11.5978   -6.2628    0.0000 C   0  0  0  0  0  0  0  0  0  0  0  0
   10.7163   -7.2602    0.0000 C   0  0  0  0  0  0  0  0  0  0  0  0
   11.4122   -8.3852    0.0000 C   0  0  0  0  0  0  0  0  0  0  0  0
   10.7743   -9.5334    0.0000 C   0  0  0  0  0  0  0  0  0  0  0  0
   11.3194  -10.7163    0.0000 O   0  0  0  0  0  0  0  0  0  0  0  0
    9.4870   -9.3942    0.0000 C   0  0  0  0  0  0  0  0  0  0  0  0
    9.0463   -8.2344    0.0000 C   0  0  0  0  0  0  0  0  0  0  0  0
    9.4406   -7.0398    0.0000 C   0  0  0  0  0  0  0  0  0  0  0  0
    8.2808   -7.8401    0.0000 C   0  0  0  0  0  0  0  0  0  0  0  0
    9.1506   -5.6481    0.0000 C   0  0  0  0  0  0  0  0  0  0  0  0
    7.9793   -6.4600    0.0000 F   0  0  0  0  0  0  0  0  0  0  0  0
    8.1068   -5.1958    0.0000 C   0  0  0  0  0  0  0  0  0  0  0  0
    6.2164   -5.2538    0.0000 H   0  0  0  0  0  0  0  0  0  0  0  0
    6.5295   -6.5643    0.0000 O   0  0  0  0  0  0  0  0  0  0  0  0
    7.7821   -4.3840    0.0000 C   0  0  0  0  0  0  0  0  0  0  0  0
    8.1880   -3.2010    0.0000 C   0  0  0  0  0  0  0  0  0  0  0  0
    7.0398   -3.6301    0.0000 C   0  0  0  0  0  0  0  0  0  0  0  0
    7.5617   -2.0180    0.0000 C   0  0  0  0  0  0  0  0  0  0  0  0
    6.9703   -0.8234    0.0000 O   0  0  0  0  0  0  0  0  0  0  0  0
    6.2164   -2.1224    0.0000 C   0  0  0  0  0  0  0  0  0  0  0  0
    5.5553   -3.2358    0.0000 O   0  0  0  0  0  0  0  0  0  0  0  0
    5.1262   -1.3569    0.0000 C   0  0  0  0  0  0  0  0  0  0  0  0
    3.9548   -1.9600    0.0000 O   0  0  0  0  0  0  0  0  0  0  0  0
    3.7113   -3.2242    0.0000 C   0  0  0  0  0  0  0  0  0  0  0  0
    4.2796   -4.4187    0.0000 O   0  0  0  0  0  0  0  0  0  0  0  0
    2.4355   -3.5837    0.0000 C   0  0  0  0  0  0  0  0  0  0  0  0
    2.2268   -4.8827    0.0000 C   0  0  0  0  0  0  0  0  0  0  0  0
    0.9742   -5.3234    0.0000 C   0  0  0  0  0  0  0  0  0  0  0  0
    0.0000   -4.4419    0.0000 N   0  0  0  0  0  0  0  0  0  0  0  0
    0.2320   -3.1430    0.0000 C   0  0  0  0  0  0  0  0  0  0  0  0
    1.4729   -2.7023    0.0000 C   0  0  0  0  0  0  0  0  0  0  0  0
  1  2  1  0  0  0  0
  2  3  1  1  0  0  0
  2  4  1  0  0  0  0
  2 27  1  0  0  0  0
  4  5  1  0  0  0  0
  5  6  1  6  0  0  0
  5  7  1  0  0  0  0
  5 25  1  0  0  0  0
  7  8  1  1  0  0  0
  7  9  1  0  0  0  0
  7 19  1  0  0  0  0
  9 10  1  0  0  0  0
 10 11  1  0  0  0  0
 11 12  2  0  0  0  0
 11 17  1  0  0  0  0
 12 13  1  0  0  0  0
 13 14  2  0  0  0  0
 13 15  1  0  0  0  0
 15 16  2  0  0  0  0
 16 17  1  0  0  0  0
 17 18  1  1  0  0  0
 17 19  1  0  0  0  0
 19 20  1  6  0  0  0
 19 21  1  0  0  0  0
 21 22  1  6  0  0  0
 21 23  1  0  0  0  0
 21 24  1  0  0  0  0
 24 25  1  0  0  0  0
 25 26  1  1  0  0  0
 25 27  1  0  0  0  0
 27 28  1  0  0  0  0
 27 29  1  1  0  0  0
 29 30  2  0  0  0  0
 29 31  1  0  0  0  0
 31 32  1  0  0  0  0
 32 33  1  0  0  0  0
 33 34  2  0  0  0  0
 33 35  1  0  0  0  0
 35 36  2  0  0  0  0
 35 40  1  0  0  0  0
 36 37  1  0  0  0  0
 37 38  2  0  0  0  0
 38 39  1  0  0  0  0
 39 40  2  0  0  0  0
M  END
> <ID>
16092

> <Formula>
C28H32FNO6

> <FW>
497.5552

> <DSSTox_CID>
31479

> <DSSTox_RID>
97364

> <DSSTox_GSID>
57690

> <DSSTox_FileID_Sort>
8431

> <TS_ChemName>
Dexamethasone isonicotinate

> <TS_ChemName_Synonyms>


> <TS_CASRN>
2265-64-7

> <CASRN_ChemName_Relationship>
primary

> <TS_Description>
single chemical compound

> <ChemNote>


> <STRUCTURE_Shown>
tested chemical

> <STRUCTURE_Formula>
C28H32FNO6

> <STRUCTURE_MW>
497.5552

> <STRUCTURE_ChemType>
defined organic

> <STRUCTURE_DefinedOrganicForm>
parent

> <STRUCTURE_IUPAC>
(11beta,16alpha)-9-fluoro-11,17-dihydroxy-16-methyl-3,20-dioxopregna-1,4-dien-21-yl isonicotinate

> <STRUCTURE_SMILES>
O=C1C=C2CC[C@@H]5[C@@](F)([C@@]2(C)C=C1)[C@@H](O)C[C@@]4(C)[C@H]5C[C@@H](C)[C@]4(O)C(=O)COC(=O)c3ccncc3

> <STRUCTURE_SMILES_Desalt>
O=C1C=C2CC[C@@H]5[C@@](F)([C@@]2(C)C=C1)[C@@H](O)C[C@@]4(C)[C@H]5C[C@@H](C)[C@]4(O)C(=O)COC(=O)c3ccncc3

> <Substance_modify_yyyymmdd>
20131018

$$$$
