22668-01-5
ChemmineR-0915142007XD

 15 15  0  0  0  0  0  0  0  0  2 V2000
    0.0000   -3.7973    0.0000 O   0  0  0  0  0  0  0  0  0  0  0  0
    1.2823   -4.1452    0.0000 C   0  0  0  0  0  0  0  0  0  0  0  0
    2.2267   -3.2009    0.0000 C   0  0  0  0  0  0  0  0  0  0  0  0
    3.5090   -3.5488    0.0000 N   0  0  0  0  0  0  0  0  0  0  0  0
    4.4534   -2.6044    0.0000 C   0  0  0  0  0  0  0  0  0  0  0  0
    4.1055   -1.3221    0.0000 O   0  0  0  0  0  0  0  0  0  0  0  0
    5.7357   -2.9524    0.0000 C   0  0  0  0  0  0  0  0  0  0  0  0
    6.6204   -1.9583    0.0000 N   0  0  0  0  0  0  0  0  0  0  0  0
    6.3521   -0.6561    0.0000 C   0  0  0  0  0  0  0  0  0  0  0  0
    7.4952    0.0000    0.0000 C   0  0  0  0  0  0  0  0  0  0  0  0
    8.4893   -0.8847    0.0000 N   0  0  0  0  0  0  0  0  0  0  0  0
    7.9425   -2.0975    0.0000 C   0  0  0  0  0  0  0  0  0  0  0  0
    8.6086   -3.2506    0.0000 N   0  3  0  0  0  0  0  0  0  0  0  0
    9.9406   -3.2506    0.0000 O   0  5  0  0  0  0  0  0  0  0  0  0
    7.9425   -4.4037    0.0000 O   0  0  0  0  0  0  0  0  0  0  0  0
  1  2  1  0  0  0  0
  2  3  1  0  0  0  0
  3  4  1  0  0  0  0
  4  5  1  0  0  0  0
  5  6  2  0  0  0  0
  5  7  1  0  0  0  0
  7  8  1  0  0  0  0
  8  9  1  0  0  0  0
  8 12  1  0  0  0  0
  9 10  2  0  0  0  0
 10 11  1  0  0  0  0
 11 12  2  0  0  0  0
 12 13  1  0  0  0  0
 13 14  1  0  0  0  0
 13 15  2  0  0  0  0
M  END
> <ID>
10944

> <Formula>
C7H10N4O4

> <FW>
214.1787

> <DSSTox_CID>
25434

> <DSSTox_RID>
80876

> <DSSTox_GSID>
45434

> <DSSTox_FileID_Sort>
5557

> <TS_ChemName>
Etandazole

> <TS_ChemName_Synonyms>


> <TS_CASRN>
22668-01-5

> <CASRN_ChemName_Relationship>
primary

> <TS_Description>
single chemical compound

> <ChemNote>


> <STRUCTURE_Shown>
tested chemical

> <STRUCTURE_Formula>
C7H10N4O4

> <STRUCTURE_MW>
214.1787

> <STRUCTURE_ChemType>
defined organic

> <STRUCTURE_DefinedOrganicForm>
parent

> <STRUCTURE_IUPAC>
N-(2-hydroxyethyl)-2-(2-nitro-1H-imidazol-1-yl)acetamide

> <STRUCTURE_SMILES>
O=C(Cn1ccnc1[N+]([O-])=O)NCCO

> <STRUCTURE_SMILES_Desalt>
O=C(Cn1ccnc1[N+]([O-])=O)NCCO

> <Substance_modify_yyyymmdd>
20100107

$$$$
