22661-76-3
ChemmineR-0915142007XD

 30 31  0  0  0  0  0  0  0  0  1 V2000
    5.7618   -3.9517    0.0000 C   0  0  0  0  0  0  0  0  0  0  0  0
    4.6288   -4.6288    0.0000 C   0  0  0  0  0  0  0  0  0  0  0  0
    2.3075   -5.9691    0.0000 C   0  0  0  0  0  0  0  0  0  0  0  0
    3.4543   -6.6461    0.0000 C   0  0  0  0  0  0  0  0  0  0  0  0
    2.3075   -4.6288    0.0000 C   0  0  0  0  0  0  0  0  0  0  0  0
    4.6288   -5.9691    0.0000 C   0  0  0  0  0  0  0  0  0  0  0  0
    3.4543   -3.9794    0.0000 C   0  0  0  0  0  0  0  0  0  0  0  0
    6.9225   -4.6150    0.0000 O   0  0  0  0  0  0  0  0  0  0  0  0
    9.2161   -1.9897    0.0000 N   0  0  0  0  0  0  0  0  0  0  0  0
    5.7618   -2.6391    0.0000 O   0  0  0  0  0  0  0  0  0  0  0  0
    8.0555   -3.9517    0.0000 C   0  0  0  0  0  0  0  0  0  0  0  0
    8.0555   -2.6391    0.0000 C   0  0  0  0  0  0  0  0  0  0  0  0
   11.5236   -0.6770    0.0000 O   0  0  0  0  0  0  0  0  0  0  0  0
    1.1607   -6.6738    0.0000 O   0  0  0  0  0  0  0  0  0  0  0  0
    3.4543   -7.9864    0.0000 O   0  0  0  0  0  0  0  0  0  0  0  0
    1.1607   -3.9517    0.0000 O   0  0  0  0  0  0  0  0  0  0  0  0
   10.3906   -2.6391    0.0000 C   0  0  0  0  0  0  0  0  0  0  0  0
    9.2161   -0.6494    0.0000 C   0  0  0  0  0  0  0  0  0  0  0  0
    9.2161   -5.9553    0.0000 O   0  0  0  0  0  0  0  0  0  0  0  0
    9.2161   -4.6564    0.0000 C   0  0  0  0  0  0  0  0  0  0  0  0
   11.5236   -1.9897    0.0000 C   0  0  0  0  0  0  0  0  0  0  0  0
   10.3906    0.0000    0.0000 C   0  0  0  0  0  0  0  0  0  0  0  0
    0.0000   -6.0243    0.0000 C   0  0  0  0  0  0  0  0  0  0  0  0
    1.1607   -2.6391    0.0000 C   0  0  0  0  0  0  0  0  0  0  0  0
    2.3075   -8.6496    0.0000 C   0  0  0  0  0  0  0  0  0  0  0  0
   10.3492   -6.6738    0.0000 C   0  0  0  0  0  0  0  0  0  0  0  0
   12.6014   -6.8257    0.0000 C   0  0  0  0  0  0  0  0  0  0  0  0
   11.5098   -6.1349    0.0000 C   0  0  0  0  0  0  0  0  0  0  0  0
   12.6290   -8.2489    0.0000 C   0  0  0  0  0  0  0  0  0  0  0  0
   13.8173   -6.2731    0.0000 C   0  0  0  0  0  0  0  0  0  0  0  0
  1  2  1  0  0  0  0
  1  8  1  0  0  0  0
  1 10  2  0  0  0  0
  2  6  1  0  0  0  0
  2  7  2  0  0  0  0
  3  5  2  0  0  0  0
  3 14  1  0  0  0  0
  3  4  1  0  0  0  0
  4  6  2  0  0  0  0
  4 15  1  0  0  0  0
  5  7  1  0  0  0  0
  5 16  1  0  0  0  0
  8 11  1  0  0  0  0
  9 12  1  0  0  0  0
  9 17  1  0  0  0  0
  9 18  1  0  0  0  0
 11 12  1  0  0  0  0
 11 20  1  0  0  0  0
 13 22  1  0  0  0  0
 13 21  1  0  0  0  0
 14 23  1  0  0  0  0
 15 25  1  0  0  0  0
 16 24  1  0  0  0  0
 17 21  1  0  0  0  0
 18 22  1  0  0  0  0
 19 20  1  0  0  0  0
 19 26  1  0  0  0  0
 26 28  1  0  0  0  0
 27 28  1  0  0  0  0
 27 29  1  0  0  0  0
 27 30  1  0  0  0  0
M  END
> <ID>
13827

> <Formula>
C22H35NO7

> <FW>
425.5158

> <DSSTox_CID>
28764

> <DSSTox_RID>
83033

> <DSSTox_GSID>
48838

> <DSSTox_FileID_Sort>
7710

> <TS_ChemName>
Amoproxan

> <TS_ChemName_Synonyms>


> <TS_CASRN>
22661-76-3

> <CASRN_ChemName_Relationship>
primary

> <TS_Description>
single chemical compound

> <ChemNote>


> <STRUCTURE_Shown>
tested chemical

> <STRUCTURE_Formula>
C22H35NO7

> <STRUCTURE_MW>
425.5158

> <STRUCTURE_ChemType>
defined organic

> <STRUCTURE_DefinedOrganicForm>
parent

> <STRUCTURE_IUPAC>
1-(3-methylbutoxy)-3-(morpholin-4-yl)propan-2-yl 3,4,5-trimethoxybenzoate

> <STRUCTURE_SMILES>
COc1cc(cc(OC)c1OC)C(=O)OC(CN2CCOCC2)COCCC(C)C

> <STRUCTURE_SMILES_Desalt>
COc1cc(cc(OC)c1OC)C(=O)OC(CN2CCOCC2)COCCC(C)C

> <Substance_modify_yyyymmdd>
20111204

$$$$
