22664-55-7
ChemmineR-0915142007XD

 22 22  0  0  0  0  0  0  0  0  1 V2000
    3.4012   -3.2767    0.0000 C   0  0  0  0  0  0  0  0  0  0  0  0
    4.5764   -3.9818    0.0000 C   0  0  0  0  0  0  0  0  0  0  0  0
    5.7239   -3.2767    0.0000 C   0  0  0  0  0  0  0  0  0  0  0  0
    5.7239   -1.9356    0.0000 C   0  0  0  0  0  0  0  0  0  0  0  0
    3.4012   -1.9356    0.0000 C   0  0  0  0  0  0  0  0  0  0  0  0
    2.2260   -3.9818    0.0000 O   0  0  0  0  0  0  0  0  0  0  0  0
    4.5764   -1.2996    0.0000 C   0  0  0  0  0  0  0  0  0  0  0  0
    1.0784   -3.2767    0.0000 C   0  0  0  0  0  0  0  0  0  0  0  0
    6.8576   -1.2996    0.0000 O   0  0  0  0  0  0  0  0  0  0  0  0
    1.0784   -1.9771    0.0000 O   0  0  0  0  0  0  0  0  0  0  0  0
   11.4893   -1.3135    0.0000 N   0  0  0  0  0  0  0  0  0  0  0  0
    9.1804   -1.3135    0.0000 C   0  0  0  0  0  0  0  0  0  0  0  0
    8.0052   -1.9771    0.0000 C   0  0  0  0  0  0  0  0  0  0  0  0
   10.3417   -1.9771    0.0000 C   0  0  0  0  0  0  0  0  0  0  0  0
    4.5764   -5.2677    0.0000 C   0  0  0  0  0  0  0  0  0  0  0  0
    9.1804    0.0000    0.0000 O   0  0  0  0  0  0  0  0  0  0  0  0
    6.8576   -3.9818    0.0000 C   0  0  0  0  0  0  0  0  0  0  0  0
    2.2121   -1.2996    0.0000 C   0  0  0  0  0  0  0  0  0  0  0  0
   12.6645   -1.9909    0.0000 C   0  0  0  0  0  0  0  0  0  0  0  0
    0.0000   -3.9265    0.0000 C   0  0  0  0  0  0  0  0  0  0  0  0
   13.8259   -1.3549    0.0000 C   0  0  0  0  0  0  0  0  0  0  0  0
   12.6645   -3.3182    0.0000 C   0  0  0  0  0  0  0  0  0  0  0  0
  1  2  1  0  0  0  0
  1  5  2  0  0  0  0
  1  6  1  0  0  0  0
  2  3  2  0  0  0  0
  2 15  1  0  0  0  0
  3 17  1  0  0  0  0
  3  4  1  0  0  0  0
  4  7  2  0  0  0  0
  4  9  1  0  0  0  0
  5  7  1  0  0  0  0
  5 18  1  0  0  0  0
  6  8  1  0  0  0  0
  8 10  2  0  0  0  0
  8 20  1  0  0  0  0
  9 13  1  0  0  0  0
 11 14  1  0  0  0  0
 11 19  1  0  0  0  0
 12 13  1  0  0  0  0
 12 14  1  0  0  0  0
 12 16  1  0  0  0  0
 19 21  1  0  0  0  0
 19 22  1  0  0  0  0
M  END
> <ID>
11390

> <Formula>
C17H27NO4

> <FW>
309.4006

> <DSSTox_CID>
26078

> <DSSTox_RID>
81322

> <DSSTox_GSID>
46078

> <DSSTox_FileID_Sort>
6003

> <TS_ChemName>
Metipranolol

> <TS_ChemName_Synonyms>


> <TS_CASRN>
22664-55-7

> <CASRN_ChemName_Relationship>
primary

> <TS_Description>
single chemical compound

> <ChemNote>


> <STRUCTURE_Shown>
tested chemical

> <STRUCTURE_Formula>
C17H27NO4

> <STRUCTURE_MW>
309.4006

> <STRUCTURE_ChemType>
defined organic

> <STRUCTURE_DefinedOrganicForm>
parent

> <STRUCTURE_IUPAC>
4-[2-hydroxy-3-(propan-2-ylamino)propoxy]-2,3,6-trimethylphenyl acetate

> <STRUCTURE_SMILES>
O=C(C)Oc1c(C)c(C)c(cc1C)OCC(O)CNC(C)C

> <STRUCTURE_SMILES_Desalt>
O=C(C)Oc1c(C)c(C)c(cc1C)OCC(O)CNC(C)C

> <Substance_modify_yyyymmdd>
20110819

$$$$
