22662-39-1
ChemmineR-0915142007XD

 27 29  0  0  0  0  0  0  0  0  1 V2000
    4.6144   -1.3334    0.0000 O    0  0  0  0  0  0  0  0  0  0  0  0
    3.4608   -2.0076    0.0000 C    0  0  0  0  0  0  0  0  0  0  0  0
    3.4608   -3.3409    0.0000 C    0  0  0  0  0  0  0  0  0  0  0  0
    2.3072   -4.0001    0.0000 C    0  0  0  0  0  0  0  0  0  0  0  0
    1.1536   -3.3409    0.0000 C    0  0  0  0  0  0  0  0  0  0  0  0
    0.0000   -4.0001    0.0000 I    0  0  0  0  0  0  0  0  0  0  0  0
    1.1536   -2.0076    0.0000 C    0  0  0  0  0  0  0  0  0  0  0  0
    2.3072   -1.3334    0.0000 C    0  0  0  0  0  0  0  0  0  0  0  0
    2.3072    0.0000    0.0000 I    0  0  0  0  0  0  0  0  0  0  0  0
    4.6144   -4.0001    0.0000 C    0  0  0  0  0  0  0  0  0  0  0  0
    4.6144   -5.3335    0.0000 O    0  0  0  0  0  0  0  0  0  0  0  0
    5.7680   -3.3409    0.0000 N    0  0  0  0  0  0  0  0  0  0  0  0
    6.9216   -4.0001    0.0000 C    0  0  0  0  0  0  0  0  0  0  0  0
    8.0602   -3.3409    0.0000 C    0  0  0  0  0  0  0  0  0  0  0  0
    9.2138   -4.0001    0.0000 C    0  0  0  0  0  0  0  0  0  0  0  0
    9.2138   -5.3335    0.0000 C    0  0  0  0  0  0  0  0  0  0  0  0
   10.3674   -5.9927    0.0000 O    0  0  0  0  0  0  0  0  0  0  0  0
   11.5210   -5.3335    0.0000 C    0  0  0  0  0  0  0  0  0  0  0  0
   11.5210   -4.0001    0.0000 C    0  0  0  0  0  0  0  0  0  0  0  0
   12.6746   -3.3409    0.0000 C    0  0  0  0  0  0  0  0  0  0  0  0
   13.8282   -4.0001    0.0000 C    0  0  0  0  0  0  0  0  0  0  0  0
   14.9818   -3.3409    0.0000 Cl   0  0  0  0  0  0  0  0  0  0  0  0
   13.8282   -5.3335    0.0000 C    0  0  0  0  0  0  0  0  0  0  0  0
   12.6746   -5.9927    0.0000 C    0  0  0  0  0  0  0  0  0  0  0  0
    8.0602   -5.9927    0.0000 C    0  0  0  0  0  0  0  0  0  0  0  0
    6.9216   -5.3335    0.0000 C    0  0  0  0  0  0  0  0  0  0  0  0
    8.0602   -7.3261    0.0000 Cl   0  0  0  0  0  0  0  0  0  0  0  0
  1  2  1  0  0  0  0
  2  3  2  0  0  0  0
  2  8  1  0  0  0  0
  3  4  1  0  0  0  0
  3 10  1  0  0  0  0
  4  5  2  0  0  0  0
  5  6  1  0  0  0  0
  5  7  1  0  0  0  0
  7  8  2  0  0  0  0
  8  9  1  0  0  0  0
 10 11  2  0  0  0  0
 10 12  1  0  0  0  0
 12 13  1  0  0  0  0
 13 14  2  0  0  0  0
 13 26  1  0  0  0  0
 14 15  1  0  0  0  0
 15 16  2  0  0  0  0
 16 17  1  0  0  0  0
 16 25  1  0  0  0  0
 17 18  1  0  0  0  0
 18 19  2  0  0  0  0
 18 24  1  0  0  0  0
 19 20  1  0  0  0  0
 20 21  2  0  0  0  0
 21 22  1  0  0  0  0
 21 23  1  0  0  0  0
 23 24  2  0  0  0  0
 25 26  2  0  0  0  0
 25 27  1  0  0  0  0
M  END
> <ID>
11521

> <Formula>
C19H11Cl2I2NO3

> <FW>
626.0105

> <DSSTox_CID>
26227

> <DSSTox_RID>
81454

> <DSSTox_GSID>
46227

> <DSSTox_FileID_Sort>
6135

> <TS_ChemName>
Rafoxanide

> <TS_ChemName_Synonyms>


> <TS_CASRN>
22662-39-1

> <CASRN_ChemName_Relationship>
primary

> <TS_Description>
single chemical compound

> <ChemNote>


> <STRUCTURE_Shown>
tested chemical

> <STRUCTURE_Formula>
C19H11Cl2I2NO3

> <STRUCTURE_MW>
626.0105

> <STRUCTURE_ChemType>
defined organic

> <STRUCTURE_DefinedOrganicForm>
parent

> <STRUCTURE_IUPAC>
N-[3-chloro-4-(4-chlorophenoxy)phenyl]-2-hydroxy-3,5-diiodobenzamide

> <STRUCTURE_SMILES>
Clc2cc(ccc2Oc1ccc(Cl)cc1)NC(=O)c3cc(I)cc(I)c3O

> <STRUCTURE_SMILES_Desalt>
Clc2cc(ccc2Oc1ccc(Cl)cc1)NC(=O)c3cc(I)cc(I)c3O

> <Substance_modify_yyyymmdd>
20110817

$$$$
