226700-81-8
ChemmineR-0915142007XD

 40 41  0  0  1  0  0  0  0  0  2 V2000
    6.0425   -8.8412    0.0000 Ca   0  2  0  0  0  0  0  0  0  0  0  0
   10.1451   -4.6750    0.0000 N    0  0  0  0  0  0  0  0  0  0  0  0
   11.2900   -3.9753    0.0000 S    0  0  0  0  0  0  0  0  0  0  0  0
    8.9843   -3.9753    0.0000 C    0  0  0  0  0  0  0  0  0  0  0  0
   10.1451   -5.9948    0.0000 C    0  0  0  0  0  0  0  0  0  0  0  0
   12.4508   -3.3393    0.0000 C    0  0  0  0  0  0  0  0  0  0  0  0
   11.9578   -5.1520    0.0000 O    0  0  0  0  0  0  0  0  0  0  0  0
   10.6221   -2.8463    0.0000 O    0  0  0  0  0  0  0  0  0  0  0  0
    7.8394   -4.6750    0.0000 C    0  0  0  0  0  0  0  0  0  0  0  0
   11.2900   -6.6468    0.0000 C    0  0  0  0  0  0  0  0  0  0  0  0
   12.4508   -2.0195    0.0000 C    0  0  0  0  0  0  0  0  0  0  0  0
   13.5957   -3.9753    0.0000 C    0  0  0  0  0  0  0  0  0  0  0  0
    6.7104   -3.9753    0.0000 C    0  0  0  0  0  0  0  0  0  0  0  0
    7.8394   -5.9948    0.0000 O    0  0  0  0  0  0  0  0  0  0  0  0
   11.2900   -7.9666    0.0000 C    0  0  0  0  0  0  0  0  0  0  0  0
   12.4508   -5.9948    0.0000 C    0  0  0  0  0  0  0  0  0  0  0  0
   13.5957   -1.3198    0.0000 C    0  0  0  0  0  0  0  0  0  0  0  0
   14.7406   -3.3393    0.0000 C    0  0  0  0  0  0  0  0  0  0  0  0
    6.7104   -2.6555    0.0000 C    0  0  0  0  0  0  0  0  0  0  0  0
    5.5337   -4.6750    0.0000 N    0  0  0  0  0  0  0  0  0  0  0  0
   14.7406   -2.0195    0.0000 C    0  0  0  0  0  0  0  0  0  0  0  0
    7.8394   -2.0195    0.0000 C    0  0  0  0  0  0  0  0  0  0  0  0
    4.4047   -3.9753    0.0000 C    0  0  0  0  0  0  0  0  0  0  0  0
   15.9014   -1.3198    0.0000 N    0  0  0  0  0  0  0  0  0  0  0  0
    7.8394   -0.6838    0.0000 C    0  0  0  0  0  0  0  0  0  0  0  0
    8.9843   -2.6555    0.0000 C    0  0  0  0  0  0  0  0  0  0  0  0
    3.2280   -4.6750    0.0000 O    0  0  0  0  0  0  0  0  0  0  0  0
    4.4047   -2.6555    0.0000 O    0  0  0  0  0  0  0  0  0  0  0  0
    8.9843    0.0000    0.0000 C    0  0  0  0  0  0  0  0  0  0  0  0
   10.1451   -2.0195    0.0000 C    0  0  0  0  0  0  0  0  0  0  0  0
    2.0990   -3.9753    0.0000 C    0  0  0  0  0  0  0  0  0  0  0  0
   10.1451   -0.6838    0.0000 C    0  0  0  0  0  0  0  0  0  0  0  0
    0.8746   -4.5319    0.0000 C    0  0  0  0  0  0  0  0  0  0  0  0
    1.9718   -2.6873    0.0000 C    0  0  0  0  0  0  0  0  0  0  0  0
    0.0000   -3.5301    0.0000 C    0  0  0  0  0  0  0  0  0  0  0  0
    0.6520   -2.4011    0.0000 O    0  0  0  0  0  0  0  0  0  0  0  0
    6.7104   -6.6468    0.0000 P    0  0  0  0  0  0  0  0  0  0  0  0
    5.5337   -7.3305    0.0000 O    0  5  0  0  0  0  0  0  0  0  0  0
    7.3623   -7.8076    0.0000 O    0  5  0  0  0  0  0  0  0  0  0  0
    6.0266   -5.5019    0.0000 O    0  0  0  0  0  0  0  0  0  0  0  0
  2  3  1  0  0  0  0
  2  4  1  0  0  0  0
  2  5  1  0  0  0  0
  3  6  1  0  0  0  0
  3  7  2  0  0  0  0
  3  8  2  0  0  0  0
  4  9  1  0  0  0  0
  5 10  1  0  0  0  0
  6 11  2  0  0  0  0
  6 12  1  0  0  0  0
  9 13  1  0  0  0  0
  9 14  1  1  0  0  0
 10 15  1  0  0  0  0
 10 16  1  0  0  0  0
 11 17  1  0  0  0  0
 12 18  2  0  0  0  0
 13 19  1  1  0  0  0
 13 20  1  0  0  0  0
 14 37  1  0  0  0  0
 17 21  2  0  0  0  0
 18 21  1  0  0  0  0
 19 22  1  0  0  0  0
 20 23  1  0  0  0  0
 21 24  1  0  0  0  0
 22 25  2  0  0  0  0
 22 26  1  0  0  0  0
 23 27  1  0  0  0  0
 23 28  2  0  0  0  0
 25 29  1  0  0  0  0
 26 30  2  0  0  0  0
 31 27  1  1  0  0  0
 29 32  2  0  0  0  0
 30 32  1  0  0  0  0
 31 33  1  0  0  0  0
 31 34  1  0  0  0  0
 33 35  1  0  0  0  0
 34 36  1  0  0  0  0
 35 36  1  0  0  0  0
 37 38  1  0  0  0  0
 37 39  1  0  0  0  0
 37 40  2  0  0  0  0
M  END
> <ID>
11960

> <Formula>
C25H34CaN3O9PS

> <FW>
623.6689 (40.0769+583.5920)

> <DSSTox_CID>
26777

> <DSSTox_RID>
81896

> <DSSTox_GSID>
46777

> <DSSTox_FileID_Sort>
6577

> <TS_ChemName>
Fosamprenavir calcium

> <TS_ChemName_Synonyms>


> <TS_CASRN>
226700-81-8

> <CASRN_ChemName_Relationship>
primary

> <TS_Description>
single chemical compound

> <ChemNote>
stereochem; parent [226700-79-4]

> <STRUCTURE_Shown>
tested chemical

> <STRUCTURE_Formula>
C25H34CaN3O9PS

> <STRUCTURE_MW>
623.6689

> <STRUCTURE_ChemType>
defined organic

> <STRUCTURE_DefinedOrganicForm>
salt

> <STRUCTURE_IUPAC>
calcium (2R,3S)-1-{[(4-aminophenyl)sulfonyl](2-methylpropyl)amino}-4-phenyl-3-({[(3S)-tetrahydrofuran-3-yloxy]carbonyl}amino)butan-2-yl phosphate

> <STRUCTURE_SMILES>
[Ca+2].O=C(N[C@@H](Cc1ccccc1)[C@@H](CN(CC(C)C)S(=O)(=O)c2ccc(N)cc2)OP([O-])([O-])=O)O[C@H]3CCOC3

> <STRUCTURE_SMILES_Desalt>
O=C(N[C@@H](Cc1ccccc1)[C@@H](CN(CC(C)C)S(=O)(=O)c2ccc(N)cc2)OP(=O)(O)O)O[C@H]3CCOC3

> <Substance_modify_yyyymmdd>
20110803

$$$$
