22694-96-8
ChemmineR-0915142007XD

  8  8  0  0  0  0  0  0  0  0  1 V2000
    1.2683   -0.7863    0.0000 C   0  0  0  0  0  0  0  0  0  0  0  0
    2.3401    0.0000    0.0000 O   0  0  0  0  0  0  0  0  0  0  0  0
    1.6661   -2.0546    0.0000 C   0  0  0  0  0  0  0  0  0  0  0  0
    3.4118   -0.7863    0.0000 C   0  0  0  0  0  0  0  0  0  0  0  0
    2.9953   -2.0546    0.0000 N   0  0  0  0  0  0  0  0  0  0  0  0
    0.8986   -3.1263    0.0000 C   0  0  0  0  0  0  0  0  0  0  0  0
    0.0000   -0.3697    0.0000 C   0  0  0  0  0  0  0  0  0  0  0  0
    4.6801   -0.3697    0.0000 C   0  0  0  0  0  0  0  0  0  0  0  0
  1  2  1  0  0  0  0
  1  3  1  0  0  0  0
  1  7  1  0  0  0  0
  2  4  1  0  0  0  0
  3  5  2  0  0  0  0
  3  6  1  0  0  0  0
  4  5  1  0  0  0  0
  4  8  1  0  0  0  0
M  END
> <ID>
12283

> <Formula>
C6H11NO

> <FW>
113.1576

> <DSSTox_CID>
27133

> <DSSTox_RID>
82140

> <DSSTox_GSID>
47133

> <DSSTox_FileID_Sort>
6821

> <TS_ChemName>
2,4,5-Trimethyl-3-oxazoline

> <TS_ChemName_Synonyms>


> <TS_CASRN>
22694-96-8

> <CASRN_ChemName_Relationship>
primary

> <TS_Description>
mixture of Z,E isomers

> <ChemNote>
mixture of (2R,S)- (5R,S)- isomers; structure shown without stereochem

> <STRUCTURE_Shown>
representative isomer in mixture

> <STRUCTURE_Formula>
C6H11NO

> <STRUCTURE_MW>
113.1576

> <STRUCTURE_ChemType>
defined organic

> <STRUCTURE_DefinedOrganicForm>
parent

> <STRUCTURE_IUPAC>
2,4,5-trimethyl-2,5-dihydro-1,3-oxazole

> <STRUCTURE_SMILES>
CC1OC(C)N=C1C

> <STRUCTURE_SMILES_Desalt>
CC1OC(C)N=C1C

> <Substance_modify_yyyymmdd>
20100502

$$$$
