22720-75-8
ChemmineR-0915142007XD

 12 13  0  0  0  0  0  0  0  0  1 V2000
    6.3477   -2.4819    0.0000 C   0  0  0  0  0  0  0  0  0  0  0  0
    5.6812   -1.3267    0.0000 C   0  0  0  0  0  0  0  0  0  0  0  0
    6.3477   -0.1777    0.0000 O   0  0  0  0  0  0  0  0  0  0  0  0
    4.3545   -1.3267    0.0000 C   0  0  0  0  0  0  0  0  0  0  0  0
    3.5674   -2.4058    0.0000 C   0  0  0  0  0  0  0  0  0  0  0  0
    2.3042   -1.9932    0.0000 C   0  0  0  0  0  0  0  0  0  0  0  0
    2.3042   -0.6665    0.0000 C   0  0  0  0  0  0  0  0  0  0  0  0
    3.5674   -0.2539    0.0000 S   0  0  0  0  0  0  0  0  0  0  0  0
    1.1553    0.0000    0.0000 C   0  0  0  0  0  0  0  0  0  0  0  0
    0.0000   -0.6665    0.0000 C   0  0  0  0  0  0  0  0  0  0  0  0
    0.0000   -1.9932    0.0000 C   0  0  0  0  0  0  0  0  0  0  0  0
    1.1553   -2.6597    0.0000 C   0  0  0  0  0  0  0  0  0  0  0  0
  1  2  1  0  0  0  0
  2  3  2  0  0  0  0
  2  4  1  0  0  0  0
  4  5  2  0  0  0  0
  4  8  1  0  0  0  0
  5  6  1  0  0  0  0
  6  7  2  0  0  0  0
  6 12  1  0  0  0  0
  7  8  1  0  0  0  0
  7  9  1  0  0  0  0
  9 10  2  0  0  0  0
 10 11  1  0  0  0  0
 11 12  2  0  0  0  0
M  END
> <ID>
16094

> <Formula>
C10H8OS

> <FW>
176.2349

> <DSSTox_CID>
31481

> <DSSTox_RID>
97366

> <DSSTox_GSID>
57692

> <DSSTox_FileID_Sort>
8433

> <TS_ChemName>
2-Acetylbenzo[b]thiophene

> <TS_ChemName_Synonyms>


> <TS_CASRN>
22720-75-8

> <CASRN_ChemName_Relationship>
primary

> <TS_Description>
single chemical compound

> <ChemNote>


> <STRUCTURE_Shown>
tested chemical

> <STRUCTURE_Formula>
C10H8OS

> <STRUCTURE_MW>
176.2349

> <STRUCTURE_ChemType>
defined organic

> <STRUCTURE_DefinedOrganicForm>
parent

> <STRUCTURE_IUPAC>
1-(1-benzothiophen-2-yl)ethanone

> <STRUCTURE_SMILES>
CC(=O)c1cc2ccccc2s1

> <STRUCTURE_SMILES_Desalt>
CC(=O)c1cc2ccccc2s1

> <Substance_modify_yyyymmdd>
20131018

$$$$
