22733-60-4
ChemmineR-0915142007XD

 27 31  0  0  1  0  0  0  0  0  1 V2000
    5.7444   -2.6641    0.0000 C   0  0  0  0  0  0  0  0  0  0  0  0
    6.8891   -1.9876    0.0000 C   0  0  0  0  0  0  0  0  0  0  0  0
    3.4550   -2.6641    0.0000 C   0  0  0  0  0  0  0  0  0  0  0  0
    4.5789   -1.9876    0.0000 C   0  0  0  0  0  0  0  0  0  0  0  0
    5.7444   -3.9857    0.0000 C   0  0  0  0  0  0  0  0  0  0  0  0
    3.4550   -3.9857    0.0000 C   0  0  0  0  0  0  0  0  0  0  0  0
    4.5789   -4.6309    0.0000 O   0  0  0  0  0  0  0  0  0  0  0  0
    5.0472   -0.5932    0.0000 O   0  0  0  0  0  0  0  0  0  0  0  0
    8.0338   -2.6641    0.0000 C   0  0  0  0  0  0  0  0  0  0  0  0
    2.3207   -1.9876    0.0000 C   0  0  0  0  0  0  0  0  0  0  0  0
    6.2855   -0.5932    0.0000 C   0  0  0  0  0  0  0  0  0  0  0  0
    9.1786   -1.9876    0.0000 C   0  0  0  0  0  0  0  0  0  0  0  0
    8.0338   -3.9857    0.0000 C   0  0  0  0  0  0  0  0  0  0  0  0
    6.8891   -4.6309    0.0000 C   0  0  0  0  0  0  0  0  0  0  0  0
    2.3207   -4.6309    0.0000 C   0  0  0  0  0  0  0  0  0  0  0  0
    1.1655   -2.6641    0.0000 C   0  0  0  0  0  0  0  0  0  0  0  0
    1.1655   -3.9857    0.0000 C   0  0  0  0  0  0  0  0  0  0  0  0
    2.3207   -0.6868    0.0000 O   0  0  0  0  0  0  0  0  0  0  0  0
    6.8787   -0.6868    0.0000 C   0  0  0  0  0  0  0  0  0  0  0  0
    5.7444   -5.3177    0.0000 C   0  0  0  0  0  0  0  0  0  0  0  0
    9.1786   -0.6556    0.0000 C   0  0  0  0  0  0  0  0  0  0  0  0
    8.0234    0.0000    0.0000 C   0  0  0  0  0  0  0  0  0  0  0  0
   10.4065   -2.4663    0.0000 C   0  0  0  0  0  0  0  0  0  0  0  0
   10.2921   -1.3216    0.0000 C   0  0  0  0  0  0  0  0  0  0  0  0
    0.0000   -4.6309    0.0000 C   0  0  0  0  0  0  0  0  0  0  0  0
    6.9099   -3.3093    0.0000 H   0  0  0  0  0  0  0  0  0  0  0  0
    9.1786   -3.3093    0.0000 H   0  0  0  0  0  0  0  0  0  0  0  0
  1  2  1  0  0  0  0
  1  4  1  0  0  0  0
  1  5  1  0  0  0  0
  1 26  1  1  0  0  0
  2  9  1  0  0  0  0
  2 11  1  0  0  0  0
  2 19  1  0  0  0  0
  3  4  1  0  0  0  0
  3 10  1  0  0  0  0
  3  6  2  0  0  0  0
  4  8  1  6  0  0  0
  5  7  1  0  0  0  0
  5 14  1  0  0  0  0
  5 20  1  1  0  0  0
  6  7  1  0  0  0  0
  6 15  1  0  0  0  0
  8 11  1  0  0  0  0
  9 12  1  0  0  0  0
  9 27  1  1  0  0  0
  9 13  1  0  0  0  0
 10 16  2  0  0  0  0
 10 18  1  0  0  0  0
 12 23  1  0  0  0  0
 12 24  1  0  0  0  0
 12 21  1  0  0  0  0
 13 14  1  0  0  0  0
 15 17  2  0  0  0  0
 16 17  1  0  0  0  0
 17 25  1  0  0  0  0
 19 22  1  0  0  0  0
 21 22  1  0  0  0  0
M  END
> <ID>
12016

> <Formula>
C22H30O3

> <FW>
342.4718

> <DSSTox_CID>
26843

> <DSSTox_RID>
81953

> <DSSTox_GSID>
46843

> <DSSTox_FileID_Sort>
6634

> <TS_ChemName>
Siccanin

> <TS_ChemName_Synonyms>


> <TS_CASRN>
22733-60-4

> <CASRN_ChemName_Relationship>
primary

> <TS_Description>
single chemical compound

> <ChemNote>
stereochem

> <STRUCTURE_Shown>
tested chemical

> <STRUCTURE_Formula>
C22H30O3

> <STRUCTURE_MW>
342.4718

> <STRUCTURE_ChemType>
defined organic

> <STRUCTURE_DefinedOrganicForm>
parent

> <STRUCTURE_IUPAC>
(4aS,6aS,11bR,13bS)-4,4,6a,9-tetramethyl-1,2,3,4,4a,5,6,6a,11b,13b-decahydrobenzo[a]furo[2,3,4-mn]xanthen-11-ol

> <STRUCTURE_SMILES>
Cc1cc2O[C@@]4(C)CC[C@H]5C(C)(C)CCCC53CO[C@@H](c2c(O)c1)[C@H]34

> <STRUCTURE_SMILES_Desalt>
Cc1cc2O[C@@]4(C)CC[C@H]5C(C)(C)CCCC53CO[C@@H](c2c(O)c1)[C@H]34

> <Substance_modify_yyyymmdd>
20110729

$$$$
