2274-11-5
ChemmineR-0915142007XD

 12 11  0  0  0  0  0  0  0  0  1 V2000
    2.3211   -1.3323    0.0000 C   0  0  0  0  0  0  0  0  0  0  0  0
    1.1658   -1.9881    0.0000 C   0  0  0  0  0  0  0  0  0  0  0  0
    0.0000   -1.3323    0.0000 C   0  0  0  0  0  0  0  0  0  0  0  0
    2.3211    0.0000    0.0000 O   0  0  0  0  0  0  0  0  0  0  0  0
    3.4765   -1.9881    0.0000 O   0  0  0  0  0  0  0  0  0  0  0  0
    4.6318   -1.3323    0.0000 C   0  0  0  0  0  0  0  0  0  0  0  0
    5.7768   -1.9881    0.0000 C   0  0  0  0  0  0  0  0  0  0  0  0
    6.9322   -1.3323    0.0000 O   0  0  0  0  0  0  0  0  0  0  0  0
    8.0875   -1.9881    0.0000 C   0  0  0  0  0  0  0  0  0  0  0  0
    9.2429   -1.3323    0.0000 C   0  0  0  0  0  0  0  0  0  0  0  0
    8.0875   -3.3204    0.0000 O   0  0  0  0  0  0  0  0  0  0  0  0
   10.4086   -1.9881    0.0000 C   0  0  0  0  0  0  0  0  0  0  0  0
  1  2  1  0  0  0  0
  1  5  1  0  0  0  0
  1  4  2  0  0  0  0
  2  3  2  0  0  0  0
  5  6  1  0  0  0  0
  6  7  1  0  0  0  0
  7  8  1  0  0  0  0
  8  9  1  0  0  0  0
  9 10  1  0  0  0  0
  9 11  2  0  0  0  0
 10 12  2  0  0  0  0
M  END
> <ID>
10269

> <Formula>
C8H10O4

> <FW>
170.1626

> <DSSTox_CID>
24615

> <DSSTox_RID>
80350

> <DSSTox_GSID>
44615

> <DSSTox_FileID_Sort>
5032

> <TS_ChemName>
Ethylene acrylate

> <TS_ChemName_Synonyms>
Ethylene acrylate (Ethane-1,2-diyl bisprop-2-enoate) (2-Propenoic acid, 1,2-ethanediyl ester)

> <TS_CASRN>
2274-11-5

> <CASRN_ChemName_Relationship>
primary

> <TS_Description>
single chemical compound

> <ChemNote>


> <STRUCTURE_Shown>
tested chemical

> <STRUCTURE_Formula>
C8H10O4

> <STRUCTURE_MW>
170.1626

> <STRUCTURE_ChemType>
defined organic

> <STRUCTURE_DefinedOrganicForm>
parent

> <STRUCTURE_IUPAC>
ethane-1,2-diyl bisprop-2-enoate

> <STRUCTURE_SMILES>
O=C(C=C)OCCOC(=O)C=C

> <STRUCTURE_SMILES_Desalt>
O=C(C=C)OCCOC(=O)C=C

> <Substance_modify_yyyymmdd>
20091116

$$$$
