2275-14-1
ChemmineR-0915142007XD

 19 19  0  0  0  0  0  0  0  0  1 V2000
    6.9265   -3.3181    0.0000 P    0  0  0  0  0  0  0  0  0  0  0  0
    6.2525   -2.1671    0.0000 S    0  0  0  0  0  0  0  0  0  0  0  0
    7.5798   -4.4690    0.0000 O    0  0  0  0  0  0  0  0  0  0  0  0
    8.0775   -2.6648    0.0000 O    0  0  0  0  0  0  0  0  0  0  0  0
    5.7652   -3.9921    0.0000 S    0  0  0  0  0  0  0  0  0  0  0  0
    4.6142   -3.3181    0.0000 C    0  0  0  0  0  0  0  0  0  0  0  0
    3.4633   -3.9921    0.0000 S    0  0  0  0  0  0  0  0  0  0  0  0
    2.3123   -3.3181    0.0000 C    0  0  0  0  0  0  0  0  0  0  0  0
    1.1510   -3.9921    0.0000 C    0  0  0  0  0  0  0  0  0  0  0  0
    2.3123   -1.9909    0.0000 C    0  0  0  0  0  0  0  0  0  0  0  0
    0.0000   -3.3181    0.0000 C    0  0  0  0  0  0  0  0  0  0  0  0
    1.1510   -1.3272    0.0000 C    0  0  0  0  0  0  0  0  0  0  0  0
    0.0000   -1.9909    0.0000 C    0  0  0  0  0  0  0  0  0  0  0  0
    1.1510   -5.3193    0.0000 Cl   0  0  0  0  0  0  0  0  0  0  0  0
    1.1510    0.0000    0.0000 Cl   0  0  0  0  0  0  0  0  0  0  0  0
    6.9265   -5.6304    0.0000 C    0  0  0  0  0  0  0  0  0  0  0  0
    7.5798   -6.7813    0.0000 C    0  0  0  0  0  0  0  0  0  0  0  0
    9.2181   -3.3181    0.0000 C    0  0  0  0  0  0  0  0  0  0  0  0
   10.3690   -2.6648    0.0000 C    0  0  0  0  0  0  0  0  0  0  0  0
  1  2  2  0  0  0  0
  1  3  1  0  0  0  0
  1  4  1  0  0  0  0
  1  5  1  0  0  0  0
  3 16  1  0  0  0  0
  4 18  1  0  0  0  0
  5  6  1  0  0  0  0
  6  7  1  0  0  0  0
  7  8  1  0  0  0  0
  8  9  2  0  0  0  0
  8 10  1  0  0  0  0
  9 11  1  0  0  0  0
  9 14  1  0  0  0  0
 10 12  2  0  0  0  0
 11 13  2  0  0  0  0
 12 13  1  0  0  0  0
 12 15  1  0  0  0  0
 16 17  1  0  0  0  0
 18 19  1  0  0  0  0
M  END
> <ID>
9198

> <Formula>
C11H15Cl2O2PS3

> <FW>
377.3104

> <DSSTox_CID>
22269

> <DSSTox_RID>
79983

> <DSSTox_GSID>
42269

> <DSSTox_FileID_Sort>
4665

> <TS_ChemName>
Phenkapton

> <TS_ChemName_Synonyms>


> <TS_CASRN>
2275-14-1

> <CASRN_ChemName_Relationship>
primary

> <TS_Description>
single chemical compound

> <ChemNote>


> <STRUCTURE_Shown>
tested chemical

> <STRUCTURE_Formula>
C11H15Cl2O2PS3

> <STRUCTURE_MW>
377.3104

> <STRUCTURE_ChemType>
defined organic

> <STRUCTURE_DefinedOrganicForm>
parent

> <STRUCTURE_IUPAC>
S-{[(2,5-dichlorophenyl)sulfanyl]methyl} O,O-diethyl phosphorodithioate

> <STRUCTURE_SMILES>
Clc1ccc(Cl)cc1SCSP(=S)(OCC)OCC

> <STRUCTURE_SMILES_Desalt>
Clc1ccc(Cl)cc1SCSP(=S)(OCC)OCC

> <Substance_modify_yyyymmdd>
20080825

$$$$
