227617-70-1
ChemmineR-0915142007XD

 18 17  0  0  0  0  0  0  0  0  2 V2000
    6.6351   -1.0651    0.0000 N   0  3  0  0  0  0  0  0  0  0  0  0
    4.6057   -1.7415    0.0000 N   0  0  0  0  0  0  0  0  0  0  0  0
    5.8579   -2.1733    0.0000 C   0  0  0  0  0  0  0  0  0  0  0  0
    5.8579    0.0000    0.0000 C   0  0  0  0  0  0  0  0  0  0  0  0
    4.6057   -0.4318    0.0000 C   0  0  0  0  0  0  0  0  0  0  0  0
    3.5119   -2.5332    0.0000 C   0  0  0  0  0  0  0  0  0  0  0  0
    2.3029   -1.9574    0.0000 C   0  0  0  0  0  0  0  0  0  0  0  0
    1.2234   -2.7347    0.0000 C   0  0  0  0  0  0  0  0  0  0  0  0
    0.0000   -2.2021    0.0000 C   0  0  0  0  0  0  0  0  0  0  0  0
    6.2897   -3.4111    0.0000 C   0  0  0  0  0  0  0  0  0  0  0  0
    7.9881   -1.0651    0.0000 C   0  0  0  0  0  0  0  0  0  0  0  0
   13.0688   -2.4036    0.0000 P   0  5  0  0  0  0  0  0  0  0  0  0
   11.7446   -2.4036    0.0000 F   0  0  0  0  0  0  0  0  0  0  0  0
   13.7165   -3.5551    0.0000 F   0  0  0  0  0  0  0  0  0  0  0  0
   13.7165   -1.2522    0.0000 F   0  0  0  0  0  0  0  0  0  0  0  0
   12.3923   -3.5551    0.0000 F   0  0  0  0  0  0  0  0  0  0  0  0
   12.3923   -1.2522    0.0000 F   0  0  0  0  0  0  0  0  0  0  0  0
   14.3929   -2.4036    0.0000 F   0  0  0  0  0  0  0  0  0  0  0  0
  1  3  2  0  0  0  0
  1  4  1  0  0  0  0
  1 11  1  0  0  0  0
  2  3  1  0  0  0  0
  2  5  1  0  0  0  0
  2  6  1  0  0  0  0
  3 10  1  0  0  0  0
  4  5  2  0  0  0  0
  6  7  1  0  0  0  0
  7  8  1  0  0  0  0
  8  9  1  0  0  0  0
 12 13  1  0  0  0  0
 12 14  1  0  0  0  0
 12 15  1  0  0  0  0
 12 16  1  0  0  0  0
 12 17  1  0  0  0  0
 12 18  1  0  0  0  0
M  END
> <ID>
12982

> <Formula>
C9H17F6N2P

> <FW>
298.2089 (153.2441+144.9647)

> <DSSTox_CID>
27883

> <DSSTox_RID>
82636

> <DSSTox_GSID>
47907

> <DSSTox_FileID_Sort>
7313

> <TS_ChemName>
1-Butyl-2,3-dimethylimidazolium hexafluorophosphate

> <TS_ChemName_Synonyms>


> <TS_CASRN>
227617-70-1

> <CASRN_ChemName_Relationship>
primary

> <TS_Description>
single chemical compound

> <ChemNote>
ammonium; parent [108203-89-0]

> <STRUCTURE_Shown>
tested chemical

> <STRUCTURE_Formula>
C9H17F6N2P

> <STRUCTURE_MW>
298.2089

> <STRUCTURE_ChemType>
defined organic

> <STRUCTURE_DefinedOrganicForm>
salt

> <STRUCTURE_IUPAC>
1-butyl-2,3-dimethyl-1H-imidazol-3-ium hexafluorophosphate

> <STRUCTURE_SMILES>
CCCCn1cc[n+](C)c1C.F[P-](F)(F)(F)(F)F

> <STRUCTURE_SMILES_Desalt>
CCCCn1cc[n+](C)c1C

> <Substance_modify_yyyymmdd>
20110419

$$$$
