22839-47-0
ChemmineR-0915142007XD

 21 21  0  0  1  0  0  0  0  0  1 V2000
    0.0000   -4.6020    0.0000 O   0  0  0  0  0  0  0  0  0  0  0  0
    0.6609   -5.7546    0.0000 C   0  0  0  0  0  0  0  0  0  0  0  0
    1.9907   -5.7546    0.0000 C   0  0  0  0  0  0  0  0  0  0  0  0
    2.6597   -6.9071    0.0000 C   0  0  0  0  0  0  0  0  0  0  0  0
    3.9895   -6.9071    0.0000 C   0  0  0  0  0  0  0  0  0  0  0  0
    4.6504   -5.7546    0.0000 C   0  0  0  0  0  0  0  0  0  0  0  0
    5.9802   -5.7546    0.0000 C   0  0  0  0  0  0  0  0  0  0  0  0
    6.6492   -6.9071    0.0000 C   0  0  0  0  0  0  0  0  0  0  0  0
    5.9802   -8.0596    0.0000 C   0  0  0  0  0  0  0  0  0  0  0  0
    4.6504   -8.0596    0.0000 C   0  0  0  0  0  0  0  0  0  0  0  0
    2.6597   -4.6020    0.0000 N   0  0  0  0  0  0  0  0  0  0  0  0
    1.9907   -3.4576    0.0000 C   0  0  0  0  0  0  0  0  0  0  0  0
    0.6609   -3.4576    0.0000 O   0  0  0  0  0  0  0  0  0  0  0  0
    2.6597   -2.3050    0.0000 C   0  0  0  0  0  0  0  0  0  0  0  0
    3.9895   -2.3050    0.0000 C   0  0  0  0  0  0  0  0  0  0  0  0
    4.6504   -1.1525    0.0000 C   0  0  0  0  0  0  0  0  0  0  0  0
    3.9895    0.0000    0.0000 O   0  0  0  0  0  0  0  0  0  0  0  0
    5.9802   -1.1525    0.0000 O   0  0  0  0  0  0  0  0  0  0  0  0
    1.9907   -1.1525    0.0000 N   0  0  0  0  0  0  0  0  0  0  0  0
    0.0000   -6.9071    0.0000 O   0  0  0  0  0  0  0  0  0  0  0  0
    0.6609   -8.0596    0.0000 C   0  0  0  0  0  0  0  0  0  0  0  0
  1  2  2  0  0  0  0
  2  3  1  0  0  0  0
  2 20  1  0  0  0  0
  3  4  1  0  0  0  0
  3 11  1  1  0  0  0
  4  5  1  0  0  0  0
  5  6  2  0  0  0  0
  5 10  1  0  0  0  0
  6  7  1  0  0  0  0
  7  8  2  0  0  0  0
  8  9  1  0  0  0  0
  9 10  2  0  0  0  0
 11 12  1  0  0  0  0
 12 13  2  0  0  0  0
 12 14  1  0  0  0  0
 14 15  1  0  0  0  0
 14 19  1  1  0  0  0
 15 16  1  0  0  0  0
 16 17  2  0  0  0  0
 16 18  1  0  0  0  0
 20 21  1  0  0  0  0
M  END
> <ID>
105

> <Formula>
C14H18N2O5

> <FW>
294.3031

> <DSSTox_CID>
107

> <DSSTox_RID>
75371

> <DSSTox_GSID>
20107

> <DSSTox_FileID_Sort>
55

> <TS_ChemName>
Aspartame

> <TS_ChemName_Synonyms>


> <TS_CASRN>
22839-47-0

> <CASRN_ChemName_Relationship>
primary

> <TS_Description>
single chemical compound

> <ChemNote>
stereochem

> <STRUCTURE_Shown>
tested chemical

> <STRUCTURE_Formula>
C14H18N2O5

> <STRUCTURE_MW>
294.3031

> <STRUCTURE_ChemType>
defined organic

> <STRUCTURE_DefinedOrganicForm>
parent

> <STRUCTURE_IUPAC>
methyl L-alpha-aspartyl-L-phenylalaninate

> <STRUCTURE_SMILES>
O=C(O)C[C@H](N)C(=O)N[C@@H](Cc1ccccc1)C(=O)OC

> <STRUCTURE_SMILES_Desalt>
O=C(O)C[C@H](N)C(=O)N[C@@H](Cc1ccccc1)C(=O)OC

> <Substance_modify_yyyymmdd>
20080429

$$$$
