22888-70-6
ChemmineR-0915142007XD

 35 39  0  0  1  0  0  0  0  0  1 V2000
    3.4685   -5.3237    0.0000 C   0  0  0  0  0  0  0  0  0  0  0  0
    4.6139   -6.0013    0.0000 C   0  0  0  0  0  0  0  0  0  0  0  0
    4.6139   -3.3394    0.0000 O   0  0  0  0  0  0  0  0  0  0  0  0
    3.4685   -4.0009    0.0000 C   0  0  0  0  0  0  0  0  0  0  0  0
    5.7593   -5.3237    0.0000 C   0  0  0  0  0  0  0  0  0  0  0  0
    5.7593   -4.0009    0.0000 C   0  0  0  0  0  0  0  0  0  0  0  0
   10.3571   -4.0009    0.0000 O   0  0  0  0  0  0  0  0  0  0  0  0
    2.3070   -6.0013    0.0000 C   0  0  0  0  0  0  0  0  0  0  0  0
   11.5187   -3.3394    0.0000 C   0  0  0  0  0  0  0  0  0  0  0  0
   10.3571   -1.3390    0.0000 O   0  0  0  0  0  0  0  0  0  0  0  0
    9.2117   -3.3394    0.0000 C   0  0  0  0  0  0  0  0  0  0  0  0
   11.5187   -2.0004    0.0000 C   0  0  0  0  0  0  0  0  0  0  0  0
    6.9209   -3.3394    0.0000 C   0  0  0  0  0  0  0  0  0  0  0  0
   12.6641   -4.0009    0.0000 C   0  0  0  0  0  0  0  0  0  0  0  0
    9.2117   -2.0004    0.0000 C   0  0  0  0  0  0  0  0  0  0  0  0
    2.3070   -3.3394    0.0000 C   0  0  0  0  0  0  0  0  0  0  0  0
    8.0502   -4.0009    0.0000 C   0  0  0  0  0  0  0  0  0  0  0  0
    1.1615   -5.3237    0.0000 C   0  0  0  0  0  0  0  0  0  0  0  0
   12.6641   -5.3237    0.0000 C   0  0  0  0  0  0  0  0  0  0  0  0
   13.8256   -6.0013    0.0000 C   0  0  0  0  0  0  0  0  0  0  0  0
    4.6139   -7.3242    0.0000 O   0  0  0  0  0  0  0  0  0  0  0  0
    1.1615   -4.0009    0.0000 C   0  0  0  0  0  0  0  0  0  0  0  0
   14.9710   -5.3237    0.0000 C   0  0  0  0  0  0  0  0  0  0  0  0
    6.9209   -2.0004    0.0000 C   0  0  0  0  0  0  0  0  0  0  0  0
   13.8256   -3.3394    0.0000 C   0  0  0  0  0  0  0  0  0  0  0  0
    8.0502   -1.3390    0.0000 C   0  0  0  0  0  0  0  0  0  0  0  0
   14.9710   -4.0009    0.0000 C   0  0  0  0  0  0  0  0  0  0  0  0
    6.9209   -6.0013    0.0000 O   0  0  0  0  0  0  0  0  0  0  0  0
    2.3070   -7.3242    0.0000 O   0  0  0  0  0  0  0  0  0  0  0  0
   13.8256   -7.3242    0.0000 O   0  0  0  0  0  0  0  0  0  0  0  0
   12.6641   -1.3390    0.0000 C   0  0  0  0  0  0  0  0  0  0  0  0
   16.1326   -6.0013    0.0000 O   0  0  0  0  0  0  0  0  0  0  0  0
    0.0000   -3.3394    0.0000 O   0  0  0  0  0  0  0  0  0  0  0  0
   12.6641    0.0000    0.0000 O   0  0  0  0  0  0  0  0  0  0  0  0
   12.6641   -7.9856    0.0000 C   0  0  0  0  0  0  0  0  0  0  0  0
  1  2  1  0  0  0  0
  1  4  2  0  0  0  0
  1  8  1  0  0  0  0
  2  5  1  0  0  0  0
  2 21  2  0  0  0  0
  3  4  1  0  0  0  0
  3  6  1  0  0  0  0
  4 16  1  0  0  0  0
  5 28  1  1  0  0  0
  5  6  1  0  0  0  0
  6 13  1  6  0  0  0
  7 11  1  0  0  0  0
  7  9  1  0  0  0  0
  8 18  2  0  0  0  0
  8 29  1  0  0  0  0
  9 14  1  1  0  0  0
  9 12  1  0  0  0  0
 10 15  1  0  0  0  0
 10 12  1  0  0  0  0
 11 17  1  0  0  0  0
 11 15  2  0  0  0  0
 12 31  1  6  0  0  0
 13 17  2  0  0  0  0
 13 24  1  0  0  0  0
 14 19  2  0  0  0  0
 14 25  1  0  0  0  0
 15 26  1  0  0  0  0
 16 22  2  0  0  0  0
 18 22  1  0  0  0  0
 19 20  1  0  0  0  0
 20 30  1  0  0  0  0
 20 23  2  0  0  0  0
 22 33  1  0  0  0  0
 23 27  1  0  0  0  0
 23 32  1  0  0  0  0
 24 26  2  0  0  0  0
 25 27  2  0  0  0  0
 30 35  1  0  0  0  0
 31 34  1  0  0  0  0
M  END
> <ID>
4501

> <Formula>
C25H22O10

> <FW>
482.4362

> <DSSTox_CID>
6018

> <DSSTox_RID>
77985

> <DSSTox_GSID>
26018

> <DSSTox_FileID_Sort>
2668

> <TS_ChemName>
Silybin

> <TS_ChemName_Synonyms>
Silybin (Silibinin)

> <TS_CASRN>
22888-70-6

> <CASRN_ChemName_Relationship>
primary

> <TS_Description>
mixture or formulation

> <ChemNote>
mixture of silybin A and B; structure shown silybin A; stereochem; tautomers

> <STRUCTURE_Shown>
representative component

> <STRUCTURE_Formula>
C25H22O10

> <STRUCTURE_MW>
482.4362

> <STRUCTURE_ChemType>
defined organic

> <STRUCTURE_DefinedOrganicForm>
parent

> <STRUCTURE_IUPAC>
(2R,3R)-3,5,7-trihydroxy-2-[(2R,3R)-3-(4-hydroxy-3-methoxyphenyl)-2-(hydroxymethyl)-2,3-dihydro-1,4-benzodioxin-6-yl]-2,3-dihydro-4H-chromen-4-one

> <STRUCTURE_SMILES>
Oc4cc(O)cc5O[C@H](c1ccc2O[C@H](CO)[C@H](Oc2c1)c3ccc(O)c(OC)c3)[C@@H](O)C(=O)c45

> <STRUCTURE_SMILES_Desalt>
Oc4cc(O)cc5O[C@H](c1ccc2O[C@H](CO)[C@H](Oc2c1)c3ccc(O)c(OC)c3)[C@@H](O)C(=O)c45

> <Substance_modify_yyyymmdd>
20080429

$$$$
