22881-35-2
ChemmineR-0915142007XD

 28 30  0  0  0  0  0  0  0  0  1 V2000
    1.6880   -4.7709    0.0000 C   0  0  0  0  0  0  0  0  0  0  0  0
    2.0865   -6.0251    0.0000 C   0  0  0  0  0  0  0  0  0  0  0  0
    3.4228   -6.0251    0.0000 C   0  0  0  0  0  0  0  0  0  0  0  0
    3.8331   -4.7709    0.0000 N   0  0  0  0  0  0  0  0  0  0  0  0
    2.7664   -3.9738    0.0000 N   0  0  0  0  0  0  0  0  0  0  0  0
    1.3246   -7.1270    0.0000 C   0  0  0  0  0  0  0  0  0  0  0  0
    1.8638   -8.3344    0.0000 C   0  0  0  0  0  0  0  0  0  0  0  0
    0.0000   -6.9629    0.0000 C   0  0  0  0  0  0  0  0  0  0  0  0
    5.1108   -4.3606    0.0000 C   0  0  0  0  0  0  0  0  0  0  0  0
    0.4337   -4.3606    0.0000 O   0  0  0  0  0  0  0  0  0  0  0  0
    2.7664   -2.6492    0.0000 C   0  0  0  0  0  0  0  0  0  0  0  0
    3.9152   -1.9810    0.0000 C   0  0  0  0  0  0  0  0  0  0  0  0
    3.9152   -0.6564    0.0000 C   0  0  0  0  0  0  0  0  0  0  0  0
    2.7664    0.0000    0.0000 C   0  0  0  0  0  0  0  0  0  0  0  0
    1.5942   -0.6564    0.0000 C   0  0  0  0  0  0  0  0  0  0  0  0
    1.5942   -1.9810    0.0000 C   0  0  0  0  0  0  0  0  0  0  0  0
    4.2199   -7.1270    0.0000 C   0  0  0  0  0  0  0  0  0  0  0  0
    5.5445   -7.1270    0.0000 N   0  0  0  0  0  0  0  0  0  0  0  0
    6.2010   -8.2758    0.0000 C   0  0  0  0  0  0  0  0  0  0  0  0
    6.2010   -5.9783    0.0000 C   0  0  0  0  0  0  0  0  0  0  0  0
    5.5445   -9.4245    0.0000 C   0  0  0  0  0  0  0  0  0  0  0  0
    7.5256   -8.2758    0.0000 C   0  0  0  0  0  0  0  0  0  0  0  0
    8.2054   -9.4245    0.0000 C   0  0  0  0  0  0  0  0  0  0  0  0
    9.5300   -9.4245    0.0000 C   0  0  0  0  0  0  0  0  0  0  0  0
   10.1865  -10.5850    0.0000 C   0  0  0  0  0  0  0  0  0  0  0  0
    9.5300  -11.7221    0.0000 C   0  0  0  0  0  0  0  0  0  0  0  0
    8.2054  -11.7221    0.0000 C   0  0  0  0  0  0  0  0  0  0  0  0
    7.5256  -10.5850    0.0000 C   0  0  0  0  0  0  0  0  0  0  0  0
  1  5  1  0  0  0  0
  1 10  2  0  0  0  0
  1  2  1  0  0  0  0
  2  3  2  0  0  0  0
  2  6  1  0  0  0  0
  3  4  1  0  0  0  0
  3 17  1  0  0  0  0
  4  5  1  0  0  0  0
  4  9  1  0  0  0  0
  5 11  1  0  0  0  0
  6  7  1  0  0  0  0
  6  8  1  0  0  0  0
 11 16  1  0  0  0  0
 11 12  2  0  0  0  0
 12 13  1  0  0  0  0
 13 14  2  0  0  0  0
 14 15  1  0  0  0  0
 15 16  2  0  0  0  0
 17 18  1  0  0  0  0
 18 19  1  0  0  0  0
 18 20  1  0  0  0  0
 19 21  1  0  0  0  0
 19 22  1  0  0  0  0
 22 23  1  0  0  0  0
 23 24  2  0  0  0  0
 23 28  1  0  0  0  0
 24 25  1  0  0  0  0
 25 26  2  0  0  0  0
 26 27  1  0  0  0  0
 27 28  2  0  0  0  0
M  END
> <ID>
10945

> <Formula>
C24H31N3O

> <FW>
377.5224

> <DSSTox_CID>
25435

> <DSSTox_RID>
80877

> <DSSTox_GSID>
45435

> <DSSTox_FileID_Sort>
5558

> <TS_ChemName>
Famprofazone

> <TS_ChemName_Synonyms>


> <TS_CASRN>
22881-35-2

> <CASRN_ChemName_Relationship>
primary

> <TS_Description>
single chemical compound

> <ChemNote>


> <STRUCTURE_Shown>
tested chemical

> <STRUCTURE_Formula>
C24H31N3O

> <STRUCTURE_MW>
377.5224

> <STRUCTURE_ChemType>
defined organic

> <STRUCTURE_DefinedOrganicForm>
parent

> <STRUCTURE_IUPAC>
1-methyl-5-{[methyl(1-phenylpropan-2-yl)amino]methyl}-2-phenyl-4-(propan-2-yl)-1,2-dihydro-3H-pyrazol-3-one

> <STRUCTURE_SMILES>
CC(Cc1ccccc1)N(C)CC3=C(C(=O)N(c2ccccc2)N3C)C(C)C

> <STRUCTURE_SMILES_Desalt>
CC(Cc1ccccc1)N(C)CC3=C(C(=O)N(c2ccccc2)N3C)C(C)C

> <Substance_modify_yyyymmdd>
20100107

$$$$
