22915-73-7
ChemmineR-0915142007XD

 24 25  0  0  0  0  0  0  0  0  1 V2000
    5.7418   -1.9484    0.0000 C   0  0  0  0  0  0  0  0  0  0  0  0
    6.8970   -2.6381    0.0000 C   0  0  0  0  0  0  0  0  0  0  0  0
    8.0351   -1.9484    0.0000 C   0  0  0  0  0  0  0  0  0  0  0  0
    9.2076   -2.6381    0.0000 C   0  0  0  0  0  0  0  0  0  0  0  0
   10.3456   -1.9484    0.0000 C   0  0  0  0  0  0  0  0  0  0  0  0
   11.5008   -2.6381    0.0000 C   0  0  0  0  0  0  0  0  0  0  0  0
    4.6038   -2.6381    0.0000 O   0  0  0  0  0  0  0  0  0  0  0  0
   12.6388   -1.9484    0.0000 O   0  0  0  0  0  0  0  0  0  0  0  0
    3.4485   -1.9484    0.0000 C   0  0  0  0  0  0  0  0  0  0  0  0
    3.4485   -0.6380    0.0000 O   0  0  0  0  0  0  0  0  0  0  0  0
    2.3105   -2.6381    0.0000 C   0  0  0  0  0  0  0  0  0  0  0  0
    1.1380   -1.9484    0.0000 C   0  0  0  0  0  0  0  0  0  0  0  0
    2.3105   -3.9486    0.0000 C   0  0  0  0  0  0  0  0  0  0  0  0
    0.0000   -2.6381    0.0000 C   0  0  0  0  0  0  0  0  0  0  0  0
    1.1380   -4.5865    0.0000 C   0  0  0  0  0  0  0  0  0  0  0  0
    0.0000   -3.9486    0.0000 C   0  0  0  0  0  0  0  0  0  0  0  0
   13.7941   -2.6381    0.0000 C   0  0  0  0  0  0  0  0  0  0  0  0
   13.7941   -3.9486    0.0000 O   0  0  0  0  0  0  0  0  0  0  0  0
   14.9321   -1.9484    0.0000 C   0  0  0  0  0  0  0  0  0  0  0  0
   16.1046   -2.6381    0.0000 C   0  0  0  0  0  0  0  0  0  0  0  0
   14.9321   -0.6380    0.0000 C   0  0  0  0  0  0  0  0  0  0  0  0
   17.2426   -1.9484    0.0000 C   0  0  0  0  0  0  0  0  0  0  0  0
   16.1046    0.0000    0.0000 C   0  0  0  0  0  0  0  0  0  0  0  0
   17.2426   -0.6380    0.0000 C   0  0  0  0  0  0  0  0  0  0  0  0
  1  2  1  0  0  0  0
  1  7  1  0  0  0  0
  2  3  1  0  0  0  0
  3  4  1  0  0  0  0
  4  5  1  0  0  0  0
  5  6  1  0  0  0  0
  6  8  1  0  0  0  0
  7  9  1  0  0  0  0
  8 17  1  0  0  0  0
  9 10  2  0  0  0  0
  9 11  1  0  0  0  0
 11 12  2  0  0  0  0
 11 13  1  0  0  0  0
 12 14  1  0  0  0  0
 13 15  2  0  0  0  0
 14 16  2  0  0  0  0
 15 16  1  0  0  0  0
 17 18  2  0  0  0  0
 17 19  1  0  0  0  0
 19 20  2  0  0  0  0
 19 21  1  0  0  0  0
 20 22  1  0  0  0  0
 21 23  2  0  0  0  0
 22 24  2  0  0  0  0
 23 24  1  0  0  0  0
M  END
> <ID>
12663

> <Formula>
C20H22O4

> <FW>
326.3863

> <DSSTox_CID>
27539

> <DSSTox_RID>
82405

> <DSSTox_GSID>
47539

> <DSSTox_FileID_Sort>
7086

> <TS_ChemName>
Hexane-1,6-diyl dibenzoate

> <TS_ChemName_Synonyms>


> <TS_CASRN>
22915-73-7

> <CASRN_ChemName_Relationship>
primary

> <TS_Description>
single chemical compound

> <ChemNote>


> <STRUCTURE_Shown>
tested chemical

> <STRUCTURE_Formula>
C20H22O4

> <STRUCTURE_MW>
326.3863

> <STRUCTURE_ChemType>
defined organic

> <STRUCTURE_DefinedOrganicForm>
parent

> <STRUCTURE_IUPAC>
hexane-1,6-diyl dibenzoate

> <STRUCTURE_SMILES>
O=C(OCCCCCCOC(=O)c1ccccc1)c2ccccc2

> <STRUCTURE_SMILES_Desalt>
O=C(OCCCCCCOC(=O)c1ccccc1)c2ccccc2

> <Substance_modify_yyyymmdd>
20100921

$$$$
