22916-47-8
ChemmineR-0915142007XD

 25 27  0  0  0  0  0  0  0  0  1 V2000
    1.1519   -4.2619    0.0000 C    0  0  0  0  0  0  0  0  0  0  0  0
    2.3037   -3.5938    0.0000 C    0  0  0  0  0  0  0  0  0  0  0  0
    2.3037   -2.2692    0.0000 Cl   0  0  0  0  0  0  0  0  0  0  0  0
    3.4556   -4.2619    0.0000 C    0  0  0  0  0  0  0  0  0  0  0  0
    4.6075   -3.5938    0.0000 C    0  0  0  0  0  0  0  0  0  0  0  0
    4.6075   -2.2692    0.0000 C    0  0  0  0  0  0  0  0  0  0  0  0
    5.7594   -1.6011    0.0000 N    0  0  0  0  0  0  0  0  0  0  0  0
    5.8976   -0.2764    0.0000 C    0  0  0  0  0  0  0  0  0  0  0  0
    7.1992    0.0000    0.0000 N    0  0  0  0  0  0  0  0  0  0  0  0
    7.8673   -1.1519    0.0000 C    0  0  0  0  0  0  0  0  0  0  0  0
    6.9688   -2.1425    0.0000 C    0  0  0  0  0  0  0  0  0  0  0  0
    5.7594   -4.2619    0.0000 O    0  0  0  0  0  0  0  0  0  0  0  0
    6.9112   -3.5938    0.0000 C    0  0  0  0  0  0  0  0  0  0  0  0
    8.0631   -4.2619    0.0000 C    0  0  0  0  0  0  0  0  0  0  0  0
    9.2150   -3.5938    0.0000 C    0  0  0  0  0  0  0  0  0  0  0  0
   10.3668   -4.2619    0.0000 C    0  0  0  0  0  0  0  0  0  0  0  0
   10.3668   -5.5866    0.0000 C    0  0  0  0  0  0  0  0  0  0  0  0
   11.5187   -6.2547    0.0000 Cl   0  0  0  0  0  0  0  0  0  0  0  0
    9.2150   -6.2547    0.0000 C    0  0  0  0  0  0  0  0  0  0  0  0
    8.0631   -5.5866    0.0000 C    0  0  0  0  0  0  0  0  0  0  0  0
    6.9112   -6.2547    0.0000 Cl   0  0  0  0  0  0  0  0  0  0  0  0
    3.4556   -5.5866    0.0000 C    0  0  0  0  0  0  0  0  0  0  0  0
    2.3037   -6.2547    0.0000 C    0  0  0  0  0  0  0  0  0  0  0  0
    1.1519   -5.5866    0.0000 C    0  0  0  0  0  0  0  0  0  0  0  0
    0.0000   -6.2547    0.0000 Cl   0  0  0  0  0  0  0  0  0  0  0  0
  1  2  2  0  0  0  0
  1 24  1  0  0  0  0
  2  3  1  0  0  0  0
  2  4  1  0  0  0  0
  4  5  1  0  0  0  0
  4 22  2  0  0  0  0
  5  6  1  0  0  0  0
  5 12  1  0  0  0  0
  6  7  1  0  0  0  0
  7  8  1  0  0  0  0
  7 11  1  0  0  0  0
  8  9  2  0  0  0  0
  9 10  1  0  0  0  0
 10 11  2  0  0  0  0
 12 13  1  0  0  0  0
 13 14  1  0  0  0  0
 14 15  2  0  0  0  0
 14 20  1  0  0  0  0
 15 16  1  0  0  0  0
 16 17  2  0  0  0  0
 17 18  1  0  0  0  0
 17 19  1  0  0  0  0
 19 20  2  0  0  0  0
 20 21  1  0  0  0  0
 22 23  1  0  0  0  0
 23 24  2  0  0  0  0
 24 25  1  0  0  0  0
M  END
> <ID>
2979

> <Formula>
C18H14Cl4N2O

> <FW>
416.1286

> <DSSTox_CID>
3319

> <DSSTox_RID>
76975

> <DSSTox_GSID>
23319

> <DSSTox_FileID_Sort>
1659

> <TS_ChemName>
Miconazole

> <TS_ChemName_Synonyms>


> <TS_CASRN>
22916-47-8

> <CASRN_ChemName_Relationship>
primary

> <TS_Description>
single chemical compound

> <ChemNote>


> <STRUCTURE_Shown>
tested chemical

> <STRUCTURE_Formula>
C18H14Cl4N2O

> <STRUCTURE_MW>
416.1286

> <STRUCTURE_ChemType>
defined organic

> <STRUCTURE_DefinedOrganicForm>
parent

> <STRUCTURE_IUPAC>
1-{2-[(2,4-dichlorobenzyl)oxy]-2-(2,4-dichlorophenyl)ethyl}-1H-imidazole

> <STRUCTURE_SMILES>
Clc3ccc(C(OCc1ccc(Cl)cc1Cl)Cn2ccnc2)c(Cl)c3

> <STRUCTURE_SMILES_Desalt>
Clc3ccc(C(OCc1ccc(Cl)cc1Cl)Cn2ccnc2)c(Cl)c3

> <Substance_modify_yyyymmdd>
20080429

$$$$
