22936-75-0
ChemmineR-0915142007XD

 17 17  0  0  0  0  0  0  0  0  1 V2000
    0.0000   -3.9427    0.0000 C   0  0  0  0  0  0  0  0  0  0  0  0
    1.1413   -5.9556    0.0000 C   0  0  0  0  0  0  0  0  0  0  0  0
    2.3034   -2.6458    0.0000 C   0  0  0  0  0  0  0  0  0  0  0  0
   10.3756   -4.6587    0.0000 C   0  0  0  0  0  0  0  0  0  0  0  0
    4.5964    0.0000    0.0000 C   0  0  0  0  0  0  0  0  0  0  0  0
    1.1413   -4.6068    0.0000 C   0  0  0  0  0  0  0  0  0  0  0  0
    2.3034   -3.9739    0.0000 C   0  0  0  0  0  0  0  0  0  0  0  0
    9.2240   -3.9842    0.0000 C   0  0  0  0  0  0  0  0  0  0  0  0
    5.7481   -0.6744    0.0000 S   0  0  0  0  0  0  0  0  0  0  0  0
    8.0723   -4.6587    0.0000 N   0  0  0  0  0  0  0  0  0  0  0  0
    3.4551   -4.6379    0.0000 N   0  0  0  0  0  0  0  0  0  0  0  0
    6.8998   -2.6458    0.0000 N   0  0  0  0  0  0  0  0  0  0  0  0
    6.8998   -3.9842    0.0000 C   0  0  0  0  0  0  0  0  0  0  0  0
    5.7481   -1.9817    0.0000 C   0  0  0  0  0  0  0  0  0  0  0  0
    5.7481   -4.6587    0.0000 N   0  0  0  0  0  0  0  0  0  0  0  0
    4.6068   -2.6769    0.0000 N   0  0  0  0  0  0  0  0  0  0  0  0
    4.6068   -3.9842    0.0000 C   0  0  0  0  0  0  0  0  0  0  0  0
  1  6  1  0  0  0  0
  2  6  1  0  0  0  0
  3  7  1  0  0  0  0
  4  8  1  0  0  0  0
  5  9  1  0  0  0  0
  6  7  1  0  0  0  0
  7 11  1  0  0  0  0
  8 10  1  0  0  0  0
  9 14  1  0  0  0  0
 10 13  1  0  0  0  0
 11 17  1  0  0  0  0
 12 13  2  0  0  0  0
 12 14  1  0  0  0  0
 13 15  1  0  0  0  0
 14 16  2  0  0  0  0
 15 17  2  0  0  0  0
 16 17  1  0  0  0  0
M  END
> <ID>
8819

> <Formula>
C11H21N5S

> <FW>
255.3829

> <DSSTox_CID>
21873

> <DSSTox_RID>
79861

> <DSSTox_GSID>
41873

> <DSSTox_FileID_Sort>
4543

> <TS_ChemName>
Dimethametryn

> <TS_ChemName_Synonyms>


> <TS_CASRN>
22936-75-0

> <CASRN_ChemName_Relationship>
primary

> <TS_Description>
single chemical compound

> <ChemNote>


> <STRUCTURE_Shown>
tested chemical

> <STRUCTURE_Formula>
C11H21N5S

> <STRUCTURE_MW>
255.3829

> <STRUCTURE_ChemType>
defined organic

> <STRUCTURE_DefinedOrganicForm>
parent

> <STRUCTURE_IUPAC>
N-ethyl-N'-(3-methylbutan-2-yl)-6-(methylsulfanyl)-1,3,5-triazine-2,4-diamine

> <STRUCTURE_SMILES>
CSc1nc(NCC)nc(NC(C)C(C)C)n1

> <STRUCTURE_SMILES_Desalt>
CSc1nc(NCC)nc(NC(C)C(C)C)n1

> <Substance_modify_yyyymmdd>
20080825

$$$$
