2295-58-1
ChemmineR-0915142007XD

 13 13  0  0  0  0  0  0  0  0  1 V2000
    0.0000   -1.3273    0.0000 C   0  0  0  0  0  0  0  0  0  0  0  0
    1.1545   -1.9910    0.0000 C   0  0  0  0  0  0  0  0  0  0  0  0
    2.3021   -1.3273    0.0000 C   0  0  0  0  0  0  0  0  0  0  0  0
    2.3021    0.0000    0.0000 O   0  0  0  0  0  0  0  0  0  0  0  0
    3.4566   -1.9910    0.0000 C   0  0  0  0  0  0  0  0  0  0  0  0
    4.6111   -1.3273    0.0000 C   0  0  0  0  0  0  0  0  0  0  0  0
    4.6111    0.0000    0.0000 O   0  0  0  0  0  0  0  0  0  0  0  0
    5.7586   -1.9910    0.0000 C   0  0  0  0  0  0  0  0  0  0  0  0
    5.7586   -3.3252    0.0000 C   0  0  0  0  0  0  0  0  0  0  0  0
    6.9131   -3.9889    0.0000 O   0  0  0  0  0  0  0  0  0  0  0  0
    4.6111   -3.9889    0.0000 C   0  0  0  0  0  0  0  0  0  0  0  0
    3.4566   -3.3252    0.0000 C   0  0  0  0  0  0  0  0  0  0  0  0
    2.3021   -3.9889    0.0000 O   0  0  0  0  0  0  0  0  0  0  0  0
  1  2  1  0  0  0  0
  2  3  1  0  0  0  0
  3  4  2  0  0  0  0
  3  5  1  0  0  0  0
  5  6  2  0  0  0  0
  5 12  1  0  0  0  0
  6  7  1  0  0  0  0
  6  8  1  0  0  0  0
  8  9  2  0  0  0  0
  9 10  1  0  0  0  0
  9 11  1  0  0  0  0
 11 12  2  0  0  0  0
 12 13  1  0  0  0  0
M  END
> <ID>
11241

> <Formula>
C9H10O4

> <FW>
182.1733

> <DSSTox_CID>
25851

> <DSSTox_RID>
81173

> <DSSTox_GSID>
45851

> <DSSTox_FileID_Sort>
5854

> <TS_ChemName>
Flopropione

> <TS_ChemName_Synonyms>


> <TS_CASRN>
2295-58-1

> <CASRN_ChemName_Relationship>
primary

> <TS_Description>
single chemical compound

> <ChemNote>


> <STRUCTURE_Shown>
tested chemical

> <STRUCTURE_Formula>
C9H10O4

> <STRUCTURE_MW>
182.1733

> <STRUCTURE_ChemType>
defined organic

> <STRUCTURE_DefinedOrganicForm>
parent

> <STRUCTURE_IUPAC>
1-(2,4,6-trihydroxyphenyl)propan-1-one

> <STRUCTURE_SMILES>
O=C(CC)c1c(O)cc(O)cc1O

> <STRUCTURE_SMILES_Desalt>
O=C(CC)c1c(O)cc(O)cc1O

> <Substance_modify_yyyymmdd>
20110922

$$$$
