22978-25-2
ChemmineR-0915142007XD

 19 20  0  0  0  0  0  0  0  0  2 V2000
    4.5990   -2.6620    0.0000 C    0  0  0  0  0  0  0  0  0  0  0  0
    4.5990   -3.9878    0.0000 C    0  0  0  0  0  0  0  0  0  0  0  0
    3.4492   -1.9887    0.0000 C    0  0  0  0  0  0  0  0  0  0  0  0
    3.4492   -4.6508    0.0000 C    0  0  0  0  0  0  0  0  0  0  0  0
    2.2995   -2.6620    0.0000 C    0  0  0  0  0  0  0  0  0  0  0  0
    2.2995   -3.9878    0.0000 C    0  0  0  0  0  0  0  0  0  0  0  0
    1.1497   -1.9887    0.0000 N    0  3  0  0  0  0  0  0  0  0  0  0
    1.1497   -0.6629    0.0000 O    0  0  0  0  0  0  0  0  0  0  0  0
    0.0000   -2.6620    0.0000 O    0  5  0  0  0  0  0  0  0  0  0  0
    5.7591   -4.6508    0.0000 Cl   0  0  0  0  0  0  0  0  0  0  0  0
    5.7591   -1.9887    0.0000 C    0  0  0  0  0  0  0  0  0  0  0  0
    6.9088   -2.6620    0.0000 N    0  0  0  0  0  0  0  0  0  0  0  0
    5.7591   -0.6629    0.0000 O    0  0  0  0  0  0  0  0  0  0  0  0
   10.3580   -0.6629    0.0000 C    0  0  0  0  0  0  0  0  0  0  0  0
   10.3580   -1.9887    0.0000 C    0  0  0  0  0  0  0  0  0  0  0  0
    9.2083    0.0000    0.0000 C    0  0  0  0  0  0  0  0  0  0  0  0
    9.2083   -2.6620    0.0000 C    0  0  0  0  0  0  0  0  0  0  0  0
    8.0585   -0.6629    0.0000 C    0  0  0  0  0  0  0  0  0  0  0  0
    8.0585   -1.9887    0.0000 C    0  0  0  0  0  0  0  0  0  0  0  0
  1  2  1  0  0  0  0
  1  3  2  0  0  0  0
  1 11  1  0  0  0  0
  2  4  2  0  0  0  0
  2 10  1  0  0  0  0
  3  5  1  0  0  0  0
  4  6  1  0  0  0  0
  5  6  2  0  0  0  0
  5  7  1  0  0  0  0
  7  8  2  0  0  0  0
  7  9  1  0  0  0  0
 11 12  1  0  0  0  0
 11 13  2  0  0  0  0
 12 19  1  0  0  0  0
 14 15  1  0  0  0  0
 14 16  2  0  0  0  0
 15 17  2  0  0  0  0
 16 18  1  0  0  0  0
 17 19  1  0  0  0  0
 18 19  2  0  0  0  0
M  END
> <ID>
7919

> <Formula>
C13H9ClN2O3

> <FW>
276.6752

> <DSSTox_CID>
20723

> <DSSTox_RID>
79570

> <DSSTox_GSID>
40723

> <DSSTox_FileID_Sort>
4252

> <TS_ChemName>
2-Chloro-5-nitro-N-phenylbenzamide

> <TS_ChemName_Synonyms>
GW9662

> <TS_CASRN>
22978-25-2

> <CASRN_ChemName_Relationship>
primary

> <TS_Description>
single chemical compound

> <ChemNote>


> <STRUCTURE_Shown>
tested chemical

> <STRUCTURE_Formula>
C13H9ClN2O3

> <STRUCTURE_MW>
276.6752

> <STRUCTURE_ChemType>
defined organic

> <STRUCTURE_DefinedOrganicForm>
parent

> <STRUCTURE_IUPAC>
2-chloro-5-nitro-N-phenylbenzamide

> <STRUCTURE_SMILES>
O=C(Nc1ccccc1)c2cc(ccc2Cl)[N+]([O-])=O

> <STRUCTURE_SMILES_Desalt>
O=C(Nc1ccccc1)c2cc(ccc2Cl)[N+]([O-])=O

> <Substance_modify_yyyymmdd>
20080429

$$$$
