22987-10-6
ChemmineR-0915142007XD

 12 12  0  0  0  0  0  0  0  0  1 V2000
    3.4602   -0.6695    0.0000 C   0  0  0  0  0  0  0  0  0  0  0  0
    3.4602   -2.0003    0.0000 C   0  0  0  0  0  0  0  0  0  0  0  0
    2.3068    0.0000    0.0000 C   0  0  0  0  0  0  0  0  0  0  0  0
    2.3068   -2.6617    0.0000 C   0  0  0  0  0  0  0  0  0  0  0  0
    1.1534   -0.6695    0.0000 C   0  0  0  0  0  0  0  0  0  0  0  0
    1.1534   -2.0003    0.0000 C   0  0  0  0  0  0  0  0  0  0  0  0
    0.0000   -2.6617    0.0000 N   0  0  0  0  0  0  0  0  0  0  0  0
    4.6217   -2.6617    0.0000 N   0  0  0  0  0  0  0  0  0  0  0  0
    5.7751   -2.0003    0.0000 C   0  0  0  0  0  0  0  0  0  0  0  0
    6.9286   -2.6617    0.0000 C   0  0  0  0  0  0  0  0  0  0  0  0
    5.7751   -0.6695    0.0000 O   0  0  0  0  0  0  0  0  0  0  0  0
    8.0658   -2.0003    0.0000 C   0  0  0  0  0  0  0  0  0  0  0  0
  1  2  1  0  0  0  0
  1  3  2  0  0  0  0
  2  4  2  0  0  0  0
  2  8  1  0  0  0  0
  3  5  1  0  0  0  0
  4  6  1  0  0  0  0
  5  6  2  0  0  0  0
  6  7  1  0  0  0  0
  8  9  1  0  0  0  0
  9 10  1  0  0  0  0
  9 11  2  0  0  0  0
 10 12  1  0  0  0  0
M  END
> <ID>
10524

> <Formula>
C9H12N2O

> <FW>
164.2044

> <DSSTox_CID>
24877

> <DSSTox_RID>
80551

> <DSSTox_GSID>
44877

> <DSSTox_FileID_Sort>
5233

> <TS_ChemName>
N-(3-Aminophenyl)propanamide

> <TS_ChemName_Synonyms>
N-(3-Aminophenyl)propanamide (Propanamide, N-(3-aminophenyl)-)

> <TS_CASRN>
22987-10-6

> <CASRN_ChemName_Relationship>
primary

> <TS_Description>
single chemical compound

> <ChemNote>


> <STRUCTURE_Shown>
tested chemical

> <STRUCTURE_Formula>
C9H12N2O

> <STRUCTURE_MW>
164.2044

> <STRUCTURE_ChemType>
defined organic

> <STRUCTURE_DefinedOrganicForm>
parent

> <STRUCTURE_IUPAC>
N-(3-aminophenyl)propanamide

> <STRUCTURE_SMILES>
O=C(Nc1cccc(N)c1)CC

> <STRUCTURE_SMILES_Desalt>
O=C(Nc1cccc(N)c1)CC

> <Substance_modify_yyyymmdd>
20091116

$$$$
