22984-54-9
ChemmineR-0915142007XD

 20 19  0  0  0  0  0  0  0  0  1 V2000
    5.3152   -5.3152    0.0000 Si   0  0  0  0  0  0  0  0  0  0  0  0
    3.9864   -5.3152    0.0000 O    0  0  0  0  0  0  0  0  0  0  0  0
    6.6440   -5.3152    0.0000 O    0  0  0  0  0  0  0  0  0  0  0  0
    5.3152   -3.9864    0.0000 O    0  0  0  0  0  0  0  0  0  0  0  0
    5.3152   -6.6440    0.0000 C    0  0  0  0  0  0  0  0  0  0  0  0
    3.3167   -6.4633    0.0000 N    0  0  0  0  0  0  0  0  0  0  0  0
    7.3031   -4.1459    0.0000 N    0  0  0  0  0  0  0  0  0  0  0  0
    4.1459   -3.3061    0.0000 N    0  0  0  0  0  0  0  0  0  0  0  0
    1.3182   -5.3152    0.0000 C    0  0  0  0  0  0  0  0  0  0  0  0
    1.9879   -6.4633    0.0000 C    0  0  0  0  0  0  0  0  0  0  0  0
    1.3288   -7.6114    0.0000 C    0  0  0  0  0  0  0  0  0  0  0  0
    0.0000   -7.6114    0.0000 C    0  0  0  0  0  0  0  0  0  0  0  0
    5.3046   -1.3288    0.0000 C    0  0  0  0  0  0  0  0  0  0  0  0
    4.1459   -1.9773    0.0000 C    0  0  0  0  0  0  0  0  0  0  0  0
    2.9978   -1.3288    0.0000 C    0  0  0  0  0  0  0  0  0  0  0  0
    2.9978    0.0000    0.0000 C    0  0  0  0  0  0  0  0  0  0  0  0
    9.3016   -2.9978    0.0000 C    0  0  0  0  0  0  0  0  0  0  0  0
   10.6304   -2.9978    0.0000 C    0  0  0  0  0  0  0  0  0  0  0  0
    8.6319   -4.1459    0.0000 C    0  0  0  0  0  0  0  0  0  0  0  0
    9.3016   -5.2940    0.0000 C    0  0  0  0  0  0  0  0  0  0  0  0
  1  2  1  0  0  0  0
  1  3  1  0  0  0  0
  1  4  1  0  0  0  0
  1  5  1  0  0  0  0
  2  6  1  0  0  0  0
  3  7  1  0  0  0  0
  4  8  1  0  0  0  0
  6 10  2  0  0  0  0
  7 19  2  0  0  0  0
  8 14  2  0  0  0  0
  9 10  1  0  0  0  0
 10 11  1  0  0  0  0
 11 12  1  0  0  0  0
 13 14  1  0  0  0  0
 14 15  1  0  0  0  0
 15 16  1  0  0  0  0
 17 18  1  0  0  0  0
 17 19  1  0  0  0  0
 19 20  1  0  0  0  0
M  END
> <ID>
5428

> <Formula>
C13H27N3O3Si

> <FW>
301.4573

> <DSSTox_CID>
7823

> <DSSTox_RID>
78578

> <DSSTox_GSID>
27823

> <DSSTox_FileID_Sort>
3261

> <TS_ChemName>
2-Butanone, O,O',O''-(methylsilylidyne)trioxime

> <TS_ChemName_Synonyms>
Butan-2-one O,O',O''-(methylsilanetriyl)oxime

> <TS_CASRN>
22984-54-9

> <CASRN_ChemName_Relationship>
primary

> <TS_Description>
single chemical compound

> <ChemNote>


> <STRUCTURE_Shown>
tested chemical

> <STRUCTURE_Formula>
C13H27N3O3Si

> <STRUCTURE_MW>
301.4573

> <STRUCTURE_ChemType>
organometallic

> <STRUCTURE_DefinedOrganicForm>


> <STRUCTURE_IUPAC>
(2E,2'E,2''E)-N,N',N''-[(methylsilanetriyl)tris(oxy)]tributan-2-imine

> <STRUCTURE_SMILES>
CCC(\C)=N\O[Si](C)(O\N=C(/C)CC)O\N=C(/C)CC

> <STRUCTURE_SMILES_Desalt>
CCC(\C)=N\O[Si](C)(O\N=C(/C)CC)O\N=C(/C)CC

> <Substance_modify_yyyymmdd>
20080429

$$$$
