22994-85-0
ChemmineR-0915142007XD

 19 20  0  0  0  0  0  0  0  0  2 V2000
    9.2168   -2.1164    0.0000 C   0  0  0  0  0  0  0  0  0  0  0  0
    9.3650   -3.4497    0.0000 N   0  3  0  0  0  0  0  0  0  0  0  0
    8.0846   -1.4603    0.0000 N   0  0  0  0  0  0  0  0  0  0  0  0
   10.2115   -1.2381    0.0000 N   0  0  0  0  0  0  0  0  0  0  0  0
    6.9311   -2.1164    0.0000 C   0  0  0  0  0  0  0  0  0  0  0  0
    5.7883   -1.4603    0.0000 C   0  0  0  0  0  0  0  0  0  0  0  0
    9.6507    0.0000    0.0000 C   0  0  0  0  0  0  0  0  0  0  0  0
    8.3491   -0.1587    0.0000 C   0  0  0  0  0  0  0  0  0  0  0  0
    8.2856   -4.2328    0.0000 O   0  5  0  0  0  0  0  0  0  0  0  0
   10.5819   -3.9788    0.0000 O   0  0  0  0  0  0  0  0  0  0  0  0
    4.6349   -2.1164    0.0000 N   0  0  0  0  0  0  0  0  0  0  0  0
    5.7883   -0.1270    0.0000 O   0  0  0  0  0  0  0  0  0  0  0  0
    3.4603   -1.4603    0.0000 C   0  0  0  0  0  0  0  0  0  0  0  0
    2.2963   -2.1375    0.0000 C   0  0  0  0  0  0  0  0  0  0  0  0
    1.1534   -1.4709    0.0000 C   0  0  0  0  0  0  0  0  0  0  0  0
    2.2963   -3.4603    0.0000 C   0  0  0  0  0  0  0  0  0  0  0  0
    1.1534   -4.1375    0.0000 C   0  0  0  0  0  0  0  0  0  0  0  0
    0.0000   -2.1375    0.0000 C   0  0  0  0  0  0  0  0  0  0  0  0
    0.0000   -3.4603    0.0000 C   0  0  0  0  0  0  0  0  0  0  0  0
  1  2  1  0  0  0  0
  1  3  1  0  0  0  0
  1  4  2  0  0  0  0
  2  9  1  0  0  0  0
  2 10  2  0  0  0  0
  3  5  1  0  0  0  0
  3  8  1  0  0  0  0
  4  7  1  0  0  0  0
  5  6  1  0  0  0  0
  6 11  1  0  0  0  0
  6 12  2  0  0  0  0
  7  8  2  0  0  0  0
 11 13  1  0  0  0  0
 13 14  1  0  0  0  0
 14 15  1  0  0  0  0
 14 16  2  0  0  0  0
 15 18  2  0  0  0  0
 16 17  1  0  0  0  0
 17 19  2  0  0  0  0
 18 19  1  0  0  0  0
M  END
> <ID>
11795

> <Formula>
C12H12N4O3

> <FW>
260.2487

> <DSSTox_CID>
26570

> <DSSTox_RID>
81729

> <DSSTox_GSID>
46570

> <DSSTox_FileID_Sort>
6410

> <TS_ChemName>
Benznidazole

> <TS_ChemName_Synonyms>


> <TS_CASRN>
22994-85-0

> <CASRN_ChemName_Relationship>
primary

> <TS_Description>
single chemical compound

> <ChemNote>


> <STRUCTURE_Shown>
tested chemical

> <STRUCTURE_Formula>
C12H12N4O3

> <STRUCTURE_MW>
260.2487

> <STRUCTURE_ChemType>
defined organic

> <STRUCTURE_DefinedOrganicForm>
parent

> <STRUCTURE_IUPAC>
N-benzyl-2-(2-nitro-1H-imidazol-1-yl)acetamide

> <STRUCTURE_SMILES>
O=C(Cn1ccnc1[N+]([O-])=O)NCc2ccccc2

> <STRUCTURE_SMILES_Desalt>
O=C(Cn1ccnc1[N+]([O-])=O)NCc2ccccc2

> <Substance_modify_yyyymmdd>
20110810

$$$$
