23031-32-5
ChemmineR-0915142007XD

 37 36  0  0  0  0  0  0  0  0  1 V2000
    7.3888   -2.1757    0.0000 C   0  0  0  0  0  0  0  0  0  0  0  0
    8.0781   -3.3389    0.0000 C   0  0  0  0  0  0  0  0  0  0  0  0
    9.2198   -2.6712    0.0000 C   0  0  0  0  0  0  0  0  0  0  0  0
    8.7243   -4.4807    0.0000 C   0  0  0  0  0  0  0  0  0  0  0  0
    6.9149   -3.9852    0.0000 N   0  0  0  0  0  0  0  0  0  0  0  0
    5.7516   -3.3389    0.0000 C   0  0  0  0  0  0  0  0  0  0  0  0
    4.6099   -3.9852    0.0000 C   0  0  0  0  0  0  0  0  0  0  0  0
    4.6099   -5.3208    0.0000 O   0  0  0  0  0  0  0  0  0  0  0  0
    3.4467   -3.3389    0.0000 C   0  0  0  0  0  0  0  0  0  0  0  0
    2.3050   -3.9852    0.0000 C   0  0  0  0  0  0  0  0  0  0  0  0
    1.1632   -3.3389    0.0000 C   0  0  0  0  0  0  0  0  0  0  0  0
    1.1632   -2.0034    0.0000 C   0  0  0  0  0  0  0  0  0  0  0  0
    2.3050   -1.3356    0.0000 C   0  0  0  0  0  0  0  0  0  0  0  0
    3.4467   -2.0034    0.0000 C   0  0  0  0  0  0  0  0  0  0  0  0
    2.3050    0.0000    0.0000 O   0  0  0  0  0  0  0  0  0  0  0  0
    0.0000   -3.9852    0.0000 O   0  0  0  0  0  0  0  0  0  0  0  0
   10.7923   -6.7425    0.0000 S   0  0  0  0  0  0  0  0  0  0  0  0
   12.1279   -6.7425    0.0000 O   0  0  0  0  0  0  0  0  0  0  0  0
    9.4568   -6.7425    0.0000 O   0  0  0  0  0  0  0  0  0  0  0  0
   10.7923   -8.0781    0.0000 O   0  0  0  0  0  0  0  0  0  0  0  0
   10.7923   -5.4069    0.0000 O   0  0  0  0  0  0  0  0  0  0  0  0
   19.7321   -2.7142    0.0000 C   0  0  0  0  0  0  0  0  0  0  0  0
   20.3999   -3.8775    0.0000 C   0  0  0  0  0  0  0  0  0  0  0  0
   21.5416   -3.2097    0.0000 C   0  0  0  0  0  0  0  0  0  0  0  0
   21.0677   -5.0192    0.0000 C   0  0  0  0  0  0  0  0  0  0  0  0
   19.2367   -4.5453    0.0000 N   0  0  0  0  0  0  0  0  0  0  0  0
   18.0949   -3.8775    0.0000 C   0  0  0  0  0  0  0  0  0  0  0  0
   16.9532   -4.5453    0.0000 C   0  0  0  0  0  0  0  0  0  0  0  0
   16.9532   -5.8809    0.0000 O   0  0  0  0  0  0  0  0  0  0  0  0
   15.7900   -3.8775    0.0000 C   0  0  0  0  0  0  0  0  0  0  0  0
   14.6267   -4.5453    0.0000 C   0  0  0  0  0  0  0  0  0  0  0  0
   13.4850   -3.8775    0.0000 C   0  0  0  0  0  0  0  0  0  0  0  0
   13.4850   -2.5419    0.0000 C   0  0  0  0  0  0  0  0  0  0  0  0
   14.6267   -1.8957    0.0000 C   0  0  0  0  0  0  0  0  0  0  0  0
   15.7900   -2.5419    0.0000 C   0  0  0  0  0  0  0  0  0  0  0  0
   14.6267   -0.5601    0.0000 O   0  0  0  0  0  0  0  0  0  0  0  0
   12.3218   -4.5453    0.0000 O   0  0  0  0  0  0  0  0  0  0  0  0
  1  2  1  0  0  0  0
  2  3  1  0  0  0  0
  2  4  1  0  0  0  0
  2  5  1  0  0  0  0
  5  6  1  0  0  0  0
  6  7  1  0  0  0  0
  7  8  1  0  0  0  0
  7  9  1  0  0  0  0
  9 10  2  0  0  0  0
  9 14  1  0  0  0  0
 10 11  1  0  0  0  0
 11 12  2  0  0  0  0
 11 16  1  0  0  0  0
 12 13  1  0  0  0  0
 13 14  2  0  0  0  0
 13 15  1  0  0  0  0
 17 18  2  0  0  0  0
 17 19  2  0  0  0  0
 17 20  1  0  0  0  0
 17 21  1  0  0  0  0
 22 23  1  0  0  0  0
 23 24  1  0  0  0  0
 23 25  1  0  0  0  0
 23 26  1  0  0  0  0
 26 27  1  0  0  0  0
 27 28  1  0  0  0  0
 28 29  1  0  0  0  0
 28 30  1  0  0  0  0
 30 31  2  0  0  0  0
 30 35  1  0  0  0  0
 31 32  1  0  0  0  0
 32 33  2  0  0  0  0
 32 37  1  0  0  0  0
 33 34  1  0  0  0  0
 34 35  2  0  0  0  0
 34 36  1  0  0  0  0
M  END
> <ID>
10946

> <Formula>
C24H40N2O10S

> <FW>
548.6468 (225.2842+98.0785+225.2842)

> <DSSTox_CID>
25437

> <DSSTox_RID>
80878

> <DSSTox_GSID>
45437

> <DSSTox_FileID_Sort>
5559

> <TS_ChemName>
Terbutaline hemisulfate

> <TS_ChemName_Synonyms>


> <TS_CASRN>
23031-32-5

> <CASRN_ChemName_Relationship>
primary

> <TS_Description>
single chemical compound

> <ChemNote>
parent [23031-25-6]

> <STRUCTURE_Shown>
tested chemical

> <STRUCTURE_Formula>
C24H40N2O10S

> <STRUCTURE_MW>
548.6468

> <STRUCTURE_ChemType>
defined organic

> <STRUCTURE_DefinedOrganicForm>
complex

> <STRUCTURE_IUPAC>
5-[2-(tert-butylamino)-1-hydroxyethyl]benzene-1,3-diol sulfate (2:1)

> <STRUCTURE_SMILES>
Oc1cc(cc(O)c1)C(O)CNC(C)(C)C.O=S(=O)(O)O.CC(C)(C)NCC(O)c1cc(O)cc(O)c1

> <STRUCTURE_SMILES_Desalt>
Oc1cc(cc(O)c1)C(O)CNC(C)(C)C

> <Substance_modify_yyyymmdd>
20100107

$$$$
