2304-30-5
ChemmineR-0915142007XD

 18 16  0  0  0  0  0  0  0  0  2 V2000
    4.6218   -4.6218    0.0000 P    0  3  0  0  0  0  0  0  0  0  0  0
    3.9471   -5.7773    0.0000 C    0  0  0  0  0  0  0  0  0  0  0  0
    4.6218   -6.9328    0.0000 C    0  0  0  0  0  0  0  0  0  0  0  0
    3.9655   -8.0882    0.0000 C    0  0  0  0  0  0  0  0  0  0  0  0
    4.6218   -9.2437    0.0000 C    0  0  0  0  0  0  0  0  0  0  0  0
    3.4849   -3.9655    0.0000 C    0  0  0  0  0  0  0  0  0  0  0  0
    2.3109   -4.6218    0.0000 C    0  0  0  0  0  0  0  0  0  0  0  0
    1.1555   -3.9655    0.0000 C    0  0  0  0  0  0  0  0  0  0  0  0
    0.0000   -4.6218    0.0000 C    0  0  0  0  0  0  0  0  0  0  0  0
    5.7773   -5.2781    0.0000 C    0  0  0  0  0  0  0  0  0  0  0  0
    6.9328   -4.6218    0.0000 C    0  0  0  0  0  0  0  0  0  0  0  0
    8.0882   -5.2781    0.0000 C    0  0  0  0  0  0  0  0  0  0  0  0
    9.2437   -4.6218    0.0000 C    0  0  0  0  0  0  0  0  0  0  0  0
    5.2781   -3.4664    0.0000 C    0  0  0  0  0  0  0  0  0  0  0  0
    4.6218   -2.3109    0.0000 C    0  0  0  0  0  0  0  0  0  0  0  0
    5.2781   -1.1555    0.0000 C    0  0  0  0  0  0  0  0  0  0  0  0
    4.6218    0.0000    0.0000 C    0  0  0  0  0  0  0  0  0  0  0  0
    7.5891   -2.5697    0.0000 Cl   0  5  0  0  0  0  0  0  0  0  0  0
  1  2  1  0  0  0  0
  1  6  1  0  0  0  0
  1 10  1  0  0  0  0
  1 14  1  0  0  0  0
  2  3  1  0  0  0  0
  3  4  1  0  0  0  0
  4  5  1  0  0  0  0
  6  7  1  0  0  0  0
  7  8  1  0  0  0  0
  8  9  1  0  0  0  0
 10 11  1  0  0  0  0
 11 12  1  0  0  0  0
 12 13  1  0  0  0  0
 14 15  1  0  0  0  0
 15 16  1  0  0  0  0
 16 17  1  0  0  0  0
M  END
> <ID>
10270

> <Formula>
C16H36ClP

> <FW>
294.8838 (259.4303+35.4535)

> <DSSTox_CID>
24616

> <DSSTox_RID>
80351

> <DSSTox_GSID>
44616

> <DSSTox_FileID_Sort>
5033

> <TS_ChemName>
Tetrabutylphosphonium chloride

> <TS_ChemName_Synonyms>
Tetrabutylphosphonium chloride (Phosphonium, tetrabutyl-, chloride)

> <TS_CASRN>
2304-30-5

> <CASRN_ChemName_Relationship>
primary

> <TS_Description>
single chemical compound

> <ChemNote>
parent [15853-37-9]

> <STRUCTURE_Shown>
tested chemical

> <STRUCTURE_Formula>
C16H36ClP

> <STRUCTURE_MW>
294.8838

> <STRUCTURE_ChemType>
defined organic

> <STRUCTURE_DefinedOrganicForm>
salt

> <STRUCTURE_IUPAC>
tetrabutylphosphonium chloride

> <STRUCTURE_SMILES>
[Cl-].CCCC[P+](CCCC)(CCCC)CCCC

> <STRUCTURE_SMILES_Desalt>
CCCC[P+](CCCC)(CCCC)CCCC

> <Substance_modify_yyyymmdd>
20091116

$$$$
