2305-05-7
ChemmineR-0915142007XD

 14 14  0  0  0  0  0  0  0  0  1 V2000
    2.3402    0.0000    0.0000 O   0  0  0  0  0  0  0  0  0  0  0  0
    3.4232   -0.7718    0.0000 C   0  0  0  0  0  0  0  0  0  0  0  0
    2.9999   -2.0415    0.0000 C   0  0  0  0  0  0  0  0  0  0  0  0
    1.6680   -2.0415    0.0000 C   0  0  0  0  0  0  0  0  0  0  0  0
    1.2572   -0.7718    0.0000 C   0  0  0  0  0  0  0  0  0  0  0  0
    0.0000   -0.3734    0.0000 O   0  0  0  0  0  0  0  0  0  0  0  0
    4.6929   -0.3734    0.0000 C   0  0  0  0  0  0  0  0  0  0  0  0
    5.6638   -1.2572    0.0000 C   0  0  0  0  0  0  0  0  0  0  0  0
    6.9335   -0.8589    0.0000 C   0  0  0  0  0  0  0  0  0  0  0  0
    7.9293   -1.7427    0.0000 C   0  0  0  0  0  0  0  0  0  0  0  0
    9.1990   -1.3319    0.0000 C   0  0  0  0  0  0  0  0  0  0  0  0
   10.1948   -2.2157    0.0000 C   0  0  0  0  0  0  0  0  0  0  0  0
   11.4645   -1.8049    0.0000 C   0  0  0  0  0  0  0  0  0  0  0  0
   12.4479   -2.7012    0.0000 C   0  0  0  0  0  0  0  0  0  0  0  0
  1  2  1  0  0  0  0
  1  5  1  0  0  0  0
  2  3  1  0  0  0  0
  2  7  1  0  0  0  0
  3  4  1  0  0  0  0
  4  5  1  0  0  0  0
  5  6  2  0  0  0  0
  7  8  1  0  0  0  0
  8  9  1  0  0  0  0
  9 10  1  0  0  0  0
 10 11  1  0  0  0  0
 11 12  1  0  0  0  0
 12 13  1  0  0  0  0
 13 14  1  0  0  0  0
M  END
> <ID>
12337

> <Formula>
C12H22O2

> <FW>
198.3019

> <DSSTox_CID>
27190

> <DSSTox_RID>
82186

> <DSSTox_GSID>
47190

> <DSSTox_FileID_Sort>
6867

> <TS_ChemName>
gamma-Dodecalactone

> <TS_ChemName_Synonyms>


> <TS_CASRN>
2305-05-7

> <CASRN_ChemName_Relationship>
primary

> <TS_Description>
single chemical compound

> <ChemNote>


> <STRUCTURE_Shown>
tested chemical

> <STRUCTURE_Formula>
C12H22O2

> <STRUCTURE_MW>
198.3019

> <STRUCTURE_ChemType>
defined organic

> <STRUCTURE_DefinedOrganicForm>
parent

> <STRUCTURE_IUPAC>
5-octyldihydrofuran-2(3H)-one

> <STRUCTURE_SMILES>
O=C1CCC(CCCCCCCC)O1

> <STRUCTURE_SMILES_Desalt>
O=C1CCC(CCCCCCCC)O1

> <Substance_modify_yyyymmdd>
20100503

$$$$
