230615-23-3
ChemmineR-0915142007XD

 17 19  0  0  0  0  0  0  0  0  1 V2000
    6.1776   -2.7391    0.0000 N    0  0  0  0  0  0  0  0  0  0  0  0
    7.2849   -2.0835    0.0000 C    0  0  0  0  0  0  0  0  0  0  0  0
    7.2849   -0.7941    0.0000 C    0  0  0  0  0  0  0  0  0  0  0  0
    6.1776   -0.1530    0.0000 N    0  0  0  0  0  0  0  0  0  0  0  0
    5.0557   -0.7941    0.0000 C    0  0  0  0  0  0  0  0  0  0  0  0
    5.0557   -2.0835    0.0000 C    0  0  0  0  0  0  0  0  0  0  0  0
    3.9411   -2.7391    0.0000 C    0  0  0  0  0  0  0  0  0  0  0  0
    2.8193   -2.0835    0.0000 C    0  0  0  0  0  0  0  0  0  0  0  0
    2.8193   -0.7941    0.0000 C    0  0  0  0  0  0  0  0  0  0  0  0
    1.8067    0.0000    0.0000 C    0  0  0  0  0  0  0  0  0  0  0  0
    0.5609   -0.2841    0.0000 C    0  0  0  0  0  0  0  0  0  0  0  0
    0.0000   -1.4497    0.0000 N    0  0  0  0  0  0  0  0  0  0  0  0
    0.5609   -2.6153    0.0000 C    0  0  0  0  0  0  0  0  0  0  0  0
    1.8067   -2.8921    0.0000 C    0  0  0  0  0  0  0  0  0  0  0  0
    0.9616   -1.4497    0.0000 C    0  0  0  0  0  0  0  0  0  0  0  0
    3.9411   -0.1530    0.0000 C    0  0  0  0  0  0  0  0  0  0  0  0
    1.1364   -3.7517    0.0000 Cl   0  0  0  0  0  0  0  0  0  0  0  0
  1  2  2  0  0  0  0
  1  6  1  0  0  0  0
  2  3  1  0  0  0  0
  3  4  2  0  0  0  0
  4  5  1  0  0  0  0
  5  6  2  0  0  0  0
  5 16  1  0  0  0  0
  6  7  1  0  0  0  0
  7  8  2  0  0  0  0
  8  9  1  0  0  0  0
  8 14  1  0  0  0  0
  9 10  1  0  0  0  0
  9 16  2  0  0  0  0
 10 11  1  0  0  0  0
 10 15  1  0  0  0  0
 11 12  1  0  0  0  0
 12 13  1  0  0  0  0
 13 14  1  0  0  0  0
 14 15  1  0  0  0  0
M  END
> <ID>
13930

> <Formula>
C13H14ClN3

> <FW>
247.7234 (211.2624+36.4609)

> <DSSTox_CID>
28867

> <DSSTox_RID>
83136

> <DSSTox_GSID>
48941

> <DSSTox_FileID_Sort>
7813

> <TS_ChemName>
Varenicline dihydrochloride

> <TS_ChemName_Synonyms>


> <TS_CASRN>
230615-23-3

> <CASRN_ChemName_Relationship>
primary

> <TS_Description>
single chemical compound

> <ChemNote>


> <STRUCTURE_Shown>
tested chemical

> <STRUCTURE_Formula>
C13H14ClN3

> <STRUCTURE_MW>
247.7234

> <STRUCTURE_ChemType>
defined organic

> <STRUCTURE_DefinedOrganicForm>
complex

> <STRUCTURE_IUPAC>
7,8,9,10-tetrahydro-6H-6,10-methanoazepino[4,5-g]quinoxaline hydrochloride (1:1)

> <STRUCTURE_SMILES>
Cl.c1c4c(cc2nccnc12)C3CC4CNC3

> <STRUCTURE_SMILES_Desalt>
c1c4c(cc2nccnc12)C3CC4CNC3

> <Substance_modify_yyyymmdd>
20111204

$$$$
