23089-26-1
ChemmineR-0915142007XD

 17 17  0  0  1  0  0  0  0  0  1 V2000
    3.4729   -2.0155    0.0000 C   0  0  0  0  0  0  0  0  0  0  0  0
    4.5892   -1.3437    0.0000 C   0  0  0  0  0  0  0  0  0  0  0  0
    2.3049   -1.3437    0.0000 C   0  0  0  0  0  0  0  0  0  0  0  0
    3.4729   -3.3489    0.0000 C   0  0  0  0  0  0  0  0  0  0  0  0
    5.7468   -2.0155    0.0000 C   0  0  0  0  0  0  0  0  0  0  0  0
    1.1680   -2.0155    0.0000 C   0  0  0  0  0  0  0  0  0  0  0  0
    2.3049   -4.0000    0.0000 C   0  0  0  0  0  0  0  0  0  0  0  0
    6.8941   -1.3437    0.0000 C   0  0  0  0  0  0  0  0  0  0  0  0
    1.1680   -3.3489    0.0000 C   0  0  0  0  0  0  0  0  0  0  0  0
    8.0518   -2.0155    0.0000 C   0  0  0  0  0  0  0  0  0  0  0  0
    0.0000   -4.0000    0.0000 C   0  0  0  0  0  0  0  0  0  0  0  0
    9.1887   -1.3437    0.0000 C   0  0  0  0  0  0  0  0  0  0  0  0
   10.3360   -2.0155    0.0000 C   0  0  0  0  0  0  0  0  0  0  0  0
    9.1887    0.0000    0.0000 C   0  0  0  0  0  0  0  0  0  0  0  0
    3.9380   -0.1757    0.0000 C   0  0  0  0  0  0  0  0  0  0  0  0
    5.2610   -0.1964    0.0000 O   0  0  0  0  0  0  0  0  0  0  0  0
    4.6099   -2.6874    0.0000 H   0  0  0  0  0  0  0  0  0  0  0  0
  1  2  1  0  0  0  0
  1  3  1  0  0  0  0
  1  4  1  0  0  0  0
  1 17  1  1  0  0  0
  2  5  1  0  0  0  0
  2 15  1  0  0  0  0
  2 16  1  1  0  0  0
  3  6  1  0  0  0  0
  4  7  1  0  0  0  0
  5  8  1  0  0  0  0
  6  9  1  0  0  0  0
  7  9  2  0  0  0  0
  8 10  1  0  0  0  0
  9 11  1  0  0  0  0
 10 12  2  0  0  0  0
 12 13  1  0  0  0  0
 12 14  1  0  0  0  0
M  END
> <ID>
9026

> <Formula>
C15H26O

> <FW>
222.3663

> <DSSTox_CID>
22094

> <DSSTox_RID>
79924

> <DSSTox_GSID>
42094

> <DSSTox_FileID_Sort>
4606

> <TS_ChemName>
Levomenol

> <TS_ChemName_Synonyms>
Levomenol ((-)-alpha-Bisabolol)

> <TS_CASRN>
23089-26-1

> <CASRN_ChemName_Relationship>
primary

> <TS_Description>
single chemical compound

> <ChemNote>
stereochem

> <STRUCTURE_Shown>
tested chemical

> <STRUCTURE_Formula>
C15H26O

> <STRUCTURE_MW>
222.3663

> <STRUCTURE_ChemType>
defined organic

> <STRUCTURE_DefinedOrganicForm>
parent

> <STRUCTURE_IUPAC>
(2S)-6-methyl-2-[(1S)-4-methylcyclohex-3-en-1-yl]hept-5-en-2-ol

> <STRUCTURE_SMILES>
CC1=CC[C@H](CC1)[C@](O)(C)CC\C=C(/C)C

> <STRUCTURE_SMILES_Desalt>
CC1=CC[C@H](CC1)[C@](O)(C)CC\C=C(/C)C

> <Substance_modify_yyyymmdd>
20080825

$$$$
