230954-09-3
ChemmineR-0915142007XD

 28 30  0  0  0  0  0  0  0  0  1 V2000
    2.6674   -5.7520    0.0000 C   0  0  0  0  0  0  0  0  0  0  0  0
    3.3248   -4.6016    0.0000 N   0  0  0  0  0  0  0  0  0  0  0  0
    3.8178   -6.4093    0.0000 C   0  0  0  0  0  0  0  0  0  0  0  0
    1.5044   -6.4093    0.0000 C   0  0  0  0  0  0  0  0  0  0  0  0
    1.9847   -4.6016    0.0000 C   0  0  0  0  0  0  0  0  0  0  0  0
    4.6521   -4.6016    0.0000 S   0  0  0  0  0  0  0  0  0  0  0  0
    3.8178   -7.7494    0.0000 C   0  0  0  0  0  0  0  0  0  0  0  0
    1.5044   -7.7494    0.0000 C   0  0  0  0  0  0  0  0  0  0  0  0
    0.6574   -4.6016    0.0000 N   0  0  0  0  0  0  0  0  0  0  0  0
    2.6674   -3.4638    0.0000 O   0  0  0  0  0  0  0  0  0  0  0  0
    5.9795   -4.6016    0.0000 C   0  0  0  0  0  0  0  0  0  0  0  0
    4.6521   -5.9289    0.0000 O   0  0  0  0  0  0  0  0  0  0  0  0
    4.6521   -3.2868    0.0000 O   0  0  0  0  0  0  0  0  0  0  0  0
    2.6674   -8.4194    0.0000 O   0  0  0  0  0  0  0  0  0  0  0  0
    0.0000   -3.4638    0.0000 O   0  0  0  0  0  0  0  0  0  0  0  0
    6.6369   -3.4638    0.0000 C   0  0  0  0  0  0  0  0  0  0  0  0
    6.6369   -5.7520    0.0000 C   0  0  0  0  0  0  0  0  0  0  0  0
    7.9769   -3.4638    0.0000 C   0  0  0  0  0  0  0  0  0  0  0  0
    7.9769   -5.7520    0.0000 C   0  0  0  0  0  0  0  0  0  0  0  0
    8.6469   -4.6016    0.0000 C   0  0  0  0  0  0  0  0  0  0  0  0
    9.9743   -4.6016    0.0000 O   0  0  0  0  0  0  0  0  0  0  0  0
   10.6317   -3.4638    0.0000 C   0  0  0  0  0  0  0  0  0  0  0  0
    9.9743   -2.3008    0.0000 C   0  0  0  0  0  0  0  0  0  0  0  0
   11.9717   -3.4638    0.0000 C   0  0  0  0  0  0  0  0  0  0  0  0
   10.6317   -1.1504    0.0000 C   0  0  0  0  0  0  0  0  0  0  0  0
   12.6417   -2.3008    0.0000 C   0  0  0  0  0  0  0  0  0  0  0  0
   11.9717   -1.1504    0.0000 C   0  0  0  0  0  0  0  0  0  0  0  0
   12.6417    0.0000    0.0000 F   0  0  0  0  0  0  0  0  0  0  0  0
  1  2  1  0  0  0  0
  1  3  1  0  0  0  0
  1  4  1  0  0  0  0
  1  5  1  0  0  0  0
  2  6  1  0  0  0  0
  3  7  1  0  0  0  0
  4  8  1  0  0  0  0
  5  9  1  0  0  0  0
  5 10  2  0  0  0  0
  6 11  1  0  0  0  0
  6 12  2  0  0  0  0
  6 13  2  0  0  0  0
  7 14  1  0  0  0  0
  8 14  1  0  0  0  0
  9 15  1  0  0  0  0
 11 16  2  0  0  0  0
 11 17  1  0  0  0  0
 16 18  1  0  0  0  0
 17 19  2  0  0  0  0
 18 20  2  0  0  0  0
 19 20  1  0  0  0  0
 20 21  1  0  0  0  0
 21 22  1  0  0  0  0
 22 23  1  0  0  0  0
 22 24  2  0  0  0  0
 23 25  2  0  0  0  0
 24 26  1  0  0  0  0
 25 27  1  0  0  0  0
 26 27  2  0  0  0  0
 27 28  1  0  0  0  0
M  END
> <ID>
12408

> <Formula>
C18H19FN2O6S

> <FW>
410.4167

> <DSSTox_CID>
27266

> <DSSTox_RID>
82223

> <DSSTox_GSID>
47266

> <DSSTox_FileID_Sort>
6904

> <TS_ChemName>
CP-544439

> <TS_ChemName_Synonyms>


> <TS_CASRN>
230954-09-3

> <CASRN_ChemName_Relationship>
primary

> <TS_Description>
single chemical compound

> <ChemNote>


> <STRUCTURE_Shown>
tested chemical

> <STRUCTURE_Formula>
C18H19FN2O6S

> <STRUCTURE_MW>
410.4167

> <STRUCTURE_ChemType>
defined organic

> <STRUCTURE_DefinedOrganicForm>
parent

> <STRUCTURE_IUPAC>
4-({[4-(4-fluorophenoxy)phenyl]sulfonyl}amino)-N-hydroxytetrahydro-2H-pyran-4-carboxamide

> <STRUCTURE_SMILES>
O=S(=O)(NC1(CCOCC1)C(=O)NO)c3ccc(Oc2ccc(F)cc2)cc3

> <STRUCTURE_SMILES_Desalt>
O=S(=O)(NC1(CCOCC1)C(=O)NO)c3ccc(Oc2ccc(F)cc2)cc3

> <Substance_modify_yyyymmdd>
20130910

$$$$
