23103-98-2
ChemmineR-0915142007XD

 17 17  0  0  0  0  0  0  0  0  1 V2000
    5.7554   -3.9965    0.0000 N   0  0  0  0  0  0  0  0  0  0  0  0
    4.6043   -3.3243    0.0000 C   0  0  0  0  0  0  0  0  0  0  0  0
    6.9065   -3.3243    0.0000 C   0  0  0  0  0  0  0  0  0  0  0  0
    3.4532   -3.9965    0.0000 O   0  0  0  0  0  0  0  0  0  0  0  0
    2.3022   -3.3243    0.0000 C   0  0  0  0  0  0  0  0  0  0  0  0
    6.9065   -1.9983    0.0000 N   0  0  0  0  0  0  0  0  0  0  0  0
    4.6043   -1.9983    0.0000 C   0  0  0  0  0  0  0  0  0  0  0  0
    5.7554   -1.3445    0.0000 C   0  0  0  0  0  0  0  0  0  0  0  0
    8.0575   -3.9965    0.0000 N   0  0  0  0  0  0  0  0  0  0  0  0
    1.1511   -3.9965    0.0000 N   0  0  0  0  0  0  0  0  0  0  0  0
    2.3022   -1.9983    0.0000 O   0  0  0  0  0  0  0  0  0  0  0  0
    3.4532   -1.3445    0.0000 C   0  0  0  0  0  0  0  0  0  0  0  0
    5.7554    0.0000    0.0000 C   0  0  0  0  0  0  0  0  0  0  0  0
    8.0575   -5.3226    0.0000 C   0  0  0  0  0  0  0  0  0  0  0  0
    9.2086   -3.3243    0.0000 C   0  0  0  0  0  0  0  0  0  0  0  0
    1.1511   -5.3226    0.0000 C   0  0  0  0  0  0  0  0  0  0  0  0
    0.0000   -3.3243    0.0000 C   0  0  0  0  0  0  0  0  0  0  0  0
  1  2  1  0  0  0  0
  1  3  2  0  0  0  0
  2  4  1  0  0  0  0
  2  7  2  0  0  0  0
  3  6  1  0  0  0  0
  3  9  1  0  0  0  0
  4  5  1  0  0  0  0
  5 10  1  0  0  0  0
  5 11  2  0  0  0  0
  6  8  2  0  0  0  0
  7 12  1  0  0  0  0
  7  8  1  0  0  0  0
  8 13  1  0  0  0  0
  9 14  1  0  0  0  0
  9 15  1  0  0  0  0
 10 16  1  0  0  0  0
 10 17  1  0  0  0  0
M  END
> <ID>
6522

> <Formula>
C11H18N4O2

> <FW>
238.2862

> <DSSTox_CID>
12569

> <DSSTox_RID>
78989

> <DSSTox_GSID>
32569

> <DSSTox_FileID_Sort>
3671

> <TS_ChemName>
Pirimicarb

> <TS_ChemName_Synonyms>


> <TS_CASRN>
23103-98-2

> <CASRN_ChemName_Relationship>
primary

> <TS_Description>
single chemical compound

> <ChemNote>


> <STRUCTURE_Shown>
tested chemical

> <STRUCTURE_Formula>
C11H18N4O2

> <STRUCTURE_MW>
238.2862

> <STRUCTURE_ChemType>
defined organic

> <STRUCTURE_DefinedOrganicForm>
parent

> <STRUCTURE_IUPAC>
2-(dimethylamino)-5,6-dimethylpyrimidin-4-yl dimethylcarbamate

> <STRUCTURE_SMILES>
Cc1nc(nc(OC(=O)N(C)C)c1C)N(C)C

> <STRUCTURE_SMILES_Desalt>
Cc1nc(nc(OC(=O)N(C)C)c1C)N(C)C

> <Substance_modify_yyyymmdd>
20080429

$$$$
