2310-17-0
ChemmineR-0915142007XD

 21 22  0  0  0  0  0  0  0  0  1 V2000
    3.5025   -2.4172    0.0000 N    0  0  0  0  0  0  0  0  0  0  0  0
    2.7543   -1.3731    0.0000 C    0  0  0  0  0  0  0  0  0  0  0  0
    3.5190   -0.2795    0.0000 O    0  0  0  0  0  0  0  0  0  0  0  0
    4.7851   -2.0144    0.0000 C    0  0  0  0  0  0  0  0  0  0  0  0
    2.3268   -5.7306    0.0000 P    0  0  0  0  0  0  0  0  0  0  0  0
    4.7851   -0.6989    0.0000 C    0  0  0  0  0  0  0  0  0  0  0  0
    3.5025   -3.7492    0.0000 C    0  0  0  0  0  0  0  0  0  0  0  0
    2.3268   -4.3905    0.0000 S    0  0  0  0  0  0  0  0  0  0  0  0
    5.9197   -0.0329    0.0000 C    0  0  0  0  0  0  0  0  0  0  0  0
    3.6423   -5.7306    0.0000 S    0  0  0  0  0  0  0  0  0  0  0  0
    5.9197   -2.6721    0.0000 C    0  0  0  0  0  0  0  0  0  0  0  0
    1.4306   -1.3731    0.0000 O    0  0  0  0  0  0  0  0  0  0  0  0
    2.3268   -7.0708    0.0000 O    0  0  0  0  0  0  0  0  0  0  0  0
    0.9866   -5.7306    0.0000 O    0  0  0  0  0  0  0  0  0  0  0  0
    7.0872   -0.6989    0.0000 C    0  0  0  0  0  0  0  0  0  0  0  0
    7.0872   -2.0144    0.0000 C    0  0  0  0  0  0  0  0  0  0  0  0
    8.2219    0.0000    0.0000 Cl   0  0  0  0  0  0  0  0  0  0  0  0
    1.1757   -7.7450    0.0000 C    0  0  0  0  0  0  0  0  0  0  0  0
    0.3124   -4.5796    0.0000 C    0  0  0  0  0  0  0  0  0  0  0  0
    0.0000   -7.0708    0.0000 C    0  0  0  0  0  0  0  0  0  0  0  0
    0.9866   -3.4285    0.0000 C    0  0  0  0  0  0  0  0  0  0  0  0
  1  2  1  0  0  0  0
  1  4  1  0  0  0  0
  1  7  1  0  0  0  0
  2  3  1  0  0  0  0
  2 12  2  0  0  0  0
  3  6  1  0  0  0  0
  4  6  1  0  0  0  0
  4 11  2  0  0  0  0
  5  8  1  0  0  0  0
  5 10  2  0  0  0  0
  5 13  1  0  0  0  0
  5 14  1  0  0  0  0
  6  9  2  0  0  0  0
  7  8  1  0  0  0  0
  9 15  1  0  0  0  0
 11 16  1  0  0  0  0
 13 18  1  0  0  0  0
 14 19  1  0  0  0  0
 15 16  2  0  0  0  0
 15 17  1  0  0  0  0
 18 20  1  0  0  0  0
 19 21  1  0  0  0  0
M  END
> <ID>
3587

> <Formula>
C12H15ClNO4PS2

> <FW>
367.8086

> <DSSTox_CID>
4259

> <DSSTox_RID>
77344

> <DSSTox_GSID>
24259

> <DSSTox_FileID_Sort>
2027

> <TS_ChemName>
Phosalone

> <TS_ChemName_Synonyms>
Phosalone (Phosphorodithioic acid, S-[(6-chloro-2-oxo-3(2H)-benzoxazolyl)methyl]O,O-diethyl ester)

> <TS_CASRN>
2310-17-0

> <CASRN_ChemName_Relationship>
primary

> <TS_Description>
single chemical compound

> <ChemNote>


> <STRUCTURE_Shown>
tested chemical

> <STRUCTURE_Formula>
C12H15ClNO4PS2

> <STRUCTURE_MW>
367.8086

> <STRUCTURE_ChemType>
defined organic

> <STRUCTURE_DefinedOrganicForm>
parent

> <STRUCTURE_IUPAC>
S-[(6-chloro-2-oxo-1,3-benzoxazol-3(2H)-yl)methyl] O,O-diethyl phosphorodithioate

> <STRUCTURE_SMILES>
CCOP(=S)(OCC)SCN1c2ccc(Cl)cc2OC1=O

> <STRUCTURE_SMILES_Desalt>
CCOP(=S)(OCC)SCN1c2ccc(Cl)cc2OC1=O

> <Substance_modify_yyyymmdd>
20080429

$$$$
