23110-15-8
ChemmineR-0915142007XD

 34 36  0  0  1  0  0  0  0  0  1 V2000
    1.1692   -7.8559    0.0000 C   0  0  0  0  0  0  0  0  0  0  0  0
    2.3178   -8.4712    0.0000 C   0  0  0  0  0  0  0  0  0  0  0  0
    3.4254   -7.8559    0.0000 C   0  0  0  0  0  0  0  0  0  0  0  0
    4.5740   -8.4712    0.0000 C   0  0  0  0  0  0  0  0  0  0  0  0
    5.7432   -7.8559    0.0000 C   0  0  0  0  0  0  0  0  0  0  0  0
    6.9123   -8.4712    0.0000 C   0  0  0  0  0  0  0  0  0  0  0  0
    8.0610   -7.8559    0.0000 C   0  0  0  0  0  0  0  0  0  0  0  0
    9.2301   -8.4712    0.0000 C   0  0  0  0  0  0  0  0  0  0  0  0
   10.3993   -7.8559    0.0000 C   0  0  0  0  0  0  0  0  0  0  0  0
   11.5479   -8.4712    0.0000 C   0  0  0  0  0  0  0  0  0  0  0  0
    1.1692   -6.5021    0.0000 O   0  0  0  0  0  0  0  0  0  0  0  0
    0.0000   -8.4712    0.0000 O   0  0  0  0  0  0  0  0  0  0  0  0
   12.7171   -7.8559    0.0000 O   0  0  0  0  0  0  0  0  0  0  0  0
   11.9582   -2.8101    0.0000 O   0  0  0  0  0  0  0  0  0  0  0  0
   13.3940   -2.8101    0.0000 C   0  0  0  0  0  0  0  0  0  0  0  0
   12.6555   -3.6921    0.0000 C   0  0  0  0  0  0  0  0  0  0  0  0
   13.8862   -4.3689    0.0000 C   0  0  0  0  0  0  0  0  0  0  0  0
   13.8862   -5.7432    0.0000 C   0  0  0  0  0  0  0  0  0  0  0  0
   12.7171   -6.5021    0.0000 C   0  0  0  0  0  0  0  0  0  0  0  0
   11.4864   -5.7432    0.0000 C   0  0  0  0  0  0  0  0  0  0  0  0
   11.4864   -4.3689    0.0000 C   0  0  0  0  0  0  0  0  0  0  0  0
   15.0349   -6.4201    0.0000 O   0  0  0  0  0  0  0  0  0  0  0  0
   16.2040   -5.7432    0.0000 C   0  0  0  0  0  0  0  0  0  0  0  0
   16.1425   -4.5125    0.0000 O   0  0  0  0  0  0  0  0  0  0  0  0
   15.0349   -3.6921    0.0000 C   0  0  0  0  0  0  0  0  0  0  0  0
   16.2656   -3.2203    0.0000 C   0  0  0  0  0  0  0  0  0  0  0  0
   14.8298   -2.3998    0.0000 C   0  0  0  0  0  0  0  0  0  0  0  0
   17.0860   -2.1127    0.0000 C   0  0  0  0  0  0  0  0  0  0  0  0
   18.3987   -2.2563    0.0000 C   0  0  0  0  0  0  0  0  0  0  0  0
   19.1372   -1.1692    0.0000 C   0  0  0  0  0  0  0  0  0  0  0  0
   20.5114   -1.3743    0.0000 C   0  0  0  0  0  0  0  0  0  0  0  0
   18.6654    0.0000    0.0000 C   0  0  0  0  0  0  0  0  0  0  0  0
   11.5479   -9.8455    0.0000 O   0  0  0  0  0  0  0  0  0  0  0  0
   13.8862   -3.0152    0.0000 H   0  0  0  0  0  0  0  0  0  0  0  0
  1  2  1  0  0  0  0
  1 12  1  0  0  0  0
  1 11  2  0  0  0  0
  2  3  2  0  0  0  0
  3  4  1  0  0  0  0
  4  5  2  0  0  0  0
  5  6  1  0  0  0  0
  6  7  2  0  0  0  0
  7  8  1  0  0  0  0
  8  9  2  0  0  0  0
  9 10  1  0  0  0  0
 10 13  1  0  0  0  0
 10 33  2  0  0  0  0
 19 13  1  6  0  0  0
 14 15  1  0  0  0  0
 16 14  1  1  0  0  0
 15 16  1  0  0  0  0
 16 17  1  0  0  0  0
 16 21  1  0  0  0  0
 17 18  1  0  0  0  0
 17 25  1  0  0  0  0
 17 34  1  6  0  0  0
 18 19  1  0  0  0  0
 18 22  1  6  0  0  0
 19 20  1  0  0  0  0
 20 21  1  0  0  0  0
 22 23  1  0  0  0  0
 24 25  1  0  0  0  0
 24 26  1  0  0  0  0
 25 26  1  0  0  0  0
 25 27  1  1  0  0  0
 26 28  1  1  0  0  0
 28 29  1  0  0  0  0
 29 30  2  0  0  0  0
 30 31  1  0  0  0  0
 30 32  1  0  0  0  0
M  END
> <ID>
7931

> <Formula>
C26H34O7

> <FW>
458.544

> <DSSTox_CID>
20736

> <DSSTox_RID>
79580

> <DSSTox_GSID>
40736

> <DSSTox_FileID_Sort>
4262

> <TS_ChemName>
Fumagillin

> <TS_ChemName_Synonyms>
(-)-Fumagillin

> <TS_CASRN>
23110-15-8

> <CASRN_ChemName_Relationship>
primary

> <TS_Description>
single chemical compound

> <ChemNote>
stereochem

> <STRUCTURE_Shown>
tested chemical

> <STRUCTURE_Formula>
C26H34O7

> <STRUCTURE_MW>
458.544

> <STRUCTURE_ChemType>
defined organic

> <STRUCTURE_DefinedOrganicForm>
parent

> <STRUCTURE_IUPAC>
(2E,4E,6E,8E)-10-({(3R,4S,5S,6R)-5-methoxy-4-[(2R,3R)-2-methyl-3-(3-methylbut-2-en-1-yl)oxiran-2-yl]-1-oxaspiro[2.5]oct-6-yl}oxy)-10-oxodeca-2,4,6,8-tetraenoic acid

> <STRUCTURE_SMILES>
C[C@@]1(O[C@@H]1C\C=C(\C)C)[C@H]3[C@H](OC)[C@H](OC(=O)\C=C\C=C\C=C\C=C\C(=O)O)CC[C@@]23CO2

> <STRUCTURE_SMILES_Desalt>
C[C@@]1(O[C@@H]1C\C=C(\C)C)[C@H]3[C@H](OC)[C@H](OC(=O)\C=C\C=C\C=C\C=C\C(=O)O)CC[C@@]23CO2

> <Substance_modify_yyyymmdd>
20080429

$$$$
