2312-73-4
ChemmineR-0915142007XD

 23 26  0  0  0  0  0  0  0  0  1 V2000
    7.9894   -3.3909    0.0000 C   0  0  0  0  0  0  0  0  0  0  0  0
    6.6598   -3.3909    0.0000 C   0  0  0  0  0  0  0  0  0  0  0  0
    6.2451   -2.1224    0.0000 N   0  0  0  0  0  0  0  0  0  0  0  0
    8.4041   -2.1224    0.0000 N   0  0  0  0  0  0  0  0  0  0  0  0
    7.3185   -1.3539    0.0000 C   0  0  0  0  0  0  0  0  0  0  0  0
    8.6724   -4.5497    0.0000 N   0  0  0  0  0  0  0  0  0  0  0  0
    6.6598   -5.6962    0.0000 N   0  0  0  0  0  0  0  0  0  0  0  0
    7.9894   -5.6962    0.0000 C   0  0  0  0  0  0  0  0  0  0  0  0
    6.0012   -4.5497    0.0000 C   0  0  0  0  0  0  0  0  0  0  0  0
    4.6716   -4.5497    0.0000 N   0  0  0  0  0  0  0  0  0  0  0  0
   10.6606   -2.5981    0.0000 O   0  0  0  0  0  0  0  0  0  0  0  0
   11.9291   -2.1833    0.0000 C   0  0  0  0  0  0  0  0  0  0  0  0
   12.1975   -0.8904    0.0000 C   0  0  0  0  0  0  0  0  0  0  0  0
   11.2217    0.0000    0.0000 C   0  0  0  0  0  0  0  0  0  0  0  0
    9.9531   -0.4025    0.0000 C   0  0  0  0  0  0  0  0  0  0  0  0
    9.6726   -1.7198    0.0000 C   0  0  0  0  0  0  0  0  0  0  0  0
    4.0008   -5.6962    0.0000 C   0  0  0  0  0  0  0  0  0  0  0  0
    0.6709   -4.5619    0.0000 C   0  0  0  0  0  0  0  0  0  0  0  0
    0.0000   -5.7206    0.0000 C   0  0  0  0  0  0  0  0  0  0  0  0
    0.6709   -6.8550    0.0000 C   0  0  0  0  0  0  0  0  0  0  0  0
    2.0004   -6.8550    0.0000 C   0  0  0  0  0  0  0  0  0  0  0  0
    2.6591   -5.6962    0.0000 C   0  0  0  0  0  0  0  0  0  0  0  0
    2.0004   -4.5619    0.0000 C   0  0  0  0  0  0  0  0  0  0  0  0
  1  2  2  0  0  0  0
  1  4  1  0  0  0  0
  1  6  1  0  0  0  0
  2  3  1  0  0  0  0
  2  9  1  0  0  0  0
  3  5  2  0  0  0  0
  4  5  1  0  0  0  0
  4 16  1  0  0  0  0
  6  8  2  0  0  0  0
  7  8  1  0  0  0  0
  7  9  2  0  0  0  0
  9 10  1  0  0  0  0
 10 17  1  0  0  0  0
 11 12  1  0  0  0  0
 11 16  1  0  0  0  0
 12 13  1  0  0  0  0
 13 14  1  0  0  0  0
 14 15  1  0  0  0  0
 15 16  1  0  0  0  0
 17 22  1  0  0  0  0
 18 23  2  0  0  0  0
 18 19  1  0  0  0  0
 19 20  2  0  0  0  0
 20 21  1  0  0  0  0
 21 22  2  0  0  0  0
 22 23  1  0  0  0  0
M  END
> <ID>
7501

> <Formula>
C17H19N5O

> <FW>
309.3657

> <DSSTox_CID>
18801

> <DSSTox_RID>
79397

> <DSSTox_GSID>
38801

> <DSSTox_FileID_Sort>
4079

> <TS_ChemName>
N-Benzyl-9-(tetrahydro-2H-pyran-2-yl)adenine

> <TS_ChemName_Synonyms>
N-Phenylmethyl)-9-(tetrahydro-2H-pyran-2-yl)-9H-purin-6-amine; SD 8339

> <TS_CASRN>
2312-73-4

> <CASRN_ChemName_Relationship>
primary

> <TS_Description>
single chemical compound

> <ChemNote>


> <STRUCTURE_Shown>
tested chemical

> <STRUCTURE_Formula>
C17H19N5O

> <STRUCTURE_MW>
309.3657

> <STRUCTURE_ChemType>
defined organic

> <STRUCTURE_DefinedOrganicForm>
parent

> <STRUCTURE_IUPAC>
N-benzyl-9-(tetrahydro-2H-pyran-2-yl)-9H-purin-6-amine

> <STRUCTURE_SMILES>
n3cn(C1CCCCO1)c4ncnc(NCc2ccccc2)c34

> <STRUCTURE_SMILES_Desalt>
n3cn(C1CCCCO1)c4ncnc(NCc2ccccc2)c34

> <Substance_modify_yyyymmdd>
20120919

$$$$
