2312-35-8
ChemmineR-0915142007XD

 24 25  0  0  0  0  0  0  0  0  1 V2000
    5.7677   -3.9938    0.0000 S   0  0  0  0  0  0  0  0  0  0  0  0
    5.7677   -2.6556    0.0000 O   0  0  0  0  0  0  0  0  0  0  0  0
    6.9088   -2.0021    0.0000 C   0  0  0  0  0  0  0  0  0  0  0  0
    9.2220   -4.6577    0.0000 C   0  0  0  0  0  0  0  0  0  0  0  0
   10.3735   -5.3216    0.0000 C   0  0  0  0  0  0  0  0  0  0  0  0
    6.9088   -0.6847    0.0000 C   0  0  0  0  0  0  0  0  0  0  0  0
    5.7677    0.0000    0.0000 O   0  0  0  0  0  0  0  0  0  0  0  0
    4.6058   -4.6577    0.0000 O   0  0  0  0  0  0  0  0  0  0  0  0
    1.1515   -2.6556    0.0000 C   0  0  0  0  0  0  0  0  0  0  0  0
    2.3029   -2.0021    0.0000 C   0  0  0  0  0  0  0  0  0  0  0  0
    2.3029   -0.6847    0.0000 C   0  0  0  0  0  0  0  0  0  0  0  0
    3.4648   -2.6556    0.0000 C   0  0  0  0  0  0  0  0  0  0  0  0
    6.9088   -4.6577    0.0000 O   0  0  0  0  0  0  0  0  0  0  0  0
    4.6058   -0.6847    0.0000 C   0  0  0  0  0  0  0  0  0  0  0  0
    4.6058   -2.0021    0.0000 C   0  0  0  0  0  0  0  0  0  0  0  0
    3.4648    0.0000    0.0000 C   0  0  0  0  0  0  0  0  0  0  0  0
    8.0706   -3.9938    0.0000 C   0  0  0  0  0  0  0  0  0  0  0  0
    8.0706   -2.6556    0.0000 C   0  0  0  0  0  0  0  0  0  0  0  0
    0.0000   -3.3299    0.0000 C   0  0  0  0  0  0  0  0  0  0  0  0
    0.5083   -1.5042    0.0000 C   0  0  0  0  0  0  0  0  0  0  0  0
    1.8257   -3.8175    0.0000 C   0  0  0  0  0  0  0  0  0  0  0  0
    8.0706    0.0000    0.0000 C   0  0  0  0  0  0  0  0  0  0  0  0
    9.2220   -2.0021    0.0000 C   0  0  0  0  0  0  0  0  0  0  0  0
    9.2220   -0.6847    0.0000 C   0  0  0  0  0  0  0  0  0  0  0  0
  1  2  1  0  0  0  0
  1  8  2  0  0  0  0
  1 13  1  0  0  0  0
  2  3  1  0  0  0  0
  3  6  1  0  0  0  0
  3 18  1  0  0  0  0
  4 17  1  0  0  0  0
  4  5  3  0  0  0  0
  6  7  1  0  0  0  0
  6 22  1  0  0  0  0
  7 14  1  0  0  0  0
  9 10  1  0  0  0  0
  9 19  1  0  0  0  0
  9 20  1  0  0  0  0
  9 21  1  0  0  0  0
 10 11  2  0  0  0  0
 10 12  1  0  0  0  0
 11 16  1  0  0  0  0
 12 15  2  0  0  0  0
 13 17  1  0  0  0  0
 14 15  1  0  0  0  0
 14 16  2  0  0  0  0
 18 23  1  0  0  0  0
 22 24  1  0  0  0  0
 23 24  1  0  0  0  0
M  END
> <ID>
3598

> <Formula>
C19H26O4S

> <FW>
350.4723

> <DSSTox_CID>
4276

> <DSSTox_RID>
77352

> <DSSTox_GSID>
24276

> <DSSTox_FileID_Sort>
2035

> <TS_ChemName>
Propargite

> <TS_ChemName_Synonyms>
Propargite (omite technical)

> <TS_CASRN>
2312-35-8

> <CASRN_ChemName_Relationship>
primary

> <TS_Description>
single chemical compound

> <ChemNote>


> <STRUCTURE_Shown>
tested chemical

> <STRUCTURE_Formula>
C19H26O4S

> <STRUCTURE_MW>
350.4723

> <STRUCTURE_ChemType>
defined organic

> <STRUCTURE_DefinedOrganicForm>
parent

> <STRUCTURE_IUPAC>
2-(4-tert-butylphenoxy)cyclohexyl prop-2-yn-1-yl sulfite

> <STRUCTURE_SMILES>
CC(C)(C)c1ccc(cc1)OC2CCCCC2OS(=O)OCC#C

> <STRUCTURE_SMILES_Desalt>
CC(C)(C)c1ccc(cc1)OC2CCCCC2OS(=O)OCC#C

> <Substance_modify_yyyymmdd>
20080429

$$$$
