231277-92-2
ChemmineR-0915142007XD

 40 44  0  0  0  0  0  0  0  0  1 V2000
    1.6696   -1.9841    0.0000 C    0  0  0  0  0  0  0  0  0  0  0  0
    1.2582   -3.2423    0.0000 S    0  0  0  0  0  0  0  0  0  0  0  0
    0.8469   -4.5006    0.0000 O    0  0  0  0  0  0  0  0  0  0  0  0
    0.0000   -2.8068    0.0000 O    0  0  0  0  0  0  0  0  0  0  0  0
    2.5406   -3.6295    0.0000 C    0  0  0  0  0  0  0  0  0  0  0  0
    3.5085   -2.7584    0.0000 C    0  0  0  0  0  0  0  0  0  0  0  0
    4.7909   -3.1698    0.0000 N    0  0  0  0  0  0  0  0  0  0  0  0
    5.7830   -2.2745    0.0000 C    0  0  0  0  0  0  0  0  0  0  0  0
    7.0412   -2.6616    0.0000 C    0  0  0  0  0  0  0  0  0  0  0  0
    7.4767   -3.9440    0.0000 C    0  0  0  0  0  0  0  0  0  0  0  0
    8.8076   -3.9440    0.0000 C    0  0  0  0  0  0  0  0  0  0  0  0
    9.1947   -2.6616    0.0000 C    0  0  0  0  0  0  0  0  0  0  0  0
    8.1301   -1.8873    0.0000 O    0  0  0  0  0  0  0  0  0  0  0  0
   10.3561   -2.0083    0.0000 C    0  0  0  0  0  0  0  0  0  0  0  0
   11.5176   -2.6616    0.0000 C    0  0  0  0  0  0  0  0  0  0  0  0
   12.6548   -2.0083    0.0000 C    0  0  0  0  0  0  0  0  0  0  0  0
   13.8163   -2.6616    0.0000 C    0  0  0  0  0  0  0  0  0  0  0  0
   13.8163   -4.0166    0.0000 N    0  0  0  0  0  0  0  0  0  0  0  0
   14.9535   -4.6699    0.0000 C    0  0  0  0  0  0  0  0  0  0  0  0
   16.1149   -4.0166    0.0000 C    0  0  0  0  0  0  0  0  0  0  0  0
   17.2764   -4.6699    0.0000 C    0  0  0  0  0  0  0  0  0  0  0  0
   17.2764   -6.0008    0.0000 C    0  0  0  0  0  0  0  0  0  0  0  0
   18.4378   -6.6541    0.0000 O    0  0  0  0  0  0  0  0  0  0  0  0
   19.5750   -6.0008    0.0000 C    0  0  0  0  0  0  0  0  0  0  0  0
   20.7365   -6.6541    0.0000 C    0  0  0  0  0  0  0  0  0  0  0  0
   21.8737   -6.0008    0.0000 C    0  0  0  0  0  0  0  0  0  0  0  0
   23.0352   -6.6541    0.0000 C    0  0  0  0  0  0  0  0  0  0  0  0
   23.0352   -7.9849    0.0000 C    0  0  0  0  0  0  0  0  0  0  0  0
   21.8737   -8.6624    0.0000 C    0  0  0  0  0  0  0  0  0  0  0  0
   20.7365   -7.9849    0.0000 C    0  0  0  0  0  0  0  0  0  0  0  0
   24.1966   -6.0008    0.0000 F    0  0  0  0  0  0  0  0  0  0  0  0
   16.1149   -6.6541    0.0000 C    0  0  0  0  0  0  0  0  0  0  0  0
   14.9535   -6.0008    0.0000 C    0  0  0  0  0  0  0  0  0  0  0  0
   16.1149   -7.9849    0.0000 Cl   0  0  0  0  0  0  0  0  0  0  0  0
   14.9535   -2.0083    0.0000 N    0  0  0  0  0  0  0  0  0  0  0  0
   14.9535   -0.6775    0.0000 C    0  0  0  0  0  0  0  0  0  0  0  0
   13.8163    0.0000    0.0000 N    0  0  0  0  0  0  0  0  0  0  0  0
   12.6548   -0.6775    0.0000 C    0  0  0  0  0  0  0  0  0  0  0  0
   11.5176    0.0000    0.0000 C    0  0  0  0  0  0  0  0  0  0  0  0
   10.3561   -0.6775    0.0000 C    0  0  0  0  0  0  0  0  0  0  0  0
  1  2  1  0  0  0  0
  2  3  2  0  0  0  0
  2  4  2  0  0  0  0
  2  5  1  0  0  0  0
  5  6  1  0  0  0  0
  6  7  1  0  0  0  0
  7  8  1  0  0  0  0
  8  9  1  0  0  0  0
  9 10  2  0  0  0  0
  9 13  1  0  0  0  0
 10 11  1  0  0  0  0
 11 12  2  0  0  0  0
 12 13  1  0  0  0  0
 12 14  1  0  0  0  0
 14 15  2  0  0  0  0
 14 40  1  0  0  0  0
 15 16  1  0  0  0  0
 16 17  2  0  0  0  0
 16 38  1  0  0  0  0
 17 18  1  0  0  0  0
 17 35  1  0  0  0  0
 18 19  1  0  0  0  0
 19 20  2  0  0  0  0
 19 33  1  0  0  0  0
 20 21  1  0  0  0  0
 21 22  2  0  0  0  0
 22 23  1  0  0  0  0
 22 32  1  0  0  0  0
 23 24  1  0  0  0  0
 24 25  1  0  0  0  0
 25 26  2  0  0  0  0
 25 30  1  0  0  0  0
 26 27  1  0  0  0  0
 27 28  2  0  0  0  0
 27 31  1  0  0  0  0
 28 29  1  0  0  0  0
 29 30  2  0  0  0  0
 32 33  2  0  0  0  0
 32 34  1  0  0  0  0
 35 36  2  0  0  0  0
 36 37  1  0  0  0  0
 37 38  2  0  0  0  0
 38 39  1  0  0  0  0
 39 40  2  0  0  0  0
M  END
> <ID>
11877

> <Formula>
C29H26ClFN4O4S

> <FW>
581.0575

> <DSSTox_CID>
26675

> <DSSTox_RID>
81812

> <DSSTox_GSID>
46675

> <DSSTox_FileID_Sort>
6493

> <TS_ChemName>
Lapatinib

> <TS_ChemName_Synonyms>


> <TS_CASRN>
231277-92-2

> <CASRN_ChemName_Relationship>
primary

> <TS_Description>
single chemical compound

> <ChemNote>


> <STRUCTURE_Shown>
tested chemical

> <STRUCTURE_Formula>
C29H26ClFN4O4S

> <STRUCTURE_MW>
581.0575

> <STRUCTURE_ChemType>
defined organic

> <STRUCTURE_DefinedOrganicForm>
parent

> <STRUCTURE_IUPAC>
N-{3-chloro-4-[(3-fluorobenzyl)oxy]phenyl}-6-[5-({[2-(methylsulfonyl)ethyl]amino}methyl)furan-2-yl]quinazolin-4-amine

> <STRUCTURE_SMILES>
Fc1cccc(c1)COc2ccc(cc2Cl)Nc3ncnc4ccc(cc34)c5ccc(CNCCS(C)(=O)=O)o5

> <STRUCTURE_SMILES_Desalt>
Fc1cccc(c1)COc2ccc(cc2Cl)Nc3ncnc4ccc(cc34)c5ccc(CNCCS(C)(=O)=O)o5

> <Substance_modify_yyyymmdd>
20110808

$$$$
