23135-22-0
ChemmineR-0915142007XD

 14 13  0  0  0  0  0  0  0  0  1 V2000
    4.6820   -4.6086    0.0000 O   0  0  0  0  0  0  0  0  0  0  0  0
    5.3571   -3.4565    0.0000 C   0  0  0  0  0  0  0  0  0  0  0  0
    4.6820   -2.3043    0.0000 C   0  0  0  0  0  0  0  0  0  0  0  0
    3.3611   -2.3043    0.0000 N   0  0  0  0  0  0  0  0  0  0  0  0
    2.0328   -2.2603    0.0000 O   0  0  0  0  0  0  0  0  0  0  0  0
    1.3283   -3.3904    0.0000 C   0  0  0  0  0  0  0  0  0  0  0  0
    0.0000   -3.3611    0.0000 O   0  0  0  0  0  0  0  0  0  0  0  0
    1.9521   -4.5572    0.0000 N   0  0  0  0  0  0  0  0  0  0  0  0
    1.2476   -5.6947    0.0000 C   0  0  0  0  0  0  0  0  0  0  0  0
    5.3571   -1.1522    0.0000 S   0  0  0  0  0  0  0  0  0  0  0  0
    4.6820    0.0000    0.0000 C   0  0  0  0  0  0  0  0  0  0  0  0
    6.6854   -3.4565    0.0000 N   0  0  0  0  0  0  0  0  0  0  0  0
    7.3385   -2.3043    0.0000 C   0  0  0  0  0  0  0  0  0  0  0  0
    7.3385   -4.6086    0.0000 C   0  0  0  0  0  0  0  0  0  0  0  0
  1  2  2  0  0  0  0
  2  3  1  0  0  0  0
  2 12  1  0  0  0  0
  3  4  2  0  0  0  0
  3 10  1  0  0  0  0
  4  5  1  0  0  0  0
  5  6  1  0  0  0  0
  6  7  2  0  0  0  0
  6  8  1  0  0  0  0
  8  9  1  0  0  0  0
 10 11  1  0  0  0  0
 12 13  1  0  0  0  0
 12 14  1  0  0  0  0
M  END
> <ID>
1045

> <Formula>
C7H13N3O3S

> <FW>
219.2614

> <DSSTox_CID>
1086

> <DSSTox_RID>
75933

> <DSSTox_GSID>
21086

> <DSSTox_FileID_Sort>
617

> <TS_ChemName>
Oxamyl

> <TS_ChemName_Synonyms>
Oxamyl (Vydate)

> <TS_CASRN>
23135-22-0

> <CASRN_ChemName_Relationship>
primary

> <TS_Description>
single chemical compound

> <ChemNote>


> <STRUCTURE_Shown>
tested chemical

> <STRUCTURE_Formula>
C7H13N3O3S

> <STRUCTURE_MW>
219.2614

> <STRUCTURE_ChemType>
defined organic

> <STRUCTURE_DefinedOrganicForm>
parent

> <STRUCTURE_IUPAC>
methyl 2-(dimethylamino)-N-[(methylcarbamoyl)oxy]-2-oxoethanimidothioate

> <STRUCTURE_SMILES>
O=C(C(=N\OC(=O)NC)\SC)N(C)C

> <STRUCTURE_SMILES_Desalt>
O=C(C(=N\OC(=O)NC)\SC)N(C)C

> <Substance_modify_yyyymmdd>
20080429

$$$$
