23152-29-6
ChemmineR-0915142007XD

 60 65  0  0  1  0  0  0  0  0  1 V2000
   12.4644   -7.6589    0.0000 N   0  0  0  0  0  0  0  0  0  0  0  0
   11.7970   -8.8269    0.0000 C   0  0  0  0  0  0  0  0  0  0  0  0
   11.7636   -6.5075    0.0000 C   0  0  0  0  0  0  0  0  0  0  0  0
   13.7826   -7.6589    0.0000 C   0  0  0  0  0  0  0  0  0  0  0  0
   10.3620   -8.8269    0.0000 C   0  0  0  0  0  0  0  0  0  0  0  0
   12.5145   -9.9949    0.0000 C   0  0  0  0  0  0  0  0  0  0  0  0
   12.4143   -5.3896    0.0000 C   0  0  0  0  0  0  0  0  0  0  0  0
   10.4120   -6.5075    0.0000 O   0  0  0  0  0  0  0  0  0  0  0  0
   14.5001   -8.7935    0.0000 C   0  0  0  0  0  0  0  0  0  0  0  0
    9.1439   -7.9592    0.0000 N   0  0  0  0  0  0  0  0  0  0  0  0
    9.9949  -10.1117    0.0000 O   0  0  0  0  0  0  0  0  0  0  0  0
   13.8160   -9.9949    0.0000 C   0  0  0  0  0  0  0  0  0  0  0  0
   11.7636   -4.2382    0.0000 N   0  0  0  0  0  0  0  0  0  0  0  0
    7.9926   -8.6433    0.0000 C   0  0  0  0  0  0  0  0  0  0  0  0
   14.5168  -11.1128    0.0000 O   0  0  0  0  0  0  0  0  0  0  0  0
   10.4287   -4.2382    0.0000 C   0  0  0  0  0  0  0  0  0  0  0  0
    7.9926   -9.9782    0.0000 C   0  0  0  0  0  0  0  0  0  0  0  0
    6.8579   -7.9592    0.0000 C   0  0  0  0  0  0  0  0  0  0  0  0
   15.5012   -4.9057    0.0000 C   0  0  0  0  0  0  0  0  0  0  0  0
   14.4000   -2.8700    0.0000 C   0  0  0  0  0  0  0  0  0  0  0  0
   11.5967   -2.0691    0.0000 C   0  0  0  0  0  0  0  0  0  0  0  0
    6.7912  -10.6623    0.0000 C   0  0  0  0  0  0  0  0  0  0  0  0
    9.1439  -10.6623    0.0000 C   0  0  0  0  0  0  0  0  0  0  0  0
    6.8579   -6.5910    0.0000 O   0  0  0  0  0  0  0  0  0  0  0  0
    5.6565   -8.6433    0.0000 O   0  0  0  0  0  0  0  0  0  0  0  0
   16.6860   -4.2382    0.0000 C   0  0  0  0  0  0  0  0  0  0  0  0
   15.5012   -2.3027    0.0000 C   0  0  0  0  0  0  0  0  0  0  0  0
   10.2619   -2.0691    0.0000 N   0  0  0  0  0  0  0  0  0  0  0  0
   12.0306   -0.8009    0.0000 C   0  0  0  0  0  0  0  0  0  0  0  0
    6.7912  -11.9638    0.0000 C   0  0  0  0  0  0  0  0  0  0  0  0
    9.1439  -11.9638    0.0000 C   0  0  0  0  0  0  0  0  0  0  0  0
    5.6565   -5.9402    0.0000 C   0  0  0  0  0  0  0  0  0  0  0  0
   16.6860   -2.8700    0.0000 C   0  0  0  0  0  0  0  0  0  0  0  0
    9.1439   -2.7198    0.0000 C   0  0  0  0  0  0  0  0  0  0  0  0
    9.8614   -0.8009    0.0000 C   0  0  0  0  0  0  0  0  0  0  0  0
   10.9794    0.0000    0.0000 C   0  0  0  0  0  0  0  0  0  0  0  0
    7.9926  -12.6480    0.0000 C   0  0  0  0  0  0  0  0  0  0  0  0
    5.6565   -4.6387    0.0000 C   0  0  0  0  0  0  0  0  0  0  0  0
    4.5386   -6.5910    0.0000 C   0  0  0  0  0  0  0  0  0  0  0  0
    7.9926   -2.0357    0.0000 C   0  0  0  0  0  0  0  0  0  0  0  0
    9.1439   -3.9713    0.0000 O   0  0  0  0  0  0  0  0  0  0  0  0
    6.8579   -3.9713    0.0000 C   0  0  0  0  0  0  0  0  0  0  0  0
    4.5386   -3.9713    0.0000 N   0  0  0  0  0  0  0  0  0  0  0  0
    6.8579   -2.7198    0.0000 N   0  0  0  0  0  0  0  0  0  0  0  0
    7.9926   -0.7008    0.0000 C   0  0  0  0  0  0  0  0  0  0  0  0
    7.9926   -4.6387    0.0000 O   0  0  0  0  0  0  0  0  0  0  0  0
    3.4206   -4.6387    0.0000 C   0  0  0  0  0  0  0  0  0  0  0  0
    2.2693   -3.9713    0.0000 C   0  0  0  0  0  0  0  0  0  0  0  0
    3.4206   -5.9402    0.0000 O   0  0  0  0  0  0  0  0  0  0  0  0
    2.2693   -2.7198    0.0000 C   0  0  0  0  0  0  0  0  0  0  0  0
    1.1013   -4.6387    0.0000 N   0  0  0  0  0  0  0  0  0  0  0  0
    1.1013   -2.0357    0.0000 C   0  0  0  0  0  0  0  0  0  0  0  0
    3.4206   -2.0357    0.0000 O   0  0  0  0  0  0  0  0  0  0  0  0
    0.0000   -3.9713    0.0000 C   0  0  0  0  0  0  0  0  0  0  0  0
    0.0000   -2.7198    0.0000 C   0  0  0  0  0  0  0  0  0  0  0  0
   12.4143   -3.1203    0.0000 C   0  0  0  0  0  0  0  0  0  0  0  0
   13.7325   -3.1203    0.0000 O   0  0  0  0  0  0  0  0  0  0  0  0
   13.7325   -5.3896    0.0000 C   0  0  0  0  0  0  0  0  0  0  0  0
   14.4000   -4.2382    0.0000 C   0  0  0  0  0  0  0  0  0  0  0  0
    6.8579   -0.0334    0.0000 C   0  0  0  0  0  0  0  0  0  0  0  0
  1  2  1  0  0  0  0
  1  3  1  0  0  0  0
  1  4  1  0  0  0  0
  2  5  1  0  0  0  0
  2  6  1  0  0  0  0
  3  7  1  0  0  0  0
  3  8  2  0  0  0  0
  4  9  1  0  0  0  0
  5 10  1  0  0  0  0
  5 11  2  0  0  0  0
  6 12  1  0  0  0  0
  7 58  1  0  0  0  0
  7 13  1  1  0  0  0
  9 12  1  0  0  0  0
 14 10  1  1  0  0  0
 12 15  2  0  0  0  0
 13 56  1  0  0  0  0
 13 16  1  0  0  0  0
 14 17  1  0  0  0  0
 14 18  1  0  0  0  0
 17 22  2  0  0  0  0
 17 23  1  0  0  0  0
 18 24  1  0  0  0  0
 18 25  2  0  0  0  0
 19 59  2  0  0  0  0
 19 26  1  0  0  0  0
 20 59  1  0  0  0  0
 20 27  2  0  0  0  0
 21 56  1  1  0  0  0
 21 28  1  0  0  0  0
 21 29  1  0  0  0  0
 22 30  1  0  0  0  0
 23 31  2  0  0  0  0
 24 32  1  0  0  0  0
 26 33  2  0  0  0  0
 27 33  1  0  0  0  0
 28 34  1  0  0  0  0
 28 35  1  0  0  0  0
 29 36  1  0  0  0  0
 30 37  2  0  0  0  0
 31 37  1  0  0  0  0
 32 38  1  0  0  0  0
 32 39  1  0  0  0  0
 34 40  1  0  0  0  0
 34 41  2  0  0  0  0
 35 36  1  0  0  0  0
 38 42  1  0  0  0  0
 38 43  1  6  0  0  0
 40 44  1  6  0  0  0
 40 45  1  0  0  0  0
 42 46  2  0  0  0  0
 42 44  1  0  0  0  0
 43 47  1  0  0  0  0
 45 60  1  0  0  0  0
 47 48  1  0  0  0  0
 47 49  2  0  0  0  0
 48 50  1  0  0  0  0
 48 51  2  0  0  0  0
 50 52  2  0  0  0  0
 50 53  1  0  0  0  0
 51 54  1  0  0  0  0
 52 55  1  0  0  0  0
 54 55  2  0  0  0  0
 56 57  2  0  0  0  0
 58 59  1  0  0  0  0
M  END
> <ID>
12027

> <Formula>
C43H49N7O10

> <FW>
823.8901

> <DSSTox_CID>
26856

> <DSSTox_RID>
81964

> <DSSTox_GSID>
46856

> <DSSTox_FileID_Sort>
6645

> <TS_ChemName>
Virginiamycin S1

> <TS_ChemName_Synonyms>


> <TS_CASRN>
23152-29-6

> <CASRN_ChemName_Relationship>
primary

> <TS_Description>
single chemical compound

> <ChemNote>
stereochem

> <STRUCTURE_Shown>
tested chemical

> <STRUCTURE_Formula>
C43H49N7O10

> <STRUCTURE_MW>
823.8901

> <STRUCTURE_ChemType>
defined organic

> <STRUCTURE_DefinedOrganicForm>
parent

> <STRUCTURE_IUPAC>
N-[(6R,9S,13S,22S,24aS)-22-benzyl-6-ethyl-10,23-dimethyl-5,8,12,15,17,21,24-heptaoxo-13-phenyldocosahydro-12H-pyrido[2,1-f]pyrrolo[2,1-l][1,4,7,10,13,16]oxapentaazacyclononadecin-9-yl]-3-hydroxypyridine-2-carboxamide

> <STRUCTURE_SMILES>
Oc1cccnc1C(=O)N[C@@H]5C(=O)N[C@H](CC)C(=O)N2CCC[C@H]2C(=O)N(C)[C@@H](Cc3ccccc3)C(=O)N6CCC(=O)CC6C(=O)N[C@@H](c4ccccc4)C(=O)OC5C

> <STRUCTURE_SMILES_Desalt>
Oc1cccnc1C(=O)N[C@@H]5C(=O)N[C@H](CC)C(=O)N2CCC[C@H]2C(=O)N(C)[C@@H](Cc3ccccc3)C(=O)N6CCC(=O)CC6C(=O)N[C@@H](c4ccccc4)C(=O)OC5C

> <Substance_modify_yyyymmdd>
20110729

$$$$
