2315-68-6
ChemmineR-0915142007XD

 12 12  0  0  0  0  0  0  0  0  1 V2000
    3.4663   -1.3332    0.0000 C   0  0  0  0  0  0  0  0  0  0  0  0
    3.4663    0.0000    0.0000 O   0  0  0  0  0  0  0  0  0  0  0  0
    2.3109   -1.9877    0.0000 C   0  0  0  0  0  0  0  0  0  0  0  0
    4.6137   -1.9877    0.0000 O   0  0  0  0  0  0  0  0  0  0  0  0
    2.3109   -3.3209    0.0000 C   0  0  0  0  0  0  0  0  0  0  0  0
    1.1554   -1.3332    0.0000 C   0  0  0  0  0  0  0  0  0  0  0  0
    1.1554   -3.9915    0.0000 C   0  0  0  0  0  0  0  0  0  0  0  0
    0.0000   -1.9877    0.0000 C   0  0  0  0  0  0  0  0  0  0  0  0
    0.0000   -3.3209    0.0000 C   0  0  0  0  0  0  0  0  0  0  0  0
    5.7691   -1.3332    0.0000 C   0  0  0  0  0  0  0  0  0  0  0  0
    6.9246   -1.9877    0.0000 C   0  0  0  0  0  0  0  0  0  0  0  0
    8.0800   -1.3332    0.0000 C   0  0  0  0  0  0  0  0  0  0  0  0
  1  2  2  0  0  0  0
  1  3  1  0  0  0  0
  1  4  1  0  0  0  0
  3  5  2  0  0  0  0
  3  6  1  0  0  0  0
  4 10  1  0  0  0  0
  5  7  1  0  0  0  0
  6  8  2  0  0  0  0
  7  9  2  0  0  0  0
  8  9  1  0  0  0  0
 10 11  1  0  0  0  0
 11 12  1  0  0  0  0
M  END
> <ID>
10525

> <Formula>
C10H12O2

> <FW>
164.2011

> <DSSTox_CID>
24878

> <DSSTox_RID>
80552

> <DSSTox_GSID>
44878

> <DSSTox_FileID_Sort>
5234

> <TS_ChemName>
Propyl benzoate

> <TS_ChemName_Synonyms>
Propyl benzoate (Benzoic acid, propyl ester)

> <TS_CASRN>
2315-68-6

> <CASRN_ChemName_Relationship>
primary

> <TS_Description>
single chemical compound

> <ChemNote>


> <STRUCTURE_Shown>
tested chemical

> <STRUCTURE_Formula>
C10H12O2

> <STRUCTURE_MW>
164.2011

> <STRUCTURE_ChemType>
defined organic

> <STRUCTURE_DefinedOrganicForm>
parent

> <STRUCTURE_IUPAC>
propyl benzoate

> <STRUCTURE_SMILES>
O=C(OCCC)c1ccccc1

> <STRUCTURE_SMILES_Desalt>
O=C(OCCC)c1ccccc1

> <Substance_modify_yyyymmdd>
20091116

$$$$
