23182-46-9
ChemmineR-0915142007XD

 28 29  0  0  0  0  0  0  0  0  2 V2000
   10.3709   -2.1647    0.0000 C    0  0  0  0  0  0  0  0  0  0  0  0
    9.2213   -2.8129    0.0000 C    0  0  0  0  0  0  0  0  0  0  0  0
    9.2213   -4.1459    0.0000 N    0  3  0  0  0  0  0  0  0  0  0  0
    8.5242   -5.2833    0.0000 C    0  0  0  0  0  0  0  0  0  0  0  0
    9.1846   -6.4573    0.0000 C    0  0  0  0  0  0  0  0  0  0  0  0
   10.5176   -6.4573    0.0000 C    0  0  0  0  0  0  0  0  0  0  0  0
   11.1903   -5.3200    0.0000 C    0  0  0  0  0  0  0  0  0  0  0  0
   10.5298   -4.1704    0.0000 C    0  0  0  0  0  0  0  0  0  0  0  0
    8.0594   -3.4733    0.0000 C    0  0  0  0  0  0  0  0  0  0  0  0
    6.9098   -4.1337    0.0000 C    0  0  0  0  0  0  0  0  0  0  0  0
    5.7602   -3.4610    0.0000 O    0  0  0  0  0  0  0  0  0  0  0  0
    4.5984   -4.0970    0.0000 C    0  0  0  0  0  0  0  0  0  0  0  0
    4.5984   -5.4423    0.0000 O    0  0  0  0  0  0  0  0  0  0  0  0
    3.4610   -3.4488    0.0000 C    0  0  0  0  0  0  0  0  0  0  0  0
    2.7884   -4.5984    0.0000 O    0  0  0  0  0  0  0  0  0  0  0  0
    2.3114   -2.7762    0.0000 C    0  0  0  0  0  0  0  0  0  0  0  0
    1.1496   -3.4488    0.0000 C    0  0  0  0  0  0  0  0  0  0  0  0
    0.0000   -2.7762    0.0000 C    0  0  0  0  0  0  0  0  0  0  0  0
    0.0122   -1.4431    0.0000 C    0  0  0  0  0  0  0  0  0  0  0  0
    1.1496   -0.7827    0.0000 C    0  0  0  0  0  0  0  0  0  0  0  0
    2.3114   -1.4553    0.0000 C    0  0  0  0  0  0  0  0  0  0  0  0
    4.1337   -2.2870    0.0000 C    0  0  0  0  0  0  0  0  0  0  0  0
    3.4610   -1.1496    0.0000 C    0  0  0  0  0  0  0  0  0  0  0  0
    4.1337    0.0000    0.0000 C    0  0  0  0  0  0  0  0  0  0  0  0
    5.4667    0.0000    0.0000 C    0  0  0  0  0  0  0  0  0  0  0  0
    6.1271   -1.1496    0.0000 C    0  0  0  0  0  0  0  0  0  0  0  0
    5.4545   -2.3114    0.0000 C    0  0  0  0  0  0  0  0  0  0  0  0
   12.2298   -3.7179    0.0000 Br   0  5  0  0  0  0  0  0  0  0  0  0
  1  2  1  0  0  0  0
  2  3  1  0  0  0  0
  3  4  1  0  0  0  0
  3  8  1  0  0  0  0
  3  9  1  0  0  0  0
  4  5  1  0  0  0  0
  5  6  1  0  0  0  0
  6  7  1  0  0  0  0
  7  8  1  0  0  0  0
  9 10  1  0  0  0  0
 10 11  1  0  0  0  0
 11 12  1  0  0  0  0
 12 13  2  0  0  0  0
 12 14  1  0  0  0  0
 14 15  1  0  0  0  0
 14 16  1  0  0  0  0
 14 22  1  0  0  0  0
 16 17  2  0  0  0  0
 16 21  1  0  0  0  0
 17 18  1  0  0  0  0
 18 19  2  0  0  0  0
 19 20  1  0  0  0  0
 20 21  2  0  0  0  0
 22 23  2  0  0  0  0
 22 27  1  0  0  0  0
 23 24  1  0  0  0  0
 24 25  2  0  0  0  0
 25 26  1  0  0  0  0
 26 27  2  0  0  0  0
M  END
> <ID>
11878

> <Formula>
C23H30BrNO3

> <FW>
448.3932 (368.4887+79.9045)

> <DSSTox_CID>
26677

> <DSSTox_RID>
81813

> <DSSTox_GSID>
46677

> <DSSTox_FileID_Sort>
6494

> <TS_ChemName>
Pipethanate ethylbromide

> <TS_ChemName_Synonyms>


> <TS_CASRN>
23182-46-9

> <CASRN_ChemName_Relationship>
primary

> <TS_Description>
single chemical compound

> <ChemNote>
ammonium; parent [23795-19-9]

> <STRUCTURE_Shown>
tested chemical

> <STRUCTURE_Formula>
C23H30BrNO3

> <STRUCTURE_MW>
448.3932

> <STRUCTURE_ChemType>
defined organic

> <STRUCTURE_DefinedOrganicForm>
salt

> <STRUCTURE_IUPAC>
1-ethyl-1-(2-{[hydroxy(diphenyl)acetyl]oxy}ethyl)piperidinium bromide

> <STRUCTURE_SMILES>
[Br-].CC[N+]3(CCOC(=O)C(O)(c1ccccc1)c2ccccc2)CCCCC3

> <STRUCTURE_SMILES_Desalt>
CC[N+]3(CCOC(=O)C(O)(c1ccccc1)c2ccccc2)CCCCC3

> <Substance_modify_yyyymmdd>
20110808

$$$$
