23184-66-9
ChemmineR-0915142007XD

 21 21  0  0  0  0  0  0  0  0  1 V2000
    3.4459   -1.9863    0.0000 N    0  0  0  0  0  0  0  0  0  0  0  0
    2.3096   -2.6791    0.0000 C    0  0  0  0  0  0  0  0  0  0  0  0
    3.4459   -0.6559    0.0000 C    0  0  0  0  0  0  0  0  0  0  0  0
    2.3096    0.0000    0.0000 O    0  0  0  0  0  0  0  0  0  0  0  0
    2.3096   -4.0095    0.0000 C    0  0  0  0  0  0  0  0  0  0  0  0
    1.1363   -1.9863    0.0000 C    0  0  0  0  0  0  0  0  0  0  0  0
    4.6192   -2.6791    0.0000 C    0  0  0  0  0  0  0  0  0  0  0  0
    4.6192    0.0000    0.0000 C    0  0  0  0  0  0  0  0  0  0  0  0
    5.7555   -0.6559    0.0000 Cl   0  0  0  0  0  0  0  0  0  0  0  0
    4.6192   -4.0095    0.0000 O    0  0  0  0  0  0  0  0  0  0  0  0
    0.0000   -4.0095    0.0000 C    0  0  0  0  0  0  0  0  0  0  0  0
    0.0000   -2.6791    0.0000 C    0  0  0  0  0  0  0  0  0  0  0  0
    1.1363   -4.6654    0.0000 C    0  0  0  0  0  0  0  0  0  0  0  0
    1.1363   -0.6559    0.0000 C    0  0  0  0  0  0  0  0  0  0  0  0
    3.4459   -4.6654    0.0000 C    0  0  0  0  0  0  0  0  0  0  0  0
    5.7555   -4.6654    0.0000 C    0  0  0  0  0  0  0  0  0  0  0  0
    6.9288   -4.0095    0.0000 C    0  0  0  0  0  0  0  0  0  0  0  0
    8.0836   -4.6654    0.0000 C    0  0  0  0  0  0  0  0  0  0  0  0
    3.4459   -5.9957    0.0000 C    0  0  0  0  0  0  0  0  0  0  0  0
    0.0000    0.0000    0.0000 C    0  0  0  0  0  0  0  0  0  0  0  0
    9.2384   -4.0095    0.0000 C    0  0  0  0  0  0  0  0  0  0  0  0
  1  2  1  0  0  0  0
  1  3  1  0  0  0  0
  1  7  1  0  0  0  0
  2  5  1  0  0  0  0
  2  6  2  0  0  0  0
  3  4  2  0  0  0  0
  3  8  1  0  0  0  0
  5 13  2  0  0  0  0
  5 15  1  0  0  0  0
  6 12  1  0  0  0  0
  6 14  1  0  0  0  0
  7 10  1  0  0  0  0
  8  9  1  0  0  0  0
 10 16  1  0  0  0  0
 11 12  2  0  0  0  0
 11 13  1  0  0  0  0
 14 20  1  0  0  0  0
 15 19  1  0  0  0  0
 16 17  1  0  0  0  0
 17 18  1  0  0  0  0
 18 21  1  0  0  0  0
M  END
> <ID>
6777

> <Formula>
C17H26ClNO2

> <FW>
311.8468

> <DSSTox_CID>
14402

> <DSSTox_RID>
79154

> <DSSTox_GSID>
34402

> <DSSTox_FileID_Sort>
3836

> <TS_ChemName>
Butachlor

> <TS_ChemName_Synonyms>


> <TS_CASRN>
23184-66-9

> <CASRN_ChemName_Relationship>
primary

> <TS_Description>
single chemical compound

> <ChemNote>


> <STRUCTURE_Shown>
tested chemical

> <STRUCTURE_Formula>
C17H26ClNO2

> <STRUCTURE_MW>
311.8468

> <STRUCTURE_ChemType>
defined organic

> <STRUCTURE_DefinedOrganicForm>
parent

> <STRUCTURE_IUPAC>
N-(butoxymethyl)-2-chloro-N-(2,6-diethylphenyl)acetamide

> <STRUCTURE_SMILES>
ClCC(=O)N(COCCCC)c1c(cccc1CC)CC

> <STRUCTURE_SMILES_Desalt>
ClCC(=O)N(COCCCC)c1c(cccc1CC)CC

> <Substance_modify_yyyymmdd>
20080429

$$$$
