2318-25-4
ChemmineR-0915142007XD

 12 10  0  0  0  0  0  0  0  0  1 V2000
    9.5580    0.0000    0.0000 Cl   0  0  0  0  0  0  0  0  0  0  0  0
    5.7539   -2.4086    0.0000 C    0  0  0  0  0  0  0  0  0  0  0  0
    5.7539   -1.0705    0.0000 O    0  0  0  0  0  0  0  0  0  0  0  0
    6.8913   -3.0777    0.0000 O    0  0  0  0  0  0  0  0  0  0  0  0
    4.6070   -3.0586    0.0000 C    0  0  0  0  0  0  0  0  0  0  0  0
    3.4600   -2.3895    0.0000 C    0  0  0  0  0  0  0  0  0  0  0  0
    2.3130   -3.0490    0.0000 O    0  0  0  0  0  0  0  0  0  0  0  0
    1.1565   -2.3704    0.0000 C    0  0  0  0  0  0  0  0  0  0  0  0
    0.0000   -3.0490    0.0000 C    0  0  0  0  0  0  0  0  0  0  0  0
    3.4600   -1.0705    0.0000 N    0  0  0  0  0  0  0  0  0  0  0  0
    8.0479   -2.4086    0.0000 C    0  0  0  0  0  0  0  0  0  0  0  0
    9.2044   -3.0777    0.0000 C    0  0  0  0  0  0  0  0  0  0  0  0
  2  3  2  0  0  0  0
  2  4  1  0  0  0  0
  2  5  1  0  0  0  0
  4 11  1  0  0  0  0
  5  6  1  0  0  0  0
  6  7  1  0  0  0  0
  6 10  2  0  0  0  0
  7  8  1  0  0  0  0
  8  9  1  0  0  0  0
 11 12  1  0  0  0  0
M  END
> <ID>
12150

> <Formula>
C7H14ClNO3

> <FW>
195.6440 (36.4609+159.1830)

> <DSSTox_CID>
26994

> <DSSTox_RID>
82041

> <DSSTox_GSID>
46994

> <DSSTox_FileID_Sort>
6722

> <TS_ChemName>
Propanoic acid, 3-ethoxy-3-imino-, ethyl ester, hydrochloride

> <TS_ChemName_Synonyms>


> <TS_CASRN>
2318-25-4

> <CASRN_ChemName_Relationship>
primary

> <TS_Description>
single chemical compound

> <ChemNote>
parent [27317-59-5]

> <STRUCTURE_Shown>
tested chemical

> <STRUCTURE_Formula>
C7H14ClNO3

> <STRUCTURE_MW>
195.644

> <STRUCTURE_ChemType>
defined organic

> <STRUCTURE_DefinedOrganicForm>
complex

> <STRUCTURE_IUPAC>
ethyl 3-ethoxy-3-iminopropanoate hydrochloride (1:1)

> <STRUCTURE_SMILES>
Cl.O=C(CC(=N)OCC)OCC

> <STRUCTURE_SMILES_Desalt>
O=C(CC(=N)OCC)OCC

> <Substance_modify_yyyymmdd>
20100317

$$$$
