23210-56-2
ChemmineR-0915142007XD

 24 26  0  0  0  0  0  0  0  0  1 V2000
    4.6592    0.0000    0.0000 C   0  0  0  0  0  0  0  0  0  0  0  0
    3.9891   -1.1595    0.0000 C   0  0  0  0  0  0  0  0  0  0  0  0
    2.6594   -1.1595    0.0000 C   0  0  0  0  0  0  0  0  0  0  0  0
    1.9892    0.0000    0.0000 O   0  0  0  0  0  0  0  0  0  0  0  0
    1.9892   -2.3083    0.0000 C   0  0  0  0  0  0  0  0  0  0  0  0
    2.6594   -3.4572    0.0000 C   0  0  0  0  0  0  0  0  0  0  0  0
    1.9892   -4.6060    0.0000 C   0  0  0  0  0  0  0  0  0  0  0  0
    0.6595   -4.6060    0.0000 C   0  0  0  0  0  0  0  0  0  0  0  0
    0.0000   -5.7655    0.0000 O   0  0  0  0  0  0  0  0  0  0  0  0
    0.0000   -3.4572    0.0000 C   0  0  0  0  0  0  0  0  0  0  0  0
    0.6595   -2.3083    0.0000 C   0  0  0  0  0  0  0  0  0  0  0  0
    4.6592   -2.3083    0.0000 N   0  0  0  0  0  0  0  0  0  0  0  0
    5.9889   -2.3083    0.0000 C   0  0  0  0  0  0  0  0  0  0  0  0
    6.6484   -3.4572    0.0000 C   0  0  0  0  0  0  0  0  0  0  0  0
    5.9889   -4.6060    0.0000 C   0  0  0  0  0  0  0  0  0  0  0  0
    4.6592   -4.6060    0.0000 C   0  0  0  0  0  0  0  0  0  0  0  0
    3.9891   -3.4572    0.0000 C   0  0  0  0  0  0  0  0  0  0  0  0
    6.6484   -5.7655    0.0000 C   0  0  0  0  0  0  0  0  0  0  0  0
    7.9781   -5.7655    0.0000 C   0  0  0  0  0  0  0  0  0  0  0  0
    8.6483   -4.6060    0.0000 C   0  0  0  0  0  0  0  0  0  0  0  0
    9.9673   -4.6060    0.0000 C   0  0  0  0  0  0  0  0  0  0  0  0
   10.6375   -5.7655    0.0000 C   0  0  0  0  0  0  0  0  0  0  0  0
    9.9673   -6.9144    0.0000 C   0  0  0  0  0  0  0  0  0  0  0  0
    8.6483   -6.9144    0.0000 C   0  0  0  0  0  0  0  0  0  0  0  0
  1  2  1  0  0  0  0
  2  3  1  0  0  0  0
  2 12  1  0  0  0  0
  3  4  1  0  0  0  0
  3  5  1  0  0  0  0
  5  6  2  0  0  0  0
  5 11  1  0  0  0  0
  6  7  1  0  0  0  0
  7  8  2  0  0  0  0
  8  9  1  0  0  0  0
  8 10  1  0  0  0  0
 10 11  2  0  0  0  0
 12 13  1  0  0  0  0
 12 17  1  0  0  0  0
 13 14  1  0  0  0  0
 14 15  1  0  0  0  0
 15 16  1  0  0  0  0
 15 18  1  0  0  0  0
 16 17  1  0  0  0  0
 18 19  1  0  0  0  0
 19 20  2  0  0  0  0
 19 24  1  0  0  0  0
 20 21  1  0  0  0  0
 21 22  2  0  0  0  0
 22 23  1  0  0  0  0
 23 24  2  0  0  0  0
M  END
> <ID>
11102

> <Formula>
C21H27NO2

> <FW>
325.4446

> <DSSTox_CID>
25656

> <DSSTox_RID>
81034

> <DSSTox_GSID>
45656

> <DSSTox_FileID_Sort>
5715

> <TS_ChemName>
Ifenprodil

> <TS_ChemName_Synonyms>


> <TS_CASRN>
23210-56-2

> <CASRN_ChemName_Relationship>
primary

> <TS_Description>
single chemical compound

> <ChemNote>


> <STRUCTURE_Shown>
tested chemical

> <STRUCTURE_Formula>
C21H27NO2

> <STRUCTURE_MW>
325.4446

> <STRUCTURE_ChemType>
defined organic

> <STRUCTURE_DefinedOrganicForm>
parent

> <STRUCTURE_IUPAC>
4-[2-(4-benzylpiperidin-1-yl)-1-hydroxypropyl]phenol

> <STRUCTURE_SMILES>
OC(C(C)N1CCC(CC1)Cc2ccccc2)c3ccc(O)cc3

> <STRUCTURE_SMILES_Desalt>
OC(C(C)N1CCC(CC1)Cc2ccccc2)c3ccc(O)cc3

> <Substance_modify_yyyymmdd>
20100107

$$$$
