2321-07-5
ChemmineR-0915142007XD

 25 29  0  0  0  0  0  0  0  0  1 V2000
    9.2138   -5.7771    0.0000 O   0  0  0  0  0  0  0  0  0  0  0  0
    8.0621   -5.1229    0.0000 C   0  0  0  0  0  0  0  0  0  0  0  0
    6.9104   -5.7771    0.0000 C   0  0  0  0  0  0  0  0  0  0  0  0
    5.7587   -5.1229    0.0000 C   0  0  0  0  0  0  0  0  0  0  0  0
    5.7587   -3.7961    0.0000 C   0  0  0  0  0  0  0  0  0  0  0  0
    6.9104   -3.1235    0.0000 C   0  0  0  0  0  0  0  0  0  0  0  0
    8.0621   -3.7961    0.0000 C   0  0  0  0  0  0  0  0  0  0  0  0
    4.6069   -3.1235    0.0000 C   0  0  0  0  0  0  0  0  0  0  0  0
    3.5289   -2.3403    0.0000 C   0  0  0  0  0  0  0  0  0  0  0  0
    2.2297   -2.6259    0.0000 C   0  0  0  0  0  0  0  0  0  0  0  0
    1.3268   -1.6308    0.0000 C   0  0  0  0  0  0  0  0  0  0  0  0
    1.7506   -0.3593    0.0000 C   0  0  0  0  0  0  0  0  0  0  0  0
    3.0498   -0.0921    0.0000 C   0  0  0  0  0  0  0  0  0  0  0  0
    3.9527   -1.0596    0.0000 C   0  0  0  0  0  0  0  0  0  0  0  0
    5.2611   -1.0596    0.0000 C   0  0  0  0  0  0  0  0  0  0  0  0
    5.6849   -2.3403    0.0000 O   0  0  0  0  0  0  0  0  0  0  0  0
    6.0627    0.0000    0.0000 O   0  0  0  0  0  0  0  0  0  0  0  0
    3.4552   -3.7961    0.0000 C   0  0  0  0  0  0  0  0  0  0  0  0
    3.4552   -5.1229    0.0000 C   0  0  0  0  0  0  0  0  0  0  0  0
    2.3035   -5.7771    0.0000 C   0  0  0  0  0  0  0  0  0  0  0  0
    1.1517   -5.1229    0.0000 C   0  0  0  0  0  0  0  0  0  0  0  0
    0.0000   -5.7771    0.0000 O   0  0  0  0  0  0  0  0  0  0  0  0
    1.1517   -3.7961    0.0000 C   0  0  0  0  0  0  0  0  0  0  0  0
    2.3035   -3.1235    0.0000 C   0  0  0  0  0  0  0  0  0  0  0  0
    4.6069   -5.7771    0.0000 O   0  0  0  0  0  0  0  0  0  0  0  0
  1  2  1  0  0  0  0
  2  3  2  0  0  0  0
  2  7  1  0  0  0  0
  3  4  1  0  0  0  0
  4  5  2  0  0  0  0
  4 25  1  0  0  0  0
  5  6  1  0  0  0  0
  5  8  1  0  0  0  0
  6  7  2  0  0  0  0
  8  9  1  0  0  0  0
  8 16  1  0  0  0  0
  8 18  1  0  0  0  0
  9 10  1  0  0  0  0
  9 14  2  0  0  0  0
 10 11  2  0  0  0  0
 11 12  1  0  0  0  0
 12 13  2  0  0  0  0
 13 14  1  0  0  0  0
 14 15  1  0  0  0  0
 15 16  1  0  0  0  0
 15 17  2  0  0  0  0
 18 19  2  0  0  0  0
 18 24  1  0  0  0  0
 19 20  1  0  0  0  0
 19 25  1  0  0  0  0
 20 21  2  0  0  0  0
 21 22  1  0  0  0  0
 21 23  1  0  0  0  0
 23 24  2  0  0  0  0
M  END
> <ID>
7534

> <Formula>
C20H12O5

> <FW>
332.3063

> <DSSTox_CID>
18887

> <DSSTox_RID>
79416

> <DSSTox_GSID>
38887

> <DSSTox_FileID_Sort>
4098

> <TS_ChemName>
Fluorescein

> <TS_ChemName_Synonyms>


> <TS_CASRN>
2321-07-5

> <CASRN_ChemName_Relationship>
primary

> <TS_Description>
single chemical compound

> <ChemNote>


> <STRUCTURE_Shown>
tested chemical

> <STRUCTURE_Formula>
C20H12O5

> <STRUCTURE_MW>
332.3063

> <STRUCTURE_ChemType>
defined organic

> <STRUCTURE_DefinedOrganicForm>
parent

> <STRUCTURE_IUPAC>
3',6'-dihydroxy-3H-spiro[2-benzofuran-1,9'-xanthen]-3-one

> <STRUCTURE_SMILES>
Oc4cc5Oc1cc(O)ccc1C3(OC(=O)c2ccccc23)c5cc4

> <STRUCTURE_SMILES_Desalt>
Oc4cc5Oc1cc(O)ccc1C3(OC(=O)c2ccccc23)c5cc4

> <Substance_modify_yyyymmdd>
20080429

$$$$
