23239-51-2
ChemmineR-0915142007XD

 22 22  0  0  1  0  0  0  0  0  1 V2000
    4.5951   -1.3385    0.0000 C    0  0  0  0  0  0  0  0  0  0  0  0
    3.4360   -2.0009    0.0000 C    0  0  0  0  0  0  0  0  0  0  0  0
    3.4360   -3.3394    0.0000 C    0  0  0  0  0  0  0  0  0  0  0  0
    2.3045   -1.3385    0.0000 C    0  0  0  0  0  0  0  0  0  0  0  0
    5.7404   -2.0009    0.0000 C    0  0  0  0  0  0  0  0  0  0  0  0
    6.8996   -1.3385    0.0000 N    0  0  0  0  0  0  0  0  0  0  0  0
    1.1453   -3.3394    0.0000 C    0  0  0  0  0  0  0  0  0  0  0  0
   12.6400   -3.3394    0.0000 C    0  0  0  0  0  0  0  0  0  0  0  0
    2.3045   -4.0017    0.0000 C    0  0  0  0  0  0  0  0  0  0  0  0
    1.1453   -2.0009    0.0000 C    0  0  0  0  0  0  0  0  0  0  0  0
    4.5951    0.0000    0.0000 O    0  0  0  0  0  0  0  0  0  0  0  0
   10.3355   -2.0009    0.0000 C    0  0  0  0  0  0  0  0  0  0  0  0
   11.4947   -4.0017    0.0000 C    0  0  0  0  0  0  0  0  0  0  0  0
   12.6400   -2.0009    0.0000 C    0  0  0  0  0  0  0  0  0  0  0  0
   10.3355   -3.3394    0.0000 C    0  0  0  0  0  0  0  0  0  0  0  0
   11.4947   -1.3385    0.0000 C    0  0  0  0  0  0  0  0  0  0  0  0
    8.0449   -2.0009    0.0000 C    0  0  0  0  0  0  0  0  0  0  0  0
   13.7991   -4.0017    0.0000 O    0  0  0  0  0  0  0  0  0  0  0  0
    0.0000   -4.0017    0.0000 O    0  0  0  0  0  0  0  0  0  0  0  0
    9.2040   -1.3385    0.0000 C    0  0  0  0  0  0  0  0  0  0  0  0
    5.7404   -3.3394    0.0000 C    0  0  0  0  0  0  0  0  0  0  0  0
    8.3761   -4.1121    0.0000 Cl   0  0  0  0  0  0  0  0  0  0  0  0
  1  2  1  0  0  0  0
  1  5  1  0  0  0  0
  1 11  1  1  0  0  0
  2  3  2  0  0  0  0
  2  4  1  0  0  0  0
  3  9  1  0  0  0  0
  4 10  2  0  0  0  0
  5  6  1  0  0  0  0
  5 21  1  1  0  0  0
  6 17  1  0  0  0  0
  7 10  1  0  0  0  0
  7 19  1  0  0  0  0
  7  9  2  0  0  0  0
  8 14  1  0  0  0  0
  8 18  1  0  0  0  0
  8 13  2  0  0  0  0
 12 20  1  0  0  0  0
 12 15  2  0  0  0  0
 12 16  1  0  0  0  0
 13 15  1  0  0  0  0
 14 16  2  0  0  0  0
 17 20  1  0  0  0  0
M  END
> <ID>
10947

> <Formula>
C17H22ClNO3

> <FW>
323.8145 (287.3535+36.4609)

> <DSSTox_CID>
25438

> <DSSTox_RID>
80879

> <DSSTox_GSID>
45438

> <DSSTox_FileID_Sort>
5560

> <TS_ChemName>
Ritodrine hydrochloride

> <TS_ChemName_Synonyms>


> <TS_CASRN>
23239-51-2

> <CASRN_ChemName_Relationship>
primary

> <TS_Description>
single chemical compound

> <ChemNote>
stereochem; parent [26652-09-5 ]

> <STRUCTURE_Shown>
tested chemical

> <STRUCTURE_Formula>
C17H22ClNO3

> <STRUCTURE_MW>
323.8145

> <STRUCTURE_ChemType>
defined organic

> <STRUCTURE_DefinedOrganicForm>
complex

> <STRUCTURE_IUPAC>
4-[(1R,2S)-1-hydroxy-2-{[2-(4-hydroxyphenyl)ethyl]amino}propyl]phenol hydrochloride (1:1)

> <STRUCTURE_SMILES>
Cl.O[C@H](c1ccc(O)cc1)[C@H](C)NCCc2ccc(O)cc2

> <STRUCTURE_SMILES_Desalt>
O[C@H](c1ccc(O)cc1)[C@H](C)NCCc2ccc(O)cc2

> <Substance_modify_yyyymmdd>
20100107

$$$$
