23235-61-2
ChemmineR-0915142007XD

 17 16  0  0  0  0  0  0  0  0  1 V2000
    6.9077   -2.3087    0.0000 C   0  0  0  0  0  0  0  0  0  0  0  0
    5.7487   -1.6372    0.0000 C   0  0  0  0  0  0  0  0  0  0  0  0
    7.5607   -1.1589    0.0000 C   0  0  0  0  0  0  0  0  0  0  0  0
    6.2362   -3.4676    0.0000 C   0  0  0  0  0  0  0  0  0  0  0  0
    8.0482   -2.9709    0.0000 C   0  0  0  0  0  0  0  0  0  0  0  0
    4.6174   -2.3087    0.0000 O   0  0  0  0  0  0  0  0  0  0  0  0
    6.9077    0.0000    0.0000 C   0  0  0  0  0  0  0  0  0  0  0  0
    6.9077   -4.6174    0.0000 O   0  0  0  0  0  0  0  0  0  0  0  0
    9.1980   -2.3087    0.0000 O   0  0  0  0  0  0  0  0  0  0  0  0
    3.4584   -1.6372    0.0000 C   0  0  0  0  0  0  0  0  0  0  0  0
    2.3087   -2.3087    0.0000 C   0  0  0  0  0  0  0  0  0  0  0  0
    1.6372   -1.1589    0.0000 C   0  0  0  0  0  0  0  0  0  0  0  0
    2.9617   -3.4676    0.0000 C   0  0  0  0  0  0  0  0  0  0  0  0
    1.1497   -2.9709    0.0000 C   0  0  0  0  0  0  0  0  0  0  0  0
    2.3087    0.0000    0.0000 C   0  0  0  0  0  0  0  0  0  0  0  0
    2.3087   -4.6174    0.0000 O   0  0  0  0  0  0  0  0  0  0  0  0
    0.0000   -2.3087    0.0000 O   0  0  0  0  0  0  0  0  0  0  0  0
  1  2  1  0  0  0  0
  1  3  1  0  0  0  0
  1  4  1  0  0  0  0
  1  5  1  0  0  0  0
  2  6  1  0  0  0  0
  3  7  1  0  0  0  0
  4  8  1  0  0  0  0
  5  9  1  0  0  0  0
  6 10  1  0  0  0  0
 10 11  1  0  0  0  0
 11 12  1  0  0  0  0
 11 13  1  0  0  0  0
 11 14  1  0  0  0  0
 12 15  1  0  0  0  0
 13 16  1  0  0  0  0
 14 17  1  0  0  0  0
M  END
> <ID>
10526

> <Formula>
C12H26O5

> <FW>
250.3318

> <DSSTox_CID>
24879

> <DSSTox_RID>
80553

> <DSSTox_GSID>
44879

> <DSSTox_FileID_Sort>
5235

> <TS_ChemName>
2,2'-(Oxydimethanediyl)bis(2-ethylpropane-1,3-diol)

> <TS_ChemName_Synonyms>
2,2'-(Oxydimethanediyl)bis(2-ethylpropane-1,3-diol) (1,3-Propanediol, 2,2'-[oxybis(methylene)]bis[2-ethyl-) (Di(trimethylolpropane))

> <TS_CASRN>
23235-61-2

> <CASRN_ChemName_Relationship>
primary

> <TS_Description>
single chemical compound

> <ChemNote>


> <STRUCTURE_Shown>
tested chemical

> <STRUCTURE_Formula>
C12H26O5

> <STRUCTURE_MW>
250.3318

> <STRUCTURE_ChemType>
defined organic

> <STRUCTURE_DefinedOrganicForm>
parent

> <STRUCTURE_IUPAC>
2,2'-(oxydimethanediyl)bis(2-ethylpropane-1,3-diol)

> <STRUCTURE_SMILES>
OCC(COCC(CO)(CC)CO)(CC)CO

> <STRUCTURE_SMILES_Desalt>
OCC(COCC(CO)(CC)CO)(CC)CO

> <Substance_modify_yyyymmdd>
20091116

$$$$
