23249-97-0
ChemmineR-0915142007XD

 14 15  0  0  0  0  0  0  0  0  1 V2000
    3.5707   -2.4000    0.0000 N   0  0  0  0  0  0  0  0  0  0  0  0
    4.3400   -1.3129    0.0000 C   0  0  0  0  0  0  0  0  0  0  0  0
    3.5707   -0.2592    0.0000 N   0  0  0  0  0  0  0  0  0  0  0  0
    2.3247   -1.9902    0.0000 C   0  0  0  0  0  0  0  0  0  0  0  0
    2.3247   -0.6606    0.0000 C   0  0  0  0  0  0  0  0  0  0  0  0
    7.6933   -2.4669    0.0000 C   0  0  0  0  0  0  0  0  0  0  0  0
    8.3455   -1.3129    0.0000 O   0  0  0  0  0  0  0  0  0  0  0  0
    5.6863   -1.3129    0.0000 C   0  0  0  0  0  0  0  0  0  0  0  0
    6.3469   -2.4669    0.0000 C   0  0  0  0  0  0  0  0  0  0  0  0
    8.3622   -3.6209    0.0000 O   0  0  0  0  0  0  0  0  0  0  0  0
    1.1707   -2.6592    0.0000 C   0  0  0  0  0  0  0  0  0  0  0  0
    1.1707    0.0000    0.0000 C   0  0  0  0  0  0  0  0  0  0  0  0
    0.0000   -1.9902    0.0000 C   0  0  0  0  0  0  0  0  0  0  0  0
    0.0000   -0.6690    0.0000 C   0  0  0  0  0  0  0  0  0  0  0  0
  1  2  2  0  0  0  0
  1  4  1  0  0  0  0
  2  3  1  0  0  0  0
  2  8  1  0  0  0  0
  3  5  1  0  0  0  0
  4  5  2  0  0  0  0
  4 11  1  0  0  0  0
  5 12  1  0  0  0  0
  6  9  1  0  0  0  0
  6  7  2  0  0  0  0
  6 10  1  0  0  0  0
  8  9  1  0  0  0  0
 11 13  2  0  0  0  0
 12 14  2  0  0  0  0
 13 14  1  0  0  0  0
M  END
> <ID>
10735

> <Formula>
C10H10N2O2

> <FW>
190.1986

> <DSSTox_CID>
25093

> <DSSTox_RID>
80666

> <DSSTox_GSID>
45093

> <DSSTox_FileID_Sort>
5348

> <TS_ChemName>
Procodazole

> <TS_ChemName_Synonyms>


> <TS_CASRN>
23249-97-0

> <CASRN_ChemName_Relationship>
primary

> <TS_Description>
single chemical compound

> <ChemNote>


> <STRUCTURE_Shown>
tested chemical

> <STRUCTURE_Formula>
C10H10N2O2

> <STRUCTURE_MW>
190.1986

> <STRUCTURE_ChemType>
defined organic

> <STRUCTURE_DefinedOrganicForm>
parent

> <STRUCTURE_IUPAC>
3-(1H-benzimidazol-2-yl)propanoic acid

> <STRUCTURE_SMILES>
O=C(O)CCc1nc2ccccc2n1

> <STRUCTURE_SMILES_Desalt>
O=C(O)CCc1nc2ccccc2n1

> <Substance_modify_yyyymmdd>
20100107

$$$$
