23255-99-4
ChemmineR-0915142007XD

 22 23  0  0  0  0  0  0  0  0  2 V2000
    2.3074   -2.8386    0.0000 C    0  0  0  0  0  0  0  0  0  0  0  0
    2.3074   -4.1665    0.0000 C    0  0  0  0  0  0  0  0  0  0  0  0
    3.5772   -2.4236    0.0000 N    0  0  0  0  0  0  0  0  0  0  0  0
    1.1537   -2.1663    0.0000 C    0  0  0  0  0  0  0  0  0  0  0  0
    3.5772   -4.5815    0.0000 C    0  0  0  0  0  0  0  0  0  0  0  0
    1.1537   -4.8222    0.0000 C    0  0  0  0  0  0  0  0  0  0  0  0
    4.3574   -3.4942    0.0000 N    0  0  0  0  0  0  0  0  0  0  0  0
    3.9922   -1.1537    0.0000 C    0  0  0  0  0  0  0  0  0  0  0  0
    0.0000   -2.8386    0.0000 C    0  0  0  0  0  0  0  0  0  0  0  0
    3.9922   -5.8348    0.0000 O    0  0  0  0  0  0  0  0  0  0  0  0
    0.0000   -4.1665    0.0000 C    0  0  0  0  0  0  0  0  0  0  0  0
    5.3202   -1.1537    0.0000 C    0  0  0  0  0  0  0  0  0  0  0  0
    5.3202   -5.8348    0.0000 C    0  0  0  0  0  0  0  0  0  0  0  0
    5.9759    0.0000    0.0000 C    0  0  0  0  0  0  0  0  0  0  0  0
    5.9759   -2.3074    0.0000 C    0  0  0  0  0  0  0  0  0  0  0  0
    5.9759   -6.9885    0.0000 C    0  0  0  0  0  0  0  0  0  0  0  0
    7.3039    0.0000    0.0000 C    0  0  0  0  0  0  0  0  0  0  0  0
    7.3039   -2.3074    0.0000 C    0  0  0  0  0  0  0  0  0  0  0  0
    5.3202   -8.1422    0.0000 O    0  5  0  0  0  0  0  0  0  0  0  0
    7.3039   -6.9885    0.0000 O    0  0  0  0  0  0  0  0  0  0  0  0
    7.9762   -1.1537    0.0000 C    0  0  0  0  0  0  0  0  0  0  0  0
    7.1628   -8.2999    0.0000 Na   0  3  0  0  0  0  0  0  0  0  0  0
  1  2  2  0  0  0  0
  1  3  1  0  0  0  0
  1  4  1  0  0  0  0
  2  5  1  0  0  0  0
  2  6  1  0  0  0  0
  3  7  1  0  0  0  0
  3  8  1  0  0  0  0
  4  9  2  0  0  0  0
  5 10  1  0  0  0  0
  5  7  2  0  0  0  0
  6 11  2  0  0  0  0
  8 12  1  0  0  0  0
  9 11  1  0  0  0  0
 10 13  1  0  0  0  0
 12 14  2  0  0  0  0
 12 15  1  0  0  0  0
 13 16  1  0  0  0  0
 14 17  1  0  0  0  0
 15 18  2  0  0  0  0
 16 19  1  0  0  0  0
 16 20  2  0  0  0  0
 17 21  2  0  0  0  0
 18 21  1  0  0  0  0
M  END
> <ID>
11855

> <Formula>
C16H13N2NaO3

> <FW>
304.2758 (281.2866+22.9892)

> <DSSTox_CID>
26644

> <DSSTox_RID>
81790

> <DSSTox_GSID>
46644

> <DSSTox_FileID_Sort>
6471

> <TS_ChemName>
Bendazac sodium

> <TS_ChemName_Synonyms>


> <TS_CASRN>
23255-99-4

> <CASRN_ChemName_Relationship>
primary

> <TS_Description>
single chemical compound

> <ChemNote>
parent [20187-55-7]

> <STRUCTURE_Shown>
tested chemical

> <STRUCTURE_Formula>
C16H13N2NaO3

> <STRUCTURE_MW>
304.2758

> <STRUCTURE_ChemType>
defined organic

> <STRUCTURE_DefinedOrganicForm>
salt

> <STRUCTURE_IUPAC>
sodium [(1-benzyl-1H-indazol-3-yl)oxy]acetate

> <STRUCTURE_SMILES>
[Na+].[O-]C(=O)COc3nn(Cc1ccccc1)c2ccccc23

> <STRUCTURE_SMILES_Desalt>
O=C(O)COc3nn(Cc1ccccc1)c2ccccc23

> <Substance_modify_yyyymmdd>
20110808

$$$$
