23288-49-5
ChemmineR-0915142007XD

 35 36  0  0  0  0  0  0  0  0  1 V2000
    2.2972   -3.1413    0.0000 C   0  0  0  0  0  0  0  0  0  0  0  0
   11.5412   -3.1413    0.0000 C   0  0  0  0  0  0  0  0  0  0  0  0
    3.4596   -3.8194    0.0000 C   0  0  0  0  0  0  0  0  0  0  0  0
   10.3787   -3.8194    0.0000 C   0  0  0  0  0  0  0  0  0  0  0  0
    2.2972   -1.8267    0.0000 C   0  0  0  0  0  0  0  0  0  0  0  0
   11.5412   -1.8267    0.0000 C   0  0  0  0  0  0  0  0  0  0  0  0
    6.9192   -1.8267    0.0000 C   0  0  0  0  0  0  0  0  0  0  0  0
    9.2302   -1.8267    0.0000 C   0  0  0  0  0  0  0  0  0  0  0  0
    4.6082   -1.8267    0.0000 C   0  0  0  0  0  0  0  0  0  0  0  0
    5.7567   -1.1624    0.0000 S   0  0  0  0  0  0  0  0  0  0  0  0
    8.0816   -1.1624    0.0000 S   0  0  0  0  0  0  0  0  0  0  0  0
    1.1486   -1.1624    0.0000 C   0  0  0  0  0  0  0  0  0  0  0  0
    3.4596   -5.1479    0.0000 C   0  0  0  0  0  0  0  0  0  0  0  0
   10.3787   -5.1479    0.0000 C   0  0  0  0  0  0  0  0  0  0  0  0
   12.6897   -1.1624    0.0000 C   0  0  0  0  0  0  0  0  0  0  0  0
    4.6082   -3.1413    0.0000 C   0  0  0  0  0  0  0  0  0  0  0  0
    3.4596   -1.1624    0.0000 C   0  0  0  0  0  0  0  0  0  0  0  0
    9.2302   -3.1413    0.0000 C   0  0  0  0  0  0  0  0  0  0  0  0
   10.3787   -1.1624    0.0000 C   0  0  0  0  0  0  0  0  0  0  0  0
    1.1486   -3.8194    0.0000 O   0  0  0  0  0  0  0  0  0  0  0  0
   12.6897   -3.8194    0.0000 O   0  0  0  0  0  0  0  0  0  0  0  0
    3.4596   -6.4763    0.0000 C   0  0  0  0  0  0  0  0  0  0  0  0
    1.8128    0.0000    0.0000 C   0  0  0  0  0  0  0  0  0  0  0  0
   11.7072   -5.1479    0.0000 C   0  0  0  0  0  0  0  0  0  0  0  0
    9.0503   -5.1479    0.0000 C   0  0  0  0  0  0  0  0  0  0  0  0
   10.3787   -6.4763    0.0000 C   0  0  0  0  0  0  0  0  0  0  0  0
    0.0000   -0.4982    0.0000 C   0  0  0  0  0  0  0  0  0  0  0  0
   12.0255    0.0000    0.0000 C   0  0  0  0  0  0  0  0  0  0  0  0
   13.3540   -2.3110    0.0000 C   0  0  0  0  0  0  0  0  0  0  0  0
   13.8383   -0.4982    0.0000 C   0  0  0  0  0  0  0  0  0  0  0  0
    0.4843   -2.3110    0.0000 C   0  0  0  0  0  0  0  0  0  0  0  0
    4.7881   -5.1479    0.0000 C   0  0  0  0  0  0  0  0  0  0  0  0
    2.1311   -5.1479    0.0000 C   0  0  0  0  0  0  0  0  0  0  0  0
    6.2688   -2.9891    0.0000 C   0  0  0  0  0  0  0  0  0  0  0  0
    7.5972   -2.9752    0.0000 C   0  0  0  0  0  0  0  0  0  0  0  0
  1  3  1  0  0  0  0
  1  5  2  0  0  0  0
  1 20  1  0  0  0  0
  2  6  1  0  0  0  0
  2 21  1  0  0  0  0
  2  4  2  0  0  0  0
  3 13  1  0  0  0  0
  3 16  2  0  0  0  0
  4 18  1  0  0  0  0
  4 14  1  0  0  0  0
  5 12  1  0  0  0  0
  5 17  1  0  0  0  0
  6 19  2  0  0  0  0
  6 15  1  0  0  0  0
  7 10  1  0  0  0  0
  7 11  1  0  0  0  0
  7 34  1  0  0  0  0
  7 35  1  0  0  0  0
  8 11  1  0  0  0  0
  8 18  2  0  0  0  0
  8 19  1  0  0  0  0
  9 17  2  0  0  0  0
  9 10  1  0  0  0  0
  9 16  1  0  0  0  0
 12 23  1  0  0  0  0
 12 27  1  0  0  0  0
 12 31  1  0  0  0  0
 13 22  1  0  0  0  0
 13 32  1  0  0  0  0
 13 33  1  0  0  0  0
 14 24  1  0  0  0  0
 14 25  1  0  0  0  0
 14 26  1  0  0  0  0
 15 28  1  0  0  0  0
 15 29  1  0  0  0  0
 15 30  1  0  0  0  0
M  END
> <ID>
10949

> <Formula>
C31H48O2S2

> <FW>
516.8416

> <DSSTox_CID>
25440

> <DSSTox_RID>
80881

> <DSSTox_GSID>
45440

> <DSSTox_FileID_Sort>
5562

> <TS_ChemName>
Probucol

> <TS_ChemName_Synonyms>


> <TS_CASRN>
23288-49-5

> <CASRN_ChemName_Relationship>
primary

> <TS_Description>
single chemical compound

> <ChemNote>


> <STRUCTURE_Shown>
tested chemical

> <STRUCTURE_Formula>
C31H48O2S2

> <STRUCTURE_MW>
516.8416

> <STRUCTURE_ChemType>
defined organic

> <STRUCTURE_DefinedOrganicForm>
parent

> <STRUCTURE_IUPAC>
4,4'-(propane-2,2-diyldisulfanediyl)bis(2,6-di-tert-butylphenol)

> <STRUCTURE_SMILES>
CC(C)(C)c2cc(SC(C)(C)Sc1cc(c(O)c(c1)C(C)(C)C)C(C)(C)C)cc(c2O)C(C)(C)C

> <STRUCTURE_SMILES_Desalt>
CC(C)(C)c2cc(SC(C)(C)Sc1cc(c(O)c(c1)C(C)(C)C)C(C)(C)C)cc(c2O)C(C)(C)C

> <Substance_modify_yyyymmdd>
20100107

$$$$
