23305-64-8
ChemmineR-0915142007XD

 13 12  0  0  0  0  0  0  0  0  1 V2000
    1.1538    0.0000    0.0000 C   0  0  0  0  0  0  0  0  0  0  0  0
    2.3215   -0.6534    0.0000 C   0  0  0  0  0  0  0  0  0  0  0  0
    0.0000   -0.6534    0.0000 O   0  0  0  0  0  0  0  0  0  0  0  0
    3.4753    0.0000    0.0000 O   0  0  0  0  0  0  0  0  0  0  0  0
    4.6292   -0.6534    0.0000 C   0  0  0  0  0  0  0  0  0  0  0  0
    5.7969    0.0000    0.0000 C   0  0  0  0  0  0  0  0  0  0  0  0
    6.9507   -0.6534    0.0000 O   0  0  0  0  0  0  0  0  0  0  0  0
    8.1045    0.0000    0.0000 C   0  0  0  0  0  0  0  0  0  0  0  0
    9.2722   -0.6534    0.0000 C   0  0  0  0  0  0  0  0  0  0  0  0
   10.4260    0.0000    0.0000 O   0  0  0  0  0  0  0  0  0  0  0  0
   11.5799   -0.6534    0.0000 C   0  0  0  0  0  0  0  0  0  0  0  0
   12.7476    0.0000    0.0000 C   0  0  0  0  0  0  0  0  0  0  0  0
   13.9014   -0.6534    0.0000 C   0  0  0  0  0  0  0  0  0  0  0  0
  1  2  1  0  0  0  0
  1  3  1  0  0  0  0
  2  4  1  0  0  0  0
  4  5  1  0  0  0  0
  5  6  1  0  0  0  0
  6  7  1  0  0  0  0
  7  8  1  0  0  0  0
  8  9  1  0  0  0  0
  9 10  1  0  0  0  0
 10 11  1  0  0  0  0
 11 12  1  0  0  0  0
 12 13  1  0  0  0  0
M  END
> <ID>
10527

> <Formula>
C9H20O4

> <FW>
192.2527

> <DSSTox_CID>
24880

> <DSSTox_RID>
80554

> <DSSTox_GSID>
44880

> <DSSTox_FileID_Sort>
5236

> <TS_ChemName>
2-[2-(2-Propoxyethoxy)ethoxy]ethanol

> <TS_ChemName_Synonyms>
2-[2-(2-Propoxyethoxy)ethoxy]ethanol (Ethanol, 2-[2-(2-propoxyethoxy)ethoxy]-)

> <TS_CASRN>
23305-64-8

> <CASRN_ChemName_Relationship>
primary

> <TS_Description>
single chemical compound

> <ChemNote>


> <STRUCTURE_Shown>
tested chemical

> <STRUCTURE_Formula>
C9H20O4

> <STRUCTURE_MW>
192.2527

> <STRUCTURE_ChemType>
defined organic

> <STRUCTURE_DefinedOrganicForm>
parent

> <STRUCTURE_IUPAC>
2-[2-(2-propoxyethoxy)ethoxy]ethanol

> <STRUCTURE_SMILES>
OCCOCCOCCOCCC

> <STRUCTURE_SMILES_Desalt>
OCCOCCOCCOCCC

> <Substance_modify_yyyymmdd>
20091116

$$$$
