23327-57-3
ChemmineR-0915142007XD

 20 21  0  0  0  0  0  0  0  0  1 V2000
    2.2951   -4.4154    0.0000 C    0  0  0  0  0  0  0  0  0  0  0  0
    3.2401   -3.4942    0.0000 C    0  0  0  0  0  0  0  0  0  0  0  0
    2.2951   -5.7417    0.0000 C    0  0  0  0  0  0  0  0  0  0  0  0
    4.5425   -6.6788    0.0000 N    0  0  0  0  0  0  0  0  0  0  0  0
    3.2401   -6.6788    0.0000 C    0  0  0  0  0  0  0  0  0  0  0  0
    4.5425   -3.4942    0.0000 O    0  0  0  0  0  0  0  0  0  0  0  0
    2.5810   -2.3427    0.0000 C    0  0  0  0  0  0  0  0  0  0  0  0
    5.4875   -4.4154    0.0000 C    0  0  0  0  0  0  0  0  0  0  0  0
    5.4875   -5.7417    0.0000 C    0  0  0  0  0  0  0  0  0  0  0  0
    1.1515   -3.7642    0.0000 C    0  0  0  0  0  0  0  0  0  0  0  0
    5.0587   -7.9414    0.0000 C    0  0  0  0  0  0  0  0  0  0  0  0
    1.1515   -6.4087    0.0000 C    0  0  0  0  0  0  0  0  0  0  0  0
    3.2560   -1.1833    0.0000 C    0  0  0  0  0  0  0  0  0  0  0  0
    1.2468   -2.3427    0.0000 C    0  0  0  0  0  0  0  0  0  0  0  0
    0.0000   -4.4313    0.0000 C    0  0  0  0  0  0  0  0  0  0  0  0
    0.0000   -5.7258    0.0000 C    0  0  0  0  0  0  0  0  0  0  0  0
    0.5718   -1.1992    0.0000 C    0  0  0  0  0  0  0  0  0  0  0  0
    2.6127    0.0000    0.0000 C    0  0  0  0  0  0  0  0  0  0  0  0
    1.2786    0.0000    0.0000 C    0  0  0  0  0  0  0  0  0  0  0  0
    1.4056   -7.5603    0.0000 Cl   0  0  0  0  0  0  0  0  0  0  0  0
  1  2  1  0  0  0  0
  1  3  2  0  0  0  0
  1 10  1  0  0  0  0
  2  6  1  0  0  0  0
  2  7  1  0  0  0  0
  3  5  1  0  0  0  0
  3 12  1  0  0  0  0
  4  5  1  0  0  0  0
  4  9  1  0  0  0  0
  4 11  1  0  0  0  0
  6  8  1  0  0  0  0
  7 13  1  0  0  0  0
  7 14  2  0  0  0  0
  8  9  1  0  0  0  0
 10 15  2  0  0  0  0
 12 16  2  0  0  0  0
 13 18  2  0  0  0  0
 14 17  1  0  0  0  0
 15 16  1  0  0  0  0
 17 19  2  0  0  0  0
 18 19  1  0  0  0  0
M  END
> <ID>
10950

> <Formula>
C17H20ClNO

> <FW>
289.7998 (253.3389+36.4609)

> <DSSTox_CID>
25441

> <DSSTox_RID>
80882

> <DSSTox_GSID>
45441

> <DSSTox_FileID_Sort>
5563

> <TS_ChemName>
Nefopam hydrochloride

> <TS_ChemName_Synonyms>


> <TS_CASRN>
23327-57-3

> <CASRN_ChemName_Relationship>
primary

> <TS_Description>
single chemical compound

> <ChemNote>
parent [13669-70-0]

> <STRUCTURE_Shown>
tested chemical

> <STRUCTURE_Formula>
C17H20ClNO

> <STRUCTURE_MW>
289.7998

> <STRUCTURE_ChemType>
defined organic

> <STRUCTURE_DefinedOrganicForm>
complex

> <STRUCTURE_IUPAC>
5-methyl-1-phenyl-3,4,5,6-tetrahydro-1H-2,5-benzoxazocine hydrochloride (1:1)

> <STRUCTURE_SMILES>
Cl.CN1Cc3ccccc3C(OCC1)c2ccccc2

> <STRUCTURE_SMILES_Desalt>
CN1Cc3ccccc3C(OCC1)c2ccccc2

> <Substance_modify_yyyymmdd>
20100107

$$$$
