2338-76-3
ChemmineR-0915142007XD

 13 13  0  0  0  0  0  0  0  0  1 V2000
    3.8782   -3.4617    0.0000 C   0  0  0  0  0  0  0  0  0  0  0  0
    3.2247   -4.6251    0.0000 C   0  0  0  0  0  0  0  0  0  0  0  0
    1.8960   -4.6251    0.0000 C   0  0  0  0  0  0  0  0  0  0  0  0
    1.2425   -3.4760    0.0000 C   0  0  0  0  0  0  0  0  0  0  0  0
    1.8817   -2.3269    0.0000 C   0  0  0  0  0  0  0  0  0  0  0  0
    3.2247   -2.3269    0.0000 C   0  0  0  0  0  0  0  0  0  0  0  0
    5.8604   -4.6108    0.0000 C   0  0  0  0  0  0  0  0  0  0  0  0
    7.1819   -4.6108    0.0000 N   0  0  0  0  0  0  0  0  0  0  0  0
    5.1997   -3.4617    0.0000 C   0  0  0  0  0  0  0  0  0  0  0  0
    1.2137   -1.1635    0.0000 C   0  0  0  0  0  0  0  0  0  0  0  0
    0.5458    0.0000    0.0000 F   0  0  0  0  0  0  0  0  0  0  0  0
    0.0000   -1.7237    0.0000 F   0  0  0  0  0  0  0  0  0  0  0  0
    2.3126   -0.3806    0.0000 F   0  0  0  0  0  0  0  0  0  0  0  0
  1  2  2  0  0  0  0
  1  6  1  0  0  0  0
  1  9  1  0  0  0  0
  2  3  1  0  0  0  0
  3  4  2  0  0  0  0
  4  5  1  0  0  0  0
  5  6  2  0  0  0  0
  5 10  1  0  0  0  0
  7  8  3  0  0  0  0
  7  9  1  0  0  0  0
 10 11  1  0  0  0  0
 10 12  1  0  0  0  0
 10 13  1  0  0  0  0
M  END
> <ID>
10271

> <Formula>
C9H6F3N

> <FW>
185.1458

> <DSSTox_CID>
24617

> <DSSTox_RID>
80352

> <DSSTox_GSID>
44617

> <DSSTox_FileID_Sort>
5034

> <TS_ChemName>
[3-(Trifluoromethyl)phenyl]acetonitrile

> <TS_ChemName_Synonyms>
[3-(Trifluoromethyl)phenyl]acetonitrile (Benzeneacetonitrile, 3-(trifluoromethyl)-)

> <TS_CASRN>
2338-76-3

> <CASRN_ChemName_Relationship>
primary

> <TS_Description>
single chemical compound

> <ChemNote>


> <STRUCTURE_Shown>
tested chemical

> <STRUCTURE_Formula>
C9H6F3N

> <STRUCTURE_MW>
185.1458

> <STRUCTURE_ChemType>
defined organic

> <STRUCTURE_DefinedOrganicForm>
parent

> <STRUCTURE_IUPAC>
[3-(trifluoromethyl)phenyl]acetonitrile

> <STRUCTURE_SMILES>
FC(F)(F)c1cccc(CC#N)c1

> <STRUCTURE_SMILES_Desalt>
FC(F)(F)c1cccc(CC#N)c1

> <Substance_modify_yyyymmdd>
20091116

$$$$
