23386-52-9
ChemmineR-0915142007XD

 25 25  0  0  0  0  0  0  0  0  2 V2000
    4.5979   -1.9886    0.0000 C    0  0  0  0  0  0  0  0  0  0  0  0
    5.7506   -2.6600    0.0000 C    0  0  0  0  0  0  0  0  0  0  0  0
    6.9159   -1.9886    0.0000 C    0  0  0  0  0  0  0  0  0  0  0  0
    8.0685   -2.6600    0.0000 C    0  0  0  0  0  0  0  0  0  0  0  0
    4.5979   -0.6587    0.0000 O    0  0  0  0  0  0  0  0  0  0  0  0
    3.4453   -2.6600    0.0000 O    0  0  0  0  0  0  0  0  0  0  0  0
    8.0685   -3.9899    0.0000 O    0  0  0  0  0  0  0  0  0  0  0  0
    9.2212   -1.9886    0.0000 O    0  0  0  0  0  0  0  0  0  0  0  0
    2.2926   -1.9886    0.0000 C    0  0  0  0  0  0  0  0  0  0  0  0
    1.1526   -2.6600    0.0000 C    0  0  0  0  0  0  0  0  0  0  0  0
    0.0000   -1.9886    0.0000 C    0  0  0  0  0  0  0  0  0  0  0  0
    0.0000   -0.6587    0.0000 C    0  0  0  0  0  0  0  0  0  0  0  0
    1.1526    0.0000    0.0000 C    0  0  0  0  0  0  0  0  0  0  0  0
    2.2926   -0.6587    0.0000 C    0  0  0  0  0  0  0  0  0  0  0  0
   10.3738   -2.6600    0.0000 C    0  0  0  0  0  0  0  0  0  0  0  0
   11.5138   -1.9886    0.0000 C    0  0  0  0  0  0  0  0  0  0  0  0
   12.6665   -2.6600    0.0000 C    0  0  0  0  0  0  0  0  0  0  0  0
   12.6665   -3.9899    0.0000 C    0  0  0  0  0  0  0  0  0  0  0  0
   11.5138   -4.6486    0.0000 C    0  0  0  0  0  0  0  0  0  0  0  0
   10.3738   -3.9899    0.0000 C    0  0  0  0  0  0  0  0  0  0  0  0
    5.7506   -3.9899    0.0000 S    0  0  0  0  0  0  0  0  0  0  0  0
    7.0806   -3.9899    0.0000 O    0  5  0  0  0  0  0  0  0  0  0  0
    4.4206   -3.9899    0.0000 O    0  0  0  0  0  0  0  0  0  0  0  0
    5.7506   -5.3199    0.0000 O    0  0  0  0  0  0  0  0  0  0  0  0
    7.4732   -5.1426    0.0000 Na   0  3  0  0  0  0  0  0  0  0  0  0
  1  2  1  0  0  0  0
  1  6  1  0  0  0  0
  1  5  2  0  0  0  0
  2  3  1  0  0  0  0
  2 21  1  0  0  0  0
  3  4  1  0  0  0  0
  4  8  1  0  0  0  0
  4  7  2  0  0  0  0
  6  9  1  0  0  0  0
  8 15  1  0  0  0  0
  9 10  1  0  0  0  0
  9 14  1  0  0  0  0
 10 11  1  0  0  0  0
 11 12  1  0  0  0  0
 12 13  1  0  0  0  0
 13 14  1  0  0  0  0
 15 16  1  0  0  0  0
 15 20  1  0  0  0  0
 16 17  1  0  0  0  0
 17 18  1  0  0  0  0
 18 19  1  0  0  0  0
 19 20  1  0  0  0  0
 21 22  1  0  0  0  0
 21 23  2  0  0  0  0
 21 24  2  0  0  0  0
M  END
> <ID>
5431

> <Formula>
C16H25NaO7S

> <FW>
384.4203 (361.4310+22.9892)

> <DSSTox_CID>
7826

> <DSSTox_RID>
78579

> <DSSTox_GSID>
27826

> <DSSTox_FileID_Sort>
3262

> <TS_ChemName>
Dicyclohexyl sodium sulfosuccinate

> <TS_ChemName_Synonyms>
Sodium 1,4-bis(cyclohexyloxy)-1,4-dioxobutane-2-sulfonate

> <TS_CASRN>
23386-52-9

> <CASRN_ChemName_Relationship>
primary

> <TS_Description>
single chemical compound

> <ChemNote>


> <STRUCTURE_Shown>
tested chemical

> <STRUCTURE_Formula>
C16H25NaO7S

> <STRUCTURE_MW>
384.4203

> <STRUCTURE_ChemType>
defined organic

> <STRUCTURE_DefinedOrganicForm>
salt

> <STRUCTURE_IUPAC>
sodium 1,4-bis(cyclohexyloxy)-1,4-dioxobutane-2-sulfonate

> <STRUCTURE_SMILES>
[Na+].O=C(OC1CCCCC1)C(CC(=O)OC2CCCCC2)S([O-])(=O)=O

> <STRUCTURE_SMILES_Desalt>
O=C(OC1CCCCC1)C(CC(=O)OC2CCCCC2)S(=O)(=O)O

> <Substance_modify_yyyymmdd>
20131118

$$$$
