23432-62-4
ChemmineR-0915142007XD

 15 14  0  0  0  0  0  0  0  0  1 V2000
    8.0835   -2.9612    0.0000 C    0  0  0  0  0  0  0  0  0  0  0  0
    8.0835   -4.2911    0.0000 O    0  0  0  0  0  0  0  0  0  0  0  0
    9.2368   -2.3066    0.0000 O    0  0  0  0  0  0  0  0  0  0  0  0
    6.9094   -2.3066    0.0000 N    0  0  0  0  0  0  0  0  0  0  0  0
    5.7561   -2.9612    0.0000 C    0  0  0  0  0  0  0  0  0  0  0  0
    4.6132   -2.3066    0.0000 C    0  0  0  0  0  0  0  0  0  0  0  0
    3.4599   -2.9612    0.0000 C    0  0  0  0  0  0  0  0  0  0  0  0
    2.3066   -2.3066    0.0000 Si   0  0  0  0  0  0  0  0  0  0  0  0
    1.6312   -3.4599    0.0000 O    0  0  0  0  0  0  0  0  0  0  0  0
    2.3066   -4.6132    0.0000 C    0  0  0  0  0  0  0  0  0  0  0  0
    2.9820   -1.1533    0.0000 O    0  0  0  0  0  0  0  0  0  0  0  0
    2.3066    0.0000    0.0000 C    0  0  0  0  0  0  0  0  0  0  0  0
    1.1533   -1.6520    0.0000 O    0  0  0  0  0  0  0  0  0  0  0  0
    0.0000   -2.3066    0.0000 C    0  0  0  0  0  0  0  0  0  0  0  0
   10.3901   -2.9612    0.0000 C    0  0  0  0  0  0  0  0  0  0  0  0
  1  2  2  0  0  0  0
  1  3  1  0  0  0  0
  1  4  1  0  0  0  0
  3 15  1  0  0  0  0
  4  5  1  0  0  0  0
  5  6  1  0  0  0  0
  6  7  1  0  0  0  0
  7  8  1  0  0  0  0
  8  9  1  0  0  0  0
  8 11  1  0  0  0  0
  8 13  1  0  0  0  0
  9 10  1  0  0  0  0
 11 12  1  0  0  0  0
 13 14  1  0  0  0  0
M  END
> <ID>
10528

> <Formula>
C8H19NO5Si

> <FW>
237.3257

> <DSSTox_CID>
24881

> <DSSTox_RID>
80555

> <DSSTox_GSID>
44881

> <DSSTox_FileID_Sort>
5237

> <TS_ChemName>
Methyl [3-(trimethoxysilyl)propyl]carbamate

> <TS_ChemName_Synonyms>
Methyl [3-(trimethoxysilyl)propyl]carbamate (Carbamic acid, [3-(trimethoxysilyl)propyl]-, methyl ester)

> <TS_CASRN>
23432-62-4

> <CASRN_ChemName_Relationship>
primary

> <TS_Description>
single chemical compound

> <ChemNote>


> <STRUCTURE_Shown>
tested chemical

> <STRUCTURE_Formula>
C8H19NO5Si

> <STRUCTURE_MW>
237.3257

> <STRUCTURE_ChemType>
organometallic

> <STRUCTURE_DefinedOrganicForm>


> <STRUCTURE_IUPAC>
methyl [3-(trimethoxysilyl)propyl]carbamate

> <STRUCTURE_SMILES>
CO[Si](CCCNC(=O)OC)(OC)OC

> <STRUCTURE_SMILES_Desalt>
CO[Si](CCCNC(=O)OC)(OC)OC

> <Substance_modify_yyyymmdd>
20091116

$$$$
