23465-76-1
ChemmineR-0915142007XD

 27 29  0  0  0  0  0  0  0  0  1 V2000
    3.4561   -4.6714    0.0000 N   0  0  0  0  0  0  0  0  0  0  0  0
    4.5955   -4.0131    0.0000 C   0  0  0  0  0  0  0  0  0  0  0  0
    5.7475   -6.0007    0.0000 N   0  0  0  0  0  0  0  0  0  0  0  0
    5.7475   -4.6714    0.0000 C   0  0  0  0  0  0  0  0  0  0  0  0
    3.4561   -6.0007    0.0000 C   0  0  0  0  0  0  0  0  0  0  0  0
    4.5955   -6.6717    0.0000 C   0  0  0  0  0  0  0  0  0  0  0  0
    2.2914   -4.0005    0.0000 C   0  0  0  0  0  0  0  0  0  0  0  0
    6.9122   -4.0005    0.0000 C   0  0  0  0  0  0  0  0  0  0  0  0
    4.5955   -2.6839    0.0000 O   0  0  0  0  0  0  0  0  0  0  0  0
    2.2914   -2.6712    0.0000 C   0  0  0  0  0  0  0  0  0  0  0  0
    8.0389   -4.6588    0.0000 C   0  0  0  0  0  0  0  0  0  0  0  0
    1.1520   -1.9876    0.0000 N   0  0  0  0  0  0  0  0  0  0  0  0
   10.3556   -5.9880    0.0000 C   0  0  0  0  0  0  0  0  0  0  0  0
    8.0389   -5.9880    0.0000 C   0  0  0  0  0  0  0  0  0  0  0  0
    9.2036   -4.0005    0.0000 C   0  0  0  0  0  0  0  0  0  0  0  0
    9.2036   -6.6590    0.0000 C   0  0  0  0  0  0  0  0  0  0  0  0
   10.3556   -4.6588    0.0000 C   0  0  0  0  0  0  0  0  0  0  0  0
    2.3041   -6.6717    0.0000 C   0  0  0  0  0  0  0  0  0  0  0  0
   11.5077   -6.6717    0.0000 O   0  0  0  0  0  0  0  0  0  0  0  0
    4.5955   -8.0009    0.0000 C   0  0  0  0  0  0  0  0  0  0  0  0
    1.1520   -0.6583    0.0000 C   0  0  0  0  0  0  0  0  0  0  0  0
    0.0000   -2.6712    0.0000 C   0  0  0  0  0  0  0  0  0  0  0  0
   12.6597   -6.0007    0.0000 C   0  0  0  0  0  0  0  0  0  0  0  0
    2.3041   -8.0009    0.0000 C   0  0  0  0  0  0  0  0  0  0  0  0
    0.0000    0.0000    0.0000 C   0  0  0  0  0  0  0  0  0  0  0  0
    0.0000   -4.0005    0.0000 C   0  0  0  0  0  0  0  0  0  0  0  0
    3.4561   -8.6592    0.0000 C   0  0  0  0  0  0  0  0  0  0  0  0
  1  2  1  0  0  0  0
  1  5  1  0  0  0  0
  1  7  1  0  0  0  0
  2  4  1  0  0  0  0
  2  9  2  0  0  0  0
  3  6  1  0  0  0  0
  3  4  2  0  0  0  0
  4  8  1  0  0  0  0
  5  6  2  0  0  0  0
  5 18  1  0  0  0  0
  6 20  1  0  0  0  0
  7 10  1  0  0  0  0
  8 11  1  0  0  0  0
 10 12  1  0  0  0  0
 11 14  1  0  0  0  0
 11 15  2  0  0  0  0
 12 21  1  0  0  0  0
 12 22  1  0  0  0  0
 13 17  2  0  0  0  0
 13 19  1  0  0  0  0
 13 16  1  0  0  0  0
 14 16  2  0  0  0  0
 15 17  1  0  0  0  0
 18 24  2  0  0  0  0
 19 23  1  0  0  0  0
 20 27  2  0  0  0  0
 21 25  1  0  0  0  0
 22 26  1  0  0  0  0
 24 27  1  0  0  0  0
M  END
> <ID>
13995

> <Formula>
C22H27N3O2

> <FW>
365.4687

> <DSSTox_CID>
28936

> <DSSTox_RID>
83202

> <DSSTox_GSID>
49010

> <DSSTox_FileID_Sort>
7878

> <TS_ChemName>
Caroverine hydrochloride

> <TS_ChemName_Synonyms>


> <TS_CASRN>
23465-76-1

> <CASRN_ChemName_Relationship>
primary

> <TS_Description>
single chemical compound

> <ChemNote>
parent [23465-76-1]

> <STRUCTURE_Shown>
tested chemical

> <STRUCTURE_Formula>
C22H27N3O2

> <STRUCTURE_MW>
365.4687

> <STRUCTURE_ChemType>
defined organic

> <STRUCTURE_DefinedOrganicForm>
parent

> <STRUCTURE_IUPAC>
1-[2-(diethylamino)ethyl]-3-(4-methoxybenzyl)quinoxalin-2(1H)-one

> <STRUCTURE_SMILES>
COc1ccc(cc1)CC3=Nc2ccccc2N(CCN(CC)CC)C3=O

> <STRUCTURE_SMILES_Desalt>
COc1ccc(cc1)CC3=Nc2ccccc2N(CCN(CC)CC)C3=O

> <Substance_modify_yyyymmdd>
20111204

$$$$
