2347-80-0
ChemmineR-0915142007XD

 40 41  0  0  0  0  0  0  0  0  1 V2000
    3.9316   -8.1682    0.0000 C   0  0  0  0  0  0  0  0  0  0  0  0
    3.9316   -6.8363    0.0000 S   0  0  0  0  0  0  0  0  0  0  0  0
    2.5997   -6.8363    0.0000 O   0  0  0  0  0  0  0  0  0  0  0  0
    3.9316   -5.5204    0.0000 O   0  0  0  0  0  0  0  0  0  0  0  0
    5.2475   -6.8363    0.0000 O   0  0  0  0  0  0  0  0  0  0  0  0
    1.3480   -4.8785    0.0000 C   0  0  0  0  0  0  0  0  0  0  0  0
    1.3480   -3.5465    0.0000 S   0  0  0  0  0  0  0  0  0  0  0  0
    0.0000   -3.5465    0.0000 O   0  0  0  0  0  0  0  0  0  0  0  0
    1.3480   -2.2306    0.0000 O   0  0  0  0  0  0  0  0  0  0  0  0
    2.6639   -3.5465    0.0000 O   0  0  0  0  0  0  0  0  0  0  0  0
   13.7206   -3.9798    0.0000 S   0  0  0  0  0  0  0  0  0  0  0  0
    9.1150   -4.0119    0.0000 N   0  0  0  0  0  0  0  0  0  0  0  0
   10.2704   -4.6698    0.0000 C   0  0  0  0  0  0  0  0  0  0  0  0
    9.1150   -6.6597    0.0000 S   0  0  0  0  0  0  0  0  0  0  0  0
   12.5492   -4.6698    0.0000 C   0  0  0  0  0  0  0  0  0  0  0  0
   11.4098   -4.0119    0.0000 C   0  0  0  0  0  0  0  0  0  0  0  0
   10.2704   -6.0178    0.0000 C   0  0  0  0  0  0  0  0  0  0  0  0
    7.9756   -4.6698    0.0000 C   0  0  0  0  0  0  0  0  0  0  0  0
    7.9756   -6.0178    0.0000 C   0  0  0  0  0  0  0  0  0  0  0  0
   14.8921   -3.3058    0.0000 N   0  0  0  0  0  0  0  0  0  0  0  0
   13.0306   -2.8244    0.0000 O   0  0  0  0  0  0  0  0  0  0  0  0
   14.4267   -5.1673    0.0000 O   0  0  0  0  0  0  0  0  0  0  0  0
    5.6808   -2.0059    0.0000 N   0  0  0  0  0  0  0  0  0  0  0  0
    3.4021   -0.6740    0.0000 N   0  0  0  0  0  0  0  0  0  0  0  0
   12.5492   -6.0178    0.0000 C   0  0  0  0  0  0  0  0  0  0  0  0
   11.4098   -6.6597    0.0000 C   0  0  0  0  0  0  0  0  0  0  0  0
    9.1150   -2.6799    0.0000 C   0  0  0  0  0  0  0  0  0  0  0  0
    4.5575   -0.0321    0.0000 C   0  0  0  0  0  0  0  0  0  0  0  0
    3.4021   -2.0059    0.0000 C   0  0  0  0  0  0  0  0  0  0  0  0
    4.5575   -2.6799    0.0000 C   0  0  0  0  0  0  0  0  0  0  0  0
    5.6808   -0.6740    0.0000 C   0  0  0  0  0  0  0  0  0  0  0  0
    7.9756   -2.0059    0.0000 C   0  0  0  0  0  0  0  0  0  0  0  0
    6.8202   -2.6799    0.0000 C   0  0  0  0  0  0  0  0  0  0  0  0
    6.8202   -4.0119    0.0000 C   0  0  0  0  0  0  0  0  0  0  0  0
    6.8202   -6.6597    0.0000 C   0  0  0  0  0  0  0  0  0  0  0  0
    2.2146    0.0000    0.0000 C   0  0  0  0  0  0  0  0  0  0  0  0
   14.8921   -1.9418    0.0000 C   0  0  0  0  0  0  0  0  0  0  0  0
   16.0475   -3.9477    0.0000 C   0  0  0  0  0  0  0  0  0  0  0  0
    5.6808   -4.6698    0.0000 C   0  0  0  0  0  0  0  0  0  0  0  0
    5.6808   -6.0178    0.0000 C   0  0  0  0  0  0  0  0  0  0  0  0
  1  2  1  0  0  0  0
  2  3  1  0  0  0  0
  2  4  2  0  0  0  0
  2  5  2  0  0  0  0
  6  7  1  0  0  0  0
  7  8  1  0  0  0  0
  7  9  2  0  0  0  0
  7 10  2  0  0  0  0
 11 15  1  0  0  0  0
 11 20  1  0  0  0  0
 11 21  2  0  0  0  0
 11 22  2  0  0  0  0
 12 13  1  0  0  0  0
 12 18  1  0  0  0  0
 12 27  1  0  0  0  0
 13 16  1  0  0  0  0
 13 17  2  0  0  0  0
 14 17  1  0  0  0  0
 14 19  1  0  0  0  0
 15 16  2  0  0  0  0
 15 25  1  0  0  0  0
 17 26  1  0  0  0  0
 18 34  1  0  0  0  0
 18 19  2  0  0  0  0
 19 35  1  0  0  0  0
 20 37  1  0  0  0  0
 20 38  1  0  0  0  0
 23 33  1  0  0  0  0
 23 30  1  0  0  0  0
 23 31  1  0  0  0  0
 24 28  1  0  0  0  0
 24 36  1  0  0  0  0
 24 29  1  0  0  0  0
 25 26  2  0  0  0  0
 27 32  1  0  0  0  0
 28 31  1  0  0  0  0
 29 30  1  0  0  0  0
 32 33  1  0  0  0  0
 34 39  2  0  0  0  0
 35 40  2  0  0  0  0
 39 40  1  0  0  0  0
M  END
> <ID>
11023

> <Formula>
C24H38N4O8S4

> <FW>
638.8405 (96.1057+96.1057+446.6292)

> <DSSTox_CID>
25558

> <DSSTox_RID>
80955

> <DSSTox_GSID>
45558

> <DSSTox_FileID_Sort>
5636

> <TS_ChemName>
Thioproperazine dimethanesulfonate

> <TS_ChemName_Synonyms>


> <TS_CASRN>
2347-80-0

> <CASRN_ChemName_Relationship>
primary

> <TS_Description>
single chemical compound

> <ChemNote>
parent [316-81-4]

> <STRUCTURE_Shown>
tested chemical

> <STRUCTURE_Formula>
C24H38N4O8S4

> <STRUCTURE_MW>
638.8405

> <STRUCTURE_ChemType>
defined organic

> <STRUCTURE_DefinedOrganicForm>
complex

> <STRUCTURE_IUPAC>
N,N-dimethyl-10-[3-(4-methylpiperazin-1-yl)propyl]-10H-phenothiazine-2-sulfonamide methanesulfonate (1:2)

> <STRUCTURE_SMILES>
CS(=O)(=O)O.CS(=O)(=O)O.CN(C)S(=O)(=O)c2cc3N(CCCN1CCN(C)CC1)c4ccccc4Sc3cc2

> <STRUCTURE_SMILES_Desalt>
CN(C)S(=O)(=O)c2cc3N(CCCN1CCN(C)CC1)c4ccccc4Sc3cc2

> <Substance_modify_yyyymmdd>
20100107

$$$$
