2349-07-7
ChemmineR-0915142007XD

 12 11  0  0  0  0  0  0  0  0  1 V2000
    3.4869   -1.3323    0.0000 O   0  0  0  0  0  0  0  0  0  0  0  0
    2.3315   -1.9880    0.0000 C   0  0  0  0  0  0  0  0  0  0  0  0
    1.1554   -1.3323    0.0000 C   0  0  0  0  0  0  0  0  0  0  0  0
    1.1554    0.0000    0.0000 C   0  0  0  0  0  0  0  0  0  0  0  0
    0.0000   -1.9880    0.0000 C   0  0  0  0  0  0  0  0  0  0  0  0
    2.3315   -3.3204    0.0000 O   0  0  0  0  0  0  0  0  0  0  0  0
    4.6422   -1.9880    0.0000 C   0  0  0  0  0  0  0  0  0  0  0  0
    5.7872   -1.3323    0.0000 C   0  0  0  0  0  0  0  0  0  0  0  0
    6.9426   -1.9880    0.0000 C   0  0  0  0  0  0  0  0  0  0  0  0
    8.0979   -1.3323    0.0000 C   0  0  0  0  0  0  0  0  0  0  0  0
    9.2533   -1.9880    0.0000 C   0  0  0  0  0  0  0  0  0  0  0  0
   10.4086   -1.3323    0.0000 C   0  0  0  0  0  0  0  0  0  0  0  0
  1  2  1  0  0  0  0
  1  7  1  0  0  0  0
  2  3  1  0  0  0  0
  2  6  2  0  0  0  0
  3  4  1  0  0  0  0
  3  5  1  0  0  0  0
  7  8  1  0  0  0  0
  8  9  1  0  0  0  0
  9 10  1  0  0  0  0
 10 11  1  0  0  0  0
 11 12  1  0  0  0  0
M  END
> <ID>
12644

> <Formula>
C10H20O2

> <FW>
172.2646

> <DSSTox_CID>
27519

> <DSSTox_RID>
82392

> <DSSTox_GSID>
47519

> <DSSTox_FileID_Sort>
7073

> <TS_ChemName>
Hexyl isobutyrate

> <TS_ChemName_Synonyms>


> <TS_CASRN>
2349-07-7

> <CASRN_ChemName_Relationship>
primary

> <TS_Description>
single chemical compound

> <ChemNote>


> <STRUCTURE_Shown>
tested chemical

> <STRUCTURE_Formula>
C10H20O2

> <STRUCTURE_MW>
172.2646

> <STRUCTURE_ChemType>
defined organic

> <STRUCTURE_DefinedOrganicForm>
parent

> <STRUCTURE_IUPAC>
hexyl 2-methylpropanoate

> <STRUCTURE_SMILES>
O=C(OCCCCCC)C(C)C

> <STRUCTURE_SMILES_Desalt>
O=C(OCCCCCC)C(C)C

> <Substance_modify_yyyymmdd>
20100613

$$$$
