23495-12-7
ChemmineR-0915142007XD

 14 14  0  0  0  0  0  0  0  0  1 V2000
    8.0622   -1.3264    0.0000 C   0  0  0  0  0  0  0  0  0  0  0  0
    8.0622    0.0000    0.0000 O   0  0  0  0  0  0  0  0  0  0  0  0
    6.9119   -2.0000    0.0000 O   0  0  0  0  0  0  0  0  0  0  0  0
    9.2228   -2.0000    0.0000 C   0  0  0  0  0  0  0  0  0  0  0  0
   10.3627   -1.3264    0.0000 C   0  0  0  0  0  0  0  0  0  0  0  0
    5.7513   -1.3368    0.0000 C   0  0  0  0  0  0  0  0  0  0  0  0
    4.6114   -2.0104    0.0000 C   0  0  0  0  0  0  0  0  0  0  0  0
    3.4508   -1.3575    0.0000 O   0  0  0  0  0  0  0  0  0  0  0  0
    2.3005   -2.0104    0.0000 C   0  0  0  0  0  0  0  0  0  0  0  0
    1.1399   -1.3575    0.0000 C   0  0  0  0  0  0  0  0  0  0  0  0
    2.3005   -3.3471    0.0000 C   0  0  0  0  0  0  0  0  0  0  0  0
    0.0000   -2.0311    0.0000 C   0  0  0  0  0  0  0  0  0  0  0  0
    1.1606   -4.0207    0.0000 C   0  0  0  0  0  0  0  0  0  0  0  0
    0.0000   -3.3575    0.0000 C   0  0  0  0  0  0  0  0  0  0  0  0
  1  2  2  0  0  0  0
  1  3  1  0  0  0  0
  1  4  1  0  0  0  0
  3  6  1  0  0  0  0
  4  5  1  0  0  0  0
  6  7  1  0  0  0  0
  7  8  1  0  0  0  0
  8  9  1  0  0  0  0
  9 10  2  0  0  0  0
  9 11  1  0  0  0  0
 10 12  1  0  0  0  0
 11 13  2  0  0  0  0
 12 14  2  0  0  0  0
 13 14  1  0  0  0  0
M  END
> <ID>
12349

> <Formula>
C11H14O3

> <FW>
194.2271

> <DSSTox_CID>
27203

> <DSSTox_RID>
82198

> <DSSTox_GSID>
47203

> <DSSTox_FileID_Sort>
6879

> <TS_ChemName>
Phenoxyethyl propionate

> <TS_ChemName_Synonyms>


> <TS_CASRN>
23495-12-7

> <CASRN_ChemName_Relationship>
primary

> <TS_Description>
single chemical compound

> <ChemNote>


> <STRUCTURE_Shown>
tested chemical

> <STRUCTURE_Formula>
C11H14O3

> <STRUCTURE_MW>
194.2271

> <STRUCTURE_ChemType>
defined organic

> <STRUCTURE_DefinedOrganicForm>
parent

> <STRUCTURE_IUPAC>
2-phenoxyethyl propanoate

> <STRUCTURE_SMILES>
CCC(=O)OCCOc1ccccc1

> <STRUCTURE_SMILES_Desalt>
CCC(=O)OCCOc1ccccc1

> <Substance_modify_yyyymmdd>
20100503

$$$$
