23541-50-6
ChemmineR-0915142007XD

 39 42  0  0  1  0  0  0  0  0  1 V2000
    7.9568   -7.8945    0.0000 C    0  0  0  0  0  0  0  0  0  0  0  0
    7.9568   -6.5725    0.0000 C    0  0  0  0  0  0  0  0  0  0  0  0
    9.0917   -5.9364    0.0000 C    0  0  0  0  0  0  0  0  0  0  0  0
    9.0917   -8.5305    0.0000 C    0  0  0  0  0  0  0  0  0  0  0  0
    5.7494   -6.5725    0.0000 C    0  0  0  0  0  0  0  0  0  0  0  0
    5.7494   -7.8945    0.0000 C    0  0  0  0  0  0  0  0  0  0  0  0
   10.2142   -6.5725    0.0000 C    0  0  0  0  0  0  0  0  0  0  0  0
    6.8469   -8.5305    0.0000 C    0  0  0  0  0  0  0  0  0  0  0  0
    6.8469   -5.9364    0.0000 C    0  0  0  0  0  0  0  0  0  0  0  0
   10.2142   -7.8945    0.0000 C    0  0  0  0  0  0  0  0  0  0  0  0
    3.4920   -7.8945    0.0000 C    0  0  0  0  0  0  0  0  0  0  0  0
    4.6145   -5.9364    0.0000 C    0  0  0  0  0  0  0  0  0  0  0  0
    4.6145   -8.5305    0.0000 C    0  0  0  0  0  0  0  0  0  0  0  0
    3.4920   -6.5725    0.0000 C    0  0  0  0  0  0  0  0  0  0  0  0
    4.6145   -3.9909    0.0000 O    0  0  0  0  0  0  0  0  0  0  0  0
    2.3322   -8.5555    0.0000 C    0  0  0  0  0  0  0  0  0  0  0  0
    9.0917   -9.8400    0.0000 O    0  0  0  0  0  0  0  0  0  0  0  0
    9.0917   -4.6394    0.0000 O    0  0  0  0  0  0  0  0  0  0  0  0
   11.3491   -5.9364    0.0000 C    0  0  0  0  0  0  0  0  0  0  0  0
    1.1973   -7.8945    0.0000 O    0  0  0  0  0  0  0  0  0  0  0  0
    6.8469   -9.8400    0.0000 O    0  0  0  0  0  0  0  0  0  0  0  0
    6.8469   -4.6394    0.0000 O    0  0  0  0  0  0  0  0  0  0  0  0
    2.1326   -6.9716    0.0000 O    0  0  0  0  0  0  0  0  0  0  0  0
   11.3491   -8.5305    0.0000 C    0  0  0  0  0  0  0  0  0  0  0  0
   11.3491   -4.6394    0.0000 O    0  0  0  0  0  0  0  0  0  0  0  0
   12.4216   -7.8945    0.0000 C    0  0  0  0  0  0  0  0  0  0  0  0
   12.4216   -6.5725    0.0000 C    0  0  0  0  0  0  0  0  0  0  0  0
    2.3322   -9.8775    0.0000 C    0  0  0  0  0  0  0  0  0  0  0  0
   12.4715   -3.9909    0.0000 C    0  0  0  0  0  0  0  0  0  0  0  0
    3.4671   -3.3050    0.0000 C    0  0  0  0  0  0  0  0  0  0  0  0
    2.3072   -3.9909    0.0000 C    0  0  0  0  0  0  0  0  0  0  0  0
    3.4671   -1.9830    0.0000 O    0  0  0  0  0  0  0  0  0  0  0  0
    1.1723   -3.3050    0.0000 C    0  0  0  0  0  0  0  0  0  0  0  0
    2.3072   -1.3220    0.0000 C    0  0  0  0  0  0  0  0  0  0  0  0
    1.1723   -1.9830    0.0000 C    0  0  0  0  0  0  0  0  0  0  0  0
    0.0000   -3.9909    0.0000 N    0  0  0  0  0  0  0  0  0  0  0  0
    0.0000   -1.3220    0.0000 O    0  0  0  0  0  0  0  0  0  0  0  0
    2.3072    0.0000    0.0000 C    0  0  0  0  0  0  0  0  0  0  0  0
    5.0510   -9.8775    0.0000 Cl   0  0  0  0  0  0  0  0  0  0  0  0
  1  2  2  0  0  0  0
  1  4  1  0  0  0  0
  1  8  1  0  0  0  0
  2  3  1  0  0  0  0
  2  9  1  0  0  0  0
  3 18  2  0  0  0  0
  3  7  1  0  0  0  0
  4 10  1  0  0  0  0
  4 17  2  0  0  0  0
  5  6  1  0  0  0  0
  5 12  1  0  0  0  0
  5  9  2  0  0  0  0
  6  8  2  0  0  0  0
  6 13  1  0  0  0  0
  7 10  2  0  0  0  0
  7 19  1  0  0  0  0
  8 21  1  0  0  0  0
  9 22  1  0  0  0  0
 10 24  1  0  0  0  0
 11 13  1  0  0  0  0
 11 14  1  0  0  0  0
 11 16  1  1  0  0  0
 11 23  1  6  0  0  0
 12 15  1  6  0  0  0
 12 14  1  0  0  0  0
 30 15  1  1  0  0  0
 16 20  2  0  0  0  0
 16 28  1  0  0  0  0
 19 25  1  0  0  0  0
 19 27  2  0  0  0  0
 24 26  2  0  0  0  0
 25 29  1  0  0  0  0
 26 27  1  0  0  0  0
 30 31  1  0  0  0  0
 30 32  1  0  0  0  0
 31 33  1  0  0  0  0
 32 34  1  0  0  0  0
 33 35  1  0  0  0  0
 33 36  1  6  0  0  0
 34 35  1  0  0  0  0
 34 38  1  6  0  0  0
 35 37  1  6  0  0  0
M  END
> <ID>
6617

> <Formula>
C27H30ClNO10

> <FW>
563.9808 (527.5199+36.4609)

> <DSSTox_CID>
13382

> <DSSTox_RID>
79068

> <DSSTox_GSID>
33382

> <DSSTox_FileID_Sort>
3750

> <TS_ChemName>
Daunomycin hydrochloride

> <TS_ChemName_Synonyms>


> <TS_CASRN>
23541-50-6

> <CASRN_ChemName_Relationship>
primary

> <TS_Description>
single chemical compound

> <ChemNote>
stereochem; parent [20830-81-3]

> <STRUCTURE_Shown>
tested chemical

> <STRUCTURE_Formula>
C27H30ClNO10

> <STRUCTURE_MW>
563.9808

> <STRUCTURE_ChemType>
defined organic

> <STRUCTURE_DefinedOrganicForm>
complex

> <STRUCTURE_IUPAC>
(1S,3S)-3-acetyl-3,5,12-trihydroxy-10-methoxy-6,11-dioxo-1,2,3,4,6,11-hexahydrotetracen-1-yl 3-amino-2,3,6-trideoxy-alpha-L-lyxo-hexopyranoside hydrochloride (1:1)

> <STRUCTURE_SMILES>
Cl.CC(=O)[C@@]4(O)C[C@H](O[C@H]1C[C@H](N)[C@H](O)[C@H](C)O1)c5c(O)c3C(=O)c2c(OC)cccc2C(=O)c3c(O)c5C4

> <STRUCTURE_SMILES_Desalt>
CC(=O)[C@@]4(O)C[C@H](O[C@H]1C[C@H](N)[C@H](O)[C@H](C)O1)c5c(O)c3C(=O)c2c(OC)cccc2C(=O)c3c(O)c5C4

> <Substance_modify_yyyymmdd>
20080429

$$$$
