23564-06-9
ChemmineR-0915142007XD

 24 24  0  0  0  0  0  0  0  0  1 V2000
    3.4389   -0.6649    0.0000 C   0  0  0  0  0  0  0  0  0  0  0  0
    4.6129   -3.9480    0.0000 C   0  0  0  0  0  0  0  0  0  0  0  0
    4.6129    0.0000    0.0000 N   0  0  0  0  0  0  0  0  0  0  0  0
    5.7661   -4.6129    0.0000 N   0  0  0  0  0  0  0  0  0  0  0  0
    5.7349   -0.6649    0.0000 C   0  0  0  0  0  0  0  0  0  0  0  0
    6.8882   -3.9480    0.0000 C   0  0  0  0  0  0  0  0  0  0  0  0
    3.4389   -2.0052    0.0000 N   0  0  0  0  0  0  0  0  0  0  0  0
    3.4701   -4.6129    0.0000 N   0  0  0  0  0  0  0  0  0  0  0  0
    2.2545   -3.9480    0.0000 C   0  0  0  0  0  0  0  0  0  0  0  0
    2.2545   -2.6389    0.0000 C   0  0  0  0  0  0  0  0  0  0  0  0
    4.6129   -2.6389    0.0000 S   0  0  0  0  0  0  0  0  0  0  0  0
    2.2753    0.0000    0.0000 S   0  0  0  0  0  0  0  0  0  0  0  0
    5.7349   -2.0052    0.0000 O   0  0  0  0  0  0  0  0  0  0  0  0
    6.8882   -2.6389    0.0000 O   0  0  0  0  0  0  0  0  0  0  0  0
    6.8882    0.0000    0.0000 O   0  0  0  0  0  0  0  0  0  0  0  0
    8.0414   -4.6129    0.0000 O   0  0  0  0  0  0  0  0  0  0  0  0
    1.1324   -1.9636    0.0000 C   0  0  0  0  0  0  0  0  0  0  0  0
    1.1324   -4.6129    0.0000 C   0  0  0  0  0  0  0  0  0  0  0  0
    9.2258   -3.9480    0.0000 C   0  0  0  0  0  0  0  0  0  0  0  0
    8.0414   -0.6649    0.0000 C   0  0  0  0  0  0  0  0  0  0  0  0
   10.3894   -4.6129    0.0000 C   0  0  0  0  0  0  0  0  0  0  0  0
    9.2569    0.0000    0.0000 C   0  0  0  0  0  0  0  0  0  0  0  0
    0.0000   -3.9480    0.0000 C   0  0  0  0  0  0  0  0  0  0  0  0
    0.0000   -2.6389    0.0000 C   0  0  0  0  0  0  0  0  0  0  0  0
  1  3  1  0  0  0  0
  1  7  1  0  0  0  0
  1 12  2  0  0  0  0
  2  8  1  0  0  0  0
  2  4  1  0  0  0  0
  2 11  2  0  0  0  0
  3  5  1  0  0  0  0
  4  6  1  0  0  0  0
  5 13  2  0  0  0  0
  5 15  1  0  0  0  0
  6 14  2  0  0  0  0
  6 16  1  0  0  0  0
  7 10  1  0  0  0  0
  8  9  1  0  0  0  0
  9 10  2  0  0  0  0
  9 18  1  0  0  0  0
 10 17  1  0  0  0  0
 15 20  1  0  0  0  0
 16 19  1  0  0  0  0
 17 24  2  0  0  0  0
 18 23  2  0  0  0  0
 19 21  1  0  0  0  0
 20 22  1  0  0  0  0
 23 24  1  0  0  0  0
M  END
> <ID>
6819

> <Formula>
C14H18N4O4S2

> <FW>
370.4471

> <DSSTox_CID>
14531

> <DSSTox_RID>
79163

> <DSSTox_GSID>
34531

> <DSSTox_FileID_Sort>
3845

> <TS_ChemName>
Thiophanate

> <TS_ChemName_Synonyms>
Thiophanate (Thiophanate ethyl) (Diethyl 4,4'-o-phenylenebis(3-thioallophanate))

> <TS_CASRN>
23564-06-9

> <CASRN_ChemName_Relationship>
primary

> <TS_Description>
single chemical compound

> <ChemNote>


> <STRUCTURE_Shown>
tested chemical

> <STRUCTURE_Formula>
C14H18N4O4S2

> <STRUCTURE_MW>
370.4471

> <STRUCTURE_ChemType>
defined organic

> <STRUCTURE_DefinedOrganicForm>
parent

> <STRUCTURE_IUPAC>
diethyl (benzene-1,2-diyldicarbamothioyl)biscarbamate

> <STRUCTURE_SMILES>
S=C(Nc1ccccc1NC(=S)NC(=O)OCC)NC(=O)OCC

> <STRUCTURE_SMILES_Desalt>
S=C(Nc1ccccc1NC(=S)NC(=O)OCC)NC(=O)OCC

> <Substance_modify_yyyymmdd>
20080429

$$$$
