23564-05-8
ChemmineR-0915142007XD

 22 22  0  0  0  0  0  0  0  0  1 V2000
    3.4629   -0.6649    0.0000 C   0  0  0  0  0  0  0  0  0  0  0  0
    4.6449   -3.9523    0.0000 C   0  0  0  0  0  0  0  0  0  0  0  0
    4.6449    0.0000    0.0000 N   0  0  0  0  0  0  0  0  0  0  0  0
    5.7714   -4.6264    0.0000 N   0  0  0  0  0  0  0  0  0  0  0  0
    5.7714   -0.6649    0.0000 C   0  0  0  0  0  0  0  0  0  0  0  0
    6.9165   -3.9523    0.0000 C   0  0  0  0  0  0  0  0  0  0  0  0
    3.4629   -2.0038    0.0000 N   0  0  0  0  0  0  0  0  0  0  0  0
    3.4998   -4.6264    0.0000 N   0  0  0  0  0  0  0  0  0  0  0  0
    2.2901   -3.8969    0.0000 C   0  0  0  0  0  0  0  0  0  0  0  0
    2.2901   -2.5764    0.0000 C   0  0  0  0  0  0  0  0  0  0  0  0
    4.6449   -2.6318    0.0000 S   0  0  0  0  0  0  0  0  0  0  0  0
    2.3178    0.0000    0.0000 S   0  0  0  0  0  0  0  0  0  0  0  0
    5.7714   -2.0038    0.0000 O   0  0  0  0  0  0  0  0  0  0  0  0
    6.9165   -2.6318    0.0000 O   0  0  0  0  0  0  0  0  0  0  0  0
    6.9073    0.0000    0.0000 O   0  0  0  0  0  0  0  0  0  0  0  0
    8.0616   -4.6264    0.0000 O   0  0  0  0  0  0  0  0  0  0  0  0
    1.1358   -1.9207    0.0000 C   0  0  0  0  0  0  0  0  0  0  0  0
    1.1358   -4.5525    0.0000 C   0  0  0  0  0  0  0  0  0  0  0  0
    9.2343   -3.9523    0.0000 C   0  0  0  0  0  0  0  0  0  0  0  0
    8.0800   -0.6649    0.0000 C   0  0  0  0  0  0  0  0  0  0  0  0
    0.0000   -3.8969    0.0000 C   0  0  0  0  0  0  0  0  0  0  0  0
    0.0000   -2.5764    0.0000 C   0  0  0  0  0  0  0  0  0  0  0  0
  1  3  1  0  0  0  0
  1  7  1  0  0  0  0
  1 12  2  0  0  0  0
  2  8  1  0  0  0  0
  2  4  1  0  0  0  0
  2 11  2  0  0  0  0
  3  5  1  0  0  0  0
  4  6  1  0  0  0  0
  5 13  2  0  0  0  0
  5 15  1  0  0  0  0
  6 14  2  0  0  0  0
  6 16  1  0  0  0  0
  7 10  1  0  0  0  0
  8  9  1  0  0  0  0
  9 10  2  0  0  0  0
  9 18  1  0  0  0  0
 10 17  1  0  0  0  0
 15 20  1  0  0  0  0
 16 19  1  0  0  0  0
 17 22  2  0  0  0  0
 18 21  2  0  0  0  0
 21 22  1  0  0  0  0
M  END
> <ID>
3633

> <Formula>
C12H14N4O4S2

> <FW>
342.394

> <DSSTox_CID>
4338

> <DSSTox_RID>
77373

> <DSSTox_GSID>
24338

> <DSSTox_FileID_Sort>
2056

> <TS_ChemName>
Thiophanate-methyl

> <TS_ChemName_Synonyms>
Thiophanate-methyl (Thiophanate M)

> <TS_CASRN>
23564-05-8

> <CASRN_ChemName_Relationship>
primary

> <TS_Description>
single chemical compound

> <ChemNote>


> <STRUCTURE_Shown>
tested chemical

> <STRUCTURE_Formula>
C12H14N4O4S2

> <STRUCTURE_MW>
342.394

> <STRUCTURE_ChemType>
defined organic

> <STRUCTURE_DefinedOrganicForm>
parent

> <STRUCTURE_IUPAC>
dimethyl (benzene-1,2-diyldicarbamothioyl)biscarbamate

> <STRUCTURE_SMILES>
S=C(Nc1ccccc1NC(=S)NC(=O)OC)NC(=O)OC

> <STRUCTURE_SMILES_Desalt>
S=C(Nc1ccccc1NC(=S)NC(=O)OC)NC(=O)OC

> <Substance_modify_yyyymmdd>
20080429

$$$$
