23593-75-1
ChemmineR-0915142007XD

 25 28  0  0  0  0  0  0  0  0  1 V2000
    3.2055   -3.2055    0.0000 C    0  0  0  0  0  0  0  0  0  0  0  0
    2.2400   -2.2400    0.0000 C    0  0  0  0  0  0  0  0  0  0  0  0
    4.3383   -2.4974    0.0000 N    0  0  0  0  0  0  0  0  0  0  0  0
    4.1195   -4.1195    0.0000 C    0  0  0  0  0  0  0  0  0  0  0  0
    2.2400   -4.1195    0.0000 C    0  0  0  0  0  0  0  0  0  0  0  0
    2.5875   -0.9655    0.0000 C    0  0  0  0  0  0  0  0  0  0  0  0
    0.9655   -2.5875    0.0000 C    0  0  0  0  0  0  0  0  0  0  0  0
    4.4735   -1.1779    0.0000 C    0  0  0  0  0  0  0  0  0  0  0  0
    5.5162   -3.0638    0.0000 C    0  0  0  0  0  0  0  0  0  0  0  0
    3.7719   -5.4390    0.0000 C    0  0  0  0  0  0  0  0  0  0  0  0
    5.4261   -3.7719    0.0000 C    0  0  0  0  0  0  0  0  0  0  0  0
    0.9204   -3.7719    0.0000 C    0  0  0  0  0  0  0  0  0  0  0  0
    2.5875   -5.4390    0.0000 C    0  0  0  0  0  0  0  0  0  0  0  0
    1.6220    0.0000    0.0000 C    0  0  0  0  0  0  0  0  0  0  0  0
    0.0000   -1.6671    0.0000 C    0  0  0  0  0  0  0  0  0  0  0  0
    5.7801   -0.9204    0.0000 C    0  0  0  0  0  0  0  0  0  0  0  0
    6.4367   -2.0662    0.0000 N    0  0  0  0  0  0  0  0  0  0  0  0
    4.7374   -6.3594    0.0000 C    0  0  0  0  0  0  0  0  0  0  0  0
    6.3465   -4.7374    0.0000 C    0  0  0  0  0  0  0  0  0  0  0  0
    0.0000   -4.7374    0.0000 C    0  0  0  0  0  0  0  0  0  0  0  0
    1.6220   -6.3594    0.0000 C    0  0  0  0  0  0  0  0  0  0  0  0
    0.3540   -0.3540    0.0000 C    0  0  0  0  0  0  0  0  0  0  0  0
    6.0054   -6.0054    0.0000 C    0  0  0  0  0  0  0  0  0  0  0  0
    0.3540   -6.0054    0.0000 C    0  0  0  0  0  0  0  0  0  0  0  0
    0.1802   -2.8128    0.0000 Cl   0  0  0  0  0  0  0  0  0  0  0  0
  1  2  1  0  0  0  0
  1  3  1  0  0  0  0
  1  4  1  0  0  0  0
  1  5  1  0  0  0  0
  2  6  2  0  0  0  0
  2  7  1  0  0  0  0
  3  8  1  0  0  0  0
  3  9  1  0  0  0  0
  4 10  2  0  0  0  0
  4 11  1  0  0  0  0
  5 12  2  0  0  0  0
  5 13  1  0  0  0  0
  6 14  1  0  0  0  0
  7 15  2  0  0  0  0
  8 16  2  0  0  0  0
  9 17  2  0  0  0  0
 10 18  1  0  0  0  0
 11 19  2  0  0  0  0
 12 20  1  0  0  0  0
 12 25  1  0  0  0  0
 13 21  2  0  0  0  0
 14 22  2  0  0  0  0
 15 22  1  0  0  0  0
 16 17  1  0  0  0  0
 18 23  2  0  0  0  0
 19 23  1  0  0  0  0
 20 24  2  0  0  0  0
 21 24  1  0  0  0  0
M  END
> <ID>
6243

> <Formula>
C22H17ClN2

> <FW>
344.8368

> <DSSTox_CID>
9871

> <DSSTox_RID>
78827

> <DSSTox_GSID>
29871

> <DSSTox_FileID_Sort>
3509

> <TS_ChemName>
Clotrimazole

> <TS_ChemName_Synonyms>


> <TS_CASRN>
23593-75-1

> <CASRN_ChemName_Relationship>
primary

> <TS_Description>
single chemical compound

> <ChemNote>


> <STRUCTURE_Shown>
tested chemical

> <STRUCTURE_Formula>
C22H17ClN2

> <STRUCTURE_MW>
344.8368

> <STRUCTURE_ChemType>
defined organic

> <STRUCTURE_DefinedOrganicForm>
parent

> <STRUCTURE_IUPAC>
1-[(2-chlorophenyl)(diphenyl)methyl]-1H-imidazole

> <STRUCTURE_SMILES>
Clc1ccccc1C(c2ccccc2)(c3ccccc3)n4ccnc4

> <STRUCTURE_SMILES_Desalt>
Clc1ccccc1C(c2ccccc2)(c3ccccc3)n4ccnc4

> <Substance_modify_yyyymmdd>
20080429

$$$$
