23597-82-2
ChemmineR-0915142007XD

 15 15  0  0  0  0  0  0  0  0  1 V2000
    0.0000   -1.9924    0.0000 C   0  0  0  0  0  0  0  0  0  0  0  0
    1.1517   -1.3244    0.0000 C   0  0  0  0  0  0  0  0  0  0  0  0
    2.3034   -1.9924    0.0000 C   0  0  0  0  0  0  0  0  0  0  0  0
    3.4551   -1.3244    0.0000 C   0  0  0  0  0  0  0  0  0  0  0  0
    4.6068   -1.9924    0.0000 C   0  0  0  0  0  0  0  0  0  0  0  0
    5.7585   -1.3244    0.0000 C   0  0  0  0  0  0  0  0  0  0  0  0
    6.9102   -1.9924    0.0000 O   0  0  0  0  0  0  0  0  0  0  0  0
    8.0618   -1.3244    0.0000 C   0  0  0  0  0  0  0  0  0  0  0  0
    8.0618    0.0000    0.0000 O   0  0  0  0  0  0  0  0  0  0  0  0
    9.2135   -1.9924    0.0000 C   0  0  0  0  0  0  0  0  0  0  0  0
   10.3652   -1.3244    0.0000 C   0  0  0  0  0  0  0  0  0  0  0  0
   11.5169   -1.9924    0.0000 N   0  0  0  0  0  0  0  0  0  0  0  0
   11.5169   -3.3169    0.0000 C   0  0  0  0  0  0  0  0  0  0  0  0
   10.3652   -3.9849    0.0000 C   0  0  0  0  0  0  0  0  0  0  0  0
    9.2135   -3.3169    0.0000 C   0  0  0  0  0  0  0  0  0  0  0  0
  1  2  1  0  0  0  0
  2  3  1  0  0  0  0
  3  4  1  0  0  0  0
  4  5  1  0  0  0  0
  5  6  1  0  0  0  0
  6  7  1  0  0  0  0
  7  8  1  0  0  0  0
  8  9  2  0  0  0  0
  8 10  1  0  0  0  0
 10 11  2  0  0  0  0
 10 15  1  0  0  0  0
 11 12  1  0  0  0  0
 12 13  2  0  0  0  0
 13 14  1  0  0  0  0
 14 15  2  0  0  0  0
M  END
> <ID>
11539

> <Formula>
C12H17NO2

> <FW>
207.2689

> <DSSTox_CID>
26245

> <DSSTox_RID>
81472

> <DSSTox_GSID>
46245

> <DSSTox_FileID_Sort>
6153

> <TS_ChemName>
Hexyl nicotinate

> <TS_ChemName_Synonyms>


> <TS_CASRN>
23597-82-2

> <CASRN_ChemName_Relationship>
primary

> <TS_Description>
single chemical compound

> <ChemNote>


> <STRUCTURE_Shown>
tested chemical

> <STRUCTURE_Formula>
C12H17NO2

> <STRUCTURE_MW>
207.2689

> <STRUCTURE_ChemType>
defined organic

> <STRUCTURE_DefinedOrganicForm>
parent

> <STRUCTURE_IUPAC>
hexyl pyridine-3-carboxylate

> <STRUCTURE_SMILES>
O=C(OCCCCCC)c1cccnc1

> <STRUCTURE_SMILES_Desalt>
O=C(OCCCCCC)c1cccnc1

> <Substance_modify_yyyymmdd>
20110817

$$$$
