2363-58-8
ChemmineR-0915142007XD

 25 29  0  0  1  0  0  0  0  0  1 V2000
    0.0000   -4.4478    0.0000 S   0  0  0  0  0  0  0  0  0  0  0  0
    3.5043   -3.6661    0.0000 C   0  0  0  0  0  0  0  0  0  0  0  0
    1.1951   -3.6661    0.0000 C   0  0  0  0  0  0  0  0  0  0  0  0
    1.1951   -5.0229    0.0000 C   0  0  0  0  0  0  0  0  0  0  0  0
    6.9548   -1.6893    0.0000 C   0  0  0  0  0  0  0  0  0  0  0  0
    4.6545   -3.0191    0.0000 C   0  0  0  0  0  0  0  0  0  0  0  0
    6.9548   -3.0191    0.0000 C   0  0  0  0  0  0  0  0  0  0  0  0
    5.7777   -3.6661    0.0000 C   0  0  0  0  0  0  0  0  0  0  0  0
    2.3632   -3.0191    0.0000 C   0  0  0  0  0  0  0  0  0  0  0  0
    3.5043   -5.0229    0.0000 C   0  0  0  0  0  0  0  0  0  0  0  0
    2.3632   -5.6788    0.0000 C   0  0  0  0  0  0  0  0  0  0  0  0
    5.7777   -1.0423    0.0000 C   0  0  0  0  0  0  0  0  0  0  0  0
    4.6545   -1.6893    0.0000 C   0  0  0  0  0  0  0  0  0  0  0  0
    5.7777   -5.0229    0.0000 C   0  0  0  0  0  0  0  0  0  0  0  0
    8.1947   -3.4324    0.0000 C   0  0  0  0  0  0  0  0  0  0  0  0
    8.1947   -1.2849    0.0000 C   0  0  0  0  0  0  0  0  0  0  0  0
    4.6545   -5.6788    0.0000 C   0  0  0  0  0  0  0  0  0  0  0  0
    8.9855   -2.3722    0.0000 C   0  0  0  0  0  0  0  0  0  0  0  0
    3.5043   -2.3272    0.0000 C   0  0  0  0  0  0  0  0  0  0  0  0
    6.9548   -0.3594    0.0000 C   0  0  0  0  0  0  0  0  0  0  0  0
    8.5991    0.0000    0.0000 O   0  0  0  0  0  0  0  0  0  0  0  0
    4.6545   -4.3310    0.0000 H   0  0  0  0  0  0  0  0  0  0  0  0
    6.9548   -4.3490    0.0000 H   0  0  0  0  0  0  0  0  0  0  0  0
    3.5043   -6.3527    0.0000 H   0  0  0  0  0  0  0  0  0  0  0  0
    5.7777   -2.3722    0.0000 H   0  0  0  0  0  0  0  0  0  0  0  0
  3  1  1  6  0  0  0
  4  1  1  6  0  0  0
  2  9  1  0  0  0  0
  2  6  1  0  0  0  0
  2 19  1  1  0  0  0
  2 10  1  0  0  0  0
  3  9  1  0  0  0  0
  3  4  1  0  0  0  0
  4 11  1  0  0  0  0
  5 12  1  0  0  0  0
  5 16  1  0  0  0  0
  5 20  1  1  0  0  0
  5  7  1  0  0  0  0
  6  8  1  0  0  0  0
  6 13  1  0  0  0  0
  6 22  1  6  0  0  0
  7  8  1  0  0  0  0
  7 15  1  0  0  0  0
  7 23  1  6  0  0  0
  8 25  1  1  0  0  0
  8 14  1  0  0  0  0
 10 11  1  0  0  0  0
 10 17  1  0  0  0  0
 10 24  1  6  0  0  0
 12 13  1  0  0  0  0
 14 17  1  0  0  0  0
 15 18  1  0  0  0  0
 16 21  1  1  0  0  0
 16 18  1  0  0  0  0
M  END
> <ID>
10900

> <Formula>
C19H30OS

> <FW>
306.5059

> <DSSTox_CID>
25367

> <DSSTox_RID>
80830

> <DSSTox_GSID>
45367

> <DSSTox_FileID_Sort>
5511

> <TS_ChemName>
Epitiostanol

> <TS_ChemName_Synonyms>


> <TS_CASRN>
2363-58-8

> <CASRN_ChemName_Relationship>
primary

> <TS_Description>
single chemical compound

> <ChemNote>
stereochem

> <STRUCTURE_Shown>
tested chemical

> <STRUCTURE_Formula>
C19H30OS

> <STRUCTURE_MW>
306.5059

> <STRUCTURE_ChemType>
defined organic

> <STRUCTURE_DefinedOrganicForm>
parent

> <STRUCTURE_IUPAC>
(2alpha,3alpha,5alpha,17beta)-2,3-epithioandrostan-17-ol

> <STRUCTURE_SMILES>
O[C@H]1CC[C@H]2[C@@H]3CC[C@H]4C[C@@H]5S[C@@H]5C[C@]4(C)[C@H]3CC[C@]12C

> <STRUCTURE_SMILES_Desalt>
O[C@H]1CC[C@H]2[C@@H]3CC[C@H]4C[C@@H]5S[C@@H]5C[C@]4(C)[C@H]3CC[C@]12C

> <Substance_modify_yyyymmdd>
20100107

$$$$
