23642-66-2
ChemmineR-0915142007XD

 26 26  0  0  0  0  0  0  0  0  1 V2000
    7.9386   -4.3081    0.0000 Cl   0  0  0  0  0  0  0  0  0  0  0  0
    9.2133   -0.6777    0.0000 C    0  0  0  0  0  0  0  0  0  0  0  0
    9.2133   -2.0169    0.0000 C    0  0  0  0  0  0  0  0  0  0  0  0
   10.3589   -2.6785    0.0000 C    0  0  0  0  0  0  0  0  0  0  0  0
   11.5206   -2.0169    0.0000 C    0  0  0  0  0  0  0  0  0  0  0  0
   12.6824   -2.6785    0.0000 C    0  0  0  0  0  0  0  0  0  0  0  0
   13.8441   -2.0169    0.0000 C    0  0  0  0  0  0  0  0  0  0  0  0
   13.8441   -0.6777    0.0000 C    0  0  0  0  0  0  0  0  0  0  0  0
   12.6824   -0.0161    0.0000 C    0  0  0  0  0  0  0  0  0  0  0  0
   11.5206   -0.6777    0.0000 C    0  0  0  0  0  0  0  0  0  0  0  0
   14.9897   -2.6785    0.0000 C    0  0  0  0  0  0  0  0  0  0  0  0
   14.3120   -3.8402    0.0000 F    0  0  0  0  0  0  0  0  0  0  0  0
   15.6513   -1.5329    0.0000 F    0  0  0  0  0  0  0  0  0  0  0  0
   16.1353   -3.3400    0.0000 F    0  0  0  0  0  0  0  0  0  0  0  0
    8.0677   -2.6623    0.0000 N    0  0  0  0  0  0  0  0  0  0  0  0
    6.9221   -2.0169    0.0000 C    0  0  0  0  0  0  0  0  0  0  0  0
    5.7764   -2.6623    0.0000 C    0  0  0  0  0  0  0  0  0  0  0  0
    4.6147   -2.0169    0.0000 O    0  0  0  0  0  0  0  0  0  0  0  0
    3.4530   -2.6623    0.0000 C    0  0  0  0  0  0  0  0  0  0  0  0
    3.4530   -4.0016    0.0000 O    0  0  0  0  0  0  0  0  0  0  0  0
    2.2912   -2.0169    0.0000 C    0  0  0  0  0  0  0  0  0  0  0  0
    1.1456   -2.6623    0.0000 C    0  0  0  0  0  0  0  0  0  0  0  0
    0.0000   -2.0169    0.0000 C    0  0  0  0  0  0  0  0  0  0  0  0
    0.0000   -0.6777    0.0000 C    0  0  0  0  0  0  0  0  0  0  0  0
    1.1456    0.0000    0.0000 C    0  0  0  0  0  0  0  0  0  0  0  0
    2.2912   -0.6777    0.0000 C    0  0  0  0  0  0  0  0  0  0  0  0
  2  3  1  0  0  0  0
  3  4  1  0  0  0  0
  3 15  1  0  0  0  0
  4  5  1  0  0  0  0
  5  6  2  0  0  0  0
  5 10  1  0  0  0  0
  6  7  1  0  0  0  0
  7  8  2  0  0  0  0
  7 11  1  0  0  0  0
  8  9  1  0  0  0  0
  9 10  2  0  0  0  0
 11 12  1  0  0  0  0
 11 13  1  0  0  0  0
 11 14  1  0  0  0  0
 15 16  1  0  0  0  0
 16 17  1  0  0  0  0
 17 18  1  0  0  0  0
 18 19  1  0  0  0  0
 19 20  2  0  0  0  0
 19 21  1  0  0  0  0
 21 22  2  0  0  0  0
 21 26  1  0  0  0  0
 22 23  1  0  0  0  0
 23 24  2  0  0  0  0
 24 25  1  0  0  0  0
 25 26  2  0  0  0  0
M  END
> <ID>
11243

> <Formula>
C19H21ClF3NO2

> <FW>
387.8237 (36.4609+351.3628)

> <DSSTox_CID>
25854

> <DSSTox_RID>
81175

> <DSSTox_GSID>
45854

> <DSSTox_FileID_Sort>
5856

> <TS_ChemName>
Benfluorex hydrochloride

> <TS_ChemName_Synonyms>


> <TS_CASRN>
23642-66-2

> <CASRN_ChemName_Relationship>
primary

> <TS_Description>
single chemical compound

> <ChemNote>
parent [23602-78-0]

> <STRUCTURE_Shown>
tested chemical

> <STRUCTURE_Formula>
C19H21ClF3NO2

> <STRUCTURE_MW>
387.8237

> <STRUCTURE_ChemType>
defined organic

> <STRUCTURE_DefinedOrganicForm>
complex

> <STRUCTURE_IUPAC>
2-({1-[3-(trifluoromethyl)phenyl]propan-2-yl}amino)ethyl benzoate hydrochloride (1:1)

> <STRUCTURE_SMILES>
Cl.FC(F)(F)c2cccc(CC(C)NCCOC(=O)c1ccccc1)c2

> <STRUCTURE_SMILES_Desalt>
FC(F)(F)c2cccc(CC(C)NCCOC(=O)c1ccccc1)c2

> <Substance_modify_yyyymmdd>
20110922

$$$$
