23651-95-8
ChemmineR-0915142007XD

 15 15  0  0  1  0  0  0  0  0  1 V2000
    3.4454   -2.0091    0.0000 C   0  0  0  0  0  0  0  0  0  0  0  0
    4.6234   -1.2991    0.0000 C   0  0  0  0  0  0  0  0  0  0  0  0
    2.2754   -1.2991    0.0000 C   0  0  0  0  0  0  0  0  0  0  0  0
    3.4454   -3.3244    0.0000 C   0  0  0  0  0  0  0  0  0  0  0  0
    5.7611   -2.0091    0.0000 C   0  0  0  0  0  0  0  0  0  0  0  0
    4.6234    0.0000    0.0000 O   0  0  0  0  0  0  0  0  0  0  0  0
    1.1538   -2.0091    0.0000 C   0  0  0  0  0  0  0  0  0  0  0  0
    2.2754   -3.9537    0.0000 C   0  0  0  0  0  0  0  0  0  0  0  0
    6.8827   -1.2991    0.0000 C   0  0  0  0  0  0  0  0  0  0  0  0
    5.7611   -3.3244    0.0000 N   0  0  0  0  0  0  0  0  0  0  0  0
    1.1538   -3.3244    0.0000 C   0  0  0  0  0  0  0  0  0  0  0  0
    0.0000   -1.2991    0.0000 O   0  0  0  0  0  0  0  0  0  0  0  0
    8.0688   -2.0091    0.0000 O   0  0  0  0  0  0  0  0  0  0  0  0
    6.8827    0.0000    0.0000 O   0  0  0  0  0  0  0  0  0  0  0  0
    0.0000   -3.9537    0.0000 O   0  0  0  0  0  0  0  0  0  0  0  0
  1  2  1  0  0  0  0
  1  3  2  0  0  0  0
  1  4  1  0  0  0  0
  2  5  1  0  0  0  0
  2  6  1  6  0  0  0
  3  7  1  0  0  0  0
  4  8  2  0  0  0  0
  5  9  1  0  0  0  0
  5 10  1  1  0  0  0
  7 11  2  0  0  0  0
  7 12  1  0  0  0  0
  8 11  1  0  0  0  0
  9 13  1  0  0  0  0
  9 14  2  0  0  0  0
 11 15  1  0  0  0  0
M  END
> <ID>
11666

> <Formula>
C9H11NO5

> <FW>
213.1873

> <DSSTox_CID>
26422

> <DSSTox_RID>
81600

> <DSSTox_GSID>
46422

> <DSSTox_FileID_Sort>
6281

> <TS_ChemName>
Droxidopa

> <TS_ChemName_Synonyms>


> <TS_CASRN>
23651-95-8

> <CASRN_ChemName_Relationship>
primary

> <TS_Description>
single chemical compound

> <ChemNote>
stereochem

> <STRUCTURE_Shown>
tested chemical

> <STRUCTURE_Formula>
C9H11NO5

> <STRUCTURE_MW>
213.1873

> <STRUCTURE_ChemType>
defined organic

> <STRUCTURE_DefinedOrganicForm>
parent

> <STRUCTURE_IUPAC>
(betaS)-beta,3-dihydroxy-L-tyrosine

> <STRUCTURE_SMILES>
Oc1ccc(cc1O)[C@H](O)[C@H](N)C(=O)O

> <STRUCTURE_SMILES_Desalt>
Oc1ccc(cc1O)[C@H](O)[C@H](N)C(=O)O

> <Substance_modify_yyyymmdd>
20110813

$$$$
