23672-07-3
ChemmineR-0915142007XD

 23 24  0  0  1  0  0  0  0  0  1 V2000
    0.0000   -0.4049    0.0000 C   0  0  0  0  0  0  0  0  0  0  0  0
    9.6775    0.0000    0.0000 C   0  0  0  0  0  0  0  0  0  0  0  0
    1.2739   -0.8196    0.0000 C   0  0  0  0  0  0  0  0  0  0  0  0
    1.3232   -4.2660    0.0000 C   0  0  0  0  0  0  0  0  0  0  0  0
    2.6169   -3.9895    0.0000 C   0  0  0  0  0  0  0  0  0  0  0  0
    9.6775   -3.9994    0.0000 C   0  0  0  0  0  0  0  0  0  0  0  0
    9.6775   -2.6662    0.0000 C   0  0  0  0  0  0  0  0  0  0  0  0
    0.6616   -3.1007    0.0000 C   0  0  0  0  0  0  0  0  0  0  0  0
    7.3865   -3.9895    0.0000 C   0  0  0  0  0  0  0  0  0  0  0  0
    3.9204   -1.9947    0.0000 C   0  0  0  0  0  0  0  0  0  0  0  0
    2.7650   -2.6662    0.0000 C   0  0  0  0  0  0  0  0  0  0  0  0
    8.5419   -4.6610    0.0000 C   0  0  0  0  0  0  0  0  0  0  0  0
    7.3865   -2.6662    0.0000 C   0  0  0  0  0  0  0  0  0  0  0  0
    8.5419   -1.9947    0.0000 C   0  0  0  0  0  0  0  0  0  0  0  0
    6.2212   -1.9947    0.0000 C   0  0  0  0  0  0  0  0  0  0  0  0
    7.2087   -5.9941    0.0000 N   0  0  0  0  0  0  0  0  0  0  0  0
    5.0856   -2.6662    0.0000 N   0  0  0  0  0  0  0  0  0  0  0  0
    1.5405   -2.1231    0.0000 N   0  0  0  0  0  0  0  0  0  0  0  0
    6.2212   -0.6715    0.0000 O   0  0  0  0  0  0  0  0  0  0  0  0
    9.8750   -5.9941    0.0000 O   0  0  0  0  0  0  0  0  0  0  0  0
    8.5419   -7.3174    0.0000 O   0  0  0  0  0  0  0  0  0  0  0  0
    8.5419   -0.6616    0.0000 O   0  0  0  0  0  0  0  0  0  0  0  0
    8.5419   -5.9941    0.0000 S   0  0  0  0  0  0  0  0  0  0  0  0
  1  3  1  0  0  0  0
  2 22  1  0  0  0  0
  3 18  1  0  0  0  0
  4  5  1  0  0  0  0
  4  8  1  0  0  0  0
  5 11  1  0  0  0  0
  6  7  2  0  0  0  0
  6 12  1  0  0  0  0
  7 14  1  0  0  0  0
  8 18  1  0  0  0  0
  9 12  2  0  0  0  0
  9 13  1  0  0  0  0
 11 10  1  6  0  0  0
 10 17  1  0  0  0  0
 11 18  1  0  0  0  0
 12 23  1  0  0  0  0
 13 14  2  0  0  0  0
 13 15  1  0  0  0  0
 14 22  1  0  0  0  0
 15 17  1  0  0  0  0
 15 19  2  0  0  0  0
 16 23  1  0  0  0  0
 20 23  2  0  0  0  0
 21 23  2  0  0  0  0
M  END
> <ID>
9455

> <Formula>
C15H23N3O4S

> <FW>
341.4258

> <DSSTox_CID>
22583

> <DSSTox_RID>
80052

> <DSSTox_GSID>
42583

> <DSSTox_FileID_Sort>
4734

> <TS_ChemName>
Levosulpiride

> <TS_ChemName_Synonyms>
(S)-(-)-sulpiride

> <TS_CASRN>
23672-07-3

> <CASRN_ChemName_Relationship>
primary

> <TS_Description>
single chemical compound

> <ChemNote>
stereochem

> <STRUCTURE_Shown>
tested chemical

> <STRUCTURE_Formula>
C15H23N3O4S

> <STRUCTURE_MW>
341.4258

> <STRUCTURE_ChemType>
defined organic

> <STRUCTURE_DefinedOrganicForm>
parent

> <STRUCTURE_IUPAC>
N-{[(2S)-1-ethylpyrrolidin-2-yl]methyl}-2-methoxy-5-sulfamoylbenzamide

> <STRUCTURE_SMILES>
CCN2CCC[C@H]2CNC(=O)c1cc(ccc1OC)S(N)(=O)=O

> <STRUCTURE_SMILES_Desalt>
CCN2CCC[C@H]2CNC(=O)c1cc(ccc1OC)S(N)(=O)=O

> <Substance_modify_yyyymmdd>
20081003

$$$$
