23674-86-4
ChemmineR-0915142007XD

 38 41  0  0  1  0  0  0  0  0  1 V2000
    3.5084   -4.6300    0.0000 C   0  0  0  0  0  0  0  0  0  0  0  0
    6.9385   -2.6476    0.0000 C   0  0  0  0  0  0  0  0  0  0  0  0
    4.6430   -4.0040    0.0000 C   0  0  0  0  0  0  0  0  0  0  0  0
    8.2166   -2.2433    0.0000 C   0  0  0  0  0  0  0  0  0  0  0  0
    3.5084   -5.9864    0.0000 C   0  0  0  0  0  0  0  0  0  0  0  0
    5.8169   -4.6300    0.0000 C   0  0  0  0  0  0  0  0  0  0  0  0
    6.9385   -4.0040    0.0000 C   0  0  0  0  0  0  0  0  0  0  0  0
    4.6430   -2.6606    0.0000 C   0  0  0  0  0  0  0  0  0  0  0  0
    2.3215   -4.0040    0.0000 C   0  0  0  0  0  0  0  0  0  0  0  0
    5.7908   -1.9824    0.0000 C   0  0  0  0  0  0  0  0  0  0  0  0
    5.8169   -5.9864    0.0000 C   0  0  0  0  0  0  0  0  0  0  0  0
    4.6430   -6.6907    0.0000 C   0  0  0  0  0  0  0  0  0  0  0  0
    2.3215   -6.6907    0.0000 C   0  0  0  0  0  0  0  0  0  0  0  0
    8.5688   -0.9521    0.0000 C   0  0  0  0  0  0  0  0  0  0  0  0
    8.9731   -3.3127    0.0000 C   0  0  0  0  0  0  0  0  0  0  0  0
    9.3513   -2.2433    0.0000 O   0  0  0  0  0  0  0  0  0  0  0  0
    8.2166   -4.3822    0.0000 C   0  0  0  0  0  0  0  0  0  0  0  0
    1.1608   -4.6300    0.0000 C   0  0  0  0  0  0  0  0  0  0  0  0
    1.1608   -5.9864    0.0000 C   0  0  0  0  0  0  0  0  0  0  0  0
   10.0426   -3.4301    0.0000 C   0  0  0  0  0  0  0  0  0  0  0  0
   12.0641   -1.2781    0.0000 C   0  0  0  0  0  0  0  0  0  0  0  0
    4.6300   -5.3473    0.0000 F   0  0  0  0  0  0  0  0  0  0  0  0
    9.8469   -0.6521    0.0000 C   0  0  0  0  0  0  0  0  0  0  0  0
    7.6297    0.0000    0.0000 O   0  0  0  0  0  0  0  0  0  0  0  0
   10.7599   -1.6172    0.0000 O   0  0  0  0  0  0  0  0  0  0  0  0
   11.3989   -3.4301    0.0000 O   0  0  0  0  0  0  0  0  0  0  0  0
   13.0423   -2.1781    0.0000 O   0  0  0  0  0  0  0  0  0  0  0  0
    0.0000   -6.6907    0.0000 O   0  0  0  0  0  0  0  0  0  0  0  0
    3.5084   -3.3127    0.0000 C   0  0  0  0  0  0  0  0  0  0  0  0
    6.9385   -1.3564    0.0000 C   0  0  0  0  0  0  0  0  0  0  0  0
    3.4692   -1.9694    0.0000 O   0  0  0  0  0  0  0  0  0  0  0  0
    4.6691   -8.0080    0.0000 F   0  0  0  0  0  0  0  0  0  0  0  0
    9.3644   -4.4996    0.0000 C   0  0  0  0  0  0  0  0  0  0  0  0
   12.4945   -0.0130    0.0000 C   0  0  0  0  0  0  0  0  0  0  0  0
   10.0426   -5.6995    0.0000 C   0  0  0  0  0  0  0  0  0  0  0  0
    9.3644   -6.8602    0.0000 C   0  0  0  0  0  0  0  0  0  0  0  0
    5.8169   -3.3127    0.0000 H   0  0  0  0  0  0  0  0  0  0  0  0
    6.9385   -5.3082    0.0000 H   0  0  0  0  0  0  0  0  0  0  0  0
  1  3  1  0  0  0  0
  1  5  1  0  0  0  0
  1  9  1  0  0  0  0
  1 29  1  1  0  0  0
  2 10  1  0  0  0  0
  2  4  1  0  0  0  0
  2 30  1  1  0  0  0
  2  7  1  0  0  0  0
  3  6  1  0  0  0  0
  3  8  1  0  0  0  0
  3 22  1  6  0  0  0
  4 14  1  0  0  0  0
  4 16  1  6  0  0  0
  4 15  1  0  0  0  0
  5 12  1  0  0  0  0
  5 13  2  0  0  0  0
  6  7  1  0  0  0  0
  6 11  1  0  0  0  0
  6 37  1  1  0  0  0
  7 17  1  0  0  0  0
  7 38  1  6  0  0  0
  8 10  1  0  0  0  0
  8 31  1  1  0  0  0
  9 18  2  0  0  0  0
 11 12  1  0  0  0  0
 12 32  1  6  0  0  0
 13 19  1  0  0  0  0
 14 23  1  0  0  0  0
 14 24  2  0  0  0  0
 15 17  1  0  0  0  0
 16 20  1  0  0  0  0
 18 19  1  0  0  0  0
 19 28  2  0  0  0  0
 20 26  2  0  0  0  0
 20 33  1  0  0  0  0
 21 25  1  0  0  0  0
 21 27  2  0  0  0  0
 21 34  1  0  0  0  0
 23 25  1  0  0  0  0
 33 35  1  0  0  0  0
 35 36  1  0  0  0  0
M  END
> <ID>
11958

> <Formula>
C27H34F2O7

> <FW>
508.5515

> <DSSTox_CID>
26773

> <DSSTox_RID>
81894

> <DSSTox_GSID>
46773

> <DSSTox_FileID_Sort>
6575

> <TS_ChemName>
Difluprednate

> <TS_ChemName_Synonyms>


> <TS_CASRN>
23674-86-4

> <CASRN_ChemName_Relationship>
primary

> <TS_Description>
single chemical compound

> <ChemNote>
stereochem; tautomers

> <STRUCTURE_Shown>
tested chemical

> <STRUCTURE_Formula>
C27H34F2O7

> <STRUCTURE_MW>
508.5515

> <STRUCTURE_ChemType>
defined organic

> <STRUCTURE_DefinedOrganicForm>
parent

> <STRUCTURE_IUPAC>
(6alpha,11beta)-21-(acetyloxy)-6,9-difluoro-11-hydroxy-3,20-dioxopregna-1,4-dien-17-yl butanoate

> <STRUCTURE_SMILES>
CC(=O)OCC(=O)[C@@]4(OC(=O)CCC)CC[C@@H]3[C@]4(C)C[C@H](O)[C@@]2(F)[C@H]3C[C@H](F)C1=CC(=O)C=C[C@@]12C

> <STRUCTURE_SMILES_Desalt>
CC(=O)OCC(=O)[C@@]4(OC(=O)CCC)CC[C@@H]3[C@]4(C)C[C@H](O)[C@@]2(F)[C@H]3C[C@H](F)C1=CC(=O)C=C[C@@]12C

> <Substance_modify_yyyymmdd>
20110803

$$$$
