23680-84-4
ChemmineR-0915142007XD

 16 17  0  0  0  0  0  0  0  0  1 V2000
    1.1529   -5.3212    0.0000 C    0  0  0  0  0  0  0  0  0  0  0  0
    1.1529   -3.9909    0.0000 O    0  0  0  0  0  0  0  0  0  0  0  0
    2.3058   -3.3298    0.0000 C    0  0  0  0  0  0  0  0  0  0  0  0
    3.4588   -3.9909    0.0000 C    0  0  0  0  0  0  0  0  0  0  0  0
    4.6036   -3.3298    0.0000 C    0  0  0  0  0  0  0  0  0  0  0  0
    5.7566   -3.9909    0.0000 N    0  0  0  0  0  0  0  0  0  0  0  0
    6.9095   -3.3298    0.0000 C    0  0  0  0  0  0  0  0  0  0  0  0
    6.9095   -1.9995    0.0000 N    0  0  0  0  0  0  0  0  0  0  0  0
    5.7566   -1.3303    0.0000 C    0  0  0  0  0  0  0  0  0  0  0  0
    4.6036   -1.9995    0.0000 C    0  0  0  0  0  0  0  0  0  0  0  0
    3.4588   -1.3303    0.0000 C    0  0  0  0  0  0  0  0  0  0  0  0
    2.3058   -1.9995    0.0000 C    0  0  0  0  0  0  0  0  0  0  0  0
    1.1529   -1.3303    0.0000 O    0  0  0  0  0  0  0  0  0  0  0  0
    0.0000   -1.9995    0.0000 C    0  0  0  0  0  0  0  0  0  0  0  0
    5.7566    0.0000    0.0000 N    0  0  0  0  0  0  0  0  0  0  0  0
    8.0624   -3.9909    0.0000 Cl   0  0  0  0  0  0  0  0  0  0  0  0
  1  2  1  0  0  0  0
  2  3  1  0  0  0  0
  3  4  2  0  0  0  0
  3 12  1  0  0  0  0
  4  5  1  0  0  0  0
  5  6  2  0  0  0  0
  5 10  1  0  0  0  0
  6  7  1  0  0  0  0
  7  8  2  0  0  0  0
  7 16  1  0  0  0  0
  8  9  1  0  0  0  0
  9 10  2  0  0  0  0
  9 15  1  0  0  0  0
 10 11  1  0  0  0  0
 11 12  2  0  0  0  0
 12 13  1  0  0  0  0
 13 14  1  0  0  0  0
M  END
> <ID>
16096

> <Formula>
C10H10ClN3O2

> <FW>
239.6583

> <DSSTox_CID>
31483

> <DSSTox_RID>
97368

> <DSSTox_GSID>
57694

> <DSSTox_FileID_Sort>
8435

> <TS_ChemName>
4-Amino-2-chloro-6,7-dimethoxyquinazoline

> <TS_ChemName_Synonyms>


> <TS_CASRN>
23680-84-4

> <CASRN_ChemName_Relationship>
primary

> <TS_Description>
single chemical compound

> <ChemNote>


> <STRUCTURE_Shown>
tested chemical

> <STRUCTURE_Formula>
C10H10ClN3O2

> <STRUCTURE_MW>
239.6583

> <STRUCTURE_ChemType>
defined organic

> <STRUCTURE_DefinedOrganicForm>
parent

> <STRUCTURE_IUPAC>
2-chloro-6,7-dimethoxyquinazolin-4-amine

> <STRUCTURE_SMILES>
Nc2nc(Cl)nc1cc(OC)c(cc12)OC

> <STRUCTURE_SMILES_Desalt>
Nc2nc(Cl)nc1cc(OC)c(cc12)OC

> <Substance_modify_yyyymmdd>
20131018

$$$$
