23696-28-8
ChemmineR-0915142007XD

 19 20  0  0  0  0  0  0  0  0  2 V2000
    3.4417   -1.3510    0.0000 N   0  3  0  0  0  0  0  0  0  0  0  0
    3.4417   -4.0046    0.0000 N   0  3  0  0  0  0  0  0  0  0  0  0
    4.5997   -2.0184    0.0000 C   0  0  0  0  0  0  0  0  0  0  0  0
    4.5997   -3.3452    0.0000 C   0  0  0  0  0  0  0  0  0  0  0  0
    2.2999   -2.0184    0.0000 C   0  0  0  0  0  0  0  0  0  0  0  0
    2.2999   -3.3452    0.0000 C   0  0  0  0  0  0  0  0  0  0  0  0
    5.7577   -1.3429    0.0000 C   0  0  0  0  0  0  0  0  0  0  0  0
    3.4417   -0.0322    0.0000 O   0  5  0  0  0  0  0  0  0  0  0  0
    3.4417   -5.3315    0.0000 O   0  5  0  0  0  0  0  0  0  0  0  0
    5.7577    0.0000    0.0000 O   0  0  0  0  0  0  0  0  0  0  0  0
    6.8996   -2.0023    0.0000 N   0  0  0  0  0  0  0  0  0  0  0  0
    5.7738   -4.0046    0.0000 C   0  0  0  0  0  0  0  0  0  0  0  0
    1.1580   -1.3510    0.0000 C   0  0  0  0  0  0  0  0  0  0  0  0
    1.1580   -4.0046    0.0000 C   0  0  0  0  0  0  0  0  0  0  0  0
    8.0415   -5.3476    0.0000 O   0  0  0  0  0  0  0  0  0  0  0  0
    6.8996   -3.3452    0.0000 C   0  0  0  0  0  0  0  0  0  0  0  0
    8.0415   -4.0046    0.0000 C   0  0  0  0  0  0  0  0  0  0  0  0
    0.0000   -2.0184    0.0000 C   0  0  0  0  0  0  0  0  0  0  0  0
    0.0000   -3.3452    0.0000 C   0  0  0  0  0  0  0  0  0  0  0  0
  1  3  2  0  0  0  0
  1  5  1  0  0  0  0
  1  8  1  0  0  0  0
  2  6  1  0  0  0  0
  2  9  1  0  0  0  0
  2  4  2  0  0  0  0
  3  4  1  0  0  0  0
  3  7  1  0  0  0  0
  4 12  1  0  0  0  0
  5  6  2  0  0  0  0
  5 13  1  0  0  0  0
  6 14  1  0  0  0  0
  7 10  2  0  0  0  0
  7 11  1  0  0  0  0
 11 16  1  0  0  0  0
 13 18  2  0  0  0  0
 14 19  2  0  0  0  0
 15 17  1  0  0  0  0
 16 17  1  0  0  0  0
 18 19  1  0  0  0  0
M  END
> <ID>
7922

> <Formula>
C12H13N3O4

> <FW>
263.2493

> <DSSTox_CID>
20726

> <DSSTox_RID>
79573

> <DSSTox_GSID>
40726

> <DSSTox_FileID_Sort>
4255

> <TS_ChemName>
Olaquindox

> <TS_ChemName_Synonyms>


> <TS_CASRN>
23696-28-8

> <CASRN_ChemName_Relationship>
primary

> <TS_Description>
single chemical compound

> <ChemNote>
ammonium

> <STRUCTURE_Shown>
tested chemical

> <STRUCTURE_Formula>
C12H13N3O4

> <STRUCTURE_MW>
263.2493

> <STRUCTURE_ChemType>
defined organic

> <STRUCTURE_DefinedOrganicForm>
parent

> <STRUCTURE_IUPAC>
N-(2-hydroxyethyl)-3-methylquinoxaline-2-carboxamide 1,4-dioxide

> <STRUCTURE_SMILES>
OCCNC(=O)c2c(C)[n+]([O-])c1ccccc1[n+]2[O-]

> <STRUCTURE_SMILES_Desalt>
OCCNC(=O)c2c(C)[n+](O)c1ccccc1[n+]2O

> <Substance_modify_yyyymmdd>
20080429

$$$$
