23694-17-9
ChemmineR-0915142007XD

 25 25  0  0  0  0  0  0  0  0  1 V2000
    3.8030   -9.3482    0.0000 Cl   0  0  0  0  0  0  0  0  0  0  0  0
    6.9128   -3.3721    0.0000 C    0  0  0  0  0  0  0  0  0  0  0  0
    5.6295   -0.7868    0.0000 C    0  0  0  0  0  0  0  0  0  0  0  0
    5.7607   -5.3766    0.0000 S    0  0  0  0  0  0  0  0  0  0  0  0
    2.2949   -6.0323    0.0000 C    0  0  0  0  0  0  0  0  0  0  0  0
    1.1428   -5.3766    0.0000 C    0  0  0  0  0  0  0  0  0  0  0  0
    3.4470   -5.3766    0.0000 C    0  0  0  0  0  0  0  0  0  0  0  0
    4.5992   -6.0323    0.0000 C    0  0  0  0  0  0  0  0  0  0  0  0
    3.3815   -1.2552    0.0000 N    0  0  0  0  0  0  0  0  0  0  0  0
    1.1428   -4.0465    0.0000 N    0  0  0  0  0  0  0  0  0  0  0  0
    2.2949   -7.3624    0.0000 C    0  0  0  0  0  0  0  0  0  0  0  0
    6.4351   -6.5287    0.0000 O    0  0  0  0  0  0  0  0  0  0  0  0
    5.1050   -4.2151    0.0000 O    0  0  0  0  0  0  0  0  0  0  0  0
    2.2949   -2.0326    0.0000 C    0  0  0  0  0  0  0  0  0  0  0  0
    0.0000   -6.0323    0.0000 O    0  0  0  0  0  0  0  0  0  0  0  0
    2.2949   -3.3721    0.0000 C    0  0  0  0  0  0  0  0  0  0  0  0
    4.5992   -7.3624    0.0000 C    0  0  0  0  0  0  0  0  0  0  0  0
    3.4470   -8.0368    0.0000 C    0  0  0  0  0  0  0  0  0  0  0  0
    6.9128   -4.7022    0.0000 C    0  0  0  0  0  0  0  0  0  0  0  0
    2.9693    0.0000    0.0000 C    0  0  0  0  0  0  0  0  0  0  0  0
    1.1428   -8.0368    0.0000 O    0  0  0  0  0  0  0  0  0  0  0  0
    4.6366   -1.6673    0.0000 C    0  0  0  0  0  0  0  0  0  0  0  0
    1.6392    0.0000    0.0000 C    0  0  0  0  0  0  0  0  0  0  0  0
    1.2177   -1.2552    0.0000 C    0  0  0  0  0  0  0  0  0  0  0  0
    1.1428   -9.3669    0.0000 C    0  0  0  0  0  0  0  0  0  0  0  0
  2 19  1  0  0  0  0
  3 22  1  0  0  0  0
  4  8  1  0  0  0  0
  4 12  2  0  0  0  0
  4 13  2  0  0  0  0
  4 19  1  0  0  0  0
  5  7  2  0  0  0  0
  5  6  1  0  0  0  0
  5 11  1  0  0  0  0
  6 10  1  0  0  0  0
  6 15  2  0  0  0  0
  7  8  1  0  0  0  0
  8 17  2  0  0  0  0
  9 14  1  0  0  0  0
  9 20  1  0  0  0  0
  9 22  1  0  0  0  0
 10 16  1  0  0  0  0
 11 18  2  0  0  0  0
 11 21  1  0  0  0  0
 14 16  1  0  0  0  0
 14 24  1  0  0  0  0
 17 18  1  0  0  0  0
 20 23  1  0  0  0  0
 21 25  1  0  0  0  0
 23 24  1  0  0  0  0
M  END
> <ID>
14054

> <Formula>
C17H27ClN2O4S

> <FW>
390.9253 (36.4609+354.4643)

> <DSSTox_CID>
28996

> <DSSTox_RID>
83261

> <DSSTox_GSID>
49070

> <DSSTox_FileID_Sort>
7936

> <TS_ChemName>
Sultopride hydrochloride

> <TS_ChemName_Synonyms>


> <TS_CASRN>
23694-17-9

> <CASRN_ChemName_Relationship>
primary

> <TS_Description>
single chemical compound

> <ChemNote>


> <STRUCTURE_Shown>
tested chemical

> <STRUCTURE_Formula>
C17H27ClN2O4S

> <STRUCTURE_MW>
390.9253

> <STRUCTURE_ChemType>
defined organic

> <STRUCTURE_DefinedOrganicForm>
complex

> <STRUCTURE_IUPAC>
N-[(1-ethylpyrrolidin-2-yl)methyl]-5-(ethylsulfonyl)-2-methoxybenzamide hydrochloride (1:1)

> <STRUCTURE_SMILES>
Cl.CCN2CCCC2CNC(=O)c1cc(ccc1OC)S(=O)(=O)CC

> <STRUCTURE_SMILES_Desalt>
CCN2CCCC2CNC(=O)c1cc(ccc1OC)S(=O)(=O)CC

> <Substance_modify_yyyymmdd>
20111204

$$$$
