23707-33-7
ChemmineR-0915142007XD

 27 30  0  0  1  0  0  0  0  0  1 V2000
    5.3934  -11.2816    0.0000 C   0  0  0  0  0  0  0  0  0  0  0  0
    4.0822  -11.2569    0.0000 C   0  0  0  0  0  0  0  0  0  0  0  0
    3.7234   -9.9951    0.0000 C   0  0  0  0  0  0  0  0  0  0  0  0
    4.7749   -9.2653    0.0000 O   0  0  0  0  0  0  0  0  0  0  0  0
    5.8264  -10.0446    0.0000 C   0  0  0  0  0  0  0  0  0  0  0  0
    0.0000   -2.6225    0.0000 C   0  0  0  0  0  0  0  0  0  0  0  0
    1.1504   -1.9669    0.0000 C   0  0  0  0  0  0  0  0  0  0  0  0
    2.2885   -2.6472    0.0000 C   0  0  0  0  0  0  0  0  0  0  0  0
    3.4265   -1.9916    0.0000 C   0  0  0  0  0  0  0  0  0  0  0  0
    3.4513   -0.6680    0.0000 C   0  0  0  0  0  0  0  0  0  0  0  0
    2.3132    0.0000    0.0000 C   0  0  0  0  0  0  0  0  0  0  0  0
    1.1504   -0.6433    0.0000 C   0  0  0  0  0  0  0  0  0  0  0  0
    2.2885   -3.9585    0.0000 C   0  0  0  0  0  0  0  0  0  0  0  0
    3.4142   -4.6388    0.0000 N   0  0  0  0  0  0  0  0  0  0  0  0
    3.4142   -5.9501    0.0000 C   0  0  0  0  0  0  0  0  0  0  0  0
    2.2637   -6.6181    0.0000 N   0  0  0  0  0  0  0  0  0  0  0  0
    2.2637   -7.9417    0.0000 C   0  0  0  0  0  0  0  0  0  0  0  0
    3.4018   -8.5849    0.0000 N   0  0  0  0  0  0  0  0  0  0  0  0
    4.5522   -6.6304    0.0000 C   0  0  0  0  0  0  0  0  0  0  0  0
    4.5522   -7.9417    0.0000 C   0  0  0  0  0  0  0  0  0  0  0  0
    5.8016   -8.3499    0.0000 N   0  0  0  0  0  0  0  0  0  0  0  0
    6.5933   -7.2984    0.0000 C   0  0  0  0  0  0  0  0  0  0  0  0
    5.8016   -6.1975    0.0000 N   0  0  0  0  0  0  0  0  0  0  0  0
    2.4617   -9.5498    0.0000 C   0  0  0  0  0  0  0  0  0  0  0  0
    1.4844  -10.4033    0.0000 O   0  0  0  0  0  0  0  0  0  0  0  0
    6.1233  -12.3702    0.0000 O   0  0  0  0  0  0  0  0  0  0  0  0
    3.2781  -12.2960    0.0000 O   0  0  0  0  0  0  0  0  0  0  0  0
  1  5  1  0  0  0  0
  1  2  1  0  0  0  0
  1 26  1  6  0  0  0
  2  3  1  0  0  0  0
  2 27  1  6  0  0  0
  3  4  1  0  0  0  0
  3 24  1  1  0  0  0
  4  5  1  0  0  0  0
  5 21  1  1  0  0  0
  6  7  1  0  0  0  0
  7  8  2  0  0  0  0
  7 12  1  0  0  0  0
  8  9  1  0  0  0  0
  8 13  1  0  0  0  0
  9 10  2  0  0  0  0
 10 11  1  0  0  0  0
 11 12  2  0  0  0  0
 13 14  1  0  0  0  0
 14 15  1  0  0  0  0
 15 16  2  0  0  0  0
 15 19  1  0  0  0  0
 16 17  1  0  0  0  0
 17 18  2  0  0  0  0
 18 20  1  0  0  0  0
 19 20  2  0  0  0  0
 19 23  1  0  0  0  0
 20 21  1  0  0  0  0
 21 22  1  0  0  0  0
 22 23  2  0  0  0  0
 24 25  1  0  0  0  0
M  END
> <ID>
10787

> <Formula>
C18H21N5O4

> <FW>
371.3904

> <DSSTox_CID>
25168

> <DSSTox_RID>
80718

> <DSSTox_GSID>
45168

> <DSSTox_FileID_Sort>
5399

> <TS_ChemName>
Metrifudil

> <TS_ChemName_Synonyms>


> <TS_CASRN>
23707-33-7

> <CASRN_ChemName_Relationship>
primary

> <TS_Description>
single chemical compound

> <ChemNote>
stereochem

> <STRUCTURE_Shown>
tested chemical

> <STRUCTURE_Formula>
C18H21N5O4

> <STRUCTURE_MW>
371.3904

> <STRUCTURE_ChemType>
defined organic

> <STRUCTURE_DefinedOrganicForm>
parent

> <STRUCTURE_IUPAC>
N-(2-methylbenzyl)adenosine

> <STRUCTURE_SMILES>
Cc4ccccc4CNc3ncnc2c3ncn2[C@@H]1O[C@H](CO)[C@@H](O)[C@H]1O

> <STRUCTURE_SMILES_Desalt>
Cc4ccccc4CNc3ncnc2c3ncn2[C@@H]1O[C@H](CO)[C@@H](O)[C@H]1O

> <Substance_modify_yyyymmdd>
20100107

$$$$
