23747-48-0
ChemmineR-0915142007XD

 10 11  0  0  0  0  0  0  0  0  1 V2000
    3.9894    0.0000    0.0000 C   0  0  0  0  0  0  0  0  0  0  0  0
    3.5752   -1.2644    0.0000 C   0  0  0  0  0  0  0  0  0  0  0  0
    2.3064   -1.6655    0.0000 C   0  0  0  0  0  0  0  0  0  0  0  0
    4.3600   -2.3413    0.0000 C   0  0  0  0  0  0  0  0  0  0  0  0
    2.3064   -2.9953    0.0000 C   0  0  0  0  0  0  0  0  0  0  0  0
    1.1554   -1.0072    0.0000 N   0  0  0  0  0  0  0  0  0  0  0  0
    3.5752   -3.4139    0.0000 C   0  0  0  0  0  0  0  0  0  0  0  0
    1.1554   -3.6537    0.0000 N   0  0  0  0  0  0  0  0  0  0  0  0
    0.0000   -1.6655    0.0000 C   0  0  0  0  0  0  0  0  0  0  0  0
    0.0000   -2.9953    0.0000 C   0  0  0  0  0  0  0  0  0  0  0  0
  1  2  1  0  0  0  0
  2  3  1  0  0  0  0
  2  4  1  0  0  0  0
  3  5  2  0  0  0  0
  3  6  1  0  0  0  0
  4  7  1  0  0  0  0
  5  7  1  0  0  0  0
  5  8  1  0  0  0  0
  6  9  2  0  0  0  0
  8 10  2  0  0  0  0
  9 10  1  0  0  0  0
M  END
> <ID>
12342

> <Formula>
C8H10N2

> <FW>
134.1784

> <DSSTox_CID>
27196

> <DSSTox_RID>
82191

> <DSSTox_GSID>
47196

> <DSSTox_FileID_Sort>
6872

> <TS_ChemName>
5H-5-Methyl-6,7-dihydrocyclopenta[b]pyrazine

> <TS_ChemName_Synonyms>


> <TS_CASRN>
23747-48-0

> <CASRN_ChemName_Relationship>
primary

> <TS_Description>
single chemical compound

> <ChemNote>


> <STRUCTURE_Shown>
tested chemical

> <STRUCTURE_Formula>
C8H10N2

> <STRUCTURE_MW>
134.1784

> <STRUCTURE_ChemType>
defined organic

> <STRUCTURE_DefinedOrganicForm>
parent

> <STRUCTURE_IUPAC>
5-methyl-6,7-dihydro-5H-cyclopenta[b]pyrazine

> <STRUCTURE_SMILES>
CC2CCc1nccnc12

> <STRUCTURE_SMILES_Desalt>
CC2CCc1nccnc12

> <Substance_modify_yyyymmdd>
20100503

$$$$
