23779-32-0
ChemmineR-0915142007XD

 17 16  0  0  0  0  0  0  0  0  1 V2000
    6.1198   -1.3262    0.0000 C    0  0  0  0  0  0  0  0  0  0  0  0
    7.2727   -2.0024    0.0000 O    0  0  0  0  0  0  0  0  0  0  0  0
    4.9669   -2.0024    0.0000 N    0  0  0  0  0  0  0  0  0  0  0  0
    6.1198    0.0000    0.0000 N    0  0  0  0  0  0  0  0  0  0  0  0
    4.9496   -3.3286    0.0000 C    0  0  0  0  0  0  0  0  0  0  0  0
    3.8140   -4.0047    0.0000 C    0  0  0  0  0  0  0  0  0  0  0  0
    3.8140   -5.3397    0.0000 C    0  0  0  0  0  0  0  0  0  0  0  0
    2.6612   -5.9898    0.0000 Si   0  0  0  0  0  0  0  0  0  0  0  0
    3.3199   -7.1427    0.0000 O    0  0  0  0  0  0  0  0  0  0  0  0
    4.6635   -7.1427    0.0000 C    0  0  0  0  0  0  0  0  0  0  0  0
    5.3223   -8.2955    0.0000 C    0  0  0  0  0  0  0  0  0  0  0  0
    2.0024   -4.8369    0.0000 O    0  0  0  0  0  0  0  0  0  0  0  0
    0.6761   -4.8369    0.0000 C    0  0  0  0  0  0  0  0  0  0  0  0
    0.0000   -3.6840    0.0000 C    0  0  0  0  0  0  0  0  0  0  0  0
    1.5256   -6.6659    0.0000 O    0  0  0  0  0  0  0  0  0  0  0  0
    1.5083   -7.9921    0.0000 C    0  0  0  0  0  0  0  0  0  0  0  0
    0.3554   -8.6683    0.0000 C    0  0  0  0  0  0  0  0  0  0  0  0
  1  2  2  0  0  0  0
  1  3  1  0  0  0  0
  1  4  1  0  0  0  0
  3  5  1  0  0  0  0
  5  6  1  0  0  0  0
  6  7  1  0  0  0  0
  7  8  1  0  0  0  0
  8  9  1  0  0  0  0
  8 12  1  0  0  0  0
  8 15  1  0  0  0  0
  9 10  1  0  0  0  0
 10 11  1  0  0  0  0
 12 13  1  0  0  0  0
 13 14  1  0  0  0  0
 15 16  1  0  0  0  0
 16 17  1  0  0  0  0
M  END
> <ID>
10147

> <Formula>
C10H24N2O4Si

> <FW>
264.3941

> <DSSTox_CID>
24493

> <DSSTox_RID>
80268

> <DSSTox_GSID>
44493

> <DSSTox_FileID_Sort>
4950

> <TS_ChemName>
1-[3-(Triethoxysilyl)propyl]urea

> <TS_ChemName_Synonyms>
1-[3-(Triethoxysilyl)propyl]urea (Urea, [3-(triethoxysilyl)propyl]-)

> <TS_CASRN>
23779-32-0

> <CASRN_ChemName_Relationship>
primary

> <TS_Description>
single chemical compound

> <ChemNote>


> <STRUCTURE_Shown>
tested chemical

> <STRUCTURE_Formula>
C10H24N2O4Si

> <STRUCTURE_MW>
264.3941

> <STRUCTURE_ChemType>
organometallic

> <STRUCTURE_DefinedOrganicForm>


> <STRUCTURE_IUPAC>
1-[3-(triethoxysilyl)propyl]urea

> <STRUCTURE_SMILES>
CCO[Si](OCC)(OCC)CCCNC(N)=O

> <STRUCTURE_SMILES_Desalt>
CCO[Si](OCC)(OCC)CCCNC(N)=O

> <Substance_modify_yyyymmdd>
20091116

$$$$
