23778-52-1
ChemmineR-0915142007XD

 17 16  0  0  0  0  0  0  0  0  1 V2000
    0.0000    0.0000    0.0000 C   0  0  0  0  0  0  0  0  0  0  0  0
    1.2043   -0.6210    0.0000 O   0  0  0  0  0  0  0  0  0  0  0  0
    2.3897    0.0000    0.0000 C   0  0  0  0  0  0  0  0  0  0  0  0
    3.5187   -0.6210    0.0000 C   0  0  0  0  0  0  0  0  0  0  0  0
    4.7042    0.0000    0.0000 O   0  0  0  0  0  0  0  0  0  0  0  0
    5.9085   -0.6210    0.0000 C   0  0  0  0  0  0  0  0  0  0  0  0
    7.0939    0.0000    0.0000 C   0  0  0  0  0  0  0  0  0  0  0  0
    8.2230   -0.6210    0.0000 O   0  0  0  0  0  0  0  0  0  0  0  0
    9.4084    0.0000    0.0000 C   0  0  0  0  0  0  0  0  0  0  0  0
   10.5939   -0.6210    0.0000 C   0  0  0  0  0  0  0  0  0  0  0  0
   11.7982    0.0000    0.0000 O   0  0  0  0  0  0  0  0  0  0  0  0
   12.9836   -0.6210    0.0000 C   0  0  0  0  0  0  0  0  0  0  0  0
   14.1126    0.0000    0.0000 C   0  0  0  0  0  0  0  0  0  0  0  0
   15.2981   -0.6210    0.0000 O   0  0  0  0  0  0  0  0  0  0  0  0
   16.5024    0.0000    0.0000 C   0  0  0  0  0  0  0  0  0  0  0  0
   17.6126   -0.6210    0.0000 C   0  0  0  0  0  0  0  0  0  0  0  0
   18.8168    0.0000    0.0000 O   0  0  0  0  0  0  0  0  0  0  0  0
  1  2  1  0  0  0  0
  2  3  1  0  0  0  0
  3  4  1  0  0  0  0
  4  5  1  0  0  0  0
  5  6  1  0  0  0  0
  6  7  1  0  0  0  0
  7  8  1  0  0  0  0
  8  9  1  0  0  0  0
  9 10  1  0  0  0  0
 10 11  1  0  0  0  0
 11 12  1  0  0  0  0
 12 13  1  0  0  0  0
 13 14  1  0  0  0  0
 14 15  1  0  0  0  0
 15 16  1  0  0  0  0
 16 17  1  0  0  0  0
M  END
> <ID>
8337

> <Formula>
C11H24O6

> <FW>
252.3047

> <DSSTox_CID>
21371

> <DSSTox_RID>
79705

> <DSSTox_GSID>
41371

> <DSSTox_FileID_Sort>
4387

> <TS_ChemName>
2,5,8,11,14-Pentaoxahexadecan-16-ol

> <TS_ChemName_Synonyms>


> <TS_CASRN>
23778-52-1

> <CASRN_ChemName_Relationship>
primary

> <TS_Description>
single chemical compound

> <ChemNote>


> <STRUCTURE_Shown>
tested chemical

> <STRUCTURE_Formula>
C11H24O6

> <STRUCTURE_MW>
252.3047

> <STRUCTURE_ChemType>
defined organic

> <STRUCTURE_DefinedOrganicForm>
parent

> <STRUCTURE_IUPAC>
2,5,8,11,14-pentaoxahexadecan-16-ol

> <STRUCTURE_SMILES>
COCCOCCOCCOCCOCCO

> <STRUCTURE_SMILES_Desalt>
COCCOCCOCCOCCOCCO

> <Substance_modify_yyyymmdd>
20080825

$$$$
