23779-99-9
ChemmineR-0915142007XD

 29 31  0  0  0  0  0  0  0  0  1 V2000
    0.0000   -0.0127    0.0000 O   0  0  0  0  0  0  0  0  0  0  0  0
    0.6596   -1.1544    0.0000 C   0  0  0  0  0  0  0  0  0  0  0  0
    1.9916   -1.1544    0.0000 C   0  0  0  0  0  0  0  0  0  0  0  0
    2.6512    0.0000    0.0000 O   0  0  0  0  0  0  0  0  0  0  0  0
    2.6639   -2.3087    0.0000 C   0  0  0  0  0  0  0  0  0  0  0  0
    3.9832   -2.3087    0.0000 O   0  0  0  0  0  0  0  0  0  0  0  0
    4.6555   -3.4631    0.0000 C   0  0  0  0  0  0  0  0  0  0  0  0
    3.9958   -4.6301    0.0000 O   0  0  0  0  0  0  0  0  0  0  0  0
    5.9747   -3.4631    0.0000 C   0  0  0  0  0  0  0  0  0  0  0  0
    6.6470   -4.6301    0.0000 C   0  0  0  0  0  0  0  0  0  0  0  0
    5.9747   -5.7591    0.0000 N   0  0  0  0  0  0  0  0  0  0  0  0
    6.6470   -6.9261    0.0000 C   0  0  0  0  0  0  0  0  0  0  0  0
    7.9663   -6.9261    0.0000 C   0  0  0  0  0  0  0  0  0  0  0  0
    8.6386   -8.0805    0.0000 C   0  0  0  0  0  0  0  0  0  0  0  0
    7.9790   -9.2348    0.0000 N   0  0  0  0  0  0  0  0  0  0  0  0
    6.6470   -9.2348    0.0000 C   0  0  0  0  0  0  0  0  0  0  0  0
    5.9874   -8.0805    0.0000 C   0  0  0  0  0  0  0  0  0  0  0  0
    4.6555   -8.0805    0.0000 C   0  0  0  0  0  0  0  0  0  0  0  0
    3.9832   -9.2348    0.0000 C   0  0  0  0  0  0  0  0  0  0  0  0
    4.6555  -10.3892    0.0000 C   0  0  0  0  0  0  0  0  0  0  0  0
    5.9874  -10.3765    0.0000 C   0  0  0  0  0  0  0  0  0  0  0  0
    6.6470  -11.5309    0.0000 C   0  0  0  0  0  0  0  0  0  0  0  0
    7.8014  -10.8712    0.0000 F   0  0  0  0  0  0  0  0  0  0  0  0
    5.5054  -12.2032    0.0000 F   0  0  0  0  0  0  0  0  0  0  0  0
    7.3194  -12.6852    0.0000 F   0  0  0  0  0  0  0  0  0  0  0  0
    7.9663   -4.6047    0.0000 C   0  0  0  0  0  0  0  0  0  0  0  0
    8.6386   -3.4631    0.0000 C   0  0  0  0  0  0  0  0  0  0  0  0
    7.9790   -2.3087    0.0000 C   0  0  0  0  0  0  0  0  0  0  0  0
    6.6470   -2.3087    0.0000 C   0  0  0  0  0  0  0  0  0  0  0  0
  1  2  1  0  0  0  0
  2  3  1  0  0  0  0
  3  4  1  0  0  0  0
  3  5  1  0  0  0  0
  5  6  1  0  0  0  0
  6  7  1  0  0  0  0
  7  8  2  0  0  0  0
  7  9  1  0  0  0  0
  9 10  2  0  0  0  0
  9 29  1  0  0  0  0
 10 11  1  0  0  0  0
 10 26  1  0  0  0  0
 11 12  1  0  0  0  0
 12 13  2  0  0  0  0
 12 17  1  0  0  0  0
 13 14  1  0  0  0  0
 14 15  2  0  0  0  0
 15 16  1  0  0  0  0
 16 17  2  0  0  0  0
 16 21  1  0  0  0  0
 17 18  1  0  0  0  0
 18 19  2  0  0  0  0
 19 20  1  0  0  0  0
 20 21  2  0  0  0  0
 21 22  1  0  0  0  0
 22 23  1  0  0  0  0
 22 24  1  0  0  0  0
 22 25  1  0  0  0  0
 26 27  2  0  0  0  0
 27 28  1  0  0  0  0
 28 29  2  0  0  0  0
M  END
> <ID>
16097

> <Formula>
C20H17F3N2O4

> <FW>
406.3552

> <DSSTox_CID>
31484

> <DSSTox_RID>
97369

> <DSSTox_GSID>
57695

> <DSSTox_FileID_Sort>
8436

> <TS_ChemName>
Floctafenine

> <TS_ChemName_Synonyms>


> <TS_CASRN>
23779-99-9

> <CASRN_ChemName_Relationship>
primary

> <TS_Description>
single chemical compound

> <ChemNote>


> <STRUCTURE_Shown>
tested chemical

> <STRUCTURE_Formula>
C20H17F3N2O4

> <STRUCTURE_MW>
406.3552

> <STRUCTURE_ChemType>
defined organic

> <STRUCTURE_DefinedOrganicForm>
parent

> <STRUCTURE_IUPAC>
2,3-dihydroxypropyl 2-{[8-(trifluoromethyl)quinolin-4-yl]amino}benzoate

> <STRUCTURE_SMILES>
OCC(O)COC(=O)c3ccccc3Nc1ccnc2c(cccc12)C(F)(F)F

> <STRUCTURE_SMILES_Desalt>
OCC(O)COC(=O)c3ccccc3Nc1ccnc2c(cccc12)C(F)(F)F

> <Substance_modify_yyyymmdd>
20131018

$$$$
