2390-60-5
ChemmineR-0915142007XD

 37 39  0  0  0  0  0  0  0  0  2 V2000
    2.2897  -11.3094    0.0000 C    0  0  0  0  0  0  0  0  0  0  0  0
    3.4409  -11.9798    0.0000 C    0  0  0  0  0  0  0  0  0  0  0  0
    2.2897   -9.9811    0.0000 N    0  3  0  0  0  0  0  0  0  0  0  0
    3.4409   -9.3233    0.0000 C    0  0  0  0  0  0  0  0  0  0  0  0
    3.4409   -7.9950    0.0000 C    0  0  0  0  0  0  0  0  0  0  0  0
    4.5921   -7.3245    0.0000 C    0  0  0  0  0  0  0  0  0  0  0  0
    5.7432   -7.9950    0.0000 C    0  0  0  0  0  0  0  0  0  0  0  0
    5.7432   -9.3233    0.0000 C    0  0  0  0  0  0  0  0  0  0  0  0
    4.5921   -9.9811    0.0000 C    0  0  0  0  0  0  0  0  0  0  0  0
    6.9071   -7.3245    0.0000 C    0  0  0  0  0  0  0  0  0  0  0  0
   10.3606   -7.9950    0.0000 C    0  0  0  0  0  0  0  0  0  0  0  0
   10.3606   -9.3233    0.0000 C    0  0  0  0  0  0  0  0  0  0  0  0
    9.2094   -9.9811    0.0000 C    0  0  0  0  0  0  0  0  0  0  0  0
    8.0583   -9.3233    0.0000 C    0  0  0  0  0  0  0  0  0  0  0  0
    8.0583   -7.9950    0.0000 C    0  0  0  0  0  0  0  0  0  0  0  0
    9.2094   -7.3245    0.0000 C    0  0  0  0  0  0  0  0  0  0  0  0
   11.4991   -9.9811    0.0000 N    0  0  0  0  0  0  0  0  0  0  0  0
   11.4991  -11.3094    0.0000 C    0  0  0  0  0  0  0  0  0  0  0  0
   12.6503  -11.9798    0.0000 C    0  0  0  0  0  0  0  0  0  0  0  0
   12.6503   -9.3233    0.0000 C    0  0  0  0  0  0  0  0  0  0  0  0
   12.6503   -7.9950    0.0000 C    0  0  0  0  0  0  0  0  0  0  0  0
    8.0583   -5.3131    0.0000 C    0  0  0  0  0  0  0  0  0  0  0  0
    8.0583   -3.9848    0.0000 C    0  0  0  0  0  0  0  0  0  0  0  0
    9.2094   -5.9962    0.0000 C    0  0  0  0  0  0  0  0  0  0  0  0
    9.2094   -3.3270    0.0000 C    0  0  0  0  0  0  0  0  0  0  0  0
    6.9071   -3.3270    0.0000 C    0  0  0  0  0  0  0  0  0  0  0  0
    6.9071   -5.9962    0.0000 C    0  0  0  0  0  0  0  0  0  0  0  0
    5.7432   -5.3131    0.0000 C    0  0  0  0  0  0  0  0  0  0  0  0
    5.7432   -3.9848    0.0000 C    0  0  0  0  0  0  0  0  0  0  0  0
   10.3606   -3.9848    0.0000 C    0  0  0  0  0  0  0  0  0  0  0  0
   10.3606   -5.3131    0.0000 C    0  0  0  0  0  0  0  0  0  0  0  0
    6.9071   -1.9987    0.0000 N    0  0  0  0  0  0  0  0  0  0  0  0
    5.7432   -1.3283    0.0000 C    0  0  0  0  0  0  0  0  0  0  0  0
    5.7432    0.0000    0.0000 C    0  0  0  0  0  0  0  0  0  0  0  0
    1.1512   -9.3233    0.0000 C    0  0  0  0  0  0  0  0  0  0  0  0
    0.0000   -9.9811    0.0000 C    0  0  0  0  0  0  0  0  0  0  0  0
    1.5433   -7.1980    0.0000 Cl   0  5  0  0  0  0  0  0  0  0  0  0
  1  2  1  0  0  0  0
  1  3  1  0  0  0  0
  3  4  2  0  0  0  0
  3 35  1  0  0  0  0
  4  5  1  0  0  0  0
  4  9  1  0  0  0  0
  5  6  2  0  0  0  0
  6  7  1  0  0  0  0
  7  8  1  0  0  0  0
  7 10  2  0  0  0  0
  8  9  2  0  0  0  0
 10 15  1  0  0  0  0
 10 27  1  0  0  0  0
 11 16  2  0  0  0  0
 11 12  1  0  0  0  0
 12 13  2  0  0  0  0
 12 17  1  0  0  0  0
 13 14  1  0  0  0  0
 14 15  2  0  0  0  0
 15 16  1  0  0  0  0
 17 18  1  0  0  0  0
 17 20  1  0  0  0  0
 18 19  1  0  0  0  0
 20 21  1  0  0  0  0
 22 23  2  0  0  0  0
 22 24  1  0  0  0  0
 22 27  1  0  0  0  0
 23 25  1  0  0  0  0
 23 26  1  0  0  0  0
 24 31  2  0  0  0  0
 25 30  2  0  0  0  0
 26 29  2  0  0  0  0
 26 32  1  0  0  0  0
 27 28  2  0  0  0  0
 28 29  1  0  0  0  0
 30 31  1  0  0  0  0
 32 33  1  0  0  0  0
 33 34  1  0  0  0  0
 35 36  1  0  0  0  0
M  END
> <ID>
7535

> <Formula>
C33H40ClN3

> <FW>
514.1438 (478.6903+35.4535)

> <DSSTox_CID>
18888

> <DSSTox_RID>
79417

> <DSSTox_GSID>
38888

> <DSSTox_FileID_Sort>
4099

> <TS_ChemName>
Basic Blue 7

> <TS_ChemName_Synonyms>
Basic Blue 7 (Ethanaminium, N-[4-[[4-(diethylamino)phenyl][4-(ethylamino)-1-naphthalenyl]methylene]-2,5-cyclohexadien-1-ylidene]-N-ethyl-, chloride)

> <TS_CASRN>
2390-60-5

> <CASRN_ChemName_Relationship>
primary

> <TS_Description>
single chemical compound

> <ChemNote>
ammonium; C.I. 42595; parent [36396-19-7]

> <STRUCTURE_Shown>
tested chemical

> <STRUCTURE_Formula>
C33H40ClN3

> <STRUCTURE_MW>
514.1438

> <STRUCTURE_ChemType>
defined organic

> <STRUCTURE_DefinedOrganicForm>
salt

> <STRUCTURE_IUPAC>
4-{[4-(diethylamino)phenyl][4-(ethylamino)naphthalen-1-yl]methylidene}-N,N-diethylcyclohexa-2,5-dien-1-iminium chloride

> <STRUCTURE_SMILES>
[Cl-].CC/[N+](CC)=C1/C=C/C(C=C1)=C(\c3ccc(NCC)c2ccccc23)c4ccc(cc4)N(CC)CC

> <STRUCTURE_SMILES_Desalt>
CC/[N+](CC)=C1/C=C/C(C=C1)=C(\c3ccc(NCC)c2ccccc23)c4ccc(cc4)N(CC)CC

> <Substance_modify_yyyymmdd>
20080429

$$$$
