2390-68-3
ChemmineR-0915142007XD

 24 22  0  0  0  0  0  0  0  0  2 V2000
    0.0000   -5.7618    0.0000 C    0  0  0  0  0  0  0  0  0  0  0  0
    1.3381   -5.7618    0.0000 N    0  3  0  0  0  0  0  0  0  0  0  0
    1.3381   -7.0842    0.0000 C    0  0  0  0  0  0  0  0  0  0  0  0
    2.4873   -7.7611    0.0000 C    0  0  0  0  0  0  0  0  0  0  0  0
    2.4873   -9.0835    0.0000 C    0  0  0  0  0  0  0  0  0  0  0  0
    3.6366   -9.7447    0.0000 C    0  0  0  0  0  0  0  0  0  0  0  0
    3.6366  -11.0828    0.0000 C    0  0  0  0  0  0  0  0  0  0  0  0
    4.7858  -11.7440    0.0000 C    0  0  0  0  0  0  0  0  0  0  0  0
    4.7858  -13.0821    0.0000 C    0  0  0  0  0  0  0  0  0  0  0  0
    5.9665  -13.7433    0.0000 C    0  0  0  0  0  0  0  0  0  0  0  0
    5.9665  -15.0657    0.0000 C    0  0  0  0  0  0  0  0  0  0  0  0
    7.0842  -15.7426    0.0000 C    0  0  0  0  0  0  0  0  0  0  0  0
    2.6605   -5.7618    0.0000 C    0  0  0  0  0  0  0  0  0  0  0  0
    3.3217   -4.5654    0.0000 C    0  0  0  0  0  0  0  0  0  0  0  0
    4.6441   -4.5654    0.0000 C    0  0  0  0  0  0  0  0  0  0  0  0
    5.3210   -3.4634    0.0000 C    0  0  0  0  0  0  0  0  0  0  0  0
    6.6591   -3.4634    0.0000 C    0  0  0  0  0  0  0  0  0  0  0  0
    7.3046   -2.3142    0.0000 C    0  0  0  0  0  0  0  0  0  0  0  0
    8.6427   -2.3142    0.0000 C    0  0  0  0  0  0  0  0  0  0  0  0
    9.3196   -1.1492    0.0000 C    0  0  0  0  0  0  0  0  0  0  0  0
   10.6420   -1.1492    0.0000 C    0  0  0  0  0  0  0  0  0  0  0  0
   11.3032    0.0000    0.0000 C    0  0  0  0  0  0  0  0  0  0  0  0
    1.3381   -4.4237    0.0000 C    0  0  0  0  0  0  0  0  0  0  0  0
    4.6598   -6.3285    0.0000 Br   0  5  0  0  0  0  0  0  0  0  0  0
  1  2  1  0  0  0  0
  2  3  1  0  0  0  0
  2 13  1  0  0  0  0
  2 23  1  0  0  0  0
  3  4  1  0  0  0  0
  4  5  1  0  0  0  0
  5  6  1  0  0  0  0
  6  7  1  0  0  0  0
  7  8  1  0  0  0  0
  8  9  1  0  0  0  0
  9 10  1  0  0  0  0
 10 11  1  0  0  0  0
 11 12  1  0  0  0  0
 13 14  1  0  0  0  0
 14 15  1  0  0  0  0
 15 16  1  0  0  0  0
 16 17  1  0  0  0  0
 17 18  1  0  0  0  0
 18 19  1  0  0  0  0
 19 20  1  0  0  0  0
 20 21  1  0  0  0  0
 21 22  1  0  0  0  0
M  END
> <ID>
11759

> <Formula>
C22H48BrN

> <FW>
406.5272 (326.6227+79.9045)

> <DSSTox_CID>
26528

> <DSSTox_RID>
81693

> <DSSTox_GSID>
46528

> <DSSTox_FileID_Sort>
6374

> <TS_ChemName>
Didecyldimethylammonium bromide

> <TS_ChemName_Synonyms>


> <TS_CASRN>
2390-68-3

> <CASRN_ChemName_Relationship>
primary

> <TS_Description>
single chemical compound

> <ChemNote>
ammonium; parent [2390-68-3]

> <STRUCTURE_Shown>
tested chemical

> <STRUCTURE_Formula>
C22H48BrN

> <STRUCTURE_MW>
406.5272

> <STRUCTURE_ChemType>
defined organic

> <STRUCTURE_DefinedOrganicForm>
salt

> <STRUCTURE_IUPAC>
N-decyl-N,N-dimethyldecan-1-aminium bromide

> <STRUCTURE_SMILES>
[Br-].C[N+](C)(CCCCCCCCCC)CCCCCCCCCC

> <STRUCTURE_SMILES_Desalt>
C[N+](C)(CCCCCCCCCC)CCCCCCCCCC

> <Substance_modify_yyyymmdd>
20110811

$$$$
