23906-97-0
ChemmineR-0915142007XD

 34 32  0  0  0  0  0  0  0  0  2 V2000
   11.0417   -6.7335    0.0000 Br   0  5  0  0  0  0  0  0  0  0  0  0
    7.9781   -7.9781    0.0000 P    0  3  0  0  0  0  0  0  0  0  0  0
    9.3025   -7.9781    0.0000 C    0  0  0  0  0  0  0  0  0  0  0  0
    7.9781   -6.6537    0.0000 C    0  0  0  0  0  0  0  0  0  0  0  0
    7.9781   -9.3025    0.0000 C    0  0  0  0  0  0  0  0  0  0  0  0
    6.6537   -7.9781    0.0000 C    0  0  0  0  0  0  0  0  0  0  0  0
    5.9836   -6.8293    0.0000 C    0  0  0  0  0  0  0  0  0  0  0  0
    9.1270   -5.9995    0.0000 C    0  0  0  0  0  0  0  0  0  0  0  0
    9.9567   -9.1270    0.0000 C    0  0  0  0  0  0  0  0  0  0  0  0
    6.8293   -9.9886    0.0000 C    0  0  0  0  0  0  0  0  0  0  0  0
    4.6433   -6.8293    0.0000 C    0  0  0  0  0  0  0  0  0  0  0  0
    3.9891   -5.6645    0.0000 C    0  0  0  0  0  0  0  0  0  0  0  0
    2.6647   -5.6645    0.0000 C    0  0  0  0  0  0  0  0  0  0  0  0
    1.9786   -4.5156    0.0000 C    0  0  0  0  0  0  0  0  0  0  0  0
    0.6542   -4.5156    0.0000 C    0  0  0  0  0  0  0  0  0  0  0  0
    9.1270   -4.6592    0.0000 C    0  0  0  0  0  0  0  0  0  0  0  0
   10.2918   -3.9891    0.0000 C    0  0  0  0  0  0  0  0  0  0  0  0
   10.2918   -2.6647    0.0000 C    0  0  0  0  0  0  0  0  0  0  0  0
   11.4246   -2.0105    0.0000 C    0  0  0  0  0  0  0  0  0  0  0  0
   11.4246   -0.6702    0.0000 C    0  0  0  0  0  0  0  0  0  0  0  0
    6.8293  -11.3130    0.0000 C    0  0  0  0  0  0  0  0  0  0  0  0
    5.6645  -11.9672    0.0000 C    0  0  0  0  0  0  0  0  0  0  0  0
    5.6645  -13.2915    0.0000 C    0  0  0  0  0  0  0  0  0  0  0  0
    4.5156  -13.9457    0.0000 C    0  0  0  0  0  0  0  0  0  0  0  0
    4.5156  -15.2860    0.0000 C    0  0  0  0  0  0  0  0  0  0  0  0
   11.2970   -9.1270    0.0000 C    0  0  0  0  0  0  0  0  0  0  0  0
   11.9672  -10.2918    0.0000 C    0  0  0  0  0  0  0  0  0  0  0  0
   13.2915  -10.2918    0.0000 C    0  0  0  0  0  0  0  0  0  0  0  0
   13.9457  -11.4406    0.0000 C    0  0  0  0  0  0  0  0  0  0  0  0
   15.2860  -11.4406    0.0000 C    0  0  0  0  0  0  0  0  0  0  0  0
   15.9562  -12.5894    0.0000 C    0  0  0  0  0  0  0  0  0  0  0  0
   12.5735    0.0000    0.0000 C    0  0  0  0  0  0  0  0  0  0  0  0
    0.0000   -3.3668    0.0000 C    0  0  0  0  0  0  0  0  0  0  0  0
    3.3668  -15.9562    0.0000 C    0  0  0  0  0  0  0  0  0  0  0  0
  2  3  1  0  0  0  0
  2  4  1  0  0  0  0
  2  5  1  0  0  0  0
  2  6  1  0  0  0  0
  3  9  1  0  0  0  0
  4  8  1  0  0  0  0
  5 10  1  0  0  0  0
  6  7  1  0  0  0  0
  7 11  1  0  0  0  0
  8 16  1  0  0  0  0
  9 26  1  0  0  0  0
 10 21  1  0  0  0  0
 11 12  1  0  0  0  0
 12 13  1  0  0  0  0
 13 14  1  0  0  0  0
 14 15  1  0  0  0  0
 15 33  1  0  0  0  0
 16 17  1  0  0  0  0
 17 18  1  0  0  0  0
 18 19  1  0  0  0  0
 19 20  1  0  0  0  0
 20 32  1  0  0  0  0
 21 22  1  0  0  0  0
 22 23  1  0  0  0  0
 23 24  1  0  0  0  0
 24 25  1  0  0  0  0
 25 34  1  0  0  0  0
 26 27  1  0  0  0  0
 27 28  1  0  0  0  0
 28 29  1  0  0  0  0
 29 30  1  0  0  0  0
 30 31  1  0  0  0  0
M  END
> <ID>
12975

> <Formula>
C32H68BrP

> <FW>
563.7601 (79.9045+483.8555)

> <DSSTox_CID>
27876

> <DSSTox_RID>
82629

> <DSSTox_GSID>
47900

> <DSSTox_FileID_Sort>
7306

> <TS_ChemName>
Tetraoctylphosphonium bromide

> <TS_ChemName_Synonyms>


> <TS_CASRN>
23906-97-0

> <CASRN_ChemName_Relationship>
primary

> <TS_Description>
single chemical compound

> <ChemNote>
phosphonium; parent [45308-00-7]

> <STRUCTURE_Shown>
tested chemical

> <STRUCTURE_Formula>
C32H68BrP

> <STRUCTURE_MW>
563.7601

> <STRUCTURE_ChemType>
defined organic

> <STRUCTURE_DefinedOrganicForm>
salt

> <STRUCTURE_IUPAC>
tetraoctylphosphonium bromide

> <STRUCTURE_SMILES>
[Br-].CCCCCCCC[P+](CCCCCCCC)(CCCCCCCC)CCCCCCCC

> <STRUCTURE_SMILES_Desalt>
CCCCCCCC[P+](CCCCCCCC)(CCCCCCCC)CCCCCCCC

> <Substance_modify_yyyymmdd>
20110419

$$$$
