2391-03-9
ChemmineR-0915142007XD

 27 27  0  0  1  0  0  0  0  0  1 V2000
    4.6598   -4.0186    0.0000 C    0  0  0  0  0  0  0  0  0  0  0  0
    5.7856   -4.6598    0.0000 C    0  0  0  0  0  0  0  0  0  0  0  0
    5.7856   -2.0235    0.0000 N    0  0  0  0  0  0  0  0  0  0  0  0
    3.4771   -4.7168    0.0000 C    0  0  0  0  0  0  0  0  0  0  0  0
    4.6598   -2.6506    0.0000 C    0  0  0  0  0  0  0  0  0  0  0  0
    3.4771   -6.0421    0.0000 C    0  0  0  0  0  0  0  0  0  0  0  0
    2.3228   -4.0613    0.0000 C    0  0  0  0  0  0  0  0  0  0  0  0
    6.9256   -4.0186    0.0000 C    0  0  0  0  0  0  0  0  0  0  0  0
    8.0799   -4.6456    0.0000 N    0  0  0  0  0  0  0  0  0  0  0  0
    1.1828   -6.0421    0.0000 C    0  0  0  0  0  0  0  0  0  0  0  0
    1.1828   -4.7168    0.0000 C    0  0  0  0  0  0  0  0  0  0  0  0
    2.3228   -6.6976    0.0000 C    0  0  0  0  0  0  0  0  0  0  0  0
    0.0000   -6.7404    0.0000 Br   0  0  0  0  0  0  0  0  0  0  0  0
    5.7856   -0.6698    0.0000 C    0  0  0  0  0  0  0  0  0  0  0  0
    3.5056   -2.0235    0.0000 C    0  0  0  0  0  0  0  0  0  0  0  0
    9.2342   -3.9758    0.0000 C    0  0  0  0  0  0  0  0  0  0  0  0
    8.0799   -5.9709    0.0000 C    0  0  0  0  0  0  0  0  0  0  0  0
    4.6598    0.0000    0.0000 C    0  0  0  0  0  0  0  0  0  0  0  0
    3.5056   -0.6698    0.0000 C    0  0  0  0  0  0  0  0  0  0  0  0
   13.1103   -4.2038    0.0000 C    0  0  0  0  0  0  0  0  0  0  0  0
   13.1103   -1.5248    0.0000 C    0  0  0  0  0  0  0  0  0  0  0  0
   14.2503   -2.1945    0.0000 C    0  0  0  0  0  0  0  0  0  0  0  0
   14.2503   -3.5483    0.0000 C    0  0  0  0  0  0  0  0  0  0  0  0
   13.1103   -5.5434    0.0000 O    0  0  0  0  0  0  0  0  0  0  0  0
   13.1103   -0.2138    0.0000 O    0  0  0  0  0  0  0  0  0  0  0  0
   11.9417   -3.5483    0.0000 O    0  0  0  0  0  0  0  0  0  0  0  0
   11.9417   -2.1945    0.0000 O    0  0  0  0  0  0  0  0  0  0  0  0
  1  2  1  0  0  0  0
  1  4  1  0  0  0  0
  1  5  1  1  0  0  0
  2  8  1  0  0  0  0
  3  5  1  0  0  0  0
  3 14  2  0  0  0  0
  4  6  2  0  0  0  0
  4  7  1  0  0  0  0
  5 15  2  0  0  0  0
  6 12  1  0  0  0  0
  7 11  2  0  0  0  0
  8  9  1  0  0  0  0
  9 16  1  0  0  0  0
  9 17  1  0  0  0  0
 10 11  1  0  0  0  0
 10 13  1  0  0  0  0
 10 12  2  0  0  0  0
 14 18  1  0  0  0  0
 15 19  1  0  0  0  0
 18 19  2  0  0  0  0
 20 23  1  0  0  0  0
 20 24  2  0  0  0  0
 20 26  1  0  0  0  0
 21 22  1  0  0  0  0
 21 25  2  0  0  0  0
 21 27  1  0  0  0  0
 22 23  2  0  0  0  0
M  END
> <ID>
12906

> <Formula>
C20H23BrN2O4

> <FW>
435.3116 (319.2395+116.0722)

> <DSSTox_CID>
27795

> <DSSTox_RID>
82567

> <DSSTox_GSID>
47818

> <DSSTox_FileID_Sort>
7245

> <TS_ChemName>
Dexbrompheniramine maleate

> <TS_ChemName_Synonyms>


> <TS_CASRN>
2391-03-9

> <CASRN_ChemName_Relationship>
primary

> <TS_Description>
single chemical compound

> <ChemNote>
parent [132-21-8]

> <STRUCTURE_Shown>
tested chemical

> <STRUCTURE_Formula>
C20H23BrN2O4

> <STRUCTURE_MW>
435.3116

> <STRUCTURE_ChemType>
defined organic

> <STRUCTURE_DefinedOrganicForm>
complex

> <STRUCTURE_IUPAC>
(3S)-3-(4-bromophenyl)-N,N-dimethyl-3-(pyridin-2-yl)propan-1-amine (2Z)-but-2-enedioate (1:1)

> <STRUCTURE_SMILES>
O=C(O)/C=C\C(=O)O.Brc1ccc(cc1)[C@H](CCN(C)C)c2ccccn2

> <STRUCTURE_SMILES_Desalt>
Brc1ccc(cc1)[C@H](CCN(C)C)c2ccccn2

> <Substance_modify_yyyymmdd>
20110610

$$$$
