2392-39-4
ChemmineR-0915142007XD

 36 37  0  0  1  0  0  0  0  0  2 V2000
   12.4520    0.0000    0.0000 Na   0  3  0  0  0  0  0  0  0  0  0  0
   14.0225   -3.2532    0.0000 Na   0  3  0  0  0  0  0  0  0  0  0  0
    6.9412   -4.2909    0.0000 C    0  0  0  0  0  0  0  0  0  0  0  0
    4.6695   -5.6371    0.0000 C    0  0  0  0  0  0  0  0  0  0  0  0
    3.4776   -6.2821    0.0000 C    0  0  0  0  0  0  0  0  0  0  0  0
    6.9412   -5.6371    0.0000 C    0  0  0  0  0  0  0  0  0  0  0  0
    5.7913   -6.2821    0.0000 C    0  0  0  0  0  0  0  0  0  0  0  0
    8.2593   -3.9123    0.0000 C    0  0  0  0  0  0  0  0  0  0  0  0
    3.4776   -7.6283    0.0000 C    0  0  0  0  0  0  0  0  0  0  0  0
    4.6695   -4.2909    0.0000 C    0  0  0  0  0  0  0  0  0  0  0  0
    5.7913   -3.6599    0.0000 C    0  0  0  0  0  0  0  0  0  0  0  0
    9.0165   -4.9640    0.0000 C    0  0  0  0  0  0  0  0  0  0  0  0
    2.3698   -5.6371    0.0000 C    0  0  0  0  0  0  0  0  0  0  0  0
    8.2312   -6.0437    0.0000 C    0  0  0  0  0  0  0  0  0  0  0  0
    2.3698   -8.3154    0.0000 C    0  0  0  0  0  0  0  0  0  0  0  0
    8.2593   -2.5521    0.0000 C    0  0  0  0  0  0  0  0  0  0  0  0
    5.7913   -7.6283    0.0000 C    0  0  0  0  0  0  0  0  0  0  0  0
    1.1919   -6.2821    0.0000 C    0  0  0  0  0  0  0  0  0  0  0  0
    1.1919   -7.6283    0.0000 C    0  0  0  0  0  0  0  0  0  0  0  0
    4.6695   -8.3154    0.0000 C    0  0  0  0  0  0  0  0  0  0  0  0
    4.6134   -6.7869    0.0000 F    0  0  0  0  0  0  0  0  0  0  0  0
    7.0954   -1.8650    0.0000 O    0  0  0  0  0  0  0  0  0  0  0  0
    0.0000   -8.3434    0.0000 O    0  0  0  0  0  0  0  0  0  0  0  0
    9.5494   -3.8702    0.0000 O    0  0  0  0  0  0  0  0  0  0  0  0
    6.9412   -2.9307    0.0000 C    0  0  0  0  0  0  0  0  0  0  0  0
    3.4776   -3.6178    0.0000 O    0  0  0  0  0  0  0  0  0  0  0  0
    3.4776   -4.9640    0.0000 C    0  0  0  0  0  0  0  0  0  0  0  0
   10.3486   -4.9640    0.0000 C    0  0  0  0  0  0  0  0  0  0  0  0
    9.3951   -1.8930    0.0000 C    0  0  0  0  0  0  0  0  0  0  0  0
   10.5730   -2.5801    0.0000 O    0  0  0  0  0  0  0  0  0  0  0  0
    5.7913   -4.9640    0.0000 H    0  0  0  0  0  0  0  0  0  0  0  0
    6.9412   -6.9552    0.0000 H    0  0  0  0  0  0  0  0  0  0  0  0
   11.7228   -1.9491    0.0000 P    0  0  0  0  0  0  0  0  0  0  0  0
   12.8867   -1.2620    0.0000 O    0  0  0  0  0  0  0  0  0  0  0  0
   11.0638   -0.7712    0.0000 O    0  5  0  0  0  0  0  0  0  0  0  0
   12.3819   -3.0990    0.0000 O    0  5  0  0  0  0  0  0  0  0  0  0
  3  6  1  0  0  0  0
  3  8  1  0  0  0  0
  3 11  1  0  0  0  0
  3 25  1  1  0  0  0
  4 10  1  0  0  0  0
  4  5  1  0  0  0  0
  4 21  1  6  0  0  0
  4  7  1  0  0  0  0
  5  9  1  0  0  0  0
  5 13  1  0  0  0  0
  5 27  1  1  0  0  0
  6  7  1  0  0  0  0
  6 14  1  0  0  0  0
  6 32  1  6  0  0  0
  7 17  1  0  0  0  0
  7 31  1  1  0  0  0
  8 12  1  0  0  0  0
  8 16  1  0  0  0  0
  8 24  1  6  0  0  0
  9 15  2  0  0  0  0
  9 20  1  0  0  0  0
 10 11  1  0  0  0  0
 10 26  1  1  0  0  0
 12 28  1  6  0  0  0
 12 14  1  0  0  0  0
 13 18  2  0  0  0  0
 15 19  1  0  0  0  0
 16 22  2  0  0  0  0
 16 29  1  0  0  0  0
 17 20  1  0  0  0  0
 18 19  1  0  0  0  0
 19 23  2  0  0  0  0
 29 30  1  0  0  0  0
 30 33  1  0  0  0  0
 33 34  2  0  0  0  0
 33 35  1  0  0  0  0
 33 36  1  0  0  0  0
M  END
> <ID>
12571

> <Formula>
C22H28FNa2O8P

> <FW>
516.4046 (22.9892+22.9892+470.4262)

> <DSSTox_CID>
27429

> <DSSTox_RID>
82342

> <DSSTox_GSID>
47429

> <DSSTox_FileID_Sort>
7023

> <TS_ChemName>
Dexamethasone sodium phosphate

> <TS_ChemName_Synonyms>


> <TS_CASRN>
2392-39-4

> <CASRN_ChemName_Relationship>
primary

> <TS_Description>
single chemical compound

> <ChemNote>
stereochem; tautomers

> <STRUCTURE_Shown>
tested chemical

> <STRUCTURE_Formula>
C22H28FNa2O8P

> <STRUCTURE_MW>
516.4046

> <STRUCTURE_ChemType>
defined organic

> <STRUCTURE_DefinedOrganicForm>
salt

> <STRUCTURE_IUPAC>
disodium (11beta,16alpha)-9-fluoro-11,17-dihydroxy-16-methyl-3,20-dioxopregna-1,4-dien-21-yl phosphate

> <STRUCTURE_SMILES>
[Na+].[Na+].[O-]P([O-])(=O)OCC(=O)[C@@]4(O)[C@H](C)C[C@@H]3[C@]4(C)C[C@H](O)[C@@]2(F)[C@H]3CCC1=CC(=O)C=C[C@@]12C

> <STRUCTURE_SMILES_Desalt>
O=P(O)(O)OCC(=O)[C@@]4(O)[C@H](C)C[C@@H]3[C@]4(C)C[C@H](O)[C@@]2(F)[C@H]3CCC1=CC(=O)C=C[C@@]12C

> <Substance_modify_yyyymmdd>
20130906

$$$$
