23930-37-2
ChemmineR-0915142007XD

 32 35  0  0  1  0  0  0  0  0  1 V2000
    6.9360   -4.7826    0.0000 C   0  0  0  0  0  0  0  0  0  0  0  0
    4.6198   -6.1097    0.0000 C   0  0  0  0  0  0  0  0  0  0  0  0
    5.7842   -6.7482    0.0000 C   0  0  0  0  0  0  0  0  0  0  0  0
    3.4680   -6.7482    0.0000 C   0  0  0  0  0  0  0  0  0  0  0  0
    6.9360   -6.1097    0.0000 C   0  0  0  0  0  0  0  0  0  0  0  0
    4.6198   -4.7826    0.0000 C   0  0  0  0  0  0  0  0  0  0  0  0
    5.7842   -4.0940    0.0000 C   0  0  0  0  0  0  0  0  0  0  0  0
    8.1880   -4.3444    0.0000 C   0  0  0  0  0  0  0  0  0  0  0  0
    3.4680   -8.0878    0.0000 C   0  0  0  0  0  0  0  0  0  0  0  0
    8.1880   -6.5103    0.0000 C   0  0  0  0  0  0  0  0  0  0  0  0
    5.7842   -8.0878    0.0000 C   0  0  0  0  0  0  0  0  0  0  0  0
    2.3162   -6.1097    0.0000 C   0  0  0  0  0  0  0  0  0  0  0  0
    8.9642   -5.4211    0.0000 C   0  0  0  0  0  0  0  0  0  0  0  0
    8.6261   -3.0674    0.0000 C   0  0  0  0  0  0  0  0  0  0  0  0
   11.6309   -1.2645    0.0000 C   0  0  0  0  0  0  0  0  0  0  0  0
    3.4680   -4.0815    0.0000 O   0  0  0  0  0  0  0  0  0  0  0  0
    4.6198   -8.7513    0.0000 C   0  0  0  0  0  0  0  0  0  0  0  0
    2.3162   -8.7513    0.0000 C   0  0  0  0  0  0  0  0  0  0  0  0
    9.9157   -2.8170    0.0000 C   0  0  0  0  0  0  0  0  0  0  0  0
   10.3288   -1.5525    0.0000 O   0  0  0  0  0  0  0  0  0  0  0  0
   12.0566    0.0000    0.0000 O   0  0  0  0  0  0  0  0  0  0  0  0
    7.7247   -2.0658    0.0000 O   0  0  0  0  0  0  0  0  0  0  0  0
    6.9360   -3.4555    0.0000 C   0  0  0  0  0  0  0  0  0  0  0  0
    1.1643   -6.7482    0.0000 C   0  0  0  0  0  0  0  0  0  0  0  0
    1.1643   -8.0878    0.0000 C   0  0  0  0  0  0  0  0  0  0  0  0
    3.4680   -5.4211    0.0000 C   0  0  0  0  0  0  0  0  0  0  0  0
    0.0000   -8.7513    0.0000 O   0  0  0  0  0  0  0  0  0  0  0  0
   12.5198   -2.2536    0.0000 C   0  0  0  0  0  0  0  0  0  0  0  0
    3.4680   -9.4274    0.0000 H   0  0  0  0  0  0  0  0  0  0  0  0
    4.6198   -7.3867    0.0000 H   0  0  0  0  0  0  0  0  0  0  0  0
    6.9360   -7.4368    0.0000 H   0  0  0  0  0  0  0  0  0  0  0  0
    5.7842   -5.4211    0.0000 H   0  0  0  0  0  0  0  0  0  0  0  0
  1  5  1  0  0  0  0
  1  7  1  0  0  0  0
  1  8  1  0  0  0  0
  1 23  1  1  0  0  0
  2  6  1  0  0  0  0
  2  4  1  0  0  0  0
  2  3  1  0  0  0  0
  2 30  1  6  0  0  0
  3  5  1  0  0  0  0
  3 11  1  0  0  0  0
  3 32  1  1  0  0  0
  4  9  1  0  0  0  0
  4 12  1  0  0  0  0
  4 26  1  1  0  0  0
  5 10  1  0  0  0  0
  5 31  1  6  0  0  0
  6  7  1  0  0  0  0
  6 16  2  0  0  0  0
  8 13  1  0  0  0  0
  8 14  1  1  0  0  0
  9 18  1  0  0  0  0
  9 29  1  6  0  0  0
  9 17  1  0  0  0  0
 10 13  1  0  0  0  0
 11 17  1  0  0  0  0
 12 24  1  0  0  0  0
 14 19  1  0  0  0  0
 14 22  2  0  0  0  0
 15 20  1  0  0  0  0
 15 21  2  0  0  0  0
 15 28  1  0  0  0  0
 18 25  1  0  0  0  0
 19 20  1  0  0  0  0
 24 25  1  0  0  0  0
 25 27  1  6  0  0  0
M  END
> <ID>
10952

> <Formula>
C23H34O5

> <FW>
390.5131

> <DSSTox_CID>
25443

> <DSSTox_RID>
80884

> <DSSTox_GSID>
45443

> <DSSTox_FileID_Sort>
5565

> <TS_ChemName>
Alfadolone acetate

> <TS_ChemName_Synonyms>


> <TS_CASRN>
23930-37-2

> <CASRN_ChemName_Relationship>
primary

> <TS_Description>
single chemical compound

> <ChemNote>
stereochem; tautomers

> <STRUCTURE_Shown>
tested chemical

> <STRUCTURE_Formula>
C23H34O5

> <STRUCTURE_MW>
390.5131

> <STRUCTURE_ChemType>
defined organic

> <STRUCTURE_DefinedOrganicForm>
parent

> <STRUCTURE_IUPAC>
(3alpha,5alpha)-3-hydroxy-11,20-dioxopregnan-21-yl acetate

> <STRUCTURE_SMILES>
CC(=O)OCC(=O)[C@H]1CC[C@H]2[C@@H]3CC[C@H]4C[C@H](O)CC[C@]4(C)[C@H]3C(=O)C[C@]12C

> <STRUCTURE_SMILES_Desalt>
CC(=O)OCC(=O)[C@H]1CC[C@H]2[C@@H]3CC[C@H]4C[C@H](O)CC[C@]4(C)[C@H]3C(=O)C[C@]12C

> <Substance_modify_yyyymmdd>
20100107

$$$$
