23947-60-6
ChemmineR-0915142007XD

 15 15  0  0  0  0  0  0  0  0  1 V2000
    6.9639   -2.0372    0.0000 N   0  0  0  0  0  0  0  0  0  0  0  0
    5.8102   -2.6920    0.0000 C   0  0  0  0  0  0  0  0  0  0  0  0
    6.9639   -0.7068    0.0000 C   0  0  0  0  0  0  0  0  0  0  0  0
    4.6669   -2.0372    0.0000 C   0  0  0  0  0  0  0  0  0  0  0  0
    5.8102   -0.0312    0.0000 N   0  0  0  0  0  0  0  0  0  0  0  0
    4.6669   -0.7068    0.0000 C   0  0  0  0  0  0  0  0  0  0  0  0
    8.1176   -0.0312    0.0000 N   0  0  0  0  0  0  0  0  0  0  0  0
    5.8102   -4.0120    0.0000 O   0  0  0  0  0  0  0  0  0  0  0  0
    3.4612   -2.6920    0.0000 C   0  0  0  0  0  0  0  0  0  0  0  0
    3.4924   -0.0312    0.0000 C   0  0  0  0  0  0  0  0  0  0  0  0
    9.2714   -0.6548    0.0000 C   0  0  0  0  0  0  0  0  0  0  0  0
    2.2971   -2.0268    0.0000 C   0  0  0  0  0  0  0  0  0  0  0  0
    1.1537   -2.6816    0.0000 C   0  0  0  0  0  0  0  0  0  0  0  0
   10.3939    0.0000    0.0000 C   0  0  0  0  0  0  0  0  0  0  0  0
    0.0000   -2.0268    0.0000 C   0  0  0  0  0  0  0  0  0  0  0  0
  1  2  1  0  0  0  0
  1  3  2  0  0  0  0
  2  4  2  0  0  0  0
  2  8  1  0  0  0  0
  3  5  1  0  0  0  0
  3  7  1  0  0  0  0
  4  9  1  0  0  0  0
  4  6  1  0  0  0  0
  5  6  2  0  0  0  0
  6 10  1  0  0  0  0
  7 11  1  0  0  0  0
  9 12  1  0  0  0  0
 11 14  1  0  0  0  0
 12 13  1  0  0  0  0
 13 15  1  0  0  0  0
M  END
> <ID>
8873

> <Formula>
C11H19N3O

> <FW>
209.2881

> <DSSTox_CID>
21927

> <DSSTox_RID>
79881

> <DSSTox_GSID>
41927

> <DSSTox_FileID_Sort>
4563

> <TS_ChemName>
Ethirimol

> <TS_ChemName_Synonyms>


> <TS_CASRN>
23947-60-6

> <CASRN_ChemName_Relationship>
primary

> <TS_Description>
single chemical compound

> <ChemNote>
tautomers

> <STRUCTURE_Shown>
tested chemical

> <STRUCTURE_Formula>
C11H19N3O

> <STRUCTURE_MW>
209.2881

> <STRUCTURE_ChemType>
defined organic

> <STRUCTURE_DefinedOrganicForm>
parent

> <STRUCTURE_IUPAC>
5-butyl-2-(ethylamino)-6-methylpyrimidin-4-ol

> <STRUCTURE_SMILES>
CCNc1nc(C)c(CCCC)c(O)n1

> <STRUCTURE_SMILES_Desalt>
CCNc1nc(C)c(CCCC)c(O)n1

> <Substance_modify_yyyymmdd>
20080825

$$$$
