23964-57-0
ChemmineR-0915142007XD

 20 19  0  0  0  0  0  0  0  0  1 V2000
    1.7945   -2.7693    0.0000 C    0  0  0  0  0  0  0  0  0  0  0  0
    3.0130   -2.2155    0.0000 C    0  0  0  0  0  0  0  0  0  0  0  0
    0.9194   -1.7724    0.0000 S    0  0  0  0  0  0  0  0  0  0  0  0
    4.1762   -2.8912    0.0000 N    0  0  0  0  0  0  0  0  0  0  0  0
    2.8690   -0.8973    0.0000 C    0  0  0  0  0  0  0  0  0  0  0  0
    5.3282   -2.2155    0.0000 C    0  0  0  0  0  0  0  0  0  0  0  0
    1.5398   -4.0654    0.0000 C    0  0  0  0  0  0  0  0  0  0  0  0
    1.5841   -0.6314    0.0000 C    0  0  0  0  0  0  0  0  0  0  0  0
    5.3282   -0.8862    0.0000 O    0  0  0  0  0  0  0  0  0  0  0  0
    2.5256   -4.9516    0.0000 O    0  0  0  0  0  0  0  0  0  0  0  0
    6.4692   -2.8801    0.0000 C    0  0  0  0  0  0  0  0  0  0  0  0
    0.2548   -4.4863    0.0000 O    0  0  0  0  0  0  0  0  0  0  0  0
    7.6212   -2.2155    0.0000 N    0  0  0  0  0  0  0  0  0  0  0  0
    3.8660    0.0000    0.0000 C    0  0  0  0  0  0  0  0  0  0  0  0
    8.7844   -2.8801    0.0000 C    0  0  0  0  0  0  0  0  0  0  0  0
    6.4692   -4.2094    0.0000 C    0  0  0  0  0  0  0  0  0  0  0  0
    0.0000   -5.7824    0.0000 C    0  0  0  0  0  0  0  0  0  0  0  0
    9.9364   -2.2155    0.0000 C    0  0  0  0  0  0  0  0  0  0  0  0
   11.0774   -2.8912    0.0000 C    0  0  0  0  0  0  0  0  0  0  0  0
    5.2839   -5.3504    0.0000 Cl   0  0  0  0  0  0  0  0  0  0  0  0
  1  2  2  0  0  0  0
  1  3  1  0  0  0  0
  1  7  1  0  0  0  0
  2  4  1  0  0  0  0
  2  5  1  0  0  0  0
  3  8  1  0  0  0  0
  4  6  1  0  0  0  0
  5 14  1  0  0  0  0
  5  8  2  0  0  0  0
  6  9  2  0  0  0  0
  6 11  1  0  0  0  0
  7 10  2  0  0  0  0
  7 12  1  0  0  0  0
 11 13  1  0  0  0  0
 11 16  1  0  0  0  0
 12 17  1  0  0  0  0
 13 15  1  0  0  0  0
 15 18  1  0  0  0  0
 18 19  1  0  0  0  0
M  END
> <ID>
10953

> <Formula>
C13H21ClN2O3S

> <FW>
320.8354 (284.3745+36.4609)

> <DSSTox_CID>
25444

> <DSSTox_RID>
80885

> <DSSTox_GSID>
45444

> <DSSTox_FileID_Sort>
5566

> <TS_ChemName>
Articaine hydrochloride

> <TS_ChemName_Synonyms>


> <TS_CASRN>
23964-57-0

> <CASRN_ChemName_Relationship>
primary

> <TS_Description>
single chemical compound

> <ChemNote>
parent [23964-58-1]

> <STRUCTURE_Shown>
tested chemical

> <STRUCTURE_Formula>
C13H21ClN2O3S

> <STRUCTURE_MW>
320.8354

> <STRUCTURE_ChemType>
defined organic

> <STRUCTURE_DefinedOrganicForm>
complex

> <STRUCTURE_IUPAC>
methyl 4-methyl-3-[(N-propylalanyl)amino]thiophene-2-carboxylate hydrochloride (1:1)

> <STRUCTURE_SMILES>
Cl.O=C(Nc1c(scc1C)C(=O)OC)C(C)NCCC

> <STRUCTURE_SMILES_Desalt>
O=C(Nc1c(scc1C)C(=O)OC)C(C)NCCC

> <Substance_modify_yyyymmdd>
20100107

$$$$
