2398-96-1
ChemmineR-0915142007XD

 22 24  0  0  0  0  0  0  0  0  1 V2000
    6.8954   -1.9900    0.0000 C   0  0  0  0  0  0  0  0  0  0  0  0
    8.0489   -2.6618    0.0000 N   0  0  0  0  0  0  0  0  0  0  0  0
    9.2150   -1.9900    0.0000 C   0  0  0  0  0  0  0  0  0  0  0  0
    5.7800   -2.6618    0.0000 O   0  0  0  0  0  0  0  0  0  0  0  0
    6.8954   -0.6718    0.0000 S   0  0  0  0  0  0  0  0  0  0  0  0
    4.6265   -1.9900    0.0000 C   0  0  0  0  0  0  0  0  0  0  0  0
    2.3069   -1.9900    0.0000 C   0  0  0  0  0  0  0  0  0  0  0  0
   10.3685   -2.6492    0.0000 C   0  0  0  0  0  0  0  0  0  0  0  0
    3.4604   -2.6618    0.0000 C   0  0  0  0  0  0  0  0  0  0  0  0
    2.3069   -0.6718    0.0000 C   0  0  0  0  0  0  0  0  0  0  0  0
    3.4604    0.0000    0.0000 C   0  0  0  0  0  0  0  0  0  0  0  0
    4.6265   -0.6718    0.0000 C   0  0  0  0  0  0  0  0  0  0  0  0
   11.5219   -1.9900    0.0000 C   0  0  0  0  0  0  0  0  0  0  0  0
    9.2150   -0.6718    0.0000 C   0  0  0  0  0  0  0  0  0  0  0  0
    8.0489   -3.9927    0.0000 C   0  0  0  0  0  0  0  0  0  0  0  0
   10.3685    0.0000    0.0000 C   0  0  0  0  0  0  0  0  0  0  0  0
    1.1535   -2.6618    0.0000 C   0  0  0  0  0  0  0  0  0  0  0  0
   11.5219   -0.6591    0.0000 C   0  0  0  0  0  0  0  0  0  0  0  0
    1.1535    0.0000    0.0000 C   0  0  0  0  0  0  0  0  0  0  0  0
   12.6754   -2.6492    0.0000 C   0  0  0  0  0  0  0  0  0  0  0  0
    0.0000   -1.9900    0.0000 C   0  0  0  0  0  0  0  0  0  0  0  0
    0.0000   -0.6718    0.0000 C   0  0  0  0  0  0  0  0  0  0  0  0
  1  2  1  0  0  0  0
  1  4  1  0  0  0  0
  1  5  2  0  0  0  0
  2  3  1  0  0  0  0
  2 15  1  0  0  0  0
  3  8  1  0  0  0  0
  3 14  2  0  0  0  0
  4  6  1  0  0  0  0
  6  9  2  0  0  0  0
  6 12  1  0  0  0  0
  7  9  1  0  0  0  0
  7 17  2  0  0  0  0
  7 10  1  0  0  0  0
  8 13  2  0  0  0  0
 10 11  1  0  0  0  0
 10 19  2  0  0  0  0
 11 12  2  0  0  0  0
 13 20  1  0  0  0  0
 13 18  1  0  0  0  0
 14 16  1  0  0  0  0
 16 18  2  0  0  0  0
 17 21  1  0  0  0  0
 19 22  1  0  0  0  0
 21 22  2  0  0  0  0
M  END
> <ID>
9384

> <Formula>
C19H17NOS

> <FW>
307.4094

> <DSSTox_CID>
22477

> <DSSTox_RID>
80034

> <DSSTox_GSID>
42477

> <DSSTox_FileID_Sort>
4716

> <TS_ChemName>
Tolnaftate

> <TS_ChemName_Synonyms>


> <TS_CASRN>
2398-96-1

> <CASRN_ChemName_Relationship>
primary

> <TS_Description>
single chemical compound

> <ChemNote>


> <STRUCTURE_Shown>
tested chemical

> <STRUCTURE_Formula>
C19H17NOS

> <STRUCTURE_MW>
307.4094

> <STRUCTURE_ChemType>
defined organic

> <STRUCTURE_DefinedOrganicForm>
parent

> <STRUCTURE_IUPAC>
O-naphthalen-2-yl methyl(3-methylphenyl)carbamothioate

> <STRUCTURE_SMILES>
Cc1cc(ccc1)N(C)C(=S)Oc2ccc3ccccc3c2

> <STRUCTURE_SMILES_Desalt>
Cc1cc(ccc1)N(C)C(=S)Oc2ccc3ccccc3c2

> <Substance_modify_yyyymmdd>
20080825

$$$$
