24017-47-8
ChemmineR-0915142007XD

 20 21  0  0  0  0  0  0  0  0  1 V2000
    3.9435   -7.0671    0.0000 P   0  0  0  0  0  0  0  0  0  0  0  0
    3.9435   -5.7180    0.0000 S   0  0  0  0  0  0  0  0  0  0  0  0
    5.2718   -7.0671    0.0000 O   0  0  0  0  0  0  0  0  0  0  0  0
    3.9435   -8.3954    0.0000 O   0  0  0  0  0  0  0  0  0  0  0  0
    2.6151   -7.0671    0.0000 O   0  0  0  0  0  0  0  0  0  0  0  0
    5.9463   -8.2190    0.0000 C   0  0  0  0  0  0  0  0  0  0  0  0
    7.2746   -8.2190    0.0000 C   0  0  0  0  0  0  0  0  0  0  0  0
    5.0954   -9.0492    0.0000 C   0  0  0  0  0  0  0  0  0  0  0  0
    5.0954  -10.3775    0.0000 C   0  0  0  0  0  0  0  0  0  0  0  0
    1.1519   -3.9850    0.0000 N   0  0  0  0  0  0  0  0  0  0  0  0
    2.2415   -4.7737    0.0000 N   0  0  0  0  0  0  0  0  0  0  0  0
    1.8264   -6.0397    0.0000 C   0  0  0  0  0  0  0  0  0  0  0  0
    0.4774   -6.0397    0.0000 N   0  0  0  0  0  0  0  0  0  0  0  0
    0.0830   -4.7737    0.0000 C   0  0  0  0  0  0  0  0  0  0  0  0
    1.1519   -2.6566    0.0000 C   0  0  0  0  0  0  0  0  0  0  0  0
    0.0000   -1.9821    0.0000 C   0  0  0  0  0  0  0  0  0  0  0  0
    2.3038   -1.9821    0.0000 C   0  0  0  0  0  0  0  0  0  0  0  0
    0.0000   -0.6538    0.0000 C   0  0  0  0  0  0  0  0  0  0  0  0
    2.3038   -0.6538    0.0000 C   0  0  0  0  0  0  0  0  0  0  0  0
    1.1519    0.0000    0.0000 C   0  0  0  0  0  0  0  0  0  0  0  0
  1  2  2  0  0  0  0
  1  3  1  0  0  0  0
  1  4  1  0  0  0  0
  1  5  1  0  0  0  0
  3  6  1  0  0  0  0
  4  8  1  0  0  0  0
  5 12  1  0  0  0  0
  6  7  1  0  0  0  0
  8  9  1  0  0  0  0
 10 11  1  0  0  0  0
 10 14  1  0  0  0  0
 10 15  1  0  0  0  0
 11 12  2  0  0  0  0
 12 13  1  0  0  0  0
 13 14  2  0  0  0  0
 15 16  2  0  0  0  0
 15 17  1  0  0  0  0
 16 18  1  0  0  0  0
 17 19  2  0  0  0  0
 18 20  2  0  0  0  0
 19 20  1  0  0  0  0
M  END
> <ID>
7363

> <Formula>
C12H16N3O3PS

> <FW>
313.3125

> <DSSTox_CID>
17612

> <DSSTox_RID>
79348

> <DSSTox_GSID>
37612

> <DSSTox_FileID_Sort>
4030

> <TS_ChemName>
Triazophos

> <TS_ChemName_Synonyms>


> <TS_CASRN>
24017-47-8

> <CASRN_ChemName_Relationship>
primary

> <TS_Description>
single chemical compound

> <ChemNote>


> <STRUCTURE_Shown>
tested chemical

> <STRUCTURE_Formula>
C12H16N3O3PS

> <STRUCTURE_MW>
313.3125

> <STRUCTURE_ChemType>
defined organic

> <STRUCTURE_DefinedOrganicForm>
parent

> <STRUCTURE_IUPAC>
O,O-diethyl O-(1-phenyl-1H-1,2,4-triazol-3-yl) phosphorothioate

> <STRUCTURE_SMILES>
CCOP(=S)(OCC)Oc1ncn(n1)c2ccccc2

> <STRUCTURE_SMILES_Desalt>
CCOP(=S)(OCC)Oc1ncn(n1)c2ccccc2

> <Substance_modify_yyyymmdd>
20080429

$$$$
