2402-79-1
ChemmineR-0915142007XD

 10 10  0  0  0  0  0  0  0  0  1 V2000
    3.4609   -3.3333    0.0000 N    0  0  0  0  0  0  0  0  0  0  0  0
    2.3073   -3.9872    0.0000 C    0  0  0  0  0  0  0  0  0  0  0  0
    3.4609   -2.0042    0.0000 C    0  0  0  0  0  0  0  0  0  0  0  0
    2.3073   -1.3291    0.0000 C    0  0  0  0  0  0  0  0  0  0  0  0
    1.1536   -3.3333    0.0000 C    0  0  0  0  0  0  0  0  0  0  0  0
    1.1536   -2.0042    0.0000 C    0  0  0  0  0  0  0  0  0  0  0  0
    4.6092   -1.3291    0.0000 Cl   0  0  0  0  0  0  0  0  0  0  0  0
    2.3073    0.0000    0.0000 Cl   0  0  0  0  0  0  0  0  0  0  0  0
    0.0000   -3.9872    0.0000 Cl   0  0  0  0  0  0  0  0  0  0  0  0
    2.3073   -5.3163    0.0000 Cl   0  0  0  0  0  0  0  0  0  0  0  0
  1  2  2  0  0  0  0
  1  3  1  0  0  0  0
  2  5  1  0  0  0  0
  2 10  1  0  0  0  0
  3  4  2  0  0  0  0
  3  7  1  0  0  0  0
  4  6  1  0  0  0  0
  4  8  1  0  0  0  0
  5  6  2  0  0  0  0
  5  9  1  0  0  0  0
M  END
> <ID>
5178

> <Formula>
C5HCl4N

> <FW>
216.8801

> <DSSTox_CID>
7467

> <DSSTox_RID>
78464

> <DSSTox_GSID>
27467

> <DSSTox_FileID_Sort>
3147

> <TS_ChemName>
2,3,5,6-Tetrachloropyridine

> <TS_ChemName_Synonyms>
2,3,5,6-Tetrachloropyridine (Pyridine, 2,3,5,6-tetrachloro-)

> <TS_CASRN>
2402-79-1

> <CASRN_ChemName_Relationship>
primary

> <TS_Description>
single chemical compound

> <ChemNote>


> <STRUCTURE_Shown>
tested chemical

> <STRUCTURE_Formula>
C5HCl4N

> <STRUCTURE_MW>
216.8801

> <STRUCTURE_ChemType>
defined organic

> <STRUCTURE_DefinedOrganicForm>
parent

> <STRUCTURE_IUPAC>
2,3,5,6-tetrachloropyridine

> <STRUCTURE_SMILES>
Clc1cc(Cl)c(Cl)nc1Cl

> <STRUCTURE_SMILES_Desalt>
Clc1cc(Cl)c(Cl)nc1Cl

> <Substance_modify_yyyymmdd>
20080429

$$$$
