2403-89-6
ChemmineR-0915142007XD

 12 12  0  0  0  0  0  0  0  0  1 V2000
    2.4890   -1.3324    0.0000 N   0  0  0  0  0  0  0  0  0  0  0  0
    3.6296   -1.9880    0.0000 C   0  0  0  0  0  0  0  0  0  0  0  0
    1.3324   -1.9880    0.0000 C   0  0  0  0  0  0  0  0  0  0  0  0
    3.6296   -3.3364    0.0000 C   0  0  0  0  0  0  0  0  0  0  0  0
    1.3324   -3.3364    0.0000 C   0  0  0  0  0  0  0  0  0  0  0  0
    2.4890   -3.9973    0.0000 C   0  0  0  0  0  0  0  0  0  0  0  0
    2.4890   -5.3298    0.0000 O   0  0  0  0  0  0  0  0  0  0  0  0
    2.4890    0.0000    0.0000 C   0  0  0  0  0  0  0  0  0  0  0  0
    4.3011   -0.8528    0.0000 C   0  0  0  0  0  0  0  0  0  0  0  0
    4.9620   -1.9880    0.0000 C   0  0  0  0  0  0  0  0  0  0  0  0
    0.6609   -0.8528    0.0000 C   0  0  0  0  0  0  0  0  0  0  0  0
    0.0000   -2.0093    0.0000 C   0  0  0  0  0  0  0  0  0  0  0  0
  1  2  1  0  0  0  0
  1  3  1  0  0  0  0
  1  8  1  0  0  0  0
  2  4  1  0  0  0  0
  2  9  1  0  0  0  0
  2 10  1  0  0  0  0
  3  5  1  0  0  0  0
  3 11  1  0  0  0  0
  3 12  1  0  0  0  0
  4  6  1  0  0  0  0
  5  6  1  0  0  0  0
  6  7  1  0  0  0  0
M  END
> <ID>
10068

> <Formula>
C10H21NO

> <FW>
171.2798

> <DSSTox_CID>
24411

> <DSSTox_RID>
80210

> <DSSTox_GSID>
44411

> <DSSTox_FileID_Sort>
4892

> <TS_ChemName>
1,2,2,6,6-Pentamethylpiperidin-4-ol

> <TS_ChemName_Synonyms>
1,2,2,6,6-Pentamethylpiperidin-4-ol (4-Piperidinol, 1,2,2,6,6-pentamethyl-)

> <TS_CASRN>
2403-89-6

> <CASRN_ChemName_Relationship>
primary

> <TS_Description>
single chemical compound

> <ChemNote>


> <STRUCTURE_Shown>
tested chemical

> <STRUCTURE_Formula>
C10H21NO

> <STRUCTURE_MW>
171.2798

> <STRUCTURE_ChemType>
defined organic

> <STRUCTURE_DefinedOrganicForm>
parent

> <STRUCTURE_IUPAC>
1,2,2,6,6-pentamethylpiperidin-4-ol

> <STRUCTURE_SMILES>
CC1(C)CC(O)CC(C)(C)N1C

> <STRUCTURE_SMILES_Desalt>
CC1(C)CC(O)CC(C)(C)N1C

> <Substance_modify_yyyymmdd>
20091116

$$$$
