2403-88-5
ChemmineR-0915142007XD

 11 11  0  0  0  0  0  0  0  0  1 V2000
    2.4881   -0.4956    0.0000 N   0  0  0  0  0  0  0  0  0  0  0  0
    3.6230   -1.1548    0.0000 C   0  0  0  0  0  0  0  0  0  0  0  0
    1.3332   -1.1548    0.0000 C   0  0  0  0  0  0  0  0  0  0  0  0
    3.6230   -2.4831    0.0000 C   0  0  0  0  0  0  0  0  0  0  0  0
    1.3332   -2.4831    0.0000 C   0  0  0  0  0  0  0  0  0  0  0  0
    2.4881   -3.1572    0.0000 C   0  0  0  0  0  0  0  0  0  0  0  0
    2.4881   -4.4904    0.0000 O   0  0  0  0  0  0  0  0  0  0  0  0
    4.9563   -1.1548    0.0000 C   0  0  0  0  0  0  0  0  0  0  0  0
    4.2971    0.0000    0.0000 C   0  0  0  0  0  0  0  0  0  0  0  0
    0.6592    0.0000    0.0000 C   0  0  0  0  0  0  0  0  0  0  0  0
    0.0000   -1.1548    0.0000 C   0  0  0  0  0  0  0  0  0  0  0  0
  1  2  1  0  0  0  0
  1  3  1  0  0  0  0
  2  4  1  0  0  0  0
  2  8  1  0  0  0  0
  2  9  1  0  0  0  0
  3  5  1  0  0  0  0
  3 10  1  0  0  0  0
  3 11  1  0  0  0  0
  4  6  1  0  0  0  0
  5  6  1  0  0  0  0
  6  7  1  0  0  0  0
M  END
> <ID>
6104

> <Formula>
C9H19NO

> <FW>
157.2533

> <DSSTox_CID>
9655

> <DSSTox_RID>
78798

> <DSSTox_GSID>
29655

> <DSSTox_FileID_Sort>
3480

> <TS_ChemName>
2,2,6,6-Tetramethyl- 4-piperidinol

> <TS_ChemName_Synonyms>


> <TS_CASRN>
2403-88-5

> <CASRN_ChemName_Relationship>
primary

> <TS_Description>
single chemical compound

> <ChemNote>


> <STRUCTURE_Shown>
tested chemical

> <STRUCTURE_Formula>
C9H19NO

> <STRUCTURE_MW>
157.2533

> <STRUCTURE_ChemType>
defined organic

> <STRUCTURE_DefinedOrganicForm>
parent

> <STRUCTURE_IUPAC>
2,2,6,6-tetramethylpiperidin-4-ol

> <STRUCTURE_SMILES>
OC1CC(C)(C)NC(C)(C)C1

> <STRUCTURE_SMILES_Desalt>
OC1CC(C)(C)NC(C)(C)C1

> <Substance_modify_yyyymmdd>
20080429

$$$$
