2404-44-6
ChemmineR-0915142007XD

 11 11  0  0  0  0  0  0  0  0  1 V2000
    0.0000   -3.1515    0.0000 C   0  0  0  0  0  0  0  0  0  0  0  0
    1.1524   -2.4880    0.0000 C   0  0  0  0  0  0  0  0  0  0  0  0
    2.3047   -3.1515    0.0000 C   0  0  0  0  0  0  0  0  0  0  0  0
    3.4571   -2.4880    0.0000 C   0  0  0  0  0  0  0  0  0  0  0  0
    4.6094   -3.1515    0.0000 C   0  0  0  0  0  0  0  0  0  0  0  0
    5.7618   -2.4880    0.0000 C   0  0  0  0  0  0  0  0  0  0  0  0
    6.9141   -3.1515    0.0000 C   0  0  0  0  0  0  0  0  0  0  0  0
    8.0665   -2.4880    0.0000 C   0  0  0  0  0  0  0  0  0  0  0  0
    8.0665   -1.1524    0.0000 C   0  0  0  0  0  0  0  0  0  0  0  0
    7.4030    0.0000    0.0000 C   0  0  0  0  0  0  0  0  0  0  0  0
    8.7300    0.0000    0.0000 O   0  0  0  0  0  0  0  0  0  0  0  0
  1  2  1  0  0  0  0
  2  3  1  0  0  0  0
  3  4  1  0  0  0  0
  4  5  1  0  0  0  0
  5  6  1  0  0  0  0
  6  7  1  0  0  0  0
  7  8  1  0  0  0  0
  8  9  1  0  0  0  0
  9 10  1  0  0  0  0
  9 11  1  0  0  0  0
 10 11  1  0  0  0  0
M  END
> <ID>
4098

> <Formula>
C10H20O

> <FW>
156.2652

> <DSSTox_CID>
5242

> <DSSTox_RID>
77713

> <DSSTox_GSID>
25242

> <DSSTox_FileID_Sort>
2396

> <TS_ChemName>
1,2-Epoxydecane

> <TS_ChemName_Synonyms>


> <TS_CASRN>
2404-44-6

> <CASRN_ChemName_Relationship>
primary

> <TS_Description>
single chemical compound

> <ChemNote>


> <STRUCTURE_Shown>
tested chemical

> <STRUCTURE_Formula>
C10H20O

> <STRUCTURE_MW>
156.2652

> <STRUCTURE_ChemType>
defined organic

> <STRUCTURE_DefinedOrganicForm>
parent

> <STRUCTURE_IUPAC>
2-octyloxirane

> <STRUCTURE_SMILES>
CCCCCCCCC1CO1

> <STRUCTURE_SMILES_Desalt>
CCCCCCCCC1CO1

> <Substance_modify_yyyymmdd>
20080429

$$$$
