24140-30-5
ChemmineR-0915142007XD

 26 27  0  0  1  0  0  0  0  0  1 V2000
   13.7231   -1.3274    0.0000 C   0  0  0  0  0  0  0  0  0  0  0  0
    6.8518   -4.0213    0.0000 N   0  0  0  0  0  0  0  0  0  0  0  0
   12.5714   -2.0106    0.0000 C   0  0  0  0  0  0  0  0  0  0  0  0
   11.4392   -1.3274    0.0000 C   0  0  0  0  0  0  0  0  0  0  0  0
    5.7001   -3.3771    0.0000 C   0  0  0  0  0  0  0  0  0  0  0  0
   13.7231    0.0000    0.0000 O   0  0  0  0  0  0  0  0  0  0  0  0
   14.9139   -2.0106    0.0000 O   0  0  0  0  0  0  0  0  0  0  0  0
    7.9645   -3.3381    0.0000 C   0  0  0  0  0  0  0  0  0  0  0  0
   10.3070   -2.0106    0.0000 C   0  0  0  0  0  0  0  0  0  0  0  0
    4.5483   -4.0408    0.0000 C   0  0  0  0  0  0  0  0  0  0  0  0
    2.2839   -5.3487    0.0000 C   0  0  0  0  0  0  0  0  0  0  0  0
   16.0461   -1.3274    0.0000 C   0  0  0  0  0  0  0  0  0  0  0  0
    9.1162   -4.0213    0.0000 C   0  0  0  0  0  0  0  0  0  0  0  0
    7.9645   -2.0106    0.0000 C   0  0  0  0  0  0  0  0  0  0  0  0
   10.3070   -3.3381    0.0000 C   0  0  0  0  0  0  0  0  0  0  0  0
    9.1162   -1.3274    0.0000 C   0  0  0  0  0  0  0  0  0  0  0  0
    3.3966   -3.3771    0.0000 C   0  0  0  0  0  0  0  0  0  0  0  0
    4.5483   -5.3097    0.0000 C   0  0  0  0  0  0  0  0  0  0  0  0
    2.2839   -4.0408    0.0000 C   0  0  0  0  0  0  0  0  0  0  0  0
    3.4161   -6.0124    0.0000 C   0  0  0  0  0  0  0  0  0  0  0  0
    1.1127   -6.0319    0.0000 O   0  0  0  0  0  0  0  0  0  0  0  0
   17.2369   -2.0106    0.0000 C   0  0  0  0  0  0  0  0  0  0  0  0
    0.0000   -5.3487    0.0000 C   0  0  0  0  0  0  0  0  0  0  0  0
   18.3691   -1.3274    0.0000 C   0  0  0  0  0  0  0  0  0  0  0  0
   17.2369   -3.3381    0.0000 C   0  0  0  0  0  0  0  0  0  0  0  0
   19.5208   -2.0106    0.0000 C   0  0  0  0  0  0  0  0  0  0  0  0
  1  3  1  0  0  0  0
  1  6  2  0  0  0  0
  1  7  1  0  0  0  0
  2  8  1  0  0  0  0
  2  5  2  0  0  0  0
  3  4  2  0  0  0  0
  4  9  1  0  0  0  0
  5 10  1  0  0  0  0
  7 12  1  0  0  0  0
  8 14  1  0  0  0  0
  8 13  2  0  0  0  0
  9 15  2  0  0  0  0
  9 16  1  0  0  0  0
 10 17  1  0  0  0  0
 10 18  2  0  0  0  0
 11 20  2  0  0  0  0
 11 21  1  0  0  0  0
 11 19  1  0  0  0  0
 12 22  1  0  0  0  0
 13 15  1  0  0  0  0
 14 16  2  0  0  0  0
 17 19  2  0  0  0  0
 18 20  1  0  0  0  0
 21 23  1  0  0  0  0
 22 24  1  0  0  0  0
 22 25  1  6  0  0  0
 24 26  1  0  0  0  0
M  END
> <ID>
4281

> <Formula>
C22H25NO3

> <FW>
351.4388

> <DSSTox_CID>
5581

> <DSSTox_RID>
77840

> <DSSTox_GSID>
25581

> <DSSTox_FileID_Sort>
2523

> <TS_ChemName>
(+)-2-Methylbutyl-4-methoxybenzyladine-4'-aminocyannate

> <TS_ChemName_Synonyms>


> <TS_CASRN>
24140-30-5

> <CASRN_ChemName_Relationship>
primary

> <TS_Description>
single chemical compound

> <ChemNote>
stereochem

> <STRUCTURE_Shown>
tested chemical

> <STRUCTURE_Formula>
C22H25NO3

> <STRUCTURE_MW>
351.4388

> <STRUCTURE_ChemType>
defined organic

> <STRUCTURE_DefinedOrganicForm>
parent

> <STRUCTURE_IUPAC>
(2S)-2-methylbutyl (2E)-3-{4-[(E)-(4-methoxybenzylidene)amino]phenyl}prop-2-enoate

> <STRUCTURE_SMILES>
COc2ccc(/C=N/c1ccc(/C=C/C(=O)OC[C@@H](C)CC)cc1)cc2

> <STRUCTURE_SMILES_Desalt>
COc2ccc(/C=N/c1ccc(/C=C/C(=O)OC[C@@H](C)CC)cc1)cc2

> <Substance_modify_yyyymmdd>
20080429

$$$$
