24157-81-1
ChemmineR-0915142007XD

 16 17  0  0  0  0  0  0  0  0  1 V2000
    4.6467   -1.9954    0.0000 C   0  0  0  0  0  0  0  0  0  0  0  0
    4.6467   -3.3442    0.0000 C   0  0  0  0  0  0  0  0  0  0  0  0
    3.4735   -1.3488    0.0000 C   0  0  0  0  0  0  0  0  0  0  0  0
    3.4735   -3.9908    0.0000 C   0  0  0  0  0  0  0  0  0  0  0  0
    5.7646   -3.9908    0.0000 C   0  0  0  0  0  0  0  0  0  0  0  0
    5.7646   -1.3488    0.0000 C   0  0  0  0  0  0  0  0  0  0  0  0
    6.9193   -1.9954    0.0000 C   0  0  0  0  0  0  0  0  0  0  0  0
    6.9193   -3.3442    0.0000 C   0  0  0  0  0  0  0  0  0  0  0  0
    2.3188   -3.3442    0.0000 C   0  0  0  0  0  0  0  0  0  0  0  0
    2.3188   -1.9954    0.0000 C   0  0  0  0  0  0  0  0  0  0  0  0
    8.0648   -1.3488    0.0000 C   0  0  0  0  0  0  0  0  0  0  0  0
    8.0648    0.0000    0.0000 C   0  0  0  0  0  0  0  0  0  0  0  0
    9.2381   -1.9954    0.0000 C   0  0  0  0  0  0  0  0  0  0  0  0
    1.1455   -3.9908    0.0000 C   0  0  0  0  0  0  0  0  0  0  0  0
    1.1455   -5.3396    0.0000 C   0  0  0  0  0  0  0  0  0  0  0  0
    0.0000   -3.3442    0.0000 C   0  0  0  0  0  0  0  0  0  0  0  0
  1  2  2  0  0  0  0
  1  3  1  0  0  0  0
  1  6  1  0  0  0  0
  2  4  1  0  0  0  0
  2  5  1  0  0  0  0
  3 10  2  0  0  0  0
  4  9  2  0  0  0  0
  5  8  2  0  0  0  0
  6  7  2  0  0  0  0
  7  8  1  0  0  0  0
  7 11  1  0  0  0  0
  9 10  1  0  0  0  0
  9 14  1  0  0  0  0
 11 12  1  0  0  0  0
 11 13  1  0  0  0  0
 14 15  1  0  0  0  0
 14 16  1  0  0  0  0
M  END
> <ID>
7014

> <Formula>
C16H20

> <FW>
212.33

> <DSSTox_CID>
15272

> <DSSTox_RID>
79252

> <DSSTox_GSID>
35272

> <DSSTox_FileID_Sort>
3934

> <TS_ChemName>
2,6-Diisopropylnaphthalene

> <TS_ChemName_Synonyms>


> <TS_CASRN>
24157-81-1

> <CASRN_ChemName_Relationship>
primary

> <TS_Description>
single chemical compound

> <ChemNote>


> <STRUCTURE_Shown>
tested chemical

> <STRUCTURE_Formula>
C16H20

> <STRUCTURE_MW>
212.33

> <STRUCTURE_ChemType>
defined organic

> <STRUCTURE_DefinedOrganicForm>
parent

> <STRUCTURE_IUPAC>
2,6-di(propan-2-yl)naphthalene

> <STRUCTURE_SMILES>
CC(C)c1ccc2cc(ccc2c1)C(C)C

> <STRUCTURE_SMILES_Desalt>
CC(C)c1ccc2cc(ccc2c1)C(C)C

> <Substance_modify_yyyymmdd>
20080429

$$$$
