24169-02-6
ChemmineR-0915142007XD

 28 29  0  0  0  0  0  0  0  0  2 V2000
   11.1045   -5.6601    0.0000 O    0  0  0  0  0  0  0  0  0  0  0  0
   12.4117   -5.6601    0.0000 N    0  3  0  0  0  0  0  0  0  0  0  0
   13.0586   -6.7921    0.0000 O    0  5  0  0  0  0  0  0  0  0  0  0
   13.4763   -3.9890    0.0000 O    0  0  0  0  0  0  0  0  0  0  0  0
    9.7973   -7.9241    0.0000 Cl   0  0  0  0  0  0  0  0  0  0  0  0
    9.1504   -6.7921    0.0000 C    0  0  0  0  0  0  0  0  0  0  0  0
    9.7973   -5.6601    0.0000 C    0  0  0  0  0  0  0  0  0  0  0  0
    9.1504   -4.5280    0.0000 C    0  0  0  0  0  0  0  0  0  0  0  0
    7.8432   -4.5280    0.0000 C    0  0  0  0  0  0  0  0  0  0  0  0
    7.1829   -3.3960    0.0000 C    0  0  0  0  0  0  0  0  0  0  0  0
    5.8757   -3.3960    0.0000 O    0  0  0  0  0  0  0  0  0  0  0  0
    5.2288   -2.2640    0.0000 C    0  0  0  0  0  0  0  0  0  0  0  0
    5.8757   -1.1320    0.0000 C    0  0  0  0  0  0  0  0  0  0  0  0
    7.1829   -1.1320    0.0000 N    0  0  0  0  0  0  0  0  0  0  0  0
    7.9510   -2.1966    0.0000 C    0  0  0  0  0  0  0  0  0  0  0  0
    9.1909   -1.7789    0.0000 C    0  0  0  0  0  0  0  0  0  0  0  0
    9.1909   -0.4717    0.0000 N    0  0  0  0  0  0  0  0  0  0  0  0
    7.9510   -0.0809    0.0000 C    0  0  0  0  0  0  0  0  0  0  0  0
    3.9216   -2.2640    0.0000 C    0  0  0  0  0  0  0  0  0  0  0  0
    3.2613   -1.1320    0.0000 C    0  0  0  0  0  0  0  0  0  0  0  0
    3.9216    0.0000    0.0000 Cl   0  0  0  0  0  0  0  0  0  0  0  0
    1.9541   -1.1320    0.0000 C    0  0  0  0  0  0  0  0  0  0  0  0
    1.3072   -2.2640    0.0000 C    0  0  0  0  0  0  0  0  0  0  0  0
    0.0000   -2.2640    0.0000 Cl   0  0  0  0  0  0  0  0  0  0  0  0
    1.9541   -3.3960    0.0000 C    0  0  0  0  0  0  0  0  0  0  0  0
    3.2613   -3.3960    0.0000 C    0  0  0  0  0  0  0  0  0  0  0  0
    7.1829   -5.6601    0.0000 C    0  0  0  0  0  0  0  0  0  0  0  0
    7.8432   -6.7921    0.0000 C    0  0  0  0  0  0  0  0  0  0  0  0
  1  2  1  0  0  0  0
  2  3  1  0  0  0  0
  2  4  2  0  0  0  0
  5  6  1  0  0  0  0
  6  7  2  0  0  0  0
  6 28  1  0  0  0  0
  7  8  1  0  0  0  0
  8  9  2  0  0  0  0
  9 10  1  0  0  0  0
  9 27  1  0  0  0  0
 10 11  1  0  0  0  0
 11 12  1  0  0  0  0
 12 13  1  0  0  0  0
 12 19  1  0  0  0  0
 13 14  1  0  0  0  0
 14 15  1  0  0  0  0
 14 18  1  0  0  0  0
 15 16  2  0  0  0  0
 16 17  1  0  0  0  0
 17 18  2  0  0  0  0
 19 20  2  0  0  0  0
 19 26  1  0  0  0  0
 20 21  1  0  0  0  0
 20 22  1  0  0  0  0
 22 23  2  0  0  0  0
 23 24  1  0  0  0  0
 23 25  1  0  0  0  0
 25 26  2  0  0  0  0
 27 28  2  0  0  0  0
M  END
> <ID>
4091

> <Formula>
C18H16Cl3N3O4

> <FW>
444.6963 (63.0128+381.6835)

> <DSSTox_CID>
5226

> <DSSTox_RID>
77708

> <DSSTox_GSID>
25226

> <DSSTox_FileID_Sort>
2391

> <TS_ChemName>
Econazole nitrate

> <TS_ChemName_Synonyms>


> <TS_CASRN>
24169-02-6

> <CASRN_ChemName_Relationship>
primary

> <TS_Description>
single chemical compound

> <ChemNote>
parent [27220-47-9 ]

> <STRUCTURE_Shown>
tested chemical

> <STRUCTURE_Formula>
C18H16Cl3N3O4

> <STRUCTURE_MW>
444.6963

> <STRUCTURE_ChemType>
defined organic

> <STRUCTURE_DefinedOrganicForm>
complex

> <STRUCTURE_IUPAC>
1-{2-[(4-chlorobenzyl)oxy]-2-(2,4-dichlorophenyl)ethyl}-1H-imidazole nitrate (1:1)

> <STRUCTURE_SMILES>
[O-][N+](=O)O.Clc3ccc(C(OCc1ccc(Cl)cc1)Cn2ccnc2)c(Cl)c3

> <STRUCTURE_SMILES_Desalt>
Clc3ccc(C(OCc1ccc(Cl)cc1)Cn2ccnc2)c(Cl)c3

> <Substance_modify_yyyymmdd>
20080429

$$$$
