24166-13-0
ChemmineR-0915142007XD

 23 26  0  0  0  0  0  0  0  0  1 V2000
    4.4080   -4.1025    0.0000 C    0  0  0  0  0  0  0  0  0  0  0  0
    3.2078   -3.5279    0.0000 C    0  0  0  0  0  0  0  0  0  0  0  0
    5.6082   -3.5279    0.0000 N    0  0  0  0  0  0  0  0  0  0  0  0
    3.4697   -5.0408    0.0000 C    0  0  0  0  0  0  0  0  0  0  0  0
    2.9241   -2.2331    0.0000 C    0  0  0  0  0  0  0  0  0  0  0  0
    3.7461   -1.2002    0.0000 N    0  0  0  0  0  0  0  0  0  0  0  0
    5.0772   -1.2002    0.0000 C    0  0  0  0  0  0  0  0  0  0  0  0
    5.9064   -2.2331    0.0000 C    0  0  0  0  0  0  0  0  0  0  0  0
    4.5898   -5.4336    0.0000 O    0  0  0  0  0  0  0  0  0  0  0  0
    2.2331   -4.4444    0.0000 C    0  0  0  0  0  0  0  0  0  0  0  0
    3.8261   -6.3356    0.0000 C    0  0  0  0  0  0  0  0  0  0  0  0
    5.6591    0.0000    0.0000 O    0  0  0  0  0  0  0  0  0  0  0  0
    1.6512   -1.8403    0.0000 C    0  0  0  0  0  0  0  0  0  0  0  0
    6.5247   -4.5026    0.0000 C    0  0  0  0  0  0  0  0  0  0  0  0
    0.9747   -4.0516    0.0000 C    0  0  0  0  0  0  0  0  0  0  0  0
    5.0990   -6.6775    0.0000 Cl   0  0  0  0  0  0  0  0  0  0  0  0
    2.1967   -4.7062    0.0000 C    0  0  0  0  0  0  0  0  0  0  0  0
    5.9064   -5.6591    0.0000 C    0  0  0  0  0  0  0  0  0  0  0  0
    0.6765   -2.7568    0.0000 C    0  0  0  0  0  0  0  0  0  0  0  0
    0.0000   -4.9463    0.0000 Cl   0  0  0  0  0  0  0  0  0  0  0  0
    2.8659   -7.2739    0.0000 C    0  0  0  0  0  0  0  0  0  0  0  0
    1.2366   -5.6446    0.0000 C    0  0  0  0  0  0  0  0  0  0  0  0
    1.5930   -6.9393    0.0000 C    0  0  0  0  0  0  0  0  0  0  0  0
  1  2  1  0  0  0  0
  1  3  1  0  0  0  0
  1  4  1  0  0  0  0
  1  9  1  0  0  0  0
  2  5  2  0  0  0  0
  2 10  1  0  0  0  0
  3  8  1  0  0  0  0
  3 14  1  0  0  0  0
  4 11  2  0  0  0  0
  4 17  1  0  0  0  0
  5  6  1  0  0  0  0
  5 13  1  0  0  0  0
  6  7  1  0  0  0  0
  7  8  1  0  0  0  0
  7 12  2  0  0  0  0
  9 18  1  0  0  0  0
 10 15  2  0  0  0  0
 11 16  1  0  0  0  0
 11 21  1  0  0  0  0
 13 19  2  0  0  0  0
 14 18  1  0  0  0  0
 15 19  1  0  0  0  0
 15 20  1  0  0  0  0
 17 22  2  0  0  0  0
 21 23  2  0  0  0  0
 22 23  1  0  0  0  0
M  END
> <ID>
2580

> <Formula>
C17H14Cl2N2O2

> <FW>
349.2113

> <DSSTox_CID>
2854

> <DSSTox_RID>
97543

> <DSSTox_GSID>
22854

> <DSSTox_FileID_Sort>
8317

> <TS_ChemName>
Cloxazolam

> <TS_ChemName_Synonyms>


> <TS_CASRN>
24166-13-0

> <CASRN_ChemName_Relationship>
primary

> <TS_Description>
single chemical compound

> <ChemNote>


> <STRUCTURE_Shown>
tested chemical

> <STRUCTURE_Formula>
C17H14Cl2N2O2

> <STRUCTURE_MW>
349.2113

> <STRUCTURE_ChemType>
defined organic

> <STRUCTURE_DefinedOrganicForm>
parent

> <STRUCTURE_IUPAC>
10-chloro-11b-(2-chlorophenyl)-2,3,7,11b-tetrahydro[1,3]oxazolo[3,2-d][1,4]benzodiazepin-6(5H)-one

> <STRUCTURE_SMILES>
Clc1ccccc1C34OCCN4CC(=O)Nc2ccc(Cl)cc23

> <STRUCTURE_SMILES_Desalt>
Clc1ccccc1C34OCCN4CC(=O)Nc2ccc(Cl)cc23

> <Substance_modify_yyyymmdd>
20091020

$$$$
