24168-70-5
ChemmineR-0915142007XD

 12 12  0  0  0  0  0  0  0  0  1 V2000
    1.1398   -1.3355    0.0000 N   0  0  0  0  0  0  0  0  0  0  0  0
    1.1398   -3.9950    0.0000 N   0  0  0  0  0  0  0  0  0  0  0  0
    2.2911   -2.0090    0.0000 C   0  0  0  0  0  0  0  0  0  0  0  0
    0.0000   -3.3388    0.0000 C   0  0  0  0  0  0  0  0  0  0  0  0
    2.2911   -3.3388    0.0000 C   0  0  0  0  0  0  0  0  0  0  0  0
    0.0000   -2.0090    0.0000 C   0  0  0  0  0  0  0  0  0  0  0  0
    3.4481    0.0000    0.0000 C   0  0  0  0  0  0  0  0  0  0  0  0
    3.4481   -1.3355    0.0000 C   0  0  0  0  0  0  0  0  0  0  0  0
    4.5994   -2.0090    0.0000 C   0  0  0  0  0  0  0  0  0  0  0  0
    5.7565   -1.3355    0.0000 C   0  0  0  0  0  0  0  0  0  0  0  0
    3.4481   -3.9950    0.0000 O   0  0  0  0  0  0  0  0  0  0  0  0
    4.5994   -3.3388    0.0000 C   0  0  0  0  0  0  0  0  0  0  0  0
  1  3  2  0  0  0  0
  1  6  1  0  0  0  0
  2  4  1  0  0  0  0
  2  5  2  0  0  0  0
  3  5  1  0  0  0  0
  3  8  1  0  0  0  0
  4  6  2  0  0  0  0
  5 11  1  0  0  0  0
  7  8  1  0  0  0  0
  8  9  1  0  0  0  0
  9 10  1  0  0  0  0
 11 12  1  0  0  0  0
M  END
> <ID>
12233

> <Formula>
C9H14N2O

> <FW>
166.2203

> <DSSTox_CID>
27082

> <DSSTox_RID>
82094

> <DSSTox_GSID>
47082

> <DSSTox_FileID_Sort>
6775

> <TS_ChemName>
2-sec-Butyl-3-methoxypyrazine

> <TS_ChemName_Synonyms>


> <TS_CASRN>
24168-70-5

> <CASRN_ChemName_Relationship>
primary

> <TS_Description>
single chemical compound

> <ChemNote>


> <STRUCTURE_Shown>
tested chemical

> <STRUCTURE_Formula>
C9H14N2O

> <STRUCTURE_MW>
166.2203

> <STRUCTURE_ChemType>
defined organic

> <STRUCTURE_DefinedOrganicForm>
parent

> <STRUCTURE_IUPAC>
2-(butan-2-yl)-3-methoxypyrazine

> <STRUCTURE_SMILES>
COc1nccnc1C(C)CC

> <STRUCTURE_SMILES_Desalt>
COc1nccnc1C(C)CC

> <Substance_modify_yyyymmdd>
20100429

$$$$
