2417-72-3
ChemmineR-0915142007XD

 12 12  0  0  0  0  0  0  0  0  1 V2000
    3.4577   -0.6583    0.0000 C    0  0  0  0  0  0  0  0  0  0  0  0
    0.0000   -3.9897    0.0000 C    0  0  0  0  0  0  0  0  0  0  0  0
    2.3074   -3.9897    0.0000 C    0  0  0  0  0  0  0  0  0  0  0  0
    0.0000   -2.6598    0.0000 C    0  0  0  0  0  0  0  0  0  0  0  0
    2.3074   -2.6598    0.0000 C    0  0  0  0  0  0  0  0  0  0  0  0
    1.1504   -5.9779    0.0000 C    0  0  0  0  0  0  0  0  0  0  0  0
    1.1504   -4.6480    0.0000 C    0  0  0  0  0  0  0  0  0  0  0  0
    1.1504   -1.9882    0.0000 C    0  0  0  0  0  0  0  0  0  0  0  0
    1.1504   -0.6583    0.0000 C    0  0  0  0  0  0  0  0  0  0  0  0
    0.0000   -6.6495    0.0000 Br   0  0  0  0  0  0  0  0  0  0  0  0
    0.0000    0.0000    0.0000 O    0  0  0  0  0  0  0  0  0  0  0  0
    2.3074    0.0000    0.0000 O    0  0  0  0  0  0  0  0  0  0  0  0
  1 12  1  0  0  0  0
  2  4  1  0  0  0  0
  2  7  2  0  0  0  0
  3  5  2  0  0  0  0
  3  7  1  0  0  0  0
  4  8  2  0  0  0  0
  5  8  1  0  0  0  0
  6  7  1  0  0  0  0
  6 10  1  0  0  0  0
  8  9  1  0  0  0  0
  9 11  2  0  0  0  0
  9 12  1  0  0  0  0
M  END
> <ID>
14270

> <Formula>
C9H9BrO2

> <FW>
229.0706

> <DSSTox_CID>
29366

> <DSSTox_RID>
83481

> <DSSTox_GSID>
49406

> <DSSTox_FileID_Sort>
8156

> <TS_ChemName>
Benzoic acid,4-(bromomethyl)-,methylester

> <TS_ChemName_Synonyms>


> <TS_CASRN>
2417-72-3

> <CASRN_ChemName_Relationship>
primary

> <TS_Description>
single chemical compound

> <ChemNote>


> <STRUCTURE_Shown>
tested chemical

> <STRUCTURE_Formula>
C9H9BrO2

> <STRUCTURE_MW>
229.0706

> <STRUCTURE_ChemType>
defined organic

> <STRUCTURE_DefinedOrganicForm>
parent

> <STRUCTURE_IUPAC>
methyl 4-(bromomethyl)benzoate

> <STRUCTURE_SMILES>
BrCc1ccc(cc1)C(=O)OC

> <STRUCTURE_SMILES_Desalt>
BrCc1ccc(cc1)C(=O)OC

> <Substance_modify_yyyymmdd>
20111204

$$$$
