2420-87-3
ChemmineR-0915142007XD

 22 25  0  0  0  0  0  0  0  0  1 V2000
    7.8075   -3.6869    0.0000 C   0  0  0  0  0  0  0  0  0  0  0  0
    7.8075   -5.0571    0.0000 C   0  0  0  0  0  0  0  0  0  0  0  0
    9.8579   -4.3966    0.0000 O   0  0  0  0  0  0  0  0  0  0  0  0
    9.0496   -3.3221    0.0000 C   0  0  0  0  0  0  0  0  0  0  0  0
    9.0496   -5.4317    0.0000 C   0  0  0  0  0  0  0  0  0  0  0  0
    6.6344   -3.0461    0.0000 C   0  0  0  0  0  0  0  0  0  0  0  0
    6.6344   -5.7077    0.0000 C   0  0  0  0  0  0  0  0  0  0  0  0
    5.4909   -5.0571    0.0000 C   0  0  0  0  0  0  0  0  0  0  0  0
    5.4909   -3.6869    0.0000 C   0  0  0  0  0  0  0  0  0  0  0  0
    2.0800   -3.0165    0.0000 C   0  0  0  0  0  0  0  0  0  0  0  0
    2.0800   -1.6463    0.0000 C   0  0  0  0  0  0  0  0  0  0  0  0
    0.0000   -2.3068    0.0000 O   0  0  0  0  0  0  0  0  0  0  0  0
    0.8083   -3.3813    0.0000 C   0  0  0  0  0  0  0  0  0  0  0  0
    0.8083   -1.2717    0.0000 C   0  0  0  0  0  0  0  0  0  0  0  0
    3.2531   -3.6573    0.0000 C   0  0  0  0  0  0  0  0  0  0  0  0
    3.2531   -1.0055    0.0000 C   0  0  0  0  0  0  0  0  0  0  0  0
    4.3671   -1.6463    0.0000 C   0  0  0  0  0  0  0  0  0  0  0  0
    4.3671   -3.0165    0.0000 C   0  0  0  0  0  0  0  0  0  0  0  0
    9.4833   -6.7034    0.0000 O   0  0  0  0  0  0  0  0  0  0  0  0
    0.4042    0.0000    0.0000 O   0  0  0  0  0  0  0  0  0  0  0  0
    9.4833   -2.0504    0.0000 O   0  0  0  0  0  0  0  0  0  0  0  0
    0.4042   -4.6529    0.0000 O   0  0  0  0  0  0  0  0  0  0  0  0
  1  2  2  0  0  0  0
  1  4  1  0  0  0  0
  1  6  1  0  0  0  0
  2  5  1  0  0  0  0
  2  7  1  0  0  0  0
  3  4  1  0  0  0  0
  3  5  1  0  0  0  0
  4 21  2  0  0  0  0
  5 19  2  0  0  0  0
  6  9  2  0  0  0  0
  7  8  2  0  0  0  0
  8  9  1  0  0  0  0
  9 18  1  0  0  0  0
 10 11  2  0  0  0  0
 10 13  1  0  0  0  0
 10 15  1  0  0  0  0
 11 14  1  0  0  0  0
 11 16  1  0  0  0  0
 12 13  1  0  0  0  0
 12 14  1  0  0  0  0
 13 22  2  0  0  0  0
 14 20  2  0  0  0  0
 15 18  2  0  0  0  0
 16 17  2  0  0  0  0
 17 18  1  0  0  0  0
M  END
> <ID>
10533

> <Formula>
C16H6O6

> <FW>
294.2152

> <DSSTox_CID>
24886

> <DSSTox_RID>
80559

> <DSSTox_GSID>
44886

> <DSSTox_FileID_Sort>
5241

> <TS_ChemName>
5,5'-Bi-2-benzofuran-1,1',3,3'-tetrone

> <TS_ChemName_Synonyms>
5,5'-Bi-2-benzofuran-1,1',3,3'-tetrone ([5,5'-Biisobenzofuran]-1,1',3,3'-tetrone)

> <TS_CASRN>
2420-87-3

> <CASRN_ChemName_Relationship>
primary

> <TS_Description>
single chemical compound

> <ChemNote>


> <STRUCTURE_Shown>
tested chemical

> <STRUCTURE_Formula>
C16H6O6

> <STRUCTURE_MW>
294.2152

> <STRUCTURE_ChemType>
defined organic

> <STRUCTURE_DefinedOrganicForm>
parent

> <STRUCTURE_IUPAC>
5,5'-bi-2-benzofuran-1,1',3,3'-tetrone

> <STRUCTURE_SMILES>
O=C1OC(=O)c2cc(ccc12)c3ccc4C(=O)OC(=O)c4c3

> <STRUCTURE_SMILES_Desalt>
O=C1OC(=O)c2cc(ccc12)c3ccc4C(=O)OC(=O)c4c3

> <Substance_modify_yyyymmdd>
20091116

$$$$
