2421-28-5
ChemmineR-0915142007XD

 24 27  0  0  0  0  0  0  0  0  1 V2000
    9.2048   -2.0030    0.0000 C   0  0  0  0  0  0  0  0  0  0  0  0
    9.2048   -3.3308    0.0000 C   0  0  0  0  0  0  0  0  0  0  0  0
   11.2529   -2.6557    0.0000 O   0  0  0  0  0  0  0  0  0  0  0  0
   10.4652   -1.5867    0.0000 C   0  0  0  0  0  0  0  0  0  0  0  0
   10.4652   -3.7359    0.0000 C   0  0  0  0  0  0  0  0  0  0  0  0
    8.0458   -1.3278    0.0000 C   0  0  0  0  0  0  0  0  0  0  0  0
    8.0458   -3.9835    0.0000 C   0  0  0  0  0  0  0  0  0  0  0  0
    6.8980   -3.3308    0.0000 C   0  0  0  0  0  0  0  0  0  0  0  0
    6.8980   -2.0030    0.0000 C   0  0  0  0  0  0  0  0  0  0  0  0
   10.8815   -4.9963    0.0000 O   0  0  0  0  0  0  0  0  0  0  0  0
   10.8815   -0.3151    0.0000 O   0  0  0  0  0  0  0  0  0  0  0  0
    3.4434   -3.9835    0.0000 C   0  0  0  0  0  0  0  0  0  0  0  0
    2.2956   -3.3308    0.0000 C   0  0  0  0  0  0  0  0  0  0  0  0
    1.8455   -5.4239    0.0000 O   0  0  0  0  0  0  0  0  0  0  0  0
    3.1733   -5.2888    0.0000 C   0  0  0  0  0  0  0  0  0  0  0  0
    1.2941   -4.2086    0.0000 C   0  0  0  0  0  0  0  0  0  0  0  0
    4.6024   -3.3308    0.0000 C   0  0  0  0  0  0  0  0  0  0  0  0
    2.2956   -2.0030    0.0000 C   0  0  0  0  0  0  0  0  0  0  0  0
    3.4434   -1.3278    0.0000 C   0  0  0  0  0  0  0  0  0  0  0  0
    4.6024   -2.0030    0.0000 C   0  0  0  0  0  0  0  0  0  0  0  0
    0.0000   -3.9385    0.0000 O   0  0  0  0  0  0  0  0  0  0  0  0
    4.0510   -6.2791    0.0000 O   0  0  0  0  0  0  0  0  0  0  0  0
    5.7502   -1.3278    0.0000 C   0  0  0  0  0  0  0  0  0  0  0  0
    5.7502    0.0000    0.0000 O   0  0  0  0  0  0  0  0  0  0  0  0
  1  2  2  0  0  0  0
  1  4  1  0  0  0  0
  1  6  1  0  0  0  0
  2  5  1  0  0  0  0
  2  7  1  0  0  0  0
  3  4  1  0  0  0  0
  3  5  1  0  0  0  0
  4 11  2  0  0  0  0
  5 10  2  0  0  0  0
  6  9  2  0  0  0  0
  7  8  2  0  0  0  0
  8  9  1  0  0  0  0
  9 23  1  0  0  0  0
 12 13  2  0  0  0  0
 12 15  1  0  0  0  0
 12 17  1  0  0  0  0
 13 16  1  0  0  0  0
 13 18  1  0  0  0  0
 14 15  1  0  0  0  0
 14 16  1  0  0  0  0
 15 22  2  0  0  0  0
 16 21  2  0  0  0  0
 17 20  2  0  0  0  0
 18 19  2  0  0  0  0
 19 20  1  0  0  0  0
 20 23  1  0  0  0  0
 23 24  2  0  0  0  0
M  END
> <ID>
5876

> <Formula>
C17H6O7

> <FW>
322.2253

> <DSSTox_CID>
9233

> <DSSTox_RID>
78721

> <DSSTox_GSID>
29233

> <DSSTox_FileID_Sort>
3403

> <TS_ChemName>
Benzophenonetetracarboxylic dianhydride

> <TS_ChemName_Synonyms>
Benzophenonetetracarboxylic dianhydride (1,3-Isobenzofurandione, 5,5'-carbonylbis-)

> <TS_CASRN>
2421-28-5

> <CASRN_ChemName_Relationship>
primary

> <TS_Description>
single chemical compound

> <ChemNote>


> <STRUCTURE_Shown>
tested chemical

> <STRUCTURE_Formula>
C17H6O7

> <STRUCTURE_MW>
322.2253

> <STRUCTURE_ChemType>
defined organic

> <STRUCTURE_DefinedOrganicForm>
parent

> <STRUCTURE_IUPAC>
5,5'-carbonylbis(2-benzofuran-1,3-dione)

> <STRUCTURE_SMILES>
O=C1OC(=O)c2cc(ccc12)C(=O)c3ccc4C(=O)OC(=O)c4c3

> <STRUCTURE_SMILES_Desalt>
O=C1OC(=O)c2cc(ccc12)C(=O)c3ccc4C(=O)OC(=O)c4c3

> <Substance_modify_yyyymmdd>
20080429

$$$$
