24237-54-5
ChemmineR-0915142007XD

 22 24  0  0  0  0  0  0  0  0  1 V2000
    1.9364   -5.6833    0.0000 C   0  0  0  0  0  0  0  0  0  0  0  0
    0.6035   -5.6079    0.0000 C   0  0  0  0  0  0  0  0  0  0  0  0
    0.0000   -4.4260    0.0000 C   0  0  0  0  0  0  0  0  0  0  0  0
    0.7293   -3.3195    0.0000 C   0  0  0  0  0  0  0  0  0  0  0  0
    2.0495   -3.3823    0.0000 C   0  0  0  0  0  0  0  0  0  0  0  0
    2.7788   -2.2633    0.0000 C   0  0  0  0  0  0  0  0  0  0  0  0
    4.1116   -2.2633    0.0000 N   0  0  0  0  0  0  0  0  0  0  0  0
    4.7654   -3.4201    0.0000 C   0  0  0  0  0  0  0  0  0  0  0  0
    6.0983   -3.4201    0.0000 C   0  0  0  0  0  0  0  0  0  0  0  0
    6.7647   -2.2633    0.0000 C   0  0  0  0  0  0  0  0  0  0  0  0
    6.0983   -1.1191    0.0000 C   0  0  0  0  0  0  0  0  0  0  0  0
    4.7654   -1.1191    0.0000 C   0  0  0  0  0  0  0  0  0  0  0  0
    6.9910   -0.1257    0.0000 S   0  0  0  0  0  0  0  0  0  0  0  0
    8.2106   -0.6664    0.0000 C   0  0  0  0  0  0  0  0  0  0  0  0
    9.3549    0.0000    0.0000 N   0  0  0  0  0  0  0  0  0  0  0  0
    8.0723   -1.9866    0.0000 C   0  0  0  0  0  0  0  0  0  0  0  0
    9.0531   -2.8794    0.0000 C   0  0  0  0  0  0  0  0  0  0  0  0
    8.7765   -4.1871    0.0000 O   0  0  0  0  0  0  0  0  0  0  0  0
   10.3230   -2.4645    0.0000 O   0  0  0  0  0  0  0  0  0  0  0  0
   11.3038   -3.3572    0.0000 C   0  0  0  0  0  0  0  0  0  0  0  0
   12.5737   -2.9548    0.0000 C   0  0  0  0  0  0  0  0  0  0  0  0
    2.6531   -4.5643    0.0000 C   0  0  0  0  0  0  0  0  0  0  0  0
  1  2  2  0  0  0  0
  1 22  1  0  0  0  0
  2  3  1  0  0  0  0
  3  4  2  0  0  0  0
  4  5  1  0  0  0  0
  5  6  1  0  0  0  0
  5 22  2  0  0  0  0
  6  7  1  0  0  0  0
  7  8  1  0  0  0  0
  7 12  1  0  0  0  0
  8  9  1  0  0  0  0
  9 10  1  0  0  0  0
 10 11  2  0  0  0  0
 10 16  1  0  0  0  0
 11 12  1  0  0  0  0
 11 13  1  0  0  0  0
 13 14  1  0  0  0  0
 14 15  1  0  0  0  0
 14 16  2  0  0  0  0
 16 17  1  0  0  0  0
 17 18  2  0  0  0  0
 17 19  1  0  0  0  0
 19 20  1  0  0  0  0
 20 21  1  0  0  0  0
M  END
> <ID>
3285

> <Formula>
C17H20N2O2S

> <FW>
316.4179

> <DSSTox_CID>
3677

> <DSSTox_RID>
82561

> <DSSTox_GSID>
23677

> <DSSTox_FileID_Sort>
7239

> <TS_ChemName>
Tinoridine

> <TS_ChemName_Synonyms>


> <TS_CASRN>
24237-54-5

> <CASRN_ChemName_Relationship>
primary

> <TS_Description>
single chemical compound

> <ChemNote>


> <STRUCTURE_Shown>
tested chemical

> <STRUCTURE_Formula>
C17H20N2O2S

> <STRUCTURE_MW>
316.4179

> <STRUCTURE_ChemType>
defined organic

> <STRUCTURE_DefinedOrganicForm>
parent

> <STRUCTURE_IUPAC>
ethyl 2-amino-6-benzyl-4,5,6,7-tetrahydrothieno[2,3-c]pyridine-3-carboxylate

> <STRUCTURE_SMILES>
O=C(OCC)c1c2CCN(Cc2sc1N)Cc3ccccc3

> <STRUCTURE_SMILES_Desalt>
O=C(OCC)c1c2CCN(Cc2sc1N)Cc3ccccc3

> <Substance_modify_yyyymmdd>
20080429

$$$$
