2424-71-7
ChemmineR-0915142007XD

 24 24  0  0  0  0  0  0  0  0  2 V2000
    1.8247   -0.1763    0.0000 C   0  0  0  0  0  0  0  0  0  0  0  0
    1.1508   -1.3375    0.0000 N   0  3  0  0  0  0  0  0  0  0  0  0
    0.4977   -2.4883    0.0000 C   0  0  0  0  0  0  0  0  0  0  0  0
    0.0000   -0.6635    0.0000 C   0  0  0  0  0  0  0  0  0  0  0  0
    2.3120   -1.9906    0.0000 C   0  0  0  0  0  0  0  0  0  0  0  0
    3.4629   -1.3375    0.0000 C   0  0  0  0  0  0  0  0  0  0  0  0
    4.6137   -1.9906    0.0000 O   0  0  0  0  0  0  0  0  0  0  0  0
    5.7645   -1.3375    0.0000 C   0  0  0  0  0  0  0  0  0  0  0  0
    5.7645    0.0000    0.0000 O   0  0  0  0  0  0  0  0  0  0  0  0
    6.9257   -1.9906    0.0000 C   0  0  0  0  0  0  0  0  0  0  0  0
    7.5789   -0.8502    0.0000 O   0  0  0  0  0  0  0  0  0  0  0  0
    8.0766   -2.6645    0.0000 C   0  0  0  0  0  0  0  0  0  0  0  0
    9.2170   -1.9906    0.0000 C   0  0  0  0  0  0  0  0  0  0  0  0
   10.3679   -2.6645    0.0000 C   0  0  0  0  0  0  0  0  0  0  0  0
   10.3679   -3.9916    0.0000 C   0  0  0  0  0  0  0  0  0  0  0  0
    9.2170   -4.6552    0.0000 C   0  0  0  0  0  0  0  0  0  0  0  0
    8.0766   -3.9916    0.0000 C   0  0  0  0  0  0  0  0  0  0  0  0
    6.2518   -3.1415    0.0000 C   0  0  0  0  0  0  0  0  0  0  0  0
    6.9257   -4.3027    0.0000 C   0  0  0  0  0  0  0  0  0  0  0  0
    6.2518   -5.4535    0.0000 C   0  0  0  0  0  0  0  0  0  0  0  0
    4.9144   -5.4535    0.0000 C   0  0  0  0  0  0  0  0  0  0  0  0
    4.2612   -4.3027    0.0000 C   0  0  0  0  0  0  0  0  0  0  0  0
    4.9144   -3.1415    0.0000 C   0  0  0  0  0  0  0  0  0  0  0  0
    1.8455   -3.1933    0.0000 I   0  5  0  0  0  0  0  0  0  0  0  0
  1  2  1  0  0  0  0
  2  3  1  0  0  0  0
  2  4  1  0  0  0  0
  2  5  1  0  0  0  0
  5  6  1  0  0  0  0
  6  7  1  0  0  0  0
  7  8  1  0  0  0  0
  8  9  2  0  0  0  0
  8 10  1  0  0  0  0
 10 11  1  0  0  0  0
 10 12  1  0  0  0  0
 10 18  1  0  0  0  0
 12 13  2  0  0  0  0
 12 17  1  0  0  0  0
 13 14  1  0  0  0  0
 14 15  2  0  0  0  0
 15 16  1  0  0  0  0
 16 17  2  0  0  0  0
 18 19  2  0  0  0  0
 18 23  1  0  0  0  0
 19 20  1  0  0  0  0
 20 21  2  0  0  0  0
 21 22  1  0  0  0  0
 22 23  2  0  0  0  0
M  END
> <ID>
11421

> <Formula>
C19H24INO3

> <FW>
441.3032 (314.3982+126.9050)

> <DSSTox_CID>
26117

> <DSSTox_RID>
81353

> <DSSTox_GSID>
46117

> <DSSTox_FileID_Sort>
6034

> <TS_ChemName>
Metocinium iodide

> <TS_ChemName_Synonyms>


> <TS_CASRN>
2424-71-7

> <CASRN_ChemName_Relationship>
primary

> <TS_Description>
single chemical compound

> <ChemNote>
ammonium; parent [1553-33-9]

> <STRUCTURE_Shown>
tested chemical

> <STRUCTURE_Formula>
C19H24INO3

> <STRUCTURE_MW>
441.3032

> <STRUCTURE_ChemType>
defined organic

> <STRUCTURE_DefinedOrganicForm>
salt

> <STRUCTURE_IUPAC>
2-{[hydroxy(diphenyl)acetyl]oxy}-N,N,N-trimethylethanaminium iodide

> <STRUCTURE_SMILES>
[I-].OC(C(=O)OCC[N+](C)(C)C)(c1ccccc1)c2ccccc2

> <STRUCTURE_SMILES_Desalt>
OC(C(=O)OCC[N+](C)(C)C)(c1ccccc1)c2ccccc2

> <Substance_modify_yyyymmdd>
20110818

$$$$
