2425-77-6
ChemmineR-0915142007XD

 17 16  0  0  0  0  0  0  0  0  1 V2000
    6.8996   -0.6771    0.0000 C   0  0  0  0  0  0  0  0  0  0  0  0
    6.8996   -1.9828    0.0000 C   0  0  0  0  0  0  0  0  0  0  0  0
    8.0603   -2.6599    0.0000 C   0  0  0  0  0  0  0  0  0  0  0  0
    9.2210   -1.9990    0.0000 C   0  0  0  0  0  0  0  0  0  0  0  0
   10.3656   -2.6599    0.0000 C   0  0  0  0  0  0  0  0  0  0  0  0
   11.5262   -1.9990    0.0000 C   0  0  0  0  0  0  0  0  0  0  0  0
   12.6547   -2.6599    0.0000 C   0  0  0  0  0  0  0  0  0  0  0  0
   13.8154   -1.9990    0.0000 C   0  0  0  0  0  0  0  0  0  0  0  0
   14.9599   -2.6599    0.0000 C   0  0  0  0  0  0  0  0  0  0  0  0
   16.1206   -1.9990    0.0000 C   0  0  0  0  0  0  0  0  0  0  0  0
    5.7551    0.0000    0.0000 O   0  0  0  0  0  0  0  0  0  0  0  0
    5.7551   -2.6599    0.0000 C   0  0  0  0  0  0  0  0  0  0  0  0
    4.5944   -1.9828    0.0000 C   0  0  0  0  0  0  0  0  0  0  0  0
    3.4498   -2.6599    0.0000 C   0  0  0  0  0  0  0  0  0  0  0  0
    2.2891   -1.9828    0.0000 C   0  0  0  0  0  0  0  0  0  0  0  0
    1.1607   -2.6599    0.0000 C   0  0  0  0  0  0  0  0  0  0  0  0
    0.0000   -1.9828    0.0000 C   0  0  0  0  0  0  0  0  0  0  0  0
  1  2  1  0  0  0  0
  1 11  1  0  0  0  0
  2  3  1  0  0  0  0
  2 12  1  0  0  0  0
  3  4  1  0  0  0  0
  4  5  1  0  0  0  0
  5  6  1  0  0  0  0
  6  7  1  0  0  0  0
  7  8  1  0  0  0  0
  8  9  1  0  0  0  0
  9 10  1  0  0  0  0
 12 13  1  0  0  0  0
 13 14  1  0  0  0  0
 14 15  1  0  0  0  0
 15 16  1  0  0  0  0
 16 17  1  0  0  0  0
M  END
> <ID>
8237

> <Formula>
C16H34O

> <FW>
242.4406

> <DSSTox_CID>
21265

> <DSSTox_RID>
79669

> <DSSTox_GSID>
41265

> <DSSTox_FileID_Sort>
4351

> <TS_ChemName>
2-Hexyl-1-decanol

> <TS_ChemName_Synonyms>


> <TS_CASRN>
2425-77-6

> <CASRN_ChemName_Relationship>
primary

> <TS_Description>
single chemical compound

> <ChemNote>


> <STRUCTURE_Shown>
tested chemical

> <STRUCTURE_Formula>
C16H34O

> <STRUCTURE_MW>
242.4406

> <STRUCTURE_ChemType>
defined organic

> <STRUCTURE_DefinedOrganicForm>
parent

> <STRUCTURE_IUPAC>
2-hexyldecan-1-ol

> <STRUCTURE_SMILES>
CCCCCCC(CCCCCCCC)CO

> <STRUCTURE_SMILES_Desalt>
CCCCCCC(CCCCCCCC)CO

> <Substance_modify_yyyymmdd>
20080825

$$$$
