2426-63-3
ChemmineR-0915142007XD

 21 21  0  0  0  0  0  0  0  0  1 V2000
    3.4610   -5.4761    0.0000 C    0  0  0  0  0  0  0  0  0  0  0  0
    3.4610   -6.8045    0.0000 C    0  0  0  0  0  0  0  0  0  0  0  0
    2.3043   -4.8074    0.0000 C    0  0  0  0  0  0  0  0  0  0  0  0
    2.3043   -7.4642    0.0000 C    0  0  0  0  0  0  0  0  0  0  0  0
    1.1567   -5.4761    0.0000 C    0  0  0  0  0  0  0  0  0  0  0  0
    1.1567   -6.8045    0.0000 C    0  0  0  0  0  0  0  0  0  0  0  0
    4.7261   -5.0605    0.0000 C    0  0  0  0  0  0  0  0  0  0  0  0
    5.5123   -6.1358    0.0000 C    0  0  0  0  0  0  0  0  0  0  0  0
    4.7261   -7.2111    0.0000 N    0  0  0  0  0  0  0  0  0  0  0  0
    5.1237   -3.7953    0.0000 C    0  0  0  0  0  0  0  0  0  0  0  0
    6.4430   -3.5242    0.0000 C    0  0  0  0  0  0  0  0  0  0  0  0
    6.8406   -2.2591    0.0000 N    0  0  0  0  0  0  0  0  0  0  0  0
    8.1419   -1.9700    0.0000 C    0  0  0  0  0  0  0  0  0  0  0  0
    8.5576   -0.7229    0.0000 C    0  0  0  0  0  0  0  0  0  0  0  0
    9.0365   -2.9640    0.0000 C    0  0  0  0  0  0  0  0  0  0  0  0
    5.9641   -1.2651    0.0000 C    0  0  0  0  0  0  0  0  0  0  0  0
    6.3617    0.0000    0.0000 C    0  0  0  0  0  0  0  0  0  0  0  0
    4.6628   -1.5362    0.0000 C    0  0  0  0  0  0  0  0  0  0  0  0
    0.0000   -4.8074    0.0000 O    0  0  0  0  0  0  0  0  0  0  0  0
    0.0000   -3.4791    0.0000 C    0  0  0  0  0  0  0  0  0  0  0  0
    7.5636   -4.3195    0.0000 Cl   0  0  0  0  0  0  0  0  0  0  0  0
  1  3  1  0  0  0  0
  1  7  1  0  0  0  0
  1  2  2  0  0  0  0
  2  4  1  0  0  0  0
  2  9  1  0  0  0  0
  3  5  2  0  0  0  0
  4  6  2  0  0  0  0
  5  6  1  0  0  0  0
  5 19  1  0  0  0  0
  7  8  2  0  0  0  0
  7 10  1  0  0  0  0
  8  9  1  0  0  0  0
 10 11  1  0  0  0  0
 11 12  1  0  0  0  0
 12 13  1  0  0  0  0
 12 16  1  0  0  0  0
 13 14  1  0  0  0  0
 13 15  1  0  0  0  0
 16 17  1  0  0  0  0
 16 18  1  0  0  0  0
 19 20  1  0  0  0  0
M  END
> <ID>
13889

> <Formula>
C17H27ClN2O

> <FW>
310.8621 (274.4011+36.4609)

> <DSSTox_CID>
28826

> <DSSTox_RID>
83095

> <DSSTox_GSID>
48900

> <DSSTox_FileID_Sort>
7772

> <TS_ChemName>
5-Methoxy-N,N-diisopropyltryptamine hydrochloride

> <TS_ChemName_Synonyms>


> <TS_CASRN>
2426-63-3

> <CASRN_ChemName_Relationship>
primary

> <TS_Description>
single chemical compound

> <ChemNote>


> <STRUCTURE_Shown>
tested chemical

> <STRUCTURE_Formula>
C17H27ClN2O

> <STRUCTURE_MW>
310.8621

> <STRUCTURE_ChemType>
defined organic

> <STRUCTURE_DefinedOrganicForm>
complex

> <STRUCTURE_IUPAC>
N-[2-(5-methoxy-1H-indol-3-yl)ethyl]-N-(propan-2-yl)propan-2-amine hydrochloride (1:1)

> <STRUCTURE_SMILES>
Cl.CC(C)N(CCc2cnc1ccc(cc12)OC)C(C)C

> <STRUCTURE_SMILES_Desalt>
CC(C)N(CCc2cnc1ccc(cc12)OC)C(C)C

> <Substance_modify_yyyymmdd>
20111204

$$$$
