24279-91-2
ChemmineR-0915142007XD

 23 25  0  0  0  0  0  0  0  0  1 V2000
    5.7613   -5.9934    0.0000 C   0  0  0  0  0  0  0  0  0  0  0  0
    4.6111   -5.3181    0.0000 O   0  0  0  0  0  0  0  0  0  0  0  0
    4.6111   -3.9886    0.0000 C   0  0  0  0  0  0  0  0  0  0  0  0
    3.4610   -3.3344    0.0000 C   0  0  0  0  0  0  0  0  0  0  0  0
    2.3108   -3.9886    0.0000 O   0  0  0  0  0  0  0  0  0  0  0  0
    1.1501   -3.3344    0.0000 C   0  0  0  0  0  0  0  0  0  0  0  0
    0.0000   -3.9886    0.0000 N   0  0  0  0  0  0  0  0  0  0  0  0
    1.1501   -2.0048    0.0000 O   0  0  0  0  0  0  0  0  0  0  0  0
    5.7613   -3.3344    0.0000 C   0  0  0  0  0  0  0  0  0  0  0  0
    5.7613   -2.0048    0.0000 C   0  0  0  0  0  0  0  0  0  0  0  0
    4.6111   -1.3295    0.0000 N   0  0  0  0  0  0  0  0  0  0  0  0
    3.2816   -1.3295    0.0000 C   0  0  0  0  0  0  0  0  0  0  0  0
    3.9569   -0.1794    0.0000 C   0  0  0  0  0  0  0  0  0  0  0  0
    6.9220   -1.3295    0.0000 C   0  0  0  0  0  0  0  0  0  0  0  0
    6.9220    0.0000    0.0000 O   0  0  0  0  0  0  0  0  0  0  0  0
    8.0721   -2.0048    0.0000 C   0  0  0  0  0  0  0  0  0  0  0  0
    8.0721   -3.3344    0.0000 C   0  0  0  0  0  0  0  0  0  0  0  0
    9.2222   -3.9886    0.0000 N   0  0  0  0  0  0  0  0  0  0  0  0
   10.5518   -3.9886    0.0000 C   0  0  0  0  0  0  0  0  0  0  0  0
    9.8976   -5.1493    0.0000 C   0  0  0  0  0  0  0  0  0  0  0  0
    6.9220   -3.9886    0.0000 C   0  0  0  0  0  0  0  0  0  0  0  0
    6.9220   -5.3181    0.0000 O   0  0  0  0  0  0  0  0  0  0  0  0
    9.2222   -1.3295    0.0000 C   0  0  0  0  0  0  0  0  0  0  0  0
  1  2  1  0  0  0  0
  2  3  1  0  0  0  0
  3  4  1  0  0  0  0
  3  9  1  0  0  0  0
  4  5  1  0  0  0  0
  5  6  1  0  0  0  0
  6  7  1  0  0  0  0
  6  8  2  0  0  0  0
  9 10  2  0  0  0  0
  9 21  1  0  0  0  0
 10 11  1  0  0  0  0
 10 14  1  0  0  0  0
 11 12  1  0  0  0  0
 11 13  1  0  0  0  0
 12 13  1  0  0  0  0
 14 15  2  0  0  0  0
 14 16  1  0  0  0  0
 16 17  2  0  0  0  0
 16 23  1  0  0  0  0
 17 18  1  0  0  0  0
 17 21  1  0  0  0  0
 18 19  1  0  0  0  0
 18 20  1  0  0  0  0
 19 20  1  0  0  0  0
 21 22  2  0  0  0  0
M  END
> <ID>
12040

> <Formula>
C15H19N3O5

> <FW>
321.3285

> <DSSTox_CID>
26870

> <DSSTox_RID>
81977

> <DSSTox_GSID>
46870

> <DSSTox_FileID_Sort>
6658

> <TS_ChemName>
Carboquone

> <TS_ChemName_Synonyms>


> <TS_CASRN>
24279-91-2

> <CASRN_ChemName_Relationship>
primary

> <TS_Description>
single chemical compound

> <ChemNote>
tautomers

> <STRUCTURE_Shown>
tested chemical

> <STRUCTURE_Formula>
C15H19N3O5

> <STRUCTURE_MW>
321.3285

> <STRUCTURE_ChemType>
defined organic

> <STRUCTURE_DefinedOrganicForm>
parent

> <STRUCTURE_IUPAC>
2-[2,5-bis(aziridin-1-yl)-4-methyl-3,6-dioxocyclohexa-1,4-dien-1-yl]-2-methoxyethyl carbamate

> <STRUCTURE_SMILES>
NC(=O)OCC(OC)C=1C(=O)C(=C(C)C(=O)C=1N2CC2)N3CC3

> <STRUCTURE_SMILES_Desalt>
NC(=O)OCC(OC)C=1C(=O)C(=C(C)C(=O)C=1N2CC2)N3CC3

> <Substance_modify_yyyymmdd>
20110728

$$$$
