24280-93-1
ChemmineR-0915142007XD

 23 24  0  0  0  0  0  0  0  0  1 V2000
   10.3866   -3.3217    0.0000 C   0  0  0  0  0  0  0  0  0  0  0  0
   10.3866   -1.9831    0.0000 C   0  0  0  0  0  0  0  0  0  0  0  0
    9.2215   -3.9910    0.0000 C   0  0  0  0  0  0  0  0  0  0  0  0
    8.0688   -3.3217    0.0000 C   0  0  0  0  0  0  0  0  0  0  0  0
    8.0688   -1.9831    0.0000 C   0  0  0  0  0  0  0  0  0  0  0  0
    9.2215   -1.3262    0.0000 C   0  0  0  0  0  0  0  0  0  0  0  0
   11.6384   -3.7307    0.0000 C   0  0  0  0  0  0  0  0  0  0  0  0
   12.3945   -2.6524    0.0000 O   0  0  0  0  0  0  0  0  0  0  0  0
   11.6384   -1.5865    0.0000 C   0  0  0  0  0  0  0  0  0  0  0  0
    6.9285   -3.9910    0.0000 C   0  0  0  0  0  0  0  0  0  0  0  0
    5.7634   -3.3217    0.0000 C   0  0  0  0  0  0  0  0  0  0  0  0
    1.1651   -3.3217    0.0000 C   0  0  0  0  0  0  0  0  0  0  0  0
   12.0475   -5.0074    0.0000 O   0  0  0  0  0  0  0  0  0  0  0  0
    4.6232   -3.9910    0.0000 C   0  0  0  0  0  0  0  0  0  0  0  0
    1.1651   -1.9831    0.0000 O   0  0  0  0  0  0  0  0  0  0  0  0
    9.2215   -5.3172    0.0000 O   0  0  0  0  0  0  0  0  0  0  0  0
    6.9285   -1.3262    0.0000 O   0  0  0  0  0  0  0  0  0  0  0  0
    2.3302   -3.9910    0.0000 C   0  0  0  0  0  0  0  0  0  0  0  0
    3.4705   -3.3217    0.0000 C   0  0  0  0  0  0  0  0  0  0  0  0
    0.0000   -4.0034    0.0000 O   0  0  0  0  0  0  0  0  0  0  0  0
    9.2215    0.0000    0.0000 C   0  0  0  0  0  0  0  0  0  0  0  0
    4.6232   -5.3172    0.0000 C   0  0  0  0  0  0  0  0  0  0  0  0
    5.7634   -1.9831    0.0000 C   0  0  0  0  0  0  0  0  0  0  0  0
  1  2  2  0  0  0  0
  1  3  1  0  0  0  0
  1  7  1  0  0  0  0
  2  6  1  0  0  0  0
  2  9  1  0  0  0  0
  3  4  2  0  0  0  0
  3 16  1  0  0  0  0
  4  5  1  0  0  0  0
  4 10  1  0  0  0  0
  5 17  1  0  0  0  0
  5  6  2  0  0  0  0
  6 21  1  0  0  0  0
  7  8  1  0  0  0  0
  7 13  2  0  0  0  0
  8  9  1  0  0  0  0
 10 11  1  0  0  0  0
 11 14  2  0  0  0  0
 12 18  1  0  0  0  0
 12 15  2  0  0  0  0
 12 20  1  0  0  0  0
 14 19  1  0  0  0  0
 14 22  1  0  0  0  0
 17 23  1  0  0  0  0
 18 19  1  0  0  0  0
M  END
> <ID>
8083

> <Formula>
C17H20O6

> <FW>
320.3371

> <DSSTox_CID>
21070

> <DSSTox_RID>
79619

> <DSSTox_GSID>
41070

> <DSSTox_FileID_Sort>
4301

> <TS_ChemName>
Mycophenolic acid

> <TS_ChemName_Synonyms>


> <TS_CASRN>
24280-93-1

> <CASRN_ChemName_Relationship>
primary

> <TS_Description>
single chemical compound

> <ChemNote>


> <STRUCTURE_Shown>
tested chemical

> <STRUCTURE_Formula>
C17H20O6

> <STRUCTURE_MW>
320.3371

> <STRUCTURE_ChemType>
defined organic

> <STRUCTURE_DefinedOrganicForm>
parent

> <STRUCTURE_IUPAC>
(4E)-6-(4-hydroxy-6-methoxy-7-methyl-3-oxo-1,3-dihydro-2-benzofuran-5-yl)-4-methylhex-4-enoic acid

> <STRUCTURE_SMILES>
O=C(O)CCC(\C)=C\Cc1c(O)c2C(=O)OCc2c(C)c1OC

> <STRUCTURE_SMILES_Desalt>
O=C(O)CCC(\C)=C\Cc1c(O)c2C(=O)OCc2c(C)c1OC

> <Substance_modify_yyyymmdd>
20080429

$$$$
