24295-03-2
ChemmineR-0915142007XD

  8  8  0  0  0  0  0  0  0  0  1 V2000
    2.2427   -2.7671    0.0000 N   0  0  0  0  0  0  0  0  0  0  0  0
    0.0807   -2.7671    0.0000 S   0  0  0  0  0  0  0  0  0  0  0  0
    1.1536   -2.0007    0.0000 C   0  0  0  0  0  0  0  0  0  0  0  0
    1.8232   -4.0337    0.0000 C   0  0  0  0  0  0  0  0  0  0  0  0
    0.4961   -4.0337    0.0000 C   0  0  0  0  0  0  0  0  0  0  0  0
    1.1536   -0.6736    0.0000 C   0  0  0  0  0  0  0  0  0  0  0  0
    2.3032    0.0000    0.0000 O   0  0  0  0  0  0  0  0  0  0  0  0
    0.0000    0.0000    0.0000 C   0  0  0  0  0  0  0  0  0  0  0  0
  1  3  2  0  0  0  0
  1  4  1  0  0  0  0
  2  3  1  0  0  0  0
  2  5  1  0  0  0  0
  3  6  1  0  0  0  0
  4  5  2  0  0  0  0
  6  7  2  0  0  0  0
  6  8  1  0  0  0  0
M  END
> <ID>
6261

> <Formula>
C5H5NOS

> <FW>
127.1643

> <DSSTox_CID>
10162

> <DSSTox_RID>
78838

> <DSSTox_GSID>
30162

> <DSSTox_FileID_Sort>
3520

> <TS_ChemName>
2-Acetylthiazole

> <TS_ChemName_Synonyms>


> <TS_CASRN>
24295-03-2

> <CASRN_ChemName_Relationship>
primary

> <TS_Description>
single chemical compound

> <ChemNote>


> <STRUCTURE_Shown>
tested chemical

> <STRUCTURE_Formula>
C5H5NOS

> <STRUCTURE_MW>
127.1643

> <STRUCTURE_ChemType>
defined organic

> <STRUCTURE_DefinedOrganicForm>
parent

> <STRUCTURE_IUPAC>
1-(1,3-thiazol-2-yl)ethanone

> <STRUCTURE_SMILES>
CC(=O)c1nccs1

> <STRUCTURE_SMILES_Desalt>
CC(=O)c1nccs1

> <Substance_modify_yyyymmdd>
20080429

$$$$
