24305-27-9
ChemmineR-0915142007XD

 26 28  0  0  1  0  0  0  0  0  1 V2000
    8.7496   -2.7775    0.0000 N   0  0  0  0  0  0  0  0  0  0  0  0
    7.4322   -2.7775    0.0000 C   0  0  0  0  0  0  0  0  0  0  0  0
    6.7735   -3.9082    0.0000 C   0  0  0  0  0  0  0  0  0  0  0  0
    4.7645   -2.7665    0.0000 C   0  0  0  0  0  0  0  0  0  0  0  0
    2.3493   -1.9651    0.0000 N   0  0  0  0  0  0  0  0  0  0  0  0
    5.4561   -3.9082    0.0000 N   0  0  0  0  0  0  0  0  0  0  0  0
    9.8364   -1.9870    0.0000 C   0  0  0  0  0  0  0  0  0  0  0  0
    9.8364   -0.6587    0.0000 C   0  0  0  0  0  0  0  0  0  0  0  0
    6.0929   -8.2665    0.0000 N   0  0  0  0  0  0  0  0  0  0  0  0
    3.4362   -2.7445    0.0000 C   0  0  0  0  0  0  0  0  0  0  0  0
    1.2625   -2.7445    0.0000 C   0  0  0  0  0  0  0  0  0  0  0  0
    7.4322   -5.0719    0.0000 C   0  0  0  0  0  0  0  0  0  0  0  0
    6.7735   -6.2246    0.0000 C   0  0  0  0  0  0  0  0  0  0  0  0
    5.4561   -6.2246    0.0000 N   0  0  0  0  0  0  0  0  0  0  0  0
    5.0280   -7.4651    0.0000 C   0  0  0  0  0  0  0  0  0  0  0  0
    7.1907   -7.4651    0.0000 C   0  0  0  0  0  0  0  0  0  0  0  0
    6.7735   -1.6028    0.0000 O   0  0  0  0  0  0  0  0  0  0  0  0
    5.4561   -1.6028    0.0000 O   0  0  0  0  0  0  0  0  0  0  0  0
   10.9781    0.0000    0.0000 O   0  0  0  0  0  0  0  0  0  0  0  0
    0.0000   -2.3383    0.0000 O   0  0  0  0  0  0  0  0  0  0  0  0
    3.0190   -4.0180    0.0000 C   0  0  0  0  0  0  0  0  0  0  0  0
    8.6727    0.0000    0.0000 N   0  0  0  0  0  0  0  0  0  0  0  0
    9.1558   -4.0290    0.0000 C   0  0  0  0  0  0  0  0  0  0  0  0
    1.6906   -4.0180    0.0000 C   0  0  0  0  0  0  0  0  0  0  0  0
   10.9013   -2.7775    0.0000 C   0  0  0  0  0  0  0  0  0  0  0  0
   10.4951   -4.0290    0.0000 C   0  0  0  0  0  0  0  0  0  0  0  0
  1  2  1  0  0  0  0
  1  7  1  0  0  0  0
  1 23  1  0  0  0  0
  2  3  1  0  0  0  0
  2 17  2  0  0  0  0
  3  6  1  6  0  0  0
  3 12  1  0  0  0  0
  4  6  1  0  0  0  0
 10  4  1  6  0  0  0
  4 18  2  0  0  0  0
  5 10  1  0  0  0  0
  5 11  1  0  0  0  0
  7  8  1  6  0  0  0
  7 25  1  0  0  0  0
  8 19  2  0  0  0  0
  8 22  1  0  0  0  0
  9 16  1  0  0  0  0
  9 15  2  0  0  0  0
 10 21  1  0  0  0  0
 11 20  2  0  0  0  0
 11 24  1  0  0  0  0
 12 13  1  0  0  0  0
 13 14  1  0  0  0  0
 13 16  2  0  0  0  0
 14 15  1  0  0  0  0
 21 24  1  0  0  0  0
 23 26  1  0  0  0  0
 25 26  1  0  0  0  0
M  END
> <ID>
3162

> <Formula>
C16H22N6O4

> <FW>
362.3837

> <DSSTox_CID>
3533

> <DSSTox_RID>
77067

> <DSSTox_GSID>
23533

> <DSSTox_FileID_Sort>
1750

> <TS_ChemName>
Protirelin

> <TS_ChemName_Synonyms>


> <TS_CASRN>
24305-27-9

> <CASRN_ChemName_Relationship>
primary

> <TS_Description>
single chemical compound

> <ChemNote>
stereochem; tautomers

> <STRUCTURE_Shown>
tested chemical

> <STRUCTURE_Formula>
C16H22N6O4

> <STRUCTURE_MW>
362.3837

> <STRUCTURE_ChemType>
defined organic

> <STRUCTURE_DefinedOrganicForm>
parent

> <STRUCTURE_IUPAC>
5-oxo-L-prolyl-L-histidyl-L-prolinamide

> <STRUCTURE_SMILES>
O=C(N)[C@@H]3CCCN3C(=O)[C@H](Cc1cncn1)NC(=O)[C@@H]2CCC(=O)N2

> <STRUCTURE_SMILES_Desalt>
O=C(N)[C@@H]3CCCN3C(=O)[C@H](Cc1cncn1)NC(=O)[C@@H]2CCC(=O)N2

> <Substance_modify_yyyymmdd>
20080429

$$$$
