24307-26-4
ChemmineR-0915142007XD

  9  8  0  0  0  0  0  0  0  0  2 V2000
    1.1901   -2.5417    0.0000 N    0  3  0  0  0  0  0  0  0  0  0  0
    2.4313   -3.4165    0.0000 C    0  0  0  0  0  0  0  0  0  0  0  0
    0.0000   -3.4047    0.0000 C    0  0  0  0  0  0  0  0  0  0  0  0
    0.0867   -1.9112    0.0000 C    0  0  0  0  0  0  0  0  0  0  0  0
    2.2974   -1.9112    0.0000 C    0  0  0  0  0  0  0  0  0  0  0  0
    2.2974   -0.6305    0.0000 C    0  0  0  0  0  0  0  0  0  0  0  0
    0.0867   -0.6305    0.0000 C    0  0  0  0  0  0  0  0  0  0  0  0
    1.1901    0.0000    0.0000 C    0  0  0  0  0  0  0  0  0  0  0  0
    1.2413   -3.9406    0.0000 Cl   0  5  0  0  0  0  0  0  0  0  0  0
  1  2  1  0  0  0  0
  1  3  1  0  0  0  0
  1  4  1  0  0  0  0
  1  5  1  0  0  0  0
  4  7  1  0  0  0  0
  5  6  1  0  0  0  0
  6  8  1  0  0  0  0
  7  8  1  0  0  0  0
M  END
> <ID>
3542

> <Formula>
C7H16ClN

> <FW>
149.6616 (114.2081+35.4535)

> <DSSTox_CID>
4170

> <DSSTox_RID>
77314

> <DSSTox_GSID>
24170

> <DSSTox_FileID_Sort>
1997

> <TS_ChemName>
Mepiquat chloride

> <TS_ChemName_Synonyms>


> <TS_CASRN>
24307-26-4

> <CASRN_ChemName_Relationship>
primary

> <TS_Description>
single chemical compound

> <ChemNote>
ammonium; parent [15302-91-7]

> <STRUCTURE_Shown>
tested chemical

> <STRUCTURE_Formula>
C7H16ClN

> <STRUCTURE_MW>
149.6616

> <STRUCTURE_ChemType>
defined organic

> <STRUCTURE_DefinedOrganicForm>
salt

> <STRUCTURE_IUPAC>
1,1-dimethylpiperidinium chloride

> <STRUCTURE_SMILES>
[Cl-].C[N+]1(C)CCCCC1

> <STRUCTURE_SMILES_Desalt>
C[N+]1(C)CCCCC1

> <Substance_modify_yyyymmdd>
20080429

$$$$
