243120-89-0
ChemmineR-0915142007XD

 90 95  0  0  1  0  0  0  0  0  1 V2000
    3.4074   -9.9699    0.0000 C   0  0  0  0  0  0  0  0  0  0  0  0
    3.4074  -11.3581    0.0000 C   0  0  0  0  0  0  0  0  0  0  0  0
    4.5432  -11.9891    0.0000 C   0  0  0  0  0  0  0  0  0  0  0  0
    5.6790  -11.3581    0.0000 C   0  0  0  0  0  0  0  0  0  0  0  0
    5.6790   -9.9699    0.0000 C   0  0  0  0  0  0  0  0  0  0  0  0
    4.5432   -9.3389    0.0000 C   0  0  0  0  0  0  0  0  0  0  0  0
    9.0865   -9.3389    0.0000 C   0  0  0  0  0  0  0  0  0  0  0  0
    9.0865   -7.9506    0.0000 C   0  0  0  0  0  0  0  0  0  0  0  0
    7.9506   -7.3196    0.0000 C   0  0  0  0  0  0  0  0  0  0  0  0
    6.8148   -7.9506    0.0000 C   0  0  0  0  0  0  0  0  0  0  0  0
    6.8148   -9.3389    0.0000 C   0  0  0  0  0  0  0  0  0  0  0  0
    7.9506   -9.9699    0.0000 C   0  0  0  0  0  0  0  0  0  0  0  0
    1.1358   -9.9699    0.0000 C   0  0  0  0  0  0  0  0  0  0  0  0
    0.0000   -9.3389    0.0000 O   0  0  0  0  0  0  0  0  0  0  0  0
    1.1358  -11.3581    0.0000 O   0  0  0  0  0  0  0  0  0  0  0  0
    2.2716   -9.3389    0.0000 C   0  0  0  0  0  0  0  0  0  0  0  0
    5.6790   -7.3196    0.0000 O   0  0  0  0  0  0  0  0  0  0  0  0
    5.6790   -6.0576    0.0000 C   0  0  0  0  0  0  0  0  0  0  0  0
    4.5432   -5.3004    0.0000 C   0  0  0  0  0  0  0  0  0  0  0  0
    3.4074   -6.0576    0.0000 O   0  0  0  0  0  0  0  0  0  0  0  0
    4.5432   -4.0384    0.0000 C   0  0  0  0  0  0  0  0  0  0  0  0
    3.4074   -3.4074    0.0000 O   0  0  0  0  0  0  0  0  0  0  0  0
    5.6790   -3.4074    0.0000 C   0  0  0  0  0  0  0  0  0  0  0  0
    5.6790   -2.0192    0.0000 O   0  0  0  0  0  0  0  0  0  0  0  0
    6.8148   -4.0384    0.0000 C   0  0  0  0  0  0  0  0  0  0  0  0
    6.8148   -5.3004    0.0000 O   0  0  0  0  0  0  0  0  0  0  0  0
    7.9506   -3.2812    0.0000 C   0  0  0  0  0  0  0  0  0  0  0  0
    7.9506   -2.0192    0.0000 O   0  0  0  0  0  0  0  0  0  0  0  0
    2.2716   -5.4266    0.0000 C   0  0  0  0  0  0  0  0  0  0  0  0
    1.1358   -6.0576    0.0000 O   0  0  0  0  0  0  0  0  0  0  0  0
    2.2716   -4.0384    0.0000 C   0  0  0  0  0  0  0  0  0  0  0  0
    3.4074   -2.0192    0.0000 C   0  0  0  0  0  0  0  0  0  0  0  0
    2.2716   -1.3882    0.0000 O   0  0  0  0  0  0  0  0  0  0  0  0
    4.5432   -1.3882    0.0000 C   0  0  0  0  0  0  0  0  0  0  0  0
    6.8148   -1.3882    0.0000 C   0  0  0  0  0  0  0  0  0  0  0  0
    6.8148    0.0000    0.0000 O   0  0  0  0  0  0  0  0  0  0  0  0
    8.2030   -2.2716    0.0000 C   0  0  0  0  0  0  0  0  0  0  0  0
    9.0865   -1.2620    0.0000 C   0  0  0  0  0  0  0  0  0  0  0  0
    8.9603    0.0000    0.0000 O   0  0  0  0  0  0  0  0  0  0  0  0
   10.2223   -2.0192    0.0000 C   0  0  0  0  0  0  0  0  0  0  0  0
   19.4349  -15.2703    0.0000 C   0  0  0  0  0  0  0  0  0  0  0  0
   19.4349  -13.8821    0.0000 C   0  0  0  0  0  0  0  0  0  0  0  0
   18.2991  -13.2511    0.0000 C   0  0  0  0  0  0  0  0  0  0  0  0
   17.1633  -13.8821    0.0000 C   0  0  0  0  0  0  0  0  0  0  0  0
   17.1633  -15.2703    0.0000 C   0  0  0  0  0  0  0  0  0  0  0  0
   18.2991  -15.9013    0.0000 C   0  0  0  0  0  0  0  0  0  0  0  0
   13.7559  -15.9013    0.0000 C   0  0  0  0  0  0  0  0  0  0  0  0
   13.7559  -17.2895    0.0000 C   0  0  0  0  0  0  0  0  0  0  0  0
   14.8917  -17.9205    0.0000 C   0  0  0  0  0  0  0  0  0  0  0  0
   16.0275  -17.2895    0.0000 C   0  0  0  0  0  0  0  0  0  0  0  0
   16.0275  -15.9013    0.0000 C   0  0  0  0  0  0  0  0  0  0  0  0
   14.8917  -15.2703    0.0000 C   0  0  0  0  0  0  0  0  0  0  0  0
   21.7065  -15.2703    0.0000 C   0  0  0  0  0  0  0  0  0  0  0  0
   22.8423  -15.9013    0.0000 O   0  0  0  0  0  0  0  0  0  0  0  0
   21.7065  -13.8821    0.0000 O   0  0  0  0  0  0  0  0  0  0  0  0
   20.5707  -15.9013    0.0000 C   0  0  0  0  0  0  0  0  0  0  0  0
   17.1633  -17.9205    0.0000 O   0  0  0  0  0  0  0  0  0  0  0  0
   17.1633  -19.1825    0.0000 C   0  0  0  0  0  0  0  0  0  0  0  0
   18.2991  -19.9397    0.0000 C   0  0  0  0  0  0  0  0  0  0  0  0
   19.5611  -19.1825    0.0000 O   0  0  0  0  0  0  0  0  0  0  0  0
   18.4253  -21.2017    0.0000 C   0  0  0  0  0  0  0  0  0  0  0  0
   19.5611  -21.8327    0.0000 O   0  0  0  0  0  0  0  0  0  0  0  0
   17.2895  -21.8327    0.0000 C   0  0  0  0  0  0  0  0  0  0  0  0
   17.2895  -23.2209    0.0000 O   0  0  0  0  0  0  0  0  0  0  0  0
   16.0275  -21.2017    0.0000 C   0  0  0  0  0  0  0  0  0  0  0  0
   16.0275  -19.9397    0.0000 O   0  0  0  0  0  0  0  0  0  0  0  0
   14.8917  -21.9589    0.0000 C   0  0  0  0  0  0  0  0  0  0  0  0
   15.0179  -23.2209    0.0000 O   0  0  0  0  0  0  0  0  0  0  0  0
   20.6969  -19.8135    0.0000 C   0  0  0  0  0  0  0  0  0  0  0  0
   21.8327  -19.1825    0.0000 O   0  0  0  0  0  0  0  0  0  0  0  0
   20.6969  -21.2017    0.0000 C   0  0  0  0  0  0  0  0  0  0  0  0
   19.5611  -23.2209    0.0000 C   0  0  0  0  0  0  0  0  0  0  0  0
   20.6969  -23.8519    0.0000 O   0  0  0  0  0  0  0  0  0  0  0  0
   18.4253  -23.8519    0.0000 C   0  0  0  0  0  0  0  0  0  0  0  0
   16.1537  -23.8519    0.0000 C   0  0  0  0  0  0  0  0  0  0  0  0
   16.1537  -25.2402    0.0000 O   0  0  0  0  0  0  0  0  0  0  0  0
   15.1441  -23.4733    0.0000 C   0  0  0  0  0  0  0  0  0  0  0  0
   13.8821  -23.9781    0.0000 C   0  0  0  0  0  0  0  0  0  0  0  0
   13.8821  -25.2402    0.0000 O   0  0  0  0  0  0  0  0  0  0  0  0
   12.6201  -23.2209    0.0000 C   0  0  0  0  0  0  0  0  0  0  0  0
   12.6201  -15.2703    0.0000 C   0  0  0  0  0  0  0  0  0  0  0  0
   12.6201  -13.8821    0.0000 C   0  0  0  0  0  0  0  0  0  0  0  0
   11.4843  -13.2511    0.0000 C   0  0  0  0  0  0  0  0  0  0  0  0
   11.4843  -11.9891    0.0000 C   0  0  0  0  0  0  0  0  0  0  0  0
   10.3485  -11.3581    0.0000 C   0  0  0  0  0  0  0  0  0  0  0  0
   10.3485   -9.9699    0.0000 C   0  0  0  0  0  0  0  0  0  0  0  0
   22.8423  -13.2511    0.0000 C   0  0  0  0  0  0  0  0  0  0  0  0
   22.8423  -11.8629    0.0000 C   0  0  0  0  0  0  0  0  0  0  0  0
    0.0000  -11.9891    0.0000 C   0  0  0  0  0  0  0  0  0  0  0  0
    0.0000  -13.3773    0.0000 C   0  0  0  0  0  0  0  0  0  0  0  0
  1  6  2  0  0  0  0
  1  2  1  0  0  0  0
  1 16  1  0  0  0  0
  2  3  2  0  0  0  0
  3  4  1  0  0  0  0
  4  5  2  0  0  0  0
  5  6  1  0  0  0  0
  5 11  1  0  0  0  0
  7 12  2  0  0  0  0
  7  8  1  0  0  0  0
  7 86  1  0  0  0  0
  8  9  2  0  0  0  0
  9 10  1  0  0  0  0
 10 11  2  0  0  0  0
 10 17  1  0  0  0  0
 11 12  1  0  0  0  0
 13 14  2  0  0  0  0
 13 15  1  0  0  0  0
 13 16  1  0  0  0  0
 15 89  1  0  0  0  0
 18 17  1  6  0  0  0
 18 19  1  0  0  0  0
 18 26  1  0  0  0  0
 19 20  1  1  0  0  0
 19 21  1  0  0  0  0
 20 29  1  0  0  0  0
 21 22  1  1  0  0  0
 21 23  1  0  0  0  0
 22 32  1  0  0  0  0
 23 24  1  6  0  0  0
 23 25  1  0  0  0  0
 24 35  1  0  0  0  0
 25 26  1  0  0  0  0
 25 27  1  1  0  0  0
 27 28  1  0  0  0  0
 28 38  1  0  0  0  0
 29 30  2  0  0  0  0
 29 31  1  0  0  0  0
 32 33  2  0  0  0  0
 32 34  1  0  0  0  0
 35 36  2  0  0  0  0
 35 37  1  0  0  0  0
 38 39  2  0  0  0  0
 38 40  1  0  0  0  0
 41 46  2  0  0  0  0
 41 42  1  0  0  0  0
 41 56  1  0  0  0  0
 42 43  2  0  0  0  0
 43 44  1  0  0  0  0
 44 45  2  0  0  0  0
 45 46  1  0  0  0  0
 45 51  1  0  0  0  0
 47 52  2  0  0  0  0
 47 48  1  0  0  0  0
 47 81  1  0  0  0  0
 48 49  2  0  0  0  0
 49 50  1  0  0  0  0
 50 51  2  0  0  0  0
 50 57  1  0  0  0  0
 51 52  1  0  0  0  0
 53 54  2  0  0  0  0
 53 55  1  0  0  0  0
 53 56  1  0  0  0  0
 55 87  1  0  0  0  0
 58 57  1  6  0  0  0
 58 59  1  0  0  0  0
 58 66  1  0  0  0  0
 59 60  1  1  0  0  0
 59 61  1  0  0  0  0
 60 69  1  0  0  0  0
 61 62  1  1  0  0  0
 61 63  1  0  0  0  0
 62 72  1  0  0  0  0
 63 64  1  6  0  0  0
 63 65  1  0  0  0  0
 64 75  1  0  0  0  0
 65 66  1  0  0  0  0
 65 67  1  1  0  0  0
 67 68  1  0  0  0  0
 68 78  1  0  0  0  0
 69 70  2  0  0  0  0
 69 71  1  0  0  0  0
 72 73  2  0  0  0  0
 72 74  1  0  0  0  0
 75 76  2  0  0  0  0
 75 77  1  0  0  0  0
 78 79  2  0  0  0  0
 78 80  1  0  0  0  0
 81 82  1  0  0  0  0
 82 83  1  0  0  0  0
 83 84  1  0  0  0  0
 84 85  1  0  0  0  0
 85 86  1  0  0  0  0
 87 88  1  0  0  0  0
 89 90  1  0  0  0  0
M  END
> <ID>
13773

> <Formula>
C66H78O24

> <FW>
1255.3111

> <DSSTox_CID>
28710

> <DSSTox_RID>
82979

> <DSSTox_GSID>
48784

> <DSSTox_FileID_Sort>
7656

> <TS_ChemName>
[1,1'-Biphenyl]-3-acetic acid, 3',3'''-(1,6-hexanediyl)bis[6'-[(2,3,4,6-tetra-O-acetyl-alpha-D-mannopyranosyl)oxy]-, diethyl ester

> <TS_ChemName_Synonyms>
[1,1'-Biphenyl]-3-acetic acid, 3',3'''-(1,6-hexanediyl)bis[6'-[(2,3,4,6-tetra-O-acetyl-?-D-mannopyranosyl)oxy]-, diethyl ester

> <TS_CASRN>
243120-89-0

> <CASRN_ChemName_Relationship>
primary

> <TS_Description>
single chemical compound

> <ChemNote>
stereochem

> <STRUCTURE_Shown>
tested chemical

> <STRUCTURE_Formula>
C66H78O24

> <STRUCTURE_MW>
1255.3111

> <STRUCTURE_ChemType>
defined organic

> <STRUCTURE_DefinedOrganicForm>
parent

> <STRUCTURE_IUPAC>
diethyl 2,2'-(hexane-1,6-diylbis{6'-[(2,3,4,6-tetra-O-acetyl-alpha-D-mannopyranosyl)oxy]biphenyl-3',3-diyl})diacetate

> <STRUCTURE_SMILES>
CC(=O)O[C@H]6[C@@H](OC(C)=O)[C@H](OC(C)=O)[C@@H](COC(C)=O)O[C@@H]6Oc2ccc(cc2c1cccc(CC(=O)OCC)c1)CCCCCCc4ccc(O[C@H]3O[C@H](COC(C)=O)[C@@H](OC(C)=O)[C@H](OC(C)=O)[C@@H]3OC(C)=O)c(c4)c5cccc(CC(=O)OCC)c5

> <STRUCTURE_SMILES_Desalt>
CC(=O)O[C@H]6[C@@H](OC(C)=O)[C@H](OC(C)=O)[C@@H](COC(C)=O)O[C@@H]6Oc2ccc(cc2c1cccc(CC(=O)OCC)c1)CCCCCCc4ccc(O[C@H]3O[C@H](COC(C)=O)[C@@H](OC(C)=O)[C@H](OC(C)=O)[C@@H]3OC(C)=O)c(c4)c5cccc(CC(=O)OCC)c5

> <Substance_modify_yyyymmdd>
20111204

$$$$
