2432-87-3
ChemmineR-0915142007XD

 30 29  0  0  0  0  0  0  0  0  1 V2000
   10.5285   -2.0174    0.0000 C   0  0  0  0  0  0  0  0  0  0  0  0
   20.9939   -1.3870    0.0000 C   0  0  0  0  0  0  0  0  0  0  0  0
   10.5285   -3.3729    0.0000 O   0  0  0  0  0  0  0  0  0  0  0  0
   20.9939    0.0000    0.0000 O   0  0  0  0  0  0  0  0  0  0  0  0
    9.3621   -1.3870    0.0000 O   0  0  0  0  0  0  0  0  0  0  0  0
   22.1602   -2.0174    0.0000 O   0  0  0  0  0  0  0  0  0  0  0  0
   19.8591   -2.0174    0.0000 C   0  0  0  0  0  0  0  0  0  0  0  0
   11.6633   -1.3870    0.0000 C   0  0  0  0  0  0  0  0  0  0  0  0
   12.8296   -2.0174    0.0000 C   0  0  0  0  0  0  0  0  0  0  0  0
   18.5982   -1.3870    0.0000 C   0  0  0  0  0  0  0  0  0  0  0  0
   15.1307   -2.0174    0.0000 C   0  0  0  0  0  0  0  0  0  0  0  0
   16.2971   -1.3870    0.0000 C   0  0  0  0  0  0  0  0  0  0  0  0
   17.4319   -2.0174    0.0000 C   0  0  0  0  0  0  0  0  0  0  0  0
   13.9644   -1.3870    0.0000 C   0  0  0  0  0  0  0  0  0  0  0  0
    8.1012   -2.0174    0.0000 C   0  0  0  0  0  0  0  0  0  0  0  0
    6.9349   -1.3870    0.0000 C   0  0  0  0  0  0  0  0  0  0  0  0
    5.8001   -2.0174    0.0000 C   0  0  0  0  0  0  0  0  0  0  0  0
    4.6338   -1.3870    0.0000 C   0  0  0  0  0  0  0  0  0  0  0  0
    3.4675   -2.0174    0.0000 C   0  0  0  0  0  0  0  0  0  0  0  0
    2.3011   -1.3870    0.0000 C   0  0  0  0  0  0  0  0  0  0  0  0
    1.1663   -2.0174    0.0000 C   0  0  0  0  0  0  0  0  0  0  0  0
    0.0000   -1.3870    0.0000 C   0  0  0  0  0  0  0  0  0  0  0  0
   23.3265   -1.3870    0.0000 C   0  0  0  0  0  0  0  0  0  0  0  0
   24.4929   -2.0174    0.0000 C   0  0  0  0  0  0  0  0  0  0  0  0
   25.6277   -1.3870    0.0000 C   0  0  0  0  0  0  0  0  0  0  0  0
   26.7940   -2.0174    0.0000 C   0  0  0  0  0  0  0  0  0  0  0  0
   27.9288   -1.3870    0.0000 C   0  0  0  0  0  0  0  0  0  0  0  0
   29.0951   -2.0174    0.0000 C   0  0  0  0  0  0  0  0  0  0  0  0
   30.2615   -1.3870    0.0000 C   0  0  0  0  0  0  0  0  0  0  0  0
   31.5224   -2.0174    0.0000 C   0  0  0  0  0  0  0  0  0  0  0  0
  1  3  2  0  0  0  0
  1  5  1  0  0  0  0
  1  8  1  0  0  0  0
  2  7  1  0  0  0  0
  2  4  2  0  0  0  0
  2  6  1  0  0  0  0
  5 15  1  0  0  0  0
  6 23  1  0  0  0  0
  7 10  1  0  0  0  0
  8  9  1  0  0  0  0
  9 14  1  0  0  0  0
 10 13  1  0  0  0  0
 11 14  1  0  0  0  0
 11 12  1  0  0  0  0
 12 13  1  0  0  0  0
 15 16  1  0  0  0  0
 16 17  1  0  0  0  0
 17 18  1  0  0  0  0
 18 19  1  0  0  0  0
 19 20  1  0  0  0  0
 20 21  1  0  0  0  0
 21 22  1  0  0  0  0
 23 24  1  0  0  0  0
 24 25  1  0  0  0  0
 25 26  1  0  0  0  0
 26 27  1  0  0  0  0
 27 28  1  0  0  0  0
 28 29  1  0  0  0  0
 29 30  1  0  0  0  0
M  END
> <ID>
12661

> <Formula>
C26H50O4

> <FW>
426.6728

> <DSSTox_CID>
27537

> <DSSTox_RID>
82403

> <DSSTox_GSID>
47537

> <DSSTox_FileID_Sort>
7084

> <TS_ChemName>
Dioctyl succinate

> <TS_ChemName_Synonyms>
SEBACIC ACID DI-N-OCTYL ESTER

> <TS_CASRN>
2432-87-3

> <CASRN_ChemName_Relationship>
primary

> <TS_Description>
single chemical compound

> <ChemNote>


> <STRUCTURE_Shown>
tested chemical

> <STRUCTURE_Formula>
C26H50O4

> <STRUCTURE_MW>
426.6728

> <STRUCTURE_ChemType>
defined organic

> <STRUCTURE_DefinedOrganicForm>
parent

> <STRUCTURE_IUPAC>
dioctyl decanedioate

> <STRUCTURE_SMILES>
CCCCCCCCOC(=O)CCCCCCCCC(=O)OCCCCCCCC

> <STRUCTURE_SMILES_Desalt>
CCCCCCCCOC(=O)CCCCCCCCC(=O)OCCCCCCCC

> <Substance_modify_yyyymmdd>
20100921

$$$$
