24346-00-7
ChemmineR-0915142007XD

 28 29  0  0  1  0  0  0  0  0  2 V2000
    5.7823   -3.7626    0.0000 Cl   0  5  0  0  0  0  0  0  0  0  0  0
   13.8332   -2.0058    0.0000 N    0  0  0  0  0  0  0  0  0  0  0  0
   13.8332   -3.3200    0.0000 C    0  0  0  0  0  0  0  0  0  0  0  0
   12.6851   -1.3280    0.0000 C    0  0  0  0  0  0  0  0  0  0  0  0
   12.6851   -3.9840    0.0000 N    0  0  0  0  0  0  0  0  0  0  0  0
   11.5369   -2.0058    0.0000 C    0  0  0  0  0  0  0  0  0  0  0  0
   11.5369   -3.3200    0.0000 C    0  0  0  0  0  0  0  0  0  0  0  0
   10.2642   -1.5908    0.0000 N    0  0  0  0  0  0  0  0  0  0  0  0
    9.4896   -2.6560    0.0000 C    0  0  0  0  0  0  0  0  0  0  0  0
   10.2642   -3.7211    0.0000 N    0  0  0  0  0  0  0  0  0  0  0  0
   12.6851    0.0000    0.0000 N    0  0  0  0  0  0  0  0  0  0  0  0
    8.1478   -5.2843    0.0000 C    0  0  0  0  0  0  0  0  0  0  0  0
    9.2129   -4.5096    0.0000 O    0  0  0  0  0  0  0  0  0  0  0  0
    8.5489   -6.5569    0.0000 C    0  0  0  0  0  0  0  0  0  0  0  0
   10.2919   -5.2843    0.0000 C    0  0  0  0  0  0  0  0  0  0  0  0
    9.8769   -6.5569    0.0000 C    0  0  0  0  0  0  0  0  0  0  0  0
    6.8889   -4.8693    0.0000 C    0  0  0  0  0  0  0  0  0  0  0  0
    7.7743   -7.6221    0.0000 O    0  0  0  0  0  0  0  0  0  0  0  0
   10.6516   -7.6221    0.0000 O    0  0  0  0  0  0  0  0  0  0  0  0
    5.7408   -5.5333    0.0000 S    0  3  0  0  0  0  0  0  0  0  0  0
    4.5788   -4.8555    0.0000 C    0  0  0  0  0  0  0  0  0  0  0  0
    3.4306   -5.5195    0.0000 C    0  0  0  0  0  0  0  0  0  0  0  0
    2.2825   -4.8555    0.0000 C    0  0  0  0  0  0  0  0  0  0  0  0
    1.1343   -5.5195    0.0000 C    0  0  0  0  0  0  0  0  0  0  0  0
    0.0000   -4.8416    0.0000 O    0  0  0  0  0  0  0  0  0  0  0  0
    5.7131   -6.7368    0.0000 C    0  0  0  0  0  0  0  0  0  0  0  0
    2.2963   -3.5275    0.0000 N    0  0  0  0  0  0  0  0  0  0  0  0
    1.1343   -6.8336    0.0000 O    0  0  0  0  0  0  0  0  0  0  0  0
  2  3  1  0  0  0  0
  2  4  2  0  0  0  0
  3  5  2  0  0  0  0
  4  6  1  0  0  0  0
  4 11  1  0  0  0  0
  5  7  1  0  0  0  0
  6  7  2  0  0  0  0
  6  8  1  0  0  0  0
  7 10  1  0  0  0  0
  8  9  2  0  0  0  0
  9 10  1  0  0  0  0
 15 10  1  1  0  0  0
 12 13  1  0  0  0  0
 12 14  1  0  0  0  0
 12 17  1  1  0  0  0
 13 15  1  0  0  0  0
 14 16  1  0  0  0  0
 14 18  1  6  0  0  0
 15 16  1  0  0  0  0
 16 19  1  6  0  0  0
 17 20  1  0  0  0  0
 20 21  1  0  0  0  0
 20 26  1  0  0  0  0
 21 22  1  0  0  0  0
 22 23  1  0  0  0  0
 23 24  1  0  0  0  0
 23 27  1  1  0  0  0
 24 25  1  0  0  0  0
 24 28  2  0  0  0  0
M  END
> <ID>
6379

> <Formula>
C15H23ClN6O5S

> <FW>
434.8983 (35.4535+399.4448)

> <DSSTox_CID>
12020

> <DSSTox_RID>
78901

> <DSSTox_GSID>
32020

> <DSSTox_FileID_Sort>
3583

> <TS_ChemName>
S-Adenosylmethionine chloride

> <TS_ChemName_Synonyms>


> <TS_CASRN>
24346-00-7

> <CASRN_ChemName_Relationship>
primary

> <TS_Description>
single chemical compound

> <ChemNote>
stereochem; sulfonium; parent [29908-03-0]

> <STRUCTURE_Shown>
tested chemical

> <STRUCTURE_Formula>
C15H23ClN6O5S

> <STRUCTURE_MW>
434.8983

> <STRUCTURE_ChemType>
defined organic

> <STRUCTURE_DefinedOrganicForm>
complex

> <STRUCTURE_IUPAC>
[(3S)-3-amino-3-carboxypropyl]{[(2S,3S,4R,5R)-5-(6-amino-9H-purin-9-yl)-3,4-dihydroxytetrahydrofuran-2-yl]methyl}methylsulfonium chloride

> <STRUCTURE_SMILES>
[Cl-].O=C(O)[C@@H](N)CC[S+](C)C[C@H]3O[C@@H](n2cnc1c(N)ncnc12)[C@H](O)[C@@H]3O

> <STRUCTURE_SMILES_Desalt>
O=C(O)[C@@H](N)CC[S+](C)C[C@H]3O[C@@H](n2cnc1c(N)ncnc12)[C@H](O)[C@@H]3O

> <Substance_modify_yyyymmdd>
20080429

$$$$
