24356-60-3
ChemmineR-0915142007XD

 31 32  0  0  1  0  0  0  0  0  2 V2000
   10.7859   -7.1299    0.0000 Na   0  3  0  0  0  0  0  0  0  0  0  0
    8.2548   -2.0182    0.0000 C    0  0  0  0  0  0  0  0  0  0  0  0
    9.5948   -3.3416    0.0000 N    0  0  0  0  0  0  0  0  0  0  0  0
    9.5948   -2.0182    0.0000 C    0  0  0  0  0  0  0  0  0  0  0  0
    8.2548   -3.3416    0.0000 C    0  0  0  0  0  0  0  0  0  0  0  0
   10.7528   -4.0199    0.0000 C    0  0  0  0  0  0  0  0  0  0  0  0
   11.8942   -3.3416    0.0000 C    0  0  0  0  0  0  0  0  0  0  0  0
   10.7528   -1.3565    0.0000 S    0  0  0  0  0  0  0  0  0  0  0  0
   11.8942   -2.0017    0.0000 C    0  0  0  0  0  0  0  0  0  0  0  0
    8.2548   -0.6948    0.0000 H    0  0  0  0  0  0  0  0  0  0  0  0
    9.5948   -0.6948    0.0000 H    0  0  0  0  0  0  0  0  0  0  0  0
    7.3284   -4.2846    0.0000 O    0  0  0  0  0  0  0  0  0  0  0  0
   13.0688   -4.0199    0.0000 C    0  0  0  0  0  0  0  0  0  0  0  0
   10.7528   -5.3433    0.0000 C    0  0  0  0  0  0  0  0  0  0  0  0
   11.8942   -6.0050    0.0000 O    0  0  0  0  0  0  0  0  0  0  0  0
    9.6113   -6.0050    0.0000 O    0  5  0  0  0  0  0  0  0  0  0  0
    6.9314   -1.9851    0.0000 N    0  0  0  0  0  0  0  0  0  0  0  0
    5.7734    0.0000    0.0000 O    0  0  0  0  0  0  0  0  0  0  0  0
    5.7734   -1.3400    0.0000 C    0  0  0  0  0  0  0  0  0  0  0  0
   14.2268   -3.3582    0.0000 O    0  0  0  0  0  0  0  0  0  0  0  0
   15.3848   -4.0199    0.0000 C    0  0  0  0  0  0  0  0  0  0  0  0
   16.5428   -3.3582    0.0000 C    0  0  0  0  0  0  0  0  0  0  0  0
   15.3848   -5.3433    0.0000 O    0  0  0  0  0  0  0  0  0  0  0  0
    4.6154   -1.9851    0.0000 C    0  0  0  0  0  0  0  0  0  0  0  0
    3.4574   -1.3400    0.0000 S    0  0  0  0  0  0  0  0  0  0  0  0
    2.3160   -1.9851    0.0000 C    0  0  0  0  0  0  0  0  0  0  0  0
    2.3160   -3.3251    0.0000 C    0  0  0  0  0  0  0  0  0  0  0  0
    1.1580   -1.3400    0.0000 C    0  0  0  0  0  0  0  0  0  0  0  0
    1.1580   -4.0033    0.0000 C    0  0  0  0  0  0  0  0  0  0  0  0
    0.0000   -1.9851    0.0000 C    0  0  0  0  0  0  0  0  0  0  0  0
    0.0000   -3.3251    0.0000 N    0  0  0  0  0  0  0  0  0  0  0  0
  2  4  1  0  0  0  0
  2  5  1  0  0  0  0
  2 10  1  6  0  0  0
  2 17  1  1  0  0  0
  3  5  1  0  0  0  0
  3  6  1  0  0  0  0
  3  4  1  0  0  0  0
  4  8  1  0  0  0  0
  4 11  1  6  0  0  0
  5 12  2  0  0  0  0
  6  7  2  0  0  0  0
  6 14  1  0  0  0  0
  7  9  1  0  0  0  0
  7 13  1  0  0  0  0
  8  9  1  0  0  0  0
 13 20  1  0  0  0  0
 14 15  2  0  0  0  0
 14 16  1  0  0  0  0
 17 19  1  0  0  0  0
 18 19  2  0  0  0  0
 19 24  1  0  0  0  0
 20 21  1  0  0  0  0
 21 22  1  0  0  0  0
 21 23  2  0  0  0  0
 24 25  1  0  0  0  0
 25 26  1  0  0  0  0
 26 27  1  0  0  0  0
 26 28  2  0  0  0  0
 27 29  2  0  0  0  0
 28 30  1  0  0  0  0
 29 31  1  0  0  0  0
 30 31  2  0  0  0  0
M  END
> <ID>
11039

> <Formula>
C17H16N3NaO6S2

> <FW>
445.4452 (22.9892+422.4560)

> <DSSTox_CID>
25574

> <DSSTox_RID>
80971

> <DSSTox_GSID>
45574

> <DSSTox_FileID_Sort>
5652

> <TS_ChemName>
Cephapirin sodium

> <TS_ChemName_Synonyms>


> <TS_CASRN>
24356-60-3

> <CASRN_ChemName_Relationship>
primary

> <TS_Description>
single chemical compound

> <ChemNote>
stereochem; parent [21593-23-7]

> <STRUCTURE_Shown>
tested chemical

> <STRUCTURE_Formula>
C17H16N3NaO6S2

> <STRUCTURE_MW>
445.4452

> <STRUCTURE_ChemType>
defined organic

> <STRUCTURE_DefinedOrganicForm>
salt

> <STRUCTURE_IUPAC>
sodium (6R,7R)-3-[(acetyloxy)methyl]-8-oxo-7-{[(pyridin-4-ylsulfanyl)acetyl]amino}-5-thia-1-azabicyclo[4.2.0]oct-2-ene-2-carboxylate

> <STRUCTURE_SMILES>
[Na+].[O-]C(=O)C=2N3C(=O)[C@@H](NC(=O)CSc1ccncc1)[C@H]3SCC=2COC(C)=O

> <STRUCTURE_SMILES_Desalt>
O=C(O)C=2N3C(=O)[C@@H](NC(=O)CSc1ccncc1)[C@H]3SCC=2COC(C)=O

> <Substance_modify_yyyymmdd>
20100107

$$$$
