24353-88-6
ChemmineR-0915142007XD

 18 18  0  0  0  0  0  0  0  0  1 V2000
    4.5868   -2.2934    0.0000 C   0  0  0  0  0  0  0  0  0  0  0  0
    5.7450   -1.6216    0.0000 C   0  0  0  0  0  0  0  0  0  0  0  0
    3.4517   -2.9536    0.0000 C   0  0  0  0  0  0  0  0  0  0  0  0
    3.9497   -1.1467    0.0000 C   0  0  0  0  0  0  0  0  0  0  0  0
    5.2586   -3.4517    0.0000 C   0  0  0  0  0  0  0  0  0  0  0  0
    6.9033   -2.2934    0.0000 O   0  0  0  0  0  0  0  0  0  0  0  0
    2.2934   -2.2934    0.0000 O   0  0  0  0  0  0  0  0  0  0  0  0
    2.6177   -1.1467    0.0000 C   0  0  0  0  0  0  0  0  0  0  0  0
    8.0384   -1.6216    0.0000 C   0  0  0  0  0  0  0  0  0  0  0  0
    1.1583   -2.9536    0.0000 C   0  0  0  0  0  0  0  0  0  0  0  0
    1.9459    0.0000    0.0000 C   0  0  0  0  0  0  0  0  0  0  0  0
    9.1967   -2.2934    0.0000 N   0  0  0  0  0  0  0  0  0  0  0  0
    8.0384   -0.3127    0.0000 O   0  0  0  0  0  0  0  0  0  0  0  0
    1.1583   -4.2856    0.0000 N   0  0  0  0  0  0  0  0  0  0  0  0
    0.0000   -2.2934    0.0000 O   0  0  0  0  0  0  0  0  0  0  0  0
   10.2391   -1.4247    0.0000 C   0  0  0  0  0  0  0  0  0  0  0  0
   10.9225   -0.2780    0.0000 C   0  0  0  0  0  0  0  0  0  0  0  0
   11.5827   -1.4247    0.0000 C   0  0  0  0  0  0  0  0  0  0  0  0
  1  2  1  0  0  0  0
  1  3  1  0  0  0  0
  1  4  1  0  0  0  0
  1  5  1  0  0  0  0
  2  6  1  0  0  0  0
  3  7  1  0  0  0  0
  4  8  1  0  0  0  0
  6  9  1  0  0  0  0
  7 10  1  0  0  0  0
  8 11  1  0  0  0  0
  9 12  1  0  0  0  0
  9 13  2  0  0  0  0
 10 14  1  0  0  0  0
 10 15  2  0  0  0  0
 12 16  1  0  0  0  0
 16 17  1  0  0  0  0
 16 18  1  0  0  0  0
 17 18  1  0  0  0  0
M  END
> <ID>
11540

> <Formula>
C12H22N2O4

> <FW>
258.3141

> <DSSTox_CID>
26246

> <DSSTox_RID>
81473

> <DSSTox_GSID>
46246

> <DSSTox_FileID_Sort>
6154

> <TS_ChemName>
Lorbamate

> <TS_ChemName_Synonyms>


> <TS_CASRN>
24353-88-6

> <CASRN_ChemName_Relationship>
primary

> <TS_Description>
single chemical compound

> <ChemNote>


> <STRUCTURE_Shown>
tested chemical

> <STRUCTURE_Formula>
C12H22N2O4

> <STRUCTURE_MW>
258.3141

> <STRUCTURE_ChemType>
defined organic

> <STRUCTURE_DefinedOrganicForm>
parent

> <STRUCTURE_IUPAC>
2-[(carbamoyloxy)methyl]-2-methylpentyl cyclopropylcarbamate

> <STRUCTURE_SMILES>
NC(=O)OCC(C)(COC(=O)NC1CC1)CCC

> <STRUCTURE_SMILES_Desalt>
NC(=O)OCC(C)(COC(=O)NC1CC1)CCC

> <Substance_modify_yyyymmdd>
20110817

$$$$
