2436-90-0
ChemmineR-0915142007XD

 10  9  0  0  0  0  0  0  0  0  1 V2000
    0.0000   -1.3192    0.0000 C   0  0  0  0  0  0  0  0  0  0  0  0
    1.1422   -1.9949    0.0000 C   0  0  0  0  0  0  0  0  0  0  0  0
    2.3006   -1.3192    0.0000 C   0  0  0  0  0  0  0  0  0  0  0  0
    3.4589   -1.9949    0.0000 C   0  0  0  0  0  0  0  0  0  0  0  0
    4.6173   -1.3192    0.0000 C   0  0  0  0  0  0  0  0  0  0  0  0
    5.7595   -1.9949    0.0000 C   0  0  0  0  0  0  0  0  0  0  0  0
    6.9017   -1.3192    0.0000 C   0  0  0  0  0  0  0  0  0  0  0  0
    8.0440   -1.9949    0.0000 C   0  0  0  0  0  0  0  0  0  0  0  0
    2.3006    0.0000    0.0000 C   0  0  0  0  0  0  0  0  0  0  0  0
    6.9017    0.0000    0.0000 C   0  0  0  0  0  0  0  0  0  0  0  0
  1  2  2  0  0  0  0
  2  3  1  0  0  0  0
  3  4  1  0  0  0  0
  3  9  1  0  0  0  0
  4  5  1  0  0  0  0
  5  6  1  0  0  0  0
  6  7  2  0  0  0  0
  7  8  1  0  0  0  0
  7 10  1  0  0  0  0
M  END
> <ID>
5877

> <Formula>
C10H18

> <FW>
138.2499

> <DSSTox_CID>
9234

> <DSSTox_RID>
78722

> <DSSTox_GSID>
29234

> <DSSTox_FileID_Sort>
3404

> <TS_ChemName>
3,7-Dimethylocta-1,6-diene

> <TS_ChemName_Synonyms>
3,7-Dimethyl-1,6-octadiene

> <TS_CASRN>
2436-90-0

> <CASRN_ChemName_Relationship>
primary

> <TS_Description>
single chemical compound

> <ChemNote>


> <STRUCTURE_Shown>
tested chemical

> <STRUCTURE_Formula>
C10H18

> <STRUCTURE_MW>
138.2499

> <STRUCTURE_ChemType>
defined organic

> <STRUCTURE_DefinedOrganicForm>
parent

> <STRUCTURE_IUPAC>
3,7-dimethylocta-1,6-diene

> <STRUCTURE_SMILES>
C=CC(C)CC\C=C(\C)C

> <STRUCTURE_SMILES_Desalt>
C=CC(C)CC\C=C(\C)C

> <Substance_modify_yyyymmdd>
20080429

$$$$
