2437-56-1
ChemmineR-0915142007XD

 13 12  0  0  0  0  0  0  0  0  1 V2000
    0.0000    0.0000    0.0000 C   0  0  0  0  0  0  0  0  0  0  0  0
    1.1737   -0.6427    0.0000 C   0  0  0  0  0  0  0  0  0  0  0  0
    2.3334    0.0000    0.0000 C   0  0  0  0  0  0  0  0  0  0  0  0
    3.5071   -0.6427    0.0000 C   0  0  0  0  0  0  0  0  0  0  0  0
    4.6528    0.0000    0.0000 C   0  0  0  0  0  0  0  0  0  0  0  0
    5.8265   -0.6427    0.0000 C   0  0  0  0  0  0  0  0  0  0  0  0
    6.9862    0.0000    0.0000 C   0  0  0  0  0  0  0  0  0  0  0  0
    8.1460   -0.6427    0.0000 C   0  0  0  0  0  0  0  0  0  0  0  0
    9.3197    0.0000    0.0000 C   0  0  0  0  0  0  0  0  0  0  0  0
   10.4654   -0.6427    0.0000 C   0  0  0  0  0  0  0  0  0  0  0  0
   11.6391    0.0000    0.0000 C   0  0  0  0  0  0  0  0  0  0  0  0
   12.7988   -0.6427    0.0000 C   0  0  0  0  0  0  0  0  0  0  0  0
   13.9725    0.0000    0.0000 C   0  0  0  0  0  0  0  0  0  0  0  0
  1  2  2  0  0  0  0
  2  3  1  0  0  0  0
  3  4  1  0  0  0  0
  4  5  1  0  0  0  0
  5  6  1  0  0  0  0
  6  7  1  0  0  0  0
  7  8  1  0  0  0  0
  8  9  1  0  0  0  0
  9 10  1  0  0  0  0
 10 11  1  0  0  0  0
 11 12  1  0  0  0  0
 12 13  1  0  0  0  0
M  END
> <ID>
5878

> <Formula>
C13H26

> <FW>
182.3455

> <DSSTox_CID>
9235

> <DSSTox_RID>
78723

> <DSSTox_GSID>
29235

> <DSSTox_FileID_Sort>
3405

> <TS_ChemName>
1-Tridecene

> <TS_ChemName_Synonyms>


> <TS_CASRN>
2437-56-1

> <CASRN_ChemName_Relationship>
primary

> <TS_Description>
single chemical compound

> <ChemNote>


> <STRUCTURE_Shown>
tested chemical

> <STRUCTURE_Formula>
C13H26

> <STRUCTURE_MW>
182.3455

> <STRUCTURE_ChemType>
defined organic

> <STRUCTURE_DefinedOrganicForm>
parent

> <STRUCTURE_IUPAC>
tridec-1-ene

> <STRUCTURE_SMILES>
C=CCCCCCCCCCCC

> <STRUCTURE_SMILES_Desalt>
C=CCCCCCCCCCCC

> <Substance_modify_yyyymmdd>
20080429

$$$$
