2437-29-8
ChemmineR-0915142007XD

 68 69  0  0  0  0  0  0  0  0  2 V2000
   11.0243   -5.5856    0.0000 C   0  0  0  0  0  0  0  0  0  0  0  0
    9.9366   -6.2324    0.0000 C   0  0  0  0  0  0  0  0  0  0  0  0
   12.2296   -6.2324    0.0000 C   0  0  0  0  0  0  0  0  0  0  0  0
   11.0243   -4.2039    0.0000 C   0  0  0  0  0  0  0  0  0  0  0  0
    9.9366   -7.5847    0.0000 C   0  0  0  0  0  0  0  0  0  0  0  0
    8.7900   -5.5856    0.0000 C   0  0  0  0  0  0  0  0  0  0  0  0
   13.3467   -5.5856    0.0000 C   0  0  0  0  0  0  0  0  0  0  0  0
   12.2296   -7.5847    0.0000 C   0  0  0  0  0  0  0  0  0  0  0  0
   12.2296   -3.5572    0.0000 C   0  0  0  0  0  0  0  0  0  0  0  0
    9.9366   -3.5572    0.0000 C   0  0  0  0  0  0  0  0  0  0  0  0
    8.7900   -8.2315    0.0000 C   0  0  0  0  0  0  0  0  0  0  0  0
    7.6141   -6.2324    0.0000 C   0  0  0  0  0  0  0  0  0  0  0  0
   14.5521   -6.2324    0.0000 C   0  0  0  0  0  0  0  0  0  0  0  0
   13.3467   -8.2315    0.0000 C   0  0  0  0  0  0  0  0  0  0  0  0
   12.2296   -2.2049    0.0000 C   0  0  0  0  0  0  0  0  0  0  0  0
    9.9366   -2.2049    0.0000 C   0  0  0  0  0  0  0  0  0  0  0  0
    7.6141   -7.5847    0.0000 C   0  0  0  0  0  0  0  0  0  0  0  0
   14.5521   -7.5847    0.0000 C   0  0  0  0  0  0  0  0  0  0  0  0
   11.0243   -1.6463    0.0000 C   0  0  0  0  0  0  0  0  0  0  0  0
    6.4676   -8.2315    0.0000 N   0  0  0  0  0  0  0  0  0  0  0  0
   15.6692   -8.2315    0.0000 N   0  3  0  0  0  0  0  0  0  0  0  0
    5.3211   -7.5847    0.0000 C   0  0  0  0  0  0  0  0  0  0  0  0
    6.4676   -9.5544    0.0000 C   0  0  0  0  0  0  0  0  0  0  0  0
   15.6692   -9.5544    0.0000 C   0  0  0  0  0  0  0  0  0  0  0  0
   16.8745   -7.5847    0.0000 C   0  0  0  0  0  0  0  0  0  0  0  0
   16.9039   -2.0285    0.0000 C   0  0  0  0  0  0  0  0  0  0  0  0
   18.0210   -2.7340    0.0000 C   0  0  0  0  0  0  0  0  0  0  0  0
   15.7280   -2.6164    0.0000 O   0  0  0  0  0  0  0  0  0  0  0  0
   19.2264   -2.1461    0.0000 O   0  0  0  0  0  0  0  0  0  0  0  0
   16.9039   -0.6762    0.0000 O   0  0  0  0  0  0  0  0  0  0  0  0
   18.0210   -4.0569    0.0000 O   0  5  0  0  0  0  0  0  0  0  0  0
    5.4974   -1.3229    0.0000 C   0  0  0  0  0  0  0  0  0  0  0  0
    6.6146   -2.0285    0.0000 C   0  0  0  0  0  0  0  0  0  0  0  0
    4.3215   -1.9109    0.0000 O   0  0  0  0  0  0  0  0  0  0  0  0
    7.8199   -1.4405    0.0000 O   0  0  0  0  0  0  0  0  0  0  0  0
    5.4974    0.0000    0.0000 O   0  0  0  0  0  0  0  0  0  0  0  0
    6.6146   -3.3808    0.0000 O   0  5  0  0  0  0  0  0  0  0  0  0
   23.5479   -4.0569    0.0000 C   0  0  0  0  0  0  0  0  0  0  0  0
   22.4602   -4.7037    0.0000 C   0  0  0  0  0  0  0  0  0  0  0  0
   24.7532   -4.7037    0.0000 C   0  0  0  0  0  0  0  0  0  0  0  0
   23.5479   -2.7046    0.0000 C   0  0  0  0  0  0  0  0  0  0  0  0
   22.4602   -6.0560    0.0000 C   0  0  0  0  0  0  0  0  0  0  0  0
   21.3136   -4.0569    0.0000 C   0  0  0  0  0  0  0  0  0  0  0  0
   25.8703   -4.0569    0.0000 C   0  0  0  0  0  0  0  0  0  0  0  0
   24.7532   -6.0560    0.0000 C   0  0  0  0  0  0  0  0  0  0  0  0
   24.7532   -2.0579    0.0000 C   0  0  0  0  0  0  0  0  0  0  0  0
   22.4602   -2.0579    0.0000 C   0  0  0  0  0  0  0  0  0  0  0  0
   21.3136   -6.7028    0.0000 C   0  0  0  0  0  0  0  0  0  0  0  0
   20.1377   -4.7037    0.0000 C   0  0  0  0  0  0  0  0  0  0  0  0
   27.0757   -4.7037    0.0000 C   0  0  0  0  0  0  0  0  0  0  0  0
   25.8703   -6.7028    0.0000 C   0  0  0  0  0  0  0  0  0  0  0  0
   24.7532   -0.6762    0.0000 C   0  0  0  0  0  0  0  0  0  0  0  0
   22.4602   -0.6762    0.0000 C   0  0  0  0  0  0  0  0  0  0  0  0
   20.1377   -6.0560    0.0000 C   0  0  0  0  0  0  0  0  0  0  0  0
   27.0757   -6.0560    0.0000 C   0  0  0  0  0  0  0  0  0  0  0  0
   23.5479   -0.1176    0.0000 C   0  0  0  0  0  0  0  0  0  0  0  0
   18.9912   -6.7028    0.0000 N   0  0  0  0  0  0  0  0  0  0  0  0
   28.1928   -6.7028    0.0000 N   0  3  0  0  0  0  0  0  0  0  0  0
   17.8447   -6.0560    0.0000 C   0  0  0  0  0  0  0  0  0  0  0  0
   18.9912   -8.0257    0.0000 C   0  0  0  0  0  0  0  0  0  0  0  0
   28.1928   -8.0257    0.0000 C   0  0  0  0  0  0  0  0  0  0  0  0
   29.3981   -6.0560    0.0000 C   0  0  0  0  0  0  0  0  0  0  0  0
    1.2053   -6.0266    0.0000 C   0  0  0  0  0  0  0  0  0  0  0  0
    2.3225   -6.7322    0.0000 C   0  0  0  0  0  0  0  0  0  0  0  0
    0.0000   -6.6146    0.0000 O   0  0  0  0  0  0  0  0  0  0  0  0
    3.4984   -6.1148    0.0000 O   0  0  0  0  0  0  0  0  0  0  0  0
    1.2053   -4.6743    0.0000 O   0  0  0  0  0  0  0  0  0  0  0  0
    2.3225   -8.0551    0.0000 O   0  0  0  0  0  0  0  0  0  0  0  0
  1  2  1  0  0  0  0
  1  3  2  0  0  0  0
  1  4  1  0  0  0  0
  2  5  2  0  0  0  0
  2  6  1  0  0  0  0
  3  7  1  0  0  0  0
  3  8  1  0  0  0  0
  4  9  1  0  0  0  0
  4 10  2  0  0  0  0
  5 11  1  0  0  0  0
  6 12  2  0  0  0  0
  7 13  2  0  0  0  0
  8 14  2  0  0  0  0
  9 15  2  0  0  0  0
 10 16  1  0  0  0  0
 11 17  2  0  0  0  0
 12 17  1  0  0  0  0
 13 18  1  0  0  0  0
 14 18  1  0  0  0  0
 15 19  1  0  0  0  0
 16 19  2  0  0  0  0
 17 20  1  0  0  0  0
 18 21  2  0  0  0  0
 20 22  1  0  0  0  0
 20 23  1  0  0  0  0
 21 24  1  0  0  0  0
 21 25  1  0  0  0  0
 26 27  1  0  0  0  0
 26 28  2  0  0  0  0
 26 30  1  0  0  0  0
 27 29  2  0  0  0  0
 27 31  1  0  0  0  0
 32 33  1  0  0  0  0
 32 34  2  0  0  0  0
 32 36  1  0  0  0  0
 33 35  2  0  0  0  0
 33 37  1  0  0  0  0
 38 39  1  0  0  0  0
 38 40  2  0  0  0  0
 38 41  1  0  0  0  0
 39 42  2  0  0  0  0
 39 43  1  0  0  0  0
 40 44  1  0  0  0  0
 40 45  1  0  0  0  0
 41 46  1  0  0  0  0
 41 47  2  0  0  0  0
 42 48  1  0  0  0  0
 43 49  2  0  0  0  0
 44 50  2  0  0  0  0
 45 51  2  0  0  0  0
 46 52  2  0  0  0  0
 47 53  1  0  0  0  0
 48 54  2  0  0  0  0
 49 54  1  0  0  0  0
 50 55  1  0  0  0  0
 51 55  1  0  0  0  0
 52 56  1  0  0  0  0
 53 56  2  0  0  0  0
 54 57  1  0  0  0  0
 55 58  2  0  0  0  0
 57 59  1  0  0  0  0
 57 60  1  0  0  0  0
 58 61  1  0  0  0  0
 58 62  1  0  0  0  0
 63 64  1  0  0  0  0
 63 65  2  0  0  0  0
 63 67  1  0  0  0  0
 64 66  2  0  0  0  0
 64 68  1  0  0  0  0
M  END
> <ID>
4241

> <Formula>
C52H54N4O12

> <FW>
927.0048 (329.4575+89.0275+89.0275+329.4575+90.0349)

> <DSSTox_CID>
5513

> <DSSTox_RID>
77817

> <DSSTox_GSID>
25513

> <DSSTox_FileID_Sort>
2500

> <TS_ChemName>
Malachite green oxalate

> <TS_ChemName_Synonyms>


> <TS_CASRN>
2437-29-8

> <CASRN_ChemName_Relationship>
primary

> <TS_Description>
single chemical compound

> <ChemNote>
ammonium; C.I. 4200; parent [10309-95-2]

> <STRUCTURE_Shown>
tested chemical

> <STRUCTURE_Formula>
C52H54N4O12

> <STRUCTURE_MW>
927.0048

> <STRUCTURE_ChemType>
defined organic

> <STRUCTURE_DefinedOrganicForm>
complex

> <STRUCTURE_IUPAC>
4-{[4-(dimethylamino)phenyl](phenyl)methylidene}-N,N-dimethylcyclohexa-2,5-dien-1-iminium hydrogen ethanedioate ethanedioic acid (2:2:1)

> <STRUCTURE_SMILES>
C/[N+](C)=C1\C=C/C(C=C1)=C(/c2ccccc2)c3ccc(cc3)N(C)C.[O-]C(=O)C(=O)O.[O-]C(=O)C(=O)O.O=C(O)C(=O)O.CN(C)c1ccc(cc1)C(\c2ccccc2)=C3/C=C/C(C=C3)=[N+](/C)C

> <STRUCTURE_SMILES_Desalt>
C/[N+](C)=C1\C=C/C(C=C1)=C(/c2ccccc2)c3ccc(cc3)N(C)C

> <Substance_modify_yyyymmdd>
20080429

$$$$
