2438-05-3
ChemmineR-0915142007XD

 12 12  0  0  0  0  0  0  0  0  1 V2000
    0.0000   -2.3050    0.0000 C   0  0  0  0  0  0  0  0  0  0  0  0
    1.3320   -2.3050    0.0000 C   0  0  0  0  0  0  0  0  0  0  0  0
    1.9939   -1.1565    0.0000 C   0  0  0  0  0  0  0  0  0  0  0  0
    3.3259   -1.1565    0.0000 C   0  0  0  0  0  0  0  0  0  0  0  0
    3.9879    0.0000    0.0000 C   0  0  0  0  0  0  0  0  0  0  0  0
    5.3199    0.0000    0.0000 C   0  0  0  0  0  0  0  0  0  0  0  0
    5.9818   -1.1565    0.0000 C   0  0  0  0  0  0  0  0  0  0  0  0
    5.3199   -2.3050    0.0000 C   0  0  0  0  0  0  0  0  0  0  0  0
    3.9879   -2.3050    0.0000 C   0  0  0  0  0  0  0  0  0  0  0  0
    7.3138   -1.1565    0.0000 C   0  0  0  0  0  0  0  0  0  0  0  0
    7.9758    0.0000    0.0000 O   0  0  0  0  0  0  0  0  0  0  0  0
    7.9758   -2.3050    0.0000 O   0  0  0  0  0  0  0  0  0  0  0  0
  1  2  1  0  0  0  0
  2  3  1  0  0  0  0
  3  4  1  0  0  0  0
  4  5  2  0  0  0  0
  4  9  1  0  0  0  0
  5  6  1  0  0  0  0
  6  7  2  0  0  0  0
  7  8  1  0  0  0  0
  7 10  1  0  0  0  0
  8  9  2  0  0  0  0
 10 11  1  0  0  0  0
 10 12  2  0  0  0  0
M  END
> <ID>
11789

> <Formula>
C10H12O2

> <FW>
164.2011

> <DSSTox_CID>
26564

> <DSSTox_RID>
81723

> <DSSTox_GSID>
46564

> <DSSTox_FileID_Sort>
6404

> <TS_ChemName>
4-Propylbenzoic acid

> <TS_ChemName_Synonyms>


> <TS_CASRN>
2438-05-3

> <CASRN_ChemName_Relationship>
primary

> <TS_Description>
single chemical compound

> <ChemNote>


> <STRUCTURE_Shown>
tested chemical

> <STRUCTURE_Formula>
C10H12O2

> <STRUCTURE_MW>
164.2011

> <STRUCTURE_ChemType>
defined organic

> <STRUCTURE_DefinedOrganicForm>
parent

> <STRUCTURE_IUPAC>
4-propylbenzoic acid

> <STRUCTURE_SMILES>
CCCc1ccc(cc1)C(=O)O

> <STRUCTURE_SMILES_Desalt>
CCCc1ccc(cc1)C(=O)O

> <Substance_modify_yyyymmdd>
20110810

$$$$
