2438-72-4
ChemmineR-0915142007XD

 16 16  0  0  0  0  0  0  0  0  1 V2000
    0.0000   -3.9859    0.0000 C   0  0  0  0  0  0  0  0  0  0  0  0
    1.1520   -3.3177    0.0000 C   0  0  0  0  0  0  0  0  0  0  0  0
    2.3040   -3.9859    0.0000 C   0  0  0  0  0  0  0  0  0  0  0  0
    3.4560   -3.3177    0.0000 C   0  0  0  0  0  0  0  0  0  0  0  0
    4.6080   -3.9859    0.0000 O   0  0  0  0  0  0  0  0  0  0  0  0
    5.7600   -3.3177    0.0000 C   0  0  0  0  0  0  0  0  0  0  0  0
    5.7600   -1.9929    0.0000 C   0  0  0  0  0  0  0  0  0  0  0  0
    6.9120   -1.3248    0.0000 C   0  0  0  0  0  0  0  0  0  0  0  0
    8.0640   -1.9929    0.0000 C   0  0  0  0  0  0  0  0  0  0  0  0
    9.2159   -1.3248    0.0000 C   0  0  0  0  0  0  0  0  0  0  0  0
   10.3679   -1.9929    0.0000 C   0  0  0  0  0  0  0  0  0  0  0  0
   10.3679   -3.3177    0.0000 O   0  0  0  0  0  0  0  0  0  0  0  0
   11.5199   -1.3248    0.0000 N   0  0  0  0  0  0  0  0  0  0  0  0
   11.5199    0.0000    0.0000 O   0  0  0  0  0  0  0  0  0  0  0  0
    8.0640   -3.3177    0.0000 C   0  0  0  0  0  0  0  0  0  0  0  0
    6.9120   -3.9859    0.0000 C   0  0  0  0  0  0  0  0  0  0  0  0
  1  2  1  0  0  0  0
  2  3  1  0  0  0  0
  3  4  1  0  0  0  0
  4  5  1  0  0  0  0
  5  6  1  0  0  0  0
  6  7  2  0  0  0  0
  6 16  1  0  0  0  0
  7  8  1  0  0  0  0
  8  9  2  0  0  0  0
  9 10  1  0  0  0  0
  9 15  1  0  0  0  0
 10 11  1  0  0  0  0
 11 12  2  0  0  0  0
 11 13  1  0  0  0  0
 13 14  1  0  0  0  0
 15 16  2  0  0  0  0
M  END
> <ID>
10901

> <Formula>
C12H17NO3

> <FW>
223.2683

> <DSSTox_CID>
25368

> <DSSTox_RID>
80831

> <DSSTox_GSID>
45368

> <DSSTox_FileID_Sort>
5512

> <TS_ChemName>
Bufexamac

> <TS_ChemName_Synonyms>


> <TS_CASRN>
2438-72-4

> <CASRN_ChemName_Relationship>
primary

> <TS_Description>
single chemical compound

> <ChemNote>


> <STRUCTURE_Shown>
tested chemical

> <STRUCTURE_Formula>
C12H17NO3

> <STRUCTURE_MW>
223.2683

> <STRUCTURE_ChemType>
defined organic

> <STRUCTURE_DefinedOrganicForm>
parent

> <STRUCTURE_IUPAC>
2-(4-butoxyphenyl)-N-hydroxyacetamide

> <STRUCTURE_SMILES>
ONC(=O)Cc1ccc(OCCCC)cc1

> <STRUCTURE_SMILES_Desalt>
ONC(=O)Cc1ccc(OCCCC)cc1

> <Substance_modify_yyyymmdd>
20100107

$$$$
