2439-35-2
ChemmineR-0915142007XD

 10  9  0  0  0  0  0  0  0  0  1 V2000
    1.9962   -1.1511    0.0000 C   0  0  0  0  0  0  0  0  0  0  0  0
    2.6616    0.0000    0.0000 O   0  0  0  0  0  0  0  0  0  0  0  0
    0.6654   -1.1511    0.0000 C   0  0  0  0  0  0  0  0  0  0  0  0
    0.0000   -2.3023    0.0000 C   0  0  0  0  0  0  0  0  0  0  0  0
    2.6616   -2.3023    0.0000 O   0  0  0  0  0  0  0  0  0  0  0  0
    3.9924   -2.3023    0.0000 C   0  0  0  0  0  0  0  0  0  0  0  0
    4.6578   -1.1511    0.0000 C   0  0  0  0  0  0  0  0  0  0  0  0
    5.9885   -1.1511    0.0000 N   0  0  0  0  0  0  0  0  0  0  0  0
    6.6539    0.0000    0.0000 C   0  0  0  0  0  0  0  0  0  0  0  0
    6.6539   -2.3023    0.0000 C   0  0  0  0  0  0  0  0  0  0  0  0
  1  2  2  0  0  0  0
  1  3  1  0  0  0  0
  1  5  1  0  0  0  0
  3  4  2  0  0  0  0
  5  6  1  0  0  0  0
  6  7  1  0  0  0  0
  7  8  1  0  0  0  0
  8  9  1  0  0  0  0
  8 10  1  0  0  0  0
M  END
> <ID>
4016

> <Formula>
C7H13NO2

> <FW>
143.1836

> <DSSTox_CID>
5100

> <DSSTox_RID>
77665

> <DSSTox_GSID>
25100

> <DSSTox_FileID_Sort>
2348

> <TS_ChemName>
2-(Dimethylamino)ethyl acrylate

> <TS_ChemName_Synonyms>
2-(Dimethylamino)ethyl acrylate (2-Propenoic acid, 2-(dimethylamino)ethyl ester)

> <TS_CASRN>
2439-35-2

> <CASRN_ChemName_Relationship>
primary

> <TS_Description>
single chemical compound

> <ChemNote>


> <STRUCTURE_Shown>
tested chemical

> <STRUCTURE_Formula>
C7H13NO2

> <STRUCTURE_MW>
143.1836

> <STRUCTURE_ChemType>
defined organic

> <STRUCTURE_DefinedOrganicForm>
parent

> <STRUCTURE_IUPAC>
2-(dimethylamino)ethyl prop-2-enoate

> <STRUCTURE_SMILES>
CN(C)CCOC(=O)C=C

> <STRUCTURE_SMILES_Desalt>
CN(C)CCOC(=O)C=C

> <Substance_modify_yyyymmdd>
20080429

$$$$
