2439-07-8
ChemmineR-0915142007XD

 21 22  0  0  0  0  0  0  0  0  1 V2000
    0.0000   -6.4762    0.0000 O   0  0  0  0  0  0  0  0  0  0  0  0
    0.6669   -7.6258    0.0000 C   0  0  0  0  0  0  0  0  0  0  0  0
    0.0000   -8.7753    0.0000 O   0  0  0  0  0  0  0  0  0  0  0  0
    1.9920   -7.6258    0.0000 C   0  0  0  0  0  0  0  0  0  0  0  0
    2.6589   -6.4762    0.0000 C   0  0  0  0  0  0  0  0  0  0  0  0
    1.9920   -5.3178    0.0000 O   0  0  0  0  0  0  0  0  0  0  0  0
    3.9928   -6.4762    0.0000 C   0  0  0  0  0  0  0  0  0  0  0  0
    4.6509   -7.6258    0.0000 C   0  0  0  0  0  0  0  0  0  0  0  0
    3.9928   -8.7753    0.0000 C   0  0  0  0  0  0  0  0  0  0  0  0
    2.6589   -8.7753    0.0000 C   0  0  0  0  0  0  0  0  0  0  0  0
    1.2812    0.0000    0.0000 O   0  0  0  0  0  0  0  0  0  0  0  0
    1.2812   -1.3338    0.0000 C   0  0  0  0  0  0  0  0  0  0  0  0
    2.4395   -1.9920    0.0000 C   0  0  0  0  0  0  0  0  0  0  0  0
    3.5891   -1.3338    0.0000 N   0  0  0  0  0  0  0  0  0  0  0  0
    4.7387   -1.9920    0.0000 C   0  0  0  0  0  0  0  0  0  0  0  0
    4.7387   -3.3258    0.0000 C   0  0  0  0  0  0  0  0  0  0  0  0
    3.5891   -3.9928    0.0000 C   0  0  0  0  0  0  0  0  0  0  0  0
    2.4395   -3.3258    0.0000 C   0  0  0  0  0  0  0  0  0  0  0  0
    1.2812   -3.9928    0.0000 C   0  0  0  0  0  0  0  0  0  0  0  0
    0.1316   -3.3258    0.0000 C   0  0  0  0  0  0  0  0  0  0  0  0
    0.1316   -1.9920    0.0000 C   0  0  0  0  0  0  0  0  0  0  0  0
  1  2  1  0  0  0  0
  2  3  2  0  0  0  0
  2  4  1  0  0  0  0
  4  5  2  0  0  0  0
  4 10  1  0  0  0  0
  5  6  1  0  0  0  0
  5  7  1  0  0  0  0
  7  8  2  0  0  0  0
  8  9  1  0  0  0  0
  9 10  2  0  0  0  0
 11 12  1  0  0  0  0
 12 13  2  0  0  0  0
 12 21  1  0  0  0  0
 13 14  1  0  0  0  0
 13 18  1  0  0  0  0
 14 15  2  0  0  0  0
 15 16  1  0  0  0  0
 16 17  2  0  0  0  0
 17 18  1  0  0  0  0
 18 19  2  0  0  0  0
 19 20  1  0  0  0  0
 20 21  2  0  0  0  0
M  END
> <ID>
10725

> <Formula>
C16H13NO4

> <FW>
283.2787 (138.1207+145.1580)

> <DSSTox_CID>
25081

> <DSSTox_RID>
80656

> <DSSTox_GSID>
45081

> <DSSTox_FileID_Sort>
5338

> <TS_ChemName>
8-Quinolinol Salicylic acid (1:1)

> <TS_ChemName_Synonyms>


> <TS_CASRN>
2439-07-8

> <CASRN_ChemName_Relationship>
primary

> <TS_Description>
single chemical compound

> <ChemNote>
structure shown for both components

> <STRUCTURE_Shown>
tested chemical

> <STRUCTURE_Formula>
C16H13NO4

> <STRUCTURE_MW>
283.2787

> <STRUCTURE_ChemType>
defined organic

> <STRUCTURE_DefinedOrganicForm>
complex

> <STRUCTURE_IUPAC>
2-hydroxybenzoic acid - quinolin-8-ol (1:1)

> <STRUCTURE_SMILES>
O=C(O)c1ccccc1O.Oc1cccc2cccnc12

> <STRUCTURE_SMILES_Desalt>
Oc1cccc2cccnc12

> <Substance_modify_yyyymmdd>
20100107

$$$$
