244-63-3
ChemmineR-0915142007XD

 13 15  0  0  0  0  0  0  0  0  1 V2000
    3.7329   -2.1413    0.0000 C   0  0  0  0  0  0  0  0  0  0  0  0
    2.4289   -1.8664    0.0000 C   0  0  0  0  0  0  0  0  0  0  0  0
    2.2883   -0.5433    0.0000 C   0  0  0  0  0  0  0  0  0  0  0  0
    1.0738    0.0000    0.0000 C   0  0  0  0  0  0  0  0  0  0  0  0
    0.0000   -0.7798    0.0000 N   0  0  0  0  0  0  0  0  0  0  0  0
    0.1406   -2.1029    0.0000 C   0  0  0  0  0  0  0  0  0  0  0  0
    1.3551   -2.6462    0.0000 C   0  0  0  0  0  0  0  0  0  0  0  0
    3.5091    0.0000    0.0000 N   0  0  0  0  0  0  0  0  0  0  0  0
    4.3976   -0.9907    0.0000 C   0  0  0  0  0  0  0  0  0  0  0  0
    5.7271   -0.9907    0.0000 C   0  0  0  0  0  0  0  0  0  0  0  0
    6.3919   -2.1413    0.0000 C   0  0  0  0  0  0  0  0  0  0  0  0
    5.7271   -3.2918    0.0000 C   0  0  0  0  0  0  0  0  0  0  0  0
    4.3976   -3.2918    0.0000 C   0  0  0  0  0  0  0  0  0  0  0  0
  1  2  1  0  0  0  0
  1  9  2  0  0  0  0
  1 13  1  0  0  0  0
  2  3  1  0  0  0  0
  2  7  2  0  0  0  0
  3  4  2  0  0  0  0
  3  8  1  0  0  0  0
  4  5  1  0  0  0  0
  5  6  2  0  0  0  0
  6  7  1  0  0  0  0
  8  9  1  0  0  0  0
  9 10  1  0  0  0  0
 10 11  2  0  0  0  0
 11 12  1  0  0  0  0
 12 13  2  0  0  0  0
M  END
> <ID>
1033

> <Formula>
C11H8N2

> <FW>
168.1946

> <DSSTox_CID>
1070

> <DSSTox_RID>
75928

> <DSSTox_GSID>
21070

> <DSSTox_FileID_Sort>
612

> <TS_ChemName>
Norharman

> <TS_ChemName_Synonyms>


> <TS_CASRN>
244-63-3

> <CASRN_ChemName_Relationship>
primary

> <TS_Description>
single chemical compound

> <ChemNote>


> <STRUCTURE_Shown>
tested chemical

> <STRUCTURE_Formula>
C11H8N2

> <STRUCTURE_MW>
168.1946

> <STRUCTURE_ChemType>
defined organic

> <STRUCTURE_DefinedOrganicForm>
parent

> <STRUCTURE_IUPAC>
9H-beta-carboline

> <STRUCTURE_SMILES>
c2cncc3nc1ccccc1c23

> <STRUCTURE_SMILES_Desalt>
c2cncc3nc1ccccc1c23

> <Substance_modify_yyyymmdd>
20080429

$$$$
