2440-22-4
ChemmineR-0915142007XD

 17 19  0  0  0  0  0  0  0  0  1 V2000
    1.1585   -2.7411    0.0000 C   0  0  0  0  0  0  0  0  0  0  0  0
    1.1585   -1.4160    0.0000 O   0  0  0  0  0  0  0  0  0  0  0  0
    2.3095   -3.4150    0.0000 C   0  0  0  0  0  0  0  0  0  0  0  0
    0.0000   -3.4150    0.0000 C   0  0  0  0  0  0  0  0  0  0  0  0
    0.0000   -4.7477    0.0000 C   0  0  0  0  0  0  0  0  0  0  0  0
    2.3095   -4.7477    0.0000 C   0  0  0  0  0  0  0  0  0  0  0  0
    1.1585   -5.4065    0.0000 C   0  0  0  0  0  0  0  0  0  0  0  0
    3.6119   -1.4311    0.0000 N   0  0  0  0  0  0  0  0  0  0  0  0
    3.4680   -2.7411    0.0000 N   0  0  0  0  0  0  0  0  0  0  0  0
    4.6871   -3.2863    0.0000 N   0  0  0  0  0  0  0  0  0  0  0  0
    5.5655   -2.2943    0.0000 C   0  0  0  0  0  0  0  0  0  0  0  0
    4.9067   -1.1585    0.0000 C   0  0  0  0  0  0  0  0  0  0  0  0
    5.5655    0.0000    0.0000 C   0  0  0  0  0  0  0  0  0  0  0  0
    6.8982    0.0000    0.0000 C   0  0  0  0  0  0  0  0  0  0  0  0
    7.5721   -1.1585    0.0000 C   0  0  0  0  0  0  0  0  0  0  0  0
    6.8982   -2.2943    0.0000 C   0  0  0  0  0  0  0  0  0  0  0  0
    1.1585   -6.7392    0.0000 C   0  0  0  0  0  0  0  0  0  0  0  0
  1  2  1  0  0  0  0
  1  3  2  0  0  0  0
  1  4  1  0  0  0  0
  3  6  1  0  0  0  0
  3  9  1  0  0  0  0
  4  5  2  0  0  0  0
  5  7  1  0  0  0  0
  6  7  2  0  0  0  0
  7 17  1  0  0  0  0
  8  9  1  0  0  0  0
  8 12  2  0  0  0  0
  9 10  1  0  0  0  0
 10 11  2  0  0  0  0
 11 12  1  0  0  0  0
 11 16  1  0  0  0  0
 12 13  1  0  0  0  0
 13 14  2  0  0  0  0
 14 15  1  0  0  0  0
 15 16  2  0  0  0  0
M  END
> <ID>
5183

> <Formula>
C13H11N3O

> <FW>
225.2459

> <DSSTox_CID>
7479

> <DSSTox_RID>
78466

> <DSSTox_GSID>
27479

> <DSSTox_FileID_Sort>
3149

> <TS_ChemName>
2-(2H-Benzotriazol-2-yl)-4-methylphenol

> <TS_ChemName_Synonyms>
2-(2H-Benzotriazol-2-yl)-4-methylphenol (2-(2H-Benzotriazol-2-yl)-p-cresol) (Phenol, 2-(2H-benzotriazol-2-yl)-4-methyl-)

> <TS_CASRN>
2440-22-4

> <CASRN_ChemName_Relationship>
primary

> <TS_Description>
single chemical compound

> <ChemNote>


> <STRUCTURE_Shown>
tested chemical

> <STRUCTURE_Formula>
C13H11N3O

> <STRUCTURE_MW>
225.2459

> <STRUCTURE_ChemType>
defined organic

> <STRUCTURE_DefinedOrganicForm>
parent

> <STRUCTURE_IUPAC>
2-(2H-benzotriazol-2-yl)-4-methylphenol

> <STRUCTURE_SMILES>
Cc1cc(c(O)cc1)n2nc3ccccc3n2

> <STRUCTURE_SMILES_Desalt>
Cc1cc(c(O)cc1)n2nc3ccccc3n2

> <Substance_modify_yyyymmdd>
20080429

$$$$
