244193-50-8
ChemmineR-0915142007XD

 17 16  0  0  0  0  0  0  0  0  2 V2000
    3.5411  -10.4474    0.0000 B   0  5  0  0  0  0  0  0  0  0  0  0
    2.2630  -10.4474    0.0000 F   0  0  0  0  0  0  0  0  0  0  0  0
    3.5411   -9.1576    0.0000 F   0  0  0  0  0  0  0  0  0  0  0  0
    3.5411  -11.7255    0.0000 F   0  0  0  0  0  0  0  0  0  0  0  0
    4.8309  -10.4474    0.0000 F   0  0  0  0  0  0  0  0  0  0  0  0
    4.9951    0.0000    0.0000 C   0  0  0  0  0  0  0  0  0  0  0  0
    0.0000   -9.5094    0.0000 C   0  0  0  0  0  0  0  0  0  0  0  0
    1.1139   -8.8645    0.0000 C   0  0  0  0  0  0  0  0  0  0  0  0
    1.1139   -7.5981    0.0000 C   0  0  0  0  0  0  0  0  0  0  0  0
    2.2396   -6.9649    0.0000 C   0  0  0  0  0  0  0  0  0  0  0  0
    2.2396   -5.6751    0.0000 C   0  0  0  0  0  0  0  0  0  0  0  0
    3.3535   -5.0420    0.0000 C   0  0  0  0  0  0  0  0  0  0  0  0
    3.3769   -3.7639    0.0000 N   0  0  0  0  0  0  0  0  0  0  0  0
    2.3334   -3.0017    0.0000 C   0  0  0  0  0  0  0  0  0  0  0  0
    2.7438   -1.7823    0.0000 C   0  0  0  0  0  0  0  0  0  0  0  0
    4.0218   -1.7823    0.0000 N   0  3  0  0  0  0  0  0  0  0  0  0
    4.4088   -3.0017    0.0000 C   0  0  0  0  0  0  0  0  0  0  0  0
  1  2  1  0  0  0  0
  1  3  1  0  0  0  0
  1  4  1  0  0  0  0
  1  5  1  0  0  0  0
  6 16  1  0  0  0  0
  7  8  1  0  0  0  0
  8  9  1  0  0  0  0
  9 10  1  0  0  0  0
 10 11  1  0  0  0  0
 11 12  1  0  0  0  0
 12 13  1  0  0  0  0
 13 14  1  0  0  0  0
 13 17  1  0  0  0  0
 14 15  2  0  0  0  0
 15 16  1  0  0  0  0
 16 17  2  0  0  0  0
M  END
> <ID>
14115

> <Formula>
C10H19BF4N2

> <FW>
254.0759 (86.8052+167.2707)

> <DSSTox_CID>
29108

> <DSSTox_RID>
83327

> <DSSTox_GSID>
49252

> <DSSTox_FileID_Sort>
8002

> <TS_ChemName>
1-Hexyl-3-methylimidazolium tetrafluoroborate

> <TS_ChemName_Synonyms>


> <TS_CASRN>
244193-50-8

> <CASRN_ChemName_Relationship>
primary

> <TS_Description>
single chemical compound

> <ChemNote>


> <STRUCTURE_Shown>
tested chemical

> <STRUCTURE_Formula>
C10H19BF4N2

> <STRUCTURE_MW>
254.0759

> <STRUCTURE_ChemType>
defined organic

> <STRUCTURE_DefinedOrganicForm>
complex

> <STRUCTURE_IUPAC>
1-hexyl-3-methyl-1H-imidazol-3-ium tetrafluoroborate

> <STRUCTURE_SMILES>
F[B-](F)(F)F.C[n+]1ccn(CCCCCC)c1

> <STRUCTURE_SMILES_Desalt>
C[n+]1ccn(CCCCCC)c1

> <Substance_modify_yyyymmdd>
20111204

$$$$
