244193-48-4
ChemmineR-0915142007XD

 14 13  0  0  0  0  0  0  0  0  2 V2000
    0.0000   -4.6433    0.0000 C   0  0  0  0  0  0  0  0  0  0  0  0
    5.4012   -1.0744    0.0000 C   0  0  0  0  0  0  0  0  0  0  0  0
    1.0744   -3.8559    0.0000 C   0  0  0  0  0  0  0  0  0  0  0  0
    0.9493   -2.5387    0.0000 C   0  0  0  0  0  0  0  0  0  0  0  0
    3.2746    0.0000    0.0000 C   0  0  0  0  0  0  0  0  0  0  0  0
    2.0236   -0.4194    0.0000 C   0  0  0  0  0  0  0  0  0  0  0  0
    3.2746   -2.1561    0.0000 C   0  0  0  0  0  0  0  0  0  0  0  0
    4.0619   -1.0744    0.0000 N   0  3  0  0  0  0  0  0  0  0  0  0
    2.0236   -1.7513    0.0000 N   0  0  0  0  0  0  0  0  0  0  0  0
    2.6344   -6.0267    0.0000 B   0  5  0  0  0  0  0  0  0  0  0  0
    1.3025   -6.0267    0.0000 F   0  0  0  0  0  0  0  0  0  0  0  0
    2.6344   -7.3586    0.0000 F   0  0  0  0  0  0  0  0  0  0  0  0
    2.6344   -4.6948    0.0000 F   0  0  0  0  0  0  0  0  0  0  0  0
    3.9663   -6.0267    0.0000 F   0  0  0  0  0  0  0  0  0  0  0  0
  1  3  1  0  0  0  0
  2  8  1  0  0  0  0
  3  4  1  0  0  0  0
  4  9  1  0  0  0  0
  5  6  2  0  0  0  0
  5  8  1  0  0  0  0
  6  9  1  0  0  0  0
  7  8  2  0  0  0  0
  7  9  1  0  0  0  0
 10 11  1  0  0  0  0
 10 12  1  0  0  0  0
 10 13  1  0  0  0  0
 10 14  1  0  0  0  0
M  END
> <ID>
14114

> <Formula>
C7H13BF4N2

> <FW>
211.9961 (125.1910+86.8052)

> <DSSTox_CID>
29107

> <DSSTox_RID>
83326

> <DSSTox_GSID>
49251

> <DSSTox_FileID_Sort>
8001

> <TS_ChemName>
1-Methyl-3-propylimidazolium tetrafluoroborate

> <TS_ChemName_Synonyms>


> <TS_CASRN>
244193-48-4

> <CASRN_ChemName_Relationship>
primary

> <TS_Description>
single chemical compound

> <ChemNote>


> <STRUCTURE_Shown>
tested chemical

> <STRUCTURE_Formula>
C7H13BF4N2

> <STRUCTURE_MW>
211.9961

> <STRUCTURE_ChemType>
defined organic

> <STRUCTURE_DefinedOrganicForm>
complex

> <STRUCTURE_IUPAC>
3-methyl-1-propyl-1H-imidazol-3-ium tetrafluoroborate

> <STRUCTURE_SMILES>
C[n+]1ccn(CCC)c1.F[B-](F)(F)F

> <STRUCTURE_SMILES_Desalt>
C[n+]1ccn(CCC)c1

> <Substance_modify_yyyymmdd>
20111204

$$$$
