244193-59-7
ChemmineR-0915142007XD

 23 22  0  0  0  0  0  0  0  0  2 V2000
    8.0815  -15.0213    0.0000 C   0  0  0  0  0  0  0  0  0  0  0  0
    2.5086    0.0000    0.0000 C   0  0  0  0  0  0  0  0  0  0  0  0
    6.9248  -14.3754    0.0000 C   0  0  0  0  0  0  0  0  0  0  0  0
    6.9098  -13.0385    0.0000 C   0  0  0  0  0  0  0  0  0  0  0  0
    5.7532  -12.3926    0.0000 C   0  0  0  0  0  0  0  0  0  0  0  0
    5.7382  -11.0557    0.0000 C   0  0  0  0  0  0  0  0  0  0  0  0
    4.5965  -10.4098    0.0000 C   0  0  0  0  0  0  0  0  0  0  0  0
    4.5815   -9.0729    0.0000 C   0  0  0  0  0  0  0  0  0  0  0  0
    3.4249   -8.4270    0.0000 C   0  0  0  0  0  0  0  0  0  0  0  0
    3.4098   -7.0901    0.0000 C   0  0  0  0  0  0  0  0  0  0  0  0
    2.2532   -6.4442    0.0000 C   0  0  0  0  0  0  0  0  0  0  0  0
    2.2532   -5.1073    0.0000 C   0  0  0  0  0  0  0  0  0  0  0  0
    1.0966   -4.4463    0.0000 C   0  0  0  0  0  0  0  0  0  0  0  0
    0.4206   -1.0815    0.0000 C   0  0  0  0  0  0  0  0  0  0  0  0
    0.0000   -2.3584    0.0000 C   0  0  0  0  0  0  0  0  0  0  0  0
    2.1781   -2.3283    0.0000 C   0  0  0  0  0  0  0  0  0  0  0  0
    1.7425   -1.0815    0.0000 N   0  3  0  0  0  0  0  0  0  0  0  0
    1.0815   -3.1244    0.0000 N   0  0  0  0  0  0  0  0  0  0  0  0
    2.6438  -13.6995    0.0000 B   0  5  0  0  0  0  0  0  0  0  0  0
    1.3069  -13.6995    0.0000 F   0  0  0  0  0  0  0  0  0  0  0  0
    2.6438  -15.0213    0.0000 F   0  0  0  0  0  0  0  0  0  0  0  0
    2.6438  -12.3626    0.0000 F   0  0  0  0  0  0  0  0  0  0  0  0
    3.9656  -13.6995    0.0000 F   0  0  0  0  0  0  0  0  0  0  0  0
  1  3  1  0  0  0  0
  2 17  1  0  0  0  0
  3  4  1  0  0  0  0
  4  5  1  0  0  0  0
  5  6  1  0  0  0  0
  6  7  1  0  0  0  0
  7  8  1  0  0  0  0
  8  9  1  0  0  0  0
  9 10  1  0  0  0  0
 10 11  1  0  0  0  0
 11 12  1  0  0  0  0
 12 13  1  0  0  0  0
 13 18  1  0  0  0  0
 14 15  2  0  0  0  0
 14 17  1  0  0  0  0
 15 18  1  0  0  0  0
 16 17  2  0  0  0  0
 16 18  1  0  0  0  0
 19 20  1  0  0  0  0
 19 21  1  0  0  0  0
 19 22  1  0  0  0  0
 19 23  1  0  0  0  0
M  END
> <ID>
14116

> <Formula>
C16H31BF4N2

> <FW>
338.2354 (251.4302+86.8052)

> <DSSTox_CID>
29109

> <DSSTox_RID>
83328

> <DSSTox_GSID>
49253

> <DSSTox_FileID_Sort>
8003

> <TS_ChemName>
1-Dodecyl-3-methylimidazolium tetrafluoroborate

> <TS_ChemName_Synonyms>


> <TS_CASRN>
244193-59-7

> <CASRN_ChemName_Relationship>
primary

> <TS_Description>
single chemical compound

> <ChemNote>


> <STRUCTURE_Shown>
tested chemical

> <STRUCTURE_Formula>
C16H31BF4N2

> <STRUCTURE_MW>
338.2354

> <STRUCTURE_ChemType>
defined organic

> <STRUCTURE_DefinedOrganicForm>
complex

> <STRUCTURE_IUPAC>
1-dodecyl-3-methyl-1H-imidazol-3-ium tetrafluoroborate

> <STRUCTURE_SMILES>
F[B-](F)(F)F.C[n+]1ccn(CCCCCCCCCCCC)c1

> <STRUCTURE_SMILES_Desalt>
C[n+]1ccn(CCCCCCCCCCCC)c1

> <Substance_modify_yyyymmdd>
20111204

$$$$
