244193-64-4
ChemmineR-0915142007XD

 27 26  0  0  0  0  0  0  0  0  2 V2000
   10.3311  -19.0611    0.0000 C   0  0  0  0  0  0  0  0  0  0  0  0
    2.5161    0.0000    0.0000 C   0  0  0  0  0  0  0  0  0  0  0  0
    9.1874  -18.3939    0.0000 C   0  0  0  0  0  0  0  0  0  0  0  0
    9.1684  -17.0597    0.0000 C   0  0  0  0  0  0  0  0  0  0  0  0
    8.0056  -16.4116    0.0000 C   0  0  0  0  0  0  0  0  0  0  0  0
    8.0056  -15.0582    0.0000 C   0  0  0  0  0  0  0  0  0  0  0  0
    6.8429  -14.4102    0.0000 C   0  0  0  0  0  0  0  0  0  0  0  0
    6.8620  -13.0950    0.0000 C   0  0  0  0  0  0  0  0  0  0  0  0
    5.6993  -12.4088    0.0000 C   0  0  0  0  0  0  0  0  0  0  0  0
    5.6993  -11.0935    0.0000 C   0  0  0  0  0  0  0  0  0  0  0  0
    4.5747  -10.4264    0.0000 C   0  0  0  0  0  0  0  0  0  0  0  0
    4.5556   -9.0921    0.0000 C   0  0  0  0  0  0  0  0  0  0  0  0
    3.3929   -8.4250    0.0000 C   0  0  0  0  0  0  0  0  0  0  0  0
    3.3929   -7.0907    0.0000 C   0  0  0  0  0  0  0  0  0  0  0  0
    2.2301   -6.4426    0.0000 C   0  0  0  0  0  0  0  0  0  0  0  0
    2.2301   -5.1084    0.0000 C   0  0  0  0  0  0  0  0  0  0  0  0
    1.0865   -4.4412    0.0000 C   0  0  0  0  0  0  0  0  0  0  0  0
    0.4003   -1.0674    0.0000 C   0  0  0  0  0  0  0  0  0  0  0  0
    0.0000   -2.3254    0.0000 C   0  0  0  0  0  0  0  0  0  0  0  0
    2.1539   -2.3254    0.0000 C   0  0  0  0  0  0  0  0  0  0  0  0
    1.7536   -1.0674    0.0000 N   0  3  0  0  0  0  0  0  0  0  0  0
    1.0865   -3.1070    0.0000 N   0  0  0  0  0  0  0  0  0  0  0  0
    3.4691  -16.7928    0.0000 B   0  5  0  0  0  0  0  0  0  0  0  0
    2.1158  -16.7928    0.0000 F   0  0  0  0  0  0  0  0  0  0  0  0
    3.4691  -18.1271    0.0000 F   0  0  0  0  0  0  0  0  0  0  0  0
    3.4691  -15.4585    0.0000 F   0  0  0  0  0  0  0  0  0  0  0  0
    4.7653  -16.7928    0.0000 F   0  0  0  0  0  0  0  0  0  0  0  0
  1  3  1  0  0  0  0
  2 21  1  0  0  0  0
  3  4  1  0  0  0  0
  4  5  1  0  0  0  0
  5  6  1  0  0  0  0
  6  7  1  0  0  0  0
  7  8  1  0  0  0  0
  8  9  1  0  0  0  0
  9 10  1  0  0  0  0
 10 11  1  0  0  0  0
 11 12  1  0  0  0  0
 12 13  1  0  0  0  0
 13 14  1  0  0  0  0
 14 15  1  0  0  0  0
 15 16  1  0  0  0  0
 16 17  1  0  0  0  0
 17 22  1  0  0  0  0
 18 19  2  0  0  0  0
 18 21  1  0  0  0  0
 19 22  1  0  0  0  0
 20 21  2  0  0  0  0
 20 22  1  0  0  0  0
 23 24  1  0  0  0  0
 23 25  1  0  0  0  0
 23 26  1  0  0  0  0
 23 27  1  0  0  0  0
M  END
> <ID>
14117

> <Formula>
C20H39BF4N2

> <FW>
394.3417 (307.5365+86.8052)

> <DSSTox_CID>
29110

> <DSSTox_RID>
83329

> <DSSTox_GSID>
49254

> <DSSTox_FileID_Sort>
8004

> <TS_ChemName>
1-Hexadecyl-3-methylimidazolium tetrafluoroborate

> <TS_ChemName_Synonyms>


> <TS_CASRN>
244193-64-4

> <CASRN_ChemName_Relationship>
primary

> <TS_Description>
single chemical compound

> <ChemNote>


> <STRUCTURE_Shown>
tested chemical

> <STRUCTURE_Formula>
C20H39BF4N2

> <STRUCTURE_MW>
394.3417

> <STRUCTURE_ChemType>
defined organic

> <STRUCTURE_DefinedOrganicForm>
complex

> <STRUCTURE_IUPAC>
1-hexadecyl-3-methyl-1H-imidazol-3-ium tetrafluoroborate

> <STRUCTURE_SMILES>
F[B-](F)(F)F.C[n+]1ccn(CCCCCCCCCCCCCCCC)c1

> <STRUCTURE_SMILES_Desalt>
C[n+]1ccn(CCCCCCCCCCCCCCCC)c1

> <Substance_modify_yyyymmdd>
20111204

$$$$
