244193-56-4
ChemmineR-0915142007XD

 21 20  0  0  0  0  0  0  0  0  2 V2000
   13.6237   -1.0467    0.0000 N   0  3  0  0  0  0  0  0  0  0  0  0
   11.5137   -1.6947    0.0000 N   0  0  0  0  0  0  0  0  0  0  0  0
   12.8262   -2.1599    0.0000 C   0  0  0  0  0  0  0  0  0  0  0  0
   12.8262    0.0000    0.0000 C   0  0  0  0  0  0  0  0  0  0  0  0
   11.5137   -0.3987    0.0000 C   0  0  0  0  0  0  0  0  0  0  0  0
   10.4836   -2.4921    0.0000 C   0  0  0  0  0  0  0  0  0  0  0  0
    9.2375   -1.9771    0.0000 C   0  0  0  0  0  0  0  0  0  0  0  0
    8.1742   -2.7414    0.0000 C   0  0  0  0  0  0  0  0  0  0  0  0
    6.9281   -2.1599    0.0000 C   0  0  0  0  0  0  0  0  0  0  0  0
    5.8150   -2.9407    0.0000 C   0  0  0  0  0  0  0  0  0  0  0  0
    4.5689   -2.4257    0.0000 C   0  0  0  0  0  0  0  0  0  0  0  0
    3.5388   -3.2066    0.0000 C   0  0  0  0  0  0  0  0  0  0  0  0
    2.2928   -2.6749    0.0000 C   0  0  0  0  0  0  0  0  0  0  0  0
    1.1630   -3.4059    0.0000 C   0  0  0  0  0  0  0  0  0  0  0  0
    0.0000   -2.8909    0.0000 C   0  0  0  0  0  0  0  0  0  0  0  0
   14.9196   -1.0467    0.0000 C   0  0  0  0  0  0  0  0  0  0  0  0
   15.3017   -3.9708    0.0000 B   0  5  0  0  0  0  0  0  0  0  0  0
   13.9892   -3.9708    0.0000 F   0  0  0  0  0  0  0  0  0  0  0  0
   15.3017   -5.2833    0.0000 F   0  0  0  0  0  0  0  0  0  0  0  0
   15.3017   -2.6583    0.0000 F   0  0  0  0  0  0  0  0  0  0  0  0
   16.6142   -3.9708    0.0000 F   0  0  0  0  0  0  0  0  0  0  0  0
  1  3  2  0  0  0  0
  1  4  1  0  0  0  0
  1 16  1  0  0  0  0
  2  3  1  0  0  0  0
  2  5  1  0  0  0  0
  2  6  1  0  0  0  0
  4  5  2  0  0  0  0
  6  7  1  0  0  0  0
  7  8  1  0  0  0  0
  8  9  1  0  0  0  0
  9 10  1  0  0  0  0
 10 11  1  0  0  0  0
 11 12  1  0  0  0  0
 12 13  1  0  0  0  0
 13 14  1  0  0  0  0
 14 15  1  0  0  0  0
 17 18  1  0  0  0  0
 17 19  1  0  0  0  0
 17 20  1  0  0  0  0
 17 21  1  0  0  0  0
M  END
> <ID>
12990

> <Formula>
C14H27BF4N2

> <FW>
310.1822 (223.3770+86.8052)

> <DSSTox_CID>
27891

> <DSSTox_RID>
82644

> <DSSTox_GSID>
47915

> <DSSTox_FileID_Sort>
7321

> <TS_ChemName>
1-Decyl-3-methylimidazolium tetrafluoroborate

> <TS_ChemName_Synonyms>


> <TS_CASRN>
244193-56-4

> <CASRN_ChemName_Relationship>
primary

> <TS_Description>
single chemical compound

> <ChemNote>
ammonium; parent [81994-88-9]

> <STRUCTURE_Shown>
tested chemical

> <STRUCTURE_Formula>
C14H27BF4N2

> <STRUCTURE_MW>
310.1822

> <STRUCTURE_ChemType>
defined organic

> <STRUCTURE_DefinedOrganicForm>
salt

> <STRUCTURE_IUPAC>
1-decyl-3-methyl-1H-imidazol-3-ium tetrafluoroborate

> <STRUCTURE_SMILES>
F[B-](F)(F)F.C[n+]1ccn(CCCCCCCCCC)c1

> <STRUCTURE_SMILES_Desalt>
C[n+]1ccn(CCCCCCCCCC)c1

> <Substance_modify_yyyymmdd>
20110419

$$$$
