2443-58-5
ChemmineR-0915142007XD

 14 16  0  0  0  0  0  0  0  0  1 V2000
    3.8973   -2.0072    0.0000 C   0  0  0  0  0  0  0  0  0  0  0  0
    2.6164   -2.0228    0.0000 C   0  0  0  0  0  0  0  0  0  0  0  0
    2.1010   -0.7732    0.0000 C   0  0  0  0  0  0  0  0  0  0  0  0
    4.2722   -0.6795    0.0000 C   0  0  0  0  0  0  0  0  0  0  0  0
    3.2022    0.0000    0.0000 C   0  0  0  0  0  0  0  0  0  0  0  0
    1.7104   -3.0226    0.0000 C   0  0  0  0  0  0  0  0  0  0  0  0
    4.8501   -2.9913    0.0000 C   0  0  0  0  0  0  0  0  0  0  0  0
    0.8435   -0.5623    0.0000 C   0  0  0  0  0  0  0  0  0  0  0  0
    5.6077   -0.3515    0.0000 C   0  0  0  0  0  0  0  0  0  0  0  0
    6.1310   -2.6477    0.0000 C   0  0  0  0  0  0  0  0  0  0  0  0
    0.4218   -2.8117    0.0000 C   0  0  0  0  0  0  0  0  0  0  0  0
    6.4981   -1.3277    0.0000 C   0  0  0  0  0  0  0  0  0  0  0  0
    0.0000   -1.6011    0.0000 C   0  0  0  0  0  0  0  0  0  0  0  0
    7.8102   -1.0466    0.0000 O   0  0  0  0  0  0  0  0  0  0  0  0
  1  2  1  0  0  0  0
  1  4  2  0  0  0  0
  1  7  1  0  0  0  0
  2  3  2  0  0  0  0
  2  6  1  0  0  0  0
  3  5  1  0  0  0  0
  3  8  1  0  0  0  0
  4  5  1  0  0  0  0
  4  9  1  0  0  0  0
  6 11  2  0  0  0  0
  7 10  2  0  0  0  0
  8 13  2  0  0  0  0
  9 12  2  0  0  0  0
 10 12  1  0  0  0  0
 11 13  1  0  0  0  0
 12 14  1  0  0  0  0
M  END
> <ID>
12692

> <Formula>
C13H10O

> <FW>
182.2179

> <DSSTox_CID>
27569

> <DSSTox_RID>
82425

> <DSSTox_GSID>
47569

> <DSSTox_FileID_Sort>
7106

> <TS_ChemName>
2-Hydroxyfluorene

> <TS_ChemName_Synonyms>


> <TS_CASRN>
2443-58-5

> <CASRN_ChemName_Relationship>
primary

> <TS_Description>
single chemical compound

> <ChemNote>


> <STRUCTURE_Shown>
tested chemical

> <STRUCTURE_Formula>
C13H10O

> <STRUCTURE_MW>
182.2179

> <STRUCTURE_ChemType>
defined organic

> <STRUCTURE_DefinedOrganicForm>
parent

> <STRUCTURE_IUPAC>
9H-fluoren-2-ol

> <STRUCTURE_SMILES>
Oc1ccc2c3ccccc3Cc2c1

> <STRUCTURE_SMILES_Desalt>
Oc1ccc2c3ccccc3Cc2c1

> <Substance_modify_yyyymmdd>
20100929

$$$$
