2444-46-4
ChemmineR-0915142007XD

 21 21  0  0  0  0  0  0  0  0  1 V2000
    3.4397   -2.0025    0.0000 C   0  0  0  0  0  0  0  0  0  0  0  0
    2.3093   -2.6646    0.0000 C   0  0  0  0  0  0  0  0  0  0  0  0
    3.4397   -0.6460    0.0000 C   0  0  0  0  0  0  0  0  0  0  0  0
    4.6186   -2.6646    0.0000 C   0  0  0  0  0  0  0  0  0  0  0  0
    1.1466   -2.0025    0.0000 C   0  0  0  0  0  0  0  0  0  0  0  0
    2.3093    0.0000    0.0000 C   0  0  0  0  0  0  0  0  0  0  0  0
    5.7652   -2.0025    0.0000 N   0  0  0  0  0  0  0  0  0  0  0  0
    1.1466   -0.6460    0.0000 C   0  0  0  0  0  0  0  0  0  0  0  0
    0.0000   -2.6646    0.0000 O   0  0  0  0  0  0  0  0  0  0  0  0
    6.9279   -2.6646    0.0000 C   0  0  0  0  0  0  0  0  0  0  0  0
    0.0000    0.0000    0.0000 O   0  0  0  0  0  0  0  0  0  0  0  0
    0.0000   -3.9888    0.0000 C   0  0  0  0  0  0  0  0  0  0  0  0
    8.0583   -2.0025    0.0000 C   0  0  0  0  0  0  0  0  0  0  0  0
    6.9279   -3.9888    0.0000 O   0  0  0  0  0  0  0  0  0  0  0  0
    9.2211   -2.6646    0.0000 C   0  0  0  0  0  0  0  0  0  0  0  0
   10.3676   -2.0025    0.0000 C   0  0  0  0  0  0  0  0  0  0  0  0
   11.5304   -2.6646    0.0000 C   0  0  0  0  0  0  0  0  0  0  0  0
   12.6931   -2.0025    0.0000 C   0  0  0  0  0  0  0  0  0  0  0  0
   13.8397   -2.6646    0.0000 C   0  0  0  0  0  0  0  0  0  0  0  0
   14.9862   -2.0025    0.0000 C   0  0  0  0  0  0  0  0  0  0  0  0
   16.1490   -2.6646    0.0000 C   0  0  0  0  0  0  0  0  0  0  0  0
  1  2  2  0  0  0  0
  1  3  1  0  0  0  0
  1  4  1  0  0  0  0
  2  5  1  0  0  0  0
  3  6  2  0  0  0  0
  4  7  1  0  0  0  0
  5  8  2  0  0  0  0
  5  9  1  0  0  0  0
  6  8  1  0  0  0  0
  7 10  1  0  0  0  0
  8 11  1  0  0  0  0
  9 12  1  0  0  0  0
 10 13  1  0  0  0  0
 10 14  2  0  0  0  0
 13 15  1  0  0  0  0
 15 16  1  0  0  0  0
 16 17  1  0  0  0  0
 17 18  1  0  0  0  0
 18 19  1  0  0  0  0
 19 20  1  0  0  0  0
 20 21  1  0  0  0  0
M  END
> <ID>
6903

> <Formula>
C17H27NO3

> <FW>
293.4012

> <DSSTox_CID>
14769

> <DSSTox_RID>
79200

> <DSSTox_GSID>
34769

> <DSSTox_FileID_Sort>
3882

> <TS_ChemName>
Nonivamide

> <TS_ChemName_Synonyms>


> <TS_CASRN>
2444-46-4

> <CASRN_ChemName_Relationship>
primary

> <TS_Description>
single chemical compound

> <ChemNote>


> <STRUCTURE_Shown>
tested chemical

> <STRUCTURE_Formula>
C17H27NO3

> <STRUCTURE_MW>
293.4012

> <STRUCTURE_ChemType>
defined organic

> <STRUCTURE_DefinedOrganicForm>
parent

> <STRUCTURE_IUPAC>
N-(4-hydroxy-3-methoxybenzyl)nonanamide

> <STRUCTURE_SMILES>
Oc1ccc(cc1OC)CNC(=O)CCCCCCCC

> <STRUCTURE_SMILES_Desalt>
Oc1ccc(cc1OC)CNC(=O)CCCCCCCC

> <Substance_modify_yyyymmdd>
20080429

$$$$
