2445-76-3
ChemmineR-0915142007XD

 11 10  0  0  0  0  0  0  0  0  1 V2000
    2.3233   -1.3232    0.0000 C   0  0  0  0  0  0  0  0  0  0  0  0
    2.3233    0.0000    0.0000 O   0  0  0  0  0  0  0  0  0  0  0  0
    3.4798   -1.9795    0.0000 O   0  0  0  0  0  0  0  0  0  0  0  0
    1.1565   -1.9795    0.0000 C   0  0  0  0  0  0  0  0  0  0  0  0
    0.0000   -1.3232    0.0000 C   0  0  0  0  0  0  0  0  0  0  0  0
    4.6467   -1.3232    0.0000 C   0  0  0  0  0  0  0  0  0  0  0  0
    5.7719   -1.9795    0.0000 C   0  0  0  0  0  0  0  0  0  0  0  0
    6.9387   -1.3232    0.0000 C   0  0  0  0  0  0  0  0  0  0  0  0
    8.0952   -1.9795    0.0000 C   0  0  0  0  0  0  0  0  0  0  0  0
    9.2621   -1.3232    0.0000 C   0  0  0  0  0  0  0  0  0  0  0  0
   10.4185   -1.9795    0.0000 C   0  0  0  0  0  0  0  0  0  0  0  0
  1  2  2  0  0  0  0
  1  3  1  0  0  0  0
  1  4  1  0  0  0  0
  3  6  1  0  0  0  0
  4  5  1  0  0  0  0
  6  7  1  0  0  0  0
  7  8  1  0  0  0  0
  8  9  1  0  0  0  0
  9 10  1  0  0  0  0
 10 11  1  0  0  0  0
M  END
> <ID>
12704

> <Formula>
C9H18O2

> <FW>
158.238

> <DSSTox_CID>
27582

> <DSSTox_RID>
82432

> <DSSTox_GSID>
47582

> <DSSTox_FileID_Sort>
7113

> <TS_ChemName>
Hexyl propanoate

> <TS_ChemName_Synonyms>


> <TS_CASRN>
2445-76-3

> <CASRN_ChemName_Relationship>
primary

> <TS_Description>
single chemical compound

> <ChemNote>


> <STRUCTURE_Shown>
tested chemical

> <STRUCTURE_Formula>
C9H18O2

> <STRUCTURE_MW>
158.238

> <STRUCTURE_ChemType>
defined organic

> <STRUCTURE_DefinedOrganicForm>
parent

> <STRUCTURE_IUPAC>
hexyl propanoate

> <STRUCTURE_SMILES>
O=C(CC)OCCCCCC

> <STRUCTURE_SMILES_Desalt>
O=C(CC)OCCCCCC

> <Substance_modify_yyyymmdd>
20100930

$$$$
