2445-77-4
ChemmineR-0915142007XD

 12 11  0  0  0  0  0  0  0  0  1 V2000
    3.4678   -1.3316    0.0000 C   0  0  0  0  0  0  0  0  0  0  0  0
    3.4678    0.0000    0.0000 O   0  0  0  0  0  0  0  0  0  0  0  0
    4.6237   -1.9882    0.0000 O   0  0  0  0  0  0  0  0  0  0  0  0
    2.3119   -1.9882    0.0000 C   0  0  0  0  0  0  0  0  0  0  0  0
    1.1559   -1.3316    0.0000 C   0  0  0  0  0  0  0  0  0  0  0  0
    1.1559    0.0000    0.0000 C   0  0  0  0  0  0  0  0  0  0  0  0
    0.0000   -1.9882    0.0000 C   0  0  0  0  0  0  0  0  0  0  0  0
    5.7612   -1.3316    0.0000 C   0  0  0  0  0  0  0  0  0  0  0  0
    6.9356   -1.9882    0.0000 C   0  0  0  0  0  0  0  0  0  0  0  0
    8.0915   -1.3316    0.0000 C   0  0  0  0  0  0  0  0  0  0  0  0
    9.2474   -1.9882    0.0000 C   0  0  0  0  0  0  0  0  0  0  0  0
    6.9356   -3.3198    0.0000 C   0  0  0  0  0  0  0  0  0  0  0  0
  1  2  2  0  0  0  0
  1  3  1  0  0  0  0
  1  4  1  0  0  0  0
  3  8  1  0  0  0  0
  4  5  1  0  0  0  0
  5  6  1  0  0  0  0
  5  7  1  0  0  0  0
  8  9  1  0  0  0  0
  9 10  1  0  0  0  0
  9 12  1  0  0  0  0
 10 11  1  0  0  0  0
M  END
> <ID>
8406

> <Formula>
C10H20O2

> <FW>
172.2646

> <DSSTox_CID>
21440

> <DSSTox_RID>
79735

> <DSSTox_GSID>
41440

> <DSSTox_FileID_Sort>
4417

> <TS_ChemName>
2-Methylbutyl isovalerate

> <TS_ChemName_Synonyms>


> <TS_CASRN>
2445-77-4

> <CASRN_ChemName_Relationship>
primary

> <TS_Description>
single chemical compound

> <ChemNote>


> <STRUCTURE_Shown>
tested chemical

> <STRUCTURE_Formula>
C10H20O2

> <STRUCTURE_MW>
172.2646

> <STRUCTURE_ChemType>
defined organic

> <STRUCTURE_DefinedOrganicForm>
parent

> <STRUCTURE_IUPAC>
2-methylbutyl 3-methylbutanoate

> <STRUCTURE_SMILES>
CC(CC)COC(=O)CC(C)C

> <STRUCTURE_SMILES_Desalt>
CC(CC)COC(=O)CC(C)C

> <Substance_modify_yyyymmdd>
20080825

$$$$
