24468-13-1
ChemmineR-0915142007XD

 12 11  0  0  0  0  0  0  0  0  1 V2000
    0.6542   -2.3056    0.0000 C    0  0  0  0  0  0  0  0  0  0  0  0
    0.0000   -1.1568    0.0000 O    0  0  0  0  0  0  0  0  0  0  0  0
    1.9864   -2.3056    0.0000 O    0  0  0  0  0  0  0  0  0  0  0  0
    0.0000   -3.4623    0.0000 Cl   0  0  0  0  0  0  0  0  0  0  0  0
    2.6566   -1.1568    0.0000 C    0  0  0  0  0  0  0  0  0  0  0  0
    3.9888   -1.1568    0.0000 C    0  0  0  0  0  0  0  0  0  0  0  0
    4.6430   -2.3056    0.0000 C    0  0  0  0  0  0  0  0  0  0  0  0
    5.9753   -2.3056    0.0000 C    0  0  0  0  0  0  0  0  0  0  0  0
    6.6454   -3.4623    0.0000 C    0  0  0  0  0  0  0  0  0  0  0  0
    7.9777   -3.4623    0.0000 C    0  0  0  0  0  0  0  0  0  0  0  0
    4.6430    0.0000    0.0000 C    0  0  0  0  0  0  0  0  0  0  0  0
    5.9753    0.0000    0.0000 C    0  0  0  0  0  0  0  0  0  0  0  0
  1  2  2  0  0  0  0
  1  3  1  0  0  0  0
  1  4  1  0  0  0  0
  3  5  1  0  0  0  0
  5  6  1  0  0  0  0
  6  7  1  0  0  0  0
  6 11  1  0  0  0  0
  7  8  1  0  0  0  0
  8  9  1  0  0  0  0
  9 10  1  0  0  0  0
 11 12  1  0  0  0  0
M  END
> <ID>
5437

> <Formula>
C9H17ClO2

> <FW>
192.6831

> <DSSTox_CID>
7832

> <DSSTox_RID>
78582

> <DSSTox_GSID>
27832

> <DSSTox_FileID_Sort>
3265

> <TS_ChemName>
Carbonochloridic acid, 2-ethylhexyl ester

> <TS_ChemName_Synonyms>
2-Ethylhexyl chlorocarbonate

> <TS_CASRN>
24468-13-1

> <CASRN_ChemName_Relationship>
primary

> <TS_Description>
single chemical compound

> <ChemNote>


> <STRUCTURE_Shown>
tested chemical

> <STRUCTURE_Formula>
C9H17ClO2

> <STRUCTURE_MW>
192.6831

> <STRUCTURE_ChemType>
defined organic

> <STRUCTURE_DefinedOrganicForm>
parent

> <STRUCTURE_IUPAC>
2-ethylhexyl carbonochloridate

> <STRUCTURE_SMILES>
O=C(Cl)OCC(CCCC)CC

> <STRUCTURE_SMILES_Desalt>
O=C(Cl)OCC(CCCC)CC

> <Substance_modify_yyyymmdd>
20080429

$$$$
