2447-54-3
ChemmineR-0915142007XD

 25 30  0  0  0  0  0  0  0  0  2 V2000
    5.5016   -2.1185    0.0000 N   0  3  0  0  0  0  0  0  0  0  0  0
    7.7976   -2.1185    0.0000 C   0  0  0  0  0  0  0  0  0  0  0  0
    5.5016   -3.4496    0.0000 C   0  0  0  0  0  0  0  0  0  0  0  0
    6.6551   -4.1040    0.0000 C   0  0  0  0  0  0  0  0  0  0  0  0
    4.3480   -4.1040    0.0000 C   0  0  0  0  0  0  0  0  0  0  0  0
    7.7976   -3.4496    0.0000 C   0  0  0  0  0  0  0  0  0  0  0  0
    6.6551   -1.4419    0.0000 C   0  0  0  0  0  0  0  0  0  0  0  0
    8.9622   -1.4419    0.0000 C   0  0  0  0  0  0  0  0  0  0  0  0
    3.1945   -3.4496    0.0000 C   0  0  0  0  0  0  0  0  0  0  0  0
    4.3480   -5.4128    0.0000 C   0  0  0  0  0  0  0  0  0  0  0  0
    2.0520   -4.1040    0.0000 C   0  0  0  0  0  0  0  0  0  0  0  0
    2.0520   -5.4128    0.0000 C   0  0  0  0  0  0  0  0  0  0  0  0
    6.6551   -5.4128    0.0000 C   0  0  0  0  0  0  0  0  0  0  0  0
    3.1945   -6.0894    0.0000 C   0  0  0  0  0  0  0  0  0  0  0  0
    8.9622   -4.1040    0.0000 C   0  0  0  0  0  0  0  0  0  0  0  0
   10.1269   -2.1185    0.0000 C   0  0  0  0  0  0  0  0  0  0  0  0
    9.2173   -0.1442    0.0000 O   0  0  0  0  0  0  0  0  0  0  0  0
    0.7875   -3.6714    0.0000 O   0  0  0  0  0  0  0  0  0  0  0  0
    0.7875   -5.8343    0.0000 O   0  0  0  0  0  0  0  0  0  0  0  0
   11.0919   -1.2201    0.0000 O   0  0  0  0  0  0  0  0  0  0  0  0
   10.5484    0.0000    0.0000 C   0  0  0  0  0  0  0  0  0  0  0  0
    0.0000   -4.7473    0.0000 C   0  0  0  0  0  0  0  0  0  0  0  0
    5.5016   -6.0894    0.0000 C   0  0  0  0  0  0  0  0  0  0  0  0
   10.1269   -3.4496    0.0000 C   0  0  0  0  0  0  0  0  0  0  0  0
    4.3480   -1.4419    0.0000 C   0  0  0  0  0  0  0  0  0  0  0  0
  1  3  1  0  0  0  0
  1  7  2  0  0  0  0
  1 25  1  0  0  0  0
  2  7  1  0  0  0  0
  2  6  2  0  0  0  0
  2  8  1  0  0  0  0
  3  4  2  0  0  0  0
  3  5  1  0  0  0  0
  4 13  1  0  0  0  0
  4  6  1  0  0  0  0
  5  9  1  0  0  0  0
  5 10  2  0  0  0  0
  6 15  1  0  0  0  0
  8 16  2  0  0  0  0
  8 17  1  0  0  0  0
  9 11  2  0  0  0  0
 10 14  1  0  0  0  0
 10 23  1  0  0  0  0
 11 18  1  0  0  0  0
 11 12  1  0  0  0  0
 12 14  2  0  0  0  0
 12 19  1  0  0  0  0
 13 23  2  0  0  0  0
 15 24  2  0  0  0  0
 16 20  1  0  0  0  0
 16 24  1  0  0  0  0
 17 21  1  0  0  0  0
 18 22  1  0  0  0  0
 19 22  1  0  0  0  0
 20 21  1  0  0  0  0
M  END
> <ID>
10818

> <Formula>
C20H14NO4

> <FW>
332.3289

> <DSSTox_CID>
25204

> <DSSTox_RID>
80748

> <DSSTox_GSID>
45204

> <DSSTox_FileID_Sort>
5429

> <TS_ChemName>
Sanguinarine

> <TS_ChemName_Synonyms>


> <TS_CASRN>
2447-54-3

> <CASRN_ChemName_Relationship>
primary

> <TS_Description>
single chemical compound

> <ChemNote>
ammonium

> <STRUCTURE_Shown>
tested chemical

> <STRUCTURE_Formula>
C20H14NO4

> <STRUCTURE_MW>
332.3289

> <STRUCTURE_ChemType>
defined organic

> <STRUCTURE_DefinedOrganicForm>
parent

> <STRUCTURE_IUPAC>
13-methyl[1,3]benzodioxolo[5,6-c][1,3]dioxolo[4,5-i]phenanthridin-13-ium

> <STRUCTURE_SMILES>
C[n+]2cc1c6OCOc6ccc1c3ccc4cc5OCOc5cc4c23

> <STRUCTURE_SMILES_Desalt>
C[n+]2cc1c6OCOc6ccc1c3ccc4cc5OCOc5cc4c23

> <Substance_modify_yyyymmdd>
20100107

$$$$
