2448-68-2
ChemmineR-0915142007XD

 29 29  0  0  0  0  0  0  0  0  1 V2000
    2.3638   -5.3302    0.0000 Cl   0  0  0  0  0  0  0  0  0  0  0  0
    5.8555   -5.3457    0.0000 Cl   0  0  0  0  0  0  0  0  0  0  0  0
   11.5102   -4.0324    0.0000 C    0  0  0  0  0  0  0  0  0  0  0  0
   12.8234   -3.8007    0.0000 N    0  0  0  0  0  0  0  0  0  0  0  0
   11.7419   -5.3302    0.0000 C    0  0  0  0  0  0  0  0  0  0  0  0
   10.3514   -4.6813    0.0000 C    0  0  0  0  0  0  0  0  0  0  0  0
   11.5256   -2.7037    0.0000 C    0  0  0  0  0  0  0  0  0  0  0  0
    9.2081   -2.7037    0.0000 N    0  0  0  0  0  0  0  0  0  0  0  0
    4.6041   -2.6728    0.0000 C    0  0  0  0  0  0  0  0  0  0  0  0
    3.4453   -2.0085    0.0000 C    0  0  0  0  0  0  0  0  0  0  0  0
   12.9934   -5.7937    0.0000 O    0  0  0  0  0  0  0  0  0  0  0  0
    9.2081   -4.0170    0.0000 C    0  0  0  0  0  0  0  0  0  0  0  0
   10.3669   -2.0239    0.0000 C    0  0  0  0  0  0  0  0  0  0  0  0
    4.6041   -4.0015    0.0000 O    0  0  0  0  0  0  0  0  0  0  0  0
    3.4453   -0.6798    0.0000 C    0  0  0  0  0  0  0  0  0  0  0  0
    2.2866   -2.6728    0.0000 C    0  0  0  0  0  0  0  0  0  0  0  0
   10.7377   -6.1800    0.0000 N    0  0  0  0  0  0  0  0  0  0  0  0
    1.1587   -0.6643    0.0000 C    0  0  0  0  0  0  0  0  0  0  0  0
    1.1587   -1.9930    0.0000 C    0  0  0  0  0  0  0  0  0  0  0  0
    2.3175    0.0000    0.0000 C    0  0  0  0  0  0  0  0  0  0  0  0
    0.0000    0.0000    0.0000 F    0  0  0  0  0  0  0  0  0  0  0  0
    8.0494   -2.0239    0.0000 C    0  0  0  0  0  0  0  0  0  0  0  0
   13.2869   -2.5492    0.0000 C    0  0  0  0  0  0  0  0  0  0  0  0
   13.6732   -4.8358    0.0000 C    0  0  0  0  0  0  0  0  0  0  0  0
    6.9216   -2.6883    0.0000 C    0  0  0  0  0  0  0  0  0  0  0  0
    5.7628   -2.0085    0.0000 C    0  0  0  0  0  0  0  0  0  0  0  0
   14.9864   -4.6041    0.0000 C    0  0  0  0  0  0  0  0  0  0  0  0
   14.5847   -2.3329    0.0000 C    0  0  0  0  0  0  0  0  0  0  0  0
   15.4499   -3.3526    0.0000 C    0  0  0  0  0  0  0  0  0  0  0  0
  3  4  1  0  0  0  0
  3  5  1  0  0  0  0
  3  6  1  0  0  0  0
  3  7  1  0  0  0  0
  4 23  1  0  0  0  0
  4 24  1  0  0  0  0
  5 11  2  0  0  0  0
  5 17  1  0  0  0  0
  6 12  1  0  0  0  0
  7 13  1  0  0  0  0
  8 13  1  0  0  0  0
  8 22  1  0  0  0  0
  8 12  1  0  0  0  0
  9 26  1  0  0  0  0
  9 10  1  0  0  0  0
  9 14  2  0  0  0  0
 10 15  2  0  0  0  0
 10 16  1  0  0  0  0
 15 20  1  0  0  0  0
 16 19  2  0  0  0  0
 18 19  1  0  0  0  0
 18 21  1  0  0  0  0
 18 20  2  0  0  0  0
 22 25  1  0  0  0  0
 23 28  1  0  0  0  0
 24 27  1  0  0  0  0
 25 26  1  0  0  0  0
 27 29  1  0  0  0  0
 28 29  1  0  0  0  0
M  END
> <ID>
11740

> <Formula>
C21H32Cl2FN3O2

> <FW>
448.4021 (36.4609+36.4609+375.4802)

> <DSSTox_CID>
26505

> <DSSTox_RID>
81674

> <DSSTox_GSID>
46505

> <DSSTox_FileID_Sort>
6355

> <TS_ChemName>
Pipamperone dihydrochloride

> <TS_ChemName_Synonyms>


> <TS_CASRN>
2448-68-2

> <CASRN_ChemName_Relationship>
primary

> <TS_Description>
single chemical compound

> <ChemNote>
parent [1893-33-0]

> <STRUCTURE_Shown>
tested chemical

> <STRUCTURE_Formula>
C21H32Cl2FN3O2

> <STRUCTURE_MW>
448.4021

> <STRUCTURE_ChemType>
defined organic

> <STRUCTURE_DefinedOrganicForm>
complex

> <STRUCTURE_IUPAC>
1'-[4-(4-fluorophenyl)-4-oxobutyl]-1,4'-bipiperidine-4'-carboxamide dihydrochloride

> <STRUCTURE_SMILES>
Cl.Cl.Fc1ccc(cc1)C(=O)CCCN2CCC(CC2)(C(N)=O)N3CCCCC3

> <STRUCTURE_SMILES_Desalt>
Fc1ccc(cc1)C(=O)CCCN2CCC(CC2)(C(N)=O)N3CCCCC3

> <Substance_modify_yyyymmdd>
20110812

$$$$
