2449-05-0
ChemmineR-0915142007XD

 22 23  0  0  0  0  0  0  0  0  1 V2000
    3.9633   -5.7596    0.0000 O   0  0  0  0  0  0  0  0  0  0  0  0
    4.6333   -4.6048    0.0000 C   0  0  0  0  0  0  0  0  0  0  0  0
    3.9775   -3.4500    0.0000 O   0  0  0  0  0  0  0  0  0  0  0  0
    2.6517   -3.4643    0.0000 C   0  0  0  0  0  0  0  0  0  0  0  0
    1.9959   -2.2953    0.0000 C   0  0  0  0  0  0  0  0  0  0  0  0
    2.6517   -1.1405    0.0000 C   0  0  0  0  0  0  0  0  0  0  0  0
    1.9816   -0.0143    0.0000 C   0  0  0  0  0  0  0  0  0  0  0  0
    0.6558    0.0000    0.0000 C   0  0  0  0  0  0  0  0  0  0  0  0
    0.0000   -1.1405    0.0000 C   0  0  0  0  0  0  0  0  0  0  0  0
    0.6558   -2.2953    0.0000 C   0  0  0  0  0  0  0  0  0  0  0  0
    5.9592   -4.5906    0.0000 N   0  0  0  0  0  0  0  0  0  0  0  0
    7.3705   -4.5906    0.0000 N   0  0  0  0  0  0  0  0  0  0  0  0
    8.5111   -3.9348    0.0000 C   0  0  0  0  0  0  0  0  0  0  0  0
    8.5111   -2.6089    0.0000 O   0  0  0  0  0  0  0  0  0  0  0  0
    9.6516   -4.6048    0.0000 O   0  0  0  0  0  0  0  0  0  0  0  0
   10.8063   -3.9348    0.0000 C   0  0  0  0  0  0  0  0  0  0  0  0
   11.9754   -4.6048    0.0000 C   0  0  0  0  0  0  0  0  0  0  0  0
   13.1159   -3.9348    0.0000 C   0  0  0  0  0  0  0  0  0  0  0  0
   14.2564   -4.6048    0.0000 C   0  0  0  0  0  0  0  0  0  0  0  0
   14.2564   -5.9307    0.0000 C   0  0  0  0  0  0  0  0  0  0  0  0
   13.1159   -6.5864    0.0000 C   0  0  0  0  0  0  0  0  0  0  0  0
   11.9754   -5.9307    0.0000 C   0  0  0  0  0  0  0  0  0  0  0  0
  1  2  2  0  0  0  0
  2  3  1  0  0  0  0
  2 11  1  0  0  0  0
  3  4  1  0  0  0  0
  4  5  1  0  0  0  0
  5  6  1  0  0  0  0
  5 10  2  0  0  0  0
  6  7  2  0  0  0  0
  7  8  1  0  0  0  0
  8  9  2  0  0  0  0
  9 10  1  0  0  0  0
 11 12  2  0  0  0  0
 12 13  1  0  0  0  0
 13 14  2  0  0  0  0
 13 15  1  0  0  0  0
 15 16  1  0  0  0  0
 16 17  1  0  0  0  0
 17 18  1  0  0  0  0
 17 22  2  0  0  0  0
 18 19  2  0  0  0  0
 19 20  1  0  0  0  0
 20 21  2  0  0  0  0
 21 22  1  0  0  0  0
M  END
> <ID>
10534

> <Formula>
C16H14N2O4

> <FW>
298.2934

> <DSSTox_CID>
24887

> <DSSTox_RID>
80560

> <DSSTox_GSID>
44887

> <DSSTox_FileID_Sort>
5242

> <TS_ChemName>
Dibenzyl diazene-1,2-dicarboxylate

> <TS_ChemName_Synonyms>
Dibenzyl diazene-1,2-dicarboxylate (Diazenedicarboxylic acid, bis(phenylmethyl) ester)

> <TS_CASRN>
2449-05-0

> <CASRN_ChemName_Relationship>
primary

> <TS_Description>
single chemical compound

> <ChemNote>


> <STRUCTURE_Shown>
tested chemical

> <STRUCTURE_Formula>
C16H14N2O4

> <STRUCTURE_MW>
298.2934

> <STRUCTURE_ChemType>
defined organic

> <STRUCTURE_DefinedOrganicForm>
parent

> <STRUCTURE_IUPAC>
dibenzyl diazene-1,2-dicarboxylate

> <STRUCTURE_SMILES>
O=C(OCc1ccccc1)/N=N/C(=O)OCc2ccccc2

> <STRUCTURE_SMILES_Desalt>
O=C(OCc1ccccc1)/N=N/C(=O)OCc2ccccc2

> <Substance_modify_yyyymmdd>
20091116

$$$$
