24526-64-5
ChemmineR-0915142007XD

 18 20  0  0  0  0  0  0  0  0  1 V2000
    6.9085   -5.3205    0.0000 C   0  0  0  0  0  0  0  0  0  0  0  0
    5.7558   -5.9815    0.0000 C   0  0  0  0  0  0  0  0  0  0  0  0
    4.6030   -5.3205    0.0000 C   0  0  0  0  0  0  0  0  0  0  0  0
    4.6030   -3.9903    0.0000 C   0  0  0  0  0  0  0  0  0  0  0  0
    5.7558   -3.3213    0.0000 C   0  0  0  0  0  0  0  0  0  0  0  0
    6.9085   -3.9903    0.0000 C   0  0  0  0  0  0  0  0  0  0  0  0
    8.0613   -3.3213    0.0000 N   0  0  0  0  0  0  0  0  0  0  0  0
    5.7558   -1.9911    0.0000 C   0  0  0  0  0  0  0  0  0  0  0  0
    4.6030   -1.3301    0.0000 N   0  0  0  0  0  0  0  0  0  0  0  0
    4.6030    0.0000    0.0000 C   0  0  0  0  0  0  0  0  0  0  0  0
    3.4583   -1.9911    0.0000 C   0  0  0  0  0  0  0  0  0  0  0  0
    3.4583   -3.3213    0.0000 C   0  0  0  0  0  0  0  0  0  0  0  0
    2.3055   -3.9903    0.0000 C   0  0  0  0  0  0  0  0  0  0  0  0
    2.3055   -5.3205    0.0000 C   0  0  0  0  0  0  0  0  0  0  0  0
    1.1528   -5.9815    0.0000 C   0  0  0  0  0  0  0  0  0  0  0  0
    0.0000   -5.3205    0.0000 C   0  0  0  0  0  0  0  0  0  0  0  0
    0.0000   -3.9903    0.0000 C   0  0  0  0  0  0  0  0  0  0  0  0
    1.1528   -3.3213    0.0000 C   0  0  0  0  0  0  0  0  0  0  0  0
  1  2  2  0  0  0  0
  1  6  1  0  0  0  0
  2  3  1  0  0  0  0
  3  4  2  0  0  0  0
  4  5  1  0  0  0  0
  4 12  1  0  0  0  0
  5  6  2  0  0  0  0
  5  8  1  0  0  0  0
  6  7  1  0  0  0  0
  8  9  1  0  0  0  0
  9 10  1  0  0  0  0
  9 11  1  0  0  0  0
 11 12  1  0  0  0  0
 12 13  1  0  0  0  0
 13 14  2  0  0  0  0
 13 18  1  0  0  0  0
 14 15  1  0  0  0  0
 15 16  2  0  0  0  0
 16 17  1  0  0  0  0
 17 18  2  0  0  0  0
M  END
> <ID>
3029

> <Formula>
C16H18N2

> <FW>
238.3275

> <DSSTox_CID>
3377

> <DSSTox_RID>
77003

> <DSSTox_GSID>
23377

> <DSSTox_FileID_Sort>
1687

> <TS_ChemName>
Nomifensine

> <TS_ChemName_Synonyms>


> <TS_CASRN>
24526-64-5

> <CASRN_ChemName_Relationship>
primary

> <TS_Description>
single chemical compound

> <ChemNote>


> <STRUCTURE_Shown>
tested chemical

> <STRUCTURE_Formula>
C16H18N2

> <STRUCTURE_MW>
238.3275

> <STRUCTURE_ChemType>
defined organic

> <STRUCTURE_DefinedOrganicForm>
parent

> <STRUCTURE_IUPAC>
2-methyl-4-phenyl-1,2,3,4-tetrahydroisoquinolin-8-amine

> <STRUCTURE_SMILES>
Nc3cccc1c3CN(C)CC1c2ccccc2

> <STRUCTURE_SMILES_Desalt>
Nc3cccc1c3CN(C)CC1c2ccccc2

> <Substance_modify_yyyymmdd>
20080429

$$$$
