24579-73-5
ChemmineR-0915142007XD

 13 12  0  0  0  0  0  0  0  0  1 V2000
    6.9173   -1.9863    0.0000 C   0  0  0  0  0  0  0  0  0  0  0  0
    6.9173   -3.3258    0.0000 O   0  0  0  0  0  0  0  0  0  0  0  0
    8.0837   -1.3280    0.0000 O   0  0  0  0  0  0  0  0  0  0  0  0
    5.7740   -1.3280    0.0000 N   0  0  0  0  0  0  0  0  0  0  0  0
    4.6308   -1.9863    0.0000 C   0  0  0  0  0  0  0  0  0  0  0  0
    3.4644   -1.3280    0.0000 C   0  0  0  0  0  0  0  0  0  0  0  0
    2.3096   -1.9863    0.0000 C   0  0  0  0  0  0  0  0  0  0  0  0
    1.1548   -1.3280    0.0000 N   0  0  0  0  0  0  0  0  0  0  0  0
    1.1548    0.0000    0.0000 C   0  0  0  0  0  0  0  0  0  0  0  0
    0.0000   -1.9863    0.0000 C   0  0  0  0  0  0  0  0  0  0  0  0
    9.2385   -1.9863    0.0000 C   0  0  0  0  0  0  0  0  0  0  0  0
   10.3933   -1.3280    0.0000 C   0  0  0  0  0  0  0  0  0  0  0  0
   11.5481   -1.9863    0.0000 C   0  0  0  0  0  0  0  0  0  0  0  0
  1  2  2  0  0  0  0
  1  3  1  0  0  0  0
  1  4  1  0  0  0  0
  3 11  1  0  0  0  0
  4  5  1  0  0  0  0
  5  6  1  0  0  0  0
  6  7  1  0  0  0  0
  7  8  1  0  0  0  0
  8  9  1  0  0  0  0
  8 10  1  0  0  0  0
 11 12  1  0  0  0  0
 12 13  1  0  0  0  0
M  END
> <ID>
7671

> <Formula>
C9H20N2O2

> <FW>
188.2673

> <DSSTox_CID>
20295

> <DSSTox_RID>
79474

> <DSSTox_GSID>
40295

> <DSSTox_FileID_Sort>
4156

> <TS_ChemName>
Propamocarb

> <TS_ChemName_Synonyms>


> <TS_CASRN>
24579-73-5

> <CASRN_ChemName_Relationship>
primary

> <TS_Description>
single chemical compound

> <ChemNote>


> <STRUCTURE_Shown>
tested chemical

> <STRUCTURE_Formula>
C9H20N2O2

> <STRUCTURE_MW>
188.2673

> <STRUCTURE_ChemType>
defined organic

> <STRUCTURE_DefinedOrganicForm>
parent

> <STRUCTURE_IUPAC>
propyl [3-(dimethylamino)propyl]carbamate

> <STRUCTURE_SMILES>
O=C(NCCCN(C)C)OCCC

> <STRUCTURE_SMILES_Desalt>
O=C(NCCCN(C)C)OCCC

> <Substance_modify_yyyymmdd>
20080429

$$$$
