2459-10-1
ChemmineR-0915142007XD

 18 18  0  0  0  0  0  0  0  0  1 V2000
    5.9760   -4.5962    0.0000 C   0  0  0  0  0  0  0  0  0  0  0  0
    5.3234   -5.7523    0.0000 C   0  0  0  0  0  0  0  0  0  0  0  0
    3.9996   -5.7523    0.0000 C   0  0  0  0  0  0  0  0  0  0  0  0
    3.3470   -4.5962    0.0000 C   0  0  0  0  0  0  0  0  0  0  0  0
    3.9996   -3.4495    0.0000 C   0  0  0  0  0  0  0  0  0  0  0  0
    5.3327   -3.4495    0.0000 C   0  0  0  0  0  0  0  0  0  0  0  0
    7.3092   -4.5962    0.0000 C   0  0  0  0  0  0  0  0  0  0  0  0
    7.9898   -3.4402    0.0000 O   0  0  0  0  0  0  0  0  0  0  0  0
    7.9898   -5.7523    0.0000 O   0  0  0  0  0  0  0  0  0  0  0  0
    5.9947   -2.2935    0.0000 C   0  0  0  0  0  0  0  0  0  0  0  0
    7.3092   -2.2841    0.0000 O   0  0  0  0  0  0  0  0  0  0  0  0
    5.3327   -1.1560    0.0000 O   0  0  0  0  0  0  0  0  0  0  0  0
    2.0138   -4.5962    0.0000 C   0  0  0  0  0  0  0  0  0  0  0  0
    1.3332   -3.4402    0.0000 O   0  0  0  0  0  0  0  0  0  0  0  0
    1.3332   -5.7523    0.0000 O   0  0  0  0  0  0  0  0  0  0  0  0
    9.3230   -5.7523    0.0000 C   0  0  0  0  0  0  0  0  0  0  0  0
    5.9947    0.0000    0.0000 C   0  0  0  0  0  0  0  0  0  0  0  0
    0.0000   -5.7523    0.0000 C   0  0  0  0  0  0  0  0  0  0  0  0
  1  2  2  0  0  0  0
  1  6  1  0  0  0  0
  1  7  1  0  0  0  0
  2  3  1  0  0  0  0
  3  4  2  0  0  0  0
  4  5  1  0  0  0  0
  4 13  1  0  0  0  0
  5  6  2  0  0  0  0
  6 10  1  0  0  0  0
  7  8  2  0  0  0  0
  7  9  1  0  0  0  0
  9 16  1  0  0  0  0
 10 11  2  0  0  0  0
 10 12  1  0  0  0  0
 12 17  1  0  0  0  0
 13 14  2  0  0  0  0
 13 15  1  0  0  0  0
 15 18  1  0  0  0  0
M  END
> <ID>
10274

> <Formula>
C12H12O6

> <FW>
252.2201

> <DSSTox_CID>
24620

> <DSSTox_RID>
80355

> <DSSTox_GSID>
44620

> <DSSTox_FileID_Sort>
5037

> <TS_ChemName>
Trimethyl benzene-1,2,4-tricarboxylate

> <TS_ChemName_Synonyms>
Trimethyl benzene-1,2,4-tricarboxylate (1,2,4-Benzenetricarboxylic acid, trimethyl ester)

> <TS_CASRN>
2459-10-1

> <CASRN_ChemName_Relationship>
primary

> <TS_Description>
single chemical compound

> <ChemNote>


> <STRUCTURE_Shown>
tested chemical

> <STRUCTURE_Formula>
C12H12O6

> <STRUCTURE_MW>
252.2201

> <STRUCTURE_ChemType>
defined organic

> <STRUCTURE_DefinedOrganicForm>
parent

> <STRUCTURE_IUPAC>
trimethyl benzene-1,2,4-tricarboxylate

> <STRUCTURE_SMILES>
COC(=O)c1cc(ccc1C(=O)OC)C(=O)OC

> <STRUCTURE_SMILES_Desalt>
COC(=O)c1cc(ccc1C(=O)OC)C(=O)OC

> <Substance_modify_yyyymmdd>
20091116

$$$$
