24600-36-0
ChemmineR-0915142007XD

 29 30  0  0  0  0  0  0  0  0  1 V2000
    5.7499   -5.9834    0.0000 C    0  0  0  0  0  0  0  0  0  0  0  0
    1.1516   -5.9834    0.0000 C    0  0  0  0  0  0  0  0  0  0  0  0
    4.5983   -2.6575    0.0000 C    0  0  0  0  0  0  0  0  0  0  0  0
    4.5983   -3.9862    0.0000 N    0  0  0  0  0  0  0  0  0  0  0  0
    5.7499   -4.6385    0.0000 C    0  0  0  0  0  0  0  0  0  0  0  0
    1.1516   -4.6546    0.0000 N    0  0  0  0  0  0  0  0  0  0  0  0
    4.5983   -6.6437    0.0000 C    0  0  0  0  0  0  0  0  0  0  0  0
    2.3032   -6.6437    0.0000 C    0  0  0  0  0  0  0  0  0  0  0  0
    6.9014   -6.6437    0.0000 C    0  0  0  0  0  0  0  0  0  0  0  0
    3.4547   -5.9834    0.0000 N    0  0  0  0  0  0  0  0  0  0  0  0
    0.0000   -6.6437    0.0000 O    0  0  0  0  0  0  0  0  0  0  0  0
    3.4547   -1.9810    0.0000 O    0  0  0  0  0  0  0  0  0  0  0  0
    5.7499   -1.9810    0.0000 C    0  0  0  0  0  0  0  0  0  0  0  0
    1.1516   -1.9810    0.0000 O    0  0  0  0  0  0  0  0  0  0  0  0
    6.9014   -7.9725    0.0000 Cl   0  0  0  0  0  0  0  0  0  0  0  0
    0.0000   -3.9862    0.0000 C    0  0  0  0  0  0  0  0  0  0  0  0
    2.3032   -3.9862    0.0000 C    0  0  0  0  0  0  0  0  0  0  0  0
    6.9014   -3.9862    0.0000 C    0  0  0  0  0  0  0  0  0  0  0  0
    8.0530   -4.6546    0.0000 C    0  0  0  0  0  0  0  0  0  0  0  0
    8.0530   -5.9834    0.0000 C    0  0  0  0  0  0  0  0  0  0  0  0
    0.0000   -2.6575    0.0000 C    0  0  0  0  0  0  0  0  0  0  0  0
    2.3032   -2.6575    0.0000 C    0  0  0  0  0  0  0  0  0  0  0  0
    3.4547   -4.6385    0.0000 C    0  0  0  0  0  0  0  0  0  0  0  0
    5.7499   -0.6523    0.0000 C    0  0  0  0  0  0  0  0  0  0  0  0
    6.9014   -2.6575    0.0000 C    0  0  0  0  0  0  0  0  0  0  0  0
    8.0530   -1.9810    0.0000 C    0  0  0  0  0  0  0  0  0  0  0  0
    6.9014    0.0000    0.0000 C    0  0  0  0  0  0  0  0  0  0  0  0
    8.0530   -0.6523    0.0000 C    0  0  0  0  0  0  0  0  0  0  0  0
    3.2534   -7.9081    0.0000 Cl   0  0  0  0  0  0  0  0  0  0  0  0
  1  5  1  0  0  0  0
  1  7  1  0  0  0  0
  1  9  2  0  0  0  0
  2  8  1  0  0  0  0
  2  6  1  0  0  0  0
  2 11  2  0  0  0  0
  3  4  1  0  0  0  0
  3 12  2  0  0  0  0
  3 13  1  0  0  0  0
  4  5  1  0  0  0  0
  5 18  2  0  0  0  0
  6 16  1  0  0  0  0
  6 17  1  0  0  0  0
  7 10  1  0  0  0  0
  8 10  1  0  0  0  0
  9 15  1  0  0  0  0
  9 20  1  0  0  0  0
 10 23  1  0  0  0  0
 13 24  1  0  0  0  0
 13 25  2  0  0  0  0
 14 22  1  0  0  0  0
 14 21  1  0  0  0  0
 16 21  1  0  0  0  0
 17 22  1  0  0  0  0
 18 19  1  0  0  0  0
 19 20  2  0  0  0  0
 24 27  2  0  0  0  0
 25 26  1  0  0  0  0
 26 28  2  0  0  0  0
 27 28  1  0  0  0  0
M  END
> <ID>
13749

> <Formula>
C21H25Cl2N3O3

> <FW>
438.3475 (401.8866+36.4609)

> <DSSTox_CID>
28685

> <DSSTox_RID>
82955

> <DSSTox_GSID>
48759

> <DSSTox_FileID_Sort>
7632

> <TS_ChemName>
Fominoben hydrochloride

> <TS_ChemName_Synonyms>


> <TS_CASRN>
24600-36-0

> <CASRN_ChemName_Relationship>
primary

> <TS_Description>
single chemical compound

> <ChemNote>
stereochem

> <STRUCTURE_Shown>
tested chemical

> <STRUCTURE_Formula>
C21H25Cl2N3O3

> <STRUCTURE_MW>
438.3475

> <STRUCTURE_ChemType>
defined organic

> <STRUCTURE_DefinedOrganicForm>
complex

> <STRUCTURE_IUPAC>
N-[3-chloro-2-({methyl[2-(morpholin-4-yl)-2-oxoethyl]amino}methyl)phenyl]benzamide hydrochloride (1:1)

> <STRUCTURE_SMILES>
Cl.O=C(CN(C)Cc2c(NC(=O)c1ccccc1)cccc2Cl)N3CCOCC3

> <STRUCTURE_SMILES_Desalt>
O=C(CN(C)Cc2c(NC(=O)c1ccccc1)cccc2Cl)N3CCOCC3

> <Substance_modify_yyyymmdd>
20111204

$$$$
