24602-86-6
ChemmineR-0915142007XD

 21 21  0  0  0  0  0  0  0  0  1 V2000
    3.4383   -3.3096    0.0000 N   0  0  0  0  0  0  0  0  0  0  0  0
    1.1216   -2.0041    0.0000 O   0  0  0  0  0  0  0  0  0  0  0  0
    3.4199   -1.9674    0.0000 C   0  0  0  0  0  0  0  0  0  0  0  0
    2.2983   -3.9899    0.0000 C   0  0  0  0  0  0  0  0  0  0  0  0
    1.1400   -3.3463    0.0000 C   0  0  0  0  0  0  0  0  0  0  0  0
    2.2615   -1.3422    0.0000 C   0  0  0  0  0  0  0  0  0  0  0  0
    2.2248    0.0000    0.0000 C   0  0  0  0  0  0  0  0  0  0  0  0
    0.0000   -4.0266    0.0000 C   0  0  0  0  0  0  0  0  0  0  0  0
    4.6150   -3.9531    0.0000 C   0  0  0  0  0  0  0  0  0  0  0  0
    5.7550   -3.2544    0.0000 C   0  0  0  0  0  0  0  0  0  0  0  0
    6.8949   -3.8979    0.0000 C   0  0  0  0  0  0  0  0  0  0  0  0
    8.0349   -3.2176    0.0000 C   0  0  0  0  0  0  0  0  0  0  0  0
    9.1932   -3.8612    0.0000 C   0  0  0  0  0  0  0  0  0  0  0  0
   10.3332   -3.1809    0.0000 C   0  0  0  0  0  0  0  0  0  0  0  0
   11.4916   -3.8428    0.0000 C   0  0  0  0  0  0  0  0  0  0  0  0
   12.6131   -3.1441    0.0000 C   0  0  0  0  0  0  0  0  0  0  0  0
   13.7899   -3.7876    0.0000 C   0  0  0  0  0  0  0  0  0  0  0  0
   14.9298   -3.0889    0.0000 C   0  0  0  0  0  0  0  0  0  0  0  0
   16.0882   -3.7325    0.0000 C   0  0  0  0  0  0  0  0  0  0  0  0
   17.2281   -3.0522    0.0000 C   0  0  0  0  0  0  0  0  0  0  0  0
   18.3865   -3.7141    0.0000 C   0  0  0  0  0  0  0  0  0  0  0  0
  1  3  1  0  0  0  0
  1  4  1  0  0  0  0
  1  9  1  0  0  0  0
  2  5  1  0  0  0  0
  2  6  1  0  0  0  0
  3  6  1  0  0  0  0
  4  5  1  0  0  0  0
  5  8  1  0  0  0  0
  6  7  1  0  0  0  0
  9 10  1  0  0  0  0
 10 11  1  0  0  0  0
 11 12  1  0  0  0  0
 12 13  1  0  0  0  0
 13 14  1  0  0  0  0
 14 15  1  0  0  0  0
 15 16  1  0  0  0  0
 16 17  1  0  0  0  0
 17 18  1  0  0  0  0
 18 19  1  0  0  0  0
 19 20  1  0  0  0  0
 20 21  1  0  0  0  0
M  END
> <ID>
8342

> <Formula>
C19H39NO

> <FW>
297.5191

> <DSSTox_CID>
21376

> <DSSTox_RID>
79708

> <DSSTox_GSID>
41376

> <DSSTox_FileID_Sort>
4390

> <TS_ChemName>
Tridemorph

> <TS_ChemName_Synonyms>
2,6-Dimethyl-4-tridecylmorpholine

> <TS_CASRN>
24602-86-6

> <CASRN_ChemName_Relationship>
primary

> <TS_Description>
single chemical compound

> <ChemNote>


> <STRUCTURE_Shown>
tested chemical

> <STRUCTURE_Formula>
C19H39NO

> <STRUCTURE_MW>
297.5191

> <STRUCTURE_ChemType>
defined organic

> <STRUCTURE_DefinedOrganicForm>
parent

> <STRUCTURE_IUPAC>
2,6-dimethyl-4-tridecylmorpholine

> <STRUCTURE_SMILES>
CC1CN(CCCCCCCCCCCCC)CC(C)O1

> <STRUCTURE_SMILES_Desalt>
CC1CN(CCCCCCCCCCCCC)CC(C)O1

> <Substance_modify_yyyymmdd>
20080825

$$$$
