24634-61-5
ChemmineR-0915142007XD

  9  7  0  0  0  0  0  0  0  0  2 V2000
    2.9891   -1.3110    0.0000 C   0  0  0  0  0  0  0  0  0  0  0  0
    4.1341   -1.9840    0.0000 C   0  0  0  0  0  0  0  0  0  0  0  0
    5.2703   -1.3110    0.0000 C   0  0  0  0  0  0  0  0  0  0  0  0
    6.4590   -1.9840    0.0000 C   0  0  0  0  0  0  0  0  0  0  0  0
    7.6040   -1.3110    0.0000 C   0  0  0  0  0  0  0  0  0  0  0  0
    8.7402   -1.9840    0.0000 C   0  0  0  0  0  0  0  0  0  0  0  0
    2.9891    0.0000    0.0000 O   0  0  0  0  0  0  0  0  0  0  0  0
    1.8354   -1.9840    0.0000 O   0  5  0  0  0  0  0  0  0  0  0  0
    0.0000   -1.8879    0.0000 K   0  3  0  0  0  0  0  0  0  0  0  0
  1  2  1  0  0  0  0
  1  8  1  0  0  0  0
  1  7  2  0  0  0  0
  2  3  2  0  0  0  0
  3  4  1  0  0  0  0
  4  5  2  0  0  0  0
  5  6  1  0  0  0  0
M  END
> <ID>
5440

> <Formula>
C6H7KO2

> <FW>
150.2169 (111.1191+39.0978)

> <DSSTox_CID>
7835

> <DSSTox_RID>
78585

> <DSSTox_GSID>
27835

> <DSSTox_FileID_Sort>
3268

> <TS_ChemName>
2,4-Hexadienoic acid, potassium salt, (2E,4E)-

> <TS_ChemName_Synonyms>
2E,4E-Potassium sorbate

> <TS_CASRN>
24634-61-5

> <CASRN_ChemName_Relationship>
primary

> <TS_Description>
single chemical compound

> <ChemNote>
stereochem; parent [110-44-1]

> <STRUCTURE_Shown>
tested chemical

> <STRUCTURE_Formula>
C6H7KO2

> <STRUCTURE_MW>
150.2169

> <STRUCTURE_ChemType>
defined organic

> <STRUCTURE_DefinedOrganicForm>
salt

> <STRUCTURE_IUPAC>
potassium (2E,4E)-hexa-2,4-dienoate

> <STRUCTURE_SMILES>
[K+].[O-]C(=O)\C=C\C=C\C

> <STRUCTURE_SMILES_Desalt>
C\C=C\C=C\C(=O)O

> <Substance_modify_yyyymmdd>
20131003

$$$$
