2463-84-5
ChemmineR-0915142007XD

 17 17  0  0  0  0  0  0  0  0  2 V2000
    7.7614   -3.1402    0.0000 N    0  3  0  0  0  0  0  0  0  0  0  0
    2.0162   -1.1597    0.0000 P    0  0  0  0  0  0  0  0  0  0  0  0
    6.6195   -2.4622    0.0000 C    0  0  0  0  0  0  0  0  0  0  0  0
    4.3178   -1.1330    0.0000 C    0  0  0  0  0  0  0  0  0  0  0  0
    5.4597   -3.1224    0.0000 C    0  0  0  0  0  0  0  0  0  0  0  0
    3.1581   -0.4728    0.0000 O    0  0  0  0  0  0  0  0  0  0  0  0
    4.3178   -2.4533    0.0000 C    0  0  0  0  0  0  0  0  0  0  0  0
    2.6763   -2.2927    0.0000 S    0  0  0  0  0  0  0  0  0  0  0  0
    8.9211   -2.4622    0.0000 O    0  5  0  0  0  0  0  0  0  0  0  0
    7.7614   -4.4784    0.0000 O    0  0  0  0  0  0  0  0  0  0  0  0
    5.4597   -0.4728    0.0000 C    0  0  0  0  0  0  0  0  0  0  0  0
    6.6195   -1.1330    0.0000 C    0  0  0  0  0  0  0  0  0  0  0  0
    1.3203    0.0000    0.0000 O    0  0  0  0  0  0  0  0  0  0  0  0
    0.8653   -1.8377    0.0000 O    0  0  0  0  0  0  0  0  0  0  0  0
    3.1402   -3.1135    0.0000 Cl   0  0  0  0  0  0  0  0  0  0  0  0
    0.0000   -0.0178    0.0000 C    0  0  0  0  0  0  0  0  0  0  0  0
    0.8653   -3.1402    0.0000 C    0  0  0  0  0  0  0  0  0  0  0  0
  1  3  1  0  0  0  0
  1  9  1  0  0  0  0
  1 10  2  0  0  0  0
  2  6  1  0  0  0  0
  2  8  2  0  0  0  0
  2 13  1  0  0  0  0
  2 14  1  0  0  0  0
  3  5  1  0  0  0  0
  3 12  2  0  0  0  0
  4 11  2  0  0  0  0
  4  6  1  0  0  0  0
  4  7  1  0  0  0  0
  5  7  2  0  0  0  0
  7 15  1  0  0  0  0
 11 12  1  0  0  0  0
 13 16  1  0  0  0  0
 14 17  1  0  0  0  0
M  END
> <ID>
8799

> <Formula>
C8H9ClNO5PS

> <FW>
297.6525

> <DSSTox_CID>
21850

> <DSSTox_RID>
79857

> <DSSTox_GSID>
41850

> <DSSTox_FileID_Sort>
4539

> <TS_ChemName>
Dicapthon

> <TS_ChemName_Synonyms>


> <TS_CASRN>
2463-84-5

> <CASRN_ChemName_Relationship>
primary

> <TS_Description>
single chemical compound

> <ChemNote>


> <STRUCTURE_Shown>
tested chemical

> <STRUCTURE_Formula>
C8H9ClNO5PS

> <STRUCTURE_MW>
297.6525

> <STRUCTURE_ChemType>
defined organic

> <STRUCTURE_DefinedOrganicForm>
parent

> <STRUCTURE_IUPAC>
O-(2-chloro-4-nitrophenyl) O,O-dimethyl phosphorothioate

> <STRUCTURE_SMILES>
Clc1cc(ccc1OP(=S)(OC)OC)[N+]([O-])=O

> <STRUCTURE_SMILES_Desalt>
Clc1cc(ccc1OP(=S)(OC)OC)[N+]([O-])=O

> <Substance_modify_yyyymmdd>
20080825

$$$$
