2465-27-2
ChemmineR-0915142007XD

 21 21  0  0  0  0  0  0  0  0  1 V2000
    5.7577   -1.3243    0.0000 C    0  0  0  0  0  0  0  0  0  0  0  0
    6.9093   -1.9922    0.0000 C    0  0  0  0  0  0  0  0  0  0  0  0
    8.0608   -1.3243    0.0000 C    0  0  0  0  0  0  0  0  0  0  0  0
    9.2124   -1.9922    0.0000 C    0  0  0  0  0  0  0  0  0  0  0  0
    9.2124   -3.3164    0.0000 C    0  0  0  0  0  0  0  0  0  0  0  0
   10.3639   -3.9843    0.0000 N    0  0  0  0  0  0  0  0  0  0  0  0
   10.3639   -5.3201    0.0000 C    0  0  0  0  0  0  0  0  0  0  0  0
   11.5154   -3.3164    0.0000 C    0  0  0  0  0  0  0  0  0  0  0  0
    8.0608   -3.9843    0.0000 C    0  0  0  0  0  0  0  0  0  0  0  0
    6.9093   -3.3164    0.0000 C    0  0  0  0  0  0  0  0  0  0  0  0
    4.6062   -1.9922    0.0000 C    0  0  0  0  0  0  0  0  0  0  0  0
    4.6062   -3.3164    0.0000 C    0  0  0  0  0  0  0  0  0  0  0  0
    3.4546   -3.9843    0.0000 C    0  0  0  0  0  0  0  0  0  0  0  0
    2.3031   -3.3164    0.0000 C    0  0  0  0  0  0  0  0  0  0  0  0
    1.1515   -3.9843    0.0000 N    0  0  0  0  0  0  0  0  0  0  0  0
    0.0000   -3.3164    0.0000 C    0  0  0  0  0  0  0  0  0  0  0  0
    1.1515   -5.3201    0.0000 C    0  0  0  0  0  0  0  0  0  0  0  0
    2.3031   -1.9922    0.0000 C    0  0  0  0  0  0  0  0  0  0  0  0
    3.4546   -1.3243    0.0000 C    0  0  0  0  0  0  0  0  0  0  0  0
    5.7577    0.0000    0.0000 N    0  0  0  0  0  0  0  0  0  0  0  0
    5.8498   -5.0898    0.0000 Cl   0  0  0  0  0  0  0  0  0  0  0  0
  1  2  1  0  0  0  0
  1 11  1  0  0  0  0
  1 20  2  0  0  0  0
  2  3  1  0  0  0  0
  2 10  2  0  0  0  0
  3  4  2  0  0  0  0
  4  5  1  0  0  0  0
  5  6  1  0  0  0  0
  5  9  2  0  0  0  0
  6  7  1  0  0  0  0
  6  8  1  0  0  0  0
  9 10  1  0  0  0  0
 11 12  1  0  0  0  0
 11 19  2  0  0  0  0
 12 13  2  0  0  0  0
 13 14  1  0  0  0  0
 14 15  1  0  0  0  0
 14 18  2  0  0  0  0
 15 16  1  0  0  0  0
 15 17  1  0  0  0  0
 18 19  1  0  0  0  0
M  END
> <ID>
111

> <Formula>
C17H22ClN3

> <FW>
303.8297 (267.3687+36.4609)

> <DSSTox_CID>
114

> <DSSTox_RID>
75376

> <DSSTox_GSID>
20114

> <DSSTox_FileID_Sort>
60

> <TS_ChemName>
Auramine hydrochloride

> <TS_ChemName_Synonyms>
Auramine-O; Benzophenoneidum; C.I. Basic Yellow No. 2

> <TS_CASRN>
2465-27-2

> <CASRN_ChemName_Relationship>
primary

> <TS_Description>
single chemical compound

> <ChemNote>
C.I. 41000; parent [492-80-8]

> <STRUCTURE_Shown>
tested chemical

> <STRUCTURE_Formula>
C17H22ClN3

> <STRUCTURE_MW>
303.8297

> <STRUCTURE_ChemType>
defined organic

> <STRUCTURE_DefinedOrganicForm>
complex

> <STRUCTURE_IUPAC>
4,4'-carbonimidoylbis(N,N-dimethylaniline) hydrochloride (1:1)

> <STRUCTURE_SMILES>
Cl.CN(C)c1ccc(cc1)C(=N)c2ccc(cc2)N(C)C

> <STRUCTURE_SMILES_Desalt>
CN(C)c1ccc(cc1)C(=N)c2ccc(cc2)N(C)C

> <Substance_modify_yyyymmdd>
20131003

$$$$
