2465-59-0
ChemmineR-0915142007XD

 11 12  0  0  0  0  0  0  0  0  1 V2000
    3.4560   -0.6549    0.0000 C   0  0  0  0  0  0  0  0  0  0  0  0
    3.4560   -1.9866    0.0000 C   0  0  0  0  0  0  0  0  0  0  0  0
    2.3058    0.0000    0.0000 N   0  0  0  0  0  0  0  0  0  0  0  0
    4.7217   -0.2421    0.0000 N   0  0  0  0  0  0  0  0  0  0  0  0
    2.3058   -2.6580    0.0000 C   0  0  0  0  0  0  0  0  0  0  0  0
    4.7217   -2.3994    0.0000 C   0  0  0  0  0  0  0  0  0  0  0  0
    1.1502   -0.6549    0.0000 C   0  0  0  0  0  0  0  0  0  0  0  0
    5.5032   -1.3263    0.0000 N   0  0  0  0  0  0  0  0  0  0  0  0
    1.1502   -1.9866    0.0000 N   0  0  0  0  0  0  0  0  0  0  0  0
    2.3058   -3.9843    0.0000 O   0  0  0  0  0  0  0  0  0  0  0  0
    0.0000    0.0000    0.0000 O   0  0  0  0  0  0  0  0  0  0  0  0
  1  2  1  0  0  0  0
  1  3  1  0  0  0  0
  1  4  2  0  0  0  0
  2  5  1  0  0  0  0
  2  6  2  0  0  0  0
  3  7  1  0  0  0  0
  4  8  1  0  0  0  0
  5  9  1  0  0  0  0
  5 10  2  0  0  0  0
  6  8  1  0  0  0  0
  7 11  2  0  0  0  0
  7  9  1  0  0  0  0
M  END
> <ID>
7004

> <Formula>
C5H4N4O2

> <FW>
152.1109

> <DSSTox_CID>
15209

> <DSSTox_RID>
79249

> <DSSTox_GSID>
35209

> <DSSTox_FileID_Sort>
3931

> <TS_ChemName>
Oxypurinol

> <TS_ChemName_Synonyms>
Oxypurinol (1H-Pyrazolo{3,4-d}pyrimidine-4,6(5H,7H)-dione)

> <TS_CASRN>
2465-59-0

> <CASRN_ChemName_Relationship>
primary

> <TS_Description>
single chemical compound

> <ChemNote>
tautomers

> <STRUCTURE_Shown>
tested chemical

> <STRUCTURE_Formula>
C5H4N4O2

> <STRUCTURE_MW>
152.1109

> <STRUCTURE_ChemType>
defined organic

> <STRUCTURE_DefinedOrganicForm>
parent

> <STRUCTURE_IUPAC>
2H-pyrazolo[3,4-d]pyrimidine-4,6(5H,7H)-dione

> <STRUCTURE_SMILES>
O=C1NC(=O)Nc2nncc12

> <STRUCTURE_SMILES_Desalt>
O=C1NC(=O)Nc2nncc12

> <Substance_modify_yyyymmdd>
20080429

$$$$
