24678-13-5
ChemmineR-0915142007XD

 27 29  0  0  0  0  0  0  0  0  1 V2000
   12.6739    0.0000    0.0000 F   0  0  0  0  0  0  0  0  0  0  0  0
   12.6739   -1.3268    0.0000 C   0  0  0  0  0  0  0  0  0  0  0  0
   13.8210   -1.9902    0.0000 C   0  0  0  0  0  0  0  0  0  0  0  0
   13.8210   -3.3309    0.0000 C   0  0  0  0  0  0  0  0  0  0  0  0
   12.6739   -3.9943    0.0000 C   0  0  0  0  0  0  0  0  0  0  0  0
   11.5129   -3.3309    0.0000 C   0  0  0  0  0  0  0  0  0  0  0  0
   11.5129   -1.9902    0.0000 C   0  0  0  0  0  0  0  0  0  0  0  0
   12.6739   -5.3211    0.0000 C   0  0  0  0  0  0  0  0  0  0  0  0
   13.8210   -5.9845    0.0000 O   0  0  0  0  0  0  0  0  0  0  0  0
   11.5129   -5.9845    0.0000 C   0  0  0  0  0  0  0  0  0  0  0  0
   10.3658   -5.3211    0.0000 C   0  0  0  0  0  0  0  0  0  0  0  0
    9.2186   -5.9845    0.0000 C   0  0  0  0  0  0  0  0  0  0  0  0
    8.0577   -5.3211    0.0000 N   0  0  0  0  0  0  0  0  0  0  0  0
    6.9105   -5.9845    0.0000 C   0  0  0  0  0  0  0  0  0  0  0  0
    5.7634   -5.3211    0.0000 C   0  0  0  0  0  0  0  0  0  0  0  0
    5.7634   -3.9943    0.0000 C   0  0  0  0  0  0  0  0  0  0  0  0
    6.9105   -3.3309    0.0000 C   0  0  0  0  0  0  0  0  0  0  0  0
    8.0577   -3.9943    0.0000 C   0  0  0  0  0  0  0  0  0  0  0  0
    4.6024   -3.3309    0.0000 C   0  0  0  0  0  0  0  0  0  0  0  0
    4.6024   -1.9902    0.0000 O   0  0  0  0  0  0  0  0  0  0  0  0
    3.4553   -3.9943    0.0000 C   0  0  0  0  0  0  0  0  0  0  0  0
    3.4553   -5.3211    0.0000 C   0  0  0  0  0  0  0  0  0  0  0  0
    2.3081   -5.9845    0.0000 C   0  0  0  0  0  0  0  0  0  0  0  0
    1.1471   -5.3211    0.0000 C   0  0  0  0  0  0  0  0  0  0  0  0
    0.0000   -5.9845    0.0000 F   0  0  0  0  0  0  0  0  0  0  0  0
    1.1471   -3.9943    0.0000 C   0  0  0  0  0  0  0  0  0  0  0  0
    2.3081   -3.3309    0.0000 C   0  0  0  0  0  0  0  0  0  0  0  0
  1  2  1  0  0  0  0
  2  3  2  0  0  0  0
  2  7  1  0  0  0  0
  3  4  1  0  0  0  0
  4  5  2  0  0  0  0
  5  6  1  0  0  0  0
  5  8  1  0  0  0  0
  6  7  2  0  0  0  0
  8  9  2  0  0  0  0
  8 10  1  0  0  0  0
 10 11  1  0  0  0  0
 11 12  1  0  0  0  0
 12 13  1  0  0  0  0
 13 14  1  0  0  0  0
 13 18  1  0  0  0  0
 14 15  1  0  0  0  0
 15 16  1  0  0  0  0
 16 17  1  0  0  0  0
 16 19  1  0  0  0  0
 17 18  1  0  0  0  0
 19 20  2  0  0  0  0
 19 21  1  0  0  0  0
 21 22  2  0  0  0  0
 21 27  1  0  0  0  0
 22 23  1  0  0  0  0
 23 24  2  0  0  0  0
 24 25  1  0  0  0  0
 24 26  1  0  0  0  0
 26 27  2  0  0  0  0
M  END
> <ID>
11424

> <Formula>
C22H23F2NO2

> <FW>
371.4203

> <DSSTox_CID>
26120

> <DSSTox_RID>
81356

> <DSSTox_GSID>
46120

> <DSSTox_FileID_Sort>
6037

> <TS_ChemName>
Lenperone

> <TS_ChemName_Synonyms>


> <TS_CASRN>
24678-13-5

> <CASRN_ChemName_Relationship>
primary

> <TS_Description>
single chemical compound

> <ChemNote>


> <STRUCTURE_Shown>
tested chemical

> <STRUCTURE_Formula>
C22H23F2NO2

> <STRUCTURE_MW>
371.4203

> <STRUCTURE_ChemType>
defined organic

> <STRUCTURE_DefinedOrganicForm>
parent

> <STRUCTURE_IUPAC>
4-[4-(4-fluorobenzoyl)piperidin-1-yl]-1-(4-fluorophenyl)butan-1-one

> <STRUCTURE_SMILES>
Fc1ccc(cc1)C(=O)C3CCN(CCCC(=O)c2ccc(F)cc2)CC3

> <STRUCTURE_SMILES_Desalt>
Fc1ccc(cc1)C(=O)C3CCN(CCCC(=O)c2ccc(F)cc2)CC3

> <Substance_modify_yyyymmdd>
20110818

$$$$
