2467-03-0
ChemmineR-0915142007XD

 15 16  0  0  0  0  0  0  0  0  1 V2000
    2.3057   -0.6530    0.0000 C   0  0  0  0  0  0  0  0  0  0  0  0
    3.4586    0.0000    0.0000 O   0  0  0  0  0  0  0  0  0  0  0  0
    2.3057   -1.9913    0.0000 C   0  0  0  0  0  0  0  0  0  0  0  0
    1.1529    0.0000    0.0000 C   0  0  0  0  0  0  0  0  0  0  0  0
    0.0000   -0.6530    0.0000 C   0  0  0  0  0  0  0  0  0  0  0  0
    1.1529   -2.6605    0.0000 C   0  0  0  0  0  0  0  0  0  0  0  0
    0.0000   -1.9913    0.0000 C   0  0  0  0  0  0  0  0  0  0  0  0
    3.4586   -2.6605    0.0000 C   0  0  0  0  0  0  0  0  0  0  0  0
    5.7563    0.0000    0.0000 C   0  0  0  0  0  0  0  0  0  0  0  0
    6.9092   -0.6530    0.0000 C   0  0  0  0  0  0  0  0  0  0  0  0
    6.9092   -1.9913    0.0000 C   0  0  0  0  0  0  0  0  0  0  0  0
    5.7563   -2.6605    0.0000 C   0  0  0  0  0  0  0  0  0  0  0  0
    4.6195   -1.9913    0.0000 C   0  0  0  0  0  0  0  0  0  0  0  0
    4.6195   -0.6530    0.0000 C   0  0  0  0  0  0  0  0  0  0  0  0
    8.0620    0.0000    0.0000 O   0  0  0  0  0  0  0  0  0  0  0  0
  1  2  1  0  0  0  0
  1  3  2  0  0  0  0
  1  4  1  0  0  0  0
  3  6  1  0  0  0  0
  3  8  1  0  0  0  0
  4  5  2  0  0  0  0
  5  7  1  0  0  0  0
  6  7  2  0  0  0  0
  8 13  1  0  0  0  0
  9 14  2  0  0  0  0
  9 10  1  0  0  0  0
 10 11  2  0  0  0  0
 10 15  1  0  0  0  0
 11 12  1  0  0  0  0
 12 13  2  0  0  0  0
 13 14  1  0  0  0  0
M  END
> <ID>
10537

> <Formula>
C13H12O2

> <FW>
200.2332

> <DSSTox_CID>
24890

> <DSSTox_RID>
80562

> <DSSTox_GSID>
44890

> <DSSTox_FileID_Sort>
5244

> <TS_ChemName>
2-(4-Hydroxybenzyl)phenol

> <TS_ChemName_Synonyms>
2-(4-Hydroxybenzyl)phenol (o-[(4-hydroxyphenyl)methyl]phenol)

> <TS_CASRN>
2467-03-0

> <CASRN_ChemName_Relationship>
primary

> <TS_Description>
single chemical compound

> <ChemNote>


> <STRUCTURE_Shown>
tested chemical

> <STRUCTURE_Formula>
C13H12O2

> <STRUCTURE_MW>
200.2332

> <STRUCTURE_ChemType>
defined organic

> <STRUCTURE_DefinedOrganicForm>
parent

> <STRUCTURE_IUPAC>
2-(4-hydroxybenzyl)phenol

> <STRUCTURE_SMILES>
Oc2ccccc2Cc1ccc(O)cc1

> <STRUCTURE_SMILES_Desalt>
Oc2ccccc2Cc1ccc(O)cc1

> <Substance_modify_yyyymmdd>
20091116

$$$$
