2469-55-8
ChemmineR-0915142007XD

 15 14  0  0  0  0  0  0  0  0  1 V2000
    1.1506   -2.0021    0.0000 C    0  0  0  0  0  0  0  0  0  0  0  0
    2.3013   -1.3347    0.0000 C    0  0  0  0  0  0  0  0  0  0  0  0
    3.4404   -2.0021    0.0000 C    0  0  0  0  0  0  0  0  0  0  0  0
    4.5910   -1.3347    0.0000 Si   0  0  0  0  0  0  0  0  0  0  0  0
    5.7417   -2.0021    0.0000 O    0  0  0  0  0  0  0  0  0  0  0  0
    6.8923   -1.3347    0.0000 Si   0  0  0  0  0  0  0  0  0  0  0  0
    8.0544   -2.0021    0.0000 C    0  0  0  0  0  0  0  0  0  0  0  0
    9.2051   -1.3347    0.0000 C    0  0  0  0  0  0  0  0  0  0  0  0
   10.3557   -2.0021    0.0000 C    0  0  0  0  0  0  0  0  0  0  0  0
   11.5063   -1.3347    0.0000 N    0  0  0  0  0  0  0  0  0  0  0  0
    0.0000   -1.3347    0.0000 N    0  0  0  0  0  0  0  0  0  0  0  0
    4.5910    0.0000    0.0000 C    0  0  0  0  0  0  0  0  0  0  0  0
    3.4404   -0.6789    0.0000 C    0  0  0  0  0  0  0  0  0  0  0  0
    6.8923    0.0000    0.0000 C    0  0  0  0  0  0  0  0  0  0  0  0
    5.7417   -0.6789    0.0000 C    0  0  0  0  0  0  0  0  0  0  0  0
  1  2  1  0  0  0  0
  1 11  1  0  0  0  0
  2  3  1  0  0  0  0
  3  4  1  0  0  0  0
  4  5  1  0  0  0  0
  4 12  1  0  0  0  0
  4 13  1  0  0  0  0
  5  6  1  0  0  0  0
  6  7  1  0  0  0  0
  6 14  1  0  0  0  0
  6 15  1  0  0  0  0
  7  8  1  0  0  0  0
  8  9  1  0  0  0  0
  9 10  1  0  0  0  0
M  END
> <ID>
10275

> <Formula>
C10H28N2OSi2

> <FW>
248.5131

> <DSSTox_CID>
24621

> <DSSTox_RID>
80356

> <DSSTox_GSID>
44621

> <DSSTox_FileID_Sort>
5038

> <TS_ChemName>
3,3'-(1,1,3,3-Tetramethyldisiloxane-1,3-diyl)dipropan-1-amine

> <TS_ChemName_Synonyms>
3,3'-(1,1,3,3-Tetramethyldisiloxane-1,3-diyl)dipropan-1-amine (1-Propanamine, 3,3'-(1,1,3,3-tetramethyl-1,3-disiloxanediyl)bis-)

> <TS_CASRN>
2469-55-8

> <CASRN_ChemName_Relationship>
primary

> <TS_Description>
single chemical compound

> <ChemNote>


> <STRUCTURE_Shown>
tested chemical

> <STRUCTURE_Formula>
C10H28N2OSi2

> <STRUCTURE_MW>
248.5131

> <STRUCTURE_ChemType>
organometallic

> <STRUCTURE_DefinedOrganicForm>


> <STRUCTURE_IUPAC>
3,3'-(1,1,3,3-tetramethyldisiloxane-1,3-diyl)dipropan-1-amine

> <STRUCTURE_SMILES>
C[Si](C)(CCCN)O[Si](C)(C)CCCN

> <STRUCTURE_SMILES_Desalt>
C[Si](C)(CCCN)O[Si](C)(C)CCCN

> <Substance_modify_yyyymmdd>
20091116

$$$$
