24729-96-2
ChemmineR-0915142007XD

 32 33  0  0  1  0  0  0  0  0  1 V2000
   11.2038   -2.6845    0.0000 C    0  0  0  0  0  0  0  0  0  0  0  0
   11.2038   -4.0268    0.0000 C    0  0  0  0  0  0  0  0  0  0  0  0
   10.0670   -2.0134    0.0000 O    0  0  0  0  0  0  0  0  0  0  0  0
   10.0670   -4.6706    0.0000 C    0  0  0  0  0  0  0  0  0  0  0  0
    8.8891   -2.6845    0.0000 C    0  0  0  0  0  0  0  0  0  0  0  0
    8.8891   -4.0268    0.0000 C    0  0  0  0  0  0  0  0  0  0  0  0
   12.3681   -2.0134    0.0000 S    0  0  0  0  0  0  0  0  0  0  0  0
   13.5186   -2.6845    0.0000 C    0  0  0  0  0  0  0  0  0  0  0  0
   12.3681   -4.6706    0.0000 O    0  0  0  0  0  0  0  0  0  0  0  0
   10.0670   -6.0265    0.0000 O    0  0  0  0  0  0  0  0  0  0  0  0
    7.7386   -4.6706    0.0000 O    0  0  0  0  0  0  0  0  0  0  0  0
    7.7386   -2.0134    0.0000 C    0  0  0  0  0  0  0  0  0  0  0  0
    7.7386   -0.6574    0.0000 C    0  0  0  0  0  0  0  0  0  0  0  0
    6.5881   -2.6845    0.0000 N    0  0  0  0  0  0  0  0  0  0  0  0
    8.8891    0.0000    0.0000 Cl   0  0  0  0  0  0  0  0  0  0  0  0
    6.5881   -0.0137    0.0000 C    0  0  0  0  0  0  0  0  0  0  0  0
    5.4239   -2.0134    0.0000 C    0  0  0  0  0  0  0  0  0  0  0  0
    5.4239   -0.6574    0.0000 O    0  0  0  0  0  0  0  0  0  0  0  0
    4.2870   -2.6845    0.0000 C    0  0  0  0  0  0  0  0  0  0  0  0
    2.1093   -2.6845    0.0000 C    0  0  0  0  0  0  0  0  0  0  0  0
    3.1776   -1.9038    0.0000 N    0  0  0  0  0  0  0  0  0  0  0  0
    2.5202   -3.9446    0.0000 C    0  0  0  0  0  0  0  0  0  0  0  0
    3.8761   -3.9446    0.0000 C    0  0  0  0  0  0  0  0  0  0  0  0
    3.1776   -0.5616    0.0000 C    0  0  0  0  0  0  0  0  0  0  0  0
    2.0134   -4.9445    0.0000 C    0  0  0  0  0  0  0  0  0  0  0  0
    0.6574   -4.9445    0.0000 C    0  0  0  0  0  0  0  0  0  0  0  0
    0.0000   -3.7940    0.0000 C    0  0  0  0  0  0  0  0  0  0  0  0
   12.3681   -6.0128    0.0000 P    0  0  0  0  0  0  0  0  0  0  0  0
   11.2175   -6.6977    0.0000 O    0  0  0  0  0  0  0  0  0  0  0  0
   13.0666   -7.1496    0.0000 O    0  0  0  0  0  0  0  0  0  0  0  0
   13.6966   -6.0128    0.0000 O    0  0  0  0  0  0  0  0  0  0  0  0
    8.8891   -1.3423    0.0000 H    0  0  0  0  0  0  0  0  0  0  0  0
  1  2  1  0  0  0  0
  1  3  1  0  0  0  0
  1  7  1  6  0  0  0
  2  4  1  0  0  0  0
  2  9  1  6  0  0  0
  3  5  1  0  0  0  0
  4  6  1  0  0  0  0
  4 10  1  1  0  0  0
  5  6  1  0  0  0  0
  5 12  1  0  0  0  0
  5 32  1  6  0  0  0
  6 11  1  1  0  0  0
  7  8  1  0  0  0  0
  9 28  1  0  0  0  0
 12 13  1  0  0  0  0
 12 14  1  6  0  0  0
 13 15  1  6  0  0  0
 13 16  1  0  0  0  0
 14 17  1  0  0  0  0
 17 18  2  0  0  0  0
 19 17  1  6  0  0  0
 19 21  1  0  0  0  0
 19 23  1  0  0  0  0
 20 21  1  0  0  0  0
 20 22  1  0  0  0  0
 21 24  1  0  0  0  0
 22 23  1  0  0  0  0
 22 25  1  1  0  0  0
 25 26  1  0  0  0  0
 26 27  1  0  0  0  0
 28 29  2  0  0  0  0
 28 30  1  0  0  0  0
 28 31  1  0  0  0  0
M  END
> <ID>
13671

> <Formula>
C18H34ClN2O8PS

> <FW>
504.9629

> <DSSTox_CID>
28603

> <DSSTox_RID>
82873

> <DSSTox_GSID>
48677

> <DSSTox_FileID_Sort>
7550

> <TS_ChemName>
Clindamycin phosphate

> <TS_ChemName_Synonyms>
CLINDAMYCIN PO4

> <TS_CASRN>
24729-96-2

> <CASRN_ChemName_Relationship>
primary

> <TS_Description>
single chemical compound

> <ChemNote>


> <STRUCTURE_Shown>
tested chemical

> <STRUCTURE_Formula>
C18H34ClN2O8PS

> <STRUCTURE_MW>
504.9629

> <STRUCTURE_ChemType>
defined organic

> <STRUCTURE_DefinedOrganicForm>
parent

> <STRUCTURE_IUPAC>
methyl (5R)-5-[(1S,2S)-2-chloro-1-{[(4R)-1-methyl-4-propyl-L-prolyl]amino}propyl]-2-O-phosphono-1-thio-beta-L-arabinopyranoside

> <STRUCTURE_SMILES>
CS[C@H]1O[C@@H]([C@H](O)[C@H](O)[C@H]1OP(=O)(O)O)[C@H](NC(=O)[C@@H]2C[C@@H](CCC)CN2C)[C@H](C)Cl

> <STRUCTURE_SMILES_Desalt>
CS[C@H]1O[C@@H]([C@H](O)[C@H](O)[C@H]1OP(=O)(O)O)[C@H](NC(=O)[C@@H]2C[C@@H](CCC)CN2C)[C@H](C)Cl

> <Substance_modify_yyyymmdd>
20111204

$$$$
