2478-10-6
ChemmineR-0915142007XD

 10  9  0  0  0  0  0  0  0  0  1 V2000
    6.8949   -1.3238    0.0000 C   0  0  0  0  0  0  0  0  0  0  0  0
    8.0441   -1.9949    0.0000 C   0  0  0  0  0  0  0  0  0  0  0  0
    9.1932   -1.3238    0.0000 C   0  0  0  0  0  0  0  0  0  0  0  0
    6.8949    0.0000    0.0000 O   0  0  0  0  0  0  0  0  0  0  0  0
    5.7366   -1.9949    0.0000 O   0  0  0  0  0  0  0  0  0  0  0  0
    4.5874   -1.3238    0.0000 C   0  0  0  0  0  0  0  0  0  0  0  0
    3.4567   -1.9949    0.0000 C   0  0  0  0  0  0  0  0  0  0  0  0
    2.2983   -1.3238    0.0000 C   0  0  0  0  0  0  0  0  0  0  0  0
    1.1492   -1.9949    0.0000 C   0  0  0  0  0  0  0  0  0  0  0  0
    0.0000   -1.3238    0.0000 O   0  0  0  0  0  0  0  0  0  0  0  0
  1  2  1  0  0  0  0
  1  5  1  0  0  0  0
  1  4  2  0  0  0  0
  2  3  2  0  0  0  0
  5  6  1  0  0  0  0
  6  7  1  0  0  0  0
  7  8  1  0  0  0  0
  8  9  1  0  0  0  0
  9 10  1  0  0  0  0
M  END
> <ID>
10277

> <Formula>
C7H12O3

> <FW>
144.1684

> <DSSTox_CID>
24623

> <DSSTox_RID>
80358

> <DSSTox_GSID>
44623

> <DSSTox_FileID_Sort>
5040

> <TS_ChemName>
4-Hydroxybutyl prop-2-enoate

> <TS_ChemName_Synonyms>
4-Hydroxybutyl prop-2-enoate (2-Propenoic acid, 4-hydroxybutyl ester)

> <TS_CASRN>
2478-10-6

> <CASRN_ChemName_Relationship>
primary

> <TS_Description>
single chemical compound

> <ChemNote>


> <STRUCTURE_Shown>
tested chemical

> <STRUCTURE_Formula>
C7H12O3

> <STRUCTURE_MW>
144.1684

> <STRUCTURE_ChemType>
defined organic

> <STRUCTURE_DefinedOrganicForm>
parent

> <STRUCTURE_IUPAC>
4-hydroxybutyl prop-2-enoate

> <STRUCTURE_SMILES>
O=C(C=C)OCCCCO

> <STRUCTURE_SMILES_Desalt>
O=C(C=C)OCCCCO

> <Substance_modify_yyyymmdd>
20091116

$$$$
