24801-88-5
ChemmineR-0915142007XD

 16 15  0  0  0  0  0  0  0  0  1 V2000
    3.3246   -6.6492    0.0000 Si   0  0  0  0  0  0  0  0  0  0  0  0
    4.6524   -6.6492    0.0000 O    0  0  0  0  0  0  0  0  0  0  0  0
    5.3313   -7.7973    0.0000 C    0  0  0  0  0  0  0  0  0  0  0  0
    6.6592   -7.7973    0.0000 C    0  0  0  0  0  0  0  0  0  0  0  0
    2.0067   -6.6492    0.0000 O    0  0  0  0  0  0  0  0  0  0  0  0
    1.3278   -7.7973    0.0000 C    0  0  0  0  0  0  0  0  0  0  0  0
    0.0000   -7.7973    0.0000 C    0  0  0  0  0  0  0  0  0  0  0  0
    3.3346   -7.9770    0.0000 O    0  0  0  0  0  0  0  0  0  0  0  0
    2.1864   -8.6559    0.0000 C    0  0  0  0  0  0  0  0  0  0  0  0
    2.1864   -9.9838    0.0000 C    0  0  0  0  0  0  0  0  0  0  0  0
    3.3246   -5.3114    0.0000 C    0  0  0  0  0  0  0  0  0  0  0  0
    2.1665   -4.6524    0.0000 C    0  0  0  0  0  0  0  0  0  0  0  0
    2.1864   -3.3346    0.0000 C    0  0  0  0  0  0  0  0  0  0  0  0
    1.0283   -1.3278    0.0000 C    0  0  0  0  0  0  0  0  0  0  0  0
    1.0283   -2.6657    0.0000 N    0  0  0  0  0  0  0  0  0  0  0  0
    1.0283    0.0000    0.0000 O    0  0  0  0  0  0  0  0  0  0  0  0
  1  2  1  0  0  0  0
  1  5  1  0  0  0  0
  1  8  1  0  0  0  0
  1 11  1  0  0  0  0
  2  3  1  0  0  0  0
  3  4  1  0  0  0  0
  5  6  1  0  0  0  0
  6  7  1  0  0  0  0
  8  9  1  0  0  0  0
  9 10  1  0  0  0  0
 11 12  1  0  0  0  0
 12 13  1  0  0  0  0
 13 15  1  0  0  0  0
 14 15  2  0  0  0  0
 14 16  2  0  0  0  0
M  END
> <ID>
7523

> <Formula>
C10H21NO4Si

> <FW>
247.3635

> <DSSTox_CID>
18847

> <DSSTox_RID>
79407

> <DSSTox_GSID>
38847

> <DSSTox_FileID_Sort>
4089

> <TS_ChemName>
Silane, triethoxy(3-isocyanatopropyl)-

> <TS_ChemName_Synonyms>


> <TS_CASRN>
24801-88-5

> <CASRN_ChemName_Relationship>
primary

> <TS_Description>
single chemical compound

> <ChemNote>


> <STRUCTURE_Shown>
tested chemical

> <STRUCTURE_Formula>
C10H21NO4Si

> <STRUCTURE_MW>
247.3635

> <STRUCTURE_ChemType>
organometallic

> <STRUCTURE_DefinedOrganicForm>


> <STRUCTURE_IUPAC>
triethoxy(3-isocyanatopropyl)silane

> <STRUCTURE_SMILES>
CCO[Si](OCC)(OCC)CCC\N=C=O

> <STRUCTURE_SMILES_Desalt>
CCO[Si](OCC)(OCC)CCC\N=C=O

> <Substance_modify_yyyymmdd>
20080429

$$$$
