24817-51-4
ChemmineR-0915142007XD

 15 15  0  0  0  0  0  0  0  0  1 V2000
    0.0000   -2.6646    0.0000 C   0  0  0  0  0  0  0  0  0  0  0  0
    1.1509   -2.0011    0.0000 C   0  0  0  0  0  0  0  0  0  0  0  0
    2.3121   -2.6646    0.0000 C   0  0  0  0  0  0  0  0  0  0  0  0
    3.4630   -2.0011    0.0000 C   0  0  0  0  0  0  0  0  0  0  0  0
    2.3121   -3.9918    0.0000 C   0  0  0  0  0  0  0  0  0  0  0  0
    4.6138   -2.6646    0.0000 O   0  0  0  0  0  0  0  0  0  0  0  0
    3.4630   -0.6739    0.0000 O   0  0  0  0  0  0  0  0  0  0  0  0
    5.7543   -2.0011    0.0000 C   0  0  0  0  0  0  0  0  0  0  0  0
    6.9052   -2.6646    0.0000 C   0  0  0  0  0  0  0  0  0  0  0  0
    8.0561   -2.0011    0.0000 C   0  0  0  0  0  0  0  0  0  0  0  0
    8.0561   -0.6739    0.0000 C   0  0  0  0  0  0  0  0  0  0  0  0
    9.2173   -2.6646    0.0000 C   0  0  0  0  0  0  0  0  0  0  0  0
    9.2173    0.0000    0.0000 C   0  0  0  0  0  0  0  0  0  0  0  0
   10.3682   -2.0011    0.0000 C   0  0  0  0  0  0  0  0  0  0  0  0
   10.3682   -0.6739    0.0000 C   0  0  0  0  0  0  0  0  0  0  0  0
  1  2  1  0  0  0  0
  2  3  1  0  0  0  0
  3  4  1  0  0  0  0
  3  5  1  0  0  0  0
  4  6  1  0  0  0  0
  4  7  2  0  0  0  0
  6  8  1  0  0  0  0
  8  9  1  0  0  0  0
  9 10  1  0  0  0  0
 10 11  1  0  0  0  0
 10 12  2  0  0  0  0
 11 13  2  0  0  0  0
 12 14  1  0  0  0  0
 13 15  1  0  0  0  0
 14 15  2  0  0  0  0
M  END
> <ID>
12690

> <Formula>
C13H18O2

> <FW>
206.2808

> <DSSTox_CID>
27567

> <DSSTox_RID>
82423

> <DSSTox_GSID>
47567

> <DSSTox_FileID_Sort>
7104

> <TS_ChemName>
2-Phenylethyl 2-methylbutanoate

> <TS_ChemName_Synonyms>
2-Phenylethyl 2-methylbutanoate (FEMA 3632)

> <TS_CASRN>
24817-51-4

> <CASRN_ChemName_Relationship>
primary

> <TS_Description>
single chemical compound

> <ChemNote>


> <STRUCTURE_Shown>
tested chemical

> <STRUCTURE_Formula>
C13H18O2

> <STRUCTURE_MW>
206.2808

> <STRUCTURE_ChemType>
defined organic

> <STRUCTURE_DefinedOrganicForm>
parent

> <STRUCTURE_IUPAC>
2-phenylethyl 2-methylbutanoate

> <STRUCTURE_SMILES>
CC(CC)C(=O)OCCc1ccccc1

> <STRUCTURE_SMILES_Desalt>
CC(CC)C(=O)OCCc1ccccc1

> <Substance_modify_yyyymmdd>
20100929

$$$$
