24851-98-7
ChemmineR-0915142007XD

 16 16  0  0  0  0  0  0  0  0  1 V2000
    2.6789   -3.5045    0.0000 C   0  0  0  0  0  0  0  0  0  0  0  0
    3.4606   -4.5848    0.0000 C   0  0  0  0  0  0  0  0  0  0  0  0
    2.6789   -5.6564    0.0000 C   0  0  0  0  0  0  0  0  0  0  0  0
    1.4141   -5.2523    0.0000 C   0  0  0  0  0  0  0  0  0  0  0  0
    1.4141   -3.9261    0.0000 C   0  0  0  0  0  0  0  0  0  0  0  0
    2.1958   -1.2648    0.0000 C   0  0  0  0  0  0  0  0  0  0  0  0
    2.6086    0.0000    0.0000 O   0  0  0  0  0  0  0  0  0  0  0  0
    0.8959   -1.5371    0.0000 O   0  0  0  0  0  0  0  0  0  0  0  0
    3.0917   -2.2397    0.0000 C   0  0  0  0  0  0  0  0  0  0  0  0
    3.0917   -6.9211    0.0000 O   0  0  0  0  0  0  0  0  0  0  0  0
    4.7956   -4.5848    0.0000 C   0  0  0  0  0  0  0  0  0  0  0  0
    5.4456   -5.7354    0.0000 C   0  0  0  0  0  0  0  0  0  0  0  0
    6.7806   -5.7354    0.0000 C   0  0  0  0  0  0  0  0  0  0  0  0
    7.4569   -6.8860    0.0000 C   0  0  0  0  0  0  0  0  0  0  0  0
    8.7832   -6.8860    0.0000 C   0  0  0  0  0  0  0  0  0  0  0  0
    0.0000   -0.5446    0.0000 C   0  0  0  0  0  0  0  0  0  0  0  0
  1  2  1  0  0  0  0
  1  5  1  0  0  0  0
  1  9  1  0  0  0  0
  2  3  1  0  0  0  0
  2 11  1  0  0  0  0
  3  4  1  0  0  0  0
  3 10  2  0  0  0  0
  4  5  1  0  0  0  0
  6  7  2  0  0  0  0
  6  8  1  0  0  0  0
  6  9  1  0  0  0  0
  8 16  1  0  0  0  0
 11 12  1  0  0  0  0
 12 13  1  0  0  0  0
 13 14  1  0  0  0  0
 14 15  1  0  0  0  0
M  END
> <ID>
5950

> <Formula>
C13H22O3

> <FW>
226.312

> <DSSTox_CID>
9325

> <DSSTox_RID>
78763

> <DSSTox_GSID>
29325

> <DSSTox_FileID_Sort>
3445

> <TS_ChemName>
Methyl dihydrojasmonate

> <TS_ChemName_Synonyms>
Methyl (3-oxo-2-pentylcyclopentyl)acetate; Methyl 3-oxo-2-pentyl-cyclopentaneacetate

> <TS_CASRN>
24851-98-7

> <CASRN_ChemName_Relationship>
primary

> <TS_Description>
mixture of Z,E isomers

> <ChemNote>
mixture of Z,E isomers

> <STRUCTURE_Shown>
representative isomer in mixture

> <STRUCTURE_Formula>
C13H22O3

> <STRUCTURE_MW>
226.312

> <STRUCTURE_ChemType>
defined organic

> <STRUCTURE_DefinedOrganicForm>
parent

> <STRUCTURE_IUPAC>
methyl (3-oxo-2-pentylcyclopentyl)acetate

> <STRUCTURE_SMILES>
COC(=O)CC1CCC(=O)C1CCCCC

> <STRUCTURE_SMILES_Desalt>
COC(=O)CC1CCC(=O)C1CCCCC

> <Substance_modify_yyyymmdd>
20080429

$$$$
