24886-52-0
ChemmineR-0915142007XD

 22 25  0  0  0  0  0  0  0  0  1 V2000
   11.9725   -3.4601    0.0000 C   0  0  0  0  0  0  0  0  0  0  0  0
   10.6436   -3.4601    0.0000 N   0  0  0  0  0  0  0  0  0  0  0  0
    9.9731   -4.6094    0.0000 C   0  0  0  0  0  0  0  0  0  0  0  0
    8.6442   -4.6094    0.0000 C   0  0  0  0  0  0  0  0  0  0  0  0
    7.9857   -3.4601    0.0000 N   0  0  0  0  0  0  0  0  0  0  0  0
    8.6442   -2.3107    0.0000 C   0  0  0  0  0  0  0  0  0  0  0  0
    9.9731   -2.3107    0.0000 C   0  0  0  0  0  0  0  0  0  0  0  0
    6.6567   -3.4601    0.0000 C   0  0  0  0  0  0  0  0  0  0  0  0
    5.9863   -2.3107    0.0000 C   0  0  0  0  0  0  0  0  0  0  0  0
    4.6573   -2.3107    0.0000 C   0  0  0  0  0  0  0  0  0  0  0  0
    3.9869   -3.4601    0.0000 C   0  0  0  0  0  0  0  0  0  0  0  0
    2.6579   -3.4601    0.0000 O   0  0  0  0  0  0  0  0  0  0  0  0
    1.9994   -2.3107    0.0000 C   0  0  0  0  0  0  0  0  0  0  0  0
    0.6705   -2.3107    0.0000 C   0  0  0  0  0  0  0  0  0  0  0  0
    0.0000   -1.1494    0.0000 C   0  0  0  0  0  0  0  0  0  0  0  0
    0.6705    0.0000    0.0000 C   0  0  0  0  0  0  0  0  0  0  0  0
    1.9994    0.0000    0.0000 C   0  0  0  0  0  0  0  0  0  0  0  0
    2.6579   -1.1494    0.0000 C   0  0  0  0  0  0  0  0  0  0  0  0
    3.9869   -1.1494    0.0000 N   0  0  0  0  0  0  0  0  0  0  0  0
    4.6573    0.0000    0.0000 C   0  0  0  0  0  0  0  0  0  0  0  0
    4.6573   -4.6094    0.0000 N   0  0  0  0  0  0  0  0  0  0  0  0
    5.9863   -4.6094    0.0000 N   0  0  0  0  0  0  0  0  0  0  0  0
  1  2  1  0  0  0  0
  2  3  1  0  0  0  0
  2  7  1  0  0  0  0
  3  4  1  0  0  0  0
  4  5  1  0  0  0  0
  5  6  1  0  0  0  0
  5  8  1  0  0  0  0
  6  7  1  0  0  0  0
  8  9  2  0  0  0  0
  8 22  1  0  0  0  0
  9 10  1  0  0  0  0
 10 11  2  0  0  0  0
 10 19  1  0  0  0  0
 11 12  1  0  0  0  0
 11 21  1  0  0  0  0
 12 13  1  0  0  0  0
 13 14  2  0  0  0  0
 13 18  1  0  0  0  0
 14 15  1  0  0  0  0
 15 16  2  0  0  0  0
 16 17  1  0  0  0  0
 17 18  2  0  0  0  0
 18 19  1  0  0  0  0
 19 20  1  0  0  0  0
 21 22  2  0  0  0  0
M  END
> <ID>
11565

> <Formula>
C16H19N5O

> <FW>
297.355

> <DSSTox_CID>
26271

> <DSSTox_RID>
81498

> <DSSTox_GSID>
46271

> <DSSTox_FileID_Sort>
6179

> <TS_ChemName>
Pipofezine

> <TS_ChemName_Synonyms>


> <TS_CASRN>
24886-52-0

> <CASRN_ChemName_Relationship>
primary

> <TS_Description>
single chemical compound

> <ChemNote>


> <STRUCTURE_Shown>
tested chemical

> <STRUCTURE_Formula>
C16H19N5O

> <STRUCTURE_MW>
297.355

> <STRUCTURE_ChemType>
defined organic

> <STRUCTURE_DefinedOrganicForm>
parent

> <STRUCTURE_IUPAC>
5-methyl-3-(4-methylpiperazin-1-yl)-5H-pyridazino[3,4-b][1,4]benzoxazine

> <STRUCTURE_SMILES>
CN1CCN(CC1)c2cc3N(C)c4ccccc4Oc3nn2

> <STRUCTURE_SMILES_Desalt>
CN1CCN(CC1)c2cc3N(C)c4ccccc4Oc3nn2

> <Substance_modify_yyyymmdd>
20110815

$$$$
