24916-51-6
ChemmineR-0915142007XD

 62 65  0  0  1  0  0  0  0  0  1 V2000
    5.7469   -6.0163    0.0000 C   0  0  0  0  0  0  0  0  0  0  0  0
    5.7469   -7.3274    0.0000 C   0  0  0  0  0  0  0  0  0  0  0  0
    4.6155   -5.3339    0.0000 C   0  0  0  0  0  0  0  0  0  0  0  0
    4.6155   -7.9918    0.0000 C   0  0  0  0  0  0  0  0  0  0  0  0
    3.4661   -6.0163    0.0000 C   0  0  0  0  0  0  0  0  0  0  0  0
    3.4661   -7.3274    0.0000 C   0  0  0  0  0  0  0  0  0  0  0  0
    4.6155   -9.3208    0.0000 O   0  0  0  0  0  0  0  0  0  0  0  0
    3.4482   -9.9853    0.0000 O   0  0  0  0  0  0  0  0  0  0  0  0
    2.2988   -7.9918    0.0000 C   0  0  0  0  0  0  0  0  0  0  0  0
    2.2988   -9.3208    0.0000 C   0  0  0  0  0  0  0  0  0  0  0  0
    6.9143   -7.9918    0.0000 C   0  0  0  0  0  0  0  0  0  0  0  0
    6.9143   -9.3208    0.0000 C   0  0  0  0  0  0  0  0  0  0  0  0
    5.7469  -10.0033    0.0000 C   0  0  0  0  0  0  0  0  0  0  0  0
    3.4482  -11.3143    0.0000 C   0  0  0  0  0  0  0  0  0  0  0  0
    2.2988  -11.9788    0.0000 O   0  0  0  0  0  0  0  0  0  0  0  0
    1.1673   -9.9853    0.0000 C   0  0  0  0  0  0  0  0  0  0  0  0
    1.1673  -11.3143    0.0000 C   0  0  0  0  0  0  0  0  0  0  0  0
    5.7469  -11.3143    0.0000 C   0  0  0  0  0  0  0  0  0  0  0  0
    4.6155  -11.9788    0.0000 C   0  0  0  0  0  0  0  0  0  0  0  0
    4.6514   -4.0049    0.0000 O   0  0  0  0  0  0  0  0  0  0  0  0
    8.0278   -9.9853    0.0000 O   0  0  0  0  0  0  0  0  0  0  0  0
    8.0457   -7.3453    0.0000 C   0  0  0  0  0  0  0  0  0  0  0  0
    8.0457   -6.0163    0.0000 C   0  0  0  0  0  0  0  0  0  0  0  0
    9.2131   -5.3339    0.0000 O   0  0  0  0  0  0  0  0  0  0  0  0
    0.0000  -11.9788    0.0000 C   0  0  0  0  0  0  0  0  0  0  0  0
    6.9143   -5.3339    0.0000 C   0  0  0  0  0  0  0  0  0  0  0  0
    5.7829   -3.3404    0.0000 C   0  0  0  0  0  0  0  0  0  0  0  0
    5.7829   -2.0114    0.0000 C   0  0  0  0  0  0  0  0  0  0  0  0
    6.9502   -4.0049    0.0000 O   0  0  0  0  0  0  0  0  0  0  0  0
    6.9502   -1.3290    0.0000 C   0  0  0  0  0  0  0  0  0  0  0  0
    8.0816   -3.3404    0.0000 C   0  0  0  0  0  0  0  0  0  0  0  0
    8.0816   -2.0114    0.0000 C   0  0  0  0  0  0  0  0  0  0  0  0
    9.2490   -1.3290    0.0000 N   0  0  0  0  0  0  0  0  0  0  0  0
    9.2490   -4.0049    0.0000 C   0  0  0  0  0  0  0  0  0  0  0  0
   10.3984   -2.0114    0.0000 C   0  0  0  0  0  0  0  0  0  0  0  0
    9.2490    0.0000    0.0000 C   0  0  0  0  0  0  0  0  0  0  0  0
    9.3567   -9.9853    0.0000 C   0  0  0  0  0  0  0  0  0  0  0  0
   10.0392   -8.8180    0.0000 C   0  0  0  0  0  0  0  0  0  0  0  0
   10.0392  -11.1167    0.0000 O   0  0  0  0  0  0  0  0  0  0  0  0
   11.3682   -8.8180    0.0000 C   0  0  0  0  0  0  0  0  0  0  0  0
   11.3682  -11.1167    0.0000 C   0  0  0  0  0  0  0  0  0  0  0  0
   12.0147   -9.9853    0.0000 C   0  0  0  0  0  0  0  0  0  0  0  0
    9.3567   -7.6865    0.0000 O   0  0  0  0  0  0  0  0  0  0  0  0
   12.0147   -7.6865    0.0000 N   0  0  0  0  0  0  0  0  0  0  0  0
   13.3437   -9.9853    0.0000 O   0  0  0  0  0  0  0  0  0  0  0  0
   12.0147  -12.2841    0.0000 C   0  0  0  0  0  0  0  0  0  0  0  0
   13.3437   -7.6865    0.0000 C   0  0  0  0  0  0  0  0  0  0  0  0
   11.3682   -6.5192    0.0000 C   0  0  0  0  0  0  0  0  0  0  0  0
   14.4931   -9.3029    0.0000 C   0  0  0  0  0  0  0  0  0  0  0  0
   14.4931   -7.9739    0.0000 C   0  0  0  0  0  0  0  0  0  0  0  0
   15.6604   -9.9853    0.0000 O   0  0  0  0  0  0  0  0  0  0  0  0
   15.6604   -7.3274    0.0000 C   0  0  0  0  0  0  0  0  0  0  0  0
   16.7919   -9.3029    0.0000 C   0  0  0  0  0  0  0  0  0  0  0  0
   16.7919   -7.9739    0.0000 C   0  0  0  0  0  0  0  0  0  0  0  0
   17.9592   -7.3274    0.0000 O   0  0  0  0  0  0  0  0  0  0  0  0
   17.9592   -9.9853    0.0000 C   0  0  0  0  0  0  0  0  0  0  0  0
   16.3070   -6.1420    0.0000 C   0  0  0  0  0  0  0  0  0  0  0  0
   14.9780   -6.1420    0.0000 O   0  0  0  0  0  0  0  0  0  0  0  0
    6.8963  -11.9788    0.0000 O   0  0  0  0  0  0  0  0  0  0  0  0
    6.8784  -13.3078    0.0000 C   0  0  0  0  0  0  0  0  0  0  0  0
    8.0098  -13.9902    0.0000 O   0  0  0  0  0  0  0  0  0  0  0  0
    5.7110  -13.9723    0.0000 C   0  0  0  0  0  0  0  0  0  0  0  0
  1  2  1  0  0  0  0
  1  3  1  0  0  0  0
  1 26  1  6  0  0  0
  2 11  1  0  0  0  0
  3  5  1  0  0  0  0
  3 20  1  6  0  0  0
  4  7  1  0  0  0  0
  5  6  2  0  0  0  0
  6  9  1  0  0  0  0
 13  7  1  6  0  0  0
  8 14  2  0  0  0  0
  9 10  2  0  0  0  0
 10 16  1  0  0  0  0
 11 12  1  0  0  0  0
 11 22  1  6  0  0  0
 12 13  1  0  0  0  0
 12 21  1  6  0  0  0
 13 18  1  0  0  0  0
 14 15  1  0  0  0  0
 14 19  1  0  0  0  0
 15 17  1  0  0  0  0
 16 17  1  0  0  0  0
 17 25  1  6  0  0  0
 18 19  1  0  0  0  0
 18 59  1  6  0  0  0
 27 20  1  6  0  0  0
 37 21  1  1  0  0  0
 22 23  1  0  0  0  0
 23 24  2  0  0  0  0
 27 28  1  0  0  0  0
 27 29  1  0  0  0  0
 28 30  1  0  0  0  0
 29 31  1  0  0  0  0
 30 32  1  0  0  0  0
 31 32  1  0  0  0  0
 31 34  1  1  0  0  0
 32 33  1  6  0  0  0
 33 35  1  0  0  0  0
 33 36  1  0  0  0  0
 37 38  1  0  0  0  0
 37 39  1  0  0  0  0
 38 40  1  0  0  0  0
 38 43  1  6  0  0  0
 39 41  1  0  0  0  0
 40 42  1  0  0  0  0
 40 44  1  1  0  0  0
 41 42  1  0  0  0  0
 41 46  1  1  0  0  0
 42 45  1  6  0  0  0
 44 47  1  0  0  0  0
 44 48  1  0  0  0  0
 49 45  1  1  0  0  0
 49 50  1  0  0  0  0
 49 51  1  0  0  0  0
 50 52  1  0  0  0  0
 51 53  1  0  0  0  0
 52 54  1  0  0  0  0
 52 57  1  6  0  0  0
 52 58  1  1  0  0  0
 53 54  1  0  0  0  0
 53 56  1  6  0  0  0
 54 55  1  1  0  0  0
 59 60  1  0  0  0  0
 60 61  2  0  0  0  0
 60 62  1  0  0  0  0
M  END
> <ID>
3215

> <Formula>
C45H76N2O15

> <FW>
885.0893

> <DSSTox_CID>
3595

> <DSSTox_RID>
77100

> <DSSTox_GSID>
23595

> <DSSTox_FileID_Sort>
1783

> <TS_ChemName>
Spiramycin II

> <TS_ChemName_Synonyms>


> <TS_CASRN>
24916-51-6

> <CASRN_ChemName_Relationship>
primary

> <TS_Description>
single chemical compound

> <ChemNote>
stereochem

> <STRUCTURE_Shown>
tested chemical

> <STRUCTURE_Formula>
C45H76N2O15

> <STRUCTURE_MW>
885.0893

> <STRUCTURE_ChemType>
defined organic

> <STRUCTURE_DefinedOrganicForm>
parent

> <STRUCTURE_IUPAC>
(4R,5S,6S,7R,9R,10R,11E,13E,16R)-6-{[(2S,3R,4R,5S,6R)-5-{[(2S,4R,5S,6S)-4,5-dihydroxy-4,6-dimethyltetrahydro-2H-pyran-2-yl]oxy}-4-(dimethylamino)-3-hydroxy-6-methyltetrahydro-2H-pyran-2-yl]oxy}-10-{[(2S,5S,6R)-5-(dimethylamino)-6-methyltetrahydro-2H-pyran

> <STRUCTURE_SMILES>
CN(C)[C@H]1CC[C@H](O[C@@H]1C)O[C@H]4C=CC=CC[C@@H](C)OC(=O)C[C@@H](OC(C)=O)[C@H](OC)[C@@H](O[C@@H]3O[C@H](C)[C@@H](O[C@H]2C[C@@](C)(O)[C@@H](O)[C@H](C)O2)[C@@H]([C@H]3O)N(C)C)[C@@H](CC=O)C[C@H]4C

> <STRUCTURE_SMILES_Desalt>
CN(C)[C@H]1CC[C@H](O[C@@H]1C)O[C@H]4C=CC=CC[C@@H](C)OC(=O)C[C@@H](OC(C)=O)[C@H](OC)[C@@H](O[C@@H]3O[C@H](C)[C@@H](O[C@H]2C[C@@](C)(O)[C@@H](O)[C@H](C)O2)[C@@H]([C@H]3O)N(C)C)[C@@H](CC=O)C[C@H]4C

> <Substance_modify_yyyymmdd>
20080429

$$$$
