249296-43-3
ChemmineR-0915142007XD

 33 35  0  0  0  0  0  0  0  0  1 V2000
   11.2480   -4.2345    0.0000 C   0  0  0  0  0  0  0  0  0  0  0  0
   10.1100   -3.5729    0.0000 C   0  0  0  0  0  0  0  0  0  0  0  0
   10.4011   -5.2535    0.0000 C   0  0  0  0  0  0  0  0  0  0  0  0
   12.5448   -4.4595    0.0000 C   0  0  0  0  0  0  0  0  0  0  0  0
   11.9097   -3.0833    0.0000 C   0  0  0  0  0  0  0  0  0  0  0  0
    8.9587   -4.2345    0.0000 C   0  0  0  0  0  0  0  0  0  0  0  0
   10.1100   -2.2496    0.0000 C   0  0  0  0  0  0  0  0  0  0  0  0
   10.8510   -6.4841    0.0000 C   0  0  0  0  0  0  0  0  0  0  0  0
   12.9948   -5.7034    0.0000 C   0  0  0  0  0  0  0  0  0  0  0  0
   11.2348   -1.9320    0.0000 O   0  0  0  0  0  0  0  0  0  0  0  0
   13.2330   -3.0833    0.0000 N   0  0  0  0  0  0  0  0  0  0  0  0
    7.8074   -3.5597    0.0000 C   0  0  0  0  0  0  0  0  0  0  0  0
    8.9587   -1.5880    0.0000 C   0  0  0  0  0  0  0  0  0  0  0  0
   12.1479   -6.7091    0.0000 O   0  0  0  0  0  0  0  0  0  0  0  0
    6.6694   -4.2345    0.0000 S   0  0  0  0  0  0  0  0  0  0  0  0
    7.8074   -2.2496    0.0000 C   0  0  0  0  0  0  0  0  0  0  0  0
    5.5446   -3.5729    0.0000 C   0  0  0  0  0  0  0  0  0  0  0  0
    5.5446   -2.2496    0.0000 C   0  0  0  0  0  0  0  0  0  0  0  0
    4.3933   -4.2345    0.0000 C   0  0  0  0  0  0  0  0  0  0  0  0
    4.3933   -1.6012    0.0000 C   0  0  0  0  0  0  0  0  0  0  0  0
    3.2421   -3.5729    0.0000 C   0  0  0  0  0  0  0  0  0  0  0  0
    3.2421   -2.2496    0.0000 C   0  0  0  0  0  0  0  0  0  0  0  0
    2.1040   -1.6012    0.0000 N   0  0  0  0  0  0  0  0  0  0  0  0
    0.8998   -2.1305    0.0000 C   0  0  0  0  0  0  0  0  0  0  0  0
    1.9585   -0.2779    0.0000 C   0  0  0  0  0  0  0  0  0  0  0  0
    0.0000   -1.1513    0.0000 N   0  0  0  0  0  0  0  0  0  0  0  0
    0.6219   -3.4273    0.0000 C   0  0  0  0  0  0  0  0  0  0  0  0
    0.6749    0.0000    0.0000 C   0  0  0  0  0  0  0  0  0  0  0  0
    5.7166   -6.9076    0.0000 S   0  0  0  0  0  0  0  0  0  0  0  0
    5.7166   -8.4294    0.0000 O   0  0  0  0  0  0  0  0  0  0  0  0
    7.0399   -6.9076    0.0000 O   0  0  0  0  0  0  0  0  0  0  0  0
    5.7166   -5.5843    0.0000 O   0  0  0  0  0  0  0  0  0  0  0  0
    4.3272   -6.9076    0.0000 C   0  0  0  0  0  0  0  0  0  0  0  0
  1  2  1  0  0  0  0
  1  3  1  0  0  0  0
  1  4  1  0  0  0  0
  1  5  1  0  0  0  0
  2  6  2  0  0  0  0
  2  7  1  0  0  0  0
  3  8  1  0  0  0  0
  4  9  1  0  0  0  0
  5 10  2  0  0  0  0
  5 11  1  0  0  0  0
  6 12  1  0  0  0  0
  7 13  2  0  0  0  0
  8 14  1  0  0  0  0
  9 14  1  0  0  0  0
 12 15  1  0  0  0  0
 12 16  2  0  0  0  0
 13 16  1  0  0  0  0
 15 17  1  0  0  0  0
 17 18  2  0  0  0  0
 17 19  1  0  0  0  0
 18 20  1  0  0  0  0
 19 21  2  0  0  0  0
 20 22  2  0  0  0  0
 21 22  1  0  0  0  0
 22 23  1  0  0  0  0
 23 24  1  0  0  0  0
 23 25  1  0  0  0  0
 24 26  2  0  0  0  0
 24 27  1  0  0  0  0
 25 28  2  0  0  0  0
 26 28  1  0  0  0  0
 29 30  2  0  0  0  0
 29 31  1  0  0  0  0
 29 32  2  0  0  0  0
 29 33  1  0  0  0  0
M  END
> <ID>
12414

> <Formula>
C23H27N3O5S2

> <FW>
489.6076 (393.5019+96.1057)

> <DSSTox_CID>
27272

> <DSSTox_RID>
82228

> <DSSTox_GSID>
47272

> <DSSTox_FileID_Sort>
6909

> <TS_ChemName>
CJ-013610

> <TS_ChemName_Synonyms>


> <TS_CASRN>
249296-43-3

> <CASRN_ChemName_Relationship>
primary

> <TS_Description>
single chemical compound

> <ChemNote>


> <STRUCTURE_Shown>
tested chemical

> <STRUCTURE_Formula>
C23H27N3O5S2

> <STRUCTURE_MW>
489.6076

> <STRUCTURE_ChemType>
defined organic

> <STRUCTURE_DefinedOrganicForm>
complex

> <STRUCTURE_IUPAC>
4-(3-{[4-(2-methyl-1H-imidazol-1-yl)phenyl]sulfanyl}phenyl)tetrahydro-2H-pyran-4-carboxamide methanesulfonate (1:1)

> <STRUCTURE_SMILES>
O=C(N)C1(CCOCC1)c4cccc(Sc2ccc(cc2)n3ccnc3C)c4.CS(=O)(=O)O

> <STRUCTURE_SMILES_Desalt>
O=C(N)C1(CCOCC1)c4cccc(Sc2ccc(cc2)n3ccnc3C)c4

> <Substance_modify_yyyymmdd>
20130910

$$$$
