24934-91-6
ChemmineR-0915142007XD

 11 10  0  0  0  0  0  0  0  0  1 V2000
    3.3215   -1.3313    0.0000 P    0  0  0  0  0  0  0  0  0  0  0  0
    3.3215    0.0000    0.0000 S    0  0  0  0  0  0  0  0  0  0  0  0
    4.6528   -1.3313    0.0000 O    0  0  0  0  0  0  0  0  0  0  0  0
    1.9902   -1.3313    0.0000 S    0  0  0  0  0  0  0  0  0  0  0  0
    3.3215   -2.6625    0.0000 O    0  0  0  0  0  0  0  0  0  0  0  0
    1.3313   -0.1797    0.0000 C    0  0  0  0  0  0  0  0  0  0  0  0
    0.0000   -0.1797    0.0000 Cl   0  0  0  0  0  0  0  0  0  0  0  0
    5.3251   -2.4895    0.0000 C    0  0  0  0  0  0  0  0  0  0  0  0
    6.6563   -2.4895    0.0000 C    0  0  0  0  0  0  0  0  0  0  0  0
    2.1833   -3.3215    0.0000 C    0  0  0  0  0  0  0  0  0  0  0  0
    2.1833   -4.6528    0.0000 C    0  0  0  0  0  0  0  0  0  0  0  0
  1  2  2  0  0  0  0
  1  3  1  0  0  0  0
  1  5  1  0  0  0  0
  1  4  1  0  0  0  0
  3  8  1  0  0  0  0
  4  6  1  0  0  0  0
  5 10  1  0  0  0  0
  6  7  1  0  0  0  0
  8  9  1  0  0  0  0
 10 11  1  0  0  0  0
M  END
> <ID>
7313

> <Formula>
C5H12ClO2PS2

> <FW>
234.7043

> <DSSTox_CID>
17511

> <DSSTox_RID>
79326

> <DSSTox_GSID>
37511

> <DSSTox_FileID_Sort>
4008

> <TS_ChemName>
Chlormephos

> <TS_ChemName_Synonyms>


> <TS_CASRN>
24934-91-6

> <CASRN_ChemName_Relationship>
primary

> <TS_Description>
single chemical compound

> <ChemNote>


> <STRUCTURE_Shown>
tested chemical

> <STRUCTURE_Formula>
C5H12ClO2PS2

> <STRUCTURE_MW>
234.7043

> <STRUCTURE_ChemType>
defined organic

> <STRUCTURE_DefinedOrganicForm>
parent

> <STRUCTURE_IUPAC>
S-(chloromethyl) O,O-diethyl phosphorodithioate

> <STRUCTURE_SMILES>
CCOP(=S)(OCC)SCCl

> <STRUCTURE_SMILES_Desalt>
CCOP(=S)(OCC)SCCl

> <Substance_modify_yyyymmdd>
20080429

$$$$
