2495-25-2
ChemmineR-0915142007XD

 19 18  0  0  0  0  0  0  0  0  1 V2000
   16.1379   -1.3279    0.0000 C   0  0  0  0  0  0  0  0  0  0  0  0
   17.2814   -1.9919    0.0000 C   0  0  0  0  0  0  0  0  0  0  0  0
   18.4433   -1.3279    0.0000 C   0  0  0  0  0  0  0  0  0  0  0  0
   16.1379    0.0000    0.0000 O   0  0  0  0  0  0  0  0  0  0  0  0
   14.9760   -1.9919    0.0000 O   0  0  0  0  0  0  0  0  0  0  0  0
   17.2814   -3.3198    0.0000 C   0  0  0  0  0  0  0  0  0  0  0  0
   13.8325   -1.3279    0.0000 C   0  0  0  0  0  0  0  0  0  0  0  0
   12.6705   -1.9919    0.0000 C   0  0  0  0  0  0  0  0  0  0  0  0
   11.5271   -1.3279    0.0000 C   0  0  0  0  0  0  0  0  0  0  0  0
   10.3651   -1.9919    0.0000 C   0  0  0  0  0  0  0  0  0  0  0  0
    9.2216   -1.3279    0.0000 C   0  0  0  0  0  0  0  0  0  0  0  0
    8.0782   -1.9919    0.0000 C   0  0  0  0  0  0  0  0  0  0  0  0
    6.9162   -1.3279    0.0000 C   0  0  0  0  0  0  0  0  0  0  0  0
    5.7727   -1.9919    0.0000 C   0  0  0  0  0  0  0  0  0  0  0  0
    4.6108   -1.3279    0.0000 C   0  0  0  0  0  0  0  0  0  0  0  0
    3.4673   -1.9919    0.0000 C   0  0  0  0  0  0  0  0  0  0  0  0
    2.3054   -1.3279    0.0000 C   0  0  0  0  0  0  0  0  0  0  0  0
    1.1619   -1.9919    0.0000 C   0  0  0  0  0  0  0  0  0  0  0  0
    0.0000   -1.3279    0.0000 C   0  0  0  0  0  0  0  0  0  0  0  0
  1  2  1  0  0  0  0
  1  5  1  0  0  0  0
  1  4  2  0  0  0  0
  2  3  2  0  0  0  0
  2  6  1  0  0  0  0
  5  7  1  0  0  0  0
  7  8  1  0  0  0  0
  8  9  1  0  0  0  0
  9 10  1  0  0  0  0
 10 11  1  0  0  0  0
 11 12  1  0  0  0  0
 12 13  1  0  0  0  0
 13 14  1  0  0  0  0
 14 15  1  0  0  0  0
 15 16  1  0  0  0  0
 16 17  1  0  0  0  0
 17 18  1  0  0  0  0
 18 19  1  0  0  0  0
M  END
> <ID>
5879

> <Formula>
C17H32O2

> <FW>
268.4348

> <DSSTox_CID>
9236

> <DSSTox_RID>
78724

> <DSSTox_GSID>
29236

> <DSSTox_FileID_Sort>
3406

> <TS_ChemName>
Tridecyl methacrylate

> <TS_ChemName_Synonyms>


> <TS_CASRN>
2495-25-2

> <CASRN_ChemName_Relationship>
primary

> <TS_Description>
single chemical compound

> <ChemNote>


> <STRUCTURE_Shown>
tested chemical

> <STRUCTURE_Formula>
C17H32O2

> <STRUCTURE_MW>
268.4348

> <STRUCTURE_ChemType>
defined organic

> <STRUCTURE_DefinedOrganicForm>
parent

> <STRUCTURE_IUPAC>
tridecyl 2-methylprop-2-enoate

> <STRUCTURE_SMILES>
C=C(C)C(=O)OCCCCCCCCCCCCC

> <STRUCTURE_SMILES_Desalt>
C=C(C)C(=O)OCCCCCCCCCCCCC

> <Substance_modify_yyyymmdd>
20080429

$$$$
