2495-37-6
ChemmineR-0915142007XD

 13 13  0  0  0  0  0  0  0  0  1 V2000
    1.9937   -3.4530    0.0000 C   0  0  0  0  0  0  0  0  0  0  0  0
    1.3318   -2.3047    0.0000 C   0  0  0  0  0  0  0  0  0  0  0  0
    0.0000   -2.3047    0.0000 C   0  0  0  0  0  0  0  0  0  0  0  0
    1.9937   -1.1483    0.0000 C   0  0  0  0  0  0  0  0  0  0  0  0
    1.3318    0.0000    0.0000 O   0  0  0  0  0  0  0  0  0  0  0  0
    3.3254   -1.1483    0.0000 O   0  0  0  0  0  0  0  0  0  0  0  0
    3.9873   -2.3047    0.0000 C   0  0  0  0  0  0  0  0  0  0  0  0
    5.3191   -2.3047    0.0000 C   0  0  0  0  0  0  0  0  0  0  0  0
    5.9810   -1.1483    0.0000 C   0  0  0  0  0  0  0  0  0  0  0  0
    7.3127   -1.1483    0.0000 C   0  0  0  0  0  0  0  0  0  0  0  0
    7.9746   -2.3047    0.0000 C   0  0  0  0  0  0  0  0  0  0  0  0
    7.3127   -3.4530    0.0000 C   0  0  0  0  0  0  0  0  0  0  0  0
    5.9810   -3.4530    0.0000 C   0  0  0  0  0  0  0  0  0  0  0  0
  1  2  2  0  0  0  0
  2  3  1  0  0  0  0
  2  4  1  0  0  0  0
  4  5  2  0  0  0  0
  4  6  1  0  0  0  0
  6  7  1  0  0  0  0
  7  8  1  0  0  0  0
  8  9  2  0  0  0  0
  8 13  1  0  0  0  0
  9 10  1  0  0  0  0
 10 11  2  0  0  0  0
 11 12  1  0  0  0  0
 12 13  2  0  0  0  0
M  END
> <ID>
2032

> <Formula>
C11H12O2

> <FW>
176.2118

> <DSSTox_CID>
2193

> <DSSTox_RID>
76521

> <DSSTox_GSID>
22193

> <DSSTox_FileID_Sort>
1205

> <TS_ChemName>
Benzyl methacrylate

> <TS_ChemName_Synonyms>


> <TS_CASRN>
2495-37-6

> <CASRN_ChemName_Relationship>
primary

> <TS_Description>
single chemical compound

> <ChemNote>


> <STRUCTURE_Shown>
tested chemical

> <STRUCTURE_Formula>
C11H12O2

> <STRUCTURE_MW>
176.2118

> <STRUCTURE_ChemType>
defined organic

> <STRUCTURE_DefinedOrganicForm>
parent

> <STRUCTURE_IUPAC>
benzyl 2-methylprop-2-enoate

> <STRUCTURE_SMILES>
C=C(C)C(=O)OCc1ccccc1

> <STRUCTURE_SMILES_Desalt>
C=C(C)C(=O)OCc1ccccc1

> <Substance_modify_yyyymmdd>
20080429

$$$$
