24973-25-9
ChemmineR-0915142007XD

 15 14  0  0  0  0  0  0  0  0  1 V2000
    3.4487   -2.0022    0.0000 C    0  0  0  0  0  0  0  0  0  0  0  0
    5.7707   -1.9642    0.0000 N    0  0  0  0  0  0  0  0  0  0  0  0
    2.3220   -2.6646    0.0000 C    0  0  0  0  0  0  0  0  0  0  0  0
    4.6135   -2.6646    0.0000 C    0  0  0  0  0  0  0  0  0  0  0  0
    1.1648   -2.0022    0.0000 C    0  0  0  0  0  0  0  0  0  0  0  0
    2.3220   -3.9817    0.0000 C    0  0  0  0  0  0  0  0  0  0  0  0
    4.6135   -3.9512    0.0000 C    0  0  0  0  0  0  0  0  0  0  0  0
    1.1648   -4.6440    0.0000 C    0  0  0  0  0  0  0  0  0  0  0  0
    0.0000   -2.6646    0.0000 C    0  0  0  0  0  0  0  0  0  0  0  0
    0.0000   -3.9817    0.0000 C    0  0  0  0  0  0  0  0  0  0  0  0
    1.1648   -0.6623    0.0000 O    0  0  0  0  0  0  0  0  0  0  0  0
    0.0000    0.0000    0.0000 C    0  0  0  0  0  0  0  0  0  0  0  0
    1.1648   -5.9839    0.0000 O    0  0  0  0  0  0  0  0  0  0  0  0
    2.3220   -6.6462    0.0000 C    0  0  0  0  0  0  0  0  0  0  0  0
    1.1953   -7.6131    0.0000 Cl   0  0  0  0  0  0  0  0  0  0  0  0
  1  3  1  0  0  0  0
  1  4  1  0  0  0  0
  2  4  1  0  0  0  0
  3  5  2  0  0  0  0
  3  6  1  0  0  0  0
  4  7  1  0  0  0  0
  5  9  1  0  0  0  0
  5 11  1  0  0  0  0
  6  8  2  0  0  0  0
  8 10  1  0  0  0  0
  8 13  1  0  0  0  0
  9 10  2  0  0  0  0
 11 12  1  0  0  0  0
 13 14  1  0  0  0  0
M  END
> <ID>
13875

> <Formula>
C11H18ClNO2

> <FW>
231.7191 (195.2582+36.4609)

> <DSSTox_CID>
28812

> <DSSTox_RID>
83081

> <DSSTox_GSID>
48886

> <DSSTox_FileID_Sort>
7758

> <TS_ChemName>
2,5-Dimethoxyamphetamine hydrochloride

> <TS_ChemName_Synonyms>
(-)-2,5-Dimethoxyamphetamine hydrochloride

> <TS_CASRN>
24973-25-9

> <CASRN_ChemName_Relationship>
primary

> <TS_Description>
single chemical compound

> <ChemNote>
stereochem

> <STRUCTURE_Shown>
tested chemical

> <STRUCTURE_Formula>
C11H18ClNO2

> <STRUCTURE_MW>
231.7191

> <STRUCTURE_ChemType>
defined organic

> <STRUCTURE_DefinedOrganicForm>
complex

> <STRUCTURE_IUPAC>
1-(2,5-dimethoxyphenyl)propan-2-amine hydrochloride (1:1)

> <STRUCTURE_SMILES>
Cl.COc1ccc(cc1CC(C)N)OC

> <STRUCTURE_SMILES_Desalt>
COc1ccc(cc1CC(C)N)OC

> <Substance_modify_yyyymmdd>
20111204

$$$$
