2497-21-4
ChemmineR-0915142007XD

  7  6  0  0  0  0  0  0  0  0  1 V2000
    0.0000   -1.3170    0.0000 C   0  0  0  0  0  0  0  0  0  0  0  0
    1.1387   -1.9899    0.0000 C   0  0  0  0  0  0  0  0  0  0  0  0
    2.2832   -1.3170    0.0000 C   0  0  0  0  0  0  0  0  0  0  0  0
    3.4392   -1.9899    0.0000 C   0  0  0  0  0  0  0  0  0  0  0  0
    4.5779   -1.3170    0.0000 C   0  0  0  0  0  0  0  0  0  0  0  0
    5.7511   -1.9899    0.0000 C   0  0  0  0  0  0  0  0  0  0  0  0
    2.2832    0.0000    0.0000 O   0  0  0  0  0  0  0  0  0  0  0  0
  1  2  1  0  0  0  0
  2  3  1  0  0  0  0
  3  4  1  0  0  0  0
  3  7  2  0  0  0  0
  4  5  2  3  0  0  0
  5  6  1  0  0  0  0
M  END
> <ID>
12791

> <Formula>
C6H10O

> <FW>
98.143

> <DSSTox_CID>
27670

> <DSSTox_RID>
82489

> <DSSTox_GSID>
47670

> <DSSTox_FileID_Sort>
7170

> <TS_ChemName>
4-Hexen-3-one

> <TS_ChemName_Synonyms>


> <TS_CASRN>
2497-21-4

> <CASRN_ChemName_Relationship>
primary

> <TS_Description>
mixture of Z,E isomers

> <ChemNote>
mixture of Z [50396-96-8], E [50396-87-7] isomers

> <STRUCTURE_Shown>
representative isomer in mixture

> <STRUCTURE_Formula>
C6H10O

> <STRUCTURE_MW>
98.143

> <STRUCTURE_ChemType>
defined organic

> <STRUCTURE_DefinedOrganicForm>
parent

> <STRUCTURE_IUPAC>
hex-4-en-3-one

> <STRUCTURE_SMILES>
CCC(=O)C=CC

> <STRUCTURE_SMILES_Desalt>
CCC(=O)C=CC

> <Substance_modify_yyyymmdd>
20101215

$$$$
