2499-59-4
ChemmineR-0915142007XD

 13 12  0  0  0  0  0  0  0  0  1 V2000
   10.3531   -1.3273    0.0000 C   0  0  0  0  0  0  0  0  0  0  0  0
   11.5035   -1.9973    0.0000 C   0  0  0  0  0  0  0  0  0  0  0  0
   12.6412   -1.3273    0.0000 C   0  0  0  0  0  0  0  0  0  0  0  0
   10.3531    0.0000    0.0000 O   0  0  0  0  0  0  0  0  0  0  0  0
    9.2028   -1.9973    0.0000 O   0  0  0  0  0  0  0  0  0  0  0  0
    8.0524   -1.3273    0.0000 C   0  0  0  0  0  0  0  0  0  0  0  0
    6.9021   -1.9973    0.0000 C   0  0  0  0  0  0  0  0  0  0  0  0
    5.7391   -1.3273    0.0000 C   0  0  0  0  0  0  0  0  0  0  0  0
    4.5888   -1.9973    0.0000 C   0  0  0  0  0  0  0  0  0  0  0  0
    3.4384   -1.3273    0.0000 C   0  0  0  0  0  0  0  0  0  0  0  0
    2.3007   -1.9973    0.0000 C   0  0  0  0  0  0  0  0  0  0  0  0
    1.1503   -1.3273    0.0000 C   0  0  0  0  0  0  0  0  0  0  0  0
    0.0000   -1.9973    0.0000 C   0  0  0  0  0  0  0  0  0  0  0  0
  1  2  1  0  0  0  0
  1  5  1  0  0  0  0
  1  4  2  0  0  0  0
  2  3  2  0  0  0  0
  5  6  1  0  0  0  0
  6  7  1  0  0  0  0
  7  8  1  0  0  0  0
  8  9  1  0  0  0  0
  9 10  1  0  0  0  0
 10 11  1  0  0  0  0
 11 12  1  0  0  0  0
 12 13  1  0  0  0  0
M  END
> <ID>
10278

> <Formula>
C11H20O2

> <FW>
184.2753

> <DSSTox_CID>
24624

> <DSSTox_RID>
80359

> <DSSTox_GSID>
44624

> <DSSTox_FileID_Sort>
5041

> <TS_ChemName>
Octyl prop-2-enoate

> <TS_ChemName_Synonyms>
2-Propenoic acid, octyl ester

> <TS_CASRN>
2499-59-4

> <CASRN_ChemName_Relationship>
primary

> <TS_Description>
single chemical compound

> <ChemNote>


> <STRUCTURE_Shown>
tested chemical

> <STRUCTURE_Formula>
C11H20O2

> <STRUCTURE_MW>
184.2753

> <STRUCTURE_ChemType>
defined organic

> <STRUCTURE_DefinedOrganicForm>
parent

> <STRUCTURE_IUPAC>
octyl prop-2-enoate

> <STRUCTURE_SMILES>
CCCCCCCCOC(=O)C=C

> <STRUCTURE_SMILES_Desalt>
CCCCCCCCOC(=O)C=C

> <Substance_modify_yyyymmdd>
20091116

$$$$
