25046-79-1
ChemmineR-0915142007XD

 31 33  0  0  0  0  0  0  0  0  1 V2000
   15.5359   -3.1205    0.0000 C   0  0  0  0  0  0  0  0  0  0  0  0
   15.5359   -4.4555    0.0000 C   0  0  0  0  0  0  0  0  0  0  0  0
   16.6874   -5.1230    0.0000 O   0  0  0  0  0  0  0  0  0  0  0  0
   14.3845   -5.1230    0.0000 N   0  0  0  0  0  0  0  0  0  0  0  0
   13.2331   -4.4555    0.0000 C   0  0  0  0  0  0  0  0  0  0  0  0
   12.0816   -5.1230    0.0000 C   0  0  0  0  0  0  0  0  0  0  0  0
   10.9302   -4.4555    0.0000 C   0  0  0  0  0  0  0  0  0  0  0  0
    9.7788   -5.1230    0.0000 C   0  0  0  0  0  0  0  0  0  0  0  0
    8.6274   -4.4555    0.0000 C   0  0  0  0  0  0  0  0  0  0  0  0
    8.6274   -3.1205    0.0000 C   0  0  0  0  0  0  0  0  0  0  0  0
    7.4592   -2.4697    0.0000 S   0  0  0  0  0  0  0  0  0  0  0  0
    8.1267   -1.3016    0.0000 O   0  0  0  0  0  0  0  0  0  0  0  0
    6.8084   -3.6212    0.0000 O   0  0  0  0  0  0  0  0  0  0  0  0
    6.3078   -1.8022    0.0000 N   0  0  0  0  0  0  0  0  0  0  0  0
    5.1564   -2.4697    0.0000 C   0  0  0  0  0  0  0  0  0  0  0  0
    5.1564   -3.7880    0.0000 O   0  0  0  0  0  0  0  0  0  0  0  0
    4.0050   -1.8022    0.0000 N   0  0  0  0  0  0  0  0  0  0  0  0
    2.8535   -2.4697    0.0000 N   0  0  0  0  0  0  0  0  0  0  0  0
    1.7522   -1.7188    0.0000 C   0  0  0  0  0  0  0  0  0  0  0  0
    0.4839   -2.1026    0.0000 C   0  0  0  0  0  0  0  0  0  0  0  0
    0.0000   -3.3375    0.0000 C   0  0  0  0  0  0  0  0  0  0  0  0
    0.6675   -4.4889    0.0000 C   0  0  0  0  0  0  0  0  0  0  0  0
    2.0025   -4.7058    0.0000 C   0  0  0  0  0  0  0  0  0  0  0  0
    2.9370   -3.7713    0.0000 C   0  0  0  0  0  0  0  0  0  0  0  0
    9.7788   -2.4697    0.0000 C   0  0  0  0  0  0  0  0  0  0  0  0
   10.9302   -3.1205    0.0000 C   0  0  0  0  0  0  0  0  0  0  0  0
   14.4512   -2.3529    0.0000 C   0  0  0  0  0  0  0  0  0  0  0  0
   14.8684   -1.0847    0.0000 C   0  0  0  0  0  0  0  0  0  0  0  0
   14.0841    0.0000    0.0000 C   0  0  0  0  0  0  0  0  0  0  0  0
   16.2034   -1.0847    0.0000 O   0  0  0  0  0  0  0  0  0  0  0  0
   16.6039   -2.3529    0.0000 N   0  0  0  0  0  0  0  0  0  0  0  0
  1  2  1  0  0  0  0
  1 27  1  0  0  0  0
  1 31  2  0  0  0  0
  2  3  2  0  0  0  0
  2  4  1  0  0  0  0
  4  5  1  0  0  0  0
  5  6  1  0  0  0  0
  6  7  1  0  0  0  0
  7  8  2  0  0  0  0
  7 26  1  0  0  0  0
  8  9  1  0  0  0  0
  9 10  2  0  0  0  0
 10 11  1  0  0  0  0
 10 25  1  0  0  0  0
 11 12  2  0  0  0  0
 11 13  2  0  0  0  0
 11 14  1  0  0  0  0
 14 15  1  0  0  0  0
 15 16  2  0  0  0  0
 15 17  1  0  0  0  0
 17 18  1  0  0  0  0
 18 19  1  0  0  0  0
 18 24  1  0  0  0  0
 19 20  1  0  0  0  0
 20 21  1  0  0  0  0
 21 22  1  0  0  0  0
 22 23  1  0  0  0  0
 23 24  1  0  0  0  0
 25 26  2  0  0  0  0
 27 28  2  0  0  0  0
 28 29  1  0  0  0  0
 28 30  1  0  0  0  0
 30 31  1  0  0  0  0
M  END
> <ID>
2783

> <Formula>
C20H27N5O5S

> <FW>
449.5239

> <DSSTox_CID>
3097

> <DSSTox_RID>
76874

> <DSSTox_GSID>
23097

> <DSSTox_FileID_Sort>
1558

> <TS_ChemName>
Glisoxepide

> <TS_ChemName_Synonyms>


> <TS_CASRN>
25046-79-1

> <CASRN_ChemName_Relationship>
primary

> <TS_Description>
single chemical compound

> <ChemNote>


> <STRUCTURE_Shown>
tested chemical

> <STRUCTURE_Formula>
C20H27N5O5S

> <STRUCTURE_MW>
449.5239

> <STRUCTURE_ChemType>
defined organic

> <STRUCTURE_DefinedOrganicForm>
parent

> <STRUCTURE_IUPAC>
N-(2-{4-[(azepan-1-ylcarbamoyl)sulfamoyl]phenyl}ethyl)-5-methyl-1,2-oxazole-3-carboxamide

> <STRUCTURE_SMILES>
Cc1cc(no1)C(=O)NCCc2ccc(cc2)S(=O)(=O)NC(=O)NN3CCCCCC3

> <STRUCTURE_SMILES_Desalt>
Cc1cc(no1)C(=O)NCCc2ccc(cc2)S(=O)(=O)NC(=O)NN3CCCCCC3

> <Substance_modify_yyyymmdd>
20080429

$$$$
