25057-89-0
ChemmineR-0915142007XD

 16 17  0  0  0  0  0  0  0  0  1 V2000
    4.6331   -3.3442    0.0000 S   0  0  0  0  0  0  0  0  0  0  0  0
    4.6331   -1.9995    0.0000 N   0  0  0  0  0  0  0  0  0  0  0  0
    3.4696   -1.3516    0.0000 C   0  0  0  0  0  0  0  0  0  0  0  0
    3.4696   -3.9991    0.0000 N   0  0  0  0  0  0  0  0  0  0  0  0
    2.3200   -1.9995    0.0000 C   0  0  0  0  0  0  0  0  0  0  0  0
    2.3200   -3.3442    0.0000 C   0  0  0  0  0  0  0  0  0  0  0  0
    5.0511   -4.5843    0.0000 O   0  0  0  0  0  0  0  0  0  0  0  0
    5.8872   -3.6229    0.0000 O   0  0  0  0  0  0  0  0  0  0  0  0
    3.4696   -0.0139    0.0000 O   0  0  0  0  0  0  0  0  0  0  0  0
    5.8175   -1.3307    0.0000 C   0  0  0  0  0  0  0  0  0  0  0  0
    1.1635   -1.3516    0.0000 C   0  0  0  0  0  0  0  0  0  0  0  0
    1.1635   -3.9991    0.0000 C   0  0  0  0  0  0  0  0  0  0  0  0
    6.9670   -1.9856    0.0000 C   0  0  0  0  0  0  0  0  0  0  0  0
    5.8175    0.0000    0.0000 C   0  0  0  0  0  0  0  0  0  0  0  0
    0.0000   -1.9995    0.0000 C   0  0  0  0  0  0  0  0  0  0  0  0
    0.0000   -3.3442    0.0000 C   0  0  0  0  0  0  0  0  0  0  0  0
  1  2  1  0  0  0  0
  1  4  1  0  0  0  0
  1  7  2  0  0  0  0
  1  8  2  0  0  0  0
  2  3  1  0  0  0  0
  2 10  1  0  0  0  0
  3  9  2  0  0  0  0
  3  5  1  0  0  0  0
  4  6  1  0  0  0  0
  5  6  2  0  0  0  0
  5 11  1  0  0  0  0
  6 12  1  0  0  0  0
 10 13  1  0  0  0  0
 10 14  1  0  0  0  0
 11 15  2  0  0  0  0
 12 16  2  0  0  0  0
 15 16  1  0  0  0  0
M  END
> <ID>
3418

> <Formula>
C10H12N2O3S

> <FW>
240.2789

> <DSSTox_CID>
3901

> <DSSTox_RID>
77225

> <DSSTox_GSID>
23901

> <DSSTox_FileID_Sort>
1908

> <TS_ChemName>
Bentazone

> <TS_ChemName_Synonyms>
Bentazone (Bentazon) (Basagran)

> <TS_CASRN>
25057-89-0

> <CASRN_ChemName_Relationship>
primary

> <TS_Description>
single chemical compound

> <ChemNote>


> <STRUCTURE_Shown>
tested chemical

> <STRUCTURE_Formula>
C10H12N2O3S

> <STRUCTURE_MW>
240.2789

> <STRUCTURE_ChemType>
defined organic

> <STRUCTURE_DefinedOrganicForm>
parent

> <STRUCTURE_IUPAC>
3-(propan-2-yl)-1H-2,1,3-benzothiadiazin-4(3H)-one 2,2-dioxide

> <STRUCTURE_SMILES>
CC(C)N1C(=O)c2ccccc2NS1(=O)=O

> <STRUCTURE_SMILES_Desalt>
CC(C)N1C(=O)c2ccccc2NS1(=O)=O

> <Substance_modify_yyyymmdd>
20080429

$$$$
