2508-79-4
ChemmineR-0915142007XD

 18 17  0  0  1  0  0  0  0  0  1 V2000
    5.8236   -2.0074    0.0000 C    0  0  0  0  0  0  0  0  0  0  0  0
    6.9947   -1.3383    0.0000 C    0  0  0  0  0  0  0  0  0  0  0  0
    1.1605   -2.0074    0.0000 C    0  0  0  0  0  0  0  0  0  0  0  0
    4.6422   -1.3383    0.0000 C    0  0  0  0  0  0  0  0  0  0  0  0
    1.1605   -3.3457    0.0000 C    0  0  0  0  0  0  0  0  0  0  0  0
    2.3420   -1.3383    0.0000 C    0  0  0  0  0  0  0  0  0  0  0  0
    3.4921   -2.0074    0.0000 C    0  0  0  0  0  0  0  0  0  0  0  0
    6.9947    0.0000    0.0000 O    0  0  0  0  0  0  0  0  0  0  0  0
    2.3420   -4.0462    0.0000 C    0  0  0  0  0  0  0  0  0  0  0  0
    5.0709   -3.0425    0.0000 N    0  0  0  0  0  0  0  0  0  0  0  0
    8.1552   -2.0074    0.0000 O    0  0  0  0  0  0  0  0  0  0  0  0
    3.4921   -3.3457    0.0000 C    0  0  0  0  0  0  0  0  0  0  0  0
    0.0000   -1.3383    0.0000 O    0  0  0  0  0  0  0  0  0  0  0  0
    0.0000   -4.0462    0.0000 O    0  0  0  0  0  0  0  0  0  0  0  0
    6.4928   -2.9902    0.0000 C    0  0  0  0  0  0  0  0  0  0  0  0
    9.2948   -1.3383    0.0000 C    0  0  0  0  0  0  0  0  0  0  0  0
   10.4554   -1.9761    0.0000 C    0  0  0  0  0  0  0  0  0  0  0  0
   10.0372   -3.7744    0.0000 Cl   0  0  0  0  0  0  0  0  0  0  0  0
  1  2  1  0  0  0  0
  1  4  1  0  0  0  0
  1 10  1  1  0  0  0
  1 15  1  6  0  0  0
  2  8  2  0  0  0  0
  2 11  1  0  0  0  0
  3  6  2  0  0  0  0
  3 13  1  0  0  0  0
  3  5  1  0  0  0  0
  4  7  1  0  0  0  0
  5  9  2  0  0  0  0
  5 14  1  0  0  0  0
  6  7  1  0  0  0  0
  7 12  2  0  0  0  0
  9 12  1  0  0  0  0
 11 16  1  0  0  0  0
 16 17  1  0  0  0  0
M  END
> <ID>
10902

> <Formula>
C12H18ClNO4

> <FW>
275.7286 (239.2677+36.4609)

> <DSSTox_CID>
25370

> <DSSTox_RID>
80832

> <DSSTox_GSID>
45370

> <DSSTox_FileID_Sort>
5513

> <TS_ChemName>
Methyldopate hydrochloride

> <TS_ChemName_Synonyms>


> <TS_CASRN>
2508-79-4

> <CASRN_ChemName_Relationship>
primary

> <TS_Description>
single chemical compound

> <ChemNote>
parent [2544-09-4]

> <STRUCTURE_Shown>
tested chemical

> <STRUCTURE_Formula>
C12H18ClNO4

> <STRUCTURE_MW>
275.7286

> <STRUCTURE_ChemType>
defined organic

> <STRUCTURE_DefinedOrganicForm>
complex

> <STRUCTURE_IUPAC>
ethyl 3-hydroxy-alpha-methyl-L-tyrosinate hydrochloride (1:1)

> <STRUCTURE_SMILES>
Cl.Oc1ccc(C[C@](C)(N)C(=O)OCC)cc1O

> <STRUCTURE_SMILES_Desalt>
Oc1ccc(C[C@](C)(N)C(=O)OCC)cc1O

> <Substance_modify_yyyymmdd>
20100107

$$$$
