2508-47-6
ChemmineR-0915142007XD

 37 41  0  0  1  0  0  0  0  0  1 V2000
   15.9666   -6.3867    0.0000 C   0  0  0  0  0  0  0  0  0  0  0  0
   15.8315   -5.0688    0.0000 C   0  0  0  0  0  0  0  0  0  0  0  0
   16.8959   -4.2747    0.0000 O   0  0  0  0  0  0  0  0  0  0  0  0
   14.6150   -4.5281    0.0000 O   0  0  0  0  0  0  0  0  0  0  0  0
   13.5336   -5.2884    0.0000 C   0  0  0  0  0  0  0  0  0  0  0  0
   14.6150   -6.0825    0.0000 H   0  0  0  0  0  0  0  0  0  0  0  0
   12.7564   -4.2409    0.0000 C   0  0  0  0  0  0  0  0  0  0  0  0
   11.5061   -4.6295    0.0000 C   0  0  0  0  0  0  0  0  0  0  0  0
   10.3572   -3.9705    0.0000 C   0  0  0  0  0  0  0  0  0  0  0  0
   10.3572   -2.6527    0.0000 C   0  0  0  0  0  0  0  0  0  0  0  0
    9.2083   -1.9937    0.0000 C   0  0  0  0  0  0  0  0  0  0  0  0
    8.0425   -2.6527    0.0000 C   0  0  0  0  0  0  0  0  0  0  0  0
    6.8935   -1.9937    0.0000 C   0  0  0  0  0  0  0  0  0  0  0  0
    5.7446   -2.6527    0.0000 C   0  0  0  0  0  0  0  0  0  0  0  0
    5.7446   -3.9705    0.0000 C   0  0  0  0  0  0  0  0  0  0  0  0
    6.8935   -4.6295    0.0000 C   0  0  0  0  0  0  0  0  0  0  0  0
    8.0425   -3.9705    0.0000 C   0  0  0  0  0  0  0  0  0  0  0  0
    9.2083   -4.6295    0.0000 C   0  0  0  0  0  0  0  0  0  0  0  0
    9.2083   -5.9643    0.0000 C   0  0  0  0  0  0  0  0  0  0  0  0
   10.3572   -6.6232    0.0000 C   0  0  0  0  0  0  0  0  0  0  0  0
   11.5061   -5.9643    0.0000 C   0  0  0  0  0  0  0  0  0  0  0  0
   11.0330   -7.3835    0.0000 C   0  0  0  0  0  0  0  0  0  0  0  0
   12.7564   -6.3698    0.0000 C   0  0  0  0  0  0  0  0  0  0  0  0
   12.3509   -7.6370    0.0000 H   0  0  0  0  0  0  0  0  0  0  0  0
   13.8378   -7.1639    0.0000 O   0  0  0  0  0  0  0  0  0  0  0  0
   13.7026   -8.4817    0.0000 C   0  0  0  0  0  0  0  0  0  0  0  0
   12.4861   -9.0224    0.0000 C   0  0  0  0  0  0  0  0  0  0  0  0
   14.7670   -9.2590    0.0000 O   0  0  0  0  0  0  0  0  0  0  0  0
    4.6126   -1.9937    0.0000 O   0  0  0  0  0  0  0  0  0  0  0  0
    3.4637   -2.6527    0.0000 C   0  0  0  0  0  0  0  0  0  0  0  0
    3.4637   -3.9705    0.0000 O   0  0  0  0  0  0  0  0  0  0  0  0
    2.2978   -1.9937    0.0000 C   0  0  0  0  0  0  0  0  0  0  0  0
    2.2978   -0.6589    0.0000 C   0  0  0  0  0  0  0  0  0  0  0  0
    1.1489    0.0000    0.0000 C   0  0  0  0  0  0  0  0  0  0  0  0
    0.0000   -0.6589    0.0000 C   0  0  0  0  0  0  0  0  0  0  0  0
    0.0000   -1.9937    0.0000 C   0  0  0  0  0  0  0  0  0  0  0  0
    1.1489   -2.6527    0.0000 C   0  0  0  0  0  0  0  0  0  0  0  0
  1  2  1  0  0  0  0
  2  3  2  0  0  0  0
  2  4  1  0  0  0  0
  4  5  1  0  0  0  0
  5  6  1  6  0  0  0
  5  7  1  0  0  0  0
  5 23  1  0  0  0  0
  7  8  1  0  0  0  0
  8  9  1  0  0  0  0
  8 21  1  0  0  0  0
  9 10  1  0  0  0  0
  9 18  1  0  0  0  0
 10 11  1  0  0  0  0
 11 12  1  0  0  0  0
 12 13  2  0  0  0  0
 12 17  1  0  0  0  0
 13 14  1  0  0  0  0
 14 15  2  0  0  0  0
 14 29  1  0  0  0  0
 15 16  1  0  0  0  0
 16 17  2  0  0  0  0
 17 18  1  0  0  0  0
 18 19  1  0  0  0  0
 19 20  1  0  0  0  0
 20 21  1  0  0  0  0
 21 22  1  0  0  0  0
 21 23  1  0  0  0  0
 23 24  1  0  0  0  0
 23 25  1  6  0  0  0
 25 26  1  0  0  0  0
 26 27  1  0  0  0  0
 26 28  2  0  0  0  0
 29 30  1  0  0  0  0
 30 31  2  0  0  0  0
 30 32  1  0  0  0  0
 32 33  2  0  0  0  0
 32 37  1  0  0  0  0
 33 34  1  0  0  0  0
 34 35  2  0  0  0  0
 35 36  1  0  0  0  0
 36 37  2  0  0  0  0
M  END
> <ID>
16099

> <Formula>
C29H32O6

> <FW>
476.5608

> <DSSTox_CID>
31486

> <DSSTox_RID>
97371

> <DSSTox_GSID>
57697

> <DSSTox_FileID_Sort>
8438

> <TS_ChemName>
Estriol benzoate diacetate

> <TS_ChemName_Synonyms>


> <TS_CASRN>
2508-47-6

> <CASRN_ChemName_Relationship>
primary

> <TS_Description>
single chemical compound

> <ChemNote>


> <STRUCTURE_Shown>
tested chemical

> <STRUCTURE_Formula>
C29H32O6

> <STRUCTURE_MW>
476.5608

> <STRUCTURE_ChemType>
defined organic

> <STRUCTURE_DefinedOrganicForm>
parent

> <STRUCTURE_IUPAC>
(16beta,17alpha)-16,17-diacetoxyestra-1(10),2,4-trien-3-yl benzoate

> <STRUCTURE_SMILES>
CC(=O)O[C@@H]4C5(C)CCC2C(CCc3cc(OC(=O)c1ccccc1)ccc23)C5C[C@H]4OC(C)=O

> <STRUCTURE_SMILES_Desalt>
CC(=O)O[C@@H]4C5(C)CCC2C(CCc3cc(OC(=O)c1ccccc1)ccc23)C5C[C@H]4OC(C)=O

> <Substance_modify_yyyymmdd>
20131018

$$$$
