25103-58-6
ChemmineR-0915142007XD

 13 12  0  0  0  0  0  0  0  0  1 V2000
    2.6608   -1.9956    0.0000 C   0  0  0  0  0  0  0  0  0  0  0  0
    3.9912   -1.9956    0.0000 C   0  0  0  0  0  0  0  0  0  0  0  0
    3.9912   -0.6652    0.0000 C   0  0  0  0  0  0  0  0  0  0  0  0
    2.8417    0.0000    0.0000 C   0  0  0  0  0  0  0  0  0  0  0  0
    5.1406    0.0000    0.0000 C   0  0  0  0  0  0  0  0  0  0  0  0
    5.3216   -1.9956    0.0000 C   0  0  0  0  0  0  0  0  0  0  0  0
    3.9912   -3.3260    0.0000 C   0  0  0  0  0  0  0  0  0  0  0  0
    1.3304   -1.9956    0.0000 C   0  0  0  0  0  0  0  0  0  0  0  0
    1.3304   -0.6652    0.0000 C   0  0  0  0  0  0  0  0  0  0  0  0
    0.0000   -1.9956    0.0000 C   0  0  0  0  0  0  0  0  0  0  0  0
    1.3304   -3.3260    0.0000 S   0  0  0  0  0  0  0  0  0  0  0  0
    2.6608   -3.3260    0.0000 C   0  0  0  0  0  0  0  0  0  0  0  0
    2.6608   -0.6652    0.0000 C   0  0  0  0  0  0  0  0  0  0  0  0
  1  2  1  0  0  0  0
  1  8  1  0  0  0  0
  1 12  1  0  0  0  0
  1 13  1  0  0  0  0
  2  3  1  0  0  0  0
  2  6  1  0  0  0  0
  2  7  1  0  0  0  0
  3  4  1  0  0  0  0
  3  5  1  0  0  0  0
  8  9  1  0  0  0  0
  8 10  1  0  0  0  0
  8 11  1  0  0  0  0
M  END
> <ID>
4090

> <Formula>
C12H26S

> <FW>
202.3998

> <DSSTox_CID>
5221

> <DSSTox_RID>
77707

> <DSSTox_GSID>
25221

> <DSSTox_FileID_Sort>
2390

> <TS_ChemName>
tert-Dodecanethiol

> <TS_ChemName_Synonyms>
tert-Dodecanethiol (tert-Dodecyl mercaptan)

> <TS_CASRN>
25103-58-6

> <CASRN_ChemName_Relationship>
primary

> <TS_Description>
single chemical compound

> <ChemNote>


> <STRUCTURE_Shown>
tested chemical

> <STRUCTURE_Formula>
C12H26S

> <STRUCTURE_MW>
202.3998

> <STRUCTURE_ChemType>
defined organic

> <STRUCTURE_DefinedOrganicForm>
parent

> <STRUCTURE_IUPAC>
2,3,3,4,4,5-hexamethylhexane-2-thiol

> <STRUCTURE_SMILES>
CC(C)(C(C)(C)C(C)C)C(C)(C)S

> <STRUCTURE_SMILES_Desalt>
CC(C)(C(C)(C)C(C)C)C(C)(C)S

> <Substance_modify_yyyymmdd>
20080429

$$$$
