2510-55-6
ChemmineR-0915142007XD

 16 18  0  0  0  0  0  0  0  0  1 V2000
    6.6491   -4.6012    0.0000 C   0  0  0  0  0  0  0  0  0  0  0  0
    5.9908   -5.7515    0.0000 C   0  0  0  0  0  0  0  0  0  0  0  0
    0.0000   -4.6012    0.0000 C   0  0  0  0  0  0  0  0  0  0  0  0
    0.6716   -5.7515    0.0000 C   0  0  0  0  0  0  0  0  0  0  0  0
    5.9908   -3.4442    0.0000 C   0  0  0  0  0  0  0  0  0  0  0  0
    4.6610   -5.7515    0.0000 C   0  0  0  0  0  0  0  0  0  0  0  0
    0.6716   -3.4442    0.0000 C   0  0  0  0  0  0  0  0  0  0  0  0
    2.0014   -5.7515    0.0000 C   0  0  0  0  0  0  0  0  0  0  0  0
    3.9895   -2.2939    0.0000 C   0  0  0  0  0  0  0  0  0  0  0  0
    2.0014   -1.1503    0.0000 C   0  0  0  0  0  0  0  0  0  0  0  0
    4.6610   -3.4442    0.0000 C   0  0  0  0  0  0  0  0  0  0  0  0
    2.6596   -2.2939    0.0000 C   0  0  0  0  0  0  0  0  0  0  0  0
    3.9895   -4.6012    0.0000 C   0  0  0  0  0  0  0  0  0  0  0  0
    2.0014   -3.4442    0.0000 C   0  0  0  0  0  0  0  0  0  0  0  0
    2.6596   -4.6012    0.0000 C   0  0  0  0  0  0  0  0  0  0  0  0
    1.3298    0.0000    0.0000 N   0  0  0  0  0  0  0  0  0  0  0  0
  1  2  1  0  0  0  0
  1  5  2  0  0  0  0
  2  6  2  0  0  0  0
  3  4  1  0  0  0  0
  3  7  2  0  0  0  0
  4  8  2  0  0  0  0
  5 11  1  0  0  0  0
  6 13  1  0  0  0  0
  7 14  1  0  0  0  0
  8 15  1  0  0  0  0
  9 11  1  0  0  0  0
  9 12  2  0  0  0  0
 10 12  1  0  0  0  0
 10 16  3  0  0  0  0
 11 13  2  0  0  0  0
 12 14  1  0  0  0  0
 13 15  1  0  0  0  0
 14 15  2  0  0  0  0
M  END
> <ID>
14119

> <Formula>
C15H9N

> <FW>
203.2387

> <DSSTox_CID>
29112

> <DSSTox_RID>
83331

> <DSSTox_GSID>
49256

> <DSSTox_FileID_Sort>
8006

> <TS_ChemName>
9-Cyanophenanthrene

> <TS_ChemName_Synonyms>


> <TS_CASRN>
2510-55-6

> <CASRN_ChemName_Relationship>
primary

> <TS_Description>
single chemical compound

> <ChemNote>


> <STRUCTURE_Shown>
tested chemical

> <STRUCTURE_Formula>
C15H9N

> <STRUCTURE_MW>
203.2387

> <STRUCTURE_ChemType>
defined organic

> <STRUCTURE_DefinedOrganicForm>
parent

> <STRUCTURE_IUPAC>
phenanthrene-9-carbonitrile

> <STRUCTURE_SMILES>
N#Cc2cc3ccccc3c1ccccc12

> <STRUCTURE_SMILES_Desalt>
N#Cc2cc3ccccc3c1ccccc12

> <Substance_modify_yyyymmdd>
20111204

$$$$
