25122-57-0
ChemmineR-0915142007XD

 35 38  0  0  1  0  0  0  0  0  1 V2000
    6.8750   -3.6946    0.0000 C    0  0  0  0  0  0  0  0  0  0  0  0
    4.5743   -4.9803    0.0000 C    0  0  0  0  0  0  0  0  0  0  0  0
    3.4510   -5.6841    0.0000 C    0  0  0  0  0  0  0  0  0  0  0  0
    6.8750   -4.9803    0.0000 C    0  0  0  0  0  0  0  0  0  0  0  0
    5.7247   -5.6841    0.0000 C    0  0  0  0  0  0  0  0  0  0  0  0
    8.1472   -3.2616    0.0000 C    0  0  0  0  0  0  0  0  0  0  0  0
    3.4510   -6.9833    0.0000 C    0  0  0  0  0  0  0  0  0  0  0  0
    4.5743   -3.6946    0.0000 C    0  0  0  0  0  0  0  0  0  0  0  0
    5.7247   -3.0044    0.0000 C    0  0  0  0  0  0  0  0  0  0  0  0
    8.8915   -4.3172    0.0000 C    0  0  0  0  0  0  0  0  0  0  0  0
    2.2872   -4.9803    0.0000 C    0  0  0  0  0  0  0  0  0  0  0  0
    8.1472   -5.3999    0.0000 C    0  0  0  0  0  0  0  0  0  0  0  0
    2.2872   -7.6735    0.0000 C    0  0  0  0  0  0  0  0  0  0  0  0
    8.1066   -1.9353    0.0000 C    0  0  0  0  0  0  0  0  0  0  0  0
    5.7247   -6.9833    0.0000 C    0  0  0  0  0  0  0  0  0  0  0  0
    1.1368   -5.6841    0.0000 C    0  0  0  0  0  0  0  0  0  0  0  0
    1.1368   -6.9833    0.0000 C    0  0  0  0  0  0  0  0  0  0  0  0
    4.5743   -7.6735    0.0000 C    0  0  0  0  0  0  0  0  0  0  0  0
    4.5743   -6.3472    0.0000 F    0  0  0  0  0  0  0  0  0  0  0  0
    6.9698   -1.2722    0.0000 O    0  0  0  0  0  0  0  0  0  0  0  0
    0.0000   -7.6735    0.0000 O    0  0  0  0  0  0  0  0  0  0  0  0
    9.4599   -3.4240    0.0000 O    0  0  0  0  0  0  0  0  0  0  0  0
    6.8750   -2.3278    0.0000 C    0  0  0  0  0  0  0  0  0  0  0  0
    3.4240   -2.9909    0.0000 O    0  0  0  0  0  0  0  0  0  0  0  0
    3.4510   -4.3172    0.0000 C    0  0  0  0  0  0  0  0  0  0  0  0
    9.2840   -1.2857    0.0000 C    0  0  0  0  0  0  0  0  0  0  0  0
    9.2569    0.0000    0.0000 Cl   0  0  0  0  0  0  0  0  0  0  0  0
   10.2449   -4.3172    0.0000 C    0  0  0  0  0  0  0  0  0  0  0  0
    5.7247   -4.3578    0.0000 H    0  0  0  0  0  0  0  0  0  0  0  0
   10.2449   -2.4225    0.0000 C    0  0  0  0  0  0  0  0  0  0  0  0
    9.6765   -1.1368    0.0000 O    0  0  0  0  0  0  0  0  0  0  0  0
   11.5712   -2.4225    0.0000 C    0  0  0  0  0  0  0  0  0  0  0  0
    6.8750   -6.2931    0.0000 H    0  0  0  0  0  0  0  0  0  0  0  0
   12.2072   -1.2722    0.0000 C    0  0  0  0  0  0  0  0  0  0  0  0
   13.5335   -1.2722    0.0000 C    0  0  0  0  0  0  0  0  0  0  0  0
  1  4  1  0  0  0  0
  1  6  1  0  0  0  0
  1  9  1  0  0  0  0
  1 23  1  1  0  0  0
  2  8  1  0  0  0  0
  2  3  1  0  0  0  0
  2 19  1  6  0  0  0
  2  5  1  0  0  0  0
  3  7  1  0  0  0  0
  3 11  1  0  0  0  0
  3 25  1  1  0  0  0
  4  5  1  0  0  0  0
  4 12  1  0  0  0  0
  4 33  1  6  0  0  0
  5 15  1  0  0  0  0
  5 29  1  1  0  0  0
  6 10  1  0  0  0  0
  6 14  1  0  0  0  0
  6 22  1  6  0  0  0
  7 13  2  0  0  0  0
  7 18  1  0  0  0  0
  8  9  1  0  0  0  0
  8 24  2  0  0  0  0
 10 28  1  1  0  0  0
 10 12  1  0  0  0  0
 11 16  2  0  0  0  0
 13 17  1  0  0  0  0
 14 20  2  0  0  0  0
 14 26  1  0  0  0  0
 15 18  1  0  0  0  0
 16 17  1  0  0  0  0
 17 21  2  0  0  0  0
 22 30  1  0  0  0  0
 26 27  1  0  0  0  0
 30 31  2  0  0  0  0
 30 32  1  0  0  0  0
 32 34  1  0  0  0  0
 34 35  1  0  0  0  0
M  END
> <ID>
11999

> <Formula>
C26H32ClFO5

> <FW>
478.9807

> <DSSTox_CID>
26823

> <DSSTox_RID>
81935

> <DSSTox_GSID>
46823

> <DSSTox_FileID_Sort>
6616

> <TS_ChemName>
Clobetasone butyrate

> <TS_ChemName_Synonyms>


> <TS_CASRN>
25122-57-0

> <CASRN_ChemName_Relationship>
primary

> <TS_Description>
single chemical compound

> <ChemNote>
stereochem

> <STRUCTURE_Shown>
tested chemical

> <STRUCTURE_Formula>
C26H32ClFO5

> <STRUCTURE_MW>
478.9807

> <STRUCTURE_ChemType>
defined organic

> <STRUCTURE_DefinedOrganicForm>
parent

> <STRUCTURE_IUPAC>
(16beta)-21-chloro-9-fluoro-16-methyl-3,11,20-trioxopregna-1,4-dien-17-yl butanoate

> <STRUCTURE_SMILES>
ClCC(=O)[C@@]3(OC(=O)CCC)[C@@H](C)C[C@H]2[C@@H]4CCC1=CC(=O)C=C[C@]1(C)[C@@]4(F)C(=O)C[C@@]23C

> <STRUCTURE_SMILES_Desalt>
ClCC(=O)[C@@]3(OC(=O)CCC)[C@@H](C)C[C@H]2[C@@H]4CCC1=CC(=O)C=C[C@]1(C)[C@@]4(F)C(=O)C[C@@]23C

> <Substance_modify_yyyymmdd>
20110801

$$$$
