25122-41-2
ChemmineR-0915142007XD

 30 33  0  0  1  0  0  0  0  0  1 V2000
    6.9122   -3.2558    0.0000 C    0  0  0  0  0  0  0  0  0  0  0  0
    4.6116   -4.5705    0.0000 C    0  0  0  0  0  0  0  0  0  0  0  0
    3.4715   -5.2689    0.0000 C    0  0  0  0  0  0  0  0  0  0  0  0
    6.9122   -4.5705    0.0000 C    0  0  0  0  0  0  0  0  0  0  0  0
    5.7516   -5.2689    0.0000 C    0  0  0  0  0  0  0  0  0  0  0  0
    8.1755   -2.8244    0.0000 C    0  0  0  0  0  0  0  0  0  0  0  0
    3.4715   -6.5938    0.0000 C    0  0  0  0  0  0  0  0  0  0  0  0
    4.6116   -3.2558    0.0000 C    0  0  0  0  0  0  0  0  0  0  0  0
    5.7516   -2.5882    0.0000 C    0  0  0  0  0  0  0  0  0  0  0  0
    8.9355   -3.9029    0.0000 C    0  0  0  0  0  0  0  0  0  0  0  0
    2.3006   -4.5705    0.0000 C    0  0  0  0  0  0  0  0  0  0  0  0
    8.1755   -4.9916    0.0000 C    0  0  0  0  0  0  0  0  0  0  0  0
    2.3006   -7.2409    0.0000 C    0  0  0  0  0  0  0  0  0  0  0  0
    8.5247   -1.5714    0.0000 C    0  0  0  0  0  0  0  0  0  0  0  0
    5.7516   -6.5938    0.0000 C    0  0  0  0  0  0  0  0  0  0  0  0
    1.1606   -5.2689    0.0000 C    0  0  0  0  0  0  0  0  0  0  0  0
    1.1606   -6.5938    0.0000 C    0  0  0  0  0  0  0  0  0  0  0  0
    4.6116   -7.2409    0.0000 C    0  0  0  0  0  0  0  0  0  0  0  0
    4.6116   -5.9159    0.0000 F    0  0  0  0  0  0  0  0  0  0  0  0
    7.6106   -0.6162    0.0000 O    0  0  0  0  0  0  0  0  0  0  0  0
    0.0000   -7.2614    0.0000 O    0  0  0  0  0  0  0  0  0  0  0  0
    9.4799   -2.9991    0.0000 O    0  0  0  0  0  0  0  0  0  0  0  0
    6.9122   -1.9001    0.0000 C    0  0  0  0  0  0  0  0  0  0  0  0
    3.4510   -2.5677    0.0000 O    0  0  0  0  0  0  0  0  0  0  0  0
    3.4715   -3.9029    0.0000 C    0  0  0  0  0  0  0  0  0  0  0  0
    9.8085   -1.2530    0.0000 C    0  0  0  0  0  0  0  0  0  0  0  0
   10.1577    0.0000    0.0000 Cl   0  0  0  0  0  0  0  0  0  0  0  0
   10.2707   -3.9029    0.0000 C    0  0  0  0  0  0  0  0  0  0  0  0
    5.7516   -3.9337    0.0000 H    0  0  0  0  0  0  0  0  0  0  0  0
    6.9122   -5.8954    0.0000 H    0  0  0  0  0  0  0  0  0  0  0  0
  1  4  1  0  0  0  0
  1  6  1  0  0  0  0
  1  9  1  0  0  0  0
  1 23  1  1  0  0  0
  2  8  1  0  0  0  0
  2  3  1  0  0  0  0
  2 19  1  6  0  0  0
  2  5  1  0  0  0  0
  3  7  1  0  0  0  0
  3 11  1  0  0  0  0
  3 25  1  1  0  0  0
  4  5  1  0  0  0  0
  4 12  1  0  0  0  0
  4 30  1  6  0  0  0
  5 15  1  0  0  0  0
  5 29  1  1  0  0  0
  6 10  1  0  0  0  0
  6 14  1  0  0  0  0
  6 22  1  6  0  0  0
  7 13  2  0  0  0  0
  7 18  1  0  0  0  0
  8  9  1  0  0  0  0
  8 24  1  1  0  0  0
 10 28  1  1  0  0  0
 10 12  1  0  0  0  0
 11 16  2  0  0  0  0
 13 17  1  0  0  0  0
 14 20  2  0  0  0  0
 14 26  1  0  0  0  0
 15 18  1  0  0  0  0
 16 17  1  0  0  0  0
 17 21  2  0  0  0  0
 26 27  1  0  0  0  0
M  END
> <ID>
13943

> <Formula>
C22H28ClFO4

> <FW>
410.9067

> <DSSTox_CID>
28881

> <DSSTox_RID>
83149

> <DSSTox_GSID>
48955

> <DSSTox_FileID_Sort>
7826

> <TS_ChemName>
Clobetasol

> <TS_ChemName_Synonyms>


> <TS_CASRN>
25122-41-2

> <CASRN_ChemName_Relationship>
primary

> <TS_Description>
single chemical compound

> <ChemNote>


> <STRUCTURE_Shown>
tested chemical

> <STRUCTURE_Formula>
C22H28ClFO4

> <STRUCTURE_MW>
410.9067

> <STRUCTURE_ChemType>
defined organic

> <STRUCTURE_DefinedOrganicForm>
parent

> <STRUCTURE_IUPAC>
(11beta,16beta)-21-chloro-9-fluoro-11,17-dihydroxy-16-methylpregna-1,4-diene-3,20-dione

> <STRUCTURE_SMILES>
ClCC(=O)[C@@]4(O)[C@@H](C)C[C@@H]3[C@]4(C)C[C@H](O)[C@@]2(F)[C@H]3CCC1=CC(=O)C=C[C@@]12C

> <STRUCTURE_SMILES_Desalt>
ClCC(=O)[C@@]4(O)[C@@H](C)C[C@@H]3[C@]4(C)C[C@H](O)[C@@]2(F)[C@H]3CCC1=CC(=O)C=C[C@@]12C

> <Substance_modify_yyyymmdd>
20111204

$$$$
