25122-46-7
ChemmineR-0915142007XD

 34 37  0  0  1  0  0  0  0  0  1 V2000
    6.9394   -2.4081    0.0000 C    0  0  0  0  0  0  0  0  0  0  0  0
    4.6479   -3.7157    0.0000 C    0  0  0  0  0  0  0  0  0  0  0  0
    8.1823   -2.0326    0.0000 C    0  0  0  0  0  0  0  0  0  0  0  0
    3.4827   -4.3889    0.0000 C    0  0  0  0  0  0  0  0  0  0  0  0
    6.9394   -3.7157    0.0000 C    0  0  0  0  0  0  0  0  0  0  0  0
    5.8001   -4.3889    0.0000 C    0  0  0  0  0  0  0  0  0  0  0  0
    3.4827   -5.7224    0.0000 C    0  0  0  0  0  0  0  0  0  0  0  0
    4.6479   -2.4081    0.0000 C    0  0  0  0  0  0  0  0  0  0  0  0
    5.8001   -1.7349    0.0000 C    0  0  0  0  0  0  0  0  0  0  0  0
    8.9591   -3.0684    0.0000 C    0  0  0  0  0  0  0  0  0  0  0  0
    2.3434   -3.7157    0.0000 C    0  0  0  0  0  0  0  0  0  0  0  0
    8.1823   -4.1300    0.0000 C    0  0  0  0  0  0  0  0  0  0  0  0
    2.3434   -6.3827    0.0000 C    0  0  0  0  0  0  0  0  0  0  0  0
    8.1823   -0.6732    0.0000 C    0  0  0  0  0  0  0  0  0  0  0  0
    9.5029   -2.1362    0.0000 O    0  0  0  0  0  0  0  0  0  0  0  0
    5.8001   -5.7224    0.0000 C    0  0  0  0  0  0  0  0  0  0  0  0
    1.1781   -4.3889    0.0000 C    0  0  0  0  0  0  0  0  0  0  0  0
    1.1781   -5.7224    0.0000 C    0  0  0  0  0  0  0  0  0  0  0  0
   10.6681   -1.4500    0.0000 C    0  0  0  0  0  0  0  0  0  0  0  0
    4.6479   -6.3827    0.0000 C    0  0  0  0  0  0  0  0  0  0  0  0
    4.6479   -5.0492    0.0000 F    0  0  0  0  0  0  0  0  0  0  0  0
    9.3216    0.0000    0.0000 O    0  0  0  0  0  0  0  0  0  0  0  0
   10.6681   -0.1036    0.0000 O    0  0  0  0  0  0  0  0  0  0  0  0
    0.0000   -6.3957    0.0000 O    0  0  0  0  0  0  0  0  0  0  0  0
    6.9394   -1.0487    0.0000 C    0  0  0  0  0  0  0  0  0  0  0  0
    3.4568   -1.7349    0.0000 O    0  0  0  0  0  0  0  0  0  0  0  0
    3.4827   -3.0813    0.0000 C    0  0  0  0  0  0  0  0  0  0  0  0
    7.0301    0.0000    0.0000 C    0  0  0  0  0  0  0  0  0  0  0  0
    5.9166   -0.6732    0.0000 Cl   0  0  0  0  0  0  0  0  0  0  0  0
   10.2926   -3.0684    0.0000 C    0  0  0  0  0  0  0  0  0  0  0  0
   11.8203   -2.1362    0.0000 C    0  0  0  0  0  0  0  0  0  0  0  0
   12.9467   -1.4371    0.0000 C    0  0  0  0  0  0  0  0  0  0  0  0
    6.9394   -5.0492    0.0000 H    0  0  0  0  0  0  0  0  0  0  0  0
    5.8001   -3.0684    0.0000 H    0  0  0  0  0  0  0  0  0  0  0  0
  1  3  1  0  0  0  0
  1  5  1  0  0  0  0
  1  9  1  0  0  0  0
  1 25  1  1  0  0  0
  2  8  1  0  0  0  0
  2  4  1  0  0  0  0
  2 21  1  6  0  0  0
  2  6  1  0  0  0  0
  3 10  1  0  0  0  0
  3 14  1  0  0  0  0
  3 15  1  6  0  0  0
  4  7  1  0  0  0  0
  4 11  1  0  0  0  0
  4 27  1  1  0  0  0
  5  6  1  0  0  0  0
  5 12  1  0  0  0  0
  5 33  1  6  0  0  0
  6 16  1  0  0  0  0
  6 34  1  1  0  0  0
  7 13  2  0  0  0  0
  7 20  1  0  0  0  0
  8  9  1  0  0  0  0
  8 26  1  1  0  0  0
 10 30  1  1  0  0  0
 10 12  1  0  0  0  0
 11 17  2  0  0  0  0
 13 18  1  0  0  0  0
 14 22  2  0  0  0  0
 14 28  1  0  0  0  0
 15 19  1  0  0  0  0
 16 20  1  0  0  0  0
 17 18  1  0  0  0  0
 18 24  2  0  0  0  0
 19 23  2  0  0  0  0
 19 31  1  0  0  0  0
 28 29  1  0  0  0  0
 31 32  1  0  0  0  0
M  END
> <ID>
11287

> <Formula>
C25H32ClFO5

> <FW>
466.97

> <DSSTox_CID>
25907

> <DSSTox_RID>
81219

> <DSSTox_GSID>
45907

> <DSSTox_FileID_Sort>
5900

> <TS_ChemName>
Clobetasol propionate

> <TS_ChemName_Synonyms>


> <TS_CASRN>
25122-46-7

> <CASRN_ChemName_Relationship>
primary

> <TS_Description>
single chemical compound

> <ChemNote>
stereochem

> <STRUCTURE_Shown>
tested chemical

> <STRUCTURE_Formula>
C25H32ClFO5

> <STRUCTURE_MW>
466.97

> <STRUCTURE_ChemType>
defined organic

> <STRUCTURE_DefinedOrganicForm>
parent

> <STRUCTURE_IUPAC>
(11beta,16beta)-21-chloro-9-fluoro-11-hydroxy-16-methyl-3,20-dioxopregna-1,4-dien-17-yl propanoate

> <STRUCTURE_SMILES>
ClCC(=O)[C@@]4(OC(=O)CC)[C@@H](C)C[C@@H]3[C@]4(C)C[C@H](O)[C@@]2(F)[C@H]3CCC1=CC(=O)C=C[C@@]12C

> <STRUCTURE_SMILES_Desalt>
ClCC(=O)[C@@]4(OC(=O)CC)[C@@H](C)C[C@@H]3[C@]4(C)C[C@H](O)[C@@]2(F)[C@H]3CCC1=CC(=O)C=C[C@@]12C

> <Substance_modify_yyyymmdd>
20110922

$$$$
