25126-32-3
ChemmineR-0915142007XD

 78 81  0  0  1  0  0  0  0  0  1 V2000
    2.2955   -0.6622    0.0000 C   0  0  0  0  0  0  0  0  0  0  0  0
    2.2955   -1.9865    0.0000 C   0  0  0  0  0  0  0  0  0  0  0  0
    1.1477    0.0000    0.0000 O   0  0  0  0  0  0  0  0  0  0  0  0
    1.1477   -2.6486    0.0000 C   0  0  0  0  0  0  0  0  0  0  0  0
    3.4653   -2.6486    0.0000 N   0  0  0  0  0  0  0  0  0  0  0  0
    1.1477   -3.9950    0.0000 C   0  0  0  0  0  0  0  0  0  0  0  0
    0.0000   -4.6571    0.0000 C   0  0  0  0  0  0  0  0  0  0  0  0
    2.2955   -4.6571    0.0000 C   0  0  0  0  0  0  0  0  0  0  0  0
    2.2955   -5.9814    0.0000 C   0  0  0  0  0  0  0  0  0  0  0  0
    0.0000   -5.9814    0.0000 C   0  0  0  0  0  0  0  0  0  0  0  0
    1.1477   -6.6436    0.0000 C   0  0  0  0  0  0  0  0  0  0  0  0
    3.4653    0.0000    0.0000 N   0  0  0  0  0  0  0  0  0  0  0  0
    8.0562    0.0000    0.0000 O   0  0  0  0  0  0  0  0  0  0  0  0
    5.7607   -3.9950    0.0000 N   0  0  0  0  0  0  0  0  0  0  0  0
    5.7607    0.0000    0.0000 O   0  0  0  0  0  0  0  0  0  0  0  0
    4.6130   -0.6622    0.0000 O   0  0  0  0  0  0  0  0  0  0  0  0
    5.7607   -2.6486    0.0000 C   0  0  0  0  0  0  0  0  0  0  0  0
    6.9085   -0.6622    0.0000 C   0  0  0  0  0  0  0  0  0  0  0  0
    4.6130   -1.9865    0.0000 C   0  0  0  0  0  0  0  0  0  0  0  0
    6.9085   -1.9865    0.0000 C   0  0  0  0  0  0  0  0  0  0  0  0
    4.6130   -4.6571    0.0000 C   0  0  0  0  0  0  0  0  0  0  0  0
    3.4653   -3.9950    0.0000 O   0  0  0  0  0  0  0  0  0  0  0  0
    4.6130   -5.9814    0.0000 C   0  0  0  0  0  0  0  0  0  0  0  0
    5.7607   -6.6436    0.0000 N   0  0  0  0  0  0  0  0  0  0  0  0
    2.2955   -8.6521    0.0000 S   0  0  0  0  0  0  0  0  0  0  0  0
    3.4653   -6.6436    0.0000 C   0  0  0  0  0  0  0  0  0  0  0  0
    3.4653   -7.9900    0.0000 C   0  0  0  0  0  0  0  0  0  0  0  0
    2.2955   -9.9764    0.0000 C   0  0  0  0  0  0  0  0  0  0  0  0
    5.7607   -7.9900    0.0000 C   0  0  0  0  0  0  0  0  0  0  0  0
    4.6130   -8.6521    0.0000 O   0  0  0  0  0  0  0  0  0  0  0  0
    6.9085   -8.6521    0.0000 C   0  0  0  0  0  0  0  0  0  0  0  0
    6.9085   -9.9764    0.0000 C   0  0  0  0  0  0  0  0  0  0  0  0
    8.0562   -7.9900    0.0000 N   0  0  0  0  0  0  0  0  0  0  0  0
    5.7607  -10.6386    0.0000 C   0  0  0  0  0  0  0  0  0  0  0  0
    4.5468  -10.1089    0.0000 C   0  0  0  0  0  0  0  0  0  0  0  0
    3.6639  -11.0800    0.0000 N   0  0  0  0  0  0  0  0  0  0  0  0
    4.3261  -12.2498    0.0000 C   0  0  0  0  0  0  0  0  0  0  0  0
    5.6283  -11.9629    0.0000 C   0  0  0  0  0  0  0  0  0  0  0  0
    6.5112  -12.9561    0.0000 C   0  0  0  0  0  0  0  0  0  0  0  0
    3.9067  -13.5079    0.0000 C   0  0  0  0  0  0  0  0  0  0  0  0
    4.7896  -14.5011    0.0000 C   0  0  0  0  0  0  0  0  0  0  0  0
    6.0918  -14.2142    0.0000 C   0  0  0  0  0  0  0  0  0  0  0  0
    9.2260   -8.6521    0.0000 C   0  0  0  0  0  0  0  0  0  0  0  0
    9.2260   -9.9764    0.0000 O   0  0  0  0  0  0  0  0  0  0  0  0
   11.5214   -8.6521    0.0000 N   0  0  0  0  0  0  0  0  0  0  0  0
   10.3737   -7.9900    0.0000 C   0  0  0  0  0  0  0  0  0  0  0  0
   11.5214   -9.9764    0.0000 C   0  0  0  0  0  0  0  0  0  0  0  0
   10.3737  -10.6386    0.0000 O   0  0  0  0  0  0  0  0  0  0  0  0
   12.6692  -10.6386    0.0000 C   0  0  0  0  0  0  0  0  0  0  0  0
   13.8169   -9.9764    0.0000 N   0  0  0  0  0  0  0  0  0  0  0  0
   11.5214  -13.9714    0.0000 S   0  0  0  0  0  0  0  0  0  0  0  0
   12.6692  -11.9629    0.0000 C   0  0  0  0  0  0  0  0  0  0  0  0
   11.5214  -12.6471    0.0000 C   0  0  0  0  0  0  0  0  0  0  0  0
   10.3737  -14.6336    0.0000 C   0  0  0  0  0  0  0  0  0  0  0  0
   13.8169   -8.6521    0.0000 C   0  0  0  0  0  0  0  0  0  0  0  0
   12.6692   -7.9900    0.0000 O   0  0  0  0  0  0  0  0  0  0  0  0
   14.9867   -7.9900    0.0000 C   0  0  0  0  0  0  0  0  0  0  0  0
   16.1344   -8.6521    0.0000 C   0  0  0  0  0  0  0  0  0  0  0  0
   14.9867   -6.6436    0.0000 N   0  0  0  0  0  0  0  0  0  0  0  0
   17.2822   -7.9900    0.0000 C   0  0  0  0  0  0  0  0  0  0  0  0
   18.4299   -8.6521    0.0000 C   0  0  0  0  0  0  0  0  0  0  0  0
   17.2822   -6.6436    0.0000 C   0  0  0  0  0  0  0  0  0  0  0  0
   18.4299   -5.9814    0.0000 C   0  0  0  0  0  0  0  0  0  0  0  0
   19.5997   -6.6436    0.0000 C   0  0  0  0  0  0  0  0  0  0  0  0
   19.5997   -7.9900    0.0000 C   0  0  0  0  0  0  0  0  0  0  0  0
   20.7474   -5.9814    0.0000 O   0  0  0  0  0  0  0  0  0  0  0  0
   11.5214   -1.9865    0.0000 O   0  0  0  0  0  0  0  0  0  0  0  0
   14.9867   -3.9950    0.0000 N   0  0  0  0  0  0  0  0  0  0  0  0
   13.8169   -1.9865    0.0000 O   0  0  0  0  0  0  0  0  0  0  0  0
   12.6692   -6.6436    0.0000 O   0  0  0  0  0  0  0  0  0  0  0  0
   13.8169   -4.6571    0.0000 C   0  0  0  0  0  0  0  0  0  0  0  0
   12.6692   -2.6486    0.0000 C   0  0  0  0  0  0  0  0  0  0  0  0
   13.8169   -5.9814    0.0000 C   0  0  0  0  0  0  0  0  0  0  0  0
   12.6692   -3.9950    0.0000 C   0  0  0  0  0  0  0  0  0  0  0  0
   20.7474   -4.6571    0.0000 S   0  0  0  0  0  0  0  0  0  0  0  0
   19.4011   -4.6571    0.0000 O   0  0  0  0  0  0  0  0  0  0  0  0
   22.0717   -4.6571    0.0000 O   0  0  0  0  0  0  0  0  0  0  0  0
   20.7474   -3.3328    0.0000 O   0  0  0  0  0  0  0  0  0  0  0  0
  1  2  1  0  0  0  0
  1  3  2  0  0  0  0
  1 12  1  0  0  0  0
  2  4  1  0  0  0  0
  2  5  1  1  0  0  0
  4  6  1  0  0  0  0
  5 19  1  0  0  0  0
  6  7  2  0  0  0  0
  6  8  1  0  0  0  0
  7 10  1  0  0  0  0
  8  9  2  0  0  0  0
  9 11  1  0  0  0  0
 10 11  2  0  0  0  0
 13 18  1  0  0  0  0
 17 14  1  6  0  0  0
 14 21  1  0  0  0  0
 15 18  2  0  0  0  0
 16 19  2  0  0  0  0
 17 19  1  0  0  0  0
 17 20  1  0  0  0  0
 18 20  1  0  0  0  0
 21 22  2  0  0  0  0
 21 23  1  0  0  0  0
 23 24  1  1  0  0  0
 23 26  1  0  0  0  0
 24 29  1  0  0  0  0
 25 27  1  0  0  0  0
 25 28  1  0  0  0  0
 26 27  1  0  0  0  0
 29 30  2  0  0  0  0
 29 31  1  0  0  0  0
 31 32  1  0  0  0  0
 31 33  1  1  0  0  0
 32 34  1  0  0  0  0
 33 43  1  0  0  0  0
 34 35  2  0  0  0  0
 34 38  1  0  0  0  0
 35 36  1  0  0  0  0
 36 37  1  0  0  0  0
 37 38  2  0  0  0  0
 37 40  1  0  0  0  0
 38 39  1  0  0  0  0
 39 42  2  0  0  0  0
 40 41  2  0  0  0  0
 41 42  1  0  0  0  0
 43 44  2  0  0  0  0
 43 46  1  0  0  0  0
 45 46  1  0  0  0  0
 45 47  1  0  0  0  0
 47 48  2  0  0  0  0
 47 49  1  0  0  0  0
 49 50  1  1  0  0  0
 49 52  1  0  0  0  0
 50 55  1  0  0  0  0
 51 53  1  0  0  0  0
 51 54  1  0  0  0  0
 52 53  1  0  0  0  0
 55 56  2  0  0  0  0
 55 57  1  0  0  0  0
 57 58  1  0  0  0  0
 57 59  1  1  0  0  0
 58 60  1  0  0  0  0
 59 73  1  0  0  0  0
 60 61  2  0  0  0  0
 60 62  1  0  0  0  0
 61 65  1  0  0  0  0
 62 63  2  0  0  0  0
 63 64  1  0  0  0  0
 64 65  2  0  0  0  0
 64 66  1  0  0  0  0
 66 75  1  0  0  0  0
 67 72  1  0  0  0  0
 71 68  1  6  0  0  0
 69 72  2  0  0  0  0
 70 73  2  0  0  0  0
 71 73  1  0  0  0  0
 71 74  1  0  0  0  0
 72 74  1  0  0  0  0
 75 76  2  0  0  0  0
 75 77  2  0  0  0  0
 75 78  1  0  0  0  0
M  END
> <ID>
13614

> <Formula>
C49H62N10O16S3

> <FW>
1143.269

> <DSSTox_CID>
28543

> <DSSTox_RID>
82815

> <DSSTox_GSID>
48617

> <DSSTox_FileID_Sort>
7492

> <TS_ChemName>
Sincalide

> <TS_ChemName_Synonyms>


> <TS_CASRN>
25126-32-3

> <CASRN_ChemName_Relationship>
primary

> <TS_Description>
single chemical compound

> <ChemNote>
stereochem

> <STRUCTURE_Shown>
tested chemical

> <STRUCTURE_Formula>
C49H62N10O16S3

> <STRUCTURE_MW>
1143.269

> <STRUCTURE_ChemType>
defined organic

> <STRUCTURE_DefinedOrganicForm>
parent

> <STRUCTURE_IUPAC>
L-alpha-aspartyl-O-sulfo-L-tyrosyl-L-methionylglycyl-L-tryptophyl-L-methionyl-L-alpha-aspartyl-L-phenylalaninamide

> <STRUCTURE_SMILES>
NC(=O)[C@H](Cc1ccccc1)NC(=O)[C@H](CC(=O)O)NC(=O)[C@H](CCSC)NC(=O)[C@@H](NC(=O)CNC(=O)[C@H](CCSC)NC(=O)[C@H](Cc2ccc(OS(=O)(=O)O)cc2)NC(=O)[C@@H](N)CC(=O)O)Cc4cnc3ccccc34

> <STRUCTURE_SMILES_Desalt>
NC(=O)[C@H](Cc1ccccc1)NC(=O)[C@H](CC(=O)O)NC(=O)[C@H](CCSC)NC(=O)[C@@H](NC(=O)CNC(=O)[C@H](CCSC)NC(=O)[C@H](Cc2ccc(OS(=O)(=O)O)cc2)NC(=O)[C@@H](N)CC(=O)O)Cc4cnc3ccccc34

> <Substance_modify_yyyymmdd>
20111015

$$$$
