25134-21-8
ChemmineR-0915142007XD

 14 16  0  0  1  0  0  0  0  0  1 V2000
    4.2135   -2.2365    0.0000 O   0  0  0  0  0  0  0  0  0  0  0  0
    3.4308   -1.2122    0.0000 C   0  0  0  0  0  0  0  0  0  0  0  0
    3.4308   -3.2608    0.0000 C   0  0  0  0  0  0  0  0  0  0  0  0
    2.2186   -1.5611    0.0000 C   0  0  0  0  0  0  0  0  0  0  0  0
    2.2186   -2.9119    0.0000 C   0  0  0  0  0  0  0  0  0  0  0  0
    1.1496   -2.3304    0.0000 C   0  0  0  0  0  0  0  0  0  0  0  0
    0.0000   -2.9119    0.0000 C   0  0  0  0  0  0  0  0  0  0  0  0
    0.0000   -1.5611    0.0000 C   0  0  0  0  0  0  0  0  0  0  0  0
    1.1004   -0.9662    0.0000 C   0  0  0  0  0  0  0  0  0  0  0  0
    1.8250   -0.0268    0.0000 C   0  0  0  0  0  0  0  0  0  0  0  0
    3.8333    0.0000    0.0000 O   0  0  0  0  0  0  0  0  0  0  0  0
    3.8333   -4.4730    0.0000 O   0  0  0  0  0  0  0  0  0  0  0  0
    2.2544   -4.1062    0.0000 C   0  0  0  0  0  0  0  0  0  0  0  0
    2.2141   -0.4428    0.0000 H   0  0  0  0  0  0  0  0  0  0  0  0
  1  2  1  0  0  0  0
  1  3  1  0  0  0  0
  2  4  1  0  0  0  0
  2 11  2  0  0  0  0
  3  5  1  0  0  0  0
  3 12  2  0  0  0  0
  4  5  1  0  0  0  0
  4  9  1  0  0  0  0
  4 14  1  1  0  0  0
  5  6  1  0  0  0  0
  5 13  1  1  0  0  0
  6  7  1  0  0  0  0
  6 10  1  6  0  0  0
  7  8  2  0  0  0  0
  8  9  1  0  0  0  0
  9 10  1  1  0  0  0
M  END
> <ID>
5446

> <Formula>
C10H10O3

> <FW>
178.1846

> <DSSTox_CID>
7844

> <DSSTox_RID>
78588

> <DSSTox_GSID>
27844

> <DSSTox_FileID_Sort>
3271

> <TS_ChemName>
4,7-Methanoisobenzofuran-1,3-dione, 3a,4,7,7a-tetrahydromethyl-, (3aR,4S,7R,7aS)-rel-

> <TS_ChemName_Synonyms>
(3aR,4S,7R,7aS)-3a-Methyl-3a,4,7,7a-tetrahydro-4,7-methano-2-benzofuran-1,3-dione

> <TS_CASRN>
25134-21-8

> <CASRN_ChemName_Relationship>
primary

> <TS_Description>
single chemical compound

> <ChemNote>
relative stereochem

> <STRUCTURE_Shown>
tested chemical

> <STRUCTURE_Formula>
C10H10O3

> <STRUCTURE_MW>
178.1846

> <STRUCTURE_ChemType>
defined organic

> <STRUCTURE_DefinedOrganicForm>
parent

> <STRUCTURE_IUPAC>
(3aR,4S,7R,7aS)-3a-methyl-3a,4,7,7a-tetrahydro-4,7-methano-2-benzofuran-1,3-dione

> <STRUCTURE_SMILES>
O=C2OC(=O)[C@]3(C)[C@@H]1C=C[C@@H](C1)[C@H]23

> <STRUCTURE_SMILES_Desalt>
O=C2OC(=O)[C@]3(C)[C@@H]1C=C[C@@H](C1)[C@H]23

> <Substance_modify_yyyymmdd>
20080815

$$$$
