25152-85-6
ChemmineR-0915142007XD

 15 15  0  0  0  0  0  0  0  0  1 V2000
    3.4776   -1.3283    0.0000 C   0  0  0  0  0  0  0  0  0  0  0  0
    3.4776    0.0000    0.0000 O   0  0  0  0  0  0  0  0  0  0  0  0
    2.2969   -2.0017    0.0000 C   0  0  0  0  0  0  0  0  0  0  0  0
    4.6122   -2.0017    0.0000 O   0  0  0  0  0  0  0  0  0  0  0  0
    1.1623   -1.3283    0.0000 C   0  0  0  0  0  0  0  0  0  0  0  0
    2.2969   -3.3208    0.0000 C   0  0  0  0  0  0  0  0  0  0  0  0
    0.0000   -2.0017    0.0000 C   0  0  0  0  0  0  0  0  0  0  0  0
    1.1623   -3.9942    0.0000 C   0  0  0  0  0  0  0  0  0  0  0  0
    0.0000   -3.3208    0.0000 C   0  0  0  0  0  0  0  0  0  0  0  0
    5.7745   -1.3283    0.0000 C   0  0  0  0  0  0  0  0  0  0  0  0
    6.9275   -2.0017    0.0000 C   0  0  0  0  0  0  0  0  0  0  0  0
    8.0621   -1.3283    0.0000 C   0  0  0  0  0  0  0  0  0  0  0  0
    9.2244   -2.0017    0.0000 C   0  0  0  0  0  0  0  0  0  0  0  0
    9.2244   -3.3208    0.0000 C   0  0  0  0  0  0  0  0  0  0  0  0
    8.0898   -3.9942    0.0000 C   0  0  0  0  0  0  0  0  0  0  0  0
  1  2  2  0  0  0  0
  1  3  1  0  0  0  0
  1  4  1  0  0  0  0
  3  5  2  0  0  0  0
  3  6  1  0  0  0  0
  4 10  1  0  0  0  0
  5  7  1  0  0  0  0
  6  8  2  0  0  0  0
  7  9  2  0  0  0  0
  8  9  1  0  0  0  0
 10 11  1  0  0  0  0
 11 12  1  0  0  0  0
 12 13  2  0  0  0  0
 13 14  1  0  0  0  0
 14 15  1  0  0  0  0
M  END
> <ID>
12677

> <Formula>
C13H16O2

> <FW>
204.2649

> <DSSTox_CID>
27554

> <DSSTox_RID>
82416

> <DSSTox_GSID>
47554

> <DSSTox_FileID_Sort>
7097

> <TS_ChemName>
(3Z)-Hex-3-en-1-yl benzoate

> <TS_ChemName_Synonyms>


> <TS_CASRN>
25152-85-6

> <CASRN_ChemName_Relationship>
primary

> <TS_Description>
single chemical compound

> <ChemNote>
stereochem

> <STRUCTURE_Shown>
tested chemical

> <STRUCTURE_Formula>
C13H16O2

> <STRUCTURE_MW>
204.2649

> <STRUCTURE_ChemType>
defined organic

> <STRUCTURE_DefinedOrganicForm>
parent

> <STRUCTURE_IUPAC>
(3Z)-hex-3-en-1-yl benzoate

> <STRUCTURE_SMILES>
O=C(OCC/C=C\CC)c1ccccc1

> <STRUCTURE_SMILES_Desalt>
O=C(OCC/C=C\CC)c1ccccc1

> <Substance_modify_yyyymmdd>
20100929

$$$$
