25152-84-5
ChemmineR-0915142007XD

 11 10  0  0  0  0  0  0  0  0  1 V2000
    0.0000   -0.6673    0.0000 O   0  0  0  0  0  0  0  0  0  0  0  0
    1.1505    0.0000    0.0000 C   0  0  0  0  0  0  0  0  0  0  0  0
    2.3010   -0.6673    0.0000 C   0  0  0  0  0  0  0  0  0  0  0  0
    3.4515    0.0000    0.0000 C   0  0  0  0  0  0  0  0  0  0  0  0
    4.6020   -0.6673    0.0000 C   0  0  0  0  0  0  0  0  0  0  0  0
    5.7525    0.0000    0.0000 C   0  0  0  0  0  0  0  0  0  0  0  0
    6.9029   -0.6673    0.0000 C   0  0  0  0  0  0  0  0  0  0  0  0
    8.0534    0.0000    0.0000 C   0  0  0  0  0  0  0  0  0  0  0  0
    9.2039   -0.6673    0.0000 C   0  0  0  0  0  0  0  0  0  0  0  0
   10.3544    0.0000    0.0000 C   0  0  0  0  0  0  0  0  0  0  0  0
   11.5049   -0.6673    0.0000 C   0  0  0  0  0  0  0  0  0  0  0  0
  1  2  2  0  0  0  0
  2  3  1  0  0  0  0
  3  4  2  0  0  0  0
  4  5  1  0  0  0  0
  5  6  2  0  0  0  0
  6  7  1  0  0  0  0
  7  8  1  0  0  0  0
  8  9  1  0  0  0  0
  9 10  1  0  0  0  0
 10 11  1  0  0  0  0
M  END
> <ID>
3910

> <Formula>
C10H16O

> <FW>
152.2334

> <DSSTox_CID>
4911

> <DSSTox_RID>
77575

> <DSSTox_GSID>
24911

> <DSSTox_FileID_Sort>
2258

> <TS_ChemName>
(E,E)-2,4-Decadienal

> <TS_ChemName_Synonyms>
2,4-Decadienal

> <TS_CASRN>
25152-84-5

> <CASRN_ChemName_Relationship>
primary

> <TS_Description>
single chemical compound

> <ChemNote>
stereochem

> <STRUCTURE_Shown>
tested chemical

> <STRUCTURE_Formula>
C10H16O

> <STRUCTURE_MW>
152.2334

> <STRUCTURE_ChemType>
defined organic

> <STRUCTURE_DefinedOrganicForm>
parent

> <STRUCTURE_IUPAC>
(2E,4E)-deca-2,4-dienal

> <STRUCTURE_SMILES>
CCCCC\C=C\C=C\C=O

> <STRUCTURE_SMILES_Desalt>
CCCCC\C=C\C=C\C=O

> <Substance_modify_yyyymmdd>
20080429

$$$$
