25155-18-4
ChemmineR-0915142007XD

 32 32  0  0  0  0  0  0  0  0  2 V2000
   14.9330   -4.8675    0.0000 C    0  0  0  0  0  0  0  0  0  0  0  0
   14.9330   -3.5266    0.0000 C    0  0  0  0  0  0  0  0  0  0  0  0
   13.7942   -5.5103    0.0000 C    0  0  0  0  0  0  0  0  0  0  0  0
   13.7942   -2.8654    0.0000 C    0  0  0  0  0  0  0  0  0  0  0  0
   12.6187   -4.8675    0.0000 C    0  0  0  0  0  0  0  0  0  0  0  0
   12.6187   -3.5266    0.0000 C    0  0  0  0  0  0  0  0  0  0  0  0
    2.2960   -5.5287    0.0000 C    0  0  0  0  0  0  0  0  0  0  0  0
    2.2960   -6.8512    0.0000 C    0  0  0  0  0  0  0  0  0  0  0  0
    1.1572   -4.8675    0.0000 C    0  0  0  0  0  0  0  0  0  0  0  0
    1.1572   -7.5124    0.0000 C    0  0  0  0  0  0  0  0  0  0  0  0
    0.0000   -5.5287    0.0000 C    0  0  0  0  0  0  0  0  0  0  0  0
    0.0000   -6.8512    0.0000 C    0  0  0  0  0  0  0  0  0  0  0  0
    3.4531   -4.8675    0.0000 C    0  0  0  0  0  0  0  0  0  0  0  0
    4.6103   -5.5103    0.0000 N    0  3  0  0  0  0  0  0  0  0  0  0
    5.7491   -4.8675    0.0000 C    0  0  0  0  0  0  0  0  0  0  0  0
    4.6103   -6.8328    0.0000 C    0  0  0  0  0  0  0  0  0  0  0  0
    4.6103   -4.1879    0.0000 C    0  0  0  0  0  0  0  0  0  0  0  0
    6.8879   -5.5103    0.0000 C    0  0  0  0  0  0  0  0  0  0  0  0
    8.0451   -4.8675    0.0000 O    0  0  0  0  0  0  0  0  0  0  0  0
    9.1839   -5.5103    0.0000 C    0  0  0  0  0  0  0  0  0  0  0  0
   10.3227   -4.8675    0.0000 C    0  0  0  0  0  0  0  0  0  0  0  0
   11.4982   -5.5103    0.0000 O    0  0  0  0  0  0  0  0  0  0  0  0
   16.0534   -2.6817    0.0000 C    0  0  0  0  0  0  0  0  0  0  0  0
   17.2106   -2.0205    0.0000 C    0  0  0  0  0  0  0  0  0  0  0  0
   17.2106   -0.6612    0.0000 C    0  0  0  0  0  0  0  0  0  0  0  0
   18.3678    0.0000    0.0000 C    0  0  0  0  0  0  0  0  0  0  0  0
   14.8595   -2.0205    0.0000 C    0  0  0  0  0  0  0  0  0  0  0  0
   17.2106   -3.3613    0.0000 C    0  0  0  0  0  0  0  0  0  0  0  0
   16.0534    0.0000    0.0000 C    0  0  0  0  0  0  0  0  0  0  0  0
   18.3678   -1.3225    0.0000 C    0  0  0  0  0  0  0  0  0  0  0  0
   16.0902   -5.5287    0.0000 C    0  0  0  0  0  0  0  0  0  0  0  0
    7.7696   -6.5022    0.0000 Cl   0  5  0  0  0  0  0  0  0  0  0  0
  1  2  1  0  0  0  0
  1  3  2  0  0  0  0
  1 31  1  0  0  0  0
  2  4  2  0  0  0  0
  2 23  1  0  0  0  0
  3  5  1  0  0  0  0
  4  6  1  0  0  0  0
  5  6  2  0  0  0  0
  5 22  1  0  0  0  0
  7  8  1  0  0  0  0
  7  9  2  0  0  0  0
  7 13  1  0  0  0  0
  8 10  2  0  0  0  0
  9 11  1  0  0  0  0
 10 12  1  0  0  0  0
 11 12  2  0  0  0  0
 13 14  1  0  0  0  0
 14 15  1  0  0  0  0
 14 16  1  0  0  0  0
 14 17  1  0  0  0  0
 15 18  1  0  0  0  0
 18 19  1  0  0  0  0
 19 20  1  0  0  0  0
 20 21  1  0  0  0  0
 21 22  1  0  0  0  0
 23 24  1  0  0  0  0
 23 27  1  0  0  0  0
 23 28  1  0  0  0  0
 24 25  1  0  0  0  0
 25 26  1  0  0  0  0
 25 29  1  0  0  0  0
 25 30  1  0  0  0  0
M  END
> <ID>
7063

> <Formula>
C28H44ClNO2

> <FW>
462.1075 (426.6539+35.4535)

> <DSSTox_CID>
15708

> <DSSTox_RID>
79266

> <DSSTox_GSID>
35708

> <DSSTox_FileID_Sort>
3948

> <TS_ChemName>
Methylbenzethonium chloride

> <TS_ChemName_Synonyms>
Methylbenzethonium chloride (Benzenemethanaminium, N,N-dimethyl-N-(2-(3-(methyl -4-(1,1,3,3-tetramethylbutyl)phenoxy)ethoxy)ethyl) -, chloride)

> <TS_CASRN>
25155-18-4

> <CASRN_ChemName_Relationship>
primary

> <TS_Description>
single chemical compound

> <ChemNote>
ammonium; methyl group attached any position on phenoxy ring; structure shown 3-methyl [15716-02-6]

> <STRUCTURE_Shown>
tested chemical

> <STRUCTURE_Formula>
C28H44ClNO2

> <STRUCTURE_MW>
462.1075

> <STRUCTURE_ChemType>
defined organic

> <STRUCTURE_DefinedOrganicForm>
salt

> <STRUCTURE_IUPAC>
N-benzyl-N,N-dimethyl-2-{2-[3-methyl-4-(2,4,4-trimethylpentan-2-yl)phenoxy]ethoxy}ethanaminium chloride

> <STRUCTURE_SMILES>
[Cl-].CC(C)(C)CC(C)(C)c2ccc(OCCOCC[N+](C)(C)Cc1ccccc1)cc2C

> <STRUCTURE_SMILES_Desalt>
CC(C)(C)CC(C)(C)c2ccc(OCCOCC[N+](C)(C)Cc1ccccc1)cc2C

> <Substance_modify_yyyymmdd>
20080429

$$$$
