25155-23-1
ChemmineR-0915142007XD

 29 31  0  0  0  0  0  0  0  0  1 V2000
    2.4292   -9.2102    0.0000 C   0  0  0  0  0  0  0  0  0  0  0  0
    6.4241   -9.2102    0.0000 C   0  0  0  0  0  0  0  0  0  0  0  0
    5.7564  -10.3614    0.0000 C   0  0  0  0  0  0  0  0  0  0  0  0
    5.7564   -8.0589    0.0000 C   0  0  0  0  0  0  0  0  0  0  0  0
    4.4324  -10.3614    0.0000 C   0  0  0  0  0  0  0  0  0  0  0  0
    4.4324   -8.0589    0.0000 C   0  0  0  0  0  0  0  0  0  0  0  0
    3.7647   -9.2102    0.0000 C   0  0  0  0  0  0  0  0  0  0  0  0
    5.7564   -5.7564    0.0000 P   0  0  0  0  0  0  0  0  0  0  0  0
    6.4241   -6.9076    0.0000 O   0  0  0  0  0  0  0  0  0  0  0  0
    5.0886   -4.6051    0.0000 O   0  0  0  0  0  0  0  0  0  0  0  0
    7.0803   -1.1513    0.0000 C   0  0  0  0  0  0  0  0  0  0  0  0
    7.7481   -2.3025    0.0000 C   0  0  0  0  0  0  0  0  0  0  0  0
    5.7564   -1.1513    0.0000 C   0  0  0  0  0  0  0  0  0  0  0  0
    7.0803   -3.4538    0.0000 C   0  0  0  0  0  0  0  0  0  0  0  0
    5.0886   -2.3025    0.0000 C   0  0  0  0  0  0  0  0  0  0  0  0
    5.7564   -3.4538    0.0000 C   0  0  0  0  0  0  0  0  0  0  0  0
    4.6051   -6.4241    0.0000 O   0  0  0  0  0  0  0  0  0  0  0  0
    3.4538   -4.4324    0.0000 C   0  0  0  0  0  0  0  0  0  0  0  0
    3.4538   -5.7564    0.0000 C   0  0  0  0  0  0  0  0  0  0  0  0
    2.3025   -3.7647    0.0000 C   0  0  0  0  0  0  0  0  0  0  0  0
    2.3025   -6.4241    0.0000 C   0  0  0  0  0  0  0  0  0  0  0  0
    1.1513   -4.4324    0.0000 C   0  0  0  0  0  0  0  0  0  0  0  0
    1.1513   -5.7564    0.0000 C   0  0  0  0  0  0  0  0  0  0  0  0
    6.9076   -5.0886    0.0000 O   0  0  0  0  0  0  0  0  0  0  0  0
    2.3025   -2.4292    0.0000 C   0  0  0  0  0  0  0  0  0  0  0  0
    0.0000   -6.4241    0.0000 C   0  0  0  0  0  0  0  0  0  0  0  0
    6.4241  -11.5127    0.0000 C   0  0  0  0  0  0  0  0  0  0  0  0
    9.0835   -2.3025    0.0000 C   0  0  0  0  0  0  0  0  0  0  0  0
    5.0886    0.0000    0.0000 C   0  0  0  0  0  0  0  0  0  0  0  0
  1  7  1  0  0  0  0
  2  3  1  0  0  0  0
  2  4  2  0  0  0  0
  3  5  2  0  0  0  0
  3 27  1  0  0  0  0
  4  6  1  0  0  0  0
  4  9  1  0  0  0  0
  5  7  1  0  0  0  0
  6  7  2  0  0  0  0
  8  9  1  0  0  0  0
  8 10  1  0  0  0  0
  8 17  1  0  0  0  0
  8 24  2  0  0  0  0
 10 16  1  0  0  0  0
 11 12  1  0  0  0  0
 11 13  2  0  0  0  0
 12 14  2  0  0  0  0
 12 28  1  0  0  0  0
 13 15  1  0  0  0  0
 13 29  1  0  0  0  0
 14 16  1  0  0  0  0
 15 16  2  0  0  0  0
 17 19  1  0  0  0  0
 18 19  1  0  0  0  0
 18 20  2  0  0  0  0
 19 21  2  0  0  0  0
 20 22  1  0  0  0  0
 20 25  1  0  0  0  0
 21 23  1  0  0  0  0
 22 23  2  0  0  0  0
 23 26  1  0  0  0  0
M  END
> <ID>
4628

> <Formula>
C24H27O4P

> <FW>
410.4425

> <DSSTox_CID>
6267

> <DSSTox_RID>
78082

> <DSSTox_GSID>
26267

> <DSSTox_FileID_Sort>
2765

> <TS_ChemName>
Trixylenyl phosphate, mixed isomers

> <TS_ChemName_Synonyms>
Trixylenyl phosphate mixed isomers; Phenol, dimethyl-, phosphate (3:1); TXP

> <TS_CASRN>
25155-23-1

> <CASRN_ChemName_Relationship>
primary

> <TS_Description>
mixture or formulation

> <ChemNote>
mixture of isomeric xylene phosphates; structure shown tris(3,5-dimethylphenyl) phosphate

> <STRUCTURE_Shown>
representative isomer in mixture

> <STRUCTURE_Formula>
C24H27O4P

> <STRUCTURE_MW>
410.4425

> <STRUCTURE_ChemType>
defined organic

> <STRUCTURE_DefinedOrganicForm>
parent

> <STRUCTURE_IUPAC>
tris(3,5-dimethylphenyl) phosphate

> <STRUCTURE_SMILES>
Cc1cc(cc(C)c1)OP(=O)(Oc2cc(C)cc(C)c2)Oc3cc(C)cc(C)c3

> <STRUCTURE_SMILES_Desalt>
Cc1cc(cc(C)c1)OP(=O)(Oc2cc(C)cc(C)c2)Oc3cc(C)cc(C)c3

> <Substance_modify_yyyymmdd>
20080429

$$$$
