251565-85-2
ChemmineR-0915142007XD

 28 29  0  0  1  0  0  0  0  0  1 V2000
    4.5801   -0.4947    0.0000 C   0  0  0  0  0  0  0  0  0  0  0  0
    3.4809   -1.1725    0.0000 C   0  0  0  0  0  0  0  0  0  0  0  0
    3.4809   -2.5099    0.0000 C   0  0  0  0  0  0  0  0  0  0  0  0
    4.5801   -3.1695    0.0000 C   0  0  0  0  0  0  0  0  0  0  0  0
    5.7343   -2.5099    0.0000 C   0  0  0  0  0  0  0  0  0  0  0  0
    5.7343   -1.1725    0.0000 C   0  0  0  0  0  0  0  0  0  0  0  0
    6.9069   -3.1695    0.0000 C   0  0  0  0  0  0  0  0  0  0  0  0
    8.0061   -2.5099    0.0000 C   0  0  0  0  0  0  0  0  0  0  0  0
    9.1603   -3.1695    0.0000 O   0  0  0  0  0  0  0  0  0  0  0  0
   10.3145   -2.5099    0.0000 C   0  0  0  0  0  0  0  0  0  0  0  0
   11.4870   -3.1695    0.0000 C   0  0  0  0  0  0  0  0  0  0  0  0
   12.6412   -2.5099    0.0000 C   0  0  0  0  0  0  0  0  0  0  0  0
   12.6412   -1.1725    0.0000 C   0  0  0  0  0  0  0  0  0  0  0  0
   11.4870   -0.4947    0.0000 C   0  0  0  0  0  0  0  0  0  0  0  0
   10.3145   -1.1725    0.0000 C   0  0  0  0  0  0  0  0  0  0  0  0
   13.7404   -0.4947    0.0000 C   0  0  0  0  0  0  0  0  0  0  0  0
   14.8946   -1.1725    0.0000 C   0  0  0  0  0  0  0  0  0  0  0  0
   16.0672   -0.4947    0.0000 O   0  0  0  0  0  0  0  0  0  0  0  0
   17.1664   -1.1725    0.0000 C   0  0  0  0  0  0  0  0  0  0  0  0
   18.3206   -0.4947    0.0000 C   0  0  0  0  0  0  0  0  0  0  0  0
    2.3267   -0.4947    0.0000 O   0  0  0  0  0  0  0  0  0  0  0  0
    1.1542   -1.1725    0.0000 S   0  0  0  0  0  0  0  0  0  0  0  0
    0.0000   -1.8321    0.0000 O   0  0  0  0  0  0  0  0  0  0  0  0
    0.4763    0.0000    0.0000 O   0  0  0  0  0  0  0  0  0  0  0  0
    1.8321   -2.3084    0.0000 C   0  0  0  0  0  0  0  0  0  0  0  0
   14.8946   -2.5099    0.0000 C   0  0  0  0  0  0  0  0  0  0  0  0
   16.0672   -3.1695    0.0000 O   0  0  0  0  0  0  0  0  0  0  0  0
   13.7404   -3.1695    0.0000 O   0  0  0  0  0  0  0  0  0  0  0  0
  1  6  1  0  0  0  0
  1  2  2  0  0  0  0
  2 21  1  0  0  0  0
  2  3  1  0  0  0  0
  3  4  2  0  0  0  0
  4  5  1  0  0  0  0
  5  7  1  0  0  0  0
  5  6  2  0  0  0  0
  7  8  1  0  0  0  0
  8  9  1  0  0  0  0
  9 10  1  0  0  0  0
 10 15  1  0  0  0  0
 10 11  2  0  0  0  0
 11 12  1  0  0  0  0
 12 13  2  0  0  0  0
 13 14  1  0  0  0  0
 13 16  1  0  0  0  0
 14 15  2  0  0  0  0
 16 17  1  0  0  0  0
 17 18  1  0  0  0  0
 17 26  1  1  0  0  0
 18 19  1  0  0  0  0
 19 20  1  0  0  0  0
 21 22  1  0  0  0  0
 22 23  2  0  0  0  0
 22 24  2  0  0  0  0
 22 25  1  0  0  0  0
 26 27  1  0  0  0  0
 26 28  2  0  0  0  0
M  END
> <ID>
13762

> <Formula>
C20H24O7S

> <FW>
408.4654

> <DSSTox_CID>
28699

> <DSSTox_RID>
82968

> <DSSTox_GSID>
48773

> <DSSTox_FileID_Sort>
7645

> <TS_ChemName>
Tesaglitazar

> <TS_ChemName_Synonyms>


> <TS_CASRN>
251565-85-2

> <CASRN_ChemName_Relationship>
primary

> <TS_Description>
single chemical compound

> <ChemNote>


> <STRUCTURE_Shown>
tested chemical

> <STRUCTURE_Formula>
C20H24O7S

> <STRUCTURE_MW>
408.4654

> <STRUCTURE_ChemType>
defined organic

> <STRUCTURE_DefinedOrganicForm>
parent

> <STRUCTURE_IUPAC>
(2R)-2-ethoxy-3-[4-(2-{4-[(methylsulfonyl)oxy]phenyl}ethoxy)phenyl]propanoic acid

> <STRUCTURE_SMILES>
O=S(C)(=O)Oc1ccc(cc1)CCOc2ccc(C[C@@H](OCC)C(=O)O)cc2

> <STRUCTURE_SMILES_Desalt>
O=S(C)(=O)Oc1ccc(cc1)CCOc2ccc(C[C@@H](OCC)C(=O)O)cc2

> <Substance_modify_yyyymmdd>
20100107

$$$$
