25168-26-7
ChemmineR-0915142007XD

 21 21  0  0  0  0  0  0  0  0  1 V2000
    6.8781   -1.3308    0.0000 C    0  0  0  0  0  0  0  0  0  0  0  0
    6.8781    0.0000    0.0000 O    0  0  0  0  0  0  0  0  0  0  0  0
    8.0444   -2.0036    0.0000 O    0  0  0  0  0  0  0  0  0  0  0  0
    5.7417   -2.0036    0.0000 C    0  0  0  0  0  0  0  0  0  0  0  0
    4.5904   -1.3308    0.0000 O    0  0  0  0  0  0  0  0  0  0  0  0
    3.4540   -2.0036    0.0000 C    0  0  0  0  0  0  0  0  0  0  0  0
    3.4540   -3.3194    0.0000 C    0  0  0  0  0  0  0  0  0  0  0  0
    2.3027   -1.3308    0.0000 C    0  0  0  0  0  0  0  0  0  0  0  0
    2.3027   -3.9923    0.0000 C    0  0  0  0  0  0  0  0  0  0  0  0
    1.1513   -2.0036    0.0000 C    0  0  0  0  0  0  0  0  0  0  0  0
    1.1513   -3.3194    0.0000 C    0  0  0  0  0  0  0  0  0  0  0  0
    4.5904   -3.9923    0.0000 Cl   0  0  0  0  0  0  0  0  0  0  0  0
    0.0000   -3.9923    0.0000 Cl   0  0  0  0  0  0  0  0  0  0  0  0
    9.1957   -1.3308    0.0000 C    0  0  0  0  0  0  0  0  0  0  0  0
   10.3470   -2.0036    0.0000 C    0  0  0  0  0  0  0  0  0  0  0  0
   11.4984   -1.3308    0.0000 C    0  0  0  0  0  0  0  0  0  0  0  0
   12.6497   -2.0036    0.0000 C    0  0  0  0  0  0  0  0  0  0  0  0
   13.8010   -1.3308    0.0000 C    0  0  0  0  0  0  0  0  0  0  0  0
   10.3321   -3.3344    0.0000 C    0  0  0  0  0  0  0  0  0  0  0  0
    9.1807   -3.9923    0.0000 C    0  0  0  0  0  0  0  0  0  0  0  0
   14.9524   -2.0036    0.0000 C    0  0  0  0  0  0  0  0  0  0  0  0
  1  2  2  0  0  0  0
  1  3  1  0  0  0  0
  1  4  1  0  0  0  0
  3 14  1  0  0  0  0
  4  5  1  0  0  0  0
  5  6  1  0  0  0  0
  6  7  2  0  0  0  0
  6  8  1  0  0  0  0
  7  9  1  0  0  0  0
  7 12  1  0  0  0  0
  8 10  2  0  0  0  0
  9 11  2  0  0  0  0
 10 11  1  0  0  0  0
 11 13  1  0  0  0  0
 14 15  1  0  0  0  0
 15 16  1  0  0  0  0
 15 19  1  0  0  0  0
 16 17  1  0  0  0  0
 17 18  1  0  0  0  0
 18 21  1  0  0  0  0
 19 20  1  0  0  0  0
M  END
> <ID>
428

> <Formula>
C16H22Cl2O3

> <FW>
333.2501

> <DSSTox_CID>
444

> <DSSTox_RID>
75593

> <DSSTox_GSID>
20444

> <DSSTox_FileID_Sort>
277

> <TS_ChemName>
Isooctyl (2,4-dichlorophenoxy)acetate

> <TS_ChemName_Synonyms>
Isooctyl (2,4-dichlorophenoxy)acetate (2,4-D isooctyl ester) (2,4-Dichlorophenoxyacetic acid, isooctyl ester) (2,4-D, Isooctyl ester, 67%) (DED-WEED) (LV-69)

> <TS_CASRN>
25168-26-7

> <CASRN_ChemName_Relationship>
primary

> <TS_Description>
mixture or formulation

> <ChemNote>
mixture of isooctyl isomers; structure shown 2-ethylhexyl-2,4-dichlorophenoxyacetic acid [1928-43-4]

> <STRUCTURE_Shown>
representative isomer in mixture

> <STRUCTURE_Formula>
C16H22Cl2O3

> <STRUCTURE_MW>
333.2501

> <STRUCTURE_ChemType>
defined organic

> <STRUCTURE_DefinedOrganicForm>
parent

> <STRUCTURE_IUPAC>
2-ethylhexyl (2,4-dichlorophenoxy)acetate

> <STRUCTURE_SMILES>
Clc1cc(Cl)ccc1OCC(=O)OCC(CC)CCCC

> <STRUCTURE_SMILES_Desalt>
Clc1cc(Cl)ccc1OCC(=O)OCC(CC)CCCC

> <Substance_modify_yyyymmdd>
20080429

$$$$
