25167-70-8
ChemmineR-0915142007XD

  8  7  0  0  0  0  0  0  0  0  1 V2000
    0.0000   -0.6676    0.0000 C   0  0  0  0  0  0  0  0  0  0  0  0
    1.1683   -1.3260    0.0000 C   0  0  0  0  0  0  0  0  0  0  0  0
    2.3042   -0.6676    0.0000 C   0  0  0  0  0  0  0  0  0  0  0  0
    3.4679   -1.3260    0.0000 C   0  0  0  0  0  0  0  0  0  0  0  0
    4.6363   -0.6676    0.0000 C   0  0  0  0  0  0  0  0  0  0  0  0
    1.1683   -2.6520    0.0000 C   0  0  0  0  0  0  0  0  0  0  0  0
    3.4679   -2.6520    0.0000 C   0  0  0  0  0  0  0  0  0  0  0  0
    3.4679    0.0000    0.0000 C   0  0  0  0  0  0  0  0  0  0  0  0
  1  2  2  0  0  0  0
  2  3  1  0  0  0  0
  2  6  1  0  0  0  0
  3  4  1  0  0  0  0
  4  5  1  0  0  0  0
  4  7  1  0  0  0  0
  4  8  1  0  0  0  0
M  END
> <ID>
4794

> <Formula>
C8H16

> <FW>
112.2126

> <DSSTox_CID>
6765

> <DSSTox_RID>
78589

> <DSSTox_GSID>
27851

> <DSSTox_FileID_Sort>
3272

> <TS_ChemName>
2,4,4-Trimethylpentene

> <TS_ChemName_Synonyms>


> <TS_CASRN>
25167-70-8

> <CASRN_ChemName_Relationship>
primary

> <TS_Description>
mixture or formulation

> <ChemNote>
mixture of 1- [107-39-1] and 2- [107-40-4] trimethylpentene; structure shown 1-

> <STRUCTURE_Shown>
representative component

> <STRUCTURE_Formula>
C8H16

> <STRUCTURE_MW>
112.2126

> <STRUCTURE_ChemType>
defined organic

> <STRUCTURE_DefinedOrganicForm>
parent

> <STRUCTURE_IUPAC>
2,4,4-trimethylpent-1-ene

> <STRUCTURE_SMILES>
C=C(C)CC(C)(C)C

> <STRUCTURE_SMILES_Desalt>
C=C(C)CC(C)(C)C

> <Substance_modify_yyyymmdd>
20080429

$$$$
