2516-40-7
ChemmineR-0915142007XD

 10 11  0  0  0  0  0  0  0  0  1 V2000
    3.5411   -0.2671    0.0000 N    0  0  0  0  0  0  0  0  0  0  0  0
    3.5411   -2.3873    0.0000 S    0  0  0  0  0  0  0  0  0  0  0  0
    4.3369   -1.3301    0.0000 C    0  0  0  0  0  0  0  0  0  0  0  0
    2.2736   -0.6252    0.0000 C    0  0  0  0  0  0  0  0  0  0  0  0
    2.2736   -2.0292    0.0000 C    0  0  0  0  0  0  0  0  0  0  0  0
    1.1197   -2.6544    0.0000 C    0  0  0  0  0  0  0  0  0  0  0  0
    0.0000   -2.0292    0.0000 C    0  0  0  0  0  0  0  0  0  0  0  0
    0.0000   -0.6252    0.0000 C    0  0  0  0  0  0  0  0  0  0  0  0
    1.1197    0.0000    0.0000 C    0  0  0  0  0  0  0  0  0  0  0  0
    5.6840   -1.3301    0.0000 Br   0  0  0  0  0  0  0  0  0  0  0  0
  1  3  2  0  0  0  0
  1  4  1  0  0  0  0
  2  3  1  0  0  0  0
  2  5  1  0  0  0  0
  3 10  1  0  0  0  0
  4  5  2  0  0  0  0
  4  9  1  0  0  0  0
  5  6  1  0  0  0  0
  6  7  2  0  0  0  0
  7  8  1  0  0  0  0
  8  9  2  0  0  0  0
M  END
> <ID>
1438

> <Formula>
C7H4BrNS

> <FW>
214.0824

> <DSSTox_CID>
1498

> <DSSTox_RID>
76188

> <DSSTox_GSID>
21498

> <DSSTox_FileID_Sort>
872

> <TS_ChemName>
2-Bromobenzothiazole

> <TS_ChemName_Synonyms>


> <TS_CASRN>
2516-40-7

> <CASRN_ChemName_Relationship>
primary

> <TS_Description>
single chemical compound

> <ChemNote>


> <STRUCTURE_Shown>
tested chemical

> <STRUCTURE_Formula>
C7H4BrNS

> <STRUCTURE_MW>
214.0824

> <STRUCTURE_ChemType>
defined organic

> <STRUCTURE_DefinedOrganicForm>
parent

> <STRUCTURE_IUPAC>
2-bromo-1,3-benzothiazole

> <STRUCTURE_SMILES>
Brc1nc2ccccc2s1

> <STRUCTURE_SMILES_Desalt>
Brc1nc2ccccc2s1

> <Substance_modify_yyyymmdd>
20080429

$$$$
