25162-00-9
ChemmineR-0915142007XD

 12 13  0  0  1  0  0  0  0  0  1 V2000
    4.5963   -1.7682    0.0000 N   0  0  0  0  0  0  0  0  0  0  0  0
    3.4968   -2.5333    0.0000 C   0  0  0  0  0  0  0  0  0  0  0  0
    2.2840   -1.9949    0.0000 C   0  0  0  0  0  0  0  0  0  0  0  0
    1.1505    0.0000    0.0000 N   0  0  0  0  0  0  0  0  0  0  0  0
    2.2840   -0.6688    0.0000 C   0  0  0  0  0  0  0  0  0  0  0  0
    5.6674   -2.5220    0.0000 C   0  0  0  0  0  0  0  0  0  0  0  0
    4.5963   -0.4137    0.0000 C   0  0  0  0  0  0  0  0  0  0  0  0
    3.9275   -3.7972    0.0000 C   0  0  0  0  0  0  0  0  0  0  0  0
    5.2820   -3.7972    0.0000 C   0  0  0  0  0  0  0  0  0  0  0  0
    1.1505   -2.6467    0.0000 C   0  0  0  0  0  0  0  0  0  0  0  0
    0.0000   -0.6518    0.0000 C   0  0  0  0  0  0  0  0  0  0  0  0
    0.0000   -1.9949    0.0000 C   0  0  0  0  0  0  0  0  0  0  0  0
  1  2  1  0  0  0  0
  1  6  1  0  0  0  0
  1  7  1  0  0  0  0
  2  3  1  6  0  0  0
  2  8  1  0  0  0  0
  3  5  2  0  0  0  0
  3 10  1  0  0  0  0
  4  5  1  0  0  0  0
  4 11  2  0  0  0  0
  6  9  1  0  0  0  0
  8  9  1  0  0  0  0
 10 12  2  0  0  0  0
 11 12  1  0  0  0  0
M  END
> <ID>
11621

> <Formula>
C10H14N2

> <FW>
162.2316

> <DSSTox_CID>
26351

> <DSSTox_RID>
81554

> <DSSTox_GSID>
46351

> <DSSTox_FileID_Sort>
6235

> <TS_ChemName>
D-Nicotine

> <TS_ChemName_Synonyms>


> <TS_CASRN>
25162-00-9

> <CASRN_ChemName_Relationship>
primary

> <TS_Description>
single chemical compound

> <ChemNote>
stereochem

> <STRUCTURE_Shown>
tested chemical

> <STRUCTURE_Formula>
C10H14N2

> <STRUCTURE_MW>
162.2316

> <STRUCTURE_ChemType>
defined organic

> <STRUCTURE_DefinedOrganicForm>
parent

> <STRUCTURE_IUPAC>
3-[(2R)-1-methylpyrrolidin-2-yl]pyridine

> <STRUCTURE_SMILES>
CN2CCC[C@@H]2c1cnccc1

> <STRUCTURE_SMILES_Desalt>
CN2CCC[C@@H]2c1cnccc1

> <Substance_modify_yyyymmdd>
20110610

$$$$
