2517-43-3
ChemmineR-0915142007XD

  7  6  0  0  0  0  0  0  0  0  1 V2000
    4.6016   -1.3016    0.0000 C   0  0  0  0  0  0  0  0  0  0  0  0
    3.4613   -1.9754    0.0000 C   0  0  0  0  0  0  0  0  0  0  0  0
    2.2979   -1.3361    0.0000 C   0  0  0  0  0  0  0  0  0  0  0  0
    2.2979    0.0000    0.0000 C   0  0  0  0  0  0  0  0  0  0  0  0
    5.7592   -1.9639    0.0000 O   0  0  0  0  0  0  0  0  0  0  0  0
    1.1576   -2.0100    0.0000 O   0  0  0  0  0  0  0  0  0  0  0  0
    0.0000   -1.3477    0.0000 C   0  0  0  0  0  0  0  0  0  0  0  0
  1  2  1  0  0  0  0
  1  5  1  0  0  0  0
  2  3  1  0  0  0  0
  3  4  1  0  0  0  0
  3  6  1  0  0  0  0
  6  7  1  0  0  0  0
M  END
> <ID>
10461

> <Formula>
C5H12O2

> <FW>
104.1476

> <DSSTox_CID>
24812

> <DSSTox_RID>
80495

> <DSSTox_GSID>
44812

> <DSSTox_FileID_Sort>
5177

> <TS_ChemName>
3-Methoxybutan-1-ol

> <TS_ChemName_Synonyms>
3-Methoxybutan-1-ol (1-Butanol, 3-methoxy-)

> <TS_CASRN>
2517-43-3

> <CASRN_ChemName_Relationship>
primary

> <TS_Description>
single chemical compound

> <ChemNote>


> <STRUCTURE_Shown>
tested chemical

> <STRUCTURE_Formula>
C5H12O2

> <STRUCTURE_MW>
104.1476

> <STRUCTURE_ChemType>
defined organic

> <STRUCTURE_DefinedOrganicForm>
parent

> <STRUCTURE_IUPAC>
3-methoxybutan-1-ol

> <STRUCTURE_SMILES>
CC(CCO)OC

> <STRUCTURE_SMILES_Desalt>
CC(CCO)OC

> <Substance_modify_yyyymmdd>
20091116

$$$$
