25209-66-9
ChemmineR-0915142007XD

  9  8  0  0  0  0  0  0  0  0  1 V2000
    3.4598   -2.0038    0.0000 N   0  0  0  0  0  0  0  0  0  0  0  0
    3.4598   -0.6725    0.0000 C   0  0  0  0  0  0  0  0  0  0  0  0
    2.3227    0.0000    0.0000 O   0  0  0  0  0  0  0  0  0  0  0  0
    4.6107   -2.6624    0.0000 C   0  0  0  0  0  0  0  0  0  0  0  0
    5.7617   -2.0038    0.0000 C   0  0  0  0  0  0  0  0  0  0  0  0
    6.9334   -2.6624    0.0000 O   0  0  0  0  0  0  0  0  0  0  0  0
    2.3227   -2.6624    0.0000 C   0  0  0  0  0  0  0  0  0  0  0  0
    1.1509   -2.0038    0.0000 C   0  0  0  0  0  0  0  0  0  0  0  0
    0.0000   -2.6763    0.0000 O   0  0  0  0  0  0  0  0  0  0  0  0
  1  2  1  0  0  0  0
  1  4  1  0  0  0  0
  1  7  1  0  0  0  0
  2  3  2  0  0  0  0
  4  5  1  0  0  0  0
  5  6  1  0  0  0  0
  7  8  1  0  0  0  0
  8  9  1  0  0  0  0
M  END
> <ID>
10279

> <Formula>
C5H11NO3

> <FW>
133.1457

> <DSSTox_CID>
24625

> <DSSTox_RID>
80360

> <DSSTox_GSID>
44625

> <DSSTox_FileID_Sort>
5042

> <TS_ChemName>
N,N-Bis(2-hydroxyethyl)formamide

> <TS_ChemName_Synonyms>
Formamide, N,N-bis(2-hydroxyethyl)-

> <TS_CASRN>
25209-66-9

> <CASRN_ChemName_Relationship>
primary

> <TS_Description>
single chemical compound

> <ChemNote>


> <STRUCTURE_Shown>
tested chemical

> <STRUCTURE_Formula>
C5H11NO3

> <STRUCTURE_MW>
133.1457

> <STRUCTURE_ChemType>
defined organic

> <STRUCTURE_DefinedOrganicForm>
parent

> <STRUCTURE_IUPAC>
N,N-bis(2-hydroxyethyl)formamide

> <STRUCTURE_SMILES>
O=CN(CCO)CCO

> <STRUCTURE_SMILES_Desalt>
O=CN(CCO)CCO

> <Substance_modify_yyyymmdd>
20091116

$$$$
