25211-86-3
ChemmineR-0915142007XD

 12 10  0  0  0  0  0  0  0  0  1 V2000
    1.7054   -2.6596    0.0000 C   0  0  0  0  0  0  0  0  0  0  0  0
    1.9984   -3.8766    0.0000 O   0  0  0  0  0  0  0  0  0  0  0  0
    0.5109   -3.0202    0.0000 C   0  0  0  0  0  0  0  0  0  0  0  0
    1.1495   -1.1194    0.0000 P   0  0  0  0  0  0  0  0  0  0  0  0
    2.2388   -0.4959    0.0000 O   0  0  0  0  0  0  0  0  0  0  0  0
    0.0000   -1.6228    0.0000 O   0  0  0  0  0  0  0  0  0  0  0  0
    0.5860    0.0000    0.0000 O   0  0  0  0  0  0  0  0  0  0  0  0
    3.3207   -2.3741    0.0000 P   0  0  0  0  0  0  0  0  0  0  0  0
    3.3207   -1.1194    0.0000 O   0  0  0  0  0  0  0  0  0  0  0  0
    4.5678   -2.2989    0.0000 O   0  0  0  0  0  0  0  0  0  0  0  0
    3.4634   -3.6212    0.0000 O   0  0  0  0  0  0  0  0  0  0  0  0
    7.5129   -1.0368    0.0000 O   0  0  0  0  0  0  0  0  0  0  0  0
  1  2  1  0  0  0  0
  1  3  1  0  0  0  0
  1  4  1  0  0  0  0
  1  8  1  0  0  0  0
  4  5  1  0  0  0  0
  4  6  2  0  0  0  0
  4  7  1  0  0  0  0
  8  9  1  0  0  0  0
  8 10  2  0  0  0  0
  8 11  1  0  0  0  0
M  END
> <ID>
7971

> <Formula>
C2H10O8P2

> <FW>
224.0435 (206.0282+18.0153)

> <DSSTox_CID>
20800

> <DSSTox_RID>
79604

> <DSSTox_GSID>
40800

> <DSSTox_FileID_Sort>
4286

> <TS_ChemName>
Etidronic acid monohydrate

> <TS_ChemName_Synonyms>


> <TS_CASRN>
25211-86-3

> <CASRN_ChemName_Relationship>
primary

> <TS_Description>
single chemical compound

> <ChemNote>
parent [2809-21-4]

> <STRUCTURE_Shown>
tested chemical

> <STRUCTURE_Formula>
C2H10O8P2

> <STRUCTURE_MW>
224.0435

> <STRUCTURE_ChemType>
defined organic

> <STRUCTURE_DefinedOrganicForm>
complex

> <STRUCTURE_IUPAC>
(1-hydroxyethane-1,1-diyl)bis(phosphonic acid) hydrate (1:1)

> <STRUCTURE_SMILES>
O.CC(O)(P(O)(=O)O)P(=O)(O)O

> <STRUCTURE_SMILES_Desalt>
CC(O)(P(O)(=O)O)P(=O)(O)O

> <Substance_modify_yyyymmdd>
20080429

$$$$
