2524-03-0
ChemmineR-0915142007XD

  7  6  0  0  0  0  0  0  0  0  1 V2000
    2.0006   -1.3282    0.0000 P    0  0  0  0  0  0  0  0  0  0  0  0
    0.6724   -1.3282    0.0000 O    0  0  0  0  0  0  0  0  0  0  0  0
    2.0006   -2.6563    0.0000 O    0  0  0  0  0  0  0  0  0  0  0  0
    2.0006    0.0000    0.0000 Cl   0  0  0  0  0  0  0  0  0  0  0  0
    3.3287   -1.3282    0.0000 S    0  0  0  0  0  0  0  0  0  0  0  0
    0.8488   -3.3287    0.0000 C    0  0  0  0  0  0  0  0  0  0  0  0
    0.0000   -0.1764    0.0000 C    0  0  0  0  0  0  0  0  0  0  0  0
  1  2  1  0  0  0  0
  1  3  1  0  0  0  0
  1  5  2  0  0  0  0
  1  4  1  0  0  0  0
  2  7  1  0  0  0  0
  3  6  1  0  0  0  0
M  END
> <ID>
5188

> <Formula>
C2H6ClO2PS

> <FW>
160.5596

> <DSSTox_CID>
7486

> <DSSTox_RID>
78467

> <DSSTox_GSID>
27486

> <DSSTox_FileID_Sort>
3150

> <TS_ChemName>
O,O-Dimethyl chlorothiophosphate

> <TS_ChemName_Synonyms>
Phosphorochloridothioic acid, O,O-dimethyl ester(Dimethyl chlorothiophosphate)

> <TS_CASRN>
2524-03-0

> <CASRN_ChemName_Relationship>
primary

> <TS_Description>
single chemical compound

> <ChemNote>


> <STRUCTURE_Shown>
tested chemical

> <STRUCTURE_Formula>
C2H6ClO2PS

> <STRUCTURE_MW>
160.5596

> <STRUCTURE_ChemType>
defined organic

> <STRUCTURE_DefinedOrganicForm>
parent

> <STRUCTURE_IUPAC>
O,O-dimethyl phosphorochloridothioate

> <STRUCTURE_SMILES>
ClP(=S)(OC)OC

> <STRUCTURE_SMILES_Desalt>
ClP(=S)(OC)OC

> <Substance_modify_yyyymmdd>
20080429

$$$$
