2524-04-1
ChemmineR-0915142007XD

  9  8  0  0  0  0  0  0  0  0  1 V2000
    3.3210   -1.3303    0.0000 P    0  0  0  0  0  0  0  0  0  0  0  0
    1.9907   -1.3303    0.0000 O    0  0  0  0  0  0  0  0  0  0  0  0
    3.3210   -2.6605    0.0000 O    0  0  0  0  0  0  0  0  0  0  0  0
    3.3210    0.0000    0.0000 Cl   0  0  0  0  0  0  0  0  0  0  0  0
    4.6513   -1.3303    0.0000 S    0  0  0  0  0  0  0  0  0  0  0  0
    2.1675   -3.3210    0.0000 C    0  0  0  0  0  0  0  0  0  0  0  0
    2.1675   -4.6513    0.0000 C    0  0  0  0  0  0  0  0  0  0  0  0
    1.3303   -0.1767    0.0000 C    0  0  0  0  0  0  0  0  0  0  0  0
    0.0000   -0.1767    0.0000 C    0  0  0  0  0  0  0  0  0  0  0  0
  1  2  1  0  0  0  0
  1  3  1  0  0  0  0
  1  5  2  0  0  0  0
  1  4  1  0  0  0  0
  2  8  1  0  0  0  0
  3  6  1  0  0  0  0
  6  7  1  0  0  0  0
  8  9  1  0  0  0  0
M  END
> <ID>
5189

> <Formula>
C4H10ClO2PS

> <FW>
188.6128

> <DSSTox_CID>
7487

> <DSSTox_RID>
78468

> <DSSTox_GSID>
27487

> <DSSTox_FileID_Sort>
3151

> <TS_ChemName>
O,O-Diethyl chlorothiophosphate

> <TS_ChemName_Synonyms>
O,O-Diethyl chlorothiophosphate (Phosphorochloridothioic acid, O,O-diethyl ester)

> <TS_CASRN>
2524-04-1

> <CASRN_ChemName_Relationship>
primary

> <TS_Description>
single chemical compound

> <ChemNote>


> <STRUCTURE_Shown>
tested chemical

> <STRUCTURE_Formula>
C4H10ClO2PS

> <STRUCTURE_MW>
188.6128

> <STRUCTURE_ChemType>
defined organic

> <STRUCTURE_DefinedOrganicForm>
parent

> <STRUCTURE_IUPAC>
O,O-diethyl phosphorochloridothioate

> <STRUCTURE_SMILES>
ClP(=S)(OCC)OCC

> <STRUCTURE_SMILES_Desalt>
ClP(=S)(OCC)OCC

> <Substance_modify_yyyymmdd>
20080429

$$$$
