2524-64-3
ChemmineR-0915142007XD

 17 18  0  0  0  0  0  0  0  0  1 V2000
    4.6371   -1.9913    0.0000 P    0  0  0  0  0  0  0  0  0  0  0  0
    3.9641   -0.8481    0.0000 O    0  0  0  0  0  0  0  0  0  0  0  0
    3.4755   -2.6642    0.0000 O    0  0  0  0  0  0  0  0  0  0  0  0
    5.7710   -1.3275    0.0000 O    0  0  0  0  0  0  0  0  0  0  0  0
    5.2916   -3.1436    0.0000 Cl   0  0  0  0  0  0  0  0  0  0  0  0
    1.1524    0.0000    0.0000 C    0  0  0  0  0  0  0  0  0  0  0  0
    0.0000   -0.6730    0.0000 C    0  0  0  0  0  0  0  0  0  0  0  0
    0.0184   -2.0005    0.0000 C    0  0  0  0  0  0  0  0  0  0  0  0
    1.1892   -2.6642    0.0000 C    0  0  0  0  0  0  0  0  0  0  0  0
    2.3231   -1.9913    0.0000 C    0  0  0  0  0  0  0  0  0  0  0  0
    2.3231   -0.6730    0.0000 C    0  0  0  0  0  0  0  0  0  0  0  0
    9.2188   -2.0005    0.0000 C    0  0  0  0  0  0  0  0  0  0  0  0
    9.2188   -3.3372    0.0000 C    0  0  0  0  0  0  0  0  0  0  0  0
    8.0849   -3.9917    0.0000 C    0  0  0  0  0  0  0  0  0  0  0  0
    6.9233   -3.3188    0.0000 C    0  0  0  0  0  0  0  0  0  0  0  0
    6.9233   -2.0005    0.0000 C    0  0  0  0  0  0  0  0  0  0  0  0
    8.0665   -1.3275    0.0000 C    0  0  0  0  0  0  0  0  0  0  0  0
  1  2  2  0  0  0  0
  1  3  1  0  0  0  0
  1  4  1  0  0  0  0
  1  5  1  0  0  0  0
  3 10  1  0  0  0  0
  4 16  1  0  0  0  0
  6 11  2  0  0  0  0
  6  7  1  0  0  0  0
  7  8  2  0  0  0  0
  8  9  1  0  0  0  0
  9 10  2  0  0  0  0
 10 11  1  0  0  0  0
 12 17  2  0  0  0  0
 12 13  1  0  0  0  0
 13 14  2  0  0  0  0
 14 15  1  0  0  0  0
 15 16  2  0  0  0  0
 16 17  1  0  0  0  0
M  END
> <ID>
10539

> <Formula>
C12H10ClO3P

> <FW>
268.6328

> <DSSTox_CID>
24892

> <DSSTox_RID>
80563

> <DSSTox_GSID>
44892

> <DSSTox_FileID_Sort>
5245

> <TS_ChemName>
Diphenyl phosphorochloridate

> <TS_ChemName_Synonyms>
Diphenyl phosphorochloridate (Phosphorochloridic acid, diphenyl ester)

> <TS_CASRN>
2524-64-3

> <CASRN_ChemName_Relationship>
primary

> <TS_Description>
single chemical compound

> <ChemNote>


> <STRUCTURE_Shown>
tested chemical

> <STRUCTURE_Formula>
C12H10ClO3P

> <STRUCTURE_MW>
268.6328

> <STRUCTURE_ChemType>
defined organic

> <STRUCTURE_DefinedOrganicForm>
parent

> <STRUCTURE_IUPAC>
diphenyl phosphorochloridate

> <STRUCTURE_SMILES>
ClP(=O)(Oc1ccccc1)Oc2ccccc2

> <STRUCTURE_SMILES_Desalt>
ClP(=O)(Oc1ccccc1)Oc2ccccc2

> <Substance_modify_yyyymmdd>
20091116

$$$$
