25265-77-4
ChemmineR-0915142007XD

 15 14  0  0  0  0  0  0  0  0  1 V2000
    4.6593   -2.2994    0.0000 C   0  0  0  0  0  0  0  0  0  0  0  0
    3.3281   -2.2994    0.0000 C   0  0  0  0  0  0  0  0  0  0  0  0
    1.9968   -2.2994    0.0000 C   0  0  0  0  0  0  0  0  0  0  0  0
    1.3312   -3.4577    0.0000 C   0  0  0  0  0  0  0  0  0  0  0  0
    0.0000   -3.4577    0.0000 C   0  0  0  0  0  0  0  0  0  0  0  0
    5.3163   -1.1497    0.0000 O   0  0  0  0  0  0  0  0  0  0  0  0
    1.3312   -1.1497    0.0000 O   0  0  0  0  0  0  0  0  0  0  0  0
    3.3281   -3.6306    0.0000 C   0  0  0  0  0  0  0  0  0  0  0  0
    3.3281   -0.9768    0.0000 C   0  0  0  0  0  0  0  0  0  0  0  0
    1.9968   -4.6074    0.0000 C   0  0  0  0  0  0  0  0  0  0  0  0
    6.6475   -1.1497    0.0000 C   0  0  0  0  0  0  0  0  0  0  0  0
    7.3131    0.0000    0.0000 O   0  0  0  0  0  0  0  0  0  0  0  0
    7.3131   -2.2994    0.0000 C   0  0  0  0  0  0  0  0  0  0  0  0
    8.6444   -2.2994    0.0000 C   0  0  0  0  0  0  0  0  0  0  0  0
    6.6475   -3.4577    0.0000 C   0  0  0  0  0  0  0  0  0  0  0  0
  1  2  1  0  0  0  0
  1  6  1  0  0  0  0
  2  3  1  0  0  0  0
  2  8  1  0  0  0  0
  2  9  1  0  0  0  0
  3  4  1  0  0  0  0
  3  7  1  0  0  0  0
  4  5  1  0  0  0  0
  4 10  1  0  0  0  0
  6 11  1  0  0  0  0
 11 12  2  0  0  0  0
 11 13  1  0  0  0  0
 13 14  1  0  0  0  0
 13 15  1  0  0  0  0
M  END
> <ID>
5451

> <Formula>
C12H24O3

> <FW>
216.3172

> <DSSTox_CID>
7857

> <DSSTox_RID>
78592

> <DSSTox_GSID>
27857

> <DSSTox_FileID_Sort>
3275

> <TS_ChemName>
2,2,4-Trimethyl-1,3-pentanediol monoisobutyrate

> <TS_ChemName_Synonyms>
2,2,4-Trimethyl-1,3-pentanediol monoisobutyrate (Propanoic acid, 2-methyl-, monoester with 2,2,4-trimethyl-1,3-pentanediol)

> <TS_CASRN>
25265-77-4

> <CASRN_ChemName_Relationship>
primary

> <TS_Description>
mixture or formulation

> <ChemNote>
mixture of esters; structure shown 3-hydroxy-2,2,4-trimethylpentyl

> <STRUCTURE_Shown>
representative component

> <STRUCTURE_Formula>
C12H24O3

> <STRUCTURE_MW>
216.3172

> <STRUCTURE_ChemType>
defined organic

> <STRUCTURE_DefinedOrganicForm>
parent

> <STRUCTURE_IUPAC>
3-hydroxy-2,2,4-trimethylpentyl 2-methylpropanoate

> <STRUCTURE_SMILES>
CC(C)(COC(=O)C(C)C)C(O)C(C)C

> <STRUCTURE_SMILES_Desalt>
CC(C)(COC(=O)C(C)C)C(O)C(C)C

> <Substance_modify_yyyymmdd>
20080429

$$$$
