2528-16-7
ChemmineR-0915142007XD

 19 20  0  0  0  0  0  0  0  0  1 V2000
    2.3038   -1.9905    0.0000 C   0  0  0  0  0  0  0  0  0  0  0  0
    2.3038   -3.3174    0.0000 C   0  0  0  0  0  0  0  0  0  0  0  0
    3.4557   -1.3270    0.0000 C   0  0  0  0  0  0  0  0  0  0  0  0
    3.4557   -3.9902    0.0000 C   0  0  0  0  0  0  0  0  0  0  0  0
    3.4557    0.0000    0.0000 O   0  0  0  0  0  0  0  0  0  0  0  0
    3.4557   -5.3171    0.0000 O   0  0  0  0  0  0  0  0  0  0  0  0
    4.6076   -1.9905    0.0000 O   0  0  0  0  0  0  0  0  0  0  0  0
    4.6076   -3.3174    0.0000 O   0  0  0  0  0  0  0  0  0  0  0  0
    1.1519   -1.3270    0.0000 C   0  0  0  0  0  0  0  0  0  0  0  0
    1.1519   -3.9902    0.0000 C   0  0  0  0  0  0  0  0  0  0  0  0
    0.0000   -1.9905    0.0000 C   0  0  0  0  0  0  0  0  0  0  0  0
    0.0000   -3.3174    0.0000 C   0  0  0  0  0  0  0  0  0  0  0  0
    5.7595   -1.3270    0.0000 C   0  0  0  0  0  0  0  0  0  0  0  0
    6.9114   -1.9905    0.0000 C   0  0  0  0  0  0  0  0  0  0  0  0
    8.0632   -1.3270    0.0000 C   0  0  0  0  0  0  0  0  0  0  0  0
    6.9114   -3.3174    0.0000 C   0  0  0  0  0  0  0  0  0  0  0  0
    9.2151   -1.9905    0.0000 C   0  0  0  0  0  0  0  0  0  0  0  0
    8.0632   -3.9902    0.0000 C   0  0  0  0  0  0  0  0  0  0  0  0
    9.2151   -3.3174    0.0000 C   0  0  0  0  0  0  0  0  0  0  0  0
  1  2  2  0  0  0  0
  1  3  1  0  0  0  0
  1  9  1  0  0  0  0
  2  4  1  0  0  0  0
  2 10  1  0  0  0  0
  3  5  2  0  0  0  0
  3  7  1  0  0  0  0
  4  6  2  0  0  0  0
  4  8  1  0  0  0  0
  7 13  1  0  0  0  0
  9 11  2  0  0  0  0
 10 12  2  0  0  0  0
 11 12  1  0  0  0  0
 13 14  1  0  0  0  0
 14 15  2  0  0  0  0
 14 16  1  0  0  0  0
 15 17  1  0  0  0  0
 16 18  2  0  0  0  0
 17 19  2  0  0  0  0
 18 19  1  0  0  0  0
M  END
> <ID>
9759

> <Formula>
C15H12O4

> <FW>
256.2534

> <DSSTox_CID>
23938

> <DSSTox_RID>
80091

> <DSSTox_GSID>
43938

> <DSSTox_FileID_Sort>
4773

> <TS_ChemName>
Monobenzyl phthalate

> <TS_ChemName_Synonyms>


> <TS_CASRN>
2528-16-7

> <CASRN_ChemName_Relationship>
primary

> <TS_Description>
single chemical compound

> <ChemNote>


> <STRUCTURE_Shown>
tested chemical

> <STRUCTURE_Formula>
C15H12O4

> <STRUCTURE_MW>
256.2534

> <STRUCTURE_ChemType>
defined organic

> <STRUCTURE_DefinedOrganicForm>
parent

> <STRUCTURE_IUPAC>
2-[(benzyloxy)carbonyl]benzoic acid

> <STRUCTURE_SMILES>
O=C(O)c2ccccc2C(=O)OCc1ccccc1

> <STRUCTURE_SMILES_Desalt>
O=C(O)c2ccccc2C(=O)OCc1ccccc1

> <Substance_modify_yyyymmdd>
20090108

$$$$
