2529-45-5
ChemmineR-0915142007XD

 31 34  0  0  1  0  0  0  0  0  1 V2000
    6.9408   -2.6643    0.0000 C   0  0  0  0  0  0  0  0  0  0  0  0
    4.6539   -4.0250    0.0000 C   0  0  0  0  0  0  0  0  0  0  0  0
    8.2672   -2.2640    0.0000 C   0  0  0  0  0  0  0  0  0  0  0  0
    3.5333   -4.6424    0.0000 C   0  0  0  0  0  0  0  0  0  0  0  0
    5.8431   -4.6424    0.0000 C   0  0  0  0  0  0  0  0  0  0  0  0
    6.9408   -3.9907    0.0000 C   0  0  0  0  0  0  0  0  0  0  0  0
    3.5333   -5.9917    0.0000 C   0  0  0  0  0  0  0  0  0  0  0  0
    4.6653   -2.6871    0.0000 C   0  0  0  0  0  0  0  0  0  0  0  0
    5.8088   -1.9896    0.0000 C   0  0  0  0  0  0  0  0  0  0  0  0
    2.3441   -6.6892    0.0000 C   0  0  0  0  0  0  0  0  0  0  0  0
    9.0104   -3.3160    0.0000 C   0  0  0  0  0  0  0  0  0  0  0  0
    9.3878   -2.2640    0.0000 O   0  0  0  0  0  0  0  0  0  0  0  0
    8.2672   -4.3794    0.0000 C   0  0  0  0  0  0  0  0  0  0  0  0
    5.8431   -5.9917    0.0000 C   0  0  0  0  0  0  0  0  0  0  0  0
    2.3441   -4.0250    0.0000 C   0  0  0  0  0  0  0  0  0  0  0  0
    8.5874   -0.9605    0.0000 C   0  0  0  0  0  0  0  0  0  0  0  0
   10.0739   -3.4075    0.0000 C   0  0  0  0  0  0  0  0  0  0  0  0
    4.6539   -6.6892    0.0000 C   0  0  0  0  0  0  0  0  0  0  0  0
    1.1663   -5.9917    0.0000 C   0  0  0  0  0  0  0  0  0  0  0  0
    4.6539   -5.3285    0.0000 F   0  0  0  0  0  0  0  0  0  0  0  0
   11.4346   -3.4075    0.0000 O   0  0  0  0  0  0  0  0  0  0  0  0
    7.6497    0.0000    0.0000 O   0  0  0  0  0  0  0  0  0  0  0  0
    0.0000   -6.6892    0.0000 O   0  0  0  0  0  0  0  0  0  0  0  0
    6.9408   -1.3607    0.0000 C   0  0  0  0  0  0  0  0  0  0  0  0
    1.1663   -4.6424    0.0000 C   0  0  0  0  0  0  0  0  0  0  0  0
    3.4990   -1.9782    0.0000 O   0  0  0  0  0  0  0  0  0  0  0  0
    3.5333   -3.3160    0.0000 C   0  0  0  0  0  0  0  0  0  0  0  0
    9.3878   -4.5281    0.0000 C   0  0  0  0  0  0  0  0  0  0  0  0
    9.9023   -0.6518    0.0000 C   0  0  0  0  0  0  0  0  0  0  0  0
    5.8431   -3.3160    0.0000 H   0  0  0  0  0  0  0  0  0  0  0  0
    6.9408   -5.3285    0.0000 H   0  0  0  0  0  0  0  0  0  0  0  0
  1  3  1  0  0  0  0
  1  6  1  0  0  0  0
  1  9  1  0  0  0  0
  1 24  1  1  0  0  0
  2  8  1  0  0  0  0
  2  4  1  0  0  0  0
  2 20  1  6  0  0  0
  2  5  1  0  0  0  0
  3 11  1  0  0  0  0
  3 12  1  6  0  0  0
  3 16  1  1  0  0  0
  4  7  1  0  0  0  0
  4 15  1  0  0  0  0
  4 27  1  1  0  0  0
  5  6  1  0  0  0  0
  5 14  1  0  0  0  0
  5 30  1  1  0  0  0
  6 13  1  0  0  0  0
  6 31  1  6  0  0  0
  7 10  2  0  0  0  0
  7 18  1  0  0  0  0
  8  9  1  0  0  0  0
  8 26  1  1  0  0  0
 10 19  1  0  0  0  0
 11 13  1  0  0  0  0
 12 17  1  0  0  0  0
 14 18  1  0  0  0  0
 15 25  1  0  0  0  0
 16 22  2  0  0  0  0
 16 29  1  0  0  0  0
 17 21  2  0  0  0  0
 17 28  1  0  0  0  0
 19 25  1  0  0  0  0
 19 23  2  0  0  0  0
M  END
> <ID>
11505

> <Formula>
C23H31FO5

> <FW>
406.4876

> <DSSTox_CID>
26210

> <DSSTox_RID>
81438

> <DSSTox_GSID>
46210

> <DSSTox_FileID_Sort>
6119

> <TS_ChemName>
Flurogestone acetate

> <TS_ChemName_Synonyms>


> <TS_CASRN>
2529-45-5

> <CASRN_ChemName_Relationship>
primary

> <TS_Description>
single chemical compound

> <ChemNote>
stereochem

> <STRUCTURE_Shown>
tested chemical

> <STRUCTURE_Formula>
C23H31FO5

> <STRUCTURE_MW>
406.4876

> <STRUCTURE_ChemType>
defined organic

> <STRUCTURE_DefinedOrganicForm>
parent

> <STRUCTURE_IUPAC>
(11beta)-9-fluoro-11-hydroxy-3,20-dioxopregn-4-en-17-yl acetate

> <STRUCTURE_SMILES>
CC(=O)[C@@]4(OC(C)=O)CC[C@@H]2[C@]4(C)C[C@H](O)[C@]1(F)[C@@]3(C)CCC(=O)C=C3CC[C@H]12

> <STRUCTURE_SMILES_Desalt>
CC(=O)[C@@]4(OC(C)=O)CC[C@@H]2[C@]4(C)C[C@H](O)[C@]1(F)[C@@]3(C)CCC(=O)C=C3CC[C@H]12

> <Substance_modify_yyyymmdd>
20110610

$$$$
