2530-83-8
ChemmineR-0915142007XD

 15 15  0  0  0  0  0  0  0  0  1 V2000
    7.1509   -2.2923    0.0000 Si   0  0  0  0  0  0  0  0  0  0  0  0
    5.9965   -1.6362    0.0000 O    0  0  0  0  0  0  0  0  0  0  0  0
    4.8420   -2.2923    0.0000 C    0  0  0  0  0  0  0  0  0  0  0  0
    8.3053   -2.9650    0.0000 O    0  0  0  0  0  0  0  0  0  0  0  0
    8.3053   -4.2939    0.0000 C    0  0  0  0  0  0  0  0  0  0  0  0
    7.8070   -1.1378    0.0000 O    0  0  0  0  0  0  0  0  0  0  0  0
    7.1509    0.0000    0.0000 C    0  0  0  0  0  0  0  0  0  0  0  0
    6.4782   -3.4467    0.0000 C    0  0  0  0  0  0  0  0  0  0  0  0
    5.1493   -3.4467    0.0000 C    0  0  0  0  0  0  0  0  0  0  0  0
    4.4932   -4.6012    0.0000 C    0  0  0  0  0  0  0  0  0  0  0  0
    3.1560   -4.6012    0.0000 O    0  0  0  0  0  0  0  0  0  0  0  0
    2.4833   -5.7556    0.0000 C    0  0  0  0  0  0  0  0  0  0  0  0
    0.0000   -5.0829    0.0000 O    0  0  0  0  0  0  0  0  0  0  0  0
    1.1544   -5.7556    0.0000 C    0  0  0  0  0  0  0  0  0  0  0  0
    0.0000   -6.4117    0.0000 C    0  0  0  0  0  0  0  0  0  0  0  0
  1  2  1  0  0  0  0
  1  4  1  0  0  0  0
  1  6  1  0  0  0  0
  1  8  1  0  0  0  0
  2  3  1  0  0  0  0
  4  5  1  0  0  0  0
  6  7  1  0  0  0  0
  8  9  1  0  0  0  0
  9 10  1  0  0  0  0
 10 11  1  0  0  0  0
 11 12  1  0  0  0  0
 12 14  1  0  0  0  0
 13 14  1  0  0  0  0
 13 15  1  0  0  0  0
 14 15  1  0  0  0  0
M  END
> <ID>
5190

> <Formula>
C9H20O5Si

> <FW>
236.3376

> <DSSTox_CID>
7489

> <DSSTox_RID>
78469

> <DSSTox_GSID>
27489

> <DSSTox_FileID_Sort>
3152

> <TS_ChemName>
Trimethoxy[3-(oxiran-2-ylmethoxy)propyl]silane

> <TS_ChemName_Synonyms>


> <TS_CASRN>
2530-83-8

> <CASRN_ChemName_Relationship>
primary

> <TS_Description>
single chemical compound

> <ChemNote>


> <STRUCTURE_Shown>
tested chemical

> <STRUCTURE_Formula>
C9H20O5Si

> <STRUCTURE_MW>
236.3376

> <STRUCTURE_ChemType>
organometallic

> <STRUCTURE_DefinedOrganicForm>


> <STRUCTURE_IUPAC>
trimethoxy[3-(oxiran-2-ylmethoxy)propyl]silane

> <STRUCTURE_SMILES>
CO[Si](CCCOCC1CO1)(OC)OC

> <STRUCTURE_SMILES_Desalt>
CO[Si](CCCOCC1CO1)(OC)OC

> <Substance_modify_yyyymmdd>
20080429

$$$$
