2530-87-2
ChemmineR-0915142007XD

 11 10  0  0  0  0  0  0  0  0  1 V2000
    4.6216   -1.1571    0.0000 Si   0  0  0  0  0  0  0  0  0  0  0  0
    3.4645   -0.4959    0.0000 C    0  0  0  0  0  0  0  0  0  0  0  0
    2.3141   -1.1571    0.0000 C    0  0  0  0  0  0  0  0  0  0  0  0
    1.1571   -0.4959    0.0000 C    0  0  0  0  0  0  0  0  0  0  0  0
    0.0000   -1.1571    0.0000 Cl   0  0  0  0  0  0  0  0  0  0  0  0
    3.9472   -2.3075    0.0000 O    0  0  0  0  0  0  0  0  0  0  0  0
    2.6182   -2.3075    0.0000 C    0  0  0  0  0  0  0  0  0  0  0  0
    5.2828    0.0000    0.0000 O    0  0  0  0  0  0  0  0  0  0  0  0
    6.6117    0.0000    0.0000 C    0  0  0  0  0  0  0  0  0  0  0  0
    5.7588   -1.8314    0.0000 O    0  0  0  0  0  0  0  0  0  0  0  0
    5.7588   -3.1604    0.0000 C    0  0  0  0  0  0  0  0  0  0  0  0
  1  2  1  0  0  0  0
  1  6  1  0  0  0  0
  1  8  1  0  0  0  0
  1 10  1  0  0  0  0
  2  3  1  0  0  0  0
  3  4  1  0  0  0  0
  4  5  1  0  0  0  0
  6  7  1  0  0  0  0
  8  9  1  0  0  0  0
 10 11  1  0  0  0  0
M  END
> <ID>
5191

> <Formula>
C6H15ClO3Si

> <FW>
198.72

> <DSSTox_CID>
7490

> <DSSTox_RID>
78470

> <DSSTox_GSID>
27490

> <DSSTox_FileID_Sort>
3153

> <TS_ChemName>
(3-Chloropropyl)trimethoxysilane

> <TS_ChemName_Synonyms>


> <TS_CASRN>
2530-87-2

> <CASRN_ChemName_Relationship>
primary

> <TS_Description>
single chemical compound

> <ChemNote>


> <STRUCTURE_Shown>
tested chemical

> <STRUCTURE_Formula>
C6H15ClO3Si

> <STRUCTURE_MW>
198.72

> <STRUCTURE_ChemType>
organometallic

> <STRUCTURE_DefinedOrganicForm>


> <STRUCTURE_IUPAC>
(3-chloropropyl)(trimethoxy)silane

> <STRUCTURE_SMILES>
CO[Si](CCCCl)(OC)OC

> <STRUCTURE_SMILES_Desalt>
CO[Si](CCCCl)(OC)OC

> <Substance_modify_yyyymmdd>
20080429

$$$$
