25316-40-9_1
ChemmineR-0915142007XD

 40 43  0  0  1  0  0  0  0  0  1 V2000
    3.3906  -10.8297    0.0000 O    0  0  0  0  0  0  0  0  0  0  0  0
    3.8461   -9.5772    0.0000 C    0  0  0  0  0  0  0  0  0  0  0  0
    2.9984   -8.5777    0.0000 C    0  0  0  0  0  0  0  0  0  0  0  0
    1.6827   -8.7928    0.0000 O    0  0  0  0  0  0  0  0  0  0  0  0
    3.4539   -7.3126    0.0000 C    0  0  0  0  0  0  0  0  0  0  0  0
    2.1508   -7.0849    0.0000 O    0  0  0  0  0  0  0  0  0  0  0  0
    3.4539   -5.9715    0.0000 C    0  0  0  0  0  0  0  0  0  0  0  0
    4.6178   -5.3263    0.0000 C    0  0  0  0  0  0  0  0  0  0  0  0
    4.6178   -3.9852    0.0000 O    0  0  0  0  0  0  0  0  0  0  0  0
    3.4539   -3.3147    0.0000 C    0  0  0  0  0  0  0  0  0  0  0  0
    2.3026   -3.9852    0.0000 C    0  0  0  0  0  0  0  0  0  0  0  0
    1.1513   -3.3147    0.0000 C    0  0  0  0  0  0  0  0  0  0  0  0
    0.0000   -3.9852    0.0000 N    0  0  0  0  0  0  0  0  0  0  0  0
    1.1513   -1.9863    0.0000 C    0  0  0  0  0  0  0  0  0  0  0  0
    0.0000   -1.3284    0.0000 O    0  0  0  0  0  0  0  0  0  0  0  0
    2.3026   -1.3284    0.0000 C    0  0  0  0  0  0  0  0  0  0  0  0
    2.3026    0.0000    0.0000 C    0  0  0  0  0  0  0  0  0  0  0  0
    3.4539   -1.9863    0.0000 O    0  0  0  0  0  0  0  0  0  0  0  0
    5.7691   -5.9715    0.0000 C    0  0  0  0  0  0  0  0  0  0  0  0
    6.9077   -5.3263    0.0000 C    0  0  0  0  0  0  0  0  0  0  0  0
    6.9077   -3.9852    0.0000 O    0  0  0  0  0  0  0  0  0  0  0  0
    8.0590   -5.9715    0.0000 C    0  0  0  0  0  0  0  0  0  0  0  0
    9.2103   -5.3263    0.0000 C    0  0  0  0  0  0  0  0  0  0  0  0
    9.2103   -3.9852    0.0000 O    0  0  0  0  0  0  0  0  0  0  0  0
   10.3616   -5.9715    0.0000 C    0  0  0  0  0  0  0  0  0  0  0  0
   11.5129   -5.3263    0.0000 C    0  0  0  0  0  0  0  0  0  0  0  0
   11.5129   -3.9852    0.0000 O    0  0  0  0  0  0  0  0  0  0  0  0
   12.6515   -3.3147    0.0000 C    0  0  0  0  0  0  0  0  0  0  0  0
   12.6515   -5.9715    0.0000 C    0  0  0  0  0  0  0  0  0  0  0  0
   12.6515   -7.3126    0.0000 C    0  0  0  0  0  0  0  0  0  0  0  0
   11.5129   -7.9831    0.0000 C    0  0  0  0  0  0  0  0  0  0  0  0
   10.3616   -7.3126    0.0000 C    0  0  0  0  0  0  0  0  0  0  0  0
    9.2103   -7.9831    0.0000 C    0  0  0  0  0  0  0  0  0  0  0  0
    9.2103   -9.3115    0.0000 O    0  0  0  0  0  0  0  0  0  0  0  0
    8.0590   -7.3126    0.0000 C    0  0  0  0  0  0  0  0  0  0  0  0
    6.9077   -7.9831    0.0000 C    0  0  0  0  0  0  0  0  0  0  0  0
    6.9077   -9.3115    0.0000 O    0  0  0  0  0  0  0  0  0  0  0  0
    5.7691   -7.3126    0.0000 C    0  0  0  0  0  0  0  0  0  0  0  0
    4.6178   -7.9831    0.0000 C    0  0  0  0  0  0  0  0  0  0  0  0
    9.6405   -0.5946    0.0000 Cl   0  0  0  0  0  0  0  0  0  0  0  0
  1  2  1  0  0  0  0
  2  3  1  0  0  0  0
  3  4  2  0  0  0  0
  5  3  1  1  0  0  0
  5  6  1  6  0  0  0
  5  7  1  0  0  0  0
  5 39  1  0  0  0  0
  7  8  1  0  0  0  0
  8  9  1  6  0  0  0
  8 19  1  0  0  0  0
 10  9  1  1  0  0  0
 10 11  1  0  0  0  0
 10 18  1  0  0  0  0
 11 12  1  0  0  0  0
 12 13  1  6  0  0  0
 12 14  1  0  0  0  0
 14 15  1  6  0  0  0
 14 16  1  0  0  0  0
 16 17  1  6  0  0  0
 16 18  1  0  0  0  0
 19 20  2  0  0  0  0
 19 38  1  0  0  0  0
 20 21  1  0  0  0  0
 20 22  1  0  0  0  0
 22 23  1  0  0  0  0
 22 35  2  0  0  0  0
 23 24  2  0  0  0  0
 23 25  1  0  0  0  0
 25 26  2  0  0  0  0
 25 32  1  0  0  0  0
 26 27  1  0  0  0  0
 26 29  1  0  0  0  0
 27 28  1  0  0  0  0
 29 30  2  0  0  0  0
 30 31  1  0  0  0  0
 31 32  2  0  0  0  0
 32 33  1  0  0  0  0
 33 34  2  0  0  0  0
 33 35  1  0  0  0  0
 35 36  1  0  0  0  0
 36 37  1  0  0  0  0
 36 38  2  0  0  0  0
 38 39  1  0  0  0  0
M  END
> <ID>
6280

> <Formula>
C27H30ClNO11

> <FW>
579.9802 (543.5193+36.4609)

> <DSSTox_CID>
10636

> <DSSTox_RID>
80678

> <DSSTox_GSID>
45111

> <DSSTox_FileID_Sort>
5360

> <TS_ChemName>
Adriamycin hydrochloride-DNA complex

> <TS_ChemName_Synonyms>


> <TS_CASRN>
25316-40-9_1

> <CASRN_ChemName_Relationship>
CAS for major component

> <TS_Description>
mixture or formulation

> <ChemNote>
CAS for adriamycin HCl [25316-40-9] with DNA; structure shown adriamycin HCl

> <STRUCTURE_Shown>
representative component

> <STRUCTURE_Formula>
C27H30ClNO11

> <STRUCTURE_MW>
579.9802

> <STRUCTURE_ChemType>
defined organic

> <STRUCTURE_DefinedOrganicForm>
complex

> <STRUCTURE_IUPAC>
(1S,3S)-3,5,12-trihydroxy-3-(hydroxyacetyl)-10-methoxy-6,11-dioxo-1,2,3,4,6,11-hexahydrotetracen-1-yl 3-amino-2,3,6-trideoxy-alpha-L-lyxo-hexopyranoside hydrochloride (1:1)

> <STRUCTURE_SMILES>
Cl.OCC(=O)[C@@]4(O)C[C@H](O[C@H]1C[C@H](N)[C@H](O)[C@H](C)O1)c5c(O)c3C(=O)c2c(OC)cccc2C(=O)c3c(O)c5C4

> <STRUCTURE_SMILES_Desalt>
OCC(=O)[C@@]4(O)C[C@H](O[C@H]1C[C@H](N)[C@H](O)[C@H](C)O1)c5c(O)c3C(=O)c2c(OC)cccc2C(=O)c3c(O)c5C4

> <Substance_modify_yyyymmdd>
20130911

$$$$
