25311-71-1
ChemmineR-0915142007XD

 22 22  0  0  0  0  0  0  0  0  1 V2000
    3.4400   -2.6549    0.0000 P   0  0  0  0  0  0  0  0  0  0  0  0
    6.8904   -0.6715    0.0000 C   0  0  0  0  0  0  0  0  0  0  0  0
    6.8904   -1.9938    0.0000 C   0  0  0  0  0  0  0  0  0  0  0  0
    5.7437   -2.6549    0.0000 C   0  0  0  0  0  0  0  0  0  0  0  0
    4.5764   -1.9834    0.0000 O   0  0  0  0  0  0  0  0  0  0  0  0
    4.0805   -3.8016    0.0000 N   0  0  0  0  0  0  0  0  0  0  0  0
    2.7789   -1.4669    0.0000 S   0  0  0  0  0  0  0  0  0  0  0  0
    8.0474    0.0000    0.0000 O   0  0  0  0  0  0  0  0  0  0  0  0
    5.7437    0.0000    0.0000 O   0  0  0  0  0  0  0  0  0  0  0  0
    2.2623   -3.3057    0.0000 O   0  0  0  0  0  0  0  0  0  0  0  0
    8.0474   -2.6549    0.0000 C   0  0  0  0  0  0  0  0  0  0  0  0
    9.1837   -0.6715    0.0000 C   0  0  0  0  0  0  0  0  0  0  0  0
    3.3367   -4.8863    0.0000 C   0  0  0  0  0  0  0  0  0  0  0  0
    5.7437   -3.9772    0.0000 C   0  0  0  0  0  0  0  0  0  0  0  0
    1.1673   -2.6239    0.0000 C   0  0  0  0  0  0  0  0  0  0  0  0
    9.1837   -1.9938    0.0000 C   0  0  0  0  0  0  0  0  0  0  0  0
   10.3304    0.0000    0.0000 C   0  0  0  0  0  0  0  0  0  0  0  0
    3.9669   -6.0949    0.0000 C   0  0  0  0  0  0  0  0  0  0  0  0
    2.0041   -4.8863    0.0000 C   0  0  0  0  0  0  0  0  0  0  0  0
    8.0474   -3.9772    0.0000 C   0  0  0  0  0  0  0  0  0  0  0  0
    6.8904   -4.6590    0.0000 C   0  0  0  0  0  0  0  0  0  0  0  0
    0.0000   -3.2747    0.0000 C   0  0  0  0  0  0  0  0  0  0  0  0
  1  5  1  0  0  0  0
  1  6  1  0  0  0  0
  1  7  2  0  0  0  0
  1 10  1  0  0  0  0
  2  3  1  0  0  0  0
  2  8  1  0  0  0  0
  2  9  2  0  0  0  0
  3  4  1  0  0  0  0
  3 11  2  0  0  0  0
  4  5  1  0  0  0  0
  4 14  2  0  0  0  0
  6 13  1  0  0  0  0
  8 12  1  0  0  0  0
 10 15  1  0  0  0  0
 11 20  1  0  0  0  0
 12 16  1  0  0  0  0
 12 17  1  0  0  0  0
 13 18  1  0  0  0  0
 13 19  1  0  0  0  0
 14 21  1  0  0  0  0
 15 22  1  0  0  0  0
 20 21  2  0  0  0  0
M  END
> <ID>
6456

> <Formula>
C15H24NO4PS

> <FW>
345.3941

> <DSSTox_CID>
12417

> <DSSTox_RID>
78943

> <DSSTox_GSID>
32417

> <DSSTox_FileID_Sort>
3625

> <TS_ChemName>
Isofenphos

> <TS_ChemName_Synonyms>


> <TS_CASRN>
25311-71-1

> <CASRN_ChemName_Relationship>
primary

> <TS_Description>
single chemical compound

> <ChemNote>


> <STRUCTURE_Shown>
tested chemical

> <STRUCTURE_Formula>
C15H24NO4PS

> <STRUCTURE_MW>
345.3941

> <STRUCTURE_ChemType>
defined organic

> <STRUCTURE_DefinedOrganicForm>
parent

> <STRUCTURE_IUPAC>
propan-2-yl 2-{[ethoxy(propan-2-ylamino)phosphorothioyl]oxy}benzoate

> <STRUCTURE_SMILES>
S=P(Oc1ccccc1C(=O)OC(C)C)(NC(C)C)OCC

> <STRUCTURE_SMILES_Desalt>
S=P(Oc1ccccc1C(=O)OC(C)C)(NC(C)C)OCC

> <Substance_modify_yyyymmdd>
20080429

$$$$
