25322-69-4
ChemmineR-0915142007XD

  5  4  0  0  0  0  0  0  0  0  1 V2000
    3.4567   -1.9945    0.0000 C   0  0  0  0  0  0  0  0  0  0  0  0
    2.3056   -1.3308    0.0000 C   0  0  0  0  0  0  0  0  0  0  0  0
    1.1511   -1.9945    0.0000 C   0  0  0  0  0  0  0  0  0  0  0  0
    0.0000   -1.3308    0.0000 O   0  0  0  0  0  0  0  0  0  0  0  0
    2.3056    0.0000    0.0000 O   0  0  0  0  0  0  0  0  0  0  0  0
  1  2  1  0  0  0  0
  2  3  1  0  0  0  0
  2  5  1  0  0  0  0
  3  4  1  0  0  0  0
M  END
> <ID>
1160

> <Formula>
C3H8O2

> <FW>
76.0944

> <DSSTox_CID>
1206

> <DSSTox_RID>
78594

> <DSSTox_GSID>
27863

> <DSSTox_FileID_Sort>
3277

> <TS_ChemName>
Polypropylene glycol

> <TS_ChemName_Synonyms>
Poly[oxy(methyl-1,2-ethanediyl)], .alpha.-hydro-.omega.-hydroxy-; PPG

> <TS_CASRN>
25322-69-4

> <CASRN_ChemName_Relationship>
primary

> <TS_Description>
polymer

> <ChemNote>


> <STRUCTURE_Shown>
monomer of polymer

> <STRUCTURE_Formula>
C3H8O2

> <STRUCTURE_MW>
76.0944

> <STRUCTURE_ChemType>
defined organic

> <STRUCTURE_DefinedOrganicForm>
parent

> <STRUCTURE_IUPAC>
propane-1,2-diol

> <STRUCTURE_SMILES>
CC(O)CO

> <STRUCTURE_SMILES_Desalt>
CC(O)CO

> <Substance_modify_yyyymmdd>
20080429

$$$$
