25321-09-9
ChemmineR-0915142007XD

 12 12  0  0  0  0  0  0  0  0  1 V2000
    3.4907   -2.2706    0.0000 C   0  0  0  0  0  0  0  0  0  0  0  0
    4.1628   -3.4229    0.0000 C   0  0  0  0  0  0  0  0  0  0  0  0
    3.4907   -4.5751    0.0000 C   0  0  0  0  0  0  0  0  0  0  0  0
    2.1577   -4.5751    0.0000 C   0  0  0  0  0  0  0  0  0  0  0  0
    1.5024   -3.4229    0.0000 C   0  0  0  0  0  0  0  0  0  0  0  0
    2.1577   -2.2706    0.0000 C   0  0  0  0  0  0  0  0  0  0  0  0
    4.3379   -1.2483    0.0000 C   0  0  0  0  0  0  0  0  0  0  0  0
    3.8860    0.0000    0.0000 C   0  0  0  0  0  0  0  0  0  0  0  0
    5.6483   -1.4855    0.0000 C   0  0  0  0  0  0  0  0  0  0  0  0
    1.3104   -1.2483    0.0000 C   0  0  0  0  0  0  0  0  0  0  0  0
    0.0000   -1.4686    0.0000 C   0  0  0  0  0  0  0  0  0  0  0  0
    1.7736    0.0000    0.0000 C   0  0  0  0  0  0  0  0  0  0  0  0
  1  2  2  0  0  0  0
  1  6  1  0  0  0  0
  1  7  1  0  0  0  0
  2  3  1  0  0  0  0
  3  4  2  0  0  0  0
  4  5  1  0  0  0  0
  5  6  2  0  0  0  0
  6 10  1  0  0  0  0
  7  8  1  0  0  0  0
  7  9  1  0  0  0  0
 10 11  1  0  0  0  0
 10 12  1  0  0  0  0
M  END
> <ID>
5452

> <Formula>
C12H18

> <FW>
162.2713

> <DSSTox_CID>
7858

> <DSSTox_RID>
78593

> <DSSTox_GSID>
27858

> <DSSTox_FileID_Sort>
3276

> <TS_ChemName>
Diisopropylbenzene

> <TS_ChemName_Synonyms>
Diisopropylbenzene (Benzene, bis(1-methylethyl)-)

> <TS_CASRN>
25321-09-9

> <CASRN_ChemName_Relationship>
primary

> <TS_Description>
mixture or formulation

> <ChemNote>
mixture of 1,2- [577-55-9]; 1,3- [99-62-7]; and 1,4-diisopropylbenzene [100-18-5]; structure shown 1,2-

> <STRUCTURE_Shown>
representative isomer in mixture

> <STRUCTURE_Formula>
C12H18

> <STRUCTURE_MW>
162.2713

> <STRUCTURE_ChemType>
defined organic

> <STRUCTURE_DefinedOrganicForm>
parent

> <STRUCTURE_IUPAC>
1,2-di(propan-2-yl)benzene

> <STRUCTURE_SMILES>
CC(C)c1ccccc1C(C)C

> <STRUCTURE_SMILES_Desalt>
CC(C)c1ccccc1C(C)C

> <Substance_modify_yyyymmdd>
20080429

$$$$
