25327-89-3
ChemmineR-0915142007XD

 27 28  0  0  0  0  0  0  0  0  1 V2000
    7.1317   -1.8094    0.0000 C    0  0  0  0  0  0  0  0  0  0  0  0
    8.2831   -1.1514    0.0000 C    0  0  0  0  0  0  0  0  0  0  0  0
    9.4463   -1.8094    0.0000 C    0  0  0  0  0  0  0  0  0  0  0  0
    9.4463   -3.1370    0.0000 C    0  0  0  0  0  0  0  0  0  0  0  0
    8.2831   -3.8185    0.0000 C    0  0  0  0  0  0  0  0  0  0  0  0
    7.1317   -3.1370    0.0000 C    0  0  0  0  0  0  0  0  0  0  0  0
    8.2831   -5.1461    0.0000 Br   0  0  0  0  0  0  0  0  0  0  0  0
   10.5977   -1.1514    0.0000 Br   0  0  0  0  0  0  0  0  0  0  0  0
   10.5977   -3.8185    0.0000 O    0  0  0  0  0  0  0  0  0  0  0  0
   10.5977   -5.1461    0.0000 C    0  0  0  0  0  0  0  0  0  0  0  0
   11.7491   -5.8041    0.0000 C    0  0  0  0  0  0  0  0  0  0  0  0
   11.7491   -7.1317    0.0000 C    0  0  0  0  0  0  0  0  0  0  0  0
    5.3224   -2.3028    0.0000 C    0  0  0  0  0  0  0  0  0  0  0  0
    5.9803   -3.4660    0.0000 C    0  0  0  0  0  0  0  0  0  0  0  0
    5.3224   -4.6174    0.0000 C    0  0  0  0  0  0  0  0  0  0  0  0
    3.9947   -4.6174    0.0000 C    0  0  0  0  0  0  0  0  0  0  0  0
    3.3133   -3.4660    0.0000 C    0  0  0  0  0  0  0  0  0  0  0  0
    3.9947   -2.3028    0.0000 C    0  0  0  0  0  0  0  0  0  0  0  0
    1.9856   -3.4660    0.0000 Br   0  0  0  0  0  0  0  0  0  0  0  0
    5.9803   -5.7571    0.0000 Br   0  0  0  0  0  0  0  0  0  0  0  0
    3.3133   -5.7571    0.0000 O    0  0  0  0  0  0  0  0  0  0  0  0
    1.9856   -5.7571    0.0000 C    0  0  0  0  0  0  0  0  0  0  0  0
    1.3277   -6.9085    0.0000 C    0  0  0  0  0  0  0  0  0  0  0  0
    0.0000   -6.9085    0.0000 C    0  0  0  0  0  0  0  0  0  0  0  0
    5.9803   -1.1514    0.0000 C    0  0  0  0  0  0  0  0  0  0  0  0
    6.6500    0.0000    0.0000 C    0  0  0  0  0  0  0  0  0  0  0  0
    4.8406   -0.4817    0.0000 C    0  0  0  0  0  0  0  0  0  0  0  0
  1  2  2  0  0  0  0
  1  6  1  0  0  0  0
  1 25  1  0  0  0  0
  2  3  1  0  0  0  0
  3  4  2  0  0  0  0
  3  8  1  0  0  0  0
  4  5  1  0  0  0  0
  4  9  1  0  0  0  0
  5  6  2  0  0  0  0
  5  7  1  0  0  0  0
  9 10  1  0  0  0  0
 10 11  1  0  0  0  0
 11 12  2  0  0  0  0
 13 14  2  0  0  0  0
 13 18  1  0  0  0  0
 13 25  1  0  0  0  0
 14 15  1  0  0  0  0
 15 16  2  0  0  0  0
 15 20  1  0  0  0  0
 16 17  1  0  0  0  0
 16 21  1  0  0  0  0
 17 18  2  0  0  0  0
 17 19  1  0  0  0  0
 21 22  1  0  0  0  0
 22 23  1  0  0  0  0
 23 24  2  0  0  0  0
 25 26  1  0  0  0  0
 25 27  1  0  0  0  0
M  END
> <ID>
5951

> <Formula>
C21H20Br4O2

> <FW>
623.9983

> <DSSTox_CID>
9327

> <DSSTox_RID>
78764

> <DSSTox_GSID>
29327

> <DSSTox_FileID_Sort>
3446

> <TS_ChemName>
Benzene, 1,1'-(1-methylethylidene)bis[3,5-dibromo-4-(2-propenyloxy)-

> <TS_ChemName_Synonyms>


> <TS_CASRN>
25327-89-3

> <CASRN_ChemName_Relationship>
primary

> <TS_Description>
single chemical compound

> <ChemNote>


> <STRUCTURE_Shown>
tested chemical

> <STRUCTURE_Formula>
C21H20Br4O2

> <STRUCTURE_MW>
623.9983

> <STRUCTURE_ChemType>
defined organic

> <STRUCTURE_DefinedOrganicForm>
parent

> <STRUCTURE_IUPAC>
1,1'-propane-2,2-diylbis[3,5-dibromo-4-(prop-2-en-1-yloxy)benzene]

> <STRUCTURE_SMILES>
Brc1cc(cc(Br)c1OCC=C)C(C)(C)c2cc(Br)c(OCC=C)c(Br)c2

> <STRUCTURE_SMILES_Desalt>
Brc1cc(cc(Br)c1OCC=C)C(C)(C)c2cc(Br)c(OCC=C)c(Br)c2

> <Substance_modify_yyyymmdd>
20080429

$$$$
