25332-39-2
ChemmineR-0915142007XD

 27 29  0  0  0  0  0  0  0  0  1 V2000
    4.3388   -1.3191    0.0000 N    0  0  0  0  0  0  0  0  0  0  0  0
    5.4991   -0.6675    0.0000 C    0  0  0  0  0  0  0  0  0  0  0  0
    6.6751   -1.3191    0.0000 C    0  0  0  0  0  0  0  0  0  0  0  0
    7.8195   -0.6675    0.0000 C    0  0  0  0  0  0  0  0  0  0  0  0
    8.9638   -1.3191    0.0000 N    0  0  0  0  0  0  0  0  0  0  0  0
    8.9638   -2.6542    0.0000 C    0  0  0  0  0  0  0  0  0  0  0  0
   10.1399   -0.6675    0.0000 C    0  0  0  0  0  0  0  0  0  0  0  0
   10.1399   -3.3376    0.0000 C    0  0  0  0  0  0  0  0  0  0  0  0
   11.2524   -1.3191    0.0000 C    0  0  0  0  0  0  0  0  0  0  0  0
   11.2524   -2.6542    0.0000 N    0  0  0  0  0  0  0  0  0  0  0  0
   12.4444   -3.3376    0.0000 C    0  0  0  0  0  0  0  0  0  0  0  0
   12.4444   -4.6726    0.0000 C    0  0  0  0  0  0  0  0  0  0  0  0
   13.5728   -2.6542    0.0000 C    0  0  0  0  0  0  0  0  0  0  0  0
   13.5728   -5.3242    0.0000 C    0  0  0  0  0  0  0  0  0  0  0  0
   14.7489   -3.3376    0.0000 C    0  0  0  0  0  0  0  0  0  0  0  0
   14.7489   -4.6726    0.0000 C    0  0  0  0  0  0  0  0  0  0  0  0
    3.5601   -0.2543    0.0000 N    0  0  0  0  0  0  0  0  0  0  0  0
    3.5601   -2.4158    0.0000 C    0  0  0  0  0  0  0  0  0  0  0  0
    2.2886   -0.6675    0.0000 C    0  0  0  0  0  0  0  0  0  0  0  0
    2.2886   -2.0025    0.0000 N    0  0  0  0  0  0  0  0  0  0  0  0
    1.1284    0.0000    0.0000 C    0  0  0  0  0  0  0  0  0  0  0  0
    0.0000   -0.6675    0.0000 C    0  0  0  0  0  0  0  0  0  0  0  0
    1.1284   -2.6542    0.0000 C    0  0  0  0  0  0  0  0  0  0  0  0
    0.0000   -2.0025    0.0000 C    0  0  0  0  0  0  0  0  0  0  0  0
    3.9892   -3.6554    0.0000 O    0  0  0  0  0  0  0  0  0  0  0  0
   15.8932   -2.6860    0.0000 Cl   0  0  0  0  0  0  0  0  0  0  0  0
    7.1678   -2.7177    0.0000 Cl   0  0  0  0  0  0  0  0  0  0  0  0
  1  2  1  0  0  0  0
  1 17  1  0  0  0  0
  1 18  1  0  0  0  0
  2  3  1  0  0  0  0
  3  4  1  0  0  0  0
  4  5  1  0  0  0  0
  5  6  1  0  0  0  0
  5  7  1  0  0  0  0
  6  8  1  0  0  0  0
  7  9  1  0  0  0  0
  8 10  1  0  0  0  0
  9 10  1  0  0  0  0
 10 11  1  0  0  0  0
 11 12  1  0  0  0  0
 11 13  2  0  0  0  0
 12 14  2  0  0  0  0
 13 15  1  0  0  0  0
 14 16  1  0  0  0  0
 15 16  2  0  0  0  0
 15 26  1  0  0  0  0
 17 19  2  0  0  0  0
 18 20  1  0  0  0  0
 18 25  2  0  0  0  0
 19 21  1  0  0  0  0
 19 20  1  0  0  0  0
 20 23  1  0  0  0  0
 21 22  2  0  0  0  0
 22 24  1  0  0  0  0
 23 24  2  0  0  0  0
M  END
> <ID>
10280

> <Formula>
C19H23Cl2N5O

> <FW>
408.3248 (371.8639+36.4609)

> <DSSTox_CID>
24626

> <DSSTox_RID>
80361

> <DSSTox_GSID>
44626

> <DSSTox_FileID_Sort>
5043

> <TS_ChemName>
Trazodone hydrochloride

> <TS_ChemName_Synonyms>
1,2,4-Triazolo[4,3-a]pyridin-3(2H)-one, 2-[3-[4-(3-chlorophenyl)-1-piperazinyl]propyl]-, monohydrochloride

> <TS_CASRN>
25332-39-2

> <CASRN_ChemName_Relationship>
primary

> <TS_Description>
single chemical compound

> <ChemNote>
parent [19794-93-5]

> <STRUCTURE_Shown>
tested chemical

> <STRUCTURE_Formula>
C19H23Cl2N5O

> <STRUCTURE_MW>
408.3248

> <STRUCTURE_ChemType>
defined organic

> <STRUCTURE_DefinedOrganicForm>
complex

> <STRUCTURE_IUPAC>
2-{3-[4-(3-chlorophenyl)piperazin-1-yl]propyl}[1,2,4]triazolo[4,3-a]pyridin-3(2H)-one hydrochloride (1:1)

> <STRUCTURE_SMILES>
Cl.Clc1cccc(c1)N2CCN(CC2)CCCN3N=C4C=CC=CN4C3=O

> <STRUCTURE_SMILES_Desalt>
Clc1cccc(c1)N2CCN(CC2)CCCN3N=C4C=CC=CN4C3=O

> <Substance_modify_yyyymmdd>
20091116

$$$$
