25339-09-7
ChemmineR-0915142007XD

 36 35  0  0  0  0  0  0  0  0  1 V2000
   19.6392   -1.8304    0.0000 C   0  0  0  0  0  0  0  0  0  0  0  0
   18.4951   -1.1440    0.0000 C   0  0  0  0  0  0  0  0  0  0  0  0
   17.3511   -1.7923    0.0000 C   0  0  0  0  0  0  0  0  0  0  0  0
   16.1689   -1.1440    0.0000 C   0  0  0  0  0  0  0  0  0  0  0  0
   15.0249   -1.7923    0.0000 C   0  0  0  0  0  0  0  0  0  0  0  0
   13.8809   -1.1059    0.0000 C   0  0  0  0  0  0  0  0  0  0  0  0
   12.6987   -1.7542    0.0000 C   0  0  0  0  0  0  0  0  0  0  0  0
   11.5547   -1.1059    0.0000 C   0  0  0  0  0  0  0  0  0  0  0  0
   10.4107   -1.7542    0.0000 C   0  0  0  0  0  0  0  0  0  0  0  0
    9.2285   -1.0678    0.0000 C   0  0  0  0  0  0  0  0  0  0  0  0
    8.0845   -1.7160    0.0000 C   0  0  0  0  0  0  0  0  0  0  0  0
    6.9404   -1.0296    0.0000 C   0  0  0  0  0  0  0  0  0  0  0  0
    5.7583   -1.7160    0.0000 C   0  0  0  0  0  0  0  0  0  0  0  0
    4.6142   -1.0296    0.0000 C   0  0  0  0  0  0  0  0  0  0  0  0
    3.4702   -1.6779    0.0000 C   0  0  0  0  0  0  0  0  0  0  0  0
    2.3262   -1.0296    0.0000 C   0  0  0  0  0  0  0  0  0  0  0  0
    1.1440   -1.6398    0.0000 C   0  0  0  0  0  0  0  0  0  0  0  0
    0.0000   -0.9915    0.0000 C   0  0  0  0  0  0  0  0  0  0  0  0
   19.6392   -3.1651    0.0000 O   0  0  0  0  0  0  0  0  0  0  0  0
   20.7832   -1.1822    0.0000 O   0  0  0  0  0  0  0  0  0  0  0  0
   21.9653   -1.8686    0.0000 C   0  0  0  0  0  0  0  0  0  0  0  0
   23.1094   -1.2203    0.0000 C   0  0  0  0  0  0  0  0  0  0  0  0
   24.2534   -1.8686    0.0000 C   0  0  0  0  0  0  0  0  0  0  0  0
   25.4356   -1.2203    0.0000 C   0  0  0  0  0  0  0  0  0  0  0  0
   26.5796   -1.9067    0.0000 C   0  0  0  0  0  0  0  0  0  0  0  0
   27.7236   -1.2584    0.0000 C   0  0  0  0  0  0  0  0  0  0  0  0
   28.9058   -1.9067    0.0000 C   0  0  0  0  0  0  0  0  0  0  0  0
   30.0498   -1.2584    0.0000 C   0  0  0  0  0  0  0  0  0  0  0  0
   31.1938   -1.9448    0.0000 C   0  0  0  0  0  0  0  0  0  0  0  0
   32.3760   -1.2966    0.0000 C   0  0  0  0  0  0  0  0  0  0  0  0
   33.5200   -1.9448    0.0000 C   0  0  0  0  0  0  0  0  0  0  0  0
   34.6641   -1.3347    0.0000 C   0  0  0  0  0  0  0  0  0  0  0  0
   35.8081   -1.9830    0.0000 C   0  0  0  0  0  0  0  0  0  0  0  0
   36.9903   -1.3347    0.0000 C   0  0  0  0  0  0  0  0  0  0  0  0
   36.9903    0.0000    0.0000 C   0  0  0  0  0  0  0  0  0  0  0  0
   38.1343   -2.0211    0.0000 C   0  0  0  0  0  0  0  0  0  0  0  0
  1  2  1  0  0  0  0
  1 19  2  0  0  0  0
  1 20  1  0  0  0  0
  2  3  1  0  0  0  0
  3  4  1  0  0  0  0
  4  5  1  0  0  0  0
  5  6  1  0  0  0  0
  6  7  1  0  0  0  0
  7  8  1  0  0  0  0
  8  9  1  0  0  0  0
  9 10  1  0  0  0  0
 10 11  1  0  0  0  0
 11 12  1  0  0  0  0
 12 13  1  0  0  0  0
 13 14  1  0  0  0  0
 14 15  1  0  0  0  0
 15 16  1  0  0  0  0
 16 17  1  0  0  0  0
 17 18  1  0  0  0  0
 20 21  1  0  0  0  0
 21 22  1  0  0  0  0
 22 23  1  0  0  0  0
 23 24  1  0  0  0  0
 24 25  1  0  0  0  0
 25 26  1  0  0  0  0
 26 27  1  0  0  0  0
 27 28  1  0  0  0  0
 28 29  1  0  0  0  0
 29 30  1  0  0  0  0
 30 31  1  0  0  0  0
 31 32  1  0  0  0  0
 32 33  1  0  0  0  0
 33 34  1  0  0  0  0
 34 35  1  0  0  0  0
 34 36  1  0  0  0  0
M  END
> <ID>
12326

> <Formula>
C34H68O2

> <FW>
508.9025

> <DSSTox_CID>
27179

> <DSSTox_RID>
82176

> <DSSTox_GSID>
47179

> <DSSTox_FileID_Sort>
6857

> <TS_ChemName>
Isocetyl stearate

> <TS_ChemName_Synonyms>


> <TS_CASRN>
25339-09-7

> <CASRN_ChemName_Relationship>
primary

> <TS_Description>
mixture or formulation

> <ChemNote>
mixture of isocetyl isomers; structures shown 14-methylpentadecyl

> <STRUCTURE_Shown>
representative isomer in mixture

> <STRUCTURE_Formula>
C34H68O2

> <STRUCTURE_MW>
508.9025

> <STRUCTURE_ChemType>
defined organic

> <STRUCTURE_DefinedOrganicForm>
parent

> <STRUCTURE_IUPAC>
14-methylpentadecyl octadecanoate

> <STRUCTURE_SMILES>
CCCCCCCCCCCCCCCCCC(=O)OCCCCCCCCCCCCCC(C)C

> <STRUCTURE_SMILES_Desalt>
CCCCCCCCCCCCCCCCCC(=O)OCCCCCCCCCCCCCC(C)C

> <Substance_modify_yyyymmdd>
20100503

$$$$
