253450-09-8
ChemmineR-0915142007XD

 28 31  0  0  0  0  0  0  0  0  1 V2000
   14.9880   -1.9837    0.0000 C   0  0  0  0  0  0  0  0  0  0  0  0
   14.9880   -3.3062    0.0000 C   0  0  0  0  0  0  0  0  0  0  0  0
   13.8492   -1.3225    0.0000 C   0  0  0  0  0  0  0  0  0  0  0  0
   16.2554   -1.5796    0.0000 O   0  0  0  0  0  0  0  0  0  0  0  0
   13.8492   -3.9858    0.0000 C   0  0  0  0  0  0  0  0  0  0  0  0
   16.2554   -3.7286    0.0000 N   0  0  0  0  0  0  0  0  0  0  0  0
   12.6921   -1.9837    0.0000 C   0  0  0  0  0  0  0  0  0  0  0  0
   17.0452   -2.6633    0.0000 C   0  0  0  0  0  0  0  0  0  0  0  0
   12.6921   -3.3062    0.0000 C   0  0  0  0  0  0  0  0  0  0  0  0
   11.5349   -1.3225    0.0000 S   0  0  0  0  0  0  0  0  0  0  0  0
   18.3677   -2.6633    0.0000 O   0  0  0  0  0  0  0  0  0  0  0  0
   10.3777   -1.9837    0.0000 C   0  0  0  0  0  0  0  0  0  0  0  0
   11.5349    0.0000    0.0000 O   0  0  0  0  0  0  0  0  0  0  0  0
    9.2206   -1.3225    0.0000 C   0  0  0  0  0  0  0  0  0  0  0  0
    8.0634   -1.9837    0.0000 N   0  0  0  0  0  0  0  0  0  0  0  0
    8.0634   -3.3062    0.0000 C   0  0  0  0  0  0  0  0  0  0  0  0
    6.9062   -1.3225    0.0000 C   0  0  0  0  0  0  0  0  0  0  0  0
    6.9062   -3.9858    0.0000 C   0  0  0  0  0  0  0  0  0  0  0  0
    5.7674   -1.9837    0.0000 C   0  0  0  0  0  0  0  0  0  0  0  0
    5.7674   -3.3062    0.0000 C   0  0  0  0  0  0  0  0  0  0  0  0
    4.6287   -3.9858    0.0000 C   0  0  0  0  0  0  0  0  0  0  0  0
    3.4715   -3.3062    0.0000 C   0  0  0  0  0  0  0  0  0  0  0  0
    2.3143   -3.9858    0.0000 C   0  0  0  0  0  0  0  0  0  0  0  0
    3.4715   -1.9837    0.0000 C   0  0  0  0  0  0  0  0  0  0  0  0
    1.1572   -3.3062    0.0000 C   0  0  0  0  0  0  0  0  0  0  0  0
    2.3143   -1.3225    0.0000 C   0  0  0  0  0  0  0  0  0  0  0  0
    1.1572   -1.9837    0.0000 C   0  0  0  0  0  0  0  0  0  0  0  0
    0.0000   -1.3225    0.0000 F   0  0  0  0  0  0  0  0  0  0  0  0
  1  2  1  0  0  0  0
  1  3  2  0  0  0  0
  1  4  1  0  0  0  0
  2  5  2  0  0  0  0
  2  6  1  0  0  0  0
  3  7  1  0  0  0  0
  4  8  1  0  0  0  0
  5  9  1  0  0  0  0
  6  8  1  0  0  0  0
  7 10  1  0  0  0  0
  7  9  2  0  0  0  0
  8 11  2  0  0  0  0
 10 12  1  0  0  0  0
 10 13  2  0  0  0  0
 12 14  1  0  0  0  0
 14 15  1  0  0  0  0
 15 16  1  0  0  0  0
 15 17  1  0  0  0  0
 16 18  1  0  0  0  0
 17 19  1  0  0  0  0
 18 20  1  0  0  0  0
 19 20  1  0  0  0  0
 20 21  1  0  0  0  0
 21 22  1  0  0  0  0
 22 23  1  0  0  0  0
 22 24  2  0  0  0  0
 23 25  2  0  0  0  0
 24 26  1  0  0  0  0
 25 27  1  0  0  0  0
 26 27  2  0  0  0  0
 27 28  1  0  0  0  0
M  END
> <ID>
12412

> <Formula>
C21H23FN2O3S

> <FW>
402.4823

> <DSSTox_CID>
27270

> <DSSTox_RID>
82226

> <DSSTox_GSID>
47270

> <DSSTox_FileID_Sort>
6907

> <TS_ChemName>
Besonprodil

> <TS_ChemName_Synonyms>
CI-1041; PD 0196860; Co 200461

> <TS_CASRN>
253450-09-8

> <CASRN_ChemName_Relationship>
primary

> <TS_Description>
single chemical compound

> <ChemNote>
tautomers

> <STRUCTURE_Shown>
tested chemical

> <STRUCTURE_Formula>
C21H23FN2O3S

> <STRUCTURE_MW>
402.4823

> <STRUCTURE_ChemType>
defined organic

> <STRUCTURE_DefinedOrganicForm>
parent

> <STRUCTURE_IUPAC>
6-({2-[4-(4-fluorobenzyl)piperidin-1-yl]ethyl}sulfinyl)-1,3-benzoxazol-2(3H)-one

> <STRUCTURE_SMILES>
Fc1ccc(cc1)CC2CCN(CC2)CCS(=O)c3ccc4NC(=O)Oc4c3

> <STRUCTURE_SMILES_Desalt>
Fc1ccc(cc1)CC2CCN(CC2)CCS(=O)c3ccc4NC(=O)Oc4c3

> <Substance_modify_yyyymmdd>
20131114

$$$$
