25340-17-4
ChemmineR-0915142007XD

 10 10  0  0  0  0  0  0  0  0  1 V2000
    1.1507   -2.0032    0.0000 C   0  0  0  0  0  0  0  0  0  0  0  0
    0.0000   -2.6555    0.0000 C   0  0  0  0  0  0  0  0  0  0  0  0
    0.0000   -3.9879    0.0000 C   0  0  0  0  0  0  0  0  0  0  0  0
    1.1507   -4.6587    0.0000 C   0  0  0  0  0  0  0  0  0  0  0  0
    2.3061   -3.9879    0.0000 C   0  0  0  0  0  0  0  0  0  0  0  0
    2.3061   -2.6555    0.0000 C   0  0  0  0  0  0  0  0  0  0  0  0
    1.1507   -0.6709    0.0000 C   0  0  0  0  0  0  0  0  0  0  0  0
    2.3061    0.0000    0.0000 C   0  0  0  0  0  0  0  0  0  0  0  0
    3.4568   -2.0032    0.0000 C   0  0  0  0  0  0  0  0  0  0  0  0
    4.6121   -2.6555    0.0000 C   0  0  0  0  0  0  0  0  0  0  0  0
  1  2  2  0  0  0  0
  1  6  1  0  0  0  0
  1  7  1  0  0  0  0
  2  3  1  0  0  0  0
  3  4  2  0  0  0  0
  4  5  1  0  0  0  0
  5  6  2  0  0  0  0
  6  9  1  0  0  0  0
  7  8  1  0  0  0  0
  9 10  1  0  0  0  0
M  END
> <ID>
5457

> <Formula>
C10H14

> <FW>
134.2182

> <DSSTox_CID>
7866

> <DSSTox_RID>
78595

> <DSSTox_GSID>
27866

> <DSSTox_FileID_Sort>
3278

> <TS_ChemName>
Diethylbenzene

> <TS_ChemName_Synonyms>


> <TS_CASRN>
25340-17-4

> <CASRN_ChemName_Relationship>
primary

> <TS_Description>
mixture or formulation

> <ChemNote>
mixture of o- [135-01-3]; m- [141-93-5] and p-[105-05-5] isomers; structure shown o-

> <STRUCTURE_Shown>
representative isomer in mixture

> <STRUCTURE_Formula>
C10H14

> <STRUCTURE_MW>
134.2182

> <STRUCTURE_ChemType>
defined organic

> <STRUCTURE_DefinedOrganicForm>
parent

> <STRUCTURE_IUPAC>
1,2-diethylbenzene

> <STRUCTURE_SMILES>
CCc1ccccc1CC

> <STRUCTURE_SMILES_Desalt>
CCc1ccccc1CC

> <Substance_modify_yyyymmdd>
20080429

$$$$
