25354-97-6
ChemmineR-0915142007XD

 18 17  0  0  0  0  0  0  0  0  1 V2000
    1.1417   -2.6533    0.0000 C   0  0  0  0  0  0  0  0  0  0  0  0
    2.2995   -1.9779    0.0000 C   0  0  0  0  0  0  0  0  0  0  0  0
    0.0000   -1.9779    0.0000 C   0  0  0  0  0  0  0  0  0  0  0  0
    3.4412   -2.6533    0.0000 C   0  0  0  0  0  0  0  0  0  0  0  0
    4.5990   -1.9779    0.0000 C   0  0  0  0  0  0  0  0  0  0  0  0
    5.7408   -2.6533    0.0000 C   0  0  0  0  0  0  0  0  0  0  0  0
    6.8825   -1.9779    0.0000 C   0  0  0  0  0  0  0  0  0  0  0  0
    8.0403   -2.6533    0.0000 C   0  0  0  0  0  0  0  0  0  0  0  0
    9.1820   -1.9779    0.0000 C   0  0  0  0  0  0  0  0  0  0  0  0
   10.3237   -2.6533    0.0000 C   0  0  0  0  0  0  0  0  0  0  0  0
   11.4815   -1.9779    0.0000 C   0  0  0  0  0  0  0  0  0  0  0  0
   12.6393   -2.6533    0.0000 C   0  0  0  0  0  0  0  0  0  0  0  0
    9.1820   -0.6593    0.0000 C   0  0  0  0  0  0  0  0  0  0  0  0
   10.3237    0.0000    0.0000 O   0  0  0  0  0  0  0  0  0  0  0  0
    8.0403    0.0000    0.0000 O   0  0  0  0  0  0  0  0  0  0  0  0
   13.7811   -1.9779    0.0000 C   0  0  0  0  0  0  0  0  0  0  0  0
   14.9228   -2.6533    0.0000 C   0  0  0  0  0  0  0  0  0  0  0  0
   16.0806   -1.9779    0.0000 C   0  0  0  0  0  0  0  0  0  0  0  0
  1  2  1  0  0  0  0
  1  3  1  0  0  0  0
  2  4  1  0  0  0  0
  4  5  1  0  0  0  0
  5  6  1  0  0  0  0
  6  7  1  0  0  0  0
  7  8  1  0  0  0  0
  8  9  1  0  0  0  0
  9 10  1  0  0  0  0
  9 13  1  0  0  0  0
 10 11  1  0  0  0  0
 11 12  1  0  0  0  0
 12 16  1  0  0  0  0
 13 14  2  0  0  0  0
 13 15  1  0  0  0  0
 16 17  1  0  0  0  0
 17 18  1  0  0  0  0
M  END
> <ID>
10540

> <Formula>
C16H32O2

> <FW>
256.4241

> <DSSTox_CID>
24893

> <DSSTox_RID>
80564

> <DSSTox_GSID>
44893

> <DSSTox_FileID_Sort>
5246

> <TS_ChemName>
2-Hexyldecanoic acid

> <TS_ChemName_Synonyms>


> <TS_CASRN>
25354-97-6

> <CASRN_ChemName_Relationship>
primary

> <TS_Description>
single chemical compound

> <ChemNote>


> <STRUCTURE_Shown>
tested chemical

> <STRUCTURE_Formula>
C16H32O2

> <STRUCTURE_MW>
256.4241

> <STRUCTURE_ChemType>
defined organic

> <STRUCTURE_DefinedOrganicForm>
parent

> <STRUCTURE_IUPAC>
2-hexyldecanoic acid

> <STRUCTURE_SMILES>
O=C(O)C(CCCCCCCC)CCCCCC

> <STRUCTURE_SMILES_Desalt>
O=C(O)C(CCCCCCCC)CCCCCC

> <Substance_modify_yyyymmdd>
20091116

$$$$
