25389-94-0
ChemmineR-0915142007XD

 38 39  0  0  1  0  0  0  0  0  1 V2000
   11.9757   -2.3020    0.0000 O   0  0  0  0  0  0  0  0  0  0  0  0
   11.3237   -3.4597    0.0000 C   0  0  0  0  0  0  0  0  0  0  0  0
   11.9757   -4.5907    0.0000 C   0  0  0  0  0  0  0  0  0  0  0  0
   13.3064   -4.5907    0.0000 O   0  0  0  0  0  0  0  0  0  0  0  0
   11.3237   -5.7484    0.0000 C   0  0  0  0  0  0  0  0  0  0  0  0
   11.9757   -6.9060    0.0000 O   0  0  0  0  0  0  0  0  0  0  0  0
    9.9931   -5.7484    0.0000 C   0  0  0  0  0  0  0  0  0  0  0  0
    9.3145   -6.9060    0.0000 C   0  0  0  0  0  0  0  0  0  0  0  0
    9.9931   -8.0637    0.0000 N   0  0  0  0  0  0  0  0  0  0  0  0
    9.3145   -4.5907    0.0000 O   0  0  0  0  0  0  0  0  0  0  0  0
    9.9931   -3.4597    0.0000 C   0  0  0  0  0  0  0  0  0  0  0  0
    9.3145   -2.3020    0.0000 O   0  0  0  0  0  0  0  0  0  0  0  0
    7.9838   -2.3020    0.0000 C   0  0  0  0  0  0  0  0  0  0  0  0
    7.3318   -3.4597    0.0000 C   0  0  0  0  0  0  0  0  0  0  0  0
    7.9838   -4.5907    0.0000 O   0  0  0  0  0  0  0  0  0  0  0  0
    6.0012   -3.4597    0.0000 C   0  0  0  0  0  0  0  0  0  0  0  0
    5.3226   -4.5907    0.0000 O   0  0  0  0  0  0  0  0  0  0  0  0
    3.9919   -4.5907    0.0000 C   0  0  0  0  0  0  0  0  0  0  0  0
    3.3399   -3.4597    0.0000 O   0  0  0  0  0  0  0  0  0  0  0  0
    2.0093   -3.4597    0.0000 C   0  0  0  0  0  0  0  0  0  0  0  0
    1.3306   -2.3020    0.0000 C   0  0  0  0  0  0  0  0  0  0  0  0
    0.0000   -2.3020    0.0000 O   0  0  0  0  0  0  0  0  0  0  0  0
    1.3306   -4.5907    0.0000 C   0  0  0  0  0  0  0  0  0  0  0  0
    0.0000   -4.5907    0.0000 O   0  0  0  0  0  0  0  0  0  0  0  0
    2.0093   -5.7484    0.0000 C   0  0  0  0  0  0  0  0  0  0  0  0
    1.3306   -6.9060    0.0000 N   0  0  0  0  0  0  0  0  0  0  0  0
    3.3399   -5.7484    0.0000 C   0  0  0  0  0  0  0  0  0  0  0  0
    3.9919   -6.9060    0.0000 O   0  0  0  0  0  0  0  0  0  0  0  0
    5.3226   -2.3020    0.0000 C   0  0  0  0  0  0  0  0  0  0  0  0
    3.9919   -2.3020    0.0000 N   0  0  0  0  0  0  0  0  0  0  0  0
    6.0012   -1.1310    0.0000 C   0  0  0  0  0  0  0  0  0  0  0  0
    7.3318   -1.1310    0.0000 C   0  0  0  0  0  0  0  0  0  0  0  0
    7.9838    0.0000    0.0000 N   0  0  0  0  0  0  0  0  0  0  0  0
    6.8661   -8.7157    0.0000 S   0  0  0  0  0  0  0  0  0  0  0  0
    8.1967   -8.7157    0.0000 O   0  0  0  0  0  0  0  0  0  0  0  0
    5.5355   -8.7157    0.0000 O   0  0  0  0  0  0  0  0  0  0  0  0
    6.8661  -10.0463    0.0000 O   0  0  0  0  0  0  0  0  0  0  0  0
    6.8661   -7.3850    0.0000 O   0  0  0  0  0  0  0  0  0  0  0  0
  2  1  1  6  0  0  0
  2  3  1  0  0  0  0
  2 11  1  0  0  0  0
  3  4  1  1  0  0  0
  3  5  1  0  0  0  0
  5  6  1  6  0  0  0
  5  7  1  0  0  0  0
  7  8  1  1  0  0  0
  7 10  1  0  0  0  0
  8  9  1  0  0  0  0
 10 11  1  0  0  0  0
 11 12  1  6  0  0  0
 13 12  1  1  0  0  0
 13 14  1  0  0  0  0
 13 32  1  0  0  0  0
 14 15  1  6  0  0  0
 14 16  1  0  0  0  0
 16 17  1  1  0  0  0
 16 29  1  0  0  0  0
 18 17  1  6  0  0  0
 18 19  1  0  0  0  0
 18 27  1  0  0  0  0
 19 20  1  0  0  0  0
 20 21  1  1  0  0  0
 20 23  1  0  0  0  0
 21 22  1  0  0  0  0
 23 24  1  6  0  0  0
 23 25  1  0  0  0  0
 25 26  1  1  0  0  0
 25 27  1  0  0  0  0
 27 28  1  6  0  0  0
 29 30  1  6  0  0  0
 29 31  1  0  0  0  0
 31 32  1  0  0  0  0
 32 33  1  6  0  0  0
 34 35  2  0  0  0  0
 34 36  2  0  0  0  0
 34 37  1  0  0  0  0
 34 38  1  0  0  0  0
M  END
> <ID>
12649

> <Formula>
C18H38N4O15S

> <FW>
582.5771 (484.4986+98.0785)

> <DSSTox_CID>
27524

> <DSSTox_RID>
82394

> <DSSTox_GSID>
47524

> <DSSTox_FileID_Sort>
7075

> <TS_ChemName>
Kanamycin A sulfate

> <TS_ChemName_Synonyms>
Kanamycin sulfate

> <TS_CASRN>
25389-94-0

> <CASRN_ChemName_Relationship>
primary

> <TS_Description>
single chemical compound

> <ChemNote>
stereochem; parent [8063-07-8]

> <STRUCTURE_Shown>
tested chemical

> <STRUCTURE_Formula>
C18H38N4O15S

> <STRUCTURE_MW>
582.5771

> <STRUCTURE_ChemType>
defined organic

> <STRUCTURE_DefinedOrganicForm>
complex

> <STRUCTURE_IUPAC>
(1S,2R,3R,4S,6R)-4,6-diamino-3-[(6-amino-6-deoxy-alpha-D-glucopyranosyl)oxy]-2-hydroxycyclohexyl 3-amino-3-deoxy-alpha-D-glucopyranoside sulfate (1:1)

> <STRUCTURE_SMILES>
O=S(=O)(O)O.O[C@@H]3[C@@H](O)[C@H](O)[C@@H](CN)O[C@@H]3O[C@H]2[C@H](O)[C@@H](O[C@H]1O[C@H](CO)[C@@H](O)[C@H](N)[C@H]1O)[C@H](N)C[C@@H]2N

> <STRUCTURE_SMILES_Desalt>
O[C@@H]3[C@@H](O)[C@H](O)[C@@H](CN)O[C@@H]3O[C@H]2[C@H](O)[C@@H](O[C@H]1O[C@H](CO)[C@@H](O)[C@H](N)[C@H]1O)[C@H](N)C[C@@H]2N

> <Substance_modify_yyyymmdd>
20100831

$$$$
