25439-20-7
ChemmineR-0915142007XD

 16 16  0  0  0  0  0  0  0  0  1 V2000
    8.0602   -2.6971    0.0000 C   0  0  0  0  0  0  0  0  0  0  0  0
    8.0602   -3.9938    0.0000 O   0  0  0  0  0  0  0  0  0  0  0  0
    6.9191   -2.0228    0.0000 C   0  0  0  0  0  0  0  0  0  0  0  0
    9.2013   -2.0228    0.0000 N   0  0  0  0  0  0  0  0  0  0  0  0
   10.3735   -2.6971    0.0000 C   0  0  0  0  0  0  0  0  0  0  0  0
    9.2013   -0.6743    0.0000 C   0  0  0  0  0  0  0  0  0  0  0  0
    5.7469   -2.6971    0.0000 N   0  0  0  0  0  0  0  0  0  0  0  0
    4.5955   -2.0228    0.0000 C   0  0  0  0  0  0  0  0  0  0  0  0
    4.5955   -0.6743    0.0000 O   0  0  0  0  0  0  0  0  0  0  0  0
    3.4544   -2.6971    0.0000 C   0  0  0  0  0  0  0  0  0  0  0  0
    1.2033    0.0000    0.0000 C   0  0  0  0  0  0  0  0  0  0  0  0
    0.0311   -0.6120    0.0000 C   0  0  0  0  0  0  0  0  0  0  0  0
    0.0000   -1.9295    0.0000 C   0  0  0  0  0  0  0  0  0  0  0  0
    1.1411   -2.6141    0.0000 C   0  0  0  0  0  0  0  0  0  0  0  0
    2.3133   -1.9917    0.0000 C   0  0  0  0  0  0  0  0  0  0  0  0
    2.3133   -0.6432    0.0000 C   0  0  0  0  0  0  0  0  0  0  0  0
  1  2  2  0  0  0  0
  1  4  1  0  0  0  0
  1  3  1  0  0  0  0
  3  7  1  0  0  0  0
  4  5  1  0  0  0  0
  4  6  1  0  0  0  0
  7  8  1  0  0  0  0
  8  9  2  0  0  0  0
  8 10  1  0  0  0  0
 10 15  1  0  0  0  0
 11 16  2  0  0  0  0
 11 12  1  0  0  0  0
 12 13  2  0  0  0  0
 13 14  1  0  0  0  0
 14 15  2  0  0  0  0
 15 16  1  0  0  0  0
M  END
> <ID>
13840

> <Formula>
C12H16N2O2

> <FW>
220.2676

> <DSSTox_CID>
28777

> <DSSTox_RID>
83046

> <DSSTox_GSID>
48851

> <DSSTox_FileID_Sort>
7723

> <TS_ChemName>
N,N-Dimethyl-2-(2-phenylacetamido)acetamide

> <TS_ChemName_Synonyms>
Acetamide, N,N-dimethyl-2-(2-phenylacetamido)-

> <TS_CASRN>
25439-20-7

> <CASRN_ChemName_Relationship>
primary

> <TS_Description>
single chemical compound

> <ChemNote>


> <STRUCTURE_Shown>
tested chemical

> <STRUCTURE_Formula>
C12H16N2O2

> <STRUCTURE_MW>
220.2676

> <STRUCTURE_ChemType>
defined organic

> <STRUCTURE_DefinedOrganicForm>
parent

> <STRUCTURE_IUPAC>
N,N-dimethyl-N~2~-(phenylacetyl)glycinamide

> <STRUCTURE_SMILES>
O=C(Cc1ccccc1)NCC(=O)N(C)C

> <STRUCTURE_SMILES_Desalt>
O=C(Cc1ccccc1)NCC(=O)N(C)C

> <Substance_modify_yyyymmdd>
20111204

$$$$
