25447-66-9
ChemmineR-0915142007XD

 45 51  0  0  1  0  0  0  0  0  1 V2000
    9.3463   -3.3739    0.0000 N   0  0  0  0  0  0  0  0  0  0  0  0
    8.5572   -4.3943    0.0000 C   0  0  0  0  0  0  0  0  0  0  0  0
    7.3056   -2.2992    0.0000 C   0  0  0  0  0  0  0  0  0  0  0  0
    8.6661   -2.2175    0.0000 C   0  0  0  0  0  0  0  0  0  0  0  0
    7.4825   -3.5780    0.0000 O   0  0  0  0  0  0  0  0  0  0  0  0
   10.6795   -3.4147    0.0000 C   0  0  0  0  0  0  0  0  0  0  0  0
   11.2509   -4.5983    0.0000 C   0  0  0  0  0  0  0  0  0  0  0  0
   10.5163   -5.6731    0.0000 N   0  0  0  0  0  0  0  0  0  0  0  0
    6.0268   -2.2175    0.0000 N   0  0  0  0  0  0  0  0  0  0  0  0
    3.5372   -5.9452    0.0000 C   0  0  0  0  0  0  0  0  0  0  0  0
    3.3059   -8.7749    0.0000 C   0  0  0  0  0  0  0  0  0  0  0  0
    9.1966   -5.6187    0.0000 C   0  0  0  0  0  0  0  0  0  0  0  0
    4.5303   -6.7750    0.0000 C   0  0  0  0  0  0  0  0  0  0  0  0
    2.3400   -6.6798    0.0000 C   0  0  0  0  0  0  0  0  0  0  0  0
    5.6595   -6.0812    0.0000 N   0  0  0  0  0  0  0  0  0  0  0  0
    4.6936   -3.9589    0.0000 C   0  0  0  0  0  0  0  0  0  0  0  0
    4.8704   -2.6665    0.0000 C   0  0  0  0  0  0  0  0  0  0  0  0
    2.2447   -7.9722    0.0000 C   0  0  0  0  0  0  0  0  0  0  0  0
    4.2990   -8.0675    0.0000 C   0  0  0  0  0  0  0  0  0  0  0  0
    3.5780   -4.5983    0.0000 C   0  0  0  0  0  0  0  0  0  0  0  0
    2.9522  -10.0673    0.0000 C   0  0  0  0  0  0  0  0  0  0  0  0
    1.5509  -10.0673    0.0000 N   0  0  0  0  0  0  0  0  0  0  0  0
    5.6731   -4.8024    0.0000 C   0  0  0  0  0  0  0  0  0  0  0  0
    1.1564   -8.7749    0.0000 C   0  0  0  0  0  0  0  0  0  0  0  0
    9.4823   -1.1564    0.0000 O   0  0  0  0  0  0  0  0  0  0  0  0
   11.3598   -2.2992    0.0000 C   0  0  0  0  0  0  0  0  0  0  0  0
   12.5706   -4.8568    0.0000 O   0  0  0  0  0  0  0  0  0  0  0  0
    7.3328   -4.8704    0.0000 O   0  0  0  0  0  0  0  0  0  0  0  0
    7.1288   -0.9387    0.0000 C   0  0  0  0  0  0  0  0  0  0  0  0
    3.7548   -1.9182    0.0000 O   0  0  0  0  0  0  0  0  0  0  0  0
   11.1149   -6.9247    0.0000 C   0  0  0  0  0  0  0  0  0  0  0  0
    1.1020   -6.1356    0.0000 C   0  0  0  0  0  0  0  0  0  0  0  0
    6.6662   -6.9383    0.0000 C   0  0  0  0  0  0  0  0  0  0  0  0
   12.6658   -2.1359    0.0000 C   0  0  0  0  0  0  0  0  0  0  0  0
    8.9654   -7.0199    0.0000 C   0  0  0  0  0  0  0  0  0  0  0  0
   10.0537   -7.8090    0.0000 C   0  0  0  0  0  0  0  0  0  0  0  0
    0.0000   -6.8159    0.0000 C   0  0  0  0  0  0  0  0  0  0  0  0
    0.0000   -8.1627    0.0000 C   0  0  0  0  0  0  0  0  0  0  0  0
    5.9316   -0.3129    0.0000 C   0  0  0  0  0  0  0  0  0  0  0  0
    8.0675    0.0000    0.0000 C   0  0  0  0  0  0  0  0  0  0  0  0
   13.1283   -0.8707    0.0000 C   0  0  0  0  0  0  0  0  0  0  0  0
   13.6045   -3.0610    0.0000 C   0  0  0  0  0  0  0  0  0  0  0  0
    5.3602   -7.8770    0.0000 H   0  0  0  0  0  0  0  0  0  0  0  0
    8.1219   -6.3125    0.0000 H   0  0  0  0  0  0  0  0  0  0  0  0
    2.4896   -5.0337    0.0000 H   0  0  0  0  0  0  0  0  0  0  0  0
  1  2  1  0  0  0  0
  1  4  1  0  0  0  0
  1  6  1  0  0  0  0
  2  5  1  0  0  0  0
  2 12  1  0  0  0  0
  2 28  1  1  0  0  0
  3  4  1  0  0  0  0
  3  9  1  1  0  0  0
  3 29  1  6  0  0  0
  3  5  1  0  0  0  0
  4 25  2  0  0  0  0
  6  7  1  0  0  0  0
  6 26  1  1  0  0  0
  7  8  1  0  0  0  0
  7 27  2  0  0  0  0
  8 31  1  0  0  0  0
  8 12  1  0  0  0  0
  9 17  1  0  0  0  0
 10 20  1  0  0  0  0
 10 14  1  0  0  0  0
 10 45  1  6  0  0  0
 10 13  1  0  0  0  0
 11 19  1  0  0  0  0
 11 21  2  0  0  0  0
 11 18  1  0  0  0  0
 12 35  1  0  0  0  0
 12 44  1  6  0  0  0
 13 15  1  0  0  0  0
 13 19  1  0  0  0  0
 13 43  1  1  0  0  0
 14 18  2  0  0  0  0
 14 32  1  0  0  0  0
 15 23  1  0  0  0  0
 15 33  1  0  0  0  0
 16 17  1  1  0  0  0
 16 20  1  0  0  0  0
 16 23  1  0  0  0  0
 17 30  2  0  0  0  0
 18 24  1  0  0  0  0
 21 22  1  0  0  0  0
 22 24  1  0  0  0  0
 24 38  2  0  0  0  0
 26 34  1  0  0  0  0
 29 39  1  0  0  0  0
 29 40  1  0  0  0  0
 31 36  1  0  0  0  0
 32 37  2  0  0  0  0
 34 41  1  0  0  0  0
 34 42  1  0  0  0  0
 35 36  1  0  0  0  0
 37 38  1  0  0  0  0
M  END
> <ID>
13682

> <Formula>
C32H43N5O5

> <FW>
577.7143

> <DSSTox_CID>
28615

> <DSSTox_RID>
82885

> <DSSTox_GSID>
48689

> <DSSTox_FileID_Sort>
7562

> <TS_ChemName>
Dihydroergocriptine

> <TS_ChemName_Synonyms>


> <TS_CASRN>
25447-66-9

> <CASRN_ChemName_Relationship>
primary

> <TS_Description>
single chemical compound

> <ChemNote>


> <STRUCTURE_Shown>
tested chemical

> <STRUCTURE_Formula>
C32H43N5O5

> <STRUCTURE_MW>
577.7143

> <STRUCTURE_ChemType>
defined organic

> <STRUCTURE_DefinedOrganicForm>
parent

> <STRUCTURE_IUPAC>
(5alpha,5'alpha,8alpha,10beta)-12'-hydroxy-5'-(2-methylpropyl)-3',6',18-trioxo-2'-(propan-2-yl)-9,10-dihydroergotaman

> <STRUCTURE_SMILES>
CN1C[C@@H](C[C@@H]2c3cccc4ncc(C[C@@H]12)c34)C(=O)N[C@@]7(O[C@]6(O)N([C@@H](CC(C)C)C(=O)N5CCC[C@H]56)C7=O)C(C)C

> <STRUCTURE_SMILES_Desalt>
CN1C[C@@H](C[C@@H]2c3cccc4ncc(C[C@@H]12)c34)C(=O)N[C@@]7(O[C@]6(O)N([C@@H](CC(C)C)C(=O)N5CCC[C@H]56)C7=O)C(C)C

> <Substance_modify_yyyymmdd>
20111204

$$$$
