25451-15-4
ChemmineR-0915142007XD

 17 17  0  0  0  0  0  0  0  0  1 V2000
    1.9954   -4.6053    0.0000 C   0  0  0  0  0  0  0  0  0  0  0  0
    0.6625   -4.6053    0.0000 C   0  0  0  0  0  0  0  0  0  0  0  0
    0.0000   -3.4560    0.0000 C   0  0  0  0  0  0  0  0  0  0  0  0
    0.6625   -2.3066    0.0000 C   0  0  0  0  0  0  0  0  0  0  0  0
    1.9954   -2.3066    0.0000 C   0  0  0  0  0  0  0  0  0  0  0  0
    2.6578   -3.4560    0.0000 C   0  0  0  0  0  0  0  0  0  0  0  0
    3.9907   -3.4560    0.0000 C   0  0  0  0  0  0  0  0  0  0  0  0
    4.6532   -2.3066    0.0000 C   0  0  0  0  0  0  0  0  0  0  0  0
    5.9861   -2.3066    0.0000 O   0  0  0  0  0  0  0  0  0  0  0  0
    6.6486   -1.1493    0.0000 C   0  0  0  0  0  0  0  0  0  0  0  0
    7.9815   -1.1493    0.0000 N   0  0  0  0  0  0  0  0  0  0  0  0
    5.9861    0.0000    0.0000 O   0  0  0  0  0  0  0  0  0  0  0  0
    4.6532   -4.6053    0.0000 C   0  0  0  0  0  0  0  0  0  0  0  0
    5.9861   -4.6053    0.0000 O   0  0  0  0  0  0  0  0  0  0  0  0
    6.6486   -5.7626    0.0000 C   0  0  0  0  0  0  0  0  0  0  0  0
    7.9815   -5.7626    0.0000 N   0  0  0  0  0  0  0  0  0  0  0  0
    5.9861   -6.9120    0.0000 O   0  0  0  0  0  0  0  0  0  0  0  0
  1  2  2  0  0  0  0
  1  6  1  0  0  0  0
  2  3  1  0  0  0  0
  3  4  2  0  0  0  0
  4  5  1  0  0  0  0
  5  6  2  0  0  0  0
  6  7  1  0  0  0  0
  7  8  1  0  0  0  0
  7 13  1  0  0  0  0
  8  9  1  0  0  0  0
  9 10  1  0  0  0  0
 10 11  1  0  0  0  0
 10 12  2  0  0  0  0
 13 14  1  0  0  0  0
 14 15  1  0  0  0  0
 15 16  1  0  0  0  0
 15 17  2  0  0  0  0
M  END
> <ID>
2734

> <Formula>
C11H14N2O4

> <FW>
238.2399

> <DSSTox_CID>
3041

> <DSSTox_RID>
76847

> <DSSTox_GSID>
23041

> <DSSTox_FileID_Sort>
1531

> <TS_ChemName>
Felbamate

> <TS_ChemName_Synonyms>
Felbamate (2-Phenyl-1,3-propanediol dicarbamate)

> <TS_CASRN>
25451-15-4

> <CASRN_ChemName_Relationship>
primary

> <TS_Description>
single chemical compound

> <ChemNote>


> <STRUCTURE_Shown>
tested chemical

> <STRUCTURE_Formula>
C11H14N2O4

> <STRUCTURE_MW>
238.2399

> <STRUCTURE_ChemType>
defined organic

> <STRUCTURE_DefinedOrganicForm>
parent

> <STRUCTURE_IUPAC>
2-phenylpropane-1,3-diyl dicarbamate

> <STRUCTURE_SMILES>
NC(=O)OCC(COC(N)=O)c1ccccc1

> <STRUCTURE_SMILES_Desalt>
NC(=O)OCC(COC(N)=O)c1ccccc1

> <Substance_modify_yyyymmdd>
20080429

$$$$
