2545-59-7
ChemmineR-0915142007XD

 21 21  0  0  0  0  0  0  0  0  1 V2000
   11.5023   -3.9791    0.0000 Cl   0  0  0  0  0  0  0  0  0  0  0  0
   12.6621   -3.3186    0.0000 C    0  0  0  0  0  0  0  0  0  0  0  0
   12.6621   -1.9976    0.0000 C    0  0  0  0  0  0  0  0  0  0  0  0
   13.8059   -1.3210    0.0000 C    0  0  0  0  0  0  0  0  0  0  0  0
   14.9497   -1.9976    0.0000 C    0  0  0  0  0  0  0  0  0  0  0  0
   14.9497   -3.3186    0.0000 C    0  0  0  0  0  0  0  0  0  0  0  0
   13.8059   -3.9791    0.0000 C    0  0  0  0  0  0  0  0  0  0  0  0
   16.1096   -3.9791    0.0000 Cl   0  0  0  0  0  0  0  0  0  0  0  0
   16.1096   -1.3210    0.0000 Cl   0  0  0  0  0  0  0  0  0  0  0  0
   11.5023   -1.3210    0.0000 O    0  0  0  0  0  0  0  0  0  0  0  0
   10.3746   -1.9976    0.0000 C    0  0  0  0  0  0  0  0  0  0  0  0
    9.2147   -1.3210    0.0000 C    0  0  0  0  0  0  0  0  0  0  0  0
    9.2147    0.0000    0.0000 O    0  0  0  0  0  0  0  0  0  0  0  0
    8.0548   -1.9976    0.0000 O    0  0  0  0  0  0  0  0  0  0  0  0
    6.9110   -1.3371    0.0000 C    0  0  0  0  0  0  0  0  0  0  0  0
    5.7511   -1.9976    0.0000 C    0  0  0  0  0  0  0  0  0  0  0  0
    4.6073   -1.3371    0.0000 O    0  0  0  0  0  0  0  0  0  0  0  0
    3.4475   -2.0137    0.0000 C    0  0  0  0  0  0  0  0  0  0  0  0
    2.3037   -1.3371    0.0000 C    0  0  0  0  0  0  0  0  0  0  0  0
    1.1599   -2.0137    0.0000 C    0  0  0  0  0  0  0  0  0  0  0  0
    0.0000   -1.3532    0.0000 C    0  0  0  0  0  0  0  0  0  0  0  0
  1  2  1  0  0  0  0
  2  3  2  0  0  0  0
  2  7  1  0  0  0  0
  3  4  1  0  0  0  0
  3 10  1  0  0  0  0
  4  5  2  0  0  0  0
  5  6  1  0  0  0  0
  5  9  1  0  0  0  0
  6  7  2  0  0  0  0
  6  8  1  0  0  0  0
 10 11  1  0  0  0  0
 11 12  1  0  0  0  0
 12 13  2  0  0  0  0
 12 14  1  0  0  0  0
 14 15  1  0  0  0  0
 15 16  1  0  0  0  0
 16 17  1  0  0  0  0
 17 18  1  0  0  0  0
 18 19  1  0  0  0  0
 19 20  1  0  0  0  0
 20 21  1  0  0  0  0
M  END
> <ID>
8294

> <Formula>
C14H17Cl3O4

> <FW>
355.6414

> <DSSTox_CID>
21328

> <DSSTox_RID>
79689

> <DSSTox_GSID>
41328

> <DSSTox_FileID_Sort>
4371

> <TS_ChemName>
2,4,5-T-butotyl

> <TS_ChemName_Synonyms>
2,4,5-T-butotyl (2,4,5-T 2-butoxyethyl ester) (2,4,5-Trichlorophenoxyacetic acid 2-butoxyethyl ester)

> <TS_CASRN>
2545-59-7

> <CASRN_ChemName_Relationship>
primary

> <TS_Description>
single chemical compound

> <ChemNote>


> <STRUCTURE_Shown>
tested chemical

> <STRUCTURE_Formula>
C14H17Cl3O4

> <STRUCTURE_MW>
355.6414

> <STRUCTURE_ChemType>
defined organic

> <STRUCTURE_DefinedOrganicForm>
parent

> <STRUCTURE_IUPAC>
2-butoxyethyl (2,4,5-trichlorophenoxy)acetate

> <STRUCTURE_SMILES>
Clc1cc(OCC(=O)OCCOCCCC)c(Cl)cc1Cl

> <STRUCTURE_SMILES_Desalt>
Clc1cc(OCC(=O)OCCOCCCC)c(Cl)cc1Cl

> <Substance_modify_yyyymmdd>
20080825

$$$$
