254877-67-3
ChemmineR-0915142007XD

 35 38  0  0  0  0  0  0  0  0  1 V2000
   15.9264   -6.6639    0.0000 C    0  0  0  0  0  0  0  0  0  0  0  0
   15.9424   -7.9712    0.0000 O    0  0  0  0  0  0  0  0  0  0  0  0
   14.7786   -8.6567    0.0000 C    0  0  0  0  0  0  0  0  0  0  0  0
   13.6307   -7.9712    0.0000 C    0  0  0  0  0  0  0  0  0  0  0  0
   13.6307   -6.6480    0.0000 N    0  0  0  0  0  0  0  0  0  0  0  0
   14.7786   -5.9784    0.0000 C    0  0  0  0  0  0  0  0  0  0  0  0
   12.4669   -5.9784    0.0000 S    0  0  0  0  0  0  0  0  0  0  0  0
   13.1524   -4.8305    0.0000 O    0  0  0  0  0  0  0  0  0  0  0  0
   11.8133   -7.1262    0.0000 O    0  0  0  0  0  0  0  0  0  0  0  0
   11.3191   -5.3088    0.0000 C    0  0  0  0  0  0  0  0  0  0  0  0
   10.1553   -5.9784    0.0000 C    0  0  0  0  0  0  0  0  0  0  0  0
    9.0234   -5.3088    0.0000 C    0  0  0  0  0  0  0  0  0  0  0  0
    9.0234   -3.9856    0.0000 C    0  0  0  0  0  0  0  0  0  0  0  0
   10.1712   -3.3160    0.0000 C    0  0  0  0  0  0  0  0  0  0  0  0
   11.3191   -4.0015    0.0000 C    0  0  0  0  0  0  0  0  0  0  0  0
    7.8596   -3.3160    0.0000 N    0  0  0  0  0  0  0  0  0  0  0  0
    6.7117   -4.0015    0.0000 C    0  0  0  0  0  0  0  0  0  0  0  0
    6.7117   -5.3247    0.0000 O    0  0  0  0  0  0  0  0  0  0  0  0
    5.5479   -3.3160    0.0000 C    0  0  0  0  0  0  0  0  0  0  0  0
    5.5479   -1.9928    0.0000 C    0  0  0  0  0  0  0  0  0  0  0  0
    4.4160   -1.3232    0.0000 C    0  0  0  0  0  0  0  0  0  0  0  0
    3.2522   -1.9928    0.0000 C    0  0  0  0  0  0  0  0  0  0  0  0
    3.2522   -3.3160    0.0000 C    0  0  0  0  0  0  0  0  0  0  0  0
    4.4160   -4.0015    0.0000 C    0  0  0  0  0  0  0  0  0  0  0  0
    4.4160   -5.3247    0.0000 N    0  0  0  0  0  0  0  0  0  0  0  0
    3.2522   -5.9784    0.0000 S    0  0  0  0  0  0  0  0  0  0  0  0
    2.1044   -6.6480    0.0000 C    0  0  0  0  0  0  0  0  0  0  0  0
    1.9609   -7.9712    0.0000 S    0  0  0  0  0  0  0  0  0  0  0  0
    0.6696   -8.2422    0.0000 C    0  0  0  0  0  0  0  0  0  0  0  0
    0.0000   -7.0943    0.0000 C    0  0  0  0  0  0  0  0  0  0  0  0
    0.8768   -6.1219    0.0000 C    0  0  0  0  0  0  0  0  0  0  0  0
    0.1116   -9.4698    0.0000 Cl   0  0  0  0  0  0  0  0  0  0  0  0
    3.9218   -7.1262    0.0000 O    0  0  0  0  0  0  0  0  0  0  0  0
    2.5827   -4.8305    0.0000 O    0  0  0  0  0  0  0  0  0  0  0  0
    4.4001    0.0000    0.0000 Cl   0  0  0  0  0  0  0  0  0  0  0  0
  1  2  1  0  0  0  0
  1  6  1  0  0  0  0
  2  3  1  0  0  0  0
  3  4  1  0  0  0  0
  4  5  1  0  0  0  0
  5  6  1  0  0  0  0
  5  7  1  0  0  0  0
  7  8  2  0  0  0  0
  7  9  2  0  0  0  0
  7 10  1  0  0  0  0
 10 11  1  0  0  0  0
 10 15  2  0  0  0  0
 11 12  2  0  0  0  0
 12 13  1  0  0  0  0
 13 14  2  0  0  0  0
 13 16  1  0  0  0  0
 14 15  1  0  0  0  0
 16 17  1  0  0  0  0
 17 18  2  0  0  0  0
 17 19  1  0  0  0  0
 19 20  1  0  0  0  0
 19 24  2  0  0  0  0
 20 21  2  0  0  0  0
 21 22  1  0  0  0  0
 21 35  1  0  0  0  0
 22 23  2  0  0  0  0
 23 24  1  0  0  0  0
 24 25  1  0  0  0  0
 25 26  1  0  0  0  0
 26 27  1  0  0  0  0
 26 33  2  0  0  0  0
 26 34  2  0  0  0  0
 27 28  1  0  0  0  0
 27 31  2  0  0  0  0
 28 29  1  0  0  0  0
 29 30  2  0  0  0  0
 29 32  1  0  0  0  0
 30 31  1  0  0  0  0
M  END
> <ID>
13737

> <Formula>
C21H19Cl2N3O6S3

> <FW>
576.4931

> <DSSTox_CID>
28672

> <DSSTox_RID>
82942

> <DSSTox_GSID>
48746

> <DSSTox_FileID_Sort>
7619

> <TS_ChemName>
Ataciguat

> <TS_ChemName_Synonyms>


> <TS_CASRN>
254877-67-3

> <CASRN_ChemName_Relationship>
primary

> <TS_Description>
single chemical compound

> <ChemNote>


> <STRUCTURE_Shown>
tested chemical

> <STRUCTURE_Formula>
C21H19Cl2N3O6S3

> <STRUCTURE_MW>
576.4931

> <STRUCTURE_ChemType>
defined organic

> <STRUCTURE_DefinedOrganicForm>
parent

> <STRUCTURE_IUPAC>
5-chloro-2-{[(5-chlorothiophen-2-yl)sulfonyl]amino}-N-[4-(morpholin-4-ylsulfonyl)phenyl]benzamide

> <STRUCTURE_SMILES>
O=S(=O)(Nc3ccc(Cl)cc3C(=O)Nc1ccc(cc1)S(=O)(=O)N2CCOCC2)c4ccc(Cl)s4

> <STRUCTURE_SMILES_Desalt>
O=S(=O)(Nc3ccc(Cl)cc3C(=O)Nc1ccc(cc1)S(=O)(=O)N2CCOCC2)c4ccc(Cl)s4

> <Substance_modify_yyyymmdd>
20100107

$$$$
