25496-72-4
ChemmineR-0915142007XD

 25 24  0  0  0  0  0  0  0  0  1 V2000
   19.2744   -2.2946    0.0000 C   0  0  0  0  0  0  0  0  0  0  0  0
   17.9575   -2.2946    0.0000 O   0  0  0  0  0  0  0  0  0  0  0  0
   19.2744    0.0000    0.0000 O   0  0  0  0  0  0  0  0  0  0  0  0
   19.2744   -4.6091    0.0000 O   0  0  0  0  0  0  0  0  0  0  0  0
   19.9528   -3.4518    0.0000 C   0  0  0  0  0  0  0  0  0  0  0  0
   19.9528   -1.1373    0.0000 C   0  0  0  0  0  0  0  0  0  0  0  0
   17.2991   -1.1373    0.0000 C   0  0  0  0  0  0  0  0  0  0  0  0
   17.9575    0.0000    0.0000 O   0  0  0  0  0  0  0  0  0  0  0  0
    7.9811   -5.7464    0.0000 C   0  0  0  0  0  0  0  0  0  0  0  0
    9.3180   -5.7464    0.0000 C   0  0  0  0  0  0  0  0  0  0  0  0
   15.9622   -1.1373    0.0000 C   0  0  0  0  0  0  0  0  0  0  0  0
    9.9764   -4.6091    0.0000 C   0  0  0  0  0  0  0  0  0  0  0  0
    7.3027   -4.6091    0.0000 C   0  0  0  0  0  0  0  0  0  0  0  0
   15.2838   -2.2946    0.0000 C   0  0  0  0  0  0  0  0  0  0  0  0
   11.2933   -4.6091    0.0000 C   0  0  0  0  0  0  0  0  0  0  0  0
    5.9858   -4.6091    0.0000 C   0  0  0  0  0  0  0  0  0  0  0  0
    1.3368   -1.1373    0.0000 C   0  0  0  0  0  0  0  0  0  0  0  0
    1.9953   -2.2946    0.0000 C   0  0  0  0  0  0  0  0  0  0  0  0
   11.9717   -3.4518    0.0000 C   0  0  0  0  0  0  0  0  0  0  0  0
   13.3085   -3.4518    0.0000 C   0  0  0  0  0  0  0  0  0  0  0  0
   13.9670   -2.2946    0.0000 C   0  0  0  0  0  0  0  0  0  0  0  0
    5.3274   -3.4518    0.0000 C   0  0  0  0  0  0  0  0  0  0  0  0
    3.9906   -3.4518    0.0000 C   0  0  0  0  0  0  0  0  0  0  0  0
    3.3122   -2.2946    0.0000 C   0  0  0  0  0  0  0  0  0  0  0  0
    0.0000   -1.1373    0.0000 C   0  0  0  0  0  0  0  0  0  0  0  0
  1  2  1  0  0  0  0
  1  5  1  0  0  0  0
  1  6  1  0  0  0  0
  2  7  1  0  0  0  0
  3  6  1  0  0  0  0
  4  5  1  0  0  0  0
  7  8  2  0  0  0  0
  7 11  1  0  0  0  0
  9 10  2  0  0  0  0
  9 13  1  0  0  0  0
 10 12  1  0  0  0  0
 11 14  1  0  0  0  0
 12 15  1  0  0  0  0
 13 16  1  0  0  0  0
 14 21  1  0  0  0  0
 15 19  1  0  0  0  0
 16 22  1  0  0  0  0
 17 18  1  0  0  0  0
 17 25  1  0  0  0  0
 18 24  1  0  0  0  0
 19 20  1  0  0  0  0
 20 21  1  0  0  0  0
 22 23  1  0  0  0  0
 23 24  1  0  0  0  0
M  END
> <ID>
5466

> <Formula>
C21H40O4

> <FW>
356.5399

> <DSSTox_CID>
7875

> <DSSTox_RID>
78598

> <DSSTox_GSID>
27875

> <DSSTox_FileID_Sort>
3281

> <TS_ChemName>
Glyceryl monooleate

> <TS_ChemName_Synonyms>
Glyceryl monooleate (9-Octadecenoic acid (9Z)-, monoester with 1,2,3-propanetriol)

> <TS_CASRN>
25496-72-4

> <CASRN_ChemName_Relationship>
primary

> <TS_Description>
mixture or formulation

> <ChemNote>
mixture of propanetriol esters; structure shown 2-hydroxy-1-(hydroxymethyl)ethyl; stereochem

> <STRUCTURE_Shown>
representative component

> <STRUCTURE_Formula>
C21H40O4

> <STRUCTURE_MW>
356.5399

> <STRUCTURE_ChemType>
defined organic

> <STRUCTURE_DefinedOrganicForm>
parent

> <STRUCTURE_IUPAC>
1,3-dihydroxypropan-2-yl (9Z)-octadec-9-enoate

> <STRUCTURE_SMILES>
OCC(CO)OC(=O)CCCCCCC/C=C\CCCCCCCC

> <STRUCTURE_SMILES_Desalt>
OCC(CO)OC(=O)CCCCCCC/C=C\CCCCCCCC

> <Substance_modify_yyyymmdd>
20080429

$$$$
