25507-04-4
ChemmineR-0915142007XD

 46 46  0  0  1  0  0  0  0  0  1 V2000
   11.3060   -2.7010    0.0000 C    0  0  0  0  0  0  0  0  0  0  0  0
   11.3060   -4.0737    0.0000 C    0  0  0  0  0  0  0  0  0  0  0  0
   10.1547   -2.0516    0.0000 O    0  0  0  0  0  0  0  0  0  0  0  0
   10.1547   -4.7231    0.0000 C    0  0  0  0  0  0  0  0  0  0  0  0
    8.9740   -2.7010    0.0000 C    0  0  0  0  0  0  0  0  0  0  0  0
    8.9740   -4.0737    0.0000 C    0  0  0  0  0  0  0  0  0  0  0  0
   12.4868   -2.0516    0.0000 S    0  0  0  0  0  0  0  0  0  0  0  0
   12.4868   -0.7232    0.0000 C    0  0  0  0  0  0  0  0  0  0  0  0
   12.4720   -4.7231    0.0000 O    0  0  0  0  0  0  0  0  0  0  0  0
   10.1547   -6.0810    0.0000 O    0  0  0  0  0  0  0  0  0  0  0  0
    7.7932   -4.7231    0.0000 O    0  0  0  0  0  0  0  0  0  0  0  0
    7.7932   -2.0516    0.0000 C    0  0  0  0  0  0  0  0  0  0  0  0
    7.7932   -0.6937    0.0000 C    0  0  0  0  0  0  0  0  0  0  0  0
    6.6419   -2.7306    0.0000 N    0  0  0  0  0  0  0  0  0  0  0  0
    8.9740    0.0000    0.0000 Cl   0  0  0  0  0  0  0  0  0  0  0  0
    6.6419   -0.0295    0.0000 C    0  0  0  0  0  0  0  0  0  0  0  0
    5.4759   -2.0516    0.0000 C    0  0  0  0  0  0  0  0  0  0  0  0
    5.4759   -0.6937    0.0000 O    0  0  0  0  0  0  0  0  0  0  0  0
    4.3099   -2.7306    0.0000 C    0  0  0  0  0  0  0  0  0  0  0  0
    2.1254   -2.7010    0.0000 C    0  0  0  0  0  0  0  0  0  0  0  0
    3.2029   -1.9188    0.0000 N    0  0  0  0  0  0  0  0  0  0  0  0
    2.5682   -3.9851    0.0000 C    0  0  0  0  0  0  0  0  0  0  0  0
    3.8966   -3.9851    0.0000 C    0  0  0  0  0  0  0  0  0  0  0  0
    3.2029   -0.5756    0.0000 C    0  0  0  0  0  0  0  0  0  0  0  0
    2.0221   -5.0183    0.0000 C    0  0  0  0  0  0  0  0  0  0  0  0
    0.6937   -5.0183    0.0000 C    0  0  0  0  0  0  0  0  0  0  0  0
    0.0000   -6.1991    0.0000 C    0  0  0  0  0  0  0  0  0  0  0  0
   13.6233   -4.0737    0.0000 C    0  0  0  0  0  0  0  0  0  0  0  0
   14.7598   -4.7231    0.0000 C    0  0  0  0  0  0  0  0  0  0  0  0
   13.6233   -2.7601    0.0000 O    0  0  0  0  0  0  0  0  0  0  0  0
   14.7598   -6.0368    0.0000 C    0  0  0  0  0  0  0  0  0  0  0  0
   13.6233   -6.7157    0.0000 C    0  0  0  0  0  0  0  0  0  0  0  0
   13.6233   -8.0293    0.0000 C    0  0  0  0  0  0  0  0  0  0  0  0
   12.4720   -8.6788    0.0000 C    0  0  0  0  0  0  0  0  0  0  0  0
   11.3355   -8.0293    0.0000 C    0  0  0  0  0  0  0  0  0  0  0  0
   10.1990   -8.6788    0.0000 C    0  0  0  0  0  0  0  0  0  0  0  0
    9.0478   -8.0293    0.0000 C    0  0  0  0  0  0  0  0  0  0  0  0
    7.9113   -8.6788    0.0000 C    0  0  0  0  0  0  0  0  0  0  0  0
    6.7748   -8.0293    0.0000 C    0  0  0  0  0  0  0  0  0  0  0  0
    5.6235   -8.6788    0.0000 C    0  0  0  0  0  0  0  0  0  0  0  0
    4.4870   -8.0293    0.0000 C    0  0  0  0  0  0  0  0  0  0  0  0
    3.3357   -8.6788    0.0000 C    0  0  0  0  0  0  0  0  0  0  0  0
    2.1992   -8.0293    0.0000 C    0  0  0  0  0  0  0  0  0  0  0  0
    1.0775   -8.6788    0.0000 C    0  0  0  0  0  0  0  0  0  0  0  0
    8.9740   -1.3727    0.0000 H    0  0  0  0  0  0  0  0  0  0  0  0
    4.7379   -5.4759    0.0000 Cl   0  0  0  0  0  0  0  0  0  0  0  0
  1  2  1  0  0  0  0
  1  3  1  0  0  0  0
  1  7  1  6  0  0  0
  2  4  1  0  0  0  0
  2  9  1  6  0  0  0
  3  5  1  0  0  0  0
  4  6  1  0  0  0  0
  4 10  1  1  0  0  0
  5  6  1  0  0  0  0
  5 12  1  0  0  0  0
  5 45  1  6  0  0  0
  6 11  1  1  0  0  0
  7  8  1  0  0  0  0
  9 28  1  0  0  0  0
 12 13  1  0  0  0  0
 12 14  1  6  0  0  0
 13 15  1  6  0  0  0
 13 16  1  0  0  0  0
 14 17  1  0  0  0  0
 17 18  2  0  0  0  0
 19 17  1  6  0  0  0
 19 21  1  0  0  0  0
 19 23  1  0  0  0  0
 20 21  1  0  0  0  0
 20 22  1  0  0  0  0
 21 24  1  0  0  0  0
 22 23  1  0  0  0  0
 22 25  1  1  0  0  0
 25 26  1  0  0  0  0
 26 27  1  0  0  0  0
 28 29  1  0  0  0  0
 28 30  2  0  0  0  0
 29 31  1  0  0  0  0
 31 32  1  0  0  0  0
 32 33  1  0  0  0  0
 33 34  1  0  0  0  0
 34 35  1  0  0  0  0
 35 36  1  0  0  0  0
 36 37  1  0  0  0  0
 37 38  1  0  0  0  0
 38 39  1  0  0  0  0
 39 40  1  0  0  0  0
 40 41  1  0  0  0  0
 41 42  1  0  0  0  0
 42 43  1  0  0  0  0
 43 44  1  0  0  0  0
M  END
> <ID>
13725

> <Formula>
C34H64Cl2N2O6S

> <FW>
699.8528 (663.3918+36.4609)

> <DSSTox_CID>
28660

> <DSSTox_RID>
82930

> <DSSTox_GSID>
48734

> <DSSTox_FileID_Sort>
7607

> <TS_ChemName>
Clindamycin palmitate hydrochloride

> <TS_ChemName_Synonyms>


> <TS_CASRN>
25507-04-4

> <CASRN_ChemName_Relationship>
primary

> <TS_Description>
single chemical compound

> <ChemNote>


> <STRUCTURE_Shown>
tested chemical

> <STRUCTURE_Formula>
C34H64Cl2N2O6S

> <STRUCTURE_MW>
699.8528

> <STRUCTURE_ChemType>
defined organic

> <STRUCTURE_DefinedOrganicForm>
complex

> <STRUCTURE_IUPAC>
methyl (5R)-5-[(1S,2S)-2-chloro-1-{[(4R)-1-methyl-4-propyl-L-prolyl]amino}propyl]-2-O-hexadecanoyl-1-thio-beta-L-arabinopyranoside hydrochloride (1:1)

> <STRUCTURE_SMILES>
Cl.CS[C@H]1O[C@@H]([C@H](O)[C@H](O)[C@H]1OC(=O)CCCCCCCCCCCCCCC)[C@H](NC(=O)[C@@H]2C[C@@H](CCC)CN2C)[C@H](C)Cl

> <STRUCTURE_SMILES_Desalt>
CS[C@H]1O[C@@H]([C@H](O)[C@H](O)[C@H]1OC(=O)CCCCCCCCCCCCCCC)[C@H](NC(=O)[C@@H]2C[C@@H](CCC)CN2C)[C@H](C)Cl

> <Substance_modify_yyyymmdd>
20111204

$$$$
