25526-93-6
ChemmineR-0915142007XD

 17 18  0  0  1  0  0  0  0  0  1 V2000
    4.4597   -3.8467    0.0000 N   0  0  0  0  0  0  0  0  0  0  0  0
    3.3103   -3.2030    0.0000 C   0  0  0  0  0  0  0  0  0  0  0  0
    3.3103   -1.9387    0.0000 N   0  0  0  0  0  0  0  0  0  0  0  0
    4.4597   -5.3026    0.0000 C   0  0  0  0  0  0  0  0  0  0  0  0
    5.5938   -3.1877    0.0000 C   0  0  0  0  0  0  0  0  0  0  0  0
    5.5938   -1.9387    0.0000 C   0  0  0  0  0  0  0  0  0  0  0  0
    4.4597   -1.2644    0.0000 C   0  0  0  0  0  0  0  0  0  0  0  0
    3.3793   -4.4980    0.0000 O   0  0  0  0  0  0  0  0  0  0  0  0
    4.0383   -6.5823    0.0000 C   0  0  0  0  0  0  0  0  0  0  0  0
    2.2758   -5.3026    0.0000 C   0  0  0  0  0  0  0  0  0  0  0  0
    2.6973   -6.5823    0.0000 C   0  0  0  0  0  0  0  0  0  0  0  0
    2.2145   -3.8773    0.0000 O   0  0  0  0  0  0  0  0  0  0  0  0
    4.4597    0.0000    0.0000 O   0  0  0  0  0  0  0  0  0  0  0  0
    6.7585   -1.2414    0.0000 C   0  0  0  0  0  0  0  0  0  0  0  0
    1.8927   -7.6627    0.0000 F   0  0  0  0  0  0  0  0  0  0  0  0
    1.0038   -4.8658    0.0000 C   0  0  0  0  0  0  0  0  0  0  0  0
    0.0000   -5.7547    0.0000 O   0  0  0  0  0  0  0  0  0  0  0  0
  1  2  1  0  0  0  0
  4  1  1  1  0  0  0
  1  5  1  0  0  0  0
  2  3  1  0  0  0  0
  2 12  2  0  0  0  0
  3  7  1  0  0  0  0
  4  8  1  0  0  0  0
  4  9  1  0  0  0  0
  5  6  2  0  0  0  0
  6  7  1  0  0  0  0
  6 14  1  0  0  0  0
  7 13  2  0  0  0  0
  8 10  1  0  0  0  0
  9 11  1  0  0  0  0
 10 16  1  1  0  0  0
 10 11  1  0  0  0  0
 11 15  1  6  0  0  0
 16 17  1  0  0  0  0
M  END
> <ID>
11804

> <Formula>
C10H13FN2O4

> <FW>
244.2196

> <DSSTox_CID>
26579

> <DSSTox_RID>
81738

> <DSSTox_GSID>
46579

> <DSSTox_FileID_Sort>
6419

> <TS_ChemName>
Alovudine

> <TS_ChemName_Synonyms>


> <TS_CASRN>
25526-93-6

> <CASRN_ChemName_Relationship>
primary

> <TS_Description>
single chemical compound

> <ChemNote>
stereochem

> <STRUCTURE_Shown>
tested chemical

> <STRUCTURE_Formula>
C10H13FN2O4

> <STRUCTURE_MW>
244.2196

> <STRUCTURE_ChemType>
defined organic

> <STRUCTURE_DefinedOrganicForm>
parent

> <STRUCTURE_IUPAC>
2',3'-dideoxy-3'-fluoro-3,4-dihydrothymidine

> <STRUCTURE_SMILES>
CC1=CN(C(=O)NC1=O)[C@H]2C[C@H](F)[C@@H](CO)O2

> <STRUCTURE_SMILES_Desalt>
CC1=CN(C(=O)NC1=O)[C@H]2C[C@H](F)[C@@H](CO)O2

> <Substance_modify_yyyymmdd>
20110810

$$$$
