2554-06-5
ChemmineR-0915142007XD

 20 20  0  0  0  0  0  0  0  0  1 V2000
    1.7431   -2.0680    0.0000 O    0  0  0  0  0  0  0  0  0  0  0  0
    2.8990   -1.3932    0.0000 Si   0  0  0  0  0  0  0  0  0  0  0  0
    1.4120   -3.3488    0.0000 Si   0  0  0  0  0  0  0  0  0  0  0  0
    2.0680   -4.5046    0.0000 O    0  0  0  0  0  0  0  0  0  0  0  0
    4.1797   -1.7431    0.0000 O    0  0  0  0  0  0  0  0  0  0  0  0
    3.3613   -4.8357    0.0000 Si   0  0  0  0  0  0  0  0  0  0  0  0
    4.8545   -2.8990    0.0000 Si   0  0  0  0  0  0  0  0  0  0  0  0
    4.5046   -4.1797    0.0000 O    0  0  0  0  0  0  0  0  0  0  0  0
    2.0992   -0.3499    0.0000 C    0  0  0  0  0  0  0  0  0  0  0  0
    3.4113   -0.1749    0.0000 C    0  0  0  0  0  0  0  0  0  0  0  0
    4.7233    0.0000    0.0000 C    0  0  0  0  0  0  0  0  0  0  0  0
    5.9104   -2.0805    0.0000 C    0  0  0  0  0  0  0  0  0  0  0  0
    6.0853   -3.4113    0.0000 C    0  0  0  0  0  0  0  0  0  0  0  0
    4.1672   -5.8979    0.0000 C    0  0  0  0  0  0  0  0  0  0  0  0
    2.8490   -6.0728    0.0000 C    0  0  0  0  0  0  0  0  0  0  0  0
    1.5244   -6.2477    0.0000 C    0  0  0  0  0  0  0  0  0  0  0  0
    6.2477   -4.7233    0.0000 C    0  0  0  0  0  0  0  0  0  0  0  0
    0.3499   -4.1672    0.0000 C    0  0  0  0  0  0  0  0  0  0  0  0
    0.1749   -2.8365    0.0000 C    0  0  0  0  0  0  0  0  0  0  0  0
    0.0000   -1.5244    0.0000 C    0  0  0  0  0  0  0  0  0  0  0  0
  1  2  1  0  0  0  0
  1  3  1  0  0  0  0
  2  5  1  0  0  0  0
  2  9  1  0  0  0  0
  2 10  1  0  0  0  0
  3  4  1  0  0  0  0
  3 18  1  0  0  0  0
  3 19  1  0  0  0  0
  4  6  1  0  0  0  0
  5  7  1  0  0  0  0
  6  8  1  0  0  0  0
  6 14  1  0  0  0  0
  6 15  1  0  0  0  0
  7  8  1  0  0  0  0
  7 12  1  0  0  0  0
  7 13  1  0  0  0  0
 10 11  2  0  0  0  0
 13 17  2  0  0  0  0
 15 16  2  0  0  0  0
 19 20  2  0  0  0  0
M  END
> <ID>
7502

> <Formula>
C12H24O4Si4

> <FW>
344.6586

> <DSSTox_CID>
18808

> <DSSTox_RID>
79398

> <DSSTox_GSID>
38808

> <DSSTox_FileID_Sort>
4080

> <TS_ChemName>
Cyclotetrasiloxane, 2,4,6,8-tetraethenyl-2,4,6,8-tetramethyl-

> <TS_ChemName_Synonyms>


> <TS_CASRN>
2554-06-5

> <CASRN_ChemName_Relationship>
primary

> <TS_Description>
single chemical compound

> <ChemNote>


> <STRUCTURE_Shown>
tested chemical

> <STRUCTURE_Formula>
C12H24O4Si4

> <STRUCTURE_MW>
344.6586

> <STRUCTURE_ChemType>
organometallic

> <STRUCTURE_DefinedOrganicForm>


> <STRUCTURE_IUPAC>
2,4,6,8-tetraethenyl-2,4,6,8-tetramethyl-1,3,5,7,2,4,6,8-tetroxatetrasilocane

> <STRUCTURE_SMILES>
C[Si]1(O[Si](C)(O[Si](C)(O[Si](C)(O1)C=C)C=C)C=C)C=C

> <STRUCTURE_SMILES_Desalt>
C[Si]1(O[Si](C)(O[Si](C)(O[Si](C)(O1)C=C)C=C)C=C)C=C

> <Substance_modify_yyyymmdd>
20080429

$$$$
