25550-98-5
ChemmineR-0915142007XD

 30 30  0  0  0  0  0  0  0  0  1 V2000
   11.5082   -2.0024    0.0000 P   0  0  0  0  0  0  0  0  0  0  0  0
   11.5082   -3.3374    0.0000 O   0  0  0  0  0  0  0  0  0  0  0  0
   10.3574   -1.3349    0.0000 O   0  0  0  0  0  0  0  0  0  0  0  0
   12.6590   -1.3349    0.0000 O   0  0  0  0  0  0  0  0  0  0  0  0
   12.6590   -3.9818    0.0000 C   0  0  0  0  0  0  0  0  0  0  0  0
   13.8098   -3.3374    0.0000 C   0  0  0  0  0  0  0  0  0  0  0  0
   12.6590   -5.3168    0.0000 C   0  0  0  0  0  0  0  0  0  0  0  0
   14.9606   -3.9818    0.0000 C   0  0  0  0  0  0  0  0  0  0  0  0
   13.8098   -5.9843    0.0000 C   0  0  0  0  0  0  0  0  0  0  0  0
   14.9606   -5.3168    0.0000 C   0  0  0  0  0  0  0  0  0  0  0  0
   13.8098   -2.0024    0.0000 C   0  0  0  0  0  0  0  0  0  0  0  0
   14.9606   -1.3349    0.0000 C   0  0  0  0  0  0  0  0  0  0  0  0
   16.1115   -2.0024    0.0000 C   0  0  0  0  0  0  0  0  0  0  0  0
   17.2623   -1.3349    0.0000 C   0  0  0  0  0  0  0  0  0  0  0  0
   18.4131   -2.0024    0.0000 C   0  0  0  0  0  0  0  0  0  0  0  0
   19.5639   -1.3349    0.0000 C   0  0  0  0  0  0  0  0  0  0  0  0
   20.7147   -2.0024    0.0000 C   0  0  0  0  0  0  0  0  0  0  0  0
   21.8655   -1.3349    0.0000 C   0  0  0  0  0  0  0  0  0  0  0  0
   21.8655    0.0000    0.0000 C   0  0  0  0  0  0  0  0  0  0  0  0
   23.0164   -2.0024    0.0000 C   0  0  0  0  0  0  0  0  0  0  0  0
    9.2065   -2.0024    0.0000 C   0  0  0  0  0  0  0  0  0  0  0  0
    8.0557   -1.3349    0.0000 C   0  0  0  0  0  0  0  0  0  0  0  0
    6.9049   -2.0024    0.0000 C   0  0  0  0  0  0  0  0  0  0  0  0
    5.7541   -1.3349    0.0000 C   0  0  0  0  0  0  0  0  0  0  0  0
    4.6033   -2.0024    0.0000 C   0  0  0  0  0  0  0  0  0  0  0  0
    3.4525   -1.3349    0.0000 C   0  0  0  0  0  0  0  0  0  0  0  0
    2.3016   -2.0024    0.0000 C   0  0  0  0  0  0  0  0  0  0  0  0
    1.1508   -1.3349    0.0000 C   0  0  0  0  0  0  0  0  0  0  0  0
    0.0000   -2.0024    0.0000 C   0  0  0  0  0  0  0  0  0  0  0  0
    1.1508    0.0000    0.0000 C   0  0  0  0  0  0  0  0  0  0  0  0
  1  2  1  0  0  0  0
  1  3  1  0  0  0  0
  1  4  1  0  0  0  0
  2  5  1  0  0  0  0
  3 21  1  0  0  0  0
  4 11  1  0  0  0  0
  5  6  2  0  0  0  0
  5  7  1  0  0  0  0
  6  8  1  0  0  0  0
  7  9  2  0  0  0  0
  8 10  2  0  0  0  0
  9 10  1  0  0  0  0
 11 12  1  0  0  0  0
 12 13  1  0  0  0  0
 13 14  1  0  0  0  0
 14 15  1  0  0  0  0
 15 16  1  0  0  0  0
 16 17  1  0  0  0  0
 17 18  1  0  0  0  0
 18 19  1  0  0  0  0
 18 20  1  0  0  0  0
 21 22  1  0  0  0  0
 22 23  1  0  0  0  0
 23 24  1  0  0  0  0
 24 25  1  0  0  0  0
 25 26  1  0  0  0  0
 26 27  1  0  0  0  0
 27 28  1  0  0  0  0
 28 29  1  0  0  0  0
 28 30  1  0  0  0  0
M  END
> <ID>
5468

> <Formula>
C26H47O3P

> <FW>
438.6233

> <DSSTox_CID>
7877

> <DSSTox_RID>
78600

> <DSSTox_GSID>
27877

> <DSSTox_FileID_Sort>
3282

> <TS_ChemName>
Diisodecylphenyl phosphite

> <TS_ChemName_Synonyms>
Phosphorous acid, diisodecyl phenyl ester

> <TS_CASRN>
25550-98-5

> <CASRN_ChemName_Relationship>
primary

> <TS_Description>
mixture or formulation

> <ChemNote>
mixture of isodecyl isomers; structure shown 8-methylnonyl

> <STRUCTURE_Shown>
representative isomer in mixture

> <STRUCTURE_Formula>
C26H47O3P

> <STRUCTURE_MW>
438.6233

> <STRUCTURE_ChemType>
defined organic

> <STRUCTURE_DefinedOrganicForm>
parent

> <STRUCTURE_IUPAC>
bis(8-methylnonyl) phenyl phosphite

> <STRUCTURE_SMILES>
CC(C)CCCCCCCOP(OCCCCCCCC(C)C)Oc1ccccc1

> <STRUCTURE_SMILES_Desalt>
CC(C)CCCCCCCOP(OCCCCCCCC(C)C)Oc1ccccc1

> <Substance_modify_yyyymmdd>
20080429

$$$$
