255714-11-5
ChemmineR-0915142007XD

 17 16  0  0  0  0  0  0  0  0  1 V2000
    0.0000   -1.3282    0.0000 C   0  0  0  0  0  0  0  0  0  0  0  0
    1.1484   -1.9924    0.0000 C   0  0  0  0  0  0  0  0  0  0  0  0
    2.3106   -1.3282    0.0000 C   0  0  0  0  0  0  0  0  0  0  0  0
    3.4590   -1.9924    0.0000 C   0  0  0  0  0  0  0  0  0  0  0  0
    2.3106    0.0000    0.0000 C   0  0  0  0  0  0  0  0  0  0  0  0
    4.6212   -1.3282    0.0000 O   0  0  0  0  0  0  0  0  0  0  0  0
    3.4590   -3.3206    0.0000 O   0  0  0  0  0  0  0  0  0  0  0  0
   12.6875   -1.9924    0.0000 C   0  0  0  0  0  0  0  0  0  0  0  0
   11.5253   -1.3282    0.0000 C   0  0  0  0  0  0  0  0  0  0  0  0
    5.7834   -1.9924    0.0000 C   0  0  0  0  0  0  0  0  0  0  0  0
   10.3769   -1.9924    0.0000 C   0  0  0  0  0  0  0  0  0  0  0  0
   12.6875   -3.3206    0.0000 C   0  0  0  0  0  0  0  0  0  0  0  0
   13.8359   -1.3282    0.0000 C   0  0  0  0  0  0  0  0  0  0  0  0
    6.9179   -1.3282    0.0000 C   0  0  0  0  0  0  0  0  0  0  0  0
    9.2285   -1.3282    0.0000 C   0  0  0  0  0  0  0  0  0  0  0  0
    8.0663   -1.9924    0.0000 C   0  0  0  0  0  0  0  0  0  0  0  0
    8.0663   -3.3206    0.0000 C   0  0  0  0  0  0  0  0  0  0  0  0
  1  2  1  0  0  0  0
  2  3  2  3  0  0  0
  3  4  1  0  0  0  0
  3  5  1  0  0  0  0
  4  6  1  0  0  0  0
  4  7  2  0  0  0  0
  6 10  1  0  0  0  0
  8  9  2  0  0  0  0
  8 12  1  0  0  0  0
  8 13  1  0  0  0  0
  9 11  1  0  0  0  0
 10 14  1  0  0  0  0
 11 15  1  0  0  0  0
 14 16  1  0  0  0  0
 15 16  1  0  0  0  0
 16 17  1  0  0  0  0
M  END
> <ID>
12679

> <Formula>
C15H26O2

> <FW>
238.3657

> <DSSTox_CID>
27556

> <DSSTox_RID>
82417

> <DSSTox_GSID>
47556

> <DSSTox_FileID_Sort>
7098

> <TS_ChemName>
2-Butenoic acid, 2-methyl-, 3,7-dimethyl-6-octen-1-yl ester

> <TS_ChemName_Synonyms>
-Butenoic acid, 2-methyl-, 3,7-dimethyl-6-octen-1-yl ester

> <TS_CASRN>
255714-11-5

> <CASRN_ChemName_Relationship>
primary

> <TS_Description>
single chemical compound

> <ChemNote>
mixture of (3R,S)- and Z,E isomers

> <STRUCTURE_Shown>
tested chemical

> <STRUCTURE_Formula>
C15H26O2

> <STRUCTURE_MW>
238.3657

> <STRUCTURE_ChemType>
defined organic

> <STRUCTURE_DefinedOrganicForm>
parent

> <STRUCTURE_IUPAC>
3,7-dimethyloct-6-en-1-yl 2-methylbut-2-enoate

> <STRUCTURE_SMILES>
C\C(C)=C\CCC(C)CCOC(=O)C(C)=CC

> <STRUCTURE_SMILES_Desalt>
C\C(C)=C\CCC(C)CCOC(=O)C(C)=CC

> <Substance_modify_yyyymmdd>
20100929

$$$$
