25584-83-2
ChemmineR-0915142007XD

  9  8  0  0  0  0  0  0  0  0  1 V2000
    6.9045   -1.9954    0.0000 C   0  0  0  0  0  0  0  0  0  0  0  0
    5.7514   -1.3257    0.0000 C   0  0  0  0  0  0  0  0  0  0  0  0
    4.6053   -1.9954    0.0000 C   0  0  0  0  0  0  0  0  0  0  0  0
    4.6053   -3.3210    0.0000 O   0  0  0  0  0  0  0  0  0  0  0  0
    3.4522   -1.3257    0.0000 O   0  0  0  0  0  0  0  0  0  0  0  0
    2.2992   -1.9954    0.0000 C   0  0  0  0  0  0  0  0  0  0  0  0
    1.1530   -1.3257    0.0000 C   0  0  0  0  0  0  0  0  0  0  0  0
    0.0000   -1.9954    0.0000 O   0  0  0  0  0  0  0  0  0  0  0  0
    1.1530    0.0000    0.0000 C   0  0  0  0  0  0  0  0  0  0  0  0
  1  2  2  0  0  0  0
  2  3  1  0  0  0  0
  3  4  2  0  0  0  0
  3  5  1  0  0  0  0
  5  6  1  0  0  0  0
  6  7  1  0  0  0  0
  7  8  1  0  0  0  0
  7  9  1  0  0  0  0
M  END
> <ID>
1984

> <Formula>
C6H10O3

> <FW>
130.1418

> <DSSTox_CID>
2143

> <DSSTox_RID>
78601

> <DSSTox_GSID>
27878

> <DSSTox_FileID_Sort>
3283

> <TS_ChemName>
Hydroxypropyl acrylate

> <TS_ChemName_Synonyms>
Hydroxypropyl acrylate (2-Propenoic acid, monoester with 1,2-propanediol)

> <TS_CASRN>
25584-83-2

> <CASRN_ChemName_Relationship>
primary

> <TS_Description>
mixture or formulation

> <ChemNote>
mixture of 2- [999-61-1] and 3- [NOCAS] hydroxypropyl acrylate; structure shown 2-

> <STRUCTURE_Shown>
representative component

> <STRUCTURE_Formula>
C6H10O3

> <STRUCTURE_MW>
130.1418

> <STRUCTURE_ChemType>
defined organic

> <STRUCTURE_DefinedOrganicForm>
parent

> <STRUCTURE_IUPAC>
2-hydroxypropyl prop-2-enoate

> <STRUCTURE_SMILES>
C=CC(=O)OCC(C)O

> <STRUCTURE_SMILES_Desalt>
C=CC(=O)OCC(C)O

> <Substance_modify_yyyymmdd>
20080429

$$$$
