25606-41-1
ChemmineR-0915142007XD

 14 12  0  0  0  0  0  0  0  0  1 V2000
    6.9354   -1.3271    0.0000 C    0  0  0  0  0  0  0  0  0  0  0  0
    6.9354    0.0000    0.0000 O    0  0  0  0  0  0  0  0  0  0  0  0
    8.0778   -1.9848    0.0000 O    0  0  0  0  0  0  0  0  0  0  0  0
    5.7814   -1.9848    0.0000 N    0  0  0  0  0  0  0  0  0  0  0  0
    4.6274   -1.3271    0.0000 C    0  0  0  0  0  0  0  0  0  0  0  0
    3.4619   -1.9848    0.0000 C    0  0  0  0  0  0  0  0  0  0  0  0
    2.3080   -1.3271    0.0000 C    0  0  0  0  0  0  0  0  0  0  0  0
    1.1540   -1.9848    0.0000 N    0  0  0  0  0  0  0  0  0  0  0  0
    0.0000   -1.3271    0.0000 C    0  0  0  0  0  0  0  0  0  0  0  0
    1.1540   -3.3350    0.0000 C    0  0  0  0  0  0  0  0  0  0  0  0
    9.2318   -1.3271    0.0000 C    0  0  0  0  0  0  0  0  0  0  0  0
   10.3858   -1.9848    0.0000 C    0  0  0  0  0  0  0  0  0  0  0  0
   11.5398   -1.3271    0.0000 C    0  0  0  0  0  0  0  0  0  0  0  0
    6.3238   -3.8197    0.0000 Cl   0  0  0  0  0  0  0  0  0  0  0  0
  1  2  2  0  0  0  0
  1  3  1  0  0  0  0
  1  4  1  0  0  0  0
  3 11  1  0  0  0  0
  4  5  1  0  0  0  0
  5  6  1  0  0  0  0
  6  7  1  0  0  0  0
  7  8  1  0  0  0  0
  8  9  1  0  0  0  0
  8 10  1  0  0  0  0
 11 12  1  0  0  0  0
 12 13  1  0  0  0  0
M  END
> <ID>
6927

> <Formula>
C9H21ClN2O2

> <FW>
224.7282 (188.2673+36.4609)

> <DSSTox_CID>
14849

> <DSSTox_RID>
79210

> <DSSTox_GSID>
34849

> <DSSTox_FileID_Sort>
3892

> <TS_ChemName>
Propamocarb hydrochloride

> <TS_ChemName_Synonyms>
Propamocarb hydrochloride  (Previcur-N, technical)

> <TS_CASRN>
25606-41-1

> <CASRN_ChemName_Relationship>
primary

> <TS_Description>
single chemical compound

> <ChemNote>
parent [24579-73-5]

> <STRUCTURE_Shown>
tested chemical

> <STRUCTURE_Formula>
C9H21ClN2O2

> <STRUCTURE_MW>
224.7282

> <STRUCTURE_ChemType>
defined organic

> <STRUCTURE_DefinedOrganicForm>
complex

> <STRUCTURE_IUPAC>
propyl [3-(dimethylamino)propyl]carbamate hydrochloride (1:1)

> <STRUCTURE_SMILES>
Cl.O=C(NCCCN(C)C)OCCC

> <STRUCTURE_SMILES_Desalt>
O=C(NCCCN(C)C)OCCC

> <Substance_modify_yyyymmdd>
20080429

$$$$
