25638-17-9
ChemmineR-0915142007XD

 19 19  0  0  0  0  0  0  0  0  2 V2000
    3.8961   -3.3225    0.0000 C    0  0  0  0  0  0  0  0  0  0  0  0
    3.8961   -4.6537    0.0000 C    0  0  0  0  0  0  0  0  0  0  0  0
    2.7598   -2.6624    0.0000 C    0  0  0  0  0  0  0  0  0  0  0  0
    2.7598   -5.3247    0.0000 C    0  0  0  0  0  0  0  0  0  0  0  0
    1.6017   -3.3225    0.0000 C    0  0  0  0  0  0  0  0  0  0  0  0
    1.6017   -4.6537    0.0000 C    0  0  0  0  0  0  0  0  0  0  0  0
    5.0541   -2.6624    0.0000 C    0  0  0  0  0  0  0  0  0  0  0  0
    6.2013   -3.3225    0.0000 C    0  0  0  0  0  0  0  0  0  0  0  0
    5.0541   -5.3247    0.0000 C    0  0  0  0  0  0  0  0  0  0  0  0
    6.2013   -4.6537    0.0000 C    0  0  0  0  0  0  0  0  0  0  0  0
    2.7598   -1.3312    0.0000 S    0  0  0  0  0  0  0  0  0  0  0  0
    4.0909   -1.3312    0.0000 O    0  0  0  0  0  0  0  0  0  0  0  0
    1.4286   -1.3312    0.0000 O    0  5  0  0  0  0  0  0  0  0  0  0
    2.7598    0.0000    0.0000 O    0  0  0  0  0  0  0  0  0  0  0  0
    7.3594   -2.6624    0.0000 C    0  0  0  0  0  0  0  0  0  0  0  0
    8.5174   -3.3225    0.0000 C    0  0  0  0  0  0  0  0  0  0  0  0
    9.6646   -2.6624    0.0000 C    0  0  0  0  0  0  0  0  0  0  0  0
   10.8226   -3.3225    0.0000 C    0  0  0  0  0  0  0  0  0  0  0  0
    0.0000   -1.3528    0.0000 Na   0  3  0  0  0  0  0  0  0  0  0  0
  1  3  2  0  0  0  0
  1  7  1  0  0  0  0
  1  2  1  0  0  0  0
  2  4  2  0  0  0  0
  2  9  1  0  0  0  0
  3  5  1  0  0  0  0
  3 11  1  0  0  0  0
  4  6  1  0  0  0  0
  5  6  2  0  0  0  0
  7  8  2  0  0  0  0
  8 10  1  0  0  0  0
  8 15  1  0  0  0  0
  9 10  2  0  0  0  0
 11 12  2  0  0  0  0
 11 13  1  0  0  0  0
 11 14  2  0  0  0  0
 15 16  1  0  0  0  0
 16 17  1  0  0  0  0
 17 18  1  0  0  0  0
M  END
> <ID>
8659

> <Formula>
C14H15NaO3S

> <FW>
286.3219 (263.3326+22.9892)

> <DSSTox_CID>
21703

> <DSSTox_RID>
79826

> <DSSTox_GSID>
41703

> <DSSTox_FileID_Sort>
4508

> <TS_ChemName>
Butylnaphthalenesulfonic acid sodium salt

> <TS_ChemName_Synonyms>


> <TS_CASRN>
25638-17-9

> <CASRN_ChemName_Relationship>
primary

> <TS_Description>
mixture or formulation

> <ChemNote>
mixture of isomeric butylnaphthlene sulfonates; structure shown 7-butylnaphthalene-1-sulfonic acid

> <STRUCTURE_Shown>
representative isomer in mixture

> <STRUCTURE_Formula>
C14H15NaO3S

> <STRUCTURE_MW>
286.3219

> <STRUCTURE_ChemType>
defined organic

> <STRUCTURE_DefinedOrganicForm>
salt

> <STRUCTURE_IUPAC>
sodium 7-butylnaphthalene-1-sulfonate

> <STRUCTURE_SMILES>
[Na+].[O-]S(=O)(=O)c2cccc1ccc(cc12)CCCC

> <STRUCTURE_SMILES_Desalt>
O=S(=O)(O)c2cccc1ccc(cc12)CCCC

> <Substance_modify_yyyymmdd>
20080825

$$$$
