25717-80-0
ChemmineR-0915142007XD

 17 18  0  0  0  0  0  0  0  0  2 V2000
    3.4615   -2.6502    0.0000 N   0  3  0  0  0  0  0  0  0  0  0  0
    3.4615   -3.9807    0.0000 N   0  0  0  0  0  0  0  0  0  0  0  0
    4.7163   -2.2392    0.0000 C   0  0  0  0  0  0  0  0  0  0  0  0
    5.5059   -3.3317    0.0000 C   0  0  0  0  0  0  0  0  0  0  0  0
    6.8256   -3.3317    0.0000 N   0  5  0  0  0  0  0  0  0  0  0  0
    2.2932   -2.0120    0.0000 N   0  0  0  0  0  0  0  0  0  0  0  0
    4.7163   -4.4026    0.0000 O   0  0  0  0  0  0  0  0  0  0  0  0
    7.5071   -2.1743    0.0000 C   0  0  0  0  0  0  0  0  0  0  0  0
    6.8256   -1.0276    0.0000 O   0  0  0  0  0  0  0  0  0  0  0  0
    0.0000   -0.6815    0.0000 O   0  0  0  0  0  0  0  0  0  0  0  0
    1.1574   -2.6718    0.0000 C   0  0  0  0  0  0  0  0  0  0  0  0
    2.2932   -0.6815    0.0000 C   0  0  0  0  0  0  0  0  0  0  0  0
    8.8485   -2.1743    0.0000 O   0  0  0  0  0  0  0  0  0  0  0  0
    1.1574    0.0000    0.0000 C   0  0  0  0  0  0  0  0  0  0  0  0
    0.0000   -2.0120    0.0000 C   0  0  0  0  0  0  0  0  0  0  0  0
    9.4867   -1.0276    0.0000 C   0  0  0  0  0  0  0  0  0  0  0  0
   10.8172   -1.0276    0.0000 C   0  0  0  0  0  0  0  0  0  0  0  0
  1  2  2  0  0  0  0
  1  3  1  0  0  0  0
  1  6  1  0  0  0  0
  2  7  1  0  0  0  0
  3  4  2  0  0  0  0
  4  5  1  0  0  0  0
  4  7  1  0  0  0  0
  5  8  1  0  0  0  0
  6 11  1  0  0  0  0
  6 12  1  0  0  0  0
  8  9  2  0  0  0  0
  8 13  1  0  0  0  0
 10 14  1  0  0  0  0
 10 15  1  0  0  0  0
 11 15  1  0  0  0  0
 12 14  1  0  0  0  0
 13 16  1  0  0  0  0
 16 17  1  0  0  0  0
M  END
> <ID>
10790

> <Formula>
C9H14N4O4

> <FW>
242.2319

> <DSSTox_CID>
25171

> <DSSTox_RID>
80721

> <DSSTox_GSID>
45171

> <DSSTox_FileID_Sort>
5402

> <TS_ChemName>
Molsidomine

> <TS_ChemName_Synonyms>


> <TS_CASRN>
25717-80-0

> <CASRN_ChemName_Relationship>
primary

> <TS_Description>
single chemical compound

> <ChemNote>
zwitterion; ammonium

> <STRUCTURE_Shown>
tested chemical

> <STRUCTURE_Formula>
C9H14N4O4

> <STRUCTURE_MW>
242.2319

> <STRUCTURE_ChemType>
defined organic

> <STRUCTURE_DefinedOrganicForm>
parent

> <STRUCTURE_IUPAC>
(ethoxycarbonyl)[3-(morpholin-4-yl)-1,2,3-oxadiazol-3-ium-5-yl]azanide

> <STRUCTURE_SMILES>
O=C(OCC)[N-]c1c[n+](no1)N2CCOCC2

> <STRUCTURE_SMILES_Desalt>
O=C(OCC)Nc1c[n+](no1)N2CCOCC2

> <Substance_modify_yyyymmdd>
20100107

$$$$
