2579-20-6
ChemmineR-0915142007XD

 10 10  0  0  0  0  0  0  0  0  1 V2000
    2.3169   -0.6778    0.0000 C   0  0  0  0  0  0  0  0  0  0  0  0
    3.4580   -0.0138    0.0000 C   0  0  0  0  0  0  0  0  0  0  0  0
    4.5992   -0.6778    0.0000 C   0  0  0  0  0  0  0  0  0  0  0  0
    4.5992   -2.0126    0.0000 C   0  0  0  0  0  0  0  0  0  0  0  0
    3.4580   -2.6696    0.0000 C   0  0  0  0  0  0  0  0  0  0  0  0
    2.3030   -1.9918    0.0000 C   0  0  0  0  0  0  0  0  0  0  0  0
    1.1550   -0.0138    0.0000 C   0  0  0  0  0  0  0  0  0  0  0  0
    0.0000   -0.6778    0.0000 N   0  0  0  0  0  0  0  0  0  0  0  0
    5.7610    0.0000    0.0000 C   0  0  0  0  0  0  0  0  0  0  0  0
    6.9160   -0.6778    0.0000 N   0  0  0  0  0  0  0  0  0  0  0  0
  1  2  1  0  0  0  0
  1  6  1  0  0  0  0
  1  7  1  0  0  0  0
  2  3  1  0  0  0  0
  3  4  1  0  0  0  0
  3  9  1  0  0  0  0
  4  5  1  0  0  0  0
  5  6  1  0  0  0  0
  7  8  1  0  0  0  0
  9 10  1  0  0  0  0
M  END
> <ID>
8211

> <Formula>
C8H18N2

> <FW>
142.2419

> <DSSTox_CID>
21238

> <DSSTox_RID>
79658

> <DSSTox_GSID>
41238

> <DSSTox_FileID_Sort>
4340

> <TS_ChemName>
1,3-Cyclohexanedimethanamine

> <TS_ChemName_Synonyms>


> <TS_CASRN>
2579-20-6

> <CASRN_ChemName_Relationship>
primary

> <TS_Description>
single chemical compound

> <ChemNote>
mixture of (1R,S; 3R,S) isomers; structure shown without stereochem

> <STRUCTURE_Shown>
tested chemical

> <STRUCTURE_Formula>
C8H18N2

> <STRUCTURE_MW>
142.2419

> <STRUCTURE_ChemType>
defined organic

> <STRUCTURE_DefinedOrganicForm>
parent

> <STRUCTURE_IUPAC>
cyclohexane-1,3-diyldimethanamine

> <STRUCTURE_SMILES>
NCC1CCCC(CN)C1

> <STRUCTURE_SMILES_Desalt>
NCC1CCCC(CN)C1

> <Substance_modify_yyyymmdd>
20080825

$$$$
