25804-49-3
ChemmineR-0915142007XD

 14 14  0  0  0  0  0  0  0  0  1 V2000
    4.5996   -1.3073    0.0000 C   0  0  0  0  0  0  0  0  0  0  0  0
    4.5996    0.0000    0.0000 O   0  0  0  0  0  0  0  0  0  0  0  0
    3.4376   -1.9851    0.0000 C   0  0  0  0  0  0  0  0  0  0  0  0
    5.7617   -1.9851    0.0000 O   0  0  0  0  0  0  0  0  0  0  0  0
    2.3079   -1.3073    0.0000 C   0  0  0  0  0  0  0  0  0  0  0  0
    3.4376   -3.3085    0.0000 C   0  0  0  0  0  0  0  0  0  0  0  0
    1.1459   -1.9851    0.0000 C   0  0  0  0  0  0  0  0  0  0  0  0
    2.3079   -3.9702    0.0000 C   0  0  0  0  0  0  0  0  0  0  0  0
    1.1459   -3.3085    0.0000 C   0  0  0  0  0  0  0  0  0  0  0  0
    0.0000   -3.9702    0.0000 O   0  0  0  0  0  0  0  0  0  0  0  0
    6.9237   -1.3073    0.0000 C   0  0  0  0  0  0  0  0  0  0  0  0
    7.6177   -2.5016    0.0000 C   0  0  0  0  0  0  0  0  0  0  0  0
    8.0696   -0.6617    0.0000 C   0  0  0  0  0  0  0  0  0  0  0  0
    6.2781   -0.1775    0.0000 C   0  0  0  0  0  0  0  0  0  0  0  0
  1  2  2  0  0  0  0
  1  3  1  0  0  0  0
  1  4  1  0  0  0  0
  3  5  2  0  0  0  0
  3  6  1  0  0  0  0
  4 11  1  0  0  0  0
  5  7  1  0  0  0  0
  6  8  2  0  0  0  0
  7  9  2  0  0  0  0
  8  9  1  0  0  0  0
  9 10  1  0  0  0  0
 11 12  1  0  0  0  0
 11 13  1  0  0  0  0
 11 14  1  0  0  0  0
M  END
> <ID>
10542

> <Formula>
C11H14O3

> <FW>
194.2271

> <DSSTox_CID>
24895

> <DSSTox_RID>
80566

> <DSSTox_GSID>
44895

> <DSSTox_FileID_Sort>
5248

> <TS_ChemName>
tert-Butyl 4-hydroxybenzoate

> <TS_ChemName_Synonyms>


> <TS_CASRN>
25804-49-3

> <CASRN_ChemName_Relationship>
primary

> <TS_Description>
single chemical compound

> <ChemNote>


> <STRUCTURE_Shown>
tested chemical

> <STRUCTURE_Formula>
C11H14O3

> <STRUCTURE_MW>
194.2271

> <STRUCTURE_ChemType>
defined organic

> <STRUCTURE_DefinedOrganicForm>
parent

> <STRUCTURE_IUPAC>
tert-butyl 4-hydroxybenzoate

> <STRUCTURE_SMILES>
Oc1ccc(cc1)C(=O)OC(C)(C)C

> <STRUCTURE_SMILES_Desalt>
Oc1ccc(cc1)C(=O)OC(C)(C)C

> <Substance_modify_yyyymmdd>
20091116

$$$$
