25803-14-9
ChemmineR-0915142007XD

 25 27  0  0  0  0  0  0  0  0  1 V2000
    4.7212   -5.6779    0.0000 C    0  0  0  0  0  0  0  0  0  0  0  0
    4.7212   -3.5357    0.0000 N    0  0  0  0  0  0  0  0  0  0  0  0
    5.4907   -4.6068    0.0000 C    0  0  0  0  0  0  0  0  0  0  0  0
    3.4733   -3.9309    0.0000 C    0  0  0  0  0  0  0  0  0  0  0  0
    3.4733   -5.2827    0.0000 C    0  0  0  0  0  0  0  0  0  0  0  0
    5.1476   -6.9570    0.0000 C    0  0  0  0  0  0  0  0  0  0  0  0
    5.1476   -2.2566    0.0000 C    0  0  0  0  0  0  0  0  0  0  0  0
    2.3398   -3.2757    0.0000 C    0  0  0  0  0  0  0  0  0  0  0  0
    2.3398   -5.9171    0.0000 C    0  0  0  0  0  0  0  0  0  0  0  0
    4.2428   -1.2583    0.0000 C    0  0  0  0  0  0  0  0  0  0  0  0
    6.4682   -7.2274    0.0000 C    0  0  0  0  0  0  0  0  0  0  0  0
    4.2532   -7.9345    0.0000 O    0  0  0  0  0  0  0  0  0  0  0  0
    2.9637   -1.5391    0.0000 O    0  0  0  0  0  0  0  0  0  0  0  0
    7.3418   -6.2499    0.0000 C    0  0  0  0  0  0  0  0  0  0  0  0
    6.8842   -8.4961    0.0000 C    0  0  0  0  0  0  0  0  0  0  0  0
    1.1647   -3.9309    0.0000 C    0  0  0  0  0  0  0  0  0  0  0  0
    6.8114   -4.6068    0.0000 C    0  0  0  0  0  0  0  0  0  0  0  0
    1.1647   -5.2827    0.0000 C    0  0  0  0  0  0  0  0  0  0  0  0
    9.0680   -7.7785    0.0000 C    0  0  0  0  0  0  0  0  0  0  0  0
    4.6692    0.0000    0.0000 O    0  0  0  0  0  0  0  0  0  0  0  0
    8.6417   -6.5306    0.0000 C    0  0  0  0  0  0  0  0  0  0  0  0
    8.1737   -8.7664    0.0000 C    0  0  0  0  0  0  0  0  0  0  0  0
   10.3991   -8.0489    0.0000 Cl   0  0  0  0  0  0  0  0  0  0  0  0
    0.0000   -3.2653    0.0000 O    0  0  0  0  0  0  0  0  0  0  0  0
    0.0000   -1.9238    0.0000 C    0  0  0  0  0  0  0  0  0  0  0  0
  1  3  2  0  0  0  0
  1  5  1  0  0  0  0
  1  6  1  0  0  0  0
  2  3  1  0  0  0  0
  2  7  1  0  0  0  0
  2  4  1  0  0  0  0
  3 17  1  0  0  0  0
  4  5  2  0  0  0  0
  4  8  1  0  0  0  0
  5  9  1  0  0  0  0
  6 11  1  0  0  0  0
  6 12  2  0  0  0  0
  7 10  1  0  0  0  0
  8 16  2  0  0  0  0
  9 18  2  0  0  0  0
 10 13  2  0  0  0  0
 10 20  1  0  0  0  0
 11 14  2  0  0  0  0
 11 15  1  0  0  0  0
 14 21  1  0  0  0  0
 15 22  2  0  0  0  0
 16 18  1  0  0  0  0
 16 24  1  0  0  0  0
 19 22  1  0  0  0  0
 19 23  1  0  0  0  0
 19 21  2  0  0  0  0
 24 25  1  0  0  0  0
M  END
> <ID>
13816

> <Formula>
C19H16ClNO4

> <FW>
357.7876

> <DSSTox_CID>
28753

> <DSSTox_RID>
83022

> <DSSTox_GSID>
48827

> <DSSTox_FileID_Sort>
7699

> <TS_ChemName>
Clometacine

> <TS_ChemName_Synonyms>


> <TS_CASRN>
25803-14-9

> <CASRN_ChemName_Relationship>
primary

> <TS_Description>
single chemical compound

> <ChemNote>


> <STRUCTURE_Shown>
tested chemical

> <STRUCTURE_Formula>
C19H16ClNO4

> <STRUCTURE_MW>
357.7876

> <STRUCTURE_ChemType>
defined organic

> <STRUCTURE_DefinedOrganicForm>
parent

> <STRUCTURE_IUPAC>
[3-(4-chlorobenzoyl)-6-methoxy-2-methyl-1H-indol-1-yl]acetic acid

> <STRUCTURE_SMILES>
Clc1ccc(cc1)C(=O)c3c2ccc(cc2n(CC(=O)O)c3C)OC

> <STRUCTURE_SMILES_Desalt>
Clc1ccc(cc1)C(=O)c3c2ccc(cc2n(CC(=O)O)c3C)OC

> <Substance_modify_yyyymmdd>
20111204

$$$$
