25812-30-0
ChemmineR-0915142007XD

 18 18  0  0  0  0  0  0  0  0  1 V2000
    4.6120   -1.6414    0.0000 C   0  0  0  0  0  0  0  0  0  0  0  0
    3.4641   -2.3060    0.0000 C   0  0  0  0  0  0  0  0  0  0  0  0
    3.4641   -3.6352    0.0000 C   0  0  0  0  0  0  0  0  0  0  0  0
    2.3060   -4.2999    0.0000 C   0  0  0  0  0  0  0  0  0  0  0  0
    1.1580   -3.6352    0.0000 C   0  0  0  0  0  0  0  0  0  0  0  0
    1.1580   -2.3060    0.0000 C   0  0  0  0  0  0  0  0  0  0  0  0
    2.3060   -1.6414    0.0000 C   0  0  0  0  0  0  0  0  0  0  0  0
    0.0000   -4.2999    0.0000 C   0  0  0  0  0  0  0  0  0  0  0  0
    4.6120   -4.2999    0.0000 O   0  0  0  0  0  0  0  0  0  0  0  0
    5.7701   -3.6352    0.0000 C   0  0  0  0  0  0  0  0  0  0  0  0
    5.7701   -2.3060    0.0000 C   0  0  0  0  0  0  0  0  0  0  0  0
    6.9180   -1.6414    0.0000 C   0  0  0  0  0  0  0  0  0  0  0  0
    8.0761   -2.3060    0.0000 C   0  0  0  0  0  0  0  0  0  0  0  0
    8.7407   -1.1480    0.0000 C   0  0  0  0  0  0  0  0  0  0  0  0
    8.0761    0.0000    0.0000 O   0  0  0  0  0  0  0  0  0  0  0  0
   10.0699   -1.1480    0.0000 O   0  0  0  0  0  0  0  0  0  0  0  0
    9.2240   -2.9706    0.0000 C   0  0  0  0  0  0  0  0  0  0  0  0
    7.4115   -3.4540    0.0000 C   0  0  0  0  0  0  0  0  0  0  0  0
  1  2  1  0  0  0  0
  2  3  2  0  0  0  0
  2  7  1  0  0  0  0
  3  4  1  0  0  0  0
  3  9  1  0  0  0  0
  4  5  2  0  0  0  0
  5  6  1  0  0  0  0
  5  8  1  0  0  0  0
  6  7  2  0  0  0  0
  9 10  1  0  0  0  0
 10 11  1  0  0  0  0
 11 12  1  0  0  0  0
 12 13  1  0  0  0  0
 13 14  1  0  0  0  0
 13 17  1  0  0  0  0
 13 18  1  0  0  0  0
 14 15  2  0  0  0  0
 14 16  1  0  0  0  0
M  END
> <ID>
627

> <Formula>
C15H22O3

> <FW>
250.3334

> <DSSTox_CID>
652

> <DSSTox_RID>
75712

> <DSSTox_GSID>
20652

> <DSSTox_FileID_Sort>
396

> <TS_ChemName>
Gemfibrozil

> <TS_ChemName_Synonyms>


> <TS_CASRN>
25812-30-0

> <CASRN_ChemName_Relationship>
primary

> <TS_Description>
single chemical compound

> <ChemNote>


> <STRUCTURE_Shown>
tested chemical

> <STRUCTURE_Formula>
C15H22O3

> <STRUCTURE_MW>
250.3334

> <STRUCTURE_ChemType>
defined organic

> <STRUCTURE_DefinedOrganicForm>
parent

> <STRUCTURE_IUPAC>
5-(2,5-dimethylphenoxy)-2,2-dimethylpentanoic acid

> <STRUCTURE_SMILES>
O=C(O)C(C)(C)CCCOc1cc(C)ccc1C

> <STRUCTURE_SMILES_Desalt>
O=C(O)C(C)(C)CCCOc1cc(C)ccc1C

> <Substance_modify_yyyymmdd>
20080429

$$$$
