258273-75-5
ChemmineR-0915142007XD

 23 21  0  0  0  0  0  0  0  0  2 V2000
   12.1131   -1.0108    0.0000 O   0  0  0  0  0  0  0  0  0  0  0  0
   11.4393   -2.1499    0.0000 S   0  0  0  0  0  0  0  0  0  0  0  0
   10.7655   -3.3050    0.0000 O   0  0  0  0  0  0  0  0  0  0  0  0
   10.2841   -1.4921    0.0000 C   0  0  0  0  0  0  0  0  0  0  0  0
    9.6263   -2.6472    0.0000 F   0  0  0  0  0  0  0  0  0  0  0  0
   10.9419   -0.3530    0.0000 F   0  0  0  0  0  0  0  0  0  0  0  0
    9.1450   -0.8182    0.0000 F   0  0  0  0  0  0  0  0  0  0  0  0
   12.5945   -2.8237    0.0000 N   0  5  0  0  0  0  0  0  0  0  0  0
   13.0597   -1.0108    0.0000 O   0  0  0  0  0  0  0  0  0  0  0  0
   13.7175   -2.1499    0.0000 S   0  0  0  0  0  0  0  0  0  0  0  0
   14.4074   -3.3050    0.0000 O   0  0  0  0  0  0  0  0  0  0  0  0
   14.8887   -1.4921    0.0000 C   0  0  0  0  0  0  0  0  0  0  0  0
   14.2149   -0.3530    0.0000 F   0  0  0  0  0  0  0  0  0  0  0  0
   15.5465   -2.6472    0.0000 F   0  0  0  0  0  0  0  0  0  0  0  0
   16.0439   -0.8182    0.0000 F   0  0  0  0  0  0  0  0  0  0  0  0
    4.5083   -1.3798    0.0000 N   0  3  0  0  0  0  0  0  0  0  0  0
    3.5136   -0.4813    0.0000 C   0  0  0  0  0  0  0  0  0  0  0  0
    2.2461   -0.8985    0.0000 C   0  0  0  0  0  0  0  0  0  0  0  0
    1.2675    0.0000    0.0000 C   0  0  0  0  0  0  0  0  0  0  0  0
    0.0000   -0.4011    0.0000 C   0  0  0  0  0  0  0  0  0  0  0  0
    3.6099   -2.3745    0.0000 C   0  0  0  0  0  0  0  0  0  0  0  0
    5.4068   -0.4011    0.0000 C   0  0  0  0  0  0  0  0  0  0  0  0
    5.4870   -2.2782    0.0000 C   0  0  0  0  0  0  0  0  0  0  0  0
  1  2  2  0  0  0  0
  2  3  2  0  0  0  0
  2  4  1  0  0  0  0
  2  8  1  0  0  0  0
  4  5  1  0  0  0  0
  4  6  1  0  0  0  0
  4  7  1  0  0  0  0
  8 10  1  0  0  0  0
  9 10  2  0  0  0  0
 10 11  2  0  0  0  0
 10 12  1  0  0  0  0
 12 13  1  0  0  0  0
 12 14  1  0  0  0  0
 12 15  1  0  0  0  0
 16 17  1  0  0  0  0
 16 21  1  0  0  0  0
 16 22  1  0  0  0  0
 16 23  1  0  0  0  0
 17 18  1  0  0  0  0
 18 19  1  0  0  0  0
 19 20  1  0  0  0  0
M  END
> <ID>
12995

> <Formula>
C9H18F6N2O4S2

> <FW>
396.3706 (280.1467+116.2240)

> <DSSTox_CID>
27896

> <DSSTox_RID>
82649

> <DSSTox_GSID>
47920

> <DSSTox_FileID_Sort>
7326

> <TS_ChemName>
Butyltrimethylammonium bis(trifluoromethylsulfonyl)imide

> <TS_ChemName_Synonyms>


> <TS_CASRN>
258273-75-5

> <CASRN_ChemName_Relationship>
primary

> <TS_Description>
single chemical compound

> <ChemNote>
ammonium; parent [7685-30-5]

> <STRUCTURE_Shown>
tested chemical

> <STRUCTURE_Formula>
C9H18F6N2O4S2

> <STRUCTURE_MW>
396.3706

> <STRUCTURE_ChemType>
defined organic

> <STRUCTURE_DefinedOrganicForm>
salt

> <STRUCTURE_IUPAC>
N,N,N-trimethylbutan-1-aminium bis[(trifluoromethyl)sulfonyl]azanide

> <STRUCTURE_SMILES>
FC(F)(F)S(=O)(=O)[N-]S(=O)(=O)C(F)(F)F.CCCC[N+](C)(C)C

> <STRUCTURE_SMILES_Desalt>
O=S(=O)(NS(=O)(=O)C(F)(F)F)C(F)(F)F

> <Substance_modify_yyyymmdd>
20110417

$$$$
