258273-67-5
ChemmineR-0915142007XD

 12 11  0  0  0  0  0  0  0  0  2 V2000
    4.6201   -6.6297    0.0000 C   0  0  0  0  0  0  0  0  0  0  0  0
    0.0000    0.0000    0.0000 C   0  0  0  0  0  0  0  0  0  0  0  0
    3.4651   -5.9687    0.0000 C   0  0  0  0  0  0  0  0  0  0  0  0
    3.4651   -4.6401    0.0000 C   0  0  0  0  0  0  0  0  0  0  0  0
    3.4651   -0.6610    0.0000 C   0  0  0  0  0  0  0  0  0  0  0  0
    2.3100    0.0000    0.0000 C   0  0  0  0  0  0  0  0  0  0  0  0
    2.3100   -3.9791    0.0000 C   0  0  0  0  0  0  0  0  0  0  0  0
    3.4651   -1.9896    0.0000 C   0  0  0  0  0  0  0  0  0  0  0  0
    1.1550   -1.9896    0.0000 C   0  0  0  0  0  0  0  0  0  0  0  0
    1.1550   -0.6610    0.0000 C   0  0  0  0  0  0  0  0  0  0  0  0
    2.3301   -2.6505    0.0000 N   0  3  0  0  0  0  0  0  0  0  0  0
    1.6825   -6.6764    0.0000 I   0  5  0  0  0  0  0  0  0  0  0  0
  1  3  1  0  0  0  0
  2 10  1  0  0  0  0
  3  4  1  0  0  0  0
  4  7  1  0  0  0  0
  5  6  2  0  0  0  0
  5  8  1  0  0  0  0
  6 10  1  0  0  0  0
  7 11  1  0  0  0  0
  8 11  2  0  0  0  0
  9 10  2  0  0  0  0
  9 11  1  0  0  0  0
M  END
> <ID>
14120

> <Formula>
C10H16IN

> <FW>
277.1452 (150.2402+126.9050)

> <DSSTox_CID>
29113

> <DSSTox_RID>
83332

> <DSSTox_GSID>
49257

> <DSSTox_FileID_Sort>
8007

> <TS_ChemName>
1-Butyl-3-methylpyridinium iodide

> <TS_ChemName_Synonyms>


> <TS_CASRN>
258273-67-5

> <CASRN_ChemName_Relationship>
primary

> <TS_Description>
single chemical compound

> <ChemNote>
alternate CAS [40523-01-1]

> <STRUCTURE_Shown>
tested chemical

> <STRUCTURE_Formula>
C10H16IN

> <STRUCTURE_MW>
277.1452

> <STRUCTURE_ChemType>
defined organic

> <STRUCTURE_DefinedOrganicForm>
salt

> <STRUCTURE_IUPAC>
1-butyl-3-methylpyridinium iodide

> <STRUCTURE_SMILES>
[I-].Cc1ccc[n+](CCCC)c1

> <STRUCTURE_SMILES_Desalt>
Cc1ccc[n+](CCCC)c1

> <Substance_modify_yyyymmdd>
20111204

$$$$
