25875-51-8
ChemmineR-0915142007XD

 22 23  0  0  0  0  0  0  0  0  1 V2000
    0.0000   -3.9976    0.0000 Cl   0  0  0  0  0  0  0  0  0  0  0  0
    1.1606   -3.3206    0.0000 C    0  0  0  0  0  0  0  0  0  0  0  0
    1.1606   -1.9988    0.0000 C    0  0  0  0  0  0  0  0  0  0  0  0
    2.3050   -1.3379    0.0000 C    0  0  0  0  0  0  0  0  0  0  0  0
    3.4656   -1.9988    0.0000 C    0  0  0  0  0  0  0  0  0  0  0  0
    3.4656   -3.3206    0.0000 C    0  0  0  0  0  0  0  0  0  0  0  0
    2.3050   -3.9976    0.0000 C    0  0  0  0  0  0  0  0  0  0  0  0
    4.6101   -1.3379    0.0000 C    0  0  0  0  0  0  0  0  0  0  0  0
    5.7707   -0.6609    0.0000 N    0  0  0  0  0  0  0  0  0  0  0  0
    6.8990    0.0000    0.0000 N    0  0  0  0  0  0  0  0  0  0  0  0
    8.0596   -0.6609    0.0000 C    0  0  0  0  0  0  0  0  0  0  0  0
    8.0596   -1.9988    0.0000 N    0  0  0  0  0  0  0  0  0  0  0  0
    9.2202    0.0000    0.0000 N    0  0  0  0  0  0  0  0  0  0  0  0
   10.3647   -0.6609    0.0000 N    0  0  0  0  0  0  0  0  0  0  0  0
   11.5252   -1.3379    0.0000 C    0  0  0  0  0  0  0  0  0  0  0  0
   12.6697   -1.9988    0.0000 C    0  0  0  0  0  0  0  0  0  0  0  0
   13.8303   -1.3379    0.0000 C    0  0  0  0  0  0  0  0  0  0  0  0
   14.9748   -1.9988    0.0000 C    0  0  0  0  0  0  0  0  0  0  0  0
   14.9748   -3.3206    0.0000 C    0  0  0  0  0  0  0  0  0  0  0  0
   16.1192   -3.9976    0.0000 Cl   0  0  0  0  0  0  0  0  0  0  0  0
   13.8303   -3.9976    0.0000 C    0  0  0  0  0  0  0  0  0  0  0  0
   12.6697   -3.3206    0.0000 C    0  0  0  0  0  0  0  0  0  0  0  0
  1  2  1  0  0  0  0
  2  3  2  0  0  0  0
  2  7  1  0  0  0  0
  3  4  1  0  0  0  0
  4  5  2  0  0  0  0
  5  6  1  0  0  0  0
  5  8  1  0  0  0  0
  6  7  2  0  0  0  0
  8  9  2  0  0  0  0
  9 10  1  0  0  0  0
 10 11  1  0  0  0  0
 11 12  2  0  0  0  0
 11 13  1  0  0  0  0
 13 14  1  0  0  0  0
 14 15  2  0  0  0  0
 15 16  1  0  0  0  0
 16 17  2  0  0  0  0
 16 22  1  0  0  0  0
 17 18  1  0  0  0  0
 18 19  2  0  0  0  0
 19 20  1  0  0  0  0
 19 21  1  0  0  0  0
 21 22  2  0  0  0  0
M  END
> <ID>
11989

> <Formula>
C15H13Cl2N5

> <FW>
334.2032

> <DSSTox_CID>
26813

> <DSSTox_RID>
81925

> <DSSTox_GSID>
46813

> <DSSTox_FileID_Sort>
6606

> <TS_ChemName>
Robenidine

> <TS_ChemName_Synonyms>


> <TS_CASRN>
25875-51-8

> <CASRN_ChemName_Relationship>
primary

> <TS_Description>
single chemical compound

> <ChemNote>
tautomers

> <STRUCTURE_Shown>
tested chemical

> <STRUCTURE_Formula>
C15H13Cl2N5

> <STRUCTURE_MW>
334.2032

> <STRUCTURE_ChemType>
defined organic

> <STRUCTURE_DefinedOrganicForm>
parent

> <STRUCTURE_IUPAC>
N',2-bis(4-chlorobenzylidene)hydrazinecarboximidohydrazide

> <STRUCTURE_SMILES>
Clc2ccc(/C=N/NC(=N)N\N=C/c1ccc(Cl)cc1)cc2

> <STRUCTURE_SMILES_Desalt>
Clc2ccc(/C=N/NC(=N)N\N=C/c1ccc(Cl)cc1)cc2

> <Substance_modify_yyyymmdd>
20110801

$$$$
