2591-86-8
ChemmineR-0915142007XD

  8  8  0  0  0  0  0  0  0  0  1 V2000
    1.9962   -1.1540    0.0000 N   0  0  0  0  0  0  0  0  0  0  0  0
    2.6569   -2.3033    0.0000 C   0  0  0  0  0  0  0  0  0  0  0  0
    2.6569    0.0000    0.0000 C   0  0  0  0  0  0  0  0  0  0  0  0
    3.9877   -2.3033    0.0000 C   0  0  0  0  0  0  0  0  0  0  0  0
    3.9877    0.0000    0.0000 C   0  0  0  0  0  0  0  0  0  0  0  0
    4.6531   -1.1540    0.0000 C   0  0  0  0  0  0  0  0  0  0  0  0
    0.6654   -1.1540    0.0000 C   0  0  0  0  0  0  0  0  0  0  0  0
    0.0000    0.0000    0.0000 O   0  0  0  0  0  0  0  0  0  0  0  0
  1  2  1  0  0  0  0
  1  3  1  0  0  0  0
  1  7  1  0  0  0  0
  2  4  1  0  0  0  0
  3  5  1  0  0  0  0
  4  6  1  0  0  0  0
  5  6  1  0  0  0  0
  7  8  2  0  0  0  0
M  END
> <ID>
9761

> <Formula>
C6H11NO

> <FW>
113.1576

> <DSSTox_CID>
23941

> <DSSTox_RID>
80092

> <DSSTox_GSID>
43941

> <DSSTox_FileID_Sort>
4774

> <TS_ChemName>
N-Formylpiperidine

> <TS_ChemName_Synonyms>


> <TS_CASRN>
2591-86-8

> <CASRN_ChemName_Relationship>
primary

> <TS_Description>
single chemical compound

> <ChemNote>


> <STRUCTURE_Shown>
tested chemical

> <STRUCTURE_Formula>
C6H11NO

> <STRUCTURE_MW>
113.1576

> <STRUCTURE_ChemType>
defined organic

> <STRUCTURE_DefinedOrganicForm>
parent

> <STRUCTURE_IUPAC>
piperidine-1-carbaldehyde

> <STRUCTURE_SMILES>
O=CN1CCCCC1

> <STRUCTURE_SMILES_Desalt>
O=CN1CCCCC1

> <Substance_modify_yyyymmdd>
20090108

$$$$
