2592-95-2
ChemmineR-0915142007XD

 10 11  0  0  0  0  0  0  0  0  1 V2000
    3.5591   -3.3981    0.0000 N   0  0  0  0  0  0  0  0  0  0  0  0
    4.3509   -2.3321    0.0000 N   0  0  0  0  0  0  0  0  0  0  0  0
    3.5591   -1.2531    0.0000 N   0  0  0  0  0  0  0  0  0  0  0  0
    2.3016   -1.6359    0.0000 C   0  0  0  0  0  0  0  0  0  0  0  0
    2.3016   -3.0152    0.0000 C   0  0  0  0  0  0  0  0  0  0  0  0
    1.1269   -3.6504    0.0000 C   0  0  0  0  0  0  0  0  0  0  0  0
    0.0000   -3.0152    0.0000 C   0  0  0  0  0  0  0  0  0  0  0  0
    0.0000   -1.6359    0.0000 C   0  0  0  0  0  0  0  0  0  0  0  0
    1.1269   -1.0007    0.0000 C   0  0  0  0  0  0  0  0  0  0  0  0
    3.9680    0.0000    0.0000 O   0  0  0  0  0  0  0  0  0  0  0  0
  1  2  2  0  0  0  0
  1  5  1  0  0  0  0
  2  3  1  0  0  0  0
  3  4  1  0  0  0  0
  3 10  1  0  0  0  0
  4  5  2  0  0  0  0
  4  9  1  0  0  0  0
  5  6  1  0  0  0  0
  6  7  2  0  0  0  0
  7  8  1  0  0  0  0
  8  9  2  0  0  0  0
M  END
> <ID>
10281

> <Formula>
C6H5N3O

> <FW>
135.1234

> <DSSTox_CID>
24627

> <DSSTox_RID>
80362

> <DSSTox_GSID>
44627

> <DSSTox_FileID_Sort>
5044

> <TS_ChemName>
1H-Benzotriazol-1-ol

> <TS_ChemName_Synonyms>


> <TS_CASRN>
2592-95-2

> <CASRN_ChemName_Relationship>
primary

> <TS_Description>
single chemical compound

> <ChemNote>
tautomers

> <STRUCTURE_Shown>
tested chemical

> <STRUCTURE_Formula>
C6H5N3O

> <STRUCTURE_MW>
135.1234

> <STRUCTURE_ChemType>
defined organic

> <STRUCTURE_DefinedOrganicForm>
parent

> <STRUCTURE_IUPAC>
1H-benzotriazol-1-ol

> <STRUCTURE_SMILES>
On2nnc1ccccc12

> <STRUCTURE_SMILES_Desalt>
On2nnc1ccccc12

> <Substance_modify_yyyymmdd>
20091116

$$$$
