25953-17-7
ChemmineR-0915142007XD

 24 24  0  0  0  0  0  0  0  0  1 V2000
    4.6306   -4.0250    0.0000 Cl   0  0  0  0  0  0  0  0  0  0  0  0
    9.6271   -4.2395    0.0000 Cl   0  0  0  0  0  0  0  0  0  0  0  0
    4.5927    0.0000    0.0000 N    0  0  0  0  0  0  0  0  0  0  0  0
    3.4446   -0.6687    0.0000 N    0  0  0  0  0  0  0  0  0  0  0  0
    5.7409   -0.6687    0.0000 C    0  0  0  0  0  0  0  0  0  0  0  0
    3.4446   -2.0062    0.0000 C    0  0  0  0  0  0  0  0  0  0  0  0
    5.7409   -2.0062    0.0000 C    0  0  0  0  0  0  0  0  0  0  0  0
    4.5927   -2.6749    0.0000 C    0  0  0  0  0  0  0  0  0  0  0  0
   10.3210   -0.6687    0.0000 N    0  0  0  0  0  0  0  0  0  0  0  0
    2.2964   -2.6749    0.0000 C    0  0  0  0  0  0  0  0  0  0  0  0
    6.8765    0.0000    0.0000 N    0  0  0  0  0  0  0  0  0  0  0  0
   12.6174   -2.0062    0.0000 O    0  0  0  0  0  0  0  0  0  0  0  0
    8.0247   -0.6687    0.0000 C    0  0  0  0  0  0  0  0  0  0  0  0
    9.1729    0.0000    0.0000 C    0  0  0  0  0  0  0  0  0  0  0  0
   10.3210   -2.0062    0.0000 C    0  0  0  0  0  0  0  0  0  0  0  0
   11.4692    0.0000    0.0000 C    0  0  0  0  0  0  0  0  0  0  0  0
    6.8765   -2.6749    0.0000 C    0  0  0  0  0  0  0  0  0  0  0  0
   11.4692   -2.6749    0.0000 C    0  0  0  0  0  0  0  0  0  0  0  0
   12.6174   -0.6687    0.0000 C    0  0  0  0  0  0  0  0  0  0  0  0
    2.2964   -4.0123    0.0000 C    0  0  0  0  0  0  0  0  0  0  0  0
    1.1482   -2.0062    0.0000 C    0  0  0  0  0  0  0  0  0  0  0  0
    0.0000   -2.6749    0.0000 C    0  0  0  0  0  0  0  0  0  0  0  0
    1.1482   -4.6811    0.0000 C    0  0  0  0  0  0  0  0  0  0  0  0
    0.0000   -4.0123    0.0000 C    0  0  0  0  0  0  0  0  0  0  0  0
  3  4  1  0  0  0  0
  3  5  2  0  0  0  0
  4  6  2  0  0  0  0
  5  7  1  0  0  0  0
  5 11  1  0  0  0  0
  6 10  1  0  0  0  0
  6  8  1  0  0  0  0
  7  8  2  0  0  0  0
  7 17  1  0  0  0  0
  9 14  1  0  0  0  0
  9 15  1  0  0  0  0
  9 16  1  0  0  0  0
 10 20  2  0  0  0  0
 10 21  1  0  0  0  0
 11 13  1  0  0  0  0
 12 19  1  0  0  0  0
 12 18  1  0  0  0  0
 13 14  1  0  0  0  0
 15 18  1  0  0  0  0
 16 19  1  0  0  0  0
 20 23  1  0  0  0  0
 21 22  2  0  0  0  0
 22 24  1  0  0  0  0
 23 24  2  0  0  0  0
M  END
> <ID>
11252

> <Formula>
C17H24Cl2N4O

> <FW>
371.3047 (36.4609+36.4609+298.3828)

> <DSSTox_CID>
25864

> <DSSTox_RID>
81184

> <DSSTox_GSID>
45864

> <DSSTox_FileID_Sort>
5865

> <TS_ChemName>
Minaprine dihydrochloride

> <TS_ChemName_Synonyms>


> <TS_CASRN>
25953-17-7

> <CASRN_ChemName_Relationship>
primary

> <TS_Description>
single chemical compound

> <ChemNote>
parent [25905-77-5]

> <STRUCTURE_Shown>
tested chemical

> <STRUCTURE_Formula>
C17H24Cl2N4O

> <STRUCTURE_MW>
371.3047

> <STRUCTURE_ChemType>
defined organic

> <STRUCTURE_DefinedOrganicForm>
complex

> <STRUCTURE_IUPAC>
4-methyl-N-[2-(morpholin-4-yl)ethyl]-6-phenylpyridazin-3-amine dihydrochloride

> <STRUCTURE_SMILES>
Cl.Cl.Cc2cc(nnc2NCCN1CCOCC1)c3ccccc3

> <STRUCTURE_SMILES_Desalt>
Cc2cc(nnc2NCCN1CCOCC1)c3ccccc3

> <Substance_modify_yyyymmdd>
20110922

$$$$
