2595-54-2
ChemmineR-0915142007XD

 19 18  0  0  0  0  0  0  0  0  1 V2000
    3.4652   -3.3223    0.0000 C   0  0  0  0  0  0  0  0  0  0  0  0
    4.6084   -2.6674    0.0000 N   0  0  0  0  0  0  0  0  0  0  0  0
    5.7754   -3.3223    0.0000 C   0  0  0  0  0  0  0  0  0  0  0  0
    6.9304   -2.6674    0.0000 C   0  0  0  0  0  0  0  0  0  0  0  0
    8.0736   -3.3223    0.0000 S   0  0  0  0  0  0  0  0  0  0  0  0
    9.2406   -2.6674    0.0000 P   0  0  0  0  0  0  0  0  0  0  0  0
   10.3838   -1.9886    0.0000 O   0  0  0  0  0  0  0  0  0  0  0  0
   10.3838   -0.6788    0.0000 C   0  0  0  0  0  0  0  0  0  0  0  0
   11.5388    0.0000    0.0000 C   0  0  0  0  0  0  0  0  0  0  0  0
    3.4652   -4.6560    0.0000 O   0  0  0  0  0  0  0  0  0  0  0  0
    2.3101   -2.6674    0.0000 O   0  0  0  0  0  0  0  0  0  0  0  0
    8.5499   -1.5242    0.0000 S   0  0  0  0  0  0  0  0  0  0  0  0
    9.8836   -3.8225    0.0000 O   0  0  0  0  0  0  0  0  0  0  0  0
   11.2173   -3.8225    0.0000 C   0  0  0  0  0  0  0  0  0  0  0  0
   11.9080   -4.9775    0.0000 C   0  0  0  0  0  0  0  0  0  0  0  0
    4.6084   -1.3337    0.0000 C   0  0  0  0  0  0  0  0  0  0  0  0
    5.7754   -4.6560    0.0000 O   0  0  0  0  0  0  0  0  0  0  0  0
    1.1551   -3.3223    0.0000 C   0  0  0  0  0  0  0  0  0  0  0  0
    0.0000   -2.6674    0.0000 C   0  0  0  0  0  0  0  0  0  0  0  0
  1  2  1  0  0  0  0
  1 11  1  0  0  0  0
  1 10  2  0  0  0  0
  2  3  1  0  0  0  0
  2 16  1  0  0  0  0
  3  4  1  0  0  0  0
  3 17  2  0  0  0  0
  4  5  1  0  0  0  0
  5  6  1  0  0  0  0
  6  7  1  0  0  0  0
  6 12  2  0  0  0  0
  6 13  1  0  0  0  0
  7  8  1  0  0  0  0
  8  9  1  0  0  0  0
 11 18  1  0  0  0  0
 13 14  1  0  0  0  0
 14 15  1  0  0  0  0
 18 19  1  0  0  0  0
M  END
> <ID>
9048

> <Formula>
C10H20NO5PS2

> <FW>
329.3733

> <DSSTox_CID>
22117

> <DSSTox_RID>
79927

> <DSSTox_GSID>
42117

> <DSSTox_FileID_Sort>
4609

> <TS_ChemName>
Mecarbam

> <TS_ChemName_Synonyms>


> <TS_CASRN>
2595-54-2

> <CASRN_ChemName_Relationship>
primary

> <TS_Description>
single chemical compound

> <ChemNote>


> <STRUCTURE_Shown>
tested chemical

> <STRUCTURE_Formula>
C10H20NO5PS2

> <STRUCTURE_MW>
329.3733

> <STRUCTURE_ChemType>
defined organic

> <STRUCTURE_DefinedOrganicForm>
parent

> <STRUCTURE_IUPAC>
ethyl {[(diethoxyphosphorothioyl)sulfanyl]acetyl}methylcarbamate

> <STRUCTURE_SMILES>
CCOP(=S)(OCC)SCC(=O)N(C)C(=O)OCC

> <STRUCTURE_SMILES_Desalt>
CCOP(=S)(OCC)SCC(=O)N(C)C(=O)OCC

> <Substance_modify_yyyymmdd>
20080825

$$$$
