25956-17-6
ChemmineR-0915142007XD

 32 32  0  0  0  0  0  0  0  0  2 V2000
    2.2382   -1.3157    0.0000 S    0  0  0  0  0  0  0  0  0  0  0  0
    2.9036   -2.4650    0.0000 C    0  0  0  0  0  0  0  0  0  0  0  0
    2.2382   -3.6144    0.0000 C    0  0  0  0  0  0  0  0  0  0  0  0
    2.9036   -4.7637    0.0000 C    0  0  0  0  0  0  0  0  0  0  0  0
    4.2344   -4.7637    0.0000 C    0  0  0  0  0  0  0  0  0  0  0  0
    4.8998   -5.9282    0.0000 N    0  0  0  0  0  0  0  0  0  0  0  0
    6.2306   -5.9282    0.0000 N    0  0  0  0  0  0  0  0  0  0  0  0
    6.8960   -7.0775    0.0000 C    0  0  0  0  0  0  0  0  0  0  0  0
    8.2269   -7.0775    0.0000 C    0  0  0  0  0  0  0  0  0  0  0  0
    8.8923   -8.2269    0.0000 C    0  0  0  0  0  0  0  0  0  0  0  0
   10.2231   -8.2269    0.0000 C    0  0  0  0  0  0  0  0  0  0  0  0
   10.8885   -7.0775    0.0000 C    0  0  0  0  0  0  0  0  0  0  0  0
   12.2193   -7.0775    0.0000 S    0  0  0  0  0  0  0  0  0  0  0  0
   13.5501   -7.0775    0.0000 O    0  5  0  0  0  0  0  0  0  0  0  0
   12.2193   -8.4083    0.0000 O    0  0  0  0  0  0  0  0  0  0  0  0
   12.2193   -5.7467    0.0000 O    0  0  0  0  0  0  0  0  0  0  0  0
   10.2231   -5.9282    0.0000 C    0  0  0  0  0  0  0  0  0  0  0  0
    8.8923   -5.9282    0.0000 C    0  0  0  0  0  0  0  0  0  0  0  0
    8.2269   -9.3762    0.0000 C    0  0  0  0  0  0  0  0  0  0  0  0
    6.8960   -9.3762    0.0000 C    0  0  0  0  0  0  0  0  0  0  0  0
    6.2306   -8.2269    0.0000 C    0  0  0  0  0  0  0  0  0  0  0  0
    4.8998   -8.2269    0.0000 O    0  0  0  0  0  0  0  0  0  0  0  0
    4.8998   -3.6144    0.0000 C    0  0  0  0  0  0  0  0  0  0  0  0
    4.2344   -2.4650    0.0000 C    0  0  0  0  0  0  0  0  0  0  0  0
    4.8998   -1.3157    0.0000 C    0  0  0  0  0  0  0  0  0  0  0  0
    2.2382   -5.9282    0.0000 O    0  0  0  0  0  0  0  0  0  0  0  0
    0.9074   -5.9282    0.0000 C    0  0  0  0  0  0  0  0  0  0  0  0
    1.5728   -0.1664    0.0000 O    0  5  0  0  0  0  0  0  0  0  0  0
    3.3875   -0.6503    0.0000 O    0  0  0  0  0  0  0  0  0  0  0  0
    1.0888   -1.9811    0.0000 O    0  0  0  0  0  0  0  0  0  0  0  0
    0.0000    0.0000    0.0000 Na   0  3  0  0  0  0  0  0  0  0  0  0
   15.1229   -7.5312    0.0000 Na   0  3  0  0  0  0  0  0  0  0  0  0
  1  2  1  0  0  0  0
  1 28  1  0  0  0  0
  1 29  2  0  0  0  0
  1 30  2  0  0  0  0
  2  3  2  0  0  0  0
  2 24  1  0  0  0  0
  3  4  1  0  0  0  0
  4  5  2  0  0  0  0
  4 26  1  0  0  0  0
  5  6  1  0  0  0  0
  5 23  1  0  0  0  0
  6  7  2  0  0  0  0
  7  8  1  0  0  0  0
  8  9  2  0  0  0  0
  8 21  1  0  0  0  0
  9 10  1  0  0  0  0
  9 18  1  0  0  0  0
 10 11  1  0  0  0  0
 10 19  2  0  0  0  0
 11 12  2  0  0  0  0
 12 13  1  0  0  0  0
 12 17  1  0  0  0  0
 13 14  1  0  0  0  0
 13 15  2  0  0  0  0
 13 16  2  0  0  0  0
 17 18  2  0  0  0  0
 19 20  1  0  0  0  0
 20 21  2  0  0  0  0
 21 22  1  0  0  0  0
 23 24  2  0  0  0  0
 24 25  1  0  0  0  0
 26 27  1  0  0  0  0
M  END
> <ID>
3670

> <Formula>
C18H14N2Na2O8S2

> <FW>
496.4219 (450.4435+22.9892+22.9892)

> <DSSTox_CID>
4436

> <DSSTox_RID>
77395

> <DSSTox_GSID>
24436

> <DSSTox_FileID_Sort>
2078

> <TS_ChemName>
Allura Red C.I.16035

> <TS_ChemName_Synonyms>
C.I. Food Red 17; 2-Naphthalenesulfonic acid, 6-hydroxy-5-[(2-methoxy-5-methyl-4-sulfophenyl)azo]-, disodium salt; FD&C Red no.40

> <TS_CASRN>
25956-17-6

> <CASRN_ChemName_Relationship>
primary

> <TS_Description>
single chemical compound

> <ChemNote>
C.I.16035

> <STRUCTURE_Shown>
tested chemical

> <STRUCTURE_Formula>
C18H14N2Na2O8S2

> <STRUCTURE_MW>
496.4219

> <STRUCTURE_ChemType>
defined organic

> <STRUCTURE_DefinedOrganicForm>
salt

> <STRUCTURE_IUPAC>
disodium 6-hydroxy-5-[(E)-(2-methoxy-5-methyl-4-sulfonatophenyl)diazenyl]naphthalene-2-sulfonate

> <STRUCTURE_SMILES>
[Na+].[Na+].Cc3cc(/N=N/c1c2ccc(cc2ccc1O)S([O-])(=O)=O)c(cc3S(=O)([O-])=O)OC

> <STRUCTURE_SMILES_Desalt>
Cc3cc(/N=N/c1c2ccc(cc2ccc1O)S(=O)(=O)O)c(cc3S(O)(=O)=O)OC

> <Substance_modify_yyyymmdd>
20080429

$$$$
