25954-13-6
ChemmineR-0915142007XD

 10  8  0  0  0  0  0  0  0  0  2 V2000
    3.3278   -1.3900    0.0000 P   0  0  0  0  0  0  0  0  0  0  0  0
    4.6589   -1.3900    0.0000 O   0  0  0  0  0  0  0  0  0  0  0  0
    3.3278   -0.0648    0.0000 O   0  5  0  0  0  0  0  0  0  0  0  0
    2.0025   -1.3900    0.0000 O   0  0  0  0  0  0  0  0  0  0  0  0
    3.3278   -2.7211    0.0000 C   0  0  0  0  0  0  0  0  0  0  0  0
    2.1792   -3.3926    0.0000 O   0  0  0  0  0  0  0  0  0  0  0  0
    4.4822   -3.3926    0.0000 N   0  0  0  0  0  0  0  0  0  0  0  0
    1.3311   -0.2415    0.0000 C   0  0  0  0  0  0  0  0  0  0  0  0
    0.0000   -0.2415    0.0000 C   0  0  0  0  0  0  0  0  0  0  0  0
    5.8898    0.0000    0.0000 N   0  3  0  0  0  0  0  0  0  0  0  0
  1  2  2  0  0  0  0
  1  3  1  0  0  0  0
  1  4  1  0  0  0  0
  1  5  1  0  0  0  0
  4  8  1  0  0  0  0
  5  6  2  0  0  0  0
  5  7  1  0  0  0  0
  8  9  1  0  0  0  0
M  END
> <ID>
6452

> <Formula>
C3H11N2O4P

> <FW>
170.1042 (152.0663+18.0379)

> <DSSTox_CID>
12406

> <DSSTox_RID>
78940

> <DSSTox_GSID>
32406

> <DSSTox_FileID_Sort>
3622

> <TS_ChemName>
Fosamine ammonium

> <TS_ChemName_Synonyms>


> <TS_CASRN>
25954-13-6

> <CASRN_ChemName_Relationship>
primary

> <TS_Description>
single chemical compound

> <ChemNote>
parent [59682-52-9]

> <STRUCTURE_Shown>
tested chemical

> <STRUCTURE_Formula>
C3H11N2O4P

> <STRUCTURE_MW>
170.1042

> <STRUCTURE_ChemType>
defined organic

> <STRUCTURE_DefinedOrganicForm>
complex

> <STRUCTURE_IUPAC>
ammonium ethyl carbamoylphosphonate

> <STRUCTURE_SMILES>
[NH4+].NC(=O)P([O-])(=O)OCC

> <STRUCTURE_SMILES_Desalt>
NC(=O)P(=O)(O)OCC

> <Substance_modify_yyyymmdd>
20080429

$$$$
