25973-55-1
ChemmineR-0915142007XD

 26 28  0  0  0  0  0  0  0  0  1 V2000
    3.4617   -2.7516    0.0000 C   0  0  0  0  0  0  0  0  0  0  0  0
    3.4617   -1.4202    0.0000 O   0  0  0  0  0  0  0  0  0  0  0  0
    4.6156   -3.4222    0.0000 C   0  0  0  0  0  0  0  0  0  0  0  0
    2.3078   -3.4222    0.0000 C   0  0  0  0  0  0  0  0  0  0  0  0
    2.3078   -4.7536    0.0000 C   0  0  0  0  0  0  0  0  0  0  0  0
    4.6156   -4.7536    0.0000 C   0  0  0  0  0  0  0  0  0  0  0  0
    3.4617   -5.4045    0.0000 C   0  0  0  0  0  0  0  0  0  0  0  0
    5.8878   -1.4399    0.0000 N   0  0  0  0  0  0  0  0  0  0  0  0
    5.7596   -2.7516    0.0000 N   0  0  0  0  0  0  0  0  0  0  0  0
    6.9825   -3.2940    0.0000 N   0  0  0  0  0  0  0  0  0  0  0  0
    7.8603   -2.2979    0.0000 C   0  0  0  0  0  0  0  0  0  0  0  0
    7.2094   -1.1539    0.0000 C   0  0  0  0  0  0  0  0  0  0  0  0
    7.8603    0.0000    0.0000 C   0  0  0  0  0  0  0  0  0  0  0  0
    9.1917    0.0000    0.0000 C   0  0  0  0  0  0  0  0  0  0  0  0
    9.8623   -1.1539    0.0000 C   0  0  0  0  0  0  0  0  0  0  0  0
    9.1917   -2.2979    0.0000 C   0  0  0  0  0  0  0  0  0  0  0  0
    3.4617   -6.7360    0.0000 C   0  0  0  0  0  0  0  0  0  0  0  0
    3.4617   -8.0674    0.0000 C   0  0  0  0  0  0  0  0  0  0  0  0
    4.6156   -8.7380    0.0000 C   0  0  0  0  0  0  0  0  0  0  0  0
    2.1303   -6.7360    0.0000 C   0  0  0  0  0  0  0  0  0  0  0  0
    4.7832   -6.7360    0.0000 C   0  0  0  0  0  0  0  0  0  0  0  0
    1.1539   -2.7516    0.0000 C   0  0  0  0  0  0  0  0  0  0  0  0
    0.0000   -2.0908    0.0000 C   0  0  0  0  0  0  0  0  0  0  0  0
    0.0000   -0.7693    0.0000 C   0  0  0  0  0  0  0  0  0  0  0  0
    1.8245   -1.5977    0.0000 C   0  0  0  0  0  0  0  0  0  0  0  0
    0.4931   -3.9055    0.0000 C   0  0  0  0  0  0  0  0  0  0  0  0
  1  2  1  0  0  0  0
  1  3  2  0  0  0  0
  1  4  1  0  0  0  0
  3  6  1  0  0  0  0
  3  9  1  0  0  0  0
  4  5  2  0  0  0  0
  4 22  1  0  0  0  0
  5  7  1  0  0  0  0
  6  7  2  0  0  0  0
  7 17  1  0  0  0  0
  8  9  1  0  0  0  0
  8 12  2  0  0  0  0
  9 10  1  0  0  0  0
 10 11  2  0  0  0  0
 11 12  1  0  0  0  0
 11 16  1  0  0  0  0
 12 13  1  0  0  0  0
 13 14  2  0  0  0  0
 14 15  1  0  0  0  0
 15 16  2  0  0  0  0
 17 18  1  0  0  0  0
 17 20  1  0  0  0  0
 17 21  1  0  0  0  0
 18 19  1  0  0  0  0
 22 23  1  0  0  0  0
 22 25  1  0  0  0  0
 22 26  1  0  0  0  0
 23 24  1  0  0  0  0
M  END
> <ID>
5474

> <Formula>
C22H29N3O

> <FW>
351.4852

> <DSSTox_CID>
7886

> <DSSTox_RID>
78603

> <DSSTox_GSID>
27886

> <DSSTox_FileID_Sort>
3285

> <TS_ChemName>
2-(2H-Benzotriazol-2-yl)-4,6-bis(1,1-dimethylpropyl)phenol

> <TS_ChemName_Synonyms>


> <TS_CASRN>
25973-55-1

> <CASRN_ChemName_Relationship>
primary

> <TS_Description>
single chemical compound

> <ChemNote>


> <STRUCTURE_Shown>
tested chemical

> <STRUCTURE_Formula>
C22H29N3O

> <STRUCTURE_MW>
351.4852

> <STRUCTURE_ChemType>
defined organic

> <STRUCTURE_DefinedOrganicForm>
parent

> <STRUCTURE_IUPAC>
2-(2H-benzotriazol-2-yl)-4,6-bis(2-methylbutan-2-yl)phenol

> <STRUCTURE_SMILES>
CC(C)(CC)c1cc(c(O)c(c1)C(C)(C)CC)n2nc3ccccc3n2

> <STRUCTURE_SMILES_Desalt>
CC(C)(CC)c1cc(c(O)c(c1)C(C)(C)CC)n2nc3ccccc3n2

> <Substance_modify_yyyymmdd>
20080429

$$$$
