2597-03-7
ChemmineR-0915142007XD

 19 19  0  0  0  0  0  0  0  0  1 V2000
    4.6260   -3.3241    0.0000 C   0  0  0  0  0  0  0  0  0  0  0  0
    5.7617   -3.9981    0.0000 C   0  0  0  0  0  0  0  0  0  0  0  0
    5.7617   -5.3370    0.0000 C   0  0  0  0  0  0  0  0  0  0  0  0
    4.6260   -5.9926    0.0000 C   0  0  0  0  0  0  0  0  0  0  0  0
    3.4718   -5.3370    0.0000 C   0  0  0  0  0  0  0  0  0  0  0  0
    3.4718   -3.9981    0.0000 C   0  0  0  0  0  0  0  0  0  0  0  0
    3.4718   -1.3389    0.0000 C   0  0  0  0  0  0  0  0  0  0  0  0
    3.4718    0.0000    0.0000 O   0  0  0  0  0  0  0  0  0  0  0  0
    2.3084   -1.9944    0.0000 O   0  0  0  0  0  0  0  0  0  0  0  0
    4.6260   -1.9944    0.0000 C   0  0  0  0  0  0  0  0  0  0  0  0
    5.7617   -1.3389    0.0000 S   0  0  0  0  0  0  0  0  0  0  0  0
    6.9251   -1.9944    0.0000 P   0  0  0  0  0  0  0  0  0  0  0  0
    7.5992   -0.8495    0.0000 O   0  0  0  0  0  0  0  0  0  0  0  0
    8.9288   -0.8495    0.0000 C   0  0  0  0  0  0  0  0  0  0  0  0
    8.0793   -2.6685    0.0000 O   0  0  0  0  0  0  0  0  0  0  0  0
    9.2335   -1.9944    0.0000 C   0  0  0  0  0  0  0  0  0  0  0  0
    1.1542   -1.3389    0.0000 C   0  0  0  0  0  0  0  0  0  0  0  0
    0.0000   -1.9944    0.0000 C   0  0  0  0  0  0  0  0  0  0  0  0
    6.2603   -3.1486    0.0000 S   0  0  0  0  0  0  0  0  0  0  0  0
  1  2  1  0  0  0  0
  1  6  2  0  0  0  0
  1 10  1  0  0  0  0
  2  3  2  0  0  0  0
  3  4  1  0  0  0  0
  4  5  2  0  0  0  0
  5  6  1  0  0  0  0
  7  8  2  0  0  0  0
  7  9  1  0  0  0  0
  7 10  1  0  0  0  0
  9 17  1  0  0  0  0
 10 11  1  0  0  0  0
 11 12  1  0  0  0  0
 12 13  1  0  0  0  0
 12 15  1  0  0  0  0
 12 19  2  0  0  0  0
 13 14  1  0  0  0  0
 15 16  1  0  0  0  0
 17 18  1  0  0  0  0
M  END
> <ID>
9208

> <Formula>
C12H17O4PS2

> <FW>
320.3647

> <DSSTox_CID>
22280

> <DSSTox_RID>
79987

> <DSSTox_GSID>
42280

> <DSSTox_FileID_Sort>
4669

> <TS_ChemName>
Phenthoate

> <TS_ChemName_Synonyms>


> <TS_CASRN>
2597-03-7

> <CASRN_ChemName_Relationship>
primary

> <TS_Description>
single chemical compound

> <ChemNote>


> <STRUCTURE_Shown>
tested chemical

> <STRUCTURE_Formula>
C12H17O4PS2

> <STRUCTURE_MW>
320.3647

> <STRUCTURE_ChemType>
defined organic

> <STRUCTURE_DefinedOrganicForm>
parent

> <STRUCTURE_IUPAC>
ethyl [(dimethoxyphosphorothioyl)sulfanyl](phenyl)acetate

> <STRUCTURE_SMILES>
O=C(OCC)C(SP(=S)(OC)OC)c1ccccc1

> <STRUCTURE_SMILES_Desalt>
O=C(OCC)C(SP(=S)(OC)OC)c1ccccc1

> <Substance_modify_yyyymmdd>
20080825

$$$$
