25999-20-6
ChemmineR-0915142007XD

 45 46  0  0  1  0  0  0  0  0  2 V2000
    2.1394    0.0000    0.0000 Na   0  3  0  0  0  0  0  0  0  0  0  0
    3.4467   -3.6250    0.0000 C    0  0  0  0  0  0  0  0  0  0  0  0
    3.4467   -4.9324    0.0000 C    0  0  0  0  0  0  0  0  0  0  0  0
    2.2978   -2.9515    0.0000 C    0  0  0  0  0  0  0  0  0  0  0  0
    2.2978   -5.6059    0.0000 C    0  0  0  0  0  0  0  0  0  0  0  0
    1.1687   -3.6250    0.0000 C    0  0  0  0  0  0  0  0  0  0  0  0
    1.1687   -4.9324    0.0000 C    0  0  0  0  0  0  0  0  0  0  0  0
    2.2978   -1.6243    0.0000 C    0  0  0  0  0  0  0  0  0  0  0  0
    1.1687   -0.9706    0.0000 O    0  0  0  0  0  0  0  0  0  0  0  0
    3.4467   -0.9508    0.0000 O    0  5  0  0  0  0  0  0  0  0  0  0
    0.0000   -2.9515    0.0000 O    0  0  0  0  0  0  0  0  0  0  0  0
    0.0000   -5.6059    0.0000 C    0  0  0  0  0  0  0  0  0  0  0  0
    4.6155   -2.9515    0.0000 C    0  0  0  0  0  0  0  0  0  0  0  0
    5.7644   -3.6052    0.0000 C    0  0  0  0  0  0  0  0  0  0  0  0
    6.9133   -2.9515    0.0000 C    0  0  0  0  0  0  0  0  0  0  0  0
    8.0622   -3.6052    0.0000 C    0  0  0  0  0  0  0  0  0  0  0  0
    6.9133   -1.6243    0.0000 C    0  0  0  0  0  0  0  0  0  0  0  0
    8.0622   -4.9324    0.0000 O    0  0  0  0  0  0  0  0  0  0  0  0
    9.2309   -2.9515    0.0000 C    0  0  0  0  0  0  0  0  0  0  0  0
   10.3798   -3.6052    0.0000 C    0  0  0  0  0  0  0  0  0  0  0  0
   11.5287   -2.9515    0.0000 C    0  0  0  0  0  0  0  0  0  0  0  0
   10.3798   -4.9324    0.0000 O    0  0  0  0  0  0  0  0  0  0  0  0
   11.5287   -1.6243    0.0000 C    0  0  0  0  0  0  0  0  0  0  0  0
   10.3798   -0.9508    0.0000 C    0  0  0  0  0  0  0  0  0  0  0  0
    9.2309   -1.6243    0.0000 C    0  0  0  0  0  0  0  0  0  0  0  0
   12.6974   -3.6052    0.0000 C    0  0  0  0  0  0  0  0  0  0  0  0
   13.7671   -2.8327    0.0000 C    0  0  0  0  0  0  0  0  0  0  0  0
   13.1134   -4.8928    0.0000 O    0  0  0  0  0  0  0  0  0  0  0  0
   14.8566   -3.6052    0.0000 C    0  0  0  0  0  0  0  0  0  0  0  0
   14.4406   -4.8928    0.0000 C    0  0  0  0  0  0  0  0  0  0  0  0
   15.2330   -5.9426    0.0000 C    0  0  0  0  0  0  0  0  0  0  0  0
   17.5308   -5.9426    0.0000 C    0  0  0  0  0  0  0  0  0  0  0  0
   17.5308   -7.3095    0.0000 C    0  0  0  0  0  0  0  0  0  0  0  0
   16.3819   -5.3088    0.0000 C    0  0  0  0  0  0  0  0  0  0  0  0
   16.3819   -7.9829    0.0000 C    0  0  0  0  0  0  0  0  0  0  0  0
   15.2330   -7.3095    0.0000 O    0  0  0  0  0  0  0  0  0  0  0  0
   15.7678   -4.8928    0.0000 C    0  0  0  0  0  0  0  0  0  0  0  0
   16.1244   -3.6052    0.0000 C    0  0  0  0  0  0  0  0  0  0  0  0
   16.3819   -9.3101    0.0000 C    0  0  0  0  0  0  0  0  0  0  0  0
   18.8778   -7.3095    0.0000 O    0  0  0  0  0  0  0  0  0  0  0  0
   18.4816   -8.2405    0.0000 C    0  0  0  0  0  0  0  0  0  0  0  0
   19.8088   -8.2405    0.0000 C    0  0  0  0  0  0  0  0  0  0  0  0
   13.7671   -1.5055    0.0000 C    0  0  0  0  0  0  0  0  0  0  0  0
   11.5485   -4.2787    0.0000 H    0  0  0  0  0  0  0  0  0  0  0  0
   13.9058   -5.9426    0.0000 H    0  0  0  0  0  0  0  0  0  0  0  0
  2  3  1  0  0  0  0
  2  4  2  0  0  0  0
  2 13  1  0  0  0  0
  3  5  2  0  0  0  0
  4  6  1  0  0  0  0
  4  8  1  0  0  0  0
  5  7  1  0  0  0  0
  6  7  2  0  0  0  0
  6 11  1  0  0  0  0
  7 12  1  0  0  0  0
  8  9  2  0  0  0  0
  8 10  1  0  0  0  0
 13 14  1  0  0  0  0
 14 15  1  0  0  0  0
 15 16  1  0  0  0  0
 15 17  1  1  0  0  0
 16 18  1  1  0  0  0
 16 19  1  0  0  0  0
 19 20  1  0  0  0  0
 19 25  1  6  0  0  0
 20 21  1  0  0  0  0
 20 22  2  0  0  0  0
 21 23  1  6  0  0  0
 21 26  1  0  0  0  0
 23 24  1  0  0  0  0
 26 27  1  0  0  0  0
 26 28  1  0  0  0  0
 26 44  1  1  0  0  0
 27 29  1  0  0  0  0
 27 43  1  1  0  0  0
 28 30  1  0  0  0  0
 29 30  1  0  0  0  0
 30 31  1  0  0  0  0
 30 37  1  6  0  0  0
 31 34  1  0  0  0  0
 31 36  1  0  0  0  0
 31 45  1  6  0  0  0
 32 33  1  0  0  0  0
 32 34  1  0  0  0  0
 33 35  1  0  0  0  0
 33 40  1  1  0  0  0
 33 41  1  0  0  0  0
 35 36  1  0  0  0  0
 35 39  1  6  0  0  0
 37 38  1  0  0  0  0
 41 42  1  0  0  0  0
M  END
> <ID>
11275

> <Formula>
C34H53NaO8

> <FW>
612.7696 (22.9892+589.7804)

> <DSSTox_CID>
25895

> <DSSTox_RID>
81207

> <DSSTox_GSID>
45895

> <DSSTox_FileID_Sort>
5888

> <TS_ChemName>
Lasalocid sodium

> <TS_ChemName_Synonyms>


> <TS_CASRN>
25999-20-6

> <CASRN_ChemName_Relationship>
primary

> <TS_Description>
single chemical compound

> <ChemNote>
stereochem; parent [25999-31-9]

> <STRUCTURE_Shown>
tested chemical

> <STRUCTURE_Formula>
C34H53NaO8

> <STRUCTURE_MW>
612.7696

> <STRUCTURE_ChemType>
defined organic

> <STRUCTURE_DefinedOrganicForm>
salt

> <STRUCTURE_IUPAC>
sodium 6-[(3R,4S,5S,7R)-7-{(2S,3S,5S)-5-ethyl-5-[(2R,5R,6S)-5-ethyl-5-hydroxy-6-methyltetrahydro-2H-pyran-2-yl]-3-methyltetrahydrofuran-2-yl}-4-hydroxy-3,5-dimethyl-6-oxononyl]-2-hydroxy-3-methylbenzoate

> <STRUCTURE_SMILES>
[Na+].C[C@H]2C[C@](CC)(O[C@@H]2[C@@H](CC)C(=O)[C@@H](C)[C@@H](O)[C@H](C)CCc1ccc(C)c(O)c1C([O-])=O)[C@H]3CC[C@](O)(CC)[C@H](C)O3

> <STRUCTURE_SMILES_Desalt>
C[C@H]2C[C@](CC)(O[C@@H]2[C@@H](CC)C(=O)[C@@H](C)[C@@H](O)[C@H](C)CCc1ccc(C)c(O)c1C(=O)O)[C@H]3CC[C@](O)(CC)[C@H](C)O3

> <Substance_modify_yyyymmdd>
20110922

$$$$
