26002-80-2
ChemmineR-0915142007XD

 26 28  0  0  1  0  0  0  0  0  1 V2000
    4.1633   -1.0861    0.0000 C   0  0  0  0  0  0  0  0  0  0  0  0
    3.4722   -2.2380    0.0000 C   0  0  0  0  0  0  0  0  0  0  0  0
    4.8215   -2.2380    0.0000 C   0  0  0  0  0  0  0  0  0  0  0  0
    5.9899   -2.9127    0.0000 C   0  0  0  0  0  0  0  0  0  0  0  0
    2.3367   -2.8962    0.0000 C   0  0  0  0  0  0  0  0  0  0  0  0
    7.1583   -2.2544    0.0000 O   0  0  0  0  0  0  0  0  0  0  0  0
    1.1684   -2.2380    0.0000 C   0  0  0  0  0  0  0  0  0  0  0  0
    5.9899   -4.2127    0.0000 O   0  0  0  0  0  0  0  0  0  0  0  0
   12.9672   -2.9291    0.0000 O   0  0  0  0  0  0  0  0  0  0  0  0
   11.8152   -2.2874    0.0000 C   0  0  0  0  0  0  0  0  0  0  0  0
    4.8215    0.0000    0.0000 C   0  0  0  0  0  0  0  0  0  0  0  0
    3.6203    0.0000    0.0000 C   0  0  0  0  0  0  0  0  0  0  0  0
   10.6304   -2.9456    0.0000 C   0  0  0  0  0  0  0  0  0  0  0  0
    8.3102   -2.9127    0.0000 C   0  0  0  0  0  0  0  0  0  0  0  0
    9.4785   -2.2709    0.0000 C   0  0  0  0  0  0  0  0  0  0  0  0
   14.1355   -2.2544    0.0000 C   0  0  0  0  0  0  0  0  0  0  0  0
   10.6304   -0.2304    0.0000 C   0  0  0  0  0  0  0  0  0  0  0  0
   11.8152   -0.9380    0.0000 C   0  0  0  0  0  0  0  0  0  0  0  0
    0.0000   -2.8468    0.0000 C   0  0  0  0  0  0  0  0  0  0  0  0
    1.1684   -0.9051    0.0000 C   0  0  0  0  0  0  0  0  0  0  0  0
    9.4785   -0.9380    0.0000 C   0  0  0  0  0  0  0  0  0  0  0  0
   14.1355   -0.9380    0.0000 C   0  0  0  0  0  0  0  0  0  0  0  0
   15.3203   -2.9291    0.0000 C   0  0  0  0  0  0  0  0  0  0  0  0
   16.4558   -2.2874    0.0000 C   0  0  0  0  0  0  0  0  0  0  0  0
   15.2545   -0.2797    0.0000 C   0  0  0  0  0  0  0  0  0  0  0  0
   16.4558   -0.9215    0.0000 C   0  0  0  0  0  0  0  0  0  0  0  0
  1  2  1  0  0  0  0
  1  3  1  0  0  0  0
  1 11  1  0  0  0  0
  1 12  1  0  0  0  0
  2  5  1  0  0  0  0
  2  3  1  0  0  0  0
  4  3  1  6  0  0  0
  4  6  1  0  0  0  0
  4  8  2  0  0  0  0
  5  7  2  0  0  0  0
  6 14  1  0  0  0  0
  7 19  1  0  0  0  0
  7 20  1  0  0  0  0
  9 10  1  0  0  0  0
  9 16  1  0  0  0  0
 10 13  2  0  0  0  0
 10 18  1  0  0  0  0
 13 15  1  0  0  0  0
 14 15  1  0  0  0  0
 15 21  2  0  0  0  0
 16 22  1  0  0  0  0
 16 23  2  0  0  0  0
 17 21  1  0  0  0  0
 17 18  2  0  0  0  0
 22 25  2  0  0  0  0
 23 24  1  0  0  0  0
 24 26  2  0  0  0  0
 25 26  1  0  0  0  0
M  END
> <ID>
6579

> <Formula>
C23H26O3

> <FW>
350.4507

> <DSSTox_CID>
12688

> <DSSTox_RID>
79033

> <DSSTox_GSID>
32688

> <DSSTox_FileID_Sort>
3715

> <TS_ChemName>
Phenothrin

> <TS_ChemName_Synonyms>
Sumithrin

> <TS_CASRN>
26002-80-2

> <CASRN_ChemName_Relationship>
primary

> <TS_Description>
mixture of Z,E isomers

> <ChemNote>
commercial product is a 4:1 mixture of (1R,trans): (1R, cis); structure shown trans; stereochem

> <STRUCTURE_Shown>
representative isomer in mixture

> <STRUCTURE_Formula>
C23H26O3

> <STRUCTURE_MW>
350.4507

> <STRUCTURE_ChemType>
defined organic

> <STRUCTURE_DefinedOrganicForm>
parent

> <STRUCTURE_IUPAC>
3-phenoxybenzyl (1R)-2,2-dimethyl-3-(2-methylprop-1-en-1-yl)cyclopropanecarboxylate

> <STRUCTURE_SMILES>
C/C(C)=C/C3C(C(=O)OCc2cccc(Oc1ccccc1)c2)C3(C)C

> <STRUCTURE_SMILES_Desalt>
C/C(C)=C/C3C(C(=O)OCc2cccc(Oc1ccccc1)c2)C3(C)C

> <Substance_modify_yyyymmdd>
20131003

$$$$
