26016-98-8
ChemmineR-0915142007XD

  9  8  0  0  1  0  0  0  0  0  2 V2000
    5.5821   -1.2504    0.0000 Ca   0  2  0  0  0  0  0  0  0  0  0  0
    0.0000   -1.8254    0.0000 C    0  0  0  0  0  0  0  0  0  0  0  0
    1.1499   -1.1499    0.0000 C    0  0  0  0  0  0  0  0  0  0  0  0
    1.8254    0.0000    0.0000 O    0  0  0  0  0  0  0  0  0  0  0  0
    2.4785   -1.1499    0.0000 C    0  0  0  0  0  0  0  0  0  0  0  0
    3.6284   -1.8254    0.0000 P    0  0  0  0  0  0  0  0  0  0  0  0
    4.3038   -0.6699    0.0000 O    0  5  0  0  0  0  0  0  0  0  0  0
    4.7839   -2.4785    0.0000 O    0  5  0  0  0  0  0  0  0  0  0  0
    2.9753   -2.9753    0.0000 O    0  0  0  0  0  0  0  0  0  0  0  0
  3  2  1  6  0  0  0
  3  4  1  0  0  0  0
  3  5  1  0  0  0  0
  4  5  1  0  0  0  0
  5  6  1  6  0  0  0
  6  7  1  0  0  0  0
  6  8  1  0  0  0  0
  6  9  2  0  0  0  0
M  END
> <ID>
11259

> <Formula>
C3H5CaO4P

> <FW>
176.1212 (40.0769+136.0443)

> <DSSTox_CID>
25873

> <DSSTox_RID>
81191

> <DSSTox_GSID>
45873

> <DSSTox_FileID_Sort>
5872

> <TS_ChemName>
Fosfomycin calcium

> <TS_ChemName_Synonyms>


> <TS_CASRN>
26016-98-8

> <CASRN_ChemName_Relationship>
primary

> <TS_Description>
single chemical compound

> <ChemNote>
stereochem; parent [23155-02-4]

> <STRUCTURE_Shown>
tested chemical

> <STRUCTURE_Formula>
C3H5CaO4P

> <STRUCTURE_MW>
176.1212

> <STRUCTURE_ChemType>
defined organic

> <STRUCTURE_DefinedOrganicForm>
salt

> <STRUCTURE_IUPAC>
calcium [(2R,3S)-3-methyloxiran-2-yl]phosphonate

> <STRUCTURE_SMILES>
[Ca+2].[O-]P([O-])(=O)[C@H]1O[C@H]1C

> <STRUCTURE_SMILES_Desalt>
O=P(O)(O)[C@H]1O[C@H]1C

> <Substance_modify_yyyymmdd>
20110922

$$$$
