26040-51-7
ChemmineR-0915142007XD

 32 32  0  0  0  0  0  0  0  0  1 V2000
    4.6658   -8.0532    0.0000 C    0  0  0  0  0  0  0  0  0  0  0  0
    3.9840   -9.2037    0.0000 C    0  0  0  0  0  0  0  0  0  0  0  0
    2.6631   -9.2037    0.0000 C    0  0  0  0  0  0  0  0  0  0  0  0
    2.0027   -8.0532    0.0000 C    0  0  0  0  0  0  0  0  0  0  0  0
    2.6631   -6.9028    0.0000 C    0  0  0  0  0  0  0  0  0  0  0  0
    3.9840   -6.9028    0.0000 C    0  0  0  0  0  0  0  0  0  0  0  0
    5.9867   -8.0532    0.0000 C    0  0  0  0  0  0  0  0  0  0  0  0
    6.6684   -9.2037    0.0000 O    0  0  0  0  0  0  0  0  0  0  0  0
    6.6684   -6.9028    0.0000 O    0  0  0  0  0  0  0  0  0  0  0  0
    4.6658   -5.7417    0.0000 C    0  0  0  0  0  0  0  0  0  0  0  0
    5.9867   -5.7417    0.0000 O    0  0  0  0  0  0  0  0  0  0  0  0
    3.9840   -4.5912    0.0000 O    0  0  0  0  0  0  0  0  0  0  0  0
    2.0027   -5.7417    0.0000 Br   0  0  0  0  0  0  0  0  0  0  0  0
    0.6711   -8.0532    0.0000 Br   0  0  0  0  0  0  0  0  0  0  0  0
    2.0027  -10.3435    0.0000 Br   0  0  0  0  0  0  0  0  0  0  0  0
    4.6658  -10.3435    0.0000 Br   0  0  0  0  0  0  0  0  0  0  0  0
    7.9893   -6.9028    0.0000 C    0  0  0  0  0  0  0  0  0  0  0  0
    8.6498   -5.7417    0.0000 C    0  0  0  0  0  0  0  0  0  0  0  0
    7.9893   -4.5912    0.0000 C    0  0  0  0  0  0  0  0  0  0  0  0
    8.6498   -3.4407    0.0000 C    0  0  0  0  0  0  0  0  0  0  0  0
    7.9893   -2.2903    0.0000 C    0  0  0  0  0  0  0  0  0  0  0  0
    8.6498   -1.1292    0.0000 C    0  0  0  0  0  0  0  0  0  0  0  0
    9.9813   -5.7417    0.0000 C    0  0  0  0  0  0  0  0  0  0  0  0
   10.6524   -4.5912    0.0000 C    0  0  0  0  0  0  0  0  0  0  0  0
    4.6658   -3.4407    0.0000 C    0  0  0  0  0  0  0  0  0  0  0  0
    3.9840   -2.2903    0.0000 C    0  0  0  0  0  0  0  0  0  0  0  0
    2.6631   -2.2903    0.0000 C    0  0  0  0  0  0  0  0  0  0  0  0
    2.0027   -1.1292    0.0000 C    0  0  0  0  0  0  0  0  0  0  0  0
    0.6711   -1.1292    0.0000 C    0  0  0  0  0  0  0  0  0  0  0  0
    0.0000    0.0000    0.0000 C    0  0  0  0  0  0  0  0  0  0  0  0
    4.6658   -1.1292    0.0000 C    0  0  0  0  0  0  0  0  0  0  0  0
    3.9840    0.0000    0.0000 C    0  0  0  0  0  0  0  0  0  0  0  0
  1  2  2  0  0  0  0
  1  6  1  0  0  0  0
  1  7  1  0  0  0  0
  2  3  1  0  0  0  0
  2 16  1  0  0  0  0
  3  4  2  0  0  0  0
  3 15  1  0  0  0  0
  4  5  1  0  0  0  0
  4 14  1  0  0  0  0
  5  6  2  0  0  0  0
  5 13  1  0  0  0  0
  6 10  1  0  0  0  0
  7  8  2  0  0  0  0
  7  9  1  0  0  0  0
  9 17  1  0  0  0  0
 10 11  2  0  0  0  0
 10 12  1  0  0  0  0
 12 25  1  0  0  0  0
 17 18  1  0  0  0  0
 18 19  1  0  0  0  0
 18 23  1  0  0  0  0
 19 20  1  0  0  0  0
 20 21  1  0  0  0  0
 21 22  1  0  0  0  0
 23 24  1  0  0  0  0
 25 26  1  0  0  0  0
 26 27  1  0  0  0  0
 26 31  1  0  0  0  0
 27 28  1  0  0  0  0
 28 29  1  0  0  0  0
 29 30  1  0  0  0  0
 31 32  1  0  0  0  0
M  END
> <ID>
5475

> <Formula>
C24H34Br4O4

> <FW>
706.1404

> <DSSTox_CID>
7887

> <DSSTox_RID>
78604

> <DSSTox_GSID>
27887

> <DSSTox_FileID_Sort>
3286

> <TS_ChemName>
Bis(2-ethylhexyl) tetrabromophthalate

> <TS_ChemName_Synonyms>
Bis(2-ethylhexyl) 3,4,5,6-tetrabromophthalate (1,2-Benzenedicarboxylic acid, 3,4,5,6-tetrabromo-, bis(2-ethylhexyl) ester)

> <TS_CASRN>
26040-51-7

> <CASRN_ChemName_Relationship>
primary

> <TS_Description>
single chemical compound

> <ChemNote>


> <STRUCTURE_Shown>
tested chemical

> <STRUCTURE_Formula>
C24H34Br4O4

> <STRUCTURE_MW>
706.1404

> <STRUCTURE_ChemType>
defined organic

> <STRUCTURE_DefinedOrganicForm>
parent

> <STRUCTURE_IUPAC>
bis(2-ethylhexyl) 3,4,5,6-tetrabromobenzene-1,2-dicarboxylate

> <STRUCTURE_SMILES>
Brc1c(c(c(Br)c(Br)c1Br)C(=O)OCC(CC)CCCC)C(=O)OCC(CC)CCCC

> <STRUCTURE_SMILES_Desalt>
Brc1c(c(c(Br)c(Br)c1Br)C(=O)OCC(CC)CCCC)C(=O)OCC(CC)CCCC

> <Substance_modify_yyyymmdd>
20080429

$$$$
