26049-70-7
ChemmineR-0915142007XD

 16 17  0  0  0  0  0  0  0  0  2 V2000
    4.3377   -1.1567    0.0000 C   0  0  0  0  0  0  0  0  0  0  0  0
    3.5528   -2.2308    0.0000 N   0  0  0  0  0  0  0  0  0  0  0  0
    2.2928   -1.8177    0.0000 C   0  0  0  0  0  0  0  0  0  0  0  0
    2.2928   -0.4854    0.0000 S   0  0  0  0  0  0  0  0  0  0  0  0
    3.5528   -0.0826    0.0000 C   0  0  0  0  0  0  0  0  0  0  0  0
    1.2187   -2.6026    0.0000 N   0  0  0  0  0  0  0  0  0  0  0  0
    0.0000   -2.0656    0.0000 N   0  0  0  0  0  0  0  0  0  0  0  0
    5.6700   -1.1567    0.0000 C   0  0  0  0  0  0  0  0  0  0  0  0
    6.3310    0.0000    0.0000 C   0  0  0  0  0  0  0  0  0  0  0  0
    7.6633    0.0000    0.0000 C   0  0  0  0  0  0  0  0  0  0  0  0
    8.3346   -1.1567    0.0000 C   0  0  0  0  0  0  0  0  0  0  0  0
    7.6633   -2.3031    0.0000 C   0  0  0  0  0  0  0  0  0  0  0  0
    6.3310   -2.3031    0.0000 C   0  0  0  0  0  0  0  0  0  0  0  0
    9.6669   -1.1567    0.0000 N   0  3  0  0  0  0  0  0  0  0  0  0
   10.3278    0.0000    0.0000 O   0  5  0  0  0  0  0  0  0  0  0  0
   10.3278   -2.3031    0.0000 O   0  0  0  0  0  0  0  0  0  0  0  0
  1  2  1  0  0  0  0
  1  5  2  0  0  0  0
  1  8  1  0  0  0  0
  2  3  2  0  0  0  0
  3  4  1  0  0  0  0
  3  6  1  0  0  0  0
  4  5  1  0  0  0  0
  6  7  1  0  0  0  0
  8  9  2  0  0  0  0
  8 13  1  0  0  0  0
  9 10  1  0  0  0  0
 10 11  2  0  0  0  0
 11 12  1  0  0  0  0
 11 14  1  0  0  0  0
 12 13  2  0  0  0  0
 14 15  1  0  0  0  0
 14 16  2  0  0  0  0
M  END
> <ID>
676

> <Formula>
C9H8N4O2S

> <FW>
236.2504

> <DSSTox_CID>
706

> <DSSTox_RID>
75747

> <DSSTox_GSID>
20706

> <DSSTox_FileID_Sort>
431

> <TS_ChemName>
2-Hydrazino-4-(4-nitrophenyl)thiazole

> <TS_ChemName_Synonyms>


> <TS_CASRN>
26049-70-7

> <CASRN_ChemName_Relationship>
primary

> <TS_Description>
single chemical compound

> <ChemNote>


> <STRUCTURE_Shown>
tested chemical

> <STRUCTURE_Formula>
C9H8N4O2S

> <STRUCTURE_MW>
236.2504

> <STRUCTURE_ChemType>
defined organic

> <STRUCTURE_DefinedOrganicForm>
parent

> <STRUCTURE_IUPAC>
2-hydrazinyl-4-(4-nitrophenyl)-1,3-thiazole

> <STRUCTURE_SMILES>
NNc1nc(cs1)c2ccc(cc2)[N+]([O-])=O

> <STRUCTURE_SMILES_Desalt>
NNc1nc(cs1)c2ccc(cc2)[N+]([O-])=O

> <Substance_modify_yyyymmdd>
20080429

$$$$
