2605-79-0
ChemmineR-0915142007XD

 14 13  0  0  0  0  0  0  0  0  2 V2000
   11.5527   -1.1311    0.0000 N   0  3  0  0  0  0  0  0  0  0  0  0
   12.2136    0.0000    0.0000 O   0  5  0  0  0  0  0  0  0  0  0  0
   10.3962   -0.4702    0.0000 C   0  0  0  0  0  0  0  0  0  0  0  0
    9.2269   -1.1311    0.0000 C   0  0  0  0  0  0  0  0  0  0  0  0
    8.0831   -0.4702    0.0000 C   0  0  0  0  0  0  0  0  0  0  0  0
    6.9265   -1.1311    0.0000 C   0  0  0  0  0  0  0  0  0  0  0  0
    5.7827   -0.4702    0.0000 C   0  0  0  0  0  0  0  0  0  0  0  0
    4.6262   -1.1311    0.0000 C   0  0  0  0  0  0  0  0  0  0  0  0
    3.4823   -0.4702    0.0000 C   0  0  0  0  0  0  0  0  0  0  0  0
    2.3258   -1.1311    0.0000 C   0  0  0  0  0  0  0  0  0  0  0  0
    1.1693   -0.4702    0.0000 C   0  0  0  0  0  0  0  0  0  0  0  0
    0.0000   -1.1311    0.0000 C   0  0  0  0  0  0  0  0  0  0  0  0
   10.8791   -2.2877    0.0000 C   0  0  0  0  0  0  0  0  0  0  0  0
   12.7092   -1.7920    0.0000 C   0  0  0  0  0  0  0  0  0  0  0  0
  1  2  1  0  0  0  0
  1  3  1  0  0  0  0
  1 13  1  0  0  0  0
  1 14  1  0  0  0  0
  3  4  1  0  0  0  0
  4  5  1  0  0  0  0
  5  6  1  0  0  0  0
  6  7  1  0  0  0  0
  7  8  1  0  0  0  0
  8  9  1  0  0  0  0
  9 10  1  0  0  0  0
 10 11  1  0  0  0  0
 11 12  1  0  0  0  0
M  END
> <ID>
9120

> <Formula>
C12H27NO

> <FW>
201.3489

> <DSSTox_CID>
22190

> <DSSTox_RID>
79950

> <DSSTox_GSID>
42190

> <DSSTox_FileID_Sort>
4632

> <TS_ChemName>
N,N-Dimethyldecylamine oxide

> <TS_ChemName_Synonyms>


> <TS_CASRN>
2605-79-0

> <CASRN_ChemName_Relationship>
primary

> <TS_Description>
single chemical compound

> <ChemNote>


> <STRUCTURE_Shown>
tested chemical

> <STRUCTURE_Formula>
C12H27NO

> <STRUCTURE_MW>
201.3489

> <STRUCTURE_ChemType>
defined organic

> <STRUCTURE_DefinedOrganicForm>
parent

> <STRUCTURE_IUPAC>
decyl(dimethyl)amine oxide

> <STRUCTURE_SMILES>
C[N+]([O-])(C)CCCCCCCCCC

> <STRUCTURE_SMILES_Desalt>
C[N+]([O-])(C)CCCCCCCCCC

> <Substance_modify_yyyymmdd>
20080825

$$$$
