2607-31-0
ChemmineR-0915142007XD

 25 26  0  0  0  0  0  0  0  0  1 V2000
   15.4798   -2.3065    0.0000 C    0  0  0  0  0  0  0  0  0  0  0  0
   14.8296   -1.1455    0.0000 C    0  0  0  0  0  0  0  0  0  0  0  0
   13.4984   -1.1455    0.0000 N    0  0  0  0  0  0  0  0  0  0  0  0
   12.8172    0.0000    0.0000 C    0  0  0  0  0  0  0  0  0  0  0  0
   11.4860    0.0000    0.0000 C    0  0  0  0  0  0  0  0  0  0  0  0
   12.8172   -2.3065    0.0000 C    0  0  0  0  0  0  0  0  0  0  0  0
   11.4860   -2.3065    0.0000 C    0  0  0  0  0  0  0  0  0  0  0  0
   10.8204   -3.4520    0.0000 O    0  0  0  0  0  0  0  0  0  0  0  0
    9.4891   -3.4520    0.0000 C    0  0  0  0  0  0  0  0  0  0  0  0
    8.8235   -4.5975    0.0000 C    0  0  0  0  0  0  0  0  0  0  0  0
    7.4922   -4.5975    0.0000 C    0  0  0  0  0  0  0  0  0  0  0  0
    6.8266   -3.4520    0.0000 C    0  0  0  0  0  0  0  0  0  0  0  0
    7.4922   -2.3065    0.0000 C    0  0  0  0  0  0  0  0  0  0  0  0
    8.8235   -2.3065    0.0000 C    0  0  0  0  0  0  0  0  0  0  0  0
    5.5108   -3.4520    0.0000 C    0  0  0  0  0  0  0  0  0  0  0  0
    4.7213   -4.5356    0.0000 N    0  0  0  0  0  0  0  0  0  0  0  0
    3.4520   -4.1331    0.0000 C    0  0  0  0  0  0  0  0  0  0  0  0
    2.3065   -4.7832    0.0000 C    0  0  0  0  0  0  0  0  0  0  0  0
    1.1455   -4.1331    0.0000 C    0  0  0  0  0  0  0  0  0  0  0  0
    1.1455   -2.8018    0.0000 C    0  0  0  0  0  0  0  0  0  0  0  0
    2.3065   -2.1207    0.0000 C    0  0  0  0  0  0  0  0  0  0  0  0
    3.4520   -2.8018    0.0000 C    0  0  0  0  0  0  0  0  0  0  0  0
    4.7213   -2.3839    0.0000 S    0  0  0  0  0  0  0  0  0  0  0  0
    0.0000   -4.7832    0.0000 Cl   0  0  0  0  0  0  0  0  0  0  0  0
   12.9875   -4.0557    0.0000 Cl   0  0  0  0  0  0  0  0  0  0  0  0
  1  2  1  0  0  0  0
  2  3  1  0  0  0  0
  3  4  1  0  0  0  0
  3  6  1  0  0  0  0
  4  5  1  0  0  0  0
  6  7  1  0  0  0  0
  7  8  1  0  0  0  0
  8  9  1  0  0  0  0
  9 10  2  0  0  0  0
  9 14  1  0  0  0  0
 10 11  1  0  0  0  0
 11 12  2  0  0  0  0
 12 13  1  0  0  0  0
 12 15  1  0  0  0  0
 13 14  2  0  0  0  0
 15 16  2  0  0  0  0
 15 23  1  0  0  0  0
 16 17  1  0  0  0  0
 17 18  2  0  0  0  0
 17 22  1  0  0  0  0
 18 19  1  0  0  0  0
 19 20  2  0  0  0  0
 19 24  1  0  0  0  0
 20 21  1  0  0  0  0
 21 22  2  0  0  0  0
 22 23  1  0  0  0  0
M  END
> <ID>
11531

> <Formula>
C19H22Cl2N2OS

> <FW>
397.3618 (360.9008+36.4609)

> <DSSTox_CID>
26237

> <DSSTox_RID>
81464

> <DSSTox_GSID>
46237

> <DSSTox_FileID_Sort>
6145

> <TS_ChemName>
Halethazole hydrochloride

> <TS_ChemName_Synonyms>


> <TS_CASRN>
2607-31-0

> <CASRN_ChemName_Relationship>
primary

> <TS_Description>
single chemical compound

> <ChemNote>
parent [15599-36-7]

> <STRUCTURE_Shown>
tested chemical

> <STRUCTURE_Formula>
C19H22Cl2N2OS

> <STRUCTURE_MW>
397.3618

> <STRUCTURE_ChemType>
defined organic

> <STRUCTURE_DefinedOrganicForm>
complex

> <STRUCTURE_IUPAC>
2-[4-(5-chloro-1,3-benzothiazol-2-yl)phenoxy]-N,N-diethylethanamine hydrochloride (1:1)

> <STRUCTURE_SMILES>
Cl.CCN(CC)CCOc1ccc(cc1)c2nc3cc(Cl)ccc3s2

> <STRUCTURE_SMILES_Desalt>
CCN(CC)CCOc1ccc(cc1)c2nc3cc(Cl)ccc3s2

> <Substance_modify_yyyymmdd>
20110817

$$$$
