26097-80-3
ChemmineR-0915142007XD

 21 23  0  0  0  0  0  0  0  0  1 V2000
   10.1035   -1.3220    0.0000 C   0  0  0  0  0  0  0  0  0  0  0  0
    9.3481   -0.2563    0.0000 N   0  0  0  0  0  0  0  0  0  0  0  0
   11.4390   -1.3220    0.0000 C   0  0  0  0  0  0  0  0  0  0  0  0
    9.3481   -2.4011    0.0000 N   0  0  0  0  0  0  0  0  0  0  0  0
    8.0531   -0.6610    0.0000 C   0  0  0  0  0  0  0  0  0  0  0  0
    3.4398   -0.6610    0.0000 C   0  0  0  0  0  0  0  0  0  0  0  0
   12.2348   -0.2563    0.0000 N   0  0  0  0  0  0  0  0  0  0  0  0
    8.0531   -1.9964    0.0000 C   0  0  0  0  0  0  0  0  0  0  0  0
    6.9065    0.0000    0.0000 C   0  0  0  0  0  0  0  0  0  0  0  0
    4.6134    0.0000    0.0000 N   0  0  0  0  0  0  0  0  0  0  0  0
   13.4893   -1.9964    0.0000 S   0  0  0  0  0  0  0  0  0  0  0  0
   13.4893   -0.6610    0.0000 C   0  0  0  0  0  0  0  0  0  0  0  0
   12.2348   -2.4011    0.0000 C   0  0  0  0  0  0  0  0  0  0  0  0
    5.7465   -0.6610    0.0000 C   0  0  0  0  0  0  0  0  0  0  0  0
    3.4398   -1.9964    0.0000 O   0  0  0  0  0  0  0  0  0  0  0  0
    2.2932    0.0000    0.0000 O   0  0  0  0  0  0  0  0  0  0  0  0
    6.9065   -2.6439    0.0000 C   0  0  0  0  0  0  0  0  0  0  0  0
    5.7465   -1.9964    0.0000 C   0  0  0  0  0  0  0  0  0  0  0  0
    1.1466   -0.6610    0.0000 C   0  0  0  0  0  0  0  0  0  0  0  0
    0.0000    0.0000    0.0000 C   0  0  0  0  0  0  0  0  0  0  0  0
    1.1466   -1.9964    0.0000 C   0  0  0  0  0  0  0  0  0  0  0  0
  1  2  2  0  0  0  0
  1  3  1  0  0  0  0
  1  4  1  0  0  0  0
  2  5  1  0  0  0  0
  3  7  1  0  0  0  0
  3 13  2  0  0  0  0
  4  8  1  0  0  0  0
  5  9  1  0  0  0  0
  5  8  2  0  0  0  0
  6 10  1  0  0  0  0
  6 15  2  0  0  0  0
  6 16  1  0  0  0  0
  7 12  2  0  0  0  0
  8 17  1  0  0  0  0
  9 14  2  0  0  0  0
 10 14  1  0  0  0  0
 11 13  1  0  0  0  0
 11 12  1  0  0  0  0
 14 18  1  0  0  0  0
 16 19  1  0  0  0  0
 17 18  2  0  0  0  0
 19 20  1  0  0  0  0
 19 21  1  0  0  0  0
M  END
> <ID>
12024

> <Formula>
C14H14N4O2S

> <FW>
302.3516

> <DSSTox_CID>
26852

> <DSSTox_RID>
81961

> <DSSTox_GSID>
46852

> <DSSTox_FileID_Sort>
6642

> <TS_ChemName>
Cambendazole

> <TS_ChemName_Synonyms>


> <TS_CASRN>
26097-80-3

> <CASRN_ChemName_Relationship>
primary

> <TS_Description>
single chemical compound

> <ChemNote>
tautomers

> <STRUCTURE_Shown>
tested chemical

> <STRUCTURE_Formula>
C14H14N4O2S

> <STRUCTURE_MW>
302.3516

> <STRUCTURE_ChemType>
defined organic

> <STRUCTURE_DefinedOrganicForm>
parent

> <STRUCTURE_IUPAC>
propan-2-yl [2-(1,3-thiazol-4-yl)-1H-benzimidazol-5-yl]carbamate

> <STRUCTURE_SMILES>
CC(C)OC(=O)Nc1cc2nc(nc2cc1)c3cscn3

> <STRUCTURE_SMILES_Desalt>
CC(C)OC(=O)Nc1cc2nc(nc2cc1)c3cscn3

> <Substance_modify_yyyymmdd>
20110729

$$$$
