26095-59-0
ChemmineR-0915142007XD

 36 36  0  0  0  0  0  0  0  0  2 V2000
    2.3060   -3.9992    0.0000 C    0  0  0  0  0  0  0  0  0  0  0  0
    2.3060   -2.6608    0.0000 C    0  0  0  0  0  0  0  0  0  0  0  0
    3.4509   -1.9996    0.0000 C    0  0  0  0  0  0  0  0  0  0  0  0
    3.4509   -0.6612    0.0000 C    0  0  0  0  0  0  0  0  0  0  0  0
    4.5959    0.0000    0.0000 C    0  0  0  0  0  0  0  0  0  0  0  0
    5.7569   -0.6612    0.0000 C    0  0  0  0  0  0  0  0  0  0  0  0
    6.9019    0.0000    0.0000 C    0  0  0  0  0  0  0  0  0  0  0  0
    8.0629   -0.6612    0.0000 C    0  0  0  0  0  0  0  0  0  0  0  0
    8.0629   -4.6442    0.0000 C    0  0  0  0  0  0  0  0  0  0  0  0
    9.2079   -3.9992    0.0000 C    0  0  0  0  0  0  0  0  0  0  0  0
   10.3689   -4.6442    0.0000 O    0  0  0  0  0  0  0  0  0  0  0  0
   11.5139   -3.9992    0.0000 C    0  0  0  0  0  0  0  0  0  0  0  0
   12.6588   -4.6442    0.0000 C    0  0  0  0  0  0  0  0  0  0  0  0
   13.8199   -3.9992    0.0000 N    0  3  0  0  0  0  0  0  0  0  0  0
    5.7569   -4.6442    0.0000 C    0  0  0  0  0  0  0  0  0  0  0  0
    5.7569   -5.9827    0.0000 C    0  0  0  0  0  0  0  0  0  0  0  0
    6.9019   -6.6439    0.0000 C    0  0  0  0  0  0  0  0  0  0  0  0
    8.0629   -5.9827    0.0000 C    0  0  0  0  0  0  0  0  0  0  0  0
    6.9019   -3.9992    0.0000 C    0  0  0  0  0  0  0  0  0  0  0  0
    9.2079   -2.6608    0.0000 O    0  0  0  0  0  0  0  0  0  0  0  0
    1.1449   -8.6435    0.0000 C    0  0  0  0  0  0  0  0  0  0  0  0
    0.0000   -7.9823    0.0000 C    0  0  0  0  0  0  0  0  0  0  0  0
    0.0000   -6.6439    0.0000 C    0  0  0  0  0  0  0  0  0  0  0  0
    1.1449   -5.9827    0.0000 C    0  0  0  0  0  0  0  0  0  0  0  0
    2.3060   -6.6439    0.0000 C    0  0  0  0  0  0  0  0  0  0  0  0
    2.3060   -7.9823    0.0000 C    0  0  0  0  0  0  0  0  0  0  0  0
    3.4509   -5.9827    0.0000 C    0  0  0  0  0  0  0  0  0  0  0  0
    4.5959   -6.6439    0.0000 N    0  0  0  0  0  0  0  0  0  0  0  0
    3.4509   -4.6442    0.0000 O    0  0  0  0  0  0  0  0  0  0  0  0
    1.1449   -4.6442    0.0000 O    0  0  0  0  0  0  0  0  0  0  0  0
   13.1426   -2.8382    0.0000 C    0  0  0  0  0  0  0  0  0  0  0  0
   14.4810   -5.1280    0.0000 C    0  0  0  0  0  0  0  0  0  0  0  0
   14.9648   -3.3219    0.0000 C    0  0  0  0  0  0  0  0  0  0  0  0
   13.8199   -1.6771    0.0000 C    0  0  0  0  0  0  0  0  0  0  0  0
   16.1259   -3.9992    0.0000 C    0  0  0  0  0  0  0  0  0  0  0  0
   13.3361   -6.4826    0.0000 Br   0  5  0  0  0  0  0  0  0  0  0  0
  1  2  1  0  0  0  0
  1 30  1  0  0  0  0
  2  3  1  0  0  0  0
  3  4  1  0  0  0  0
  4  5  1  0  0  0  0
  5  6  1  0  0  0  0
  6  7  1  0  0  0  0
  7  8  1  0  0  0  0
  9 19  2  0  0  0  0
  9 10  1  0  0  0  0
  9 18  1  0  0  0  0
 10 20  2  0  0  0  0
 10 11  1  0  0  0  0
 11 12  1  0  0  0  0
 12 13  1  0  0  0  0
 13 14  1  0  0  0  0
 14 31  1  0  0  0  0
 14 32  1  0  0  0  0
 14 33  1  0  0  0  0
 15 19  1  0  0  0  0
 15 16  2  0  0  0  0
 16 28  1  0  0  0  0
 16 17  1  0  0  0  0
 17 18  2  0  0  0  0
 21 22  2  0  0  0  0
 21 26  1  0  0  0  0
 22 23  1  0  0  0  0
 23 24  2  0  0  0  0
 24 25  1  0  0  0  0
 24 30  1  0  0  0  0
 25 26  2  0  0  0  0
 25 27  1  0  0  0  0
 27 28  1  0  0  0  0
 27 29  2  0  0  0  0
 31 34  1  0  0  0  0
 33 35  1  0  0  0  0
M  END
> <ID>
11626

> <Formula>
C29H43BrN2O4

> <FW>
563.5667 (483.6622+79.9045)

> <DSSTox_CID>
26357

> <DSSTox_RID>
81559

> <DSSTox_GSID>
46357

> <DSSTox_FileID_Sort>
6240

> <TS_ChemName>
Otilonium bromide

> <TS_ChemName_Synonyms>


> <TS_CASRN>
26095-59-0

> <CASRN_ChemName_Relationship>
primary

> <TS_Description>
single chemical compound

> <ChemNote>
ammonium; parent [105360-89-2]

> <STRUCTURE_Shown>
tested chemical

> <STRUCTURE_Formula>
C29H43BrN2O4

> <STRUCTURE_MW>
563.5667

> <STRUCTURE_ChemType>
defined organic

> <STRUCTURE_DefinedOrganicForm>
salt

> <STRUCTURE_IUPAC>
N,N-diethyl-N-methyl-2-[(4-{[2-(octyloxy)benzoyl]amino}benzoyl)oxy]ethanaminium bromide

> <STRUCTURE_SMILES>
[Br-].CC[N+](C)(CC)CCOC(=O)c1ccc(cc1)NC(=O)c2ccccc2OCCCCCCCC

> <STRUCTURE_SMILES_Desalt>
CC[N+](C)(CC)CCOC(=O)c1ccc(cc1)NC(=O)c2ccccc2OCCCCCCCC

> <Substance_modify_yyyymmdd>
20110814

$$$$
