2610-11-9
ChemmineR-0915142007XD

 46 48  0  0  0  0  0  0  0  0  2 V2000
    1.9886   -6.8956    0.0000 C    0  0  0  0  0  0  0  0  0  0  0  0
    3.3316   -6.8956    0.0000 C    0  0  0  0  0  0  0  0  0  0  0  0
    1.3171   -8.0319    0.0000 C    0  0  0  0  0  0  0  0  0  0  0  0
    3.9772   -8.0319    0.0000 C    0  0  0  0  0  0  0  0  0  0  0  0
    1.9886   -9.1941    0.0000 C    0  0  0  0  0  0  0  0  0  0  0  0
    3.3316   -9.1941    0.0000 C    0  0  0  0  0  0  0  0  0  0  0  0
    1.3171   -5.7334    0.0000 C    0  0  0  0  0  0  0  0  0  0  0  0
    1.9886   -4.5712    0.0000 N    0  0  0  0  0  0  0  0  0  0  0  0
    0.0000   -5.7334    0.0000 O    0  0  0  0  0  0  0  0  0  0  0  0
    3.3316   -4.5712    0.0000 C    0  0  0  0  0  0  0  0  0  0  0  0
    3.9772   -3.4349    0.0000 C    0  0  0  0  0  0  0  0  0  0  0  0
    3.9772   -5.7334    0.0000 C    0  0  0  0  0  0  0  0  0  0  0  0
    5.3202   -3.4349    0.0000 C    0  0  0  0  0  0  0  0  0  0  0  0
    5.3202   -5.7334    0.0000 C    0  0  0  0  0  0  0  0  0  0  0  0
    5.9917   -4.5712    0.0000 C    0  0  0  0  0  0  0  0  0  0  0  0
    5.9917   -2.2727    0.0000 C    0  0  0  0  0  0  0  0  0  0  0  0
    7.3088   -2.2727    0.0000 C    0  0  0  0  0  0  0  0  0  0  0  0
    7.3088   -4.5712    0.0000 C    0  0  0  0  0  0  0  0  0  0  0  0
    7.9803   -3.4349    0.0000 C    0  0  0  0  0  0  0  0  0  0  0  0
    7.9803   -1.1364    0.0000 S    0  0  0  0  0  0  0  0  0  0  0  0
    9.1166   -1.8078    0.0000 O    0  5  0  0  0  0  0  0  0  0  0  0
    6.8181   -0.4649    0.0000 O    0  0  0  0  0  0  0  0  0  0  0  0
    8.6518    0.0000    0.0000 O    0  0  0  0  0  0  0  0  0  0  0  0
    9.2974   -3.4349    0.0000 N    0  0  0  0  0  0  0  0  0  0  0  0
   10.6404   -3.4349    0.0000 N    0  0  0  0  0  0  0  0  0  0  0  0
    7.9803   -5.7334    0.0000 O    0  0  0  0  0  0  0  0  0  0  0  0
   11.9575   -3.4349    0.0000 C    0  0  0  0  0  0  0  0  0  0  0  0
   12.6290   -2.2727    0.0000 C    0  0  0  0  0  0  0  0  0  0  0  0
   12.6290   -4.5712    0.0000 C    0  0  0  0  0  0  0  0  0  0  0  0
   13.9720   -2.2727    0.0000 C    0  0  0  0  0  0  0  0  0  0  0  0
   13.9720   -4.5712    0.0000 C    0  0  0  0  0  0  0  0  0  0  0  0
   14.6176   -3.4349    0.0000 C    0  0  0  0  0  0  0  0  0  0  0  0
   15.9347   -3.4349    0.0000 N    0  0  0  0  0  0  0  0  0  0  0  0
   17.2777   -3.4349    0.0000 N    0  0  0  0  0  0  0  0  0  0  0  0
   18.5948   -3.4349    0.0000 C    0  0  0  0  0  0  0  0  0  0  0  0
   19.2663   -2.2727    0.0000 C    0  0  0  0  0  0  0  0  0  0  0  0
   19.2663   -4.5712    0.0000 C    0  0  0  0  0  0  0  0  0  0  0  0
   20.6093   -2.2727    0.0000 C    0  0  0  0  0  0  0  0  0  0  0  0
   20.6093   -4.5712    0.0000 C    0  0  0  0  0  0  0  0  0  0  0  0
   21.2549   -3.4349    0.0000 C    0  0  0  0  0  0  0  0  0  0  0  0
   22.5979   -3.4349    0.0000 S    0  0  0  0  0  0  0  0  0  0  0  0
   22.5979   -4.7520    0.0000 O    0  5  0  0  0  0  0  0  0  0  0  0
   22.5979   -2.0919    0.0000 O    0  0  0  0  0  0  0  0  0  0  0  0
   23.9150   -3.4349    0.0000 O    0  0  0  0  0  0  0  0  0  0  0  0
   10.1497   -0.9297    0.0000 Na   0  3  0  0  0  0  0  0  0  0  0  0
   25.8262   -3.3574    0.0000 Na   0  3  0  0  0  0  0  0  0  0  0  0
  1  2  1  0  0  0  0
  1  3  2  0  0  0  0
  1  7  1  0  0  0  0
  2  4  2  0  0  0  0
  3  5  1  0  0  0  0
  4  6  1  0  0  0  0
  5  6  2  0  0  0  0
  7  8  1  0  0  0  0
  7  9  2  0  0  0  0
  8 10  1  0  0  0  0
 10 11  1  0  0  0  0
 10 12  2  0  0  0  0
 11 13  2  0  0  0  0
 12 14  1  0  0  0  0
 13 16  1  0  0  0  0
 13 15  1  0  0  0  0
 14 15  2  0  0  0  0
 15 18  1  0  0  0  0
 16 17  2  0  0  0  0
 17 19  1  0  0  0  0
 17 20  1  0  0  0  0
 18 19  2  0  0  0  0
 18 26  1  0  0  0  0
 19 24  1  0  0  0  0
 20 21  1  0  0  0  0
 20 22  2  0  0  0  0
 20 23  2  0  0  0  0
 24 25  2  0  0  0  0
 25 27  1  0  0  0  0
 27 28  1  0  0  0  0
 27 29  2  0  0  0  0
 28 30  2  0  0  0  0
 29 31  1  0  0  0  0
 30 32  1  0  0  0  0
 31 32  2  0  0  0  0
 32 33  1  0  0  0  0
 33 34  2  0  0  0  0
 34 35  1  0  0  0  0
 35 36  1  0  0  0  0
 35 37  2  0  0  0  0
 36 38  2  0  0  0  0
 37 39  1  0  0  0  0
 38 40  1  0  0  0  0
 39 40  2  0  0  0  0
 40 41  1  0  0  0  0
 41 42  1  0  0  0  0
 41 43  2  0  0  0  0
 41 44  2  0  0  0  0
M  END
> <ID>
8680

> <Formula>
C29H19N5Na2O8S2

> <FW>
675.5994 (629.6210+22.9892+22.9892)

> <DSSTox_CID>
21726

> <DSSTox_RID>
79832

> <DSSTox_GSID>
41726

> <DSSTox_FileID_Sort>
4514

> <TS_ChemName>
C.I. Direct Red 81 disodium salt

> <TS_ChemName_Synonyms>


> <TS_CASRN>
2610-11-9

> <CASRN_ChemName_Relationship>
primary

> <TS_Description>
single chemical compound

> <ChemNote>
C.I. 28160; parent [25188-42-5]

> <STRUCTURE_Shown>
tested chemical

> <STRUCTURE_Formula>
C29H19N5Na2O8S2

> <STRUCTURE_MW>
675.5994

> <STRUCTURE_ChemType>
defined organic

> <STRUCTURE_DefinedOrganicForm>
salt

> <STRUCTURE_IUPAC>
disodium 7-(benzoylamino)-4-hydroxy-3-({4-[(4-sulfonatophenyl)diazenyl]phenyl}diazenyl)naphthalene-2-sulfonate

> <STRUCTURE_SMILES>
[Na+].[Na+].[O-]S(=O)(=O)c1ccc(cc1)/N=N/c2ccc(cc2)/N=N/c3c(O)c4ccc(cc4cc3S([O-])(=O)=O)NC(=O)c5ccccc5

> <STRUCTURE_SMILES_Desalt>
O=S(=O)(O)c1ccc(cc1)/N=N/c2ccc(cc2)/N=N/c3c(O)c4ccc(cc4cc3S(=O)(=O)O)NC(=O)c5ccccc5

> <Substance_modify_yyyymmdd>
20080825

$$$$
