2610-86-8
ChemmineR-0915142007XD

 24 25  0  0  0  0  0  0  0  0  2 V2000
    4.0136   -2.3146    0.0000 C   0  0  0  0  0  0  0  0  0  0  0  0
    4.6725   -3.4675    0.0000 C   0  0  0  0  0  0  0  0  0  0  0  0
    4.6898   -1.1703    0.0000 C   0  0  0  0  0  0  0  0  0  0  0  0
    2.6787   -2.3146    0.0000 C   0  0  0  0  0  0  0  0  0  0  0  0
    6.0161   -1.1703    0.0000 O   0  0  0  0  0  0  0  0  0  0  0  0
    6.0075   -3.4675    0.0000 C   0  0  0  0  0  0  0  0  0  0  0  0
    6.6750   -2.3319    0.0000 C   0  0  0  0  0  0  0  0  0  0  0  0
    4.0310    0.0000    0.0000 O   0  0  0  0  0  0  0  0  0  0  0  0
    2.0025   -1.1616    0.0000 C   0  0  0  0  0  0  0  0  0  0  0  0
    2.0025   -3.4675    0.0000 C   0  0  0  0  0  0  0  0  0  0  0  0
    4.0136   -4.6118    0.0000 O   0  5  0  0  0  0  0  0  0  0  0  0
    0.6762   -1.1616    0.0000 C   0  0  0  0  0  0  0  0  0  0  0  0
    0.0000   -2.3146    0.0000 C   0  0  0  0  0  0  0  0  0  0  0  0
    6.6663   -4.6291    0.0000 C   0  0  0  0  0  0  0  0  0  0  0  0
    7.9926   -2.3492    0.0000 C   0  0  0  0  0  0  0  0  0  0  0  0
    0.6762   -3.4502    0.0000 C   0  0  0  0  0  0  0  0  0  0  0  0
    2.6613   -4.6118    0.0000 C   0  0  0  0  0  0  0  0  0  0  0  0
    0.0000    0.0000    0.0000 O   0  0  0  0  0  0  0  0  0  0  0  0
    7.9926   -4.6378    0.0000 C   0  0  0  0  0  0  0  0  0  0  0  0
    8.6688   -3.5022    0.0000 C   0  0  0  0  0  0  0  0  0  0  0  0
    1.9938   -5.7647    0.0000 C   0  0  0  0  0  0  0  0  0  0  0  0
    0.0000   -4.6118    0.0000 C   0  0  0  0  0  0  0  0  0  0  0  0
    0.6762   -5.7474    0.0000 C   0  0  0  0  0  0  0  0  0  0  0  0
    4.9585   -4.6378    0.0000 K   0  3  0  0  0  0  0  0  0  0  0  0
  1  2  2  0  0  0  0
  1  3  1  0  0  0  0
  1  4  1  0  0  0  0
  2  6  1  0  0  0  0
  2 11  1  0  0  0  0
  3  5  1  0  0  0  0
  3  8  2  0  0  0  0
  4  9  1  0  0  0  0
  4 10  1  0  0  0  0
  5  7  1  0  0  0  0
  6 14  1  0  0  0  0
  6  7  2  0  0  0  0
  7 15  1  0  0  0  0
  9 12  1  0  0  0  0
 10 16  1  0  0  0  0
 10 17  2  0  0  0  0
 12 13  1  0  0  0  0
 12 18  2  0  0  0  0
 14 19  2  0  0  0  0
 15 20  2  0  0  0  0
 16 22  2  0  0  0  0
 17 21  1  0  0  0  0
 19 20  1  0  0  0  0
 21 23  2  0  0  0  0
 22 23  1  0  0  0  0
M  END
> <ID>
9246

> <Formula>
C19H15KO4

> <FW>
346.4183 (307.3205+39.0978)

> <DSSTox_CID>
22324

> <DSSTox_RID>
79995

> <DSSTox_GSID>
42324

> <DSSTox_FileID_Sort>
4677

> <TS_ChemName>
Potassium warfarin

> <TS_ChemName_Synonyms>


> <TS_CASRN>
2610-86-8

> <CASRN_ChemName_Relationship>
primary

> <TS_Description>
single chemical compound

> <ChemNote>
parent [81-81-2]

> <STRUCTURE_Shown>
tested chemical

> <STRUCTURE_Formula>
C19H15KO4

> <STRUCTURE_MW>
346.4183

> <STRUCTURE_ChemType>
defined organic

> <STRUCTURE_DefinedOrganicForm>
salt

> <STRUCTURE_IUPAC>
potassium 2-oxo-3-(3-oxo-1-phenylbutyl)-2H-chromen-4-olate

> <STRUCTURE_SMILES>
[K+].CC(=O)CC(C1=C([O-])c2ccccc2OC1=O)c3ccccc3

> <STRUCTURE_SMILES_Desalt>
CC(=O)CC(C1=C(O)c2ccccc2OC1=O)c3ccccc3

> <Substance_modify_yyyymmdd>
20080825

$$$$
