26115-70-8
ChemmineR-0915142007XD

 39 39  0  0  0  0  0  0  0  0  1 V2000
   13.8124   -7.9687    0.0000 Si   0  0  0  0  0  0  0  0  0  0  0  0
   12.6695   -8.6288    0.0000 C    0  0  0  0  0  0  0  0  0  0  0  0
   13.1363   -6.8257    0.0000 O    0  0  0  0  0  0  0  0  0  0  0  0
   14.4725   -9.1278    0.0000 O    0  0  0  0  0  0  0  0  0  0  0  0
   14.9554   -7.2926    0.0000 O    0  0  0  0  0  0  0  0  0  0  0  0
   11.5104   -7.9687    0.0000 C    0  0  0  0  0  0  0  0  0  0  0  0
   13.8124   -5.6505    0.0000 C    0  0  0  0  0  0  0  0  0  0  0  0
   13.8124  -10.2708    0.0000 C    0  0  0  0  0  0  0  0  0  0  0  0
   16.0984   -7.9687    0.0000 C    0  0  0  0  0  0  0  0  0  0  0  0
   10.3513   -8.6288    0.0000 C    0  0  0  0  0  0  0  0  0  0  0  0
    9.2083   -7.9687    0.0000 N    0  0  0  0  0  0  0  0  0  0  0  0
    9.2083   -6.6486    0.0000 C    0  0  0  0  0  0  0  0  0  0  0  0
    8.0492   -8.6288    0.0000 C    0  0  0  0  0  0  0  0  0  0  0  0
   10.3513   -5.9725    0.0000 O    0  0  0  0  0  0  0  0  0  0  0  0
    8.0492   -5.9725    0.0000 N    0  0  0  0  0  0  0  0  0  0  0  0
    8.0492   -9.9488    0.0000 O    0  0  0  0  0  0  0  0  0  0  0  0
    6.9062   -7.9687    0.0000 N    0  0  0  0  0  0  0  0  0  0  0  0
    8.0492   -4.6363    0.0000 C    0  0  0  0  0  0  0  0  0  0  0  0
    6.9062   -6.6486    0.0000 C    0  0  0  0  0  0  0  0  0  0  0  0
    5.7471   -8.6288    0.0000 C    0  0  0  0  0  0  0  0  0  0  0  0
    9.2083   -3.9924    0.0000 C    0  0  0  0  0  0  0  0  0  0  0  0
    5.7471   -5.9725    0.0000 O    0  0  0  0  0  0  0  0  0  0  0  0
    4.6041   -7.9687    0.0000 C    0  0  0  0  0  0  0  0  0  0  0  0
    9.2083   -2.6562    0.0000 C    0  0  0  0  0  0  0  0  0  0  0  0
    3.4290   -8.6288    0.0000 C    0  0  0  0  0  0  0  0  0  0  0  0
   10.3513   -1.9801    0.0000 Si   0  0  0  0  0  0  0  0  0  0  0  0
    2.3021   -7.9687    0.0000 Si   0  0  0  0  0  0  0  0  0  0  0  0
    9.6912   -0.8371    0.0000 O    0  0  0  0  0  0  0  0  0  0  0  0
   11.0113   -3.1231    0.0000 O    0  0  0  0  0  0  0  0  0  0  0  0
   11.5104   -1.3362    0.0000 O    0  0  0  0  0  0  0  0  0  0  0  0
    2.9782   -6.8257    0.0000 O    0  0  0  0  0  0  0  0  0  0  0  0
    1.6420   -9.1278    0.0000 O    0  0  0  0  0  0  0  0  0  0  0  0
    1.1430   -7.2926    0.0000 O    0  0  0  0  0  0  0  0  0  0  0  0
    8.3551   -0.8371    0.0000 C    0  0  0  0  0  0  0  0  0  0  0  0
   12.3475   -3.1231    0.0000 C    0  0  0  0  0  0  0  0  0  0  0  0
   11.5104    0.0000    0.0000 C    0  0  0  0  0  0  0  0  0  0  0  0
    2.3021   -5.6505    0.0000 C    0  0  0  0  0  0  0  0  0  0  0  0
    2.3021  -10.2708    0.0000 C    0  0  0  0  0  0  0  0  0  0  0  0
    0.0000   -7.9687    0.0000 C    0  0  0  0  0  0  0  0  0  0  0  0
  1  2  1  0  0  0  0
  1  3  1  0  0  0  0
  1  4  1  0  0  0  0
  1  5  1  0  0  0  0
  2  6  1  0  0  0  0
  3  7  1  0  0  0  0
  4  8  1  0  0  0  0
  5  9  1  0  0  0  0
  6 10  1  0  0  0  0
 10 11  1  0  0  0  0
 11 12  1  0  0  0  0
 11 13  1  0  0  0  0
 12 14  2  0  0  0  0
 12 15  1  0  0  0  0
 13 16  2  0  0  0  0
 13 17  1  0  0  0  0
 15 18  1  0  0  0  0
 15 19  1  0  0  0  0
 17 19  1  0  0  0  0
 17 20  1  0  0  0  0
 18 21  1  0  0  0  0
 19 22  2  0  0  0  0
 20 23  1  0  0  0  0
 21 24  1  0  0  0  0
 23 25  1  0  0  0  0
 24 26  1  0  0  0  0
 25 27  1  0  0  0  0
 26 28  1  0  0  0  0
 26 29  1  0  0  0  0
 26 30  1  0  0  0  0
 27 31  1  0  0  0  0
 27 32  1  0  0  0  0
 27 33  1  0  0  0  0
 28 34  1  0  0  0  0
 29 35  1  0  0  0  0
 30 36  1  0  0  0  0
 31 37  1  0  0  0  0
 32 38  1  0  0  0  0
 33 39  1  0  0  0  0
M  END
> <ID>
10543

> <Formula>
C21H45N3O12Si3

> <FW>
615.8514

> <DSSTox_CID>
24896

> <DSSTox_RID>
80567

> <DSSTox_GSID>
44896

> <DSSTox_FileID_Sort>
5249

> <TS_ChemName>
1,3,5-Tris[3-(trimethoxysilyl)propyl]-1,3,5-triazinane-2,4,6-trione

> <TS_ChemName_Synonyms>
1,3,5-Tris[3-(trimethoxysilyl)propyl]-1,3,5-triazinane-2,4,6-trione (1,3,5-Triazine-2,4,6(1H,3H,5H)-trione, 1,3,5-tris[3-(trimethoxysilyl)propyl]-)

> <TS_CASRN>
26115-70-8

> <CASRN_ChemName_Relationship>
primary

> <TS_Description>
single chemical compound

> <ChemNote>


> <STRUCTURE_Shown>
tested chemical

> <STRUCTURE_Formula>
C21H45N3O12Si3

> <STRUCTURE_MW>
615.8514

> <STRUCTURE_ChemType>
organometallic

> <STRUCTURE_DefinedOrganicForm>


> <STRUCTURE_IUPAC>
1,3,5-tris[3-(trimethoxysilyl)propyl]-1,3,5-triazinane-2,4,6-trione

> <STRUCTURE_SMILES>
CO[Si](OC)(OC)CCCN1C(=O)N(CCC[Si](OC)(OC)OC)C(=O)N(CCC[Si](OC)(OC)OC)C1=O

> <STRUCTURE_SMILES_Desalt>
CO[Si](OC)(OC)CCCN1C(=O)N(CCC[Si](OC)(OC)OC)C(=O)N(CCC[Si](OC)(OC)OC)C1=O

> <Substance_modify_yyyymmdd>
20091116

$$$$
