2612-29-5
ChemmineR-0915142007XD

  7  6  0  0  0  0  0  0  0  0  1 V2000
    1.1521   -2.6545    0.0000 C   0  0  0  0  0  0  0  0  0  0  0  0
    2.3043   -1.9817    0.0000 C   0  0  0  0  0  0  0  0  0  0  0  0
    2.3043   -0.6544    0.0000 C   0  0  0  0  0  0  0  0  0  0  0  0
    0.0000   -1.9817    0.0000 O   0  0  0  0  0  0  0  0  0  0  0  0
    3.4564    0.0000    0.0000 O   0  0  0  0  0  0  0  0  0  0  0  0
    3.4564   -2.6545    0.0000 C   0  0  0  0  0  0  0  0  0  0  0  0
    4.6086   -2.0001    0.0000 C   0  0  0  0  0  0  0  0  0  0  0  0
  1  2  1  0  0  0  0
  1  4  1  0  0  0  0
  2  3  1  0  0  0  0
  2  6  1  0  0  0  0
  3  5  1  0  0  0  0
  6  7  1  0  0  0  0
M  END
> <ID>
10544

> <Formula>
C5H12O2

> <FW>
104.1476

> <DSSTox_CID>
24897

> <DSSTox_RID>
80568

> <DSSTox_GSID>
44897

> <DSSTox_FileID_Sort>
5250

> <TS_ChemName>
2-Ethylpropane-1,3-diol

> <TS_ChemName_Synonyms>
2-Ethylpropane-1,3-diol (1,3-Propanediol, 2-ethyl-)

> <TS_CASRN>
2612-29-5

> <CASRN_ChemName_Relationship>
primary

> <TS_Description>
single chemical compound

> <ChemNote>


> <STRUCTURE_Shown>
tested chemical

> <STRUCTURE_Formula>
C5H12O2

> <STRUCTURE_MW>
104.1476

> <STRUCTURE_ChemType>
defined organic

> <STRUCTURE_DefinedOrganicForm>
parent

> <STRUCTURE_IUPAC>
2-ethylpropane-1,3-diol

> <STRUCTURE_SMILES>
CCC(CO)CO

> <STRUCTURE_SMILES_Desalt>
CCC(CO)CO

> <Substance_modify_yyyymmdd>
20091116

$$$$
