26130-02-9
ChemmineR-0915142007XD

 21 23  0  0  0  0  0  0  0  0  1 V2000
    0.0000   -0.9041    0.0000 C   0  0  0  0  0  0  0  0  0  0  0  0
    0.9041   -1.8622    0.0000 O   0  0  0  0  0  0  0  0  0  0  0  0
    2.1996   -1.5788    0.0000 C   0  0  0  0  0  0  0  0  0  0  0  0
    2.6044   -0.3104    0.0000 C   0  0  0  0  0  0  0  0  0  0  0  0
    3.8863    0.0000    0.0000 C   0  0  0  0  0  0  0  0  0  0  0  0
    4.8039   -0.9851    0.0000 C   0  0  0  0  0  0  0  0  0  0  0  0
    6.1399   -0.9581    0.0000 N   0  0  0  0  0  0  0  0  0  0  0  0
    6.5582   -2.2131    0.0000 C   0  0  0  0  0  0  0  0  0  0  0  0
    7.7187   -2.8743    0.0000 N   0  0  0  0  0  0  0  0  0  0  0  0
    8.8792   -2.2131    0.0000 C   0  0  0  0  0  0  0  0  0  0  0  0
    8.8657   -0.9041    0.0000 O   0  0  0  0  0  0  0  0  0  0  0  0
   10.0397   -2.8743    0.0000 N   0  0  0  0  0  0  0  0  0  0  0  0
   11.1732   -2.2400    0.0000 C   0  0  0  0  0  0  0  0  0  0  0  0
   12.3337   -2.8878    0.0000 C   0  0  0  0  0  0  0  0  0  0  0  0
   13.4942   -2.2400    0.0000 C   0  0  0  0  0  0  0  0  0  0  0  0
   13.4942   -0.9041    0.0000 C   0  0  0  0  0  0  0  0  0  0  0  0
   12.3337   -0.2294    0.0000 C   0  0  0  0  0  0  0  0  0  0  0  0
   11.1732   -0.9041    0.0000 C   0  0  0  0  0  0  0  0  0  0  0  0
    5.5056   -3.0227    0.0000 S   0  0  0  0  0  0  0  0  0  0  0  0
    4.4126   -2.2535    0.0000 C   0  0  0  0  0  0  0  0  0  0  0  0
    3.1037   -2.5504    0.0000 C   0  0  0  0  0  0  0  0  0  0  0  0
  1  2  1  0  0  0  0
  2  3  1  0  0  0  0
  3  4  2  0  0  0  0
  3 21  1  0  0  0  0
  4  5  1  0  0  0  0
  5  6  2  0  0  0  0
  6  7  1  0  0  0  0
  6 20  1  0  0  0  0
  7  8  2  0  0  0  0
  8  9  1  0  0  0  0
  8 19  1  0  0  0  0
  9 10  1  0  0  0  0
 10 11  2  0  0  0  0
 10 12  1  0  0  0  0
 12 13  1  0  0  0  0
 13 14  2  0  0  0  0
 13 18  1  0  0  0  0
 14 15  1  0  0  0  0
 15 16  2  0  0  0  0
 16 17  1  0  0  0  0
 17 18  2  0  0  0  0
 19 20  1  0  0  0  0
 20 21  2  0  0  0  0
M  END
> <ID>
11572

> <Formula>
C15H13N3O2S

> <FW>
299.3476

> <DSSTox_CID>
26279

> <DSSTox_RID>
81505

> <DSSTox_GSID>
46279

> <DSSTox_FileID_Sort>
6186

> <TS_ChemName>
Frentizole

> <TS_ChemName_Synonyms>


> <TS_CASRN>
26130-02-9

> <CASRN_ChemName_Relationship>
primary

> <TS_Description>
single chemical compound

> <ChemNote>


> <STRUCTURE_Shown>
tested chemical

> <STRUCTURE_Formula>
C15H13N3O2S

> <STRUCTURE_MW>
299.3476

> <STRUCTURE_ChemType>
defined organic

> <STRUCTURE_DefinedOrganicForm>
parent

> <STRUCTURE_IUPAC>
1-(6-methoxy-1,3-benzothiazol-2-yl)-3-phenylurea

> <STRUCTURE_SMILES>
COc2ccc3nc(NC(=O)Nc1ccccc1)sc3c2

> <STRUCTURE_SMILES_Desalt>
COc2ccc3nc(NC(=O)Nc1ccccc1)sc3c2

> <Substance_modify_yyyymmdd>
20110815

$$$$
