26159-36-4
ChemmineR-0915142007XD

 16 17  0  0  1  0  0  0  0  0  1 V2000
    4.5859   -2.0083    0.0000 C   0  0  0  0  0  0  0  0  0  0  0  0
    4.5859   -3.3333    0.0000 C   0  0  0  0  0  0  0  0  0  0  0  0
    5.7453   -1.3561    0.0000 C   0  0  0  0  0  0  0  0  0  0  0  0
    3.4368   -1.3561    0.0000 C   0  0  0  0  0  0  0  0  0  0  0  0
    3.4368   -4.0165    0.0000 C   0  0  0  0  0  0  0  0  0  0  0  0
    5.7453   -4.0165    0.0000 C   0  0  0  0  0  0  0  0  0  0  0  0
    6.8944   -2.0083    0.0000 C   0  0  0  0  0  0  0  0  0  0  0  0
    2.2981   -2.0083    0.0000 C   0  0  0  0  0  0  0  0  0  0  0  0
    2.2981   -3.3333    0.0000 C   0  0  0  0  0  0  0  0  0  0  0  0
    6.8944   -3.3333    0.0000 C   0  0  0  0  0  0  0  0  0  0  0  0
    8.0434   -1.3561    0.0000 C   0  0  0  0  0  0  0  0  0  0  0  0
    1.1491   -4.0165    0.0000 O   0  0  0  0  0  0  0  0  0  0  0  0
    9.2029   -2.0083    0.0000 C   0  0  0  0  0  0  0  0  0  0  0  0
    8.0434    0.0000    0.0000 C   0  0  0  0  0  0  0  0  0  0  0  0
    0.0000   -3.3333    0.0000 C   0  0  0  0  0  0  0  0  0  0  0  0
   10.3519   -1.3561    0.0000 O   0  0  0  0  0  0  0  0  0  0  0  0
  1  2  1  0  0  0  0
  1  3  2  0  0  0  0
  1  4  1  0  0  0  0
  2  5  1  0  0  0  0
  2  6  2  0  0  0  0
  3  7  1  0  0  0  0
  4  8  2  0  0  0  0
  5  9  2  0  0  0  0
  6 10  1  0  0  0  0
  7 11  1  0  0  0  0
  7 10  2  0  0  0  0
  8  9  1  0  0  0  0
  9 12  1  0  0  0  0
 11 13  1  0  0  0  0
 11 14  1  6  0  0  0
 12 15  1  0  0  0  0
 13 16  1  0  0  0  0
M  END
> <ID>
11284

> <Formula>
C14H16O2

> <FW>
216.2756

> <DSSTox_CID>
25904

> <DSSTox_RID>
81216

> <DSSTox_GSID>
45904

> <DSSTox_FileID_Sort>
5897

> <TS_ChemName>
Naproxol

> <TS_ChemName_Synonyms>


> <TS_CASRN>
26159-36-4

> <CASRN_ChemName_Relationship>
primary

> <TS_Description>
single chemical compound

> <ChemNote>
stereochem

> <STRUCTURE_Shown>
tested chemical

> <STRUCTURE_Formula>
C14H16O2

> <STRUCTURE_MW>
216.2756

> <STRUCTURE_ChemType>
defined organic

> <STRUCTURE_DefinedOrganicForm>
parent

> <STRUCTURE_IUPAC>
(2S)-2-(6-methoxynaphthalen-2-yl)propan-1-ol

> <STRUCTURE_SMILES>
C[C@H](CO)c1ccc2cc(ccc2c1)OC

> <STRUCTURE_SMILES_Desalt>
C[C@H](CO)c1ccc2cc(ccc2c1)OC

> <Substance_modify_yyyymmdd>
20110922

$$$$
