26155-31-7
ChemmineR-0915142007XD

 27 27  0  0  1  0  0  0  0  0  1 V2000
    2.5691   -5.1129    0.0000 O   0  0  0  0  0  0  0  0  0  0  0  0
    2.5691   -6.4482    0.0000 C   0  0  0  0  0  0  0  0  0  0  0  0
    3.7185   -7.1243    0.0000 C   0  0  0  0  0  0  0  0  0  0  0  0
    3.7185   -8.4511    0.0000 O   0  0  0  0  0  0  0  0  0  0  0  0
    4.8763   -6.4482    0.0000 C   0  0  0  0  0  0  0  0  0  0  0  0
    6.0257   -7.1243    0.0000 O   0  0  0  0  0  0  0  0  0  0  0  0
    4.8763   -5.1129    0.0000 O   0  0  0  0  0  0  0  0  0  0  0  0
    1.4113   -7.1243    0.0000 C   0  0  0  0  0  0  0  0  0  0  0  0
    0.2704   -6.4482    0.0000 O   0  0  0  0  0  0  0  0  0  0  0  0
    1.4113   -8.4511    0.0000 O   0  0  0  0  0  0  0  0  0  0  0  0
    2.3072   -2.0705    0.0000 C   0  0  0  0  0  0  0  0  0  0  0  0
    5.7890   -1.4282    0.0000 C   0  0  0  0  0  0  0  0  0  0  0  0
    1.1578   -1.4113    0.0000 N   0  0  0  0  0  0  0  0  0  0  0  0
    3.4650   -1.4113    0.0000 C   0  0  0  0  0  0  0  0  0  0  0  0
    2.3072   -3.3974    0.0000 N   0  0  0  0  0  0  0  0  0  0  0  0
    4.6312   -2.0874    0.0000 C   0  0  0  0  0  0  0  0  0  0  0  0
    6.9468   -2.1043    0.0000 C   0  0  0  0  0  0  0  0  0  0  0  0
    6.0595   -0.1268    0.0000 S   0  0  0  0  0  0  0  0  0  0  0  0
    7.3948    0.0000    0.0000 C   0  0  0  0  0  0  0  0  0  0  0  0
    7.9187   -1.2001    0.0000 C   0  0  0  0  0  0  0  0  0  0  0  0
    0.0000   -2.0874    0.0000 C   0  0  0  0  0  0  0  0  0  0  0  0
    1.1578   -4.0735    0.0000 C   0  0  0  0  0  0  0  0  0  0  0  0
    1.1578   -0.0676    0.0000 C   0  0  0  0  0  0  0  0  0  0  0  0
    0.0000   -3.3974    0.0000 C   0  0  0  0  0  0  0  0  0  0  0  0
    6.9468   -3.3805    0.0000 C   0  0  0  0  0  0  0  0  0  0  0  0
    3.4650   -0.0676    0.0000 H   0  0  0  0  0  0  0  0  0  0  0  0
    4.6312   -3.3974    0.0000 H   0  0  0  0  0  0  0  0  0  0  0  0
  2  1  1  1  0  0  0
  2  3  1  0  0  0  0
  2  8  1  0  0  0  0
  3  4  1  6  0  0  0
  3  5  1  0  0  0  0
  5  6  1  0  0  0  0
  5  7  2  0  0  0  0
  8  9  1  0  0  0  0
  8 10  2  0  0  0  0
 11 13  1  0  0  0  0
 11 14  1  0  0  0  0
 11 15  2  0  0  0  0
 12 16  1  0  0  0  0
 12 17  2  0  0  0  0
 12 18  1  0  0  0  0
 13 21  1  0  0  0  0
 13 23  1  0  0  0  0
 14 16  2  0  0  0  0
 14 26  1  0  0  0  0
 15 22  1  0  0  0  0
 16 27  1  0  0  0  0
 17 20  1  0  0  0  0
 17 25  1  0  0  0  0
 18 19  1  0  0  0  0
 19 20  2  0  0  0  0
 21 24  1  0  0  0  0
 22 24  1  0  0  0  0
M  END
> <ID>
11040

> <Formula>
C16H22N2O6S

> <FW>
370.4207 (150.0868+220.3338)

> <DSSTox_CID>
25575

> <DSSTox_RID>
80972

> <DSSTox_GSID>
45575

> <DSSTox_FileID_Sort>
5653

> <TS_ChemName>
Morantel tartrate

> <TS_ChemName_Synonyms>


> <TS_CASRN>
26155-31-7

> <CASRN_ChemName_Relationship>
primary

> <TS_Description>
single chemical compound

> <ChemNote>
stereochem;parent [20574-50-9]

> <STRUCTURE_Shown>
tested chemical

> <STRUCTURE_Formula>
C16H22N2O6S

> <STRUCTURE_MW>
370.4207

> <STRUCTURE_ChemType>
defined organic

> <STRUCTURE_DefinedOrganicForm>
complex

> <STRUCTURE_IUPAC>
(2R,3S)-2,3-dihydroxybutanedioic acid - 1-methyl-2-[(E)-2-(3-methylthiophen-2-yl)ethenyl]-1,4,5,6-tetrahydropyrimidine (1:1)

> <STRUCTURE_SMILES>
Cc2ccsc2\C=C\C1=NCCCN1C.O=C(O)[C@H](O)[C@H](O)C(=O)O

> <STRUCTURE_SMILES_Desalt>
Cc2ccsc2\C=C\C1=NCCCN1C

> <Substance_modify_yyyymmdd>
20100107

$$$$
