261947-38-0
ChemmineR-0915142007XD

 41 43  0  0  1  0  0  0  0  0  1 V2000
    5.7648   -6.6357    0.0000 C   0  0  0  0  0  0  0  0  0  0  0  0
    4.6174   -7.2993    0.0000 C   0  0  0  0  0  0  0  0  0  0  0  0
    5.7648   -5.3086    0.0000 C   0  0  0  0  0  0  0  0  0  0  0  0
    6.9260   -7.2993    0.0000 C   0  0  0  0  0  0  0  0  0  0  0  0
    3.4561   -6.6357    0.0000 N   0  0  0  0  0  0  0  0  0  0  0  0
    4.6174   -8.6264    0.0000 C   0  0  0  0  0  0  0  0  0  0  0  0
    6.9260   -4.6450    0.0000 N   0  0  0  0  0  0  0  0  0  0  0  0
    4.6174   -4.6450    0.0000 C   0  0  0  0  0  0  0  0  0  0  0  0
    6.9260   -8.6264    0.0000 C   0  0  0  0  0  0  0  0  0  0  0  0
    3.4561   -5.3086    0.0000 C   0  0  0  0  0  0  0  0  0  0  0  0
    2.3087   -7.2993    0.0000 C   0  0  0  0  0  0  0  0  0  0  0  0
    5.7648   -9.3038    0.0000 C   0  0  0  0  0  0  0  0  0  0  0  0
    8.0735   -5.3086    0.0000 C   0  0  0  0  0  0  0  0  0  0  0  0
    6.9260   -3.3040    0.0000 C   0  0  0  0  0  0  0  0  0  0  0  0
    8.0735   -9.3038    0.0000 C   0  0  0  0  0  0  0  0  0  0  0  0
    2.3087   -4.6450    0.0000 C   0  0  0  0  0  0  0  0  0  0  0  0
    2.3087   -8.6264    0.0000 O   0  0  0  0  0  0  0  0  0  0  0  0
    1.1474   -6.6357    0.0000 O   0  0  0  0  0  0  0  0  0  0  0  0
    9.2071   -4.6450    0.0000 C   0  0  0  0  0  0  0  0  0  0  0  0
    5.7648   -2.6543    0.0000 C   0  0  0  0  0  0  0  0  0  0  0  0
    8.0735   -2.6543    0.0000 O   0  0  0  0  0  0  0  0  0  0  0  0
    7.3961  -10.4374    0.0000 F   0  0  0  0  0  0  0  0  0  0  0  0
    8.7370   -8.1426    0.0000 F   0  0  0  0  0  0  0  0  0  0  0  0
    9.2071   -9.9536    0.0000 F   0  0  0  0  0  0  0  0  0  0  0  0
    2.3087   -3.3040    0.0000 C   0  0  0  0  0  0  0  0  0  0  0  0
    1.1474   -9.3038    0.0000 C   0  0  0  0  0  0  0  0  0  0  0  0
    9.2071   -3.3040    0.0000 C   0  0  0  0  0  0  0  0  0  0  0  0
   10.3683   -5.3086    0.0000 C   0  0  0  0  0  0  0  0  0  0  0  0
    0.0000   -8.6264    0.0000 C   0  0  0  0  0  0  0  0  0  0  0  0
    1.1474  -10.6310    0.0000 C   0  0  0  0  0  0  0  0  0  0  0  0
   10.3683   -2.6543    0.0000 C   0  0  0  0  0  0  0  0  0  0  0  0
   11.5158   -4.6450    0.0000 C   0  0  0  0  0  0  0  0  0  0  0  0
   11.5158   -3.3040    0.0000 C   0  0  0  0  0  0  0  0  0  0  0  0
   10.3683   -1.3271    0.0000 C   0  0  0  0  0  0  0  0  0  0  0  0
   12.6770   -5.3086    0.0000 C   0  0  0  0  0  0  0  0  0  0  0  0
   11.6955   -1.3271    0.0000 F   0  0  0  0  0  0  0  0  0  0  0  0
    9.0412   -1.3271    0.0000 F   0  0  0  0  0  0  0  0  0  0  0  0
   10.3683    0.0000    0.0000 F   0  0  0  0  0  0  0  0  0  0  0  0
   12.0134   -6.4560    0.0000 F   0  0  0  0  0  0  0  0  0  0  0  0
   13.3406   -4.1612    0.0000 F   0  0  0  0  0  0  0  0  0  0  0  0
   13.8244   -5.9722    0.0000 F   0  0  0  0  0  0  0  0  0  0  0  0
  1  2  2  0  0  0  0
  1  3  1  0  0  0  0
  1  4  1  0  0  0  0
  2  5  1  0  0  0  0
  2  6  1  0  0  0  0
  3  7  1  6  0  0  0
  3  8  1  0  0  0  0
  4  9  2  0  0  0  0
  5 10  1  0  0  0  0
  5 11  1  0  0  0  0
  6 12  2  0  0  0  0
  7 13  1  0  0  0  0
  7 14  1  0  0  0  0
  8 10  1  0  0  0  0
  9 15  1  0  0  0  0
  9 12  1  0  0  0  0
 10 16  1  6  0  0  0
 11 17  1  0  0  0  0
 11 18  2  0  0  0  0
 13 19  1  0  0  0  0
 14 20  1  0  0  0  0
 14 21  2  0  0  0  0
 15 22  1  0  0  0  0
 15 23  1  0  0  0  0
 15 24  1  0  0  0  0
 16 25  1  0  0  0  0
 17 26  1  0  0  0  0
 19 27  1  0  0  0  0
 19 28  2  0  0  0  0
 26 29  1  0  0  0  0
 26 30  1  0  0  0  0
 27 31  2  0  0  0  0
 28 32  1  0  0  0  0
 31 33  1  0  0  0  0
 31 34  1  0  0  0  0
 32 35  1  0  0  0  0
 32 33  2  0  0  0  0
 34 36  1  0  0  0  0
 34 37  1  0  0  0  0
 34 38  1  0  0  0  0
 35 39  1  0  0  0  0
 35 40  1  0  0  0  0
 35 41  1  0  0  0  0
M  END
> <ID>
12421

> <Formula>
C27H27F9N2O3

> <FW>
598.5005

> <DSSTox_CID>
27279

> <DSSTox_RID>
82233

> <DSSTox_GSID>
47279

> <DSSTox_FileID_Sort>
6914

> <TS_ChemName>
CP-532623

> <TS_ChemName_Synonyms>


> <TS_CASRN>
261947-38-0

> <CASRN_ChemName_Relationship>
primary

> <TS_Description>
single chemical compound

> <ChemNote>
stereochem

> <STRUCTURE_Shown>
tested chemical

> <STRUCTURE_Formula>
C27H27F9N2O3

> <STRUCTURE_MW>
598.5005

> <STRUCTURE_ChemType>
defined organic

> <STRUCTURE_DefinedOrganicForm>
parent

> <STRUCTURE_IUPAC>
propan-2-yl (2R,4S)-4-{acetyl[3,5-bis(trifluoromethyl)benzyl]amino}-2-ethyl-6-(trifluoromethyl)-3,4-dihydroquinoline-1(2H)-carboxylate

> <STRUCTURE_SMILES>
FC(F)(F)c1cc(cc(c1)C(F)(F)F)CN([C@H]3C[C@@H](CC)N(c2ccc(cc23)C(F)(F)F)C(=O)OC(C)C)C(C)=O

> <STRUCTURE_SMILES_Desalt>
FC(F)(F)c1cc(cc(c1)C(F)(F)F)CN([C@H]3C[C@@H](CC)N(c2ccc(cc23)C(F)(F)F)C(=O)OC(C)C)C(C)=O

> <Substance_modify_yyyymmdd>
20130910

$$$$
