26194-77-4
ChemmineR-0915142007XD

 13 12  0  0  1  0  0  0  0  0  1 V2000
    5.7609   -0.6426    0.0000 N    0  0  0  0  0  0  0  0  0  0  0  0
    3.4504   -0.6426    0.0000 C    0  0  0  0  0  0  0  0  0  0  0  0
    2.2952   -1.3159    0.0000 C    0  0  0  0  0  0  0  0  0  0  0  0
    4.6056   -1.3159    0.0000 C    0  0  0  0  0  0  0  0  0  0  0  0
    6.8931   -1.3159    0.0000 C    0  0  0  0  0  0  0  0  0  0  0  0
    2.2952   -2.6471    0.0000 C    0  0  0  0  0  0  0  0  0  0  0  0
    1.1552   -0.6426    0.0000 C    0  0  0  0  0  0  0  0  0  0  0  0
    4.6056   -2.6471    0.0000 C    0  0  0  0  0  0  0  0  0  0  0  0
    6.8931   -2.6471    0.0000 C    0  0  0  0  0  0  0  0  0  0  0  0
    0.0000   -1.3159    0.0000 C    0  0  0  0  0  0  0  0  0  0  0  0
    1.1552   -3.3050    0.0000 C    0  0  0  0  0  0  0  0  0  0  0  0
    0.0000   -2.6471    0.0000 C    0  0  0  0  0  0  0  0  0  0  0  0
    7.6505    0.0000    0.0000 Cl   0  0  0  0  0  0  0  0  0  0  0  0
  1  4  1  0  0  0  0
  1  5  1  0  0  0  0
  2  4  1  0  0  0  0
  2  3  1  0  0  0  0
  3  6  2  0  0  0  0
  3  7  1  0  0  0  0
  4  8  1  1  0  0  0
  5  9  1  0  0  0  0
  6 11  1  0  0  0  0
  7 10  2  0  0  0  0
 10 12  1  0  0  0  0
 11 12  2  0  0  0  0
M  END
> <ID>
13857

> <Formula>
C11H18ClN

> <FW>
199.7203 (163.2594+36.4609)

> <DSSTox_CID>
28794

> <DSSTox_RID>
83063

> <DSSTox_GSID>
48868

> <DSSTox_FileID_Sort>
7740

> <TS_ChemName>
(S)-(+)-N-Ethylamphetamine hydrochloride

> <TS_ChemName_Synonyms>
(+)-N-Ethylamphetamine hydrochloride

> <TS_CASRN>
26194-77-4

> <CASRN_ChemName_Relationship>
primary

> <TS_Description>
single chemical compound

> <ChemNote>


> <STRUCTURE_Shown>
tested chemical

> <STRUCTURE_Formula>
C11H18ClN

> <STRUCTURE_MW>
199.7203

> <STRUCTURE_ChemType>
defined organic

> <STRUCTURE_DefinedOrganicForm>
complex

> <STRUCTURE_IUPAC>
(2S)-N-ethyl-1-phenylpropan-2-amine hydrochloride (1:1)

> <STRUCTURE_SMILES>
Cl.C[C@H](NCC)Cc1ccccc1

> <STRUCTURE_SMILES_Desalt>
C[C@H](NCC)Cc1ccccc1

> <Substance_modify_yyyymmdd>
20111204

$$$$
