262-20-4
ChemmineR-0915142007XD

 14 16  0  0  0  0  0  0  0  0  1 V2000
    4.6083   -0.6633    0.0000 C   0  0  0  0  0  0  0  0  0  0  0  0
    5.7552    0.0000    0.0000 C   0  0  0  0  0  0  0  0  0  0  0  0
    6.9090   -0.6633    0.0000 C   0  0  0  0  0  0  0  0  0  0  0  0
    6.9090   -1.9967    0.0000 C   0  0  0  0  0  0  0  0  0  0  0  0
    5.7552   -2.6600    0.0000 C   0  0  0  0  0  0  0  0  0  0  0  0
    4.6083   -1.9967    0.0000 C   0  0  0  0  0  0  0  0  0  0  0  0
    3.4545   -2.6600    0.0000 S   0  0  0  0  0  0  0  0  0  0  0  0
    2.3007   -1.9967    0.0000 C   0  0  0  0  0  0  0  0  0  0  0  0
    1.1538   -2.6600    0.0000 C   0  0  0  0  0  0  0  0  0  0  0  0
    0.0000   -1.9967    0.0000 C   0  0  0  0  0  0  0  0  0  0  0  0
    0.0000   -0.6633    0.0000 C   0  0  0  0  0  0  0  0  0  0  0  0
    1.1538    0.0000    0.0000 C   0  0  0  0  0  0  0  0  0  0  0  0
    2.3007   -0.6633    0.0000 C   0  0  0  0  0  0  0  0  0  0  0  0
    3.4545    0.0000    0.0000 O   0  0  0  0  0  0  0  0  0  0  0  0
  1  2  2  0  0  0  0
  1  6  1  0  0  0  0
  1 14  1  0  0  0  0
  2  3  1  0  0  0  0
  3  4  2  0  0  0  0
  4  5  1  0  0  0  0
  5  6  2  0  0  0  0
  6  7  1  0  0  0  0
  7  8  1  0  0  0  0
  8  9  2  0  0  0  0
  8 13  1  0  0  0  0
  9 10  1  0  0  0  0
 10 11  2  0  0  0  0
 11 12  1  0  0  0  0
 12 13  2  0  0  0  0
 13 14  1  0  0  0  0
M  END
> <ID>
3924

> <Formula>
C12H8OS

> <FW>
200.2563

> <DSSTox_CID>
4937

> <DSSTox_RID>
77589

> <DSSTox_GSID>
24937

> <DSSTox_FileID_Sort>
2272

> <TS_ChemName>
Phenoxathiin

> <TS_ChemName_Synonyms>
Phenoxathiin (Dibenzooxathiane)

> <TS_CASRN>
262-20-4

> <CASRN_ChemName_Relationship>
primary

> <TS_Description>
single chemical compound

> <ChemNote>


> <STRUCTURE_Shown>
tested chemical

> <STRUCTURE_Formula>
C12H8OS

> <STRUCTURE_MW>
200.2563

> <STRUCTURE_ChemType>
defined organic

> <STRUCTURE_DefinedOrganicForm>
parent

> <STRUCTURE_IUPAC>
phenoxathiine

> <STRUCTURE_SMILES>
c1ccc2Sc3ccccc3Oc2c1

> <STRUCTURE_SMILES_Desalt>
c1ccc2Sc3ccccc3Oc2c1

> <Substance_modify_yyyymmdd>
20080429

$$$$
