262297-13-2
ChemmineR-0915142007XD

 15 14  0  0  0  0  0  0  0  0  2 V2000
    6.6237   -1.0835    0.0000 N   0  3  0  0  0  0  0  0  0  0  0  0
    4.5685   -1.7425    0.0000 N   0  0  0  0  0  0  0  0  0  0  0  0
    5.8530   -2.1781    0.0000 C   0  0  0  0  0  0  0  0  0  0  0  0
    5.8307    0.0000    0.0000 C   0  0  0  0  0  0  0  0  0  0  0  0
    4.5685   -0.4133    0.0000 C   0  0  0  0  0  0  0  0  0  0  0  0
    3.5073   -2.5132    0.0000 C   0  0  0  0  0  0  0  0  0  0  0  0
    2.2898   -1.9882    0.0000 C   0  0  0  0  0  0  0  0  0  0  0  0
    1.2063   -2.7590    0.0000 C   0  0  0  0  0  0  0  0  0  0  0  0
    0.0000   -2.1893    0.0000 C   0  0  0  0  0  0  0  0  0  0  0  0
    7.9306   -1.0835    0.0000 C   0  0  0  0  0  0  0  0  0  0  0  0
    9.8406   -2.9153    0.0000 S   0  0  0  0  0  0  0  0  0  0  0  0
   11.1698   -2.9153    0.0000 O   0  0  0  0  0  0  0  0  0  0  0  0
    9.8406   -4.2445    0.0000 O   0  0  0  0  0  0  0  0  0  0  0  0
    9.8406   -1.5861    0.0000 O   0  0  0  0  0  0  0  0  0  0  0  0
    8.5114   -2.9153    0.0000 O   0  5  0  0  0  0  0  0  0  0  0  0
  1  3  2  0  0  0  0
  1  4  1  0  0  0  0
  1 10  1  0  0  0  0
  2  3  1  0  0  0  0
  2  5  1  0  0  0  0
  2  6  1  0  0  0  0
  4  5  2  0  0  0  0
  6  7  1  0  0  0  0
  7  8  1  0  0  0  0
  8  9  1  0  0  0  0
 11 12  2  0  0  0  0
 11 13  2  0  0  0  0
 11 14  1  0  0  0  0
 11 15  1  0  0  0  0
M  END
> <ID>
13044

> <Formula>
C8H16N2O4S

> <FW>
236.2886 (139.2176+97.0711)

> <DSSTox_CID>
27947

> <DSSTox_RID>
82699

> <DSSTox_GSID>
47971

> <DSSTox_FileID_Sort>
7376

> <TS_ChemName>
1-Butyl-3-methylimidazolium hydrogensulfate

> <TS_ChemName_Synonyms>


> <TS_CASRN>
262297-13-2

> <CASRN_ChemName_Relationship>
primary

> <TS_Description>
single chemical compound

> <ChemNote>
ammonium; parent [80432-08-2]

> <STRUCTURE_Shown>
tested chemical

> <STRUCTURE_Formula>
C8H16N2O4S

> <STRUCTURE_MW>
236.2886

> <STRUCTURE_ChemType>
defined organic

> <STRUCTURE_DefinedOrganicForm>
salt

> <STRUCTURE_IUPAC>
1-butyl-3-methyl-1H-imidazol-3-ium hydrogen sulfate

> <STRUCTURE_SMILES>
CCCCn1cc[n+](C)c1.[O-]S(=O)(=O)O

> <STRUCTURE_SMILES_Desalt>
CCCCn1cc[n+](C)c1

> <Substance_modify_yyyymmdd>
20110418

$$$$
