2622-26-6
ChemmineR-0915142007XD

 26 29  0  0  0  0  0  0  0  0  1 V2000
    0.0000   -5.7624    0.0000 O   0  0  0  0  0  0  0  0  0  0  0  0
    1.3269   -5.7624    0.0000 C   0  0  0  0  0  0  0  0  0  0  0  0
    1.9966   -4.6125    0.0000 C   0  0  0  0  0  0  0  0  0  0  0  0
    3.3235   -4.6125    0.0000 C   0  0  0  0  0  0  0  0  0  0  0  0
    3.9933   -5.7624    0.0000 N   0  0  0  0  0  0  0  0  0  0  0  0
    5.3201   -5.7624    0.0000 C   0  0  0  0  0  0  0  0  0  0  0  0
    5.9899   -4.6125    0.0000 C   0  0  0  0  0  0  0  0  0  0  0  0
    7.3168   -4.6125    0.0000 C   0  0  0  0  0  0  0  0  0  0  0  0
    7.9865   -3.4625    0.0000 N   0  0  0  0  0  0  0  0  0  0  0  0
    7.3168   -2.2999    0.0000 C   0  0  0  0  0  0  0  0  0  0  0  0
    5.9899   -2.2999    0.0000 C   0  0  0  0  0  0  0  0  0  0  0  0
    5.3201   -1.1500    0.0000 C   0  0  0  0  0  0  0  0  0  0  0  0
    5.9899    0.0000    0.0000 C   0  0  0  0  0  0  0  0  0  0  0  0
    7.3168    0.0000    0.0000 C   0  0  0  0  0  0  0  0  0  0  0  0
    7.9865   -1.1500    0.0000 C   0  0  0  0  0  0  0  0  0  0  0  0
    9.3134   -1.1500    0.0000 S   0  0  0  0  0  0  0  0  0  0  0  0
    9.9705   -2.2999    0.0000 C   0  0  0  0  0  0  0  0  0  0  0  0
   11.3100   -2.2999    0.0000 C   0  0  0  0  0  0  0  0  0  0  0  0
   11.9672   -3.4625    0.0000 C   0  0  0  0  0  0  0  0  0  0  0  0
   11.3100   -4.6125    0.0000 C   0  0  0  0  0  0  0  0  0  0  0  0
    9.9705   -4.6125    0.0000 C   0  0  0  0  0  0  0  0  0  0  0  0
    9.3134   -3.4625    0.0000 C   0  0  0  0  0  0  0  0  0  0  0  0
   11.9672   -5.7624    0.0000 C   0  0  0  0  0  0  0  0  0  0  0  0
   12.6369   -6.9124    0.0000 N   0  0  0  0  0  0  0  0  0  0  0  0
    3.3235   -6.9124    0.0000 C   0  0  0  0  0  0  0  0  0  0  0  0
    1.9966   -6.9124    0.0000 C   0  0  0  0  0  0  0  0  0  0  0  0
  1  2  1  0  0  0  0
  2  3  1  0  0  0  0
  2 26  1  0  0  0  0
  3  4  1  0  0  0  0
  4  5  1  0  0  0  0
  5  6  1  0  0  0  0
  5 25  1  0  0  0  0
  6  7  1  0  0  0  0
  7  8  1  0  0  0  0
  8  9  1  0  0  0  0
  9 10  1  0  0  0  0
  9 22  1  0  0  0  0
 10 11  2  0  0  0  0
 10 15  1  0  0  0  0
 11 12  1  0  0  0  0
 12 13  2  0  0  0  0
 13 14  1  0  0  0  0
 14 15  2  0  0  0  0
 15 16  1  0  0  0  0
 16 17  1  0  0  0  0
 17 18  2  0  0  0  0
 17 22  1  0  0  0  0
 18 19  1  0  0  0  0
 19 20  2  0  0  0  0
 20 21  1  0  0  0  0
 20 23  1  0  0  0  0
 21 22  2  0  0  0  0
 23 24  3  0  0  0  0
 25 26  1  0  0  0  0
M  END
> <ID>
11289

> <Formula>
C21H23N3OS

> <FW>
365.4918

> <DSSTox_CID>
25910

> <DSSTox_RID>
81221

> <DSSTox_GSID>
45910

> <DSSTox_FileID_Sort>
5902

> <TS_ChemName>
Periciazine

> <TS_ChemName_Synonyms>


> <TS_CASRN>
2622-26-6

> <CASRN_ChemName_Relationship>
primary

> <TS_Description>
single chemical compound

> <ChemNote>


> <STRUCTURE_Shown>
tested chemical

> <STRUCTURE_Formula>
C21H23N3OS

> <STRUCTURE_MW>
365.4918

> <STRUCTURE_ChemType>
defined organic

> <STRUCTURE_DefinedOrganicForm>
parent

> <STRUCTURE_IUPAC>
10-[3-(4-hydroxypiperidin-1-yl)propyl]-10H-phenothiazine-2-carbonitrile

> <STRUCTURE_SMILES>
OC1CCN(CC1)CCCN2c4ccccc4Sc3ccc(C#N)cc23

> <STRUCTURE_SMILES_Desalt>
OC1CCN(CC1)CCCN2c4ccccc4Sc3ccc(C#N)cc23

> <Substance_modify_yyyymmdd>
20110930

$$$$
