262376-75-0
ChemmineR-0915142007XD

 20 23  0  0  0  0  0  0  0  0  1 V2000
    4.0218   -1.3444    0.0000 C    0  0  0  0  0  0  0  0  0  0  0  0
    3.2423   -2.4176    0.0000 C    0  0  0  0  0  0  0  0  0  0  0  0
    3.5022   -0.1243    0.0000 C    0  0  0  0  0  0  0  0  0  0  0  0
    1.9318   -2.2708    0.0000 C    0  0  0  0  0  0  0  0  0  0  0  0
    2.1691    0.0000    0.0000 C    0  0  0  0  0  0  0  0  0  0  0  0
    1.3896   -1.0506    0.0000 C    0  0  0  0  0  0  0  0  0  0  0  0
    5.2871   -1.7624    0.0000 C    0  0  0  0  0  0  0  0  0  0  0  0
    5.2871   -3.0842    0.0000 C    0  0  0  0  0  0  0  0  0  0  0  0
    4.0218   -3.4796    0.0000 C    0  0  0  0  0  0  0  0  0  0  0  0
    6.5524   -1.3557    0.0000 N    0  0  0  0  0  0  0  0  0  0  0  0
    7.3319   -2.4176    0.0000 C    0  0  0  0  0  0  0  0  0  0  0  0
    6.5524   -3.4796    0.0000 S    0  0  0  0  0  0  0  0  0  0  0  0
    8.6424   -2.3837    0.0000 C    0  0  0  0  0  0  0  0  0  0  0  0
    9.3203   -1.2314    0.0000 C    0  0  0  0  0  0  0  0  0  0  0  0
    9.3203   -3.5360    0.0000 C    0  0  0  0  0  0  0  0  0  0  0  0
   10.6420   -1.2314    0.0000 C    0  0  0  0  0  0  0  0  0  0  0  0
   10.6307   -3.5473    0.0000 C    0  0  0  0  0  0  0  0  0  0  0  0
   11.2973   -2.3837    0.0000 C    0  0  0  0  0  0  0  0  0  0  0  0
    0.0000   -0.7004    0.0000 Cl   0  0  0  0  0  0  0  0  0  0  0  0
    5.2871   -0.4293    0.0000 O    0  0  0  0  0  0  0  0  0  0  0  0
  1  3  2  0  0  0  0
  1  7  1  0  0  0  0
  1  2  1  0  0  0  0
  2  4  2  0  0  0  0
  2  9  1  0  0  0  0
  3  5  1  0  0  0  0
  4  6  1  0  0  0  0
  5  6  2  0  0  0  0
  6 19  1  0  0  0  0
  7 10  1  0  0  0  0
  7  8  1  0  0  0  0
  7 20  1  0  0  0  0
  8  9  1  0  0  0  0
  8 12  1  0  0  0  0
 10 11  2  0  0  0  0
 11 12  1  0  0  0  0
 11 13  1  0  0  0  0
 13 14  1  0  0  0  0
 13 15  2  0  0  0  0
 14 16  2  0  0  0  0
 15 17  1  0  0  0  0
 16 18  1  0  0  0  0
 17 18  2  0  0  0  0
M  END
> <ID>
12480

> <Formula>
C16H12ClNOS

> <FW>
301.7906

> <DSSTox_CID>
27338

> <DSSTox_RID>
82280

> <DSSTox_GSID>
47338

> <DSSTox_FileID_Sort>
6961

> <TS_ChemName>
HMR1426

> <TS_ChemName_Synonyms>


> <TS_CASRN>
262376-75-0

> <CASRN_ChemName_Relationship>
primary

> <TS_Description>
single chemical compound

> <ChemNote>


> <STRUCTURE_Shown>
tested chemical

> <STRUCTURE_Formula>
C16H12ClNOS

> <STRUCTURE_MW>
301.7906

> <STRUCTURE_ChemType>
defined organic

> <STRUCTURE_DefinedOrganicForm>
parent

> <STRUCTURE_IUPAC>
6-chloro-2-phenyl-8,8a-dihydro-3aH-indeno[1,2-d][1,3]thiazol-3a-ol

> <STRUCTURE_SMILES>
Clc1cc2CC3SC(=NC3(O)c2cc1)c4ccccc4

> <STRUCTURE_SMILES_Desalt>
Clc1cc2CC3SC(=NC3(O)c2cc1)c4ccccc4

> <Substance_modify_yyyymmdd>
20130910

$$$$
