2624-43-3
ChemmineR-0915142007XD

 27 29  0  0  0  0  0  0  0  0  1 V2000
   10.3764   -4.6625    0.0000 C   0  0  0  0  0  0  0  0  0  0  0  0
   10.3764   -5.9907    0.0000 C   0  0  0  0  0  0  0  0  0  0  0  0
   11.5248   -6.6548    0.0000 O   0  0  0  0  0  0  0  0  0  0  0  0
   12.6869   -5.9907    0.0000 C   0  0  0  0  0  0  0  0  0  0  0  0
   12.6869   -4.6625    0.0000 O   0  0  0  0  0  0  0  0  0  0  0  0
   13.8353   -6.6548    0.0000 C   0  0  0  0  0  0  0  0  0  0  0  0
    9.2281   -6.6548    0.0000 C   0  0  0  0  0  0  0  0  0  0  0  0
    8.0660   -5.9907    0.0000 C   0  0  0  0  0  0  0  0  0  0  0  0
    8.0660   -4.6625    0.0000 C   0  0  0  0  0  0  0  0  0  0  0  0
    6.9176   -3.9984    0.0000 C   0  0  0  0  0  0  0  0  0  0  0  0
    6.9176   -2.6564    0.0000 C   0  0  0  0  0  0  0  0  0  0  0  0
    5.7693   -1.9923    0.0000 C   0  0  0  0  0  0  0  0  0  0  0  0
    5.7693   -0.6641    0.0000 C   0  0  0  0  0  0  0  0  0  0  0  0
    6.9176    0.0000    0.0000 C   0  0  0  0  0  0  0  0  0  0  0  0
    8.0660   -0.6641    0.0000 C   0  0  0  0  0  0  0  0  0  0  0  0
    8.0660   -1.9923    0.0000 C   0  0  0  0  0  0  0  0  0  0  0  0
    5.7693   -4.6625    0.0000 C   0  0  0  0  0  0  0  0  0  0  0  0
    5.7693   -5.9907    0.0000 C   0  0  0  0  0  0  0  0  0  0  0  0
    4.6071   -6.6548    0.0000 C   0  0  0  0  0  0  0  0  0  0  0  0
    3.4588   -5.9907    0.0000 C   0  0  0  0  0  0  0  0  0  0  0  0
    2.3105   -6.6548    0.0000 O   0  0  0  0  0  0  0  0  0  0  0  0
    1.1483   -5.9907    0.0000 C   0  0  0  0  0  0  0  0  0  0  0  0
    0.0000   -6.6548    0.0000 C   0  0  0  0  0  0  0  0  0  0  0  0
    1.1483   -4.6625    0.0000 O   0  0  0  0  0  0  0  0  0  0  0  0
    3.4588   -4.6625    0.0000 C   0  0  0  0  0  0  0  0  0  0  0  0
    4.6071   -3.9984    0.0000 C   0  0  0  0  0  0  0  0  0  0  0  0
    9.2281   -3.9984    0.0000 C   0  0  0  0  0  0  0  0  0  0  0  0
  1  2  2  0  0  0  0
  1 27  1  0  0  0  0
  2  3  1  0  0  0  0
  2  7  1  0  0  0  0
  3  4  1  0  0  0  0
  4  5  2  0  0  0  0
  4  6  1  0  0  0  0
  7  8  2  0  0  0  0
  8  9  1  0  0  0  0
  9 10  1  0  0  0  0
  9 27  2  0  0  0  0
 10 11  2  0  0  0  0
 10 17  1  0  0  0  0
 11 12  1  0  0  0  0
 11 16  1  0  0  0  0
 12 13  1  0  0  0  0
 13 14  1  0  0  0  0
 14 15  1  0  0  0  0
 15 16  1  0  0  0  0
 17 18  2  0  0  0  0
 17 26  1  0  0  0  0
 18 19  1  0  0  0  0
 19 20  2  0  0  0  0
 20 21  1  0  0  0  0
 20 25  1  0  0  0  0
 21 22  1  0  0  0  0
 22 23  1  0  0  0  0
 22 24  2  0  0  0  0
 25 26  2  0  0  0  0
M  END
> <ID>
2590

> <Formula>
C23H24O4

> <FW>
364.4343

> <DSSTox_CID>
2866

> <DSSTox_RID>
76764

> <DSSTox_GSID>
22866

> <DSSTox_FileID_Sort>
1448

> <TS_ChemName>
Cyclofenil

> <TS_ChemName_Synonyms>


> <TS_CASRN>
2624-43-3

> <CASRN_ChemName_Relationship>
primary

> <TS_Description>
single chemical compound

> <ChemNote>


> <STRUCTURE_Shown>
tested chemical

> <STRUCTURE_Formula>
C23H24O4

> <STRUCTURE_MW>
364.4343

> <STRUCTURE_ChemType>
defined organic

> <STRUCTURE_DefinedOrganicForm>
parent

> <STRUCTURE_IUPAC>
(cyclohexylidenemethanediyl)dibenzene-4,1-diyl diacetate

> <STRUCTURE_SMILES>
CC(=O)Oc1ccc(cc1)C(/c2ccc(OC(C)=O)cc2)=C3/CCCCC3

> <STRUCTURE_SMILES_Desalt>
CC(=O)Oc1ccc(cc1)C(/c2ccc(OC(C)=O)cc2)=C3/CCCCC3

> <Substance_modify_yyyymmdd>
20080429

$$$$
