2624-44-4
ChemmineR-0915142007XD

 17 16  0  0  0  0  0  0  0  0  1 V2000
    0.6603   -5.9488    0.0000 C   0  0  0  0  0  0  0  0  0  0  0  0
    1.8144   -5.2884    0.0000 C   0  0  0  0  0  0  0  0  0  0  0  0
    2.9684   -5.9488    0.0000 N   0  0  0  0  0  0  0  0  0  0  0  0
    4.1225   -5.2884    0.0000 C   0  0  0  0  0  0  0  0  0  0  0  0
    5.2765   -5.9488    0.0000 C   0  0  0  0  0  0  0  0  0  0  0  0
    5.7584   -2.6591    0.0000 O   0  0  0  0  0  0  0  0  0  0  0  0
    4.6162   -2.0047    0.0000 C   0  0  0  0  0  0  0  0  0  0  0  0
    3.4622   -2.6591    0.0000 C   0  0  0  0  0  0  0  0  0  0  0  0
    2.3081   -2.0047    0.0000 C   0  0  0  0  0  0  0  0  0  0  0  0
    2.3081   -0.6722    0.0000 C   0  0  0  0  0  0  0  0  0  0  0  0
    1.1541    0.0000    0.0000 O   0  0  0  0  0  0  0  0  0  0  0  0
    3.4622    0.0000    0.0000 C   0  0  0  0  0  0  0  0  0  0  0  0
    4.6162   -0.6722    0.0000 C   0  0  0  0  0  0  0  0  0  0  0  0
    1.1541   -2.6591    0.0000 S   0  0  0  0  0  0  0  0  0  0  0  0
    1.8144   -3.8191    0.0000 O   0  0  0  0  0  0  0  0  0  0  0  0
    0.0000   -3.3373    0.0000 O   0  0  0  0  0  0  0  0  0  0  0  0
    0.4818   -1.5229    0.0000 O   0  0  0  0  0  0  0  0  0  0  0  0
  1  2  1  0  0  0  0
  2  3  1  0  0  0  0
  3  4  1  0  0  0  0
  4  5  1  0  0  0  0
  6  7  1  0  0  0  0
  7  8  2  0  0  0  0
  7 13  1  0  0  0  0
  8  9  1  0  0  0  0
  9 10  2  0  0  0  0
  9 14  1  0  0  0  0
 10 11  1  0  0  0  0
 10 12  1  0  0  0  0
 12 13  2  0  0  0  0
 14 15  1  0  0  0  0
 14 16  2  0  0  0  0
 14 17  2  0  0  0  0
M  END
> <ID>
11024

> <Formula>
C10H17NO5S

> <FW>
263.3107 (73.1368+190.1738)

> <DSSTox_CID>
25559

> <DSSTox_RID>
80956

> <DSSTox_GSID>
45559

> <DSSTox_FileID_Sort>
5637

> <TS_ChemName>
Ethamsylate

> <TS_ChemName_Synonyms>


> <TS_CASRN>
2624-44-4

> <CASRN_ChemName_Relationship>
primary

> <TS_Description>
single chemical compound

> <ChemNote>
parent [88-46-0]

> <STRUCTURE_Shown>
tested chemical

> <STRUCTURE_Formula>
C10H17NO5S

> <STRUCTURE_MW>
263.3107

> <STRUCTURE_ChemType>
defined organic

> <STRUCTURE_DefinedOrganicForm>
complex

> <STRUCTURE_IUPAC>
2,5-dihydroxybenzenesulfonic acid - N-ethylethanamine (1:1)

> <STRUCTURE_SMILES>
Oc1ccc(O)cc1S(O)(=O)=O.CCNCC

> <STRUCTURE_SMILES_Desalt>
Oc1ccc(O)cc1S(O)(=O)=O

> <Substance_modify_yyyymmdd>
20100107

$$$$
