26259-45-0
ChemmineR-0915142007XD

 16 16  0  0  0  0  0  0  0  0  1 V2000
    2.4339   -2.4652    0.0000 C   0  0  0  0  0  0  0  0  0  0  0  0
    0.0000   -3.8336    0.0000 C   0  0  0  0  0  0  0  0  0  0  0  0
    4.7528    0.0000    0.0000 C   0  0  0  0  0  0  0  0  0  0  0  0
    1.2117   -4.5439    0.0000 C   0  0  0  0  0  0  0  0  0  0  0  0
    2.4339   -3.8545    0.0000 C   0  0  0  0  0  0  0  0  0  0  0  0
   10.4458   -4.5753    0.0000 C   0  0  0  0  0  0  0  0  0  0  0  0
    9.3072   -3.9172    0.0000 C   0  0  0  0  0  0  0  0  0  0  0  0
    5.8810   -0.6476    0.0000 O   0  0  0  0  0  0  0  0  0  0  0  0
    8.1686   -4.5753    0.0000 N   0  0  0  0  0  0  0  0  0  0  0  0
    3.6143   -4.5544    0.0000 N   0  0  0  0  0  0  0  0  0  0  0  0
    7.0196   -2.6010    0.0000 N   0  0  0  0  0  0  0  0  0  0  0  0
    7.0196   -3.9172    0.0000 C   0  0  0  0  0  0  0  0  0  0  0  0
    5.8810   -1.9534    0.0000 C   0  0  0  0  0  0  0  0  0  0  0  0
    5.8810   -4.5753    0.0000 N   0  0  0  0  0  0  0  0  0  0  0  0
    4.7633   -2.6219    0.0000 N   0  0  0  0  0  0  0  0  0  0  0  0
    4.7633   -3.9172    0.0000 C   0  0  0  0  0  0  0  0  0  0  0  0
  1  5  1  0  0  0  0
  2  4  1  0  0  0  0
  3  8  1  0  0  0  0
  4  5  1  0  0  0  0
  5 10  1  0  0  0  0
  6  7  1  0  0  0  0
  7  9  1  0  0  0  0
  8 13  1  0  0  0  0
  9 12  1  0  0  0  0
 10 16  1  0  0  0  0
 11 12  2  0  0  0  0
 11 13  1  0  0  0  0
 12 14  1  0  0  0  0
 13 15  2  0  0  0  0
 14 16  2  0  0  0  0
 15 16  1  0  0  0  0
M  END
> <ID>
7354

> <Formula>
C10H19N5O

> <FW>
225.2908

> <DSSTox_CID>
17594

> <DSSTox_RID>
79346

> <DSSTox_GSID>
37594

> <DSSTox_FileID_Sort>
4028

> <TS_ChemName>
Secbumeton

> <TS_ChemName_Synonyms>


> <TS_CASRN>
26259-45-0

> <CASRN_ChemName_Relationship>
primary

> <TS_Description>
single chemical compound

> <ChemNote>


> <STRUCTURE_Shown>
tested chemical

> <STRUCTURE_Formula>
C10H19N5O

> <STRUCTURE_MW>
225.2908

> <STRUCTURE_ChemType>
defined organic

> <STRUCTURE_DefinedOrganicForm>
parent

> <STRUCTURE_IUPAC>
N-(butan-2-yl)-N'-ethyl-6-methoxy-1,3,5-triazine-2,4-diamine

> <STRUCTURE_SMILES>
COc1nc(NCC)nc(NC(C)CC)n1

> <STRUCTURE_SMILES_Desalt>
COc1nc(NCC)nc(NC(C)CC)n1

> <Substance_modify_yyyymmdd>
20080429

$$$$
