26266-57-9
ChemmineR-0915142007XD

 28 28  0  0  1  0  0  0  0  0  1 V2000
   21.8695   -1.9903    0.0000 C   0  0  0  0  0  0  0  0  0  0  0  0
   23.0685   -1.4628    0.0000 O   0  0  0  0  0  0  0  0  0  0  0  0
   22.0134   -3.3092    0.0000 C   0  0  0  0  0  0  0  0  0  0  0  0
   23.9797   -2.4219    0.0000 C   0  0  0  0  0  0  0  0  0  0  0  0
   23.3083   -3.5970    0.0000 C   0  0  0  0  0  0  0  0  0  0  0  0
   23.8598   -4.7959    0.0000 O   0  0  0  0  0  0  0  0  0  0  0  0
   21.0302   -4.1964    0.0000 O   0  0  0  0  0  0  0  0  0  0  0  0
   20.7185   -1.3189    0.0000 C   0  0  0  0  0  0  0  0  0  0  0  0
   20.7185    0.0000    0.0000 O   0  0  0  0  0  0  0  0  0  0  0  0
   19.5674   -1.9903    0.0000 C   0  0  0  0  0  0  0  0  0  0  0  0
   18.4164   -1.3189    0.0000 O   0  0  0  0  0  0  0  0  0  0  0  0
   17.2894   -1.9903    0.0000 C   0  0  0  0  0  0  0  0  0  0  0  0
   16.1144   -1.3189    0.0000 C   0  0  0  0  0  0  0  0  0  0  0  0
   17.2894   -3.3092    0.0000 O   0  0  0  0  0  0  0  0  0  0  0  0
   14.9633   -1.9903    0.0000 C   0  0  0  0  0  0  0  0  0  0  0  0
   13.8123   -1.3189    0.0000 C   0  0  0  0  0  0  0  0  0  0  0  0
   12.6613   -1.9903    0.0000 C   0  0  0  0  0  0  0  0  0  0  0  0
   11.5342   -1.3189    0.0000 C   0  0  0  0  0  0  0  0  0  0  0  0
   10.3592   -1.9903    0.0000 C   0  0  0  0  0  0  0  0  0  0  0  0
    9.2082   -1.3189    0.0000 C   0  0  0  0  0  0  0  0  0  0  0  0
    8.0572   -1.9903    0.0000 C   0  0  0  0  0  0  0  0  0  0  0  0
    6.9062   -1.3189    0.0000 C   0  0  0  0  0  0  0  0  0  0  0  0
    5.7791   -1.9903    0.0000 C   0  0  0  0  0  0  0  0  0  0  0  0
    4.6041   -1.3189    0.0000 C   0  0  0  0  0  0  0  0  0  0  0  0
    3.4531   -1.9903    0.0000 C   0  0  0  0  0  0  0  0  0  0  0  0
    2.3021   -1.3189    0.0000 C   0  0  0  0  0  0  0  0  0  0  0  0
    1.1510   -1.9903    0.0000 C   0  0  0  0  0  0  0  0  0  0  0  0
    0.0000   -1.3189    0.0000 C   0  0  0  0  0  0  0  0  0  0  0  0
  1  2  1  1  0  0  0
  1  3  1  0  0  0  0
  1  8  1  0  0  0  0
  2  4  1  0  0  0  0
  3  5  1  0  0  0  0
  3  7  1  1  0  0  0
  4  5  1  0  0  0  0
  5  6  1  6  0  0  0
  8  9  1  1  0  0  0
  8 10  1  0  0  0  0
 10 11  1  0  0  0  0
 11 12  1  0  0  0  0
 12 13  1  0  0  0  0
 12 14  2  0  0  0  0
 13 15  1  0  0  0  0
 15 16  1  0  0  0  0
 16 17  1  0  0  0  0
 17 18  1  0  0  0  0
 18 19  1  0  0  0  0
 19 20  1  0  0  0  0
 20 21  1  0  0  0  0
 21 22  1  0  0  0  0
 22 23  1  0  0  0  0
 23 24  1  0  0  0  0
 24 25  1  0  0  0  0
 25 26  1  0  0  0  0
 26 27  1  0  0  0  0
 27 28  1  0  0  0  0
M  END
> <ID>
5958

> <Formula>
C22H42O6

> <FW>
402.5653

> <DSSTox_CID>
9335

> <DSSTox_RID>
78767

> <DSSTox_GSID>
29335

> <DSSTox_FileID_Sort>
3449

> <TS_ChemName>
Sorbitan monohexadecanoate

> <TS_ChemName_Synonyms>
Sorbitan, monohexadecanoate

> <TS_CASRN>
26266-57-9

> <CASRN_ChemName_Relationship>
primary

> <TS_Description>
single chemical compound

> <ChemNote>
stereochem

> <STRUCTURE_Shown>
tested chemical

> <STRUCTURE_Formula>
C22H42O6

> <STRUCTURE_MW>
402.5653

> <STRUCTURE_ChemType>
defined organic

> <STRUCTURE_DefinedOrganicForm>
parent

> <STRUCTURE_IUPAC>
1,4-anhydro-6-O-hexadecanoyl-D-glucitol

> <STRUCTURE_SMILES>
O[C@H](COC(=O)CCCCCCCCCCCCCCC)[C@H]1OC[C@H](O)[C@H]1O

> <STRUCTURE_SMILES_Desalt>
O[C@H](COC(=O)CCCCCCCCCCCCCCC)[C@H]1OC[C@H](O)[C@H]1O

> <Substance_modify_yyyymmdd>
20080429

$$$$
