26264-06-2
ChemmineR-0915142007XD

 45 44  0  0  0  0  0  0  0  0  2 V2000
   12.6587   -7.2003    0.0000 C    0  0  0  0  0  0  0  0  0  0  0  0
   11.5264   -7.8681    0.0000 C    0  0  0  0  0  0  0  0  0  0  0  0
   10.3650   -7.2003    0.0000 C    0  0  0  0  0  0  0  0  0  0  0  0
    9.2037   -7.8681    0.0000 C    0  0  0  0  0  0  0  0  0  0  0  0
    8.0714   -7.2003    0.0000 C    0  0  0  0  0  0  0  0  0  0  0  0
    6.9100   -7.8681    0.0000 C    0  0  0  0  0  0  0  0  0  0  0  0
    5.7487   -7.2003    0.0000 C    0  0  0  0  0  0  0  0  0  0  0  0
    4.6164   -7.8681    0.0000 C    0  0  0  0  0  0  0  0  0  0  0  0
    3.4550   -7.2003    0.0000 C    0  0  0  0  0  0  0  0  0  0  0  0
    2.2937   -7.8681    0.0000 C    0  0  0  0  0  0  0  0  0  0  0  0
    1.1613   -7.2003    0.0000 C    0  0  0  0  0  0  0  0  0  0  0  0
    0.0000   -7.8681    0.0000 C    0  0  0  0  0  0  0  0  0  0  0  0
   10.3650   -3.2227    0.0000 C    0  0  0  0  0  0  0  0  0  0  0  0
   11.5264   -3.8905    0.0000 C    0  0  0  0  0  0  0  0  0  0  0  0
   11.5264   -5.1970    0.0000 C    0  0  0  0  0  0  0  0  0  0  0  0
   10.3650   -5.8648    0.0000 C    0  0  0  0  0  0  0  0  0  0  0  0
    9.2037   -5.1970    0.0000 C    0  0  0  0  0  0  0  0  0  0  0  0
    9.2037   -3.8905    0.0000 C    0  0  0  0  0  0  0  0  0  0  0  0
   10.3650   -1.8872    0.0000 S    0  0  0  0  0  0  0  0  0  0  0  0
   11.7006   -1.8872    0.0000 O    0  0  0  0  0  0  0  0  0  0  0  0
    9.0295   -1.8872    0.0000 O    0  5  0  0  0  0  0  0  0  0  0  0
   10.3650   -0.5516    0.0000 O    0  0  0  0  0  0  0  0  0  0  0  0
   29.0337   -6.6487    0.0000 C    0  0  0  0  0  0  0  0  0  0  0  0
   27.8723   -7.3165    0.0000 C    0  0  0  0  0  0  0  0  0  0  0  0
   26.7400   -6.6487    0.0000 C    0  0  0  0  0  0  0  0  0  0  0  0
   25.5787   -7.3165    0.0000 C    0  0  0  0  0  0  0  0  0  0  0  0
   24.4173   -6.6487    0.0000 C    0  0  0  0  0  0  0  0  0  0  0  0
   23.2850   -7.3165    0.0000 C    0  0  0  0  0  0  0  0  0  0  0  0
   22.1236   -6.6487    0.0000 C    0  0  0  0  0  0  0  0  0  0  0  0
   20.9623   -7.3165    0.0000 C    0  0  0  0  0  0  0  0  0  0  0  0
   19.8300   -6.6487    0.0000 C    0  0  0  0  0  0  0  0  0  0  0  0
   18.6686   -7.3165    0.0000 C    0  0  0  0  0  0  0  0  0  0  0  0
   17.5073   -6.6487    0.0000 C    0  0  0  0  0  0  0  0  0  0  0  0
   16.3750   -7.3165    0.0000 C    0  0  0  0  0  0  0  0  0  0  0  0
   26.7400   -2.6711    0.0000 C    0  0  0  0  0  0  0  0  0  0  0  0
   27.8723   -3.3389    0.0000 C    0  0  0  0  0  0  0  0  0  0  0  0
   27.8723   -4.6744    0.0000 C    0  0  0  0  0  0  0  0  0  0  0  0
   26.7400   -5.3422    0.0000 C    0  0  0  0  0  0  0  0  0  0  0  0
   25.5787   -4.6744    0.0000 C    0  0  0  0  0  0  0  0  0  0  0  0
   25.5787   -3.3389    0.0000 C    0  0  0  0  0  0  0  0  0  0  0  0
   26.7400   -1.3355    0.0000 S    0  0  0  0  0  0  0  0  0  0  0  0
   28.0465   -1.3355    0.0000 O    0  0  0  0  0  0  0  0  0  0  0  0
   25.4045   -1.3355    0.0000 O    0  5  0  0  0  0  0  0  0  0  0  0
   26.7400    0.0000    0.0000 O    0  0  0  0  0  0  0  0  0  0  0  0
   16.4331   -2.2066    0.0000 Ca   0  2  0  0  0  0  0  0  0  0  0  0
  1  2  1  0  0  0  0
  2  3  1  0  0  0  0
  3  4  1  0  0  0  0
  3 16  1  0  0  0  0
  4  5  1  0  0  0  0
  5  6  1  0  0  0  0
  6  7  1  0  0  0  0
  7  8  1  0  0  0  0
  8  9  1  0  0  0  0
  9 10  1  0  0  0  0
 10 11  1  0  0  0  0
 11 12  1  0  0  0  0
 13 14  2  0  0  0  0
 13 18  1  0  0  0  0
 13 19  1  0  0  0  0
 14 15  1  0  0  0  0
 15 16  2  0  0  0  0
 16 17  1  0  0  0  0
 17 18  2  0  0  0  0
 19 20  2  0  0  0  0
 19 21  1  0  0  0  0
 19 22  2  0  0  0  0
 23 24  1  0  0  0  0
 24 25  1  0  0  0  0
 25 26  1  0  0  0  0
 25 38  1  0  0  0  0
 26 27  1  0  0  0  0
 27 28  1  0  0  0  0
 28 29  1  0  0  0  0
 29 30  1  0  0  0  0
 30 31  1  0  0  0  0
 31 32  1  0  0  0  0
 32 33  1  0  0  0  0
 33 34  1  0  0  0  0
 35 36  2  0  0  0  0
 35 40  1  0  0  0  0
 35 41  1  0  0  0  0
 36 37  1  0  0  0  0
 37 38  2  0  0  0  0
 38 39  1  0  0  0  0
 39 40  2  0  0  0  0
 41 42  2  0  0  0  0
 41 43  1  0  0  0  0
 41 44  2  0  0  0  0
M  END
> <ID>
5479

> <Formula>
C36H58CaO6S2

> <FW>
691.0501 (325.4866+325.4866+40.0769)

> <DSSTox_CID>
7891

> <DSSTox_RID>
78605

> <DSSTox_GSID>
27891

> <DSSTox_FileID_Sort>
3287

> <TS_ChemName>
Calcium dodecylbenzene sulfonate

> <TS_ChemName_Synonyms>
Benzenesulfonic acid, dodecyl-, calcium salt

> <TS_CASRN>
26264-06-2

> <CASRN_ChemName_Relationship>
primary

> <TS_Description>
mixture or formulation

> <ChemNote>
mixture of benzenesulfonates; benzene sulfonated at C 2,3,4 and dodecyl chain attached at any position except terminal carbons; structure shown attached at C3; parent [27176-87-0 ]

> <STRUCTURE_Shown>
representative component

> <STRUCTURE_Formula>
C36H58CaO6S2

> <STRUCTURE_MW>
691.0501

> <STRUCTURE_ChemType>
defined organic

> <STRUCTURE_DefinedOrganicForm>
salt

> <STRUCTURE_IUPAC>
calcium bis[4-(dodecan-3-yl)benzenesulfonate]

> <STRUCTURE_SMILES>
[Ca+2].O=S([O-])(=O)c1ccc(cc1)C(CC)CCCCCCCCC.CCC(CCCCCCCCC)c1ccc(cc1)S([O-])(=O)=O

> <STRUCTURE_SMILES_Desalt>
OS(=O)(=O)c1ccc(cc1)C(CC)CCCCCCCCC

> <Substance_modify_yyyymmdd>
20080429

$$$$
