2627-95-4
ChemmineR-0915142007XD

 11 10  0  0  0  0  0  0  0  0  1 V2000
    1.1355   -1.9843    0.0000 Si   0  0  0  0  0  0  0  0  0  0  0  0
    2.2768   -2.6611    0.0000 O    0  0  0  0  0  0  0  0  0  0  0  0
    3.4296   -1.9843    0.0000 Si   0  0  0  0  0  0  0  0  0  0  0  0
    1.1355   -0.6710    0.0000 C    0  0  0  0  0  0  0  0  0  0  0  0
    0.0000    0.0000    0.0000 C    0  0  0  0  0  0  0  0  0  0  0  0
    4.5651   -2.6611    0.0000 C    0  0  0  0  0  0  0  0  0  0  0  0
    5.7350   -1.9843    0.0000 C    0  0  0  0  0  0  0  0  0  0  0  0
    0.0000   -2.6611    0.0000 C    0  0  0  0  0  0  0  0  0  0  0  0
    1.1355   -3.3321    0.0000 C    0  0  0  0  0  0  0  0  0  0  0  0
    3.4296   -0.6710    0.0000 C    0  0  0  0  0  0  0  0  0  0  0  0
    3.4296   -3.3321    0.0000 C    0  0  0  0  0  0  0  0  0  0  0  0
  1  2  1  0  0  0  0
  1  4  1  0  0  0  0
  1  8  1  0  0  0  0
  1  9  1  0  0  0  0
  2  3  1  0  0  0  0
  3  6  1  0  0  0  0
  3 10  1  0  0  0  0
  3 11  1  0  0  0  0
  4  5  2  0  0  0  0
  6  7  2  0  0  0  0
M  END
> <ID>
7504

> <Formula>
C8H18OSi2

> <FW>
186.3989

> <DSSTox_CID>
18810

> <DSSTox_RID>
79399

> <DSSTox_GSID>
38810

> <DSSTox_FileID_Sort>
4081

> <TS_ChemName>
1,3-Divinyl-1,1,3,3-tetramethyl disiloxane

> <TS_ChemName_Synonyms>
1,3-Divinyltetramethyldisiloxane (Disiloxane, 1,3-diethenyl-1,1,3,3-tetramethyl-)

> <TS_CASRN>
2627-95-4

> <CASRN_ChemName_Relationship>
primary

> <TS_Description>
single chemical compound

> <ChemNote>


> <STRUCTURE_Shown>
tested chemical

> <STRUCTURE_Formula>
C8H18OSi2

> <STRUCTURE_MW>
186.3989

> <STRUCTURE_ChemType>
organometallic

> <STRUCTURE_DefinedOrganicForm>


> <STRUCTURE_IUPAC>
1,3-diethenyl-1,1,3,3-tetramethyldisiloxane

> <STRUCTURE_SMILES>
C[Si](C)(O[Si](C)(C)C=C)C=C

> <STRUCTURE_SMILES_Desalt>
C[Si](C)(O[Si](C)(C)C=C)C=C

> <Substance_modify_yyyymmdd>
20080429

$$$$
