2627-69-2
ChemmineR-0915142007XD

 18 19  0  0  1  0  0  0  0  0  1 V2000
    4.3363   -5.9593    0.0000 C   0  0  0  0  0  0  0  0  0  0  0  0
    4.2864   -4.3030    0.0000 N   0  0  0  0  0  0  0  0  0  0  0  0
    3.2626   -5.2019    0.0000 O   0  0  0  0  0  0  0  0  0  0  0  0
    3.9701   -7.2077    0.0000 C   0  0  0  0  0  0  0  0  0  0  0  0
    5.3101   -3.5123    0.0000 C   0  0  0  0  0  0  0  0  0  0  0  0
    3.2127   -3.5456    0.0000 C   0  0  0  0  0  0  0  0  0  0  0  0
    2.2222   -6.0092    0.0000 C   0  0  0  0  0  0  0  0  0  0  0  0
    2.6467   -7.2327    0.0000 C   0  0  0  0  0  0  0  0  0  0  0  0
    4.7608   -8.2564    0.0000 O   0  0  0  0  0  0  0  0  0  0  0  0
    4.9189   -2.2888    0.0000 C   0  0  0  0  0  0  0  0  0  0  0  0
    6.5752   -3.9118    0.0000 N   0  0  0  0  0  0  0  0  0  0  0  0
    3.6122   -2.2888    0.0000 N   0  0  0  0  0  0  0  0  0  0  0  0
    0.9655   -5.6430    0.0000 C   0  0  0  0  0  0  0  0  0  0  0  0
    1.9060   -8.3230    0.0000 O   0  0  0  0  0  0  0  0  0  0  0  0
    5.6763   -1.2152    0.0000 C   0  0  0  0  0  0  0  0  0  0  0  0
    0.0000   -6.5419    0.0000 O   0  0  0  0  0  0  0  0  0  0  0  0
    6.9830   -1.3234    0.0000 N   0  0  0  0  0  0  0  0  0  0  0  0
    5.1270    0.0000    0.0000 O   0  0  0  0  0  0  0  0  0  0  0  0
  1  2  1  1  0  0  0
  1  3  1  0  0  0  0
  1  4  1  0  0  0  0
  2  5  1  0  0  0  0
  2  6  1  0  0  0  0
  3  7  1  0  0  0  0
  4  8  1  0  0  0  0
  4  9  1  6  0  0  0
  5 10  2  0  0  0  0
  5 11  1  0  0  0  0
  6 12  2  0  0  0  0
  7 13  1  1  0  0  0
  7  8  1  0  0  0  0
  8 14  1  6  0  0  0
 10 15  1  0  0  0  0
 10 12  1  0  0  0  0
 13 16  1  0  0  0  0
 15 17  1  0  0  0  0
 15 18  2  0  0  0  0
M  END
> <ID>
11358

> <Formula>
C9H14N4O5

> <FW>
258.2313

> <DSSTox_CID>
26015

> <DSSTox_RID>
81290

> <DSSTox_GSID>
46015

> <DSSTox_FileID_Sort>
5971

> <TS_ChemName>
Acadesine

> <TS_ChemName_Synonyms>


> <TS_CASRN>
2627-69-2

> <CASRN_ChemName_Relationship>
primary

> <TS_Description>
single chemical compound

> <ChemNote>
stereochem

> <STRUCTURE_Shown>
tested chemical

> <STRUCTURE_Formula>
C9H14N4O5

> <STRUCTURE_MW>
258.2313

> <STRUCTURE_ChemType>
defined organic

> <STRUCTURE_DefinedOrganicForm>
parent

> <STRUCTURE_IUPAC>
5-amino-1-(beta-D-ribofuranosyl)-1H-imidazole-4-carboxamide

> <STRUCTURE_SMILES>
NC(=O)c2ncn([C@@H]1O[C@H](CO)[C@@H](O)[C@H]1O)c2N

> <STRUCTURE_SMILES_Desalt>
NC(=O)c2ncn([C@@H]1O[C@H](CO)[C@@H](O)[C@H]1O)c2N

> <Substance_modify_yyyymmdd>
20110824

$$$$
