2628-16-2
ChemmineR-0915142007XD

 12 12  0  0  0  0  0  0  0  0  1 V2000
    4.6585   -2.3013    0.0000 C   0  0  0  0  0  0  0  0  0  0  0  0
    5.9930   -2.3013    0.0000 O   0  0  0  0  0  0  0  0  0  0  0  0
    3.9873   -3.4599    0.0000 C   0  0  0  0  0  0  0  0  0  0  0  0
    3.9873   -1.1586    0.0000 C   0  0  0  0  0  0  0  0  0  0  0  0
    2.6689   -1.1586    0.0000 C   0  0  0  0  0  0  0  0  0  0  0  0
    2.6689   -3.4599    0.0000 C   0  0  0  0  0  0  0  0  0  0  0  0
    2.0136   -2.3013    0.0000 C   0  0  0  0  0  0  0  0  0  0  0  0
    0.6792   -2.3013    0.0000 C   0  0  0  0  0  0  0  0  0  0  0  0
    0.0000   -3.4599    0.0000 C   0  0  0  0  0  0  0  0  0  0  0  0
    6.6562   -1.1586    0.0000 C   0  0  0  0  0  0  0  0  0  0  0  0
    5.9770    0.0000    0.0000 O   0  0  0  0  0  0  0  0  0  0  0  0
    7.9906   -1.1586    0.0000 C   0  0  0  0  0  0  0  0  0  0  0  0
  1  2  1  0  0  0  0
  1  3  2  0  0  0  0
  1  4  1  0  0  0  0
  2 10  1  0  0  0  0
  3  6  1  0  0  0  0
  4  5  2  0  0  0  0
  5  7  1  0  0  0  0
  6  7  2  0  0  0  0
  7  8  1  0  0  0  0
  8  9  2  0  0  0  0
 10 11  2  0  0  0  0
 10 12  1  0  0  0  0
M  END
> <ID>
10545

> <Formula>
C10H10O2

> <FW>
162.1852

> <DSSTox_CID>
24898

> <DSSTox_RID>
80569

> <DSSTox_GSID>
44898

> <DSSTox_FileID_Sort>
5251

> <TS_ChemName>
4-Ethenylphenyl acetate

> <TS_ChemName_Synonyms>
4-Ethenylphenyl acetate (Phenol, 4-ethenyl-, acetate)

> <TS_CASRN>
2628-16-2

> <CASRN_ChemName_Relationship>
primary

> <TS_Description>
single chemical compound

> <ChemNote>


> <STRUCTURE_Shown>
tested chemical

> <STRUCTURE_Formula>
C10H10O2

> <STRUCTURE_MW>
162.1852

> <STRUCTURE_ChemType>
defined organic

> <STRUCTURE_DefinedOrganicForm>
parent

> <STRUCTURE_IUPAC>
4-ethenylphenyl acetate

> <STRUCTURE_SMILES>
O=C(C)Oc1ccc(cc1)C=C

> <STRUCTURE_SMILES_Desalt>
O=C(C)Oc1ccc(cc1)C=C

> <Substance_modify_yyyymmdd>
20091116

$$$$
