26305-03-3
ChemmineR-0915142007XD

 48 47  0  0  1  0  0  0  0  0  1 V2000
   11.5067   -2.0127    0.0000 C   0  0  0  0  0  0  0  0  0  0  0  0
   11.5067   -0.6836    0.0000 C   0  0  0  0  0  0  0  0  0  0  0  0
   12.6586   -2.6963    0.0000 C   0  0  0  0  0  0  0  0  0  0  0  0
   10.3547   -2.6836    0.0000 C   0  0  0  0  0  0  0  0  0  0  0  0
    9.2155   -2.0001    0.0000 C   0  0  0  0  0  0  0  0  0  0  0  0
    9.2155   -0.6836    0.0000 O   0  0  0  0  0  0  0  0  0  0  0  0
    8.0382   -2.6836    0.0000 N   0  0  0  0  0  0  0  0  0  0  0  0
    6.9116   -2.0001    0.0000 C   0  0  0  0  0  0  0  0  0  0  0  0
    8.0635   -0.0127    0.0000 C   0  0  0  0  0  0  0  0  0  0  0  0
    6.9116   -0.6836    0.0000 C   0  0  0  0  0  0  0  0  0  0  0  0
    5.7217    0.0000    0.0000 C   0  0  0  0  0  0  0  0  0  0  0  0
    5.7217   -2.6710    0.0000 C   0  0  0  0  0  0  0  0  0  0  0  0
    4.5951   -2.0001    0.0000 N   0  0  0  0  0  0  0  0  0  0  0  0
    5.7217   -4.0128    0.0000 O   0  0  0  0  0  0  0  0  0  0  0  0
    3.4431   -2.6836    0.0000 C   0  0  0  0  0  0  0  0  0  0  0  0
    2.2785   -2.0001    0.0000 C   0  0  0  0  0  0  0  0  0  0  0  0
    3.4431   -4.0001    0.0000 C   0  0  0  0  0  0  0  0  0  0  0  0
    2.2785   -0.6836    0.0000 C   0  0  0  0  0  0  0  0  0  0  0  0
    1.1393   -2.6836    0.0000 C   0  0  0  0  0  0  0  0  0  0  0  0
    2.3039   -4.6710    0.0000 N   0  0  0  0  0  0  0  0  0  0  0  0
    4.5951   -4.6710    0.0000 O   0  0  0  0  0  0  0  0  0  0  0  0
    2.3039   -6.0002    0.0000 C   0  0  0  0  0  0  0  0  0  0  0  0
    1.1393   -6.6458    0.0000 C   0  0  0  0  0  0  0  0  0  0  0  0
    3.4431   -6.6458    0.0000 C   0  0  0  0  0  0  0  0  0  0  0  0
    1.1393   -7.9623    0.0000 C   0  0  0  0  0  0  0  0  0  0  0  0
    0.0000   -8.6332    0.0000 C   0  0  0  0  0  0  0  0  0  0  0  0
    2.3039   -8.6458    0.0000 C   0  0  0  0  0  0  0  0  0  0  0  0
    3.4431   -7.9623    0.0000 C   0  0  0  0  0  0  0  0  0  0  0  0
    4.5951   -5.9622    0.0000 O   0  0  0  0  0  0  0  0  0  0  0  0
    4.5951   -8.6458    0.0000 C   0  0  0  0  0  0  0  0  0  0  0  0
    4.5951   -9.9623    0.0000 N   0  0  0  0  0  0  0  0  0  0  0  0
    5.7470   -7.9623    0.0000 O   0  0  0  0  0  0  0  0  0  0  0  0
    5.7217  -10.6332    0.0000 C   0  0  0  0  0  0  0  0  0  0  0  0
    5.7217  -11.9624    0.0000 C   0  0  0  0  0  0  0  0  0  0  0  0
    6.9116   -9.9623    0.0000 C   0  0  0  0  0  0  0  0  0  0  0  0
    8.0635  -10.6459    0.0000 N   0  0  0  0  0  0  0  0  0  0  0  0
    6.9116   -8.6458    0.0000 O   0  0  0  0  0  0  0  0  0  0  0  0
    9.2155   -9.9623    0.0000 C   0  0  0  0  0  0  0  0  0  0  0  0
   10.3547  -10.6332    0.0000 C   0  0  0  0  0  0  0  0  0  0  0  0
    9.2155   -8.6458    0.0000 C   0  0  0  0  0  0  0  0  0  0  0  0
   11.5067  -10.0129    0.0000 C   0  0  0  0  0  0  0  0  0  0  0  0
   12.6586  -10.6459    0.0000 C   0  0  0  0  0  0  0  0  0  0  0  0
   11.5067   -8.6458    0.0000 C   0  0  0  0  0  0  0  0  0  0  0  0
   10.3547   -7.9623    0.0000 C   0  0  0  0  0  0  0  0  0  0  0  0
    8.0635   -8.0002    0.0000 O   0  0  0  0  0  0  0  0  0  0  0  0
   10.3547   -6.6458    0.0000 C   0  0  0  0  0  0  0  0  0  0  0  0
   11.5067   -6.0002    0.0000 O   0  0  0  0  0  0  0  0  0  0  0  0
    9.2155   -6.0002    0.0000 O   0  0  0  0  0  0  0  0  0  0  0  0
  1  3  1  0  0  0  0
  1  4  1  0  0  0  0
  1  2  1  0  0  0  0
  4  5  1  0  0  0  0
  5  7  1  0  0  0  0
  5  6  2  0  0  0  0
  8  7  1  6  0  0  0
  8 10  1  0  0  0  0
  8 12  1  0  0  0  0
  9 10  1  0  0  0  0
 10 11  1  0  0  0  0
 12 13  1  0  0  0  0
 12 14  2  0  0  0  0
 15 13  1  6  0  0  0
 15 16  1  0  0  0  0
 15 17  1  0  0  0  0
 16 18  1  0  0  0  0
 16 19  1  0  0  0  0
 17 20  1  0  0  0  0
 17 21  2  0  0  0  0
 22 20  1  6  0  0  0
 22 23  1  0  0  0  0
 22 24  1  0  0  0  0
 23 25  1  0  0  0  0
 24 28  1  0  0  0  0
 24 29  1  1  0  0  0
 25 26  1  0  0  0  0
 25 27  1  0  0  0  0
 28 30  1  0  0  0  0
 30 31  1  0  0  0  0
 30 32  2  0  0  0  0
 33 31  1  6  0  0  0
 33 34  1  0  0  0  0
 33 35  1  0  0  0  0
 35 36  1  0  0  0  0
 35 37  2  0  0  0  0
 38 36  1  6  0  0  0
 38 39  1  0  0  0  0
 38 40  1  0  0  0  0
 39 41  1  0  0  0  0
 40 44  1  0  0  0  0
 40 45  1  1  0  0  0
 41 42  1  0  0  0  0
 41 43  1  0  0  0  0
 44 46  1  0  0  0  0
 46 47  1  0  0  0  0
 46 48  2  0  0  0  0
M  END
> <ID>
11402

> <Formula>
C34H63N5O9

> <FW>
685.8921

> <DSSTox_CID>
26095

> <DSSTox_RID>
81334

> <DSSTox_GSID>
46095

> <DSSTox_FileID_Sort>
6015

> <TS_ChemName>
Pepstatin

> <TS_ChemName_Synonyms>


> <TS_CASRN>
26305-03-3

> <CASRN_ChemName_Relationship>
primary

> <TS_Description>
single chemical compound

> <ChemNote>
stereochem

> <STRUCTURE_Shown>
tested chemical

> <STRUCTURE_Formula>
C34H63N5O9

> <STRUCTURE_MW>
685.8921

> <STRUCTURE_ChemType>
defined organic

> <STRUCTURE_DefinedOrganicForm>
parent

> <STRUCTURE_IUPAC>
N-(3-methylbutanoyl)-L-valyl-N-[(3S,4S)-1-{[(2S)-1-{[(2S,3S)-1-carboxy-2-hydroxy-5-methylhexan-3-yl]amino}-1-oxopropan-2-yl]amino}-3-hydroxy-6-methyl-1-oxoheptan-4-yl]-L-valinamide

> <STRUCTURE_SMILES>
OC(=O)C[C@H](O)[C@@H](NC(=O)[C@H](C)NC(=O)C[C@H](O)[C@H](CC(C)C)NC(=O)[C@@H](NC(=O)[C@@H](NC(=O)CC(C)C)C(C)C)C(C)C)CC(C)C

> <STRUCTURE_SMILES_Desalt>
OC(=O)C[C@H](O)[C@@H](NC(=O)[C@H](C)NC(=O)C[C@H](O)[C@H](CC(C)C)NC(=O)[C@@H](NC(=O)[C@@H](NC(=O)CC(C)C)C(C)C)C(C)C)CC(C)C

> <Substance_modify_yyyymmdd>
20110819

$$$$
