2631-40-5
ChemmineR-0915142007XD

 14 14  0  0  0  0  0  0  0  0  1 V2000
    2.6991   -1.1733    0.0000 C   0  0  0  0  0  0  0  0  0  0  0  0
    2.0576    0.0000    0.0000 O   0  0  0  0  0  0  0  0  0  0  0  0
    2.0403   -2.2946    0.0000 O   0  0  0  0  0  0  0  0  0  0  0  0
    4.0285   -1.1733    0.0000 N   0  0  0  0  0  0  0  0  0  0  0  0
    4.7221   -0.0347    0.0000 C   0  0  0  0  0  0  0  0  0  0  0  0
    2.6818   -3.4678    0.0000 C   0  0  0  0  0  0  0  0  0  0  0  0
    2.0056   -4.5891    0.0000 C   0  0  0  0  0  0  0  0  0  0  0  0
    3.9996   -3.4678    0.0000 C   0  0  0  0  0  0  0  0  0  0  0  0
    2.6471   -5.7797    0.0000 C   0  0  0  0  0  0  0  0  0  0  0  0
    4.6585   -4.6411    0.0000 C   0  0  0  0  0  0  0  0  0  0  0  0
    3.9822   -5.7797    0.0000 C   0  0  0  0  0  0  0  0  0  0  0  0
    0.6589   -4.5891    0.0000 C   0  0  0  0  0  0  0  0  0  0  0  0
    0.0000   -3.4332    0.0000 C   0  0  0  0  0  0  0  0  0  0  0  0
    0.0000   -5.7335    0.0000 C   0  0  0  0  0  0  0  0  0  0  0  0
  1  2  2  0  0  0  0
  1  3  1  0  0  0  0
  1  4  1  0  0  0  0
  3  6  1  0  0  0  0
  4  5  1  0  0  0  0
  6  7  2  0  0  0  0
  6  8  1  0  0  0  0
  7  9  1  0  0  0  0
  7 12  1  0  0  0  0
  8 10  2  0  0  0  0
  9 11  2  0  0  0  0
 10 11  1  0  0  0  0
 12 13  1  0  0  0  0
 12 14  1  0  0  0  0
M  END
> <ID>
9004

> <Formula>
C11H15NO2

> <FW>
193.2423

> <DSSTox_CID>
22072

> <DSSTox_RID>
79915

> <DSSTox_GSID>
42072

> <DSSTox_FileID_Sort>
4597

> <TS_ChemName>
Isoprocarb

> <TS_ChemName_Synonyms>


> <TS_CASRN>
2631-40-5

> <CASRN_ChemName_Relationship>
primary

> <TS_Description>
single chemical compound

> <ChemNote>


> <STRUCTURE_Shown>
tested chemical

> <STRUCTURE_Formula>
C11H15NO2

> <STRUCTURE_MW>
193.2423

> <STRUCTURE_ChemType>
defined organic

> <STRUCTURE_DefinedOrganicForm>
parent

> <STRUCTURE_IUPAC>
2-(propan-2-yl)phenyl methylcarbamate

> <STRUCTURE_SMILES>
O=C(Oc1ccccc1C(C)C)NC

> <STRUCTURE_SMILES_Desalt>
O=C(Oc1ccccc1C(C)C)NC

> <Substance_modify_yyyymmdd>
20080825

$$$$
