263248-42-6
ChemmineR-0915142007XD

 36 38  0  0  0  0  0  0  0  0  1 V2000
    0.5754   -6.1229    0.0000 C   0  0  0  0  0  0  0  0  0  0  0  0
    0.0000   -7.3327    0.0000 C   0  0  0  0  0  0  0  0  0  0  0  0
    0.5754   -8.5130    0.0000 C   0  0  0  0  0  0  0  0  0  0  0  0
    1.8590   -8.8228    0.0000 N   0  0  0  0  0  0  0  0  0  0  0  0
    2.9065   -7.9819    0.0000 C   0  0  0  0  0  0  0  0  0  0  0  0
    4.0573   -8.6458    0.0000 C   0  0  0  0  0  0  0  0  0  0  0  0
    5.2081   -7.9819    0.0000 C   0  0  0  0  0  0  0  0  0  0  0  0
    5.2081   -6.6393    0.0000 C   0  0  0  0  0  0  0  0  0  0  0  0
    4.0573   -5.9753    0.0000 C   0  0  0  0  0  0  0  0  0  0  0  0
    2.9065   -6.6393    0.0000 C   0  0  0  0  0  0  0  0  0  0  0  0
    1.8590   -5.8278    0.0000 C   0  0  0  0  0  0  0  0  0  0  0  0
    6.3442   -8.6458    0.0000 C   0  0  0  0  0  0  0  0  0  0  0  0
    6.3442   -9.9736    0.0000 O   0  0  0  0  0  0  0  0  0  0  0  0
    7.4950   -7.9819    0.0000 C   0  0  0  0  0  0  0  0  0  0  0  0
    7.4950   -6.6393    0.0000 C   0  0  0  0  0  0  0  0  0  0  0  0
    8.6605   -5.9753    0.0000 C   0  0  0  0  0  0  0  0  0  0  0  0
    9.8261   -6.6393    0.0000 C   0  0  0  0  0  0  0  0  0  0  0  0
   10.9622   -5.9753    0.0000 C   0  0  0  0  0  0  0  0  0  0  0  0
   10.9622   -4.6475    0.0000 N   0  0  0  0  0  0  0  0  0  0  0  0
    9.8261   -3.9983    0.0000 C   0  0  0  0  0  0  0  0  0  0  0  0
    8.6605   -4.6475    0.0000 C   0  0  0  0  0  0  0  0  0  0  0  0
   12.1130   -3.9983    0.0000 C   0  0  0  0  0  0  0  0  0  0  0  0
   12.1130   -2.6705    0.0000 C   0  0  0  0  0  0  0  0  0  0  0  0
   13.2638   -2.0065    0.0000 C   0  0  0  0  0  0  0  0  0  0  0  0
   13.2638   -0.6639    0.0000 C   0  0  0  0  0  0  0  0  0  0  0  0
   12.1130    0.0000    0.0000 C   0  0  0  0  0  0  0  0  0  0  0  0
   10.9622   -0.6639    0.0000 C   0  0  0  0  0  0  0  0  0  0  0  0
   10.9622   -2.0065    0.0000 C   0  0  0  0  0  0  0  0  0  0  0  0
    8.9999  -10.1359    0.0000 O   0  0  0  0  0  0  0  0  0  0  0  0
   10.1507   -9.4720    0.0000 C   0  0  0  0  0  0  0  0  0  0  0  0
   11.2867  -10.1359    0.0000 C   0  0  0  0  0  0  0  0  0  0  0  0
   12.4523   -9.4720    0.0000 C   0  0  0  0  0  0  0  0  0  0  0  0
   13.5884  -10.1654    0.0000 C   0  0  0  0  0  0  0  0  0  0  0  0
   13.5884  -11.4933    0.0000 O   0  0  0  0  0  0  0  0  0  0  0  0
   14.7539   -9.4868    0.0000 O   0  0  0  0  0  0  0  0  0  0  0  0
   10.1507   -8.1442    0.0000 O   0  0  0  0  0  0  0  0  0  0  0  0
  1  2  1  0  0  0  0
  1 11  1  0  0  0  0
  2  3  1  0  0  0  0
  3  4  1  0  0  0  0
  4  5  1  0  0  0  0
  5  6  1  0  0  0  0
  5 10  2  0  0  0  0
  6  7  2  0  0  0  0
  7  8  1  0  0  0  0
  7 12  1  0  0  0  0
  8  9  2  0  0  0  0
  9 10  1  0  0  0  0
 10 11  1  0  0  0  0
 12 13  2  0  0  0  0
 12 14  1  0  0  0  0
 14 15  1  0  0  0  0
 15 16  1  0  0  0  0
 16 17  1  0  0  0  0
 16 21  1  0  0  0  0
 17 18  1  0  0  0  0
 18 19  1  0  0  0  0
 19 20  1  0  0  0  0
 19 22  1  0  0  0  0
 20 21  1  0  0  0  0
 22 23  1  0  0  0  0
 23 24  1  0  0  0  0
 23 28  2  0  0  0  0
 24 25  2  0  0  0  0
 25 26  1  0  0  0  0
 26 27  2  0  0  0  0
 27 28  1  0  0  0  0
 29 30  1  0  0  0  0
 30 31  1  0  0  0  0
 30 36  2  0  0  0  0
 31 32  2  0  0  0  0
 32 33  1  0  0  0  0
 33 34  2  0  0  0  0
 33 35  1  0  0  0  0
M  END
> <ID>
13765

> <Formula>
C29H36N2O5

> <FW>
492.6065 (376.5344+116.0722)

> <DSSTox_CID>
28702

> <DSSTox_RID>
82971

> <DSSTox_GSID>
48776

> <DSSTox_FileID_Sort>
7648

> <TS_ChemName>
Zanapezil fumerate

> <TS_ChemName_Synonyms>
ZANAPEZIL FUMARATE

> <TS_CASRN>
263248-42-6

> <CASRN_ChemName_Relationship>
primary

> <TS_Description>
single chemical compound

> <ChemNote>


> <STRUCTURE_Shown>
tested chemical

> <STRUCTURE_Formula>
C29H36N2O5

> <STRUCTURE_MW>
492.6065

> <STRUCTURE_ChemType>
defined organic

> <STRUCTURE_DefinedOrganicForm>
complex

> <STRUCTURE_IUPAC>
3-(1-benzylpiperidin-4-yl)-1-(2,3,4,5-tetrahydro-1H-1-benzazepin-8-yl)propan-1-one (2E)-but-2-enedioate (1:1)

> <STRUCTURE_SMILES>
O=C(O)/C=C/C(=O)O.O=C(CCC2CCN(Cc1ccccc1)CC2)c3ccc4CCCCNc4c3

> <STRUCTURE_SMILES_Desalt>
O=C(CCC2CCN(Cc1ccccc1)CC2)c3ccc4CCCCNc4c3

> <Substance_modify_yyyymmdd>
20111204

$$$$
