26328-04-1
ChemmineR-0915142007XD

 38 39  0  0  0  0  0  0  0  0  1 V2000
   11.5064   -5.3064    0.0000 C   0  0  0  0  0  0  0  0  0  0  0  0
    8.0620   -1.9922    0.0000 N   0  0  0  0  0  0  0  0  0  0  0  0
    6.9076   -1.3219    0.0000 C   0  0  0  0  0  0  0  0  0  0  0  0
    2.3087   -5.3064    0.0000 C   0  0  0  0  0  0  0  0  0  0  0  0
   10.3335   -5.9766    0.0000 N   0  0  0  0  0  0  0  0  0  0  0  0
    2.3087   -3.9844    0.0000 C   0  0  0  0  0  0  0  0  0  0  0  0
    3.4445   -5.9766    0.0000 C   0  0  0  0  0  0  0  0  0  0  0  0
    5.7532   -1.9922    0.0000 C   0  0  0  0  0  0  0  0  0  0  0  0
   10.3335   -3.3328    0.0000 N   0  0  0  0  0  0  0  0  0  0  0  0
   11.5064   -3.9844    0.0000 C   0  0  0  0  0  0  0  0  0  0  0  0
    5.7532   -3.3328    0.0000 C   0  0  0  0  0  0  0  0  0  0  0  0
    4.5989   -3.9844    0.0000 C   0  0  0  0  0  0  0  0  0  0  0  0
    3.4445   -3.3328    0.0000 C   0  0  0  0  0  0  0  0  0  0  0  0
    4.5989   -5.3064    0.0000 C   0  0  0  0  0  0  0  0  0  0  0  0
   12.6422   -5.9766    0.0000 O   0  0  0  0  0  0  0  0  0  0  0  0
    9.1977   -1.3219    0.0000 C   0  0  0  0  0  0  0  0  0  0  0  0
    8.0620   -3.3328    0.0000 C   0  0  0  0  0  0  0  0  0  0  0  0
    6.9076    0.0000    0.0000 O   0  0  0  0  0  0  0  0  0  0  0  0
   10.3335   -1.9922    0.0000 C   0  0  0  0  0  0  0  0  0  0  0  0
    9.1977   -3.9844    0.0000 C   0  0  0  0  0  0  0  0  0  0  0  0
    1.1357   -5.9766    0.0000 O   0  0  0  0  0  0  0  0  0  0  0  0
    1.1357   -3.3328    0.0000 O   0  0  0  0  0  0  0  0  0  0  0  0
    3.4445   -7.2986    0.0000 O   0  0  0  0  0  0  0  0  0  0  0  0
   10.2217   -7.2986    0.0000 C   0  0  0  0  0  0  0  0  0  0  0  0
    9.1232   -5.4367    0.0000 C   0  0  0  0  0  0  0  0  0  0  0  0
    1.1357   -7.2986    0.0000 C   0  0  0  0  0  0  0  0  0  0  0  0
    0.0000   -3.9844    0.0000 C   0  0  0  0  0  0  0  0  0  0  0  0
    4.5989   -7.9689    0.0000 C   0  0  0  0  0  0  0  0  0  0  0  0
    8.8998   -7.5779    0.0000 C   0  0  0  0  0  0  0  0  0  0  0  0
    8.2481   -6.4235    0.0000 C   0  0  0  0  0  0  0  0  0  0  0  0
   17.2783   -4.0589    0.0000 C   0  0  0  0  0  0  0  0  0  0  0  0
   14.5785   -4.0589    0.0000 C   0  0  0  0  0  0  0  0  0  0  0  0
   15.2488   -2.9045    0.0000 C   0  0  0  0  0  0  0  0  0  0  0  0
   16.6266   -2.9045    0.0000 C   0  0  0  0  0  0  0  0  0  0  0  0
   16.6266   -5.2133    0.0000 O   0  0  0  0  0  0  0  0  0  0  0  0
   15.2488   -5.2133    0.0000 O   0  0  0  0  0  0  0  0  0  0  0  0
   18.6188   -4.0775    0.0000 O   0  0  0  0  0  0  0  0  0  0  0  0
   13.2380   -4.0775    0.0000 O   0  0  0  0  0  0  0  0  0  0  0  0
  1  5  1  0  0  0  0
  1 10  1  0  0  0  0
  1 15  2  0  0  0  0
  2 17  1  0  0  0  0
  2  3  1  0  0  0  0
  2 16  1  0  0  0  0
  3  8  1  0  0  0  0
  3 18  2  0  0  0  0
  4  7  2  0  0  0  0
  4 21  1  0  0  0  0
  4  6  1  0  0  0  0
  5 24  1  0  0  0  0
  5 25  1  0  0  0  0
  6 13  2  0  0  0  0
  6 22  1  0  0  0  0
  7 14  1  0  0  0  0
  7 23  1  0  0  0  0
  8 11  2  3  0  0  0
  9 10  1  0  0  0  0
  9 19  1  0  0  0  0
  9 20  1  0  0  0  0
 11 12  1  0  0  0  0
 12 13  1  0  0  0  0
 12 14  2  0  0  0  0
 16 19  1  0  0  0  0
 17 20  1  0  0  0  0
 21 26  1  0  0  0  0
 22 27  1  0  0  0  0
 23 28  1  0  0  0  0
 24 29  1  0  0  0  0
 25 30  1  0  0  0  0
 29 30  1  0  0  0  0
 31 34  1  0  0  0  0
 31 35  2  0  0  0  0
 31 37  1  0  0  0  0
 32 33  1  0  0  0  0
 32 36  2  0  0  0  0
 32 38  1  0  0  0  0
 33 34  2  0  0  0  0
M  END
> <ID>
12030

> <Formula>
C26H35N3O9

> <FW>
533.5708 (417.4986+116.0722)

> <DSSTox_CID>
26859

> <DSSTox_RID>
81967

> <DSSTox_GSID>
46859

> <DSSTox_FileID_Sort>
6648

> <TS_ChemName>
Cinepazide maleate

> <TS_ChemName_Synonyms>


> <TS_CASRN>
26328-04-1

> <CASRN_ChemName_Relationship>
primary

> <TS_Description>
mixture of Z,E isomers

> <ChemNote>
mixture of Z,E isomers, parent [23887-46-9]

> <STRUCTURE_Shown>
representative isomer in mixture

> <STRUCTURE_Formula>
C26H35N3O9

> <STRUCTURE_MW>
533.5708

> <STRUCTURE_ChemType>
defined organic

> <STRUCTURE_DefinedOrganicForm>
complex

> <STRUCTURE_IUPAC>
1-{4-[2-oxo-2-(pyrrolidin-1-yl)ethyl]piperazin-1-yl}-3-(3,4,5-trimethoxyphenyl)prop-2-en-1-one (2Z)-but-2-enedioate (1:1)

> <STRUCTURE_SMILES>
O=C(CN1CCN(CC1)C(=O)C=Cc2cc(OC)c(OC)c(OC)c2)N3CCCC3.O=C(O)/C=C\C(=O)O

> <STRUCTURE_SMILES_Desalt>
O=C(CN1CCN(CC1)C(=O)C=Cc2cc(OC)c(OC)c(OC)c2)N3CCCC3

> <Substance_modify_yyyymmdd>
20110729

$$$$
