2634-33-5
ChemmineR-0915142007XD

 10 11  0  0  0  0  0  0  0  0  1 V2000
    4.3509   -2.3321    0.0000 N   0  0  0  0  0  0  0  0  0  0  0  0
    3.5591   -3.3981    0.0000 S   0  0  0  0  0  0  0  0  0  0  0  0
    2.3016   -1.6359    0.0000 C   0  0  0  0  0  0  0  0  0  0  0  0
    2.3016   -3.0152    0.0000 C   0  0  0  0  0  0  0  0  0  0  0  0
    3.5591   -1.2531    0.0000 C   0  0  0  0  0  0  0  0  0  0  0  0
    1.1269   -3.6504    0.0000 C   0  0  0  0  0  0  0  0  0  0  0  0
    0.0000   -3.0152    0.0000 C   0  0  0  0  0  0  0  0  0  0  0  0
    0.0000   -1.6359    0.0000 C   0  0  0  0  0  0  0  0  0  0  0  0
    1.1269   -1.0007    0.0000 C   0  0  0  0  0  0  0  0  0  0  0  0
    3.9680    0.0000    0.0000 O   0  0  0  0  0  0  0  0  0  0  0  0
  1  2  1  0  0  0  0
  1  5  1  0  0  0  0
  2  4  1  0  0  0  0
  3  4  2  0  0  0  0
  3  5  1  0  0  0  0
  3  9  1  0  0  0  0
  4  6  1  0  0  0  0
  5 10  2  0  0  0  0
  6  7  2  0  0  0  0
  7  8  1  0  0  0  0
  8  9  2  0  0  0  0
M  END
> <ID>
6492

> <Formula>
C7H5NOS

> <FW>
151.1857

> <DSSTox_CID>
12523

> <DSSTox_RID>
78967

> <DSSTox_GSID>
32523

> <DSSTox_FileID_Sort>
3649

> <TS_ChemName>
1,2-Benzisothiazolin-3-one

> <TS_ChemName_Synonyms>


> <TS_CASRN>
2634-33-5

> <CASRN_ChemName_Relationship>
primary

> <TS_Description>
single chemical compound

> <ChemNote>
tautomers

> <STRUCTURE_Shown>
tested chemical

> <STRUCTURE_Formula>
C7H5NOS

> <STRUCTURE_MW>
151.1857

> <STRUCTURE_ChemType>
defined organic

> <STRUCTURE_DefinedOrganicForm>
parent

> <STRUCTURE_IUPAC>
1,2-benzothiazol-3(2H)-one

> <STRUCTURE_SMILES>
O=C2NSc1ccccc12

> <STRUCTURE_SMILES_Desalt>
O=C2NSc1ccccc12

> <Substance_modify_yyyymmdd>
20080429

$$$$
