263553-33-9
ChemmineR-0915142007XD

 37 38  0  0  1  0  0  0  0  0  1 V2000
   13.8117   -4.6637    0.0000 C   0  0  0  0  0  0  0  0  0  0  0  0
   12.6458   -3.9911    0.0000 C   0  0  0  0  0  0  0  0  0  0  0  0
   12.6458   -2.6756    0.0000 N   0  0  0  0  0  0  0  0  0  0  0  0
   13.8117   -2.0030    0.0000 C   0  0  0  0  0  0  0  0  0  0  0  0
   13.8117   -0.6577    0.0000 C   0  0  0  0  0  0  0  0  0  0  0  0
   14.9478   -2.6756    0.0000 C   0  0  0  0  0  0  0  0  0  0  0  0
   11.4948   -2.0030    0.0000 C   0  0  0  0  0  0  0  0  0  0  0  0
   11.4948   -0.6577    0.0000 O   0  0  0  0  0  0  0  0  0  0  0  0
   10.3439   -2.6607    0.0000 C   0  0  0  0  0  0  0  0  0  0  0  0
   10.3439   -3.9911    0.0000 C   0  0  0  0  0  0  0  0  0  0  0  0
    9.1929   -4.6488    0.0000 C   0  0  0  0  0  0  0  0  0  0  0  0
    9.2078   -5.9791    0.0000 C   0  0  0  0  0  0  0  0  0  0  0  0
    8.0568   -3.9911    0.0000 C   0  0  0  0  0  0  0  0  0  0  0  0
    8.0568   -2.6607    0.0000 C   0  0  0  0  0  0  0  0  0  0  0  0
    6.9059   -2.0179    0.0000 O   0  0  0  0  0  0  0  0  0  0  0  0
    5.7549   -2.6756    0.0000 C   0  0  0  0  0  0  0  0  0  0  0  0
    4.6189   -2.0179    0.0000 C   0  0  0  0  0  0  0  0  0  0  0  0
    4.6189   -0.6876    0.0000 C   0  0  0  0  0  0  0  0  0  0  0  0
    3.4529   -2.6756    0.0000 N   0  0  0  0  0  0  0  0  0  0  0  0
    2.3169   -2.0030    0.0000 C   0  0  0  0  0  0  0  0  0  0  0  0
    1.1510   -2.6756    0.0000 C   0  0  0  0  0  0  0  0  0  0  0  0
    0.0000   -2.0030    0.0000 C   0  0  0  0  0  0  0  0  0  0  0  0
    0.0000   -0.6876    0.0000 N   0  0  0  0  0  0  0  0  0  0  0  0
    1.1510    0.0000    0.0000 C   0  0  0  0  0  0  0  0  0  0  0  0
    2.3169   -0.6876    0.0000 C   0  0  0  0  0  0  0  0  0  0  0  0
    9.1929   -2.0030    0.0000 C   0  0  0  0  0  0  0  0  0  0  0  0
    4.6039   -6.0688    0.0000 C   0  0  0  0  0  0  0  0  0  0  0  0
    3.9313   -4.9029    0.0000 C   0  0  0  0  0  0  0  0  0  0  0  0
    2.6009   -4.9029    0.0000 C   0  0  0  0  0  0  0  0  0  0  0  0
    1.9283   -6.0688    0.0000 C   0  0  0  0  0  0  0  0  0  0  0  0
    2.6009   -7.2048    0.0000 C   0  0  0  0  0  0  0  0  0  0  0  0
    3.9313   -7.2048    0.0000 C   0  0  0  0  0  0  0  0  0  0  0  0
    5.9343   -6.0688    0.0000 S   0  0  0  0  0  0  0  0  0  0  0  0
    5.9343   -4.7384    0.0000 O   0  0  0  0  0  0  0  0  0  0  0  0
    5.9343   -7.3991    0.0000 O   0  0  0  0  0  0  0  0  0  0  0  0
    7.2646   -6.0688    0.0000 O   0  0  0  0  0  0  0  0  0  0  0  0
    0.5979   -6.0688    0.0000 C   0  0  0  0  0  0  0  0  0  0  0  0
  1  2  1  0  0  0  0
  2  3  1  0  0  0  0
  3  4  1  0  0  0  0
  3  7  1  0  0  0  0
  4  5  1  0  0  0  0
  4  6  1  0  0  0  0
  7  8  2  0  0  0  0
  7  9  1  0  0  0  0
  9 10  1  0  0  0  0
  9 26  2  0  0  0  0
 10 11  2  0  0  0  0
 11 12  1  0  0  0  0
 11 13  1  0  0  0  0
 13 14  2  0  0  0  0
 14 15  1  0  0  0  0
 14 26  1  0  0  0  0
 15 16  1  0  0  0  0
 16 17  1  0  0  0  0
 17 18  1  1  0  0  0
 17 19  1  0  0  0  0
 19 20  1  0  0  0  0
 20 21  1  0  0  0  0
 20 25  2  0  0  0  0
 21 22  2  0  0  0  0
 22 23  1  0  0  0  0
 23 24  2  0  0  0  0
 24 25  1  0  0  0  0
 27 28  2  0  0  0  0
 27 32  1  0  0  0  0
 27 33  1  0  0  0  0
 28 29  1  0  0  0  0
 29 30  2  0  0  0  0
 30 31  1  0  0  0  0
 30 37  1  0  0  0  0
 31 32  2  0  0  0  0
 33 34  2  0  0  0  0
 33 35  1  0  0  0  0
 33 36  2  0  0  0  0
M  END
> <ID>
12455

> <Formula>
C28H37N3O5S

> <FW>
527.6755 (355.4739+172.2016)

> <DSSTox_CID>
27313

> <DSSTox_RID>
82263

> <DSSTox_GSID>
47313

> <DSSTox_FileID_Sort>
6944

> <TS_ChemName>
GW473178E methyl benzene sulphonic acid

> <TS_ChemName_Synonyms>


> <TS_CASRN>
263553-33-9

> <CASRN_ChemName_Relationship>
primary

> <TS_Description>
single chemical compound

> <ChemNote>
stereochem

> <STRUCTURE_Shown>
tested chemical

> <STRUCTURE_Formula>
C28H37N3O5S

> <STRUCTURE_MW>
527.6755

> <STRUCTURE_ChemType>
defined organic

> <STRUCTURE_DefinedOrganicForm>
complex

> <STRUCTURE_IUPAC>
N-ethyl-3-methyl-N-(propan-2-yl)-5-[(2S)-2-(pyridin-4-ylamino)propoxy]benzamide 4-methylbenzenesulfonate (1:1)

> <STRUCTURE_SMILES>
O=S(=O)(O)c1ccc(C)cc1.CC(C)N(CC)C(=O)c1cc(C)cc(c1)OC[C@H](C)Nc2ccncc2

> <STRUCTURE_SMILES_Desalt>
CC(C)N(CC)C(=O)c1cc(C)cc(c1)OC[C@H](C)Nc2ccncc2

> <Substance_modify_yyyymmdd>
20130910

$$$$
