2638-94-0
ChemmineR-0915142007XD

 20 19  0  0  0  0  0  0  0  0  1 V2000
   11.5038   -2.9040    0.0000 C   0  0  0  0  0  0  0  0  0  0  0  0
   11.8154   -1.6078    0.0000 O   0  0  0  0  0  0  0  0  0  0  0  0
   12.4635   -3.8263    0.0000 O   0  0  0  0  0  0  0  0  0  0  0  0
   10.2201   -3.2779    0.0000 C   0  0  0  0  0  0  0  0  0  0  0  0
    9.2479   -2.3556    0.0000 C   0  0  0  0  0  0  0  0  0  0  0  0
    7.9766   -2.7295    0.0000 C   0  0  0  0  0  0  0  0  0  0  0  0
    7.6152   -1.4582    0.0000 C   0  0  0  0  0  0  0  0  0  0  0  0
    8.3505   -4.0132    0.0000 C   0  0  0  0  0  0  0  0  0  0  0  0
    8.7244   -5.2845    0.0000 N   0  0  0  0  0  0  0  0  0  0  0  0
    0.9597   -2.3805    0.0000 C   0  0  0  0  0  0  0  0  0  0  0  0
    0.6481   -3.6643    0.0000 O   0  0  0  0  0  0  0  0  0  0  0  0
    0.0000   -1.4458    0.0000 O   0  0  0  0  0  0  0  0  0  0  0  0
    2.2310   -2.0066    0.0000 C   0  0  0  0  0  0  0  0  0  0  0  0
    3.1907   -2.9289    0.0000 C   0  0  0  0  0  0  0  0  0  0  0  0
    4.4869   -2.5550    0.0000 C   0  0  0  0  0  0  0  0  0  0  0  0
    4.8483   -3.8263    0.0000 C   0  0  0  0  0  0  0  0  0  0  0  0
    4.1130   -1.2713    0.0000 C   0  0  0  0  0  0  0  0  0  0  0  0
    3.7266    0.0000    0.0000 N   0  0  0  0  0  0  0  0  0  0  0  0
    5.7457   -2.1811    0.0000 N   0  0  0  0  0  0  0  0  0  0  0  0
    6.7178   -3.1034    0.0000 N   0  0  0  0  0  0  0  0  0  0  0  0
  1  2  2  0  0  0  0
  1  3  1  0  0  0  0
  1  4  1  0  0  0  0
  4  5  1  0  0  0  0
  5  6  1  0  0  0  0
  6  7  1  0  0  0  0
  6  8  1  0  0  0  0
  6 20  1  0  0  0  0
  8  9  3  0  0  0  0
 10 11  2  0  0  0  0
 10 12  1  0  0  0  0
 10 13  1  0  0  0  0
 13 14  1  0  0  0  0
 14 15  1  0  0  0  0
 15 16  1  0  0  0  0
 15 17  1  0  0  0  0
 15 19  1  0  0  0  0
 17 18  3  0  0  0  0
 19 20  2  0  0  0  0
M  END
> <ID>
10283

> <Formula>
C12H16N4O4

> <FW>
280.2798

> <DSSTox_CID>
24629

> <DSSTox_RID>
80363

> <DSSTox_GSID>
44629

> <DSSTox_FileID_Sort>
5045

> <TS_ChemName>
4,4'-Diazene-1,2-diylbis(4-cyanopentanoic acid)

> <TS_ChemName_Synonyms>
Pentanoic acid, 4,4'-azobis[4-cyano-

> <TS_CASRN>
2638-94-0

> <CASRN_ChemName_Relationship>
primary

> <TS_Description>
single chemical compound

> <ChemNote>


> <STRUCTURE_Shown>
tested chemical

> <STRUCTURE_Formula>
C12H16N4O4

> <STRUCTURE_MW>
280.2798

> <STRUCTURE_ChemType>
defined organic

> <STRUCTURE_DefinedOrganicForm>
parent

> <STRUCTURE_IUPAC>
4,4'-(E)-diazene-1,2-diylbis(4-cyanopentanoic acid)

> <STRUCTURE_SMILES>
O=C(O)CCC(C)(/N=N/C(C)(C#N)CCC(=O)O)C#N

> <STRUCTURE_SMILES_Desalt>
O=C(O)CCC(C)(/N=N/C(C)(C#N)CCC(=O)O)C#N

> <Substance_modify_yyyymmdd>
20091116

$$$$
