2639-63-6
ChemmineR-0915142007XD

 12 11  0  0  0  0  0  0  0  0  1 V2000
    3.4930   -1.3603    0.0000 C   0  0  0  0  0  0  0  0  0  0  0  0
    3.4930    0.0000    0.0000 O   0  0  0  0  0  0  0  0  0  0  0  0
    4.6458   -2.0174    0.0000 O   0  0  0  0  0  0  0  0  0  0  0  0
    2.3517   -2.0174    0.0000 C   0  0  0  0  0  0  0  0  0  0  0  0
    1.1528   -1.3603    0.0000 C   0  0  0  0  0  0  0  0  0  0  0  0
    0.0000   -2.0174    0.0000 C   0  0  0  0  0  0  0  0  0  0  0  0
    5.7640   -1.3603    0.0000 C   0  0  0  0  0  0  0  0  0  0  0  0
    6.9168   -2.0174    0.0000 C   0  0  0  0  0  0  0  0  0  0  0  0
    8.0581   -1.3603    0.0000 C   0  0  0  0  0  0  0  0  0  0  0  0
    9.2340   -2.0174    0.0000 C   0  0  0  0  0  0  0  0  0  0  0  0
   10.3753   -1.3603    0.0000 C   0  0  0  0  0  0  0  0  0  0  0  0
   11.5281   -2.0174    0.0000 C   0  0  0  0  0  0  0  0  0  0  0  0
  1  2  2  0  0  0  0
  1  3  1  0  0  0  0
  1  4  1  0  0  0  0
  3  7  1  0  0  0  0
  4  5  1  0  0  0  0
  5  6  1  0  0  0  0
  7  8  1  0  0  0  0
  8  9  1  0  0  0  0
  9 10  1  0  0  0  0
 10 11  1  0  0  0  0
 11 12  1  0  0  0  0
M  END
> <ID>
12682

> <Formula>
C10H20O2

> <FW>
172.2646

> <DSSTox_CID>
27559

> <DSSTox_RID>
82419

> <DSSTox_GSID>
47559

> <DSSTox_FileID_Sort>
7100

> <TS_ChemName>
Hexyl butyrate

> <TS_ChemName_Synonyms>


> <TS_CASRN>
2639-63-6

> <CASRN_ChemName_Relationship>
primary

> <TS_Description>
single chemical compound

> <ChemNote>


> <STRUCTURE_Shown>
tested chemical

> <STRUCTURE_Formula>
C10H20O2

> <STRUCTURE_MW>
172.2646

> <STRUCTURE_ChemType>
defined organic

> <STRUCTURE_DefinedOrganicForm>
parent

> <STRUCTURE_IUPAC>
hexyl butanoate

> <STRUCTURE_SMILES>
O=C(CCC)OCCCCCC

> <STRUCTURE_SMILES_Desalt>
O=C(CCC)OCCCCCC

> <Substance_modify_yyyymmdd>
20100929

$$$$
