26399-36-0
ChemmineR-0915142007XD

 24 25  0  0  0  0  0  0  0  0  2 V2000
    3.4584   -3.1541    0.0000 C   0  0  0  0  0  0  0  0  0  0  0  0
    4.6112   -5.1369    0.0000 C   0  0  0  0  0  0  0  0  0  0  0  0
    4.6112   -3.8088    0.0000 C   0  0  0  0  0  0  0  0  0  0  0  0
    5.7640   -5.8101    0.0000 N   0  3  0  0  0  0  0  0  0  0  0  0
    3.4584   -1.8260    0.0000 N   0  3  0  0  0  0  0  0  0  0  0  0
    5.7640   -3.1541    0.0000 N   0  0  0  0  0  0  0  0  0  0  0  0
    1.1528   -5.8101    0.0000 C   0  0  0  0  0  0  0  0  0  0  0  0
    2.3056   -5.1369    0.0000 C   0  0  0  0  0  0  0  0  0  0  0  0
    3.4584   -5.8101    0.0000 C   0  0  0  0  0  0  0  0  0  0  0  0
    2.3056   -3.8088    0.0000 C   0  0  0  0  0  0  0  0  0  0  0  0
    2.3056   -1.1528    0.0000 O   0  5  0  0  0  0  0  0  0  0  0  0
    5.7640   -7.1381    0.0000 O   0  5  0  0  0  0  0  0  0  0  0  0
    5.7640   -1.8260    0.0000 C   0  0  0  0  0  0  0  0  0  0  0  0
    6.9168   -1.1528    0.0000 C   0  0  0  0  0  0  0  0  0  0  0  0
    4.6112   -1.1528    0.0000 O   0  0  0  0  0  0  0  0  0  0  0  0
    6.9168   -5.1369    0.0000 O   0  0  0  0  0  0  0  0  0  0  0  0
    7.5716    0.0000    0.0000 C   0  0  0  0  0  0  0  0  0  0  0  0
    8.2448   -1.1528    0.0000 C   0  0  0  0  0  0  0  0  0  0  0  0
    1.8260   -6.9629    0.0000 F   0  0  0  0  0  0  0  0  0  0  0  0
    0.4980   -4.6573    0.0000 F   0  0  0  0  0  0  0  0  0  0  0  0
    0.0000   -6.4649    0.0000 F   0  0  0  0  0  0  0  0  0  0  0  0
    6.9168   -3.8088    0.0000 C   0  0  0  0  0  0  0  0  0  0  0  0
    8.0696   -3.1541    0.0000 C   0  0  0  0  0  0  0  0  0  0  0  0
    9.2224   -3.8088    0.0000 C   0  0  0  0  0  0  0  0  0  0  0  0
  1  3  2  0  0  0  0
  1  5  1  0  0  0  0
  1 10  1  0  0  0  0
  2  3  1  0  0  0  0
  2  4  1  0  0  0  0
  2  9  2  0  0  0  0
  3  6  1  0  0  0  0
  4 12  1  0  0  0  0
  4 16  2  0  0  0  0
  5 11  1  0  0  0  0
  5 15  2  0  0  0  0
  6 13  1  0  0  0  0
  6 22  1  0  0  0  0
  7  8  1  0  0  0  0
  7 19  1  0  0  0  0
  7 20  1  0  0  0  0
  7 21  1  0  0  0  0
  8 10  2  0  0  0  0
  8  9  1  0  0  0  0
 13 14  1  0  0  0  0
 14 17  1  0  0  0  0
 14 18  1  0  0  0  0
 17 18  1  0  0  0  0
 22 23  1  0  0  0  0
 23 24  1  0  0  0  0
M  END
> <ID>
10213

> <Formula>
C14H16F3N3O4

> <FW>
347.2897

> <DSSTox_CID>
24559

> <DSSTox_RID>
80312

> <DSSTox_GSID>
44559

> <DSSTox_FileID_Sort>
4994

> <TS_ChemName>
Profluralin

> <TS_ChemName_Synonyms>


> <TS_CASRN>
26399-36-0

> <CASRN_ChemName_Relationship>
primary

> <TS_Description>
single chemical compound

> <ChemNote>


> <STRUCTURE_Shown>
tested chemical

> <STRUCTURE_Formula>
C14H16F3N3O4

> <STRUCTURE_MW>
347.2897

> <STRUCTURE_ChemType>
defined organic

> <STRUCTURE_DefinedOrganicForm>
parent

> <STRUCTURE_IUPAC>
N-(cyclopropylmethyl)-2,6-dinitro-N-propyl-4-(trifluoromethyl)aniline

> <STRUCTURE_SMILES>
CCCN(CC1CC1)c2c(cc(cc2[N+]([O-])=O)C(F)(F)F)[N+]([O-])=O

> <STRUCTURE_SMILES_Desalt>
CCCN(CC1CC1)c2c(cc(cc2[N+]([O-])=O)C(F)(F)F)[N+]([O-])=O

> <Substance_modify_yyyymmdd>
20091116

$$$$
