2642-82-2
ChemmineR-0915142007XD

 17 18  0  0  0  0  0  0  0  0  1 V2000
    4.6366   -0.6913    0.0000 C    0  0  0  0  0  0  0  0  0  0  0  0
    4.6366   -2.0187    0.0000 C    0  0  0  0  0  0  0  0  0  0  0  0
    5.7704    0.0000    0.0000 O    0  0  0  0  0  0  0  0  0  0  0  0
    2.3045   -4.6643    0.0000 C    0  0  0  0  0  0  0  0  0  0  0  0
    1.1522   -3.9729    0.0000 C    0  0  0  0  0  0  0  0  0  0  0  0
    1.1707   -2.6640    0.0000 C    0  0  0  0  0  0  0  0  0  0  0  0
    2.3229   -2.0003    0.0000 C    0  0  0  0  0  0  0  0  0  0  0  0
    3.4752   -2.6732    0.0000 C    0  0  0  0  0  0  0  0  0  0  0  0
    3.4659   -4.0098    0.0000 C    0  0  0  0  0  0  0  0  0  0  0  0
    0.0000   -4.6366    0.0000 Cl   0  0  0  0  0  0  0  0  0  0  0  0
    6.9227   -4.7104    0.0000 C    0  0  0  0  0  0  0  0  0  0  0  0
    8.0841   -4.0559    0.0000 C    0  0  0  0  0  0  0  0  0  0  0  0
    8.0934   -2.7285    0.0000 C    0  0  0  0  0  0  0  0  0  0  0  0
    6.9411   -2.0556    0.0000 C    0  0  0  0  0  0  0  0  0  0  0  0
    5.7889   -2.6916    0.0000 C    0  0  0  0  0  0  0  0  0  0  0  0
    5.7704   -4.0190    0.0000 C    0  0  0  0  0  0  0  0  0  0  0  0
    9.2179   -4.7288    0.0000 Cl   0  0  0  0  0  0  0  0  0  0  0  0
  1  2  1  0  0  0  0
  1  3  1  0  0  0  0
  2  8  1  0  0  0  0
  2 15  1  0  0  0  0
  4  9  2  0  0  0  0
  4  5  1  0  0  0  0
  5  6  2  0  0  0  0
  5 10  1  0  0  0  0
  6  7  1  0  0  0  0
  7  8  2  0  0  0  0
  8  9  1  0  0  0  0
 11 16  2  0  0  0  0
 11 12  1  0  0  0  0
 12 13  2  0  0  0  0
 12 17  1  0  0  0  0
 13 14  1  0  0  0  0
 14 15  2  0  0  0  0
 15 16  1  0  0  0  0
M  END
> <ID>
8274

> <Formula>
C14H12Cl2O

> <FW>
267.1505

> <DSSTox_CID>
21308

> <DSSTox_RID>
79685

> <DSSTox_GSID>
41308

> <DSSTox_FileID_Sort>
4367

> <TS_ChemName>
2,2-Bis(4-chlorophenyl)ethanol

> <TS_ChemName_Synonyms>
4,4'-DDOH

> <TS_CASRN>
2642-82-2

> <CASRN_ChemName_Relationship>
primary

> <TS_Description>
single chemical compound

> <ChemNote>


> <STRUCTURE_Shown>
tested chemical

> <STRUCTURE_Formula>
C14H12Cl2O

> <STRUCTURE_MW>
267.1505

> <STRUCTURE_ChemType>
defined organic

> <STRUCTURE_DefinedOrganicForm>
parent

> <STRUCTURE_IUPAC>
2,2-bis(4-chlorophenyl)ethanol

> <STRUCTURE_SMILES>
Clc1ccc(cc1)C(CO)c2ccc(Cl)cc2

> <STRUCTURE_SMILES_Desalt>
Clc1ccc(cc1)C(CO)c2ccc(Cl)cc2

> <Substance_modify_yyyymmdd>
20080825

$$$$
