2642-71-9
ChemmineR-0915142007XD

 21 22  0  0  0  0  0  0  0  0  1 V2000
    6.1264   -1.9742    0.0000 N   0  0  0  0  0  0  0  0  0  0  0  0
    6.1264   -0.6652    0.0000 N   0  0  0  0  0  0  0  0  0  0  0  0
    7.2637   -2.6501    0.0000 C   0  0  0  0  0  0  0  0  0  0  0  0
    7.2637    0.0000    0.0000 N   0  0  0  0  0  0  0  0  0  0  0  0
    8.4332   -1.9742    0.0000 C   0  0  0  0  0  0  0  0  0  0  0  0
    2.6609   -2.6287    0.0000 P   0  0  0  0  0  0  0  0  0  0  0  0
    4.9569   -2.6501    0.0000 C   0  0  0  0  0  0  0  0  0  0  0  0
    3.8196   -1.9742    0.0000 S   0  0  0  0  0  0  0  0  0  0  0  0
    8.4332   -0.6652    0.0000 C   0  0  0  0  0  0  0  0  0  0  0  0
    3.3475   -3.7874    0.0000 S   0  0  0  0  0  0  0  0  0  0  0  0
    7.2637   -3.9913    0.0000 O   0  0  0  0  0  0  0  0  0  0  0  0
    1.9849   -1.4699    0.0000 O   0  0  0  0  0  0  0  0  0  0  0  0
    1.5021   -3.3046    0.0000 O   0  0  0  0  0  0  0  0  0  0  0  0
    9.5705   -2.6501    0.0000 C   0  0  0  0  0  0  0  0  0  0  0  0
    9.5705    0.0000    0.0000 C   0  0  0  0  0  0  0  0  0  0  0  0
    0.6652   -1.4699    0.0000 C   0  0  0  0  0  0  0  0  0  0  0  0
    1.5021   -4.6243    0.0000 C   0  0  0  0  0  0  0  0  0  0  0  0
   10.7293   -1.9742    0.0000 C   0  0  0  0  0  0  0  0  0  0  0  0
    0.0000   -0.3111    0.0000 C   0  0  0  0  0  0  0  0  0  0  0  0
    0.3541   -5.2895    0.0000 C   0  0  0  0  0  0  0  0  0  0  0  0
   10.7293   -0.6652    0.0000 C   0  0  0  0  0  0  0  0  0  0  0  0
  1  2  1  0  0  0  0
  1  3  1  0  0  0  0
  1  7  1  0  0  0  0
  2  4  2  0  0  0  0
  3  5  1  0  0  0  0
  3 11  2  0  0  0  0
  4  9  1  0  0  0  0
  5  9  1  0  0  0  0
  5 14  2  0  0  0  0
  6  8  1  0  0  0  0
  6 10  2  0  0  0  0
  6 12  1  0  0  0  0
  6 13  1  0  0  0  0
  7  8  1  0  0  0  0
  9 15  2  0  0  0  0
 12 16  1  0  0  0  0
 13 17  1  0  0  0  0
 14 18  1  0  0  0  0
 15 21  1  0  0  0  0
 16 19  1  0  0  0  0
 17 20  1  0  0  0  0
 18 21  2  0  0  0  0
M  END
> <ID>
7306

> <Formula>
C12H16N3O3PS2

> <FW>
345.3775

> <DSSTox_CID>
17498

> <DSSTox_RID>
79324

> <DSSTox_GSID>
37498

> <DSSTox_FileID_Sort>
4006

> <TS_ChemName>
Azinphos-ethyl

> <TS_ChemName_Synonyms>


> <TS_CASRN>
2642-71-9

> <CASRN_ChemName_Relationship>
primary

> <TS_Description>
single chemical compound

> <ChemNote>


> <STRUCTURE_Shown>
tested chemical

> <STRUCTURE_Formula>
C12H16N3O3PS2

> <STRUCTURE_MW>
345.3775

> <STRUCTURE_ChemType>
defined organic

> <STRUCTURE_DefinedOrganicForm>
parent

> <STRUCTURE_IUPAC>
O,O-diethyl S-[(4-oxo-1,2,3-benzotriazin-3(4H)-yl)methyl] phosphorodithioate

> <STRUCTURE_SMILES>
CCOP(=S)(OCC)SCN1N=Nc2ccccc2C1=O

> <STRUCTURE_SMILES_Desalt>
CCOP(=S)(OCC)SCN1N=Nc2ccccc2C1=O

> <Substance_modify_yyyymmdd>
20080429

$$$$
