26444-49-5
ChemmineR-0915142007XD

 24 26  0  0  0  0  0  0  0  0  1 V2000
    2.3016   -4.6552    0.0000 P   0  0  0  0  0  0  0  0  0  0  0  0
    3.4576   -5.3218    0.0000 O   0  0  0  0  0  0  0  0  0  0  0  0
    1.6351   -5.8112    0.0000 O   0  0  0  0  0  0  0  0  0  0  0  0
    1.1560   -3.9887    0.0000 O   0  0  0  0  0  0  0  0  0  0  0  0
    2.9681   -3.4992    0.0000 O   0  0  0  0  0  0  0  0  0  0  0  0
    2.3016   -6.9568    0.0000 C   0  0  0  0  0  0  0  0  0  0  0  0
    3.6346   -6.9568    0.0000 C   0  0  0  0  0  0  0  0  0  0  0  0
    1.6351   -8.1128    0.0000 C   0  0  0  0  0  0  0  0  0  0  0  0
    4.3012   -8.1128    0.0000 C   0  0  0  0  0  0  0  0  0  0  0  0
    2.3016   -9.2584    0.0000 C   0  0  0  0  0  0  0  0  0  0  0  0
    3.6346   -9.2584    0.0000 C   0  0  0  0  0  0  0  0  0  0  0  0
    4.3012  -10.4144    0.0000 C   0  0  0  0  0  0  0  0  0  0  0  0
    4.3012   -3.4992    0.0000 C   0  0  0  0  0  0  0  0  0  0  0  0
    4.9677   -2.3537    0.0000 C   0  0  0  0  0  0  0  0  0  0  0  0
    4.9677   -4.6552    0.0000 C   0  0  0  0  0  0  0  0  0  0  0  0
    6.2903   -2.3537    0.0000 C   0  0  0  0  0  0  0  0  0  0  0  0
    6.2903   -4.6552    0.0000 C   0  0  0  0  0  0  0  0  0  0  0  0
    6.9568   -3.4992    0.0000 C   0  0  0  0  0  0  0  0  0  0  0  0
    1.1560   -2.6557    0.0000 C   0  0  0  0  0  0  0  0  0  0  0  0
    0.0000   -1.9996    0.0000 C   0  0  0  0  0  0  0  0  0  0  0  0
    2.3016   -1.9996    0.0000 C   0  0  0  0  0  0  0  0  0  0  0  0
    0.0000   -0.6665    0.0000 C   0  0  0  0  0  0  0  0  0  0  0  0
    2.3016   -0.6665    0.0000 C   0  0  0  0  0  0  0  0  0  0  0  0
    1.1560    0.0000    0.0000 C   0  0  0  0  0  0  0  0  0  0  0  0
  1  2  2  0  0  0  0
  1  3  1  0  0  0  0
  1  4  1  0  0  0  0
  1  5  1  0  0  0  0
  3  6  1  0  0  0  0
  4 19  1  0  0  0  0
  5 13  1  0  0  0  0
  6  7  2  0  0  0  0
  6  8  1  0  0  0  0
  7  9  1  0  0  0  0
  8 10  2  0  0  0  0
  9 11  2  0  0  0  0
 10 11  1  0  0  0  0
 11 12  1  0  0  0  0
 13 14  2  0  0  0  0
 13 15  1  0  0  0  0
 14 16  1  0  0  0  0
 15 17  2  0  0  0  0
 16 18  2  0  0  0  0
 17 18  1  0  0  0  0
 19 20  2  0  0  0  0
 19 21  1  0  0  0  0
 20 22  1  0  0  0  0
 21 23  2  0  0  0  0
 22 24  2  0  0  0  0
 23 24  1  0  0  0  0
M  END
> <ID>
3885

> <Formula>
C19H17O4P

> <FW>
340.3096

> <DSSTox_CID>
4861

> <DSSTox_RID>
77555

> <DSSTox_GSID>
24861

> <DSSTox_FileID_Sort>
2238

> <TS_ChemName>
Cresyl diphenyl phosphate

> <TS_ChemName_Synonyms>


> <TS_CASRN>
26444-49-5

> <CASRN_ChemName_Relationship>
primary

> <TS_Description>
mixture or formulation

> <ChemNote>
mixture of methylphenyl isomers; structure shown 4-methylphenyl diphenyl phosphate

> <STRUCTURE_Shown>
representative isomer in mixture

> <STRUCTURE_Formula>
C19H17O4P

> <STRUCTURE_MW>
340.3096

> <STRUCTURE_ChemType>
defined organic

> <STRUCTURE_DefinedOrganicForm>
parent

> <STRUCTURE_IUPAC>
4-methylphenyl diphenyl phosphate

> <STRUCTURE_SMILES>
O=P(Oc1ccccc1)(Oc2ccc(C)cc2)Oc3ccccc3

> <STRUCTURE_SMILES_Desalt>
O=P(Oc1ccccc1)(Oc2ccc(C)cc2)Oc3ccccc3

> <Substance_modify_yyyymmdd>
20080429

$$$$
