2645-07-0
ChemmineR-0915142007XD

 16 16  0  0  0  0  0  0  0  0  2 V2000
    5.9852   -3.4614    0.0000 C   0  0  0  0  0  0  0  0  0  0  0  0
    6.6535   -4.6086    0.0000 O   0  0  0  0  0  0  0  0  0  0  0  0
    6.6535   -2.3043    0.0000 N   0  0  0  0  0  0  0  0  0  0  0  0
    7.9803   -2.3043    0.0000 C   0  0  0  0  0  0  0  0  0  0  0  0
    8.6486   -1.1571    0.0000 C   0  0  0  0  0  0  0  0  0  0  0  0
    7.9803    0.0000    0.0000 O   0  0  0  0  0  0  0  0  0  0  0  0
    9.9753   -1.1571    0.0000 O   0  0  0  0  0  0  0  0  0  0  0  0
    4.6585   -3.4614    0.0000 C   0  0  0  0  0  0  0  0  0  0  0  0
    3.9901   -4.6086    0.0000 C   0  0  0  0  0  0  0  0  0  0  0  0
    2.6634   -4.6086    0.0000 C   0  0  0  0  0  0  0  0  0  0  0  0
    1.9951   -3.4614    0.0000 C   0  0  0  0  0  0  0  0  0  0  0  0
    2.6634   -2.3043    0.0000 C   0  0  0  0  0  0  0  0  0  0  0  0
    3.9901   -2.3043    0.0000 C   0  0  0  0  0  0  0  0  0  0  0  0
    0.6683   -3.4614    0.0000 N   0  3  0  0  0  0  0  0  0  0  0  0
    0.0000   -4.6086    0.0000 O   0  0  0  0  0  0  0  0  0  0  0  0
    0.0000   -2.3043    0.0000 O   0  5  0  0  0  0  0  0  0  0  0  0
  1  2  2  0  0  0  0
  1  3  1  0  0  0  0
  1  8  1  0  0  0  0
  3  4  1  0  0  0  0
  4  5  1  0  0  0  0
  5  6  2  0  0  0  0
  5  7  1  0  0  0  0
  8  9  2  0  0  0  0
  8 13  1  0  0  0  0
  9 10  1  0  0  0  0
 10 11  2  0  0  0  0
 11 12  1  0  0  0  0
 11 14  1  0  0  0  0
 12 13  2  0  0  0  0
 14 15  2  0  0  0  0
 14 16  1  0  0  0  0
M  END
> <ID>
4388

> <Formula>
C9H8N2O5

> <FW>
224.1702

> <DSSTox_CID>
5759

> <DSSTox_RID>
77912

> <DSSTox_GSID>
25759

> <DSSTox_FileID_Sort>
2595

> <TS_ChemName>
4-Nitrohippuric acid

> <TS_ChemName_Synonyms>
4-Nitrohippuric acid (p-Nitrohippuric acid)

> <TS_CASRN>
2645-07-0

> <CASRN_ChemName_Relationship>
primary

> <TS_Description>
single chemical compound

> <ChemNote>


> <STRUCTURE_Shown>
tested chemical

> <STRUCTURE_Formula>
C9H8N2O5

> <STRUCTURE_MW>
224.1702

> <STRUCTURE_ChemType>
defined organic

> <STRUCTURE_DefinedOrganicForm>
parent

> <STRUCTURE_IUPAC>
N-(4-nitrobenzoyl)glycine

> <STRUCTURE_SMILES>
O=[N+]([O-])c1ccc(cc1)C(=O)NCC(=O)O

> <STRUCTURE_SMILES_Desalt>
O=[N+]([O-])c1ccc(cc1)C(=O)NCC(=O)O

> <Substance_modify_yyyymmdd>
20080429

$$$$
