264618-44-2
ChemmineR-0915142007XD

 43 47  0  0  1  0  0  0  0  0  1 V2000
    6.9047   -6.9523    0.0000 C    0  0  0  0  0  0  0  0  0  0  0  0
    6.9047   -8.2857    0.0000 C    0  0  0  0  0  0  0  0  0  0  0  0
    5.7619   -6.2698    0.0000 C    0  0  0  0  0  0  0  0  0  0  0  0
    5.7619   -8.9365    0.0000 C    0  0  0  0  0  0  0  0  0  0  0  0
    4.6032   -6.9523    0.0000 C    0  0  0  0  0  0  0  0  0  0  0  0
    4.6032   -8.2857    0.0000 N    0  0  0  0  0  0  0  0  0  0  0  0
    3.4444   -8.9365    0.0000 C    0  0  0  0  0  0  0  0  0  0  0  0
    3.4444  -10.2698    0.0000 O    0  0  0  0  0  0  0  0  0  0  0  0
    2.2857   -8.2857    0.0000 C    0  0  0  0  0  0  0  0  0  0  0  0
    1.1429   -8.9365    0.0000 C    0  0  0  0  0  0  0  0  0  0  0  0
    2.2857   -6.9523    0.0000 C    0  0  0  0  0  0  0  0  0  0  0  0
    0.0000   -8.2857    0.0000 C    0  0  0  0  0  0  0  0  0  0  0  0
    1.1429   -6.2698    0.0000 C    0  0  0  0  0  0  0  0  0  0  0  0
    0.0000   -6.9523    0.0000 C    0  0  0  0  0  0  0  0  0  0  0  0
    5.0952   -5.1428    0.0000 C    0  0  0  0  0  0  0  0  0  0  0  0
    3.7619   -5.1428    0.0000 C    0  0  0  0  0  0  0  0  0  0  0  0
    5.7619   -3.9841    0.0000 C    0  0  0  0  0  0  0  0  0  0  0  0
    3.0952   -3.9841    0.0000 C    0  0  0  0  0  0  0  0  0  0  0  0
    5.0952   -2.8254    0.0000 C    0  0  0  0  0  0  0  0  0  0  0  0
    3.7619   -2.8254    0.0000 C    0  0  0  0  0  0  0  0  0  0  0  0
    6.4285   -5.1428    0.0000 C    0  0  0  0  0  0  0  0  0  0  0  0
    7.7619   -5.1428    0.0000 C    0  0  0  0  0  0  0  0  0  0  0  0
    8.4127   -3.9841    0.0000 C    0  0  0  0  0  0  0  0  0  0  0  0
    9.7460   -3.9841    0.0000 N    0  0  0  0  0  0  0  0  0  0  0  0
   10.4285   -2.8254    0.0000 C    0  0  0  0  0  0  0  0  0  0  0  0
   10.4285   -5.1428    0.0000 C    0  0  0  0  0  0  0  0  0  0  0  0
   11.7460   -2.8254    0.0000 C    0  0  0  0  0  0  0  0  0  0  0  0
   11.7460   -5.1428    0.0000 C    0  0  0  0  0  0  0  0  0  0  0  0
   12.4126   -3.9841    0.0000 C    0  0  0  0  0  0  0  0  0  0  0  0
   13.5714   -4.6349    0.0000 C    0  0  0  0  0  0  0  0  0  0  0  0
   14.7142   -3.9841    0.0000 C    0  0  0  0  0  0  0  0  0  0  0  0
   13.5714   -5.9682    0.0000 C    0  0  0  0  0  0  0  0  0  0  0  0
   15.8729   -4.6349    0.0000 C    0  0  0  0  0  0  0  0  0  0  0  0
   14.7142   -6.6508    0.0000 C    0  0  0  0  0  0  0  0  0  0  0  0
   15.8729   -5.9682    0.0000 C    0  0  0  0  0  0  0  0  0  0  0  0
   13.5714   -3.3174    0.0000 N    0  0  0  0  0  0  0  0  0  0  0  0
   13.5714   -1.9841    0.0000 C    0  0  0  0  0  0  0  0  0  0  0  0
   14.7142   -1.3175    0.0000 N    0  0  0  0  0  0  0  0  0  0  0  0
   12.4126   -1.3175    0.0000 O    0  0  0  0  0  0  0  0  0  0  0  0
   15.8729   -1.9841    0.0000 C    0  0  0  0  0  0  0  0  0  0  0  0
   14.7142    0.0000    0.0000 C    0  0  0  0  0  0  0  0  0  0  0  0
    3.0952   -1.6825    0.0000 Cl   0  0  0  0  0  0  0  0  0  0  0  0
    5.7619   -1.6825    0.0000 Cl   0  0  0  0  0  0  0  0  0  0  0  0
  1  2  1  0  0  0  0
  1  3  1  0  0  0  0
  2  4  1  0  0  0  0
  3  5  1  0  0  0  0
  3 15  1  0  0  0  0
  3 21  1  1  0  0  0
  4  6  1  0  0  0  0
  5  6  1  0  0  0  0
  6  7  1  0  0  0  0
  7  8  2  0  0  0  0
  7  9  1  0  0  0  0
  9 10  1  0  0  0  0
  9 11  2  0  0  0  0
 10 12  2  0  0  0  0
 11 13  1  0  0  0  0
 12 14  1  0  0  0  0
 13 14  2  0  0  0  0
 15 16  1  0  0  0  0
 15 17  2  0  0  0  0
 16 18  2  0  0  0  0
 17 19  1  0  0  0  0
 18 20  1  0  0  0  0
 19 20  2  0  0  0  0
 19 43  1  0  0  0  0
 20 42  1  0  0  0  0
 21 22  1  0  0  0  0
 22 23  1  0  0  0  0
 23 24  1  0  0  0  0
 24 25  1  0  0  0  0
 24 26  1  0  0  0  0
 25 27  1  0  0  0  0
 26 28  1  0  0  0  0
 27 29  1  0  0  0  0
 28 29  1  0  0  0  0
 29 30  1  0  0  0  0
 29 36  1  0  0  0  0
 30 31  1  0  0  0  0
 30 32  2  0  0  0  0
 31 33  2  0  0  0  0
 32 34  1  0  0  0  0
 33 35  1  0  0  0  0
 34 35  2  0  0  0  0
 36 37  1  0  0  0  0
 37 38  1  0  0  0  0
 37 39  2  0  0  0  0
 38 40  1  0  0  0  0
 38 41  1  0  0  0  0
M  END
> <ID>
12483

> <Formula>
C35H42Cl2N4O2

> <FW>
621.6396

> <DSSTox_CID>
27341

> <DSSTox_RID>
82282

> <DSSTox_GSID>
47341

> <DSSTox_FileID_Sort>
6963

> <TS_ChemName>
SSR146977

> <TS_ChemName_Synonyms>


> <TS_CASRN>
264618-44-2

> <CASRN_ChemName_Relationship>
primary

> <TS_Description>
single chemical compound

> <ChemNote>
stereochem

> <STRUCTURE_Shown>
tested chemical

> <STRUCTURE_Formula>
C35H42Cl2N4O2

> <STRUCTURE_MW>
621.6396

> <STRUCTURE_ChemType>
defined organic

> <STRUCTURE_DefinedOrganicForm>
parent

> <STRUCTURE_IUPAC>
3-(1-{3-[(3S)-1-benzoyl-3-(3,4-dichlorophenyl)piperidin-3-yl]propyl}-4-phenylpiperidin-4-yl)-1,1-dimethylurea

> <STRUCTURE_SMILES>
CN(C)C(=O)NC4(CCN(CCC[C@]1(CCCN(C1)C(=O)c2ccccc2)c3ccc(Cl)c(Cl)c3)CC4)c5ccccc5

> <STRUCTURE_SMILES_Desalt>
CN(C)C(=O)NC4(CCN(CCC[C@]1(CCCN(C1)C(=O)c2ccccc2)c3ccc(Cl)c(Cl)c3)CC4)c5ccccc5

> <Substance_modify_yyyymmdd>
20130910

$$$$
