26471-62-5
ChemmineR-0915142007XD

 13 13  0  0  0  0  0  0  0  0  1 V2000
    3.3275   -1.1491    0.0000 C   0  0  0  0  0  0  0  0  0  0  0  0
    4.6521   -1.1491    0.0000 C   0  0  0  0  0  0  0  0  0  0  0  0
    5.3224   -2.2981    0.0000 C   0  0  0  0  0  0  0  0  0  0  0  0
    4.6521   -3.4552    0.0000 C   0  0  0  0  0  0  0  0  0  0  0  0
    3.3275   -3.4552    0.0000 C   0  0  0  0  0  0  0  0  0  0  0  0
    2.6572   -2.2981    0.0000 C   0  0  0  0  0  0  0  0  0  0  0  0
    0.6623   -3.4552    0.0000 C   0  0  0  0  0  0  0  0  0  0  0  0
    1.3326   -2.2981    0.0000 N   0  0  0  0  0  0  0  0  0  0  0  0
    0.0000   -4.6042    0.0000 O   0  0  0  0  0  0  0  0  0  0  0  0
    6.6470   -4.6042    0.0000 C   0  0  0  0  0  0  0  0  0  0  0  0
    5.3224   -4.6042    0.0000 N   0  0  0  0  0  0  0  0  0  0  0  0
    7.9796   -4.6042    0.0000 O   0  0  0  0  0  0  0  0  0  0  0  0
    2.6572    0.0000    0.0000 C   0  0  0  0  0  0  0  0  0  0  0  0
  1  2  2  0  0  0  0
  1  6  1  0  0  0  0
  1 13  1  0  0  0  0
  2  3  1  0  0  0  0
  3  4  2  0  0  0  0
  4  5  1  0  0  0  0
  4 11  1  0  0  0  0
  5  6  2  0  0  0  0
  6  8  1  0  0  0  0
  7  8  2  0  0  0  0
  7  9  2  0  0  0  0
 10 11  2  0  0  0  0
 10 12  2  0  0  0  0
M  END
> <ID>
1308

> <Formula>
C9H6N2O2

> <FW>
174.1561

> <DSSTox_CID>
1361

> <DSSTox_RID>
77374

> <DSSTox_GSID>
24341

> <DSSTox_FileID_Sort>
2057

> <TS_ChemName>
Toluene diisocyanate

> <TS_ChemName_Synonyms>
Toluene diisocyanate (2,4- & 2,6-Toluene diisocyanate) (TDI) (Benzene, 1,3-diisocyanatomethyl-)

> <TS_CASRN>
26471-62-5

> <CASRN_ChemName_Relationship>
primary

> <TS_Description>
mixture or formulation

> <ChemNote>
mixture of  2,4-diisocyanate toluene [584-84-9] and 2,6-diisocyanate toluene [91-08-7]; structure shown 2,4-diisocyanate toluene

> <STRUCTURE_Shown>
representative isomer in mixture

> <STRUCTURE_Formula>
C9H6N2O2

> <STRUCTURE_MW>
174.1561

> <STRUCTURE_ChemType>
defined organic

> <STRUCTURE_DefinedOrganicForm>
parent

> <STRUCTURE_IUPAC>
2,4-diisocyanato-1-methylbenzene

> <STRUCTURE_SMILES>
O=C=N/c1cc(ccc1C)\N=C=O

> <STRUCTURE_SMILES_Desalt>
O=C=N/c1cc(ccc1C)\N=C=O

> <Substance_modify_yyyymmdd>
20080429

$$$$
