26472-00-4
ChemmineR-0915142007XD

 12 14  0  0  0  0  0  0  0  0  1 V2000
    5.2063   -2.2313    0.0000 C   0  0  0  0  0  0  0  0  0  0  0  0
    3.2790   -1.6039    0.0000 C   0  0  0  0  0  0  0  0  0  0  0  0
    4.4755   -1.2094    0.0000 C   0  0  0  0  0  0  0  0  0  0  0  0
    3.2790   -2.8651    0.0000 C   0  0  0  0  0  0  0  0  0  0  0  0
    4.4755   -3.2467    0.0000 C   0  0  0  0  0  0  0  0  0  0  0  0
    2.1860   -0.9701    0.0000 C   0  0  0  0  0  0  0  0  0  0  0  0
    2.1407   -2.2571    0.0000 C   0  0  0  0  0  0  0  0  0  0  0  0
    1.0930   -2.8651    0.0000 C   0  0  0  0  0  0  0  0  0  0  0  0
    1.0930   -1.6039    0.0000 C   0  0  0  0  0  0  0  0  0  0  0  0
    2.8263    0.0000    0.0000 C   0  0  0  0  0  0  0  0  0  0  0  0
    0.0000   -0.9701    0.0000 C   0  0  0  0  0  0  0  0  0  0  0  0
    6.4674   -2.2313    0.0000 C   0  0  0  0  0  0  0  0  0  0  0  0
  1  3  2  0  0  0  0
  1  5  1  0  0  0  0
  1 12  1  0  0  0  0
  2  3  1  0  0  0  0
  2  4  1  0  0  0  0
  2  6  1  0  0  0  0
  4  5  1  0  0  0  0
  4  7  1  0  0  0  0
  6  9  1  0  0  0  0
  6 10  1  0  0  0  0
  7  8  1  0  0  0  0
  7 10  1  0  0  0  0
  8  9  2  0  0  0  0
  9 11  1  0  0  0  0
M  END
> <ID>
5487

> <Formula>
C12H16

> <FW>
160.2554

> <DSSTox_CID>
7902

> <DSSTox_RID>
78607

> <DSSTox_GSID>
27902

> <DSSTox_FileID_Sort>
3289

> <TS_ChemName>
Methylcyclopentadiene dimer

> <TS_ChemName_Synonyms>
Methylcyclopentadiene dimer (4,7-Methano-1H-indene, 3a,4,7,7a-tetrahydrodimethyl-)

> <TS_CASRN>
26472-00-4

> <CASRN_ChemName_Relationship>
primary

> <TS_Description>
mixture or formulation

> <ChemNote>
mixture of dimethyl derivatives; structure shown 2,5-

> <STRUCTURE_Shown>
representative isomer in mixture

> <STRUCTURE_Formula>
C12H16

> <STRUCTURE_MW>
160.2554

> <STRUCTURE_ChemType>
defined organic

> <STRUCTURE_DefinedOrganicForm>
parent

> <STRUCTURE_IUPAC>
2,5-dimethyl-3a,4,7,7a-tetrahydro-1H-4,7-methanoindene

> <STRUCTURE_SMILES>
CC=2CC3C1C=C(C)C(C1)C3C=2

> <STRUCTURE_SMILES_Desalt>
CC=2CC3C1C=C(C)C(C1)C3C=2

> <Substance_modify_yyyymmdd>
20080429

$$$$
