26538-44-3
ChemmineR-0915142007XD

 23 24  0  0  1  0  0  0  0  0  1 V2000
    3.4409   -1.9794    0.0000 C   0  0  0  0  0  0  0  0  0  0  0  0
    3.4409   -3.3373    0.0000 C   0  0  0  0  0  0  0  0  0  0  0  0
    2.3016   -1.3234    0.0000 C   0  0  0  0  0  0  0  0  0  0  0  0
    2.3016   -3.9932    0.0000 C   0  0  0  0  0  0  0  0  0  0  0  0
    1.1623   -1.9794    0.0000 C   0  0  0  0  0  0  0  0  0  0  0  0
    1.1623   -3.3373    0.0000 C   0  0  0  0  0  0  0  0  0  0  0  0
    4.6032   -1.3234    0.0000 C   0  0  0  0  0  0  0  0  0  0  0  0
    5.7424   -2.0139    0.0000 O   0  0  0  0  0  0  0  0  0  0  0  0
    4.6032   -3.9932    0.0000 C   0  0  0  0  0  0  0  0  0  0  0  0
    5.7424   -3.3373    0.0000 C   0  0  0  0  0  0  0  0  0  0  0  0
    6.9047   -1.3234    0.0000 C   0  0  0  0  0  0  0  0  0  0  0  0
    8.0440   -2.0139    0.0000 C   0  0  0  0  0  0  0  0  0  0  0  0
    6.9047   -3.9932    0.0000 C   0  0  0  0  0  0  0  0  0  0  0  0
    8.0440   -3.3373    0.0000 C   0  0  0  0  0  0  0  0  0  0  0  0
    9.2063   -1.3234    0.0000 C   0  0  0  0  0  0  0  0  0  0  0  0
   10.3456   -2.0139    0.0000 C   0  0  0  0  0  0  0  0  0  0  0  0
    9.2063   -3.9932    0.0000 C   0  0  0  0  0  0  0  0  0  0  0  0
   10.3456   -3.3373    0.0000 C   0  0  0  0  0  0  0  0  0  0  0  0
    2.3016    0.0000    0.0000 O   0  0  0  0  0  0  0  0  0  0  0  0
    0.0000   -3.9932    0.0000 O   0  0  0  0  0  0  0  0  0  0  0  0
    4.6032    0.0000    0.0000 O   0  0  0  0  0  0  0  0  0  0  0  0
   11.5079   -3.9932    0.0000 O   0  0  0  0  0  0  0  0  0  0  0  0
    6.9047    0.0000    0.0000 C   0  0  0  0  0  0  0  0  0  0  0  0
  1  3  1  0  0  0  0
  1  7  1  0  0  0  0
  1  2  2  0  0  0  0
  2  4  1  0  0  0  0
  2  9  1  0  0  0  0
  3  5  2  0  0  0  0
  3 19  1  0  0  0  0
  4  6  2  0  0  0  0
  5  6  1  0  0  0  0
  6 20  1  0  0  0  0
  7  8  1  0  0  0  0
  7 21  2  0  0  0  0
  8 11  1  0  0  0  0
  9 10  1  0  0  0  0
 10 13  1  0  0  0  0
 11 12  1  0  0  0  0
 11 23  1  1  0  0  0
 12 15  1  0  0  0  0
 13 14  1  0  0  0  0
 14 17  1  0  0  0  0
 15 16  1  0  0  0  0
 16 18  1  0  0  0  0
 17 18  1  0  0  0  0
 18 22  1  6  0  0  0
M  END
> <ID>
2148

> <Formula>
C18H26O5

> <FW>
322.396

> <DSSTox_CID>
2315

> <DSSTox_RID>
76546

> <DSSTox_GSID>
22315

> <DSSTox_FileID_Sort>
1230

> <TS_ChemName>
Zearalanol

> <TS_ChemName_Synonyms>
Zearalanol (Zeranol) (alpha zearalanol)

> <TS_CASRN>
26538-44-3

> <CASRN_ChemName_Relationship>
primary

> <TS_Description>
single chemical compound

> <ChemNote>
stereochem

> <STRUCTURE_Shown>
tested chemical

> <STRUCTURE_Formula>
C18H26O5

> <STRUCTURE_MW>
322.396

> <STRUCTURE_ChemType>
defined organic

> <STRUCTURE_DefinedOrganicForm>
parent

> <STRUCTURE_IUPAC>
(3S,7R)-7,14,16-trihydroxy-3-methyl-3,4,5,6,7,8,9,10,11,12-decahydro-1H-2-benzoxacyclotetradecin-1-one

> <STRUCTURE_SMILES>
Oc1cc(O)cc2CCCCC[C@@H](O)CCC[C@H](C)OC(=O)c12

> <STRUCTURE_SMILES_Desalt>
Oc1cc(O)cc2CCCCC[C@@H](O)CCC[C@H](C)OC(=O)c12

> <Substance_modify_yyyymmdd>
20080429

$$$$
