2654-57-1
ChemmineR-0915142007XD

 13 14  0  0  0  0  0  0  0  0  1 V2000
    3.1242   -1.4376    0.0000 N   0  0  0  0  0  0  0  0  0  0  0  0
    2.3414   -2.5122    0.0000 N   0  0  0  0  0  0  0  0  0  0  0  0
    1.0746   -0.7686    0.0000 C   0  0  0  0  0  0  0  0  0  0  0  0
    2.3414   -0.3629    0.0000 C   0  0  0  0  0  0  0  0  0  0  0  0
    1.0746   -2.0994    0.0000 C   0  0  0  0  0  0  0  0  0  0  0  0
    0.0000   -2.8822    0.0000 O   0  0  0  0  0  0  0  0  0  0  0  0
    0.0000    0.0000    0.0000 C   0  0  0  0  0  0  0  0  0  0  0  0
    6.4405   -0.2847    0.0000 C   0  0  0  0  0  0  0  0  0  0  0  0
    7.1166   -1.4376    0.0000 C   0  0  0  0  0  0  0  0  0  0  0  0
    6.4405   -2.5904    0.0000 C   0  0  0  0  0  0  0  0  0  0  0  0
    5.1097   -2.5904    0.0000 C   0  0  0  0  0  0  0  0  0  0  0  0
    4.4550   -1.4376    0.0000 C   0  0  0  0  0  0  0  0  0  0  0  0
    5.1097   -0.2847    0.0000 C   0  0  0  0  0  0  0  0  0  0  0  0
  1  2  1  0  0  0  0
  1  4  1  0  0  0  0
  1 12  1  0  0  0  0
  2  5  1  0  0  0  0
  3  4  1  0  0  0  0
  3  5  1  0  0  0  0
  3  7  1  0  0  0  0
  5  6  2  0  0  0  0
  8 13  2  0  0  0  0
  8  9  1  0  0  0  0
  9 10  2  0  0  0  0
 10 11  1  0  0  0  0
 11 12  2  0  0  0  0
 12 13  1  0  0  0  0
M  END
> <ID>
10069

> <Formula>
C10H12N2O

> <FW>
176.2151

> <DSSTox_CID>
24412

> <DSSTox_RID>
80211

> <DSSTox_GSID>
44412

> <DSSTox_FileID_Sort>
4893

> <TS_ChemName>
4-Methyl-1-phenylpyrazolidin-3-one

> <TS_ChemName_Synonyms>
4-Methyl-1-phenylpyrazolidin-3-one (3-Pyrazolidinone, 4-methyl-1-phenyl-)

> <TS_CASRN>
2654-57-1

> <CASRN_ChemName_Relationship>
primary

> <TS_Description>
single chemical compound

> <ChemNote>


> <STRUCTURE_Shown>
tested chemical

> <STRUCTURE_Formula>
C10H12N2O

> <STRUCTURE_MW>
176.2151

> <STRUCTURE_ChemType>
defined organic

> <STRUCTURE_DefinedOrganicForm>
parent

> <STRUCTURE_IUPAC>
4-methyl-1-phenylpyrazolidin-3-one

> <STRUCTURE_SMILES>
O=C1NN(CC1C)c2ccccc2

> <STRUCTURE_SMILES_Desalt>
O=C1NN(CC1C)c2ccccc2

> <Substance_modify_yyyymmdd>
20091116

$$$$
