2657-00-3
ChemmineR-0915142007XD

 18 18  0  0  0  0  0  0  0  0  2 V2000
    4.6082   -3.3250    0.0000 C    0  0  0  0  0  0  0  0  0  0  0  0
    4.6082   -4.6578    0.0000 C    0  0  0  0  0  0  0  0  0  0  0  0
    3.4526   -2.6586    0.0000 C    0  0  0  0  0  0  0  0  0  0  0  0
    3.4526   -5.3172    0.0000 C    0  0  0  0  0  0  0  0  0  0  0  0
    5.7567   -5.3172    0.0000 C    0  0  0  0  0  0  0  0  0  0  0  0
    5.7567   -2.6586    0.0000 C    0  0  0  0  0  0  0  0  0  0  0  0
    6.9123   -3.3250    0.0000 C    0  0  0  0  0  0  0  0  0  0  0  0
    6.9123   -4.6578    0.0000 C    0  0  0  0  0  0  0  0  0  0  0  0
    2.3041   -4.6578    0.0000 C    0  0  0  0  0  0  0  0  0  0  0  0
    2.3041   -3.3250    0.0000 C    0  0  0  0  0  0  0  0  0  0  0  0
    5.7567   -1.3328    0.0000 S    0  0  0  0  0  0  0  0  0  0  0  0
    7.0896   -1.3328    0.0000 O    0  0  0  0  0  0  0  0  0  0  0  0
    4.4310   -1.3328    0.0000 O    0  5  0  0  0  0  0  0  0  0  0  0
    5.7567    0.0000    0.0000 O    0  0  0  0  0  0  0  0  0  0  0  0
    1.1485   -5.3172    0.0000 N    0  3  0  0  0  0  0  0  0  0  0  0
    0.0000   -5.9836    0.0000 N    0  5  0  0  0  0  0  0  0  0  0  0
    3.4526   -6.6500    0.0000 O    0  0  0  0  0  0  0  0  0  0  0  0
    3.2045   -0.6948    0.0000 Na   0  3  0  0  0  0  0  0  0  0  0  0
  1  2  2  0  0  0  0
  1  3  1  0  0  0  0
  1  6  1  0  0  0  0
  2  4  1  0  0  0  0
  2  5  1  0  0  0  0
  3 10  2  0  0  0  0
  4  9  1  0  0  0  0
  4 17  2  0  0  0  0
  5  8  2  0  0  0  0
  6  7  2  0  0  0  0
  6 11  1  0  0  0  0
  7  8  1  0  0  0  0
  9 10  1  0  0  0  0
  9 15  2  0  0  0  0
 11 12  2  0  0  0  0
 11 13  1  0  0  0  0
 11 14  2  0  0  0  0
 15 16  2  0  0  0  0
M  END
> <ID>
8153

> <Formula>
C10H5N2NaO4S

> <FW>
272.2125 (249.2232+22.9892)

> <DSSTox_CID>
21178

> <DSSTox_RID>
79638

> <DSSTox_GSID>
41178

> <DSSTox_FileID_Sort>
4320

> <TS_ChemName>
1-Naphthalenesulfonic acid, 6-diazo-5,6-dihydro-5-oxo, sodium salt

> <TS_ChemName_Synonyms>


> <TS_CASRN>
2657-00-3

> <CASRN_ChemName_Relationship>
primary

> <TS_Description>
single chemical compound

> <ChemNote>
parent [20546-03-6]

> <STRUCTURE_Shown>
tested chemical

> <STRUCTURE_Formula>
C10H5N2NaO4S

> <STRUCTURE_MW>
272.2125

> <STRUCTURE_ChemType>
defined organic

> <STRUCTURE_DefinedOrganicForm>
salt

> <STRUCTURE_IUPAC>
sodium 6-diazo-5-oxo-5,6-dihydronaphthalene-1-sulfonate

> <STRUCTURE_SMILES>
[Na+].[O-]S(=O)(=O)c2cccc1c2C=C\C(=[N+]=[N-])C1=O

> <STRUCTURE_SMILES_Desalt>
O=S(=O)(O)c2cccc1c2C=C\C(=[N+]=[N-])C1=O

> <Substance_modify_yyyymmdd>
20080815

$$$$
