26576-84-1
ChemmineR-0915142007XD

 12 11  0  0  0  0  0  0  0  0  2 V2000
    0.6740    0.0000    0.0000 C    0  0  0  0  0  0  0  0  0  0  0  0
    2.6641   -3.4505    0.0000 C    0  0  0  0  0  0  0  0  0  0  0  0
    0.0000   -1.1555    0.0000 C    0  0  0  0  0  0  0  0  0  0  0  0
    0.6740   -2.3110    0.0000 C    0  0  0  0  0  0  0  0  0  0  0  0
    1.9900   -6.9009    0.0000 C    0  0  0  0  0  0  0  0  0  0  0  0
    0.6740   -6.9009    0.0000 C    0  0  0  0  0  0  0  0  0  0  0  0
    2.6641   -5.7454    0.0000 C    0  0  0  0  0  0  0  0  0  0  0  0
    0.0000   -3.4505    0.0000 C    0  0  0  0  0  0  0  0  0  0  0  0
    0.0000   -5.7454    0.0000 C    0  0  0  0  0  0  0  0  0  0  0  0
    1.9900   -4.6060    0.0000 C    0  0  0  0  0  0  0  0  0  0  0  0
    0.6740   -4.6060    0.0000 N    0  3  0  0  0  0  0  0  0  0  0  0
    1.2036   -8.0243    0.0000 Br   0  5  0  0  0  0  0  0  0  0  0  0
  1  3  1  0  0  0  0
  2 10  1  0  0  0  0
  3  4  1  0  0  0  0
  4  8  1  0  0  0  0
  5  6  2  0  0  0  0
  5  7  1  0  0  0  0
  6  9  1  0  0  0  0
  7 10  2  0  0  0  0
  8 11  1  0  0  0  0
  9 11  2  0  0  0  0
 10 11  1  0  0  0  0
M  END
> <ID>
14121

> <Formula>
C10H16BrN

> <FW>
230.1447 (150.2402+79.9045)

> <DSSTox_CID>
29114

> <DSSTox_RID>
83333

> <DSSTox_GSID>
49258

> <DSSTox_FileID_Sort>
8008

> <TS_ChemName>
1-Butyl-2-methylpyridinium bromide

> <TS_ChemName_Synonyms>


> <TS_CASRN>
26576-84-1

> <CASRN_ChemName_Relationship>
primary

> <TS_Description>
single chemical compound

> <ChemNote>


> <STRUCTURE_Shown>
tested chemical

> <STRUCTURE_Formula>
C10H16BrN

> <STRUCTURE_MW>
230.1447

> <STRUCTURE_ChemType>
defined organic

> <STRUCTURE_DefinedOrganicForm>
salt

> <STRUCTURE_IUPAC>
1-butyl-2-methylpyridinium bromide

> <STRUCTURE_SMILES>
[Br-].Cc1cccc[n+]1CCCC

> <STRUCTURE_SMILES_Desalt>
Cc1cccc[n+]1CCCC

> <Substance_modify_yyyymmdd>
20111204

$$$$
