26576-85-2
ChemmineR-0915142007XD

 12 11  0  0  0  0  0  0  0  0  2 V2000
    0.0000    0.0000    0.0000 C    0  0  0  0  0  0  0  0  0  0  0  0
    3.4781   -7.3159    0.0000 C    0  0  0  0  0  0  0  0  0  0  0  0
    0.0000   -1.3353    0.0000 C    0  0  0  0  0  0  0  0  0  0  0  0
    1.1594   -1.9989    0.0000 C    0  0  0  0  0  0  0  0  0  0  0  0
    4.6134   -3.9898    0.0000 C    0  0  0  0  0  0  0  0  0  0  0  0
    4.6134   -5.3250    0.0000 C    0  0  0  0  0  0  0  0  0  0  0  0
    1.1594   -3.3342    0.0000 C    0  0  0  0  0  0  0  0  0  0  0  0
    3.4621   -3.3342    0.0000 C    0  0  0  0  0  0  0  0  0  0  0  0
    2.3187   -5.3250    0.0000 C    0  0  0  0  0  0  0  0  0  0  0  0
    3.4781   -5.9807    0.0000 C    0  0  0  0  0  0  0  0  0  0  0  0
    2.3187   -3.9898    0.0000 N    0  3  0  0  0  0  0  0  0  0  0  0
    2.1268   -7.9956    0.0000 Br   0  5  0  0  0  0  0  0  0  0  0  0
  1  3  1  0  0  0  0
  2 10  1  0  0  0  0
  3  4  1  0  0  0  0
  4  7  1  0  0  0  0
  5  6  2  0  0  0  0
  5  8  1  0  0  0  0
  6 10  1  0  0  0  0
  7 11  1  0  0  0  0
  8 11  2  0  0  0  0
  9 10  2  0  0  0  0
  9 11  1  0  0  0  0
M  END
> <ID>
14122

> <Formula>
C10H16BrN

> <FW>
230.1447 (150.2402+79.9045)

> <DSSTox_CID>
29115

> <DSSTox_RID>
83334

> <DSSTox_GSID>
49259

> <DSSTox_FileID_Sort>
8009

> <TS_ChemName>
1-Butyl-3-methylpyridinium bromide

> <TS_ChemName_Synonyms>


> <TS_CASRN>
26576-85-2

> <CASRN_ChemName_Relationship>
primary

> <TS_Description>
single chemical compound

> <ChemNote>


> <STRUCTURE_Shown>
tested chemical

> <STRUCTURE_Formula>
C10H16BrN

> <STRUCTURE_MW>
230.1447

> <STRUCTURE_ChemType>
defined organic

> <STRUCTURE_DefinedOrganicForm>
salt

> <STRUCTURE_IUPAC>
1-butyl-3-methylpyridinium bromide

> <STRUCTURE_SMILES>
[Br-].Cc1ccc[n+](CCCC)c1

> <STRUCTURE_SMILES_Desalt>
Cc1ccc[n+](CCCC)c1

> <Substance_modify_yyyymmdd>
20111204

$$$$
