26615-21-4
ChemmineR-0915142007XD

 22 24  0  0  0  0  0  0  0  0  1 V2000
    4.3797   -1.0971    0.0000 C    0  0  0  0  0  0  0  0  0  0  0  0
    3.6276    0.0000    0.0000 Cl   0  0  0  0  0  0  0  0  0  0  0  0
    5.7069   -0.9998    0.0000 C    0  0  0  0  0  0  0  0  0  0  0  0
    6.4501   -2.0970    0.0000 C    0  0  0  0  0  0  0  0  0  0  0  0
    5.8573   -3.3091    0.0000 C    0  0  0  0  0  0  0  0  0  0  0  0
    4.5478   -3.3976    0.0000 C    0  0  0  0  0  0  0  0  0  0  0  0
    3.8046   -2.2916    0.0000 C    0  0  0  0  0  0  0  0  0  0  0  0
    3.8046   -4.4947    0.0000 C    0  0  0  0  0  0  0  0  0  0  0  0
    2.4863   -4.2912    0.0000 O    0  0  0  0  0  0  0  0  0  0  0  0
    1.6546   -5.3353    0.0000 C    0  0  0  0  0  0  0  0  0  0  0  0
    2.1412   -6.5740    0.0000 C    0  0  0  0  0  0  0  0  0  0  0  0
    1.3183   -7.6092    0.0000 N    0  0  0  0  0  0  0  0  0  0  0  0
    1.7961   -8.8479    0.0000 C    0  0  0  0  0  0  0  0  0  0  0  0
    0.0000   -7.4146    0.0000 C    0  0  0  0  0  0  0  0  0  0  0  0
    4.1939   -5.7600    0.0000 C    0  0  0  0  0  0  0  0  0  0  0  0
    5.4326   -6.2466    0.0000 C    0  0  0  0  0  0  0  0  0  0  0  0
    6.5828   -5.5830    0.0000 C    0  0  0  0  0  0  0  0  0  0  0  0
    6.7952   -4.2558    0.0000 S    0  0  0  0  0  0  0  0  0  0  0  0
    7.7331   -6.2466    0.0000 C    0  0  0  0  0  0  0  0  0  0  0  0
    7.7331   -7.5738    0.0000 C    0  0  0  0  0  0  0  0  0  0  0  0
    6.5828   -8.2463    0.0000 C    0  0  0  0  0  0  0  0  0  0  0  0
    5.4326   -7.5738    0.0000 C    0  0  0  0  0  0  0  0  0  0  0  0
  1  2  1  0  0  0  0
  1  3  2  0  0  0  0
  1  7  1  0  0  0  0
  3  4  1  0  0  0  0
  4  5  2  0  0  0  0
  5  6  1  0  0  0  0
  5 18  1  0  0  0  0
  6  7  2  0  0  0  0
  6  8  1  0  0  0  0
  8  9  1  0  0  0  0
  8 15  2  0  0  0  0
  9 10  1  0  0  0  0
 10 11  1  0  0  0  0
 11 12  1  0  0  0  0
 12 13  1  0  0  0  0
 12 14  1  0  0  0  0
 15 16  1  0  0  0  0
 16 17  2  0  0  0  0
 16 22  1  0  0  0  0
 17 18  1  0  0  0  0
 17 19  1  0  0  0  0
 19 20  2  0  0  0  0
 20 21  1  0  0  0  0
 21 22  2  0  0  0  0
M  END
> <ID>
3356

> <Formula>
C18H18ClNOS

> <FW>
331.8596

> <DSSTox_CID>
3756

> <DSSTox_RID>
77187

> <DSSTox_GSID>
23756

> <DSSTox_FileID_Sort>
1870

> <TS_ChemName>
Zotepine

> <TS_ChemName_Synonyms>


> <TS_CASRN>
26615-21-4

> <CASRN_ChemName_Relationship>
primary

> <TS_Description>
single chemical compound

> <ChemNote>


> <STRUCTURE_Shown>
tested chemical

> <STRUCTURE_Formula>
C18H18ClNOS

> <STRUCTURE_MW>
331.8596

> <STRUCTURE_ChemType>
defined organic

> <STRUCTURE_DefinedOrganicForm>
parent

> <STRUCTURE_IUPAC>
2-[(8-chlorodibenzo[b,f]thiepin-10-yl)oxy]-N,N-dimethylethanamine

> <STRUCTURE_SMILES>
CN(C)CCOC1=Cc3ccccc3Sc2ccc(Cl)cc12

> <STRUCTURE_SMILES_Desalt>
CN(C)CCOC1=Cc3ccccc3Sc2ccc(Cl)cc12

> <Substance_modify_yyyymmdd>
20080429

$$$$
