266359-83-5
ChemmineR-0915142007XD

 19 19  0  0  1  0  0  0  0  0  1 V2000
    3.4495   -1.9892    0.0000 C   0  0  0  0  0  0  0  0  0  0  0  0
    4.5878   -1.3223    0.0000 C   0  0  0  0  0  0  0  0  0  0  0  0
    4.5878    0.0000    0.0000 C   0  0  0  0  0  0  0  0  0  0  0  0
    3.4495   -3.3115    0.0000 O   0  0  0  0  0  0  0  0  0  0  0  0
    2.2882   -1.3108    0.0000 N   0  0  0  0  0  0  0  0  0  0  0  0
    6.8990   -3.9784    0.0000 C   0  0  0  0  0  0  0  0  0  0  0  0
    8.0488   -3.3115    0.0000 C   0  0  0  0  0  0  0  0  0  0  0  0
    8.0488   -1.9892    0.0000 C   0  0  0  0  0  0  0  0  0  0  0  0
    6.8990   -1.3223    0.0000 C   0  0  0  0  0  0  0  0  0  0  0  0
    5.7377   -2.0007    0.0000 C   0  0  0  0  0  0  0  0  0  0  0  0
    5.7377   -3.3115    0.0000 C   0  0  0  0  0  0  0  0  0  0  0  0
    9.1871   -3.9899    0.0000 C   0  0  0  0  0  0  0  0  0  0  0  0
   10.3485   -3.3115    0.0000 C   0  0  0  0  0  0  0  0  0  0  0  0
   10.3485   -1.9892    0.0000 C   0  0  0  0  0  0  0  0  0  0  0  0
   11.4983   -3.9899    0.0000 C   0  0  0  0  0  0  0  0  0  0  0  0
    1.1383   -1.9892    0.0000 S   0  0  0  0  0  0  0  0  0  0  0  0
    1.8167   -3.1390    0.0000 O   0  0  0  0  0  0  0  0  0  0  0  0
    0.4829   -0.8279    0.0000 O   0  0  0  0  0  0  0  0  0  0  0  0
    0.0000   -2.6561    0.0000 C   0  0  0  0  0  0  0  0  0  0  0  0
  1  2  1  0  0  0  0
  1  5  1  0  0  0  0
  1  4  2  0  0  0  0
  2  3  1  6  0  0  0
  2 10  1  0  0  0  0
  5 16  1  0  0  0  0
  6 11  2  0  0  0  0
  6  7  1  0  0  0  0
  7  8  2  0  0  0  0
  7 12  1  0  0  0  0
  8  9  1  0  0  0  0
  9 10  2  0  0  0  0
 10 11  1  0  0  0  0
 12 13  1  0  0  0  0
 13 14  1  0  0  0  0
 13 15  1  0  0  0  0
 16 17  2  0  0  0  0
 16 18  2  0  0  0  0
 16 19  1  0  0  0  0
M  END
> <ID>
11744

> <Formula>
C14H21NO3S

> <FW>
283.3864

> <DSSTox_CID>
26509

> <DSSTox_RID>
81678

> <DSSTox_GSID>
46509

> <DSSTox_FileID_Sort>
6359

> <TS_ChemName>
Reparixin

> <TS_ChemName_Synonyms>


> <TS_CASRN>
266359-83-5

> <CASRN_ChemName_Relationship>
primary

> <TS_Description>
single chemical compound

> <ChemNote>
stereochem

> <STRUCTURE_Shown>
tested chemical

> <STRUCTURE_Formula>
C14H21NO3S

> <STRUCTURE_MW>
283.3864

> <STRUCTURE_ChemType>
defined organic

> <STRUCTURE_DefinedOrganicForm>
parent

> <STRUCTURE_IUPAC>
(2R)-2-[4-(2-methylpropyl)phenyl]-N-(methylsulfonyl)propanamide

> <STRUCTURE_SMILES>
C[C@@H](C(=O)NS(C)(=O)=O)c1ccc(CC(C)C)cc1

> <STRUCTURE_SMILES_Desalt>
C[C@@H](C(=O)NS(C)(=O)=O)c1ccc(CC(C)C)cc1

> <Substance_modify_yyyymmdd>
20110812

$$$$
