26644-46-2
ChemmineR-0915142007XD

 22 22  0  0  0  0  0  0  0  0  1 V2000
    2.2763   -1.1471    0.0000 C    0  0  0  0  0  0  0  0  0  0  0  0
    4.5705   -7.8057    0.0000 C    0  0  0  0  0  0  0  0  0  0  0  0
    3.4324   -1.8192    0.0000 C    0  0  0  0  0  0  0  0  0  0  0  0
    3.4324   -7.1246    0.0000 C    0  0  0  0  0  0  0  0  0  0  0  0
    3.4324   -3.1546    0.0000 N    0  0  0  0  0  0  0  0  0  0  0  0
    3.4324   -5.7983    0.0000 N    0  0  0  0  0  0  0  0  0  0  0  0
    4.5705   -1.1471    0.0000 N    0  0  0  0  0  0  0  0  0  0  0  0
    2.2763   -7.8057    0.0000 N    0  0  0  0  0  0  0  0  0  0  0  0
    5.6997   -1.8461    0.0000 C    0  0  0  0  0  0  0  0  0  0  0  0
    1.1471   -7.1246    0.0000 C    0  0  0  0  0  0  0  0  0  0  0  0
    2.2763   -5.1351    0.0000 C    0  0  0  0  0  0  0  0  0  0  0  0
    4.5705   -3.8177    0.0000 C    0  0  0  0  0  0  0  0  0  0  0  0
    4.5705   -5.1351    0.0000 C    0  0  0  0  0  0  0  0  0  0  0  0
    2.2763   -3.8177    0.0000 C    0  0  0  0  0  0  0  0  0  0  0  0
    6.8648   -1.1830    0.0000 O    0  0  0  0  0  0  0  0  0  0  0  0
    0.0000   -7.8057    0.0000 O    0  0  0  0  0  0  0  0  0  0  0  0
    1.1292   -0.4929    0.0000 Cl   0  0  0  0  0  0  0  0  0  0  0  0
    2.9664    0.0000    0.0000 Cl   0  0  0  0  0  0  0  0  0  0  0  0
    3.8984   -8.9618    0.0000 Cl   0  0  0  0  0  0  0  0  0  0  0  0
    5.2427   -6.6317    0.0000 Cl   0  0  0  0  0  0  0  0  0  0  0  0
    5.7176   -8.4689    0.0000 Cl   0  0  0  0  0  0  0  0  0  0  0  0
    1.6131   -2.3121    0.0000 Cl   0  0  0  0  0  0  0  0  0  0  0  0
  1  3  1  0  0  0  0
  1 17  1  0  0  0  0
  1 18  1  0  0  0  0
  1 22  1  0  0  0  0
  2  4  1  0  0  0  0
  2 19  1  0  0  0  0
  2 20  1  0  0  0  0
  2 21  1  0  0  0  0
  3  5  1  0  0  0  0
  3  7  1  0  0  0  0
  4  6  1  0  0  0  0
  4  8  1  0  0  0  0
  5 12  1  0  0  0  0
  5 14  1  0  0  0  0
  6 11  1  0  0  0  0
  6 13  1  0  0  0  0
  7  9  1  0  0  0  0
  8 10  1  0  0  0  0
  9 15  2  0  0  0  0
 10 16  2  0  0  0  0
 11 14  1  0  0  0  0
 12 13  1  0  0  0  0
M  END
> <ID>
6567

> <Formula>
C10H14Cl6N4O2

> <FW>
434.9618

> <DSSTox_CID>
12654

> <DSSTox_RID>
79027

> <DSSTox_GSID>
32654

> <DSSTox_FileID_Sort>
3709

> <TS_ChemName>
Triforine

> <TS_ChemName_Synonyms>


> <TS_CASRN>
26644-46-2

> <CASRN_ChemName_Relationship>
primary

> <TS_Description>
single chemical compound

> <ChemNote>


> <STRUCTURE_Shown>
tested chemical

> <STRUCTURE_Formula>
C10H14Cl6N4O2

> <STRUCTURE_MW>
434.9618

> <STRUCTURE_ChemType>
defined organic

> <STRUCTURE_DefinedOrganicForm>
parent

> <STRUCTURE_IUPAC>
N,N'-[piperazine-1,4-diylbis(2,2,2-trichloroethane-1,1-diyl)]diformamide

> <STRUCTURE_SMILES>
ClC(Cl)(Cl)C(NC=O)N1CCN(CC1)C(NC=O)C(Cl)(Cl)Cl

> <STRUCTURE_SMILES_Desalt>
ClC(Cl)(Cl)C(NC=O)N1CCN(CC1)C(NC=O)C(Cl)(Cl)Cl

> <Substance_modify_yyyymmdd>
20080429

$$$$
