26644-00-8
ChemmineR-0915142007XD

 11 10  0  0  0  0  0  0  0  0  1 V2000
    3.9259   -1.9710    0.0000 P   0  0  0  0  0  0  0  0  0  0  0  0
    3.9259   -3.2761    0.0000 O   0  0  0  0  0  0  0  0  0  0  0  0
    3.9259   -0.6605    0.0000 O   0  0  0  0  0  0  0  0  0  0  0  0
    2.6155   -1.9710    0.0000 O   0  0  0  0  0  0  0  0  0  0  0  0
    5.2310   -1.9710    0.0000 O   0  0  0  0  0  0  0  0  0  0  0  0
    1.3104   -1.9710    0.0000 P   0  0  0  0  0  0  0  0  0  0  0  0
    0.0000   -1.9869    0.0000 O   0  0  0  0  0  0  0  0  0  0  0  0
    1.3104   -0.6605    0.0000 O   0  0  0  0  0  0  0  0  0  0  0  0
    1.3104   -3.2761    0.0000 O   0  0  0  0  0  0  0  0  0  0  0  0
    0.1119   -3.7502    0.0000 C   0  0  0  0  0  0  0  0  0  0  0  0
    5.3269    0.0000    0.0000 C   0  0  0  0  0  0  0  0  0  0  0  0
  1  2  2  0  0  0  0
  1  3  1  0  0  0  0
  1  4  1  0  0  0  0
  1  5  1  0  0  0  0
  3 11  1  0  0  0  0
  4  6  1  0  0  0  0
  6  7  1  0  0  0  0
  6  8  2  0  0  0  0
  6  9  1  0  0  0  0
  9 10  1  0  0  0  0
M  END
> <ID>
10286

> <Formula>
C2H8O7P2

> <FW>
206.0282

> <DSSTox_CID>
24632

> <DSSTox_RID>
80365

> <DSSTox_GSID>
44632

> <DSSTox_FileID_Sort>
5047

> <TS_ChemName>
Dimethyl dihydrogen diphosphate

> <TS_ChemName_Synonyms>
Diphosphoric acid, P,P'-dimethyl ester

> <TS_CASRN>
26644-00-8

> <CASRN_ChemName_Relationship>
primary

> <TS_Description>
single chemical compound

> <ChemNote>


> <STRUCTURE_Shown>
tested chemical

> <STRUCTURE_Formula>
C2H8O7P2

> <STRUCTURE_MW>
206.0282

> <STRUCTURE_ChemType>
defined organic

> <STRUCTURE_DefinedOrganicForm>
parent

> <STRUCTURE_IUPAC>
dimethyl dihydrogen diphosphate

> <STRUCTURE_SMILES>
O=P(O)(OC)OP(O)(=O)OC

> <STRUCTURE_SMILES_Desalt>
O=P(O)(OC)OP(O)(=O)OC

> <Substance_modify_yyyymmdd>
20091116

$$$$
