2664-63-3
ChemmineR-0915142007XD

 15 16  0  0  0  0  0  0  0  0  1 V2000
    8.0508   -0.6717    0.0000 C   0  0  0  0  0  0  0  0  0  0  0  0
    8.0508   -2.0058    0.0000 C   0  0  0  0  0  0  0  0  0  0  0  0
    6.9007    0.0000    0.0000 C   0  0  0  0  0  0  0  0  0  0  0  0
    6.9007   -2.6591    0.0000 C   0  0  0  0  0  0  0  0  0  0  0  0
    5.7414   -0.6717    0.0000 C   0  0  0  0  0  0  0  0  0  0  0  0
    5.7414   -2.0058    0.0000 C   0  0  0  0  0  0  0  0  0  0  0  0
    3.4595   -0.6717    0.0000 C   0  0  0  0  0  0  0  0  0  0  0  0
    3.4595   -2.0058    0.0000 C   0  0  0  0  0  0  0  0  0  0  0  0
    2.3002    0.0000    0.0000 C   0  0  0  0  0  0  0  0  0  0  0  0
    2.3002   -2.6591    0.0000 C   0  0  0  0  0  0  0  0  0  0  0  0
    1.1501   -0.6717    0.0000 C   0  0  0  0  0  0  0  0  0  0  0  0
    1.1501   -2.0058    0.0000 C   0  0  0  0  0  0  0  0  0  0  0  0
    4.5913    0.0000    0.0000 S   0  0  0  0  0  0  0  0  0  0  0  0
    0.0000   -2.6591    0.0000 O   0  0  0  0  0  0  0  0  0  0  0  0
    9.2009   -2.6591    0.0000 O   0  0  0  0  0  0  0  0  0  0  0  0
  1  2  1  0  0  0  0
  1  3  2  0  0  0  0
  2  4  2  0  0  0  0
  2 15  1  0  0  0  0
  3  5  1  0  0  0  0
  4  6  1  0  0  0  0
  5  6  2  0  0  0  0
  5 13  1  0  0  0  0
  7  8  1  0  0  0  0
  7  9  2  0  0  0  0
  7 13  1  0  0  0  0
  8 10  2  0  0  0  0
  9 11  1  0  0  0  0
 10 12  1  0  0  0  0
 11 12  2  0  0  0  0
 12 14  1  0  0  0  0
M  END
> <ID>
13034

> <Formula>
C12H10O2S

> <FW>
218.2716

> <DSSTox_CID>
27936

> <DSSTox_RID>
82688

> <DSSTox_GSID>
47960

> <DSSTox_FileID_Sort>
7365

> <TS_ChemName>
4,4'-Thiodiphenol

> <TS_ChemName_Synonyms>
4,4'-Thiodiphenol (Phenol, 4,4'-thiobis-)

> <TS_CASRN>
2664-63-3

> <CASRN_ChemName_Relationship>
primary

> <TS_Description>
single chemical compound

> <ChemNote>


> <STRUCTURE_Shown>
tested chemical

> <STRUCTURE_Formula>
C12H10O2S

> <STRUCTURE_MW>
218.2716

> <STRUCTURE_ChemType>
defined organic

> <STRUCTURE_DefinedOrganicForm>
parent

> <STRUCTURE_IUPAC>
4,4'-sulfanediyldiphenol

> <STRUCTURE_SMILES>
Oc1ccc(cc1)Sc2ccc(O)cc2

> <STRUCTURE_SMILES_Desalt>
Oc1ccc(cc1)Sc2ccc(O)cc2

> <Substance_modify_yyyymmdd>
20110419

$$$$
