2664-60-0
ChemmineR-0915142007XD

 22 22  0  0  0  0  0  0  0  0  1 V2000
    4.6151   -1.3354    0.0000 C   0  0  0  0  0  0  0  0  0  0  0  0
    3.4760   -2.0228    0.0000 C   0  0  0  0  0  0  0  0  0  0  0  0
    4.6151    0.0000    0.0000 O   0  0  0  0  0  0  0  0  0  0  0  0
    3.4760   -3.3189    0.0000 C   0  0  0  0  0  0  0  0  0  0  0  0
    2.3370   -1.3551    0.0000 C   0  0  0  0  0  0  0  0  0  0  0  0
    5.7541   -2.0031    0.0000 O   0  0  0  0  0  0  0  0  0  0  0  0
    1.1783   -3.3189    0.0000 C   0  0  0  0  0  0  0  0  0  0  0  0
    2.3174   -3.9670    0.0000 C   0  0  0  0  0  0  0  0  0  0  0  0
    1.1783   -2.0228    0.0000 C   0  0  0  0  0  0  0  0  0  0  0  0
    0.0000   -3.9866    0.0000 O   0  0  0  0  0  0  0  0  0  0  0  0
    6.9128   -1.3354    0.0000 C   0  0  0  0  0  0  0  0  0  0  0  0
    8.0715   -2.0031    0.0000 C   0  0  0  0  0  0  0  0  0  0  0  0
    9.2498   -1.3354    0.0000 C   0  0  0  0  0  0  0  0  0  0  0  0
   10.3888   -2.0228    0.0000 C   0  0  0  0  0  0  0  0  0  0  0  0
   11.5671   -1.3551    0.0000 C   0  0  0  0  0  0  0  0  0  0  0  0
   12.7062   -2.0228    0.0000 C   0  0  0  0  0  0  0  0  0  0  0  0
   13.8648   -1.3943    0.0000 C   0  0  0  0  0  0  0  0  0  0  0  0
   15.0235   -2.0621    0.0000 C   0  0  0  0  0  0  0  0  0  0  0  0
   16.1822   -1.3943    0.0000 C   0  0  0  0  0  0  0  0  0  0  0  0
   17.3212   -2.0621    0.0000 C   0  0  0  0  0  0  0  0  0  0  0  0
   18.4799   -1.3943    0.0000 C   0  0  0  0  0  0  0  0  0  0  0  0
   19.6386   -2.0817    0.0000 C   0  0  0  0  0  0  0  0  0  0  0  0
  1  2  1  0  0  0  0
  1  3  2  0  0  0  0
  1  6  1  0  0  0  0
  2  4  1  0  0  0  0
  2  5  2  0  0  0  0
  4  8  2  0  0  0  0
  5  9  1  0  0  0  0
  6 11  1  0  0  0  0
  7  9  2  0  0  0  0
  7 10  1  0  0  0  0
  7  8  1  0  0  0  0
 11 12  1  0  0  0  0
 12 13  1  0  0  0  0
 13 14  1  0  0  0  0
 14 15  1  0  0  0  0
 15 16  1  0  0  0  0
 16 17  1  0  0  0  0
 17 18  1  0  0  0  0
 18 19  1  0  0  0  0
 19 20  1  0  0  0  0
 20 21  1  0  0  0  0
 21 22  1  0  0  0  0
M  END
> <ID>
12958

> <Formula>
C19H30O3

> <FW>
306.4397

> <DSSTox_CID>
27859

> <DSSTox_RID>
82612

> <DSSTox_GSID>
47883

> <DSSTox_FileID_Sort>
7289

> <TS_ChemName>
Dodecylparaben

> <TS_ChemName_Synonyms>


> <TS_CASRN>
2664-60-0

> <CASRN_ChemName_Relationship>
primary

> <TS_Description>
single chemical compound

> <ChemNote>


> <STRUCTURE_Shown>
tested chemical

> <STRUCTURE_Formula>
C19H30O3

> <STRUCTURE_MW>
306.4397

> <STRUCTURE_ChemType>
defined organic

> <STRUCTURE_DefinedOrganicForm>
parent

> <STRUCTURE_IUPAC>
dodecyl 4-hydroxybenzoate

> <STRUCTURE_SMILES>
Oc1ccc(cc1)C(=O)OCCCCCCCCCCCC

> <STRUCTURE_SMILES_Desalt>
Oc1ccc(cc1)C(=O)OCCCCCCCCCCCC

> <Substance_modify_yyyymmdd>


$$$$
