2667-89-2
ChemmineR-0915142007XD

 54 57  0  0  0  0  0  0  0  0  1 V2000
    1.1544   -7.2710    0.0000 N   0  0  0  0  0  0  0  0  0  0  0  0
   16.0581   -3.9284    0.0000 N   0  0  0  0  0  0  0  0  0  0  0  0
    3.4460   -7.2710    0.0000 C   0  0  0  0  0  0  0  0  0  0  0  0
   13.7494   -3.9284    0.0000 C   0  0  0  0  0  0  0  0  0  0  0  0
    2.3088   -7.9257    0.0000 C   0  0  0  0  0  0  0  0  0  0  0  0
   14.9037   -3.2737    0.0000 C   0  0  0  0  0  0  0  0  0  0  0  0
    5.7375   -7.2710    0.0000 N   0  0  0  0  0  0  0  0  0  0  0  0
   11.4406   -3.9284    0.0000 N   0  0  0  0  0  0  0  0  0  0  0  0
    5.7375   -5.9270    0.0000 C   0  0  0  0  0  0  0  0  0  0  0  0
   11.4406   -5.2723    0.0000 C   0  0  0  0  0  0  0  0  0  0  0  0
    6.8747   -5.2723    0.0000 C   0  0  0  0  0  0  0  0  0  0  0  0
   10.2862   -5.9270    0.0000 C   0  0  0  0  0  0  0  0  0  0  0  0
   12.5950   -3.2737    0.0000 C   0  0  0  0  0  0  0  0  0  0  0  0
    4.5831   -7.9257    0.0000 C   0  0  0  0  0  0  0  0  0  0  0  0
    8.0118   -5.9270    0.0000 S   0  0  0  0  0  0  0  0  0  0  0  0
    9.1490   -5.2723    0.0000 S   0  0  0  0  0  0  0  0  0  0  0  0
    2.3088   -5.2723    0.0000 N   0  0  0  0  0  0  0  0  0  0  0  0
   14.9037   -5.9270    0.0000 N   0  0  0  0  0  0  0  0  0  0  0  0
   16.0581   -5.2723    0.0000 C   0  0  0  0  0  0  0  0  0  0  0  0
    1.1544   -5.9270    0.0000 C   0  0  0  0  0  0  0  0  0  0  0  0
   12.5950   -9.9071    0.0000 C   0  0  0  0  0  0  0  0  0  0  0  0
    4.5831   -1.3095    0.0000 C   0  0  0  0  0  0  0  0  0  0  0  0
   10.2862   -3.2737    0.0000 C   0  0  0  0  0  0  0  0  0  0  0  0
    6.8747   -7.9257    0.0000 C   0  0  0  0  0  0  0  0  0  0  0  0
   13.7494   -5.2723    0.0000 C   0  0  0  0  0  0  0  0  0  0  0  0
    3.4460   -5.9270    0.0000 C   0  0  0  0  0  0  0  0  0  0  0  0
   12.5950  -11.2510    0.0000 O   0  0  0  0  0  0  0  0  0  0  0  0
    4.5831    0.0000    0.0000 O   0  0  0  0  0  0  0  0  0  0  0  0
   13.7494   -9.2524    0.0000 C   0  0  0  0  0  0  0  0  0  0  0  0
    3.4460   -1.9814    0.0000 C   0  0  0  0  0  0  0  0  0  0  0  0
   10.2862   -1.8953    0.0000 O   0  0  0  0  0  0  0  0  0  0  0  0
    6.8747   -9.2524    0.0000 O   0  0  0  0  0  0  0  0  0  0  0  0
   14.9037   -1.8953    0.0000 N   0  0  0  0  0  0  0  0  0  0  0  0
    2.3088   -9.2524    0.0000 N   0  0  0  0  0  0  0  0  0  0  0  0
    6.8747   -3.9456    0.0000 C   0  0  0  0  0  0  0  0  0  0  0  0
   10.2862   -7.2710    0.0000 C   0  0  0  0  0  0  0  0  0  0  0  0
    5.7375   -1.9470    0.0000 O   0  0  0  0  0  0  0  0  0  0  0  0
   11.4406   -9.2696    0.0000 O   0  0  0  0  0  0  0  0  0  0  0  0
    5.7375   -3.3081    0.0000 C   0  0  0  0  0  0  0  0  0  0  0  0
   11.4406   -7.9257    0.0000 C   0  0  0  0  0  0  0  0  0  0  0  0
    4.5831   -5.2723    0.0000 C   0  0  0  0  0  0  0  0  0  0  0  0
   12.5950   -5.9270    0.0000 C   0  0  0  0  0  0  0  0  0  0  0  0
    0.0000   -5.2551    0.0000 C   0  0  0  0  0  0  0  0  0  0  0  0
   17.2298   -5.9270    0.0000 C   0  0  0  0  0  0  0  0  0  0  0  0
    3.4460   -3.3253    0.0000 C   0  0  0  0  0  0  0  0  0  0  0  0
    2.3088   -1.3267    0.0000 C   0  0  0  0  0  0  0  0  0  0  0  0
   13.7494   -7.9085    0.0000 C   0  0  0  0  0  0  0  0  0  0  0  0
   14.9037   -9.9071    0.0000 C   0  0  0  0  0  0  0  0  0  0  0  0
    1.1544   -1.9814    0.0000 C   0  0  0  0  0  0  0  0  0  0  0  0
    2.3088   -3.9801    0.0000 C   0  0  0  0  0  0  0  0  0  0  0  0
   16.0581   -9.2524    0.0000 C   0  0  0  0  0  0  0  0  0  0  0  0
   14.9037   -7.2537    0.0000 C   0  0  0  0  0  0  0  0  0  0  0  0
    1.1544   -3.3253    0.0000 C   0  0  0  0  0  0  0  0  0  0  0  0
   16.0581   -7.9085    0.0000 C   0  0  0  0  0  0  0  0  0  0  0  0
  1  5  1  0  0  0  0
  1 20  2  0  0  0  0
  2  6  1  0  0  0  0
  2 19  2  0  0  0  0
  3  5  2  0  0  0  0
  3 14  1  0  0  0  0
  3 26  1  0  0  0  0
  4 13  1  0  0  0  0
  4  6  2  0  0  0  0
  4 25  1  0  0  0  0
  5 34  1  0  0  0  0
  6 33  1  0  0  0  0
  7 14  1  0  0  0  0
  7  9  1  0  0  0  0
  7 24  1  0  0  0  0
  8 10  1  0  0  0  0
  8 13  1  0  0  0  0
  8 23  1  0  0  0  0
  9 11  2  0  0  0  0
  9 41  1  0  0  0  0
 10 12  2  0  0  0  0
 10 42  1  0  0  0  0
 11 15  1  0  0  0  0
 11 35  1  0  0  0  0
 12 16  1  0  0  0  0
 12 36  1  0  0  0  0
 15 16  1  0  0  0  0
 17 20  1  0  0  0  0
 17 26  2  0  0  0  0
 18 25  2  0  0  0  0
 18 19  1  0  0  0  0
 19 44  1  0  0  0  0
 20 43  1  0  0  0  0
 21 38  1  0  0  0  0
 21 27  2  0  0  0  0
 21 29  1  0  0  0  0
 22 37  1  0  0  0  0
 22 28  2  0  0  0  0
 22 30  1  0  0  0  0
 23 31  2  0  0  0  0
 24 32  2  0  0  0  0
 29 47  2  0  0  0  0
 29 48  1  0  0  0  0
 30 45  2  0  0  0  0
 30 46  1  0  0  0  0
 35 39  1  0  0  0  0
 36 40  1  0  0  0  0
 37 39  1  0  0  0  0
 38 40  1  0  0  0  0
 45 50  1  0  0  0  0
 46 49  2  0  0  0  0
 47 52  1  0  0  0  0
 48 51  2  0  0  0  0
 49 53  1  0  0  0  0
 50 53  2  0  0  0  0
 51 54  1  0  0  0  0
 52 54  2  0  0  0  0
M  END
> <ID>
13584

> <Formula>
C38H42N8O6S2

> <FW>
770.9201

> <DSSTox_CID>
28512

> <DSSTox_RID>
82784

> <DSSTox_GSID>
48586

> <DSSTox_FileID_Sort>
7461

> <TS_ChemName>
Bisbentiamine

> <TS_ChemName_Synonyms>


> <TS_CASRN>
2667-89-2

> <CASRN_ChemName_Relationship>
primary

> <TS_Description>
single chemical compound

> <ChemNote>


> <STRUCTURE_Shown>
tested chemical

> <STRUCTURE_Formula>
C38H42N8O6S2

> <STRUCTURE_MW>
770.9201

> <STRUCTURE_ChemType>
defined organic

> <STRUCTURE_DefinedOrganicForm>
parent

> <STRUCTURE_IUPAC>
disulfanediylbis(2Z)-2-{[(4-amino-2-methylpyrimidin-5-yl)methyl](formyl)amino}pent-2-ene-3,5-diyl dibenzoate

> <STRUCTURE_SMILES>
Nc4nc(C)ncc4CN(C=O)C(/C)=C(/CCOC(=O)c1ccccc1)SSC(/CCOC(=O)c2ccccc2)=C(/C)N(C=O)Cc3cnc(C)nc3N

> <STRUCTURE_SMILES_Desalt>
Nc4nc(C)ncc4CN(C=O)C(/C)=C(/CCOC(=O)c1ccccc1)SSC(/CCOC(=O)c2ccccc2)=C(/C)N(C=O)Cc3cnc(C)nc3N

> <Substance_modify_yyyymmdd>
20111014

$$$$
