2668-66-8
ChemmineR-0915142007XD

 28 31  0  0  1  0  0  0  0  0  1 V2000
    3.4652   -4.6730    0.0000 C   0  0  0  0  0  0  0  0  0  0  0  0
    6.9105   -2.6830    0.0000 C   0  0  0  0  0  0  0  0  0  0  0  0
    3.4652   -5.9997    0.0000 C   0  0  0  0  0  0  0  0  0  0  0  0
    4.6433   -3.9998    0.0000 C   0  0  0  0  0  0  0  0  0  0  0  0
    5.7621   -4.6730    0.0000 C   0  0  0  0  0  0  0  0  0  0  0  0
    6.9105   -3.9998    0.0000 C   0  0  0  0  0  0  0  0  0  0  0  0
    5.7522   -2.0098    0.0000 C   0  0  0  0  0  0  0  0  0  0  0  0
    4.6433   -2.6830    0.0000 C   0  0  0  0  0  0  0  0  0  0  0  0
    8.1778   -2.2771    0.0000 C   0  0  0  0  0  0  0  0  0  0  0  0
    5.7621   -5.9997    0.0000 C   0  0  0  0  0  0  0  0  0  0  0  0
    2.3266   -6.6729    0.0000 C   0  0  0  0  0  0  0  0  0  0  0  0
    4.6433   -6.6729    0.0000 C   0  0  0  0  0  0  0  0  0  0  0  0
    2.3266   -3.9998    0.0000 C   0  0  0  0  0  0  0  0  0  0  0  0
    8.1778   -4.4057    0.0000 C   0  0  0  0  0  0  0  0  0  0  0  0
    8.9401   -3.3365    0.0000 C   0  0  0  0  0  0  0  0  0  0  0  0
    8.5936   -0.9900    0.0000 C   0  0  0  0  0  0  0  0  0  0  0  0
    1.1683   -5.9997    0.0000 C   0  0  0  0  0  0  0  0  0  0  0  0
    7.6927    0.0000    0.0000 O   0  0  0  0  0  0  0  0  0  0  0  0
    0.0000   -6.6729    0.0000 O   0  0  0  0  0  0  0  0  0  0  0  0
    1.1683   -4.6730    0.0000 C   0  0  0  0  0  0  0  0  0  0  0  0
    3.4652   -3.3365    0.0000 C   0  0  0  0  0  0  0  0  0  0  0  0
    6.9105   -1.3564    0.0000 C   0  0  0  0  0  0  0  0  0  0  0  0
    3.4355   -2.0098    0.0000 O   0  0  0  0  0  0  0  0  0  0  0  0
    4.6433   -7.9798    0.0000 C   0  0  0  0  0  0  0  0  0  0  0  0
    9.9005   -0.7128    0.0000 C   0  0  0  0  0  0  0  0  0  0  0  0
    4.6433   -5.3265    0.0000 H   0  0  0  0  0  0  0  0  0  0  0  0
    5.7621   -3.3365    0.0000 H   0  0  0  0  0  0  0  0  0  0  0  0
    6.9105   -5.3265    0.0000 H   0  0  0  0  0  0  0  0  0  0  0  0
  1  3  1  0  0  0  0
  1  4  1  0  0  0  0
  1 13  1  0  0  0  0
  1 21  1  1  0  0  0
  2  7  1  0  0  0  0
  2  9  1  0  0  0  0
  2 22  1  1  0  0  0
  2  6  1  0  0  0  0
  3 11  2  0  0  0  0
  3 12  1  0  0  0  0
  4  5  1  0  0  0  0
  4  8  1  0  0  0  0
  4 26  1  6  0  0  0
  5  6  1  0  0  0  0
  5 10  1  0  0  0  0
  5 27  1  1  0  0  0
  6 14  1  0  0  0  0
  6 28  1  6  0  0  0
  7  8  1  0  0  0  0
  8 23  1  1  0  0  0
  9 16  1  1  0  0  0
  9 15  1  0  0  0  0
 10 12  1  0  0  0  0
 11 17  1  0  0  0  0
 12 24  1  6  0  0  0
 13 20  1  0  0  0  0
 14 15  1  0  0  0  0
 16 18  2  0  0  0  0
 16 25  1  0  0  0  0
 17 20  1  0  0  0  0
 17 19  2  0  0  0  0
M  END
> <ID>
10903

> <Formula>
C22H32O3

> <FW>
344.4877

> <DSSTox_CID>
25371

> <DSSTox_RID>
80833

> <DSSTox_GSID>
45371

> <DSSTox_FileID_Sort>
5514

> <TS_ChemName>
Medrysone

> <TS_ChemName_Synonyms>


> <TS_CASRN>
2668-66-8

> <CASRN_ChemName_Relationship>
primary

> <TS_Description>
single chemical compound

> <ChemNote>
stereochem

> <STRUCTURE_Shown>
tested chemical

> <STRUCTURE_Formula>
C22H32O3

> <STRUCTURE_MW>
344.4877

> <STRUCTURE_ChemType>
defined organic

> <STRUCTURE_DefinedOrganicForm>
parent

> <STRUCTURE_IUPAC>
(6alpha,11beta)-11-hydroxy-6-methylpregn-4-ene-3,20-dione

> <STRUCTURE_SMILES>
CC(=O)[C@H]4CC[C@@H]2[C@]4(C)C[C@H](O)[C@@H]1[C@@]3(C)CCC(=O)C=C3[C@@H](C)C[C@H]12

> <STRUCTURE_SMILES_Desalt>
CC(=O)[C@H]4CC[C@@H]2[C@]4(C)C[C@H](O)[C@@H]1[C@@]3(C)CCC(=O)C=C3[C@@H](C)C[C@H]12

> <Substance_modify_yyyymmdd>
20110610

$$$$
