267243-28-7
ChemmineR-0915142007XD

 34 37  0  0  0  0  0  0  0  0  1 V2000
   10.3591   -2.6744    0.0000 C    0  0  0  0  0  0  0  0  0  0  0  0
   10.3591   -4.0115    0.0000 C    0  0  0  0  0  0  0  0  0  0  0  0
    9.2153   -1.9977    0.0000 C    0  0  0  0  0  0  0  0  0  0  0  0
    9.2153   -4.6560    0.0000 C    0  0  0  0  0  0  0  0  0  0  0  0
    8.0553   -2.6744    0.0000 C    0  0  0  0  0  0  0  0  0  0  0  0
    8.0553   -4.0115    0.0000 C    0  0  0  0  0  0  0  0  0  0  0  0
   11.5191   -1.9977    0.0000 N    0  0  0  0  0  0  0  0  0  0  0  0
   12.6629   -2.6744    0.0000 C    0  0  0  0  0  0  0  0  0  0  0  0
   11.5191   -4.6560    0.0000 C    0  0  0  0  0  0  0  0  0  0  0  0
   12.6629   -4.0115    0.0000 N    0  0  0  0  0  0  0  0  0  0  0  0
    6.8953   -1.9977    0.0000 O    0  0  0  0  0  0  0  0  0  0  0  0
    5.7515   -2.6744    0.0000 C    0  0  0  0  0  0  0  0  0  0  0  0
    4.5915   -1.9977    0.0000 C    0  0  0  0  0  0  0  0  0  0  0  0
    3.4638   -2.6582    0.0000 C    0  0  0  0  0  0  0  0  0  0  0  0
    2.3038   -1.9977    0.0000 N    0  0  0  0  0  0  0  0  0  0  0  0
    1.1600   -2.6582    0.0000 C    0  0  0  0  0  0  0  0  0  0  0  0
    2.3038   -0.6766    0.0000 C    0  0  0  0  0  0  0  0  0  0  0  0
    0.0000   -1.9977    0.0000 C    0  0  0  0  0  0  0  0  0  0  0  0
    1.1600    0.0000    0.0000 C    0  0  0  0  0  0  0  0  0  0  0  0
    0.0000   -0.6766    0.0000 O    0  0  0  0  0  0  0  0  0  0  0  0
    6.8953   -4.6560    0.0000 N    0  0  0  0  0  0  0  0  0  0  0  0
    6.8953   -5.9931    0.0000 C    0  0  0  0  0  0  0  0  0  0  0  0
    5.7515   -6.6537    0.0000 C    0  0  0  0  0  0  0  0  0  0  0  0
    8.0553   -6.6698    0.0000 O    0  0  0  0  0  0  0  0  0  0  0  0
    4.5915   -5.9931    0.0000 C    0  0  0  0  0  0  0  0  0  0  0  0
   11.5191   -5.9931    0.0000 N    0  0  0  0  0  0  0  0  0  0  0  0
   12.6629   -6.6698    0.0000 C    0  0  0  0  0  0  0  0  0  0  0  0
   13.8229   -5.9931    0.0000 C    0  0  0  0  0  0  0  0  0  0  0  0
   12.6629   -7.9909    0.0000 C    0  0  0  0  0  0  0  0  0  0  0  0
   14.9506   -6.6698    0.0000 C    0  0  0  0  0  0  0  0  0  0  0  0
   13.8229   -8.6514    0.0000 C    0  0  0  0  0  0  0  0  0  0  0  0
   14.9506   -7.9909    0.0000 C    0  0  0  0  0  0  0  0  0  0  0  0
   16.1106   -5.9931    0.0000 Cl   0  0  0  0  0  0  0  0  0  0  0  0
   16.1106   -8.6514    0.0000 F    0  0  0  0  0  0  0  0  0  0  0  0
  1  3  2  0  0  0  0
  1  7  1  0  0  0  0
  1  2  1  0  0  0  0
  2  4  2  0  0  0  0
  2  9  1  0  0  0  0
  3  5  1  0  0  0  0
  4  6  1  0  0  0  0
  5  6  2  0  0  0  0
  5 11  1  0  0  0  0
  6 21  1  0  0  0  0
  7  8  2  0  0  0  0
  8 10  1  0  0  0  0
  9 10  2  0  0  0  0
  9 26  1  0  0  0  0
 11 12  1  0  0  0  0
 12 13  1  0  0  0  0
 13 14  1  0  0  0  0
 14 15  1  0  0  0  0
 15 16  1  0  0  0  0
 15 17  1  0  0  0  0
 16 18  1  0  0  0  0
 17 19  1  0  0  0  0
 18 20  1  0  0  0  0
 19 20  1  0  0  0  0
 21 22  1  0  0  0  0
 22 23  1  0  0  0  0
 22 24  2  0  0  0  0
 23 25  2  0  0  0  0
 26 27  1  0  0  0  0
 27 28  1  0  0  0  0
 27 29  2  0  0  0  0
 28 30  2  0  0  0  0
 29 31  1  0  0  0  0
 30 32  1  0  0  0  0
 30 33  1  0  0  0  0
 31 32  2  0  0  0  0
 32 34  1  0  0  0  0
M  END
> <ID>
13932

> <Formula>
C24H25ClFN5O3

> <FW>
485.9384

> <DSSTox_CID>
28869

> <DSSTox_RID>
83138

> <DSSTox_GSID>
48943

> <DSSTox_FileID_Sort>
7815

> <TS_ChemName>
Canertinib

> <TS_ChemName_Synonyms>


> <TS_CASRN>
267243-28-7

> <CASRN_ChemName_Relationship>
primary

> <TS_Description>
single chemical compound

> <ChemNote>


> <STRUCTURE_Shown>
tested chemical

> <STRUCTURE_Formula>
C24H25ClFN5O3

> <STRUCTURE_MW>
485.9384

> <STRUCTURE_ChemType>
defined organic

> <STRUCTURE_DefinedOrganicForm>
parent

> <STRUCTURE_IUPAC>
N-{4-[(3-chloro-4-fluorophenyl)amino]-7-[3-(morpholin-4-yl)propoxy]quinazolin-6-yl}prop-2-enamide

> <STRUCTURE_SMILES>
Fc1ccc(cc1Cl)Nc4ncnc3cc(OCCCN2CCOCC2)c(NC(=O)C=C)cc34

> <STRUCTURE_SMILES_Desalt>
Fc1ccc(cc1Cl)Nc4ncnc3cc(OCCCN2CCOCC2)c(NC(=O)C=C)cc34

> <Substance_modify_yyyymmdd>
20111204

$$$$
