2675-77-6
ChemmineR-0915142007XD

 12 12  0  0  0  0  0  0  0  0  1 V2000
    0.6647   -2.3064    0.0000 O    0  0  0  0  0  0  0  0  0  0  0  0
    0.0000   -1.1499    0.0000 C    0  0  0  0  0  0  0  0  0  0  0  0
    1.9940   -2.3064    0.0000 C    0  0  0  0  0  0  0  0  0  0  0  0
    2.6587   -1.1499    0.0000 C    0  0  0  0  0  0  0  0  0  0  0  0
    3.9880   -1.1499    0.0000 C    0  0  0  0  0  0  0  0  0  0  0  0
    4.6527    0.0000    0.0000 Cl   0  0  0  0  0  0  0  0  0  0  0  0
    4.6527   -2.3064    0.0000 C    0  0  0  0  0  0  0  0  0  0  0  0
    5.9821   -2.3064    0.0000 O    0  0  0  0  0  0  0  0  0  0  0  0
    6.6467   -3.4563    0.0000 C    0  0  0  0  0  0  0  0  0  0  0  0
    3.9880   -3.4563    0.0000 C    0  0  0  0  0  0  0  0  0  0  0  0
    2.6587   -3.4563    0.0000 C    0  0  0  0  0  0  0  0  0  0  0  0
    1.9940   -4.6062    0.0000 Cl   0  0  0  0  0  0  0  0  0  0  0  0
  1  2  1  0  0  0  0
  1  3  1  0  0  0  0
  3  4  2  0  0  0  0
  3 11  1  0  0  0  0
  4  5  1  0  0  0  0
  5  6  1  0  0  0  0
  5  7  2  0  0  0  0
  7  8  1  0  0  0  0
  7 10  1  0  0  0  0
  8  9  1  0  0  0  0
 10 11  2  0  0  0  0
 11 12  1  0  0  0  0
M  END
> <ID>
3856

> <Formula>
C8H8Cl2O2

> <FW>
207.0539

> <DSSTox_CID>
4793

> <DSSTox_RID>
77534

> <DSSTox_GSID>
24793

> <DSSTox_FileID_Sort>
2217

> <TS_ChemName>
Chloroneb

> <TS_ChemName_Synonyms>
Chloroneb (Dichloro-2,5-dimethoxybenzene)

> <TS_CASRN>
2675-77-6

> <CASRN_ChemName_Relationship>
primary

> <TS_Description>
single chemical compound

> <ChemNote>


> <STRUCTURE_Shown>
tested chemical

> <STRUCTURE_Formula>
C8H8Cl2O2

> <STRUCTURE_MW>
207.0539

> <STRUCTURE_ChemType>
defined organic

> <STRUCTURE_DefinedOrganicForm>
parent

> <STRUCTURE_IUPAC>
1,4-dichloro-2,5-dimethoxybenzene

> <STRUCTURE_SMILES>
COc1cc(Cl)c(cc1Cl)OC

> <STRUCTURE_SMILES_Desalt>
COc1cc(Cl)c(cc1Cl)OC

> <Substance_modify_yyyymmdd>
20080429

$$$$
