26761-40-0
ChemmineR-0915142007XD

 32 32  0  0  0  0  0  0  0  0  1 V2000
    2.3219   -1.9882    0.0000 C   0  0  0  0  0  0  0  0  0  0  0  0
    2.3219   -3.3368    0.0000 C   0  0  0  0  0  0  0  0  0  0  0  0
    3.4619   -1.3625    0.0000 C   0  0  0  0  0  0  0  0  0  0  0  0
    3.4619   -4.0181    0.0000 C   0  0  0  0  0  0  0  0  0  0  0  0
    3.4619    0.0000    0.0000 O   0  0  0  0  0  0  0  0  0  0  0  0
    3.4619   -5.3250    0.0000 O   0  0  0  0  0  0  0  0  0  0  0  0
    4.6576   -1.9882    0.0000 O   0  0  0  0  0  0  0  0  0  0  0  0
    4.6020   -3.3368    0.0000 O   0  0  0  0  0  0  0  0  0  0  0  0
    1.1401   -1.3625    0.0000 C   0  0  0  0  0  0  0  0  0  0  0  0
    1.1401   -4.0181    0.0000 C   0  0  0  0  0  0  0  0  0  0  0  0
    0.0000   -1.9882    0.0000 C   0  0  0  0  0  0  0  0  0  0  0  0
    0.0000   -3.3368    0.0000 C   0  0  0  0  0  0  0  0  0  0  0  0
    5.7838   -1.3625    0.0000 C   0  0  0  0  0  0  0  0  0  0  0  0
    6.9795   -1.9882    0.0000 C   0  0  0  0  0  0  0  0  0  0  0  0
    8.1195   -1.3625    0.0000 C   0  0  0  0  0  0  0  0  0  0  0  0
    9.2457   -1.9882    0.0000 C   0  0  0  0  0  0  0  0  0  0  0  0
   10.4414   -1.3625    0.0000 C   0  0  0  0  0  0  0  0  0  0  0  0
   11.5815   -1.9882    0.0000 C   0  0  0  0  0  0  0  0  0  0  0  0
   12.7076   -1.3625    0.0000 C   0  0  0  0  0  0  0  0  0  0  0  0
   13.9033   -1.9882    0.0000 C   0  0  0  0  0  0  0  0  0  0  0  0
   12.7076    0.0000    0.0000 C   0  0  0  0  0  0  0  0  0  0  0  0
   12.7076   -2.6694    0.0000 C   0  0  0  0  0  0  0  0  0  0  0  0
    5.7838   -4.0181    0.0000 C   0  0  0  0  0  0  0  0  0  0  0  0
    5.7838   -5.3250    0.0000 C   0  0  0  0  0  0  0  0  0  0  0  0
    6.9378   -5.9923    0.0000 C   0  0  0  0  0  0  0  0  0  0  0  0
    6.9378   -7.3131    0.0000 C   0  0  0  0  0  0  0  0  0  0  0  0
    8.0778   -7.9805    0.0000 C   0  0  0  0  0  0  0  0  0  0  0  0
    8.0778   -9.3013    0.0000 C   0  0  0  0  0  0  0  0  0  0  0  0
    9.2457   -9.9826    0.0000 C   0  0  0  0  0  0  0  0  0  0  0  0
    9.2457  -11.3451    0.0000 C   0  0  0  0  0  0  0  0  0  0  0  0
   10.4414   -9.3013    0.0000 C   0  0  0  0  0  0  0  0  0  0  0  0
    8.1195  -10.6638    0.0000 C   0  0  0  0  0  0  0  0  0  0  0  0
  1  2  2  0  0  0  0
  1  3  1  0  0  0  0
  1  9  1  0  0  0  0
  2  4  1  0  0  0  0
  2 10  1  0  0  0  0
  3  5  2  0  0  0  0
  3  7  1  0  0  0  0
  4  6  2  0  0  0  0
  4  8  1  0  0  0  0
  7 13  1  0  0  0  0
  8 23  1  0  0  0  0
  9 11  2  0  0  0  0
 10 12  2  0  0  0  0
 11 12  1  0  0  0  0
 13 14  1  0  0  0  0
 14 15  1  0  0  0  0
 15 16  1  0  0  0  0
 16 17  1  0  0  0  0
 17 18  1  0  0  0  0
 18 19  1  0  0  0  0
 19 20  1  0  0  0  0
 19 21  1  0  0  0  0
 19 22  1  0  0  0  0
 23 24  1  0  0  0  0
 24 25  1  0  0  0  0
 25 26  1  0  0  0  0
 26 27  1  0  0  0  0
 27 28  1  0  0  0  0
 28 29  1  0  0  0  0
 29 30  1  0  0  0  0
 29 31  1  0  0  0  0
 29 32  1  0  0  0  0
M  END
> <ID>
4008

> <Formula>
C28H46O4

> <FW>
446.6624

> <DSSTox_CID>
5082

> <DSSTox_RID>
77657

> <DSSTox_GSID>
25082

> <DSSTox_FileID_Sort>
2340

> <TS_ChemName>
Diisodecyl phthalate

> <TS_ChemName_Synonyms>
Diisodecyl phthalate (1,2-Benzenedicarboxylic acid, diisodecyl ester)

> <TS_CASRN>
26761-40-0

> <CASRN_ChemName_Relationship>
primary

> <TS_Description>
mixture or formulation

> <ChemNote>
approx 80% dimethyl and 10% each of trimethyl and monomethyl alkyl chains; structure shown dimethyloctyl

> <STRUCTURE_Shown>
representative component

> <STRUCTURE_Formula>
C28H46O4

> <STRUCTURE_MW>
446.6624

> <STRUCTURE_ChemType>
defined organic

> <STRUCTURE_DefinedOrganicForm>
parent

> <STRUCTURE_IUPAC>
bis(7,7-dimethyloctyl) benzene-1,2-dicarboxylate

> <STRUCTURE_SMILES>
CC(C)(C)CCCCCCOC(=O)c1ccccc1C(=O)OCCCCCCC(C)(C)C

> <STRUCTURE_SMILES_Desalt>
CC(C)(C)CCCCCCOC(=O)c1ccccc1C(=O)OCCCCCCC(C)(C)C

> <Substance_modify_yyyymmdd>
20080429

$$$$
