26786-32-3
ChemmineR-0915142007XD

 31 33  0  0  0  0  0  0  0  0  1 V2000
   15.0175   -6.0670    0.0000 Cl   0  0  0  0  0  0  0  0  0  0  0  0
    0.5707   -0.1051    0.0000 C    0  0  0  0  0  0  0  0  0  0  0  0
    1.9072    0.0000    0.0000 C    0  0  0  0  0  0  0  0  0  0  0  0
    2.6431   -1.0963    0.0000 C    0  0  0  0  0  0  0  0  0  0  0  0
    2.0574   -2.3127    0.0000 C    0  0  0  0  0  0  0  0  0  0  0  0
    0.7509   -2.3878    0.0000 C    0  0  0  0  0  0  0  0  0  0  0  0
    0.0000   -1.2915    0.0000 C    0  0  0  0  0  0  0  0  0  0  0  0
    0.0000   -3.4991    0.0000 C    0  0  0  0  0  0  0  0  0  0  0  0
    0.4055   -4.7605    0.0000 C    0  0  0  0  0  0  0  0  0  0  0  0
    1.6219   -5.2411    0.0000 C    0  0  0  0  0  0  0  0  0  0  0  0
    2.7782   -4.5953    0.0000 C    0  0  0  0  0  0  0  0  0  0  0  0
    3.0035   -3.2588    0.0000 N    0  0  0  0  0  0  0  0  0  0  0  0
    4.2650   -2.8834    0.0000 C    0  0  0  0  0  0  0  0  0  0  0  0
    5.1960   -3.8144    0.0000 C    0  0  0  0  0  0  0  0  0  0  0  0
    6.4875   -3.4840    0.0000 C    0  0  0  0  0  0  0  0  0  0  0  0
    7.4336   -4.4151    0.0000 N    0  0  0  0  0  0  0  0  0  0  0  0
    7.0732   -5.6916    0.0000 C    0  0  0  0  0  0  0  0  0  0  0  0
    8.7101   -4.0697    0.0000 C    0  0  0  0  0  0  0  0  0  0  0  0
    9.6412   -5.0158    0.0000 C    0  0  0  0  0  0  0  0  0  0  0  0
    9.3108   -6.3073    0.0000 O    0  0  0  0  0  0  0  0  0  0  0  0
   10.9477   -4.6854    0.0000 C    0  0  0  0  0  0  0  0  0  0  0  0
   11.2931   -3.3939    0.0000 C    0  0  0  0  0  0  0  0  0  0  0  0
   12.5696   -3.0335    0.0000 C    0  0  0  0  0  0  0  0  0  0  0  0
   13.5157   -3.9796    0.0000 C    0  0  0  0  0  0  0  0  0  0  0  0
   14.7922   -3.6492    0.0000 Cl   0  0  0  0  0  0  0  0  0  0  0  0
   13.1703   -5.2711    0.0000 C    0  0  0  0  0  0  0  0  0  0  0  0
   11.8938   -5.6165    0.0000 C    0  0  0  0  0  0  0  0  0  0  0  0
    3.9346   -5.2411    0.0000 C    0  0  0  0  0  0  0  0  0  0  0  0
    3.9346   -6.5776    0.0000 C    0  0  0  0  0  0  0  0  0  0  0  0
    2.7782   -7.2534    0.0000 C    0  0  0  0  0  0  0  0  0  0  0  0
    1.6219   -6.5776    0.0000 C    0  0  0  0  0  0  0  0  0  0  0  0
  2  3  2  0  0  0  0
  2  7  1  0  0  0  0
  3  4  1  0  0  0  0
  4  5  2  0  0  0  0
  5  6  1  0  0  0  0
  5 12  1  0  0  0  0
  6  7  2  0  0  0  0
  6  8  1  0  0  0  0
  8  9  1  0  0  0  0
  9 10  1  0  0  0  0
 10 11  2  0  0  0  0
 10 31  1  0  0  0  0
 11 12  1  0  0  0  0
 11 28  1  0  0  0  0
 12 13  1  0  0  0  0
 13 14  1  0  0  0  0
 14 15  1  0  0  0  0
 15 16  1  0  0  0  0
 16 17  1  0  0  0  0
 16 18  1  0  0  0  0
 18 19  1  0  0  0  0
 19 20  2  0  0  0  0
 19 21  1  0  0  0  0
 21 22  2  0  0  0  0
 21 27  1  0  0  0  0
 22 23  1  0  0  0  0
 23 24  2  0  0  0  0
 24 25  1  0  0  0  0
 24 26  1  0  0  0  0
 26 27  2  0  0  0  0
 28 29  2  0  0  0  0
 29 30  1  0  0  0  0
 30 31  2  0  0  0  0
M  END
> <ID>
12913

> <Formula>
C26H28Cl2N2O

> <FW>
455.4193 (36.4609+418.9584)

> <DSSTox_CID>
27809

> <DSSTox_RID>
82576

> <DSSTox_GSID>
47833

> <DSSTox_FileID_Sort>
7253

> <TS_ChemName>
Lofepramine hydrochloride

> <TS_ChemName_Synonyms>


> <TS_CASRN>
26786-32-3

> <CASRN_ChemName_Relationship>
primary

> <TS_Description>
single chemical compound

> <ChemNote>
parent [23047-25-8]

> <STRUCTURE_Shown>
tested chemical

> <STRUCTURE_Formula>
C26H28Cl2N2O

> <STRUCTURE_MW>
455.4193

> <STRUCTURE_ChemType>
defined organic

> <STRUCTURE_DefinedOrganicForm>
complex

> <STRUCTURE_IUPAC>
1-(4-chlorophenyl)-2-{[3-(10,11-dihydro-5H-dibenzo[b,f]azepin-5-yl)propyl](methyl)amino}ethanone hydrochloride (1:1)

> <STRUCTURE_SMILES>
Cl.Clc1ccc(cc1)C(=O)CN(C)CCCN3c4ccccc4CCc2ccccc23

> <STRUCTURE_SMILES_Desalt>
Clc1ccc(cc1)C(=O)CN(C)CCCN3c4ccccc4CCc2ccccc23

> <Substance_modify_yyyymmdd>
20110808

$$$$
