26787-78-0
ChemmineR-0915142007XD

 27 29  0  0  1  0  0  0  0  0  1 V2000
    8.2578   -2.6675    0.0000 C   0  0  0  0  0  0  0  0  0  0  0  0
    9.5596   -3.9821    0.0000 N   0  0  0  0  0  0  0  0  0  0  0  0
    9.5596   -2.6675    0.0000 C   0  0  0  0  0  0  0  0  0  0  0  0
    8.2578   -3.9821    0.0000 C   0  0  0  0  0  0  0  0  0  0  0  0
   10.8487   -4.3905    0.0000 C   0  0  0  0  0  0  0  0  0  0  0  0
   11.6272   -3.3184    0.0000 C   0  0  0  0  0  0  0  0  0  0  0  0
   10.8487   -2.2463    0.0000 S   0  0  0  0  0  0  0  0  0  0  0  0
    9.5851   -1.3274    0.0000 H   0  0  0  0  0  0  0  0  0  0  0  0
    8.2322   -1.3274    0.0000 H   0  0  0  0  0  0  0  0  0  0  0  0
    6.9049   -2.6547    0.0000 N   0  0  0  0  0  0  0  0  0  0  0  0
   12.7632   -2.6547    0.0000 C   0  0  0  0  0  0  0  0  0  0  0  0
   12.7632   -3.9949    0.0000 C   0  0  0  0  0  0  0  0  0  0  0  0
   11.2444   -5.6541    0.0000 C   0  0  0  0  0  0  0  0  0  0  0  0
   12.5334   -5.9476    0.0000 O   0  0  0  0  0  0  0  0  0  0  0  0
   10.3509   -6.6496    0.0000 O   0  0  0  0  0  0  0  0  0  0  0  0
    7.2878   -4.9393    0.0000 O   0  0  0  0  0  0  0  0  0  0  0  0
    3.4588   -0.6382    0.0000 C   0  0  0  0  0  0  0  0  0  0  0  0
    3.4588   -1.9655    0.0000 C   0  0  0  0  0  0  0  0  0  0  0  0
    2.2974    0.0000    0.0000 C   0  0  0  0  0  0  0  0  0  0  0  0
    2.2974   -2.6547    0.0000 C   0  0  0  0  0  0  0  0  0  0  0  0
    1.1614   -0.6382    0.0000 C   0  0  0  0  0  0  0  0  0  0  0  0
    1.1614   -1.9655    0.0000 C   0  0  0  0  0  0  0  0  0  0  0  0
    0.0000    0.0000    0.0000 O   0  0  0  0  0  0  0  0  0  0  0  0
    4.6075   -2.6547    0.0000 C   0  0  0  0  0  0  0  0  0  0  0  0
    4.6075   -3.9821    0.0000 N   0  0  0  0  0  0  0  0  0  0  0  0
    5.7690   -1.9655    0.0000 C   0  0  0  0  0  0  0  0  0  0  0  0
    5.7690   -0.6382    0.0000 O   0  0  0  0  0  0  0  0  0  0  0  0
  1  3  1  0  0  0  0
  1  4  1  0  0  0  0
  1  9  1  6  0  0  0
  1 10  1  1  0  0  0
  2  4  1  0  0  0  0
  2  5  1  0  0  0  0
  2  3  1  0  0  0  0
  3  7  1  0  0  0  0
  3  8  1  6  0  0  0
  4 16  2  0  0  0  0
  5  6  1  0  0  0  0
  5 13  1  6  0  0  0
  6  7  1  0  0  0  0
  6 11  1  0  0  0  0
  6 12  1  0  0  0  0
 10 26  1  0  0  0  0
 13 14  2  0  0  0  0
 13 15  1  0  0  0  0
 17 18  1  0  0  0  0
 17 19  2  0  0  0  0
 18 20  2  0  0  0  0
 18 24  1  0  0  0  0
 19 21  1  0  0  0  0
 20 22  1  0  0  0  0
 21 22  2  0  0  0  0
 21 23  1  0  0  0  0
 24 25  1  6  0  0  0
 24 26  1  0  0  0  0
 26 27  2  0  0  0  0
M  END
> <ID>
7243

> <Formula>
C16H19N3O5S

> <FW>
365.4042

> <DSSTox_CID>
17044

> <DSSTox_RID>
79299

> <DSSTox_GSID>
37044

> <DSSTox_FileID_Sort>
3981

> <TS_ChemName>
Amoxicillin

> <TS_ChemName_Synonyms>


> <TS_CASRN>
26787-78-0

> <CASRN_ChemName_Relationship>
primary

> <TS_Description>
single chemical compound

> <ChemNote>
stereochem

> <STRUCTURE_Shown>
tested chemical

> <STRUCTURE_Formula>
C16H19N3O5S

> <STRUCTURE_MW>
365.4042

> <STRUCTURE_ChemType>
defined organic

> <STRUCTURE_DefinedOrganicForm>
parent

> <STRUCTURE_IUPAC>
(2S,5R,6R)-6-{[(2R)-2-amino-2-(4-hydroxyphenyl)acetyl]amino}-3,3-dimethyl-7-oxo-4-thia-1-azabicyclo[3.2.0]heptane-2-carboxylic acid

> <STRUCTURE_SMILES>
OC(=O)[C@@H]2N3C(=O)[C@@H](NC(=O)[C@H](N)c1ccc(O)cc1)[C@H]3SC2(C)C

> <STRUCTURE_SMILES_Desalt>
OC(=O)[C@@H]2N3C(=O)[C@@H](NC(=O)[C@H](N)c1ccc(O)cc1)[C@H]3SC2(C)C

> <Substance_modify_yyyymmdd>
20080429

$$$$
