26807-65-8
ChemmineR-0915142007XD

 24 26  0  0  0  0  0  0  0  0  1 V2000
   10.7161   -2.1836    0.0000 S    0  0  0  0  0  0  0  0  0  0  0  0
    3.8213   -2.1954    0.0000 N    0  0  0  0  0  0  0  0  0  0  0  0
    9.5531   -2.8481    0.0000 C    0  0  0  0  0  0  0  0  0  0  0  0
    4.9724   -2.8719    0.0000 N    0  0  0  0  0  0  0  0  0  0  0  0
    6.1116   -2.1954    0.0000 C    0  0  0  0  0  0  0  0  0  0  0  0
    2.6108   -2.7413    0.0000 C    0  0  0  0  0  0  0  0  0  0  0  0
    8.4020   -2.1836    0.0000 C    0  0  0  0  0  0  0  0  0  0  0  0
    3.6670   -0.8782    0.0000 C    0  0  0  0  0  0  0  0  0  0  0  0
    1.7208   -1.7682    0.0000 C    0  0  0  0  0  0  0  0  0  0  0  0
    7.2628   -2.8481    0.0000 C    0  0  0  0  0  0  0  0  0  0  0  0
    2.3735   -0.5934    0.0000 C    0  0  0  0  0  0  0  0  0  0  0  0
    9.5531   -4.1891    0.0000 C    0  0  0  0  0  0  0  0  0  0  0  0
   10.0397   -1.0206    0.0000 O    0  0  0  0  0  0  0  0  0  0  0  0
   11.3807   -3.3347    0.0000 O    0  0  0  0  0  0  0  0  0  0  0  0
   11.8673   -1.5190    0.0000 N    0  0  0  0  0  0  0  0  0  0  0  0
    6.1116   -0.8663    0.0000 O    0  0  0  0  0  0  0  0  0  0  0  0
    7.2628   -4.1891    0.0000 C    0  0  0  0  0  0  0  0  0  0  0  0
    8.4020   -4.8418    0.0000 C    0  0  0  0  0  0  0  0  0  0  0  0
   10.7161   -4.8418    0.0000 Cl   0  0  0  0  0  0  0  0  0  0  0  0
    2.1954   -4.0111    0.0000 C    0  0  0  0  0  0  0  0  0  0  0  0
    0.4154   -2.0412    0.0000 C    0  0  0  0  0  0  0  0  0  0  0  0
    4.6520    0.0000    0.0000 C    0  0  0  0  0  0  0  0  0  0  0  0
    0.9019   -4.2959    0.0000 C    0  0  0  0  0  0  0  0  0  0  0  0
    0.0000   -3.2991    0.0000 C    0  0  0  0  0  0  0  0  0  0  0  0
  1  3  1  0  0  0  0
  1 13  2  0  0  0  0
  1 14  2  0  0  0  0
  1 15  1  0  0  0  0
  2  4  1  0  0  0  0
  2  6  1  0  0  0  0
  2  8  1  0  0  0  0
  3  7  1  0  0  0  0
  3 12  2  0  0  0  0
  4  5  1  0  0  0  0
  5 10  1  0  0  0  0
  5 16  2  0  0  0  0
  6  9  2  0  0  0  0
  6 20  1  0  0  0  0
  7 10  2  0  0  0  0
  8 11  1  0  0  0  0
  8 22  1  0  0  0  0
  9 21  1  0  0  0  0
  9 11  1  0  0  0  0
 10 17  1  0  0  0  0
 12 18  1  0  0  0  0
 12 19  1  0  0  0  0
 17 18  2  0  0  0  0
 20 23  2  0  0  0  0
 21 24  2  0  0  0  0
 23 24  1  0  0  0  0
M  END
> <ID>
10287

> <Formula>
C16H16ClN3O3S

> <FW>
365.8345

> <DSSTox_CID>
24633

> <DSSTox_RID>
80366

> <DSSTox_GSID>
44633

> <DSSTox_FileID_Sort>
5048

> <TS_ChemName>
Indapamide

> <TS_ChemName_Synonyms>


> <TS_CASRN>
26807-65-8

> <CASRN_ChemName_Relationship>
primary

> <TS_Description>
single chemical compound

> <ChemNote>


> <STRUCTURE_Shown>
tested chemical

> <STRUCTURE_Formula>
C16H16ClN3O3S

> <STRUCTURE_MW>
365.8345

> <STRUCTURE_ChemType>
defined organic

> <STRUCTURE_DefinedOrganicForm>
parent

> <STRUCTURE_IUPAC>
4-chloro-N-(2-methyl-2,3-dihydro-1H-indol-1-yl)-3-sulfamoylbenzamide

> <STRUCTURE_SMILES>
NS(=O)(=O)c1cc(ccc1Cl)C(=O)NN2c3ccccc3CC2C

> <STRUCTURE_SMILES_Desalt>
NS(=O)(=O)c1cc(ccc1Cl)C(=O)NN2c3ccccc3CC2C

> <Substance_modify_yyyymmdd>
20091116

$$$$
