26833-87-4
ChemmineR-0915142007XD

 40 44  0  0  1  0  0  0  0  0  1 V2000
    6.9072   -2.5043    0.0000 C   0  0  0  0  0  0  0  0  0  0  0  0
    7.1984   -1.1997    0.0000 C   0  0  0  0  0  0  0  0  0  0  0  0
    7.7226   -3.5410    0.0000 C   0  0  0  0  0  0  0  0  0  0  0  0
    8.3982   -0.6290    0.0000 C   0  0  0  0  0  0  0  0  0  0  0  0
    9.0505   -3.5410    0.0000 C   0  0  0  0  0  0  0  0  0  0  0  0
    9.8891   -2.5043    0.0000 N   0  0  0  0  0  0  0  0  0  0  0  0
    9.5979   -1.1997    0.0000 C   0  0  0  0  0  0  0  0  0  0  0  0
    5.6260   -2.8887    0.0000 C   0  0  0  0  0  0  0  0  0  0  0  0
    4.6592   -1.9918    0.0000 C   0  0  0  0  0  0  0  0  0  0  0  0
    6.2317   -0.2912    0.0000 C   0  0  0  0  0  0  0  0  0  0  0  0
    4.9504   -0.6872    0.0000 C   0  0  0  0  0  0  0  0  0  0  0  0
    3.3313   -2.0966    0.0000 O   0  0  0  0  0  0  0  0  0  0  0  0
    2.8072   -0.8852    0.0000 C   0  0  0  0  0  0  0  0  0  0  0  0
    3.8089    0.0000    0.0000 O   0  0  0  0  0  0  0  0  0  0  0  0
    7.3266   -4.8106    0.0000 C   0  0  0  0  0  0  0  0  0  0  0  0
    8.3982   -5.5910    0.0000 C   0  0  0  0  0  0  0  0  0  0  0  0
    9.4698   -4.8106    0.0000 C   0  0  0  0  0  0  0  0  0  0  0  0
    9.7843   -4.6475    0.0000 C   0  0  0  0  0  0  0  0  0  0  0  0
   11.0656   -4.2981    0.0000 C   0  0  0  0  0  0  0  0  0  0  0  0
   11.1355   -2.9586    0.0000 C   0  0  0  0  0  0  0  0  0  0  0  0
    7.7226   -2.2131    0.0000 H   0  0  0  0  0  0  0  0  0  0  0  0
    8.3982   -6.9189    0.0000 O   0  0  0  0  0  0  0  0  0  0  0  0
    9.5513   -7.5828    0.0000 C   0  0  0  0  0  0  0  0  0  0  0  0
    6.0569   -5.2066    0.0000 O   0  0  0  0  0  0  0  0  0  0  0  0
    5.7657   -6.5229    0.0000 C   0  0  0  0  0  0  0  0  0  0  0  0
    4.5078   -6.9189    0.0000 C   0  0  0  0  0  0  0  0  0  0  0  0
    6.7558   -7.3965    0.0000 O   0  0  0  0  0  0  0  0  0  0  0  0
    3.5293   -6.0453    0.0000 C   0  0  0  0  0  0  0  0  0  0  0  0
    4.2282   -8.2235    0.0000 C   0  0  0  0  0  0  0  0  0  0  0  0
    5.4978   -7.8158    0.0000 O   0  0  0  0  0  0  0  0  0  0  0  0
    2.2597   -6.4413    0.0000 C   0  0  0  0  0  0  0  0  0  0  0  0
    1.2696   -5.5561    0.0000 O   0  0  0  0  0  0  0  0  0  0  0  0
    1.9918   -7.7343    0.0000 O   0  0  0  0  0  0  0  0  0  0  0  0
    0.0000   -5.9638    0.0000 C   0  0  0  0  0  0  0  0  0  0  0  0
    2.9586   -8.6311    0.0000 C   0  0  0  0  0  0  0  0  0  0  0  0
    2.6907   -9.9357    0.0000 C   0  0  0  0  0  0  0  0  0  0  0  0
    1.4211  -10.3550    0.0000 C   0  0  0  0  0  0  0  0  0  0  0  0
    1.1531  -11.6480    0.0000 O   0  0  0  0  0  0  0  0  0  0  0  0
    0.4310   -9.4581    0.0000 C   0  0  0  0  0  0  0  0  0  0  0  0
    2.4228  -11.2286    0.0000 C   0  0  0  0  0  0  0  0  0  0  0  0
  1  3  1  0  0  0  0
  1  8  1  0  0  0  0
  1  2  2  0  0  0  0
  2  4  1  0  0  0  0
  2 10  1  0  0  0  0
  3 15  1  0  0  0  0
  3  5  1  0  0  0  0
  3 21  1  6  0  0  0
  4  7  1  0  0  0  0
  5 17  1  0  0  0  0
 18  5  1  6  0  0  0
  5  6  1  0  0  0  0
  6  7  1  0  0  0  0
  6 20  1  0  0  0  0
  8  9  2  0  0  0  0
  9 12  1  0  0  0  0
  9 11  1  0  0  0  0
 10 11  2  0  0  0  0
 11 14  1  0  0  0  0
 12 13  1  0  0  0  0
 13 14  1  0  0  0  0
 15 16  1  0  0  0  0
 15 24  1  1  0  0  0
 16 17  2  0  0  0  0
 16 22  1  0  0  0  0
 18 19  1  0  0  0  0
 19 20  1  0  0  0  0
 22 23  1  0  0  0  0
 24 25  1  0  0  0  0
 25 26  1  0  0  0  0
 25 27  2  0  0  0  0
 26 28  1  0  0  0  0
 26 29  1  0  0  0  0
 26 30  1  6  0  0  0
 28 31  1  0  0  0  0
 29 35  1  0  0  0  0
 31 32  1  0  0  0  0
 31 33  2  0  0  0  0
 32 34  1  0  0  0  0
 35 36  1  0  0  0  0
 36 37  1  0  0  0  0
 37 38  1  0  0  0  0
 37 39  1  0  0  0  0
 37 40  1  0  0  0  0
M  END
> <ID>
11120

> <Formula>
C29H39NO9

> <FW>
545.6213

> <DSSTox_CID>
25678

> <DSSTox_RID>
81052

> <DSSTox_GSID>
45678

> <DSSTox_FileID_Sort>
5733

> <TS_ChemName>
Omacetaxine mepesuccinate

> <TS_ChemName_Synonyms>


> <TS_CASRN>
26833-87-4

> <CASRN_ChemName_Relationship>
primary

> <TS_Description>
single chemical compound

> <ChemNote>


> <STRUCTURE_Shown>
tested chemical

> <STRUCTURE_Formula>
C29H39NO9

> <STRUCTURE_MW>
545.6213

> <STRUCTURE_ChemType>
defined organic

> <STRUCTURE_DefinedOrganicForm>
parent

> <STRUCTURE_IUPAC>
O~3~-[(2R)-2,6-dihydroxy-2-(2-methoxy-2-oxoethyl)-6-methylheptanoyl]cephalotaxine

> <STRUCTURE_SMILES>
O=C(OC)C[C@](O)(CCCC(C)(C)O)C(=O)O[C@@H]2C(OC)=CC53CCCN5CCc1cc4OCOc4cc1[C@H]23

> <STRUCTURE_SMILES_Desalt>
O=C(OC)C[C@](O)(CCCC(C)(C)O)C(=O)O[C@@H]2C(OC)=CC53CCCN5CCc1cc4OCOc4cc1[C@H]23

> <Substance_modify_yyyymmdd>
20100107

$$$$
