26864-56-2
ChemmineR-0915142007XD

 36 39  0  0  0  0  0  0  0  0  1 V2000
    2.2542   -2.6728    0.0000 C    0  0  0  0  0  0  0  0  0  0  0  0
    2.2542   -1.3364    0.0000 C    0  0  0  0  0  0  0  0  0  0  0  0
    3.4296   -3.3329    0.0000 C    0  0  0  0  0  0  0  0  0  0  0  0
    4.5566   -5.3134    0.0000 C    0  0  0  0  0  0  0  0  0  0  0  0
    3.4296   -4.6693    0.0000 C    0  0  0  0  0  0  0  0  0  0  0  0
    6.8752   -6.6498    0.0000 N    0  0  0  0  0  0  0  0  0  0  0  0
    1.1271   -3.3329    0.0000 C    0  0  0  0  0  0  0  0  0  0  0  0
    4.5566   -6.6498    0.0000 C    0  0  0  0  0  0  0  0  0  0  0  0
    5.7320   -4.6693    0.0000 C    0  0  0  0  0  0  0  0  0  0  0  0
   11.4802   -6.6498    0.0000 C    0  0  0  0  0  0  0  0  0  0  0  0
   12.6072   -7.2938    0.0000 C    0  0  0  0  0  0  0  0  0  0  0  0
   11.4802   -5.3134    0.0000 C    0  0  0  0  0  0  0  0  0  0  0  0
    2.2542   -5.3134    0.0000 C    0  0  0  0  0  0  0  0  0  0  0  0
    2.2542    0.0000    0.0000 F    0  0  0  0  0  0  0  0  0  0  0  0
    3.5906   -1.3364    0.0000 F    0  0  0  0  0  0  0  0  0  0  0  0
    0.9017   -1.3364    0.0000 F    0  0  0  0  0  0  0  0  0  0  0  0
    1.1271   -4.6693    0.0000 C    0  0  0  0  0  0  0  0  0  0  0  0
    6.8752   -5.3134    0.0000 C    0  0  0  0  0  0  0  0  0  0  0  0
    5.7320   -7.2938    0.0000 C    0  0  0  0  0  0  0  0  0  0  0  0
   12.6072   -8.6463    0.0000 C    0  0  0  0  0  0  0  0  0  0  0  0
   12.6072   -4.6693    0.0000 C    0  0  0  0  0  0  0  0  0  0  0  0
   13.7826   -6.6498    0.0000 C    0  0  0  0  0  0  0  0  0  0  0  0
   10.3048   -4.6693    0.0000 C    0  0  0  0  0  0  0  0  0  0  0  0
    3.5423   -6.1668    0.0000 O    0  0  0  0  0  0  0  0  0  0  0  0
   11.4802   -2.6728    0.0000 C    0  0  0  0  0  0  0  0  0  0  0  0
   14.9258   -8.6463    0.0000 C    0  0  0  0  0  0  0  0  0  0  0  0
    0.0000   -2.6728    0.0000 Cl   0  0  0  0  0  0  0  0  0  0  0  0
   14.9258   -7.2938    0.0000 C    0  0  0  0  0  0  0  0  0  0  0  0
   12.6072   -3.3329    0.0000 C    0  0  0  0  0  0  0  0  0  0  0  0
   13.7826   -9.3387    0.0000 C    0  0  0  0  0  0  0  0  0  0  0  0
   10.3048   -3.3329    0.0000 C    0  0  0  0  0  0  0  0  0  0  0  0
   11.4802   -1.3364    0.0000 F    0  0  0  0  0  0  0  0  0  0  0  0
   16.1012   -9.3387    0.0000 F    0  0  0  0  0  0  0  0  0  0  0  0
    8.0506   -7.2938    0.0000 C    0  0  0  0  0  0  0  0  0  0  0  0
    9.1777   -6.6498    0.0000 C    0  0  0  0  0  0  0  0  0  0  0  0
   10.3048   -7.2938    0.0000 C    0  0  0  0  0  0  0  0  0  0  0  0
  1  2  1  0  0  0  0
  1  3  2  0  0  0  0
  1  7  1  0  0  0  0
  2 14  1  0  0  0  0
  2 15  1  0  0  0  0
  2 16  1  0  0  0  0
  3  5  1  0  0  0  0
  4  5  1  0  0  0  0
  4  8  1  0  0  0  0
  4  9  1  0  0  0  0
  4 24  1  0  0  0  0
  5 13  2  0  0  0  0
  6 18  1  0  0  0  0
  6 34  1  0  0  0  0
  6 19  1  0  0  0  0
  7 17  2  0  0  0  0
  7 27  1  0  0  0  0
  8 19  1  0  0  0  0
  9 18  1  0  0  0  0
 10 36  1  0  0  0  0
 10 11  1  0  0  0  0
 10 12  1  0  0  0  0
 11 20  1  0  0  0  0
 11 22  2  0  0  0  0
 12 21  1  0  0  0  0
 12 23  2  0  0  0  0
 13 17  1  0  0  0  0
 20 30  2  0  0  0  0
 21 29  2  0  0  0  0
 22 28  1  0  0  0  0
 23 31  1  0  0  0  0
 25 31  2  0  0  0  0
 25 32  1  0  0  0  0
 25 29  1  0  0  0  0
 26 28  2  0  0  0  0
 26 33  1  0  0  0  0
 26 30  1  0  0  0  0
 34 35  1  0  0  0  0
 35 36  1  0  0  0  0
M  END
> <ID>
14005

> <Formula>
C28H27ClF5NO

> <FW>
523.9651

> <DSSTox_CID>
28947

> <DSSTox_RID>
83212

> <DSSTox_GSID>
49021

> <DSSTox_FileID_Sort>
7888

> <TS_ChemName>
Penfluridol

> <TS_ChemName_Synonyms>


> <TS_CASRN>
26864-56-2

> <CASRN_ChemName_Relationship>
primary

> <TS_Description>
single chemical compound

> <ChemNote>


> <STRUCTURE_Shown>
tested chemical

> <STRUCTURE_Formula>
C28H27ClF5NO

> <STRUCTURE_MW>
523.9651

> <STRUCTURE_ChemType>
defined organic

> <STRUCTURE_DefinedOrganicForm>
parent

> <STRUCTURE_IUPAC>
1-[4,4-bis(4-fluorophenyl)butyl]-4-[4-chloro-3-(trifluoromethyl)phenyl]piperidin-4-ol

> <STRUCTURE_SMILES>
FC(F)(F)c1cc(ccc1Cl)C4(O)CCN(CCCC(c2ccc(F)cc2)c3ccc(F)cc3)CC4

> <STRUCTURE_SMILES_Desalt>
FC(F)(F)c1cc(ccc1Cl)C4(O)CCN(CCCC(c2ccc(F)cc2)c3ccc(F)cc3)CC4

> <Substance_modify_yyyymmdd>
20111204

$$$$
