2687-96-9
ChemmineR-0915142007XD

 18 18  0  0  0  0  0  0  0  0  1 V2000
    2.1601   -2.1131    0.0000 N   0  0  0  0  0  0  0  0  0  0  0  0
    1.0957   -1.3305    0.0000 C   0  0  0  0  0  0  0  0  0  0  0  0
    1.7375   -3.3810    0.0000 C   0  0  0  0  0  0  0  0  0  0  0  0
    0.0000   -2.1131    0.0000 C   0  0  0  0  0  0  0  0  0  0  0  0
    0.4226   -3.3810    0.0000 C   0  0  0  0  0  0  0  0  0  0  0  0
    1.0957    0.0000    0.0000 O   0  0  0  0  0  0  0  0  0  0  0  0
    3.4280   -1.6905    0.0000 C   0  0  0  0  0  0  0  0  0  0  0  0
    4.3984   -2.5984    0.0000 C   0  0  0  0  0  0  0  0  0  0  0  0
    5.6663   -2.1757    0.0000 C   0  0  0  0  0  0  0  0  0  0  0  0
   14.6823   -4.1010    0.0000 C   0  0  0  0  0  0  0  0  0  0  0  0
   13.4144   -4.4923    0.0000 C   0  0  0  0  0  0  0  0  0  0  0  0
   12.4126   -3.6158    0.0000 C   0  0  0  0  0  0  0  0  0  0  0  0
   11.1604   -4.0384    0.0000 C   0  0  0  0  0  0  0  0  0  0  0  0
   10.1743   -3.1306    0.0000 C   0  0  0  0  0  0  0  0  0  0  0  0
    8.9221   -3.5532    0.0000 C   0  0  0  0  0  0  0  0  0  0  0  0
    7.9203   -2.6610    0.0000 C   0  0  0  0  0  0  0  0  0  0  0  0
    6.6524   -3.0679    0.0000 C   0  0  0  0  0  0  0  0  0  0  0  0
   15.6528   -4.9776    0.0000 C   0  0  0  0  0  0  0  0  0  0  0  0
  1  2  1  0  0  0  0
  1  3  1  0  0  0  0
  1  7  1  0  0  0  0
  2  4  1  0  0  0  0
  2  6  2  0  0  0  0
  3  5  1  0  0  0  0
  4  5  1  0  0  0  0
  7  8  1  0  0  0  0
  8  9  1  0  0  0  0
  9 17  1  0  0  0  0
 10 11  1  0  0  0  0
 10 18  1  0  0  0  0
 11 12  1  0  0  0  0
 12 13  1  0  0  0  0
 13 14  1  0  0  0  0
 14 15  1  0  0  0  0
 15 16  1  0  0  0  0
 16 17  1  0  0  0  0
M  END
> <ID>
9136

> <Formula>
C16H31NO

> <FW>
253.4234

> <DSSTox_CID>
22206

> <DSSTox_RID>
79957

> <DSSTox_GSID>
42206

> <DSSTox_FileID_Sort>
4639

> <TS_ChemName>
1-Dodecyl-2-pyrrolidinone

> <TS_ChemName_Synonyms>
N-Lauryl-2-pyrrolidone

> <TS_CASRN>
2687-96-9

> <CASRN_ChemName_Relationship>
primary

> <TS_Description>
single chemical compound

> <ChemNote>


> <STRUCTURE_Shown>
tested chemical

> <STRUCTURE_Formula>
C16H31NO

> <STRUCTURE_MW>
253.4234

> <STRUCTURE_ChemType>
defined organic

> <STRUCTURE_DefinedOrganicForm>
parent

> <STRUCTURE_IUPAC>
1-dodecylpyrrolidin-2-one

> <STRUCTURE_SMILES>
O=C1CCCN1CCCCCCCCCCCC

> <STRUCTURE_SMILES_Desalt>
O=C1CCCN1CCCCCCCCCCCC

> <Substance_modify_yyyymmdd>
20080825

$$$$
