2687-94-7
ChemmineR-0915142007XD

 14 14  0  0  0  0  0  0  0  0  1 V2000
    9.2266   -2.2216    0.0000 N   0  0  0  0  0  0  0  0  0  0  0  0
    9.3740   -0.8841    0.0000 C   0  0  0  0  0  0  0  0  0  0  0  0
   10.4508   -2.7544    0.0000 C   0  0  0  0  0  0  0  0  0  0  0  0
   10.6775   -0.6121    0.0000 C   0  0  0  0  0  0  0  0  0  0  0  0
   11.3349   -1.7682    0.0000 C   0  0  0  0  0  0  0  0  0  0  0  0
    8.3765    0.0000    0.0000 O   0  0  0  0  0  0  0  0  0  0  0  0
    8.0705   -2.8791    0.0000 C   0  0  0  0  0  0  0  0  0  0  0  0
    6.9143   -2.2216    0.0000 C   0  0  0  0  0  0  0  0  0  0  0  0
    5.7581   -2.8791    0.0000 C   0  0  0  0  0  0  0  0  0  0  0  0
    4.6133   -2.2216    0.0000 C   0  0  0  0  0  0  0  0  0  0  0  0
    3.4685   -2.8791    0.0000 C   0  0  0  0  0  0  0  0  0  0  0  0
    2.3123   -2.2216    0.0000 C   0  0  0  0  0  0  0  0  0  0  0  0
    1.1562   -2.8791    0.0000 C   0  0  0  0  0  0  0  0  0  0  0  0
    0.0000   -2.2216    0.0000 C   0  0  0  0  0  0  0  0  0  0  0  0
  1  2  1  0  0  0  0
  1  3  1  0  0  0  0
  1  7  1  0  0  0  0
  2  4  1  0  0  0  0
  2  6  2  0  0  0  0
  3  5  1  0  0  0  0
  4  5  1  0  0  0  0
  7  8  1  0  0  0  0
  8  9  1  0  0  0  0
  9 10  1  0  0  0  0
 10 11  1  0  0  0  0
 11 12  1  0  0  0  0
 12 13  1  0  0  0  0
 13 14  1  0  0  0  0
M  END
> <ID>
7116

> <Formula>
C12H23NO

> <FW>
197.3171

> <DSSTox_CID>
16435

> <DSSTox_RID>
79280

> <DSSTox_GSID>
36435

> <DSSTox_FileID_Sort>
3962

> <TS_ChemName>
N-Octyl-2-pyrrolidone

> <TS_ChemName_Synonyms>
1-Octyl-2-pyrrolidone

> <TS_CASRN>
2687-94-7

> <CASRN_ChemName_Relationship>
primary

> <TS_Description>
single chemical compound

> <ChemNote>


> <STRUCTURE_Shown>
tested chemical

> <STRUCTURE_Formula>
C12H23NO

> <STRUCTURE_MW>
197.3171

> <STRUCTURE_ChemType>
defined organic

> <STRUCTURE_DefinedOrganicForm>
parent

> <STRUCTURE_IUPAC>
1-octylpyrrolidin-2-one

> <STRUCTURE_SMILES>
O=C1CCCN1CCCCCCCC

> <STRUCTURE_SMILES_Desalt>
O=C1CCCN1CCCCCCCC

> <Substance_modify_yyyymmdd>
20080429

$$$$
