2687-91-4
ChemmineR-0915142007XD

  8  8  0  0  0  0  0  0  0  0  1 V2000
    4.4107   -2.5979    0.0000 C   0  0  0  0  0  0  0  0  0  0  0  0
    3.4315   -1.7025    0.0000 C   0  0  0  0  0  0  0  0  0  0  0  0
    2.1656   -2.1171    0.0000 N   0  0  0  0  0  0  0  0  0  0  0  0
    1.7466   -3.3697    0.0000 C   0  0  0  0  0  0  0  0  0  0  0  0
    0.4190   -3.3697    0.0000 C   0  0  0  0  0  0  0  0  0  0  0  0
    0.0000   -2.1039    0.0000 C   0  0  0  0  0  0  0  0  0  0  0  0
    1.0894   -1.3320    0.0000 C   0  0  0  0  0  0  0  0  0  0  0  0
    1.0894    0.0000    0.0000 O   0  0  0  0  0  0  0  0  0  0  0  0
  1  2  1  0  0  0  0
  2  3  1  0  0  0  0
  3  4  1  0  0  0  0
  3  7  1  0  0  0  0
  4  5  1  0  0  0  0
  5  6  1  0  0  0  0
  6  7  1  0  0  0  0
  7  8  2  0  0  0  0
M  END
> <ID>
10070

> <Formula>
C6H11NO

> <FW>
113.1576

> <DSSTox_CID>
24413

> <DSSTox_RID>
80212

> <DSSTox_GSID>
44413

> <DSSTox_FileID_Sort>
4894

> <TS_ChemName>
1-Ethyl-2-pyrrolidinone

> <TS_ChemName_Synonyms>
2-Pyrrolidinone, 1-ethyl-

> <TS_CASRN>
2687-91-4

> <CASRN_ChemName_Relationship>
primary

> <TS_Description>
single chemical compound

> <ChemNote>


> <STRUCTURE_Shown>
tested chemical

> <STRUCTURE_Formula>
C6H11NO

> <STRUCTURE_MW>
113.1576

> <STRUCTURE_ChemType>
defined organic

> <STRUCTURE_DefinedOrganicForm>
parent

> <STRUCTURE_IUPAC>
1-ethylpyrrolidin-2-one

> <STRUCTURE_SMILES>
O=C1CCCN1CC

> <STRUCTURE_SMILES_Desalt>
O=C1CCCN1CC

> <Substance_modify_yyyymmdd>
20091116

$$$$
