26921-17-5
ChemmineR-0915142007XD

 29 29  0  0  1  0  0  0  0  0  1 V2000
    2.7855   -2.0562    0.0000 C   0  0  0  0  0  0  0  0  0  0  0  0
    4.1244   -2.0562    0.0000 C   0  0  0  0  0  0  0  0  0  0  0  0
    2.3670   -0.7771    0.0000 N   0  0  0  0  0  0  0  0  0  0  0  0
    4.5428   -0.8010    0.0000 N   0  0  0  0  0  0  0  0  0  0  0  0
    3.4549    0.0000    0.0000 S   0  0  0  0  0  0  0  0  0  0  0  0
    1.9845   -3.0724    0.0000 N   0  0  0  0  0  0  0  0  0  0  0  0
    4.8775   -3.1919    0.0000 O   0  0  0  0  0  0  0  0  0  0  0  0
    8.8346   -5.4872    0.0000 N   0  0  0  0  0  0  0  0  0  0  0  0
   10.1615   -5.4872    0.0000 C   0  0  0  0  0  0  0  0  0  0  0  0
    0.6695   -5.4035    0.0000 O   0  0  0  0  0  0  0  0  0  0  0  0
    6.8620   -4.3396    0.0000 C   0  0  0  0  0  0  0  0  0  0  0  0
    6.2045   -3.1919    0.0000 C   0  0  0  0  0  0  0  0  0  0  0  0
    8.1770   -4.3396    0.0000 C   0  0  0  0  0  0  0  0  0  0  0  0
    0.6695   -3.0724    0.0000 C   0  0  0  0  0  0  0  0  0  0  0  0
    2.6540   -4.2678    0.0000 C   0  0  0  0  0  0  0  0  0  0  0  0
    6.2045   -5.4872    0.0000 O   0  0  0  0  0  0  0  0  0  0  0  0
    1.9845   -5.4035    0.0000 C   0  0  0  0  0  0  0  0  0  0  0  0
    0.0000   -4.2559    0.0000 C   0  0  0  0  0  0  0  0  0  0  0  0
   10.1615   -6.8142    0.0000 C   0  0  0  0  0  0  0  0  0  0  0  0
   10.1615   -4.1603    0.0000 C   0  0  0  0  0  0  0  0  0  0  0  0
   11.4885   -5.4872    0.0000 C   0  0  0  0  0  0  0  0  0  0  0  0
   10.6158   -1.1835    0.0000 C   0  0  0  0  0  0  0  0  0  0  0  0
    7.9380   -1.2792    0.0000 C   0  0  0  0  0  0  0  0  0  0  0  0
    8.6194   -0.0478    0.0000 C   0  0  0  0  0  0  0  0  0  0  0  0
    9.9583   -0.0478    0.0000 C   0  0  0  0  0  0  0  0  0  0  0  0
    9.9464   -2.3192    0.0000 O   0  0  0  0  0  0  0  0  0  0  0  0
    8.6313   -2.3192    0.0000 O   0  0  0  0  0  0  0  0  0  0  0  0
   11.9547   -1.1835    0.0000 O   0  0  0  0  0  0  0  0  0  0  0  0
    6.6110   -1.2792    0.0000 O   0  0  0  0  0  0  0  0  0  0  0  0
  1  2  1  0  0  0  0
  1  3  2  0  0  0  0
  1  6  1  0  0  0  0
  2  4  2  0  0  0  0
  2  7  1  0  0  0  0
  3  5  1  0  0  0  0
  4  5  1  0  0  0  0
  6 14  1  0  0  0  0
  6 15  1  0  0  0  0
  7 12  1  0  0  0  0
  8 13  1  0  0  0  0
  8  9  1  0  0  0  0
  9 19  1  0  0  0  0
  9 20  1  0  0  0  0
  9 21  1  0  0  0  0
 10 17  1  0  0  0  0
 10 18  1  0  0  0  0
 11 12  1  0  0  0  0
 11 13  1  0  0  0  0
 11 16  1  6  0  0  0
 14 18  1  0  0  0  0
 15 17  1  0  0  0  0
 22 25  1  0  0  0  0
 22 26  2  0  0  0  0
 22 28  1  0  0  0  0
 23 24  1  0  0  0  0
 23 27  2  0  0  0  0
 23 29  1  0  0  0  0
 24 25  2  0  0  0  0
M  END
> <ID>
12631

> <Formula>
C17H28N4O7S

> <FW>
432.4918 (316.4197+116.0722)

> <DSSTox_CID>
27504

> <DSSTox_RID>
82384

> <DSSTox_GSID>
47504

> <DSSTox_FileID_Sort>
7065

> <TS_ChemName>
Timolol maleate salt

> <TS_ChemName_Synonyms>


> <TS_CASRN>
26921-17-5

> <CASRN_ChemName_Relationship>
primary

> <TS_Description>
single chemical compound

> <ChemNote>
stereochem; parent [26839-75-8]

> <STRUCTURE_Shown>
tested chemical

> <STRUCTURE_Formula>
C17H28N4O7S

> <STRUCTURE_MW>
432.4918

> <STRUCTURE_ChemType>
defined organic

> <STRUCTURE_DefinedOrganicForm>
complex

> <STRUCTURE_IUPAC>
(2S)-1-(tert-butylamino)-3-{[4-(morpholin-4-yl)-1,2,5-thiadiazol-3-yl]oxy}propan-2-ol (2Z)-but-2-enedioate (1:1)

> <STRUCTURE_SMILES>
O[C@H](COc1nsnc1N2CCOCC2)CNC(C)(C)C.O=C(O)/C=C\C(=O)O

> <STRUCTURE_SMILES_Desalt>
O[C@H](COc1nsnc1N2CCOCC2)CNC(C)(C)C

> <Substance_modify_yyyymmdd>
20100704

$$$$
