2694-54-4
ChemmineR-0915142007XD

 24 24  0  0  0  0  0  0  0  0  1 V2000
    8.0600   -5.9760    0.0000 C   0  0  0  0  0  0  0  0  0  0  0  0
    6.9007   -6.6523    0.0000 C   0  0  0  0  0  0  0  0  0  0  0  0
    5.7414   -5.9760    0.0000 C   0  0  0  0  0  0  0  0  0  0  0  0
    5.7414   -4.6511    0.0000 C   0  0  0  0  0  0  0  0  0  0  0  0
    6.9007   -3.9886    0.0000 C   0  0  0  0  0  0  0  0  0  0  0  0
    8.0600   -4.6511    0.0000 C   0  0  0  0  0  0  0  0  0  0  0  0
    9.2056   -6.6523    0.0000 C   0  0  0  0  0  0  0  0  0  0  0  0
    9.2056   -7.9772    0.0000 O   0  0  0  0  0  0  0  0  0  0  0  0
   10.3649   -5.9760    0.0000 O   0  0  0  0  0  0  0  0  0  0  0  0
    9.2056   -3.9886    0.0000 C   0  0  0  0  0  0  0  0  0  0  0  0
   10.3649   -4.6511    0.0000 O   0  0  0  0  0  0  0  0  0  0  0  0
    9.2056   -2.6637    0.0000 O   0  0  0  0  0  0  0  0  0  0  0  0
    4.5959   -3.9886    0.0000 C   0  0  0  0  0  0  0  0  0  0  0  0
    4.5959   -2.6637    0.0000 O   0  0  0  0  0  0  0  0  0  0  0  0
    3.4366   -4.6511    0.0000 O   0  0  0  0  0  0  0  0  0  0  0  0
   11.5104   -6.6523    0.0000 C   0  0  0  0  0  0  0  0  0  0  0  0
   12.6421   -5.9760    0.0000 C   0  0  0  0  0  0  0  0  0  0  0  0
   13.8014   -6.6523    0.0000 C   0  0  0  0  0  0  0  0  0  0  0  0
    2.2910   -3.9886    0.0000 C   0  0  0  0  0  0  0  0  0  0  0  0
    1.1593   -4.6511    0.0000 C   0  0  0  0  0  0  0  0  0  0  0  0
    0.0000   -3.9886    0.0000 C   0  0  0  0  0  0  0  0  0  0  0  0
   10.3649   -1.9874    0.0000 C   0  0  0  0  0  0  0  0  0  0  0  0
   10.3649   -0.6625    0.0000 C   0  0  0  0  0  0  0  0  0  0  0  0
   11.5104    0.0000    0.0000 C   0  0  0  0  0  0  0  0  0  0  0  0
  1  2  2  0  0  0  0
  1  6  1  0  0  0  0
  1  7  1  0  0  0  0
  2  3  1  0  0  0  0
  3  4  2  0  0  0  0
  4  5  1  0  0  0  0
  4 13  1  0  0  0  0
  5  6  2  0  0  0  0
  6 10  1  0  0  0  0
  7  8  2  0  0  0  0
  7  9  1  0  0  0  0
  9 16  1  0  0  0  0
 10 11  2  0  0  0  0
 10 12  1  0  0  0  0
 12 22  1  0  0  0  0
 13 14  2  0  0  0  0
 13 15  1  0  0  0  0
 15 19  1  0  0  0  0
 16 17  1  0  0  0  0
 17 18  2  0  0  0  0
 19 20  1  0  0  0  0
 20 21  2  0  0  0  0
 22 23  1  0  0  0  0
 23 24  2  0  0  0  0
M  END
> <ID>
10548

> <Formula>
C18H18O6

> <FW>
330.3319

> <DSSTox_CID>
24901

> <DSSTox_RID>
80572

> <DSSTox_GSID>
44901

> <DSSTox_FileID_Sort>
5254

> <TS_ChemName>
Triprop-2-en-1-yl benzene-1,2,4-tricarboxylate

> <TS_ChemName_Synonyms>
Triprop-2-en-1-yl benzene-1,2,4-tricarboxylate (1,2,4-Benzenetricarboxylic acid, tri-2-propenyl ester)

> <TS_CASRN>
2694-54-4

> <CASRN_ChemName_Relationship>
primary

> <TS_Description>
single chemical compound

> <ChemNote>


> <STRUCTURE_Shown>
tested chemical

> <STRUCTURE_Formula>
C18H18O6

> <STRUCTURE_MW>
330.3319

> <STRUCTURE_ChemType>
defined organic

> <STRUCTURE_DefinedOrganicForm>
parent

> <STRUCTURE_IUPAC>
triprop-2-en-1-yl benzene-1,2,4-tricarboxylate

> <STRUCTURE_SMILES>
O=C(OCC=C)c1cc(C(=O)OCC=C)c(cc1)C(=O)OCC=C

> <STRUCTURE_SMILES_Desalt>
O=C(OCC=C)c1cc(C(=O)OCC=C)c(cc1)C(=O)OCC=C

> <Substance_modify_yyyymmdd>
20091116

$$$$
