2695-37-6
ChemmineR-0915142007XD

 13 12  0  0  0  0  0  0  0  0  2 V2000
    4.6716   -1.4741    0.0000 C    0  0  0  0  0  0  0  0  0  0  0  0
    3.9969   -2.6181    0.0000 C    0  0  0  0  0  0  0  0  0  0  0  0
    2.6621   -2.6181    0.0000 C    0  0  0  0  0  0  0  0  0  0  0  0
    2.0094   -1.4741    0.0000 C    0  0  0  0  0  0  0  0  0  0  0  0
    2.6621   -0.3227    0.0000 C    0  0  0  0  0  0  0  0  0  0  0  0
    3.9969   -0.3227    0.0000 C    0  0  0  0  0  0  0  0  0  0  0  0
    5.9990   -1.4741    0.0000 S    0  0  0  0  0  0  0  0  0  0  0  0
    5.9990   -2.8088    0.0000 O    0  0  0  0  0  0  0  0  0  0  0  0
    5.9990   -0.1467    0.0000 O    0  5  0  0  0  0  0  0  0  0  0  0
    7.3337   -1.4741    0.0000 O    0  0  0  0  0  0  0  0  0  0  0  0
    0.6747   -1.4741    0.0000 C    0  0  0  0  0  0  0  0  0  0  0  0
    0.0000   -2.6181    0.0000 C    0  0  0  0  0  0  0  0  0  0  0  0
    7.2824    0.0000    0.0000 Na   0  3  0  0  0  0  0  0  0  0  0  0
  1  2  2  0  0  0  0
  1  6  1  0  0  0  0
  1  7  1  0  0  0  0
  2  3  1  0  0  0  0
  3  4  2  0  0  0  0
  4  5  1  0  0  0  0
  4 11  1  0  0  0  0
  5  6  2  0  0  0  0
  7  8  2  0  0  0  0
  7  9  1  0  0  0  0
  7 10  2  0  0  0  0
 11 12  2  0  0  0  0
M  END
> <ID>
10288

> <Formula>
C8H7NaO3S

> <FW>
206.1941 (183.2049+22.9892)

> <DSSTox_CID>
24635

> <DSSTox_RID>
80367

> <DSSTox_GSID>
44635

> <DSSTox_FileID_Sort>
5049

> <TS_ChemName>
Sodium 4-vinylbenzenesulfonate

> <TS_ChemName_Synonyms>
Benzenesulfonic acid, 4-ethenyl-, sodium salt

> <TS_CASRN>
2695-37-6

> <CASRN_ChemName_Relationship>
primary

> <TS_Description>
single chemical compound

> <ChemNote>
parent [98-70-4]

> <STRUCTURE_Shown>
tested chemical

> <STRUCTURE_Formula>
C8H7NaO3S

> <STRUCTURE_MW>
206.1941

> <STRUCTURE_ChemType>
defined organic

> <STRUCTURE_DefinedOrganicForm>
salt

> <STRUCTURE_IUPAC>
sodium 4-ethenylbenzenesulfonate

> <STRUCTURE_SMILES>
[Na+].O=S([O-])(=O)c1ccc(C=C)cc1

> <STRUCTURE_SMILES_Desalt>
OS(=O)(=O)c1ccc(C=C)cc1

> <Substance_modify_yyyymmdd>
20091116

$$$$
