2696-84-6
ChemmineR-0915142007XD

 10 10  0  0  0  0  0  0  0  0  1 V2000
    0.0000   -1.1564    0.0000 N   0  0  0  0  0  0  0  0  0  0  0  0
    1.3320   -1.1564    0.0000 C   0  0  0  0  0  0  0  0  0  0  0  0
    1.9981    0.0000    0.0000 C   0  0  0  0  0  0  0  0  0  0  0  0
    1.9981   -2.2981    0.0000 C   0  0  0  0  0  0  0  0  0  0  0  0
    3.3301    0.0000    0.0000 C   0  0  0  0  0  0  0  0  0  0  0  0
    3.3301   -2.2981    0.0000 C   0  0  0  0  0  0  0  0  0  0  0  0
    3.9888   -1.1564    0.0000 C   0  0  0  0  0  0  0  0  0  0  0  0
    5.3209   -1.1564    0.0000 C   0  0  0  0  0  0  0  0  0  0  0  0
    5.9869    0.0000    0.0000 C   0  0  0  0  0  0  0  0  0  0  0  0
    7.3189    0.0000    0.0000 C   0  0  0  0  0  0  0  0  0  0  0  0
  1  2  1  0  0  0  0
  2  3  2  0  0  0  0
  2  4  1  0  0  0  0
  3  5  1  0  0  0  0
  4  6  2  0  0  0  0
  5  7  2  0  0  0  0
  6  7  1  0  0  0  0
  7  8  1  0  0  0  0
  8  9  1  0  0  0  0
  9 10  1  0  0  0  0
M  END
> <ID>
13241

> <Formula>
C9H13N

> <FW>
135.2062

> <DSSTox_CID>
28154

> <DSSTox_RID>
82716

> <DSSTox_GSID>
48180

> <DSSTox_FileID_Sort>
7393

> <TS_ChemName>
4-Propylaniline

> <TS_ChemName_Synonyms>


> <TS_CASRN>
2696-84-6

> <CASRN_ChemName_Relationship>
primary

> <TS_Description>
single chemical compound

> <ChemNote>


> <STRUCTURE_Shown>
tested chemical

> <STRUCTURE_Formula>
C9H13N

> <STRUCTURE_MW>
135.2062

> <STRUCTURE_ChemType>
defined organic

> <STRUCTURE_DefinedOrganicForm>
parent

> <STRUCTURE_IUPAC>
4-propylaniline

> <STRUCTURE_SMILES>
Nc1ccc(CCC)cc1

> <STRUCTURE_SMILES_Desalt>
Nc1ccc(CCC)cc1

> <Substance_modify_yyyymmdd>
20110617

$$$$
