26982-21-8
ChemmineR-0915142007XD

 10  8  0  0  1  0  0  0  0  0  1 V2000
    5.7751   -1.3295    0.0000 C    0  0  0  0  0  0  0  0  0  0  0  0
    6.9245   -2.0081    0.0000 O    0  0  0  0  0  0  0  0  0  0  0  0
    4.6256   -1.9943    0.0000 C    0  0  0  0  0  0  0  0  0  0  0  0
    5.7751    0.0000    0.0000 O    0  0  0  0  0  0  0  0  0  0  0  0
    4.6256   -3.3030    0.0000 N    0  0  0  0  0  0  0  0  0  0  0  0
    0.0000   -1.9458    0.0000 N    0  0  0  0  0  0  0  0  0  0  0  0
    1.1633   -1.2810    0.0000 C    0  0  0  0  0  0  0  0  0  0  0  0
    3.4623   -1.3157    0.0000 C    0  0  0  0  0  0  0  0  0  0  0  0
    2.3128   -1.9596    0.0000 C    0  0  0  0  0  0  0  0  0  0  0  0
    2.3266   -0.2147    0.0000 Cl   0  0  0  0  0  0  0  0  0  0  0  0
  1  2  2  0  0  0  0
  1  3  1  0  0  0  0
  1  4  1  0  0  0  0
  3  5  1  1  0  0  0
  3  8  1  0  0  0  0
  6  7  1  0  0  0  0
  7  9  1  0  0  0  0
  8  9  1  0  0  0  0
M  END
> <ID>
14004

> <Formula>
C5H13ClN2O2

> <FW>
168.6219 (132.1610+36.4609)

> <DSSTox_CID>
28946

> <DSSTox_RID>
83211

> <DSSTox_GSID>
49020

> <DSSTox_FileID_Sort>
7887

> <TS_ChemName>
Poly-L-ornithine hydrochloride

> <TS_ChemName_Synonyms>


> <TS_CASRN>
26982-21-8

> <CASRN_ChemName_Relationship>
primary

> <TS_Description>
polymer

> <ChemNote>


> <STRUCTURE_Shown>
monomer of polymer

> <STRUCTURE_Formula>
C5H13ClN2O2

> <STRUCTURE_MW>
168.6219

> <STRUCTURE_ChemType>
defined organic

> <STRUCTURE_DefinedOrganicForm>
complex

> <STRUCTURE_IUPAC>
L-ornithine hydrochloride (1:1)

> <STRUCTURE_SMILES>
Cl.NCCC[C@H](N)C(=O)O

> <STRUCTURE_SMILES_Desalt>
NCCC[C@H](N)C(=O)O

> <Substance_modify_yyyymmdd>
20111204

$$$$
