27025-41-8
ChemmineR-0915142007XD

 40 39  0  0  1  0  0  0  0  0  1 V2000
    8.0625   -7.3078    0.0000 C   0  0  0  0  0  0  0  0  0  0  0  0
    9.2038   -7.9705    0.0000 C   0  0  0  0  0  0  0  0  0  0  0  0
    6.9028   -7.9705    0.0000 N   0  0  0  0  0  0  0  0  0  0  0  0
    1.1413   -7.3078    0.0000 C   0  0  0  0  0  0  0  0  0  0  0  0
    5.7432   -7.3078    0.0000 C   0  0  0  0  0  0  0  0  0  0  0  0
   10.3635   -7.3078    0.0000 N   0  0  0  0  0  0  0  0  0  0  0  0
   12.6644   -7.3078    0.0000 C   0  0  0  0  0  0  0  0  0  0  0  0
    9.2038   -9.2958    0.0000 O   0  0  0  0  0  0  0  0  0  0  0  0
    1.1413   -5.9825    0.0000 O   0  0  0  0  0  0  0  0  0  0  0  0
    2.3009   -7.9705    0.0000 C   0  0  0  0  0  0  0  0  0  0  0  0
    5.7432   -5.9825    0.0000 O   0  0  0  0  0  0  0  0  0  0  0  0
   13.8057   -7.9705    0.0000 O   0  0  0  0  0  0  0  0  0  0  0  0
    8.0625   -5.9825    0.0000 C   0  0  0  0  0  0  0  0  0  0  0  0
   11.5047   -7.9705    0.0000 C   0  0  0  0  0  0  0  0  0  0  0  0
    3.4422   -7.3078    0.0000 C   0  0  0  0  0  0  0  0  0  0  0  0
    9.2038   -5.3198    0.0000 S   0  0  0  0  0  0  0  0  0  0  0  0
    4.6019   -7.9705    0.0000 C   0  0  0  0  0  0  0  0  0  0  0  0
    0.0000   -7.9705    0.0000 O   0  0  0  0  0  0  0  0  0  0  0  0
    2.3009   -9.2958    0.0000 N   0  0  0  0  0  0  0  0  0  0  0  0
   12.6644   -5.9825    0.0000 O   0  0  0  0  0  0  0  0  0  0  0  0
   10.3635   -2.0064    0.0000 C   0  0  0  0  0  0  0  0  0  0  0  0
    9.2038   -1.3253    0.0000 C   0  0  0  0  0  0  0  0  0  0  0  0
   11.5047   -1.3253    0.0000 N   0  0  0  0  0  0  0  0  0  0  0  0
   17.2663   -2.0064    0.0000 C   0  0  0  0  0  0  0  0  0  0  0  0
   12.6644   -2.0064    0.0000 C   0  0  0  0  0  0  0  0  0  0  0  0
    8.0625   -2.0064    0.0000 N   0  0  0  0  0  0  0  0  0  0  0  0
    5.7432   -2.0064    0.0000 C   0  0  0  0  0  0  0  0  0  0  0  0
    9.2038    0.0000    0.0000 O   0  0  0  0  0  0  0  0  0  0  0  0
   17.2663   -3.3318    0.0000 O   0  0  0  0  0  0  0  0  0  0  0  0
   16.1066   -1.3253    0.0000 C   0  0  0  0  0  0  0  0  0  0  0  0
   12.6644   -3.3318    0.0000 O   0  0  0  0  0  0  0  0  0  0  0  0
    4.6019   -1.3253    0.0000 O   0  0  0  0  0  0  0  0  0  0  0  0
   10.3635   -3.3318    0.0000 C   0  0  0  0  0  0  0  0  0  0  0  0
    6.9028   -1.3253    0.0000 C   0  0  0  0  0  0  0  0  0  0  0  0
   14.9653   -2.0064    0.0000 C   0  0  0  0  0  0  0  0  0  0  0  0
    9.2038   -3.9760    0.0000 S   0  0  0  0  0  0  0  0  0  0  0  0
   13.8057   -1.3253    0.0000 C   0  0  0  0  0  0  0  0  0  0  0  0
   18.4076   -1.3253    0.0000 O   0  0  0  0  0  0  0  0  0  0  0  0
   16.1066    0.0000    0.0000 N   0  0  0  0  0  0  0  0  0  0  0  0
    5.7432   -3.3318    0.0000 O   0  0  0  0  0  0  0  0  0  0  0  0
  1 13  1  1  0  0  0
  1  2  1  0  0  0  0
  1  3  1  0  0  0  0
  2  6  1  0  0  0  0
  2  8  2  0  0  0  0
  3  5  1  0  0  0  0
  4 10  1  0  0  0  0
  4  9  2  0  0  0  0
  4 18  1  0  0  0  0
  5 11  2  0  0  0  0
  5 17  1  0  0  0  0
  6 14  1  0  0  0  0
  7 14  1  0  0  0  0
  7 12  2  0  0  0  0
  7 20  1  0  0  0  0
 10 15  1  0  0  0  0
 10 19  1  6  0  0  0
 13 16  1  0  0  0  0
 15 17  1  0  0  0  0
 16 36  1  0  0  0  0
 21 33  1  1  0  0  0
 21 22  1  0  0  0  0
 21 23  1  0  0  0  0
 22 26  1  0  0  0  0
 22 28  2  0  0  0  0
 23 25  1  0  0  0  0
 24 30  1  0  0  0  0
 24 29  2  0  0  0  0
 24 38  1  0  0  0  0
 25 31  2  0  0  0  0
 25 37  1  0  0  0  0
 26 34  1  0  0  0  0
 27 34  1  0  0  0  0
 27 32  2  0  0  0  0
 27 40  1  0  0  0  0
 30 35  1  0  0  0  0
 30 39  1  6  0  0  0
 33 36  1  0  0  0  0
 35 37  1  0  0  0  0
M  END
> <ID>
13960

> <Formula>
C20H32N6O12S2

> <FW>
612.6311

> <DSSTox_CID>
28898

> <DSSTox_RID>
83166

> <DSSTox_GSID>
48972

> <DSSTox_FileID_Sort>
7843

> <TS_ChemName>
Oxiglutatione

> <TS_ChemName_Synonyms>


> <TS_CASRN>
27025-41-8

> <CASRN_ChemName_Relationship>
primary

> <TS_Description>
single chemical compound

> <ChemNote>


> <STRUCTURE_Shown>
tested chemical

> <STRUCTURE_Formula>
C20H32N6O12S2

> <STRUCTURE_MW>
612.6311

> <STRUCTURE_ChemType>
defined organic

> <STRUCTURE_DefinedOrganicForm>
parent

> <STRUCTURE_IUPAC>
(2S,2'S)-5,5'-[disulfanediylbis({(2R)-3-[(carboxymethyl)amino]-3-oxopropane-1,2-diyl}imino)]bis(2-amino-5-oxopentanoic acid)

> <STRUCTURE_SMILES>
O=C(N[C@@H](CSSC[C@H](NC(=O)CC[C@H](N)C(=O)O)C(=O)NCC(=O)O)C(=O)NCC(=O)O)CC[C@H](N)C(=O)O

> <STRUCTURE_SMILES_Desalt>
O=C(N[C@@H](CSSC[C@H](NC(=O)CC[C@H](N)C(=O)O)C(=O)NCC(=O)O)C(=O)NCC(=O)O)CC[C@H](N)C(=O)O

> <Substance_modify_yyyymmdd>
20111204

$$$$
