2702-72-9
ChemmineR-0915142007XD

 14 13  0  0  0  0  0  0  0  0  2 V2000
    6.9072   -1.3396    0.0000 C    0  0  0  0  0  0  0  0  0  0  0  0
    6.9072    0.0000    0.0000 O    0  0  0  0  0  0  0  0  0  0  0  0
    8.0758   -2.0047    0.0000 O    0  5  0  0  0  0  0  0  0  0  0  0
    5.7671   -2.0047    0.0000 C    0  0  0  0  0  0  0  0  0  0  0  0
    4.5890   -1.3396    0.0000 O    0  0  0  0  0  0  0  0  0  0  0  0
    3.4679   -2.0047    0.0000 C    0  0  0  0  0  0  0  0  0  0  0  0
    3.4679   -3.3253    0.0000 C    0  0  0  0  0  0  0  0  0  0  0  0
    2.2992   -1.3396    0.0000 C    0  0  0  0  0  0  0  0  0  0  0  0
    2.2992   -3.9999    0.0000 C    0  0  0  0  0  0  0  0  0  0  0  0
    1.1591   -2.0047    0.0000 C    0  0  0  0  0  0  0  0  0  0  0  0
    1.1591   -3.3253    0.0000 C    0  0  0  0  0  0  0  0  0  0  0  0
    4.5890   -3.9999    0.0000 Cl   0  0  0  0  0  0  0  0  0  0  0  0
    0.0000   -3.9999    0.0000 Cl   0  0  0  0  0  0  0  0  0  0  0  0
    9.5010   -1.8812    0.0000 Na   0  3  0  0  0  0  0  0  0  0  0  0
  1  2  2  0  0  0  0
  1  3  1  0  0  0  0
  1  4  1  0  0  0  0
  4  5  1  0  0  0  0
  5  6  1  0  0  0  0
  6  7  2  0  0  0  0
  6  8  1  0  0  0  0
  7  9  1  0  0  0  0
  7 12  1  0  0  0  0
  8 10  2  0  0  0  0
  9 11  2  0  0  0  0
 10 11  1  0  0  0  0
 11 13  1  0  0  0  0
M  END
> <ID>
5196

> <Formula>
C8H5Cl2NaO3

> <FW>
243.0193 (220.0300+22.9892)

> <DSSTox_CID>
7496

> <DSSTox_RID>
78472

> <DSSTox_GSID>
27496

> <DSSTox_FileID_Sort>
3155

> <TS_ChemName>
Sodium (2,4-dichlorophenoxy)acetate

> <TS_ChemName_Synonyms>
Acetic acid, (2,4-dichlorophenoxy)-, sodium salt; 2,4-D sodium salt

> <TS_CASRN>
2702-72-9

> <CASRN_ChemName_Relationship>
primary

> <TS_Description>
single chemical compound

> <ChemNote>
parent [94-75-7]

> <STRUCTURE_Shown>
tested chemical

> <STRUCTURE_Formula>
C8H5Cl2NaO3

> <STRUCTURE_MW>
243.0193

> <STRUCTURE_ChemType>
defined organic

> <STRUCTURE_DefinedOrganicForm>
salt

> <STRUCTURE_IUPAC>
sodium (2,4-dichlorophenoxy)acetate

> <STRUCTURE_SMILES>
[Na+].Clc1cc(Cl)ccc1OCC([O-])=O

> <STRUCTURE_SMILES_Desalt>
Clc1cc(Cl)ccc1OCC(=O)O

> <Substance_modify_yyyymmdd>
20080429

$$$$
