2705-87-5
ChemmineR-0915142007XD

 14 14  0  0  0  0  0  0  0  0  1 V2000
    8.0647   -1.9928    0.0000 C   0  0  0  0  0  0  0  0  0  0  0  0
    8.0855   -3.3110    0.0000 C   0  0  0  0  0  0  0  0  0  0  0  0
    9.2272   -3.9857    0.0000 C   0  0  0  0  0  0  0  0  0  0  0  0
   10.3793   -3.3318    0.0000 C   0  0  0  0  0  0  0  0  0  0  0  0
   10.3793   -1.9928    0.0000 C   0  0  0  0  0  0  0  0  0  0  0  0
    9.2272   -1.3182    0.0000 C   0  0  0  0  0  0  0  0  0  0  0  0
    4.6084   -1.3182    0.0000 C   0  0  0  0  0  0  0  0  0  0  0  0
    5.7709   -1.9825    0.0000 C   0  0  0  0  0  0  0  0  0  0  0  0
    6.9126   -1.3182    0.0000 C   0  0  0  0  0  0  0  0  0  0  0  0
    4.6084    0.0000    0.0000 O   0  0  0  0  0  0  0  0  0  0  0  0
    3.4667   -1.9825    0.0000 O   0  0  0  0  0  0  0  0  0  0  0  0
    2.3146   -1.3182    0.0000 C   0  0  0  0  0  0  0  0  0  0  0  0
    1.1521   -1.9825    0.0000 C   0  0  0  0  0  0  0  0  0  0  0  0
    0.0000   -1.3182    0.0000 C   0  0  0  0  0  0  0  0  0  0  0  0
  1  2  1  0  0  0  0
  1  6  1  0  0  0  0
  1  9  1  0  0  0  0
  2  3  1  0  0  0  0
  3  4  1  0  0  0  0
  4  5  1  0  0  0  0
  5  6  1  0  0  0  0
  7  8  1  0  0  0  0
  7 11  1  0  0  0  0
  7 10  2  0  0  0  0
  8  9  1  0  0  0  0
 11 12  1  0  0  0  0
 12 13  1  0  0  0  0
 13 14  2  0  0  0  0
M  END
> <ID>
10406

> <Formula>
C12H20O2

> <FW>
196.286

> <DSSTox_CID>
24755

> <DSSTox_RID>
80448

> <DSSTox_GSID>
44755

> <DSSTox_FileID_Sort>
5130

> <TS_ChemName>
Prop-2-en-1-yl 3-cyclohexylpropanoate

> <TS_ChemName_Synonyms>
Prop-2-en-1-yl 3-cyclohexylpropanoate (Cyclohexanepropanoic acid, 2-propenyl ester) (Allyl cyclohexylpropanoate)

> <TS_CASRN>
2705-87-5

> <CASRN_ChemName_Relationship>
primary

> <TS_Description>
single chemical compound

> <ChemNote>


> <STRUCTURE_Shown>
tested chemical

> <STRUCTURE_Formula>
C12H20O2

> <STRUCTURE_MW>
196.286

> <STRUCTURE_ChemType>
defined organic

> <STRUCTURE_DefinedOrganicForm>
parent

> <STRUCTURE_IUPAC>
prop-2-en-1-yl 3-cyclohexylpropanoate

> <STRUCTURE_SMILES>
O=C(CCC1CCCCC1)OCC=C

> <STRUCTURE_SMILES_Desalt>
O=C(CCC1CCCCC1)OCC=C

> <Substance_modify_yyyymmdd>
20091116

$$$$
