27072-45-3
ChemmineR-0915142007XD

 28 32  0  0  0  0  0  0  0  0  1 V2000
    7.9202   -3.8628    0.0000 C   0  0  0  0  0  0  0  0  0  0  0  0
    8.1054   -2.0009    0.0000 C   0  0  0  0  0  0  0  0  0  0  0  0
    1.1579   -2.0009    0.0000 C   0  0  0  0  0  0  0  0  0  0  0  0
    6.9938   -2.8994    0.0000 C   0  0  0  0  0  0  0  0  0  0  0  0
    6.9475   -2.6771    0.0000 C   0  0  0  0  0  0  0  0  0  0  0  0
    2.3158   -2.6771    0.0000 C   0  0  0  0  0  0  0  0  0  0  0  0
    6.2528   -5.4654    0.0000 C   0  0  0  0  0  0  0  0  0  0  0  0
    6.9475    0.0000    0.0000 C   0  0  0  0  0  0  0  0  0  0  0  0
    2.3158    0.0000    0.0000 C   0  0  0  0  0  0  0  0  0  0  0  0
    8.1147   -7.3922    0.0000 C   0  0  0  0  0  0  0  0  0  0  0  0
    7.5496   -5.1504    0.0000 C   0  0  0  0  0  0  0  0  0  0  0  0
    8.1054   -0.6670    0.0000 C   0  0  0  0  0  0  0  0  0  0  0  0
    1.1579   -0.6670    0.0000 C   0  0  0  0  0  0  0  0  0  0  0  0
    5.2986   -4.5113    0.0000 C   0  0  0  0  0  0  0  0  0  0  0  0
    5.7155   -3.2422    0.0000 C   0  0  0  0  0  0  0  0  0  0  0  0
    5.7896   -2.0009    0.0000 C   0  0  0  0  0  0  0  0  0  0  0  0
    3.4738   -2.0009    0.0000 C   0  0  0  0  0  0  0  0  0  0  0  0
    5.7896   -0.6670    0.0000 C   0  0  0  0  0  0  0  0  0  0  0  0
    3.4738   -0.6670    0.0000 C   0  0  0  0  0  0  0  0  0  0  0  0
    3.9647   -4.5113    0.0000 C   0  0  0  0  0  0  0  0  0  0  0  0
    4.6317   -2.6771    0.0000 C   0  0  0  0  0  0  0  0  0  0  0  0
    8.4852   -6.1045    0.0000 N   0  0  0  0  0  0  0  0  0  0  0  0
    9.2634    0.0000    0.0000 O   0  0  0  0  0  0  0  0  0  0  0  0
    0.0000    0.0000    0.0000 O   0  0  0  0  0  0  0  0  0  0  0  0
    3.1495   -5.5765    0.0000 O   0  0  0  0  0  0  0  0  0  0  0  0
    4.6317    0.0000    0.0000 O   0  0  0  0  0  0  0  0  0  0  0  0
    3.5479   -3.2422    0.0000 O   0  0  0  0  0  0  0  0  0  0  0  0
    7.7534   -8.6798    0.0000 S   0  0  0  0  0  0  0  0  0  0  0  0
  1  4  2  0  0  0  0
  1 11  1  0  0  0  0
  2  5  2  0  0  0  0
  2 12  1  0  0  0  0
  3  6  2  0  0  0  0
  3 13  1  0  0  0  0
  4 15  1  0  0  0  0
  5 16  1  0  0  0  0
  6 17  1  0  0  0  0
  7 11  2  0  0  0  0
  7 14  1  0  0  0  0
  8 12  2  0  0  0  0
  8 18  1  0  0  0  0
  9 13  2  0  0  0  0
  9 19  1  0  0  0  0
 10 22  2  0  0  0  0
 10 28  2  0  0  0  0
 11 22  1  0  0  0  0
 12 23  1  0  0  0  0
 13 24  1  0  0  0  0
 14 15  2  0  0  0  0
 14 20  1  0  0  0  0
 15 21  1  0  0  0  0
 16 18  2  0  0  0  0
 16 21  1  0  0  0  0
 17 19  2  0  0  0  0
 17 21  1  0  0  0  0
 18 26  1  0  0  0  0
 19 26  1  0  0  0  0
 20 25  2  0  0  0  0
 20 27  1  0  0  0  0
 21 27  1  0  0  0  0
M  END
> <ID>
14272

> <Formula>
C21H11NO5S

> <FW>
389.3807

> <DSSTox_CID>
29368

> <DSSTox_RID>
83483

> <DSSTox_GSID>
49408

> <DSSTox_FileID_Sort>
8158

> <TS_ChemName>
Fluorescein 5(6)-isothiocyanate

> <TS_ChemName_Synonyms>


> <TS_CASRN>
27072-45-3

> <CASRN_ChemName_Relationship>
primary

> <TS_Description>
single chemical compound

> <ChemNote>


> <STRUCTURE_Shown>
tested chemical

> <STRUCTURE_Formula>
C21H11NO5S

> <STRUCTURE_MW>
389.3807

> <STRUCTURE_ChemType>
defined organic

> <STRUCTURE_DefinedOrganicForm>
parent

> <STRUCTURE_IUPAC>
3',6'-dihydroxy-5-isothiocyanato-3H-spiro[2-benzofuran-1,9'-xanthen]-3-one

> <STRUCTURE_SMILES>
Oc4cc5Oc1cc(O)ccc1C3(OC(=O)c2cc(\N=C=S)ccc23)c5cc4

> <STRUCTURE_SMILES_Desalt>
Oc4cc5Oc1cc(O)ccc1C3(OC(=O)c2cc(\N=C=S)ccc23)c5cc4

> <Substance_modify_yyyymmdd>
20111204

$$$$
