27090-63-7
ChemmineR-0915142007XD

 24 23  0  0  0  0  0  0  0  0  1 V2000
    5.7698   -4.0118    0.0000 C   0  0  0  0  0  0  0  0  0  0  0  0
    6.9268   -4.6579    0.0000 C   0  0  0  0  0  0  0  0  0  0  0  0
    8.0987   -4.0118    0.0000 C   0  0  0  0  0  0  0  0  0  0  0  0
    9.2557   -4.6579    0.0000 C   0  0  0  0  0  0  0  0  0  0  0  0
   10.4127   -4.0118    0.0000 C   0  0  0  0  0  0  0  0  0  0  0  0
   11.5696   -4.6579    0.0000 C   0  0  0  0  0  0  0  0  0  0  0  0
    4.6128   -4.6579    0.0000 N   0  0  0  0  0  0  0  0  0  0  0  0
   12.7116   -4.0118    0.0000 N   0  0  0  0  0  0  0  0  0  0  0  0
    3.4559   -4.0118    0.0000 C   0  0  0  0  0  0  0  0  0  0  0  0
    2.2989   -4.6579    0.0000 C   0  0  0  0  0  0  0  0  0  0  0  0
    1.1570   -4.0118    0.0000 C   0  0  0  0  0  0  0  0  0  0  0  0
    0.0000   -4.6579    0.0000 C   0  0  0  0  0  0  0  0  0  0  0  0
    4.6128   -5.9952    0.0000 C   0  0  0  0  0  0  0  0  0  0  0  0
    3.4559   -6.6563    0.0000 C   0  0  0  0  0  0  0  0  0  0  0  0
    3.4559   -7.9936    0.0000 C   0  0  0  0  0  0  0  0  0  0  0  0
    2.2989   -8.6697    0.0000 C   0  0  0  0  0  0  0  0  0  0  0  0
   13.8685   -4.6579    0.0000 C   0  0  0  0  0  0  0  0  0  0  0  0
   13.8685   -5.9952    0.0000 C   0  0  0  0  0  0  0  0  0  0  0  0
   15.0255   -6.6563    0.0000 C   0  0  0  0  0  0  0  0  0  0  0  0
   15.0255   -7.9936    0.0000 C   0  0  0  0  0  0  0  0  0  0  0  0
   12.7116   -2.6745    0.0000 C   0  0  0  0  0  0  0  0  0  0  0  0
   13.8685   -1.9984    0.0000 C   0  0  0  0  0  0  0  0  0  0  0  0
   13.8685   -0.6611    0.0000 C   0  0  0  0  0  0  0  0  0  0  0  0
   15.0255    0.0000    0.0000 C   0  0  0  0  0  0  0  0  0  0  0  0
  1  2  1  0  0  0  0
  1  7  1  0  0  0  0
  2  3  1  0  0  0  0
  3  4  1  0  0  0  0
  4  5  1  0  0  0  0
  5  6  1  0  0  0  0
  6  8  1  0  0  0  0
  7  9  1  0  0  0  0
  7 13  1  0  0  0  0
  8 17  1  0  0  0  0
  8 21  1  0  0  0  0
  9 10  1  0  0  0  0
 10 11  1  0  0  0  0
 11 12  1  0  0  0  0
 13 14  1  0  0  0  0
 14 15  1  0  0  0  0
 15 16  1  0  0  0  0
 17 18  1  0  0  0  0
 18 19  1  0  0  0  0
 19 20  1  0  0  0  0
 21 22  1  0  0  0  0
 22 23  1  0  0  0  0
 23 24  1  0  0  0  0
M  END
> <ID>
5502

> <Formula>
C22H48N2

> <FW>
340.6299

> <DSSTox_CID>
7920

> <DSSTox_RID>
78610

> <DSSTox_GSID>
27920

> <DSSTox_FileID_Sort>
3292

> <TS_ChemName>
N,N,N',N'-Tetrabutyl-1,6-hexanediamine

> <TS_ChemName_Synonyms>
N,N,N',N'-Tetrabutyl-1,6-hexanediamine,

> <TS_CASRN>
27090-63-7

> <CASRN_ChemName_Relationship>
primary

> <TS_Description>
single chemical compound

> <ChemNote>


> <STRUCTURE_Shown>
tested chemical

> <STRUCTURE_Formula>
C22H48N2

> <STRUCTURE_MW>
340.6299

> <STRUCTURE_ChemType>
defined organic

> <STRUCTURE_DefinedOrganicForm>
parent

> <STRUCTURE_IUPAC>
N,N,N',N'-tetrabutylhexane-1,6-diamine

> <STRUCTURE_SMILES>
CCCCN(CCCC)CCCCCCN(CCCC)CCCC

> <STRUCTURE_SMILES_Desalt>
CCCCN(CCCC)CCCCCCN(CCCC)CCCC

> <Substance_modify_yyyymmdd>
20080429

$$$$
