27138-31-4
ChemmineR-0915142007XD

 25 26  0  0  0  0  0  0  0  0  1 V2000
    3.4479   -1.3534    0.0000 C   0  0  0  0  0  0  0  0  0  0  0  0
    3.4479   -0.0161    0.0000 O   0  0  0  0  0  0  0  0  0  0  0  0
    4.6080   -2.0140    0.0000 O   0  0  0  0  0  0  0  0  0  0  0  0
    1.1439   -1.3534    0.0000 C   0  0  0  0  0  0  0  0  0  0  0  0
    2.3040   -2.0140    0.0000 C   0  0  0  0  0  0  0  0  0  0  0  0
    2.3040   -3.3513    0.0000 C   0  0  0  0  0  0  0  0  0  0  0  0
    1.1601   -4.0118    0.0000 C   0  0  0  0  0  0  0  0  0  0  0  0
    0.0000   -3.3513    0.0000 C   0  0  0  0  0  0  0  0  0  0  0  0
    0.0000   -2.0140    0.0000 C   0  0  0  0  0  0  0  0  0  0  0  0
    5.7680   -1.3373    0.0000 C   0  0  0  0  0  0  0  0  0  0  0  0
    8.0559   -1.3534    0.0000 O   0  0  0  0  0  0  0  0  0  0  0  0
    6.9120   -2.0140    0.0000 C   0  0  0  0  0  0  0  0  0  0  0  0
    9.1999   -2.0140    0.0000 C   0  0  0  0  0  0  0  0  0  0  0  0
   11.5038   -1.9979    0.0000 O   0  0  0  0  0  0  0  0  0  0  0  0
   12.6478   -1.3373    0.0000 C   0  0  0  0  0  0  0  0  0  0  0  0
   12.6478    0.0000    0.0000 O   0  0  0  0  0  0  0  0  0  0  0  0
   13.8078   -1.9979    0.0000 C   0  0  0  0  0  0  0  0  0  0  0  0
   14.9518   -1.3212    0.0000 C   0  0  0  0  0  0  0  0  0  0  0  0
   16.1118   -1.9979    0.0000 C   0  0  0  0  0  0  0  0  0  0  0  0
   16.1118   -3.3190    0.0000 C   0  0  0  0  0  0  0  0  0  0  0  0
   14.9679   -3.9957    0.0000 C   0  0  0  0  0  0  0  0  0  0  0  0
   13.8078   -3.3190    0.0000 C   0  0  0  0  0  0  0  0  0  0  0  0
   10.3438   -1.3373    0.0000 C   0  0  0  0  0  0  0  0  0  0  0  0
   10.3599   -0.0161    0.0000 C   0  0  0  0  0  0  0  0  0  0  0  0
    5.7519   -0.0161    0.0000 C   0  0  0  0  0  0  0  0  0  0  0  0
  1  3  1  0  0  0  0
  1  2  2  0  0  0  0
  1  5  1  0  0  0  0
  3 10  1  0  0  0  0
  4  5  2  0  0  0  0
  4  9  1  0  0  0  0
  5  6  1  0  0  0  0
  6  7  2  0  0  0  0
  7  8  1  0  0  0  0
  8  9  2  0  0  0  0
 10 12  1  0  0  0  0
 10 25  1  0  0  0  0
 11 12  1  0  0  0  0
 11 13  1  0  0  0  0
 13 23  1  0  0  0  0
 14 15  1  0  0  0  0
 14 23  1  0  0  0  0
 15 16  2  0  0  0  0
 15 17  1  0  0  0  0
 17 18  2  0  0  0  0
 17 22  1  0  0  0  0
 18 19  1  0  0  0  0
 19 20  2  0  0  0  0
 20 21  1  0  0  0  0
 21 22  2  0  0  0  0
 23 24  1  0  0  0  0
M  END
> <ID>
5503

> <Formula>
C20H22O5

> <FW>
342.3857

> <DSSTox_CID>
7921

> <DSSTox_RID>
78611

> <DSSTox_GSID>
27921

> <DSSTox_FileID_Sort>
3293

> <TS_ChemName>
Di(propylene glycol) dibenzoate

> <TS_ChemName_Synonyms>
Dipropylene glycol dibenzoate (Propanol, oxybis-, dibenzoate)

> <TS_CASRN>
27138-31-4

> <CASRN_ChemName_Relationship>
primary

> <TS_Description>
single chemical compound

> <ChemNote>


> <STRUCTURE_Shown>
tested chemical

> <STRUCTURE_Formula>
C20H22O5

> <STRUCTURE_MW>
342.3857

> <STRUCTURE_ChemType>
defined organic

> <STRUCTURE_DefinedOrganicForm>
parent

> <STRUCTURE_IUPAC>
oxydipropane-1,2-diyl dibenzoate

> <STRUCTURE_SMILES>
CC(OC(=O)c1ccccc1)COCC(C)OC(=O)c2ccccc2

> <STRUCTURE_SMILES_Desalt>
CC(OC(=O)c1ccccc1)COCC(C)OC(=O)c2ccccc2

> <Substance_modify_yyyymmdd>
20080923

$$$$
