27178-16-1
ChemmineR-0915142007XD

 30 29  0  0  0  0  0  0  0  0  1 V2000
   11.4265   -1.3141    0.0000 C   0  0  0  0  0  0  0  0  0  0  0  0
   12.5692   -1.9996    0.0000 C   0  0  0  0  0  0  0  0  0  0  0  0
   13.7118   -1.3141    0.0000 C   0  0  0  0  0  0  0  0  0  0  0  0
   14.8545   -1.9996    0.0000 C   0  0  0  0  0  0  0  0  0  0  0  0
   15.9972   -1.3141    0.0000 C   0  0  0  0  0  0  0  0  0  0  0  0
   17.1398   -1.9996    0.0000 C   0  0  0  0  0  0  0  0  0  0  0  0
   11.4265    0.0000    0.0000 O   0  0  0  0  0  0  0  0  0  0  0  0
   10.2839   -1.9996    0.0000 O   0  0  0  0  0  0  0  0  0  0  0  0
   17.1398   -3.3137    0.0000 O   0  0  0  0  0  0  0  0  0  0  0  0
   18.2825   -1.3141    0.0000 O   0  0  0  0  0  0  0  0  0  0  0  0
    9.1412   -1.3141    0.0000 C   0  0  0  0  0  0  0  0  0  0  0  0
    7.9986   -1.9996    0.0000 C   0  0  0  0  0  0  0  0  0  0  0  0
   19.4251   -1.9996    0.0000 C   0  0  0  0  0  0  0  0  0  0  0  0
   20.5678   -1.3141    0.0000 C   0  0  0  0  0  0  0  0  0  0  0  0
    6.8559   -1.3141    0.0000 C   0  0  0  0  0  0  0  0  0  0  0  0
    5.7133   -1.9996    0.0000 C   0  0  0  0  0  0  0  0  0  0  0  0
    4.5706   -1.3141    0.0000 C   0  0  0  0  0  0  0  0  0  0  0  0
    3.4280   -1.9996    0.0000 C   0  0  0  0  0  0  0  0  0  0  0  0
   21.7104   -1.9996    0.0000 C   0  0  0  0  0  0  0  0  0  0  0  0
   22.8531   -1.3141    0.0000 C   0  0  0  0  0  0  0  0  0  0  0  0
   23.9957   -1.9996    0.0000 C   0  0  0  0  0  0  0  0  0  0  0  0
   25.1384   -1.3141    0.0000 C   0  0  0  0  0  0  0  0  0  0  0  0
   26.2810   -1.9996    0.0000 C   0  0  0  0  0  0  0  0  0  0  0  0
   27.4237   -1.3141    0.0000 C   0  0  0  0  0  0  0  0  0  0  0  0
    2.2853   -1.3141    0.0000 C   0  0  0  0  0  0  0  0  0  0  0  0
    1.1427   -1.9996    0.0000 C   0  0  0  0  0  0  0  0  0  0  0  0
    0.0000   -1.3141    0.0000 C   0  0  0  0  0  0  0  0  0  0  0  0
    1.1427   -3.3137    0.0000 C   0  0  0  0  0  0  0  0  0  0  0  0
   28.5663   -1.9996    0.0000 C   0  0  0  0  0  0  0  0  0  0  0  0
   27.4237    0.0000    0.0000 C   0  0  0  0  0  0  0  0  0  0  0  0
  1  2  1  0  0  0  0
  1  8  1  0  0  0  0
  1  7  2  0  0  0  0
  2  3  1  0  0  0  0
  3  4  1  0  0  0  0
  4  5  1  0  0  0  0
  5  6  1  0  0  0  0
  6 10  1  0  0  0  0
  6  9  2  0  0  0  0
  8 11  1  0  0  0  0
 10 13  1  0  0  0  0
 11 12  1  0  0  0  0
 12 15  1  0  0  0  0
 13 14  1  0  0  0  0
 14 19  1  0  0  0  0
 15 16  1  0  0  0  0
 16 17  1  0  0  0  0
 17 18  1  0  0  0  0
 18 25  1  0  0  0  0
 19 20  1  0  0  0  0
 20 21  1  0  0  0  0
 21 22  1  0  0  0  0
 22 23  1  0  0  0  0
 23 24  1  0  0  0  0
 24 29  1  0  0  0  0
 24 30  1  0  0  0  0
 25 26  1  0  0  0  0
 26 27  1  0  0  0  0
 26 28  1  0  0  0  0
M  END
> <ID>
5506

> <Formula>
C26H50O4

> <FW>
426.6728

> <DSSTox_CID>
7924

> <DSSTox_RID>
78613

> <DSSTox_GSID>
27924

> <DSSTox_FileID_Sort>
3295

> <TS_ChemName>
Diisodecyl hexanedioate

> <TS_ChemName_Synonyms>
Diisodecyl hexadioate (Diisodecyl adipate) (Hexanedioic acid, diisodecyl ester)

> <TS_CASRN>
27178-16-1

> <CASRN_ChemName_Relationship>
primary

> <TS_Description>
mixture or formulation

> <ChemNote>
mixture of isodecyl isomers; structure shown 8-methylnonyl

> <STRUCTURE_Shown>
representative isomer in mixture

> <STRUCTURE_Formula>
C26H50O4

> <STRUCTURE_MW>
426.6728

> <STRUCTURE_ChemType>
defined organic

> <STRUCTURE_DefinedOrganicForm>
parent

> <STRUCTURE_IUPAC>
bis(8-methylnonyl) hexanedioate

> <STRUCTURE_SMILES>
CC(C)CCCCCCCOC(=O)CCCCC(=O)OCCCCCCCC(C)C

> <STRUCTURE_SMILES_Desalt>
CC(C)CCCCCCCOC(=O)CCCCC(=O)OCCCCCCCC(C)C

> <Substance_modify_yyyymmdd>
20080429

$$$$
