27193-28-8
ChemmineR-0915142007XD

 15 15  0  0  0  0  0  0  0  0  1 V2000
    1.2501   -1.4607    0.0000 C   0  0  0  0  0  0  0  0  0  0  0  0
    1.2501    0.0000    0.0000 O   0  0  0  0  0  0  0  0  0  0  0  0
    2.4933   -2.1672    0.0000 C   0  0  0  0  0  0  0  0  0  0  0  0
    0.0000   -2.1672    0.0000 C   0  0  0  0  0  0  0  0  0  0  0  0
    0.0000   -3.6075    0.0000 C   0  0  0  0  0  0  0  0  0  0  0  0
    2.4933   -3.6075    0.0000 C   0  0  0  0  0  0  0  0  0  0  0  0
    1.2501   -4.3345    0.0000 C   0  0  0  0  0  0  0  0  0  0  0  0
    3.7434   -1.4607    0.0000 C   0  0  0  0  0  0  0  0  0  0  0  0
    4.6130   -2.1333    0.0000 C   0  0  0  0  0  0  0  0  0  0  0  0
    5.5778   -1.4607    0.0000 C   0  0  0  0  0  0  0  0  0  0  0  0
    5.7884   -0.0883    0.0000 C   0  0  0  0  0  0  0  0  0  0  0  0
    3.1863   -0.5231    0.0000 C   0  0  0  0  0  0  0  0  0  0  0  0
    4.2462   -0.4688    0.0000 C   0  0  0  0  0  0  0  0  0  0  0  0
    6.7939   -0.8017    0.0000 C   0  0  0  0  0  0  0  0  0  0  0  0
    6.4678   -2.2216    0.0000 C   0  0  0  0  0  0  0  0  0  0  0  0
  1  2  1  0  0  0  0
  1  3  2  0  0  0  0
  1  4  1  0  0  0  0
  3  6  1  0  0  0  0
  3  8  1  0  0  0  0
  4  5  2  0  0  0  0
  5  7  1  0  0  0  0
  6  7  2  0  0  0  0
  8  9  1  0  0  0  0
  8 12  1  0  0  0  0
  8 13  1  0  0  0  0
  9 10  1  0  0  0  0
 10 11  1  0  0  0  0
 10 14  1  0  0  0  0
 10 15  1  0  0  0  0
M  END
> <ID>
5507

> <Formula>
C14H22O

> <FW>
206.3239

> <DSSTox_CID>
7925

> <DSSTox_RID>
78614

> <DSSTox_GSID>
27925

> <DSSTox_FileID_Sort>
3296

> <TS_ChemName>
(1,1,3,3-Tetramethylbutyl)phenol

> <TS_ChemName_Synonyms>


> <TS_CASRN>
27193-28-8

> <CASRN_ChemName_Relationship>
primary

> <TS_Description>
mixture or formulation

> <ChemNote>
mixture of o-; m- and p- isomers; structure shown o-

> <STRUCTURE_Shown>
representative isomer in mixture

> <STRUCTURE_Formula>
C14H22O

> <STRUCTURE_MW>
206.3239

> <STRUCTURE_ChemType>
defined organic

> <STRUCTURE_DefinedOrganicForm>
parent

> <STRUCTURE_IUPAC>
2-(2,4,4-trimethylpentan-2-yl)phenol

> <STRUCTURE_SMILES>
Oc1ccccc1C(C)(C)CC(C)(C)C

> <STRUCTURE_SMILES_Desalt>
Oc1ccccc1C(C)(C)CC(C)(C)C

> <Substance_modify_yyyymmdd>
20080429

$$$$
