27193-86-8
ChemmineR-0915142007XD

 19 19  0  0  0  0  0  0  0  0  1 V2000
    1.1357   -1.2979    0.0000 C   0  0  0  0  0  0  0  0  0  0  0  0
    1.1357    0.0000    0.0000 O   0  0  0  0  0  0  0  0  0  0  0  0
    2.2714   -2.0118    0.0000 C   0  0  0  0  0  0  0  0  0  0  0  0
    0.0000   -2.0118    0.0000 C   0  0  0  0  0  0  0  0  0  0  0  0
    0.0000   -3.3584    0.0000 C   0  0  0  0  0  0  0  0  0  0  0  0
    2.2714   -3.3584    0.0000 C   0  0  0  0  0  0  0  0  0  0  0  0
    1.1357   -4.0073    0.0000 C   0  0  0  0  0  0  0  0  0  0  0  0
    3.4719   -1.3628    0.0000 C   0  0  0  0  0  0  0  0  0  0  0  0
    4.5914   -2.0118    0.0000 C   0  0  0  0  0  0  0  0  0  0  0  0
    5.7271   -1.3628    0.0000 C   0  0  0  0  0  0  0  0  0  0  0  0
    6.9277   -2.0118    0.0000 C   0  0  0  0  0  0  0  0  0  0  0  0
    8.1120   -1.3628    0.0000 C   0  0  0  0  0  0  0  0  0  0  0  0
    9.2477   -2.0118    0.0000 C   0  0  0  0  0  0  0  0  0  0  0  0
   10.3834   -1.3628    0.0000 C   0  0  0  0  0  0  0  0  0  0  0  0
   11.5840   -2.0118    0.0000 C   0  0  0  0  0  0  0  0  0  0  0  0
   12.7034   -1.3628    0.0000 C   0  0  0  0  0  0  0  0  0  0  0  0
   13.8878   -2.0118    0.0000 C   0  0  0  0  0  0  0  0  0  0  0  0
   15.0235   -1.3628    0.0000 C   0  0  0  0  0  0  0  0  0  0  0  0
   16.2240   -2.0118    0.0000 C   0  0  0  0  0  0  0  0  0  0  0  0
  1  2  1  0  0  0  0
  1  3  2  0  0  0  0
  1  4  1  0  0  0  0
  3  6  1  0  0  0  0
  3  8  1  0  0  0  0
  4  5  2  0  0  0  0
  5  7  1  0  0  0  0
  6  7  2  0  0  0  0
  8  9  1  0  0  0  0
  9 10  1  0  0  0  0
 10 11  1  0  0  0  0
 11 12  1  0  0  0  0
 12 13  1  0  0  0  0
 13 14  1  0  0  0  0
 14 15  1  0  0  0  0
 15 16  1  0  0  0  0
 16 17  1  0  0  0  0
 17 18  1  0  0  0  0
 18 19  1  0  0  0  0
M  END
> <ID>
5508

> <Formula>
C18H30O

> <FW>
262.4302

> <DSSTox_CID>
7926

> <DSSTox_RID>
78615

> <DSSTox_GSID>
27926

> <DSSTox_FileID_Sort>
3297

> <TS_ChemName>
Dodecylphenol

> <TS_ChemName_Synonyms>


> <TS_CASRN>
27193-86-8

> <CASRN_ChemName_Relationship>
primary

> <TS_Description>
mixture or formulation

> <ChemNote>
mixture of o-; m- and p- isomers; structure shown o- [5284-29-7]

> <STRUCTURE_Shown>
representative isomer in mixture

> <STRUCTURE_Formula>
C18H30O

> <STRUCTURE_MW>
262.4302

> <STRUCTURE_ChemType>
defined organic

> <STRUCTURE_DefinedOrganicForm>
parent

> <STRUCTURE_IUPAC>
2-dodecylphenol

> <STRUCTURE_SMILES>
Oc1ccccc1CCCCCCCCCCCC

> <STRUCTURE_SMILES_Desalt>
Oc1ccccc1CCCCCCCCCCCC

> <Substance_modify_yyyymmdd>
20080429

$$$$
