27247-96-7
ChemmineR-0915142007XD

 12 11  0  0  0  0  0  0  0  0  2 V2000
    0.6694   -1.1555    0.0000 N   0  3  0  0  0  0  0  0  0  0  0  0
    0.0000    0.0000    0.0000 O   0  5  0  0  0  0  0  0  0  0  0  0
    0.0000   -2.3030    0.0000 O   0  0  0  0  0  0  0  0  0  0  0  0
    2.0002   -1.1555    0.0000 O   0  0  0  0  0  0  0  0  0  0  0  0
    2.6537   -2.3030    0.0000 C   0  0  0  0  0  0  0  0  0  0  0  0
    3.9845   -2.3030    0.0000 C   0  0  0  0  0  0  0  0  0  0  0  0
    4.6539   -1.1555    0.0000 C   0  0  0  0  0  0  0  0  0  0  0  0
    5.9847   -1.1555    0.0000 C   0  0  0  0  0  0  0  0  0  0  0  0
    6.6382    0.0000    0.0000 C   0  0  0  0  0  0  0  0  0  0  0  0
    7.9690    0.0000    0.0000 C   0  0  0  0  0  0  0  0  0  0  0  0
    4.6539   -3.4586    0.0000 C   0  0  0  0  0  0  0  0  0  0  0  0
    5.9847   -3.4586    0.0000 C   0  0  0  0  0  0  0  0  0  0  0  0
  1  2  1  0  0  0  0
  1  3  2  0  0  0  0
  1  4  1  0  0  0  0
  4  5  1  0  0  0  0
  5  6  1  0  0  0  0
  6  7  1  0  0  0  0
  6 11  1  0  0  0  0
  7  8  1  0  0  0  0
  8  9  1  0  0  0  0
  9 10  1  0  0  0  0
 11 12  1  0  0  0  0
M  END
> <ID>
5510

> <Formula>
C8H17NO3

> <FW>
175.2255

> <DSSTox_CID>
7928

> <DSSTox_RID>
78616

> <DSSTox_GSID>
27928

> <DSSTox_FileID_Sort>
3298

> <TS_ChemName>
2-Ethylhexyl nitrate

> <TS_ChemName_Synonyms>
Nitric acid, 2-ethylhexyl ester

> <TS_CASRN>
27247-96-7

> <CASRN_ChemName_Relationship>
primary

> <TS_Description>
single chemical compound

> <ChemNote>


> <STRUCTURE_Shown>
tested chemical

> <STRUCTURE_Formula>
C8H17NO3

> <STRUCTURE_MW>
175.2255

> <STRUCTURE_ChemType>
defined organic

> <STRUCTURE_DefinedOrganicForm>
parent

> <STRUCTURE_IUPAC>
2-ethylhexyl nitrate

> <STRUCTURE_SMILES>
O=[N+]([O-])OCC(CCCC)CC

> <STRUCTURE_SMILES_Desalt>
O=[N+]([O-])OCC(CCCC)CC

> <Substance_modify_yyyymmdd>
20080429

$$$$
