272451-65-7
ChemmineR-0915142007XD

 38 39  0  0  0  0  0  0  0  0  1 V2000
    8.7128   -4.9367    0.0000 C   0  0  0  0  0  0  0  0  0  0  0  0
    8.7128   -6.2677    0.0000 C   0  0  0  0  0  0  0  0  0  0  0  0
    9.8735   -6.9176    0.0000 C   0  0  0  0  0  0  0  0  0  0  0  0
   11.0032   -6.2677    0.0000 C   0  0  0  0  0  0  0  0  0  0  0  0
   11.0032   -4.9367    0.0000 C   0  0  0  0  0  0  0  0  0  0  0  0
    9.8735   -4.2713    0.0000 C   0  0  0  0  0  0  0  0  0  0  0  0
    7.5676   -4.2713    0.0000 C   0  0  0  0  0  0  0  0  0  0  0  0
    7.5676   -2.9404    0.0000 O   0  0  0  0  0  0  0  0  0  0  0  0
    6.4224   -4.9367    0.0000 N   0  0  0  0  0  0  0  0  0  0  0  0
    9.8735   -2.9404    0.0000 C   0  0  0  0  0  0  0  0  0  0  0  0
    8.7128   -2.2904    0.0000 O   0  0  0  0  0  0  0  0  0  0  0  0
   11.0032   -2.2904    0.0000 N   0  0  0  0  0  0  0  0  0  0  0  0
   12.1484   -2.9404    0.0000 C   0  0  0  0  0  0  0  0  0  0  0  0
   11.4984   -4.1011    0.0000 C   0  0  0  0  0  0  0  0  0  0  0  0
   13.3091   -3.6058    0.0000 C   0  0  0  0  0  0  0  0  0  0  0  0
   12.8293   -1.8107    0.0000 C   0  0  0  0  0  0  0  0  0  0  0  0
   14.1448   -1.8107    0.0000 S   0  0  0  0  0  0  0  0  0  0  0  0
   14.1448   -0.4797    0.0000 O   0  0  0  0  0  0  0  0  0  0  0  0
   14.1448   -3.1261    0.0000 O   0  0  0  0  0  0  0  0  0  0  0  0
   15.4757   -1.8107    0.0000 C   0  0  0  0  0  0  0  0  0  0  0  0
   12.1484   -4.2713    0.0000 I   0  0  0  0  0  0  0  0  0  0  0  0
    2.9868   -4.2713    0.0000 C   0  0  0  0  0  0  0  0  0  0  0  0
    2.9868   -2.9404    0.0000 C   0  0  0  0  0  0  0  0  0  0  0  0
    4.1165   -2.2904    0.0000 C   0  0  0  0  0  0  0  0  0  0  0  0
    5.2772   -2.9404    0.0000 C   0  0  0  0  0  0  0  0  0  0  0  0
    5.2772   -4.2713    0.0000 C   0  0  0  0  0  0  0  0  0  0  0  0
    4.1165   -4.9367    0.0000 C   0  0  0  0  0  0  0  0  0  0  0  0
    4.1165   -6.2677    0.0000 C   0  0  0  0  0  0  0  0  0  0  0  0
    1.8261   -2.2904    0.0000 C   0  0  0  0  0  0  0  0  0  0  0  0
    1.1142   -3.3892    0.0000 C   0  0  0  0  0  0  0  0  0  0  0  0
    0.4952   -1.3928    0.0000 F   0  0  0  0  0  0  0  0  0  0  0  0
    0.4024   -4.5189    0.0000 F   0  0  0  0  0  0  0  0  0  0  0  0
    2.2130   -4.1165    0.0000 F   0  0  0  0  0  0  0  0  0  0  0  0
    0.0000   -2.6773    0.0000 F   0  0  0  0  0  0  0  0  0  0  0  0
    2.5535   -1.0988    0.0000 C   0  0  0  0  0  0  0  0  0  0  0  0
    3.1880    0.0000    0.0000 F   0  0  0  0  0  0  0  0  0  0  0  0
    3.6523   -1.7797    0.0000 F   0  0  0  0  0  0  0  0  0  0  0  0
    1.4392   -0.4643    0.0000 F   0  0  0  0  0  0  0  0  0  0  0  0
  1  2  2  0  0  0  0
  1  6  1  0  0  0  0
  1  7  1  0  0  0  0
  2  3  1  0  0  0  0
  3  4  2  0  0  0  0
  4  5  1  0  0  0  0
  5  6  2  0  0  0  0
  5 21  1  0  0  0  0
  6 10  1  0  0  0  0
  7  8  2  0  0  0  0
  7  9  1  0  0  0  0
  9 26  1  0  0  0  0
 10 11  2  0  0  0  0
 10 12  1  0  0  0  0
 12 13  1  0  0  0  0
 13 14  1  0  0  0  0
 13 15  1  0  0  0  0
 13 16  1  0  0  0  0
 16 17  1  0  0  0  0
 17 18  2  0  0  0  0
 17 19  2  0  0  0  0
 17 20  1  0  0  0  0
 22 27  2  0  0  0  0
 22 23  1  0  0  0  0
 23 24  2  0  0  0  0
 23 29  1  0  0  0  0
 24 25  1  0  0  0  0
 25 26  2  0  0  0  0
 26 27  1  0  0  0  0
 27 28  1  0  0  0  0
 29 30  1  0  0  0  0
 29 31  1  0  0  0  0
 29 35  1  0  0  0  0
 30 32  1  0  0  0  0
 30 33  1  0  0  0  0
 30 34  1  0  0  0  0
 35 36  1  0  0  0  0
 35 37  1  0  0  0  0
 35 38  1  0  0  0  0
M  END
> <ID>
12793

> <Formula>
C23H22F7IN2O4S

> <FW>
682.3901

> <DSSTox_CID>
27672

> <DSSTox_RID>
82490

> <DSSTox_GSID>
47672

> <DSSTox_FileID_Sort>
7171

> <TS_ChemName>
Flubendiamide

> <TS_ChemName_Synonyms>


> <TS_CASRN>
272451-65-7

> <CASRN_ChemName_Relationship>
primary

> <TS_Description>
single chemical compound

> <ChemNote>


> <STRUCTURE_Shown>
tested chemical

> <STRUCTURE_Formula>
C23H22F7IN2O4S

> <STRUCTURE_MW>
682.3901

> <STRUCTURE_ChemType>
defined organic

> <STRUCTURE_DefinedOrganicForm>
parent

> <STRUCTURE_IUPAC>
N~1~-[4-(1,1,1,2,3,3,3-heptafluoropropan-2-yl)-2-methylphenyl]-3-iodo-N~2~-[2-methyl-1-(methylsulfonyl)propan-2-yl]benzene-1,2-dicarboxamide

> <STRUCTURE_SMILES>
O=C(Nc1ccc(cc1C)C(F)(C(F)(F)F)C(F)(F)F)c2cccc(I)c2C(=O)NC(C)(C)CS(C)(=O)=O

> <STRUCTURE_SMILES_Desalt>
O=C(Nc1ccc(cc1C)C(F)(C(F)(F)F)C(F)(F)F)c2cccc(I)c2C(=O)NC(C)(C)CS(C)(=O)=O

> <Substance_modify_yyyymmdd>
20101215

$$$$
