27253-29-8
ChemmineR-0915142007XD

 25 22  0  0  0  0  0  0  0  0  2 V2000
    2.9803   -1.1322    0.0000 C    0  0  0  0  0  0  0  0  0  0  0  0
    2.3143   -2.3143    0.0000 C    0  0  0  0  0  0  0  0  0  0  0  0
    3.4632   -2.9637    0.0000 C    0  0  0  0  0  0  0  0  0  0  0  0
    4.6120   -2.3143    0.0000 C    0  0  0  0  0  0  0  0  0  0  0  0
    5.7775   -2.9637    0.0000 C    0  0  0  0  0  0  0  0  0  0  0  0
    5.7775   -4.2956    0.0000 C    0  0  0  0  0  0  0  0  0  0  0  0
    2.3143    0.0000    0.0000 O    0  0  0  0  0  0  0  0  0  0  0  0
    4.3123   -1.1322    0.0000 O    0  5  0  0  0  0  0  0  0  0  0  0
    1.6483   -3.4632    0.0000 C    0  0  0  0  0  0  0  0  0  0  0  0
    6.9263   -2.3143    0.0000 C    0  0  0  0  0  0  0  0  0  0  0  0
    1.1655   -1.6317    0.0000 C    0  0  0  0  0  0  0  0  0  0  0  0
    0.0000   -2.3143    0.0000 C    0  0  0  0  0  0  0  0  0  0  0  0
    7.9253   -0.1831    0.0000 Zn   0  2  0  0  0  0  0  0  0  0  0  0
   13.6695   -1.1488    0.0000 C    0  0  0  0  0  0  0  0  0  0  0  0
   14.3188   -2.3310    0.0000 C    0  0  0  0  0  0  0  0  0  0  0  0
   13.1866   -2.9803    0.0000 C    0  0  0  0  0  0  0  0  0  0  0  0
   12.0378   -2.3310    0.0000 C    0  0  0  0  0  0  0  0  0  0  0  0
   10.8723   -2.9803    0.0000 C    0  0  0  0  0  0  0  0  0  0  0  0
   10.8723   -4.3123    0.0000 C    0  0  0  0  0  0  0  0  0  0  0  0
   14.3188   -0.0166    0.0000 O    0  0  0  0  0  0  0  0  0  0  0  0
   12.3375   -1.1488    0.0000 O    0  5  0  0  0  0  0  0  0  0  0  0
   15.0015   -3.4798    0.0000 C    0  0  0  0  0  0  0  0  0  0  0  0
    9.7235   -2.3310    0.0000 C    0  0  0  0  0  0  0  0  0  0  0  0
   15.5009   -1.6650    0.0000 C    0  0  0  0  0  0  0  0  0  0  0  0
   16.6498   -2.3310    0.0000 C    0  0  0  0  0  0  0  0  0  0  0  0
  1  2  1  0  0  0  0
  1  8  1  0  0  0  0
  1  7  2  0  0  0  0
  2  3  1  0  0  0  0
  2  9  1  0  0  0  0
  2 11  1  0  0  0  0
  3  4  1  0  0  0  0
  4  5  1  0  0  0  0
  5  6  1  0  0  0  0
  5 10  1  0  0  0  0
 11 12  1  0  0  0  0
 14 15  1  0  0  0  0
 14 21  1  0  0  0  0
 14 20  2  0  0  0  0
 15 16  1  0  0  0  0
 15 22  1  0  0  0  0
 15 24  1  0  0  0  0
 16 17  1  0  0  0  0
 17 18  1  0  0  0  0
 18 19  1  0  0  0  0
 18 23  1  0  0  0  0
 24 25  1  0  0  0  0
M  END
> <ID>
12194

> <Formula>
C20H38O4Zn

> <FW>
407.9223 (171.2572+65.4079+171.2572)

> <DSSTox_CID>
27040

> <DSSTox_RID>
82061

> <DSSTox_GSID>
47040

> <DSSTox_FileID_Sort>
6742

> <TS_ChemName>
Zinc neodecanoate

> <TS_ChemName_Synonyms>


> <TS_CASRN>
27253-29-8

> <CASRN_ChemName_Relationship>
primary

> <TS_Description>
mixture or formulation

> <ChemNote>
mixture of tertiary decanyl isomers; structure shown 2-ethyl-2,5-dimethylhexanoic; parent [26896-20-8]

> <STRUCTURE_Shown>
representative isomer in mixture

> <STRUCTURE_Formula>
C20H38O4Zn

> <STRUCTURE_MW>
407.9223

> <STRUCTURE_ChemType>
organometallic

> <STRUCTURE_DefinedOrganicForm>


> <STRUCTURE_IUPAC>
zinc bis(2-ethyl-2,5-dimethylhexanoate)

> <STRUCTURE_SMILES>
[Zn+2].[O-]C(=O)C(C)(CC)CCC(C)C.CC(C)CCC(C)(CC)C([O-])=O

> <STRUCTURE_SMILES_Desalt>
CC(C)CCC(C)(CC)C(=O)O

> <Substance_modify_yyyymmdd>
20100429

$$$$
