27306-78-1
ChemmineR-0915142007XD

 26 25  0  0  0  0  0  0  0  0  1 V2000
    1.1502   -4.2917    0.0000 Si   0  0  0  0  0  0  0  0  0  0  0  0
    0.4807   -5.4418    0.0000 C    0  0  0  0  0  0  0  0  0  0  0  0
    2.3003   -4.9440    0.0000 C    0  0  0  0  0  0  0  0  0  0  0  0
    0.0000   -3.6393    0.0000 C    0  0  0  0  0  0  0  0  0  0  0  0
    1.8197   -3.1415    0.0000 O    0  0  0  0  0  0  0  0  0  0  0  0
    3.1587   -3.1415    0.0000 Si   0  0  0  0  0  0  0  0  0  0  0  0
    3.1587   -4.4633    0.0000 C    0  0  0  0  0  0  0  0  0  0  0  0
    3.1587   -1.8197    0.0000 O    0  0  0  0  0  0  0  0  0  0  0  0
    4.4805   -3.1415    0.0000 C    0  0  0  0  0  0  0  0  0  0  0  0
    5.1500   -4.2917    0.0000 C    0  0  0  0  0  0  0  0  0  0  0  0
    6.4890   -4.2917    0.0000 C    0  0  0  0  0  0  0  0  0  0  0  0
    7.1242   -5.4418    0.0000 O    0  0  0  0  0  0  0  0  0  0  0  0
    8.4632   -5.4418    0.0000 C    0  0  0  0  0  0  0  0  0  0  0  0
    9.1327   -6.5920    0.0000 C    0  0  0  0  0  0  0  0  0  0  0  0
    1.9913   -1.1502    0.0000 Si   0  0  0  0  0  0  0  0  0  0  0  0
    2.6608    0.0000    0.0000 C    0  0  0  0  0  0  0  0  0  0  0  0
    1.3390   -2.3003    0.0000 C    0  0  0  0  0  0  0  0  0  0  0  0
    0.8583   -0.4807    0.0000 C    0  0  0  0  0  0  0  0  0  0  0  0
   10.4717   -6.5920    0.0000 C    0  0  0  0  0  0  0  0  0  0  0  0
   11.1411   -7.7250    0.0000 C    0  0  0  0  0  0  0  0  0  0  0  0
   12.4801   -7.7250    0.0000 C    0  0  0  0  0  0  0  0  0  0  0  0
   13.1496   -8.8923    0.0000 C    0  0  0  0  0  0  0  0  0  0  0  0
   14.4715   -8.8923    0.0000 C    0  0  0  0  0  0  0  0  0  0  0  0
   15.1581  -10.0425    0.0000 C    0  0  0  0  0  0  0  0  0  0  0  0
   16.4971  -10.0425    0.0000 O    0  0  0  0  0  0  0  0  0  0  0  0
   17.1666  -11.1926    0.0000 C    0  0  0  0  0  0  0  0  0  0  0  0
  1  2  1  0  0  0  0
  1  3  1  0  0  0  0
  1  4  1  0  0  0  0
  1  5  1  0  0  0  0
  5  6  1  0  0  0  0
  6  7  1  0  0  0  0
  6  8  1  0  0  0  0
  6  9  1  0  0  0  0
  8 15  1  0  0  0  0
  9 10  1  0  0  0  0
 10 11  1  0  0  0  0
 11 12  1  0  0  0  0
 12 13  1  0  0  0  0
 13 14  1  0  0  0  0
 14 19  1  0  0  0  0
 15 16  1  0  0  0  0
 15 17  1  0  0  0  0
 15 18  1  0  0  0  0
 19 20  1  0  0  0  0
 20 21  1  0  0  0  0
 21 22  1  0  0  0  0
 22 23  1  0  0  0  0
 23 24  1  0  0  0  0
 24 25  1  0  0  0  0
 25 26  1  0  0  0  0
M  END
> <ID>
7827

> <Formula>
C19H46O4Si3

> <FW>
422.8226

> <DSSTox_CID>
20611

> <DSSTox_RID>
79511

> <DSSTox_GSID>
40611

> <DSSTox_FileID_Sort>
4193

> <TS_ChemName>
Silwet L77

> <TS_ChemName_Synonyms>


> <TS_CASRN>
27306-78-1

> <CASRN_ChemName_Relationship>
primary

> <TS_Description>
mixture or formulation

> <ChemNote>
mixture of methoxy(C7-8) chains; structure shown C8

> <STRUCTURE_Shown>
representative component

> <STRUCTURE_Formula>
C19H46O4Si3

> <STRUCTURE_MW>
422.8226

> <STRUCTURE_ChemType>
organometallic

> <STRUCTURE_DefinedOrganicForm>


> <STRUCTURE_IUPAC>
3-{3-[(8-methoxyoctyl)oxy]propyl}-1,1,1,3,5,5,5-heptamethyltrisiloxane

> <STRUCTURE_SMILES>
C[Si](CCCOCCCCCCCCOC)(O[Si](C)(C)C)O[Si](C)(C)C

> <STRUCTURE_SMILES_Desalt>
C[Si](CCCOCCCCCCCCOC)(O[Si](C)(C)C)O[Si](C)(C)C

> <Substance_modify_yyyymmdd>
20120630

$$$$
