27314-13-2
ChemmineR-0915142007XD

 20 21  0  0  0  0  0  0  0  0  1 V2000
    6.9205   -2.6873    0.0000 C    0  0  0  0  0  0  0  0  0  0  0  0
    5.7688   -2.0025    0.0000 N    0  0  0  0  0  0  0  0  0  0  0  0
    8.0721   -2.0128    0.0000 C    0  0  0  0  0  0  0  0  0  0  0  0
    5.7688   -0.6744    0.0000 N    0  0  0  0  0  0  0  0  0  0  0  0
    8.0721   -0.6744    0.0000 C    0  0  0  0  0  0  0  0  0  0  0  0
    1.1724   -2.0128    0.0000 C    0  0  0  0  0  0  0  0  0  0  0  0
    6.9101   -0.0311    0.0000 C    0  0  0  0  0  0  0  0  0  0  0  0
    4.6482   -2.6769    0.0000 C    0  0  0  0  0  0  0  0  0  0  0  0
    2.3449   -2.6873    0.0000 C    0  0  0  0  0  0  0  0  0  0  0  0
    3.4965   -2.0025    0.0000 C    0  0  0  0  0  0  0  0  0  0  0  0
    6.9205   -3.9842    0.0000 O    0  0  0  0  0  0  0  0  0  0  0  0
    9.2238   -2.6976    0.0000 Cl   0  0  0  0  0  0  0  0  0  0  0  0
    9.2238    0.0000    0.0000 N    0  0  0  0  0  0  0  0  0  0  0  0
    0.0000   -1.3696    0.0000 F    0  0  0  0  0  0  0  0  0  0  0  0
    1.8261   -0.8404    0.0000 F    0  0  0  0  0  0  0  0  0  0  0  0
    0.5188   -3.1957    0.0000 F    0  0  0  0  0  0  0  0  0  0  0  0
    4.6482   -4.0049    0.0000 C    0  0  0  0  0  0  0  0  0  0  0  0
    2.3449   -3.9842    0.0000 C    0  0  0  0  0  0  0  0  0  0  0  0
    3.4965   -4.6586    0.0000 C    0  0  0  0  0  0  0  0  0  0  0  0
   10.3755   -0.6640    0.0000 C    0  0  0  0  0  0  0  0  0  0  0  0
  1  2  1  0  0  0  0
  1  3  1  0  0  0  0
  1 11  2  0  0  0  0
  2  4  1  0  0  0  0
  2  8  1  0  0  0  0
  3  5  2  0  0  0  0
  3 12  1  0  0  0  0
  4  7  2  0  0  0  0
  5  7  1  0  0  0  0
  5 13  1  0  0  0  0
  6  9  1  0  0  0  0
  6 14  1  0  0  0  0
  6 15  1  0  0  0  0
  6 16  1  0  0  0  0
  8 10  1  0  0  0  0
  8 17  2  0  0  0  0
  9 10  2  0  0  0  0
  9 18  1  0  0  0  0
 13 20  1  0  0  0  0
 17 19  1  0  0  0  0
 18 19  2  0  0  0  0
M  END
> <ID>
3570

> <Formula>
C12H9ClF3N3O

> <FW>
303.6676

> <DSSTox_CID>
4234

> <DSSTox_RID>
77332

> <DSSTox_GSID>
24234

> <DSSTox_FileID_Sort>
2015

> <TS_ChemName>
Norflurazon

> <TS_ChemName_Synonyms>
Norflurazon (NF)

> <TS_CASRN>
27314-13-2

> <CASRN_ChemName_Relationship>
primary

> <TS_Description>
single chemical compound

> <ChemNote>


> <STRUCTURE_Shown>
tested chemical

> <STRUCTURE_Formula>
C12H9ClF3N3O

> <STRUCTURE_MW>
303.6676

> <STRUCTURE_ChemType>
defined organic

> <STRUCTURE_DefinedOrganicForm>
parent

> <STRUCTURE_IUPAC>
4-chloro-5-(methylamino)-2-[3-(trifluoromethyl)phenyl]pyridazin-3(2H)-one

> <STRUCTURE_SMILES>
FC(F)(F)c1cc(ccc1)N2N=CC(NC)=C(Cl)C2=O

> <STRUCTURE_SMILES_Desalt>
FC(F)(F)c1cc(ccc1)N2N=CC(NC)=C(Cl)C2=O

> <Substance_modify_yyyymmdd>
20080429

$$$$
