27323-41-7
ChemmineR-0915142007XD

 32 31  0  0  0  0  0  0  0  0  1 V2000
   12.6223   -7.2205    0.0000 C   0  0  0  0  0  0  0  0  0  0  0  0
   11.4699   -7.8867    0.0000 C   0  0  0  0  0  0  0  0  0  0  0  0
   10.3175   -7.2205    0.0000 C   0  0  0  0  0  0  0  0  0  0  0  0
    9.1831   -7.8867    0.0000 C   0  0  0  0  0  0  0  0  0  0  0  0
    8.0307   -7.2205    0.0000 C   0  0  0  0  0  0  0  0  0  0  0  0
    6.8784   -7.8867    0.0000 C   0  0  0  0  0  0  0  0  0  0  0  0
    5.7260   -7.2205    0.0000 C   0  0  0  0  0  0  0  0  0  0  0  0
    4.5916   -7.8867    0.0000 C   0  0  0  0  0  0  0  0  0  0  0  0
    3.4392   -7.2205    0.0000 C   0  0  0  0  0  0  0  0  0  0  0  0
    2.2868   -7.8867    0.0000 C   0  0  0  0  0  0  0  0  0  0  0  0
    1.1524   -7.2205    0.0000 C   0  0  0  0  0  0  0  0  0  0  0  0
    0.0000   -7.8867    0.0000 C   0  0  0  0  0  0  0  0  0  0  0  0
   10.3175   -3.2591    0.0000 C   0  0  0  0  0  0  0  0  0  0  0  0
   11.4699   -3.9073    0.0000 C   0  0  0  0  0  0  0  0  0  0  0  0
   11.4699   -5.2398    0.0000 C   0  0  0  0  0  0  0  0  0  0  0  0
   10.3175   -5.9060    0.0000 C   0  0  0  0  0  0  0  0  0  0  0  0
    9.1831   -5.2398    0.0000 C   0  0  0  0  0  0  0  0  0  0  0  0
    9.1831   -3.9073    0.0000 C   0  0  0  0  0  0  0  0  0  0  0  0
   10.3175   -1.9267    0.0000 S   0  0  0  0  0  0  0  0  0  0  0  0
   11.6500   -1.9267    0.0000 O   0  0  0  0  0  0  0  0  0  0  0  0
    9.0031   -1.9267    0.0000 O   0  0  0  0  0  0  0  0  0  0  0  0
   10.3175   -0.5942    0.0000 O   0  0  0  0  0  0  0  0  0  0  0  0
   13.3246   -1.3144    0.0000 C   0  0  0  0  0  0  0  0  0  0  0  0
   14.4770   -2.0527    0.0000 C   0  0  0  0  0  0  0  0  0  0  0  0
   13.3246    0.0000    0.0000 O   0  0  0  0  0  0  0  0  0  0  0  0
   16.8538   -3.3672    0.0000 C   0  0  0  0  0  0  0  0  0  0  0  0
   15.7014   -4.0334    0.0000 C   0  0  0  0  0  0  0  0  0  0  0  0
   18.0062   -4.0334    0.0000 O   0  0  0  0  0  0  0  0  0  0  0  0
   13.3246   -5.4199    0.0000 C   0  0  0  0  0  0  0  0  0  0  0  0
   13.3246   -4.1054    0.0000 C   0  0  0  0  0  0  0  0  0  0  0  0
   12.1722   -6.0861    0.0000 O   0  0  0  0  0  0  0  0  0  0  0  0
   14.4770   -3.3672    0.0000 N   0  0  0  0  0  0  0  0  0  0  0  0
  1  2  1  0  0  0  0
  2  3  1  0  0  0  0
  3  4  1  0  0  0  0
  3 16  1  0  0  0  0
  4  5  1  0  0  0  0
  5  6  1  0  0  0  0
  6  7  1  0  0  0  0
  7  8  1  0  0  0  0
  8  9  1  0  0  0  0
  9 10  1  0  0  0  0
 10 11  1  0  0  0  0
 11 12  1  0  0  0  0
 13 14  2  0  0  0  0
 13 18  1  0  0  0  0
 13 19  1  0  0  0  0
 14 15  1  0  0  0  0
 15 16  2  0  0  0  0
 16 17  1  0  0  0  0
 17 18  2  0  0  0  0
 19 20  2  0  0  0  0
 19 21  1  0  0  0  0
 19 22  2  0  0  0  0
 23 24  1  0  0  0  0
 23 25  1  0  0  0  0
 24 32  1  0  0  0  0
 26 27  1  0  0  0  0
 26 28  1  0  0  0  0
 27 32  1  0  0  0  0
 29 30  1  0  0  0  0
 29 31  1  0  0  0  0
 30 32  1  0  0  0  0
M  END
> <ID>
5514

> <Formula>
C24H45NO6S

> <FW>
475.6822 (326.4940+149.1882)

> <DSSTox_CID>
7932

> <DSSTox_RID>
78617

> <DSSTox_GSID>
27932

> <DSSTox_FileID_Sort>
3299

> <TS_ChemName>
Dodecylbenzene sulfonate triethanolamine (1:1)

> <TS_ChemName_Synonyms>
Benzenesulfonic acid, dodecyl-, compd. with 2,2',2''-nitrilotris[ethanol] (1:1)

> <TS_CASRN>
27323-41-7

> <CASRN_ChemName_Relationship>
primary

> <TS_Description>
mixture or formulation

> <ChemNote>
mixture of benzenesulfonic acid complexes; benzene sulfonated at C4 and dodecyl chain attached at any position except terminal carbons; structure shown attached at C3

> <STRUCTURE_Shown>
representative component

> <STRUCTURE_Formula>
C24H45NO6S

> <STRUCTURE_MW>
475.6822

> <STRUCTURE_ChemType>
defined organic

> <STRUCTURE_DefinedOrganicForm>
complex

> <STRUCTURE_IUPAC>
4-(dodecan-3-yl)benzenesulfonic acid - 2,2',2''-nitrilotriethanol (1:1)

> <STRUCTURE_SMILES>
OS(=O)(=O)c1ccc(cc1)C(CC)CCCCCCCCC.OCCN(CCO)CCO

> <STRUCTURE_SMILES_Desalt>
OS(=O)(=O)c1ccc(cc1)C(CC)CCCCCCCCC

> <Substance_modify_yyyymmdd>
20080429

$$$$
