27344-41-8
ChemmineR-0915142007XD

 38 39  0  0  0  0  0  0  0  0  2 V2000
    8.2414   -4.6701    0.0000 C    0  0  0  0  0  0  0  0  0  0  0  0
    9.4135   -3.9925    0.0000 C    0  0  0  0  0  0  0  0  0  0  0  0
    8.2414   -6.0071    0.0000 C    0  0  0  0  0  0  0  0  0  0  0  0
    7.0876   -3.9925    0.0000 C    0  0  0  0  0  0  0  0  0  0  0  0
    9.4135   -2.6556    0.0000 C    0  0  0  0  0  0  0  0  0  0  0  0
   10.5673   -4.6701    0.0000 C    0  0  0  0  0  0  0  0  0  0  0  0
    7.0876   -6.6481    0.0000 C    0  0  0  0  0  0  0  0  0  0  0  0
   10.5673   -1.9962    0.0000 C    0  0  0  0  0  0  0  0  0  0  0  0
   11.7211   -3.9925    0.0000 C    0  0  0  0  0  0  0  0  0  0  0  0
    5.9338   -4.6701    0.0000 C    0  0  0  0  0  0  0  0  0  0  0  0
    5.9338   -6.0071    0.0000 C    0  0  0  0  0  0  0  0  0  0  0  0
   11.7211   -2.6556    0.0000 C    0  0  0  0  0  0  0  0  0  0  0  0
    4.7800   -6.6481    0.0000 C    0  0  0  0  0  0  0  0  0  0  0  0
    3.6262   -6.0071    0.0000 C    0  0  0  0  0  0  0  0  0  0  0  0
    2.4724   -6.6481    0.0000 C    0  0  0  0  0  0  0  0  0  0  0  0
    2.4724   -7.9850    0.0000 C    0  0  0  0  0  0  0  0  0  0  0  0
    0.1831   -7.9850    0.0000 C    0  0  0  0  0  0  0  0  0  0  0  0
    0.1831   -6.6481    0.0000 C    0  0  0  0  0  0  0  0  0  0  0  0
    1.3369   -8.6626    0.0000 C    0  0  0  0  0  0  0  0  0  0  0  0
    1.3369   -6.0071    0.0000 C    0  0  0  0  0  0  0  0  0  0  0  0
    1.3369   -4.6701    0.0000 S    0  0  0  0  0  0  0  0  0  0  0  0
    2.6556   -4.6701    0.0000 O    0  0  0  0  0  0  0  0  0  0  0  0
    0.0000   -4.6701    0.0000 O    0  0  0  0  0  0  0  0  0  0  0  0
    1.3369   -3.3332    0.0000 O    0  5  0  0  0  0  0  0  0  0  0  0
   12.8566   -1.9962    0.0000 C    0  0  0  0  0  0  0  0  0  0  0  0
   14.0104   -2.6556    0.0000 C    0  0  0  0  0  0  0  0  0  0  0  0
   15.1642   -1.9962    0.0000 C    0  0  0  0  0  0  0  0  0  0  0  0
   15.1642   -0.6776    0.0000 C    0  0  0  0  0  0  0  0  0  0  0  0
   17.4718   -0.6776    0.0000 C    0  0  0  0  0  0  0  0  0  0  0  0
   17.4718   -1.9962    0.0000 C    0  0  0  0  0  0  0  0  0  0  0  0
   16.3180    0.0000    0.0000 C    0  0  0  0  0  0  0  0  0  0  0  0
   16.3180   -2.6556    0.0000 C    0  0  0  0  0  0  0  0  0  0  0  0
   16.3180   -3.9925    0.0000 S    0  0  0  0  0  0  0  0  0  0  0  0
   14.9993   -3.9925    0.0000 O    0  0  0  0  0  0  0  0  0  0  0  0
   17.6549   -3.9925    0.0000 O    0  0  0  0  0  0  0  0  0  0  0  0
   16.3180   -5.3294    0.0000 O    0  5  0  0  0  0  0  0  0  0  0  0
   18.3142   -5.4393    0.0000 Na   0  3  0  0  0  0  0  0  0  0  0  0
    3.0768   -2.6189    0.0000 Na   0  3  0  0  0  0  0  0  0  0  0  0
  1  2  1  0  0  0  0
  1  3  2  0  0  0  0
  1  4  1  0  0  0  0
  2  5  2  0  0  0  0
  2  6  1  0  0  0  0
  3  7  1  0  0  0  0
  4 10  2  0  0  0  0
  5  8  1  0  0  0  0
  6  9  2  0  0  0  0
  7 11  2  0  0  0  0
  8 12  2  0  0  0  0
  9 12  1  0  0  0  0
 10 11  1  0  0  0  0
 11 13  1  0  0  0  0
 12 25  1  0  0  0  0
 13 14  2  3  0  0  0
 14 15  1  0  0  0  0
 15 16  2  0  0  0  0
 15 20  1  0  0  0  0
 16 19  1  0  0  0  0
 17 18  1  0  0  0  0
 17 19  2  0  0  0  0
 18 20  2  0  0  0  0
 20 21  1  0  0  0  0
 21 22  2  0  0  0  0
 21 23  2  0  0  0  0
 21 24  1  0  0  0  0
 25 26  2  3  0  0  0
 26 27  1  0  0  0  0
 27 28  2  0  0  0  0
 27 32  1  0  0  0  0
 28 31  1  0  0  0  0
 29 30  1  0  0  0  0
 29 31  2  0  0  0  0
 30 32  2  0  0  0  0
 32 33  1  0  0  0  0
 33 34  2  0  0  0  0
 33 35  2  0  0  0  0
 33 36  1  0  0  0  0
M  END
> <ID>
7121

> <Formula>
C28H20Na2O6S2

> <FW>
562.5643 (516.5859+22.9892+22.9892)

> <DSSTox_CID>
16467

> <DSSTox_RID>
79282

> <DSSTox_GSID>
36467

> <DSSTox_FileID_Sort>
3964

> <TS_ChemName>
Disodium 4,4'-bis(2-sulfostyryl)biphenyl

> <TS_ChemName_Synonyms>
Disodium 4,4'-bis(2-sulfostyryl)biphenyl (Benzenesulfonic acid, 2,2'-([1,1'-biphenyl]-4,4'-diyldi-2,1-ethenediyl)bis-, disodium salt)

> <TS_CASRN>
27344-41-8

> <CASRN_ChemName_Relationship>
primary

> <TS_Description>
mixture of Z,E isomers

> <ChemNote>
mixture of Z,E isomers; parent [38775-22-3]

> <STRUCTURE_Shown>
representative isomer in mixture

> <STRUCTURE_Formula>
C28H20Na2O6S2

> <STRUCTURE_MW>
562.5643

> <STRUCTURE_ChemType>
defined organic

> <STRUCTURE_DefinedOrganicForm>
salt

> <STRUCTURE_IUPAC>
disodium 2,2'-(biphenyl-4,4'-diyldiethene-2,1-diyl)dibenzenesulfonate

> <STRUCTURE_SMILES>
[Na+].[Na+].O=S([O-])(=O)c4ccccc4C=Cc1ccc(cc1)c3ccc(C=Cc2ccccc2S([O-])(=O)=O)cc3

> <STRUCTURE_SMILES_Desalt>
OS(=O)(=O)c4ccccc4C=Cc1ccc(cc1)c3ccc(C=Cc2ccccc2S(=O)(=O)O)cc3

> <Substance_modify_yyyymmdd>
20110626

$$$$
