2735-04-8
ChemmineR-0915142007XD

 11 11  0  0  0  0  0  0  0  0  1 V2000
    4.6072   -1.9893    0.0000 C   0  0  0  0  0  0  0  0  0  0  0  0
    3.4537   -2.6593    0.0000 C   0  0  0  0  0  0  0  0  0  0  0  0
    2.3001   -1.9893    0.0000 C   0  0  0  0  0  0  0  0  0  0  0  0
    2.3001   -0.6631    0.0000 C   0  0  0  0  0  0  0  0  0  0  0  0
    3.4537    0.0000    0.0000 C   0  0  0  0  0  0  0  0  0  0  0  0
    4.6072   -0.6631    0.0000 C   0  0  0  0  0  0  0  0  0  0  0  0
    5.7538    0.0000    0.0000 N   0  0  0  0  0  0  0  0  0  0  0  0
    1.1535   -2.6593    0.0000 O   0  0  0  0  0  0  0  0  0  0  0  0
    0.0000   -1.9893    0.0000 C   0  0  0  0  0  0  0  0  0  0  0  0
    5.7538   -2.6593    0.0000 O   0  0  0  0  0  0  0  0  0  0  0  0
    6.9073   -1.9893    0.0000 C   0  0  0  0  0  0  0  0  0  0  0  0
  1  2  2  0  0  0  0
  1  6  1  0  0  0  0
  1 10  1  0  0  0  0
  2  3  1  0  0  0  0
  3  4  2  0  0  0  0
  3  8  1  0  0  0  0
  4  5  1  0  0  0  0
  5  6  2  0  0  0  0
  6  7  1  0  0  0  0
  8  9  1  0  0  0  0
 10 11  1  0  0  0  0
M  END
> <ID>
9661

> <Formula>
C8H11NO2

> <FW>
153.1784

> <DSSTox_CID>
23829

> <DSSTox_RID>
80076

> <DSSTox_GSID>
43829

> <DSSTox_FileID_Sort>
4758

> <TS_ChemName>
2,4-Dimethoxyaniline

> <TS_ChemName_Synonyms>


> <TS_CASRN>
2735-04-8

> <CASRN_ChemName_Relationship>
primary

> <TS_Description>
single chemical compound

> <ChemNote>


> <STRUCTURE_Shown>
tested chemical

> <STRUCTURE_Formula>
C8H11NO2

> <STRUCTURE_MW>
153.1784

> <STRUCTURE_ChemType>
defined organic

> <STRUCTURE_DefinedOrganicForm>
parent

> <STRUCTURE_IUPAC>
2,4-dimethoxyaniline

> <STRUCTURE_SMILES>
Nc1ccc(cc1OC)OC

> <STRUCTURE_SMILES_Desalt>
Nc1ccc(cc1OC)OC

> <Substance_modify_yyyymmdd>
20081229

$$$$
