2740-04-7
ChemmineR-0915142007XD

 25 26  0  0  0  0  0  0  0  0  1 V2000
   10.3716   -3.3293    0.0000 C    0  0  0  0  0  0  0  0  0  0  0  0
    9.2203   -3.9827    0.0000 O    0  0  0  0  0  0  0  0  0  0  0  0
    8.0691   -3.3293    0.0000 C    0  0  0  0  0  0  0  0  0  0  0  0
    6.9178   -3.9827    0.0000 C    0  0  0  0  0  0  0  0  0  0  0  0
    6.9178   -5.3310    0.0000 C    0  0  0  0  0  0  0  0  0  0  0  0
    8.0691   -5.9844    0.0000 N    0  0  0  0  0  0  0  0  0  0  0  0
    9.2203   -5.3310    0.0000 C    0  0  0  0  0  0  0  0  0  0  0  0
    8.0691   -7.3120    0.0000 C    0  0  0  0  0  0  0  0  0  0  0  0
    5.7666   -3.3293    0.0000 C    0  0  0  0  0  0  0  0  0  0  0  0
    5.7666   -2.0017    0.0000 C    0  0  0  0  0  0  0  0  0  0  0  0
    6.9178   -1.3276    0.0000 C    0  0  0  0  0  0  0  0  0  0  0  0
    8.0691   -2.0017    0.0000 C    0  0  0  0  0  0  0  0  0  0  0  0
    4.6050   -1.3276    0.0000 C    0  0  0  0  0  0  0  0  0  0  0  0
    4.6050    0.0000    0.0000 O    0  0  0  0  0  0  0  0  0  0  0  0
    3.4537   -2.0017    0.0000 C    0  0  0  0  0  0  0  0  0  0  0  0
    3.4537   -3.3293    0.0000 C    0  0  0  0  0  0  0  0  0  0  0  0
    4.6050   -3.9827    0.0000 O    0  0  0  0  0  0  0  0  0  0  0  0
    2.3025   -3.9827    0.0000 C    0  0  0  0  0  0  0  0  0  0  0  0
    2.3025   -5.3310    0.0000 C    0  0  0  0  0  0  0  0  0  0  0  0
    1.1512   -5.9844    0.0000 C    0  0  0  0  0  0  0  0  0  0  0  0
    0.0000   -5.3310    0.0000 C    0  0  0  0  0  0  0  0  0  0  0  0
    0.0000   -3.9827    0.0000 C    0  0  0  0  0  0  0  0  0  0  0  0
    1.1512   -3.3293    0.0000 C    0  0  0  0  0  0  0  0  0  0  0  0
    2.3025   -1.3276    0.0000 C    0  0  0  0  0  0  0  0  0  0  0  0
    4.9784   -5.3725    0.0000 Cl   0  0  0  0  0  0  0  0  0  0  0  0
  1  2  1  0  0  0  0
  2  3  1  0  0  0  0
  3  4  2  0  0  0  0
  3 12  1  0  0  0  0
  4  5  1  0  0  0  0
  4  9  1  0  0  0  0
  5  6  1  0  0  0  0
  6  7  1  0  0  0  0
  6  8  1  0  0  0  0
  9 10  2  0  0  0  0
  9 17  1  0  0  0  0
 10 11  1  0  0  0  0
 10 13  1  0  0  0  0
 11 12  2  0  0  0  0
 13 14  2  0  0  0  0
 13 15  1  0  0  0  0
 15 16  2  0  0  0  0
 15 24  1  0  0  0  0
 16 17  1  0  0  0  0
 16 18  1  0  0  0  0
 18 19  2  0  0  0  0
 18 23  1  0  0  0  0
 19 20  1  0  0  0  0
 20 21  2  0  0  0  0
 21 22  1  0  0  0  0
 22 23  2  0  0  0  0
M  END
> <ID>
12014

> <Formula>
C20H22ClNO3

> <FW>
359.8466 (323.3856+36.4609)

> <DSSTox_CID>
26841

> <DSSTox_RID>
81951

> <DSSTox_GSID>
46841

> <DSSTox_FileID_Sort>
6632

> <TS_ChemName>
Dimefline hydrochloride

> <TS_ChemName_Synonyms>


> <TS_CASRN>
2740-04-7

> <CASRN_ChemName_Relationship>
primary

> <TS_Description>
single chemical compound

> <ChemNote>
parent [1165-48-6]

> <STRUCTURE_Shown>
tested chemical

> <STRUCTURE_Formula>
C20H22ClNO3

> <STRUCTURE_MW>
359.8466

> <STRUCTURE_ChemType>
defined organic

> <STRUCTURE_DefinedOrganicForm>
complex

> <STRUCTURE_IUPAC>
8-[(dimethylamino)methyl]-7-methoxy-3-methyl-2-phenyl-4H-chromen-4-one hydrochloride (1:1)

> <STRUCTURE_SMILES>
Cl.CN(C)Cc3c(ccc1c3OC(=C(C)C1=O)c2ccccc2)OC

> <STRUCTURE_SMILES_Desalt>
CN(C)Cc3c(ccc1c3OC(=C(C)C1=O)c2ccccc2)OC

> <Substance_modify_yyyymmdd>
20120529

$$$$
