2743-38-6
ChemmineR-0915142007XD

 26 27  0  0  1  0  0  0  0  0  1 V2000
    6.9089   -1.9849    0.0000 C   0  0  0  0  0  0  0  0  0  0  0  0
    5.7638   -2.6592    0.0000 C   0  0  0  0  0  0  0  0  0  0  0  0
    8.0922   -2.6592    0.0000 O   0  0  0  0  0  0  0  0  0  0  0  0
    6.9089   -0.6743    0.0000 C   0  0  0  0  0  0  0  0  0  0  0  0
    4.6314   -1.9849    0.0000 O   0  0  0  0  0  0  0  0  0  0  0  0
    5.7638   -3.9697    0.0000 C   0  0  0  0  0  0  0  0  0  0  0  0
    9.2500   -1.9849    0.0000 C   0  0  0  0  0  0  0  0  0  0  0  0
    8.0922    0.0000    0.0000 O   0  0  0  0  0  0  0  0  0  0  0  0
    5.7638    0.0000    0.0000 O   0  0  0  0  0  0  0  0  0  0  0  0
    3.4481   -2.6592    0.0000 C   0  0  0  0  0  0  0  0  0  0  0  0
    4.6314   -4.6441    0.0000 O   0  0  0  0  0  0  0  0  0  0  0  0
    6.9089   -4.6441    0.0000 O   0  0  0  0  0  0  0  0  0  0  0  0
    9.2500   -0.6743    0.0000 O   0  0  0  0  0  0  0  0  0  0  0  0
   10.3824   -2.6592    0.0000 C   0  0  0  0  0  0  0  0  0  0  0  0
    3.4481   -3.9697    0.0000 O   0  0  0  0  0  0  0  0  0  0  0  0
    2.2902   -1.9849    0.0000 C   0  0  0  0  0  0  0  0  0  0  0  0
   11.5657   -1.9849    0.0000 C   0  0  0  0  0  0  0  0  0  0  0  0
   10.3824   -3.9697    0.0000 C   0  0  0  0  0  0  0  0  0  0  0  0
    1.1578   -2.6592    0.0000 C   0  0  0  0  0  0  0  0  0  0  0  0
    2.2902   -0.6743    0.0000 C   0  0  0  0  0  0  0  0  0  0  0  0
   12.7235   -2.6592    0.0000 C   0  0  0  0  0  0  0  0  0  0  0  0
   11.5657   -4.6441    0.0000 C   0  0  0  0  0  0  0  0  0  0  0  0
    0.0000   -1.9849    0.0000 C   0  0  0  0  0  0  0  0  0  0  0  0
    1.1578    0.0000    0.0000 C   0  0  0  0  0  0  0  0  0  0  0  0
   12.7235   -3.9697    0.0000 C   0  0  0  0  0  0  0  0  0  0  0  0
    0.0000   -0.6743    0.0000 C   0  0  0  0  0  0  0  0  0  0  0  0
  1  2  1  0  0  0  0
  1  3  1  0  0  0  0
  1  4  1  6  0  0  0
  2  5  1  0  0  0  0
  2  6  1  6  0  0  0
  3  7  1  0  0  0  0
  4  8  2  0  0  0  0
  4  9  1  0  0  0  0
  5 10  1  0  0  0  0
  6 11  2  0  0  0  0
  6 12  1  0  0  0  0
  7 13  2  0  0  0  0
  7 14  1  0  0  0  0
 10 15  2  0  0  0  0
 10 16  1  0  0  0  0
 14 17  2  0  0  0  0
 14 18  1  0  0  0  0
 16 19  2  0  0  0  0
 16 20  1  0  0  0  0
 17 21  1  0  0  0  0
 18 22  2  0  0  0  0
 19 23  1  0  0  0  0
 20 24  2  0  0  0  0
 21 25  2  0  0  0  0
 22 25  1  0  0  0  0
 23 26  2  0  0  0  0
 24 26  1  0  0  0  0
M  END
> <ID>
6621

> <Formula>
C18H14O8

> <FW>
358.299

> <DSSTox_CID>
13401

> <DSSTox_RID>
79071

> <DSSTox_GSID>
33401

> <DSSTox_FileID_Sort>
3753

> <TS_ChemName>
Dibenzoyl-L-tartaric acid

> <TS_ChemName_Synonyms>
Dibenzoyl-L-tartaric acid (Butanedioic acid, 2,3-bis(benzoyloxy)-, (2R,3R)-)

> <TS_CASRN>
2743-38-6

> <CASRN_ChemName_Relationship>
primary

> <TS_Description>
single chemical compound

> <ChemNote>
stereochem

> <STRUCTURE_Shown>
tested chemical

> <STRUCTURE_Formula>
C18H14O8

> <STRUCTURE_MW>
358.299

> <STRUCTURE_ChemType>
defined organic

> <STRUCTURE_DefinedOrganicForm>
parent

> <STRUCTURE_IUPAC>
(2R,3R)-2,3-bis(benzoyloxy)butanedioic acid

> <STRUCTURE_SMILES>
O=C(O)[C@H](OC(=O)c1ccccc1)[C@@H](OC(=O)c2ccccc2)C(=O)O

> <STRUCTURE_SMILES_Desalt>
O=C(O)[C@H](OC(=O)c1ccccc1)[C@@H](OC(=O)c2ccccc2)C(=O)O

> <Substance_modify_yyyymmdd>
20080429

$$$$
