27469-60-9
ChemmineR-0915142007XD

 21 23  0  0  0  0  0  0  0  0  1 V2000
    7.9831   -8.0637    0.0000 F   0  0  0  0  0  0  0  0  0  0  0  0
    7.3138   -6.9106    0.0000 C   0  0  0  0  0  0  0  0  0  0  0  0
    7.9831   -5.7575    0.0000 C   0  0  0  0  0  0  0  0  0  0  0  0
    7.3138   -4.6044    0.0000 C   0  0  0  0  0  0  0  0  0  0  0  0
    5.9833   -4.6044    0.0000 C   0  0  0  0  0  0  0  0  0  0  0  0
    5.3221   -5.7575    0.0000 C   0  0  0  0  0  0  0  0  0  0  0  0
    5.9833   -6.9106    0.0000 C   0  0  0  0  0  0  0  0  0  0  0  0
    5.3221   -3.4593    0.0000 C   0  0  0  0  0  0  0  0  0  0  0  0
    5.9833   -2.3062    0.0000 N   0  0  0  0  0  0  0  0  0  0  0  0
    7.3138   -2.3062    0.0000 C   0  0  0  0  0  0  0  0  0  0  0  0
    7.9831   -1.1531    0.0000 C   0  0  0  0  0  0  0  0  0  0  0  0
    7.3138    0.0000    0.0000 N   0  0  0  0  0  0  0  0  0  0  0  0
    5.9833    0.0000    0.0000 C   0  0  0  0  0  0  0  0  0  0  0  0
    5.3221   -1.1531    0.0000 C   0  0  0  0  0  0  0  0  0  0  0  0
    3.9915   -3.4593    0.0000 C   0  0  0  0  0  0  0  0  0  0  0  0
    3.3223   -2.3062    0.0000 C   0  0  0  0  0  0  0  0  0  0  0  0
    1.9917   -2.3062    0.0000 C   0  0  0  0  0  0  0  0  0  0  0  0
    1.3305   -3.4593    0.0000 C   0  0  0  0  0  0  0  0  0  0  0  0
    0.0000   -3.4593    0.0000 F   0  0  0  0  0  0  0  0  0  0  0  0
    1.9917   -4.6044    0.0000 C   0  0  0  0  0  0  0  0  0  0  0  0
    3.3223   -4.6044    0.0000 C   0  0  0  0  0  0  0  0  0  0  0  0
  1  2  1  0  0  0  0
  2  3  2  0  0  0  0
  2  7  1  0  0  0  0
  3  4  1  0  0  0  0
  4  5  2  0  0  0  0
  5  6  1  0  0  0  0
  5  8  1  0  0  0  0
  6  7  2  0  0  0  0
  8  9  1  0  0  0  0
  8 15  1  0  0  0  0
  9 10  1  0  0  0  0
  9 14  1  0  0  0  0
 10 11  1  0  0  0  0
 11 12  1  0  0  0  0
 12 13  1  0  0  0  0
 13 14  1  0  0  0  0
 15 16  2  0  0  0  0
 15 21  1  0  0  0  0
 16 17  1  0  0  0  0
 17 18  2  0  0  0  0
 18 19  1  0  0  0  0
 18 20  1  0  0  0  0
 20 21  2  0  0  0  0
M  END
> <ID>
16101

> <Formula>
C17H18F2N2

> <FW>
288.335

> <DSSTox_CID>
31488

> <DSSTox_RID>
97373

> <DSSTox_GSID>
57699

> <DSSTox_FileID_Sort>
8440

> <TS_ChemName>
1-(Bis(4-fluorophenyl)methyl)piperazine

> <TS_ChemName_Synonyms>


> <TS_CASRN>
27469-60-9

> <CASRN_ChemName_Relationship>
primary

> <TS_Description>
single chemical compound

> <ChemNote>


> <STRUCTURE_Shown>
tested chemical

> <STRUCTURE_Formula>
C17H18F2N2

> <STRUCTURE_MW>
288.335

> <STRUCTURE_ChemType>
defined organic

> <STRUCTURE_DefinedOrganicForm>
parent

> <STRUCTURE_IUPAC>
1-[bis(4-fluorophenyl)methyl]piperazine

> <STRUCTURE_SMILES>
Fc1ccc(cc1)C(c2ccc(F)cc2)N3CCNCC3

> <STRUCTURE_SMILES_Desalt>
Fc1ccc(cc1)C(c2ccc(F)cc2)N3CCNCC3

> <Substance_modify_yyyymmdd>
20131018

$$$$
