2748-88-1
ChemmineR-0915142007XD

 22 21  0  0  0  0  0  0  0  0  2 V2000
    0.0000   -1.9980    0.0000 C    0  0  0  0  0  0  0  0  0  0  0  0
    1.1557   -2.6640    0.0000 C    0  0  0  0  0  0  0  0  0  0  0  0
    2.3114   -1.9980    0.0000 C    0  0  0  0  0  0  0  0  0  0  0  0
    3.4671   -2.6640    0.0000 C    0  0  0  0  0  0  0  0  0  0  0  0
    4.6228   -1.9980    0.0000 C    0  0  0  0  0  0  0  0  0  0  0  0
    5.7784   -2.6640    0.0000 C    0  0  0  0  0  0  0  0  0  0  0  0
    6.9145   -1.9980    0.0000 C    0  0  0  0  0  0  0  0  0  0  0  0
    8.0702   -2.6640    0.0000 C    0  0  0  0  0  0  0  0  0  0  0  0
    9.2259   -1.9980    0.0000 C    0  0  0  0  0  0  0  0  0  0  0  0
   10.3620   -2.6640    0.0000 C    0  0  0  0  0  0  0  0  0  0  0  0
   11.5177   -1.9980    0.0000 C    0  0  0  0  0  0  0  0  0  0  0  0
   12.6734   -2.6640    0.0000 C    0  0  0  0  0  0  0  0  0  0  0  0
   13.8291   -1.9980    0.0000 C    0  0  0  0  0  0  0  0  0  0  0  0
   14.9848   -2.6640    0.0000 C    0  0  0  0  0  0  0  0  0  0  0  0
   16.1405   -1.9980    0.0000 N    0  3  0  0  0  0  0  0  0  0  0  0
   16.1405   -0.6856    0.0000 C    0  0  0  0  0  0  0  0  0  0  0  0
   17.2766    0.0000    0.0000 C    0  0  0  0  0  0  0  0  0  0  0  0
   18.4322   -0.6856    0.0000 C    0  0  0  0  0  0  0  0  0  0  0  0
   19.5879    0.0000    0.0000 C    0  0  0  0  0  0  0  0  0  0  0  0
   18.4322   -1.9980    0.0000 C    0  0  0  0  0  0  0  0  0  0  0  0
   17.2766   -2.6640    0.0000 C    0  0  0  0  0  0  0  0  0  0  0  0
   13.9858   -0.6268    0.0000 Cl   0  5  0  0  0  0  0  0  0  0  0  0
  1  2  1  0  0  0  0
  2  3  1  0  0  0  0
  3  4  1  0  0  0  0
  4  5  1  0  0  0  0
  5  6  1  0  0  0  0
  6  7  1  0  0  0  0
  7  8  1  0  0  0  0
  8  9  1  0  0  0  0
  9 10  1  0  0  0  0
 10 11  1  0  0  0  0
 11 12  1  0  0  0  0
 12 13  1  0  0  0  0
 13 14  1  0  0  0  0
 14 15  1  0  0  0  0
 15 16  2  0  0  0  0
 15 21  1  0  0  0  0
 16 17  1  0  0  0  0
 17 18  2  0  0  0  0
 18 19  1  0  0  0  0
 18 20  1  0  0  0  0
 20 21  2  0  0  0  0
M  END
> <ID>
12009

> <Formula>
C20H36ClN

> <FW>
325.9595 (290.5060+35.4535)

> <DSSTox_CID>
26834

> <DSSTox_RID>
81946

> <DSSTox_GSID>
46834

> <DSSTox_FileID_Sort>
6627

> <TS_ChemName>
Miripirium chloride

> <TS_ChemName_Synonyms>


> <TS_CASRN>
2748-88-1

> <CASRN_ChemName_Relationship>
primary

> <TS_Description>
single chemical compound

> <ChemNote>
ammonium; parent [7631-49-4]

> <STRUCTURE_Shown>
tested chemical

> <STRUCTURE_Formula>
C20H36ClN

> <STRUCTURE_MW>
325.9595

> <STRUCTURE_ChemType>
defined organic

> <STRUCTURE_DefinedOrganicForm>
salt

> <STRUCTURE_IUPAC>
4-methyl-1-tetradecylpyridinium chloride

> <STRUCTURE_SMILES>
[Cl-].Cc1cc[n+](CCCCCCCCCCCCCC)cc1

> <STRUCTURE_SMILES_Desalt>
Cc1cc[n+](CCCCCCCCCCCCCC)cc1

> <Substance_modify_yyyymmdd>
20110731

$$$$
