27511-99-5
ChemmineR-0915142007XD

 23 24  0  0  0  0  0  0  0  0  1 V2000
    5.0820   -5.9788    0.0000 O   0  0  0  0  0  0  0  0  0  0  0  0
    5.0820   -4.6464    0.0000 C   0  0  0  0  0  0  0  0  0  0  0  0
    3.9290   -3.9973    0.0000 C   0  0  0  0  0  0  0  0  0  0  0  0
    2.6307   -3.7496    0.0000 C   0  0  0  0  0  0  0  0  0  0  0  0
    1.7595   -4.7745    0.0000 C   0  0  0  0  0  0  0  0  0  0  0  0
    0.4612   -4.5525    0.0000 C   0  0  0  0  0  0  0  0  0  0  0  0
    0.0000   -3.2884    0.0000 C   0  0  0  0  0  0  0  0  0  0  0  0
    0.8627   -2.2805    0.0000 C   0  0  0  0  0  0  0  0  0  0  0  0
    2.1609   -2.5026    0.0000 C   0  0  0  0  0  0  0  0  0  0  0  0
    3.9290   -2.6649    0.0000 C   0  0  0  0  0  0  0  0  0  0  0  0
    2.7759   -1.9901    0.0000 O   0  0  0  0  0  0  0  0  0  0  0  0
    5.0820   -1.9901    0.0000 N   0  0  0  0  0  0  0  0  0  0  0  0
    6.2351   -2.6649    0.0000 C   0  0  0  0  0  0  0  0  0  0  0  0
    7.3881   -1.9901    0.0000 O   0  0  0  0  0  0  0  0  0  0  0  0
    6.2351   -3.9973    0.0000 N   0  0  0  0  0  0  0  0  0  0  0  0
    3.4763   -5.2272    0.0000 C   0  0  0  0  0  0  0  0  0  0  0  0
    2.1609   -5.4664    0.0000 C   0  0  0  0  0  0  0  0  0  0  0  0
    7.3881   -4.6464    0.0000 C   0  0  0  0  0  0  0  0  0  0  0  0
    7.3881   -5.9788    0.0000 O   0  0  0  0  0  0  0  0  0  0  0  0
    8.5412   -6.6536    0.0000 C   0  0  0  0  0  0  0  0  0  0  0  0
    5.0820   -0.6577    0.0000 C   0  0  0  0  0  0  0  0  0  0  0  0
    6.2351    0.0000    0.0000 O   0  0  0  0  0  0  0  0  0  0  0  0
    7.3881   -0.6577    0.0000 C   0  0  0  0  0  0  0  0  0  0  0  0
  1  2  2  0  0  0  0
  2  3  1  0  0  0  0
  2 15  1  0  0  0  0
  3  4  1  0  0  0  0
  3 10  1  0  0  0  0
  3 16  1  0  0  0  0
  4  5  2  0  0  0  0
  4  9  1  0  0  0  0
  5  6  1  0  0  0  0
  6  7  2  0  0  0  0
  7  8  1  0  0  0  0
  8  9  2  0  0  0  0
 10 11  2  0  0  0  0
 10 12  1  0  0  0  0
 12 13  1  0  0  0  0
 12 21  1  0  0  0  0
 13 14  2  0  0  0  0
 13 15  1  0  0  0  0
 15 18  1  0  0  0  0
 16 17  1  0  0  0  0
 18 19  1  0  0  0  0
 19 20  1  0  0  0  0
 21 22  1  0  0  0  0
 22 23  1  0  0  0  0
M  END
> <ID>
11151

> <Formula>
C16H20N2O5

> <FW>
320.3404

> <DSSTox_CID>
25710

> <DSSTox_RID>
81082

> <DSSTox_GSID>
45710

> <DSSTox_FileID_Sort>
5763

> <TS_ChemName>
Eterobarb

> <TS_ChemName_Synonyms>


> <TS_CASRN>
27511-99-5

> <CASRN_ChemName_Relationship>
primary

> <TS_Description>
single chemical compound

> <ChemNote>


> <STRUCTURE_Shown>
tested chemical

> <STRUCTURE_Formula>
C16H20N2O5

> <STRUCTURE_MW>
320.3404

> <STRUCTURE_ChemType>
defined organic

> <STRUCTURE_DefinedOrganicForm>
parent

> <STRUCTURE_IUPAC>
5-ethyl-1,3-bis(methoxymethyl)-5-phenylpyrimidine-2,4,6(1H,3H,5H)-trione

> <STRUCTURE_SMILES>
COCN1C(=O)C(CC)(C(=O)N(COC)C1=O)c2ccccc2

> <STRUCTURE_SMILES_Desalt>
COCN1C(=O)C(CC)(C(=O)N(COC)C1=O)c2ccccc2

> <Substance_modify_yyyymmdd>
20110529

$$$$
