27523-40-6
ChemmineR-0915142007XD

 25 27  0  0  0  0  0  0  0  0  1 V2000
    6.9211   -2.0156    0.0000 C    0  0  0  0  0  0  0  0  0  0  0  0
    3.4514   -4.0496    0.0000 C    0  0  0  0  0  0  0  0  0  0  0  0
    2.3009   -4.7123    0.0000 C    0  0  0  0  0  0  0  0  0  0  0  0
    5.7339   -6.7002    0.0000 N    0  0  0  0  0  0  0  0  0  0  0  0
    6.9948   -8.4397    0.0000 N    0  0  0  0  0  0  0  0  0  0  0  0
    4.6018   -4.7123    0.0000 C    0  0  0  0  0  0  0  0  0  0  0  0
    5.7339   -2.7059    0.0000 C    0  0  0  0  0  0  0  0  0  0  0  0
    5.7339   -8.0256    0.0000 C    0  0  0  0  0  0  0  0  0  0  0  0
    1.1505   -4.0496    0.0000 C    0  0  0  0  0  0  0  0  0  0  0  0
    3.4514   -2.7151    0.0000 C    0  0  0  0  0  0  0  0  0  0  0  0
    5.7339   -4.0496    0.0000 O    0  0  0  0  0  0  0  0  0  0  0  0
    4.6018   -6.0468    0.0000 C    0  0  0  0  0  0  0  0  0  0  0  0
    8.0532   -2.6875    0.0000 C    0  0  0  0  0  0  0  0  0  0  0  0
    6.9211   -0.6903    0.0000 C    0  0  0  0  0  0  0  0  0  0  0  0
    7.7771   -7.3721    0.0000 C    0  0  0  0  0  0  0  0  0  0  0  0
    6.9948   -6.2861    0.0000 C    0  0  0  0  0  0  0  0  0  0  0  0
    1.1505   -2.7151    0.0000 C    0  0  0  0  0  0  0  0  0  0  0  0
    2.3009   -6.0468    0.0000 Cl   0  0  0  0  0  0  0  0  0  0  0  0
    2.3009   -2.0616    0.0000 C    0  0  0  0  0  0  0  0  0  0  0  0
    5.7339    0.0000    0.0000 Cl   0  0  0  0  0  0  0  0  0  0  0  0
    8.0532   -4.0128    0.0000 Cl   0  0  0  0  0  0  0  0  0  0  0  0
    0.0000   -2.0340    0.0000 Cl   0  0  0  0  0  0  0  0  0  0  0  0
    9.2036   -0.6903    0.0000 C    0  0  0  0  0  0  0  0  0  0  0  0
    8.0532   -0.0368    0.0000 C    0  0  0  0  0  0  0  0  0  0  0  0
    9.2036   -2.0156    0.0000 C    0  0  0  0  0  0  0  0  0  0  0  0
  1  7  1  0  0  0  0
  1 13  1  0  0  0  0
  1 14  2  0  0  0  0
  2  6  1  0  0  0  0
  2  3  2  0  0  0  0
  2 10  1  0  0  0  0
  3  9  1  0  0  0  0
  3 18  1  0  0  0  0
  4 12  1  0  0  0  0
  4  8  1  0  0  0  0
  4 16  1  0  0  0  0
  5  8  2  0  0  0  0
  5 15  1  0  0  0  0
  6 11  1  0  0  0  0
  6 12  1  0  0  0  0
  7 11  1  0  0  0  0
  9 17  2  0  0  0  0
 10 19  2  0  0  0  0
 13 21  1  0  0  0  0
 13 25  2  0  0  0  0
 14 20  1  0  0  0  0
 14 24  1  0  0  0  0
 15 16  2  0  0  0  0
 17 19  1  0  0  0  0
 17 22  1  0  0  0  0
 23 24  2  0  0  0  0
 23 25  1  0  0  0  0
M  END
> <ID>
10954

> <Formula>
C18H14Cl4N2O

> <FW>
416.1286

> <DSSTox_CID>
25447

> <DSSTox_RID>
80886

> <DSSTox_GSID>
45447

> <DSSTox_FileID_Sort>
5567

> <TS_ChemName>
Isoconazole

> <TS_ChemName_Synonyms>


> <TS_CASRN>
27523-40-6

> <CASRN_ChemName_Relationship>
primary

> <TS_Description>
single chemical compound

> <ChemNote>


> <STRUCTURE_Shown>
tested chemical

> <STRUCTURE_Formula>
C18H14Cl4N2O

> <STRUCTURE_MW>
416.1286

> <STRUCTURE_ChemType>
defined organic

> <STRUCTURE_DefinedOrganicForm>
parent

> <STRUCTURE_IUPAC>
1-{2-[(2,6-dichlorobenzyl)oxy]-2-(2,4-dichlorophenyl)ethyl}-1H-imidazole

> <STRUCTURE_SMILES>
Clc3ccc(C(OCc1c(Cl)cccc1Cl)Cn2ccnc2)c(Cl)c3

> <STRUCTURE_SMILES_Desalt>
Clc3ccc(C(OCc1c(Cl)cccc1Cl)Cn2ccnc2)c(Cl)c3

> <Substance_modify_yyyymmdd>
20100107

$$$$
