2752-17-2
ChemmineR-0915142007XD

  7  6  0  0  0  0  0  0  0  0  1 V2000
    1.1578   -0.6586    0.0000 C   0  0  0  0  0  0  0  0  0  0  0  0
    2.3086    0.0000    0.0000 C   0  0  0  0  0  0  0  0  0  0  0  0
    0.0000    0.0000    0.0000 N   0  0  0  0  0  0  0  0  0  0  0  0
    5.7751   -0.6586    0.0000 C   0  0  0  0  0  0  0  0  0  0  0  0
    4.6242    0.0000    0.0000 C   0  0  0  0  0  0  0  0  0  0  0  0
    6.9328    0.0000    0.0000 N   0  0  0  0  0  0  0  0  0  0  0  0
    3.4664   -0.6586    0.0000 O   0  0  0  0  0  0  0  0  0  0  0  0
  1  2  1  0  0  0  0
  1  3  1  0  0  0  0
  2  7  1  0  0  0  0
  4  5  1  0  0  0  0
  4  6  1  0  0  0  0
  5  7  1  0  0  0  0
M  END
> <ID>
8860

> <Formula>
C4H12N2O

> <FW>
104.1509

> <DSSTox_CID>
21914

> <DSSTox_RID>
79875

> <DSSTox_GSID>
41914

> <DSSTox_FileID_Sort>
4557

> <TS_ChemName>
2,2'-Oxybis(ethylamine)

> <TS_ChemName_Synonyms>
Ethanamine, 2,2'-oxybis-

> <TS_CASRN>
2752-17-2

> <CASRN_ChemName_Relationship>
primary

> <TS_Description>
single chemical compound

> <ChemNote>


> <STRUCTURE_Shown>
tested chemical

> <STRUCTURE_Formula>
C4H12N2O

> <STRUCTURE_MW>
104.1509

> <STRUCTURE_ChemType>
defined organic

> <STRUCTURE_DefinedOrganicForm>
parent

> <STRUCTURE_IUPAC>
2,2'-oxydiethanamine

> <STRUCTURE_SMILES>
NCCOCCN

> <STRUCTURE_SMILES_Desalt>
NCCOCCN

> <Substance_modify_yyyymmdd>
20080825

$$$$
