2753-45-9
ChemmineR-0915142007XD

 32 32  0  0  0  0  0  0  0  0  1 V2000
   10.3528   -6.6501    0.0000 C    0  0  0  0  0  0  0  0  0  0  0  0
   11.5134   -5.9870    0.0000 C    0  0  0  0  0  0  0  0  0  0  0  0
   11.5134   -4.6606    0.0000 N    0  0  0  0  0  0  0  0  0  0  0  0
   10.3528   -3.9974    0.0000 C    0  0  0  0  0  0  0  0  0  0  0  0
    9.2107   -4.6606    0.0000 C    0  0  0  0  0  0  0  0  0  0  0  0
    8.0502   -3.9974    0.0000 C    0  0  0  0  0  0  0  0  0  0  0  0
    6.9080   -4.6606    0.0000 C    0  0  0  0  0  0  0  0  0  0  0  0
    5.7659   -3.9974    0.0000 O    0  0  0  0  0  0  0  0  0  0  0  0
    4.6054   -4.6606    0.0000 C    0  0  0  0  0  0  0  0  0  0  0  0
    4.6054   -5.9870    0.0000 O    0  0  0  0  0  0  0  0  0  0  0  0
    3.4448   -3.9974    0.0000 C    0  0  0  0  0  0  0  0  0  0  0  0
    2.3027   -4.6606    0.0000 C    0  0  0  0  0  0  0  0  0  0  0  0
    1.1421   -3.9974    0.0000 C    0  0  0  0  0  0  0  0  0  0  0  0
    1.1421   -2.6527    0.0000 C    0  0  0  0  0  0  0  0  0  0  0  0
    0.0000   -1.9895    0.0000 O    0  0  0  0  0  0  0  0  0  0  0  0
    0.0000   -0.6632    0.0000 C    0  0  0  0  0  0  0  0  0  0  0  0
    2.3027   -1.9895    0.0000 C    0  0  0  0  0  0  0  0  0  0  0  0
    3.4448   -2.6527    0.0000 C    0  0  0  0  0  0  0  0  0  0  0  0
    0.0000   -4.6606    0.0000 O    0  0  0  0  0  0  0  0  0  0  0  0
    0.0000   -5.9870    0.0000 C    0  0  0  0  0  0  0  0  0  0  0  0
   12.6555   -3.9974    0.0000 C    0  0  0  0  0  0  0  0  0  0  0  0
   13.8161   -4.6606    0.0000 C    0  0  0  0  0  0  0  0  0  0  0  0
   12.6555   -2.6527    0.0000 C    0  0  0  0  0  0  0  0  0  0  0  0
   13.8161   -1.9895    0.0000 C    0  0  0  0  0  0  0  0  0  0  0  0
   13.8161   -0.6632    0.0000 C    0  0  0  0  0  0  0  0  0  0  0  0
   14.9766    0.0000    0.0000 C    0  0  0  0  0  0  0  0  0  0  0  0
   16.1187   -0.6632    0.0000 C    0  0  0  0  0  0  0  0  0  0  0  0
   17.2609    0.0000    0.0000 O    0  0  0  0  0  0  0  0  0  0  0  0
   18.4214   -0.6632    0.0000 C    0  0  0  0  0  0  0  0  0  0  0  0
   16.1187   -1.9895    0.0000 C    0  0  0  0  0  0  0  0  0  0  0  0
   14.9766   -2.6527    0.0000 C    0  0  0  0  0  0  0  0  0  0  0  0
   17.6477   -4.0896    0.0000 Cl   0  0  0  0  0  0  0  0  0  0  0  0
  1  2  1  0  0  0  0
  2  3  1  0  0  0  0
  3  4  1  0  0  0  0
  3 21  1  0  0  0  0
  4  5  1  0  0  0  0
  5  6  1  0  0  0  0
  6  7  1  0  0  0  0
  7  8  1  0  0  0  0
  8  9  1  0  0  0  0
  9 10  2  0  0  0  0
  9 11  1  0  0  0  0
 11 12  2  0  0  0  0
 11 18  1  0  0  0  0
 12 13  1  0  0  0  0
 13 14  2  0  0  0  0
 13 19  1  0  0  0  0
 14 15  1  0  0  0  0
 14 17  1  0  0  0  0
 15 16  1  0  0  0  0
 17 18  2  0  0  0  0
 19 20  1  0  0  0  0
 21 22  1  0  0  0  0
 21 23  1  0  0  0  0
 23 24  1  0  0  0  0
 24 25  2  0  0  0  0
 24 31  1  0  0  0  0
 25 26  1  0  0  0  0
 26 27  2  0  0  0  0
 27 28  1  0  0  0  0
 27 30  1  0  0  0  0
 28 29  1  0  0  0  0
 30 31  2  0  0  0  0
M  END
> <ID>
10904

> <Formula>
C25H36ClNO5

> <FW>
466.0100 (429.5491+36.4609)

> <DSSTox_CID>
25372

> <DSSTox_RID>
80834

> <DSSTox_GSID>
45372

> <DSSTox_FileID_Sort>
5515

> <TS_ChemName>
Mebeverine hydrochloride

> <TS_ChemName_Synonyms>


> <TS_CASRN>
2753-45-9

> <CASRN_ChemName_Relationship>
primary

> <TS_Description>
single chemical compound

> <ChemNote>
parent [3625-06-7]

> <STRUCTURE_Shown>
tested chemical

> <STRUCTURE_Formula>
C25H36ClNO5

> <STRUCTURE_MW>
466.01

> <STRUCTURE_ChemType>
defined organic

> <STRUCTURE_DefinedOrganicForm>
complex

> <STRUCTURE_IUPAC>
4-{ethyl[1-(4-methoxyphenyl)propan-2-yl]amino}butyl 3,4-dimethoxybenzoate hydrochloride (1:1)

> <STRUCTURE_SMILES>
Cl.COc1cc(ccc1OC)C(=O)OCCCCN(CC)C(C)Cc2ccc(OC)cc2

> <STRUCTURE_SMILES_Desalt>
COc1cc(ccc1OC)C(=O)OCCCCN(CC)C(C)Cc2ccc(OC)cc2

> <Substance_modify_yyyymmdd>
20100107

$$$$
