27554-26-3
ChemmineR-0915142007XD

 28 28  0  0  0  0  0  0  0  0  1 V2000
    3.4538   -9.9746    0.0000 C   0  0  0  0  0  0  0  0  0  0  0  0
    2.3071  -10.6377    0.0000 C   0  0  0  0  0  0  0  0  0  0  0  0
    1.1467   -9.9746    0.0000 C   0  0  0  0  0  0  0  0  0  0  0  0
    1.1467   -8.6483    0.0000 C   0  0  0  0  0  0  0  0  0  0  0  0
    2.3071   -7.9714    0.0000 C   0  0  0  0  0  0  0  0  0  0  0  0
    3.4538   -8.6483    0.0000 C   0  0  0  0  0  0  0  0  0  0  0  0
    4.6143  -10.6377    0.0000 C   0  0  0  0  0  0  0  0  0  0  0  0
    4.6143  -11.9640    0.0000 O   0  0  0  0  0  0  0  0  0  0  0  0
    5.7471   -9.9746    0.0000 O   0  0  0  0  0  0  0  0  0  0  0  0
    4.6143   -7.9714    0.0000 C   0  0  0  0  0  0  0  0  0  0  0  0
    5.7471   -8.6483    0.0000 O   0  0  0  0  0  0  0  0  0  0  0  0
    4.6143   -6.6451    0.0000 O   0  0  0  0  0  0  0  0  0  0  0  0
    6.8938  -10.6377    0.0000 C   0  0  0  0  0  0  0  0  0  0  0  0
    8.0543   -9.9746    0.0000 C   0  0  0  0  0  0  0  0  0  0  0  0
    9.2009  -10.6377    0.0000 C   0  0  0  0  0  0  0  0  0  0  0  0
   10.3614   -9.9746    0.0000 C   0  0  0  0  0  0  0  0  0  0  0  0
   11.5081  -10.6377    0.0000 C   0  0  0  0  0  0  0  0  0  0  0  0
   12.6686   -9.9746    0.0000 C   0  0  0  0  0  0  0  0  0  0  0  0
   12.6686   -8.6483    0.0000 C   0  0  0  0  0  0  0  0  0  0  0  0
    3.4538   -5.9958    0.0000 C   0  0  0  0  0  0  0  0  0  0  0  0
    3.4538   -4.6696    0.0000 C   0  0  0  0  0  0  0  0  0  0  0  0
    2.3071   -3.9926    0.0000 C   0  0  0  0  0  0  0  0  0  0  0  0
    2.3071   -2.6663    0.0000 C   0  0  0  0  0  0  0  0  0  0  0  0
    1.1467   -2.0032    0.0000 C   0  0  0  0  0  0  0  0  0  0  0  0
    1.1467   -0.6769    0.0000 C   0  0  0  0  0  0  0  0  0  0  0  0
    0.0000    0.0000    0.0000 C   0  0  0  0  0  0  0  0  0  0  0  0
    2.3071    0.0000    0.0000 C   0  0  0  0  0  0  0  0  0  0  0  0
   13.8152  -10.6377    0.0000 C   0  0  0  0  0  0  0  0  0  0  0  0
  1  2  2  0  0  0  0
  1  6  1  0  0  0  0
  1  7  1  0  0  0  0
  2  3  1  0  0  0  0
  3  4  2  0  0  0  0
  4  5  1  0  0  0  0
  5  6  2  0  0  0  0
  6 10  1  0  0  0  0
  7  8  2  0  0  0  0
  7  9  1  0  0  0  0
  9 13  1  0  0  0  0
 10 11  2  0  0  0  0
 10 12  1  0  0  0  0
 12 20  1  0  0  0  0
 13 14  1  0  0  0  0
 14 15  1  0  0  0  0
 15 16  1  0  0  0  0
 16 17  1  0  0  0  0
 17 18  1  0  0  0  0
 18 19  1  0  0  0  0
 18 28  1  0  0  0  0
 20 21  1  0  0  0  0
 21 22  1  0  0  0  0
 22 23  1  0  0  0  0
 23 24  1  0  0  0  0
 24 25  1  0  0  0  0
 25 26  1  0  0  0  0
 25 27  1  0  0  0  0
M  END
> <ID>
5515

> <Formula>
C24H38O4

> <FW>
390.5561

> <DSSTox_CID>
7933

> <DSSTox_RID>
78618

> <DSSTox_GSID>
27933

> <DSSTox_FileID_Sort>
3300

> <TS_ChemName>
Diisooctyl phthalate

> <TS_ChemName_Synonyms>


> <TS_CASRN>
27554-26-3

> <CASRN_ChemName_Relationship>
primary

> <TS_Description>
mixture or formulation

> <ChemNote>
mixture of isooctyl isomers; structure shown 6-methylheptyl

> <STRUCTURE_Shown>
representative isomer in mixture

> <STRUCTURE_Formula>
C24H38O4

> <STRUCTURE_MW>
390.5561

> <STRUCTURE_ChemType>
defined organic

> <STRUCTURE_DefinedOrganicForm>
parent

> <STRUCTURE_IUPAC>
bis(6-methylheptyl) benzene-1,2-dicarboxylate

> <STRUCTURE_SMILES>
CC(C)CCCCCOC(=O)c1ccccc1C(=O)OCCCCCC(C)C

> <STRUCTURE_SMILES_Desalt>
CC(C)CCCCCOC(=O)c1ccccc1C(=O)OCCCCCC(C)C

> <Substance_modify_yyyymmdd>
20080429

$$$$
