27589-33-9
ChemmineR-0915142007XD

 23 25  0  0  0  0  0  0  0  0  1 V2000
    9.0143   -1.2979    0.0000 S    0  0  0  0  0  0  0  0  0  0  0  0
    7.8381   -1.9874    0.0000 C    0  0  0  0  0  0  0  0  0  0  0  0
    6.7024   -3.9849    0.0000 C    0  0  0  0  0  0  0  0  0  0  0  0
    6.7024   -5.2930    0.0000 C    0  0  0  0  0  0  0  0  0  0  0  0
    6.0737   -7.3412    0.0000 N    0  0  0  0  0  0  0  0  0  0  0  0
    5.6377   -6.0332    0.0000 N    0  0  0  0  0  0  0  0  0  0  0  0
    7.3716   -7.3209    0.0000 N    0  0  0  0  0  0  0  0  0  0  0  0
    7.8381   -3.3157    0.0000 C    0  0  0  0  0  0  0  0  0  0  0  0
    7.7874   -6.0332    0.0000 N    0  0  0  0  0  0  0  0  0  0  0  0
    5.5465   -3.3157    0.0000 C    0  0  0  0  0  0  0  0  0  0  0  0
    6.7024   -1.2979    0.0000 C    0  0  0  0  0  0  0  0  0  0  0  0
    5.5465   -1.9874    0.0000 C    0  0  0  0  0  0  0  0  0  0  0  0
    4.4007   -3.9849    0.0000 N    0  0  0  0  0  0  0  0  0  0  0  0
    0.9024   -3.4678    0.0000 S    0  0  0  0  0  0  0  0  0  0  0  0
    9.6936   -2.4640    0.0000 O    0  0  0  0  0  0  0  0  0  0  0  0
    8.3146   -0.1420    0.0000 O    0  0  0  0  0  0  0  0  0  0  0  0
    2.0989   -3.9849    0.0000 C    0  0  0  0  0  0  0  0  0  0  0  0
   10.1398   -0.5982    0.0000 N    0  0  0  0  0  0  0  0  0  0  0  0
    0.0000   -4.4514    0.0000 C    0  0  0  0  0  0  0  0  0  0  0  0
    1.9975   -5.2930    0.0000 C    0  0  0  0  0  0  0  0  0  0  0  0
    0.6692   -5.5972    0.0000 C    0  0  0  0  0  0  0  0  0  0  0  0
    3.2245   -3.3157    0.0000 C    0  0  0  0  0  0  0  0  0  0  0  0
    6.7024    0.0000    0.0000 Cl   0  0  0  0  0  0  0  0  0  0  0  0
  1  2  1  0  0  0  0
  1 15  2  0  0  0  0
  1 16  2  0  0  0  0
  1 18  1  0  0  0  0
  2  8  2  0  0  0  0
  2 11  1  0  0  0  0
  3  8  1  0  0  0  0
  3  4  1  0  0  0  0
  3 10  2  0  0  0  0
  4  6  2  0  0  0  0
  4  9  1  0  0  0  0
  5  6  1  0  0  0  0
  5  7  2  0  0  0  0
  7  9  1  0  0  0  0
 10 12  1  0  0  0  0
 10 13  1  0  0  0  0
 11 12  2  0  0  0  0
 11 23  1  0  0  0  0
 13 22  1  0  0  0  0
 14 17  1  0  0  0  0
 14 19  1  0  0  0  0
 17 22  1  0  0  0  0
 17 20  2  0  0  0  0
 19 21  2  0  0  0  0
 20 21  1  0  0  0  0
M  END
> <ID>
12070

> <Formula>
C12H11ClN6O2S2

> <FW>
370.8377

> <DSSTox_CID>
26910

> <DSSTox_RID>
82008

> <DSSTox_GSID>
46910

> <DSSTox_FileID_Sort>
6689

> <TS_ChemName>
Azosemide

> <TS_ChemName_Synonyms>


> <TS_CASRN>
27589-33-9

> <CASRN_ChemName_Relationship>
primary

> <TS_Description>
single chemical compound

> <ChemNote>
tautomers

> <STRUCTURE_Shown>
tested chemical

> <STRUCTURE_Formula>
C12H11ClN6O2S2

> <STRUCTURE_MW>
370.8377

> <STRUCTURE_ChemType>
defined organic

> <STRUCTURE_DefinedOrganicForm>
parent

> <STRUCTURE_IUPAC>
2-chloro-5-(1H-tetrazol-5-yl)-4-[(thiophen-2-ylmethyl)amino]benzenesulfonamide

> <STRUCTURE_SMILES>
NS(=O)(=O)c2cc(c(NCc1cccs1)cc2Cl)c3nnnn3

> <STRUCTURE_SMILES_Desalt>
NS(=O)(=O)c2cc(c(NCc1cccs1)cc2Cl)c3nnnn3

> <Substance_modify_yyyymmdd>
20110725

$$$$
