27593-23-3
ChemmineR-0915142007XD

 12 12  0  0  0  0  0  0  0  0  1 V2000
    4.6246    0.0000    0.0000 C   0  0  0  0  0  0  0  0  0  0  0  0
    5.7807   -0.6567    0.0000 C   0  0  0  0  0  0  0  0  0  0  0  0
    3.4684   -0.6567    0.0000 C   0  0  0  0  0  0  0  0  0  0  0  0
    6.9276    0.0000    0.0000 C   0  0  0  0  0  0  0  0  0  0  0  0
    2.3215    0.0000    0.0000 O   0  0  0  0  0  0  0  0  0  0  0  0
    3.4684   -1.9793    0.0000 C   0  0  0  0  0  0  0  0  0  0  0  0
    8.0930   -0.6567    0.0000 C   0  0  0  0  0  0  0  0  0  0  0  0
    1.1561   -0.6567    0.0000 C   0  0  0  0  0  0  0  0  0  0  0  0
    2.3215   -2.6545    0.0000 C   0  0  0  0  0  0  0  0  0  0  0  0
    9.2491    0.0000    0.0000 C   0  0  0  0  0  0  0  0  0  0  0  0
    0.0000    0.0000    0.0000 O   0  0  0  0  0  0  0  0  0  0  0  0
    1.1561   -1.9793    0.0000 C   0  0  0  0  0  0  0  0  0  0  0  0
  1  2  1  0  0  0  0
  1  3  1  0  0  0  0
  2  4  1  0  0  0  0
  3  5  1  0  0  0  0
  3  6  2  0  0  0  0
  4  7  1  0  0  0  0
  5  8  1  0  0  0  0
  6  9  1  0  0  0  0
  7 10  1  0  0  0  0
  8 11  2  0  0  0  0
  8 12  1  0  0  0  0
  9 12  2  0  0  0  0
M  END
> <ID>
12711

> <Formula>
C10H14O2

> <FW>
166.217

> <DSSTox_CID>
27589

> <DSSTox_RID>
82436

> <DSSTox_GSID>
47589

> <DSSTox_FileID_Sort>
7117

> <TS_ChemName>
6-Pentyl-2H-pyran-2-one

> <TS_ChemName_Synonyms>


> <TS_CASRN>
27593-23-3

> <CASRN_ChemName_Relationship>
primary

> <TS_Description>
single chemical compound

> <ChemNote>


> <STRUCTURE_Shown>
tested chemical

> <STRUCTURE_Formula>
C10H14O2

> <STRUCTURE_MW>
166.217

> <STRUCTURE_ChemType>
defined organic

> <STRUCTURE_DefinedOrganicForm>
parent

> <STRUCTURE_IUPAC>
6-pentyl-2H-pyran-2-one

> <STRUCTURE_SMILES>
O=C1C=CC=C(CCCCC)O1

> <STRUCTURE_SMILES_Desalt>
O=C1C=CC=C(CCCCC)O1

> <Substance_modify_yyyymmdd>
20100930

$$$$
