2759-71-9
ChemmineR-0915142007XD

 14 15  0  0  0  0  0  0  0  0  1 V2000
    1.3341   -3.9857    0.0000 C    0  0  0  0  0  0  0  0  0  0  0  0
    0.0000   -3.9857    0.0000 C    0  0  0  0  0  0  0  0  0  0  0  0
    0.6588   -5.1468    0.0000 C    0  0  0  0  0  0  0  0  0  0  0  0
    2.4787   -3.3104    0.0000 C    0  0  0  0  0  0  0  0  0  0  0  0
    2.4787   -1.9928    0.0000 O    0  0  0  0  0  0  0  0  0  0  0  0
    3.6151   -3.9857    0.0000 N    0  0  0  0  0  0  0  0  0  0  0  0
    5.9374   -1.3341    0.0000 C    0  0  0  0  0  0  0  0  0  0  0  0
    7.0738   -2.0093    0.0000 C    0  0  0  0  0  0  0  0  0  0  0  0
    7.0738   -3.3269    0.0000 C    0  0  0  0  0  0  0  0  0  0  0  0
    5.9374   -3.9857    0.0000 C    0  0  0  0  0  0  0  0  0  0  0  0
    4.7762   -3.3104    0.0000 C    0  0  0  0  0  0  0  0  0  0  0  0
    4.7762   -1.9928    0.0000 C    0  0  0  0  0  0  0  0  0  0  0  0
    5.9374    0.0000    0.0000 Cl   0  0  0  0  0  0  0  0  0  0  0  0
    8.2349   -1.3341    0.0000 Cl   0  0  0  0  0  0  0  0  0  0  0  0
  1  2  1  0  0  0  0
  1  3  1  0  0  0  0
  1  4  1  0  0  0  0
  2  3  1  0  0  0  0
  4  5  2  0  0  0  0
  4  6  1  0  0  0  0
  6 11  1  0  0  0  0
  7 12  2  0  0  0  0
  7  8  1  0  0  0  0
  7 13  1  0  0  0  0
  8  9  2  0  0  0  0
  8 14  1  0  0  0  0
  9 10  1  0  0  0  0
 10 11  2  0  0  0  0
 11 12  1  0  0  0  0
M  END
> <ID>
8776

> <Formula>
C10H9Cl2NO

> <FW>
230.0906

> <DSSTox_CID>
21827

> <DSSTox_RID>
79853

> <DSSTox_GSID>
41827

> <DSSTox_FileID_Sort>
4535

> <TS_ChemName>
Cypromid

> <TS_ChemName_Synonyms>


> <TS_CASRN>
2759-71-9

> <CASRN_ChemName_Relationship>
primary

> <TS_Description>
single chemical compound

> <ChemNote>


> <STRUCTURE_Shown>
tested chemical

> <STRUCTURE_Formula>
C10H9Cl2NO

> <STRUCTURE_MW>
230.0906

> <STRUCTURE_ChemType>
defined organic

> <STRUCTURE_DefinedOrganicForm>
parent

> <STRUCTURE_IUPAC>
N-(3,4-dichlorophenyl)cyclopropanecarboxamide

> <STRUCTURE_SMILES>
O=C(Nc1cc(Cl)c(Cl)cc1)C2CC2

> <STRUCTURE_SMILES_Desalt>
O=C(Nc1cc(Cl)c(Cl)cc1)C2CC2

> <Substance_modify_yyyymmdd>
20080825

$$$$
