27591-97-5
ChemmineR-0915142007XD

 30 32  0  0  0  0  0  0  0  0  1 V2000
   17.9895    0.0000    0.0000 C   0  0  0  0  0  0  0  0  0  0  0  0
   17.1028   -0.9852    0.0000 C   0  0  0  0  0  0  0  0  0  0  0  0
   17.5166   -2.2659    0.0000 N   0  0  0  0  0  0  0  0  0  0  0  0
   18.8170   -2.5418    0.0000 C   0  0  0  0  0  0  0  0  0  0  0  0
   19.7037   -1.5566    0.0000 C   0  0  0  0  0  0  0  0  0  0  0  0
   16.6299   -3.2511    0.0000 C   0  0  0  0  0  0  0  0  0  0  0  0
   15.3295   -2.9950    0.0000 C   0  0  0  0  0  0  0  0  0  0  0  0
   14.4231   -3.9604    0.0000 O   0  0  0  0  0  0  0  0  0  0  0  0
   13.1227   -3.6846    0.0000 C   0  0  0  0  0  0  0  0  0  0  0  0
   12.7089   -2.4236    0.0000 C   0  0  0  0  0  0  0  0  0  0  0  0
   11.4084   -2.1477    0.0000 C   0  0  0  0  0  0  0  0  0  0  0  0
   10.5218   -3.1329    0.0000 C   0  0  0  0  0  0  0  0  0  0  0  0
   10.9158   -4.3742    0.0000 C   0  0  0  0  0  0  0  0  0  0  0  0
   12.2163   -4.6698    0.0000 C   0  0  0  0  0  0  0  0  0  0  0  0
    9.8518   -5.1821    0.0000 C   0  0  0  0  0  0  0  0  0  0  0  0
    9.8518   -6.5022    0.0000 O   0  0  0  0  0  0  0  0  0  0  0  0
    8.7681   -4.3939    0.0000 C   0  0  0  0  0  0  0  0  0  0  0  0
    7.4874   -4.6698    0.0000 C   0  0  0  0  0  0  0  0  0  0  0  0
    6.5810   -3.6846    0.0000 C   0  0  0  0  0  0  0  0  0  0  0  0
    6.9948   -2.4038    0.0000 C   0  0  0  0  0  0  0  0  0  0  0  0
    8.2952   -2.1280    0.0000 C   0  0  0  0  0  0  0  0  0  0  0  0
    9.1819   -3.1329    0.0000 C   0  0  0  0  0  0  0  0  0  0  0  0
    5.2806   -3.9604    0.0000 O   0  0  0  0  0  0  0  0  0  0  0  0
    4.3742   -2.9753    0.0000 C   0  0  0  0  0  0  0  0  0  0  0  0
    3.0738   -3.2511    0.0000 C   0  0  0  0  0  0  0  0  0  0  0  0
    2.2068   -2.2462    0.0000 N   0  0  0  0  0  0  0  0  0  0  0  0
    2.6009   -0.9852    0.0000 C   0  0  0  0  0  0  0  0  0  0  0  0
    1.7142    0.0000    0.0000 C   0  0  0  0  0  0  0  0  0  0  0  0
    0.8867   -2.5221    0.0000 C   0  0  0  0  0  0  0  0  0  0  0  0
    0.0000   -1.5369    0.0000 C   0  0  0  0  0  0  0  0  0  0  0  0
  1  2  1  0  0  0  0
  2  3  1  0  0  0  0
  3  4  1  0  0  0  0
  3  6  1  0  0  0  0
  4  5  1  0  0  0  0
  6  7  1  0  0  0  0
  7  8  1  0  0  0  0
  8  9  1  0  0  0  0
  9 10  2  0  0  0  0
  9 14  1  0  0  0  0
 10 11  1  0  0  0  0
 11 12  2  0  0  0  0
 12 13  1  0  0  0  0
 12 22  1  0  0  0  0
 13 14  2  0  0  0  0
 13 15  1  0  0  0  0
 15 16  2  0  0  0  0
 15 17  1  0  0  0  0
 17 18  2  0  0  0  0
 17 22  1  0  0  0  0
 18 19  1  0  0  0  0
 19 20  2  0  0  0  0
 19 23  1  0  0  0  0
 20 21  1  0  0  0  0
 21 22  2  0  0  0  0
 23 24  1  0  0  0  0
 24 25  1  0  0  0  0
 25 26  1  0  0  0  0
 26 27  1  0  0  0  0
 26 29  1  0  0  0  0
 27 28  1  0  0  0  0
 29 30  1  0  0  0  0
M  END
> <ID>
11322

> <Formula>
C25H34N2O3

> <FW>
410.5491

> <DSSTox_CID>
25958

> <DSSTox_RID>
81254

> <DSSTox_GSID>
45958

> <DSSTox_FileID_Sort>
5935

> <TS_ChemName>
Tilorone

> <TS_ChemName_Synonyms>


> <TS_CASRN>
27591-97-5

> <CASRN_ChemName_Relationship>
primary

> <TS_Description>
single chemical compound

> <ChemNote>


> <STRUCTURE_Shown>
tested chemical

> <STRUCTURE_Formula>
C25H34N2O3

> <STRUCTURE_MW>
410.5491

> <STRUCTURE_ChemType>
defined organic

> <STRUCTURE_DefinedOrganicForm>
parent

> <STRUCTURE_IUPAC>
2,7-bis[2-(diethylamino)ethoxy]-9H-fluoren-9-one

> <STRUCTURE_SMILES>
CCN(CC)CCOc2ccc3c1ccc(cc1C(=O)c3c2)OCCN(CC)CC

> <STRUCTURE_SMILES_Desalt>
CCN(CC)CCOc2ccc3c1ccc(cc1C(=O)c3c2)OCCN(CC)CC

> <Substance_modify_yyyymmdd>
20110930

$$$$
