2760-98-7
ChemmineR-0915142007XD

 14 14  0  0  0  0  0  0  0  0  1 V2000
    5.7262   -2.0037    0.0000 C   0  0  0  0  0  0  0  0  0  0  0  0
    5.7446   -0.6710    0.0000 C   0  0  0  0  0  0  0  0  0  0  0  0
    4.5865    0.0000    0.0000 C   0  0  0  0  0  0  0  0  0  0  0  0
    3.4284   -0.6526    0.0000 C   0  0  0  0  0  0  0  0  0  0  0  0
    3.4284   -1.9853    0.0000 C   0  0  0  0  0  0  0  0  0  0  0  0
    4.5681   -2.6563    0.0000 C   0  0  0  0  0  0  0  0  0  0  0  0
    6.8843   -2.6747    0.0000 C   0  0  0  0  0  0  0  0  0  0  0  0
    6.8843   -4.0074    0.0000 O   0  0  0  0  0  0  0  0  0  0  0  0
    2.2978   -2.6471    0.0000 C   0  0  0  0  0  0  0  0  0  0  0  0
    2.2978   -3.9799    0.0000 O   0  0  0  0  0  0  0  0  0  0  0  0
    8.0332   -2.0221    0.0000 N   0  0  0  0  0  0  0  0  0  0  0  0
    9.1913   -2.7114    0.0000 N   0  0  0  0  0  0  0  0  0  0  0  0
    1.1397   -1.9853    0.0000 N   0  0  0  0  0  0  0  0  0  0  0  0
    0.0000   -2.6471    0.0000 N   0  0  0  0  0  0  0  0  0  0  0  0
  1  2  2  0  0  0  0
  1  6  1  0  0  0  0
  1  7  1  0  0  0  0
  2  3  1  0  0  0  0
  3  4  2  0  0  0  0
  4  5  1  0  0  0  0
  5  6  2  0  0  0  0
  5  9  1  0  0  0  0
  7  8  2  0  0  0  0
  7 11  1  0  0  0  0
  9 10  2  0  0  0  0
  9 13  1  0  0  0  0
 11 12  1  0  0  0  0
 13 14  1  0  0  0  0
M  END
> <ID>
7505

> <Formula>
C8H10N4O2

> <FW>
194.1906

> <DSSTox_CID>
18813

> <DSSTox_RID>
79400

> <DSSTox_GSID>
38813

> <DSSTox_FileID_Sort>
4082

> <TS_ChemName>
1,3-Benzenedicarboxylic acid, dihydrazide

> <TS_ChemName_Synonyms>


> <TS_CASRN>
2760-98-7

> <CASRN_ChemName_Relationship>
primary

> <TS_Description>
single chemical compound

> <ChemNote>


> <STRUCTURE_Shown>
tested chemical

> <STRUCTURE_Formula>
C8H10N4O2

> <STRUCTURE_MW>
194.1906

> <STRUCTURE_ChemType>
defined organic

> <STRUCTURE_DefinedOrganicForm>
parent

> <STRUCTURE_IUPAC>
benzene-1,3-dicarbohydrazide

> <STRUCTURE_SMILES>
O=C(NN)c1cccc(c1)C(=O)NN

> <STRUCTURE_SMILES_Desalt>
O=C(NN)c1cccc(c1)C(=O)NN

> <Substance_modify_yyyymmdd>
20080429

$$$$
