2761-24-2
ChemmineR-0915142007XD

 15 14  0  0  0  0  0  0  0  0  1 V2000
    3.3142   -3.3315    0.0000 Si   0  0  0  0  0  0  0  0  0  0  0  0
    3.3142   -2.0024    0.0000 O    0  0  0  0  0  0  0  0  0  0  0  0
    3.3142   -4.6606    0.0000 O    0  0  0  0  0  0  0  0  0  0  0  0
    4.6434   -3.3315    0.0000 C    0  0  0  0  0  0  0  0  0  0  0  0
    1.9851   -3.3315    0.0000 O    0  0  0  0  0  0  0  0  0  0  0  0
    4.4708   -1.3291    0.0000 C    0  0  0  0  0  0  0  0  0  0  0  0
    4.4708    0.0000    0.0000 C    0  0  0  0  0  0  0  0  0  0  0  0
    2.1577   -5.3166    0.0000 C    0  0  0  0  0  0  0  0  0  0  0  0
    2.1577   -6.6457    0.0000 C    0  0  0  0  0  0  0  0  0  0  0  0
    1.3291   -2.1750    0.0000 C    0  0  0  0  0  0  0  0  0  0  0  0
    0.0000   -2.1750    0.0000 C    0  0  0  0  0  0  0  0  0  0  0  0
    5.3166   -4.4880    0.0000 C    0  0  0  0  0  0  0  0  0  0  0  0
    6.6457   -4.4880    0.0000 C    0  0  0  0  0  0  0  0  0  0  0  0
    7.3017   -5.6359    0.0000 C    0  0  0  0  0  0  0  0  0  0  0  0
    8.6308   -5.6359    0.0000 C    0  0  0  0  0  0  0  0  0  0  0  0
  1  2  1  0  0  0  0
  1  3  1  0  0  0  0
  1  4  1  0  0  0  0
  1  5  1  0  0  0  0
  2  6  1  0  0  0  0
  3  8  1  0  0  0  0
  4 12  1  0  0  0  0
  5 10  1  0  0  0  0
  6  7  1  0  0  0  0
  8  9  1  0  0  0  0
 10 11  1  0  0  0  0
 12 13  1  0  0  0  0
 13 14  1  0  0  0  0
 14 15  1  0  0  0  0
M  END
> <ID>
9397

> <Formula>
C11H26O3Si

> <FW>
234.4078

> <DSSTox_CID>
22491

> <DSSTox_RID>
80037

> <DSSTox_GSID>
42491

> <DSSTox_FileID_Sort>
4719

> <TS_ChemName>
Triethoxypentylsilane

> <TS_ChemName_Synonyms>


> <TS_CASRN>
2761-24-2

> <CASRN_ChemName_Relationship>
primary

> <TS_Description>
single chemical compound

> <ChemNote>


> <STRUCTURE_Shown>
tested chemical

> <STRUCTURE_Formula>
C11H26O3Si

> <STRUCTURE_MW>
234.4078

> <STRUCTURE_ChemType>
organometallic

> <STRUCTURE_DefinedOrganicForm>


> <STRUCTURE_IUPAC>
triethoxy(pentyl)silane

> <STRUCTURE_SMILES>
CCO[Si](OCC)(OCC)CCCCC

> <STRUCTURE_SMILES_Desalt>
CCO[Si](OCC)(OCC)CCCCC

> <Substance_modify_yyyymmdd>
20080825

$$$$
