2765-97-1
ChemmineR-0915142007XD

 26 26  0  0  0  0  0  0  0  0  1 V2000
    4.6592   -3.9891    0.0000 C    0  0  0  0  0  0  0  0  0  0  0  0
    4.6592   -5.3187    0.0000 C    0  0  0  0  0  0  0  0  0  0  0  0
    4.6592   -2.6594    0.0000 C    0  0  0  0  0  0  0  0  0  0  0  0
    5.9889   -3.9891    0.0000 C    0  0  0  0  0  0  0  0  0  0  0  0
    3.3295   -3.9891    0.0000 O    0  0  0  0  0  0  0  0  0  0  0  0
    5.8187   -5.9783    0.0000 C    0  0  0  0  0  0  0  0  0  0  0  0
    3.5104   -5.9783    0.0000 C    0  0  0  0  0  0  0  0  0  0  0  0
    3.5104   -1.9892    0.0000 C    0  0  0  0  0  0  0  0  0  0  0  0
    5.8187   -1.9892    0.0000 C    0  0  0  0  0  0  0  0  0  0  0  0
    6.6484   -5.1379    0.0000 O    0  0  0  0  0  0  0  0  0  0  0  0
    6.6484   -2.8402    0.0000 O    0  0  0  0  0  0  0  0  0  0  0  0
    2.6594   -5.1379    0.0000 C    0  0  0  0  0  0  0  0  0  0  0  0
    5.8187   -7.3079    0.0000 C    0  0  0  0  0  0  0  0  0  0  0  0
    3.5104   -7.3079    0.0000 C    0  0  0  0  0  0  0  0  0  0  0  0
    3.5104   -0.6595    0.0000 C    0  0  0  0  0  0  0  0  0  0  0  0
    5.8187   -0.6595    0.0000 C    0  0  0  0  0  0  0  0  0  0  0  0
    7.9781   -5.1379    0.0000 C    0  0  0  0  0  0  0  0  0  0  0  0
    1.3297   -5.1379    0.0000 C    0  0  0  0  0  0  0  0  0  0  0  0
    4.6592   -7.9781    0.0000 C    0  0  0  0  0  0  0  0  0  0  0  0
    4.6592    0.0000    0.0000 C    0  0  0  0  0  0  0  0  0  0  0  0
    8.6483   -6.2974    0.0000 C    0  0  0  0  0  0  0  0  0  0  0  0
    0.0000   -5.1379    0.0000 C    0  0  0  0  0  0  0  0  0  0  0  0
    9.9779   -6.2974    0.0000 N    0  0  0  0  0  0  0  0  0  0  0  0
   10.6375   -7.4356    0.0000 C    0  0  0  0  0  0  0  0  0  0  0  0
   10.6375   -5.1379    0.0000 C    0  0  0  0  0  0  0  0  0  0  0  0
    9.1163   -3.0423    0.0000 Cl   0  0  0  0  0  0  0  0  0  0  0  0
  1  2  1  0  0  0  0
  1  3  1  0  0  0  0
  1  4  1  0  0  0  0
  1  5  1  0  0  0  0
  2  6  2  0  0  0  0
  2  7  1  0  0  0  0
  3  8  2  0  0  0  0
  3  9  1  0  0  0  0
  4 10  1  0  0  0  0
  4 11  2  0  0  0  0
  5 12  1  0  0  0  0
  6 13  1  0  0  0  0
  7 14  2  0  0  0  0
  8 15  1  0  0  0  0
  9 16  2  0  0  0  0
 10 17  1  0  0  0  0
 12 18  1  0  0  0  0
 13 19  2  0  0  0  0
 14 19  1  0  0  0  0
 15 20  2  0  0  0  0
 16 20  1  0  0  0  0
 17 21  1  0  0  0  0
 18 22  3  0  0  0  0
 21 23  1  0  0  0  0
 23 24  1  0  0  0  0
 23 25  1  0  0  0  0
M  END
> <ID>
11683

> <Formula>
C21H24ClNO3

> <FW>
373.8732 (337.4122+36.4609)

> <DSSTox_CID>
26442

> <DSSTox_RID>
81617

> <DSSTox_GSID>
46442

> <DSSTox_FileID_Sort>
6298

> <TS_ChemName>
Pargeverine hydrochloride

> <TS_ChemName_Synonyms>


> <TS_CASRN>
2765-97-1

> <CASRN_ChemName_Relationship>
primary

> <TS_Description>
single chemical compound

> <ChemNote>
parent [13479-13-5]

> <STRUCTURE_Shown>
tested chemical

> <STRUCTURE_Formula>
C21H24ClNO3

> <STRUCTURE_MW>
373.8732

> <STRUCTURE_ChemType>
defined organic

> <STRUCTURE_DefinedOrganicForm>
complex

> <STRUCTURE_IUPAC>
2-(dimethylamino)ethyl diphenyl(prop-2-yn-1-yloxy)acetate hydrochloride (1:1)

> <STRUCTURE_SMILES>
Cl.CN(C)CCOC(=O)C(OCC#C)(c1ccccc1)c2ccccc2

> <STRUCTURE_SMILES_Desalt>
CN(C)CCOC(=O)C(OCC#C)(c1ccccc1)c2ccccc2

> <Substance_modify_yyyymmdd>
20110813

$$$$
