27668-52-6
ChemmineR-0915142007XD

 32 30  0  0  0  0  0  0  0  0  2 V2000
   20.6810   -5.9695    0.0000 N    0  3  0  0  0  0  0  0  0  0  0  0
   21.8299   -5.3201    0.0000 C    0  0  0  0  0  0  0  0  0  0  0  0
   21.8299   -3.9714    0.0000 C    0  0  0  0  0  0  0  0  0  0  0  0
   22.9789   -3.3219    0.0000 C    0  0  0  0  0  0  0  0  0  0  0  0
   22.9789   -1.9982    0.0000 Si   0  0  0  0  0  0  0  0  0  0  0  0
   22.9789   -0.6744    0.0000 O    0  0  0  0  0  0  0  0  0  0  0  0
   21.8299    0.0000    0.0000 C    0  0  0  0  0  0  0  0  0  0  0  0
   21.6551   -1.9982    0.0000 O    0  0  0  0  0  0  0  0  0  0  0  0
   21.0057   -3.1471    0.0000 C    0  0  0  0  0  0  0  0  0  0  0  0
   24.3027   -1.9982    0.0000 O    0  0  0  0  0  0  0  0  0  0  0  0
   24.9770   -0.8492    0.0000 C    0  0  0  0  0  0  0  0  0  0  0  0
   20.0316   -4.8206    0.0000 C    0  0  0  0  0  0  0  0  0  0  0  0
   21.3554   -7.1185    0.0000 C    0  0  0  0  0  0  0  0  0  0  0  0
   19.5321   -6.6439    0.0000 C    0  0  0  0  0  0  0  0  0  0  0  0
   18.3831   -5.9695    0.0000 C    0  0  0  0  0  0  0  0  0  0  0  0
   17.2342   -6.6439    0.0000 C    0  0  0  0  0  0  0  0  0  0  0  0
   16.0852   -5.9695    0.0000 C    0  0  0  0  0  0  0  0  0  0  0  0
   14.9363   -6.6439    0.0000 C    0  0  0  0  0  0  0  0  0  0  0  0
   13.7873   -5.9695    0.0000 C    0  0  0  0  0  0  0  0  0  0  0  0
   12.6384   -6.6439    0.0000 C    0  0  0  0  0  0  0  0  0  0  0  0
   11.4894   -5.9695    0.0000 C    0  0  0  0  0  0  0  0  0  0  0  0
   10.3405   -6.6439    0.0000 C    0  0  0  0  0  0  0  0  0  0  0  0
    9.1916   -5.9695    0.0000 C    0  0  0  0  0  0  0  0  0  0  0  0
    8.0426   -6.6439    0.0000 C    0  0  0  0  0  0  0  0  0  0  0  0
    6.8937   -5.9695    0.0000 C    0  0  0  0  0  0  0  0  0  0  0  0
    5.7447   -6.6439    0.0000 C    0  0  0  0  0  0  0  0  0  0  0  0
    4.5958   -5.9695    0.0000 C    0  0  0  0  0  0  0  0  0  0  0  0
    3.4468   -6.6439    0.0000 C    0  0  0  0  0  0  0  0  0  0  0  0
    2.2979   -5.9695    0.0000 C    0  0  0  0  0  0  0  0  0  0  0  0
    1.1489   -6.6439    0.0000 C    0  0  0  0  0  0  0  0  0  0  0  0
    0.0000   -5.9695    0.0000 C    0  0  0  0  0  0  0  0  0  0  0  0
   16.3849   -8.8419    0.0000 Cl   0  5  0  0  0  0  0  0  0  0  0  0
  1  2  1  0  0  0  0
  1 12  1  0  0  0  0
  1 13  1  0  0  0  0
  1 14  1  0  0  0  0
  2  3  1  0  0  0  0
  3  4  1  0  0  0  0
  4  5  1  0  0  0  0
  5  6  1  0  0  0  0
  5  8  1  0  0  0  0
  5 10  1  0  0  0  0
  6  7  1  0  0  0  0
  8  9  1  0  0  0  0
 10 11  1  0  0  0  0
 14 15  1  0  0  0  0
 15 16  1  0  0  0  0
 16 17  1  0  0  0  0
 17 18  1  0  0  0  0
 18 19  1  0  0  0  0
 19 20  1  0  0  0  0
 20 21  1  0  0  0  0
 21 22  1  0  0  0  0
 22 23  1  0  0  0  0
 23 24  1  0  0  0  0
 24 25  1  0  0  0  0
 25 26  1  0  0  0  0
 26 27  1  0  0  0  0
 27 28  1  0  0  0  0
 28 29  1  0  0  0  0
 29 30  1  0  0  0  0
 30 31  1  0  0  0  0
M  END
> <ID>
7040

> <Formula>
C26H58ClNO3Si

> <FW>
496.2821 (460.8286+35.4535)

> <DSSTox_CID>
15542

> <DSSTox_RID>
79261

> <DSSTox_GSID>
35542

> <DSSTox_FileID_Sort>
3943

> <TS_ChemName>
N,N-Dimethyl-N-(3-(trimethoxysilyl)propyl) octadecan-1-aminium chloride

> <TS_ChemName_Synonyms>
1-Octadecanaminium, N,N-dimethyl-N-(3-(trimethoxysilyl)propyl)-, chloride

> <TS_CASRN>
27668-52-6

> <CASRN_ChemName_Relationship>
primary

> <TS_Description>
single chemical compound

> <ChemNote>


> <STRUCTURE_Shown>
tested chemical

> <STRUCTURE_Formula>
C26H58ClNO3Si

> <STRUCTURE_MW>
496.2821

> <STRUCTURE_ChemType>
organometallic

> <STRUCTURE_DefinedOrganicForm>


> <STRUCTURE_IUPAC>
N,N-dimethyl-N-[3-(trimethoxysilyl)propyl]octadecan-1-aminium chloride

> <STRUCTURE_SMILES>
[Cl-].CO[Si](CCC[N+](C)(C)CCCCCCCCCCCCCCCCCC)(OC)OC

> <STRUCTURE_SMILES_Desalt>
CO[Si](CCC[N+](C)(C)CCCCCCCCCCCCCCCCCC)(OC)OC

> <Substance_modify_yyyymmdd>
20080429

$$$$
