2767-54-6
ChemmineR-0915142007XD

  8  7  0  0  0  0  0  0  0  0  1 V2000
    1.1529   -1.9946    0.0000 Sn   0  0  0  0  0  0  0  0  0  0  0  0
    0.0000   -2.6608    0.0000 C    0  0  0  0  0  0  0  0  0  0  0  0
    0.0000   -3.9893    0.0000 C    0  0  0  0  0  0  0  0  0  0  0  0
    1.8151   -3.1475    0.0000 C    0  0  0  0  0  0  0  0  0  0  0  0
    3.1475   -3.1475    0.0000 C    0  0  0  0  0  0  0  0  0  0  0  0
    2.3018   -1.3284    0.0000 C    0  0  0  0  0  0  0  0  0  0  0  0
    2.3018    0.0000    0.0000 C    0  0  0  0  0  0  0  0  0  0  0  0
    0.4867   -0.8417    0.0000 Br   0  0  0  0  0  0  0  0  0  0  0  0
  1  2  1  0  0  0  0
  1  4  1  0  0  0  0
  1  6  1  0  0  0  0
  1  8  1  0  0  0  0
  2  3  1  0  0  0  0
  4  5  1  0  0  0  0
  6  7  1  0  0  0  0
M  END
> <ID>
7908

> <Formula>
C6H15BrSn

> <FW>
285.7973

> <DSSTox_CID>
20712

> <DSSTox_RID>
79560

> <DSSTox_GSID>
40712

> <DSSTox_FileID_Sort>
4242

> <TS_ChemName>
Triethyltin bromide

> <TS_ChemName_Synonyms>


> <TS_CASRN>
2767-54-6

> <CASRN_ChemName_Relationship>
primary

> <TS_Description>
single chemical compound

> <ChemNote>


> <STRUCTURE_Shown>
tested chemical

> <STRUCTURE_Formula>
C6H15BrSn

> <STRUCTURE_MW>
285.7973

> <STRUCTURE_ChemType>
organometallic

> <STRUCTURE_DefinedOrganicForm>


> <STRUCTURE_IUPAC>
bromo(triethyl)stannane

> <STRUCTURE_SMILES>
Br[Sn](CC)(CC)CC

> <STRUCTURE_SMILES_Desalt>
Br[Sn](CC)(CC)CC

> <Substance_modify_yyyymmdd>
20080429

$$$$
