2768-02-7
ChemmineR-0915142007XD

  9  8  0  0  0  0  0  0  0  0  1 V2000
    2.3215   -2.3215    0.0000 Si   0  0  0  0  0  0  0  0  0  0  0  0
    1.1608   -1.6622    0.0000 C    0  0  0  0  0  0  0  0  0  0  0  0
    0.0000   -2.3215    0.0000 C    0  0  0  0  0  0  0  0  0  0  0  0
    1.6436   -3.4823    0.0000 O    0  0  0  0  0  0  0  0  0  0  0  0
    2.3215   -4.6430    0.0000 C    0  0  0  0  0  0  0  0  0  0  0  0
    2.9808   -1.1608    0.0000 O    0  0  0  0  0  0  0  0  0  0  0  0
    2.3215    0.0000    0.0000 C    0  0  0  0  0  0  0  0  0  0  0  0
    3.4823   -2.9994    0.0000 O    0  0  0  0  0  0  0  0  0  0  0  0
    4.4016   -2.1265    0.0000 C    0  0  0  0  0  0  0  0  0  0  0  0
  1  2  1  0  0  0  0
  1  4  1  0  0  0  0
  1  6  1  0  0  0  0
  1  8  1  0  0  0  0
  2  3  2  0  0  0  0
  4  5  1  0  0  0  0
  6  7  1  0  0  0  0
  8  9  1  0  0  0  0
M  END
> <ID>
5882

> <Formula>
C5H12O3Si

> <FW>
148.2325

> <DSSTox_CID>
9240

> <DSSTox_RID>
78726

> <DSSTox_GSID>
29240

> <DSSTox_FileID_Sort>
3408

> <TS_ChemName>
Vinyltrimethoxysilane

> <TS_ChemName_Synonyms>
Vinyltrimethoxysilane (Silane, ethenyltrimethoxy-)

> <TS_CASRN>
2768-02-7

> <CASRN_ChemName_Relationship>
primary

> <TS_Description>
single chemical compound

> <ChemNote>


> <STRUCTURE_Shown>
tested chemical

> <STRUCTURE_Formula>
C5H12O3Si

> <STRUCTURE_MW>
148.2325

> <STRUCTURE_ChemType>
organometallic

> <STRUCTURE_DefinedOrganicForm>


> <STRUCTURE_IUPAC>
ethenyl(trimethoxy)silane

> <STRUCTURE_SMILES>
C=C[Si](OC)(OC)OC

> <STRUCTURE_SMILES_Desalt>
C=C[Si](OC)(OC)OC

> <Substance_modify_yyyymmdd>
20080429

$$$$
