27686-84-6
ChemmineR-0915142007XD

 22 23  0  0  1  0  0  0  0  0  1 V2000
    1.1377   -1.9882    0.0000 C   0  0  0  0  0  0  0  0  0  0  0  0
   10.3200   -0.6551    0.0000 C   0  0  0  0  0  0  0  0  0  0  0  0
    1.1377   -0.6551    0.0000 C   0  0  0  0  0  0  0  0  0  0  0  0
   10.3200   -1.9882    0.0000 C   0  0  0  0  0  0  0  0  0  0  0  0
    2.2984   -2.6662    0.0000 C   0  0  0  0  0  0  0  0  0  0  0  0
    9.1938    0.0000    0.0000 C   0  0  0  0  0  0  0  0  0  0  0  0
    8.0445   -0.6551    0.0000 C   0  0  0  0  0  0  0  0  0  0  0  0
    3.4362   -1.9882    0.0000 C   0  0  0  0  0  0  0  0  0  0  0  0
    4.5854   -2.6662    0.0000 C   0  0  0  0  0  0  0  0  0  0  0  0
    6.9068    0.0000    0.0000 C   0  0  0  0  0  0  0  0  0  0  0  0
    5.7346   -1.9882    0.0000 C   0  0  0  0  0  0  0  0  0  0  0  0
    5.7346   -0.6551    0.0000 C   0  0  0  0  0  0  0  0  0  0  0  0
    2.2984    0.0000    0.0000 C   0  0  0  0  0  0  0  0  0  0  0  0
    9.1938   -2.6662    0.0000 C   0  0  0  0  0  0  0  0  0  0  0  0
    8.0445   -1.9882    0.0000 C   0  0  0  0  0  0  0  0  0  0  0  0
    3.4362   -0.6551    0.0000 C   0  0  0  0  0  0  0  0  0  0  0  0
    0.0000   -2.6662    0.0000 O   0  0  0  0  0  0  0  0  0  0  0  0
   11.4922    0.0000    0.0000 O   0  0  0  0  0  0  0  0  0  0  0  0
    0.0000    0.0000    0.0000 O   0  0  0  0  0  0  0  0  0  0  0  0
   11.4922   -2.6662    0.0000 O   0  0  0  0  0  0  0  0  0  0  0  0
    6.9068   -2.6662    0.0000 C   0  0  0  0  0  0  0  0  0  0  0  0
    4.5854    0.0000    0.0000 C   0  0  0  0  0  0  0  0  0  0  0  0
  1  3  2  0  0  0  0
  1  5  1  0  0  0  0
  1 17  1  0  0  0  0
  2  6  2  0  0  0  0
  2 18  1  0  0  0  0
  2  4  1  0  0  0  0
  3 13  1  0  0  0  0
  3 19  1  0  0  0  0
  4 14  2  0  0  0  0
  4 20  1  0  0  0  0
  5  8  2  0  0  0  0
  6  7  1  0  0  0  0
  7 10  1  0  0  0  0
  7 15  2  0  0  0  0
  8  9  1  0  0  0  0
  8 16  1  0  0  0  0
  9 11  1  0  0  0  0
 10 12  1  0  0  0  0
 11 12  1  0  0  0  0
 11 21  1  6  0  0  0
 12 22  1  1  0  0  0
 13 16  2  0  0  0  0
 14 15  1  0  0  0  0
M  END
> <ID>
10796

> <Formula>
C18H22O4

> <FW>
302.3649

> <DSSTox_CID>
25178

> <DSSTox_RID>
80726

> <DSSTox_GSID>
45178

> <DSSTox_FileID_Sort>
5407

> <TS_ChemName>
Masoprocol

> <TS_ChemName_Synonyms>


> <TS_CASRN>
27686-84-6

> <CASRN_ChemName_Relationship>
primary

> <TS_Description>
single chemical compound

> <ChemNote>
relative stereochem; structure shown (2R,3S)-

> <STRUCTURE_Shown>
tested chemical

> <STRUCTURE_Formula>
C18H22O4

> <STRUCTURE_MW>
302.3649

> <STRUCTURE_ChemType>
defined organic

> <STRUCTURE_DefinedOrganicForm>
parent

> <STRUCTURE_IUPAC>
4-[(2R,3S)-4-(3,4-dihydroxyphenyl)-2,3-dimethylbutyl]benzene-1,2-diol

> <STRUCTURE_SMILES>
Oc2ccc(C[C@@H](C)[C@@H](C)Cc1ccc(O)c(O)c1)cc2O

> <STRUCTURE_SMILES_Desalt>
Oc2ccc(C[C@@H](C)[C@@H](C)Cc1ccc(O)c(O)c1)cc2O

> <Substance_modify_yyyymmdd>
20100107

$$$$
