27724-96-5
ChemmineR-0915142007XD

 23 23  0  0  1  0  0  0  0  0  1 V2000
    5.7177   -3.4069    0.0000 C    0  0  0  0  0  0  0  0  0  0  0  0
    6.8879   -4.0735    0.0000 O    0  0  0  0  0  0  0  0  0  0  0  0
   13.6128   -1.3479    0.0000 C    0  0  0  0  0  0  0  0  0  0  0  0
    5.7177   -2.1034    0.0000 O    0  0  0  0  0  0  0  0  0  0  0  0
   13.6128    0.0000    0.0000 O    0  0  0  0  0  0  0  0  0  0  0  0
    8.0432   -3.4069    0.0000 C    0  0  0  0  0  0  0  0  0  0  0  0
   12.4722   -2.0293    0.0000 C    0  0  0  0  0  0  0  0  0  0  0  0
   10.4133   -2.0441    0.0000 C    0  0  0  0  0  0  0  0  0  0  0  0
   14.8126   -1.9405    0.0000 O    0  0  0  0  0  0  0  0  0  0  0  0
   11.4205   -1.4072    0.0000 C    0  0  0  0  0  0  0  0  0  0  0  0
    9.2134   -4.0883    0.0000 C    0  0  0  0  0  0  0  0  0  0  0  0
    8.0432   -2.0441    0.0000 C    0  0  0  0  0  0  0  0  0  0  0  0
    9.2134   -1.3479    0.0000 C    0  0  0  0  0  0  0  0  0  0  0  0
   10.4133   -3.4069    0.0000 C    0  0  0  0  0  0  0  0  0  0  0  0
    4.5771   -4.0883    0.0000 C    0  0  0  0  0  0  0  0  0  0  0  0
    4.5771   -5.4214    0.0000 C    0  0  0  0  0  0  0  0  0  0  0  0
    3.4069   -3.4217    0.0000 C    0  0  0  0  0  0  0  0  0  0  0  0
    3.4069   -6.1028    0.0000 C    0  0  0  0  0  0  0  0  0  0  0  0
    2.2811   -4.0883    0.0000 C    0  0  0  0  0  0  0  0  0  0  0  0
    2.2811   -5.4362    0.0000 C    0  0  0  0  0  0  0  0  0  0  0  0
    1.1554   -6.1028    0.0000 C    0  0  0  0  0  0  0  0  0  0  0  0
    0.0000   -5.4362    0.0000 N    0  0  0  0  0  0  0  0  0  0  0  0
   12.7240   -3.7624    0.0000 Cl   0  0  0  0  0  0  0  0  0  0  0  0
  1  2  1  0  0  0  0
  1  4  2  0  0  0  0
 15  1  1  6  0  0  0
  2  6  1  0  0  0  0
  3  7  1  0  0  0  0
  3  5  2  0  0  0  0
  3  9  1  0  0  0  0
  6 11  2  0  0  0  0
  6 12  1  0  0  0  0
  7 10  1  0  0  0  0
  8 13  1  0  0  0  0
  8 10  1  0  0  0  0
  8 14  2  0  0  0  0
 11 14  1  0  0  0  0
 12 13  2  0  0  0  0
 15 16  1  0  0  0  0
 15 17  1  0  0  0  0
 16 18  1  0  0  0  0
 17 19  1  0  0  0  0
 18 20  1  0  0  0  0
 19 20  1  0  0  0  0
 20 21  1  1  0  0  0
 21 22  1  0  0  0  0
M  END
> <ID>
11699

> <Formula>
C17H24ClNO4

> <FW>
341.8298 (305.3688+36.4609)

> <DSSTox_CID>
26459

> <DSSTox_RID>
81633

> <DSSTox_GSID>
46459

> <DSSTox_FileID_Sort>
6314

> <TS_ChemName>
Cetraxate hydrochloride

> <TS_ChemName_Synonyms>


> <TS_CASRN>
27724-96-5

> <CASRN_ChemName_Relationship>
primary

> <TS_Description>
single chemical compound

> <ChemNote>
stereochem; parent [34675-84-8]

> <STRUCTURE_Shown>
tested chemical

> <STRUCTURE_Formula>
C17H24ClNO4

> <STRUCTURE_MW>
341.8298

> <STRUCTURE_ChemType>
defined organic

> <STRUCTURE_DefinedOrganicForm>
complex

> <STRUCTURE_IUPAC>
3-[4-({[trans-4-(aminomethyl)cyclohexyl]carbonyl}oxy)phenyl]propanoic acid hydrochloride (1:1)

> <STRUCTURE_SMILES>
Cl.NC[C@H]1CC[C@@H](CC1)C(=O)Oc2ccc(CCC(=O)O)cc2

> <STRUCTURE_SMILES_Desalt>
NC[C@H]1CC[C@@H](CC1)C(=O)Oc2ccc(CCC(=O)O)cc2

> <Substance_modify_yyyymmdd>
20110812

$$$$
