2772-45-4
ChemmineR-0915142007XD

 25 27  0  0  0  0  0  0  0  0  1 V2000
    1.3338   -2.6677    0.0000 C   0  0  0  0  0  0  0  0  0  0  0  0
    1.3338   -1.3338    0.0000 O   0  0  0  0  0  0  0  0  0  0  0  0
    2.4863   -3.3292    0.0000 C   0  0  0  0  0  0  0  0  0  0  0  0
    0.1814   -3.3292    0.0000 C   0  0  0  0  0  0  0  0  0  0  0  0
    0.1814   -4.6631    0.0000 C   0  0  0  0  0  0  0  0  0  0  0  0
    2.4863   -4.6737    0.0000 C   0  0  0  0  0  0  0  0  0  0  0  0
    1.3338   -5.3353    0.0000 C   0  0  0  0  0  0  0  0  0  0  0  0
    3.6493   -2.6677    0.0000 C   0  0  0  0  0  0  0  0  0  0  0  0
    3.1798   -1.5152    0.0000 C   0  0  0  0  0  0  0  0  0  0  0  0
    4.3109   -3.8201    0.0000 C   0  0  0  0  0  0  0  0  0  0  0  0
    4.7911   -2.0061    0.0000 C   0  0  0  0  0  0  0  0  0  0  0  0
    4.7911   -0.6616    0.0000 C   0  0  0  0  0  0  0  0  0  0  0  0
    5.9435   -2.6677    0.0000 C   0  0  0  0  0  0  0  0  0  0  0  0
    5.9435    0.0000    0.0000 C   0  0  0  0  0  0  0  0  0  0  0  0
    7.1066   -1.9954    0.0000 C   0  0  0  0  0  0  0  0  0  0  0  0
    7.1066   -0.6722    0.0000 C   0  0  0  0  0  0  0  0  0  0  0  0
    1.3338   -6.6691    0.0000 C   0  0  0  0  0  0  0  0  0  0  0  0
    2.6677   -6.6691    0.0000 C   0  0  0  0  0  0  0  0  0  0  0  0
    0.0000   -6.6691    0.0000 C   0  0  0  0  0  0  0  0  0  0  0  0
    1.3338   -8.0030    0.0000 C   0  0  0  0  0  0  0  0  0  0  0  0
    2.4863   -8.6645    0.0000 C   0  0  0  0  0  0  0  0  0  0  0  0
    0.1814   -8.6752    0.0000 C   0  0  0  0  0  0  0  0  0  0  0  0
    2.4863  -10.0090    0.0000 C   0  0  0  0  0  0  0  0  0  0  0  0
    0.1814  -10.0090    0.0000 C   0  0  0  0  0  0  0  0  0  0  0  0
    1.3338  -10.6706    0.0000 C   0  0  0  0  0  0  0  0  0  0  0  0
  1  2  1  0  0  0  0
  1  3  2  0  0  0  0
  1  4  1  0  0  0  0
  3  6  1  0  0  0  0
  3  8  1  0  0  0  0
  4  5  2  0  0  0  0
  5  7  1  0  0  0  0
  6  7  2  0  0  0  0
  7 17  1  0  0  0  0
  8  9  1  0  0  0  0
  8 10  1  0  0  0  0
  8 11  1  0  0  0  0
 11 12  2  0  0  0  0
 11 13  1  0  0  0  0
 12 14  1  0  0  0  0
 13 15  2  0  0  0  0
 14 16  2  0  0  0  0
 15 16  1  0  0  0  0
 17 18  1  0  0  0  0
 17 19  1  0  0  0  0
 17 20  1  0  0  0  0
 20 21  2  0  0  0  0
 20 22  1  0  0  0  0
 21 23  1  0  0  0  0
 22 24  2  0  0  0  0
 23 25  2  0  0  0  0
 24 25  1  0  0  0  0
M  END
> <ID>
5883

> <Formula>
C24H26O

> <FW>
330.4626

> <DSSTox_CID>
9241

> <DSSTox_RID>
78727

> <DSSTox_GSID>
29241

> <DSSTox_FileID_Sort>
3409

> <TS_ChemName>
2,4-Bis(1-methyl-1-phenylethyl)phenol

> <TS_ChemName_Synonyms>


> <TS_CASRN>
2772-45-4

> <CASRN_ChemName_Relationship>
primary

> <TS_Description>
single chemical compound

> <ChemNote>


> <STRUCTURE_Shown>
tested chemical

> <STRUCTURE_Formula>
C24H26O

> <STRUCTURE_MW>
330.4626

> <STRUCTURE_ChemType>
defined organic

> <STRUCTURE_DefinedOrganicForm>
parent

> <STRUCTURE_IUPAC>
2,4-bis(2-phenylpropan-2-yl)phenol

> <STRUCTURE_SMILES>
CC(C)(c1cc(ccc1O)C(C)(C)c2ccccc2)c3ccccc3

> <STRUCTURE_SMILES_Desalt>
CC(C)(c1cc(ccc1O)C(C)(C)c2ccccc2)c3ccccc3

> <Substance_modify_yyyymmdd>
20080429

$$$$
