2773-92-4
ChemmineR-0915142007XD

 21 21  0  0  0  0  0  0  0  0  1 V2000
    3.4360   -3.3254    0.0000 C    0  0  0  0  0  0  0  0  0  0  0  0
    4.5782   -4.0163    0.0000 N    0  0  0  0  0  0  0  0  0  0  0  0
    2.2845   -4.0163    0.0000 C    0  0  0  0  0  0  0  0  0  0  0  0
    2.2845   -5.3428    0.0000 C    0  0  0  0  0  0  0  0  0  0  0  0
    4.5782   -5.3428    0.0000 C    0  0  0  0  0  0  0  0  0  0  0  0
    3.4360   -6.0152    0.0000 C    0  0  0  0  0  0  0  0  0  0  0  0
    3.4360   -1.9989    0.0000 O    0  0  0  0  0  0  0  0  0  0  0  0
    6.8443   -1.3265    0.0000 N    0  0  0  0  0  0  0  0  0  0  0  0
    4.5782   -1.3265    0.0000 C    0  0  0  0  0  0  0  0  0  0  0  0
    1.1515   -6.0152    0.0000 C    0  0  0  0  0  0  0  0  0  0  0  0
    1.1515   -3.3254    0.0000 C    0  0  0  0  0  0  0  0  0  0  0  0
    5.7112   -1.9805    0.0000 C    0  0  0  0  0  0  0  0  0  0  0  0
    5.7573   -6.0152    0.0000 C    0  0  0  0  0  0  0  0  0  0  0  0
    8.0142   -1.9805    0.0000 C    0  0  0  0  0  0  0  0  0  0  0  0
    6.8443    0.0000    0.0000 C    0  0  0  0  0  0  0  0  0  0  0  0
    6.9272   -5.3428    0.0000 C    0  0  0  0  0  0  0  0  0  0  0  0
    8.0602   -6.0152    0.0000 C    0  0  0  0  0  0  0  0  0  0  0  0
    0.0000   -5.3428    0.0000 C    0  0  0  0  0  0  0  0  0  0  0  0
    0.0000   -4.0163    0.0000 C    0  0  0  0  0  0  0  0  0  0  0  0
    9.2117   -5.3428    0.0000 C    0  0  0  0  0  0  0  0  0  0  0  0
    6.1903   -7.0193    0.0000 Cl   0  0  0  0  0  0  0  0  0  0  0  0
  1  2  2  0  0  0  0
  1  3  1  0  0  0  0
  1  7  1  0  0  0  0
  2  5  1  0  0  0  0
  3  4  2  0  0  0  0
  3 11  1  0  0  0  0
  4  6  1  0  0  0  0
  4 10  1  0  0  0  0
  5 13  1  0  0  0  0
  5  6  2  0  0  0  0
  7  9  1  0  0  0  0
  8 12  1  0  0  0  0
  8 14  1  0  0  0  0
  8 15  1  0  0  0  0
  9 12  1  0  0  0  0
 10 18  2  0  0  0  0
 11 19  2  0  0  0  0
 13 16  1  0  0  0  0
 16 17  1  0  0  0  0
 17 20  1  0  0  0  0
 18 19  1  0  0  0  0
M  END
> <ID>
10905

> <Formula>
C17H25ClN2O

> <FW>
308.8462 (272.3853+36.4609)

> <DSSTox_CID>
25373

> <DSSTox_RID>
80835

> <DSSTox_GSID>
45373

> <DSSTox_FileID_Sort>
5516

> <TS_ChemName>
Dimethisoquin hydrochloride

> <TS_ChemName_Synonyms>


> <TS_CASRN>
2773-92-4

> <CASRN_ChemName_Relationship>
primary

> <TS_Description>
single chemical compound

> <ChemNote>
parent [86-80-6]

> <STRUCTURE_Shown>
tested chemical

> <STRUCTURE_Formula>
C17H25ClN2O

> <STRUCTURE_MW>
308.8462

> <STRUCTURE_ChemType>
defined organic

> <STRUCTURE_DefinedOrganicForm>
complex

> <STRUCTURE_IUPAC>
2-[(3-butylisoquinolin-1-yl)oxy]-N,N-dimethylethanamine hydrochloride (1:1)

> <STRUCTURE_SMILES>
Cl.CN(C)CCOc2nc(cc1ccccc12)CCCC

> <STRUCTURE_SMILES_Desalt>
CN(C)CCOc2nc(cc1ccccc12)CCCC

> <Substance_modify_yyyymmdd>
20100107

$$$$
