27775-00-4
ChemmineR-0915142007XD

 10  9  0  0  0  0  0  0  0  0  1 V2000
    9.1932    0.0000    0.0000 N   0  0  0  0  0  0  0  0  0  0  0  0
    8.0625   -0.6711    0.0000 C   0  0  0  0  0  0  0  0  0  0  0  0
    6.9041    0.0000    0.0000 C   0  0  0  0  0  0  0  0  0  0  0  0
    5.7550   -0.6711    0.0000 C   0  0  0  0  0  0  0  0  0  0  0  0
    4.6058    0.0000    0.0000 C   0  0  0  0  0  0  0  0  0  0  0  0
    3.4567   -0.6711    0.0000 C   0  0  0  0  0  0  0  0  0  0  0  0
    2.2983    0.0000    0.0000 C   0  0  0  0  0  0  0  0  0  0  0  0
    1.1492   -0.6711    0.0000 C   0  0  0  0  0  0  0  0  0  0  0  0
    0.0000    0.0000    0.0000 C   0  0  0  0  0  0  0  0  0  0  0  0
    1.1492   -1.9949    0.0000 C   0  0  0  0  0  0  0  0  0  0  0  0
  1  2  1  0  0  0  0
  2  3  1  0  0  0  0
  3  4  1  0  0  0  0
  4  5  1  0  0  0  0
  5  6  1  0  0  0  0
  6  7  1  0  0  0  0
  7  8  1  0  0  0  0
  8  9  1  0  0  0  0
  8 10  1  0  0  0  0
M  END
> <ID>
10139

> <Formula>
C9H21N

> <FW>
143.2697

> <DSSTox_CID>
24484

> <DSSTox_RID>
80260

> <DSSTox_GSID>
44484

> <DSSTox_FileID_Sort>
4942

> <TS_ChemName>
Isononanamine

> <TS_ChemName_Synonyms>


> <TS_CASRN>
27775-00-4

> <CASRN_ChemName_Relationship>
primary

> <TS_Description>
mixture or formulation

> <ChemNote>
mixture of nonyl isomers; structure shown 7-methyloctan-1-amine [50782-86-0]

> <STRUCTURE_Shown>
representative isomer in mixture

> <STRUCTURE_Formula>
C9H21N

> <STRUCTURE_MW>
143.2697

> <STRUCTURE_ChemType>
defined organic

> <STRUCTURE_DefinedOrganicForm>
parent

> <STRUCTURE_IUPAC>
7-methyloctan-1-amine

> <STRUCTURE_SMILES>
CC(C)CCCCCCN

> <STRUCTURE_SMILES_Desalt>
CC(C)CCCCCCN

> <Substance_modify_yyyymmdd>
20091116

$$$$
