2778-42-9
ChemmineR-0915142007XD

 18 18  0  0  0  0  0  0  0  0  1 V2000
    4.5932   -3.9857    0.0000 C   0  0  0  0  0  0  0  0  0  0  0  0
    4.5932   -5.3204    0.0000 C   0  0  0  0  0  0  0  0  0  0  0  0
    3.4426   -5.9739    0.0000 C   0  0  0  0  0  0  0  0  0  0  0  0
    2.2920   -5.3204    0.0000 C   0  0  0  0  0  0  0  0  0  0  0  0
    2.2920   -3.9857    0.0000 C   0  0  0  0  0  0  0  0  0  0  0  0
    3.4426   -3.3137    0.0000 C   0  0  0  0  0  0  0  0  0  0  0  0
    5.7438   -3.3137    0.0000 C   0  0  0  0  0  0  0  0  0  0  0  0
    5.0903   -2.1631    0.0000 C   0  0  0  0  0  0  0  0  0  0  0  0
    8.0542   -3.3137    0.0000 C   0  0  0  0  0  0  0  0  0  0  0  0
    6.9036   -2.6602    0.0000 N   0  0  0  0  0  0  0  0  0  0  0  0
    9.2048   -3.9857    0.0000 O   0  0  0  0  0  0  0  0  0  0  0  0
    6.4158   -4.4735    0.0000 C   0  0  0  0  0  0  0  0  0  0  0  0
    1.1506   -3.3137    0.0000 C   0  0  0  0  0  0  0  0  0  0  0  0
    0.4787   -4.4735    0.0000 C   0  0  0  0  0  0  0  0  0  0  0  0
    0.0000   -1.3347    0.0000 C   0  0  0  0  0  0  0  0  0  0  0  0
    0.0000   -2.6602    0.0000 N   0  0  0  0  0  0  0  0  0  0  0  0
    0.0000    0.0000    0.0000 O   0  0  0  0  0  0  0  0  0  0  0  0
    1.8133   -2.1631    0.0000 C   0  0  0  0  0  0  0  0  0  0  0  0
  1  2  2  0  0  0  0
  1  6  1  0  0  0  0
  1  7  1  0  0  0  0
  2  3  1  0  0  0  0
  3  4  2  0  0  0  0
  4  5  1  0  0  0  0
  5  6  2  0  0  0  0
  5 13  1  0  0  0  0
  7  8  1  0  0  0  0
  7 10  1  0  0  0  0
  7 12  1  0  0  0  0
  9 10  2  0  0  0  0
  9 11  2  0  0  0  0
 13 14  1  0  0  0  0
 13 16  1  0  0  0  0
 13 18  1  0  0  0  0
 15 16  2  0  0  0  0
 15 17  2  0  0  0  0
M  END
> <ID>
5198

> <Formula>
C14H16N2O2

> <FW>
244.289

> <DSSTox_CID>
7498

> <DSSTox_RID>
78473

> <DSSTox_GSID>
27498

> <DSSTox_FileID_Sort>
3156

> <TS_ChemName>
1,3-Bis(2-isocyanatopropan-2-yl)benzene

> <TS_ChemName_Synonyms>
1,3-Bis(2-isocyanatopropan-2-yl)benzene (Benzene, 1,3-bis(1-isocyanato-1-methylethyl)-) (m-Tetramethylxylene diisocyanate)

> <TS_CASRN>
2778-42-9

> <CASRN_ChemName_Relationship>
primary

> <TS_Description>
single chemical compound

> <ChemNote>


> <STRUCTURE_Shown>
tested chemical

> <STRUCTURE_Formula>
C14H16N2O2

> <STRUCTURE_MW>
244.289

> <STRUCTURE_ChemType>
defined organic

> <STRUCTURE_DefinedOrganicForm>
parent

> <STRUCTURE_IUPAC>
1,3-bis(2-isocyanatopropan-2-yl)benzene

> <STRUCTURE_SMILES>
CC(C)(\N=C=O)c1cccc(c1)C(C)(C)/N=C=O

> <STRUCTURE_SMILES_Desalt>
CC(C)(\N=C=O)c1cccc(c1)C(C)(C)/N=C=O

> <Substance_modify_yyyymmdd>
20080429

$$$$
