2779-55-7
ChemmineR-0915142007XD

 24 25  0  0  0  0  0  0  0  0  1 V2000
    3.4486   -5.3379    0.0000 C   0  0  0  0  0  0  0  0  0  0  0  0
    2.3104   -4.6778    0.0000 C   0  0  0  0  0  0  0  0  0  0  0  0
    3.4486   -6.7037    0.0000 C   0  0  0  0  0  0  0  0  0  0  0  0
    7.8988   -2.6747    0.0000 C   0  0  0  0  0  0  0  0  0  0  0  0
    4.6209   -4.6664    0.0000 C   0  0  0  0  0  0  0  0  0  0  0  0
    6.9200   -4.6778    0.0000 N   0  0  0  0  0  0  0  0  0  0  0  0
    2.3104   -3.3462    0.0000 C   0  0  0  0  0  0  0  0  0  0  0  0
    7.8988   -4.0291    0.0000 N   0  0  0  0  0  0  0  0  0  0  0  0
    2.3104   -7.3752    0.0000 O   0  0  0  0  0  0  0  0  0  0  0  0
    6.7492   -2.0031    0.0000 O   0  0  0  0  0  0  0  0  0  0  0  0
   11.3815   -0.7057    0.0000 N   0  0  0  0  0  0  0  0  0  0  0  0
    9.0597   -2.0259    0.0000 C   0  0  0  0  0  0  0  0  0  0  0  0
    4.6209   -3.3462    0.0000 C   0  0  0  0  0  0  0  0  0  0  0  0
    3.4486   -2.6747    0.0000 C   0  0  0  0  0  0  0  0  0  0  0  0
    5.7818   -5.3379    0.0000 C   0  0  0  0  0  0  0  0  0  0  0  0
    4.6209   -7.3638    0.0000 O   0  0  0  0  0  0  0  0  0  0  0  0
    1.1495   -5.3607    0.0000 O   0  0  0  0  0  0  0  0  0  0  0  0
    1.1837   -2.6291    0.0000 O   0  0  0  0  0  0  0  0  0  0  0  0
   11.3815   -2.0373    0.0000 C   0  0  0  0  0  0  0  0  0  0  0  0
   10.2092    0.0000    0.0000 C   0  0  0  0  0  0  0  0  0  0  0  0
   10.2092   -2.6974    0.0000 C   0  0  0  0  0  0  0  0  0  0  0  0
    9.0597   -0.6943    0.0000 C   0  0  0  0  0  0  0  0  0  0  0  0
    0.0000   -4.6778    0.0000 C   0  0  0  0  0  0  0  0  0  0  0  0
    1.1837   -1.3203    0.0000 C   0  0  0  0  0  0  0  0  0  0  0  0
  1  2  2  0  0  0  0
  1  3  1  0  0  0  0
  1  5  1  0  0  0  0
  2  7  1  0  0  0  0
  2 17  1  0  0  0  0
  3  9  2  0  0  0  0
  3 16  1  0  0  0  0
  4  8  1  0  0  0  0
  4 10  2  0  0  0  0
  4 12  1  0  0  0  0
  5 13  2  0  0  0  0
  5 15  1  0  0  0  0
  6 15  2  0  0  0  0
  6  8  1  0  0  0  0
  7 18  1  0  0  0  0
  7 14  2  0  0  0  0
 11 20  2  0  0  0  0
 11 19  1  0  0  0  0
 12 21  1  0  0  0  0
 12 22  2  0  0  0  0
 13 14  1  0  0  0  0
 17 23  1  0  0  0  0
 18 24  1  0  0  0  0
 19 21  2  0  0  0  0
 20 22  1  0  0  0  0
M  END
> <ID>
11483

> <Formula>
C16H15N3O5

> <FW>
329.3074

> <DSSTox_CID>
26185

> <DSSTox_RID>
81416

> <DSSTox_GSID>
46185

> <DSSTox_FileID_Sort>
6097

> <TS_ChemName>
Opiniazide

> <TS_ChemName_Synonyms>


> <TS_CASRN>
2779-55-7

> <CASRN_ChemName_Relationship>
primary

> <TS_Description>
single chemical compound

> <ChemNote>


> <STRUCTURE_Shown>
tested chemical

> <STRUCTURE_Formula>
C16H15N3O5

> <STRUCTURE_MW>
329.3074

> <STRUCTURE_ChemType>
defined organic

> <STRUCTURE_DefinedOrganicForm>
parent

> <STRUCTURE_IUPAC>
2,3-dimethoxy-6-{[2-(pyridin-4-ylcarbonyl)hydrazinylidene]methyl}benzoic acid

> <STRUCTURE_SMILES>
O=C(N\N=C/c1ccc(OC)c(OC)c1C(=O)O)c2ccncc2

> <STRUCTURE_SMILES_Desalt>
O=C(N\N=C/c1ccc(OC)c(OC)c1C(=O)O)c2ccncc2

> <Substance_modify_yyyymmdd>
20110818

$$$$
