2781-11-5
ChemmineR-0915142007XD

 16 15  0  0  0  0  0  0  0  0  1 V2000
    4.6183   -1.3252    0.0000 P   0  0  0  0  0  0  0  0  0  0  0  0
    4.6183    0.0000    0.0000 O   0  0  0  0  0  0  0  0  0  0  0  0
    3.2852   -1.3252    0.0000 O   0  0  0  0  0  0  0  0  0  0  0  0
    5.9434   -1.3252    0.0000 O   0  0  0  0  0  0  0  0  0  0  0  0
    4.6183   -2.6583    0.0000 C   0  0  0  0  0  0  0  0  0  0  0  0
    3.4597   -3.3169    0.0000 N   0  0  0  0  0  0  0  0  0  0  0  0
    2.3091   -2.6583    0.0000 C   0  0  0  0  0  0  0  0  0  0  0  0
    1.1506   -3.3169    0.0000 C   0  0  0  0  0  0  0  0  0  0  0  0
    0.0000   -2.6583    0.0000 O   0  0  0  0  0  0  0  0  0  0  0  0
    3.4597   -4.6421    0.0000 C   0  0  0  0  0  0  0  0  0  0  0  0
    4.6183   -5.3166    0.0000 C   0  0  0  0  0  0  0  0  0  0  0  0
    4.6183   -6.6497    0.0000 O   0  0  0  0  0  0  0  0  0  0  0  0
    6.6020   -0.1746    0.0000 C   0  0  0  0  0  0  0  0  0  0  0  0
    7.9352   -0.1746    0.0000 C   0  0  0  0  0  0  0  0  0  0  0  0
    2.6107   -0.1746    0.0000 C   0  0  0  0  0  0  0  0  0  0  0  0
    1.2855   -0.1746    0.0000 C   0  0  0  0  0  0  0  0  0  0  0  0
  1  2  2  0  0  0  0
  1  3  1  0  0  0  0
  1  4  1  0  0  0  0
  1  5  1  0  0  0  0
  3 15  1  0  0  0  0
  4 13  1  0  0  0  0
  5  6  1  0  0  0  0
  6  7  1  0  0  0  0
  6 10  1  0  0  0  0
  7  8  1  0  0  0  0
  8  9  1  0  0  0  0
 10 11  1  0  0  0  0
 11 12  1  0  0  0  0
 13 14  1  0  0  0  0
 15 16  1  0  0  0  0
M  END
> <ID>
5884

> <Formula>
C9H22NO5P

> <FW>
255.2484

> <DSSTox_CID>
9242

> <DSSTox_RID>
78728

> <DSSTox_GSID>
29242

> <DSSTox_FileID_Sort>
3410

> <TS_ChemName>
Phosphonic acid, [[bis(2-hydroxyethyl)amino]methyl]-, diethyl ester

> <TS_ChemName_Synonyms>


> <TS_CASRN>
2781-11-5

> <CASRN_ChemName_Relationship>
primary

> <TS_Description>
single chemical compound

> <ChemNote>


> <STRUCTURE_Shown>
tested chemical

> <STRUCTURE_Formula>
C9H22NO5P

> <STRUCTURE_MW>
255.2484

> <STRUCTURE_ChemType>
defined organic

> <STRUCTURE_DefinedOrganicForm>
parent

> <STRUCTURE_IUPAC>
diethyl {[bis(2-hydroxyethyl)amino]methyl}phosphonate

> <STRUCTURE_SMILES>
O=P(CN(CCO)CCO)(OCC)OCC

> <STRUCTURE_SMILES_Desalt>
O=P(CN(CCO)CCO)(OCC)OCC

> <Substance_modify_yyyymmdd>
20080429

$$$$
