27813-02-1
ChemmineR-0915142007XD

 10  9  0  0  0  0  0  0  0  0  1 V2000
    2.3000   -1.3261    0.0000 C   0  0  0  0  0  0  0  0  0  0  0  0
    1.1535   -1.9961    0.0000 C   0  0  0  0  0  0  0  0  0  0  0  0
    2.3000    0.0000    0.0000 O   0  0  0  0  0  0  0  0  0  0  0  0
    0.0000   -1.3261    0.0000 C   0  0  0  0  0  0  0  0  0  0  0  0
    3.4535   -1.9961    0.0000 O   0  0  0  0  0  0  0  0  0  0  0  0
    1.1535   -3.3223    0.0000 C   0  0  0  0  0  0  0  0  0  0  0  0
    4.6069   -1.3261    0.0000 C   0  0  0  0  0  0  0  0  0  0  0  0
    5.7535   -1.9961    0.0000 C   0  0  0  0  0  0  0  0  0  0  0  0
    6.9070   -1.3261    0.0000 C   0  0  0  0  0  0  0  0  0  0  0  0
    5.7535   -3.3223    0.0000 O   0  0  0  0  0  0  0  0  0  0  0  0
  1  2  1  0  0  0  0
  1  3  2  0  0  0  0
  1  5  1  0  0  0  0
  2  4  2  0  0  0  0
  2  6  1  0  0  0  0
  5  7  1  0  0  0  0
  7  8  1  0  0  0  0
  8  9  1  0  0  0  0
  8 10  1  0  0  0  0
M  END
> <ID>
4477

> <Formula>
C7H12O3

> <FW>
144.1684

> <DSSTox_CID>
5934

> <DSSTox_RID>
78619

> <DSSTox_GSID>
27936

> <DSSTox_FileID_Sort>
3301

> <TS_ChemName>
Hydroxypropyl methacrylate

> <TS_ChemName_Synonyms>
Hydroxypropyl methacrylate (2-Propenoic acid, 2-methyl-, monoester with 1,2-propanediol)

> <TS_CASRN>
27813-02-1

> <CASRN_ChemName_Relationship>
primary

> <TS_Description>
mixture or formulation

> <ChemNote>
mixture of propyl esters; structure shown 2-hydroxypropyl

> <STRUCTURE_Shown>
representative component

> <STRUCTURE_Formula>
C7H12O3

> <STRUCTURE_MW>
144.1684

> <STRUCTURE_ChemType>
defined organic

> <STRUCTURE_DefinedOrganicForm>
parent

> <STRUCTURE_IUPAC>
2-hydroxypropyl 2-methylprop-2-enoate

> <STRUCTURE_SMILES>
CC(=C)C(=O)OCC(C)O

> <STRUCTURE_SMILES_Desalt>
CC(=C)C(=O)OCC(C)O

> <Substance_modify_yyyymmdd>
20080429

$$$$
