2782-57-2
ChemmineR-0915142007XD

 11 11  0  0  0  0  0  0  0  0  1 V2000
    0.0000   -2.3039    0.0000 O    0  0  0  0  0  0  0  0  0  0  0  0
    1.3317   -2.3039    0.0000 C    0  0  0  0  0  0  0  0  0  0  0  0
    1.9952   -1.1519    0.0000 N    0  0  0  0  0  0  0  0  0  0  0  0
    3.3268   -1.1519    0.0000 C    0  0  0  0  0  0  0  0  0  0  0  0
    3.9904    0.0000    0.0000 O    0  0  0  0  0  0  0  0  0  0  0  0
    3.9904   -2.3039    0.0000 N    0  0  0  0  0  0  0  0  0  0  0  0
    3.3268   -3.4558    0.0000 C    0  0  0  0  0  0  0  0  0  0  0  0
    3.9904   -4.6078    0.0000 O    0  0  0  0  0  0  0  0  0  0  0  0
    1.3317    0.0000    0.0000 Cl   0  0  0  0  0  0  0  0  0  0  0  0
    1.9952   -3.4558    0.0000 N    0  0  0  0  0  0  0  0  0  0  0  0
    1.3317   -4.6078    0.0000 Cl   0  0  0  0  0  0  0  0  0  0  0  0
  1  2  2  0  0  0  0
  2  3  1  0  0  0  0
  2 10  1  0  0  0  0
  3  4  1  0  0  0  0
  3  9  1  0  0  0  0
  4  5  2  0  0  0  0
  4  6  1  0  0  0  0
  6  7  1  0  0  0  0
  7  8  2  0  0  0  0
  7 10  1  0  0  0  0
 10 11  1  0  0  0  0
M  END
> <ID>
3956

> <Formula>
C3HCl2N3O3

> <FW>
197.9643

> <DSSTox_CID>
4993

> <DSSTox_RID>
77615

> <DSSTox_GSID>
24993

> <DSSTox_FileID_Sort>
2298

> <TS_ChemName>
Troclosene

> <TS_ChemName_Synonyms>
Dichloroisocyanuric acid (Dichloro-s-triazinetrione)

> <TS_CASRN>
2782-57-2

> <CASRN_ChemName_Relationship>
primary

> <TS_Description>
single chemical compound

> <ChemNote>


> <STRUCTURE_Shown>
tested chemical

> <STRUCTURE_Formula>
C3HCl2N3O3

> <STRUCTURE_MW>
197.9643

> <STRUCTURE_ChemType>
defined organic

> <STRUCTURE_DefinedOrganicForm>
parent

> <STRUCTURE_IUPAC>
1,3-dichloro-1,3,5-triazinane-2,4,6-trione

> <STRUCTURE_SMILES>
ClN1C(=O)NC(=O)N(Cl)C1=O

> <STRUCTURE_SMILES_Desalt>
ClN1C(=O)NC(=O)N(Cl)C1=O

> <Substance_modify_yyyymmdd>
20080429

$$$$
