27833-64-3
ChemmineR-0915142007XD

 31 33  0  0  0  0  0  0  0  0  1 V2000
    4.3347   -4.7737    0.0000 C    0  0  0  0  0  0  0  0  0  0  0  0
    3.0316   -4.7737    0.0000 N    0  0  0  0  0  0  0  0  0  0  0  0
    5.1578   -5.7888    0.0000 C    0  0  0  0  0  0  0  0  0  0  0  0
    4.9657   -3.6488    0.0000 N    0  0  0  0  0  0  0  0  0  0  0  0
    4.8560   -7.0919    0.0000 C    0  0  0  0  0  0  0  0  0  0  0  0
    3.6763   -7.6406    0.0000 O    0  0  0  0  0  0  0  0  0  0  0  0
    2.2359   -5.7888    0.0000 C    0  0  0  0  0  0  0  0  0  0  0  0
    2.5103   -7.0919    0.0000 C    0  0  0  0  0  0  0  0  0  0  0  0
    6.3923   -1.2483    0.0000 N    0  0  0  0  0  0  0  0  0  0  0  0
    6.3923   -5.4184    0.0000 C    0  0  0  0  0  0  0  0  0  0  0  0
    6.3512   -3.6488    0.0000 C    0  0  0  0  0  0  0  0  0  0  0  0
    4.4033   -2.4554    0.0000 C    0  0  0  0  0  0  0  0  0  0  0  0
    5.8299   -7.9973    0.0000 C    0  0  0  0  0  0  0  0  0  0  0  0
    4.9657   -1.2483    0.0000 C    0  0  0  0  0  0  0  0  0  0  0  0
    7.0645   -2.4829    0.0000 C    0  0  0  0  0  0  0  0  0  0  0  0
    7.3663   -6.3512    0.0000 C    0  0  0  0  0  0  0  0  0  0  0  0
    7.0645   -7.6132    0.0000 C    0  0  0  0  0  0  0  0  0  0  0  0
    8.6145   -5.9396    0.0000 Cl   0  0  0  0  0  0  0  0  0  0  0  0
    7.1193    0.0000    0.0000 C    0  0  0  0  0  0  0  0  0  0  0  0
    0.9739   -5.3910    0.0000 C    0  0  0  0  0  0  0  0  0  0  0  0
    1.5501   -7.9561    0.0000 C    0  0  0  0  0  0  0  0  0  0  0  0
    0.2606   -7.5720    0.0000 C    0  0  0  0  0  0  0  0  0  0  0  0
    0.0000   -6.2963    0.0000 C    0  0  0  0  0  0  0  0  0  0  0  0
   11.7284   -6.3786    0.0000 C    0  0  0  0  0  0  0  0  0  0  0  0
   12.3868   -2.9081    0.0000 C    0  0  0  0  0  0  0  0  0  0  0  0
   12.3868   -7.5172    0.0000 O    0  0  0  0  0  0  0  0  0  0  0  0
   11.7284   -1.7558    0.0000 O    0  0  0  0  0  0  0  0  0  0  0  0
   10.3978   -6.3786    0.0000 O    0  0  0  0  0  0  0  0  0  0  0  0
   13.7174   -2.9081    0.0000 O    0  0  0  0  0  0  0  0  0  0  0  0
   11.7284   -4.0604    0.0000 C    0  0  0  0  0  0  0  0  0  0  0  0
   12.3868   -5.2126    0.0000 C    0  0  0  0  0  0  0  0  0  0  0  0
  1  2  2  0  0  0  0
  1  3  1  0  0  0  0
  1  4  1  0  0  0  0
  2  7  1  0  0  0  0
  3  5  2  0  0  0  0
  3 10  1  0  0  0  0
  4 11  1  0  0  0  0
  4 12  1  0  0  0  0
  5  6  1  0  0  0  0
  5 13  1  0  0  0  0
  6  8  1  0  0  0  0
  7  8  2  0  0  0  0
  7 20  1  0  0  0  0
  8 21  1  0  0  0  0
  9 14  1  0  0  0  0
  9 19  1  0  0  0  0
  9 15  1  0  0  0  0
 10 16  2  0  0  0  0
 11 15  1  0  0  0  0
 12 14  1  0  0  0  0
 13 17  2  0  0  0  0
 16 17  1  0  0  0  0
 16 18  1  0  0  0  0
 20 23  2  0  0  0  0
 21 22  2  0  0  0  0
 22 23  1  0  0  0  0
 24 26  2  0  0  0  0
 24 28  1  0  0  0  0
 24 31  1  0  0  0  0
 25 30  1  0  0  0  0
 25 27  2  0  0  0  0
 25 29  1  0  0  0  0
 30 31  1  0  0  0  0
M  END
> <ID>
10834

> <Formula>
C22H24ClN3O5

> <FW>
445.8961 (327.8080+118.0880)

> <DSSTox_CID>
25227

> <DSSTox_RID>
80764

> <DSSTox_GSID>
45227

> <DSSTox_FileID_Sort>
5445

> <TS_ChemName>
Loxapine succinate

> <TS_ChemName_Synonyms>


> <TS_CASRN>
27833-64-3

> <CASRN_ChemName_Relationship>
primary

> <TS_Description>
single chemical compound

> <ChemNote>
parent [1977-10-2]

> <STRUCTURE_Shown>
tested chemical

> <STRUCTURE_Formula>
C22H24ClN3O5

> <STRUCTURE_MW>
445.8961

> <STRUCTURE_ChemType>
defined organic

> <STRUCTURE_DefinedOrganicForm>
complex

> <STRUCTURE_IUPAC>
2-chloro-11-(4-methylpiperazin-1-yl)dibenzo[b,f][1,4]oxazepine butanedioate (1:1)

> <STRUCTURE_SMILES>
O=C(O)CCC(=O)O.CN1CCN(CC1)C3=Nc4ccccc4Oc2ccc(Cl)cc23

> <STRUCTURE_SMILES_Desalt>
CN1CCN(CC1)C3=Nc4ccccc4Oc2ccc(Cl)cc23

> <Substance_modify_yyyymmdd>
20100107

$$$$
