27848-84-6
ChemmineR-0915142007XD

 32 36  0  0  1  0  0  0  0  0  1 V2000
    3.4514   -5.9200    0.0000 C    0  0  0  0  0  0  0  0  0  0  0  0
    3.4514   -8.5714    0.0000 C    0  0  0  0  0  0  0  0  0  0  0  0
    2.2857   -6.5942    0.0000 C    0  0  0  0  0  0  0  0  0  0  0  0
    4.5600   -6.5942    0.0000 C    0  0  0  0  0  0  0  0  0  0  0  0
    2.2857   -7.9199    0.0000 C    0  0  0  0  0  0  0  0  0  0  0  0
    1.4857   -9.8514    0.0000 N    0  0  0  0  0  0  0  0  0  0  0  0
    5.7257   -5.9200    0.0000 N    0  0  0  0  0  0  0  0  0  0  0  0
    3.1086   -9.8514    0.0000 C    0  0  0  0  0  0  0  0  0  0  0  0
    1.1543   -8.5714    0.0000 C    0  0  0  0  0  0  0  0  0  0  0  0
    4.5600   -7.9199    0.0000 C    0  0  0  0  0  0  0  0  0  0  0  0
    8.0114   -1.9657    0.0000 C    0  0  0  0  0  0  0  0  0  0  0  0
    6.8685   -2.6400    0.0000 C    0  0  0  0  0  0  0  0  0  0  0  0
    3.4514   -4.5943    0.0000 C    0  0  0  0  0  0  0  0  0  0  0  0
    5.7257   -4.5943    0.0000 C    0  0  0  0  0  0  0  0  0  0  0  0
    4.5600   -3.9428    0.0000 C    0  0  0  0  0  0  0  0  0  0  0  0
    9.1428    0.0000    0.0000 N    0  0  0  0  0  0  0  0  0  0  0  0
    5.7257   -1.9657    0.0000 O    0  0  0  0  0  0  0  0  0  0  0  0
    9.1428   -2.6400    0.0000 C    0  0  0  0  0  0  0  0  0  0  0  0
    6.8685   -3.9428    0.0000 O    0  0  0  0  0  0  0  0  0  0  0  0
    2.2857   -5.2685    0.0000 O    0  0  0  0  0  0  0  0  0  0  0  0
    4.5600   -2.6400    0.0000 C    0  0  0  0  0  0  0  0  0  0  0  0
    8.0114   -0.6514    0.0000 C    0  0  0  0  0  0  0  0  0  0  0  0
   10.2971   -1.9657    0.0000 C    0  0  0  0  0  0  0  0  0  0  0  0
    1.1543   -5.9200    0.0000 C    0  0  0  0  0  0  0  0  0  0  0  0
    0.6171  -10.8228    0.0000 C    0  0  0  0  0  0  0  0  0  0  0  0
    6.8685   -6.5942    0.0000 C    0  0  0  0  0  0  0  0  0  0  0  0
   11.4285   -2.6400    0.0000 Br   0  0  0  0  0  0  0  0  0  0  0  0
    0.0000   -7.9199    0.0000 C    0  0  0  0  0  0  0  0  0  0  0  0
   10.2971   -0.6514    0.0000 C    0  0  0  0  0  0  0  0  0  0  0  0
    0.0000   -6.5942    0.0000 C    0  0  0  0  0  0  0  0  0  0  0  0
    2.2857   -3.9428    0.0000 C    0  0  0  0  0  0  0  0  0  0  0  0
    5.7257   -7.2457    0.0000 H    0  0  0  0  0  0  0  0  0  0  0  0
  1  3  1  0  0  0  0
  1  4  1  0  0  0  0
  1 13  1  0  0  0  0
  1 20  1  6  0  0  0
  2 10  1  0  0  0  0
  2  8  2  0  0  0  0
  2  5  1  0  0  0  0
  3  5  2  0  0  0  0
  3 24  1  0  0  0  0
  4  7  1  0  0  0  0
  4 10  1  0  0  0  0
  4 32  1  1  0  0  0
  5  9  1  0  0  0  0
  6  9  1  0  0  0  0
  6 25  1  0  0  0  0
  6  8  1  0  0  0  0
  7 26  1  0  0  0  0
  7 14  1  0  0  0  0
  9 28  2  0  0  0  0
 11 12  1  0  0  0  0
 11 18  2  0  0  0  0
 11 22  1  0  0  0  0
 12 17  1  0  0  0  0
 12 19  2  0  0  0  0
 13 15  1  0  0  0  0
 14 15  1  0  0  0  0
 15 21  1  1  0  0  0
 16 22  2  0  0  0  0
 16 29  1  0  0  0  0
 17 21  1  0  0  0  0
 18 23  1  0  0  0  0
 20 31  1  0  0  0  0
 23 27  1  0  0  0  0
 23 29  2  0  0  0  0
 24 30  2  0  0  0  0
 28 30  1  0  0  0  0
M  END
> <ID>
11068

> <Formula>
C24H26BrN3O3

> <FW>
484.3855

> <DSSTox_CID>
25607

> <DSSTox_RID>
81000

> <DSSTox_GSID>
45607

> <DSSTox_FileID_Sort>
5681

> <TS_ChemName>
Nicergoline

> <TS_ChemName_Synonyms>


> <TS_CASRN>
27848-84-6

> <CASRN_ChemName_Relationship>
primary

> <TS_Description>
single chemical compound

> <ChemNote>


> <STRUCTURE_Shown>
tested chemical

> <STRUCTURE_Formula>
C24H26BrN3O3

> <STRUCTURE_MW>
484.3855

> <STRUCTURE_ChemType>
defined organic

> <STRUCTURE_DefinedOrganicForm>
parent

> <STRUCTURE_IUPAC>
[(8beta)-10-methoxy-1,6-dimethylergolin-8-yl]methyl 5-bromopyridine-3-carboxylate

> <STRUCTURE_SMILES>
Brc1cc(cnc1)C(=O)OC[C@@H]3C[C@]4(OC)c5cccc2c5c(cn2C)C[C@H]4N(C)C3

> <STRUCTURE_SMILES_Desalt>
Brc1cc(cnc1)C(=O)OC[C@@H]3C[C@]4(OC)c5cccc2c5c(cn2C)C[C@H]4N(C)C3

> <Substance_modify_yyyymmdd>
20100107

$$$$
