2785-89-9
ChemmineR-0915142007XD

 11 11  0  0  0  0  0  0  0  0  1 V2000
    4.6880   -2.3200    0.0000 C   0  0  0  0  0  0  0  0  0  0  0  0
    6.0102   -2.3200    0.0000 O   0  0  0  0  0  0  0  0  0  0  0  0
    3.9908   -1.1780    0.0000 C   0  0  0  0  0  0  0  0  0  0  0  0
    3.9908   -3.4499    0.0000 C   0  0  0  0  0  0  0  0  0  0  0  0
    2.6685   -3.4499    0.0000 C   0  0  0  0  0  0  0  0  0  0  0  0
    2.6685   -1.1780    0.0000 C   0  0  0  0  0  0  0  0  0  0  0  0
    2.0194   -2.3200    0.0000 C   0  0  0  0  0  0  0  0  0  0  0  0
    0.6671   -2.3200    0.0000 C   0  0  0  0  0  0  0  0  0  0  0  0
    0.0000   -1.1780    0.0000 C   0  0  0  0  0  0  0  0  0  0  0  0
    4.6579    0.0000    0.0000 O   0  0  0  0  0  0  0  0  0  0  0  0
    6.0102    0.0000    0.0000 C   0  0  0  0  0  0  0  0  0  0  0  0
  1  2  1  0  0  0  0
  1  3  2  0  0  0  0
  1  4  1  0  0  0  0
  3  6  1  0  0  0  0
  3 10  1  0  0  0  0
  4  5  2  0  0  0  0
  5  7  1  0  0  0  0
  6  7  2  0  0  0  0
  7  8  1  0  0  0  0
  8  9  1  0  0  0  0
 10 11  1  0  0  0  0
M  END
> <ID>
12192

> <Formula>
C9H12O2

> <FW>
152.1904

> <DSSTox_CID>
27038

> <DSSTox_RID>
82059

> <DSSTox_GSID>
47038

> <DSSTox_FileID_Sort>
6740

> <TS_ChemName>
4-Ethyl-2-methoxyphenol

> <TS_ChemName_Synonyms>


> <TS_CASRN>
2785-89-9

> <CASRN_ChemName_Relationship>
primary

> <TS_Description>
single chemical compound

> <ChemNote>


> <STRUCTURE_Shown>
tested chemical

> <STRUCTURE_Formula>
C9H12O2

> <STRUCTURE_MW>
152.1904

> <STRUCTURE_ChemType>
defined organic

> <STRUCTURE_DefinedOrganicForm>
parent

> <STRUCTURE_IUPAC>
4-ethyl-2-methoxyphenol

> <STRUCTURE_SMILES>
Oc1ccc(cc1OC)CC

> <STRUCTURE_SMILES_Desalt>
Oc1ccc(cc1OC)CC

> <Substance_modify_yyyymmdd>
20100428

$$$$
