2785-87-7
ChemmineR-0915142007XD

 12 12  0  0  0  0  0  0  0  0  1 V2000
    5.7492   -0.6557    0.0000 C   0  0  0  0  0  0  0  0  0  0  0  0
    6.9018    0.0000    0.0000 O   0  0  0  0  0  0  0  0  0  0  0  0
    5.7492   -1.9877    0.0000 C   0  0  0  0  0  0  0  0  0  0  0  0
    4.5966    0.0000    0.0000 C   0  0  0  0  0  0  0  0  0  0  0  0
    3.4440   -0.6557    0.0000 C   0  0  0  0  0  0  0  0  0  0  0  0
    4.5966   -2.6572    0.0000 C   0  0  0  0  0  0  0  0  0  0  0  0
    3.4440   -1.9877    0.0000 C   0  0  0  0  0  0  0  0  0  0  0  0
    6.9018   -2.6572    0.0000 O   0  0  0  0  0  0  0  0  0  0  0  0
    6.9018   -3.9893    0.0000 C   0  0  0  0  0  0  0  0  0  0  0  0
    2.2914   -2.6572    0.0000 C   0  0  0  0  0  0  0  0  0  0  0  0
    1.1388   -1.9877    0.0000 C   0  0  0  0  0  0  0  0  0  0  0  0
    0.0000   -2.6572    0.0000 C   0  0  0  0  0  0  0  0  0  0  0  0
  1  2  1  0  0  0  0
  1  3  2  0  0  0  0
  1  4  1  0  0  0  0
  3  6  1  0  0  0  0
  3  8  1  0  0  0  0
  4  5  2  0  0  0  0
  5  7  1  0  0  0  0
  6  7  2  0  0  0  0
  7 10  1  0  0  0  0
  8  9  1  0  0  0  0
 10 11  1  0  0  0  0
 11 12  1  0  0  0  0
M  END
> <ID>
12345

> <Formula>
C10H14O2

> <FW>
166.217

> <DSSTox_CID>
27199

> <DSSTox_RID>
82194

> <DSSTox_GSID>
47199

> <DSSTox_FileID_Sort>
6875

> <TS_ChemName>
2-Methoxy-4-propylphenol

> <TS_ChemName_Synonyms>
2-Methoxy-4-propylphenol (Dihydroeugenol)

> <TS_CASRN>
2785-87-7

> <CASRN_ChemName_Relationship>
primary

> <TS_Description>
single chemical compound

> <ChemNote>


> <STRUCTURE_Shown>
tested chemical

> <STRUCTURE_Formula>
C10H14O2

> <STRUCTURE_MW>
166.217

> <STRUCTURE_ChemType>
defined organic

> <STRUCTURE_DefinedOrganicForm>
parent

> <STRUCTURE_IUPAC>
2-methoxy-4-propylphenol

> <STRUCTURE_SMILES>
Oc1ccc(cc1OC)CCC

> <STRUCTURE_SMILES_Desalt>
Oc1ccc(cc1OC)CCC

> <Substance_modify_yyyymmdd>
20100503

$$$$
