27858-32-8
ChemmineR-0915142007XD

 27 26  0  0  0  0  0  0  0  0  1 V2000
    5.7824   -3.4510    0.0000 Ti   0  0  0  0  0  0  0  0  0  0  0  0
    4.6051   -2.7931    0.0000 O    0  0  0  0  0  0  0  0  0  0  0  0
    6.4056   -2.3083    0.0000 O    0  0  0  0  0  0  0  0  0  0  0  0
    5.1014   -4.6167    0.0000 O    0  0  0  0  0  0  0  0  0  0  0  0
    6.9365   -4.1088    0.0000 O    0  0  0  0  0  0  0  0  0  0  0  0
    5.7824   -5.7593    0.0000 C    0  0  0  0  0  0  0  0  0  0  0  0
    5.7593   -1.1657    0.0000 C    0  0  0  0  0  0  0  0  0  0  0  0
    7.1097   -5.7593    0.0000 C    0  0  0  0  0  0  0  0  0  0  0  0
    5.1014   -6.9135    0.0000 C    0  0  0  0  0  0  0  0  0  0  0  0
    4.4320   -1.1657    0.0000 C    0  0  0  0  0  0  0  0  0  0  0  0
    6.4056    0.0000    0.0000 C    0  0  0  0  0  0  0  0  0  0  0  0
    3.4625   -3.4625    0.0000 C    0  0  0  0  0  0  0  0  0  0  0  0
    8.0792   -3.4510    0.0000 C    0  0  0  0  0  0  0  0  0  0  0  0
    2.3083   -2.8046    0.0000 C    0  0  0  0  0  0  0  0  0  0  0  0
    1.1542   -3.4625    0.0000 C    0  0  0  0  0  0  0  0  0  0  0  0
    1.1542   -4.7898    0.0000 O    0  0  0  0  0  0  0  0  0  0  0  0
    8.0792   -2.1121    0.0000 C    0  0  0  0  0  0  0  0  0  0  0  0
    9.2333   -4.1204    0.0000 C    0  0  0  0  0  0  0  0  0  0  0  0
   10.3875   -3.4625    0.0000 C    0  0  0  0  0  0  0  0  0  0  0  0
   10.3875   -2.1352    0.0000 O    0  0  0  0  0  0  0  0  0  0  0  0
   11.5417   -4.1204    0.0000 O    0  0  0  0  0  0  0  0  0  0  0  0
    0.0000   -5.4707    0.0000 C    0  0  0  0  0  0  0  0  0  0  0  0
   11.5417   -1.4542    0.0000 C    0  0  0  0  0  0  0  0  0  0  0  0
    3.4856   -4.7898    0.0000 C    0  0  0  0  0  0  0  0  0  0  0  0
    0.0000   -2.7931    0.0000 O    0  0  0  0  0  0  0  0  0  0  0  0
    0.0000   -6.7980    0.0000 C    0  0  0  0  0  0  0  0  0  0  0  0
   11.5417   -0.1270    0.0000 C    0  0  0  0  0  0  0  0  0  0  0  0
  1  2  1  0  0  0  0
  1  3  1  0  0  0  0
  1  4  1  0  0  0  0
  1  5  1  0  0  0  0
  2 12  1  0  0  0  0
  3  7  1  0  0  0  0
  4  6  1  0  0  0  0
  5 13  1  0  0  0  0
  6  8  1  0  0  0  0
  6  9  1  0  0  0  0
  7 10  1  0  0  0  0
  7 11  1  0  0  0  0
 12 14  2  0  0  0  0
 12 24  1  0  0  0  0
 13 17  1  0  0  0  0
 13 18  2  0  0  0  0
 14 15  1  0  0  0  0
 15 16  1  0  0  0  0
 15 25  2  0  0  0  0
 16 22  1  0  0  0  0
 18 19  1  0  0  0  0
 19 20  1  0  0  0  0
 19 21  2  0  0  0  0
 20 23  1  0  0  0  0
 22 26  1  0  0  0  0
 23 27  1  0  0  0  0
M  END
> <ID>
10550

> <Formula>
C18H32O8Ti

> <FW>
424.3089

> <DSSTox_CID>
24903

> <DSSTox_RID>
80574

> <DSSTox_GSID>
44903

> <DSSTox_FileID_Sort>
5256

> <TS_ChemName>
Titanium(4+) bis[(2E)-4-oxohex-2-en-2-olate] dipropan-2-olate

> <TS_ChemName_Synonyms>
Titanium(4+) bis[(2E)-4-oxohex-2-en-2-olate] dipropan-2-olate (Titanium, bis[ethyl 3-(oxo-.kappa.O)butanoato-.kappa.O']bis(2-propanolato)-)

> <TS_CASRN>
27858-32-8

> <CASRN_ChemName_Relationship>
primary

> <TS_Description>
single chemical compound

> <ChemNote>


> <STRUCTURE_Shown>
tested chemical

> <STRUCTURE_Formula>
C18H32O8Ti

> <STRUCTURE_MW>
424.3089

> <STRUCTURE_ChemType>
organometallic

> <STRUCTURE_DefinedOrganicForm>


> <STRUCTURE_IUPAC>
titanium(4+) (2E)-4-ethoxy-4-oxobut-2-en-2-olate propan-2-olate (1:2:2)

> <STRUCTURE_SMILES>
CC(C)O[Ti](OC(/C)=C/C(=O)OCC)(OC(C)C)OC(\C)=C\C(=O)OCC

> <STRUCTURE_SMILES_Desalt>
CC(C)O[Ti](OC(/C)=C/C(=O)OCC)(OC(C)C)OC(\C)=C\C(=O)OCC

> <Substance_modify_yyyymmdd>
20091116

$$$$
