27877-51-6
ChemmineR-0915142007XD

 21 23  0  0  0  0  0  0  0  0  1 V2000
    6.6469   -3.3403    0.0000 C   0  0  0  0  0  0  0  0  0  0  0  0
    7.7941   -3.9702    0.0000 N   0  0  0  0  0  0  0  0  0  0  0  0
    8.9301   -3.3403    0.0000 C   0  0  0  0  0  0  0  0  0  0  0  0
    5.5110   -3.9702    0.0000 O   0  0  0  0  0  0  0  0  0  0  0  0
    6.6469   -1.9795    0.0000 S   0  0  0  0  0  0  0  0  0  0  0  0
    2.0244   -3.2954    0.0000 C   0  0  0  0  0  0  0  0  0  0  0  0
    4.3413   -3.2954    0.0000 C   0  0  0  0  0  0  0  0  0  0  0  0
    3.1716   -3.9702    0.0000 C   0  0  0  0  0  0  0  0  0  0  0  0
    8.9301   -1.9795    0.0000 C   0  0  0  0  0  0  0  0  0  0  0  0
    2.0244   -1.9795    0.0000 C   0  0  0  0  0  0  0  0  0  0  0  0
    3.1716   -1.3159    0.0000 C   0  0  0  0  0  0  0  0  0  0  0  0
    4.3413   -1.9795    0.0000 C   0  0  0  0  0  0  0  0  0  0  0  0
   10.0997   -1.3159    0.0000 C   0  0  0  0  0  0  0  0  0  0  0  0
   10.0997   -3.9702    0.0000 C   0  0  0  0  0  0  0  0  0  0  0  0
    7.7941   -5.3198    0.0000 C   0  0  0  0  0  0  0  0  0  0  0  0
    0.7423   -3.7115    0.0000 C   0  0  0  0  0  0  0  0  0  0  0  0
    0.0000   -2.6318    0.0000 C   0  0  0  0  0  0  0  0  0  0  0  0
   11.2469   -3.3403    0.0000 C   0  0  0  0  0  0  0  0  0  0  0  0
    0.7423   -1.5746    0.0000 C   0  0  0  0  0  0  0  0  0  0  0  0
   11.2469   -1.9795    0.0000 C   0  0  0  0  0  0  0  0  0  0  0  0
   10.0997    0.0000    0.0000 C   0  0  0  0  0  0  0  0  0  0  0  0
  1  2  1  0  0  0  0
  1  4  1  0  0  0  0
  1  5  2  0  0  0  0
  2  3  1  0  0  0  0
  2 15  1  0  0  0  0
  3  9  2  0  0  0  0
  3 14  1  0  0  0  0
  4  7  1  0  0  0  0
  6  8  2  0  0  0  0
  6 16  1  0  0  0  0
  6 10  1  0  0  0  0
  7  8  1  0  0  0  0
  7 12  2  0  0  0  0
  9 13  1  0  0  0  0
 10 11  2  0  0  0  0
 10 19  1  0  0  0  0
 11 12  1  0  0  0  0
 13 21  1  0  0  0  0
 13 20  2  0  0  0  0
 14 18  2  0  0  0  0
 16 17  1  0  0  0  0
 17 19  1  0  0  0  0
 18 20  1  0  0  0  0
M  END
> <ID>
13807

> <Formula>
C18H19NOS

> <FW>
297.4146

> <DSSTox_CID>
28744

> <DSSTox_RID>
83013

> <DSSTox_GSID>
48818

> <DSSTox_FileID_Sort>
7690

> <TS_ChemName>
Tolindate

> <TS_ChemName_Synonyms>


> <TS_CASRN>
27877-51-6

> <CASRN_ChemName_Relationship>
primary

> <TS_Description>
single chemical compound

> <ChemNote>


> <STRUCTURE_Shown>
tested chemical

> <STRUCTURE_Formula>
C18H19NOS

> <STRUCTURE_MW>
297.4146

> <STRUCTURE_ChemType>
defined organic

> <STRUCTURE_DefinedOrganicForm>
parent

> <STRUCTURE_IUPAC>
O-(2,3-dihydro-1H-inden-5-yl) methyl(3-methylphenyl)carbamothioate

> <STRUCTURE_SMILES>
Cc1cc(ccc1)N(C)C(=S)Oc2ccc3CCCc3c2

> <STRUCTURE_SMILES_Desalt>
Cc1cc(ccc1)N(C)C(=S)Oc2ccc3CCCc3c2

> <Substance_modify_yyyymmdd>
20111204

$$$$
