27887-84-9
ChemmineR-0915142007XD

 10  9  0  0  1  0  0  0  0  0  1 V2000
    4.6038   -2.0034    0.0000 C   0  0  0  0  0  0  0  0  0  0  0  0
    1.1366   -1.3662    0.0000 C   0  0  0  0  0  0  0  0  0  0  0  0
    5.7405   -1.3490    0.0000 O   0  0  0  0  0  0  0  0  0  0  0  0
    0.0000   -2.0034    0.0000 O   0  0  0  0  0  0  0  0  0  0  0  0
    4.5694   -3.3524    0.0000 O   0  0  0  0  0  0  0  0  0  0  0  0
    1.1366   -0.0172    0.0000 O   0  0  0  0  0  0  0  0  0  0  0  0
    2.2904   -2.0034    0.0000 C   0  0  0  0  0  0  0  0  0  0  0  0
    3.4500   -1.3490    0.0000 C   0  0  0  0  0  0  0  0  0  0  0  0
    3.4500    0.0000    0.0000 S   0  0  0  0  0  0  0  0  0  0  0  0
    2.3077   -3.3352    0.0000 S   0  0  0  0  0  0  0  0  0  0  0  0
  1  3  2  0  0  0  0
  1  5  1  0  0  0  0
  1  8  1  0  0  0  0
  2  7  1  0  0  0  0
  2  4  2  0  0  0  0
  2  6  1  0  0  0  0
  7  8  1  0  0  0  0
  7 10  1  6  0  0  0
  8  9  1  6  0  0  0
M  END
> <ID>
10728

> <Formula>
C4H6O4S2

> <FW>
182.218

> <DSSTox_CID>
25084

> <DSSTox_RID>
80659

> <DSSTox_GSID>
45084

> <DSSTox_FileID_Sort>
5341

> <TS_ChemName>
(2R,3R)-2,3-Dimercaptosuccinic acid

> <TS_ChemName_Synonyms>
2,3-Dimercaptobutanedioic acid

> <TS_CASRN>
27887-84-9

> <CASRN_ChemName_Relationship>
primary

> <TS_Description>
single chemical compound

> <ChemNote>
stereochem

> <STRUCTURE_Shown>
tested chemical

> <STRUCTURE_Formula>
C4H6O4S2

> <STRUCTURE_MW>
182.218

> <STRUCTURE_ChemType>
defined organic

> <STRUCTURE_DefinedOrganicForm>
parent

> <STRUCTURE_IUPAC>
(2R,3R)-2,3-disulfanylbutanedioic acid

> <STRUCTURE_SMILES>
O=C(O)[C@@H](S)[C@H](S)C(O)=O

> <STRUCTURE_SMILES_Desalt>
O=C(O)[C@@H](S)[C@H](S)C(O)=O

> <Substance_modify_yyyymmdd>
20120227

$$$$
