27912-14-7
ChemmineR-0915142007XD

 22 22  0  0  1  0  0  0  0  0  1 V2000
    2.3028   -5.1035    0.0000 C    0  0  0  0  0  0  0  0  0  0  0  0
    2.3028   -3.7758    0.0000 C    0  0  0  0  0  0  0  0  0  0  0  0
    1.1514   -5.7778    0.0000 C    0  0  0  0  0  0  0  0  0  0  0  0
    3.4542   -3.1119    0.0000 C    0  0  0  0  0  0  0  0  0  0  0  0
    3.4542   -1.7738    0.0000 O    0  0  0  0  0  0  0  0  0  0  0  0
    8.0495   -1.7945    0.0000 N    0  0  0  0  0  0  0  0  0  0  0  0
    1.1514   -7.1055    0.0000 O    0  0  0  0  0  0  0  0  0  0  0  0
    9.2216   -1.1514    0.0000 C    0  0  0  0  0  0  0  0  0  0  0  0
    5.7466   -1.7738    0.0000 C    0  0  0  0  0  0  0  0  0  0  0  0
    4.6056   -1.1099    0.0000 C    0  0  0  0  0  0  0  0  0  0  0  0
    6.9188   -1.1307    0.0000 C    0  0  0  0  0  0  0  0  0  0  0  0
    3.4542   -5.7778    0.0000 C    0  0  0  0  0  0  0  0  0  0  0  0
    1.1514   -3.1119    0.0000 C    0  0  0  0  0  0  0  0  0  0  0  0
    5.7363   -3.1119    0.0000 O    0  0  0  0  0  0  0  0  0  0  0  0
    0.0000   -5.1035    0.0000 C    0  0  0  0  0  0  0  0  0  0  0  0
    0.0000   -3.7758    0.0000 C    0  0  0  0  0  0  0  0  0  0  0  0
    4.6056   -5.1035    0.0000 C    0  0  0  0  0  0  0  0  0  0  0  0
    4.6056   -3.7758    0.0000 C    0  0  0  0  0  0  0  0  0  0  0  0
    8.5577    0.0000    0.0000 C    0  0  0  0  0  0  0  0  0  0  0  0
    9.8647   -2.3236    0.0000 C    0  0  0  0  0  0  0  0  0  0  0  0
   10.3730   -0.5083    0.0000 C    0  0  0  0  0  0  0  0  0  0  0  0
    6.9603   -6.1616    0.0000 Cl   0  0  0  0  0  0  0  0  0  0  0  0
  1  2  2  0  0  0  0
  1  3  1  0  0  0  0
  1 12  1  0  0  0  0
  2  4  1  0  0  0  0
  2 13  1  0  0  0  0
  3  7  2  0  0  0  0
  3 15  1  0  0  0  0
  4  5  1  0  0  0  0
  4 18  2  0  0  0  0
  5 10  1  0  0  0  0
  6 11  1  0  0  0  0
  6  8  1  0  0  0  0
  8 19  1  0  0  0  0
  8 20  1  0  0  0  0
  8 21  1  0  0  0  0
  9 10  1  0  0  0  0
  9 11  1  0  0  0  0
  9 14  1  6  0  0  0
 12 17  2  0  0  0  0
 13 16  1  0  0  0  0
 15 16  1  0  0  0  0
 17 18  1  0  0  0  0
M  END
> <ID>
747

> <Formula>
C17H26ClNO3

> <FW>
327.8462 (291.3853+36.4609)

> <DSSTox_CID>
777

> <DSSTox_RID>
75784

> <DSSTox_GSID>
20777

> <DSSTox_FileID_Sort>
468

> <TS_ChemName>
Levobunolol hydrochloride

> <TS_ChemName_Synonyms>


> <TS_CASRN>
27912-14-7

> <CASRN_ChemName_Relationship>
primary

> <TS_Description>
single chemical compound

> <ChemNote>
stereochem;  parent [47141-42-4]

> <STRUCTURE_Shown>
tested chemical

> <STRUCTURE_Formula>
C17H26ClNO3

> <STRUCTURE_MW>
327.8462

> <STRUCTURE_ChemType>
defined organic

> <STRUCTURE_DefinedOrganicForm>
complex

> <STRUCTURE_IUPAC>
5-[(2S)-3-(tert-butylamino)-2-hydroxypropoxy]-3,4-dihydronaphthalen-1(2H)-one hydrochloride (1:1)

> <STRUCTURE_SMILES>
Cl.CC(C)(C)NC[C@H](O)COc2cccc1c2CCCC1=O

> <STRUCTURE_SMILES_Desalt>
CC(C)(C)NC[C@H](O)COc2cccc1c2CCCC1=O

> <Substance_modify_yyyymmdd>
20080429

$$$$
