27959-26-8
ChemmineR-0915142007XD

 47 51  0  0  0  0  0  0  0  0  1 V2000
    9.1990   -2.1720    0.0000 C   0  0  0  0  0  0  0  0  0  0  0  0
    8.0332   -1.4853    0.0000 C   0  0  0  0  0  0  0  0  0  0  0  0
   10.3330   -1.2776    0.0000 C   0  0  0  0  0  0  0  0  0  0  0  0
   10.3330   -2.8108    0.0000 C   0  0  0  0  0  0  0  0  0  0  0  0
    9.1990   -3.5135    0.0000 C   0  0  0  0  0  0  0  0  0  0  0  0
    6.9312   -2.1720    0.0000 C   0  0  0  0  0  0  0  0  0  0  0  0
    8.0332   -0.2715    0.0000 O   0  0  0  0  0  0  0  0  0  0  0  0
   11.4988   -1.8526    0.0000 O   0  0  0  0  0  0  0  0  0  0  0  0
   10.3330   -4.2003    0.0000 O   0  0  0  0  0  0  0  0  0  0  0  0
    8.0332   -4.2003    0.0000 C   0  0  0  0  0  0  0  0  0  0  0  0
    5.7494   -1.2776    0.0000 C   0  0  0  0  0  0  0  0  0  0  0  0
    5.7973   -2.8108    0.0000 C   0  0  0  0  0  0  0  0  0  0  0  0
    6.9312   -3.5135    0.0000 C   0  0  0  0  0  0  0  0  0  0  0  0
   12.6647   -1.2776    0.0000 C   0  0  0  0  0  0  0  0  0  0  0  0
   11.4988   -4.8391    0.0000 C   0  0  0  0  0  0  0  0  0  0  0  0
    4.5836   -1.8526    0.0000 O   0  0  0  0  0  0  0  0  0  0  0  0
    5.7973   -4.2003    0.0000 O   0  0  0  0  0  0  0  0  0  0  0  0
   13.7347   -1.8526    0.0000 C   0  0  0  0  0  0  0  0  0  0  0  0
   12.6647    0.0000    0.0000 O   0  0  0  0  0  0  0  0  0  0  0  0
   11.4988   -6.1167    0.0000 C   0  0  0  0  0  0  0  0  0  0  0  0
   12.6647   -4.2003    0.0000 O   0  0  0  0  0  0  0  0  0  0  0  0
    3.4177   -1.2776    0.0000 C   0  0  0  0  0  0  0  0  0  0  0  0
    4.6315   -4.8391    0.0000 C   0  0  0  0  0  0  0  0  0  0  0  0
   13.7347   -3.2580    0.0000 C   0  0  0  0  0  0  0  0  0  0  0  0
   14.8526   -1.2776    0.0000 C   0  0  0  0  0  0  0  0  0  0  0  0
   10.3330   -6.8035    0.0000 C   0  0  0  0  0  0  0  0  0  0  0  0
   12.6647   -6.8035    0.0000 C   0  0  0  0  0  0  0  0  0  0  0  0
    2.3477   -1.8526    0.0000 C   0  0  0  0  0  0  0  0  0  0  0  0
    3.4177    0.0000    0.0000 O   0  0  0  0  0  0  0  0  0  0  0  0
    4.6315   -6.1167    0.0000 C   0  0  0  0  0  0  0  0  0  0  0  0
    3.5135   -4.2003    0.0000 O   0  0  0  0  0  0  0  0  0  0  0  0
   14.8526   -3.9447    0.0000 C   0  0  0  0  0  0  0  0  0  0  0  0
   15.9706   -1.8526    0.0000 N   0  0  0  0  0  0  0  0  0  0  0  0
   10.3330   -8.1450    0.0000 C   0  0  0  0  0  0  0  0  0  0  0  0
   12.6647   -8.1450    0.0000 N   0  0  0  0  0  0  0  0  0  0  0  0
    2.3477   -3.1941    0.0000 C   0  0  0  0  0  0  0  0  0  0  0  0
    1.1659   -1.2776    0.0000 C   0  0  0  0  0  0  0  0  0  0  0  0
    5.7973   -6.8035    0.0000 C   0  0  0  0  0  0  0  0  0  0  0  0
    3.4177   -6.8035    0.0000 C   0  0  0  0  0  0  0  0  0  0  0  0
   15.9706   -3.2580    0.0000 C   0  0  0  0  0  0  0  0  0  0  0  0
   11.4988   -8.8317    0.0000 C   0  0  0  0  0  0  0  0  0  0  0  0
    1.1659   -3.9447    0.0000 C   0  0  0  0  0  0  0  0  0  0  0  0
    0.0000   -1.8526    0.0000 N   0  0  0  0  0  0  0  0  0  0  0  0
    5.7973   -8.1450    0.0000 C   0  0  0  0  0  0  0  0  0  0  0  0
    3.4177   -8.1450    0.0000 N   0  0  0  0  0  0  0  0  0  0  0  0
    0.0000   -3.1941    0.0000 C   0  0  0  0  0  0  0  0  0  0  0  0
    4.6315   -8.8317    0.0000 C   0  0  0  0  0  0  0  0  0  0  0  0
  1  2  1  0  0  0  0
  1  3  1  0  0  0  0
  1  4  1  0  0  0  0
  1  5  1  0  0  0  0
  2  6  1  0  0  0  0
  2  7  1  0  0  0  0
  3  8  1  0  0  0  0
  4  9  1  0  0  0  0
  5 10  1  0  0  0  0
  6 11  1  0  0  0  0
  6 12  1  0  0  0  0
  6 13  1  0  0  0  0
  8 14  1  0  0  0  0
  9 15  1  0  0  0  0
 10 13  1  0  0  0  0
 11 16  1  0  0  0  0
 12 17  1  0  0  0  0
 14 18  1  0  0  0  0
 14 19  2  0  0  0  0
 15 20  1  0  0  0  0
 15 21  2  0  0  0  0
 16 22  1  0  0  0  0
 17 23  1  0  0  0  0
 18 24  1  0  0  0  0
 18 25  2  0  0  0  0
 20 26  1  0  0  0  0
 20 27  2  0  0  0  0
 22 28  1  0  0  0  0
 22 29  2  0  0  0  0
 23 30  1  0  0  0  0
 23 31  2  0  0  0  0
 24 32  2  0  0  0  0
 25 33  1  0  0  0  0
 26 34  2  0  0  0  0
 27 35  1  0  0  0  0
 28 36  2  0  0  0  0
 28 37  1  0  0  0  0
 30 38  2  0  0  0  0
 30 39  1  0  0  0  0
 32 40  1  0  0  0  0
 33 40  2  0  0  0  0
 34 41  1  0  0  0  0
 35 41  2  0  0  0  0
 36 42  1  0  0  0  0
 37 43  2  0  0  0  0
 38 44  1  0  0  0  0
 39 45  2  0  0  0  0
 42 46  2  0  0  0  0
 43 46  1  0  0  0  0
 44 47  2  0  0  0  0
 45 47  1  0  0  0  0
M  END
> <ID>
13714

> <Formula>
C34H32N4O9

> <FW>
640.6393

> <DSSTox_CID>
28648

> <DSSTox_RID>
82918

> <DSSTox_GSID>
48722

> <DSSTox_FileID_Sort>
7595

> <TS_ChemName>
Nicomolol

> <TS_ChemName_Synonyms>


> <TS_CASRN>
27959-26-8

> <CASRN_ChemName_Relationship>
primary

> <TS_Description>
single chemical compound

> <ChemNote>


> <STRUCTURE_Shown>
tested chemical

> <STRUCTURE_Formula>
C34H32N4O9

> <STRUCTURE_MW>
640.6393

> <STRUCTURE_ChemType>
defined organic

> <STRUCTURE_DefinedOrganicForm>
parent

> <STRUCTURE_IUPAC>
(2-hydroxycyclohexane-1,1,3,3-tetrayl)tetramethanediyl tetrapyridine-3-carboxylate

> <STRUCTURE_SMILES>
O=C(OCC4(COC(=O)c1cccnc1)CCCC(COC(=O)c2cccnc2)(COC(=O)c3cccnc3)C4O)c5cccnc5

> <STRUCTURE_SMILES_Desalt>
O=C(OCC4(COC(=O)c1cccnc1)CCCC(COC(=O)c2cccnc2)(COC(=O)c3cccnc3)C4O)c5cccnc5

> <Substance_modify_yyyymmdd>
20111204

$$$$
