2795-39-3
ChemmineR-0915142007XD

 30 28  0  0  0  0  0  0  0  0  2 V2000
    0.0000   -1.6463    0.0000 K   0  3  0  0  0  0  0  0  0  0  0  0
    4.9674   -1.3199    0.0000 C   0  0  0  0  0  0  0  0  0  0  0  0
    6.1028   -1.9869    0.0000 C   0  0  0  0  0  0  0  0  0  0  0  0
    7.2807   -1.3199    0.0000 C   0  0  0  0  0  0  0  0  0  0  0  0
    8.4161   -1.9869    0.0000 C   0  0  0  0  0  0  0  0  0  0  0  0
    9.6083   -1.3199    0.0000 C   0  0  0  0  0  0  0  0  0  0  0  0
   10.7437   -1.9869    0.0000 C   0  0  0  0  0  0  0  0  0  0  0  0
   11.8791   -1.3199    0.0000 C   0  0  0  0  0  0  0  0  0  0  0  0
   13.0571   -1.9869    0.0000 C   0  0  0  0  0  0  0  0  0  0  0  0
    3.7894   -1.9869    0.0000 S   0  0  0  0  0  0  0  0  0  0  0  0
    3.0798   -0.7096    0.0000 O   0  0  0  0  0  0  0  0  0  0  0  0
    2.6966   -2.6398    0.0000 O   0  5  0  0  0  0  0  0  0  0  0  0
    4.4422   -3.1223    0.0000 O   0  0  0  0  0  0  0  0  0  0  0  0
    4.9674    0.0000    0.0000 F   0  0  0  0  0  0  0  0  0  0  0  0
    4.9674   -2.6398    0.0000 F   0  0  0  0  0  0  0  0  0  0  0  0
    6.1028   -3.3068    0.0000 F   0  0  0  0  0  0  0  0  0  0  0  0
    6.1028   -0.6529    0.0000 F   0  0  0  0  0  0  0  0  0  0  0  0
    7.2807    0.0000    0.0000 F   0  0  0  0  0  0  0  0  0  0  0  0
    7.2807   -2.6398    0.0000 F   0  0  0  0  0  0  0  0  0  0  0  0
    8.4161   -3.3068    0.0000 F   0  0  0  0  0  0  0  0  0  0  0  0
    8.4161   -0.6529    0.0000 F   0  0  0  0  0  0  0  0  0  0  0  0
    9.6083    0.0000    0.0000 F   0  0  0  0  0  0  0  0  0  0  0  0
    9.6083   -2.6398    0.0000 F   0  0  0  0  0  0  0  0  0  0  0  0
   10.7437   -3.3068    0.0000 F   0  0  0  0  0  0  0  0  0  0  0  0
   10.7437   -0.6529    0.0000 F   0  0  0  0  0  0  0  0  0  0  0  0
   11.8791    0.0000    0.0000 F   0  0  0  0  0  0  0  0  0  0  0  0
   13.0571   -0.6529    0.0000 F   0  0  0  0  0  0  0  0  0  0  0  0
   14.1925   -1.3199    0.0000 F   0  0  0  0  0  0  0  0  0  0  0  0
   13.0571   -3.3068    0.0000 F   0  0  0  0  0  0  0  0  0  0  0  0
   14.1925   -2.6398    0.0000 F   0  0  0  0  0  0  0  0  0  0  0  0
  2  3  1  0  0  0  0
  2 10  1  0  0  0  0
  2 14  1  0  0  0  0
  2 15  1  0  0  0  0
  3  4  1  0  0  0  0
  3 16  1  0  0  0  0
  3 17  1  0  0  0  0
  4  5  1  0  0  0  0
  4 18  1  0  0  0  0
  4 19  1  0  0  0  0
  5  6  1  0  0  0  0
  5 20  1  0  0  0  0
  5 21  1  0  0  0  0
  6  7  1  0  0  0  0
  6 22  1  0  0  0  0
  6 23  1  0  0  0  0
  7  8  1  0  0  0  0
  7 24  1  0  0  0  0
  7 25  1  0  0  0  0
  8  9  1  0  0  0  0
  8 26  1  0  0  0  0
  8 27  1  0  0  0  0
  9 28  1  0  0  0  0
  9 29  1  0  0  0  0
  9 30  1  0  0  0  0
 10 11  2  0  0  0  0
 10 12  1  0  0  0  0
 10 13  2  0  0  0  0
M  END
> <ID>
7407

> <Formula>
C8F17KO3S

> <FW>
538.2200 (39.0978+499.1222)

> <DSSTox_CID>
17706

> <DSSTox_RID>
79357

> <DSSTox_GSID>
37706

> <DSSTox_FileID_Sort>
4039

> <TS_ChemName>
Potassium perfluorooctanesulfonate

> <TS_ChemName_Synonyms>
Potassium perfluorooctanesulfonate (PFOS, K salt)

> <TS_CASRN>
2795-39-3

> <CASRN_ChemName_Relationship>
primary

> <TS_Description>
single chemical compound

> <ChemNote>
parent [1763-23-1]

> <STRUCTURE_Shown>
tested chemical

> <STRUCTURE_Formula>
C8F17KO3S

> <STRUCTURE_MW>
538.22

> <STRUCTURE_ChemType>
defined organic

> <STRUCTURE_DefinedOrganicForm>
salt

> <STRUCTURE_IUPAC>
potassium 1,1,2,2,3,3,4,4,5,5,6,6,7,7,8,8,8-heptadecafluorooctane-1-sulfonate

> <STRUCTURE_SMILES>
[K+].FC(F)(C(F)(F)S([O-])(=O)=O)C(F)(F)C(F)(F)C(F)(F)C(F)(F)C(F)(F)C(F)(F)F

> <STRUCTURE_SMILES_Desalt>
FC(F)(C(F)(F)S(=O)(=O)O)C(F)(F)C(F)(F)C(F)(F)C(F)(F)C(F)(F)C(F)(F)F

> <Substance_modify_yyyymmdd>
20080429

$$$$
