27955-94-8
ChemmineR-0915142007XD

 23 25  0  0  0  0  0  0  0  0  1 V2000
    2.6074   -1.1517    0.0000 C   0  0  0  0  0  0  0  0  0  0  0  0
    1.9441    0.0000    0.0000 O   0  0  0  0  0  0  0  0  0  0  0  0
    3.9434   -1.1517    0.0000 C   0  0  0  0  0  0  0  0  0  0  0  0
    1.9441   -2.3034    0.0000 C   0  0  0  0  0  0  0  0  0  0  0  0
    2.6074   -3.4551    0.0000 C   0  0  0  0  0  0  0  0  0  0  0  0
    4.6068   -2.3034    0.0000 C   0  0  0  0  0  0  0  0  0  0  0  0
    3.9434   -3.4551    0.0000 C   0  0  0  0  0  0  0  0  0  0  0  0
    8.0619   -2.6167    0.0000 C   0  0  0  0  0  0  0  0  0  0  0  0
    9.2136   -1.9533    0.0000 O   0  0  0  0  0  0  0  0  0  0  0  0
    8.0619   -3.9434    0.0000 C   0  0  0  0  0  0  0  0  0  0  0  0
    6.9102   -1.9533    0.0000 C   0  0  0  0  0  0  0  0  0  0  0  0
    5.7585   -2.6167    0.0000 C   0  0  0  0  0  0  0  0  0  0  0  0
    6.9102   -4.6068    0.0000 C   0  0  0  0  0  0  0  0  0  0  0  0
    5.7585   -3.9434    0.0000 C   0  0  0  0  0  0  0  0  0  0  0  0
    1.1517   -6.6061    0.0000 C   0  0  0  0  0  0  0  0  0  0  0  0
    0.0000   -7.2695    0.0000 O   0  0  0  0  0  0  0  0  0  0  0  0
    1.1517   -5.2702    0.0000 C   0  0  0  0  0  0  0  0  0  0  0  0
    2.3034   -7.2695    0.0000 C   0  0  0  0  0  0  0  0  0  0  0  0
    3.4551   -6.6061    0.0000 C   0  0  0  0  0  0  0  0  0  0  0  0
    2.3034   -4.6068    0.0000 C   0  0  0  0  0  0  0  0  0  0  0  0
    3.4551   -5.2702    0.0000 C   0  0  0  0  0  0  0  0  0  0  0  0
    4.6068   -4.6068    0.0000 C   0  0  0  0  0  0  0  0  0  0  0  0
    5.2702   -5.7585    0.0000 C   0  0  0  0  0  0  0  0  0  0  0  0
  1  2  1  0  0  0  0
  1  3  2  0  0  0  0
  1  4  1  0  0  0  0
  3  6  1  0  0  0  0
  4  5  2  0  0  0  0
  5  7  1  0  0  0  0
  6  7  2  0  0  0  0
  7 22  1  0  0  0  0
  8  9  1  0  0  0  0
  8 10  2  0  0  0  0
  8 11  1  0  0  0  0
 10 13  1  0  0  0  0
 11 12  2  0  0  0  0
 12 14  1  0  0  0  0
 13 14  2  0  0  0  0
 14 22  1  0  0  0  0
 15 16  1  0  0  0  0
 15 17  2  0  0  0  0
 15 18  1  0  0  0  0
 17 20  1  0  0  0  0
 18 19  2  0  0  0  0
 19 21  1  0  0  0  0
 20 21  2  0  0  0  0
 21 22  1  0  0  0  0
 22 23  1  0  0  0  0
M  END
> <ID>
7413

> <Formula>
C20H18O3

> <FW>
306.3551

> <DSSTox_CID>
17712

> <DSSTox_RID>
79361

> <DSSTox_GSID>
37712

> <DSSTox_FileID_Sort>
4043

> <TS_ChemName>
4,4',4"-Ethane-1,1,1-triyltriphenol

> <TS_ChemName_Synonyms>
4,4’,4"-Ethane-1,1,1-triyltriphenol

> <TS_CASRN>
27955-94-8

> <CASRN_ChemName_Relationship>
primary

> <TS_Description>
single chemical compound

> <ChemNote>


> <STRUCTURE_Shown>
tested chemical

> <STRUCTURE_Formula>
C20H18O3

> <STRUCTURE_MW>
306.3551

> <STRUCTURE_ChemType>
defined organic

> <STRUCTURE_DefinedOrganicForm>
parent

> <STRUCTURE_IUPAC>
4,4',4''-ethane-1,1,1-triyltriphenol

> <STRUCTURE_SMILES>
CC(c1ccc(O)cc1)(c2ccc(O)cc2)c3ccc(O)cc3

> <STRUCTURE_SMILES_Desalt>
CC(c1ccc(O)cc1)(c2ccc(O)cc2)c3ccc(O)cc3

> <Substance_modify_yyyymmdd>
20080429

$$$$
