27994-11-2
ChemmineR-0915142007XD

 45 53  0  0  1  0  0  0  0  0  1 V2000
    3.1042   -5.8872    0.0000 C   0  0  0  0  0  0  0  0  0  0  0  0
    1.7662   -5.6196    0.0000 C   0  0  0  0  0  0  0  0  0  0  0  0
    3.9605   -4.8703    0.0000 O   0  0  0  0  0  0  0  0  0  0  0  0
    1.3202   -4.3708    0.0000 C   0  0  0  0  0  0  0  0  0  0  0  0
    3.5145   -3.6037    0.0000 C   0  0  0  0  0  0  0  0  0  0  0  0
    2.1943   -3.3539    0.0000 C   0  0  0  0  0  0  0  0  0  0  0  0
    3.5323   -7.1360    0.0000 O   0  0  0  0  0  0  0  0  0  0  0  0
    0.8920   -6.6365    0.0000 O   0  0  0  0  0  0  0  0  0  0  0  0
    0.0000   -4.1032    0.0000 O   0  0  0  0  0  0  0  0  0  0  0  0
    1.7662   -2.0694    0.0000 O   0  0  0  0  0  0  0  0  0  0  0  0
    7.3144   -4.9952    0.0000 C   0  0  0  0  0  0  0  0  0  0  0  0
   10.8110   -2.9793    0.0000 C   0  0  0  0  0  0  0  0  0  0  0  0
    7.3144   -6.3332    0.0000 C   0  0  0  0  0  0  0  0  0  0  0  0
    8.4740   -4.3351    0.0000 C   0  0  0  0  0  0  0  0  0  0  0  0
   10.8110   -4.3351    0.0000 C   0  0  0  0  0  0  0  0  0  0  0  0
    9.6514   -4.9952    0.0000 C   0  0  0  0  0  0  0  0  0  0  0  0
    6.1548   -6.9933    0.0000 C   0  0  0  0  0  0  0  0  0  0  0  0
    9.6514   -2.3192    0.0000 C   0  0  0  0  0  0  0  0  0  0  0  0
    8.4740   -2.9793    0.0000 C   0  0  0  0  0  0  0  0  0  0  0  0
    6.1548   -4.3351    0.0000 C   0  0  0  0  0  0  0  0  0  0  0  0
    9.6514   -6.3332    0.0000 C   0  0  0  0  0  0  0  0  0  0  0  0
   12.0955   -4.7454    0.0000 C   0  0  0  0  0  0  0  0  0  0  0  0
    8.4740   -6.9933    0.0000 C   0  0  0  0  0  0  0  0  0  0  0  0
   12.0955   -2.5690    0.0000 C   0  0  0  0  0  0  0  0  0  0  0  0
    4.9952   -6.3332    0.0000 C   0  0  0  0  0  0  0  0  0  0  0  0
   12.8805   -3.6572    0.0000 C   0  0  0  0  0  0  0  0  0  0  0  0
    4.9952   -4.9952    0.0000 C   0  0  0  0  0  0  0  0  0  0  0  0
    7.3144   -3.6750    0.0000 C   0  0  0  0  0  0  0  0  0  0  0  0
   10.8110   -1.6413    0.0000 C   0  0  0  0  0  0  0  0  0  0  0  0
   10.8110   -5.6731    0.0000 C   0  0  0  0  0  0  0  0  0  0  0  0
    6.6722   -7.8318    0.0000 C   0  0  0  0  0  0  0  0  0  0  0  0
    5.1379   -7.8674    0.0000 C   0  0  0  0  0  0  0  0  0  0  0  0
    7.3144   -7.3858    0.0000 H   0  0  0  0  0  0  0  0  0  0  0  0
   12.6486   -1.3737    0.0000 C   0  0  0  0  0  0  0  0  0  0  0  0
   13.9509   -1.2131    0.0000 C   0  0  0  0  0  0  0  0  0  0  0  0
   14.2006   -3.5145    0.0000 O   0  0  0  0  0  0  0  0  0  0  0  0
   14.8786   -2.1943    0.0000 C   0  0  0  0  0  0  0  0  0  0  0  0
   11.8636   -0.2676    0.0000 C   0  0  0  0  0  0  0  0  0  0  0  0
   15.7527   -3.1934    0.0000 O   0  0  0  0  0  0  0  0  0  0  0  0
   15.5565   -1.0526    0.0000 C   0  0  0  0  0  0  0  0  0  0  0  0
   16.8410   -1.3380    0.0000 C   0  0  0  0  0  0  0  0  0  0  0  0
   16.9658   -2.6582    0.0000 C   0  0  0  0  0  0  0  0  0  0  0  0
   17.8400   -0.4460    0.0000 C   0  0  0  0  0  0  0  0  0  0  0  0
   16.3950    0.0000    0.0000 O   0  0  0  0  0  0  0  0  0  0  0  0
   17.7686   -3.2647    0.0000 O   0  0  0  0  0  0  0  0  0  0  0  0
  1  2  1  0  0  0  0
  1  3  1  0  0  0  0
  1  7  1  1  0  0  0
  2  4  1  0  0  0  0
  2  8  1  6  0  0  0
  3  5  1  0  0  0  0
  4  6  1  0  0  0  0
  4  9  1  1  0  0  0
  5  6  1  0  0  0  0
  6 10  1  6  0  0  0
  7 25  1  0  0  0  0
 11 13  1  0  0  0  0
 11 14  1  0  0  0  0
 11 20  1  0  0  0  0
 11 28  1  1  0  0  0
 12 18  1  0  0  0  0
 12 24  1  0  0  0  0
 12 29  1  1  0  0  0
 12 15  1  0  0  0  0
 13 17  1  0  0  0  0
 13 23  1  0  0  0  0
 13 33  1  6  0  0  0
 14 16  1  0  0  0  0
 14 19  1  0  0  0  0
 14 28  1  1  0  0  0
 15 16  1  0  0  0  0
 15 22  1  0  0  0  0
 15 30  1  6  0  0  0
 16 21  2  0  0  0  0
 17 25  1  0  0  0  0
 17 31  1  6  0  0  0
 17 32  1  1  0  0  0
 18 19  1  0  0  0  0
 20 27  1  0  0  0  0
 21 23  1  0  0  0  0
 22 26  1  0  0  0  0
 24 34  1  0  0  0  0
 24 26  1  0  0  0  0
 25 27  1  0  0  0  0
 26 36  1  0  0  0  0
 34 35  1  0  0  0  0
 34 38  1  6  0  0  0
 35 37  1  0  0  0  0
 36 37  1  0  0  0  0
 37 39  1  0  0  0  0
 37 40  1  0  0  0  0
 39 42  1  0  0  0  0
 40 41  1  0  0  0  0
 40 44  1  0  0  0  0
 41 42  1  0  0  0  0
 41 43  1  0  0  0  0
 41 44  1  0  0  0  0
 42 45  1  0  0  0  0
M  END
> <ID>
6614

> <Formula>
C35H52O9

> <FW>
616.782

> <DSSTox_CID>
13334

> <DSSTox_RID>
79065

> <DSSTox_GSID>
33334

> <DSSTox_FileID_Sort>
3747

> <TS_ChemName>
Cimicifugoside

> <TS_ChemName_Synonyms>


> <TS_CASRN>
27994-11-2

> <CASRN_ChemName_Relationship>
primary

> <TS_Description>
single chemical compound

> <ChemNote>
stereochem

> <STRUCTURE_Shown>
tested chemical

> <STRUCTURE_Formula>
C35H52O9

> <STRUCTURE_MW>
616.782

> <STRUCTURE_ChemType>
defined organic

> <STRUCTURE_DefinedOrganicForm>
parent

> <STRUCTURE_IUPAC>
(4aR,5aR,7aR,8R,12aR,14aR)-4'-hydroxy-1,1,5',7a,8,12a-hexamethyl-1,3,4,6,7,7a,7b,8,9,11a,12,12a,14,14a-tetradecahydro-2H-spiro[cyclopropa[1',8a']naphtho[2',1':4,5]indeno[2,1-b]pyran-10,2'-[3,6]dioxabicyclo[3.1.0]hexan]-2-yl beta-D-xylopyranoside

> <STRUCTURE_SMILES>
C[C@@H]4CC2(OC(O)C1(C)OC12)OC5C[C@@]6(C)C7=CC[C@H]9[C@](C)(C)C(O[C@@H]3OC[C@@H](O)[C@H](O)[C@H]3O)CC[C@]89C[C@@]78CC[C@]6(C)C45

> <STRUCTURE_SMILES_Desalt>
C[C@@H]4CC2(OC(O)C1(C)OC12)OC5C[C@@]6(C)C7=CC[C@H]9[C@](C)(C)C(O[C@@H]3OC[C@@H](O)[C@H](O)[C@H]3O)CC[C@]89C[C@@]78CC[C@]6(C)C45

> <Substance_modify_yyyymmdd>
20080429

$$$$
