28002-18-8
ChemmineR-0915142007XD

 31 31  0  0  1  0  0  0  0  0  2 V2000
    8.1649   -4.5783    0.0000 N    0  0  0  0  0  0  0  0  0  0  0  0
    8.1649   -3.1483    0.0000 C    0  0  0  0  0  0  0  0  0  0  0  0
    6.6657   -4.5783    0.0000 C    0  0  0  0  0  0  0  0  0  0  0  0
    6.6657   -3.1483    0.0000 C    0  0  0  0  0  0  0  0  0  0  0  0
    9.5834   -5.0396    0.0000 C    0  0  0  0  0  0  0  0  0  0  0  0
    3.0099   -1.1532    0.0000 S    0  0  0  0  0  0  0  0  0  0  0  0
    9.6179   -2.6524    0.0000 S    0  0  0  0  0  0  0  0  0  0  0  0
   10.4367   -3.8403    0.0000 C    0  0  0  0  0  0  0  0  0  0  0  0
    4.8320   -2.2834    0.0000 C    0  0  0  0  0  0  0  0  0  0  0  0
    5.5355   -3.1483    0.0000 N    0  0  0  0  0  0  0  0  0  0  0  0
    3.6788   -2.2834    0.0000 C    0  0  0  0  0  0  0  0  0  0  0  0
   10.0562   -6.4812    0.0000 C    0  0  0  0  0  0  0  0  0  0  0  0
    5.8353   -5.5470    0.0000 O    0  0  0  0  0  0  0  0  0  0  0  0
    1.8567   -1.7990    0.0000 O    0  0  0  0  0  0  0  0  0  0  0  0
    4.1632   -0.5420    0.0000 O    0  0  0  0  0  0  0  0  0  0  0  0
    5.6970   -1.2570    0.0000 O    0  0  0  0  0  0  0  0  0  0  0  0
    3.1022   -3.2752    0.0000 C    0  0  0  0  0  0  0  0  0  0  0  0
    2.3987    0.0000    0.0000 O    0  5  0  0  0  0  0  0  0  0  0  0
   11.5323   -6.7925    0.0000 O    0  0  0  0  0  0  0  0  0  0  0  0
    9.0875   -7.5998    0.0000 O    0  5  0  0  0  0  0  0  0  0  0  0
   11.3132   -2.6524    0.0000 C    0  0  0  0  0  0  0  0  0  0  0  0
   11.3939   -5.0050    0.0000 C    0  0  0  0  0  0  0  0  0  0  0  0
    1.9144   -3.2752    0.0000 C    0  0  0  0  0  0  0  0  0  0  0  0
    3.6788   -4.3477    0.0000 C    0  0  0  0  0  0  0  0  0  0  0  0
    3.1022   -5.4087    0.0000 C    0  0  0  0  0  0  0  0  0  0  0  0
    1.2916   -4.3246    0.0000 C    0  0  0  0  0  0  0  0  0  0  0  0
    1.9144   -5.4087    0.0000 C    0  0  0  0  0  0  0  0  0  0  0  0
    6.6657   -2.0182    0.0000 H    0  0  0  0  0  0  0  0  0  0  0  0
    8.1649   -2.0182    0.0000 H    0  0  0  0  0  0  0  0  0  0  0  0
    0.0000   -0.2306    0.0000 Na   0  3  0  0  0  0  0  0  0  0  0  0
   10.9326   -8.2341    0.0000 Na   0  3  0  0  0  0  0  0  0  0  0  0
  1  2  1  0  0  0  0
  1  3  1  0  0  0  0
  1  5  1  0  0  0  0
  2  7  1  0  0  0  0
  2 29  1  6  0  0  0
  2  4  1  0  0  0  0
  3  4  1  0  0  0  0
  3 13  2  0  0  0  0
  4 10  1  1  0  0  0
  4 28  1  6  0  0  0
  5  8  1  0  0  0  0
  5 12  1  6  0  0  0
 11  6  1  1  0  0  0
  6 14  2  0  0  0  0
  6 15  2  0  0  0  0
  6 18  1  0  0  0  0
  7  8  1  0  0  0  0
  8 21  1  0  0  0  0
  8 22  1  0  0  0  0
  9 10  1  0  0  0  0
  9 11  1  0  0  0  0
  9 16  2  0  0  0  0
 11 17  1  0  0  0  0
 12 19  2  0  0  0  0
 12 20  1  0  0  0  0
 17 23  2  0  0  0  0
 17 24  1  0  0  0  0
 23 26  1  0  0  0  0
 24 25  2  0  0  0  0
 25 27  1  0  0  0  0
 26 27  2  0  0  0  0
M  END
> <ID>
13615

> <Formula>
C16H16N2Na2O7S2

> <FW>
458.4170 (412.4385+22.9892+22.9892)

> <DSSTox_CID>
28544

> <DSSTox_RID>
82816

> <DSSTox_GSID>
48618

> <DSSTox_FileID_Sort>
7493

> <TS_ChemName>
Sulbenicillin disodium

> <TS_ChemName_Synonyms>


> <TS_CASRN>
28002-18-8

> <CASRN_ChemName_Relationship>
primary

> <TS_Description>
single chemical compound

> <ChemNote>
stereochem; parent [41744-40-5]

> <STRUCTURE_Shown>
tested chemical

> <STRUCTURE_Formula>
C16H16N2Na2O7S2

> <STRUCTURE_MW>
458.417

> <STRUCTURE_ChemType>
defined organic

> <STRUCTURE_DefinedOrganicForm>
salt

> <STRUCTURE_IUPAC>
disodium (2S,5R,6R)-3,3-dimethyl-7-oxo-6-{[(2R)-2-phenyl-2-sulfonatoacetyl]amino}-4-thia-1-azabicyclo[3.2.0]heptane-2-carboxylate

> <STRUCTURE_SMILES>
[Na+].[Na+].O=C([O-])[C@@H]2N3C(=O)[C@@H](NC(=O)[C@@H](c1ccccc1)S([O-])(=O)=O)[C@H]3SC2(C)C

> <STRUCTURE_SMILES_Desalt>
OC(=O)[C@@H]2N3C(=O)[C@@H](NC(=O)[C@@H](c1ccccc1)S(=O)(=O)O)[C@H]3SC2(C)C

> <Substance_modify_yyyymmdd>
20111015

$$$$
