28069-72-9
ChemmineR-0915142007XD

 10  9  0  0  0  0  0  0  0  0  1 V2000
    1.1446   -2.0151    0.0000 C   0  0  0  0  0  0  0  0  0  0  0  0
    2.3053   -2.6761    0.0000 C   0  0  0  0  0  0  0  0  0  0  0  0
    3.4338   -2.0151    0.0000 C   0  0  0  0  0  0  0  0  0  0  0  0
    4.5945   -2.6761    0.0000 C   0  0  0  0  0  0  0  0  0  0  0  0
    5.7552   -2.0151    0.0000 C   0  0  0  0  0  0  0  0  0  0  0  0
    6.9159   -2.6761    0.0000 C   0  0  0  0  0  0  0  0  0  0  0  0
    8.0605   -2.0151    0.0000 C   0  0  0  0  0  0  0  0  0  0  0  0
    8.0605   -0.6610    0.0000 C   0  0  0  0  0  0  0  0  0  0  0  0
    6.9159    0.0000    0.0000 C   0  0  0  0  0  0  0  0  0  0  0  0
    0.0000   -2.6761    0.0000 O   0  0  0  0  0  0  0  0  0  0  0  0
  1  2  1  0  0  0  0
  1 10  1  0  0  0  0
  2  3  2  0  0  0  0
  3  4  1  0  0  0  0
  4  5  1  0  0  0  0
  5  6  1  0  0  0  0
  6  7  2  0  0  0  0
  7  8  1  0  0  0  0
  8  9  1  0  0  0  0
M  END
> <ID>
12339

> <Formula>
C9H16O

> <FW>
140.2227

> <DSSTox_CID>
27192

> <DSSTox_RID>
82188

> <DSSTox_GSID>
47192

> <DSSTox_FileID_Sort>
6869

> <TS_ChemName>
trans-2,cis-6-Nonadien-1-ol

> <TS_ChemName_Synonyms>


> <TS_CASRN>
28069-72-9

> <CASRN_ChemName_Relationship>
primary

> <TS_Description>
single chemical compound

> <ChemNote>
stereochem

> <STRUCTURE_Shown>
tested chemical

> <STRUCTURE_Formula>
C9H16O

> <STRUCTURE_MW>
140.2227

> <STRUCTURE_ChemType>
defined organic

> <STRUCTURE_DefinedOrganicForm>
parent

> <STRUCTURE_IUPAC>
(2E,6Z)-nona-2,6-dien-1-ol

> <STRUCTURE_SMILES>
CC\C=C/CC\C=C\CO

> <STRUCTURE_SMILES_Desalt>
CC\C=C/CC\C=C\CO

> <Substance_modify_yyyymmdd>
20100503

$$$$
