28069-74-1
ChemmineR-0915142007XD

 12 11  0  0  0  0  0  0  0  0  1 V2000
    5.7521   -1.3090    0.0000 C   0  0  0  0  0  0  0  0  0  0  0  0
    6.9136   -1.9819    0.0000 C   0  0  0  0  0  0  0  0  0  0  0  0
    8.0659   -1.3090    0.0000 C   0  0  0  0  0  0  0  0  0  0  0  0
    9.1997   -1.9819    0.0000 C   0  0  0  0  0  0  0  0  0  0  0  0
    9.2181   -3.3185    0.0000 C   0  0  0  0  0  0  0  0  0  0  0  0
    8.0659   -3.9730    0.0000 C   0  0  0  0  0  0  0  0  0  0  0  0
    4.6183   -1.9819    0.0000 O   0  0  0  0  0  0  0  0  0  0  0  0
    3.4660   -1.3090    0.0000 C   0  0  0  0  0  0  0  0  0  0  0  0
    3.4660    0.0000    0.0000 C   0  0  0  0  0  0  0  0  0  0  0  0
    2.3045   -1.9819    0.0000 O   0  0  0  0  0  0  0  0  0  0  0  0
    1.1523   -1.3090    0.0000 C   0  0  0  0  0  0  0  0  0  0  0  0
    0.0000   -1.9819    0.0000 C   0  0  0  0  0  0  0  0  0  0  0  0
  1  2  1  0  0  0  0
  1  7  1  0  0  0  0
  2  3  1  0  0  0  0
  3  4  2  0  0  0  0
  4  5  1  0  0  0  0
  5  6  1  0  0  0  0
  7  8  1  0  0  0  0
  8  9  1  0  0  0  0
  8 10  1  0  0  0  0
 10 11  1  0  0  0  0
 11 12  1  0  0  0  0
M  END
> <ID>
12560

> <Formula>
C10H20O2

> <FW>
172.2646

> <DSSTox_CID>
27418

> <DSSTox_RID>
82332

> <DSSTox_GSID>
47418

> <DSSTox_FileID_Sort>
7013

> <TS_ChemName>
Acetaldehyde ethyl cis-3-hexenyl acetal

> <TS_ChemName_Synonyms>


> <TS_CASRN>
28069-74-1

> <CASRN_ChemName_Relationship>
primary

> <TS_Description>
single chemical compound

> <ChemNote>
stereochem

> <STRUCTURE_Shown>
tested chemical

> <STRUCTURE_Formula>
C10H20O2

> <STRUCTURE_MW>
172.2646

> <STRUCTURE_ChemType>
defined organic

> <STRUCTURE_DefinedOrganicForm>
parent

> <STRUCTURE_IUPAC>
(3Z)-1-(1-ethoxyethoxy)hex-3-ene

> <STRUCTURE_SMILES>
CCOC(C)OCC\C=C/CC

> <STRUCTURE_SMILES_Desalt>
CCOC(C)OCC\C=C/CC

> <Substance_modify_yyyymmdd>
20100619

$$$$
