2807-30-9
ChemmineR-0915142007XD

  7  6  0  0  0  0  0  0  0  0  1 V2000
    1.1578    0.0000    0.0000 C   0  0  0  0  0  0  0  0  0  0  0  0
    2.3156   -0.6586    0.0000 C   0  0  0  0  0  0  0  0  0  0  0  0
    0.0000   -0.6586    0.0000 O   0  0  0  0  0  0  0  0  0  0  0  0
    3.4595    0.0000    0.0000 O   0  0  0  0  0  0  0  0  0  0  0  0
    4.6173   -0.6586    0.0000 C   0  0  0  0  0  0  0  0  0  0  0  0
    5.7750    0.0000    0.0000 C   0  0  0  0  0  0  0  0  0  0  0  0
    6.9328   -0.6586    0.0000 C   0  0  0  0  0  0  0  0  0  0  0  0
  1  2  1  0  0  0  0
  1  3  1  0  0  0  0
  2  4  1  0  0  0  0
  4  5  1  0  0  0  0
  5  6  1  0  0  0  0
  6  7  1  0  0  0  0
M  END
> <ID>
5199

> <Formula>
C5H12O2

> <FW>
104.1476

> <DSSTox_CID>
7500

> <DSSTox_RID>
78474

> <DSSTox_GSID>
27500

> <DSSTox_FileID_Sort>
3157

> <TS_ChemName>
2-Propoxyethanol

> <TS_ChemName_Synonyms>
2-Propoxyethanol (Ethylene glycol monopropyl ether)

> <TS_CASRN>
2807-30-9

> <CASRN_ChemName_Relationship>
primary

> <TS_Description>
single chemical compound

> <ChemNote>


> <STRUCTURE_Shown>
tested chemical

> <STRUCTURE_Formula>
C5H12O2

> <STRUCTURE_MW>
104.1476

> <STRUCTURE_ChemType>
defined organic

> <STRUCTURE_DefinedOrganicForm>
parent

> <STRUCTURE_IUPAC>
2-propoxyethanol

> <STRUCTURE_SMILES>
CCCOCCO

> <STRUCTURE_SMILES_Desalt>
CCCOCCO

> <Substance_modify_yyyymmdd>
20080429

$$$$
