28159-98-0
ChemmineR-0915142007XD

 17 18  0  0  0  0  0  0  0  0  1 V2000
    3.4620   -5.8086    0.0000 N   0  0  0  0  0  0  0  0  0  0  0  0
    4.6105   -5.1393    0.0000 C   0  0  0  0  0  0  0  0  0  0  0  0
    4.6105   -3.8090    0.0000 N   0  0  0  0  0  0  0  0  0  0  0  0
    3.4620   -3.1480    0.0000 C   0  0  0  0  0  0  0  0  0  0  0  0
    2.3053   -3.8090    0.0000 N   0  0  0  0  0  0  0  0  0  0  0  0
    2.3053   -5.1393    0.0000 C   0  0  0  0  0  0  0  0  0  0  0  0
    5.7673   -5.8086    0.0000 N   0  0  0  0  0  0  0  0  0  0  0  0
    3.4620   -1.8178    0.0000 N   0  0  0  0  0  0  0  0  0  0  0  0
    2.3053   -1.1485    0.0000 C   0  0  0  0  0  0  0  0  0  0  0  0
    2.9745    0.0000    0.0000 C   0  0  0  0  0  0  0  0  0  0  0  0
    1.6525   -2.3053    0.0000 C   0  0  0  0  0  0  0  0  0  0  0  0
    1.1568   -0.4958    0.0000 C   0  0  0  0  0  0  0  0  0  0  0  0
    6.9323   -5.1806    0.0000 C   0  0  0  0  0  0  0  0  0  0  0  0
    8.2625   -5.2137    0.0000 C   0  0  0  0  0  0  0  0  0  0  0  0
    7.6181   -4.0486    0.0000 C   0  0  0  0  0  0  0  0  0  0  0  0
    1.1568   -5.8086    0.0000 S   0  0  0  0  0  0  0  0  0  0  0  0
    0.0000   -5.1393    0.0000 C   0  0  0  0  0  0  0  0  0  0  0  0
  1  2  2  0  0  0  0
  1  6  1  0  0  0  0
  2  3  1  0  0  0  0
  2  7  1  0  0  0  0
  3  4  2  0  0  0  0
  4  5  1  0  0  0  0
  4  8  1  0  0  0  0
  5  6  2  0  0  0  0
  6 16  1  0  0  0  0
  7 13  1  0  0  0  0
  8  9  1  0  0  0  0
  9 10  1  0  0  0  0
  9 11  1  0  0  0  0
  9 12  1  0  0  0  0
 13 14  1  0  0  0  0
 13 15  1  0  0  0  0
 14 15  1  0  0  0  0
 16 17  1  0  0  0  0
M  END
> <ID>
6455

> <Formula>
C11H19N5S

> <FW>
253.3671

> <DSSTox_CID>
12416

> <DSSTox_RID>
78942

> <DSSTox_GSID>
32416

> <DSSTox_FileID_Sort>
3624

> <TS_ChemName>
Cybutryne

> <TS_ChemName_Synonyms>
Cybutryne (Irgarol) (1,3,5-Triazine-2,4-diamine, N-cyclopropyl-N'-(1,1-dimethylethyl)-6-(methylthio)-)

> <TS_CASRN>
28159-98-0

> <CASRN_ChemName_Relationship>
primary

> <TS_Description>
single chemical compound

> <ChemNote>


> <STRUCTURE_Shown>
tested chemical

> <STRUCTURE_Formula>
C11H19N5S

> <STRUCTURE_MW>
253.3671

> <STRUCTURE_ChemType>
defined organic

> <STRUCTURE_DefinedOrganicForm>
parent

> <STRUCTURE_IUPAC>
N-tert-butyl-N'-cyclopropyl-6-(methylsulfanyl)-1,3,5-triazine-2,4-diamine

> <STRUCTURE_SMILES>
CSc2nc(NC1CC1)nc(NC(C)(C)C)n2

> <STRUCTURE_SMILES_Desalt>
CSc2nc(NC1CC1)nc(NC(C)(C)C)n2

> <Substance_modify_yyyymmdd>
20080429

$$$$
