28249-77-6
ChemmineR-0915142007XD

 16 16  0  0  0  0  0  0  0  0  1 V2000
    6.9625   -1.3037    0.0000 C    0  0  0  0  0  0  0  0  0  0  0  0
    6.9625    0.0000    0.0000 O    0  0  0  0  0  0  0  0  0  0  0  0
    8.0905   -1.9880    0.0000 N    0  0  0  0  0  0  0  0  0  0  0  0
    5.7882   -1.9880    0.0000 S    0  0  0  0  0  0  0  0  0  0  0  0
    8.0905   -3.3194    0.0000 C    0  0  0  0  0  0  0  0  0  0  0  0
    9.2463   -3.9759    0.0000 C    0  0  0  0  0  0  0  0  0  0  0  0
    9.2463   -1.3037    0.0000 C    0  0  0  0  0  0  0  0  0  0  0  0
    9.2463    0.0000    0.0000 C    0  0  0  0  0  0  0  0  0  0  0  0
    4.6601   -1.3037    0.0000 C    0  0  0  0  0  0  0  0  0  0  0  0
    3.4859   -1.9880    0.0000 C    0  0  0  0  0  0  0  0  0  0  0  0
    2.3023   -1.3407    0.0000 C    0  0  0  0  0  0  0  0  0  0  0  0
    3.4859   -3.3194    0.0000 C    0  0  0  0  0  0  0  0  0  0  0  0
    1.1743   -1.9880    0.0000 C    0  0  0  0  0  0  0  0  0  0  0  0
    2.3023   -3.9759    0.0000 C    0  0  0  0  0  0  0  0  0  0  0  0
    1.1743   -3.3194    0.0000 C    0  0  0  0  0  0  0  0  0  0  0  0
    0.0000   -3.9667    0.0000 Cl   0  0  0  0  0  0  0  0  0  0  0  0
  1  2  2  0  0  0  0
  1  4  1  0  0  0  0
  1  3  1  0  0  0  0
  3  5  1  0  0  0  0
  3  7  1  0  0  0  0
  4  9  1  0  0  0  0
  5  6  1  0  0  0  0
  7  8  1  0  0  0  0
  9 10  1  0  0  0  0
 10 11  2  0  0  0  0
 10 12  1  0  0  0  0
 11 13  1  0  0  0  0
 12 14  2  0  0  0  0
 13 15  2  0  0  0  0
 14 15  1  0  0  0  0
 15 16  1  0  0  0  0
M  END
> <ID>
3632

> <Formula>
C12H16ClNOS

> <FW>
257.7795

> <DSSTox_CID>
4337

> <DSSTox_RID>
77372

> <DSSTox_GSID>
24337

> <DSSTox_FileID_Sort>
2055

> <TS_ChemName>
Thiobencarb

> <TS_ChemName_Synonyms>
Thiobencarb (Benthiocarb)

> <TS_CASRN>
28249-77-6

> <CASRN_ChemName_Relationship>
primary

> <TS_Description>
single chemical compound

> <ChemNote>


> <STRUCTURE_Shown>
tested chemical

> <STRUCTURE_Formula>
C12H16ClNOS

> <STRUCTURE_MW>
257.7795

> <STRUCTURE_ChemType>
defined organic

> <STRUCTURE_DefinedOrganicForm>
parent

> <STRUCTURE_IUPAC>
S-(4-chlorobenzyl) diethylcarbamothioate

> <STRUCTURE_SMILES>
Clc1ccc(CSC(=O)N(CC)CC)cc1

> <STRUCTURE_SMILES_Desalt>
Clc1ccc(CSC(=O)N(CC)CC)cc1

> <Substance_modify_yyyymmdd>
20080429

$$$$
