28300-74-5
ChemmineR-0915142007XD

 27 24  0  0  0  0  0  0  0  0  2 V2000
    9.6136   -3.4426    0.0000 K    0  3  0  0  0  0  0  0  0  0  0  0
    0.0000   -3.8369    0.0000 K    0  3  0  0  0  0  0  0  0  0  0  0
    7.3967   -7.2262    0.0000 O    0  0  0  0  0  0  0  0  0  0  0  0
    1.5774   -6.9064    0.0000 O    0  0  0  0  0  0  0  0  0  0  0  0
    3.6024   -2.1316    0.0000 C    0  0  0  0  0  0  0  0  0  0  0  0
    3.9755   -3.3893    0.0000 O    0  0  0  0  0  0  0  0  0  0  0  0
    2.3021   -2.1103    0.0000 C    0  0  0  0  0  0  0  0  0  0  0  0
    2.9097   -4.1140    0.0000 Sb   0  0  0  0  0  0  0  0  0  0  0  0
    1.8758   -3.3466    0.0000 O    0  0  0  0  0  0  0  0  0  0  0  0
    1.8652   -4.8921    0.0000 O    0  5  0  0  0  0  0  0  0  0  0  0
    2.2702   -6.1284    0.0000 C    0  0  0  0  0  0  0  0  0  0  0  0
    3.9648   -4.8921    0.0000 O    0  0  0  0  0  0  0  0  0  0  0  0
    3.5705   -6.1284    0.0000 C    0  0  0  0  0  0  0  0  0  0  0  0
    5.5422   -2.1316    0.0000 C    0  0  0  0  0  0  0  0  0  0  0  0
    6.8425   -2.1316    0.0000 C    0  0  0  0  0  0  0  0  0  0  0  0
    5.1798   -3.4426    0.0000 O    0  0  0  0  0  0  0  0  0  0  0  0
    7.2795   -3.3573    0.0000 O    0  5  0  0  0  0  0  0  0  0  0  0
    6.1071   -4.1034    0.0000 Sb   0  0  0  0  0  0  0  0  0  0  0  0
    5.0413   -4.8814    0.0000 O    0  0  0  0  0  0  0  0  0  0  0  0
    5.4463   -6.1071    0.0000 C    0  0  0  0  0  0  0  0  0  0  0  0
    7.1516   -4.8814    0.0000 O    0  0  0  0  0  0  0  0  0  0  0  0
    6.7466   -6.1071    0.0000 C    0  0  0  0  0  0  0  0  0  0  0  0
    7.4180   -1.1191    0.0000 O    0  0  0  0  0  0  0  0  0  0  0  0
    1.6733   -0.9805    0.0000 O    0  0  0  0  0  0  0  0  0  0  0  0
   10.6581   -5.5315    0.0000 O    0  0  0  0  0  0  0  0  0  0  0  0
    0.2132   -5.5848    0.0000 O    0  0  0  0  0  0  0  0  0  0  0  0
    5.0732    0.0000    0.0000 O    0  0  0  0  0  0  0  0  0  0  0  0
  3 22  2  0  0  0  0
  4 11  2  0  0  0  0
  5  6  1  0  0  0  0
  5  7  1  0  0  0  0
  5 14  1  0  0  0  0
  6  8  1  0  0  0  0
  7  9  1  0  0  0  0
  7 24  2  0  0  0  0
  8  9  1  0  0  0  0
  8 12  1  0  0  0  0
 10 11  1  0  0  0  0
 11 13  1  0  0  0  0
 12 13  1  0  0  0  0
 13 20  1  0  0  0  0
 14 15  1  0  0  0  0
 14 16  1  0  0  0  0
 15 17  1  0  0  0  0
 15 23  2  0  0  0  0
 16 18  1  0  0  0  0
 18 19  1  0  0  0  0
 18 21  1  0  0  0  0
 19 20  1  0  0  0  0
 20 22  1  0  0  0  0
 21 22  1  0  0  0  0
M  END
> <ID>
94

> <Formula>
C8H10K2O15Sb2

> <FW>
667.8726 (39.0978+39.0978+535.6313+18.0153+18.0153+18.0153)

> <DSSTox_CID>
96

> <DSSTox_RID>
79431

> <DSSTox_GSID>
39240

> <DSSTox_FileID_Sort>
4113

> <TS_ChemName>
Antimony potassium tartrate trihydrate

> <TS_ChemName_Synonyms>


> <TS_CASRN>
28300-74-5

> <CASRN_ChemName_Relationship>
primary

> <TS_Description>
single chemical compound

> <ChemNote>


> <STRUCTURE_Shown>
tested chemical

> <STRUCTURE_Formula>
C8H10K2O15Sb2

> <STRUCTURE_MW>
667.8726

> <STRUCTURE_ChemType>
organometallic

> <STRUCTURE_DefinedOrganicForm>


> <STRUCTURE_IUPAC>
potassium 5,11-dioxo-2,6,8,12,13,14-hexaoxa-1,7-distibatricyclo[8.2.1.1~4,7~]tetradecane-3,9-dicarboxylate hydrate (2:1:3)

> <STRUCTURE_SMILES>
[K+].[K+].O.O.O.[O-]C(=O)C2O[Sb]3OC(C(O[Sb]1OC(=O)C2O1)C([O-])=O)C(=O)O3

> <STRUCTURE_SMILES_Desalt>
O=C(O)C2O[Sb]3OC(C(O[Sb]1OC(=O)C2O1)C(=O)O)C(=O)O3

> <Substance_modify_yyyymmdd>
20130906

$$$$
