2832-19-1
ChemmineR-0915142007XD

  7  6  0  0  0  0  0  0  0  0  1 V2000
    2.3120   -1.3170    0.0000 C    0  0  0  0  0  0  0  0  0  0  0  0
    2.3120    0.0000    0.0000 O    0  0  0  0  0  0  0  0  0  0  0  0
    1.1560   -1.9899    0.0000 C    0  0  0  0  0  0  0  0  0  0  0  0
    3.4392   -1.9899    0.0000 N    0  0  0  0  0  0  0  0  0  0  0  0
    0.0000   -1.3170    0.0000 Cl   0  0  0  0  0  0  0  0  0  0  0  0
    4.5951   -1.3170    0.0000 C    0  0  0  0  0  0  0  0  0  0  0  0
    5.7511   -1.9899    0.0000 O    0  0  0  0  0  0  0  0  0  0  0  0
  1  2  2  0  0  0  0
  1  4  1  0  0  0  0
  1  3  1  0  0  0  0
  3  5  1  0  0  0  0
  4  6  1  0  0  0  0
  6  7  1  0  0  0  0
M  END
> <ID>
8378

> <Formula>
C3H6ClNO2

> <FW>
123.5382

> <DSSTox_CID>
21412

> <DSSTox_RID>
79719

> <DSSTox_GSID>
41412

> <DSSTox_FileID_Sort>
4401

> <TS_ChemName>
2-Chloro-N-(hydroxymethyl)acetamide

> <TS_ChemName_Synonyms>


> <TS_CASRN>
2832-19-1

> <CASRN_ChemName_Relationship>
primary

> <TS_Description>
single chemical compound

> <ChemNote>


> <STRUCTURE_Shown>
tested chemical

> <STRUCTURE_Formula>
C3H6ClNO2

> <STRUCTURE_MW>
123.5382

> <STRUCTURE_ChemType>
defined organic

> <STRUCTURE_DefinedOrganicForm>
parent

> <STRUCTURE_IUPAC>
2-chloro-N-(hydroxymethyl)acetamide

> <STRUCTURE_SMILES>
ClCC(=O)NCO

> <STRUCTURE_SMILES_Desalt>
ClCC(=O)NCO

> <Substance_modify_yyyymmdd>
20080825

$$$$
