283594-90-1
ChemmineR-0915142007XD

 27 29  0  0  0  0  0  0  0  0  1 V2000
    3.5261   -3.1250    0.0000 C   0  0  0  0  0  0  0  0  0  0  0  0
    3.5261   -1.8004    0.0000 O   0  0  0  0  0  0  0  0  0  0  0  0
    4.6641   -3.7966    0.0000 O   0  0  0  0  0  0  0  0  0  0  0  0
    2.3600   -3.7966    0.0000 C   0  0  0  0  0  0  0  0  0  0  0  0
    1.1660   -3.1716    0.0000 C   0  0  0  0  0  0  0  0  0  0  0  0
    0.0000   -2.5653    0.0000 C   0  0  0  0  0  0  0  0  0  0  0  0
    1.7910   -2.0056    0.0000 C   0  0  0  0  0  0  0  0  0  0  0  0
    0.5784   -4.3563    0.0000 C   0  0  0  0  0  0  0  0  0  0  0  0
    7.0242   -1.2407    0.0000 O   0  0  0  0  0  0  0  0  0  0  0  0
    7.8544   -2.3600    0.0000 C   0  0  0  0  0  0  0  0  0  0  0  0
    7.0242   -3.4608    0.0000 C   0  0  0  0  0  0  0  0  0  0  0  0
    5.7462   -3.0130    0.0000 C   0  0  0  0  0  0  0  0  0  0  0  0
    5.7462   -1.6884    0.0000 C   0  0  0  0  0  0  0  0  0  0  0  0
    4.6455   -2.2481    0.0000 C   0  0  0  0  0  0  0  0  0  0  0  0
    3.8619   -1.1287    0.0000 C   0  0  0  0  0  0  0  0  0  0  0  0
    4.6828    0.0000    0.0000 C   0  0  0  0  0  0  0  0  0  0  0  0
    5.9701   -0.4571    0.0000 C   0  0  0  0  0  0  0  0  0  0  0  0
    7.0242   -4.7761    0.0000 C   0  0  0  0  0  0  0  0  0  0  0  0
    8.1809   -5.3917    0.0000 C   0  0  0  0  0  0  0  0  0  0  0  0
    5.8768   -5.4477    0.0000 C   0  0  0  0  0  0  0  0  0  0  0  0
    8.1809   -6.7350    0.0000 C   0  0  0  0  0  0  0  0  0  0  0  0
    5.8768   -6.7816    0.0000 C   0  0  0  0  0  0  0  0  0  0  0  0
    7.0895   -7.4439    0.0000 C   0  0  0  0  0  0  0  0  0  0  0  0
    9.3283   -4.7854    0.0000 C   0  0  0  0  0  0  0  0  0  0  0  0
    4.7481   -4.8041    0.0000 C   0  0  0  0  0  0  0  0  0  0  0  0
    7.0895   -8.7499    0.0000 C   0  0  0  0  0  0  0  0  0  0  0  0
    9.1510   -2.3600    0.0000 O   0  0  0  0  0  0  0  0  0  0  0  0
  1  2  2  0  0  0  0
  1  3  1  0  0  0  0
  1  4  1  0  0  0  0
  3 12  1  0  0  0  0
  4  5  1  0  0  0  0
  5  6  1  0  0  0  0
  5  7  1  0  0  0  0
  5  8  1  0  0  0  0
  9 10  1  0  0  0  0
  9 13  1  0  0  0  0
 10 11  1  0  0  0  0
 10 27  2  0  0  0  0
 11 12  2  0  0  0  0
 11 18  1  0  0  0  0
 12 13  1  0  0  0  0
 13 14  1  0  0  0  0
 13 17  1  0  0  0  0
 14 15  1  0  0  0  0
 15 16  1  0  0  0  0
 16 17  1  0  0  0  0
 18 19  2  0  0  0  0
 18 20  1  0  0  0  0
 19 21  1  0  0  0  0
 19 24  1  0  0  0  0
 20 22  2  0  0  0  0
 20 25  1  0  0  0  0
 21 23  2  0  0  0  0
 22 23  1  0  0  0  0
 23 26  1  0  0  0  0
M  END
> <ID>
6953

> <Formula>
C23H30O4

> <FW>
370.4819

> <DSSTox_CID>
14929

> <DSSTox_RID>
79222

> <DSSTox_GSID>
34929

> <DSSTox_FileID_Sort>
3904

> <TS_ChemName>
Spiromesifen

> <TS_ChemName_Synonyms>


> <TS_CASRN>
283594-90-1

> <CASRN_ChemName_Relationship>
primary

> <TS_Description>
single chemical compound

> <ChemNote>


> <STRUCTURE_Shown>
tested chemical

> <STRUCTURE_Formula>
C23H30O4

> <STRUCTURE_MW>
370.4819

> <STRUCTURE_ChemType>
defined organic

> <STRUCTURE_DefinedOrganicForm>
parent

> <STRUCTURE_IUPAC>
2-oxo-3-(2,4,6-trimethylphenyl)-1-oxaspiro[4.4]non-3-en-4-yl 3,3-dimethylbutanoate

> <STRUCTURE_SMILES>
CC(C)(C)CC(=O)OC2=C(C(=O)OC12CCCC1)c3c(C)cc(C)cc3C

> <STRUCTURE_SMILES_Desalt>
CC(C)(C)CC(=O)OC2=C(C(=O)OC12CCCC1)c3c(C)cc(C)cc3C

> <Substance_modify_yyyymmdd>
20080429

$$$$
