2835-95-2
ChemmineR-0915142007XD

  9  9  0  0  0  0  0  0  0  0  1 V2000
    0.0000   -2.6589    0.0000 O   0  0  0  0  0  0  0  0  0  0  0  0
    1.1520   -1.9953    0.0000 C   0  0  0  0  0  0  0  0  0  0  0  0
    1.1520   -0.6636    0.0000 C   0  0  0  0  0  0  0  0  0  0  0  0
    2.3041    0.0000    0.0000 C   0  0  0  0  0  0  0  0  0  0  0  0
    3.4561   -0.6636    0.0000 C   0  0  0  0  0  0  0  0  0  0  0  0
    3.4561   -1.9953    0.0000 C   0  0  0  0  0  0  0  0  0  0  0  0
    4.6082   -2.6589    0.0000 N   0  0  0  0  0  0  0  0  0  0  0  0
    0.0000    0.0000    0.0000 C   0  0  0  0  0  0  0  0  0  0  0  0
    2.3041   -2.6589    0.0000 C   0  0  0  0  0  0  0  0  0  0  0  0
  1  2  1  0  0  0  0
  2  3  2  0  0  0  0
  2  9  1  0  0  0  0
  3  4  1  0  0  0  0
  3  8  1  0  0  0  0
  4  5  2  0  0  0  0
  5  6  1  0  0  0  0
  6  7  1  0  0  0  0
  6  9  2  0  0  0  0
M  END
> <ID>
3709

> <Formula>
C7H9NO

> <FW>
123.1525

> <DSSTox_CID>
4489

> <DSSTox_RID>
77425

> <DSSTox_GSID>
24489

> <DSSTox_FileID_Sort>
2108

> <TS_ChemName>
5-Amino-2-methylphenol

> <TS_ChemName_Synonyms>
5-Amino-2-methylphenol (5-Amino-o-cresol) (3-Amino-6-methylphenol)

> <TS_CASRN>
2835-95-2

> <CASRN_ChemName_Relationship>
primary

> <TS_Description>
single chemical compound

> <ChemNote>


> <STRUCTURE_Shown>
tested chemical

> <STRUCTURE_Formula>
C7H9NO

> <STRUCTURE_MW>
123.1525

> <STRUCTURE_ChemType>
defined organic

> <STRUCTURE_DefinedOrganicForm>
parent

> <STRUCTURE_IUPAC>
5-amino-2-methylphenol

> <STRUCTURE_SMILES>
Nc1cc(O)c(C)cc1

> <STRUCTURE_SMILES_Desalt>
Nc1cc(O)c(C)cc1

> <Substance_modify_yyyymmdd>
20080429

$$$$
