2835-68-9
ChemmineR-0915142007XD

 10 10  0  0  0  0  0  0  0  0  1 V2000
    5.3365   -1.1393    0.0000 C   0  0  0  0  0  0  0  0  0  0  0  0
    5.9961    0.0000    0.0000 O   0  0  0  0  0  0  0  0  0  0  0  0
    4.0054   -1.1393    0.0000 C   0  0  0  0  0  0  0  0  0  0  0  0
    3.3278   -2.2965    0.0000 C   0  0  0  0  0  0  0  0  0  0  0  0
    3.3278    0.0000    0.0000 C   0  0  0  0  0  0  0  0  0  0  0  0
    1.9907   -2.2965    0.0000 C   0  0  0  0  0  0  0  0  0  0  0  0
    1.9907    0.0000    0.0000 C   0  0  0  0  0  0  0  0  0  0  0  0
    1.3371   -1.1393    0.0000 C   0  0  0  0  0  0  0  0  0  0  0  0
    5.9961   -2.2965    0.0000 N   0  0  0  0  0  0  0  0  0  0  0  0
    0.0000   -1.1393    0.0000 N   0  0  0  0  0  0  0  0  0  0  0  0
  1  2  2  0  0  0  0
  1  3  1  0  0  0  0
  1  9  1  0  0  0  0
  3  4  2  0  0  0  0
  3  5  1  0  0  0  0
  4  6  1  0  0  0  0
  5  7  2  0  0  0  0
  6  8  2  0  0  0  0
  7  8  1  0  0  0  0
  8 10  1  0  0  0  0
M  END
> <ID>
7506

> <Formula>
C7H8N2O

> <FW>
136.1512

> <DSSTox_CID>
18814

> <DSSTox_RID>
79401

> <DSSTox_GSID>
38814

> <DSSTox_FileID_Sort>
4083

> <TS_ChemName>
4-Aminobenzamide

> <TS_ChemName_Synonyms>


> <TS_CASRN>
2835-68-9

> <CASRN_ChemName_Relationship>
primary

> <TS_Description>
single chemical compound

> <ChemNote>


> <STRUCTURE_Shown>
tested chemical

> <STRUCTURE_Formula>
C7H8N2O

> <STRUCTURE_MW>
136.1512

> <STRUCTURE_ChemType>
defined organic

> <STRUCTURE_DefinedOrganicForm>
parent

> <STRUCTURE_IUPAC>
4-aminobenzamide

> <STRUCTURE_SMILES>
O=C(N)c1ccc(N)cc1

> <STRUCTURE_SMILES_Desalt>
O=C(N)c1ccc(N)cc1

> <Substance_modify_yyyymmdd>
20080429

$$$$
