2835-99-6
ChemmineR-0915142007XD

  9  9  0  0  0  0  0  0  0  0  1 V2000
    0.0000   -3.9835    0.0000 C   0  0  0  0  0  0  0  0  0  0  0  0
    3.4577   -1.9811    0.0000 C   0  0  0  0  0  0  0  0  0  0  0  0
    3.4577   -3.3143    0.0000 C   0  0  0  0  0  0  0  0  0  0  0  0
    1.1526   -1.9811    0.0000 C   0  0  0  0  0  0  0  0  0  0  0  0
    1.1526   -3.3143    0.0000 C   0  0  0  0  0  0  0  0  0  0  0  0
    2.3051   -1.3278    0.0000 C   0  0  0  0  0  0  0  0  0  0  0  0
    2.3051   -3.9835    0.0000 C   0  0  0  0  0  0  0  0  0  0  0  0
    2.3051   -5.3114    0.0000 N   0  0  0  0  0  0  0  0  0  0  0  0
    2.3051    0.0000    0.0000 O   0  0  0  0  0  0  0  0  0  0  0  0
  1  5  1  0  0  0  0
  2  3  1  0  0  0  0
  2  6  2  0  0  0  0
  3  7  2  0  0  0  0
  4  5  2  0  0  0  0
  4  6  1  0  0  0  0
  5  7  1  0  0  0  0
  6  9  1  0  0  0  0
  7  8  1  0  0  0  0
M  END
> <ID>
14125

> <Formula>
C7H9NO

> <FW>
123.1525

> <DSSTox_CID>
29118

> <DSSTox_RID>
83337

> <DSSTox_GSID>
49262

> <DSSTox_FileID_Sort>
8012

> <TS_ChemName>
4-Amino-m-cresol

> <TS_ChemName_Synonyms>


> <TS_CASRN>
2835-99-6

> <CASRN_ChemName_Relationship>
primary

> <TS_Description>
single chemical compound

> <ChemNote>


> <STRUCTURE_Shown>
tested chemical

> <STRUCTURE_Formula>
C7H9NO

> <STRUCTURE_MW>
123.1525

> <STRUCTURE_ChemType>
defined organic

> <STRUCTURE_DefinedOrganicForm>
parent

> <STRUCTURE_IUPAC>
4-amino-3-methylphenol

> <STRUCTURE_SMILES>
Cc1cc(O)ccc1N

> <STRUCTURE_SMILES_Desalt>
Cc1cc(O)ccc1N

> <Substance_modify_yyyymmdd>
20111204

$$$$
