2840-28-0
ChemmineR-0915142007XD

 11 11  0  0  0  0  0  0  0  0  1 V2000
    4.6041   -1.3311    0.0000 C    0  0  0  0  0  0  0  0  0  0  0  0
    4.6041    0.0000    0.0000 O    0  0  0  0  0  0  0  0  0  0  0  0
    3.4689   -1.9938    0.0000 C    0  0  0  0  0  0  0  0  0  0  0  0
    5.7623   -1.9938    0.0000 O    0  0  0  0  0  0  0  0  0  0  0  0
    2.3107   -1.3311    0.0000 C    0  0  0  0  0  0  0  0  0  0  0  0
    3.4689   -3.3249    0.0000 C    0  0  0  0  0  0  0  0  0  0  0  0
    1.1582   -1.9938    0.0000 C    0  0  0  0  0  0  0  0  0  0  0  0
    2.3107   -3.9818    0.0000 C    0  0  0  0  0  0  0  0  0  0  0  0
    1.1582   -3.3249    0.0000 C    0  0  0  0  0  0  0  0  0  0  0  0
    0.0000   -1.3311    0.0000 N    0  0  0  0  0  0  0  0  0  0  0  0
    0.0000   -3.9818    0.0000 Cl   0  0  0  0  0  0  0  0  0  0  0  0
  1  2  2  0  0  0  0
  1  3  1  0  0  0  0
  1  4  1  0  0  0  0
  3  5  2  0  0  0  0
  3  6  1  0  0  0  0
  5  7  1  0  0  0  0
  6  8  2  0  0  0  0
  7  9  2  0  0  0  0
  7 10  1  0  0  0  0
  8  9  1  0  0  0  0
  9 11  1  0  0  0  0
M  END
> <ID>
10071

> <Formula>
C7H6ClNO2

> <FW>
171.581

> <DSSTox_CID>
24414

> <DSSTox_RID>
80213

> <DSSTox_GSID>
44414

> <DSSTox_FileID_Sort>
4895

> <TS_ChemName>
3-Amino-4-chlorobenzoic acid

> <TS_ChemName_Synonyms>
3-Amino-4-chlorobenzoic acid (Benzoic acid, 3-amino-4-chloro-)

> <TS_CASRN>
2840-28-0

> <CASRN_ChemName_Relationship>
primary

> <TS_Description>
single chemical compound

> <ChemNote>


> <STRUCTURE_Shown>
tested chemical

> <STRUCTURE_Formula>
C7H6ClNO2

> <STRUCTURE_MW>
171.581

> <STRUCTURE_ChemType>
defined organic

> <STRUCTURE_DefinedOrganicForm>
parent

> <STRUCTURE_IUPAC>
3-amino-4-chlorobenzoic acid

> <STRUCTURE_SMILES>
Nc1cc(ccc1Cl)C(=O)O

> <STRUCTURE_SMILES_Desalt>
Nc1cc(ccc1Cl)C(=O)O

> <Substance_modify_yyyymmdd>
20091116

$$$$
