28434-00-6
ChemmineR-0915142007XD

 22 23  0  0  1  0  0  0  0  0  1 V2000
   10.0823   -1.2637    0.0000 C   0  0  0  0  0  0  0  0  0  0  0  0
   10.4944   -2.5412    0.0000 C   0  0  0  0  0  0  0  0  0  0  0  0
    9.1895   -2.2527    0.0000 C   0  0  0  0  0  0  0  0  0  0  0  0
    7.9258   -2.6648    0.0000 C   0  0  0  0  0  0  0  0  0  0  0  0
    3.5165   -2.1978    0.0000 C   0  0  0  0  0  0  0  0  0  0  0  0
    4.6016   -1.4148    0.0000 C   0  0  0  0  0  0  0  0  0  0  0  0
    5.6730   -2.1978    0.0000 C   0  0  0  0  0  0  0  0  0  0  0  0
    3.9285   -3.4615    0.0000 C   0  0  0  0  0  0  0  0  0  0  0  0
    6.9368   -1.7857    0.0000 O   0  0  0  0  0  0  0  0  0  0  0  0
   11.4834   -3.4203    0.0000 C   0  0  0  0  0  0  0  0  0  0  0  0
    5.2609   -3.4615    0.0000 C   0  0  0  0  0  0  0  0  0  0  0  0
    7.6510   -3.9697    0.0000 O   0  0  0  0  0  0  0  0  0  0  0  0
    3.1456   -4.5329    0.0000 O   0  0  0  0  0  0  0  0  0  0  0  0
   12.7471   -3.0082    0.0000 C   0  0  0  0  0  0  0  0  0  0  0  0
   10.9752   -0.2747    0.0000 C   0  0  0  0  0  0  0  0  0  0  0  0
    9.6702    0.0000    0.0000 C   0  0  0  0  0  0  0  0  0  0  0  0
    1.2637   -2.6648    0.0000 C   0  0  0  0  0  0  0  0  0  0  0  0
    0.0000   -2.2527    0.0000 C   0  0  0  0  0  0  0  0  0  0  0  0
    2.2527   -1.7857    0.0000 C   0  0  0  0  0  0  0  0  0  0  0  0
    4.6016   -0.0824    0.0000 C   0  0  0  0  0  0  0  0  0  0  0  0
   13.7361   -3.9011    0.0000 C   0  0  0  0  0  0  0  0  0  0  0  0
   13.0219   -1.7170    0.0000 C   0  0  0  0  0  0  0  0  0  0  0  0
  1  2  1  0  0  0  0
  1  3  1  0  0  0  0
  1 15  1  0  0  0  0
  1 16  1  0  0  0  0
  2 10  1  6  0  0  0
  2  3  1  0  0  0  0
  3  4  1  1  0  0  0
  4  9  1  0  0  0  0
  4 12  2  0  0  0  0
  5  6  2  0  0  0  0
  5 19  1  0  0  0  0
  5  8  1  0  0  0  0
  6  7  1  0  0  0  0
  6 20  1  0  0  0  0
  7  9  1  1  0  0  0
  7 11  1  0  0  0  0
  8 11  1  0  0  0  0
  8 13  2  0  0  0  0
 10 14  2  0  0  0  0
 14 21  1  0  0  0  0
 14 22  1  0  0  0  0
 17 19  1  0  0  0  0
 17 18  2  0  0  0  0
M  END
> <ID>
7548

> <Formula>
C19H26O3

> <FW>
302.4079

> <DSSTox_CID>
19336

> <DSSTox_RID>
79434

> <DSSTox_GSID>
39336

> <DSSTox_FileID_Sort>
4116

> <TS_ChemName>
S-Bioallethrin

> <TS_ChemName_Synonyms>
S-Bioallethrin; d-trans-Allethrin; Esbiol

> <TS_CASRN>
28434-00-6

> <CASRN_ChemName_Relationship>
primary

> <TS_Description>
single chemical compound

> <ChemNote>
absolute stereochem

> <STRUCTURE_Shown>
tested chemical

> <STRUCTURE_Formula>
C19H26O3

> <STRUCTURE_MW>
302.4079

> <STRUCTURE_ChemType>
defined organic

> <STRUCTURE_DefinedOrganicForm>
parent

> <STRUCTURE_IUPAC>
(1S)-2-methyl-4-oxo-3-(prop-2-en-1-yl)cyclopent-2-en-1-yl (1R,3R)-2,2-dimethyl-3-(2-methylprop-1-en-1-yl)cyclopropanecarboxylate

> <STRUCTURE_SMILES>
O=C2C[C@H](OC(=O)[C@@H]1[C@@H](/C=C(\C)C)C1(C)C)C(C)=C2CC=C

> <STRUCTURE_SMILES_Desalt>
O=C2C[C@H](OC(=O)[C@@H]1[C@@H](/C=C(\C)C)C1(C)C)C(C)=C2CC=C

> <Substance_modify_yyyymmdd>
20080429

$$$$
