28434-01-7
ChemmineR-0915142007XD

 25 27  0  0  1  0  0  0  0  0  1 V2000
   10.9950   -2.3031    0.0000 C   0  0  0  0  0  0  0  0  0  0  0  0
   11.6418   -1.1358    0.0000 C   0  0  0  0  0  0  0  0  0  0  0  0
   12.3044   -2.3031    0.0000 C   0  0  0  0  0  0  0  0  0  0  0  0
    9.8119   -2.9499    0.0000 C   0  0  0  0  0  0  0  0  0  0  0  0
    9.8119   -4.3065    0.0000 O   0  0  0  0  0  0  0  0  0  0  0  0
    8.6919   -2.2873    0.0000 O   0  0  0  0  0  0  0  0  0  0  0  0
   10.9950    0.0000    0.0000 C   0  0  0  0  0  0  0  0  0  0  0  0
   12.3201    0.0000    0.0000 C   0  0  0  0  0  0  0  0  0  0  0  0
   13.4875   -2.9814    0.0000 C   0  0  0  0  0  0  0  0  0  0  0  0
   14.6233   -2.3031    0.0000 C   0  0  0  0  0  0  0  0  0  0  0  0
   14.6233   -0.9780    0.0000 C   0  0  0  0  0  0  0  0  0  0  0  0
   15.7748   -2.9814    0.0000 C   0  0  0  0  0  0  0  0  0  0  0  0
    7.5246   -2.9657    0.0000 C   0  0  0  0  0  0  0  0  0  0  0  0
    5.6947   -0.2997    0.0000 O   0  0  0  0  0  0  0  0  0  0  0  0
    4.6378   -1.0569    0.0000 C   0  0  0  0  0  0  0  0  0  0  0  0
    6.7674   -1.0569    0.0000 C   0  0  0  0  0  0  0  0  0  0  0  0
    5.0322   -2.3189    0.0000 C   0  0  0  0  0  0  0  0  0  0  0  0
    6.3572   -2.3189    0.0000 C   0  0  0  0  0  0  0  0  0  0  0  0
    3.4705   -0.3786    0.0000 C   0  0  0  0  0  0  0  0  0  0  0  0
    2.2873   -1.0254    0.0000 C   0  0  0  0  0  0  0  0  0  0  0  0
    1.1516   -0.3786    0.0000 C   0  0  0  0  0  0  0  0  0  0  0  0
    2.2873   -2.3662    0.0000 C   0  0  0  0  0  0  0  0  0  0  0  0
    0.0000   -1.0254    0.0000 C   0  0  0  0  0  0  0  0  0  0  0  0
    1.1516   -3.0445    0.0000 C   0  0  0  0  0  0  0  0  0  0  0  0
    0.0000   -2.3662    0.0000 C   0  0  0  0  0  0  0  0  0  0  0  0
  1  2  1  0  0  0  0
  1  3  1  0  0  0  0
  1  4  1  1  0  0  0
  2  3  1  0  0  0  0
  2  7  1  0  0  0  0
  2  8  1  0  0  0  0
  3  9  1  6  0  0  0
  4  5  2  0  0  0  0
  4  6  1  0  0  0  0
  6 13  1  0  0  0  0
  9 10  2  0  0  0  0
 10 11  1  0  0  0  0
 10 12  1  0  0  0  0
 13 18  1  0  0  0  0
 14 15  1  0  0  0  0
 14 16  1  0  0  0  0
 15 17  2  0  0  0  0
 15 19  1  0  0  0  0
 16 18  2  0  0  0  0
 17 18  1  0  0  0  0
 19 20  1  0  0  0  0
 20 21  2  0  0  0  0
 20 22  1  0  0  0  0
 21 23  1  0  0  0  0
 22 24  2  0  0  0  0
 23 25  2  0  0  0  0
 24 25  1  0  0  0  0
M  END
> <ID>
6764

> <Formula>
C22H26O3

> <FW>
338.44

> <DSSTox_CID>
14382

> <DSSTox_RID>
79150

> <DSSTox_GSID>
34382

> <DSSTox_FileID_Sort>
3832

> <TS_ChemName>
Bioresmethrin

> <TS_ChemName_Synonyms>


> <TS_CASRN>
28434-01-7

> <CASRN_ChemName_Relationship>
primary

> <TS_Description>
single chemical compound

> <ChemNote>
stereochem

> <STRUCTURE_Shown>
tested chemical

> <STRUCTURE_Formula>
C22H26O3

> <STRUCTURE_MW>
338.44

> <STRUCTURE_ChemType>
defined organic

> <STRUCTURE_DefinedOrganicForm>
parent

> <STRUCTURE_IUPAC>
(5-benzylfuran-3-yl)methyl (1R,3R)-2,2-dimethyl-3-(2-methylprop-1-en-1-yl)cyclopropanecarboxylate

> <STRUCTURE_SMILES>
O=C(OCc2cc(Cc1ccccc1)oc2)[C@@H]3[C@@H](/C=C(\C)C)C3(C)C

> <STRUCTURE_SMILES_Desalt>
O=C(OCc2cc(Cc1ccccc1)oc2)[C@@H]3[C@@H](/C=C(\C)C)C3(C)C

> <Substance_modify_yyyymmdd>
20080429

$$$$
