28523-86-6
ChemmineR-0915142007XD

 12 11  0  0  0  0  0  0  0  0  1 V2000
    2.3072   -1.8112    0.0000 C   0  0  0  0  0  0  0  0  0  0  0  0
    1.1709   -1.1363    0.0000 C   0  0  0  0  0  0  0  0  0  0  0  0
    2.3072   -3.1205    0.0000 C   0  0  0  0  0  0  0  0  0  0  0  0
    3.4608   -1.1363    0.0000 O   0  0  0  0  0  0  0  0  0  0  0  0
    0.4961   -2.2899    0.0000 F   0  0  0  0  0  0  0  0  0  0  0  0
    1.8285    0.0000    0.0000 F   0  0  0  0  0  0  0  0  0  0  0  0
    0.0000   -0.4787    0.0000 F   0  0  0  0  0  0  0  0  0  0  0  0
    3.6396   -3.1205    0.0000 F   0  0  0  0  0  0  0  0  0  0  0  0
    0.9748   -3.1205    0.0000 F   0  0  0  0  0  0  0  0  0  0  0  0
    2.3072   -4.4529    0.0000 F   0  0  0  0  0  0  0  0  0  0  0  0
    4.5971   -1.8112    0.0000 C   0  0  0  0  0  0  0  0  0  0  0  0
    5.7680   -1.1363    0.0000 F   0  0  0  0  0  0  0  0  0  0  0  0
  1  2  1  0  0  0  0
  1  3  1  0  0  0  0
  1  4  1  0  0  0  0
  2  5  1  0  0  0  0
  2  6  1  0  0  0  0
  2  7  1  0  0  0  0
  3  8  1  0  0  0  0
  3  9  1  0  0  0  0
  3 10  1  0  0  0  0
  4 11  1  0  0  0  0
 11 12  1  0  0  0  0
M  END
> <ID>
11832

> <Formula>
C4H3F7O

> <FW>
200.0548

> <DSSTox_CID>
26614

> <DSSTox_RID>
81767

> <DSSTox_GSID>
46614

> <DSSTox_FileID_Sort>
6448

> <TS_ChemName>
Sevoflurane

> <TS_ChemName_Synonyms>


> <TS_CASRN>
28523-86-6

> <CASRN_ChemName_Relationship>
primary

> <TS_Description>
single chemical compound

> <ChemNote>


> <STRUCTURE_Shown>
tested chemical

> <STRUCTURE_Formula>
C4H3F7O

> <STRUCTURE_MW>
200.0548

> <STRUCTURE_ChemType>
defined organic

> <STRUCTURE_DefinedOrganicForm>
parent

> <STRUCTURE_IUPAC>
fluoromethyl 1,1,1,3,3,3-hexafluoropropan-2-yl ether

> <STRUCTURE_SMILES>
FC(F)(F)C(OCF)C(F)(F)F

> <STRUCTURE_SMILES_Desalt>
FC(F)(F)C(OCF)C(F)(F)F

> <Substance_modify_yyyymmdd>
20110809

$$$$
