2855-19-8
ChemmineR-0915142007XD

 13 13  0  0  0  0  0  0  0  0  1 V2000
   10.3737   -2.4831    0.0000 C   0  0  0  0  0  0  0  0  0  0  0  0
    9.2150   -3.1452    0.0000 C   0  0  0  0  0  0  0  0  0  0  0  0
    8.0672   -2.4831    0.0000 C   0  0  0  0  0  0  0  0  0  0  0  0
    6.9085   -3.1452    0.0000 C   0  0  0  0  0  0  0  0  0  0  0  0
    5.7607   -2.4831    0.0000 C   0  0  0  0  0  0  0  0  0  0  0  0
    4.6130   -3.1452    0.0000 C   0  0  0  0  0  0  0  0  0  0  0  0
    3.4542   -2.4831    0.0000 C   0  0  0  0  0  0  0  0  0  0  0  0
    2.3065   -3.1452    0.0000 C   0  0  0  0  0  0  0  0  0  0  0  0
    1.1477   -2.4831    0.0000 C   0  0  0  0  0  0  0  0  0  0  0  0
    0.0000   -3.1452    0.0000 C   0  0  0  0  0  0  0  0  0  0  0  0
   10.3737   -1.1477    0.0000 C   0  0  0  0  0  0  0  0  0  0  0  0
    9.7006    0.0000    0.0000 C   0  0  0  0  0  0  0  0  0  0  0  0
   11.0359    0.0000    0.0000 O   0  0  0  0  0  0  0  0  0  0  0  0
  1  2  1  0  0  0  0
  1 11  1  0  0  0  0
  2  3  1  0  0  0  0
  3  4  1  0  0  0  0
  4  5  1  0  0  0  0
  5  6  1  0  0  0  0
  6  7  1  0  0  0  0
  7  8  1  0  0  0  0
  8  9  1  0  0  0  0
  9 10  1  0  0  0  0
 11 12  1  0  0  0  0
 11 13  1  0  0  0  0
 12 13  1  0  0  0  0
M  END
> <ID>
4099

> <Formula>
C12H24O

> <FW>
184.3184

> <DSSTox_CID>
5243

> <DSSTox_RID>
77714

> <DSSTox_GSID>
25243

> <DSSTox_FileID_Sort>
2397

> <TS_ChemName>
1,2-Epoxydodecane

> <TS_ChemName_Synonyms>


> <TS_CASRN>
2855-19-8

> <CASRN_ChemName_Relationship>
primary

> <TS_Description>
single chemical compound

> <ChemNote>


> <STRUCTURE_Shown>
tested chemical

> <STRUCTURE_Formula>
C12H24O

> <STRUCTURE_MW>
184.3184

> <STRUCTURE_ChemType>
defined organic

> <STRUCTURE_DefinedOrganicForm>
parent

> <STRUCTURE_IUPAC>
2-decyloxirane

> <STRUCTURE_SMILES>
CCCCCCCCCCC1CO1

> <STRUCTURE_SMILES_Desalt>
CCCCCCCCCCC1CO1

> <Substance_modify_yyyymmdd>
20080429

$$$$
