2856-81-7
ChemmineR-0915142007XD

 21 23  0  0  0  0  0  0  0  0  1 V2000
    0.0000   -3.9866    0.0000 F   0  0  0  0  0  0  0  0  0  0  0  0
    1.1550   -3.3159    0.0000 C   0  0  0  0  0  0  0  0  0  0  0  0
    1.1550   -1.9871    0.0000 C   0  0  0  0  0  0  0  0  0  0  0  0
    2.3100   -1.3289    0.0000 C   0  0  0  0  0  0  0  0  0  0  0  0
    3.4525   -1.9871    0.0000 C   0  0  0  0  0  0  0  0  0  0  0  0
    3.4525   -3.3159    0.0000 C   0  0  0  0  0  0  0  0  0  0  0  0
    2.3100   -3.9866    0.0000 C   0  0  0  0  0  0  0  0  0  0  0  0
    4.6075   -1.3289    0.0000 C   0  0  0  0  0  0  0  0  0  0  0  0
    4.6075    0.0000    0.0000 O   0  0  0  0  0  0  0  0  0  0  0  0
    5.7625   -1.9871    0.0000 C   0  0  0  0  0  0  0  0  0  0  0  0
    5.7625   -3.3159    0.0000 C   0  0  0  0  0  0  0  0  0  0  0  0
    6.9175   -3.9866    0.0000 C   0  0  0  0  0  0  0  0  0  0  0  0
    8.0725   -3.3159    0.0000 N   0  0  0  0  0  0  0  0  0  0  0  0
    8.0725   -1.9871    0.0000 C   0  0  0  0  0  0  0  0  0  0  0  0
    9.2150   -1.3289    0.0000 C   0  0  0  0  0  0  0  0  0  0  0  0
   10.3700   -1.9871    0.0000 N   0  0  0  0  0  0  0  0  0  0  0  0
   11.6368   -1.5772    0.0000 C   0  0  0  0  0  0  0  0  0  0  0  0
   12.4192   -2.6577    0.0000 C   0  0  0  0  0  0  0  0  0  0  0  0
   11.6368   -3.7382    0.0000 C   0  0  0  0  0  0  0  0  0  0  0  0
   10.3700   -3.3159    0.0000 C   0  0  0  0  0  0  0  0  0  0  0  0
    9.2150   -3.9866    0.0000 C   0  0  0  0  0  0  0  0  0  0  0  0
  1  2  1  0  0  0  0
  2  3  2  0  0  0  0
  2  7  1  0  0  0  0
  3  4  1  0  0  0  0
  4  5  2  0  0  0  0
  5  6  1  0  0  0  0
  5  8  1  0  0  0  0
  6  7  2  0  0  0  0
  8  9  2  0  0  0  0
  8 10  1  0  0  0  0
 10 11  1  0  0  0  0
 11 12  1  0  0  0  0
 12 13  1  0  0  0  0
 13 14  1  0  0  0  0
 13 21  1  0  0  0  0
 14 15  1  0  0  0  0
 15 16  1  0  0  0  0
 16 17  1  0  0  0  0
 16 20  1  0  0  0  0
 17 18  1  0  0  0  0
 18 19  1  0  0  0  0
 19 20  1  0  0  0  0
 20 21  1  0  0  0  0
M  END
> <ID>
11484

> <Formula>
C17H23FN2O

> <FW>
290.3757

> <DSSTox_CID>
26186

> <DSSTox_RID>
81417

> <DSSTox_GSID>
46186

> <DSSTox_FileID_Sort>
6098

> <TS_ChemName>
Azabuperone

> <TS_ChemName_Synonyms>


> <TS_CASRN>
2856-81-7

> <CASRN_ChemName_Relationship>
primary

> <TS_Description>
single chemical compound

> <ChemNote>


> <STRUCTURE_Shown>
tested chemical

> <STRUCTURE_Formula>
C17H23FN2O

> <STRUCTURE_MW>
290.3757

> <STRUCTURE_ChemType>
defined organic

> <STRUCTURE_DefinedOrganicForm>
parent

> <STRUCTURE_IUPAC>
1-(4-fluorophenyl)-4-(hexahydropyrrolo[1,2-a]pyrazin-2(1H)-yl)butan-1-one

> <STRUCTURE_SMILES>
Fc1ccc(cc1)C(=O)CCCN2CC3CCCN3CC2

> <STRUCTURE_SMILES_Desalt>
Fc1ccc(cc1)C(=O)CCCN2CC3CCCN3CC2

> <Substance_modify_yyyymmdd>
20110818

$$$$
