28588-74-1
ChemmineR-0915142007XD

  7  7  0  0  0  0  0  0  0  0  1 V2000
    1.1013    0.0000    0.0000 O   0  0  0  0  0  0  0  0  0  0  0  0
    0.0000   -0.7994    0.0000 C   0  0  0  0  0  0  0  0  0  0  0  0
    2.1716   -0.7994    0.0000 C   0  0  0  0  0  0  0  0  0  0  0  0
    0.4323   -2.0447    0.0000 C   0  0  0  0  0  0  0  0  0  0  0  0
    1.7565   -2.0447    0.0000 C   0  0  0  0  0  0  0  0  0  0  0  0
    2.5216   -3.1288    0.0000 S   0  0  0  0  0  0  0  0  0  0  0  0
    3.4307   -0.3671    0.0000 C   0  0  0  0  0  0  0  0  0  0  0  0
  1  2  1  0  0  0  0
  1  3  1  0  0  0  0
  2  4  2  0  0  0  0
  3  5  2  0  0  0  0
  3  7  1  0  0  0  0
  4  5  1  0  0  0  0
  5  6  1  0  0  0  0
M  END
> <ID>
12268

> <Formula>
C5H6OS

> <FW>
114.1655

> <DSSTox_CID>
27118

> <DSSTox_RID>
82127

> <DSSTox_GSID>
47118

> <DSSTox_FileID_Sort>
6808

> <TS_ChemName>
2-Methyl-3-furanthiol

> <TS_ChemName_Synonyms>


> <TS_CASRN>
28588-74-1

> <CASRN_ChemName_Relationship>
primary

> <TS_Description>
single chemical compound

> <ChemNote>


> <STRUCTURE_Shown>
tested chemical

> <STRUCTURE_Formula>
C5H6OS

> <STRUCTURE_MW>
114.1655

> <STRUCTURE_ChemType>
defined organic

> <STRUCTURE_DefinedOrganicForm>
parent

> <STRUCTURE_IUPAC>
2-methylfuran-3-thiol

> <STRUCTURE_SMILES>
Cc1occc1S

> <STRUCTURE_SMILES_Desalt>
Cc1occc1S

> <Substance_modify_yyyymmdd>
20100429

$$$$
