28588-75-2
ChemmineR-0915142007XD

 14 15  0  0  0  0  0  0  0  0  1 V2000
    2.2023   -7.4151    0.0000 O   0  0  0  0  0  0  0  0  0  0  0  0
    1.6536   -6.1916    0.0000 C   0  0  0  0  0  0  0  0  0  0  0  0
    3.5148   -7.2743    0.0000 C   0  0  0  0  0  0  0  0  0  0  0  0
    2.6472   -5.2944    0.0000 C   0  0  0  0  0  0  0  0  0  0  0  0
    3.7891   -5.9692    0.0000 C   0  0  0  0  0  0  0  0  0  0  0  0
    0.3559   -5.9247    0.0000 C   0  0  0  0  0  0  0  0  0  0  0  0
    1.5868    0.0000    0.0000 O   0  0  0  0  0  0  0  0  0  0  0  0
    2.1356   -1.2235    0.0000 C   0  0  0  0  0  0  0  0  0  0  0  0
    0.2744   -0.1409    0.0000 C   0  0  0  0  0  0  0  0  0  0  0  0
    1.1419   -2.1207    0.0000 C   0  0  0  0  0  0  0  0  0  0  0  0
    0.0000   -1.4460    0.0000 C   0  0  0  0  0  0  0  0  0  0  0  0
    3.4332   -1.4904    0.0000 C   0  0  0  0  0  0  0  0  0  0  0  0
    1.2828   -3.4332    0.0000 S   0  0  0  0  0  0  0  0  0  0  0  0
    2.5063   -3.9819    0.0000 S   0  0  0  0  0  0  0  0  0  0  0  0
  1  2  1  0  0  0  0
  1  3  1  0  0  0  0
  2  4  2  0  0  0  0
  2  6  1  0  0  0  0
  3  5  2  0  0  0  0
  4  5  1  0  0  0  0
  4 14  1  0  0  0  0
  7  8  1  0  0  0  0
  7  9  1  0  0  0  0
  8 10  2  0  0  0  0
  8 12  1  0  0  0  0
  9 11  2  0  0  0  0
 10 11  1  0  0  0  0
 10 13  1  0  0  0  0
 13 14  1  0  0  0  0
M  END
> <ID>
12794

> <Formula>
C10H10O2S2

> <FW>
226.3152

> <DSSTox_CID>
27673

> <DSSTox_RID>
82491

> <DSSTox_GSID>
47673

> <DSSTox_FileID_Sort>
7172

> <TS_ChemName>
Bis(2-methyl-3-furyl)disulfide

> <TS_ChemName_Synonyms>


> <TS_CASRN>
28588-75-2

> <CASRN_ChemName_Relationship>
primary

> <TS_Description>
single chemical compound

> <ChemNote>


> <STRUCTURE_Shown>
tested chemical

> <STRUCTURE_Formula>
C10H10O2S2

> <STRUCTURE_MW>
226.3152

> <STRUCTURE_ChemType>
defined organic

> <STRUCTURE_DefinedOrganicForm>
parent

> <STRUCTURE_IUPAC>
3,3'-disulfanediylbis(2-methylfuran)

> <STRUCTURE_SMILES>
Cc2occc2SSc1ccoc1C

> <STRUCTURE_SMILES_Desalt>
Cc2occc2SSc1ccoc1C

> <Substance_modify_yyyymmdd>
20101215

$$$$
