285983-48-4
ChemmineR-0915142007XD

 39 43  0  0  0  0  0  0  0  0  1 V2000
   13.8886   -1.9334    0.0000 C   0  0  0  0  0  0  0  0  0  0  0  0
   12.3454   -2.5188    0.0000 C   0  0  0  0  0  0  0  0  0  0  0  0
    0.9046   -9.6493    0.0000 C   0  0  0  0  0  0  0  0  0  0  0  0
    4.3103   -4.6295    0.0000 N   0  0  0  0  0  0  0  0  0  0  0  0
    5.4455   -3.9555    0.0000 C   0  0  0  0  0  0  0  0  0  0  0  0
    5.4455   -2.6429    0.0000 O   0  0  0  0  0  0  0  0  0  0  0  0
    6.5807   -4.6118    0.0000 N   0  0  0  0  0  0  0  0  0  0  0  0
    7.7159   -3.9555    0.0000 C   0  0  0  0  0  0  0  0  0  0  0  0
    8.8511   -4.6118    0.0000 C   0  0  0  0  0  0  0  0  0  0  0  0
    9.9686   -3.9555    0.0000 C   0  0  0  0  0  0  0  0  0  0  0  0
    9.9686   -2.6252    0.0000 C   0  0  0  0  0  0  0  0  0  0  0  0
    8.8334   -1.9866    0.0000 C   0  0  0  0  0  0  0  0  0  0  0  0
    7.7159   -2.6429    0.0000 C   0  0  0  0  0  0  0  0  0  0  0  0
   11.1215   -1.9689    0.0000 O   0  0  0  0  0  0  0  0  0  0  0  0
    3.1750   -3.9732    0.0000 C   0  0  0  0  0  0  0  0  0  0  0  0
    3.0331   -2.6607    0.0000 C   0  0  0  0  0  0  0  0  0  0  0  0
    1.7383   -2.3946    0.0000 C   0  0  0  0  0  0  0  0  0  0  0  0
    1.0997   -3.5298    0.0000 N   0  0  0  0  0  0  0  0  0  0  0  0
    1.9866   -4.5231    0.0000 N   0  0  0  0  0  0  0  0  0  0  0  0
    1.2062   -1.1884    0.0000 C   0  0  0  0  0  0  0  0  0  0  0  0
    2.4123   -0.6740    0.0000 C   0  0  0  0  0  0  0  0  0  0  0  0
    0.0000   -1.7383    0.0000 C   0  0  0  0  0  0  0  0  0  0  0  0
    0.6563    0.0000    0.0000 C   0  0  0  0  0  0  0  0  0  0  0  0
    0.4612   -6.1905    0.0000 C   0  0  0  0  0  0  0  0  0  0  0  0
    0.1951   -7.4853    0.0000 C   0  0  0  0  0  0  0  0  0  0  0  0
    1.7028   -5.7825    0.0000 C   0  0  0  0  0  0  0  0  0  0  0  0
    1.1529   -8.3544    0.0000 C   0  0  0  0  0  0  0  0  0  0  0  0
    2.6784   -6.6694    0.0000 C   0  0  0  0  0  0  0  0  0  0  0  0
    2.4301   -7.9465    0.0000 C   0  0  0  0  0  0  0  0  0  0  0  0
    8.8511   -5.9244    0.0000 C   0  0  0  0  0  0  0  0  0  0  0  0
    9.9863   -6.5807    0.0000 C   0  0  0  0  0  0  0  0  0  0  0  0
   11.1215   -4.5941    0.0000 C   0  0  0  0  0  0  0  0  0  0  0  0
   11.1393   -5.9066    0.0000 C   0  0  0  0  0  0  0  0  0  0  0  0
   15.4495   -2.3768    0.0000 N   0  0  0  0  0  0  0  0  0  0  0  0
   16.6025   -1.7206    0.0000 C   0  0  0  0  0  0  0  0  0  0  0  0
   17.7377   -2.3768    0.0000 C   0  0  0  0  0  0  0  0  0  0  0  0
   17.7377   -3.6894    0.0000 O   0  0  0  0  0  0  0  0  0  0  0  0
   16.6025   -4.3457    0.0000 C   0  0  0  0  0  0  0  0  0  0  0  0
   15.4495   -3.6894    0.0000 C   0  0  0  0  0  0  0  0  0  0  0  0
  1  2  1  0  0  0  0
  1 34  1  0  0  0  0
  2 14  1  0  0  0  0
  3 27  1  0  0  0  0
  4  5  1  0  0  0  0
  4 15  1  0  0  0  0
  5  6  2  0  0  0  0
  5  7  1  0  0  0  0
  7  8  1  0  0  0  0
  8  9  1  0  0  0  0
  8 13  2  0  0  0  0
  9 30  1  0  0  0  0
  9 10  2  0  0  0  0
 10 11  1  0  0  0  0
 10 32  1  0  0  0  0
 11 12  2  0  0  0  0
 11 14  1  0  0  0  0
 12 13  1  0  0  0  0
 15 16  2  0  0  0  0
 15 19  1  0  0  0  0
 16 17  1  0  0  0  0
 17 18  2  0  0  0  0
 17 20  1  0  0  0  0
 18 19  1  0  0  0  0
 19 26  1  0  0  0  0
 20 21  1  0  0  0  0
 20 22  1  0  0  0  0
 20 23  1  0  0  0  0
 24 25  1  0  0  0  0
 24 26  2  0  0  0  0
 25 27  2  0  0  0  0
 26 28  1  0  0  0  0
 27 29  1  0  0  0  0
 28 29  2  0  0  0  0
 30 31  2  0  0  0  0
 31 33  1  0  0  0  0
 32 33  2  0  0  0  0
 34 35  1  0  0  0  0
 34 39  1  0  0  0  0
 35 36  1  0  0  0  0
 36 37  1  0  0  0  0
 37 38  1  0  0  0  0
 38 39  1  0  0  0  0
M  END
> <ID>
13945

> <Formula>
C31H37N5O3

> <FW>
527.6572

> <DSSTox_CID>
28883

> <DSSTox_RID>
83151

> <DSSTox_GSID>
48957

> <DSSTox_FileID_Sort>
7828

> <TS_ChemName>
Doramapimod

> <TS_ChemName_Synonyms>


> <TS_CASRN>
285983-48-4

> <CASRN_ChemName_Relationship>
primary

> <TS_Description>
single chemical compound

> <ChemNote>


> <STRUCTURE_Shown>
tested chemical

> <STRUCTURE_Formula>
C31H37N5O3

> <STRUCTURE_MW>
527.6572

> <STRUCTURE_ChemType>
defined organic

> <STRUCTURE_DefinedOrganicForm>
parent

> <STRUCTURE_IUPAC>
1-[3-tert-butyl-1-(4-methylphenyl)-1H-pyrazol-5-yl]-3-{4-[2-(morpholin-4-yl)ethoxy]naphthalen-1-yl}urea

> <STRUCTURE_SMILES>
CC(C)(C)c4cc(NC(=O)Nc3ccc(OCCN1CCOCC1)c2ccccc23)n(n4)c5ccc(C)cc5

> <STRUCTURE_SMILES_Desalt>
CC(C)(C)c4cc(NC(=O)Nc3ccc(OCCN1CCOCC1)c2ccccc23)n(n4)c5ccc(C)cc5

> <Substance_modify_yyyymmdd>
20111204

$$$$
