286-20-4
ChemmineR-0915142007XD

  7  8  0  0  0  0  0  0  0  0  1 V2000
    0.0000   -1.3302    0.0000 O   0  0  0  0  0  0  0  0  0  0  0  0
    1.1505   -0.6668    0.0000 C   0  0  0  0  0  0  0  0  0  0  0  0
    2.3045    0.0000    0.0000 C   0  0  0  0  0  0  0  0  0  0  0  0
    3.4550   -0.6668    0.0000 C   0  0  0  0  0  0  0  0  0  0  0  0
    3.4550   -1.9970    0.0000 C   0  0  0  0  0  0  0  0  0  0  0  0
    2.3045   -2.6604    0.0000 C   0  0  0  0  0  0  0  0  0  0  0  0
    1.1505   -1.9970    0.0000 C   0  0  0  0  0  0  0  0  0  0  0  0
  1  2  1  0  0  0  0
  1  7  1  0  0  0  0
  2  3  1  0  0  0  0
  2  7  1  0  0  0  0
  3  4  1  0  0  0  0
  4  5  1  0  0  0  0
  5  6  1  0  0  0  0
  6  7  1  0  0  0  0
M  END
> <ID>
3894

> <Formula>
C6H10O

> <FW>
98.143

> <DSSTox_CID>
4880

> <DSSTox_RID>
77563

> <DSSTox_GSID>
24880

> <DSSTox_FileID_Sort>
2246

> <TS_ChemName>
Cyclohexene oxide

> <TS_ChemName_Synonyms>
Cyclohexene oxide (7-Oxabicyclo[4.1.0]heptane)

> <TS_CASRN>
286-20-4

> <CASRN_ChemName_Relationship>
primary

> <TS_Description>
single chemical compound

> <ChemNote>


> <STRUCTURE_Shown>
tested chemical

> <STRUCTURE_Formula>
C6H10O

> <STRUCTURE_MW>
98.143

> <STRUCTURE_ChemType>
defined organic

> <STRUCTURE_DefinedOrganicForm>
parent

> <STRUCTURE_IUPAC>
7-oxabicyclo[4.1.0]heptane

> <STRUCTURE_SMILES>
C1CCCC2OC12

> <STRUCTURE_SMILES_Desalt>
C1CCCC2OC12

> <Substance_modify_yyyymmdd>
20080429

$$$$
