28631-66-5
ChemmineR-0915142007XD

 49 51  0  0  0  0  0  0  0  0  2 V2000
   20.3635   -2.6262    0.0000 Na   0  3  0  0  0  0  0  0  0  0  0  0
    0.5836  -13.1102    0.0000 Na   0  3  0  0  0  0  0  0  0  0  0  0
    5.7318  -10.7966    0.0000 S    0  0  0  0  0  0  0  0  0  0  0  0
    5.0648  -11.9221    0.0000 O    0  0  0  0  0  0  0  0  0  0  0  0
    6.3988   -9.6503    0.0000 O    0  0  0  0  0  0  0  0  0  0  0  0
    6.8782  -11.4428    0.0000 O    0  0  0  0  0  0  0  0  0  0  0  0
    4.5854   -8.7957    0.0000 C    0  0  0  0  0  0  0  0  0  0  0  0
    4.5854  -10.1297    0.0000 C    0  0  0  0  0  0  0  0  0  0  0  0
    3.4391   -8.1496    0.0000 C    0  0  0  0  0  0  0  0  0  0  0  0
    3.4391  -10.7966    0.0000 C    0  0  0  0  0  0  0  0  0  0  0  0
    2.2927   -8.7957    0.0000 C    0  0  0  0  0  0  0  0  0  0  0  0
    2.2927  -10.1297    0.0000 C    0  0  0  0  0  0  0  0  0  0  0  0
    1.1464  -10.7966    0.0000 S    0  0  0  0  0  0  0  0  0  0  0  0
    1.8133  -11.9221    0.0000 O    0  5  0  0  0  0  0  0  0  0  0  0
    0.5002   -9.6503    0.0000 O    0  0  0  0  0  0  0  0  0  0  0  0
    0.0000  -11.4428    0.0000 O    0  0  0  0  0  0  0  0  0  0  0  0
   16.2366   -6.0236    0.0000 C    0  0  0  0  0  0  0  0  0  0  0  0
   17.3621   -5.3358    0.0000 C    0  0  0  0  0  0  0  0  0  0  0  0
   16.2366   -7.3367    0.0000 C    0  0  0  0  0  0  0  0  0  0  0  0
   18.5293   -6.0236    0.0000 C    0  0  0  0  0  0  0  0  0  0  0  0
   17.3621   -7.9828    0.0000 C    0  0  0  0  0  0  0  0  0  0  0  0
   18.5293   -7.3367    0.0000 C    0  0  0  0  0  0  0  0  0  0  0  0
   19.6757   -5.3358    0.0000 S    0  0  0  0  0  0  0  0  0  0  0  0
   20.3427   -6.4821    0.0000 O    0  0  0  0  0  0  0  0  0  0  0  0
   19.0087   -4.1894    0.0000 O    0  0  0  0  0  0  0  0  0  0  0  0
   20.8429   -4.6480    0.0000 O    0  5  0  0  0  0  0  0  0  0  0  0
   15.0903   -7.9828    0.0000 N    0  0  0  0  0  0  0  0  0  0  0  0
   13.9439   -7.3367    0.0000 C    0  0  0  0  0  0  0  0  0  0  0  0
   12.7975   -7.9828    0.0000 C    0  0  0  0  0  0  0  0  0  0  0  0
   13.9439   -6.0236    0.0000 C    0  0  0  0  0  0  0  0  0  0  0  0
   11.6512   -7.3367    0.0000 C    0  0  0  0  0  0  0  0  0  0  0  0
   12.7975   -5.3358    0.0000 C    0  0  0  0  0  0  0  0  0  0  0  0
   11.6512   -6.0236    0.0000 C    0  0  0  0  0  0  0  0  0  0  0  0
   10.4840   -5.3358    0.0000 C    0  0  0  0  0  0  0  0  0  0  0  0
   10.4840   -4.0018    0.0000 C    0  0  0  0  0  0  0  0  0  0  0  0
    9.3376   -3.3349    0.0000 C    0  0  0  0  0  0  0  0  0  0  0  0
   11.6512   -3.3349    0.0000 C    0  0  0  0  0  0  0  0  0  0  0  0
    9.3376   -2.0009    0.0000 C    0  0  0  0  0  0  0  0  0  0  0  0
   11.6512   -2.0009    0.0000 C    0  0  0  0  0  0  0  0  0  0  0  0
   10.4840   -1.3548    0.0000 C    0  0  0  0  0  0  0  0  0  0  0  0
    9.3376   -6.0236    0.0000 C    0  0  0  0  0  0  0  0  0  0  0  0
    9.3376   -7.3367    0.0000 C    0  0  0  0  0  0  0  0  0  0  0  0
    8.1913   -5.3358    0.0000 C    0  0  0  0  0  0  0  0  0  0  0  0
    8.1913   -7.9828    0.0000 C    0  0  0  0  0  0  0  0  0  0  0  0
    7.0241   -6.0236    0.0000 C    0  0  0  0  0  0  0  0  0  0  0  0
    7.0241   -7.3367    0.0000 C    0  0  0  0  0  0  0  0  0  0  0  0
    5.8985   -7.9828    0.0000 N    0  0  0  0  0  0  0  0  0  0  0  0
   12.7975   -1.3548    0.0000 C    0  0  0  0  0  0  0  0  0  0  0  0
   10.4840    0.0000    0.0000 N    0  0  0  0  0  0  0  0  0  0  0  0
  3  4  1  0  0  0  0
  3  5  2  0  0  0  0
  3  6  2  0  0  0  0
  3  8  1  0  0  0  0
  7  8  1  0  0  0  0
  7  9  2  0  0  0  0
  7 47  1  0  0  0  0
  8 10  2  0  0  0  0
  9 11  1  0  0  0  0
 10 12  1  0  0  0  0
 11 12  2  0  0  0  0
 12 13  1  0  0  0  0
 13 14  1  0  0  0  0
 13 15  2  0  0  0  0
 13 16  2  0  0  0  0
 17 18  1  0  0  0  0
 17 19  2  0  0  0  0
 18 20  2  0  0  0  0
 19 21  1  0  0  0  0
 19 27  1  0  0  0  0
 20 22  1  0  0  0  0
 20 23  1  0  0  0  0
 21 22  2  0  0  0  0
 23 24  2  0  0  0  0
 23 25  2  0  0  0  0
 23 26  1  0  0  0  0
 27 28  1  0  0  0  0
 28 29  1  0  0  0  0
 28 30  2  0  0  0  0
 29 31  2  0  0  0  0
 30 32  1  0  0  0  0
 31 33  1  0  0  0  0
 32 33  2  0  0  0  0
 33 34  1  0  0  0  0
 34 35  1  0  0  0  0
 34 41  2  0  0  0  0
 35 36  1  0  0  0  0
 35 37  2  0  0  0  0
 36 38  2  0  0  0  0
 37 39  1  0  0  0  0
 38 40  1  0  0  0  0
 39 40  2  0  0  0  0
 39 48  1  0  0  0  0
 40 49  1  0  0  0  0
 41 42  1  0  0  0  0
 41 43  1  0  0  0  0
 42 44  2  0  0  0  0
 43 45  2  0  0  0  0
 44 46  1  0  0  0  0
 45 46  1  0  0  0  0
 46 47  2  0  0  0  0
M  END
> <ID>
10551

> <Formula>
C32H25N3Na2O9S3

> <FW>
737.7301 (22.9892+22.9892+691.7517)

> <DSSTox_CID>
24904

> <DSSTox_RID>
80575

> <DSSTox_GSID>
44904

> <DSSTox_FileID_Sort>
5257

> <TS_ChemName>
C.I. Acid Blue 22

> <TS_ChemName_Synonyms>
Benzenesulfonic acid, aminomethyl[[4-[(sulfophenyl) amino]phenyl][4-[(sulfophenyl)imino]-2,5-cyclohexadien -1-ylidene]methyl]-, disodium salt)

> <TS_CASRN>
28631-66-5

> <CASRN_ChemName_Relationship>
primary

> <TS_Description>
mixture or formulation

> <ChemNote>
mixture of benzenesulfonates; C.I. 42755; parent [87099-13-6]

> <STRUCTURE_Shown>
representative isomer in mixture

> <STRUCTURE_Formula>
C32H25N3Na2O9S3

> <STRUCTURE_MW>
737.7301

> <STRUCTURE_ChemType>
defined organic

> <STRUCTURE_DefinedOrganicForm>
salt

> <STRUCTURE_IUPAC>
disodium 4-({4-[(4-amino-3-methylphenyl){4-[(4-sulfonatophenyl)amino]phenyl}methylidene]cyclohexa-2,5-dien-1-ylidene}amino)-3-sulfobenzenesulfonate

> <STRUCTURE_SMILES>
[Na+].[Na+].[O-]S(=O)(=O)c1ccc(cc1)Nc2ccc(cc2)\C(=C4/C=C/C(=N\c3ccc(cc3S(=O)(=O)O)S([O-])(=O)=O)C=C4)c5ccc(N)c(C)c5

> <STRUCTURE_SMILES_Desalt>
O=S(=O)(O)c1ccc(cc1)Nc2ccc(cc2)\C(=C4/C=C/C(=N\c3ccc(cc3S(=O)(=O)O)S(=O)(=O)O)C=C4)c5ccc(N)c(C)c5

> <Substance_modify_yyyymmdd>
20091116

$$$$
