286453-46-1
ChemmineR-0915142007XD

 16 15  0  0  0  0  0  0  0  0  2 V2000
    0.0000    0.0000    0.0000 C   0  0  0  0  0  0  0  0  0  0  0  0
    3.4581   -2.0035    0.0000 C   0  0  0  0  0  0  0  0  0  0  0  0
    0.0000   -1.3265    0.0000 C   0  0  0  0  0  0  0  0  0  0  0  0
    1.1527   -1.9852    0.0000 C   0  0  0  0  0  0  0  0  0  0  0  0
    4.6108   -5.3152    0.0000 C   0  0  0  0  0  0  0  0  0  0  0  0
    3.4581   -5.9921    0.0000 C   0  0  0  0  0  0  0  0  0  0  0  0
    4.6108   -3.9887    0.0000 C   0  0  0  0  0  0  0  0  0  0  0  0
    1.1527   -3.3300    0.0000 C   0  0  0  0  0  0  0  0  0  0  0  0
    2.3054   -5.3152    0.0000 C   0  0  0  0  0  0  0  0  0  0  0  0
    3.4581   -3.3300    0.0000 C   0  0  0  0  0  0  0  0  0  0  0  0
    2.3054   -3.9887    0.0000 N   0  3  0  0  0  0  0  0  0  0  0  0
    1.8754   -7.8218    0.0000 B   0  5  0  0  0  0  0  0  0  0  0  0
    0.5489   -7.8218    0.0000 F   0  0  0  0  0  0  0  0  0  0  0  0
    1.8754   -6.4862    0.0000 F   0  0  0  0  0  0  0  0  0  0  0  0
    1.8754   -9.1483    0.0000 F   0  0  0  0  0  0  0  0  0  0  0  0
    3.2019   -7.8218    0.0000 F   0  0  0  0  0  0  0  0  0  0  0  0
  1  3  1  0  0  0  0
  2 10  1  0  0  0  0
  3  4  1  0  0  0  0
  4  8  1  0  0  0  0
  5  6  2  0  0  0  0
  5  7  1  0  0  0  0
  6  9  1  0  0  0  0
  7 10  2  0  0  0  0
  8 11  1  0  0  0  0
  9 11  2  0  0  0  0
 10 11  1  0  0  0  0
 12 13  1  0  0  0  0
 12 14  1  0  0  0  0
 12 15  1  0  0  0  0
 12 16  1  0  0  0  0
M  END
> <ID>
14126

> <Formula>
C10H16BF4N

> <FW>
237.0454 (150.2402+86.8052)

> <DSSTox_CID>
29119

> <DSSTox_RID>
83338

> <DSSTox_GSID>
49263

> <DSSTox_FileID_Sort>
8013

> <TS_ChemName>
1-Butyl-2-methylpyridinium tetrafluoroborate

> <TS_ChemName_Synonyms>


> <TS_CASRN>
286453-46-1

> <CASRN_ChemName_Relationship>
primary

> <TS_Description>
single chemical compound

> <ChemNote>


> <STRUCTURE_Shown>
tested chemical

> <STRUCTURE_Formula>
C10H16BF4N

> <STRUCTURE_MW>
237.0454

> <STRUCTURE_ChemType>
defined organic

> <STRUCTURE_DefinedOrganicForm>
complex

> <STRUCTURE_IUPAC>
1-butyl-2-methylpyridinium tetrafluoroborate

> <STRUCTURE_SMILES>
Cc1cccc[n+]1CCCC.F[B-](F)(F)F

> <STRUCTURE_SMILES_Desalt>
Cc1cccc[n+]1CCCC

> <Substance_modify_yyyymmdd>
20111204

$$$$
