28664-35-9
ChemmineR-0915142007XD

  9  9  0  0  0  0  0  0  0  0  1 V2000
    2.3518    0.0000    0.0000 O   0  0  0  0  0  0  0  0  0  0  0  0
    3.4243   -0.7526    0.0000 C   0  0  0  0  0  0  0  0  0  0  0  0
    1.2794   -0.7526    0.0000 C   0  0  0  0  0  0  0  0  0  0  0  0
    3.0056   -2.0461    0.0000 C   0  0  0  0  0  0  0  0  0  0  0  0
    1.6980   -2.0461    0.0000 C   0  0  0  0  0  0  0  0  0  0  0  0
    0.0000   -0.3528    0.0000 O   0  0  0  0  0  0  0  0  0  0  0  0
    3.7770   -3.1185    0.0000 C   0  0  0  0  0  0  0  0  0  0  0  0
    4.7037   -0.3528    0.0000 C   0  0  0  0  0  0  0  0  0  0  0  0
    0.9266   -3.1185    0.0000 O   0  0  0  0  0  0  0  0  0  0  0  0
  1  2  1  0  0  0  0
  1  3  1  0  0  0  0
  2  4  1  0  0  0  0
  2  8  1  0  0  0  0
  3  5  1  0  0  0  0
  3  6  2  0  0  0  0
  4  5  2  0  0  0  0
  4  7  1  0  0  0  0
  5  9  1  0  0  0  0
M  END
> <ID>
12795

> <Formula>
C6H8O3

> <FW>
128.1259

> <DSSTox_CID>
27674

> <DSSTox_RID>
82492

> <DSSTox_GSID>
47674

> <DSSTox_FileID_Sort>
7173

> <TS_ChemName>
4,5-Dimethyl-3-hydroxy-2,5-dihydrofuran-2-one

> <TS_ChemName_Synonyms>


> <TS_CASRN>
28664-35-9

> <CASRN_ChemName_Relationship>
primary

> <TS_Description>
single chemical compound

> <ChemNote>
tautomers

> <STRUCTURE_Shown>
tested chemical

> <STRUCTURE_Formula>
C6H8O3

> <STRUCTURE_MW>
128.1259

> <STRUCTURE_ChemType>
defined organic

> <STRUCTURE_DefinedOrganicForm>
parent

> <STRUCTURE_IUPAC>
3-hydroxy-4,5-dimethylfuran-2(5H)-one

> <STRUCTURE_SMILES>
O=C1OC(C)C(C)=C1O

> <STRUCTURE_SMILES_Desalt>
O=C1OC(C)C(C)=C1O

> <Substance_modify_yyyymmdd>
20101215

$$$$
