2867-47-2
ChemmineR-0915142007XD

 11 10  0  0  0  0  0  0  0  0  1 V2000
    5.7499   -1.3288    0.0000 C   0  0  0  0  0  0  0  0  0  0  0  0
    6.9015   -1.9972    0.0000 C   0  0  0  0  0  0  0  0  0  0  0  0
    8.0531   -1.3288    0.0000 C   0  0  0  0  0  0  0  0  0  0  0  0
    5.7499    0.0000    0.0000 O   0  0  0  0  0  0  0  0  0  0  0  0
    4.5983   -1.9972    0.0000 O   0  0  0  0  0  0  0  0  0  0  0  0
    6.9015   -3.3259    0.0000 C   0  0  0  0  0  0  0  0  0  0  0  0
    3.4548   -1.3288    0.0000 C   0  0  0  0  0  0  0  0  0  0  0  0
    2.3032   -1.9972    0.0000 C   0  0  0  0  0  0  0  0  0  0  0  0
    1.1516   -1.3288    0.0000 N   0  0  0  0  0  0  0  0  0  0  0  0
    1.1516    0.0000    0.0000 C   0  0  0  0  0  0  0  0  0  0  0  0
    0.0000   -1.9972    0.0000 C   0  0  0  0  0  0  0  0  0  0  0  0
  1  2  1  0  0  0  0
  1  5  1  0  0  0  0
  1  4  2  0  0  0  0
  2  3  2  0  0  0  0
  2  6  1  0  0  0  0
  5  7  1  0  0  0  0
  7  8  1  0  0  0  0
  8  9  1  0  0  0  0
  9 10  1  0  0  0  0
  9 11  1  0  0  0  0
M  END
> <ID>
5202

> <Formula>
C8H15NO2

> <FW>
157.2102

> <DSSTox_CID>
7504

> <DSSTox_RID>
78477

> <DSSTox_GSID>
27504

> <DSSTox_FileID_Sort>
3160

> <TS_ChemName>
2-(Dimethylamino)ethyl methacrylate

> <TS_ChemName_Synonyms>
2-(Dimethylamino)ethyl methacrylate (2-Propenoic acid, 2-methyl-, 2-(dimethylamino)ethyl ester)

> <TS_CASRN>
2867-47-2

> <CASRN_ChemName_Relationship>
primary

> <TS_Description>
single chemical compound

> <ChemNote>


> <STRUCTURE_Shown>
tested chemical

> <STRUCTURE_Formula>
C8H15NO2

> <STRUCTURE_MW>
157.2102

> <STRUCTURE_ChemType>
defined organic

> <STRUCTURE_DefinedOrganicForm>
parent

> <STRUCTURE_IUPAC>
2-(dimethylamino)ethyl 2-methylprop-2-enoate

> <STRUCTURE_SMILES>
CN(C)CCOC(=O)C(=C)C

> <STRUCTURE_SMILES_Desalt>
CN(C)CCOC(=O)C(=C)C

> <Substance_modify_yyyymmdd>
20080429

$$$$
