287-92-3
ChemmineR-0915142007XD

  5  5  0  0  0  0  0  0  0  0  1 V2000
    1.7409    0.0000    0.0000 C   0  0  0  0  0  0  0  0  0  0  0  0
    2.1519   -1.2653    0.0000 C   0  0  0  0  0  0  0  0  0  0  0  0
    1.0760   -2.0465    0.0000 C   0  0  0  0  0  0  0  0  0  0  0  0
    0.0000   -1.2653    0.0000 C   0  0  0  0  0  0  0  0  0  0  0  0
    0.4110    0.0000    0.0000 C   0  0  0  0  0  0  0  0  0  0  0  0
  1  2  1  0  0  0  0
  1  5  1  0  0  0  0
  2  3  1  0  0  0  0
  3  4  1  0  0  0  0
  4  5  1  0  0  0  0
M  END
> <ID>
3899

> <Formula>
C5H10

> <FW>
70.1329

> <DSSTox_CID>
4886

> <DSSTox_RID>
77567

> <DSSTox_GSID>
24886

> <DSSTox_FileID_Sort>
2250

> <TS_ChemName>
Cyclopentane

> <TS_ChemName_Synonyms>


> <TS_CASRN>
287-92-3

> <CASRN_ChemName_Relationship>
primary

> <TS_Description>
single chemical compound

> <ChemNote>


> <STRUCTURE_Shown>
tested chemical

> <STRUCTURE_Formula>
C5H10

> <STRUCTURE_MW>
70.1329

> <STRUCTURE_ChemType>
defined organic

> <STRUCTURE_DefinedOrganicForm>
parent

> <STRUCTURE_IUPAC>
cyclopentane

> <STRUCTURE_SMILES>
C1CCCC1

> <STRUCTURE_SMILES_Desalt>
C1CCCC1

> <Substance_modify_yyyymmdd>
20080429

$$$$
