2870-32-8
ChemmineR-0915142007XD

 46 47  0  0  0  0  0  0  0  0  2 V2000
   12.6405   -4.6043    0.0000 C    0  0  0  0  0  0  0  0  0  0  0  0
   11.9827   -5.7769    0.0000 C    0  0  0  0  0  0  0  0  0  0  0  0
   10.6386   -5.7769    0.0000 C    0  0  0  0  0  0  0  0  0  0  0  0
    9.9808   -4.6043    0.0000 C    0  0  0  0  0  0  0  0  0  0  0  0
    8.6367   -4.6043    0.0000 N    0  0  0  0  0  0  0  0  0  0  0  0
    7.3212   -4.6043    0.0000 N    0  0  0  0  0  0  0  0  0  0  0  0
    5.9771   -4.6043    0.0000 C    0  0  0  0  0  0  0  0  0  0  0  0
    5.3193   -5.7769    0.0000 C    0  0  0  0  0  0  0  0  0  0  0  0
    4.0038   -5.7769    0.0000 C    0  0  0  0  0  0  0  0  0  0  0  0
    3.3174   -4.6043    0.0000 C    0  0  0  0  0  0  0  0  0  0  0  0
    2.0019   -4.6043    0.0000 O    0  0  0  0  0  0  0  0  0  0  0  0
    1.3441   -5.7769    0.0000 C    0  0  0  0  0  0  0  0  0  0  0  0
    0.0000   -5.7769    0.0000 C    0  0  0  0  0  0  0  0  0  0  0  0
    4.0038   -3.4604    0.0000 C    0  0  0  0  0  0  0  0  0  0  0  0
    5.3193   -3.4604    0.0000 C    0  0  0  0  0  0  0  0  0  0  0  0
   10.6386   -3.4604    0.0000 C    0  0  0  0  0  0  0  0  0  0  0  0
   11.9827   -3.4604    0.0000 C    0  0  0  0  0  0  0  0  0  0  0  0
   12.6405   -6.9208    0.0000 S    0  0  0  0  0  0  0  0  0  0  0  0
   11.4680   -7.5786    0.0000 O    0  0  0  0  0  0  0  0  0  0  0  0
   13.7844   -6.2630    0.0000 O    0  0  0  0  0  0  0  0  0  0  0  0
   13.2983   -8.0647    0.0000 O    0  5  0  0  0  0  0  0  0  0  0  0
   13.9560   -4.6043    0.0000 C    0  0  0  0  0  0  0  0  0  0  0  0
   14.6424   -3.4604    0.0000 C    0  0  0  0  0  0  0  0  0  0  0  0
   15.9579   -3.4604    0.0000 C    0  0  0  0  0  0  0  0  0  0  0  0
   16.6157   -2.3165    0.0000 C    0  0  0  0  0  0  0  0  0  0  0  0
   17.9598   -2.3165    0.0000 C    0  0  0  0  0  0  0  0  0  0  0  0
   18.6176   -3.4604    0.0000 C    0  0  0  0  0  0  0  0  0  0  0  0
   19.9617   -3.4604    0.0000 N    0  0  0  0  0  0  0  0  0  0  0  0
   21.2772   -3.4604    0.0000 N    0  0  0  0  0  0  0  0  0  0  0  0
   22.6213   -3.4604    0.0000 C    0  0  0  0  0  0  0  0  0  0  0  0
   23.2791   -2.3165    0.0000 C    0  0  0  0  0  0  0  0  0  0  0  0
   24.5946   -2.3165    0.0000 C    0  0  0  0  0  0  0  0  0  0  0  0
   25.2810   -3.4604    0.0000 C    0  0  0  0  0  0  0  0  0  0  0  0
   26.5965   -3.4604    0.0000 O    0  0  0  0  0  0  0  0  0  0  0  0
   27.2543   -2.3165    0.0000 C    0  0  0  0  0  0  0  0  0  0  0  0
   28.5984   -2.3165    0.0000 C    0  0  0  0  0  0  0  0  0  0  0  0
   24.5946   -4.6043    0.0000 C    0  0  0  0  0  0  0  0  0  0  0  0
   23.2791   -4.6043    0.0000 C    0  0  0  0  0  0  0  0  0  0  0  0
   17.9598   -4.6043    0.0000 C    0  0  0  0  0  0  0  0  0  0  0  0
   16.6157   -4.6043    0.0000 C    0  0  0  0  0  0  0  0  0  0  0  0
   15.9579   -1.1725    0.0000 S    0  0  0  0  0  0  0  0  0  0  0  0
   17.1304   -0.4862    0.0000 O    0  0  0  0  0  0  0  0  0  0  0  0
   14.8140   -1.8303    0.0000 O    0  0  0  0  0  0  0  0  0  0  0  0
   15.3001    0.0000    0.0000 O    0  5  0  0  0  0  0  0  0  0  0  0
   14.0704   -0.0286    0.0000 Na   0  3  0  0  0  0  0  0  0  0  0  0
   14.7282   -8.4937    0.0000 Na   0  3  0  0  0  0  0  0  0  0  0  0
  1  2  1  0  0  0  0
  1 17  2  0  0  0  0
  1 22  1  0  0  0  0
  2  3  2  0  0  0  0
  2 18  1  0  0  0  0
  3  4  1  0  0  0  0
  4  5  1  0  0  0  0
  4 16  2  0  0  0  0
  5  6  2  0  0  0  0
  6  7  1  0  0  0  0
  7  8  1  0  0  0  0
  7 15  2  0  0  0  0
  8  9  2  0  0  0  0
  9 10  1  0  0  0  0
 10 11  1  0  0  0  0
 10 14  2  0  0  0  0
 11 12  1  0  0  0  0
 12 13  1  0  0  0  0
 14 15  1  0  0  0  0
 16 17  1  0  0  0  0
 18 19  2  0  0  0  0
 18 20  2  0  0  0  0
 18 21  1  0  0  0  0
 22 23  2  3  0  0  0
 23 24  1  0  0  0  0
 24 25  1  0  0  0  0
 24 40  2  0  0  0  0
 25 26  2  0  0  0  0
 25 41  1  0  0  0  0
 26 27  1  0  0  0  0
 27 28  1  0  0  0  0
 27 39  2  0  0  0  0
 28 29  2  0  0  0  0
 29 30  1  0  0  0  0
 30 31  1  0  0  0  0
 30 38  2  0  0  0  0
 31 32  2  0  0  0  0
 32 33  1  0  0  0  0
 33 34  1  0  0  0  0
 33 37  2  0  0  0  0
 34 35  1  0  0  0  0
 35 36  1  0  0  0  0
 37 38  1  0  0  0  0
 39 40  1  0  0  0  0
 41 42  2  0  0  0  0
 41 43  2  0  0  0  0
 41 44  1  0  0  0  0
M  END
> <ID>
8682

> <Formula>
C30H26N4Na2O8S2

> <FW>
680.6590 (634.6805+22.9892+22.9892)

> <DSSTox_CID>
21728

> <DSSTox_RID>
79833

> <DSSTox_GSID>
41728

> <DSSTox_FileID_Sort>
4515

> <TS_ChemName>
C.I. Direct yellow 12

> <TS_ChemName_Synonyms>
Chrysophenine

> <TS_CASRN>
2870-32-8

> <CASRN_ChemName_Relationship>
primary

> <TS_Description>
mixture or formulation

> <ChemNote>
mixture of Z,E- isomers; structure shown E-; stereochem; C.I. 24895

> <STRUCTURE_Shown>
representative isomer in mixture

> <STRUCTURE_Formula>
C30H26N4Na2O8S2

> <STRUCTURE_MW>
680.659

> <STRUCTURE_ChemType>
defined organic

> <STRUCTURE_DefinedOrganicForm>
salt

> <STRUCTURE_IUPAC>
disodium 2,2'-ethene-1,2-diylbis{5-[(4-ethoxyphenyl)diazenyl]benzenesulfonate}

> <STRUCTURE_SMILES>
[Na+].[Na+].O=S([O-])(=O)c3cc(ccc3C=Cc2ccc(/N=N/c1ccc(OCC)cc1)cc2S([O-])(=O)=O)/N=N/c4ccc(OCC)cc4

> <STRUCTURE_SMILES_Desalt>
OS(=O)(=O)c3cc(ccc3C=Cc2ccc(/N=N/c1ccc(OCC)cc1)cc2S(=O)(=O)O)/N=N/c4ccc(OCC)cc4

> <Substance_modify_yyyymmdd>
20080825

$$$$
