2870-71-5
ChemmineR-0915142007XD

 23 24  0  0  1  0  0  0  0  0  2 V2000
    5.5087   -5.3229    0.0000 C    0  0  0  0  0  0  0  0  0  0  0  0
    5.5087   -6.6514    0.0000 C    0  0  0  0  0  0  0  0  0  0  0  0
    6.6514   -4.6820    0.0000 O    0  0  0  0  0  0  0  0  0  0  0  0
    6.6514   -7.3202    0.0000 C    0  0  0  0  0  0  0  0  0  0  0  0
    4.3847   -7.3202    0.0000 C    0  0  0  0  0  0  0  0  0  0  0  0
    3.2049   -6.6514    0.0000 O    0  0  0  0  0  0  0  0  0  0  0  0
    7.7940   -6.6514    0.0000 C    0  0  0  0  0  0  0  0  0  0  0  0
    6.6514   -8.6393    0.0000 C    0  0  0  0  0  0  0  0  0  0  0  0
    7.7940   -9.2896    0.0000 C    0  0  0  0  0  0  0  0  0  0  0  0
    8.9366   -7.3202    0.0000 C    0  0  0  0  0  0  0  0  0  0  0  0
    8.9366   -8.6393    0.0000 C    0  0  0  0  0  0  0  0  0  0  0  0
    2.6847   -2.1552    0.0000 C    0  0  0  0  0  0  0  0  0  0  0  0
    4.3847   -3.4279    0.0000 C    0  0  0  0  0  0  0  0  0  0  0  0
    3.5579   -2.7497    0.0000 C    0  0  0  0  0  0  0  0  0  0  0  0
    2.0158   -2.7497    0.0000 C    0  0  0  0  0  0  0  0  0  0  0  0
    1.7929   -1.4585    0.0000 N    0  3  0  0  0  0  0  0  0  0  0  0
    4.1617   -2.1273    0.0000 C    0  0  0  0  0  0  0  0  0  0  0  0
    1.1891   -3.8923    0.0000 C    0  0  0  0  0  0  0  0  0  0  0  0
    2.1738   -3.2885    0.0000 C    0  0  0  0  0  0  0  0  0  0  0  0
    1.6071    0.0000    0.0000 C    0  0  0  0  0  0  0  0  0  0  0  0
    4.3847   -4.4311    0.0000 O    0  0  0  0  0  0  0  0  0  0  0  0
    0.0000   -1.2076    0.0000 C    0  0  0  0  0  0  0  0  0  0  0  0
    5.0628   -0.5574    0.0000 Br   0  5  0  0  0  0  0  0  0  0  0  0
  1  2  1  0  0  0  0
  1  3  2  0  0  0  0
  1 21  1  0  0  0  0
  2  4  1  0  0  0  0
  2  5  1  0  0  0  0
  4  7  1  0  0  0  0
  4  8  2  0  0  0  0
  5  6  1  0  0  0  0
  7 10  2  0  0  0  0
  8  9  1  0  0  0  0
  9 11  2  0  0  0  0
 10 11  1  0  0  0  0
 12 16  1  1  0  0  0
 12 17  1  0  0  0  0
 12 19  1  0  0  0  0
 13 14  1  0  0  0  0
 13 17  1  0  0  0  0
 13 21  1  6  0  0  0
 14 15  1  0  0  0  0
 15 16  1  6  0  0  0
 15 18  1  0  0  0  0
 16 20  1  0  0  0  0
 16 22  1  0  0  0  0
 18 19  1  0  0  0  0
M  END
> <ID>
10740

> <Formula>
C18H26BrNO3

> <FW>
384.3079 (304.4034+79.9045)

> <DSSTox_CID>
25103

> <DSSTox_RID>
80671

> <DSSTox_GSID>
45103

> <DSSTox_FileID_Sort>
5353

> <TS_ChemName>
Atropine methylbromide

> <TS_ChemName_Synonyms>


> <TS_CASRN>
2870-71-5

> <CASRN_ChemName_Relationship>
primary

> <TS_Description>
single chemical compound

> <ChemNote>
stereochem; [31610-87-4]

> <STRUCTURE_Shown>
tested chemical

> <STRUCTURE_Formula>
C18H26BrNO3

> <STRUCTURE_MW>
384.3079

> <STRUCTURE_ChemType>
defined organic

> <STRUCTURE_DefinedOrganicForm>
salt

> <STRUCTURE_IUPAC>
(3-endo)-3-[(3-hydroxy-2-phenylpropanoyl)oxy]-8,8-dimethyl-8-azoniabicyclo[3.2.1]octane bromide

> <STRUCTURE_SMILES>
[Br-].C[N+]2(C)[C@H]1C[C@@H](C[C@@H]2CC1)OC(=O)C(CO)c3ccccc3

> <STRUCTURE_SMILES_Desalt>
C[N+]2(C)[C@H]1C[C@@H](C[C@@H]2CC1)OC(=O)C(CO)c3ccccc3

> <Substance_modify_yyyymmdd>
20100107

$$$$
