2871-01-4
ChemmineR-0915142007XD

 14 14  0  0  0  0  0  0  0  0  2 V2000
    1.9969   -3.4548    0.0000 C   0  0  0  0  0  0  0  0  0  0  0  0
    2.6602   -4.6087    0.0000 C   0  0  0  0  0  0  0  0  0  0  0  0
    1.9969   -5.7557    0.0000 C   0  0  0  0  0  0  0  0  0  0  0  0
    0.6633   -5.7557    0.0000 C   0  0  0  0  0  0  0  0  0  0  0  0
    0.0000   -6.9096    0.0000 N   0  0  0  0  0  0  0  0  0  0  0  0
    0.0000   -4.6087    0.0000 C   0  0  0  0  0  0  0  0  0  0  0  0
    0.6633   -3.4548    0.0000 C   0  0  0  0  0  0  0  0  0  0  0  0
    3.9868   -4.6087    0.0000 N   0  3  0  0  0  0  0  0  0  0  0  0
    4.6571   -3.4548    0.0000 O   0  0  0  0  0  0  0  0  0  0  0  0
    4.6571   -5.7557    0.0000 O   0  5  0  0  0  0  0  0  0  0  0  0
    2.6602   -2.3009    0.0000 N   0  0  0  0  0  0  0  0  0  0  0  0
    1.9969   -1.1539    0.0000 C   0  0  0  0  0  0  0  0  0  0  0  0
    0.6633   -1.1539    0.0000 C   0  0  0  0  0  0  0  0  0  0  0  0
    0.0000    0.0000    0.0000 O   0  0  0  0  0  0  0  0  0  0  0  0
  1  2  2  0  0  0  0
  1  7  1  0  0  0  0
  1 11  1  0  0  0  0
  2  3  1  0  0  0  0
  2  8  1  0  0  0  0
  3  4  2  0  0  0  0
  4  5  1  0  0  0  0
  4  6  1  0  0  0  0
  6  7  2  0  0  0  0
  8  9  2  0  0  0  0
  8 10  1  0  0  0  0
 11 12  1  0  0  0  0
 12 13  1  0  0  0  0
 13 14  1  0  0  0  0
M  END
> <ID>
1189

> <Formula>
C8H11N3O3

> <FW>
197.1912

> <DSSTox_CID>
1236

> <DSSTox_RID>
76028

> <DSSTox_GSID>
21236

> <DSSTox_FileID_Sort>
712

> <TS_ChemName>
HC Red 3

> <TS_ChemName_Synonyms>


> <TS_CASRN>
2871-01-4

> <CASRN_ChemName_Relationship>
primary

> <TS_Description>
single chemical compound

> <ChemNote>


> <STRUCTURE_Shown>
tested chemical

> <STRUCTURE_Formula>
C8H11N3O3

> <STRUCTURE_MW>
197.1912

> <STRUCTURE_ChemType>
defined organic

> <STRUCTURE_DefinedOrganicForm>
parent

> <STRUCTURE_IUPAC>
2-[(4-amino-2-nitrophenyl)amino]ethanol

> <STRUCTURE_SMILES>
[O-][N+](=O)c1cc(N)ccc1NCCO

> <STRUCTURE_SMILES_Desalt>
[O-][N+](=O)c1cc(N)ccc1NCCO

> <Substance_modify_yyyymmdd>
20080429

$$$$
