28721-07-5
ChemmineR-0915142007XD

 19 21  0  0  0  0  0  0  0  0  1 V2000
    5.5287   -5.9226    0.0000 N   0  0  0  0  0  0  0  0  0  0  0  0
    4.2450   -5.5798    0.0000 C   0  0  0  0  0  0  0  0  0  0  0  0
    3.3041   -6.5207    0.0000 O   0  0  0  0  0  0  0  0  0  0  0  0
    3.9533   -4.2815    0.0000 N   0  0  0  0  0  0  0  0  0  0  0  0
    2.6550   -3.9897    0.0000 C   0  0  0  0  0  0  0  0  0  0  0  0
    1.9037   -5.0838    0.0000 C   0  0  0  0  0  0  0  0  0  0  0  0
    0.5762   -4.9890    0.0000 C   0  0  0  0  0  0  0  0  0  0  0  0
    0.0000   -3.7855    0.0000 C   0  0  0  0  0  0  0  0  0  0  0  0
    0.7513   -2.6914    0.0000 C   0  0  0  0  0  0  0  0  0  0  0  0
    2.0787   -2.7862    0.0000 C   0  0  0  0  0  0  0  0  0  0  0  0
    2.6550   -1.5901    0.0000 C   0  0  0  0  0  0  0  0  0  0  0  0
    3.9533   -1.2910    0.0000 C   0  0  0  0  0  0  0  0  0  0  0  0
    4.2450    0.0000    0.0000 O   0  0  0  0  0  0  0  0  0  0  0  0
    4.9890   -2.1225    0.0000 C   0  0  0  0  0  0  0  0  0  0  0  0
    6.1414   -1.4588    0.0000 C   0  0  0  0  0  0  0  0  0  0  0  0
    7.2938   -2.1225    0.0000 C   0  0  0  0  0  0  0  0  0  0  0  0
    7.2938   -3.4573    0.0000 C   0  0  0  0  0  0  0  0  0  0  0  0
    6.1414   -4.1210    0.0000 C   0  0  0  0  0  0  0  0  0  0  0  0
    4.9890   -3.4573    0.0000 C   0  0  0  0  0  0  0  0  0  0  0  0
  1  2  1  0  0  0  0
  2  3  2  0  0  0  0
  2  4  1  0  0  0  0
  4  5  1  0  0  0  0
  4 19  1  0  0  0  0
  5  6  2  0  0  0  0
  5 10  1  0  0  0  0
  6  7  1  0  0  0  0
  7  8  2  0  0  0  0
  8  9  1  0  0  0  0
  9 10  2  0  0  0  0
 10 11  1  0  0  0  0
 11 12  1  0  0  0  0
 12 13  2  0  0  0  0
 12 14  1  0  0  0  0
 14 15  2  0  0  0  0
 14 19  1  0  0  0  0
 15 16  1  0  0  0  0
 16 17  2  0  0  0  0
 17 18  1  0  0  0  0
 18 19  2  0  0  0  0
M  END
> <ID>
11144

> <Formula>
C15H12N2O2

> <FW>
252.268

> <DSSTox_CID>
25703

> <DSSTox_RID>
81075

> <DSSTox_GSID>
45703

> <DSSTox_FileID_Sort>
5756

> <TS_ChemName>
Oxcarbazepine

> <TS_ChemName_Synonyms>


> <TS_CASRN>
28721-07-5

> <CASRN_ChemName_Relationship>
primary

> <TS_Description>
single chemical compound

> <ChemNote>


> <STRUCTURE_Shown>
tested chemical

> <STRUCTURE_Formula>
C15H12N2O2

> <STRUCTURE_MW>
252.268

> <STRUCTURE_ChemType>
defined organic

> <STRUCTURE_DefinedOrganicForm>
parent

> <STRUCTURE_IUPAC>
10-oxo-10,11-dihydro-5H-dibenzo[b,f]azepine-5-carboxamide

> <STRUCTURE_SMILES>
NC(=O)N3c1ccccc1C(=O)Cc2ccccc23

> <STRUCTURE_SMILES_Desalt>
NC(=O)N3c1ccccc1C(=O)Cc2ccccc23

> <Substance_modify_yyyymmdd>
20110819

$$$$
