28730-17-8
ChemmineR-0915142007XD

 17 18  0  0  0  0  0  0  0  0  1 V2000
    7.2098   -0.5962    0.0000 O   0  0  0  0  0  0  0  0  0  0  0  0
    7.8702   -1.7428    0.0000 C   0  0  0  0  0  0  0  0  0  0  0  0
    5.9164   -0.8714    0.0000 C   0  0  0  0  0  0  0  0  0  0  0  0
    6.9805   -2.7243    0.0000 C   0  0  0  0  0  0  0  0  0  0  0  0
    5.7697   -2.1923    0.0000 C   0  0  0  0  0  0  0  0  0  0  0  0
    4.6231   -2.8527    0.0000 C   0  0  0  0  0  0  0  0  0  0  0  0
    4.6231   -4.1920    0.0000 O   0  0  0  0  0  0  0  0  0  0  0  0
    3.4673   -2.1739    0.0000 N   0  0  0  0  0  0  0  0  0  0  0  0
    4.9349    0.0000    0.0000 C   0  0  0  0  0  0  0  0  0  0  0  0
    7.2557   -4.0177    0.0000 C   0  0  0  0  0  0  0  0  0  0  0  0
    9.1728   -1.8896    0.0000 C   0  0  0  0  0  0  0  0  0  0  0  0
    2.3207   -2.8527    0.0000 C   0  0  0  0  0  0  0  0  0  0  0  0
    2.3207   -4.1920    0.0000 C   0  0  0  0  0  0  0  0  0  0  0  0
    1.1649   -2.1739    0.0000 C   0  0  0  0  0  0  0  0  0  0  0  0
    1.1649   -4.8524    0.0000 C   0  0  0  0  0  0  0  0  0  0  0  0
    0.0000   -2.8527    0.0000 C   0  0  0  0  0  0  0  0  0  0  0  0
    0.0000   -4.1920    0.0000 C   0  0  0  0  0  0  0  0  0  0  0  0
  1  2  1  0  0  0  0
  1  3  1  0  0  0  0
  2  4  2  0  0  0  0
  2 11  1  0  0  0  0
  3  5  2  0  0  0  0
  3  9  1  0  0  0  0
  4  5  1  0  0  0  0
  4 10  1  0  0  0  0
  5  6  1  0  0  0  0
  6  7  2  0  0  0  0
  6  8  1  0  0  0  0
  8 12  1  0  0  0  0
 12 13  2  0  0  0  0
 12 14  1  0  0  0  0
 13 15  1  0  0  0  0
 14 16  2  0  0  0  0
 15 17  2  0  0  0  0
 16 17  1  0  0  0  0
M  END
> <ID>
9068

> <Formula>
C14H15NO2

> <FW>
229.2744

> <DSSTox_CID>
22137

> <DSSTox_RID>
79933

> <DSSTox_GSID>
42137

> <DSSTox_FileID_Sort>
4615

> <TS_ChemName>
Methfuroxam

> <TS_ChemName_Synonyms>
Methfuroxam (2,4,5-Trimethyl-N-phenyl-3-furamide)

> <TS_CASRN>
28730-17-8

> <CASRN_ChemName_Relationship>
primary

> <TS_Description>
single chemical compound

> <ChemNote>


> <STRUCTURE_Shown>
tested chemical

> <STRUCTURE_Formula>
C14H15NO2

> <STRUCTURE_MW>
229.2744

> <STRUCTURE_ChemType>
defined organic

> <STRUCTURE_DefinedOrganicForm>
parent

> <STRUCTURE_IUPAC>
2,4,5-trimethyl-N-phenylfuran-3-carboxamide

> <STRUCTURE_SMILES>
Cc2c(C)oc(C)c2C(=O)Nc1ccccc1

> <STRUCTURE_SMILES_Desalt>
Cc2c(C)oc(C)c2C(=O)Nc1ccccc1

> <Substance_modify_yyyymmdd>
20080825

$$$$
