2873-97-4
ChemmineR-0915142007XD

 12 11  0  0  0  0  0  0  0  0  1 V2000
    3.8533   -2.3032    0.0000 C   0  0  0  0  0  0  0  0  0  0  0  0
    2.7054   -2.9613    0.0000 C   0  0  0  0  0  0  0  0  0  0  0  0
    4.5260   -3.4585    0.0000 C   0  0  0  0  0  0  0  0  0  0  0  0
    5.0086   -1.6305    0.0000 C   0  0  0  0  0  0  0  0  0  0  0  0
    6.1565   -2.3032    0.0000 C   0  0  0  0  0  0  0  0  0  0  0  0
    7.3118   -1.6305    0.0000 C   0  0  0  0  0  0  0  0  0  0  0  0
    6.1565   -3.6340    0.0000 O   0  0  0  0  0  0  0  0  0  0  0  0
    3.1806   -1.1553    0.0000 N   0  0  0  0  0  0  0  0  0  0  0  0
    1.8572   -1.1553    0.0000 C   0  0  0  0  0  0  0  0  0  0  0  0
    1.1991    0.0000    0.0000 O   0  0  0  0  0  0  0  0  0  0  0  0
    1.1991   -2.3836    0.0000 C   0  0  0  0  0  0  0  0  0  0  0  0
    0.0000   -2.0034    0.0000 C   0  0  0  0  0  0  0  0  0  0  0  0
  1  2  1  0  0  0  0
  1  3  1  0  0  0  0
  1  4  1  0  0  0  0
  1  8  1  0  0  0  0
  4  5  1  0  0  0  0
  5  6  1  0  0  0  0
  5  7  2  0  0  0  0
  8  9  1  0  0  0  0
  9 10  2  0  0  0  0
  9 11  1  0  0  0  0
 11 12  2  0  0  0  0
M  END
> <ID>
3914

> <Formula>
C9H15NO2

> <FW>
169.2209

> <DSSTox_CID>
4916

> <DSSTox_RID>
77579

> <DSSTox_GSID>
24916

> <DSSTox_FileID_Sort>
2262

> <TS_ChemName>
Diacetone acrylamide

> <TS_ChemName_Synonyms>


> <TS_CASRN>
2873-97-4

> <CASRN_ChemName_Relationship>
primary

> <TS_Description>
single chemical compound

> <ChemNote>


> <STRUCTURE_Shown>
tested chemical

> <STRUCTURE_Formula>
C9H15NO2

> <STRUCTURE_MW>
169.2209

> <STRUCTURE_ChemType>
defined organic

> <STRUCTURE_DefinedOrganicForm>
parent

> <STRUCTURE_IUPAC>
N-(2-methyl-4-oxopentan-2-yl)prop-2-enamide

> <STRUCTURE_SMILES>
C=CC(=O)NC(C)(C)CC(=O)C

> <STRUCTURE_SMILES_Desalt>
C=CC(=O)NC(C)(C)CC(=O)C

> <Substance_modify_yyyymmdd>
20080429

$$$$
