2876-78-0
ChemmineR-0915142007XD

 15 16  0  0  0  0  0  0  0  0  1 V2000
    2.3012   -3.9874    0.0000 C   0  0  0  0  0  0  0  0  0  0  0  0
    3.4553   -3.3309    0.0000 C   0  0  0  0  0  0  0  0  0  0  0  0
    2.3012   -5.3143    0.0000 C   0  0  0  0  0  0  0  0  0  0  0  0
    1.1541   -3.3309    0.0000 C   0  0  0  0  0  0  0  0  0  0  0  0
    3.4553   -2.0041    0.0000 C   0  0  0  0  0  0  0  0  0  0  0  0
    4.6094   -3.9874    0.0000 C   0  0  0  0  0  0  0  0  0  0  0  0
    3.4553   -5.9846    0.0000 C   0  0  0  0  0  0  0  0  0  0  0  0
    1.1541   -5.9846    0.0000 C   0  0  0  0  0  0  0  0  0  0  0  0
    0.0000   -3.9874    0.0000 C   0  0  0  0  0  0  0  0  0  0  0  0
    4.6094   -1.3268    0.0000 C   0  0  0  0  0  0  0  0  0  0  0  0
    4.6094   -5.3143    0.0000 C   0  0  0  0  0  0  0  0  0  0  0  0
    0.0000   -5.3143    0.0000 C   0  0  0  0  0  0  0  0  0  0  0  0
    5.7565   -2.0041    0.0000 O   0  0  0  0  0  0  0  0  0  0  0  0
    4.6094    0.0000    0.0000 O   0  0  0  0  0  0  0  0  0  0  0  0
    6.9106   -1.3268    0.0000 C   0  0  0  0  0  0  0  0  0  0  0  0
  1  2  2  0  0  0  0
  1  3  1  0  0  0  0
  1  4  1  0  0  0  0
  2  5  1  0  0  0  0
  2  6  1  0  0  0  0
  3  7  2  0  0  0  0
  3  8  1  0  0  0  0
  4  9  2  0  0  0  0
  5 10  1  0  0  0  0
  6 11  2  0  0  0  0
  7 11  1  0  0  0  0
  8 12  2  0  0  0  0
  9 12  1  0  0  0  0
 10 13  1  0  0  0  0
 10 14  2  0  0  0  0
 13 15  1  0  0  0  0
M  END
> <ID>
9074

> <Formula>
C13H12O2

> <FW>
200.2332

> <DSSTox_CID>
22143

> <DSSTox_RID>
79935

> <DSSTox_GSID>
42143

> <DSSTox_FileID_Sort>
4617

> <TS_ChemName>
Methyl 1-naphthaleneacetate

> <TS_ChemName_Synonyms>


> <TS_CASRN>
2876-78-0

> <CASRN_ChemName_Relationship>
primary

> <TS_Description>
single chemical compound

> <ChemNote>


> <STRUCTURE_Shown>
tested chemical

> <STRUCTURE_Formula>
C13H12O2

> <STRUCTURE_MW>
200.2332

> <STRUCTURE_ChemType>
defined organic

> <STRUCTURE_DefinedOrganicForm>
parent

> <STRUCTURE_IUPAC>
methyl naphthalen-1-ylacetate

> <STRUCTURE_SMILES>
O=C(OC)Cc2cccc1ccccc12

> <STRUCTURE_SMILES_Desalt>
O=C(OC)Cc2cccc1ccccc12

> <Substance_modify_yyyymmdd>
20080825

$$$$
