28768-32-3
ChemmineR-0915142007XD

 31 36  0  0  0  0  0  0  0  0  1 V2000
    7.0901   -3.7924    0.0000 C   0  0  0  0  0  0  0  0  0  0  0  0
    7.0901   -5.1279    0.0000 C   0  0  0  0  0  0  0  0  0  0  0  0
    5.9359   -3.1493    0.0000 C   0  0  0  0  0  0  0  0  0  0  0  0
    5.9359   -5.8040    0.0000 C   0  0  0  0  0  0  0  0  0  0  0  0
    4.7817   -3.7924    0.0000 C   0  0  0  0  0  0  0  0  0  0  0  0
    4.7817   -5.1279    0.0000 C   0  0  0  0  0  0  0  0  0  0  0  0
    8.2443   -5.8040    0.0000 C   0  0  0  0  0  0  0  0  0  0  0  0
   11.7069   -3.7924    0.0000 C   0  0  0  0  0  0  0  0  0  0  0  0
   11.7069   -5.1279    0.0000 C   0  0  0  0  0  0  0  0  0  0  0  0
   10.5527   -3.1493    0.0000 C   0  0  0  0  0  0  0  0  0  0  0  0
   10.5527   -5.8040    0.0000 C   0  0  0  0  0  0  0  0  0  0  0  0
    9.3985   -3.7924    0.0000 C   0  0  0  0  0  0  0  0  0  0  0  0
    9.3985   -5.1279    0.0000 C   0  0  0  0  0  0  0  0  0  0  0  0
   12.8611   -3.1493    0.0000 N   0  0  0  0  0  0  0  0  0  0  0  0
    3.6275   -3.1493    0.0000 N   0  0  0  0  0  0  0  0  0  0  0  0
   13.9988   -3.7924    0.0000 C   0  0  0  0  0  0  0  0  0  0  0  0
   12.8611   -1.8137    0.0000 C   0  0  0  0  0  0  0  0  0  0  0  0
   13.9988   -1.1377    0.0000 C   0  0  0  0  0  0  0  0  0  0  0  0
   15.1530   -3.1493    0.0000 C   0  0  0  0  0  0  0  0  0  0  0  0
    3.6275   -1.8137    0.0000 C   0  0  0  0  0  0  0  0  0  0  0  0
    2.4898   -3.7924    0.0000 C   0  0  0  0  0  0  0  0  0  0  0  0
    1.3356   -3.1493    0.0000 C   0  0  0  0  0  0  0  0  0  0  0  0
    2.4898   -1.1377    0.0000 C   0  0  0  0  0  0  0  0  0  0  0  0
    0.0000   -3.1493    0.0000 C   0  0  0  0  0  0  0  0  0  0  0  0
    0.6595   -1.9786    0.0000 O   0  0  0  0  0  0  0  0  0  0  0  0
    1.1542   -1.1377    0.0000 C   0  0  0  0  0  0  0  0  0  0  0  0
    1.8137    0.0000    0.0000 O   0  0  0  0  0  0  0  0  0  0  0  0
   15.8290   -1.9786    0.0000 C   0  0  0  0  0  0  0  0  0  0  0  0
   16.4886   -3.1493    0.0000 O   0  0  0  0  0  0  0  0  0  0  0  0
   14.6748    0.0000    0.0000 C   0  0  0  0  0  0  0  0  0  0  0  0
   15.3344   -1.1377    0.0000 O   0  0  0  0  0  0  0  0  0  0  0  0
  1  2  1  0  0  0  0
  1  3  2  0  0  0  0
  2  4  2  0  0  0  0
  2  7  1  0  0  0  0
  3  5  1  0  0  0  0
  4  6  1  0  0  0  0
  5  6  2  0  0  0  0
  5 15  1  0  0  0  0
  7 13  1  0  0  0  0
  8  9  1  0  0  0  0
  8 10  2  0  0  0  0
  8 14  1  0  0  0  0
  9 11  2  0  0  0  0
 10 12  1  0  0  0  0
 11 13  1  0  0  0  0
 12 13  2  0  0  0  0
 14 16  1  0  0  0  0
 14 17  1  0  0  0  0
 15 20  1  0  0  0  0
 15 21  1  0  0  0  0
 16 19  1  0  0  0  0
 17 18  1  0  0  0  0
 18 30  1  0  0  0  0
 18 31  1  0  0  0  0
 19 28  1  0  0  0  0
 19 29  1  0  0  0  0
 20 23  1  0  0  0  0
 21 22  1  0  0  0  0
 22 24  1  0  0  0  0
 22 25  1  0  0  0  0
 23 26  1  0  0  0  0
 23 27  1  0  0  0  0
 24 25  1  0  0  0  0
 26 27  1  0  0  0  0
 28 29  1  0  0  0  0
 30 31  1  0  0  0  0
M  END
> <ID>
9177

> <Formula>
C25H30N2O4

> <FW>
422.5167

> <DSSTox_CID>
22248

> <DSSTox_RID>
79972

> <DSSTox_GSID>
42248

> <DSSTox_FileID_Sort>
4654

> <TS_ChemName>
4,4'-Methylenebis(N,N-diglycidylaniline)

> <TS_ChemName_Synonyms>
4,4'-Methylenebis(N,N-diglycidylaniline) (Oxiranemethanamine, N,N'-(methylenedi-4,1-phenylene)bis[N-(oxiranylmethyl)-)

> <TS_CASRN>
28768-32-3

> <CASRN_ChemName_Relationship>
primary

> <TS_Description>
single chemical compound

> <ChemNote>


> <STRUCTURE_Shown>
tested chemical

> <STRUCTURE_Formula>
C25H30N2O4

> <STRUCTURE_MW>
422.5167

> <STRUCTURE_ChemType>
defined organic

> <STRUCTURE_DefinedOrganicForm>
parent

> <STRUCTURE_IUPAC>
4,4'-methanediylbis[N,N-bis(oxiran-2-ylmethyl)aniline]

> <STRUCTURE_SMILES>
C1OC1CN(CC2CO2)c6ccc(Cc3ccc(cc3)N(CC4CO4)CC5CO5)cc6

> <STRUCTURE_SMILES_Desalt>
C1OC1CN(CC2CO2)c6ccc(Cc3ccc(cc3)N(CC4CO4)CC5CO5)cc6

> <Substance_modify_yyyymmdd>
20080825

$$$$
