28777-98-2
ChemmineR-0915142007XD

 25 25  0  0  0  0  0  0  0  0  1 V2000
   10.6408  -19.6328    0.0000 O   0  0  0  0  0  0  0  0  0  0  0  0
    9.8494  -20.7101    0.0000 C   0  0  0  0  0  0  0  0  0  0  0  0
    9.8494  -18.5775    0.0000 C   0  0  0  0  0  0  0  0  0  0  0  0
    8.5962  -20.2924    0.0000 C   0  0  0  0  0  0  0  0  0  0  0  0
    8.5962  -18.9732    0.0000 C   0  0  0  0  0  0  0  0  0  0  0  0
   10.2671  -17.3024    0.0000 O   0  0  0  0  0  0  0  0  0  0  0  0
   10.2671  -21.9852    0.0000 O   0  0  0  0  0  0  0  0  0  0  0  0
    7.5189  -18.1818    0.0000 C   0  0  0  0  0  0  0  0  0  0  0  0
    7.6509  -16.8627    0.0000 C   0  0  0  0  0  0  0  0  0  0  0  0
    6.5736  -16.0712    0.0000 C   0  0  0  0  0  0  0  0  0  0  0  0
    6.7055  -14.7741    0.0000 C   0  0  0  0  0  0  0  0  0  0  0  0
    5.6282  -13.9826    0.0000 C   0  0  0  0  0  0  0  0  0  0  0  0
    5.7821  -12.6415    0.0000 C   0  0  0  0  0  0  0  0  0  0  0  0
    4.7048  -11.8500    0.0000 C   0  0  0  0  0  0  0  0  0  0  0  0
    4.8367  -10.5529    0.0000 C   0  0  0  0  0  0  0  0  0  0  0  0
    3.7595   -9.7614    0.0000 C   0  0  0  0  0  0  0  0  0  0  0  0
    3.8914   -8.4423    0.0000 C   0  0  0  0  0  0  0  0  0  0  0  0
    2.8141   -7.6509    0.0000 C   0  0  0  0  0  0  0  0  0  0  0  0
    2.9460   -6.3317    0.0000 C   0  0  0  0  0  0  0  0  0  0  0  0
    1.8687   -5.5403    0.0000 C   0  0  0  0  0  0  0  0  0  0  0  0
    2.0226   -4.2212    0.0000 C   0  0  0  0  0  0  0  0  0  0  0  0
    0.9454   -3.4297    0.0000 C   0  0  0  0  0  0  0  0  0  0  0  0
    1.0773   -2.1106    0.0000 C   0  0  0  0  0  0  0  0  0  0  0  0
    0.0000   -1.3411    0.0000 C   0  0  0  0  0  0  0  0  0  0  0  0
    0.1539    0.0000    0.0000 C   0  0  0  0  0  0  0  0  0  0  0  0
  1  2  1  0  0  0  0
  1  3  1  0  0  0  0
  2  4  1  0  0  0  0
  2  7  2  0  0  0  0
  3  5  1  0  0  0  0
  3  6  2  0  0  0  0
  4  5  1  0  0  0  0
  5  8  1  0  0  0  0
  8  9  2  0  0  0  0
  9 10  1  0  0  0  0
 10 11  1  0  0  0  0
 11 12  1  0  0  0  0
 12 13  1  0  0  0  0
 13 14  1  0  0  0  0
 14 15  1  0  0  0  0
 15 16  1  0  0  0  0
 16 17  1  0  0  0  0
 17 18  1  0  0  0  0
 18 19  1  0  0  0  0
 19 20  1  0  0  0  0
 20 21  1  0  0  0  0
 21 22  1  0  0  0  0
 22 23  1  0  0  0  0
 23 24  1  0  0  0  0
 24 25  1  0  0  0  0
M  END
> <ID>
5527

> <Formula>
C22H38O3

> <FW>
350.5353

> <DSSTox_CID>
7948

> <DSSTox_RID>
78620

> <DSSTox_GSID>
27948

> <DSSTox_FileID_Sort>
3302

> <TS_ChemName>
2,5-Furandione, dihydro-3-(octadecenyl)-

> <TS_ChemName_Synonyms>


> <TS_CASRN>
28777-98-2

> <CASRN_ChemName_Relationship>
primary

> <TS_Description>
mixture or formulation

> <ChemNote>
mixture of octadecenyl isomers, stucture shown 1E, stereochem

> <STRUCTURE_Shown>
representative isomer in mixture

> <STRUCTURE_Formula>
C22H38O3

> <STRUCTURE_MW>
350.5353

> <STRUCTURE_ChemType>
defined organic

> <STRUCTURE_DefinedOrganicForm>
parent

> <STRUCTURE_IUPAC>
3-[(1E)-octadec-1-en-1-yl]dihydrofuran-2,5-dione

> <STRUCTURE_SMILES>
O=C1OC(=O)CC1\C=C\CCCCCCCCCCCCCCCC

> <STRUCTURE_SMILES_Desalt>
O=C1OC(=O)CC1\C=C\CCCCCCCCCCCCCCCC

> <Substance_modify_yyyymmdd>
20080429

$$$$
