28772-56-7
ChemmineR-0915142007XD

 35 39  0  0  0  0  0  0  0  0  1 V2000
    4.6186   -4.6509    0.0000 C    0  0  0  0  0  0  0  0  0  0  0  0
    3.4720   -4.0049    0.0000 C    0  0  0  0  0  0  0  0  0  0  0  0
    4.6186   -5.9751    0.0000 C    0  0  0  0  0  0  0  0  0  0  0  0
    5.7813   -3.9888    0.0000 C    0  0  0  0  0  0  0  0  0  0  0  0
    3.4720   -6.6534    0.0000 O    0  0  0  0  0  0  0  0  0  0  0  0
    2.2932   -4.6509    0.0000 C    0  0  0  0  0  0  0  0  0  0  0  0
    2.2932   -5.9751    0.0000 C    0  0  0  0  0  0  0  0  0  0  0  0
    6.9117   -4.6347    0.0000 C    0  0  0  0  0  0  0  0  0  0  0  0
    5.7813   -6.6695    0.0000 O    0  0  0  0  0  0  0  0  0  0  0  0
    8.0745   -3.9888    0.0000 C    0  0  0  0  0  0  0  0  0  0  0  0
    5.7813   -2.6646    0.0000 C    0  0  0  0  0  0  0  0  0  0  0  0
    9.2372   -4.6347    0.0000 C    0  0  0  0  0  0  0  0  0  0  0  0
   11.5303   -5.9590    0.0000 C    0  0  0  0  0  0  0  0  0  0  0  0
   12.6769   -6.6372    0.0000 C    0  0  0  0  0  0  0  0  0  0  0  0
    3.4720   -2.6646    0.0000 O    0  0  0  0  0  0  0  0  0  0  0  0
    9.2372   -5.9590    0.0000 C    0  0  0  0  0  0  0  0  0  0  0  0
   10.3676   -3.9888    0.0000 C    0  0  0  0  0  0  0  0  0  0  0  0
   11.5303   -4.6347    0.0000 C    0  0  0  0  0  0  0  0  0  0  0  0
   10.3676   -6.6372    0.0000 C    0  0  0  0  0  0  0  0  0  0  0  0
   13.8558   -5.9590    0.0000 C    0  0  0  0  0  0  0  0  0  0  0  0
   12.6769   -7.9614    0.0000 C    0  0  0  0  0  0  0  0  0  0  0  0
   14.9862   -7.9614    0.0000 C    0  0  0  0  0  0  0  0  0  0  0  0
   13.8558   -8.6235    0.0000 C    0  0  0  0  0  0  0  0  0  0  0  0
   14.9862   -6.6372    0.0000 C    0  0  0  0  0  0  0  0  0  0  0  0
    8.0745   -2.6484    0.0000 O    0  0  0  0  0  0  0  0  0  0  0  0
   16.1489   -8.6397    0.0000 Br   0  0  0  0  0  0  0  0  0  0  0  0
    1.1627   -4.0049    0.0000 C    0  0  0  0  0  0  0  0  0  0  0  0
    1.1627   -6.6534    0.0000 C    0  0  0  0  0  0  0  0  0  0  0  0
    6.9117   -2.0025    0.0000 C    0  0  0  0  0  0  0  0  0  0  0  0
    4.6186   -2.0025    0.0000 C    0  0  0  0  0  0  0  0  0  0  0  0
    0.0000   -4.6509    0.0000 C    0  0  0  0  0  0  0  0  0  0  0  0
    0.0000   -5.9751    0.0000 C    0  0  0  0  0  0  0  0  0  0  0  0
    4.6186   -0.6621    0.0000 C    0  0  0  0  0  0  0  0  0  0  0  0
    6.9117   -0.6621    0.0000 C    0  0  0  0  0  0  0  0  0  0  0  0
    5.7813    0.0000    0.0000 C    0  0  0  0  0  0  0  0  0  0  0  0
  1  2  2  0  0  0  0
  1  3  1  0  0  0  0
  1  4  1  0  0  0  0
  2  6  1  0  0  0  0
  2 15  1  0  0  0  0
  3  5  1  0  0  0  0
  3  9  2  0  0  0  0
  4  8  1  0  0  0  0
  4 11  1  0  0  0  0
  5  7  1  0  0  0  0
  6 27  1  0  0  0  0
  6  7  2  0  0  0  0
  7 28  1  0  0  0  0
  8 10  1  0  0  0  0
 10 12  1  0  0  0  0
 10 25  1  0  0  0  0
 11 29  1  0  0  0  0
 11 30  2  0  0  0  0
 12 16  1  0  0  0  0
 12 17  2  0  0  0  0
 13 18  2  0  0  0  0
 13 14  1  0  0  0  0
 13 19  1  0  0  0  0
 14 20  2  0  0  0  0
 14 21  1  0  0  0  0
 16 19  2  0  0  0  0
 17 18  1  0  0  0  0
 20 24  1  0  0  0  0
 21 23  2  0  0  0  0
 22 23  1  0  0  0  0
 22 26  1  0  0  0  0
 22 24  2  0  0  0  0
 27 31  2  0  0  0  0
 28 32  2  0  0  0  0
 29 34  2  0  0  0  0
 30 33  1  0  0  0  0
 31 32  1  0  0  0  0
 33 35  2  0  0  0  0
 34 35  1  0  0  0  0
M  END
> <ID>
6532

> <Formula>
C30H23BrO4

> <FW>
527.4052

> <DSSTox_CID>
12589

> <DSSTox_RID>
78997

> <DSSTox_GSID>
32589

> <DSSTox_FileID_Sort>
3679

> <TS_ChemName>
Bromadiolone

> <TS_ChemName_Synonyms>


> <TS_CASRN>
28772-56-7

> <CASRN_ChemName_Relationship>
primary

> <TS_Description>
single chemical compound

> <ChemNote>


> <STRUCTURE_Shown>
tested chemical

> <STRUCTURE_Formula>
C30H23BrO4

> <STRUCTURE_MW>
527.4052

> <STRUCTURE_ChemType>
defined organic

> <STRUCTURE_DefinedOrganicForm>
parent

> <STRUCTURE_IUPAC>
3-[3-(4'-bromobiphenyl-4-yl)-3-hydroxy-1-phenylpropyl]-4-hydroxy-2H-chromen-2-one

> <STRUCTURE_SMILES>
Brc1ccc(cc1)c2ccc(cc2)C(O)CC(C3=C(O)c4ccccc4OC3=O)c5ccccc5

> <STRUCTURE_SMILES_Desalt>
Brc1ccc(cc1)c2ccc(cc2)C(O)CC(C3=C(O)c4ccccc4OC3=O)c5ccccc5

> <Substance_modify_yyyymmdd>
20080429

$$$$
