28797-61-7
ChemmineR-0915142007XD

 26 29  0  0  0  0  0  0  0  0  1 V2000
    3.2230   -7.2400    0.0000 C   0  0  0  0  0  0  0  0  0  0  0  0
    1.8917   -7.1349    0.0000 C   0  0  0  0  0  0  0  0  0  0  0  0
    1.3195   -5.9438    0.0000 C   0  0  0  0  0  0  0  0  0  0  0  0
    2.0669   -4.8461    0.0000 C   0  0  0  0  0  0  0  0  0  0  0  0
    3.3748   -4.9279    0.0000 C   0  0  0  0  0  0  0  0  0  0  0  0
    3.9703   -6.1423    0.0000 C   0  0  0  0  0  0  0  0  0  0  0  0
    4.3090   -3.9820    0.0000 N   0  0  0  0  0  0  0  0  0  0  0  0
    5.5818   -4.3790    0.0000 C   0  0  0  0  0  0  0  0  0  0  0  0
    5.8620   -5.6519    0.0000 O   0  0  0  0  0  0  0  0  0  0  0  0
    6.5277   -3.4331    0.0000 C   0  0  0  0  0  0  0  0  0  0  0  0
    7.8238   -3.7951    0.0000 N   0  0  0  0  0  0  0  0  0  0  0  0
    8.7697   -2.8610    0.0000 C   0  0  0  0  0  0  0  0  0  0  0  0
   10.0542   -3.1996    0.0000 C   0  0  0  0  0  0  0  0  0  0  0  0
   10.3929   -4.4841    0.0000 N   0  0  0  0  0  0  0  0  0  0  0  0
   11.6774   -4.8344    0.0000 C   0  0  0  0  0  0  0  0  0  0  0  0
    9.4470   -5.4300    0.0000 C   0  0  0  0  0  0  0  0  0  0  0  0
    8.1742   -5.0797    0.0000 C   0  0  0  0  0  0  0  0  0  0  0  0
    4.0988   -2.6508    0.0000 C   0  0  0  0  0  0  0  0  0  0  0  0
    2.9427   -1.9852    0.0000 C   0  0  0  0  0  0  0  0  0  0  0  0
    1.7049   -2.4756    0.0000 N   0  0  0  0  0  0  0  0  0  0  0  0
    1.3195   -3.7484    0.0000 C   0  0  0  0  0  0  0  0  0  0  0  0
    0.0000   -3.9470    0.0000 O   0  0  0  0  0  0  0  0  0  0  0  0
    2.9427   -0.6539    0.0000 C   0  0  0  0  0  0  0  0  0  0  0  0
    4.0988    0.0000    0.0000 C   0  0  0  0  0  0  0  0  0  0  0  0
    5.2431   -0.6539    0.0000 C   0  0  0  0  0  0  0  0  0  0  0  0
    5.2431   -1.9852    0.0000 N   0  0  0  0  0  0  0  0  0  0  0  0
  1  2  2  0  0  0  0
  1  6  1  0  0  0  0
  2  3  1  0  0  0  0
  3  4  2  0  0  0  0
  4  5  1  0  0  0  0
  4 21  1  0  0  0  0
  5  6  2  0  0  0  0
  5  7  1  0  0  0  0
  7  8  1  0  0  0  0
  7 18  1  0  0  0  0
  8  9  2  0  0  0  0
  8 10  1  0  0  0  0
 10 11  1  0  0  0  0
 11 12  1  0  0  0  0
 11 17  1  0  0  0  0
 12 13  1  0  0  0  0
 13 14  1  0  0  0  0
 14 15  1  0  0  0  0
 14 16  1  0  0  0  0
 16 17  1  0  0  0  0
 18 19  2  0  0  0  0
 18 26  1  0  0  0  0
 19 20  1  0  0  0  0
 19 23  1  0  0  0  0
 20 21  1  0  0  0  0
 21 22  2  0  0  0  0
 23 24  2  0  0  0  0
 24 25  1  0  0  0  0
 25 26  2  0  0  0  0
M  END
> <ID>
3125

> <Formula>
C19H21N5O2

> <FW>
351.4023

> <DSSTox_CID>
3487

> <DSSTox_RID>
77049

> <DSSTox_GSID>
23487

> <DSSTox_FileID_Sort>
1732

> <TS_ChemName>
Pirenzepine

> <TS_ChemName_Synonyms>


> <TS_CASRN>
28797-61-7

> <CASRN_ChemName_Relationship>
primary

> <TS_Description>
single chemical compound

> <ChemNote>


> <STRUCTURE_Shown>
tested chemical

> <STRUCTURE_Formula>
C19H21N5O2

> <STRUCTURE_MW>
351.4023

> <STRUCTURE_ChemType>
defined organic

> <STRUCTURE_DefinedOrganicForm>
parent

> <STRUCTURE_IUPAC>
11-[(4-methylpiperazin-1-yl)acetyl]-5,11-dihydro-6H-pyrido[2,3-b][1,4]benzodiazepin-6-one

> <STRUCTURE_SMILES>
O=C(CN1CCN(C)CC1)N4c2ccccc2C(=O)Nc3cccnc34

> <STRUCTURE_SMILES_Desalt>
O=C(CN1CCN(C)CC1)N4c2ccccc2C(=O)Nc3cccnc34

> <Substance_modify_yyyymmdd>
20080429

$$$$
