288-32-4
ChemmineR-0915142007XD

  5  5  0  0  0  0  0  0  0  0  1 V2000
    2.0359   -1.0904    0.0000 N   0  0  0  0  0  0  0  0  0  0  0  0
    0.0000   -1.7460    0.0000 N   0  0  0  0  0  0  0  0  0  0  0  0
    1.2657   -2.1636    0.0000 C   0  0  0  0  0  0  0  0  0  0  0  0
    1.2657    0.0000    0.0000 C   0  0  0  0  0  0  0  0  0  0  0  0
    0.0000   -0.4176    0.0000 C   0  0  0  0  0  0  0  0  0  0  0  0
  1  3  2  0  0  0  0
  1  4  1  0  0  0  0
  2  3  1  0  0  0  0
  2  5  1  0  0  0  0
  4  5  2  0  0  0  0
M  END
> <ID>
6075

> <Formula>
C3H4N2

> <FW>
68.0773

> <DSSTox_CID>
9616

> <DSSTox_RID>
78788

> <DSSTox_GSID>
29616

> <DSSTox_FileID_Sort>
3470

> <TS_ChemName>
Imidazole

> <TS_ChemName_Synonyms>
Imidazole (1H-Imidazole)

> <TS_CASRN>
288-32-4

> <CASRN_ChemName_Relationship>
primary

> <TS_Description>
single chemical compound

> <ChemNote>


> <STRUCTURE_Shown>
tested chemical

> <STRUCTURE_Formula>
C3H4N2

> <STRUCTURE_MW>
68.0773

> <STRUCTURE_ChemType>
defined organic

> <STRUCTURE_DefinedOrganicForm>
parent

> <STRUCTURE_IUPAC>
1H-imidazole

> <STRUCTURE_SMILES>
c1cncn1

> <STRUCTURE_SMILES_Desalt>
c1cncn1

> <Substance_modify_yyyymmdd>
20080429

$$$$
