28804-88-8
ChemmineR-0915142007XD

 12 13  0  0  0  0  0  0  0  0  1 V2000
    0.0000   -1.9929    0.0000 C   0  0  0  0  0  0  0  0  0  0  0  0
    0.0000   -3.3234    0.0000 C   0  0  0  0  0  0  0  0  0  0  0  0
    1.1520   -3.9858    0.0000 C   0  0  0  0  0  0  0  0  0  0  0  0
    2.3039   -3.3234    0.0000 C   0  0  0  0  0  0  0  0  0  0  0  0
    2.3039   -1.9929    0.0000 C   0  0  0  0  0  0  0  0  0  0  0  0
    1.1520   -1.3247    0.0000 C   0  0  0  0  0  0  0  0  0  0  0  0
    3.4559   -3.9858    0.0000 C   0  0  0  0  0  0  0  0  0  0  0  0
    4.6078   -3.3234    0.0000 C   0  0  0  0  0  0  0  0  0  0  0  0
    4.6078   -1.9929    0.0000 C   0  0  0  0  0  0  0  0  0  0  0  0
    3.4559   -1.3247    0.0000 C   0  0  0  0  0  0  0  0  0  0  0  0
    3.4559    0.0000    0.0000 C   0  0  0  0  0  0  0  0  0  0  0  0
    5.7598   -1.3247    0.0000 C   0  0  0  0  0  0  0  0  0  0  0  0
  1  2  2  0  0  0  0
  1  6  1  0  0  0  0
  2  3  1  0  0  0  0
  3  4  2  0  0  0  0
  4  5  1  0  0  0  0
  4  7  1  0  0  0  0
  5  6  2  0  0  0  0
  5 10  1  0  0  0  0
  7  8  2  0  0  0  0
  8  9  1  0  0  0  0
  9 10  2  0  0  0  0
  9 12  1  0  0  0  0
 10 11  1  0  0  0  0
M  END
> <ID>
4031

> <Formula>
C12H12

> <FW>
156.2237

> <DSSTox_CID>
5130

> <DSSTox_RID>
77675

> <DSSTox_GSID>
25130

> <DSSTox_FileID_Sort>
2358

> <TS_ChemName>
Dimethylnaphthalene

> <TS_ChemName_Synonyms>


> <TS_CASRN>
28804-88-8

> <CASRN_ChemName_Relationship>
primary

> <TS_Description>
mixture or formulation

> <ChemNote>
mixture of dimethyl substituted naphthalene

> <STRUCTURE_Shown>
representative isomer in mixture

> <STRUCTURE_Formula>
C12H12

> <STRUCTURE_MW>
156.2237

> <STRUCTURE_ChemType>
defined organic

> <STRUCTURE_DefinedOrganicForm>
parent

> <STRUCTURE_IUPAC>
1,2-dimethylnaphthalene

> <STRUCTURE_SMILES>
Cc1c2ccccc2ccc1C

> <STRUCTURE_SMILES_Desalt>
Cc1c2ccccc2ccc1C

> <Substance_modify_yyyymmdd>
20080429

$$$$
