288104-79-0
ChemmineR-0915142007XD

 31 34  0  0  0  0  0  0  0  0  1 V2000
    5.0599   -6.1005    0.0000 N    0  0  0  0  0  0  0  0  0  0  0  0
    6.1265   -5.3071    0.0000 C    0  0  0  0  0  0  0  0  0  0  0  0
    5.4501   -7.3622    0.0000 N    0  0  0  0  0  0  0  0  0  0  0  0
    7.2061   -6.1005    0.0000 C    0  0  0  0  0  0  0  0  0  0  0  0
    6.7899   -7.3622    0.0000 C    0  0  0  0  0  0  0  0  0  0  0  0
    6.1265   -3.9803    0.0000 C    0  0  0  0  0  0  0  0  0  0  0  0
    4.9819   -3.3299    0.0000 C    0  0  0  0  0  0  0  0  0  0  0  0
    7.2842   -3.3299    0.0000 C    0  0  0  0  0  0  0  0  0  0  0  0
    4.9819   -2.0032    0.0000 C    0  0  0  0  0  0  0  0  0  0  0  0
    7.2842   -2.0032    0.0000 C    0  0  0  0  0  0  0  0  0  0  0  0
    6.1265   -1.3268    0.0000 C    0  0  0  0  0  0  0  0  0  0  0  0
    3.7982   -5.6843    0.0000 C    0  0  0  0  0  0  0  0  0  0  0  0
    2.7966   -6.5818    0.0000 C    0  0  0  0  0  0  0  0  0  0  0  0
    3.5250   -4.3835    0.0000 C    0  0  0  0  0  0  0  0  0  0  0  0
    1.5349   -6.1656    0.0000 C    0  0  0  0  0  0  0  0  0  0  0  0
    2.2503   -3.9673    0.0000 C    0  0  0  0  0  0  0  0  0  0  0  0
    1.2617   -4.8648    0.0000 C    0  0  0  0  0  0  0  0  0  0  0  0
    6.1265    0.0000    0.0000 Br   0  0  0  0  0  0  0  0  0  0  0  0
    0.0000   -4.4486    0.0000 Cl   0  0  0  0  0  0  0  0  0  0  0  0
    3.0698   -7.8695    0.0000 Cl   0  0  0  0  0  0  0  0  0  0  0  0
    8.4679   -5.6843    0.0000 C    0  0  0  0  0  0  0  0  0  0  0  0
    9.4564   -6.5818    0.0000 C    0  0  0  0  0  0  0  0  0  0  0  0
    7.5704   -8.4289    0.0000 C    0  0  0  0  0  0  0  0  0  0  0  0
    7.0240   -9.6516    0.0000 N    0  0  0  0  0  0  0  0  0  0  0  0
    8.8971   -8.2858    0.0000 O    0  0  0  0  0  0  0  0  0  0  0  0
    7.8045  -10.7182    0.0000 N    0  0  0  0  0  0  0  0  0  0  0  0
    9.1313  -10.5751    0.0000 C    0  0  0  0  0  0  0  0  0  0  0  0
    7.2582  -11.9409    0.0000 C    0  0  0  0  0  0  0  0  0  0  0  0
    9.8987  -11.6677    0.0000 C    0  0  0  0  0  0  0  0  0  0  0  0
    8.0516  -13.0075    0.0000 C    0  0  0  0  0  0  0  0  0  0  0  0
    9.3784  -12.8644    0.0000 C    0  0  0  0  0  0  0  0  0  0  0  0
  1  2  1  0  0  0  0
  1  3  1  0  0  0  0
  1 12  1  0  0  0  0
  2  4  2  0  0  0  0
  2  6  1  0  0  0  0
  3  5  2  0  0  0  0
  4  5  1  0  0  0  0
  4 21  1  0  0  0  0
  5 23  1  0  0  0  0
  6  7  1  0  0  0  0
  6  8  2  0  0  0  0
  7  9  2  0  0  0  0
  8 10  1  0  0  0  0
  9 11  1  0  0  0  0
 10 11  2  0  0  0  0
 11 18  1  0  0  0  0
 12 13  1  0  0  0  0
 12 14  2  0  0  0  0
 13 15  2  0  0  0  0
 13 20  1  0  0  0  0
 14 16  1  0  0  0  0
 15 17  1  0  0  0  0
 16 17  2  0  0  0  0
 17 19  1  0  0  0  0
 21 22  1  0  0  0  0
 23 24  1  0  0  0  0
 23 25  2  0  0  0  0
 24 26  1  0  0  0  0
 26 27  1  0  0  0  0
 26 28  1  0  0  0  0
 27 29  1  0  0  0  0
 28 30  1  0  0  0  0
 29 31  1  0  0  0  0
 30 31  1  0  0  0  0
M  END
> <ID>
12499

> <Formula>
C23H23BrCl2N4O

> <FW>
522.2649

> <DSSTox_CID>
27357

> <DSSTox_RID>
82293

> <DSSTox_GSID>
47357

> <DSSTox_FileID_Sort>
6974

> <TS_ChemName>
Surinabant

> <TS_ChemName_Synonyms>
SR147778

> <TS_CASRN>
288104-79-0

> <CASRN_ChemName_Relationship>
primary

> <TS_Description>
single chemical compound

> <ChemNote>
stereochem

> <STRUCTURE_Shown>
tested chemical

> <STRUCTURE_Formula>
C23H23BrCl2N4O

> <STRUCTURE_MW>
522.2649

> <STRUCTURE_ChemType>
defined organic

> <STRUCTURE_DefinedOrganicForm>
parent

> <STRUCTURE_IUPAC>
5-(4-bromophenyl)-1-(2,4-dichlorophenyl)-4-ethyl-N-(piperidin-1-yl)-1H-pyrazole-3-carboxamide

> <STRUCTURE_SMILES>
O=C(NN1CCCCC1)c4nn(c2ccc(Cl)cc2Cl)c(c3ccc(Br)cc3)c4CC

> <STRUCTURE_SMILES_Desalt>
O=C(NN1CCCCC1)c4nn(c2ccc(Cl)cc2Cl)c(c3ccc(Br)cc3)c4CC

> <Substance_modify_yyyymmdd>
20130910

$$$$
