28868-76-0
ChemmineR-0915142007XD

 10  9  0  0  0  0  0  0  0  0  1 V2000
    2.2911   -2.6710    0.0000 C    0  0  0  0  0  0  0  0  0  0  0  0
    3.4654   -2.0033    0.0000 C    0  0  0  0  0  0  0  0  0  0  0  0
    1.1628   -2.0033    0.0000 C    0  0  0  0  0  0  0  0  0  0  0  0
    3.4654   -0.6850    0.0000 O    0  0  0  0  0  0  0  0  0  0  0  0
    0.0173   -2.6710    0.0000 O    0  0  0  0  0  0  0  0  0  0  0  0
    4.5937   -2.6710    0.0000 O    0  0  0  0  0  0  0  0  0  0  0  0
    1.1628   -0.6678    0.0000 O    0  0  0  0  0  0  0  0  0  0  0  0
    2.2911   -4.0065    0.0000 Cl   0  0  0  0  0  0  0  0  0  0  0  0
    5.7565   -2.0033    0.0000 C    0  0  0  0  0  0  0  0  0  0  0  0
    0.0000    0.0000    0.0000 C    0  0  0  0  0  0  0  0  0  0  0  0
  1  2  1  0  0  0  0
  1  3  1  0  0  0  0
  1  8  1  0  0  0  0
  2  4  2  0  0  0  0
  2  6  1  0  0  0  0
  3  5  2  0  0  0  0
  3  7  1  0  0  0  0
  6  9  1  0  0  0  0
  7 10  1  0  0  0  0
M  END
> <ID>
14002

> <Formula>
C5H7ClO4

> <FW>
166.5597

> <DSSTox_CID>
28944

> <DSSTox_RID>
83209

> <DSSTox_GSID>
49018

> <DSSTox_FileID_Sort>
7885

> <TS_ChemName>
Dimethyl chloromalonate

> <TS_ChemName_Synonyms>


> <TS_CASRN>
28868-76-0

> <CASRN_ChemName_Relationship>
primary

> <TS_Description>
single chemical compound

> <ChemNote>


> <STRUCTURE_Shown>
tested chemical

> <STRUCTURE_Formula>
C5H7ClO4

> <STRUCTURE_MW>
166.5597

> <STRUCTURE_ChemType>
defined organic

> <STRUCTURE_DefinedOrganicForm>
parent

> <STRUCTURE_IUPAC>
dimethyl chloropropanedioate

> <STRUCTURE_SMILES>
COC(=O)C(Cl)C(=O)OC

> <STRUCTURE_SMILES_Desalt>
COC(=O)C(Cl)C(=O)OC

> <Substance_modify_yyyymmdd>
20111204

$$$$
