28888-44-0
ChemmineR-0915142007XD

 16 17  0  0  0  0  0  0  0  0  1 V2000
    8.0811   -3.3375    0.0000 C   0  0  0  0  0  0  0  0  0  0  0  0
    6.9174   -3.9921    0.0000 O   0  0  0  0  0  0  0  0  0  0  0  0
    5.7618   -3.3375    0.0000 C   0  0  0  0  0  0  0  0  0  0  0  0
    4.6143   -3.9921    0.0000 C   0  0  0  0  0  0  0  0  0  0  0  0
    3.4668   -3.3375    0.0000 C   0  0  0  0  0  0  0  0  0  0  0  0
    2.3193   -3.9921    0.0000 N   0  0  0  0  0  0  0  0  0  0  0  0
    1.1637   -3.3375    0.0000 C   0  0  0  0  0  0  0  0  0  0  0  0
    1.1637   -2.0122    0.0000 N   0  0  0  0  0  0  0  0  0  0  0  0
    2.3193   -1.3415    0.0000 C   0  0  0  0  0  0  0  0  0  0  0  0
    3.4668   -2.0122    0.0000 C   0  0  0  0  0  0  0  0  0  0  0  0
    4.6143   -1.3415    0.0000 C   0  0  0  0  0  0  0  0  0  0  0  0
    5.7618   -2.0122    0.0000 C   0  0  0  0  0  0  0  0  0  0  0  0
    6.9174   -1.3415    0.0000 O   0  0  0  0  0  0  0  0  0  0  0  0
    8.0811   -2.0122    0.0000 C   0  0  0  0  0  0  0  0  0  0  0  0
    2.3193    0.0000    0.0000 O   0  0  0  0  0  0  0  0  0  0  0  0
    0.0000   -3.9921    0.0000 O   0  0  0  0  0  0  0  0  0  0  0  0
  1  2  1  0  0  0  0
  2  3  1  0  0  0  0
  3  4  2  0  0  0  0
  3 12  1  0  0  0  0
  4  5  1  0  0  0  0
  5  6  1  0  0  0  0
  5 10  2  0  0  0  0
  6  7  1  0  0  0  0
  7  8  1  0  0  0  0
  7 16  2  0  0  0  0
  8  9  1  0  0  0  0
  9 10  1  0  0  0  0
  9 15  2  0  0  0  0
 10 11  1  0  0  0  0
 11 12  2  0  0  0  0
 12 13  1  0  0  0  0
 13 14  1  0  0  0  0
M  END
> <ID>
11406

> <Formula>
C10H10N2O4

> <FW>
222.1974

> <DSSTox_CID>
26100

> <DSSTox_RID>
81338

> <DSSTox_GSID>
46100

> <DSSTox_FileID_Sort>
6019

> <TS_ChemName>
6,7-Dimethoxyquinazoline-2,4(1H,3H)-dione

> <TS_ChemName_Synonyms>


> <TS_CASRN>
28888-44-0

> <CASRN_ChemName_Relationship>
primary

> <TS_Description>
single chemical compound

> <ChemNote>


> <STRUCTURE_Shown>
tested chemical

> <STRUCTURE_Formula>
C10H10N2O4

> <STRUCTURE_MW>
222.1974

> <STRUCTURE_ChemType>
defined organic

> <STRUCTURE_DefinedOrganicForm>
parent

> <STRUCTURE_IUPAC>
6,7-dimethoxyquinazoline-2,4(1H,3H)-dione

> <STRUCTURE_SMILES>
COc1cc2c(cc1OC)NC(=O)NC2=O

> <STRUCTURE_SMILES_Desalt>
COc1cc2c(cc1OC)NC(=O)NC2=O

> <Substance_modify_yyyymmdd>
20110819

$$$$
