28911-01-5
ChemmineR-0915142007XD

 23 26  0  0  0  0  0  0  0  0  1 V2000
    4.5561   -1.9782    0.0000 N    0  0  0  0  0  0  0  0  0  0  0  0
    3.4999   -4.1533    0.0000 C    0  0  0  0  0  0  0  0  0  0  0  0
    3.4999   -2.8017    0.0000 C    0  0  0  0  0  0  0  0  0  0  0  0
    4.5561   -4.9679    0.0000 C    0  0  0  0  0  0  0  0  0  0  0  0
    5.8272   -2.2467    0.0000 C    0  0  0  0  0  0  0  0  0  0  0  0
    5.8272   -4.6815    0.0000 N    0  0  0  0  0  0  0  0  0  0  0  0
    6.4806   -1.1010    0.0000 N    0  0  0  0  0  0  0  0  0  0  0  0
    5.6571   -0.1432    0.0000 N    0  0  0  0  0  0  0  0  0  0  0  0
    4.5382   -0.6534    0.0000 C    0  0  0  0  0  0  0  0  0  0  0  0
    4.5561   -6.2927    0.0000 C    0  0  0  0  0  0  0  0  0  0  0  0
    6.4001   -3.4999    0.0000 C    0  0  0  0  0  0  0  0  0  0  0  0
    2.3542   -2.1304    0.0000 C    0  0  0  0  0  0  0  0  0  0  0  0
    2.3542   -4.7978    0.0000 C    0  0  0  0  0  0  0  0  0  0  0  0
    5.6661   -6.9640    0.0000 C    0  0  0  0  0  0  0  0  0  0  0  0
    1.1905   -4.1265    0.0000 C    0  0  0  0  0  0  0  0  0  0  0  0
    1.1905   -2.8196    0.0000 C    0  0  0  0  0  0  0  0  0  0  0  0
    6.8834   -6.2748    0.0000 Cl   0  0  0  0  0  0  0  0  0  0  0  0
    0.0000   -4.7620    0.0000 Cl   0  0  0  0  0  0  0  0  0  0  0  0
    3.3746   -6.9640    0.0000 C    0  0  0  0  0  0  0  0  0  0  0  0
    3.2493    0.0000    0.0000 C    0  0  0  0  0  0  0  0  0  0  0  0
    5.6661   -8.2977    0.0000 C    0  0  0  0  0  0  0  0  0  0  0  0
    3.3746   -8.2977    0.0000 C    0  0  0  0  0  0  0  0  0  0  0  0
    4.5561   -8.9512    0.0000 C    0  0  0  0  0  0  0  0  0  0  0  0
  1  3  1  0  0  0  0
  1  5  1  0  0  0  0
  1  9  1  0  0  0  0
  2  3  2  0  0  0  0
  2  4  1  0  0  0  0
  2 13  1  0  0  0  0
  3 12  1  0  0  0  0
  4 10  1  0  0  0  0
  4  6  2  0  0  0  0
  5  7  2  0  0  0  0
  5 11  1  0  0  0  0
  6 11  1  0  0  0  0
  7  8  1  0  0  0  0
  8  9  2  0  0  0  0
  9 20  1  0  0  0  0
 10 14  2  0  0  0  0
 10 19  1  0  0  0  0
 12 16  2  0  0  0  0
 13 15  2  0  0  0  0
 14 17  1  0  0  0  0
 14 21  1  0  0  0  0
 15 16  1  0  0  0  0
 15 18  1  0  0  0  0
 19 22  2  0  0  0  0
 21 23  2  0  0  0  0
 22 23  1  0  0  0  0
M  END
> <ID>
11950

> <Formula>
C17H12Cl2N4

> <FW>
343.21

> <DSSTox_CID>
26763

> <DSSTox_RID>
81886

> <DSSTox_GSID>
46763

> <DSSTox_FileID_Sort>
6567

> <TS_ChemName>
Triazolam

> <TS_ChemName_Synonyms>


> <TS_CASRN>
28911-01-5

> <CASRN_ChemName_Relationship>
primary

> <TS_Description>
single chemical compound

> <ChemNote>
tautomers

> <STRUCTURE_Shown>
tested chemical

> <STRUCTURE_Formula>
C17H12Cl2N4

> <STRUCTURE_MW>
343.21

> <STRUCTURE_ChemType>
defined organic

> <STRUCTURE_DefinedOrganicForm>
parent

> <STRUCTURE_IUPAC>
8-chloro-6-(2-chlorophenyl)-1-methyl-4H-[1,2,4]triazolo[4,3-a][1,4]benzodiazepine

> <STRUCTURE_SMILES>
Clc4ccccc4C1=NCc3nnc(C)n3c2ccc(Cl)cc12

> <STRUCTURE_SMILES_Desalt>
Clc4ccccc4C1=NCc3nnc(C)n3c2ccc(Cl)cc12

> <Substance_modify_yyyymmdd>
20110803

$$$$
