2892-51-5
ChemmineR-0915142007XD

  8  8  0  0  0  0  0  0  0  0  1 V2000
    2.2886   -1.3259    0.0000 C   0  0  0  0  0  0  0  0  0  0  0  0
    3.2150   -2.2705    0.0000 C   0  0  0  0  0  0  0  0  0  0  0  0
    1.3259   -2.2523    0.0000 C   0  0  0  0  0  0  0  0  0  0  0  0
    2.2523   -3.1968    0.0000 C   0  0  0  0  0  0  0  0  0  0  0  0
    2.2387   -4.5409    0.0000 O   0  0  0  0  0  0  0  0  0  0  0  0
    0.0000   -2.2523    0.0000 O   0  0  0  0  0  0  0  0  0  0  0  0
    2.2886    0.0000    0.0000 O   0  0  0  0  0  0  0  0  0  0  0  0
    4.5409   -2.2886    0.0000 O   0  0  0  0  0  0  0  0  0  0  0  0
  1  2  2  0  0  0  0
  1  3  1  0  0  0  0
  1  7  1  0  0  0  0
  2  8  1  0  0  0  0
  2  4  1  0  0  0  0
  3  4  1  0  0  0  0
  3  6  2  0  0  0  0
  4  5  2  0  0  0  0
M  END
> <ID>
14273

> <Formula>
C4H2O4

> <FW>
114.0563

> <DSSTox_CID>
29369

> <DSSTox_RID>
83484

> <DSSTox_GSID>
49409

> <DSSTox_FileID_Sort>
8159

> <TS_ChemName>
3-Cyclobutene-1,2-dione,3,4-dihydroxy-

> <TS_ChemName_Synonyms>


> <TS_CASRN>
2892-51-5

> <CASRN_ChemName_Relationship>
primary

> <TS_Description>
single chemical compound

> <ChemNote>


> <STRUCTURE_Shown>
tested chemical

> <STRUCTURE_Formula>
C4H2O4

> <STRUCTURE_MW>
114.0563

> <STRUCTURE_ChemType>
defined organic

> <STRUCTURE_DefinedOrganicForm>
parent

> <STRUCTURE_IUPAC>
3,4-dihydroxycyclobut-3-ene-1,2-dione

> <STRUCTURE_SMILES>
OC1=C(O)C(=O)C1=O

> <STRUCTURE_SMILES_Desalt>
OC1=C(O)C(=O)C1=O

> <Substance_modify_yyyymmdd>
20111204

$$$$
