2893-78-9
ChemmineR-0915142007XD

 12 11  0  0  0  0  0  0  0  0  2 V2000
    1.3285    0.0000    0.0000 Cl   0  0  0  0  0  0  0  0  0  0  0  0
    1.9954   -1.1514    0.0000 N    0  0  0  0  0  0  0  0  0  0  0  0
    3.3239   -1.1514    0.0000 C    0  0  0  0  0  0  0  0  0  0  0  0
    3.9908   -2.3028    0.0000 N    0  5  0  0  0  0  0  0  0  0  0  0
    3.3239   -3.4541    0.0000 C    0  0  0  0  0  0  0  0  0  0  0  0
    3.9908   -4.6055    0.0000 O    0  0  0  0  0  0  0  0  0  0  0  0
    3.9908    0.0000    0.0000 O    0  0  0  0  0  0  0  0  0  0  0  0
    1.3285   -2.3028    0.0000 C    0  0  0  0  0  0  0  0  0  0  0  0
    1.9954   -3.4541    0.0000 N    0  0  0  0  0  0  0  0  0  0  0  0
    1.3285   -4.6055    0.0000 Cl   0  0  0  0  0  0  0  0  0  0  0  0
    0.0000   -2.3028    0.0000 O    0  0  0  0  0  0  0  0  0  0  0  0
    5.2099   -2.0683    0.0000 Na   0  3  0  0  0  0  0  0  0  0  0  0
  1  2  1  0  0  0  0
  2  3  1  0  0  0  0
  2  8  1  0  0  0  0
  3  4  1  0  0  0  0
  3  7  2  0  0  0  0
  4  5  1  0  0  0  0
  5  6  2  0  0  0  0
  5  9  1  0  0  0  0
  8  9  1  0  0  0  0
  8 11  2  0  0  0  0
  9 10  1  0  0  0  0
M  END
> <ID>
3957

> <Formula>
C3Cl2N3NaO3

> <FW>
219.9462 (196.9569+22.9892)

> <DSSTox_CID>
4994

> <DSSTox_RID>
77616

> <DSSTox_GSID>
24994

> <DSSTox_FileID_Sort>
2299

> <TS_ChemName>
Sodium dichloroisocyanurate

> <TS_ChemName_Synonyms>
Sodium dichloroisocyanurate (Sodium dichloro-s-triazinetrione) (1,3,5-Triazine-2,4,6(1H,3H,5H)-trione, 1,3-dichloro-, sodium salt)

> <TS_CASRN>
2893-78-9

> <CASRN_ChemName_Relationship>
primary

> <TS_Description>
single chemical compound

> <ChemNote>
parent [2782-57-2]

> <STRUCTURE_Shown>
tested chemical

> <STRUCTURE_Formula>
C3Cl2N3NaO3

> <STRUCTURE_MW>
219.9462

> <STRUCTURE_ChemType>
defined organic

> <STRUCTURE_DefinedOrganicForm>
salt

> <STRUCTURE_IUPAC>
sodium 3,5-dichloro-2,4,6-trioxo-1,3,5-triazinan-1-ide

> <STRUCTURE_SMILES>
[Na+].ClN1C(=O)[N-]C(=O)N(Cl)C1=O

> <STRUCTURE_SMILES_Desalt>
ClN1C(=O)NC(=O)N(Cl)C1=O

> <Substance_modify_yyyymmdd>
20080429

$$$$
