28961-43-5
ChemmineR-0915142007XD

 30 29  0  0  0  0  0  0  0  0  1 V2000
    5.7017    0.0000    0.0000 C   0  0  0  0  0  0  0  0  0  0  0  0
    5.4464   -1.3105    0.0000 C   0  0  0  0  0  0  0  0  0  0  0  0
    6.4336   -2.1786    0.0000 C   0  0  0  0  0  0  0  0  0  0  0  0
    7.6931   -1.7531    0.0000 O   0  0  0  0  0  0  0  0  0  0  0  0
    6.1953   -3.4891    0.0000 O   0  0  0  0  0  0  0  0  0  0  0  0
    7.1995   -4.3571    0.0000 C   0  0  0  0  0  0  0  0  0  0  0  0
    6.9442   -5.6677    0.0000 C   0  0  0  0  0  0  0  0  0  0  0  0
    7.9654   -6.5527    0.0000 O   0  0  0  0  0  0  0  0  0  0  0  0
    7.7101   -7.8462    0.0000 C   0  0  0  0  0  0  0  0  0  0  0  0
    8.7143   -8.7143    0.0000 C   0  0  0  0  0  0  0  0  0  0  0  0
    7.8462   -9.7355    0.0000 C   0  0  0  0  0  0  0  0  0  0  0  0
    0.0000  -11.7438    0.0000 C   0  0  0  0  0  0  0  0  0  0  0  0
    1.3105  -11.9991    0.0000 C   0  0  0  0  0  0  0  0  0  0  0  0
    2.1786  -10.9779    0.0000 C   0  0  0  0  0  0  0  0  0  0  0  0
    1.7531   -9.7355    0.0000 O   0  0  0  0  0  0  0  0  0  0  0  0
    3.4891  -11.2332    0.0000 O   0  0  0  0  0  0  0  0  0  0  0  0
    4.3571  -10.2290    0.0000 C   0  0  0  0  0  0  0  0  0  0  0  0
    5.6677  -10.4673    0.0000 C   0  0  0  0  0  0  0  0  0  0  0  0
    6.5527   -9.4802    0.0000 O   0  0  0  0  0  0  0  0  0  0  0  0
    9.5823   -7.7101    0.0000 C   0  0  0  0  0  0  0  0  0  0  0  0
   10.8928   -7.9654    0.0000 C   0  0  0  0  0  0  0  0  0  0  0  0
    9.7355   -9.5823    0.0000 C   0  0  0  0  0  0  0  0  0  0  0  0
   17.0200   -8.2717    0.0000 C   0  0  0  0  0  0  0  0  0  0  0  0
   15.7435   -8.7143    0.0000 C   0  0  0  0  0  0  0  0  0  0  0  0
   15.5053  -10.0078    0.0000 C   0  0  0  0  0  0  0  0  0  0  0  0
   16.5094  -10.8758    0.0000 O   0  0  0  0  0  0  0  0  0  0  0  0
   14.2628  -10.4503    0.0000 O   0  0  0  0  0  0  0  0  0  0  0  0
   13.2416   -9.5823    0.0000 C   0  0  0  0  0  0  0  0  0  0  0  0
   11.9821  -10.0078    0.0000 C   0  0  0  0  0  0  0  0  0  0  0  0
   10.9779   -9.1398    0.0000 O   0  0  0  0  0  0  0  0  0  0  0  0
  1  2  2  0  0  0  0
  2  3  1  0  0  0  0
  3  4  2  0  0  0  0
  3  5  1  0  0  0  0
  5  6  1  0  0  0  0
  6  7  1  0  0  0  0
  7  8  1  0  0  0  0
  8  9  1  0  0  0  0
  9 10  1  0  0  0  0
 10 11  1  0  0  0  0
 10 20  1  0  0  0  0
 10 22  1  0  0  0  0
 11 19  1  0  0  0  0
 12 13  2  0  0  0  0
 13 14  1  0  0  0  0
 14 15  2  0  0  0  0
 14 16  1  0  0  0  0
 16 17  1  0  0  0  0
 17 18  1  0  0  0  0
 18 19  1  0  0  0  0
 20 21  1  0  0  0  0
 22 30  1  0  0  0  0
 23 24  2  0  0  0  0
 24 25  1  0  0  0  0
 25 26  2  0  0  0  0
 25 27  1  0  0  0  0
 27 28  1  0  0  0  0
 28 29  1  0  0  0  0
 29 30  1  0  0  0  0
M  END
> <ID>
5529

> <Formula>
C21H32O9

> <FW>
428.4734

> <DSSTox_CID>
7950

> <DSSTox_RID>
78621

> <DSSTox_GSID>
27950

> <DSSTox_FileID_Sort>
3303

> <TS_ChemName>
Poly(oxy-1,2-ethanediyl), .alpha.-hydro-.omega.-[(1-oxo-2-propenyl)oxy]-, ether with 2-ethyl-2-(hydroxymethyl)-1,3-propanediol (3:1)

> <TS_ChemName_Synonyms>


> <TS_CASRN>
28961-43-5

> <CASRN_ChemName_Relationship>
primary

> <TS_Description>
polymer

> <ChemNote>


> <STRUCTURE_Shown>
monomer of polymer

> <STRUCTURE_Formula>
C21H32O9

> <STRUCTURE_MW>
428.4734

> <STRUCTURE_ChemType>
defined organic

> <STRUCTURE_DefinedOrganicForm>
parent

> <STRUCTURE_IUPAC>
2-(2,2-bis{[2-(acryloyloxy)ethoxy]methyl}butoxy)ethyl prop-2-enoate

> <STRUCTURE_SMILES>
O=C(OCCOCC(COCCOC(=O)C=C)(CC)COCCOC(=O)C=C)C=C

> <STRUCTURE_SMILES_Desalt>
O=C(OCCOCC(COCCOC(=O)C=C)(CC)COCCOC(=O)C=C)C=C

> <Substance_modify_yyyymmdd>
20080429

$$$$
