289716-94-5
ChemmineR-0915142007XD

 19 20  0  0  0  0  0  0  0  0  1 V2000
    3.4631   -3.3157    0.0000 C    0  0  0  0  0  0  0  0  0  0  0  0
    2.3026   -3.9881    0.0000 C    0  0  0  0  0  0  0  0  0  0  0  0
    4.6144   -3.9881    0.0000 O    0  0  0  0  0  0  0  0  0  0  0  0
    3.4631   -1.9894    0.0000 C    0  0  0  0  0  0  0  0  0  0  0  0
    1.1513   -3.3157    0.0000 C    0  0  0  0  0  0  0  0  0  0  0  0
    2.3026   -5.3144    0.0000 C    0  0  0  0  0  0  0  0  0  0  0  0
    5.7657   -3.3157    0.0000 C    0  0  0  0  0  0  0  0  0  0  0  0
    2.3026   -1.3263    0.0000 C    0  0  0  0  0  0  0  0  0  0  0  0
    1.1513   -1.9894    0.0000 C    0  0  0  0  0  0  0  0  0  0  0  0
    1.1513   -5.9776    0.0000 N    0  0  0  0  0  0  0  0  0  0  0  0
    5.7657   -1.9894    0.0000 C    0  0  0  0  0  0  0  0  0  0  0  0
    6.9170   -3.9881    0.0000 C    0  0  0  0  0  0  0  0  0  0  0  0
    0.0000   -1.3263    0.0000 F    0  0  0  0  0  0  0  0  0  0  0  0
    1.1513   -7.3039    0.0000 C    0  0  0  0  0  0  0  0  0  0  0  0
    6.9170   -1.3263    0.0000 C    0  0  0  0  0  0  0  0  0  0  0  0
    8.0775   -3.3157    0.0000 C    0  0  0  0  0  0  0  0  0  0  0  0
    8.0775   -1.9894    0.0000 C    0  0  0  0  0  0  0  0  0  0  0  0
    6.9170    0.0000    0.0000 Cl   0  0  0  0  0  0  0  0  0  0  0  0
    9.2104   -1.3263    0.0000 Cl   0  0  0  0  0  0  0  0  0  0  0  0
  1  2  2  0  0  0  0
  1  3  1  0  0  0  0
  1  4  1  0  0  0  0
  2  5  1  0  0  0  0
  2  6  1  0  0  0  0
  3  7  1  0  0  0  0
  4  8  2  0  0  0  0
  5  9  2  0  0  0  0
  6 10  1  0  0  0  0
  7 11  1  0  0  0  0
  7 12  2  0  0  0  0
  8  9  1  0  0  0  0
  9 13  1  0  0  0  0
 10 14  1  0  0  0  0
 11 15  2  0  0  0  0
 12 16  1  0  0  0  0
 15 17  1  0  0  0  0
 15 18  1  0  0  0  0
 16 17  2  0  0  0  0
 17 19  1  0  0  0  0
M  END
> <ID>
12422

> <Formula>
C14H12Cl2FNO

> <FW>
300.1556

> <DSSTox_CID>
27280

> <DSSTox_RID>
82234

> <DSSTox_GSID>
47280

> <DSSTox_FileID_Sort>
6915

> <TS_ChemName>
CP-607366

> <TS_ChemName_Synonyms>


> <TS_CASRN>
289716-94-5

> <CASRN_ChemName_Relationship>
primary

> <TS_Description>
single chemical compound

> <ChemNote>


> <STRUCTURE_Shown>
tested chemical

> <STRUCTURE_Formula>
C14H12Cl2FNO

> <STRUCTURE_MW>
300.1556

> <STRUCTURE_ChemType>
defined organic

> <STRUCTURE_DefinedOrganicForm>
parent

> <STRUCTURE_IUPAC>
1-[2-(3,4-dichlorophenoxy)-5-fluorophenyl]-N-methylmethanamine

> <STRUCTURE_SMILES>
Clc2ccc(Oc1ccc(F)cc1CNC)cc2Cl

> <STRUCTURE_SMILES_Desalt>
Clc2ccc(Oc1ccc(F)cc1CNC)cc2Cl

> <Substance_modify_yyyymmdd>
20130910

$$$$
