2897-60-1
ChemmineR-0915142007XD

 16 16  0  0  0  0  0  0  0  0  1 V2000
    1.5075   -4.3041    0.0000 C    0  0  0  0  0  0  0  0  0  0  0  0
    0.3714   -4.9595    0.0000 C    0  0  0  0  0  0  0  0  0  0  0  0
    1.5075   -2.9714    0.0000 O    0  0  0  0  0  0  0  0  0  0  0  0
    2.6655   -2.2941    0.0000 Si   0  0  0  0  0  0  0  0  0  0  0  0
    3.8234   -1.6386    0.0000 C    0  0  0  0  0  0  0  0  0  0  0  0
    4.9595   -2.3050    0.0000 C    0  0  0  0  0  0  0  0  0  0  0  0
    6.1175   -1.6386    0.0000 C    0  0  0  0  0  0  0  0  0  0  0  0
    7.2755   -2.3050    0.0000 O    0  0  0  0  0  0  0  0  0  0  0  0
    8.4334   -1.6386    0.0000 C    0  0  0  0  0  0  0  0  0  0  0  0
   10.9241   -2.3050    0.0000 O    0  0  0  0  0  0  0  0  0  0  0  0
    9.5914   -2.3050    0.0000 C    0  0  0  0  0  0  0  0  0  0  0  0
   10.2468   -3.4520    0.0000 C    0  0  0  0  0  0  0  0  0  0  0  0
    1.9882   -1.1470    0.0000 O    0  0  0  0  0  0  0  0  0  0  0  0
    0.6773   -1.1470    0.0000 C    0  0  0  0  0  0  0  0  0  0  0  0
    0.0000    0.0000    0.0000 C    0  0  0  0  0  0  0  0  0  0  0  0
    3.3428   -3.4520    0.0000 C    0  0  0  0  0  0  0  0  0  0  0  0
  1  2  1  0  0  0  0
  1  3  1  0  0  0  0
  3  4  1  0  0  0  0
  4  5  1  0  0  0  0
  4 13  1  0  0  0  0
  4 16  1  0  0  0  0
  5  6  1  0  0  0  0
  6  7  1  0  0  0  0
  7  8  1  0  0  0  0
  8  9  1  0  0  0  0
  9 11  1  0  0  0  0
 10 11  1  0  0  0  0
 10 12  1  0  0  0  0
 11 12  1  0  0  0  0
 13 14  1  0  0  0  0
 14 15  1  0  0  0  0
M  END
> <ID>
10291

> <Formula>
C11H24O4Si

> <FW>
248.3914

> <DSSTox_CID>
24638

> <DSSTox_RID>
80368

> <DSSTox_GSID>
44638

> <DSSTox_FileID_Sort>
5050

> <TS_ChemName>
Diethoxy(methyl)[3-(oxiran-2-ylmethoxy)propyl]silane

> <TS_ChemName_Synonyms>
Silane, diethoxymethyl[3-(oxiranylmethoxy)propyl]-

> <TS_CASRN>
2897-60-1

> <CASRN_ChemName_Relationship>
primary

> <TS_Description>
single chemical compound

> <ChemNote>


> <STRUCTURE_Shown>
tested chemical

> <STRUCTURE_Formula>
C11H24O4Si

> <STRUCTURE_MW>
248.3914

> <STRUCTURE_ChemType>
organometallic

> <STRUCTURE_DefinedOrganicForm>


> <STRUCTURE_IUPAC>
diethoxy(methyl)[3-(oxiran-2-ylmethoxy)propyl]silane

> <STRUCTURE_SMILES>
C[Si](CCCOCC1CO1)(OCC)OCC

> <STRUCTURE_SMILES_Desalt>
C[Si](CCCOCC1CO1)(OCC)OCC

> <Substance_modify_yyyymmdd>
20091116

$$$$
