289893-25-0
ChemmineR-0915142007XD

 22 23  0  0  1  0  0  0  0  0  2 V2000
    5.1416   -7.4015    0.0000 O    0  0  0  0  0  0  0  0  0  0  0  0
    3.9910   -8.0649    0.0000 C    0  0  0  0  0  0  0  0  0  0  0  0
    2.8403   -8.7284    0.0000 H    0  0  0  0  0  0  0  0  0  0  0  0
    3.3276   -6.9143    0.0000 C    0  0  0  0  0  0  0  0  0  0  0  0
    3.9910   -5.7636    0.0000 O    0  0  0  0  0  0  0  0  0  0  0  0
    3.3276   -4.6026    0.0000 N    0  0  0  0  0  0  0  0  0  0  0  0
    3.9910   -3.4520    0.0000 C    0  0  0  0  0  0  0  0  0  0  0  0
    5.3179   -3.4520    0.0000 Cl   0  0  0  0  0  0  0  0  0  0  0  0
    3.3276   -2.3013    0.0000 C    0  0  0  0  0  0  0  0  0  0  0  0
    3.9910   -1.1507    0.0000 C    0  0  0  0  0  0  0  0  0  0  0  0
    3.3276    0.0000    0.0000 C    0  0  0  0  0  0  0  0  0  0  0  0
    1.9903    0.0000    0.0000 C    0  0  0  0  0  0  0  0  0  0  0  0
    1.3269   -1.1507    0.0000 N    0  3  0  0  0  0  0  0  0  0  0  0
    1.9903   -2.3013    0.0000 C    0  0  0  0  0  0  0  0  0  0  0  0
    0.0000   -1.1507    0.0000 O    0  5  0  0  0  0  0  0  0  0  0  0
    4.6544   -9.2156    0.0000 C    0  0  0  0  0  0  0  0  0  0  0  0
    5.9813   -9.2156    0.0000 N    0  0  0  0  0  0  0  0  0  0  0  0
    6.6448  -10.3662    0.0000 C    0  0  0  0  0  0  0  0  0  0  0  0
    7.9820  -10.3662    0.0000 C    0  0  0  0  0  0  0  0  0  0  0  0
    8.6454   -9.2156    0.0000 C    0  0  0  0  0  0  0  0  0  0  0  0
    7.9820   -8.0649    0.0000 C    0  0  0  0  0  0  0  0  0  0  0  0
    6.6448   -8.0649    0.0000 C    0  0  0  0  0  0  0  0  0  0  0  0
  1  2  1  0  0  0  0
  2  3  1  1  0  0  0
  2  4  1  0  0  0  0
  2 16  1  0  0  0  0
  4  5  1  0  0  0  0
  5  6  1  0  0  0  0
  6  7  2  0  0  0  0
  7  8  1  0  0  0  0
  7  9  1  0  0  0  0
  9 10  2  0  0  0  0
  9 14  1  0  0  0  0
 10 11  1  0  0  0  0
 11 12  2  0  0  0  0
 12 13  1  0  0  0  0
 13 14  2  0  0  0  0
 13 15  1  0  0  0  0
 16 17  1  0  0  0  0
 17 18  1  0  0  0  0
 17 22  1  0  0  0  0
 18 19  1  0  0  0  0
 19 20  1  0  0  0  0
 20 21  1  0  0  0  0
 21 22  1  0  0  0  0
M  END
> <ID>
16103

> <Formula>
C14H20ClN3O3

> <FW>
313.7799

> <DSSTox_CID>
31490

> <DSSTox_RID>
97375

> <DSSTox_GSID>
57701

> <DSSTox_FileID_Sort>
8442

> <TS_ChemName>
Arimoclomol

> <TS_ChemName_Synonyms>


> <TS_CASRN>
289893-25-0

> <CASRN_ChemName_Relationship>
primary

> <TS_Description>
single chemical compound

> <ChemNote>


> <STRUCTURE_Shown>
tested chemical

> <STRUCTURE_Formula>
C14H20ClN3O3

> <STRUCTURE_MW>
313.7799

> <STRUCTURE_ChemType>
defined organic

> <STRUCTURE_DefinedOrganicForm>
parent

> <STRUCTURE_IUPAC>
N-{[(2R)-2-hydroxy-3-(piperidin-1-yl)propyl]oxy}pyridine-3-carboximidoyl chloride 1-oxide

> <STRUCTURE_SMILES>
O[C@H](CN1CCCCC1)CO\N=C(/Cl)c2ccc[n+]([O-])c2

> <STRUCTURE_SMILES_Desalt>
O[C@H](CN1CCCCC1)CO\N=C(/Cl)c2ccc[n+]([O-])c2

> <Substance_modify_yyyymmdd>
20131018

$$$$
