2898-13-7
ChemmineR-0915142007XD

 20 22  0  0  0  0  0  0  0  0  1 V2000
    2.4260   -8.1958    0.0000 C    0  0  0  0  0  0  0  0  0  0  0  0
    2.1227   -6.9009    0.0000 N    0  0  0  0  0  0  0  0  0  0  0  0
    0.8278   -6.6058    0.0000 C    0  0  0  0  0  0  0  0  0  0  0  0
    0.0000   -7.6467    0.0000 S    0  0  0  0  0  0  0  0  0  0  0  0
    0.2541   -5.4010    0.0000 C    0  0  0  0  0  0  0  0  0  0  0  0
    0.8278   -4.2044    0.0000 N    0  0  0  0  0  0  0  0  0  0  0  0
    2.1227   -3.9094    0.0000 C    0  0  0  0  0  0  0  0  0  0  0  0
    2.4014   -2.6309    0.0000 C    0  0  0  0  0  0  0  0  0  0  0  0
    1.4670   -1.6883    0.0000 C    0  0  0  0  0  0  0  0  0  0  0  0
    1.7457   -0.4098    0.0000 C    0  0  0  0  0  0  0  0  0  0  0  0
    3.0324    0.0000    0.0000 C    0  0  0  0  0  0  0  0  0  0  0  0
    3.9750   -0.9425    0.0000 C    0  0  0  0  0  0  0  0  0  0  0  0
    3.6963   -2.2211    0.0000 C    0  0  0  0  0  0  0  0  0  0  0  0
    3.1636   -4.7372    0.0000 C    0  0  0  0  0  0  0  0  0  0  0  0
    4.3192   -4.0733    0.0000 C    0  0  0  0  0  0  0  0  0  0  0  0
    5.4748   -4.7372    0.0000 C    0  0  0  0  0  0  0  0  0  0  0  0
    5.4748   -6.0731    0.0000 C    0  0  0  0  0  0  0  0  0  0  0  0
    4.3192   -6.7369    0.0000 C    0  0  0  0  0  0  0  0  0  0  0  0
    3.1636   -6.0731    0.0000 C    0  0  0  0  0  0  0  0  0  0  0  0
    6.6222   -4.0733    0.0000 Cl   0  0  0  0  0  0  0  0  0  0  0  0
  1  2  1  0  0  0  0
  2  3  1  0  0  0  0
  2 19  1  0  0  0  0
  3  4  2  0  0  0  0
  3  5  1  0  0  0  0
  5  6  1  0  0  0  0
  6  7  2  0  0  0  0
  7  8  1  0  0  0  0
  7 14  1  0  0  0  0
  8  9  2  0  0  0  0
  8 13  1  0  0  0  0
  9 10  1  0  0  0  0
 10 11  2  0  0  0  0
 11 12  1  0  0  0  0
 12 13  2  0  0  0  0
 14 15  2  0  0  0  0
 14 19  1  0  0  0  0
 15 16  1  0  0  0  0
 16 17  2  0  0  0  0
 16 20  1  0  0  0  0
 17 18  1  0  0  0  0
 18 19  2  0  0  0  0
M  END
> <ID>
11561

> <Formula>
C16H13ClN2S

> <FW>
300.8058

> <DSSTox_CID>
26267

> <DSSTox_RID>
81494

> <DSSTox_GSID>
46267

> <DSSTox_FileID_Sort>
6175

> <TS_ChemName>
Sulazepam

> <TS_ChemName_Synonyms>


> <TS_CASRN>
2898-13-7

> <CASRN_ChemName_Relationship>
primary

> <TS_Description>
single chemical compound

> <ChemNote>


> <STRUCTURE_Shown>
tested chemical

> <STRUCTURE_Formula>
C16H13ClN2S

> <STRUCTURE_MW>
300.8058

> <STRUCTURE_ChemType>
defined organic

> <STRUCTURE_DefinedOrganicForm>
parent

> <STRUCTURE_IUPAC>
7-chloro-1-methyl-5-phenyl-1,3-dihydro-2H-1,4-benzodiazepine-2-thione

> <STRUCTURE_SMILES>
Clc1ccc2c(c1)C(=NCC(=S)N2C)c3ccccc3

> <STRUCTURE_SMILES_Desalt>
Clc1ccc2c(c1)C(=NCC(=S)N2C)c3ccccc3

> <Substance_modify_yyyymmdd>
20110816

$$$$
