290-37-9
ChemmineR-0915142007XD

  6  6  0  0  0  0  0  0  0  0  1 V2000
    1.1515    0.0000    0.0000 N   0  0  0  0  0  0  0  0  0  0  0  0
    1.1515   -2.6532    0.0000 N   0  0  0  0  0  0  0  0  0  0  0  0
    2.3003   -1.9978    0.0000 C   0  0  0  0  0  0  0  0  0  0  0  0
    0.0000   -0.6553    0.0000 C   0  0  0  0  0  0  0  0  0  0  0  0
    0.0000   -1.9978    0.0000 C   0  0  0  0  0  0  0  0  0  0  0  0
    2.3003   -0.6553    0.0000 C   0  0  0  0  0  0  0  0  0  0  0  0
  1  4  2  0  0  0  0
  1  6  1  0  0  0  0
  2  3  1  0  0  0  0
  2  5  2  0  0  0  0
  3  6  2  0  0  0  0
  4  5  1  0  0  0  0
M  END
> <ID>
14274

> <Formula>
C4H4N2

> <FW>
80.088

> <DSSTox_CID>
29370

> <DSSTox_RID>
83485

> <DSSTox_GSID>
49410

> <DSSTox_FileID_Sort>
8160

> <TS_ChemName>
Pyrazine

> <TS_ChemName_Synonyms>


> <TS_CASRN>
290-37-9

> <CASRN_ChemName_Relationship>
primary

> <TS_Description>
single chemical compound

> <ChemNote>


> <STRUCTURE_Shown>
tested chemical

> <STRUCTURE_Formula>
C4H4N2

> <STRUCTURE_MW>
80.088

> <STRUCTURE_ChemType>
defined organic

> <STRUCTURE_DefinedOrganicForm>
parent

> <STRUCTURE_IUPAC>
pyrazine

> <STRUCTURE_SMILES>
c1cnccn1

> <STRUCTURE_SMILES_Desalt>
c1cnccn1

> <Substance_modify_yyyymmdd>
20111204

$$$$
