290352-28-2
ChemmineR-0915142007XD

 25 27  0  0  0  0  0  0  0  0  1 V2000
    8.0565   -3.3257    0.0000 C   0  0  0  0  0  0  0  0  0  0  0  0
    6.9243   -3.9827    0.0000 C   0  0  0  0  0  0  0  0  0  0  0  0
    8.0565   -2.0015    0.0000 C   0  0  0  0  0  0  0  0  0  0  0  0
    9.3200   -3.7503    0.0000 C   0  0  0  0  0  0  0  0  0  0  0  0
    6.9243   -5.3171    0.0000 O   0  0  0  0  0  0  0  0  0  0  0  0
    5.7720   -3.3257    0.0000 C   0  0  0  0  0  0  0  0  0  0  0  0
    6.9243   -1.3242    0.0000 C   0  0  0  0  0  0  0  0  0  0  0  0
    9.3200   -1.5870    0.0000 C   0  0  0  0  0  0  0  0  0  0  0  0
   10.1085   -2.6585    0.0000 C   0  0  0  0  0  0  0  0  0  0  0  0
    5.7720   -5.9842    0.0000 C   0  0  0  0  0  0  0  0  0  0  0  0
    5.7720   -2.0015    0.0000 C   0  0  0  0  0  0  0  0  0  0  0  0
    6.9243    0.0000    0.0000 O   0  0  0  0  0  0  0  0  0  0  0  0
    5.7720   -7.3186    0.0000 C   0  0  0  0  0  0  0  0  0  0  0  0
    4.6095   -5.3171    0.0000 C   0  0  0  0  0  0  0  0  0  0  0  0
    4.6095   -7.9756    0.0000 C   0  0  0  0  0  0  0  0  0  0  0  0
    6.9243   -7.9756    0.0000 C   0  0  0  0  0  0  0  0  0  0  0  0
    3.4571   -5.9842    0.0000 C   0  0  0  0  0  0  0  0  0  0  0  0
    4.6095   -3.9827    0.0000 C   0  0  0  0  0  0  0  0  0  0  0  0
    3.4571   -7.3186    0.0000 C   0  0  0  0  0  0  0  0  0  0  0  0
    2.3047   -7.9756    0.0000 N   0  0  0  0  0  0  0  0  0  0  0  0
    1.1524   -7.3186    0.0000 C   0  0  0  0  0  0  0  0  0  0  0  0
    1.1524   -5.9842    0.0000 C   0  0  0  0  0  0  0  0  0  0  0  0
    0.0000   -7.9756    0.0000 O   0  0  0  0  0  0  0  0  0  0  0  0
    0.0000   -5.3171    0.0000 O   0  0  0  0  0  0  0  0  0  0  0  0
    2.3047   -5.3171    0.0000 O   0  0  0  0  0  0  0  0  0  0  0  0
  1  2  1  0  0  0  0
  1  3  2  0  0  0  0
  1  4  1  0  0  0  0
  2  5  1  0  0  0  0
  2  6  2  0  0  0  0
  3  7  1  0  0  0  0
  3  8  1  0  0  0  0
  4  9  1  0  0  0  0
  5 10  1  0  0  0  0
  6 11  1  0  0  0  0
  7 12  1  0  0  0  0
  7 11  2  0  0  0  0
  8  9  1  0  0  0  0
 10 13  1  0  0  0  0
 10 14  2  0  0  0  0
 13 15  2  0  0  0  0
 13 16  1  0  0  0  0
 14 17  1  0  0  0  0
 14 18  1  0  0  0  0
 15 19  1  0  0  0  0
 17 19  2  0  0  0  0
 19 20  1  0  0  0  0
 20 21  1  0  0  0  0
 21 22  1  0  0  0  0
 21 23  2  0  0  0  0
 22 24  1  0  0  0  0
 22 25  2  0  0  0  0
M  END
> <ID>
12448

> <Formula>
C19H19NO5

> <FW>
341.3579

> <DSSTox_CID>
27306

> <DSSTox_RID>
82256

> <DSSTox_GSID>
47306

> <DSSTox_FileID_Sort>
6937

> <TS_ChemName>
CP-634384

> <TS_ChemName_Synonyms>


> <TS_CASRN>
290352-28-2

> <CASRN_ChemName_Relationship>
primary

> <TS_Description>
single chemical compound

> <ChemNote>


> <STRUCTURE_Shown>
tested chemical

> <STRUCTURE_Formula>
C19H19NO5

> <STRUCTURE_MW>
341.3579

> <STRUCTURE_ChemType>
defined organic

> <STRUCTURE_DefinedOrganicForm>
parent

> <STRUCTURE_IUPAC>
({4-[(7-hydroxy-2,3-dihydro-1H-inden-4-yl)oxy]-3,5-dimethylphenyl}amino)(oxo)acetic acid

> <STRUCTURE_SMILES>
O=C(O)C(=O)Nc3cc(C)c(Oc2ccc(O)c1CCCc12)c(C)c3

> <STRUCTURE_SMILES_Desalt>
O=C(O)C(=O)Nc3cc(C)c(Oc2ccc(O)c1CCCc12)c(C)c3

> <Substance_modify_yyyymmdd>
20130910

$$$$
