2905-65-9
ChemmineR-0915142007XD

 11 11  0  0  0  0  0  0  0  0  1 V2000
    4.6032   -1.3320    0.0000 C    0  0  0  0  0  0  0  0  0  0  0  0
    4.6032    0.0000    0.0000 O    0  0  0  0  0  0  0  0  0  0  0  0
    3.4507   -2.0014    0.0000 C    0  0  0  0  0  0  0  0  0  0  0  0
    5.7626   -2.0014    0.0000 O    0  0  0  0  0  0  0  0  0  0  0  0
    2.3258   -1.3320    0.0000 C    0  0  0  0  0  0  0  0  0  0  0  0
    3.4507   -3.3334    0.0000 C    0  0  0  0  0  0  0  0  0  0  0  0
    1.1732   -2.0014    0.0000 C    0  0  0  0  0  0  0  0  0  0  0  0
    2.3258   -4.0097    0.0000 C    0  0  0  0  0  0  0  0  0  0  0  0
    1.1732   -3.3334    0.0000 C    0  0  0  0  0  0  0  0  0  0  0  0
    0.0000   -1.3320    0.0000 Cl   0  0  0  0  0  0  0  0  0  0  0  0
    6.9014   -1.3320    0.0000 C    0  0  0  0  0  0  0  0  0  0  0  0
  1  2  2  0  0  0  0
  1  3  1  0  0  0  0
  1  4  1  0  0  0  0
  3  5  2  0  0  0  0
  3  6  1  0  0  0  0
  4 11  1  0  0  0  0
  5  7  1  0  0  0  0
  6  8  2  0  0  0  0
  7  9  2  0  0  0  0
  7 10  1  0  0  0  0
  8  9  1  0  0  0  0
M  END
> <ID>
5204

> <Formula>
C8H7ClO2

> <FW>
170.593

> <DSSTox_CID>
7507

> <DSSTox_RID>
78479

> <DSSTox_GSID>
27507

> <DSSTox_FileID_Sort>
3162

> <TS_ChemName>
Methyl 3-chlorobenzoate

> <TS_ChemName_Synonyms>


> <TS_CASRN>
2905-65-9

> <CASRN_ChemName_Relationship>
primary

> <TS_Description>
single chemical compound

> <ChemNote>


> <STRUCTURE_Shown>
tested chemical

> <STRUCTURE_Formula>
C8H7ClO2

> <STRUCTURE_MW>
170.593

> <STRUCTURE_ChemType>
defined organic

> <STRUCTURE_DefinedOrganicForm>
parent

> <STRUCTURE_IUPAC>
methyl 3-chlorobenzoate

> <STRUCTURE_SMILES>
Clc1cc(ccc1)C(=O)OC

> <STRUCTURE_SMILES_Desalt>
Clc1cc(ccc1)C(=O)OC

> <Substance_modify_yyyymmdd>
20080429

$$$$
