2905-67-1
ChemmineR-0915142007XD

 12 12  0  0  0  0  0  0  0  0  1 V2000
    4.6209   -1.3371    0.0000 C    0  0  0  0  0  0  0  0  0  0  0  0
    4.6209    0.0000    0.0000 O    0  0  0  0  0  0  0  0  0  0  0  0
    3.4570   -1.9952    0.0000 C    0  0  0  0  0  0  0  0  0  0  0  0
    5.7640   -1.9952    0.0000 O    0  0  0  0  0  0  0  0  0  0  0  0
    2.3070   -1.3371    0.0000 C    0  0  0  0  0  0  0  0  0  0  0  0
    3.4570   -3.3323    0.0000 C    0  0  0  0  0  0  0  0  0  0  0  0
    1.1639   -1.9952    0.0000 C    0  0  0  0  0  0  0  0  0  0  0  0
    2.3070   -3.9836    0.0000 C    0  0  0  0  0  0  0  0  0  0  0  0
    1.1639   -3.3323    0.0000 C    0  0  0  0  0  0  0  0  0  0  0  0
    0.0000   -1.3371    0.0000 Cl   0  0  0  0  0  0  0  0  0  0  0  0
    2.3070   -5.3207    0.0000 Cl   0  0  0  0  0  0  0  0  0  0  0  0
    6.9279   -1.3371    0.0000 C    0  0  0  0  0  0  0  0  0  0  0  0
  1  2  2  0  0  0  0
  1  3  1  0  0  0  0
  1  4  1  0  0  0  0
  3  5  2  0  0  0  0
  3  6  1  0  0  0  0
  4 12  1  0  0  0  0
  5  7  1  0  0  0  0
  6  8  2  0  0  0  0
  7  9  2  0  0  0  0
  7 10  1  0  0  0  0
  8  9  1  0  0  0  0
  8 11  1  0  0  0  0
M  END
> <ID>
9077

> <Formula>
C8H6Cl2O2

> <FW>
205.038

> <DSSTox_CID>
22146

> <DSSTox_RID>
79937

> <DSSTox_GSID>
42146

> <DSSTox_FileID_Sort>
4619

> <TS_ChemName>
Methyl 3,5-dichlorobenzoate

> <TS_ChemName_Synonyms>


> <TS_CASRN>
2905-67-1

> <CASRN_ChemName_Relationship>
primary

> <TS_Description>
single chemical compound

> <ChemNote>


> <STRUCTURE_Shown>
tested chemical

> <STRUCTURE_Formula>
C8H6Cl2O2

> <STRUCTURE_MW>
205.038

> <STRUCTURE_ChemType>
defined organic

> <STRUCTURE_DefinedOrganicForm>
parent

> <STRUCTURE_IUPAC>
methyl 3,5-dichlorobenzoate

> <STRUCTURE_SMILES>
Clc1cc(cc(Cl)c1)C(=O)OC

> <STRUCTURE_SMILES_Desalt>
Clc1cc(cc(Cl)c1)C(=O)OC

> <Substance_modify_yyyymmdd>
20080825

$$$$
