29091-05-2
ChemmineR-0915142007XD

 22 22  0  0  0  0  0  0  0  0  2 V2000
    4.6426   -4.5942    0.0000 C   0  0  0  0  0  0  0  0  0  0  0  0
    3.9897   -5.7629    0.0000 C   0  0  0  0  0  0  0  0  0  0  0  0
    2.6679   -5.7629    0.0000 C   0  0  0  0  0  0  0  0  0  0  0  0
    1.9989   -4.5942    0.0000 C   0  0  0  0  0  0  0  0  0  0  0  0
    2.6679   -3.4497    0.0000 C   0  0  0  0  0  0  0  0  0  0  0  0
    3.9897   -3.4497    0.0000 C   0  0  0  0  0  0  0  0  0  0  0  0
    5.9886   -4.5942    0.0000 N   0  0  0  0  0  0  0  0  0  0  0  0
    1.9989   -2.2971    0.0000 N   0  0  0  0  0  0  0  0  0  0  0  0
    0.6690   -2.2971    0.0000 C   0  0  0  0  0  0  0  0  0  0  0  0
    0.0000   -1.1526    0.0000 C   0  0  0  0  0  0  0  0  0  0  0  0
    2.6679   -1.1526    0.0000 C   0  0  0  0  0  0  0  0  0  0  0  0
    1.9989    0.0000    0.0000 C   0  0  0  0  0  0  0  0  0  0  0  0
    4.6426   -2.2971    0.0000 N   0  3  0  0  0  0  0  0  0  0  0  0
    5.9886   -2.2971    0.0000 O   0  5  0  0  0  0  0  0  0  0  0  0
    3.9897   -1.1526    0.0000 O   0  0  0  0  0  0  0  0  0  0  0  0
    0.6690   -4.5942    0.0000 N   0  3  0  0  0  0  0  0  0  0  0  0
    0.0000   -3.4497    0.0000 O   0  5  0  0  0  0  0  0  0  0  0  0
    0.0000   -5.7629    0.0000 O   0  0  0  0  0  0  0  0  0  0  0  0
    4.6426   -6.9074    0.0000 C   0  0  0  0  0  0  0  0  0  0  0  0
    5.3115   -8.0600    0.0000 F   0  0  0  0  0  0  0  0  0  0  0  0
    5.7951   -6.2384    0.0000 F   0  0  0  0  0  0  0  0  0  0  0  0
    3.4980   -7.5683    0.0000 F   0  0  0  0  0  0  0  0  0  0  0  0
  1  2  1  0  0  0  0
  1  6  2  0  0  0  0
  1  7  1  0  0  0  0
  2  3  2  0  0  0  0
  2 19  1  0  0  0  0
  3  4  1  0  0  0  0
  4  5  2  0  0  0  0
  4 16  1  0  0  0  0
  5  6  1  0  0  0  0
  5  8  1  0  0  0  0
  6 13  1  0  0  0  0
  8  9  1  0  0  0  0
  8 11  1  0  0  0  0
  9 10  1  0  0  0  0
 11 12  1  0  0  0  0
 13 14  1  0  0  0  0
 13 15  2  0  0  0  0
 16 17  1  0  0  0  0
 16 18  2  0  0  0  0
 19 20  1  0  0  0  0
 19 21  1  0  0  0  0
 19 22  1  0  0  0  0
M  END
> <ID>
7644

> <Formula>
C11H13F3N4O4

> <FW>
322.2405

> <DSSTox_CID>
20265

> <DSSTox_RID>
79459

> <DSSTox_GSID>
40265

> <DSSTox_FileID_Sort>
4141

> <TS_ChemName>
Dinitramine

> <TS_ChemName_Synonyms>


> <TS_CASRN>
29091-05-2

> <CASRN_ChemName_Relationship>
primary

> <TS_Description>
single chemical compound

> <ChemNote>


> <STRUCTURE_Shown>
tested chemical

> <STRUCTURE_Formula>
C11H13F3N4O4

> <STRUCTURE_MW>
322.2405

> <STRUCTURE_ChemType>
defined organic

> <STRUCTURE_DefinedOrganicForm>
parent

> <STRUCTURE_IUPAC>
N,N-diethyl-2,6-dinitro-4-(trifluoromethyl)benzene-1,3-diamine

> <STRUCTURE_SMILES>
CCN(CC)c1c(cc(c(N)c1[N+]([O-])=O)C(F)(F)F)[N+]([O-])=O

> <STRUCTURE_SMILES_Desalt>
CCN(CC)c1c(cc(c(N)c1[N+]([O-])=O)C(F)(F)F)[N+]([O-])=O

> <Substance_modify_yyyymmdd>
20080429

$$$$
