29094-61-9
ChemmineR-0915142007XD

 31 33  0  0  0  0  0  0  0  0  1 V2000
    0.0000   -4.7942    0.0000 C   0  0  0  0  0  0  0  0  0  0  0  0
    0.0000   -6.0999    0.0000 C   0  0  0  0  0  0  0  0  0  0  0  0
    1.1498   -6.7625    0.0000 C   0  0  0  0  0  0  0  0  0  0  0  0
    2.2996   -6.0999    0.0000 C   0  0  0  0  0  0  0  0  0  0  0  0
    2.2996   -4.7942    0.0000 C   0  0  0  0  0  0  0  0  0  0  0  0
    1.1498   -4.0926    0.0000 C   0  0  0  0  0  0  0  0  0  0  0  0
    3.4300   -4.0926    0.0000 N   0  0  0  0  0  0  0  0  0  0  0  0
    4.5798   -4.7747    0.0000 C   0  0  0  0  0  0  0  0  0  0  0  0
    5.7491   -4.0926    0.0000 N   0  0  0  0  0  0  0  0  0  0  0  0
    6.8989   -4.7747    0.0000 S   0  0  0  0  0  0  0  0  0  0  0  0
    8.0293   -4.0926    0.0000 C   0  0  0  0  0  0  0  0  0  0  0  0
    9.1986   -4.7747    0.0000 C   0  0  0  0  0  0  0  0  0  0  0  0
   10.3289   -4.0926    0.0000 C   0  0  0  0  0  0  0  0  0  0  0  0
   10.3289   -2.7479    0.0000 C   0  0  0  0  0  0  0  0  0  0  0  0
    9.1596   -2.1048    0.0000 C   0  0  0  0  0  0  0  0  0  0  0  0
    8.0293   -2.7479    0.0000 C   0  0  0  0  0  0  0  0  0  0  0  0
   11.4788   -2.1048    0.0000 C   0  0  0  0  0  0  0  0  0  0  0  0
   12.6091   -2.7479    0.0000 C   0  0  0  0  0  0  0  0  0  0  0  0
   13.7784   -2.0658    0.0000 N   0  0  0  0  0  0  0  0  0  0  0  0
   14.9282   -2.7089    0.0000 C   0  0  0  0  0  0  0  0  0  0  0  0
   14.9282   -4.0341    0.0000 O   0  0  0  0  0  0  0  0  0  0  0  0
    4.5798   -6.0999    0.0000 O   0  0  0  0  0  0  0  0  0  0  0  0
    6.0804   -5.8466    0.0000 O   0  0  0  0  0  0  0  0  0  0  0  0
    7.7370   -5.8661    0.0000 O   0  0  0  0  0  0  0  0  0  0  0  0
   16.0586   -2.0463    0.0000 C   0  0  0  0  0  0  0  0  0  0  0  0
   17.2084   -2.6894    0.0000 N   0  0  0  0  0  0  0  0  0  0  0  0
   17.1889   -0.0390    0.0000 N   0  0  0  0  0  0  0  0  0  0  0  0
   16.0586   -0.7211    0.0000 C   0  0  0  0  0  0  0  0  0  0  0  0
   18.3582   -2.0073    0.0000 C   0  0  0  0  0  0  0  0  0  0  0  0
   18.3387   -0.6821    0.0000 C   0  0  0  0  0  0  0  0  0  0  0  0
   19.4885    0.0000    0.0000 C   0  0  0  0  0  0  0  0  0  0  0  0
  1  6  1  0  0  0  0
  1  2  1  0  0  0  0
  2  3  1  0  0  0  0
  3  4  1  0  0  0  0
  4  5  1  0  0  0  0
  5  6  1  0  0  0  0
  5  7  1  0  0  0  0
  7  8  1  0  0  0  0
  8  9  1  0  0  0  0
  8 22  2  0  0  0  0
  9 10  1  0  0  0  0
 10 11  1  0  0  0  0
 10 23  2  0  0  0  0
 10 24  2  0  0  0  0
 11 12  2  0  0  0  0
 11 16  1  0  0  0  0
 12 13  1  0  0  0  0
 13 14  2  0  0  0  0
 14 15  1  0  0  0  0
 14 17  1  0  0  0  0
 15 16  2  0  0  0  0
 17 18  1  0  0  0  0
 18 19  1  0  0  0  0
 19 20  1  0  0  0  0
 20 21  2  0  0  0  0
 20 25  1  0  0  0  0
 25 26  1  0  0  0  0
 25 28  2  0  0  0  0
 26 29  2  0  0  0  0
 27 28  1  0  0  0  0
 27 30  2  0  0  0  0
 29 30  1  0  0  0  0
 30 31  1  0  0  0  0
M  END
> <ID>
7875

> <Formula>
C21H27N5O4S

> <FW>
445.5352

> <DSSTox_CID>
20676

> <DSSTox_RID>
79535

> <DSSTox_GSID>
40676

> <DSSTox_FileID_Sort>
4217

> <TS_ChemName>
Glipizide

> <TS_ChemName_Synonyms>


> <TS_CASRN>
29094-61-9

> <CASRN_ChemName_Relationship>
primary

> <TS_Description>
single chemical compound

> <ChemNote>


> <STRUCTURE_Shown>
tested chemical

> <STRUCTURE_Formula>
C21H27N5O4S

> <STRUCTURE_MW>
445.5352

> <STRUCTURE_ChemType>
defined organic

> <STRUCTURE_DefinedOrganicForm>
parent

> <STRUCTURE_IUPAC>
N-(2-{4-[(cyclohexylcarbamoyl)sulfamoyl]phenyl}ethyl)-5-methylpyrazine-2-carboxamide

> <STRUCTURE_SMILES>
Cc1cnc(cn1)C(=O)NCCc2ccc(cc2)S(=O)(=O)NC(=O)NC3CCCCC3

> <STRUCTURE_SMILES_Desalt>
Cc1cnc(cn1)C(=O)NCCc2ccc(cc2)S(=O)(=O)NC(=O)NC3CCCCC3

> <Substance_modify_yyyymmdd>
20080429

$$$$
