29091-21-2
ChemmineR-0915142007XD

 24 24  0  0  0  0  0  0  0  0  2 V2000
    4.6171   -4.6450    0.0000 C   0  0  0  0  0  0  0  0  0  0  0  0
    4.6171   -5.9761    0.0000 C   0  0  0  0  0  0  0  0  0  0  0  0
    3.4628   -3.9934    0.0000 C   0  0  0  0  0  0  0  0  0  0  0  0
    3.4628   -6.6463    0.0000 C   0  0  0  0  0  0  0  0  0  0  0  0
    2.3085   -4.6450    0.0000 C   0  0  0  0  0  0  0  0  0  0  0  0
    2.3085   -5.9761    0.0000 C   0  0  0  0  0  0  0  0  0  0  0  0
    3.4628   -2.6623    0.0000 N   0  0  0  0  0  0  0  0  0  0  0  0
    5.7713   -6.6463    0.0000 N   0  0  0  0  0  0  0  0  0  0  0  0
    4.6171   -1.9827    0.0000 C   0  0  0  0  0  0  0  0  0  0  0  0
    2.3085   -1.9827    0.0000 C   0  0  0  0  0  0  0  0  0  0  0  0
    4.6171   -0.6609    0.0000 C   0  0  0  0  0  0  0  0  0  0  0  0
    5.7713    0.0000    0.0000 C   0  0  0  0  0  0  0  0  0  0  0  0
    2.3085   -0.6609    0.0000 C   0  0  0  0  0  0  0  0  0  0  0  0
    1.1543    0.0000    0.0000 C   0  0  0  0  0  0  0  0  0  0  0  0
    3.4628   -7.9775    0.0000 C   0  0  0  0  0  0  0  0  0  0  0  0
    2.1317   -7.9775    0.0000 F   0  0  0  0  0  0  0  0  0  0  0  0
    4.7939   -7.9775    0.0000 F   0  0  0  0  0  0  0  0  0  0  0  0
    3.4628   -9.3086    0.0000 F   0  0  0  0  0  0  0  0  0  0  0  0
    5.7713   -3.9934    0.0000 N   0  3  0  0  0  0  0  0  0  0  0  0
    6.9256   -4.6450    0.0000 O   0  5  0  0  0  0  0  0  0  0  0  0
    5.7713   -2.6623    0.0000 O   0  0  0  0  0  0  0  0  0  0  0  0
    1.1543   -3.9934    0.0000 N   0  3  0  0  0  0  0  0  0  0  0  0
    0.0000   -4.6450    0.0000 O   0  5  0  0  0  0  0  0  0  0  0  0
    1.1543   -2.6623    0.0000 O   0  0  0  0  0  0  0  0  0  0  0  0
  1  2  1  0  0  0  0
  1  3  2  0  0  0  0
  1 19  1  0  0  0  0
  2  4  2  0  0  0  0
  2  8  1  0  0  0  0
  3  5  1  0  0  0  0
  3  7  1  0  0  0  0
  4  6  1  0  0  0  0
  4 15  1  0  0  0  0
  5  6  2  0  0  0  0
  5 22  1  0  0  0  0
  7  9  1  0  0  0  0
  7 10  1  0  0  0  0
  9 11  1  0  0  0  0
 10 13  1  0  0  0  0
 11 12  1  0  0  0  0
 13 14  1  0  0  0  0
 15 16  1  0  0  0  0
 15 17  1  0  0  0  0
 15 18  1  0  0  0  0
 19 20  1  0  0  0  0
 19 21  2  0  0  0  0
 22 23  1  0  0  0  0
 22 24  2  0  0  0  0
M  END
> <ID>
6682

> <Formula>
C13H17F3N4O4

> <FW>
350.2937

> <DSSTox_CID>
14210

> <DSSTox_RID>
79123

> <DSSTox_GSID>
34210

> <DSSTox_FileID_Sort>
3805

> <TS_ChemName>
Prodiamine

> <TS_ChemName_Synonyms>
Prodiamine (1,3-Benzenediamine, 2,6-dinitro-N1,N1-dipropyl-4-(trifluoromethyl)-)

> <TS_CASRN>
29091-21-2

> <CASRN_ChemName_Relationship>
primary

> <TS_Description>
single chemical compound

> <ChemNote>


> <STRUCTURE_Shown>
tested chemical

> <STRUCTURE_Formula>
C13H17F3N4O4

> <STRUCTURE_MW>
350.2937

> <STRUCTURE_ChemType>
defined organic

> <STRUCTURE_DefinedOrganicForm>
parent

> <STRUCTURE_IUPAC>
2,6-dinitro-N,N-dipropyl-4-(trifluoromethyl)benzene-1,3-diamine

> <STRUCTURE_SMILES>
[O-][N+](=O)c1cc(c(N)c([N+]([O-])=O)c1N(CCC)CCC)C(F)(F)F

> <STRUCTURE_SMILES_Desalt>
[O-][N+](=O)c1cc(c(N)c([N+]([O-])=O)c1N(CCC)CCC)C(F)(F)F

> <Substance_modify_yyyymmdd>
20080429

$$$$
