29091-09-6
ChemmineR-0915142007XD

 18 18  0  0  0  0  0  0  0  0  2 V2000
    4.6264   -2.0006    0.0000 C    0  0  0  0  0  0  0  0  0  0  0  0
    4.6264   -3.3413    0.0000 C    0  0  0  0  0  0  0  0  0  0  0  0
    3.4663   -3.9803    0.0000 C    0  0  0  0  0  0  0  0  0  0  0  0
    2.3201   -3.3413    0.0000 C    0  0  0  0  0  0  0  0  0  0  0  0
    2.3201   -2.0006    0.0000 C    0  0  0  0  0  0  0  0  0  0  0  0
    3.4663   -1.3407    0.0000 C    0  0  0  0  0  0  0  0  0  0  0  0
    3.4663    0.0000    0.0000 Cl   0  0  0  0  0  0  0  0  0  0  0  0
    1.1601   -4.0012    0.0000 Cl   0  0  0  0  0  0  0  0  0  0  0  0
    5.7864   -1.3407    0.0000 N    0  3  0  0  0  0  0  0  0  0  0  0
    5.7864    0.0000    0.0000 O    0  5  0  0  0  0  0  0  0  0  0  0
    6.9465   -2.0006    0.0000 O    0  0  0  0  0  0  0  0  0  0  0  0
    1.1601   -1.3407    0.0000 N    0  3  0  0  0  0  0  0  0  0  0  0
    0.0000   -2.0006    0.0000 O    0  5  0  0  0  0  0  0  0  0  0  0
    1.1601    0.0000    0.0000 O    0  0  0  0  0  0  0  0  0  0  0  0
    3.4663   -5.3210    0.0000 C    0  0  0  0  0  0  0  0  0  0  0  0
    3.4316   -6.5783    0.0000 F    0  0  0  0  0  0  0  0  0  0  0  0
    4.6264   -5.9948    0.0000 F    0  0  0  0  0  0  0  0  0  0  0  0
    2.3201   -5.9948    0.0000 F    0  0  0  0  0  0  0  0  0  0  0  0
  1  2  2  0  0  0  0
  1  6  1  0  0  0  0
  1  9  1  0  0  0  0
  2  3  1  0  0  0  0
  3  4  2  0  0  0  0
  3 15  1  0  0  0  0
  4  5  1  0  0  0  0
  4  8  1  0  0  0  0
  5  6  2  0  0  0  0
  5 12  1  0  0  0  0
  6  7  1  0  0  0  0
  9 10  1  0  0  0  0
  9 11  2  0  0  0  0
 12 13  1  0  0  0  0
 12 14  2  0  0  0  0
 15 16  1  0  0  0  0
 15 17  1  0  0  0  0
 15 18  1  0  0  0  0
M  END
> <ID>
10292

> <Formula>
C7HCl2F3N2O4

> <FW>
304.995

> <DSSTox_CID>
24639

> <DSSTox_RID>
80369

> <DSSTox_GSID>
44639

> <DSSTox_FileID_Sort>
5051

> <TS_ChemName>
2,4-Dichloro-1,3-dinitro-5-(trifluoromethyl)benzene

> <TS_ChemName_Synonyms>
Benzene, 2,4-dichloro-1,3-dinitro-5-(trifluoromethyl)-

> <TS_CASRN>
29091-09-6

> <CASRN_ChemName_Relationship>
primary

> <TS_Description>
single chemical compound

> <ChemNote>


> <STRUCTURE_Shown>
tested chemical

> <STRUCTURE_Formula>
C7HCl2F3N2O4

> <STRUCTURE_MW>
304.995

> <STRUCTURE_ChemType>
defined organic

> <STRUCTURE_DefinedOrganicForm>
parent

> <STRUCTURE_IUPAC>
2,4-dichloro-1,3-dinitro-5-(trifluoromethyl)benzene

> <STRUCTURE_SMILES>
O=[N+]([O-])c1c(Cl)c(cc([N+]([O-])=O)c1Cl)C(F)(F)F

> <STRUCTURE_SMILES_Desalt>
O=[N+]([O-])c1c(Cl)c(cc([N+]([O-])=O)c1Cl)C(F)(F)F

> <Substance_modify_yyyymmdd>
20091116

$$$$
