291305-06-1
ChemmineR-0915142007XD

 24 26  0  0  1  0  0  0  0  0  1 V2000
    4.6137   -3.9945    0.0000 C    0  0  0  0  0  0  0  0  0  0  0  0
    4.6137   -2.6564    0.0000 C    0  0  0  0  0  0  0  0  0  0  0  0
    5.7521   -4.6636    0.0000 C    0  0  0  0  0  0  0  0  0  0  0  0
    3.4653   -4.6636    0.0000 C    0  0  0  0  0  0  0  0  0  0  0  0
    5.7521   -2.0073    0.0000 C    0  0  0  0  0  0  0  0  0  0  0  0
    3.4653   -2.0073    0.0000 C    0  0  0  0  0  0  0  0  0  0  0  0
    5.7521   -5.9918    0.0000 C    0  0  0  0  0  0  0  0  0  0  0  0
    6.9105   -3.9945    0.0000 C    0  0  0  0  0  0  0  0  0  0  0  0
    2.3068   -3.9945    0.0000 C    0  0  0  0  0  0  0  0  0  0  0  0
    6.9105   -2.6564    0.0000 C    0  0  0  0  0  0  0  0  0  0  0  0
    5.7521   -0.6691    0.0000 N    0  0  0  0  0  0  0  0  0  0  0  0
    2.3068   -2.6564    0.0000 C    0  0  0  0  0  0  0  0  0  0  0  0
    6.9105   -6.6509    0.0000 C    0  0  0  0  0  0  0  0  0  0  0  0
    4.6137   -6.6509    0.0000 C    0  0  0  0  0  0  0  0  0  0  0  0
    6.9105    0.0000    0.0000 C    0  0  0  0  0  0  0  0  0  0  0  0
    1.1584   -2.0073    0.0000 S    0  0  0  0  0  0  0  0  0  0  0  0
    6.9105   -7.9791    0.0000 C    0  0  0  0  0  0  0  0  0  0  0  0
    4.6137   -7.9791    0.0000 C    0  0  0  0  0  0  0  0  0  0  0  0
    1.8075   -0.8488    0.0000 N    0  0  0  0  0  0  0  0  0  0  0  0
    0.4793   -3.1457    0.0000 O    0  0  0  0  0  0  0  0  0  0  0  0
    0.0000   -1.3282    0.0000 O    0  0  0  0  0  0  0  0  0  0  0  0
    5.7521   -8.6582    0.0000 C    0  0  0  0  0  0  0  0  0  0  0  0
    8.0590   -8.6582    0.0000 Cl   0  0  0  0  0  0  0  0  0  0  0  0
    5.7521   -9.9863    0.0000 Cl   0  0  0  0  0  0  0  0  0  0  0  0
  1  2  1  0  0  0  0
  1  3  1  0  0  0  0
  1  4  2  0  0  0  0
  2  5  1  0  0  0  0
  2  6  2  0  0  0  0
  3  7  1  1  0  0  0
  3  8  1  0  0  0  0
  4  9  1  0  0  0  0
  5 10  1  0  0  0  0
  5 11  1  1  0  0  0
  6 12  1  0  0  0  0
  7 13  1  0  0  0  0
  7 14  2  0  0  0  0
  8 10  1  0  0  0  0
  9 12  2  0  0  0  0
 11 15  1  0  0  0  0
 12 16  1  0  0  0  0
 13 17  2  0  0  0  0
 14 18  1  0  0  0  0
 16 19  1  0  0  0  0
 16 20  2  0  0  0  0
 16 21  2  0  0  0  0
 17 22  1  0  0  0  0
 17 23  1  0  0  0  0
 18 22  2  0  0  0  0
 22 24  1  0  0  0  0
M  END
> <ID>
12437

> <Formula>
C17H18Cl2N2O2S

> <FW>
385.308

> <DSSTox_CID>
27295

> <DSSTox_RID>
82248

> <DSSTox_GSID>
47295

> <DSSTox_FileID_Sort>
6929

> <TS_ChemName>
UK-373911

> <TS_ChemName_Synonyms>


> <TS_CASRN>
291305-06-1

> <CASRN_ChemName_Relationship>
primary

> <TS_Description>
single chemical compound

> <ChemNote>
stereochem

> <STRUCTURE_Shown>
tested chemical

> <STRUCTURE_Formula>
C17H18Cl2N2O2S

> <STRUCTURE_MW>
385.308

> <STRUCTURE_ChemType>
defined organic

> <STRUCTURE_DefinedOrganicForm>
parent

> <STRUCTURE_IUPAC>
(5S,8S)-5-(3,4-dichlorophenyl)-8-(methylamino)-5,6,7,8-tetrahydronaphthalene-2-sulfonamide

> <STRUCTURE_SMILES>
NS(=O)(=O)c1ccc2c(c1)[C@H](CC[C@H]2c3ccc(Cl)c(Cl)c3)NC

> <STRUCTURE_SMILES_Desalt>
NS(=O)(=O)c1ccc2c(c1)[C@H](CC[C@H]2c3ccc(Cl)c(Cl)c3)NC

> <Substance_modify_yyyymmdd>
20130910

$$$$
