2917-73-9
ChemmineR-0915142007XD

 21 20  0  0  0  0  0  0  0  0  1 V2000
    5.7746   -1.3709    0.0000 C   0  0  0  0  0  0  0  0  0  0  0  0
    6.9378   -2.0149    0.0000 C   0  0  0  0  0  0  0  0  0  0  0  0
    8.0803   -1.3502    0.0000 C   0  0  0  0  0  0  0  0  0  0  0  0
    9.2435   -1.9941    0.0000 C   0  0  0  0  0  0  0  0  0  0  0  0
   10.3860   -1.3502    0.0000 C   0  0  0  0  0  0  0  0  0  0  0  0
   11.5284   -1.9941    0.0000 C   0  0  0  0  0  0  0  0  0  0  0  0
   12.6916   -1.3294    0.0000 C   0  0  0  0  0  0  0  0  0  0  0  0
   13.8341   -1.9941    0.0000 C   0  0  0  0  0  0  0  0  0  0  0  0
   14.9973   -1.3294    0.0000 C   0  0  0  0  0  0  0  0  0  0  0  0
    5.7746   -0.0208    0.0000 O   0  0  0  0  0  0  0  0  0  0  0  0
    4.6321   -2.0149    0.0000 O   0  0  0  0  0  0  0  0  0  0  0  0
   14.9973    0.0000    0.0000 O   0  0  0  0  0  0  0  0  0  0  0  0
   16.1398   -1.9941    0.0000 O   0  0  0  0  0  0  0  0  0  0  0  0
    3.4689   -1.3709    0.0000 C   0  0  0  0  0  0  0  0  0  0  0  0
    2.3057   -2.0356    0.0000 C   0  0  0  0  0  0  0  0  0  0  0  0
    1.1632   -1.3709    0.0000 C   0  0  0  0  0  0  0  0  0  0  0  0
    0.0000   -2.0356    0.0000 C   0  0  0  0  0  0  0  0  0  0  0  0
   17.3030   -1.3086    0.0000 C   0  0  0  0  0  0  0  0  0  0  0  0
   18.4662   -1.9733    0.0000 C   0  0  0  0  0  0  0  0  0  0  0  0
   19.6087   -1.3086    0.0000 C   0  0  0  0  0  0  0  0  0  0  0  0
   20.7719   -1.9733    0.0000 C   0  0  0  0  0  0  0  0  0  0  0  0
  1  2  1  0  0  0  0
  1 11  1  0  0  0  0
  1 10  2  0  0  0  0
  2  3  1  0  0  0  0
  3  4  1  0  0  0  0
  4  5  1  0  0  0  0
  5  6  1  0  0  0  0
  6  7  1  0  0  0  0
  7  8  1  0  0  0  0
  8  9  1  0  0  0  0
  9 13  1  0  0  0  0
  9 12  2  0  0  0  0
 11 14  1  0  0  0  0
 13 18  1  0  0  0  0
 14 15  1  0  0  0  0
 15 16  1  0  0  0  0
 16 17  1  0  0  0  0
 18 19  1  0  0  0  0
 19 20  1  0  0  0  0
 20 21  1  0  0  0  0
M  END
> <ID>
10463

> <Formula>
C17H32O4

> <FW>
300.4336

> <DSSTox_CID>
24815

> <DSSTox_RID>
80496

> <DSSTox_GSID>
44815

> <DSSTox_FileID_Sort>
5178

> <TS_ChemName>
Dibutyl nonanedioate

> <TS_ChemName_Synonyms>
Dibutyl nonanedioate (Nonanedioic acid, dibutyl ester) (Dibutyl azelaate)

> <TS_CASRN>
2917-73-9

> <CASRN_ChemName_Relationship>
primary

> <TS_Description>
single chemical compound

> <ChemNote>


> <STRUCTURE_Shown>
tested chemical

> <STRUCTURE_Formula>
C17H32O4

> <STRUCTURE_MW>
300.4336

> <STRUCTURE_ChemType>
defined organic

> <STRUCTURE_DefinedOrganicForm>
parent

> <STRUCTURE_IUPAC>
dibutyl nonanedioate

> <STRUCTURE_SMILES>
O=C(CCCCCCCC(=O)OCCCC)OCCCC

> <STRUCTURE_SMILES_Desalt>
O=C(CCCCCCCC(=O)OCCCC)OCCCC

> <Substance_modify_yyyymmdd>
20091116

$$$$
