2919-66-6
ChemmineR-0915142007XD

 32 35  0  0  1  0  0  0  0  0  1 V2000
    6.9334   -2.4106    0.0000 C   0  0  0  0  0  0  0  0  0  0  0  0
    8.1983   -2.0168    0.0000 C   0  0  0  0  0  0  0  0  0  0  0  0
    3.5085   -5.6923    0.0000 C   0  0  0  0  0  0  0  0  0  0  0  0
    3.5085   -4.3915    0.0000 C   0  0  0  0  0  0  0  0  0  0  0  0
    6.9334   -3.7829    0.0000 C   0  0  0  0  0  0  0  0  0  0  0  0
    5.8116   -4.3915    0.0000 C   0  0  0  0  0  0  0  0  0  0  0  0
    8.9740   -3.1027    0.0000 C   0  0  0  0  0  0  0  0  0  0  0  0
    5.8116   -5.6923    0.0000 C   0  0  0  0  0  0  0  0  0  0  0  0
    4.6421   -3.7829    0.0000 C   0  0  0  0  0  0  0  0  0  0  0  0
    4.6421   -6.3725    0.0000 C   0  0  0  0  0  0  0  0  0  0  0  0
    8.1983   -4.1648    0.0000 C   0  0  0  0  0  0  0  0  0  0  0  0
    2.3509   -6.3725    0.0000 C   0  0  0  0  0  0  0  0  0  0  0  0
    5.8116   -1.7542    0.0000 C   0  0  0  0  0  0  0  0  0  0  0  0
    9.5349   -2.0884    0.0000 O   0  0  0  0  0  0  0  0  0  0  0  0
    4.6421   -2.4106    0.0000 C   0  0  0  0  0  0  0  0  0  0  0  0
    2.3509   -3.7829    0.0000 C   0  0  0  0  0  0  0  0  0  0  0  0
    8.1983   -0.6563    0.0000 C   0  0  0  0  0  0  0  0  0  0  0  0
   10.6924   -1.4201    0.0000 C   0  0  0  0  0  0  0  0  0  0  0  0
    1.2053   -5.6923    0.0000 C   0  0  0  0  0  0  0  0  0  0  0  0
   10.3105   -3.1027    0.0000 C   0  0  0  0  0  0  0  0  0  0  0  0
   10.6924   -0.0358    0.0000 O   0  0  0  0  0  0  0  0  0  0  0  0
    7.0408    0.0000    0.0000 O   0  0  0  0  0  0  0  0  0  0  0  0
    0.0000   -6.3486    0.0000 O   0  0  0  0  0  0  0  0  0  0  0  0
    6.9334   -1.0740    0.0000 C   0  0  0  0  0  0  0  0  0  0  0  0
    1.2053   -4.3915    0.0000 C   0  0  0  0  0  0  0  0  0  0  0  0
    3.5085   -3.0550    0.0000 C   0  0  0  0  0  0  0  0  0  0  0  0
    4.6421   -7.7210    0.0000 C   0  0  0  0  0  0  0  0  0  0  0  0
   11.9335   -1.9929    0.0000 C   0  0  0  0  0  0  0  0  0  0  0  0
    9.3439    0.0000    0.0000 C   0  0  0  0  0  0  0  0  0  0  0  0
    5.8116   -3.0550    0.0000 H   0  0  0  0  0  0  0  0  0  0  0  0
    6.9334   -5.0956    0.0000 H   0  0  0  0  0  0  0  0  0  0  0  0
    4.6421   -5.0956    0.0000 H   0  0  0  0  0  0  0  0  0  0  0  0
  1  2  1  0  0  0  0
  1  5  1  0  0  0  0
  1 13  1  0  0  0  0
  1 24  1  1  0  0  0
  2  7  1  0  0  0  0
  2 14  1  6  0  0  0
  2 17  1  1  0  0  0
  3  4  1  0  0  0  0
  3 12  2  0  0  0  0
  3 10  1  0  0  0  0
  4  9  1  0  0  0  0
  4 16  1  0  0  0  0
  4 26  1  1  0  0  0
  5  6  1  0  0  0  0
  5 11  1  0  0  0  0
  5 31  1  6  0  0  0
  6  8  1  0  0  0  0
  6  9  1  0  0  0  0
  6 30  1  1  0  0  0
  7 20  2  0  0  0  0
  7 11  1  0  0  0  0
  8 10  2  0  0  0  0
  9 15  1  0  0  0  0
  9 32  1  6  0  0  0
 10 27  1  0  0  0  0
 12 19  1  0  0  0  0
 13 15  1  0  0  0  0
 14 18  1  0  0  0  0
 16 25  1  0  0  0  0
 17 22  2  0  0  0  0
 17 29  1  0  0  0  0
 18 21  2  0  0  0  0
 18 28  1  0  0  0  0
 19 25  1  0  0  0  0
 19 23  2  0  0  0  0
M  END
> <ID>
13245

> <Formula>
C25H32O4

> <FW>
396.5192

> <DSSTox_CID>
28158

> <DSSTox_RID>
82720

> <DSSTox_GSID>
48184

> <DSSTox_FileID_Sort>
7397

> <TS_ChemName>
Melengestrol acetate

> <TS_ChemName_Synonyms>


> <TS_CASRN>
2919-66-6

> <CASRN_ChemName_Relationship>
primary

> <TS_Description>
single chemical compound

> <ChemNote>
stereochem

> <STRUCTURE_Shown>
tested chemical

> <STRUCTURE_Formula>
C25H32O4

> <STRUCTURE_MW>
396.5192

> <STRUCTURE_ChemType>
defined organic

> <STRUCTURE_DefinedOrganicForm>
parent

> <STRUCTURE_IUPAC>
6-methyl-16-methylidene-3,20-dioxopregna-4,6-dien-17-yl acetate

> <STRUCTURE_SMILES>
CC(=O)[C@@]3(OC(C)=O)C(=C)C[C@H]2[C@@H]4C=C(C)C1=CC(=O)CC[C@]1(C)[C@H]4CC[C@@]23C

> <STRUCTURE_SMILES_Desalt>
CC(=O)[C@@]3(OC(C)=O)C(=C)C[C@H]2[C@@H]4C=C(C)C1=CC(=O)CC[C@]1(C)[C@H]4CC[C@@]23C

> <Substance_modify_yyyymmdd>
20110627

$$$$
