2920-86-7
ChemmineR-0915142007XD

 36 39  0  0  1  0  0  0  0  0  1 V2000
    6.9191   -5.7433    0.0000 C   0  0  0  0  0  0  0  0  0  0  0  0
    6.9191   -7.0698    0.0000 C   0  0  0  0  0  0  0  0  0  0  0  0
    8.1853   -5.3212    0.0000 C   0  0  0  0  0  0  0  0  0  0  0  0
    5.7584   -5.0649    0.0000 C   0  0  0  0  0  0  0  0  0  0  0  0
    5.7584   -7.7331    0.0000 C   0  0  0  0  0  0  0  0  0  0  0  0
    8.1853   -7.4768    0.0000 C   0  0  0  0  0  0  0  0  0  0  0  0
    8.9692   -6.4066    0.0000 C   0  0  0  0  0  0  0  0  0  0  0  0
    8.1853   -3.9947    0.0000 C   0  0  0  0  0  0  0  0  0  0  0  0
    9.3159   -4.6579    0.0000 O   0  0  0  0  0  0  0  0  0  0  0  0
    4.6127   -5.7433    0.0000 C   0  0  0  0  0  0  0  0  0  0  0  0
    4.6127   -7.0698    0.0000 C   0  0  0  0  0  0  0  0  0  0  0  0
    5.7584   -9.0445    0.0000 C   0  0  0  0  0  0  0  0  0  0  0  0
    9.3159   -3.3163    0.0000 C   0  0  0  0  0  0  0  0  0  0  0  0
    7.0095   -3.3163    0.0000 O   0  0  0  0  0  0  0  0  0  0  0  0
    3.4671   -5.0649    0.0000 O   0  0  0  0  0  0  0  0  0  0  0  0
    3.4671   -7.7331    0.0000 C   0  0  0  0  0  0  0  0  0  0  0  0
    4.6127   -9.7380    0.0000 C   0  0  0  0  0  0  0  0  0  0  0  0
    9.3159   -1.9898    0.0000 O   0  0  0  0  0  0  0  0  0  0  0  0
    3.4671   -9.0445    0.0000 C   0  0  0  0  0  0  0  0  0  0  0  0
    2.3214   -7.0698    0.0000 C   0  0  0  0  0  0  0  0  0  0  0  0
    3.4671   -6.4066    0.0000 C   0  0  0  0  0  0  0  0  0  0  0  0
   10.4766   -1.3416    0.0000 C   0  0  0  0  0  0  0  0  0  0  0  0
    2.3214   -9.7380    0.0000 C   0  0  0  0  0  0  0  0  0  0  0  0
    1.1607   -7.7331    0.0000 C   0  0  0  0  0  0  0  0  0  0  0  0
   11.6222   -1.9898    0.0000 C   0  0  0  0  0  0  0  0  0  0  0  0
   10.4766    0.0000    0.0000 O   0  0  0  0  0  0  0  0  0  0  0  0
    1.1607   -9.0445    0.0000 C   0  0  0  0  0  0  0  0  0  0  0  0
   12.7679   -1.3416    0.0000 C   0  0  0  0  0  0  0  0  0  0  0  0
    0.0000   -9.7380    0.0000 O   0  0  0  0  0  0  0  0  0  0  0  0
   13.9286   -1.9898    0.0000 C   0  0  0  0  0  0  0  0  0  0  0  0
   13.9286   -3.3163    0.0000 O   0  0  0  0  0  0  0  0  0  0  0  0
   15.0742   -1.3416    0.0000 O   0  0  0  0  0  0  0  0  0  0  0  0
    6.9191   -4.4168    0.0000 C   0  0  0  0  0  0  0  0  0  0  0  0
    4.6127   -8.4114    0.0000 H   0  0  0  0  0  0  0  0  0  0  0  0
    5.7584   -6.4066    0.0000 H   0  0  0  0  0  0  0  0  0  0  0  0
    6.9191   -8.4114    0.0000 H   0  0  0  0  0  0  0  0  0  0  0  0
  1  2  1  0  0  0  0
  1  3  1  0  0  0  0
  1  4  1  0  0  0  0
  1 33  1  1  0  0  0
  2  5  1  0  0  0  0
  2  6  1  0  0  0  0
  2 36  1  6  0  0  0
  3  7  1  0  0  0  0
  3  8  1  0  0  0  0
  3  9  1  6  0  0  0
  4 10  1  0  0  0  0
  5 11  1  0  0  0  0
  5 12  1  0  0  0  0
  5 35  1  1  0  0  0
  6  7  1  0  0  0  0
  8 13  1  0  0  0  0
  8 14  2  0  0  0  0
 10 15  1  1  0  0  0
 10 11  1  0  0  0  0
 11 16  1  0  0  0  0
 11 34  1  6  0  0  0
 12 17  1  0  0  0  0
 13 18  1  0  0  0  0
 16 19  1  0  0  0  0
 16 20  1  0  0  0  0
 16 21  1  1  0  0  0
 17 19  1  0  0  0  0
 18 22  1  0  0  0  0
 19 23  2  0  0  0  0
 20 24  2  0  0  0  0
 22 25  1  0  0  0  0
 22 26  2  0  0  0  0
 23 27  1  0  0  0  0
 24 27  1  0  0  0  0
 25 28  1  0  0  0  0
 27 29  2  0  0  0  0
 28 30  1  0  0  0  0
 30 31  1  0  0  0  0
 30 32  2  0  0  0  0
M  END
> <ID>
13952

> <Formula>
C25H32O8

> <FW>
460.5168

> <DSSTox_CID>
28890

> <DSSTox_RID>
83158

> <DSSTox_GSID>
48964

> <DSSTox_FileID_Sort>
7835

> <TS_ChemName>
Prednisolone 21-hemisuccinate

> <TS_ChemName_Synonyms>


> <TS_CASRN>
2920-86-7

> <CASRN_ChemName_Relationship>
primary

> <TS_Description>
single chemical compound

> <ChemNote>


> <STRUCTURE_Shown>
tested chemical

> <STRUCTURE_Formula>
C25H32O8

> <STRUCTURE_MW>
460.5168

> <STRUCTURE_ChemType>
defined organic

> <STRUCTURE_DefinedOrganicForm>
parent

> <STRUCTURE_IUPAC>
4-{[(11beta)-11,17-dihydroxy-3,20-dioxopregna-1,4-dien-21-yl]oxy}-4-oxobutanoic acid

> <STRUCTURE_SMILES>
O=C(O)CCC(=O)OCC(=O)[C@@]4(O)CC[C@@H]3[C@]4(C)C[C@H](O)[C@H]2[C@H]3CCC1=CC(=O)C=C[C@@]12C

> <STRUCTURE_SMILES_Desalt>
O=C(O)CCC(=O)OCC(=O)[C@@]4(O)CC[C@@H]3[C@]4(C)C[C@H](O)[C@H]2[C@H]3CCC1=CC(=O)C=C[C@@]12C

> <Substance_modify_yyyymmdd>
20111204

$$$$
