2922-44-3
ChemmineR-0915142007XD

 39 41  0  0  1  0  0  0  0  0  1 V2000
    4.0351   -2.2483    0.0000 C   0  0  0  0  0  0  0  0  0  0  0  0
    4.0351   -3.5973    0.0000 C   0  0  0  0  0  0  0  0  0  0  0  0
    2.8399   -1.5856    0.0000 N   0  0  0  0  0  0  0  0  0  0  0  0
    5.3367   -3.5973    0.0000 C   0  0  0  0  0  0  0  0  0  0  0  0
    7.3602   -2.4494    0.0000 N   0  0  0  0  0  0  0  0  0  0  0  0
    6.0112   -2.4494    0.0000 C   0  0  0  0  0  0  0  0  0  0  0  0
    5.1592   -1.5856    0.0000 O   0  0  0  0  0  0  0  0  0  0  0  0
    2.6861   -3.5973    0.0000 C   0  0  0  0  0  0  0  0  0  0  0  0
    4.0351   -4.8989    0.0000 C   0  0  0  0  0  0  0  0  0  0  0  0
    9.9989   -2.4494    0.0000 O   0  0  0  0  0  0  0  0  0  0  0  0
    1.6330   -2.1063    0.0000 C   0  0  0  0  0  0  0  0  0  0  0  0
    2.7453   -0.2485    0.0000 C   0  0  0  0  0  0  0  0  0  0  0  0
    6.0112   -4.7451    0.0000 C   0  0  0  0  0  0  0  0  0  0  0  0
    8.0228   -3.5973    0.0000 C   0  0  0  0  0  0  0  0  0  0  0  0
    8.0228   -1.2425    0.0000 C   0  0  0  0  0  0  0  0  0  0  0  0
    9.3718   -1.2425    0.0000 C   0  0  0  0  0  0  0  0  0  0  0  0
    9.3718   -3.5973    0.0000 C   0  0  0  0  0  0  0  0  0  0  0  0
    5.1592   -5.6207    0.0000 C   0  0  0  0  0  0  0  0  0  0  0  0
    1.9761   -4.7451    0.0000 C   0  0  0  0  0  0  0  0  0  0  0  0
    1.9761   -2.4494    0.0000 C   0  0  0  0  0  0  0  0  0  0  0  0
    2.8399   -5.6207    0.0000 C   0  0  0  0  0  0  0  0  0  0  0  0
    1.3963    0.0000    0.0000 C   0  0  0  0  0  0  0  0  0  0  0  0
    0.7810   -1.1478    0.0000 C   0  0  0  0  0  0  0  0  0  0  0  0
    2.8399   -6.9223    0.0000 C   0  0  0  0  0  0  0  0  0  0  0  0
    5.1592   -6.9223    0.0000 C   0  0  0  0  0  0  0  0  0  0  0  0
    0.6863   -4.7451    0.0000 C   0  0  0  0  0  0  0  0  0  0  0  0
    0.6863   -2.4494    0.0000 C   0  0  0  0  0  0  0  0  0  0  0  0
    0.0000   -3.5973    0.0000 C   0  0  0  0  0  0  0  0  0  0  0  0
    4.0351   -7.5850    0.0000 C   0  0  0  0  0  0  0  0  0  0  0  0
    1.7986  -10.4841    0.0000 C   0  0  0  0  0  0  0  0  0  0  0  0
    2.9464   -9.8688    0.0000 C   0  0  0  0  0  0  0  0  0  0  0  0
    4.0469  -10.4841    0.0000 C   0  0  0  0  0  0  0  0  0  0  0  0
    5.2539   -9.8688    0.0000 C   0  0  0  0  0  0  0  0  0  0  0  0
    2.9464   -8.5316    0.0000 O   0  0  0  0  0  0  0  0  0  0  0  0
    4.0469  -11.8331    0.0000 O   0  0  0  0  0  0  0  0  0  0  0  0
    1.7986  -11.8331    0.0000 O   0  0  0  0  0  0  0  0  0  0  0  0
    0.6035   -9.8688    0.0000 O   0  0  0  0  0  0  0  0  0  0  0  0
    5.2539   -8.5316    0.0000 O   0  0  0  0  0  0  0  0  0  0  0  0
    6.3662  -10.4841    0.0000 O   0  0  0  0  0  0  0  0  0  0  0  0
  1  2  1  0  0  0  0
  1  3  1  0  0  0  0
  1  7  2  0  0  0  0
  2  4  1  0  0  0  0
  2  8  1  0  0  0  0
  2  9  1  0  0  0  0
  3 11  1  0  0  0  0
  3 12  1  0  0  0  0
  4  6  1  0  0  0  0
  4 13  1  1  0  0  0
  5  6  1  0  0  0  0
  5 14  1  0  0  0  0
  5 15  1  0  0  0  0
  8 19  2  0  0  0  0
  8 20  1  0  0  0  0
  9 18  2  0  0  0  0
  9 21  1  0  0  0  0
 10 16  1  0  0  0  0
 10 17  1  0  0  0  0
 11 23  1  0  0  0  0
 12 22  1  0  0  0  0
 14 17  1  0  0  0  0
 15 16  1  0  0  0  0
 18 25  1  0  0  0  0
 19 26  1  0  0  0  0
 20 27  2  0  0  0  0
 21 24  2  0  0  0  0
 22 23  1  0  0  0  0
 24 29  1  0  0  0  0
 25 29  2  0  0  0  0
 26 28  2  0  0  0  0
 27 28  1  0  0  0  0
 30 36  2  0  0  0  0
 30 37  1  0  0  0  0
 30 31  1  0  0  0  0
 31 32  1  0  0  0  0
 31 34  1  6  0  0  0
 32 33  1  0  0  0  0
 32 35  1  6  0  0  0
 33 38  2  0  0  0  0
 33 39  1  0  0  0  0
M  END
> <ID>
13907

> <Formula>
C29H38N2O8

> <FW>
542.6206 (392.5338+150.0868)

> <DSSTox_CID>
28844

> <DSSTox_RID>
83113

> <DSSTox_GSID>
48918

> <DSSTox_FileID_Sort>
7790

> <TS_ChemName>
Dextromoramide tartrate

> <TS_ChemName_Synonyms>


> <TS_CASRN>
2922-44-3

> <CASRN_ChemName_Relationship>
primary

> <TS_Description>
single chemical compound

> <ChemNote>


> <STRUCTURE_Shown>
tested chemical

> <STRUCTURE_Formula>
C29H38N2O8

> <STRUCTURE_MW>
542.6206

> <STRUCTURE_ChemType>
defined organic

> <STRUCTURE_DefinedOrganicForm>
complex

> <STRUCTURE_IUPAC>
(2R,3R)-2,3-dihydroxybutanedioic acid - (3S)-3-methyl-4-(morpholin-4-yl)-2,2-diphenyl-1-(pyrrolidin-1-yl)butan-1-one (1:1)

> <STRUCTURE_SMILES>
O=C(O)[C@H](O)[C@@H](O)C(=O)O.C[C@H](CN1CCOCC1)C(c2ccccc2)(c3ccccc3)C(=O)N4CCCC4

> <STRUCTURE_SMILES_Desalt>
C[C@H](CN1CCOCC1)C(c2ccccc2)(c3ccccc3)C(=O)N4CCCC4

> <Substance_modify_yyyymmdd>
20111204

$$$$
