29232-93-7
ChemmineR-0915142007XD

 19 19  0  0  0  0  0  0  0  0  1 V2000
    3.4439   -2.0074    0.0000 N   0  0  0  0  0  0  0  0  0  0  0  0
    2.3020   -2.6520    0.0000 C   0  0  0  0  0  0  0  0  0  0  0  0
    6.9061   -2.6520    0.0000 P   0  0  0  0  0  0  0  0  0  0  0  0
    4.6041   -2.6520    0.0000 C   0  0  0  0  0  0  0  0  0  0  0  0
    2.3020   -3.9871    0.0000 N   0  0  0  0  0  0  0  0  0  0  0  0
    5.7459   -2.0074    0.0000 O   0  0  0  0  0  0  0  0  0  0  0  0
    4.6041   -3.9871    0.0000 C   0  0  0  0  0  0  0  0  0  0  0  0
    1.1418   -2.0074    0.0000 N   0  0  0  0  0  0  0  0  0  0  0  0
    6.2339   -3.8214    0.0000 S   0  0  0  0  0  0  0  0  0  0  0  0
    3.4439   -4.6685    0.0000 C   0  0  0  0  0  0  0  0  0  0  0  0
    7.5599   -1.5193    0.0000 O   0  0  0  0  0  0  0  0  0  0  0  0
    8.0479   -3.3426    0.0000 O   0  0  0  0  0  0  0  0  0  0  0  0
    1.1418   -0.6814    0.0000 C   0  0  0  0  0  0  0  0  0  0  0  0
    0.0000   -2.6520    0.0000 C   0  0  0  0  0  0  0  0  0  0  0  0
    3.4439   -5.9945    0.0000 C   0  0  0  0  0  0  0  0  0  0  0  0
    9.2082   -2.6520    0.0000 C   0  0  0  0  0  0  0  0  0  0  0  0
    8.8951   -1.5193    0.0000 C   0  0  0  0  0  0  0  0  0  0  0  0
    2.3020    0.0000    0.0000 C   0  0  0  0  0  0  0  0  0  0  0  0
    0.0000   -3.9871    0.0000 C   0  0  0  0  0  0  0  0  0  0  0  0
  1  2  2  0  0  0  0
  1  4  1  0  0  0  0
  2  5  1  0  0  0  0
  2  8  1  0  0  0  0
  3  6  1  0  0  0  0
  3  9  2  0  0  0  0
  3 11  1  0  0  0  0
  3 12  1  0  0  0  0
  4  6  1  0  0  0  0
  4  7  2  0  0  0  0
  5 10  2  0  0  0  0
  7 10  1  0  0  0  0
  8 13  1  0  0  0  0
  8 14  1  0  0  0  0
 10 15  1  0  0  0  0
 11 17  1  0  0  0  0
 12 16  1  0  0  0  0
 13 18  1  0  0  0  0
 14 19  1  0  0  0  0
M  END
> <ID>
3591

> <Formula>
C11H20N3O3PS

> <FW>
305.3336

> <DSSTox_CID>
4266

> <DSSTox_RID>
77347

> <DSSTox_GSID>
24266

> <DSSTox_FileID_Sort>
2030

> <TS_ChemName>
Pirimiphos-methyl

> <TS_ChemName_Synonyms>
Pirimiphos-methyl (Phosphorothioic acid, O-[2-(diethylamino)-6-methyl-4-pyrimidinyl]O,O-dimethyl ester)

> <TS_CASRN>
29232-93-7

> <CASRN_ChemName_Relationship>
primary

> <TS_Description>
single chemical compound

> <ChemNote>


> <STRUCTURE_Shown>
tested chemical

> <STRUCTURE_Formula>
C11H20N3O3PS

> <STRUCTURE_MW>
305.3336

> <STRUCTURE_ChemType>
defined organic

> <STRUCTURE_DefinedOrganicForm>
parent

> <STRUCTURE_IUPAC>
O-[2-(diethylamino)-6-methylpyrimidin-4-yl] O,O-dimethyl phosphorothioate

> <STRUCTURE_SMILES>
CCN(CC)c1nc(C)cc(OP(=S)(OC)OC)n1

> <STRUCTURE_SMILES_Desalt>
CCN(CC)c1nc(C)cc(OP(=S)(OC)OC)n1

> <Substance_modify_yyyymmdd>
20080429

$$$$
