292618-32-7
ChemmineR-0915142007XD

 33 37  0  0  1  0  0  0  0  0  1 V2000
   11.2182   -1.3028    0.0000 C   0  0  0  0  0  0  0  0  0  0  0  0
    9.8923   -1.3028    0.0000 C   0  0  0  0  0  0  0  0  0  0  0  0
    9.2236   -2.4558    0.0000 C   0  0  0  0  0  0  0  0  0  0  0  0
    8.5664   -1.3028    0.0000 O   0  0  0  0  0  0  0  0  0  0  0  0
   10.3766   -3.1245    0.0000 C   0  0  0  0  0  0  0  0  0  0  0  0
   11.5295   -2.4558    0.0000 O   0  0  0  0  0  0  0  0  0  0  0  0
   10.3766   -4.4504    0.0000 O   0  0  0  0  0  0  0  0  0  0  0  0
    9.2236   -5.1191    0.0000 C   0  0  0  0  0  0  0  0  0  0  0  0
    8.0707   -4.4504    0.0000 C   0  0  0  0  0  0  0  0  0  0  0  0
    8.0707   -3.1245    0.0000 C   0  0  0  0  0  0  0  0  0  0  0  0
    6.9292   -2.4558    0.0000 C   0  0  0  0  0  0  0  0  0  0  0  0
    5.7763   -3.1245    0.0000 C   0  0  0  0  0  0  0  0  0  0  0  0
    5.7763   -4.4504    0.0000 N   0  0  0  0  0  0  0  0  0  0  0  0
    4.5080   -4.8655    0.0000 C   0  0  0  0  0  0  0  0  0  0  0  0
    3.7240   -3.7817    0.0000 C   0  0  0  0  0  0  0  0  0  0  0  0
    2.4097   -3.6433    0.0000 C   0  0  0  0  0  0  0  0  0  0  0  0
    1.6257   -4.7271    0.0000 C   0  0  0  0  0  0  0  0  0  0  0  0
    2.1676   -5.9377    0.0000 N   0  0  0  0  0  0  0  0  0  0  0  0
    1.3835   -7.0100    0.0000 O   0  0  0  0  0  0  0  0  0  0  0  0
    1.9254   -8.2321    0.0000 C   0  0  0  0  0  0  0  0  0  0  0  0
    0.7033   -8.7740    0.0000 C   0  0  0  0  0  0  0  0  0  0  0  0
    3.1360   -7.6902    0.0000 C   0  0  0  0  0  0  0  0  0  0  0  0
    2.4673   -9.4427    0.0000 C   0  0  0  0  0  0  0  0  0  0  0  0
    1.8678   -2.4327    0.0000 C   0  0  0  0  0  0  0  0  0  0  0  0
    0.5419   -2.2944    0.0000 C   0  0  0  0  0  0  0  0  0  0  0  0
    0.0000   -1.0838    0.0000 C   0  0  0  0  0  0  0  0  0  0  0  0
    0.7840    0.0000    0.0000 C   0  0  0  0  0  0  0  0  0  0  0  0
    2.1099   -0.1384    0.0000 C   0  0  0  0  0  0  0  0  0  0  0  0
    2.6403   -1.3605    0.0000 C   0  0  0  0  0  0  0  0  0  0  0  0
    3.9662   -1.4988    0.0000 N   0  0  0  0  0  0  0  0  0  0  0  0
    4.5080   -2.7094    0.0000 C   0  0  0  0  0  0  0  0  0  0  0  0
    6.9292   -5.1191    0.0000 C   0  0  0  0  0  0  0  0  0  0  0  0
    6.9292   -6.4450    0.0000 O   0  0  0  0  0  0  0  0  0  0  0  0
  1  2  1  0  0  0  0
  2  3  1  0  0  0  0
  3  4  1  6  0  0  0
  3  5  1  0  0  0  0
  3 10  1  0  0  0  0
  5  6  2  0  0  0  0
  5  7  1  0  0  0  0
  7  8  1  0  0  0  0
  8  9  1  0  0  0  0
  9 10  2  0  0  0  0
  9 32  1  0  0  0  0
 10 11  1  0  0  0  0
 11 12  2  0  0  0  0
 12 13  1  0  0  0  0
 12 31  1  0  0  0  0
 13 14  1  0  0  0  0
 13 32  1  0  0  0  0
 14 15  1  0  0  0  0
 15 16  2  0  0  0  0
 15 31  1  0  0  0  0
 16 17  1  0  0  0  0
 16 24  1  0  0  0  0
 17 18  2  0  0  0  0
 18 19  1  0  0  0  0
 19 20  1  0  0  0  0
 20 21  1  0  0  0  0
 20 22  1  0  0  0  0
 20 23  1  0  0  0  0
 24 25  2  0  0  0  0
 24 29  1  0  0  0  0
 25 26  1  0  0  0  0
 26 27  2  0  0  0  0
 27 28  1  0  0  0  0
 28 29  2  0  0  0  0
 29 30  1  0  0  0  0
 30 31  2  0  0  0  0
 32 33  2  0  0  0  0
M  END
> <ID>
16104

> <Formula>
C25H25N3O5

> <FW>
447.4831

> <DSSTox_CID>
31491

> <DSSTox_RID>
97376

> <DSSTox_GSID>
57702

> <DSSTox_FileID_Sort>
8443

> <TS_ChemName>
Gimatecan

> <TS_ChemName_Synonyms>


> <TS_CASRN>
292618-32-7

> <CASRN_ChemName_Relationship>
primary

> <TS_Description>
single chemical compound

> <ChemNote>


> <STRUCTURE_Shown>
tested chemical

> <STRUCTURE_Formula>
C25H25N3O5

> <STRUCTURE_MW>
447.4831

> <STRUCTURE_ChemType>
defined organic

> <STRUCTURE_DefinedOrganicForm>
parent

> <STRUCTURE_IUPAC>
(4S)-11-[(E)-(tert-butoxyimino)methyl]-4-ethyl-4-hydroxy-1H-pyrano[3',4':6,7]indolizino[1,2-b]quinoline-3,14(4H,12H)-dione

> <STRUCTURE_SMILES>
CC(C)(C)O\N=C\c1c3CN4C(=O)C=5COC(=O)[C@](O)(CC)C=5C=C4c3nc2ccccc12

> <STRUCTURE_SMILES_Desalt>
CC(C)(C)O\N=C\c1c3CN4C(=O)C=5COC(=O)[C@](O)(CC)C=5C=C4c3nc2ccccc12

> <Substance_modify_yyyymmdd>
20131018

$$$$
