2934-05-6
ChemmineR-0915142007XD

 13 13  0  0  0  0  0  0  0  0  1 V2000
    4.6057   -0.6777    0.0000 C   0  0  0  0  0  0  0  0  0  0  0  0
    5.7605    0.0000    0.0000 O   0  0  0  0  0  0  0  0  0  0  0  0
    4.6057   -2.0055    0.0000 C   0  0  0  0  0  0  0  0  0  0  0  0
    3.4508    0.0000    0.0000 C   0  0  0  0  0  0  0  0  0  0  0  0
    2.3097   -0.6777    0.0000 C   0  0  0  0  0  0  0  0  0  0  0  0
    3.4508   -2.6624    0.0000 C   0  0  0  0  0  0  0  0  0  0  0  0
    2.3097   -2.0055    0.0000 C   0  0  0  0  0  0  0  0  0  0  0  0
    5.7605   -2.6624    0.0000 C   0  0  0  0  0  0  0  0  0  0  0  0
    6.9154   -2.0055    0.0000 C   0  0  0  0  0  0  0  0  0  0  0  0
    5.7605   -3.9971    0.0000 C   0  0  0  0  0  0  0  0  0  0  0  0
    1.1549   -2.6624    0.0000 C   0  0  0  0  0  0  0  0  0  0  0  0
    1.1549   -3.9971    0.0000 C   0  0  0  0  0  0  0  0  0  0  0  0
    0.0000   -2.0055    0.0000 C   0  0  0  0  0  0  0  0  0  0  0  0
  1  2  1  0  0  0  0
  1  3  2  0  0  0  0
  1  4  1  0  0  0  0
  3  6  1  0  0  0  0
  3  8  1  0  0  0  0
  4  5  2  0  0  0  0
  5  7  1  0  0  0  0
  6  7  2  0  0  0  0
  7 11  1  0  0  0  0
  8  9  1  0  0  0  0
  8 10  1  0  0  0  0
 11 12  1  0  0  0  0
 11 13  1  0  0  0  0
M  END
> <ID>
9201

> <Formula>
C12H18O

> <FW>
178.2707

> <DSSTox_CID>
22273

> <DSSTox_RID>
79984

> <DSSTox_GSID>
42273

> <DSSTox_FileID_Sort>
4666

> <TS_ChemName>
2,4-Diisopropylphenol

> <TS_ChemName_Synonyms>


> <TS_CASRN>
2934-05-6

> <CASRN_ChemName_Relationship>
primary

> <TS_Description>
single chemical compound

> <ChemNote>


> <STRUCTURE_Shown>
tested chemical

> <STRUCTURE_Formula>
C12H18O

> <STRUCTURE_MW>
178.2707

> <STRUCTURE_ChemType>
defined organic

> <STRUCTURE_DefinedOrganicForm>
parent

> <STRUCTURE_IUPAC>
2,4-di(propan-2-yl)phenol

> <STRUCTURE_SMILES>
CC(C)c1cc(ccc1O)C(C)C

> <STRUCTURE_SMILES_Desalt>
CC(C)c1cc(ccc1O)C(C)C

> <Substance_modify_yyyymmdd>
20080825

$$$$
