2941-55-1
ChemmineR-0915142007XD

 10  9  0  0  0  0  0  0  0  0  1 V2000
    3.4709   -1.3052    0.0000 C   0  0  0  0  0  0  0  0  0  0  0  0
    3.4709    0.0000    0.0000 O   0  0  0  0  0  0  0  0  0  0  0  0
    4.6144   -1.9809    0.0000 N   0  0  0  0  0  0  0  0  0  0  0  0
    2.3043   -1.9809    0.0000 S   0  0  0  0  0  0  0  0  0  0  0  0
    4.6144   -3.3207    0.0000 C   0  0  0  0  0  0  0  0  0  0  0  0
    5.7752   -3.9676    0.0000 C   0  0  0  0  0  0  0  0  0  0  0  0
    5.7752   -1.3052    0.0000 C   0  0  0  0  0  0  0  0  0  0  0  0
    5.7752    0.0000    0.0000 C   0  0  0  0  0  0  0  0  0  0  0  0
    1.1608   -1.3052    0.0000 C   0  0  0  0  0  0  0  0  0  0  0  0
    0.0000   -1.9809    0.0000 C   0  0  0  0  0  0  0  0  0  0  0  0
  1  2  2  0  0  0  0
  1  4  1  0  0  0  0
  1  3  1  0  0  0  0
  3  5  1  0  0  0  0
  3  7  1  0  0  0  0
  4  9  1  0  0  0  0
  5  6  1  0  0  0  0
  7  8  1  0  0  0  0
  9 10  1  0  0  0  0
M  END
> <ID>
8871

> <Formula>
C7H15NOS

> <FW>
161.2651

> <DSSTox_CID>
21925

> <DSSTox_RID>
79880

> <DSSTox_GSID>
41925

> <DSSTox_FileID_Sort>
4562

> <TS_ChemName>
Ethiolate

> <TS_ChemName_Synonyms>
Ethiolate (Ethiolat)

> <TS_CASRN>
2941-55-1

> <CASRN_ChemName_Relationship>
primary

> <TS_Description>
single chemical compound

> <ChemNote>


> <STRUCTURE_Shown>
tested chemical

> <STRUCTURE_Formula>
C7H15NOS

> <STRUCTURE_MW>
161.2651

> <STRUCTURE_ChemType>
defined organic

> <STRUCTURE_DefinedOrganicForm>
parent

> <STRUCTURE_IUPAC>
S-ethyl diethylcarbamothioate

> <STRUCTURE_SMILES>
CCN(CC)C(=O)SCC

> <STRUCTURE_SMILES_Desalt>
CCN(CC)C(=O)SCC

> <Substance_modify_yyyymmdd>
20080825

$$$$
