29420-49-3
ChemmineR-0915142007XD

 18 16  0  0  0  0  0  0  0  0  2 V2000
    0.0000   -1.6625    0.0000 K   0  3  0  0  0  0  0  0  0  0  0  0
    4.9397   -1.3376    0.0000 C   0  0  0  0  0  0  0  0  0  0  0  0
    6.0862   -1.9778    0.0000 C   0  0  0  0  0  0  0  0  0  0  0  0
    7.2327   -1.3376    0.0000 C   0  0  0  0  0  0  0  0  0  0  0  0
    8.4079   -1.9778    0.0000 C   0  0  0  0  0  0  0  0  0  0  0  0
    3.7931   -1.9778    0.0000 S   0  0  0  0  0  0  0  0  0  0  0  0
    3.0574   -0.7357    0.0000 O   0  0  0  0  0  0  0  0  0  0  0  0
    2.6753   -2.6466    0.0000 O   0  5  0  0  0  0  0  0  0  0  0  0
    4.3951   -3.1243    0.0000 O   0  0  0  0  0  0  0  0  0  0  0  0
    4.9397    0.0000    0.0000 F   0  0  0  0  0  0  0  0  0  0  0  0
    4.9397   -2.6466    0.0000 F   0  0  0  0  0  0  0  0  0  0  0  0
    6.0862   -3.3154    0.0000 F   0  0  0  0  0  0  0  0  0  0  0  0
    6.0862   -0.6688    0.0000 F   0  0  0  0  0  0  0  0  0  0  0  0
    7.2327    0.0000    0.0000 F   0  0  0  0  0  0  0  0  0  0  0  0
    8.4079   -0.6688    0.0000 F   0  0  0  0  0  0  0  0  0  0  0  0
    9.5545   -1.3376    0.0000 F   0  0  0  0  0  0  0  0  0  0  0  0
    8.4079   -3.3154    0.0000 F   0  0  0  0  0  0  0  0  0  0  0  0
    9.5545   -2.6466    0.0000 F   0  0  0  0  0  0  0  0  0  0  0  0
  2  3  1  0  0  0  0
  2  6  1  0  0  0  0
  2 10  1  0  0  0  0
  2 11  1  0  0  0  0
  3  4  1  0  0  0  0
  3 12  1  0  0  0  0
  3 13  1  0  0  0  0
  4  5  1  0  0  0  0
  4 14  1  0  0  0  0
  4 15  1  0  0  0  0
  5 16  1  0  0  0  0
  5 17  1  0  0  0  0
  5 18  1  0  0  0  0
  6  7  2  0  0  0  0
  6  8  1  0  0  0  0
  6  9  2  0  0  0  0
M  END
> <ID>
7408

> <Formula>
C4F9KO3S

> <FW>
338.1899 (39.0978+299.0922)

> <DSSTox_CID>
17707

> <DSSTox_RID>
79358

> <DSSTox_GSID>
37707

> <DSSTox_FileID_Sort>
4040

> <TS_ChemName>
Potassium nonafluoro-1-butanesulfonate

> <TS_ChemName_Synonyms>
Potassium perfluorobutanesulfonate (PFBS, K salt)

> <TS_CASRN>
29420-49-3

> <CASRN_ChemName_Relationship>
primary

> <TS_Description>
single chemical compound

> <ChemNote>
parent [375-73-5]

> <STRUCTURE_Shown>
tested chemical

> <STRUCTURE_Formula>
C4F9KO3S

> <STRUCTURE_MW>
338.1899

> <STRUCTURE_ChemType>
defined organic

> <STRUCTURE_DefinedOrganicForm>
salt

> <STRUCTURE_IUPAC>
potassium 1,1,2,2,3,3,4,4,4-nonafluorobutane-1-sulfonate

> <STRUCTURE_SMILES>
[K+].FC(F)(C(F)(F)S([O-])(=O)=O)C(F)(F)C(F)(F)F

> <STRUCTURE_SMILES_Desalt>
FC(F)(C(F)(F)S(=O)(=O)O)C(F)(F)C(F)(F)F

> <Substance_modify_yyyymmdd>
20080429

$$$$
