2943-75-1
ChemmineR-0915142007XD

 18 17  0  0  0  0  0  0  0  0  1 V2000
    7.9731   -2.3107    0.0000 Si   0  0  0  0  0  0  0  0  0  0  0  0
    8.6480   -1.1554    0.0000 O    0  0  0  0  0  0  0  0  0  0  0  0
    9.9864   -1.1554    0.0000 C    0  0  0  0  0  0  0  0  0  0  0  0
   10.6384    0.0000    0.0000 C    0  0  0  0  0  0  0  0  0  0  0  0
    9.1285   -2.9742    0.0000 O    0  0  0  0  0  0  0  0  0  0  0  0
   10.2838   -2.3107    0.0000 C    0  0  0  0  0  0  0  0  0  0  0  0
   11.4392   -2.9742    0.0000 C    0  0  0  0  0  0  0  0  0  0  0  0
    6.8292   -1.6472    0.0000 O    0  0  0  0  0  0  0  0  0  0  0  0
    5.6738   -2.3107    0.0000 C    0  0  0  0  0  0  0  0  0  0  0  0
    4.5299   -1.6472    0.0000 C    0  0  0  0  0  0  0  0  0  0  0  0
    7.3211   -3.4546    0.0000 C    0  0  0  0  0  0  0  0  0  0  0  0
    5.9941   -3.4546    0.0000 C    0  0  0  0  0  0  0  0  0  0  0  0
    5.3192   -4.6100    0.0000 C    0  0  0  0  0  0  0  0  0  0  0  0
    3.9923   -4.6100    0.0000 C    0  0  0  0  0  0  0  0  0  0  0  0
    3.3288   -5.7654    0.0000 C    0  0  0  0  0  0  0  0  0  0  0  0
    2.0019   -5.7654    0.0000 C    0  0  0  0  0  0  0  0  0  0  0  0
    1.3269   -6.9207    0.0000 C    0  0  0  0  0  0  0  0  0  0  0  0
    0.0000   -6.9207    0.0000 C    0  0  0  0  0  0  0  0  0  0  0  0
  1  2  1  0  0  0  0
  1  5  1  0  0  0  0
  1  8  1  0  0  0  0
  1 11  1  0  0  0  0
  2  3  1  0  0  0  0
  3  4  1  0  0  0  0
  5  6  1  0  0  0  0
  6  7  1  0  0  0  0
  8  9  1  0  0  0  0
  9 10  1  0  0  0  0
 11 12  1  0  0  0  0
 12 13  1  0  0  0  0
 13 14  1  0  0  0  0
 14 15  1  0  0  0  0
 15 16  1  0  0  0  0
 16 17  1  0  0  0  0
 17 18  1  0  0  0  0
M  END
> <ID>
5888

> <Formula>
C14H32O3Si

> <FW>
276.4876

> <DSSTox_CID>
9246

> <DSSTox_RID>
78730

> <DSSTox_GSID>
29246

> <DSSTox_FileID_Sort>
3412

> <TS_ChemName>
Triethoxyoctylsilane

> <TS_ChemName_Synonyms>


> <TS_CASRN>
2943-75-1

> <CASRN_ChemName_Relationship>
primary

> <TS_Description>
single chemical compound

> <ChemNote>


> <STRUCTURE_Shown>
tested chemical

> <STRUCTURE_Formula>
C14H32O3Si

> <STRUCTURE_MW>
276.4876

> <STRUCTURE_ChemType>
organometallic

> <STRUCTURE_DefinedOrganicForm>


> <STRUCTURE_IUPAC>
triethoxy(octyl)silane

> <STRUCTURE_SMILES>
CCO[Si](OCC)(OCC)CCCCCCCC

> <STRUCTURE_SMILES_Desalt>
CCO[Si](OCC)(OCC)CCCCCCCC

> <Substance_modify_yyyymmdd>
20080429

$$$$
