29457-72-5
ChemmineR-0915142007XD

 30 28  0  0  0  0  0  0  0  0  2 V2000
    4.3916   -1.3229    0.0000 C    0  0  0  0  0  0  0  0  0  0  0  0
    5.5645   -1.9912    0.0000 C    0  0  0  0  0  0  0  0  0  0  0  0
    6.6964   -1.3229    0.0000 C    0  0  0  0  0  0  0  0  0  0  0  0
    7.8830   -1.9912    0.0000 C    0  0  0  0  0  0  0  0  0  0  0  0
    9.0013   -1.3229    0.0000 C    0  0  0  0  0  0  0  0  0  0  0  0
   10.1879   -1.9912    0.0000 C    0  0  0  0  0  0  0  0  0  0  0  0
   11.3198   -1.3229    0.0000 C    0  0  0  0  0  0  0  0  0  0  0  0
   12.4655   -1.9912    0.0000 C    0  0  0  0  0  0  0  0  0  0  0  0
    3.2596   -1.9912    0.0000 S    0  0  0  0  0  0  0  0  0  0  0  0
    2.5504   -0.7228    0.0000 O    0  0  0  0  0  0  0  0  0  0  0  0
    2.1139   -2.6458    0.0000 O    0  5  0  0  0  0  0  0  0  0  0  0
    3.8733   -3.1232    0.0000 O    0  0  0  0  0  0  0  0  0  0  0  0
    4.3916    0.0000    0.0000 F    0  0  0  0  0  0  0  0  0  0  0  0
    4.3916   -2.6458    0.0000 F    0  0  0  0  0  0  0  0  0  0  0  0
    5.5645   -3.3141    0.0000 F    0  0  0  0  0  0  0  0  0  0  0  0
    5.5645   -0.6683    0.0000 F    0  0  0  0  0  0  0  0  0  0  0  0
    6.6964    0.0000    0.0000 F    0  0  0  0  0  0  0  0  0  0  0  0
    6.6964   -2.6458    0.0000 F    0  0  0  0  0  0  0  0  0  0  0  0
    7.8830   -3.3141    0.0000 F    0  0  0  0  0  0  0  0  0  0  0  0
    7.8830   -0.6683    0.0000 F    0  0  0  0  0  0  0  0  0  0  0  0
    9.0013    0.0000    0.0000 F    0  0  0  0  0  0  0  0  0  0  0  0
    9.0013   -2.6458    0.0000 F    0  0  0  0  0  0  0  0  0  0  0  0
   10.1879   -3.3141    0.0000 F    0  0  0  0  0  0  0  0  0  0  0  0
   10.1879   -0.6683    0.0000 F    0  0  0  0  0  0  0  0  0  0  0  0
   11.3198    0.0000    0.0000 F    0  0  0  0  0  0  0  0  0  0  0  0
   12.4655   -0.6683    0.0000 F    0  0  0  0  0  0  0  0  0  0  0  0
   13.6384   -1.3229    0.0000 F    0  0  0  0  0  0  0  0  0  0  0  0
   12.4655   -3.3141    0.0000 F    0  0  0  0  0  0  0  0  0  0  0  0
   13.6384   -2.6458    0.0000 F    0  0  0  0  0  0  0  0  0  0  0  0
    0.0000   -2.2912    0.0000 Li   0  3  0  0  0  0  0  0  0  0  0  0
  1  2  1  0  0  0  0
  1  9  1  0  0  0  0
  1 13  1  0  0  0  0
  1 14  1  0  0  0  0
  2  3  1  0  0  0  0
  2 15  1  0  0  0  0
  2 16  1  0  0  0  0
  3  4  1  0  0  0  0
  3 17  1  0  0  0  0
  3 18  1  0  0  0  0
  4  5  1  0  0  0  0
  4 19  1  0  0  0  0
  4 20  1  0  0  0  0
  5  6  1  0  0  0  0
  5 21  1  0  0  0  0
  5 22  1  0  0  0  0
  6  7  1  0  0  0  0
  6 23  1  0  0  0  0
  6 24  1  0  0  0  0
  7  8  1  0  0  0  0
  7 25  1  0  0  0  0
  7 26  1  0  0  0  0
  8 27  1  0  0  0  0
  8 28  1  0  0  0  0
  8 29  1  0  0  0  0
  9 10  2  0  0  0  0
  9 11  1  0  0  0  0
  9 12  2  0  0  0  0
M  END
> <ID>
6457

> <Formula>
C8F17LiO3S

> <FW>
506.0627 (499.1222+6.9405)

> <DSSTox_CID>
12421

> <DSSTox_RID>
78944

> <DSSTox_GSID>
32421

> <DSSTox_FileID_Sort>
3626

> <TS_ChemName>
Lithium perfluorooctane sulfonate

> <TS_ChemName_Synonyms>
Lithium perfluorooctane sulfonate (Lithium Heptadecafluoro-1-octanesulfonate)

> <TS_CASRN>
29457-72-5

> <CASRN_ChemName_Relationship>
primary

> <TS_Description>
single chemical compound

> <ChemNote>
parent [1763-23-1]

> <STRUCTURE_Shown>
tested chemical

> <STRUCTURE_Formula>
C8F17LiO3S

> <STRUCTURE_MW>
506.0627

> <STRUCTURE_ChemType>
defined organic

> <STRUCTURE_DefinedOrganicForm>
salt

> <STRUCTURE_IUPAC>
lithium 1,1,2,2,3,3,4,4,5,5,6,6,7,7,8,8,8-heptadecafluorooctane-1-sulfonate

> <STRUCTURE_SMILES>
[Li+].FC(F)(C(F)(F)S([O-])(=O)=O)C(F)(F)C(F)(F)C(F)(F)C(F)(F)C(F)(F)C(F)(F)F

> <STRUCTURE_SMILES_Desalt>
FC(F)(C(F)(F)S(=O)(=O)O)C(F)(F)C(F)(F)C(F)(F)C(F)(F)C(F)(F)C(F)(F)F

> <Substance_modify_yyyymmdd>
20080429

$$$$
