2948-46-1
ChemmineR-0915142007XD

 14 14  0  0  0  0  0  0  0  0  1 V2000
    5.3244   -1.3251    0.0000 C   0  0  0  0  0  0  0  0  0  0  0  0
    4.6459   -2.4826    0.0000 C   0  0  0  0  0  0  0  0  0  0  0  0
    3.3208   -2.4826    0.0000 C   0  0  0  0  0  0  0  0  0  0  0  0
    2.6582   -1.3251    0.0000 C   0  0  0  0  0  0  0  0  0  0  0  0
    3.3208   -0.1756    0.0000 C   0  0  0  0  0  0  0  0  0  0  0  0
    4.6459   -0.1756    0.0000 C   0  0  0  0  0  0  0  0  0  0  0  0
    6.6495   -1.3251    0.0000 C   0  0  0  0  0  0  0  0  0  0  0  0
    6.6495    0.0000    0.0000 O   0  0  0  0  0  0  0  0  0  0  0  0
    1.3331   -1.3251    0.0000 C   0  0  0  0  0  0  0  0  0  0  0  0
    1.3331   -2.6582    0.0000 O   0  0  0  0  0  0  0  0  0  0  0  0
    6.6495   -2.6582    0.0000 C   0  0  0  0  0  0  0  0  0  0  0  0
    7.9826   -1.3251    0.0000 C   0  0  0  0  0  0  0  0  0  0  0  0
    1.3331    0.0000    0.0000 C   0  0  0  0  0  0  0  0  0  0  0  0
    0.0000   -1.3251    0.0000 C   0  0  0  0  0  0  0  0  0  0  0  0
  1  2  2  0  0  0  0
  1  6  1  0  0  0  0
  1  7  1  0  0  0  0
  2  3  1  0  0  0  0
  3  4  2  0  0  0  0
  4  5  1  0  0  0  0
  4  9  1  0  0  0  0
  5  6  2  0  0  0  0
  7  8  1  0  0  0  0
  7 11  1  0  0  0  0
  7 12  1  0  0  0  0
  9 10  1  0  0  0  0
  9 13  1  0  0  0  0
  9 14  1  0  0  0  0
M  END
> <ID>
5889

> <Formula>
C12H18O2

> <FW>
194.2701

> <DSSTox_CID>
9247

> <DSSTox_RID>
78731

> <DSSTox_GSID>
29247

> <DSSTox_FileID_Sort>
3413

> <TS_ChemName>
1,4-Bis(2-hydroxy-2-propyl)benzene

> <TS_ChemName_Synonyms>
1,4-Bis(2-hydroxy-2-propyl)benzene (1,4-Benzenedimethanol, .alpha.,.alpha.,.alpha.',.alpha.'-tetramethyl-)

> <TS_CASRN>
2948-46-1

> <CASRN_ChemName_Relationship>
primary

> <TS_Description>
single chemical compound

> <ChemNote>


> <STRUCTURE_Shown>
tested chemical

> <STRUCTURE_Formula>
C12H18O2

> <STRUCTURE_MW>
194.2701

> <STRUCTURE_ChemType>
defined organic

> <STRUCTURE_DefinedOrganicForm>
parent

> <STRUCTURE_IUPAC>
2,2'-benzene-1,4-diyldipropan-2-ol

> <STRUCTURE_SMILES>
OC(C)(C)c1ccc(cc1)C(C)(C)O

> <STRUCTURE_SMILES_Desalt>
OC(C)(C)c1ccc(cc1)C(C)(C)O

> <Substance_modify_yyyymmdd>
20080429

$$$$
