29493-77-4
ChemmineR-0915142007XD

 13 14  0  0  1  0  0  0  0  0  1 V2000
    0.3661   -4.6507    0.0000 N   0  0  0  0  0  0  0  0  0  0  0  0
    1.4372   -5.4371    0.0000 C   0  0  0  0  0  0  0  0  0  0  0  0
    0.7661   -3.3897    0.0000 C   0  0  0  0  0  0  0  0  0  0  0  0
    2.5084   -4.6507    0.0000 O   0  0  0  0  0  0  0  0  0  0  0  0
    2.0948   -3.3897    0.0000 C   0  0  0  0  0  0  0  0  0  0  0  0
    2.8813   -2.3186    0.0000 C   0  0  0  0  0  0  0  0  0  0  0  0
    0.0000   -2.3186    0.0000 C   0  0  0  0  0  0  0  0  0  0  0  0
    1.4372   -6.7794    0.0000 N   0  0  0  0  0  0  0  0  0  0  0  0
    4.2032    0.0000    0.0000 C   0  0  0  0  0  0  0  0  0  0  0  0
    4.8609   -1.1661    0.0000 C   0  0  0  0  0  0  0  0  0  0  0  0
    2.8813    0.0000    0.0000 C   0  0  0  0  0  0  0  0  0  0  0  0
    4.2032   -2.3186    0.0000 C   0  0  0  0  0  0  0  0  0  0  0  0
    2.2033   -1.1661    0.0000 C   0  0  0  0  0  0  0  0  0  0  0  0
  1  2  2  0  0  0  0
  1  3  1  0  0  0  0
  2  4  1  0  0  0  0
  2  8  1  0  0  0  0
  3  5  1  0  0  0  0
  3  7  1  6  0  0  0
  4  5  1  0  0  0  0
  5  6  1  6  0  0  0
  6 12  1  0  0  0  0
  6 13  2  0  0  0  0
  9 10  1  0  0  0  0
  9 11  2  0  0  0  0
 10 12  2  0  0  0  0
 11 13  1  0  0  0  0
M  END
> <ID>
13859

> <Formula>
C10H12N2O

> <FW>
176.2151

> <DSSTox_CID>
28796

> <DSSTox_RID>
83065

> <DSSTox_GSID>
48870

> <DSSTox_FileID_Sort>
7742

> <TS_ChemName>
(4R,5S)-4-methyl-5-phenyl-4,5-dihydro-1,3-oxazol-2-amine

> <TS_ChemName_Synonyms>
(?)-cis-(4RS,5SR)-2-Amino-4-methyl-5-phenyl-2-oxazoline

> <TS_CASRN>
29493-77-4

> <CASRN_ChemName_Relationship>
primary

> <TS_Description>
single chemical compound

> <ChemNote>
relative stereochem

> <STRUCTURE_Shown>
tested chemical

> <STRUCTURE_Formula>
C10H12N2O

> <STRUCTURE_MW>
176.2151

> <STRUCTURE_ChemType>
defined organic

> <STRUCTURE_DefinedOrganicForm>
parent

> <STRUCTURE_IUPAC>
(4R,5S)-4-methyl-5-phenyl-4,5-dihydro-1,3-oxazol-2-amine

> <STRUCTURE_SMILES>
NC1=N[C@H](C)[C@@H](O1)c2ccccc2

> <STRUCTURE_SMILES_Desalt>
NC1=N[C@H](C)[C@@H](O1)c2ccccc2

> <Substance_modify_yyyymmdd>
20111204

$$$$
