2955-38-6
ChemmineR-0915142007XD

 23 26  0  0  0  0  0  0  0  0  1 V2000
    8.0865   -2.1233    0.0000 O    0  0  0  0  0  0  0  0  0  0  0  0
    6.7668   -2.3218    0.0000 C    0  0  0  0  0  0  0  0  0  0  0  0
    6.3997   -3.5719    0.0000 N    0  0  0  0  0  0  0  0  0  0  0  0
    5.1396   -4.0780    0.0000 C    0  0  0  0  0  0  0  0  0  0  0  0
    5.1396   -5.4075    0.0000 C    0  0  0  0  0  0  0  0  0  0  0  0
    3.9887   -6.0723    0.0000 C    0  0  0  0  0  0  0  0  0  0  0  0
    2.8377   -5.4075    0.0000 C    0  0  0  0  0  0  0  0  0  0  0  0
    2.8377   -4.0780    0.0000 C    0  0  0  0  0  0  0  0  0  0  0  0
    3.9887   -3.4132    0.0000 C    0  0  0  0  0  0  0  0  0  0  0  0
    3.7803   -2.0836    0.0000 C    0  0  0  0  0  0  0  0  0  0  0  0
    4.7130   -1.1410    0.0000 N    0  0  0  0  0  0  0  0  0  0  0  0
    6.0227   -1.2204    0.0000 C    0  0  0  0  0  0  0  0  0  0  0  0
    2.5103   -1.6867    0.0000 C    0  0  0  0  0  0  0  0  0  0  0  0
    1.5677   -2.6293    0.0000 C    0  0  0  0  0  0  0  0  0  0  0  0
    0.2778   -2.2225    0.0000 C    0  0  0  0  0  0  0  0  0  0  0  0
    0.0000   -0.9426    0.0000 C    0  0  0  0  0  0  0  0  0  0  0  0
    0.9426    0.0000    0.0000 C    0  0  0  0  0  0  0  0  0  0  0  0
    2.2225   -0.4167    0.0000 C    0  0  0  0  0  0  0  0  0  0  0  0
    1.6867   -6.0723    0.0000 Cl   0  0  0  0  0  0  0  0  0  0  0  0
    7.3324   -4.5145    0.0000 C    0  0  0  0  0  0  0  0  0  0  0  0
    8.6421   -4.1573    0.0000 C    0  0  0  0  0  0  0  0  0  0  0  0
    9.5748   -3.2147    0.0000 C    0  0  0  0  0  0  0  0  0  0  0  0
    9.9221   -4.4947    0.0000 C    0  0  0  0  0  0  0  0  0  0  0  0
  1  2  2  0  0  0  0
  2  3  1  0  0  0  0
  2 12  1  0  0  0  0
  3  4  1  0  0  0  0
  3 20  1  0  0  0  0
  4  5  2  0  0  0  0
  4  9  1  0  0  0  0
  5  6  1  0  0  0  0
  6  7  2  0  0  0  0
  7  8  1  0  0  0  0
  7 19  1  0  0  0  0
  8  9  2  0  0  0  0
  9 10  1  0  0  0  0
 10 11  2  0  0  0  0
 10 13  1  0  0  0  0
 11 12  1  0  0  0  0
 13 14  2  0  0  0  0
 13 18  1  0  0  0  0
 14 15  1  0  0  0  0
 15 16  2  0  0  0  0
 16 17  1  0  0  0  0
 17 18  2  0  0  0  0
 20 21  1  0  0  0  0
 21 22  1  0  0  0  0
 21 23  1  0  0  0  0
 22 23  1  0  0  0  0
M  END
> <ID>
1135

> <Formula>
C19H17ClN2O

> <FW>
324.8041

> <DSSTox_CID>
1181

> <DSSTox_RID>
75994

> <DSSTox_GSID>
21181

> <DSSTox_FileID_Sort>
678

> <TS_ChemName>
Prazepam

> <TS_ChemName_Synonyms>


> <TS_CASRN>
2955-38-6

> <CASRN_ChemName_Relationship>
primary

> <TS_Description>
single chemical compound

> <ChemNote>


> <STRUCTURE_Shown>
tested chemical

> <STRUCTURE_Formula>
C19H17ClN2O

> <STRUCTURE_MW>
324.8041

> <STRUCTURE_ChemType>
defined organic

> <STRUCTURE_DefinedOrganicForm>
parent

> <STRUCTURE_IUPAC>
7-chloro-1-(cyclopropylmethyl)-5-phenyl-1,3-dihydro-2H-1,4-benzodiazepin-2-one

> <STRUCTURE_SMILES>
Clc1ccc3c(c1)C(=NCC(=O)N3CC2CC2)c4ccccc4

> <STRUCTURE_SMILES_Desalt>
Clc1ccc3c(c1)C(=NCC(=O)N3CC2CC2)c4ccccc4

> <Substance_modify_yyyymmdd>
20080429

$$$$
