29560-58-5
ChemmineR-0915142007XD

 31 33  0  0  0  0  0  0  0  0  1 V2000
    3.4448   -3.9894    0.0000 N    0  0  0  0  0  0  0  0  0  0  0  0
    4.5973   -4.6479    0.0000 C    0  0  0  0  0  0  0  0  0  0  0  0
    3.4448   -6.6490    0.0000 S    0  0  0  0  0  0  0  0  0  0  0  0
    4.5973   -5.9777    0.0000 C    0  0  0  0  0  0  0  0  0  0  0  0
    3.4448   -2.6596    0.0000 C    0  0  0  0  0  0  0  0  0  0  0  0
    2.3050   -4.6479    0.0000 C    0  0  0  0  0  0  0  0  0  0  0  0
    2.3050   -5.9777    0.0000 C    0  0  0  0  0  0  0  0  0  0  0  0
    9.2072   -4.6479    0.0000 C    0  0  0  0  0  0  0  0  0  0  0  0
    5.7498   -3.9894    0.0000 C    0  0  0  0  0  0  0  0  0  0  0  0
    4.5973   -1.9884    0.0000 C    0  0  0  0  0  0  0  0  0  0  0  0
    6.9149   -1.9884    0.0000 N    0  0  0  0  0  0  0  0  0  0  0  0
    8.0421   -3.9894    0.0000 N    0  0  0  0  0  0  0  0  0  0  0  0
    6.9149   -4.6479    0.0000 C    0  0  0  0  0  0  0  0  0  0  0  0
    2.2923   -1.9630    0.0000 O    0  0  0  0  0  0  0  0  0  0  0  0
    9.2072   -5.9777    0.0000 O    0  0  0  0  0  0  0  0  0  0  0  0
    5.7498   -6.6490    0.0000 C    0  0  0  0  0  0  0  0  0  0  0  0
    5.7498   -2.6596    0.0000 C    0  0  0  0  0  0  0  0  0  0  0  0
    9.2072   -0.6586    0.0000 O    0  0  0  0  0  0  0  0  0  0  0  0
   10.3597   -3.9894    0.0000 O    0  0  0  0  0  0  0  0  0  0  0  0
    6.9149   -5.9777    0.0000 C    0  0  0  0  0  0  0  0  0  0  0  0
    1.1525   -3.9894    0.0000 C    0  0  0  0  0  0  0  0  0  0  0  0
    1.1525   -6.6490    0.0000 C    0  0  0  0  0  0  0  0  0  0  0  0
    8.0421   -2.6596    0.0000 C    0  0  0  0  0  0  0  0  0  0  0  0
    6.9149   -0.6586    0.0000 C    0  0  0  0  0  0  0  0  0  0  0  0
    9.2072   -1.9884    0.0000 C    0  0  0  0  0  0  0  0  0  0  0  0
    8.0421    0.0000    0.0000 C    0  0  0  0  0  0  0  0  0  0  0  0
   11.5122   -4.6479    0.0000 C    0  0  0  0  0  0  0  0  0  0  0  0
    0.0000   -4.6479    0.0000 C    0  0  0  0  0  0  0  0  0  0  0  0
    0.0000   -5.9777    0.0000 C    0  0  0  0  0  0  0  0  0  0  0  0
   12.6647   -3.9894    0.0000 C    0  0  0  0  0  0  0  0  0  0  0  0
   11.5122   -5.6865    0.0000 Cl   0  0  0  0  0  0  0  0  0  0  0  0
  1  2  1  0  0  0  0
  1  5  1  0  0  0  0
  1  6  1  0  0  0  0
  2  4  2  0  0  0  0
  2  9  1  0  0  0  0
  3  7  1  0  0  0  0
  3  4  1  0  0  0  0
  4 16  1  0  0  0  0
  5 10  1  0  0  0  0
  5 14  2  0  0  0  0
  6  7  2  0  0  0  0
  6 21  1  0  0  0  0
  7 22  1  0  0  0  0
  8 12  1  0  0  0  0
  8 15  2  0  0  0  0
  8 19  1  0  0  0  0
  9 13  2  0  0  0  0
 10 17  1  0  0  0  0
 11 17  1  0  0  0  0
 11 23  1  0  0  0  0
 11 24  1  0  0  0  0
 12 13  1  0  0  0  0
 13 20  1  0  0  0  0
 16 20  2  0  0  0  0
 18 26  1  0  0  0  0
 18 25  1  0  0  0  0
 19 27  1  0  0  0  0
 21 28  2  0  0  0  0
 22 29  2  0  0  0  0
 23 25  1  0  0  0  0
 24 26  1  0  0  0  0
 27 30  1  0  0  0  0
 28 29  1  0  0  0  0
M  END
> <ID>
12887

> <Formula>
C22H26ClN3O4S

> <FW>
463.9775 (427.5166+36.4609)

> <DSSTox_CID>
27766

> <DSSTox_RID>
82543

> <DSSTox_GSID>
47786

> <DSSTox_FileID_Sort>
7224

> <TS_ChemName>
Moricizine hydrochloride

> <TS_ChemName_Synonyms>


> <TS_CASRN>
29560-58-5

> <CASRN_ChemName_Relationship>
primary

> <TS_Description>
single chemical compound

> <ChemNote>
parent [31883-05-3]

> <STRUCTURE_Shown>
tested chemical

> <STRUCTURE_Formula>
C22H26ClN3O4S

> <STRUCTURE_MW>
463.9775

> <STRUCTURE_ChemType>
defined organic

> <STRUCTURE_DefinedOrganicForm>
complex

> <STRUCTURE_IUPAC>
ethyl {10-[3-(morpholin-4-yl)propanoyl]-10H-phenothiazin-2-yl}carbamate hydrochloride (1:1)

> <STRUCTURE_SMILES>
Cl.O=C(OCC)Nc1cc2N(c3ccccc3Sc2cc1)C(=O)CCN4CCOCC4

> <STRUCTURE_SMILES_Desalt>
O=C(OCC)Nc1cc2N(c3ccccc3Sc2cc1)C(=O)CCN4CCOCC4

> <Substance_modify_yyyymmdd>


$$$$
