29608-49-9
ChemmineR-0915142007XD

 45 46  0  0  0  0  0  0  0  0  1 V2000
   12.1888   -4.5867    0.0000 C   0  0  0  0  0  0  0  0  0  0  0  0
   12.8683   -5.7334    0.0000 N   0  0  0  0  0  0  0  0  0  0  0  0
   12.8683   -3.4400    0.0000 N   0  0  0  0  0  0  0  0  0  0  0  0
   14.8644   -4.5867    0.0000 N   0  0  0  0  0  0  0  0  0  0  0  0
   14.1636   -3.4400    0.0000 C   0  0  0  0  0  0  0  0  0  0  0  0
   14.1636   -5.7334    0.0000 C   0  0  0  0  0  0  0  0  0  0  0  0
   10.8510   -4.5867    0.0000 N   0  0  0  0  0  0  0  0  0  0  0  0
    8.1754   -4.5867    0.0000 N   0  0  0  0  0  0  0  0  0  0  0  0
    6.8588   -4.5867    0.0000 C   0  0  0  0  0  0  0  0  0  0  0  0
   10.1715   -3.4400    0.0000 C   0  0  0  0  0  0  0  0  0  0  0  0
   10.1715   -5.7334    0.0000 C   0  0  0  0  0  0  0  0  0  0  0  0
    6.2006   -3.4400    0.0000 C   0  0  0  0  0  0  0  0  0  0  0  0
    6.2006   -5.7334    0.0000 C   0  0  0  0  0  0  0  0  0  0  0  0
    8.8337   -5.7334    0.0000 C   0  0  0  0  0  0  0  0  0  0  0  0
    8.8337   -3.4400    0.0000 C   0  0  0  0  0  0  0  0  0  0  0  0
   14.8644   -6.8801    0.0000 N   0  0  0  0  0  0  0  0  0  0  0  0
   14.8644   -2.2721    0.0000 N   0  0  0  0  0  0  0  0  0  0  0  0
    6.8588   -2.2721    0.0000 C   0  0  0  0  0  0  0  0  0  0  0  0
    4.8628   -5.7334    0.0000 C   0  0  0  0  0  0  0  0  0  0  0  0
    4.8628   -3.4400    0.0000 C   0  0  0  0  0  0  0  0  0  0  0  0
    6.8588   -6.8801    0.0000 C   0  0  0  0  0  0  0  0  0  0  0  0
   16.8392   -8.0268    0.0000 C   0  0  0  0  0  0  0  0  0  0  0  0
   16.8392   -1.1254    0.0000 C   0  0  0  0  0  0  0  0  0  0  0  0
   18.1770   -8.0268    0.0000 C   0  0  0  0  0  0  0  0  0  0  0  0
   18.1770   -1.1254    0.0000 C   0  0  0  0  0  0  0  0  0  0  0  0
    4.8628   -1.1254    0.0000 C   0  0  0  0  0  0  0  0  0  0  0  0
    4.8628   -8.0268    0.0000 C   0  0  0  0  0  0  0  0  0  0  0  0
    6.2006   -1.1254    0.0000 C   0  0  0  0  0  0  0  0  0  0  0  0
    6.2006   -8.0268    0.0000 C   0  0  0  0  0  0  0  0  0  0  0  0
    4.2257   -2.2721    0.0000 C   0  0  0  0  0  0  0  0  0  0  0  0
    4.2257   -6.8801    0.0000 C   0  0  0  0  0  0  0  0  0  0  0  0
    4.2257   -9.1947    0.0000 F   0  0  0  0  0  0  0  0  0  0  0  0
    4.2257    0.0000    0.0000 F   0  0  0  0  0  0  0  0  0  0  0  0
   16.1809   -6.8801    0.0000 C   0  0  0  0  0  0  0  0  0  0  0  0
   16.1809   -2.2721    0.0000 C   0  0  0  0  0  0  0  0  0  0  0  0
    1.3378   -4.6717    0.0000 S   0  0  0  0  0  0  0  0  0  0  0  0
    0.0000   -4.6717    0.0000 O   0  0  0  0  0  0  0  0  0  0  0  0
    1.3378   -6.0094    0.0000 O   0  0  0  0  0  0  0  0  0  0  0  0
    1.3378   -3.3126    0.0000 O   0  0  0  0  0  0  0  0  0  0  0  0
    2.6756   -4.6717    0.0000 C   0  0  0  0  0  0  0  0  0  0  0  0
   19.8970   -4.9902    0.0000 S   0  0  0  0  0  0  0  0  0  0  0  0
   18.5592   -4.9902    0.0000 O   0  0  0  0  0  0  0  0  0  0  0  0
   19.8970   -6.3280    0.0000 O   0  0  0  0  0  0  0  0  0  0  0  0
   19.8970   -3.6312    0.0000 O   0  0  0  0  0  0  0  0  0  0  0  0
   21.2348   -4.9902    0.0000 C   0  0  0  0  0  0  0  0  0  0  0  0
  1  2  2  0  0  0  0
  1  3  1  0  0  0  0
  1  7  1  0  0  0  0
  2  6  1  0  0  0  0
  3  5  2  0  0  0  0
  4  5  1  0  0  0  0
  4  6  2  0  0  0  0
  5 17  1  0  0  0  0
  6 16  1  0  0  0  0
  7 10  1  0  0  0  0
  7 11  1  0  0  0  0
  8 14  1  0  0  0  0
  8  9  1  0  0  0  0
  8 15  1  0  0  0  0
  9 12  1  0  0  0  0
  9 13  1  0  0  0  0
 10 15  1  0  0  0  0
 11 14  1  0  0  0  0
 12 18  2  0  0  0  0
 12 20  1  0  0  0  0
 13 19  1  0  0  0  0
 13 21  2  0  0  0  0
 16 34  1  0  0  0  0
 17 35  1  0  0  0  0
 18 28  1  0  0  0  0
 19 31  2  0  0  0  0
 20 30  2  0  0  0  0
 21 29  1  0  0  0  0
 22 34  1  0  0  0  0
 22 24  2  0  0  0  0
 23 35  1  0  0  0  0
 23 25  2  0  0  0  0
 26 30  1  0  0  0  0
 26 33  1  0  0  0  0
 26 28  2  0  0  0  0
 27 29  2  0  0  0  0
 27 32  1  0  0  0  0
 27 31  1  0  0  0  0
 36 37  2  0  0  0  0
 36 38  2  0  0  0  0
 36 39  1  0  0  0  0
 36 40  1  0  0  0  0
 41 42  2  0  0  0  0
 41 43  2  0  0  0  0
 41 44  1  0  0  0  0
 41 45  1  0  0  0  0
M  END
> <ID>
16105

> <Formula>
C28H37F2N7O6S2

> <FW>
669.7635 (477.5522+96.1057+96.1057)

> <DSSTox_CID>
31492

> <DSSTox_RID>
97377

> <DSSTox_GSID>
57703

> <DSSTox_FileID_Sort>
8444

> <TS_ChemName>
Almitrine dimethanesulfonate

> <TS_ChemName_Synonyms>


> <TS_CASRN>
29608-49-9

> <CASRN_ChemName_Relationship>
primary

> <TS_Description>
single chemical compound

> <ChemNote>


> <STRUCTURE_Shown>
tested chemical

> <STRUCTURE_Formula>
C28H37F2N7O6S2

> <STRUCTURE_MW>
669.7635

> <STRUCTURE_ChemType>
defined organic

> <STRUCTURE_DefinedOrganicForm>
complex

> <STRUCTURE_IUPAC>
N,N'-diallyl-6-{4-[bis(4-fluorophenyl)methyl]piperazin-1-yl}-1,3,5-triazine-2,4-diamine methanesulfonate (1:2)

> <STRUCTURE_SMILES>
CS(=O)(=O)O.CS(=O)(=O)O.Fc1ccc(cc1)C(c2ccc(F)cc2)N3CCN(CC3)c4nc(NCC=C)nc(NCC=C)n4

> <STRUCTURE_SMILES_Desalt>
Fc1ccc(cc1)C(c2ccc(F)cc2)N3CCN(CC3)c4nc(NCC=C)nc(NCC=C)n4

> <Substance_modify_yyyymmdd>
20131121

$$$$
