29617-43-4
ChemmineR-0915142007XD

 30 34  0  0  1  0  0  0  0  0  1 V2000
    4.5389   -5.8600    0.0000 C   0  0  0  0  0  0  0  0  0  0  0  0
    6.8169   -5.8600    0.0000 C   0  0  0  0  0  0  0  0  0  0  0  0
    4.5389   -4.5559    0.0000 C   0  0  0  0  0  0  0  0  0  0  0  0
    5.6906   -3.9123    0.0000 C   0  0  0  0  0  0  0  0  0  0  0  0
    6.8169   -4.5728    0.0000 O   0  0  0  0  0  0  0  0  0  0  0  0
    4.5389   -1.9477    0.0000 C   0  0  0  0  0  0  0  0  0  0  0  0
    5.6906   -2.6082    0.0000 C   0  0  0  0  0  0  0  0  0  0  0  0
    3.3957   -6.5035    0.0000 C   0  0  0  0  0  0  0  0  0  0  0  0
    6.8169   -1.9307    0.0000 N   0  0  0  0  0  0  0  0  0  0  0  0
    4.5389   -0.6436    0.0000 C   0  0  0  0  0  0  0  0  0  0  0  0
    3.3957   -2.6251    0.0000 C   0  0  0  0  0  0  0  0  0  0  0  0
    2.2779   -1.9477    0.0000 C   0  0  0  0  0  0  0  0  0  0  0  0
    2.2779   -0.6436    0.0000 C   0  0  0  0  0  0  0  0  0  0  0  0
    3.3957   -3.9123    0.0000 C   0  0  0  0  0  0  0  0  0  0  0  0
    3.3957    0.0000    0.0000 C   0  0  0  0  0  0  0  0  0  0  0  0
    7.9685   -6.5374    0.0000 O   0  0  0  0  0  0  0  0  0  0  0  0
    1.0331   -2.3372    0.0000 O   0  0  0  0  0  0  0  0  0  0  0  0
    1.0331   -0.2540    0.0000 O   0  0  0  0  0  0  0  0  0  0  0  0
    2.2779   -5.8600    0.0000 C   0  0  0  0  0  0  0  0  0  0  0  0
    0.2794   -1.2533    0.0000 C   0  0  0  0  0  0  0  0  0  0  0  0
    6.8169   -0.6097    0.0000 C   0  0  0  0  0  0  0  0  0  0  0  0
    5.6906    0.0000    0.0000 C   0  0  0  0  0  0  0  0  0  0  0  0
    2.2779   -4.5728    0.0000 C   0  0  0  0  0  0  0  0  0  0  0  0
    3.3957   -7.8246    0.0000 O   0  0  0  0  0  0  0  0  0  0  0  0
    1.1009   -6.5374    0.0000 O   0  0  0  0  0  0  0  0  0  0  0  0
    7.9685   -2.5574    0.0000 C   0  0  0  0  0  0  0  0  0  0  0  0
    4.5389   -8.4681    0.0000 C   0  0  0  0  0  0  0  0  0  0  0  0
    0.0000   -5.8600    0.0000 C   0  0  0  0  0  0  0  0  0  0  0  0
    4.6151   -3.2687    0.0000 H   0  0  0  0  0  0  0  0  0  0  0  0
    6.6898   -3.1756    0.0000 H   0  0  0  0  0  0  0  0  0  0  0  0
  1  2  1  0  0  0  0
  1  3  2  0  0  0  0
  1  8  1  0  0  0  0
  2  5  1  0  0  0  0
  2 16  2  0  0  0  0
  3  4  1  0  0  0  0
  3 14  1  0  0  0  0
  4  7  1  0  0  0  0
  4 29  1  1  0  0  0
  4  5  1  0  0  0  0
  6  7  1  0  0  0  0
  6 10  2  0  0  0  0
  6 11  1  0  0  0  0
  7  9  1  0  0  0  0
  7 30  1  1  0  0  0
  8 19  2  0  0  0  0
  8 24  1  0  0  0  0
  9 21  1  0  0  0  0
  9 26  1  0  0  0  0
 10 15  1  0  0  0  0
 10 22  1  0  0  0  0
 11 12  2  0  0  0  0
 12 13  1  0  0  0  0
 12 17  1  0  0  0  0
 13 18  1  0  0  0  0
 13 15  2  0  0  0  0
 14 23  2  0  0  0  0
 17 20  1  0  0  0  0
 18 20  1  0  0  0  0
 19 23  1  0  0  0  0
 19 25  1  0  0  0  0
 21 22  1  0  0  0  0
 24 27  1  0  0  0  0
 25 28  1  0  0  0  0
M  END
> <ID>
11070

> <Formula>
C21H21NO6

> <FW>
383.3945

> <DSSTox_CID>
25611

> <DSSTox_RID>
81002

> <DSSTox_GSID>
45611

> <DSSTox_FileID_Sort>
5683

> <TS_ChemName>
(1S,9R)-beta-Hydrastine

> <TS_ChemName_Synonyms>


> <TS_CASRN>
29617-43-4

> <CASRN_ChemName_Relationship>
primary

> <TS_Description>
single chemical compound

> <ChemNote>
stereochem

> <STRUCTURE_Shown>
tested chemical

> <STRUCTURE_Formula>
C21H21NO6

> <STRUCTURE_MW>
383.3945

> <STRUCTURE_ChemType>
defined organic

> <STRUCTURE_DefinedOrganicForm>
parent

> <STRUCTURE_IUPAC>
(3R)-6,7-dimethoxy-3-[(5S)-6-methyl-5,6,7,8-tetrahydro[1,3]dioxolo[4,5-g]isoquinolin-5-yl]-2-benzofuran-1(3H)-one

> <STRUCTURE_SMILES>
CN2CCc1cc5OCOc5cc1[C@H]2[C@@H]4OC(=O)c3c(OC)c(ccc34)OC

> <STRUCTURE_SMILES_Desalt>
CN2CCc1cc5OCOc5cc1[C@H]2[C@@H]4OC(=O)c3c(OC)c(ccc34)OC

> <Substance_modify_yyyymmdd>
20110724

$$$$
