29676-71-9
ChemmineR-0915142007XD

 10 10  0  0  0  0  0  0  0  0  1 V2000
    3.4267   -1.5964    0.0000 C   0  0  0  0  0  0  0  0  0  0  0  0
    2.2087   -2.1399    0.0000 N   0  0  0  0  0  0  0  0  0  0  0  0
    1.3211   -1.1491    0.0000 C   0  0  0  0  0  0  0  0  0  0  0  0
    0.0000   -1.2936    0.0000 N   0  0  0  0  0  0  0  0  0  0  0  0
    1.9886    0.0000    0.0000 S   0  0  0  0  0  0  0  0  0  0  0  0
    3.2890   -0.2752    0.0000 C   0  0  0  0  0  0  0  0  0  0  0  0
    4.5758   -2.2638    0.0000 C   0  0  0  0  0  0  0  0  0  0  0  0
    5.7317   -1.5964    0.0000 C   0  0  0  0  0  0  0  0  0  0  0  0
    6.8808   -2.2638    0.0000 O   0  0  0  0  0  0  0  0  0  0  0  0
    5.7317   -0.2684    0.0000 O   0  0  0  0  0  0  0  0  0  0  0  0
  1  2  1  0  0  0  0
  1  6  2  0  0  0  0
  1  7  1  0  0  0  0
  2  3  2  0  0  0  0
  3  4  1  0  0  0  0
  3  5  1  0  0  0  0
  5  6  1  0  0  0  0
  7  8  1  0  0  0  0
  8  9  1  0  0  0  0
  8 10  2  0  0  0  0
M  END
> <ID>
3725

> <Formula>
C5H6N2O2S

> <FW>
158.1783

> <DSSTox_CID>
4509

> <DSSTox_RID>
77438

> <DSSTox_GSID>
24509

> <DSSTox_FileID_Sort>
2121

> <TS_ChemName>
2-Amino-4-thiazoleacetic acid

> <TS_ChemName_Synonyms>


> <TS_CASRN>
29676-71-9

> <CASRN_ChemName_Relationship>
primary

> <TS_Description>
single chemical compound

> <ChemNote>


> <STRUCTURE_Shown>
tested chemical

> <STRUCTURE_Formula>
C5H6N2O2S

> <STRUCTURE_MW>
158.1783

> <STRUCTURE_ChemType>
defined organic

> <STRUCTURE_DefinedOrganicForm>
parent

> <STRUCTURE_IUPAC>
(2-amino-1,3-thiazol-4-yl)acetic acid

> <STRUCTURE_SMILES>
OC(=O)Cc1csc(N)n1

> <STRUCTURE_SMILES_Desalt>
OC(=O)Cc1csc(N)n1

> <Substance_modify_yyyymmdd>
20080429

$$$$
