297-76-7
ChemmineR-0915142007XD

 32 35  0  0  1  0  0  0  0  0  1 V2000
    9.2343   -3.8992    0.0000 C   0  0  0  0  0  0  0  0  0  0  0  0
   10.4989   -3.5435    0.0000 C   0  0  0  0  0  0  0  0  0  0  0  0
    9.2343   -5.2297    0.0000 C   0  0  0  0  0  0  0  0  0  0  0  0
    5.7961   -7.2452    0.0000 C   0  0  0  0  0  0  0  0  0  0  0  0
    8.1014   -5.9147    0.0000 C   0  0  0  0  0  0  0  0  0  0  0  0
    6.9290   -5.2297    0.0000 C   0  0  0  0  0  0  0  0  0  0  0  0
    5.7961   -5.9147    0.0000 C   0  0  0  0  0  0  0  0  0  0  0  0
   11.8294   -3.5567    0.0000 C   0  0  0  0  0  0  0  0  0  0  0  0
    4.6237   -7.8906    0.0000 C   0  0  0  0  0  0  0  0  0  0  0  0
    8.1014   -3.2406    0.0000 C   0  0  0  0  0  0  0  0  0  0  0  0
   10.8546   -2.2131    0.0000 O   0  0  0  0  0  0  0  0  0  0  0  0
    6.9290   -3.8992    0.0000 C   0  0  0  0  0  0  0  0  0  0  0  0
   10.4989   -5.6381    0.0000 C   0  0  0  0  0  0  0  0  0  0  0  0
    8.1014   -7.2452    0.0000 C   0  0  0  0  0  0  0  0  0  0  0  0
   13.1730   -3.5567    0.0000 C   0  0  0  0  0  0  0  0  0  0  0  0
    4.6237   -5.2297    0.0000 C   0  0  0  0  0  0  0  0  0  0  0  0
    9.9061   -1.2646    0.0000 C   0  0  0  0  0  0  0  0  0  0  0  0
   11.2761   -4.5447    0.0000 C   0  0  0  0  0  0  0  0  0  0  0  0
    6.9290   -7.8906    0.0000 C   0  0  0  0  0  0  0  0  0  0  0  0
    1.1461   -7.2715    0.0000 C   0  0  0  0  0  0  0  0  0  0  0  0
    3.4513   -7.2452    0.0000 C   0  0  0  0  0  0  0  0  0  0  0  0
    2.3185   -7.9038    0.0000 O   0  0  0  0  0  0  0  0  0  0  0  0
   10.2486    0.0000    0.0000 O   0  0  0  0  0  0  0  0  0  0  0  0
    0.0000   -7.9038    0.0000 O   0  0  0  0  0  0  0  0  0  0  0  0
    3.4513   -5.9147    0.0000 C   0  0  0  0  0  0  0  0  0  0  0  0
    9.2343   -2.5687    0.0000 C   0  0  0  0  0  0  0  0  0  0  0  0
    8.6415   -1.6203    0.0000 C   0  0  0  0  0  0  0  0  0  0  0  0
    1.1461   -5.9410    0.0000 C   0  0  0  0  0  0  0  0  0  0  0  0
    8.1014   -4.5842    0.0000 H   0  0  0  0  0  0  0  0  0  0  0  0
    9.2343   -6.5602    0.0000 H   0  0  0  0  0  0  0  0  0  0  0  0
    6.9290   -6.5602    0.0000 H   0  0  0  0  0  0  0  0  0  0  0  0
    5.7961   -4.5842    0.0000 H   0  0  0  0  0  0  0  0  0  0  0  0
  1  2  1  0  0  0  0
  1  3  1  0  0  0  0
  1 10  1  0  0  0  0
  1 26  1  1  0  0  0
  2  8  1  6  0  0  0
  2 11  1  0  0  0  0
  2 18  1  0  0  0  0
  3  5  1  0  0  0  0
  3 13  1  0  0  0  0
  3 30  1  6  0  0  0
  4  7  1  0  0  0  0
  4  9  2  0  0  0  0
  4 19  1  0  0  0  0
  5 14  1  0  0  0  0
  5  6  1  0  0  0  0
  5 29  1  1  0  0  0
  6 12  1  0  0  0  0
  6  7  1  0  0  0  0
  6 31  1  6  0  0  0
  7 16  1  0  0  0  0
  7 32  1  1  0  0  0
  8 15  3  0  0  0  0
  9 21  1  0  0  0  0
 10 12  1  0  0  0  0
 11 17  1  0  0  0  0
 13 18  1  0  0  0  0
 14 19  1  0  0  0  0
 16 25  1  0  0  0  0
 17 23  2  0  0  0  0
 17 27  1  0  0  0  0
 20 22  1  0  0  0  0
 20 24  2  0  0  0  0
 20 28  1  0  0  0  0
 21 25  1  0  0  0  0
 21 22  1  1  0  0  0
M  END
> <ID>
589

> <Formula>
C24H32O4

> <FW>
384.5085

> <DSSTox_CID>
614

> <DSSTox_RID>
75690

> <DSSTox_GSID>
20614

> <DSSTox_FileID_Sort>
374

> <TS_ChemName>
Ethynodiol diacetate

> <TS_ChemName_Synonyms>


> <TS_CASRN>
297-76-7

> <CASRN_ChemName_Relationship>
primary

> <TS_Description>
single chemical compound

> <ChemNote>
stereochem

> <STRUCTURE_Shown>
tested chemical

> <STRUCTURE_Formula>
C24H32O4

> <STRUCTURE_MW>
384.5085

> <STRUCTURE_ChemType>
defined organic

> <STRUCTURE_DefinedOrganicForm>
parent

> <STRUCTURE_IUPAC>
(3beta,17beta)-17-ethynylestr-4-ene-3,17-diyl diacetate

> <STRUCTURE_SMILES>
CC(=O)O[C@@]4(C#C)CC[C@@H]3[C@]4(C)CC[C@H]2[C@H]3CCC1=C[C@H](CC[C@@H]12)OC(C)=O

> <STRUCTURE_SMILES_Desalt>
CC(=O)O[C@@]4(C#C)CC[C@@H]3[C@]4(C)CC[C@H]2[C@H]3CCC1=C[C@H](CC[C@@H]12)OC(C)=O

> <Substance_modify_yyyymmdd>
20080429

$$$$
