29701-07-3
ChemmineR-0915142007XD

 38 39  0  0  1  0  0  0  0  0  1 V2000
    8.8993   -6.2142    0.0000 C   0  0  0  0  0  0  0  0  0  0  0  0
    8.8993   -7.5644    0.0000 C   0  0  0  0  0  0  0  0  0  0  0  0
    7.7639   -5.5544    0.0000 C   0  0  0  0  0  0  0  0  0  0  0  0
    7.7639   -8.2088    0.0000 C   0  0  0  0  0  0  0  0  0  0  0  0
    6.6438   -6.2142    0.0000 C   0  0  0  0  0  0  0  0  0  0  0  0
    6.6438   -7.5644    0.0000 C   0  0  0  0  0  0  0  0  0  0  0  0
    7.7639   -4.2502    0.0000 O   0  0  0  0  0  0  0  0  0  0  0  0
   10.0500   -5.5237    0.0000 O   0  0  0  0  0  0  0  0  0  0  0  0
    5.3856   -5.5544    0.0000 O   0  0  0  0  0  0  0  0  0  0  0  0
    5.4777   -8.2088    0.0000 N   0  0  0  0  0  0  0  0  0  0  0  0
   10.0654   -8.2088    0.0000 N   0  0  0  0  0  0  0  0  0  0  0  0
   11.3696   -5.5237    0.0000 C   0  0  0  0  0  0  0  0  0  0  0  0
   12.0294   -4.3576    0.0000 C   0  0  0  0  0  0  0  0  0  0  0  0
   12.0294   -6.6438    0.0000 O   0  0  0  0  0  0  0  0  0  0  0  0
   13.3643   -4.3576    0.0000 C   0  0  0  0  0  0  0  0  0  0  0  0
   13.3643   -6.6438    0.0000 C   0  0  0  0  0  0  0  0  0  0  0  0
   14.0394   -5.5237    0.0000 C   0  0  0  0  0  0  0  0  0  0  0  0
   11.3696   -3.2222    0.0000 O   0  0  0  0  0  0  0  0  0  0  0  0
   14.0394   -3.2222    0.0000 N   0  0  0  0  0  0  0  0  0  0  0  0
   15.3436   -5.5237    0.0000 O   0  0  0  0  0  0  0  0  0  0  0  0
   14.0394   -7.8099    0.0000 C   0  0  0  0  0  0  0  0  0  0  0  0
   13.3643   -8.9453    0.0000 O   0  0  0  0  0  0  0  0  0  0  0  0
    3.9740   -5.5544    0.0000 C   0  0  0  0  0  0  0  0  0  0  0  0
    3.3142   -6.7051    0.0000 C   0  0  0  0  0  0  0  0  0  0  0  0
    3.3142   -4.4190    0.0000 O   0  0  0  0  0  0  0  0  0  0  0  0
    1.9793   -6.7051    0.0000 C   0  0  0  0  0  0  0  0  0  0  0  0
    1.9793   -4.4190    0.0000 C   0  0  0  0  0  0  0  0  0  0  0  0
    1.3042   -5.5544    0.0000 C   0  0  0  0  0  0  0  0  0  0  0  0
    3.9740   -7.8559    0.0000 N   0  0  0  0  0  0  0  0  0  0  0  0
    1.3042   -7.8559    0.0000 O   0  0  0  0  0  0  0  0  0  0  0  0
    0.0000   -5.5544    0.0000 O   0  0  0  0  0  0  0  0  0  0  0  0
    1.3042   -3.2682    0.0000 C   0  0  0  0  0  0  0  0  0  0  0  0
    1.9793   -2.1328    0.0000 N   0  0  0  0  0  0  0  0  0  0  0  0
    8.0400   -1.3349    0.0000 S   0  0  0  0  0  0  0  0  0  0  0  0
    9.3749   -1.3349    0.0000 O   0  0  0  0  0  0  0  0  0  0  0  0
    6.7051   -1.3349    0.0000 O   0  0  0  0  0  0  0  0  0  0  0  0
    8.0400   -2.6698    0.0000 O   0  0  0  0  0  0  0  0  0  0  0  0
    8.0400    0.0000    0.0000 O   0  0  0  0  0  0  0  0  0  0  0  0
  1  2  1  0  0  0  0
  1  3  1  0  0  0  0
  1  8  1  1  0  0  0
  2  4  1  0  0  0  0
  2 11  1  6  0  0  0
  3  5  1  0  0  0  0
  3  7  1  6  0  0  0
  4  6  1  0  0  0  0
  5  6  1  0  0  0  0
  5  9  1  1  0  0  0
  6 10  1  6  0  0  0
 12  8  1  6  0  0  0
 23  9  1  6  0  0  0
 12 13  1  0  0  0  0
 12 14  1  0  0  0  0
 13 15  1  0  0  0  0
 13 18  1  6  0  0  0
 14 16  1  0  0  0  0
 15 17  1  0  0  0  0
 15 19  1  1  0  0  0
 16 17  1  0  0  0  0
 16 21  1  1  0  0  0
 17 20  1  6  0  0  0
 21 22  1  0  0  0  0
 23 24  1  0  0  0  0
 23 25  1  0  0  0  0
 24 26  1  0  0  0  0
 24 29  1  6  0  0  0
 25 27  1  0  0  0  0
 26 28  1  0  0  0  0
 26 30  1  1  0  0  0
 27 28  1  0  0  0  0
 27 32  1  1  0  0  0
 28 31  1  6  0  0  0
 32 33  1  0  0  0  0
 34 35  2  0  0  0  0
 34 36  2  0  0  0  0
 34 37  1  0  0  0  0
 34 38  1  0  0  0  0
M  END
> <ID>
13730

> <Formula>
C18H39N5O14S

> <FW>
581.5924 (483.5139+98.0785)

> <DSSTox_CID>
28665

> <DSSTox_RID>
82935

> <DSSTox_GSID>
48739

> <DSSTox_FileID_Sort>
7612

> <TS_ChemName>
Bekanamycin sulfate

> <TS_ChemName_Synonyms>


> <TS_CASRN>
29701-07-3

> <CASRN_ChemName_Relationship>
primary

> <TS_Description>
single chemical compound

> <ChemNote>


> <STRUCTURE_Shown>
tested chemical

> <STRUCTURE_Formula>
C18H39N5O14S

> <STRUCTURE_MW>
581.5924

> <STRUCTURE_ChemType>
defined organic

> <STRUCTURE_DefinedOrganicForm>
complex

> <STRUCTURE_IUPAC>
(1R,2S,3S,4R,6S)-4,6-diamino-3-[(3-amino-3-deoxy-alpha-D-glucopyranosyl)oxy]-2-hydroxycyclohexyl 2,6-diamino-2,6-dideoxy-alpha-D-glucopyranoside sulfate (1:1)

> <STRUCTURE_SMILES>
O=S(=O)(O)O.N[C@@H]3[C@@H](O)[C@H](O)[C@@H](CN)O[C@@H]3O[C@H]2[C@H](O)[C@@H](O[C@H]1O[C@H](CO)[C@@H](O)[C@H](N)[C@H]1O)[C@H](N)C[C@@H]2N

> <STRUCTURE_SMILES_Desalt>
N[C@@H]3[C@@H](O)[C@H](O)[C@@H](CN)O[C@@H]3O[C@H]2[C@H](O)[C@@H](O[C@H]1O[C@H](CO)[C@@H](O)[C@H](N)[C@H]1O)[C@H](N)C[C@@H]2N

> <Substance_modify_yyyymmdd>
20100107

$$$$
