29705-96-2
ChemmineR-0915142007XD

 15 14  0  0  0  0  0  0  0  0  1 V2000
    3.4588   -2.0061    0.0000 C    0  0  0  0  0  0  0  0  0  0  0  0
    3.4588   -3.3343    0.0000 C    0  0  0  0  0  0  0  0  0  0  0  0
    2.3036   -1.3351    0.0000 C    0  0  0  0  0  0  0  0  0  0  0  0
    2.3036   -3.9915    0.0000 C    0  0  0  0  0  0  0  0  0  0  0  0
    1.1552   -2.0061    0.0000 C    0  0  0  0  0  0  0  0  0  0  0  0
    1.1552   -3.3343    0.0000 C    0  0  0  0  0  0  0  0  0  0  0  0
    0.0000   -1.3351    0.0000 O    0  0  0  0  0  0  0  0  0  0  0  0
    0.0000    0.0000    0.0000 C    0  0  0  0  0  0  0  0  0  0  0  0
    4.6140   -3.9915    0.0000 O    0  0  0  0  0  0  0  0  0  0  0  0
    4.6140   -5.3196    0.0000 C    0  0  0  0  0  0  0  0  0  0  0  0
    0.0000   -3.9915    0.0000 Br   0  0  0  0  0  0  0  0  0  0  0  0
    4.6140   -1.3351    0.0000 C    0  0  0  0  0  0  0  0  0  0  0  0
    5.7624   -1.9923    0.0000 C    0  0  0  0  0  0  0  0  0  0  0  0
    6.9176   -1.3351    0.0000 N    0  0  0  0  0  0  0  0  0  0  0  0
    6.5648   -3.3481    0.0000 Cl   0  0  0  0  0  0  0  0  0  0  0  0
  1  2  1  0  0  0  0
  1  3  2  0  0  0  0
  1 12  1  0  0  0  0
  2  4  2  0  0  0  0
  2  9  1  0  0  0  0
  3  5  1  0  0  0  0
  4  6  1  0  0  0  0
  5  6  2  0  0  0  0
  5  7  1  0  0  0  0
  6 11  1  0  0  0  0
  7  8  1  0  0  0  0
  9 10  1  0  0  0  0
 12 13  1  0  0  0  0
 13 14  1  0  0  0  0
M  END
> <ID>
13872

> <Formula>
C10H15BrClNO2

> <FW>
296.5886 (260.1277+36.4609)

> <DSSTox_CID>
28809

> <DSSTox_RID>
83078

> <DSSTox_GSID>
48883

> <DSSTox_FileID_Sort>
7755

> <TS_ChemName>
4-Bromo-2,5-dimethoxyamphetamine hydrochloride

> <TS_ChemName_Synonyms>
4-Bromo-2,5-dimethoxy-?-phenethylamine hydrochloride

> <TS_CASRN>
29705-96-2

> <CASRN_ChemName_Relationship>
primary

> <TS_Description>
single chemical compound

> <ChemNote>
parent [64638-07-9]

> <STRUCTURE_Shown>
tested chemical

> <STRUCTURE_Formula>
C10H15BrClNO2

> <STRUCTURE_MW>
296.5886

> <STRUCTURE_ChemType>
defined organic

> <STRUCTURE_DefinedOrganicForm>
complex

> <STRUCTURE_IUPAC>
2-(4-bromo-2,5-dimethoxyphenyl)ethanamine hydrochloride (1:1)

> <STRUCTURE_SMILES>
Cl.COc1cc(CCN)c(cc1Br)OC

> <STRUCTURE_SMILES_Desalt>
COc1cc(CCN)c(cc1Br)OC

> <Substance_modify_yyyymmdd>
20111204

$$$$
