2971-90-6
ChemmineR-0915142007XD

 11 11  0  0  0  0  0  0  0  0  1 V2000
    2.3103   -2.6476    0.0000 C    0  0  0  0  0  0  0  0  0  0  0  0
    1.1690   -1.9730    0.0000 C    0  0  0  0  0  0  0  0  0  0  0  0
    3.4516   -1.9730    0.0000 C    0  0  0  0  0  0  0  0  0  0  0  0
    2.3103    0.0000    0.0000 N    0  0  0  0  0  0  0  0  0  0  0  0
    3.4516   -0.6423    0.0000 C    0  0  0  0  0  0  0  0  0  0  0  0
    1.1690   -0.6423    0.0000 C    0  0  0  0  0  0  0  0  0  0  0  0
    0.0000   -2.6476    0.0000 Cl   0  0  0  0  0  0  0  0  0  0  0  0
    4.6206   -2.6476    0.0000 Cl   0  0  0  0  0  0  0  0  0  0  0  0
    2.3103   -3.9783    0.0000 O    0  0  0  0  0  0  0  0  0  0  0  0
    0.0000    0.0000    0.0000 C    0  0  0  0  0  0  0  0  0  0  0  0
    4.6206    0.0000    0.0000 C    0  0  0  0  0  0  0  0  0  0  0  0
  1  2  2  0  0  0  0
  1  3  1  0  0  0  0
  1  9  1  0  0  0  0
  2  6  1  0  0  0  0
  2  7  1  0  0  0  0
  3  5  2  0  0  0  0
  3  8  1  0  0  0  0
  4  5  1  0  0  0  0
  4  6  2  0  0  0  0
  5 11  1  0  0  0  0
  6 10  1  0  0  0  0
M  END
> <ID>
8744

> <Formula>
C7H7Cl2NO

> <FW>
192.0426

> <DSSTox_CID>
21793

> <DSSTox_RID>
79844

> <DSSTox_GSID>
41793

> <DSSTox_FileID_Sort>
4526

> <TS_ChemName>
Clopidol

> <TS_ChemName_Synonyms>


> <TS_CASRN>
2971-90-6

> <CASRN_ChemName_Relationship>
primary

> <TS_Description>
single chemical compound

> <ChemNote>
tautomers

> <STRUCTURE_Shown>
tested chemical

> <STRUCTURE_Formula>
C7H7Cl2NO

> <STRUCTURE_MW>
192.0426

> <STRUCTURE_ChemType>
defined organic

> <STRUCTURE_DefinedOrganicForm>
parent

> <STRUCTURE_IUPAC>
3,5-dichloro-2,6-dimethylpyridin-4-ol

> <STRUCTURE_SMILES>
Oc1c(Cl)c(C)nc(C)c1Cl

> <STRUCTURE_SMILES_Desalt>
Oc1c(Cl)c(C)nc(C)c1Cl

> <Substance_modify_yyyymmdd>
20080825

$$$$
