2975-34-0
ChemmineR-0915142007XD

 46 47  0  0  0  0  0  0  0  0  1 V2000
    7.0192   -7.7228    0.0000 C   0  0  0  0  0  0  0  0  0  0  0  0
    4.3195   -7.7228    0.0000 C   0  0  0  0  0  0  0  0  0  0  0  0
    4.9740   -6.5611    0.0000 C   0  0  0  0  0  0  0  0  0  0  0  0
    6.3484   -6.5611    0.0000 C   0  0  0  0  0  0  0  0  0  0  0  0
    6.3484   -8.8681    0.0000 O   0  0  0  0  0  0  0  0  0  0  0  0
    4.9740   -8.8681    0.0000 O   0  0  0  0  0  0  0  0  0  0  0  0
    8.3609   -7.7391    0.0000 O   0  0  0  0  0  0  0  0  0  0  0  0
    2.9778   -7.7391    0.0000 O   0  0  0  0  0  0  0  0  0  0  0  0
    3.9923   -4.0577    0.0000 C   0  0  0  0  0  0  0  0  0  0  0  0
    1.3253   -4.0577    0.0000 C   0  0  0  0  0  0  0  0  0  0  0  0
    1.9961   -2.9124    0.0000 C   0  0  0  0  0  0  0  0  0  0  0  0
    3.3378   -2.9124    0.0000 C   0  0  0  0  0  0  0  0  0  0  0  0
    3.3214   -5.2194    0.0000 O   0  0  0  0  0  0  0  0  0  0  0  0
    1.9961   -5.2194    0.0000 O   0  0  0  0  0  0  0  0  0  0  0  0
    5.3176   -4.0577    0.0000 O   0  0  0  0  0  0  0  0  0  0  0  0
    0.0000   -4.0577    0.0000 O   0  0  0  0  0  0  0  0  0  0  0  0
    8.3609   -2.6179    0.0000 N   0  0  0  0  0  0  0  0  0  0  0  0
    9.5062   -1.9798    0.0000 C   0  0  0  0  0  0  0  0  0  0  0  0
    8.3609    0.0000    0.0000 S   0  0  0  0  0  0  0  0  0  0  0  0
    9.5062   -0.6545    0.0000 C   0  0  0  0  0  0  0  0  0  0  0  0
    7.1992   -1.9798    0.0000 C   0  0  0  0  0  0  0  0  0  0  0  0
    7.1992   -0.6545    0.0000 C   0  0  0  0  0  0  0  0  0  0  0  0
   10.6515   -2.6179    0.0000 C   0  0  0  0  0  0  0  0  0  0  0  0
   11.7968   -1.9798    0.0000 C   0  0  0  0  0  0  0  0  0  0  0  0
   10.6515   -6.5774    0.0000 N   0  0  0  0  0  0  0  0  0  0  0  0
   12.9422   -7.9191    0.0000 N   0  0  0  0  0  0  0  0  0  0  0  0
   12.9585   -2.6506    0.0000 C   0  0  0  0  0  0  0  0  0  0  0  0
   10.6515    0.0000    0.0000 C   0  0  0  0  0  0  0  0  0  0  0  0
   11.7968   -0.6545    0.0000 C   0  0  0  0  0  0  0  0  0  0  0  0
   14.3166   -1.9961    0.0000 O   0  0  0  0  0  0  0  0  0  0  0  0
    8.3609   -3.9596    0.0000 C   0  0  0  0  0  0  0  0  0  0  0  0
   11.7805   -5.9393    0.0000 C   0  0  0  0  0  0  0  0  0  0  0  0
   10.6515   -7.9191    0.0000 C   0  0  0  0  0  0  0  0  0  0  0  0
   12.9422   -6.5774    0.0000 C   0  0  0  0  0  0  0  0  0  0  0  0
   11.7805   -8.5572    0.0000 C   0  0  0  0  0  0  0  0  0  0  0  0
    9.5062   -4.6140    0.0000 C   0  0  0  0  0  0  0  0  0  0  0  0
    9.5062   -5.9393    0.0000 C   0  0  0  0  0  0  0  0  0  0  0  0
    6.0539   -2.6179    0.0000 C   0  0  0  0  0  0  0  0  0  0  0  0
   14.0875   -8.5736    0.0000 C   0  0  0  0  0  0  0  0  0  0  0  0
    6.0539    0.0000    0.0000 C   0  0  0  0  0  0  0  0  0  0  0  0
   16.3618   -8.5736    0.0000 O   0  0  0  0  0  0  0  0  0  0  0  0
   12.9585   -3.9759    0.0000 C   0  0  0  0  0  0  0  0  0  0  0  0
   15.2165   -7.8864    0.0000 C   0  0  0  0  0  0  0  0  0  0  0  0
   14.0548   -4.6631    0.0000 C   0  0  0  0  0  0  0  0  0  0  0  0
    4.8922   -1.9798    0.0000 C   0  0  0  0  0  0  0  0  0  0  0  0
    4.8922   -0.6545    0.0000 C   0  0  0  0  0  0  0  0  0  0  0  0
  1  4  1  0  0  0  0
  1  5  2  0  0  0  0
  1  7  1  0  0  0  0
  2  3  1  0  0  0  0
  2  6  2  0  0  0  0
  2  8  1  0  0  0  0
  3  4  2  0  0  0  0
  9 12  1  0  0  0  0
  9 13  2  0  0  0  0
  9 15  1  0  0  0  0
 10 11  1  0  0  0  0
 10 14  2  0  0  0  0
 10 16  1  0  0  0  0
 11 12  2  0  0  0  0
 17 18  1  0  0  0  0
 17 21  1  0  0  0  0
 17 31  1  0  0  0  0
 18 20  2  0  0  0  0
 18 23  1  0  0  0  0
 19 22  1  0  0  0  0
 19 20  1  0  0  0  0
 20 28  1  0  0  0  0
 21 22  2  0  0  0  0
 21 38  1  0  0  0  0
 22 40  1  0  0  0  0
 23 24  2  0  0  0  0
 24 27  1  0  0  0  0
 24 29  1  0  0  0  0
 25 37  1  0  0  0  0
 25 32  1  0  0  0  0
 25 33  1  0  0  0  0
 26 35  1  0  0  0  0
 26 39  1  0  0  0  0
 26 34  1  0  0  0  0
 27 30  2  0  0  0  0
 27 42  1  0  0  0  0
 28 29  2  0  0  0  0
 31 36  1  0  0  0  0
 32 34  1  0  0  0  0
 33 35  1  0  0  0  0
 36 37  1  0  0  0  0
 38 45  2  0  0  0  0
 39 43  1  0  0  0  0
 40 46  2  0  0  0  0
 41 43  1  0  0  0  0
 42 44  1  0  0  0  0
 45 46  1  0  0  0  0
M  END
> <ID>
12929

> <Formula>
C32H39N3O10S

> <FW>
657.7312 (116.0722+116.0722+425.5868)

> <DSSTox_CID>
27830

> <DSSTox_RID>
82593

> <DSSTox_GSID>
47852

> <DSSTox_FileID_Sort>
7270

> <TS_ChemName>
Carphenazine dimaleate

> <TS_ChemName_Synonyms>


> <TS_CASRN>
2975-34-0

> <CASRN_ChemName_Relationship>
primary

> <TS_Description>
single chemical compound

> <ChemNote>
parent [2622-30-2]

> <STRUCTURE_Shown>
tested chemical

> <STRUCTURE_Formula>
C32H39N3O10S

> <STRUCTURE_MW>
657.7312

> <STRUCTURE_ChemType>
defined organic

> <STRUCTURE_DefinedOrganicForm>
complex

> <STRUCTURE_IUPAC>
1-(10-{3-[4-(2-hydroxyethyl)piperazin-1-yl]propyl}-10H-phenothiazin-2-yl)propan-1-one (2Z)-but-2-enedioate (1:2)

> <STRUCTURE_SMILES>
O=C(O)/C=C\C(=O)O.O=C(O)/C=C\C(=O)O.CCC(=O)c2cc3N(CCCN1CCN(CCO)CC1)c4ccccc4Sc3cc2

> <STRUCTURE_SMILES_Desalt>
CCC(=O)c2cc3N(CCCN1CCN(CCO)CC1)c4ccccc4Sc3cc2

> <Substance_modify_yyyymmdd>
20110729

$$$$
