29761-21-5
ChemmineR-0915142007XD

 27 28  0  0  0  0  0  0  0  0  1 V2000
   10.0347   -3.9678    0.0000 P   0  0  0  0  0  0  0  0  0  0  0  0
   11.3212   -3.9678    0.0000 O   0  0  0  0  0  0  0  0  0  0  0  0
   10.0347   -5.2679    0.0000 O   0  0  0  0  0  0  0  0  0  0  0  0
    8.7347   -3.9678    0.0000 O   0  0  0  0  0  0  0  0  0  0  0  0
   10.0347   -2.6949    0.0000 O   0  0  0  0  0  0  0  0  0  0  0  0
    8.9107   -5.9179    0.0000 C   0  0  0  0  0  0  0  0  0  0  0  0
    7.8003   -5.2679    0.0000 C   0  0  0  0  0  0  0  0  0  0  0  0
    6.7033   -5.9179    0.0000 C   0  0  0  0  0  0  0  0  0  0  0  0
    5.5794   -5.2679    0.0000 C   0  0  0  0  0  0  0  0  0  0  0  0
    4.4689   -5.9179    0.0000 C   0  0  0  0  0  0  0  0  0  0  0  0
    3.3449   -5.2679    0.0000 C   0  0  0  0  0  0  0  0  0  0  0  0
    2.2344   -5.9179    0.0000 C   0  0  0  0  0  0  0  0  0  0  0  0
    1.1240   -5.2679    0.0000 C   0  0  0  0  0  0  0  0  0  0  0  0
   11.1452   -2.0584    0.0000 C   0  0  0  0  0  0  0  0  0  0  0  0
   12.3504   -2.7355    0.0000 C   0  0  0  0  0  0  0  0  0  0  0  0
   11.1452   -0.6771    0.0000 C   0  0  0  0  0  0  0  0  0  0  0  0
   13.5421   -2.0584    0.0000 C   0  0  0  0  0  0  0  0  0  0  0  0
   12.3504    0.0000    0.0000 C   0  0  0  0  0  0  0  0  0  0  0  0
   13.5421   -0.6771    0.0000 C   0  0  0  0  0  0  0  0  0  0  0  0
    8.0982   -2.8574    0.0000 C   0  0  0  0  0  0  0  0  0  0  0  0
    8.8024   -1.6521    0.0000 C   0  0  0  0  0  0  0  0  0  0  0  0
    6.7033   -2.8574    0.0000 C   0  0  0  0  0  0  0  0  0  0  0  0
    8.0982   -0.4604    0.0000 C   0  0  0  0  0  0  0  0  0  0  0  0
    6.0127   -1.6521    0.0000 C   0  0  0  0  0  0  0  0  0  0  0  0
    6.7033   -0.4604    0.0000 C   0  0  0  0  0  0  0  0  0  0  0  0
    0.0000   -5.9179    0.0000 C   0  0  0  0  0  0  0  0  0  0  0  0
    1.1240   -3.9678    0.0000 C   0  0  0  0  0  0  0  0  0  0  0  0
  1  2  2  0  0  0  0
  1  3  1  0  0  0  0
  1  4  1  0  0  0  0
  1  5  1  0  0  0  0
  3  6  1  0  0  0  0
  4 20  1  0  0  0  0
  5 14  1  0  0  0  0
  6  7  1  0  0  0  0
  7  8  1  0  0  0  0
  8  9  1  0  0  0  0
  9 10  1  0  0  0  0
 10 11  1  0  0  0  0
 11 12  1  0  0  0  0
 12 13  1  0  0  0  0
 13 26  1  0  0  0  0
 13 27  1  0  0  0  0
 14 15  2  0  0  0  0
 14 16  1  0  0  0  0
 15 17  1  0  0  0  0
 16 18  2  0  0  0  0
 17 19  2  0  0  0  0
 18 19  1  0  0  0  0
 20 21  2  0  0  0  0
 20 22  1  0  0  0  0
 21 23  1  0  0  0  0
 22 24  2  0  0  0  0
 23 25  2  0  0  0  0
 24 25  1  0  0  0  0
M  END
> <ID>
4212

> <Formula>
C22H31O4P

> <FW>
390.4529

> <DSSTox_CID>
5465

> <DSSTox_RID>
77797

> <DSSTox_GSID>
25465

> <DSSTox_FileID_Sort>
2480

> <TS_ChemName>
Isodecyl diphenyl phosphate

> <TS_ChemName_Synonyms>


> <TS_CASRN>
29761-21-5

> <CASRN_ChemName_Relationship>
primary

> <TS_Description>
mixture or formulation

> <ChemNote>
mixture of isodecyl isomers; structure shown 8-methylnonyl

> <STRUCTURE_Shown>
representative isomer in mixture

> <STRUCTURE_Formula>
C22H31O4P

> <STRUCTURE_MW>
390.4529

> <STRUCTURE_ChemType>
defined organic

> <STRUCTURE_DefinedOrganicForm>
parent

> <STRUCTURE_IUPAC>
8-methylnonyl diphenyl phosphate

> <STRUCTURE_SMILES>
CC(C)CCCCCCCOP(=O)(Oc1ccccc1)Oc2ccccc2

> <STRUCTURE_SMILES_Desalt>
CC(C)CCCCCCCOP(=O)(Oc1ccccc1)Oc2ccccc2

> <Substance_modify_yyyymmdd>
20080429

$$$$
