298-59-9
ChemmineR-0915142007XD

 18 18  0  0  0  0  0  0  0  0  1 V2000
    3.4567   -1.9980    0.0000 C    0  0  0  0  0  0  0  0  0  0  0  0
    4.6113   -2.6617    0.0000 C    0  0  0  0  0  0  0  0  0  0  0  0
    5.7589   -1.9980    0.0000 C    0  0  0  0  0  0  0  0  0  0  0  0
    6.9134   -2.6617    0.0000 C    0  0  0  0  0  0  0  0  0  0  0  0
    6.9134   -3.9891    0.0000 C    0  0  0  0  0  0  0  0  0  0  0  0
    5.7589   -4.6597    0.0000 C    0  0  0  0  0  0  0  0  0  0  0  0
    4.6113   -3.9891    0.0000 C    0  0  0  0  0  0  0  0  0  0  0  0
    2.3022   -2.6617    0.0000 C    0  0  0  0  0  0  0  0  0  0  0  0
    2.3022   -3.9891    0.0000 C    0  0  0  0  0  0  0  0  0  0  0  0
    1.1545   -4.6597    0.0000 C    0  0  0  0  0  0  0  0  0  0  0  0
    0.0000   -3.9891    0.0000 C    0  0  0  0  0  0  0  0  0  0  0  0
    0.0000   -2.6617    0.0000 C    0  0  0  0  0  0  0  0  0  0  0  0
    1.1545   -1.9980    0.0000 N    0  0  0  0  0  0  0  0  0  0  0  0
    3.4567   -0.6637    0.0000 C    0  0  0  0  0  0  0  0  0  0  0  0
    2.3022    0.0000    0.0000 O    0  0  0  0  0  0  0  0  0  0  0  0
    1.1545   -0.6637    0.0000 C    0  0  0  0  0  0  0  0  0  0  0  0
    4.6113    0.0000    0.0000 O    0  0  0  0  0  0  0  0  0  0  0  0
    3.3668   -5.2196    0.0000 Cl   0  0  0  0  0  0  0  0  0  0  0  0
  1  2  1  0  0  0  0
  1  8  1  0  0  0  0
  1 14  1  0  0  0  0
  2  3  2  0  0  0  0
  2  7  1  0  0  0  0
  3  4  1  0  0  0  0
  4  5  2  0  0  0  0
  5  6  1  0  0  0  0
  6  7  2  0  0  0  0
  8  9  1  0  0  0  0
  8 13  1  0  0  0  0
  9 10  1  0  0  0  0
 10 11  1  0  0  0  0
 11 12  1  0  0  0  0
 12 13  1  0  0  0  0
 14 15  1  0  0  0  0
 14 17  2  0  0  0  0
 15 16  1  0  0  0  0
M  END
> <ID>
852

> <Formula>
C14H20ClNO2

> <FW>
269.7671 (233.3062+36.4609)

> <DSSTox_CID>
886

> <DSSTox_RID>
75843

> <DSSTox_GSID>
20886

> <DSSTox_FileID_Sort>
527

> <TS_ChemName>
Methylphenidate hydrochloride

> <TS_ChemName_Synonyms>


> <TS_CASRN>
298-59-9

> <CASRN_ChemName_Relationship>
primary

> <TS_Description>
single chemical compound

> <ChemNote>
parent [113-45-1]

> <STRUCTURE_Shown>
tested chemical

> <STRUCTURE_Formula>
C14H20ClNO2

> <STRUCTURE_MW>
269.7671

> <STRUCTURE_ChemType>
defined organic

> <STRUCTURE_DefinedOrganicForm>
complex

> <STRUCTURE_IUPAC>
methyl phenyl(piperidin-2-yl)acetate hydrochloride (1:1)

> <STRUCTURE_SMILES>
Cl.O=C(OC)C(C1CCCCN1)c2ccccc2

> <STRUCTURE_SMILES_Desalt>
O=C(OC)C(C1CCCCN1)c2ccccc2

> <Substance_modify_yyyymmdd>
20080429

$$$$
