298-07-7
ChemmineR-0915142007XD

 21 20  0  0  0  0  0  0  0  0  1 V2000
    4.6621   -1.1569    0.0000 P   0  0  0  0  0  0  0  0  0  0  0  0
    3.5053   -0.4974    0.0000 O   0  0  0  0  0  0  0  0  0  0  0  0
    3.9911   -2.3021    0.0000 O   0  0  0  0  0  0  0  0  0  0  0  0
    5.7958   -1.8278    0.0000 O   0  0  0  0  0  0  0  0  0  0  0  0
    5.3215    0.0000    0.0000 O   0  0  0  0  0  0  0  0  0  0  0  0
    2.6608   -2.3021    0.0000 C   0  0  0  0  0  0  0  0  0  0  0  0
    2.0014   -3.4590    0.0000 C   0  0  0  0  0  0  0  0  0  0  0  0
    2.6608   -4.6159    0.0000 C   0  0  0  0  0  0  0  0  0  0  0  0
    2.0014   -5.7727    0.0000 C   0  0  0  0  0  0  0  0  0  0  0  0
    2.6608   -6.9180    0.0000 C   0  0  0  0  0  0  0  0  0  0  0  0
    2.0014   -8.0748    0.0000 C   0  0  0  0  0  0  0  0  0  0  0  0
    0.6710   -3.4590    0.0000 C   0  0  0  0  0  0  0  0  0  0  0  0
    0.0000   -4.6159    0.0000 C   0  0  0  0  0  0  0  0  0  0  0  0
    5.7958   -3.1582    0.0000 C   0  0  0  0  0  0  0  0  0  0  0  0
    6.9527   -3.8176    0.0000 C   0  0  0  0  0  0  0  0  0  0  0  0
    8.1096   -3.1582    0.0000 C   0  0  0  0  0  0  0  0  0  0  0  0
    9.2664   -3.8176    0.0000 C   0  0  0  0  0  0  0  0  0  0  0  0
   10.4117   -3.1582    0.0000 C   0  0  0  0  0  0  0  0  0  0  0  0
   11.5686   -3.8176    0.0000 C   0  0  0  0  0  0  0  0  0  0  0  0
    6.9527   -5.1480    0.0000 C   0  0  0  0  0  0  0  0  0  0  0  0
    8.1096   -5.8190    0.0000 C   0  0  0  0  0  0  0  0  0  0  0  0
  1  2  2  0  0  0  0
  1  3  1  0  0  0  0
  1  4  1  0  0  0  0
  1  5  1  0  0  0  0
  3  6  1  0  0  0  0
  4 14  1  0  0  0  0
  6  7  1  0  0  0  0
  7  8  1  0  0  0  0
  7 12  1  0  0  0  0
  8  9  1  0  0  0  0
  9 10  1  0  0  0  0
 10 11  1  0  0  0  0
 12 13  1  0  0  0  0
 14 15  1  0  0  0  0
 15 16  1  0  0  0  0
 15 20  1  0  0  0  0
 16 17  1  0  0  0  0
 17 18  1  0  0  0  0
 18 19  1  0  0  0  0
 20 21  1  0  0  0  0
M  END
> <ID>
4946

> <Formula>
C16H35O4P

> <FW>
322.4205

> <DSSTox_CID>
7134

> <DSSTox_RID>
78320

> <DSSTox_GSID>
27134

> <DSSTox_FileID_Sort>
3003

> <TS_ChemName>
Bis(2-ethylhexyl) phosphate

> <TS_ChemName_Synonyms>


> <TS_CASRN>
298-07-7

> <CASRN_ChemName_Relationship>
primary

> <TS_Description>
single chemical compound

> <ChemNote>


> <STRUCTURE_Shown>
tested chemical

> <STRUCTURE_Formula>
C16H35O4P

> <STRUCTURE_MW>
322.4205

> <STRUCTURE_ChemType>
defined organic

> <STRUCTURE_DefinedOrganicForm>
parent

> <STRUCTURE_IUPAC>
bis(2-ethylhexyl) hydrogen phosphate

> <STRUCTURE_SMILES>
CCCCC(COP(O)(=O)OCC(CC)CCCC)CC

> <STRUCTURE_SMILES_Desalt>
CCCCC(COP(O)(=O)OCC(CC)CCCC)CC

> <Substance_modify_yyyymmdd>
20080429

$$$$
