298-83-9
ChemmineR-0915142007XD

 58 63  0  0  0  0  0  0  0  0  2 V2000
   12.7365  -10.6238    0.0000 C    0  0  0  0  0  0  0  0  0  0  0  0
   13.4005   -9.4568    0.0000 O    0  0  0  0  0  0  0  0  0  0  0  0
   12.7365   -8.2898    0.0000 C    0  0  0  0  0  0  0  0  0  0  0  0
   11.3884   -8.2898    0.0000 C    0  0  0  0  0  0  0  0  0  0  0  0
   10.7043   -7.1228    0.0000 C    0  0  0  0  0  0  0  0  0  0  0  0
   11.3884   -5.9759    0.0000 C    0  0  0  0  0  0  0  0  0  0  0  0
   12.7365   -5.9759    0.0000 C    0  0  0  0  0  0  0  0  0  0  0  0
   13.4005   -7.1228    0.0000 C    0  0  0  0  0  0  0  0  0  0  0  0
   14.7084   -7.1228    0.0000 N    0  3  0  0  0  0  0  0  0  0  0  0
   15.4931   -8.1892    0.0000 N    0  0  0  0  0  0  0  0  0  0  0  0
   16.7607   -7.8069    0.0000 C    0  0  0  0  0  0  0  0  0  0  0  0
   16.7607   -6.4588    0.0000 N    0  0  0  0  0  0  0  0  0  0  0  0
   15.5132   -6.0564    0.0000 N    0  0  0  0  0  0  0  0  0  0  0  0
   15.0907   -4.7888    0.0000 C    0  0  0  0  0  0  0  0  0  0  0  0
   15.9760   -3.8029    0.0000 C    0  0  0  0  0  0  0  0  0  0  0  0
   15.5736   -2.5554    0.0000 C    0  0  0  0  0  0  0  0  0  0  0  0
   14.2859   -2.2535    0.0000 C    0  0  0  0  0  0  0  0  0  0  0  0
   13.3804   -3.2395    0.0000 C    0  0  0  0  0  0  0  0  0  0  0  0
   13.8029   -4.5071    0.0000 C    0  0  0  0  0  0  0  0  0  0  0  0
   13.8432   -1.0060    0.0000 N    0  3  0  0  0  0  0  0  0  0  0  0
   12.5555   -0.7244    0.0000 O    0  5  0  0  0  0  0  0  0  0  0  0
   14.7486    0.0000    0.0000 O    0  0  0  0  0  0  0  0  0  0  0  0
   17.8271   -8.5916    0.0000 C    0  0  0  0  0  0  0  0  0  0  0  0
   17.7064   -9.9196    0.0000 C    0  0  0  0  0  0  0  0  0  0  0  0
   18.7728  -10.7043    0.0000 C    0  0  0  0  0  0  0  0  0  0  0  0
   19.9801  -10.1611    0.0000 C    0  0  0  0  0  0  0  0  0  0  0  0
   20.1209   -8.8331    0.0000 C    0  0  0  0  0  0  0  0  0  0  0  0
   19.0545   -8.0484    0.0000 C    0  0  0  0  0  0  0  0  0  0  0  0
    9.4166   -7.1228    0.0000 C    0  0  0  0  0  0  0  0  0  0  0  0
    8.7325   -8.2697    0.0000 C    0  0  0  0  0  0  0  0  0  0  0  0
    7.4045   -8.2697    0.0000 C    0  0  0  0  0  0  0  0  0  0  0  0
    6.7405   -7.1228    0.0000 C    0  0  0  0  0  0  0  0  0  0  0  0
    7.4045   -5.9759    0.0000 C    0  0  0  0  0  0  0  0  0  0  0  0
    8.7325   -5.9759    0.0000 C    0  0  0  0  0  0  0  0  0  0  0  0
    6.7405   -4.8089    0.0000 O    0  0  0  0  0  0  0  0  0  0  0  0
    7.4246   -3.6620    0.0000 C    0  0  0  0  0  0  0  0  0  0  0  0
    5.4125   -7.1228    0.0000 N    0  3  0  0  0  0  0  0  0  0  0  0
    4.6278   -6.0363    0.0000 N    0  0  0  0  0  0  0  0  0  0  0  0
    3.3602   -6.4387    0.0000 C    0  0  0  0  0  0  0  0  0  0  0  0
    3.3803   -7.7868    0.0000 N    0  0  0  0  0  0  0  0  0  0  0  0
    4.6077   -8.1892    0.0000 N    0  0  0  0  0  0  0  0  0  0  0  0
    5.0504   -9.4568    0.0000 C    0  0  0  0  0  0  0  0  0  0  0  0
    4.1449  -10.4629    0.0000 C    0  0  0  0  0  0  0  0  0  0  0  0
    4.5473  -11.6903    0.0000 C    0  0  0  0  0  0  0  0  0  0  0  0
    5.8351  -11.9921    0.0000 C    0  0  0  0  0  0  0  0  0  0  0  0
    6.7405  -11.0061    0.0000 C    0  0  0  0  0  0  0  0  0  0  0  0
    6.3381   -9.7385    0.0000 C    0  0  0  0  0  0  0  0  0  0  0  0
    6.2777  -13.2597    0.0000 N    0  3  0  0  0  0  0  0  0  0  0  0
    7.5655  -13.5213    0.0000 O    0  5  0  0  0  0  0  0  0  0  0  0
    5.3723  -14.2456    0.0000 O    0  0  0  0  0  0  0  0  0  0  0  0
    2.2938   -5.6741    0.0000 C    0  0  0  0  0  0  0  0  0  0  0  0
    2.4145   -4.3461    0.0000 C    0  0  0  0  0  0  0  0  0  0  0  0
    1.3682   -3.5413    0.0000 C    0  0  0  0  0  0  0  0  0  0  0  0
    0.1408   -4.0845    0.0000 C    0  0  0  0  0  0  0  0  0  0  0  0
    0.0000   -5.4125    0.0000 C    0  0  0  0  0  0  0  0  0  0  0  0
    1.0664   -6.1972    0.0000 C    0  0  0  0  0  0  0  0  0  0  0  0
    4.7485   -2.8370    0.0000 Cl   0  5  0  0  0  0  0  0  0  0  0  0
   16.2979  -10.3019    0.0000 Cl   0  5  0  0  0  0  0  0  0  0  0  0
  1  2  1  0  0  0  0
  2  3  1  0  0  0  0
  3  4  2  0  0  0  0
  3  8  1  0  0  0  0
  4  5  1  0  0  0  0
  5  6  2  0  0  0  0
  5 29  1  0  0  0  0
  6  7  1  0  0  0  0
  7  8  2  0  0  0  0
  8  9  1  0  0  0  0
  9 10  2  0  0  0  0
  9 13  1  0  0  0  0
 10 11  1  0  0  0  0
 11 12  2  0  0  0  0
 11 23  1  0  0  0  0
 12 13  1  0  0  0  0
 13 14  1  0  0  0  0
 14 15  2  0  0  0  0
 14 19  1  0  0  0  0
 15 16  1  0  0  0  0
 16 17  2  0  0  0  0
 17 18  1  0  0  0  0
 17 20  1  0  0  0  0
 18 19  2  0  0  0  0
 20 21  1  0  0  0  0
 20 22  2  0  0  0  0
 23 24  2  0  0  0  0
 23 28  1  0  0  0  0
 24 25  1  0  0  0  0
 25 26  2  0  0  0  0
 26 27  1  0  0  0  0
 27 28  2  0  0  0  0
 29 30  2  0  0  0  0
 29 34  1  0  0  0  0
 30 31  1  0  0  0  0
 31 32  2  0  0  0  0
 32 33  1  0  0  0  0
 32 37  1  0  0  0  0
 33 34  2  0  0  0  0
 33 35  1  0  0  0  0
 35 36  1  0  0  0  0
 37 38  2  0  0  0  0
 37 41  1  0  0  0  0
 38 39  1  0  0  0  0
 39 40  2  0  0  0  0
 39 51  1  0  0  0  0
 40 41  1  0  0  0  0
 41 42  1  0  0  0  0
 42 43  2  0  0  0  0
 42 47  1  0  0  0  0
 43 44  1  0  0  0  0
 44 45  2  0  0  0  0
 45 46  1  0  0  0  0
 45 48  1  0  0  0  0
 46 47  2  0  0  0  0
 48 49  1  0  0  0  0
 48 50  2  0  0  0  0
 51 52  2  0  0  0  0
 51 56  1  0  0  0  0
 52 53  1  0  0  0  0
 53 54  2  0  0  0  0
 54 55  1  0  0  0  0
 55 56  2  0  0  0  0
M  END
> <ID>
11913

> <Formula>
C40H30Cl2N10O6

> <FW>
817.6356 (746.7285+35.4535+35.4535)

> <DSSTox_CID>
26719

> <DSSTox_RID>
81849

> <DSSTox_GSID>
46719

> <DSSTox_FileID_Sort>
6530

> <TS_ChemName>
Nitroblue tetrazolium dichloride

> <TS_ChemName_Synonyms>
Nitro Blue Tetrazolium chloride

> <TS_CASRN>
298-83-9

> <CASRN_ChemName_Relationship>
primary

> <TS_Description>
single chemical compound

> <ChemNote>
ammonium; tautomers; parent [7695-60-5]

> <STRUCTURE_Shown>
tested chemical

> <STRUCTURE_Formula>
C40H30Cl2N10O6

> <STRUCTURE_MW>
817.6356

> <STRUCTURE_ChemType>
defined organic

> <STRUCTURE_DefinedOrganicForm>
salt

> <STRUCTURE_IUPAC>
3,3'-(3,3'-dimethoxybiphenyl-4,4'-diyl)bis[2-(4-nitrophenyl)-5-phenyl-2H-tetrazol-3-ium] dichloride

> <STRUCTURE_SMILES>
[Cl-].[Cl-].[O-][N+](=O)c1ccc(cc1)n2nc(n[n+]2c3ccc(cc3OC)c7ccc([n+]5nc(nn5c4ccc(cc4)[N+]([O-])=O)c6ccccc6)c(OC)c7)c8ccccc8

> <STRUCTURE_SMILES_Desalt>
[O-][N+](=O)c1ccc(cc1)n2nc(n[n+]2c3ccc(cc3OC)c7ccc([n+]5nc(nn5c4ccc(cc4)[N+]([O-])=O)c6ccccc6)c(OC)c7)c8ccccc8

> <Substance_modify_yyyymmdd>
20110804

$$$$
