298-06-6
ChemmineR-0915142007XD

  9  8  0  0  0  0  0  0  0  0  1 V2000
    3.3210   -1.3303    0.0000 P   0  0  0  0  0  0  0  0  0  0  0  0
    1.9907   -1.3303    0.0000 O   0  0  0  0  0  0  0  0  0  0  0  0
    3.3210   -2.6605    0.0000 O   0  0  0  0  0  0  0  0  0  0  0  0
    3.3210    0.0000    0.0000 S   0  0  0  0  0  0  0  0  0  0  0  0
    4.6513   -1.3303    0.0000 S   0  0  0  0  0  0  0  0  0  0  0  0
    2.1675   -3.3210    0.0000 C   0  0  0  0  0  0  0  0  0  0  0  0
    2.1675   -4.6513    0.0000 C   0  0  0  0  0  0  0  0  0  0  0  0
    1.3303   -0.1767    0.0000 C   0  0  0  0  0  0  0  0  0  0  0  0
    0.0000   -0.1767    0.0000 C   0  0  0  0  0  0  0  0  0  0  0  0
  1  2  1  0  0  0  0
  1  3  1  0  0  0  0
  1  5  1  0  0  0  0
  1  4  2  0  0  0  0
  2  8  1  0  0  0  0
  3  6  1  0  0  0  0
  6  7  1  0  0  0  0
  8  9  1  0  0  0  0
M  END
> <ID>
4945

> <Formula>
C4H11O2PS2

> <FW>
186.2327

> <DSSTox_CID>
7133

> <DSSTox_RID>
78319

> <DSSTox_GSID>
27133

> <DSSTox_FileID_Sort>
3002

> <TS_ChemName>
O,O-Diethyl dithiophosphate

> <TS_ChemName_Synonyms>


> <TS_CASRN>
298-06-6

> <CASRN_ChemName_Relationship>
primary

> <TS_Description>
single chemical compound

> <ChemNote>


> <STRUCTURE_Shown>
tested chemical

> <STRUCTURE_Formula>
C4H11O2PS2

> <STRUCTURE_MW>
186.2327

> <STRUCTURE_ChemType>
defined organic

> <STRUCTURE_DefinedOrganicForm>
parent

> <STRUCTURE_IUPAC>
O,O-diethyl hydrogen phosphorodithioate

> <STRUCTURE_SMILES>
CCOP(=S)(S)OCC

> <STRUCTURE_SMILES_Desalt>
CCOP(=S)(S)OCC

> <Substance_modify_yyyymmdd>
20080429

$$$$
