298-57-7
ChemmineR-0915142007XD

 28 31  0  0  0  0  0  0  0  0  1 V2000
    2.3087   -0.6774    0.0000 C   0  0  0  0  0  0  0  0  0  0  0  0
    3.4562    0.0000    0.0000 C   0  0  0  0  0  0  0  0  0  0  0  0
    4.6175   -0.6774    0.0000 C   0  0  0  0  0  0  0  0  0  0  0  0
    4.6175   -2.0046    0.0000 C   0  0  0  0  0  0  0  0  0  0  0  0
    3.4562   -2.6544    0.0000 C   0  0  0  0  0  0  0  0  0  0  0  0
    3.4562   -4.0092    0.0000 C   0  0  0  0  0  0  0  0  0  0  0  0
    2.3087   -4.6728    0.0000 C   0  0  0  0  0  0  0  0  0  0  0  0
    2.3087   -6.0000    0.0000 C   0  0  0  0  0  0  0  0  0  0  0  0
    1.1475   -6.6636    0.0000 C   0  0  0  0  0  0  0  0  0  0  0  0
    0.0000   -6.0000    0.0000 C   0  0  0  0  0  0  0  0  0  0  0  0
    0.0000   -4.6728    0.0000 C   0  0  0  0  0  0  0  0  0  0  0  0
    1.1475   -4.0092    0.0000 C   0  0  0  0  0  0  0  0  0  0  0  0
    4.6175   -4.6728    0.0000 N   0  0  0  0  0  0  0  0  0  0  0  0
    5.7650   -4.0092    0.0000 C   0  0  0  0  0  0  0  0  0  0  0  0
    6.9124   -4.6728    0.0000 C   0  0  0  0  0  0  0  0  0  0  0  0
    6.9124   -6.0000    0.0000 N   0  0  0  0  0  0  0  0  0  0  0  0
    8.0599   -6.6636    0.0000 C   0  0  0  0  0  0  0  0  0  0  0  0
    9.2212   -6.0000    0.0000 C   0  0  0  0  0  0  0  0  0  0  0  0
   10.3686   -6.6636    0.0000 C   0  0  0  0  0  0  0  0  0  0  0  0
   11.5161   -6.0000    0.0000 C   0  0  0  0  0  0  0  0  0  0  0  0
   11.5161   -4.6728    0.0000 C   0  0  0  0  0  0  0  0  0  0  0  0
   12.6774   -4.0092    0.0000 C   0  0  0  0  0  0  0  0  0  0  0  0
   13.8248   -4.6728    0.0000 C   0  0  0  0  0  0  0  0  0  0  0  0
   13.8248   -6.0000    0.0000 C   0  0  0  0  0  0  0  0  0  0  0  0
   12.6774   -6.6636    0.0000 C   0  0  0  0  0  0  0  0  0  0  0  0
    5.7650   -6.6636    0.0000 C   0  0  0  0  0  0  0  0  0  0  0  0
    4.6175   -6.0000    0.0000 C   0  0  0  0  0  0  0  0  0  0  0  0
    2.3087   -2.0046    0.0000 C   0  0  0  0  0  0  0  0  0  0  0  0
  1  2  2  0  0  0  0
  1 28  1  0  0  0  0
  2  3  1  0  0  0  0
  3  4  2  0  0  0  0
  4  5  1  0  0  0  0
  5  6  1  0  0  0  0
  5 28  2  0  0  0  0
  6  7  1  0  0  0  0
  6 13  1  0  0  0  0
  7  8  2  0  0  0  0
  7 12  1  0  0  0  0
  8  9  1  0  0  0  0
  9 10  2  0  0  0  0
 10 11  1  0  0  0  0
 11 12  2  0  0  0  0
 13 14  1  0  0  0  0
 13 27  1  0  0  0  0
 14 15  1  0  0  0  0
 15 16  1  0  0  0  0
 16 17  1  0  0  0  0
 16 26  1  0  0  0  0
 17 18  1  0  0  0  0
 18 19  2  0  0  0  0
 19 20  1  0  0  0  0
 20 21  2  0  0  0  0
 20 25  1  0  0  0  0
 21 22  1  0  0  0  0
 22 23  2  0  0  0  0
 23 24  1  0  0  0  0
 24 25  2  0  0  0  0
 26 27  1  0  0  0  0
M  END
> <ID>
2550

> <Formula>
C26H28N2

> <FW>
368.5139

> <DSSTox_CID>
2821

> <DSSTox_RID>
76744

> <DSSTox_GSID>
22821

> <DSSTox_FileID_Sort>
1428

> <TS_ChemName>
Cinnarizine

> <TS_ChemName_Synonyms>


> <TS_CASRN>
298-57-7

> <CASRN_ChemName_Relationship>
primary

> <TS_Description>
single chemical compound

> <ChemNote>
stereochem

> <STRUCTURE_Shown>
tested chemical

> <STRUCTURE_Formula>
C26H28N2

> <STRUCTURE_MW>
368.5139

> <STRUCTURE_ChemType>
defined organic

> <STRUCTURE_DefinedOrganicForm>
parent

> <STRUCTURE_IUPAC>
1-(diphenylmethyl)-4-[(2E)-3-phenylprop-2-en-1-yl]piperazine

> <STRUCTURE_SMILES>
c1ccccc1C(c2ccccc2)N3CCN(CC3)C/C=C/c4ccccc4

> <STRUCTURE_SMILES_Desalt>
c1ccccc1C(c2ccccc2)N3CCN(CC3)C/C=C/c4ccccc4

> <Substance_modify_yyyymmdd>
20080429

$$$$
