298198-52-4
ChemmineR-0915142007XD

 19 21  0  0  0  0  0  0  0  0  1 V2000
    1.4561   -1.2766    0.0000 N    0  0  0  0  0  0  0  0  0  0  0  0
    1.3963    0.0000    0.0000 C    0  0  0  0  0  0  0  0  0  0  0  0
    2.7427   -1.8451    0.0000 C    0  0  0  0  0  0  0  0  0  0  0  0
    0.2793   -1.9249    0.0000 C    0  0  0  0  0  0  0  0  0  0  0  0
    0.7281   -0.8477    0.0000 C    0  0  0  0  0  0  0  0  0  0  0  0
    3.0818   -3.1915    0.0000 C    0  0  0  0  0  0  0  0  0  0  0  0
    0.0000   -3.2414    0.0000 C    0  0  0  0  0  0  0  0  0  0  0  0
    0.9076   -2.5931    0.0000 C    0  0  0  0  0  0  0  0  0  0  0  0
    2.1543   -2.5432    0.0000 N    0  0  0  0  0  0  0  0  0  0  0  0
    1.7852   -3.8298    0.0000 C    0  0  0  0  0  0  0  0  0  0  0  0
    0.4688   -4.1490    0.0000 O    0  0  0  0  0  0  0  0  0  0  0  0
    2.7128   -4.7972    0.0000 O    0  0  0  0  0  0  0  0  0  0  0  0
    2.3238   -6.0938    0.0000 C    0  0  0  0  0  0  0  0  0  0  0  0
    3.2613   -7.0712    0.0000 C    0  0  0  0  0  0  0  0  0  0  0  0
    1.0173   -6.4029    0.0000 C    0  0  0  0  0  0  0  0  0  0  0  0
    2.8724   -8.3677    0.0000 C    0  0  0  0  0  0  0  0  0  0  0  0
    0.6283   -7.6995    0.0000 C    0  0  0  0  0  0  0  0  0  0  0  0
    1.5559   -8.6769    0.0000 C    0  0  0  0  0  0  0  0  0  0  0  0
    1.1868   -9.9734    0.0000 Br   0  0  0  0  0  0  0  0  0  0  0  0
  1  2  1  0  0  0  0
  1  3  1  0  0  0  0
  1  4  1  0  0  0  0
  2  5  1  0  0  0  0
  3  6  1  0  0  0  0
  4  7  1  0  0  0  0
  5  8  1  0  0  0  0
  6  9  1  0  0  0  0
  7  8  1  0  0  0  0
  8  9  1  0  0  0  0
  9 10  1  0  0  0  0
 10 11  2  0  0  0  0
 10 12  1  0  0  0  0
 12 13  1  0  0  0  0
 13 14  1  0  0  0  0
 13 15  2  0  0  0  0
 14 16  2  0  0  0  0
 15 17  1  0  0  0  0
 16 18  1  0  0  0  0
 17 18  2  0  0  0  0
 18 19  1  0  0  0  0
M  END
> <ID>
12501

> <Formula>
C14H17BrN2O2

> <FW>
325.201

> <DSSTox_CID>
27359

> <DSSTox_RID>
82295

> <DSSTox_GSID>
47359

> <DSSTox_FileID_Sort>
6976

> <TS_ChemName>
SSR180711

> <TS_ChemName_Synonyms>


> <TS_CASRN>
298198-52-4

> <CASRN_ChemName_Relationship>
primary

> <TS_Description>
single chemical compound

> <ChemNote>


> <STRUCTURE_Shown>
tested chemical

> <STRUCTURE_Formula>
C14H17BrN2O2

> <STRUCTURE_MW>
325.201

> <STRUCTURE_ChemType>
defined organic

> <STRUCTURE_DefinedOrganicForm>
parent

> <STRUCTURE_IUPAC>
4-bromophenyl 1,4-diazabicyclo[3.2.2]nonane-4-carboxylate

> <STRUCTURE_SMILES>
Brc1ccc(cc1)OC(=O)N3CCN2CCC3CC2

> <STRUCTURE_SMILES_Desalt>
Brc1ccc(cc1)OC(=O)N3CCN2CCC3CC2

> <Substance_modify_yyyymmdd>
20130910

$$$$
