29836-26-8
ChemmineR-0915142007XD

 20 20  0  0  1  0  0  0  0  0  1 V2000
    3.9900   -4.6018    0.0000 C   0  0  0  0  0  0  0  0  0  0  0  0
    5.3200   -4.6018    0.0000 O   0  0  0  0  0  0  0  0  0  0  0  0
    3.3383   -5.7456    0.0000 C   0  0  0  0  0  0  0  0  0  0  0  0
    3.9900   -6.9027    0.0000 O   0  0  0  0  0  0  0  0  0  0  0  0
    2.0083   -5.7456    0.0000 C   0  0  0  0  0  0  0  0  0  0  0  0
    1.3300   -6.9027    0.0000 O   0  0  0  0  0  0  0  0  0  0  0  0
    1.3300   -4.6018    0.0000 C   0  0  0  0  0  0  0  0  0  0  0  0
    0.0000   -4.6018    0.0000 O   0  0  0  0  0  0  0  0  0  0  0  0
    2.0083   -3.4447    0.0000 C   0  0  0  0  0  0  0  0  0  0  0  0
    3.3383   -3.4447    0.0000 O   0  0  0  0  0  0  0  0  0  0  0  0
    1.3300   -2.3009    0.0000 C   0  0  0  0  0  0  0  0  0  0  0  0
    0.0000   -2.3009    0.0000 O   0  0  0  0  0  0  0  0  0  0  0  0
    5.9983   -3.4447    0.0000 C   0  0  0  0  0  0  0  0  0  0  0  0
    7.3283   -3.4447    0.0000 C   0  0  0  0  0  0  0  0  0  0  0  0
    7.9800   -2.3009    0.0000 C   0  0  0  0  0  0  0  0  0  0  0  0
    9.3100   -2.3009    0.0000 C   0  0  0  0  0  0  0  0  0  0  0  0
    9.9883   -1.1438    0.0000 C   0  0  0  0  0  0  0  0  0  0  0  0
   11.3183   -1.1438    0.0000 C   0  0  0  0  0  0  0  0  0  0  0  0
   11.9700    0.0000    0.0000 C   0  0  0  0  0  0  0  0  0  0  0  0
   13.3000    0.0000    0.0000 C   0  0  0  0  0  0  0  0  0  0  0  0
  1  2  1  1  0  0  0
  1  3  1  0  0  0  0
  1 10  1  0  0  0  0
  2 13  1  0  0  0  0
  3  4  1  6  0  0  0
  3  5  1  0  0  0  0
  5  6  1  1  0  0  0
  5  7  1  0  0  0  0
  7  8  1  6  0  0  0
  7  9  1  0  0  0  0
  9 10  1  0  0  0  0
  9 11  1  1  0  0  0
 11 12  1  0  0  0  0
 13 14  1  0  0  0  0
 14 15  1  0  0  0  0
 15 16  1  0  0  0  0
 16 17  1  0  0  0  0
 17 18  1  0  0  0  0
 18 19  1  0  0  0  0
 19 20  1  0  0  0  0
M  END
> <ID>
9163

> <Formula>
C14H28O6

> <FW>
292.3685

> <DSSTox_CID>
22234

> <DSSTox_RID>
79967

> <DSSTox_GSID>
42234

> <DSSTox_FileID_Sort>
4649

> <TS_ChemName>
Octyl beta-D-glucopyranoside

> <TS_ChemName_Synonyms>


> <TS_CASRN>
29836-26-8

> <CASRN_ChemName_Relationship>
primary

> <TS_Description>
single chemical compound

> <ChemNote>
stereochem

> <STRUCTURE_Shown>
tested chemical

> <STRUCTURE_Formula>
C14H28O6

> <STRUCTURE_MW>
292.3685

> <STRUCTURE_ChemType>
defined organic

> <STRUCTURE_DefinedOrganicForm>
parent

> <STRUCTURE_IUPAC>
octyl beta-D-glucopyranoside

> <STRUCTURE_SMILES>
OC[C@H]1O[C@@H](OCCCCCCCC)[C@H](O)[C@@H](O)[C@@H]1O

> <STRUCTURE_SMILES_Desalt>
OC[C@H]1O[C@@H](OCCCCCCCC)[C@H](O)[C@@H](O)[C@@H]1O

> <Substance_modify_yyyymmdd>
20080825

$$$$
