29849-82-9
ChemmineR-0915142007XD

 24 23  0  0  1  0  0  0  0  0  1 V2000
    0.5319   -1.3461    0.0000 O   0  0  0  0  0  0  0  0  0  0  0  0
    1.6826   -2.0082    0.0000 C   0  0  0  0  0  0  0  0  0  0  0  0
    2.8332   -1.3461    0.0000 C   0  0  0  0  0  0  0  0  0  0  0  0
    2.8332    0.0000    0.0000 O   0  0  0  0  0  0  0  0  0  0  0  0
    3.9839   -2.0082    0.0000 C   0  0  0  0  0  0  0  0  0  0  0  0
    5.1237   -1.3461    0.0000 O   0  0  0  0  0  0  0  0  0  0  0  0
    6.2744   -2.0082    0.0000 P   0  0  0  0  0  0  0  0  0  0  0  0
    6.9474   -0.8467    0.0000 O   0  0  0  0  0  0  0  0  0  0  0  0
    5.6230   -3.1589    0.0000 O   0  0  0  0  0  0  0  0  0  0  0  0
    7.4250   -2.6595    0.0000 O   0  0  0  0  0  0  0  0  0  0  0  0
    2.3013   -4.2770    0.0000 C   0  0  0  0  0  0  0  0  0  0  0  0
    2.3013   -5.6122    0.0000 C   0  0  0  0  0  0  0  0  0  0  0  0
    1.1507   -3.6040    0.0000 C   0  0  0  0  0  0  0  0  0  0  0  0
    1.1507   -6.2635    0.0000 C   0  0  0  0  0  0  0  0  0  0  0  0
    0.0000   -4.2770    0.0000 C   0  0  0  0  0  0  0  0  0  0  0  0
    0.0000   -5.6122    0.0000 C   0  0  0  0  0  0  0  0  0  0  0  0
    3.4628   -3.6040    0.0000 N   0  0  0  0  0  0  0  0  0  0  0  0
   10.8553   -4.1142    0.0000 C   0  0  0  0  0  0  0  0  0  0  0  0
   10.8553   -5.4494    0.0000 C   0  0  0  0  0  0  0  0  0  0  0  0
    9.7046   -3.4411    0.0000 C   0  0  0  0  0  0  0  0  0  0  0  0
    9.7046   -6.1007    0.0000 C   0  0  0  0  0  0  0  0  0  0  0  0
    8.5540   -4.1142    0.0000 C   0  0  0  0  0  0  0  0  0  0  0  0
    8.5540   -5.4494    0.0000 C   0  0  0  0  0  0  0  0  0  0  0  0
    9.7046   -2.1168    0.0000 N   0  0  0  0  0  0  0  0  0  0  0  0
  1  2  1  0  0  0  0
  2  3  1  0  0  0  0
  3  4  1  1  0  0  0
  3  5  1  0  0  0  0
  5  6  1  0  0  0  0
  6  7  1  0  0  0  0
  7  8  1  0  0  0  0
  7  9  1  0  0  0  0
  7 10  2  0  0  0  0
 11 12  1  0  0  0  0
 11 13  1  0  0  0  0
 11 17  1  0  0  0  0
 12 14  1  0  0  0  0
 13 15  1  0  0  0  0
 14 16  1  0  0  0  0
 15 16  1  0  0  0  0
 18 19  1  0  0  0  0
 18 20  1  0  0  0  0
 19 21  1  0  0  0  0
 20 22  1  0  0  0  0
 20 24  1  0  0  0  0
 21 23  1  0  0  0  0
 22 23  1  0  0  0  0
M  END
> <ID>
11823

> <Formula>
C15H35N2O6P

> <FW>
370.4220 (172.0737+99.1741+99.1741)

> <DSSTox_CID>
26603

> <DSSTox_RID>
81758

> <DSSTox_GSID>
46603

> <DSSTox_FileID_Sort>
6439

> <TS_ChemName>
sn-Glycerol 3-phosphate bis(cyclohexylammonium)

> <TS_ChemName_Synonyms>


> <TS_CASRN>
29849-82-9

> <CASRN_ChemName_Relationship>
primary

> <TS_Description>
single chemical compound

> <ChemNote>
absolute stereochem; parent [17989-41-2]

> <STRUCTURE_Shown>
tested chemical

> <STRUCTURE_Formula>
C15H35N2O6P

> <STRUCTURE_MW>
370.422

> <STRUCTURE_ChemType>
defined organic

> <STRUCTURE_DefinedOrganicForm>
salt

> <STRUCTURE_IUPAC>
(2R)-2,3-dihydroxypropyl dihydrogen phosphate - cyclohexanamine (1:2)

> <STRUCTURE_SMILES>
NC1CCCCC1.OC[C@@H](O)COP(=O)(O)O.NC1CCCCC1

> <STRUCTURE_SMILES_Desalt>
O=P(O)(O)OC[C@H](O)CO

> <Substance_modify_yyyymmdd>
20110809

$$$$
