29876-14-0
ChemmineR-0915142007XD

 20 22  0  0  0  0  0  0  0  0  1 V2000
    4.6537    0.0000    0.0000 O   0  0  0  0  0  0  0  0  0  0  0  0
    3.9920   -1.1579    0.0000 C   0  0  0  0  0  0  0  0  0  0  0  0
    4.6537   -2.2938    0.0000 N   0  0  0  0  0  0  0  0  0  0  0  0
    5.9880   -2.2938    0.0000 C   0  0  0  0  0  0  0  0  0  0  0  0
    6.6607   -3.4517    0.0000 C   0  0  0  0  0  0  0  0  0  0  0  0
    7.9951   -3.4517    0.0000 C   0  0  0  0  0  0  0  0  0  0  0  0
    8.7780   -2.3820    0.0000 C   0  0  0  0  0  0  0  0  0  0  0  0
   10.0462   -2.7900    0.0000 N   0  0  0  0  0  0  0  0  0  0  0  0
   10.0462   -4.1243    0.0000 C   0  0  0  0  0  0  0  0  0  0  0  0
   11.0277   -5.0066    0.0000 C   0  0  0  0  0  0  0  0  0  0  0  0
   10.7520   -6.3078    0.0000 C   0  0  0  0  0  0  0  0  0  0  0  0
    9.4838   -6.7269    0.0000 C   0  0  0  0  0  0  0  0  0  0  0  0
    8.4913   -5.8447    0.0000 C   0  0  0  0  0  0  0  0  0  0  0  0
    8.7780   -4.5324    0.0000 C   0  0  0  0  0  0  0  0  0  0  0  0
    2.6687   -1.1579    0.0000 C   0  0  0  0  0  0  0  0  0  0  0  0
    1.9850   -2.2938    0.0000 C   0  0  0  0  0  0  0  0  0  0  0  0
    0.6617   -2.2938    0.0000 C   0  0  0  0  0  0  0  0  0  0  0  0
    0.0000   -1.1579    0.0000 C   0  0  0  0  0  0  0  0  0  0  0  0
    0.6617    0.0000    0.0000 N   0  0  0  0  0  0  0  0  0  0  0  0
    1.9850    0.0000    0.0000 C   0  0  0  0  0  0  0  0  0  0  0  0
  1  2  2  0  0  0  0
  2  3  1  0  0  0  0
  2 15  1  0  0  0  0
  3  4  1  0  0  0  0
  4  5  1  0  0  0  0
  5  6  1  0  0  0  0
  6  7  2  0  0  0  0
  6 14  1  0  0  0  0
  7  8  1  0  0  0  0
  8  9  1  0  0  0  0
  9 10  2  0  0  0  0
  9 14  1  0  0  0  0
 10 11  1  0  0  0  0
 11 12  2  0  0  0  0
 12 13  1  0  0  0  0
 13 14  2  0  0  0  0
 15 16  2  0  0  0  0
 15 20  1  0  0  0  0
 16 17  1  0  0  0  0
 17 18  2  0  0  0  0
 18 19  1  0  0  0  0
 19 20  2  0  0  0  0
M  END
> <ID>
11139

> <Formula>
C16H15N3O

> <FW>
265.3098

> <DSSTox_CID>
25698

> <DSSTox_RID>
81070

> <DSSTox_GSID>
45698

> <DSSTox_FileID_Sort>
5751

> <TS_ChemName>
Nicotredole

> <TS_ChemName_Synonyms>


> <TS_CASRN>
29876-14-0

> <CASRN_ChemName_Relationship>
primary

> <TS_Description>
single chemical compound

> <ChemNote>


> <STRUCTURE_Shown>
tested chemical

> <STRUCTURE_Formula>
C16H15N3O

> <STRUCTURE_MW>
265.3098

> <STRUCTURE_ChemType>
defined organic

> <STRUCTURE_DefinedOrganicForm>
parent

> <STRUCTURE_IUPAC>
N-[2-(1H-indol-3-yl)ethyl]pyridine-3-carboxamide

> <STRUCTURE_SMILES>
O=C(NCCc2cnc1ccccc12)c3cccnc3

> <STRUCTURE_SMILES_Desalt>
O=C(NCCc2cnc1ccccc12)c3cccnc3

> <Substance_modify_yyyymmdd>
20110819

$$$$
