299-86-5
ChemmineR-0915142007XD

 18 18  0  0  0  0  0  0  0  0  1 V2000
    2.3058   -1.9922    0.0000 P    0  0  0  0  0  0  0  0  0  0  0  0
    4.6116   -1.9922    0.0000 C    0  0  0  0  0  0  0  0  0  0  0  0
    3.4587   -1.3374    0.0000 O    0  0  0  0  0  0  0  0  0  0  0  0
    5.7645   -1.3374    0.0000 C    0  0  0  0  0  0  0  0  0  0  0  0
    6.9174   -3.3204    0.0000 C    0  0  0  0  0  0  0  0  0  0  0  0
    6.9174   -1.9922    0.0000 C    0  0  0  0  0  0  0  0  0  0  0  0
    8.0703   -3.9937    0.0000 C    0  0  0  0  0  0  0  0  0  0  0  0
    1.6510   -0.8393    0.0000 O    0  0  0  0  0  0  0  0  0  0  0  0
    4.6116   -3.3204    0.0000 C    0  0  0  0  0  0  0  0  0  0  0  0
    2.9791   -3.1451    0.0000 N    0  0  0  0  0  0  0  0  0  0  0  0
    5.7645   -3.9937    0.0000 C    0  0  0  0  0  0  0  0  0  0  0  0
    1.1529   -2.6655    0.0000 O    0  0  0  0  0  0  0  0  0  0  0  0
    5.7645    0.0000    0.0000 Cl   0  0  0  0  0  0  0  0  0  0  0  0
    7.3970   -5.1281    0.0000 C    0  0  0  0  0  0  0  0  0  0  0  0
    8.7252   -2.8408    0.0000 C    0  0  0  0  0  0  0  0  0  0  0  0
    9.2233   -4.6485    0.0000 C    0  0  0  0  0  0  0  0  0  0  0  0
    2.3058   -4.2980    0.0000 C    0  0  0  0  0  0  0  0  0  0  0  0
    0.0000   -1.9922    0.0000 C    0  0  0  0  0  0  0  0  0  0  0  0
  1  3  1  0  0  0  0
  1  8  2  0  0  0  0
  1 10  1  0  0  0  0
  1 12  1  0  0  0  0
  2  3  1  0  0  0  0
  2  4  1  0  0  0  0
  2  9  2  0  0  0  0
  4  6  2  0  0  0  0
  4 13  1  0  0  0  0
  5 11  2  0  0  0  0
  5  7  1  0  0  0  0
  5  6  1  0  0  0  0
  7 14  1  0  0  0  0
  7 15  1  0  0  0  0
  7 16  1  0  0  0  0
  9 11  1  0  0  0  0
 10 17  1  0  0  0  0
 12 18  1  0  0  0  0
M  END
> <ID>
7317

> <Formula>
C12H19ClNO3P

> <FW>
291.7109

> <DSSTox_CID>
17515

> <DSSTox_RID>
79327

> <DSSTox_GSID>
37515

> <DSSTox_FileID_Sort>
4009

> <TS_ChemName>
Crufomate

> <TS_ChemName_Synonyms>


> <TS_CASRN>
299-86-5

> <CASRN_ChemName_Relationship>
primary

> <TS_Description>
single chemical compound

> <ChemNote>


> <STRUCTURE_Shown>
tested chemical

> <STRUCTURE_Formula>
C12H19ClNO3P

> <STRUCTURE_MW>
291.7109

> <STRUCTURE_ChemType>
defined organic

> <STRUCTURE_DefinedOrganicForm>
parent

> <STRUCTURE_IUPAC>
4-tert-butyl-2-chlorophenyl methyl methylphosphoramidate

> <STRUCTURE_SMILES>
Clc1cc(ccc1OP(=O)(NC)OC)C(C)(C)C

> <STRUCTURE_SMILES_Desalt>
Clc1cc(ccc1OP(=O)(NC)OC)C(C)(C)C

> <Substance_modify_yyyymmdd>
20080429

$$$$
