299-75-2
ChemmineR-0915142007XD

 16 15  0  0  0  0  0  0  0  0  1 V2000
    5.1438   -4.6078    0.0000 C   0  0  0  0  0  0  0  0  0  0  0  0
    5.8050   -5.7632    0.0000 O   0  0  0  0  0  0  0  0  0  0  0  0
    5.8050   -3.4593    0.0000 C   0  0  0  0  0  0  0  0  0  0  0  0
    5.1438   -2.3039    0.0000 O   0  0  0  0  0  0  0  0  0  0  0  0
    5.8050   -1.1554    0.0000 S   0  0  0  0  0  0  0  0  0  0  0  0
    6.4732    0.0000    0.0000 C   0  0  0  0  0  0  0  0  0  0  0  0
    6.9604   -1.8167    0.0000 O   0  0  0  0  0  0  0  0  0  0  0  0
    4.6565   -0.4872    0.0000 O   0  0  0  0  0  0  0  0  0  0  0  0
    3.8143   -4.6078    0.0000 C   0  0  0  0  0  0  0  0  0  0  0  0
    3.1461   -5.7632    0.0000 O   0  0  0  0  0  0  0  0  0  0  0  0
    3.1461   -3.4593    0.0000 C   0  0  0  0  0  0  0  0  0  0  0  0
    1.8167   -3.4593    0.0000 O   0  0  0  0  0  0  0  0  0  0  0  0
    1.1554   -4.6078    0.0000 S   0  0  0  0  0  0  0  0  0  0  0  0
    0.4872   -5.7632    0.0000 C   0  0  0  0  0  0  0  0  0  0  0  0
    0.0000   -3.9466    0.0000 O   0  0  0  0  0  0  0  0  0  0  0  0
    2.3039   -5.2760    0.0000 O   0  0  0  0  0  0  0  0  0  0  0  0
  1  2  1  0  0  0  0
  1  3  1  0  0  0  0
  1  9  1  0  0  0  0
  3  4  1  0  0  0  0
  4  5  1  0  0  0  0
  5  6  1  0  0  0  0
  5  7  2  0  0  0  0
  5  8  2  0  0  0  0
  9 10  1  0  0  0  0
  9 11  1  0  0  0  0
 11 12  1  0  0  0  0
 12 13  1  0  0  0  0
 13 14  1  0  0  0  0
 13 15  2  0  0  0  0
 13 16  2  0  0  0  0
M  END
> <ID>
4577

> <Formula>
C6H14O8S2

> <FW>
278.3006

> <DSSTox_CID>
6173

> <DSSTox_RID>
78045

> <DSSTox_GSID>
26173

> <DSSTox_FileID_Sort>
2728

> <TS_ChemName>
Treosulfan

> <TS_ChemName_Synonyms>


> <TS_CASRN>
299-75-2

> <CASRN_ChemName_Relationship>
primary

> <TS_Description>
single chemical compound

> <ChemNote>


> <STRUCTURE_Shown>
tested chemical

> <STRUCTURE_Formula>
C6H14O8S2

> <STRUCTURE_MW>
278.3006

> <STRUCTURE_ChemType>
defined organic

> <STRUCTURE_DefinedOrganicForm>
parent

> <STRUCTURE_IUPAC>
2,3-dihydroxybutane-1,4-diyl dimethanesulfonate

> <STRUCTURE_SMILES>
CS(=O)(=O)OCC(O)C(O)COS(C)(=O)=O

> <STRUCTURE_SMILES_Desalt>
CS(=O)(=O)OCC(O)C(O)COS(C)(=O)=O

> <Substance_modify_yyyymmdd>
20080429

$$$$
