29911-27-1
ChemmineR-0915142007XD

 12 11  0  0  0  0  0  0  0  0  1 V2000
    2.3064   -1.3238    0.0000 C   0  0  0  0  0  0  0  0  0  0  0  0
    1.1480   -1.9961    0.0000 C   0  0  0  0  0  0  0  0  0  0  0  0
    1.1480   -3.3200    0.0000 C   0  0  0  0  0  0  0  0  0  0  0  0
    0.0000   -1.3238    0.0000 O   0  0  0  0  0  0  0  0  0  0  0  0
    3.4544   -1.9961    0.0000 O   0  0  0  0  0  0  0  0  0  0  0  0
    4.6024   -1.3238    0.0000 C   0  0  0  0  0  0  0  0  0  0  0  0
    5.7401   -1.9961    0.0000 C   0  0  0  0  0  0  0  0  0  0  0  0
    4.6024    0.0000    0.0000 C   0  0  0  0  0  0  0  0  0  0  0  0
    6.8881   -1.3238    0.0000 O   0  0  0  0  0  0  0  0  0  0  0  0
    8.0361   -1.9961    0.0000 C   0  0  0  0  0  0  0  0  0  0  0  0
    9.1945   -1.3238    0.0000 C   0  0  0  0  0  0  0  0  0  0  0  0
   10.3425   -1.9961    0.0000 C   0  0  0  0  0  0  0  0  0  0  0  0
  1  2  1  0  0  0  0
  1  5  1  0  0  0  0
  2  3  1  0  0  0  0
  2  4  1  0  0  0  0
  5  6  1  0  0  0  0
  6  7  1  0  0  0  0
  6  8  1  0  0  0  0
  7  9  1  0  0  0  0
  9 10  1  0  0  0  0
 10 11  1  0  0  0  0
 11 12  1  0  0  0  0
M  END
> <ID>
6607

> <Formula>
C9H20O3

> <FW>
176.2533

> <DSSTox_CID>
13276

> <DSSTox_RID>
79059

> <DSSTox_GSID>
33276

> <DSSTox_FileID_Sort>
3741

> <TS_ChemName>
Butyl dipropasol solvent

> <TS_ChemName_Synonyms>
Butyl dipropasol solvent (2-propanol, 1-(1-methyl-2-propoxyethoxy)-)

> <TS_CASRN>
29911-27-1

> <CASRN_ChemName_Relationship>
primary

> <TS_Description>
single chemical compound

> <ChemNote>


> <STRUCTURE_Shown>
tested chemical

> <STRUCTURE_Formula>
C9H20O3

> <STRUCTURE_MW>
176.2533

> <STRUCTURE_ChemType>
defined organic

> <STRUCTURE_DefinedOrganicForm>
parent

> <STRUCTURE_IUPAC>
1-[(1-propoxypropan-2-yl)oxy]propan-2-ol

> <STRUCTURE_SMILES>
OC(C)COC(C)COCCC

> <STRUCTURE_SMILES_Desalt>
OC(C)COC(C)COCCC

> <Substance_modify_yyyymmdd>
20080429

$$$$
