29927-08-0
ChemmineR-0915142007XD

 12 13  0  0  0  0  0  0  0  0  1 V2000
    6.8333   -2.6582    0.0000 C   0  0  0  0  0  0  0  0  0  0  0  0
    5.6785   -1.9953    0.0000 C   0  0  0  0  0  0  0  0  0  0  0  0
    4.5305   -2.6582    0.0000 C   0  0  0  0  0  0  0  0  0  0  0  0
    3.3757   -1.9953    0.0000 C   0  0  0  0  0  0  0  0  0  0  0  0
    3.3757   -0.6628    0.0000 C   0  0  0  0  0  0  0  0  0  0  0  0
    2.1115   -0.2528    0.0000 S   0  0  0  0  0  0  0  0  0  0  0  0
    1.3325   -1.3257    0.0000 C   0  0  0  0  0  0  0  0  0  0  0  0
    0.0000   -1.3257    0.0000 N   0  0  0  0  0  0  0  0  0  0  0  0
    2.1115   -2.4053    0.0000 N   0  0  0  0  0  0  0  0  0  0  0  0
    4.5305    0.0000    0.0000 C   0  0  0  0  0  0  0  0  0  0  0  0
    5.6785   -0.6628    0.0000 C   0  0  0  0  0  0  0  0  0  0  0  0
    6.8333    0.0000    0.0000 C   0  0  0  0  0  0  0  0  0  0  0  0
  1  2  1  0  0  0  0
  2  3  2  0  0  0  0
  2 11  1  0  0  0  0
  3  4  1  0  0  0  0
  4  5  2  0  0  0  0
  4  9  1  0  0  0  0
  5  6  1  0  0  0  0
  5 10  1  0  0  0  0
  6  7  1  0  0  0  0
  7  8  1  0  0  0  0
  7  9  2  0  0  0  0
 10 11  2  0  0  0  0
 11 12  1  0  0  0  0
M  END
> <ID>
3701

> <Formula>
C9H10N2S

> <FW>
178.2541

> <DSSTox_CID>
4478

> <DSSTox_RID>
77417

> <DSSTox_GSID>
24478

> <DSSTox_FileID_Sort>
2100

> <TS_ChemName>
2-Amino-5,6-dimethylbenzothiazole

> <TS_ChemName_Synonyms>


> <TS_CASRN>
29927-08-0

> <CASRN_ChemName_Relationship>
primary

> <TS_Description>
single chemical compound

> <ChemNote>


> <STRUCTURE_Shown>
tested chemical

> <STRUCTURE_Formula>
C9H10N2S

> <STRUCTURE_MW>
178.2541

> <STRUCTURE_ChemType>
defined organic

> <STRUCTURE_DefinedOrganicForm>
parent

> <STRUCTURE_IUPAC>
5,6-dimethyl-1,3-benzothiazol-2-amine

> <STRUCTURE_SMILES>
Cc1cc2nc(N)sc2cc1C

> <STRUCTURE_SMILES_Desalt>
Cc1cc2nc(N)sc2cc1C

> <Substance_modify_yyyymmdd>
20080429

$$$$
