29964-84-9
ChemmineR-0915142007XD

 16 15  0  0  0  0  0  0  0  0  1 V2000
    2.3096   -1.3277    0.0000 C   0  0  0  0  0  0  0  0  0  0  0  0
    1.1479   -1.9915    0.0000 C   0  0  0  0  0  0  0  0  0  0  0  0
    2.3096    0.0000    0.0000 O   0  0  0  0  0  0  0  0  0  0  0  0
    0.0000   -1.3277    0.0000 C   0  0  0  0  0  0  0  0  0  0  0  0
    3.4574   -1.9915    0.0000 O   0  0  0  0  0  0  0  0  0  0  0  0
    1.1479   -3.3191    0.0000 C   0  0  0  0  0  0  0  0  0  0  0  0
    4.6191   -1.3277    0.0000 C   0  0  0  0  0  0  0  0  0  0  0  0
    5.7670   -2.0053    0.0000 C   0  0  0  0  0  0  0  0  0  0  0  0
    6.9149   -1.3415    0.0000 C   0  0  0  0  0  0  0  0  0  0  0  0
    8.0627   -2.0053    0.0000 C   0  0  0  0  0  0  0  0  0  0  0  0
    9.2244   -1.3553    0.0000 C   0  0  0  0  0  0  0  0  0  0  0  0
   10.3723   -2.0191    0.0000 C   0  0  0  0  0  0  0  0  0  0  0  0
   11.5201   -1.3553    0.0000 C   0  0  0  0  0  0  0  0  0  0  0  0
   12.6818   -2.0330    0.0000 C   0  0  0  0  0  0  0  0  0  0  0  0
   13.8297   -1.3691    0.0000 C   0  0  0  0  0  0  0  0  0  0  0  0
   12.6680   -3.3606    0.0000 C   0  0  0  0  0  0  0  0  0  0  0  0
  1  2  1  0  0  0  0
  1  3  2  0  0  0  0
  1  5  1  0  0  0  0
  2  4  2  0  0  0  0
  2  6  1  0  0  0  0
  5  7  1  0  0  0  0
  7  8  1  0  0  0  0
  8  9  1  0  0  0  0
  9 10  1  0  0  0  0
 10 11  1  0  0  0  0
 11 12  1  0  0  0  0
 12 13  1  0  0  0  0
 13 14  1  0  0  0  0
 14 15  1  0  0  0  0
 14 16  1  0  0  0  0
M  END
> <ID>
4213

> <Formula>
C14H26O2

> <FW>
226.355

> <DSSTox_CID>
5466

> <DSSTox_RID>
77798

> <DSSTox_GSID>
25466

> <DSSTox_FileID_Sort>
2481

> <TS_ChemName>
Isodecyl methacrylate

> <TS_ChemName_Synonyms>
Isodecyl methacrylate (2-Propenoic acid, 2-methyl-, isodecyl ester)

> <TS_CASRN>
29964-84-9

> <CASRN_ChemName_Relationship>
primary

> <TS_Description>
mixture or formulation

> <ChemNote>
mixture of decyl isomers; structure shown 8-methylnonyl

> <STRUCTURE_Shown>
representative isomer in mixture

> <STRUCTURE_Formula>
C14H26O2

> <STRUCTURE_MW>
226.355

> <STRUCTURE_ChemType>
defined organic

> <STRUCTURE_DefinedOrganicForm>
parent

> <STRUCTURE_IUPAC>
8-methylnonyl 2-methylprop-2-enoate

> <STRUCTURE_SMILES>
C=C(C)C(=O)OCCCCCCCC(C)C

> <STRUCTURE_SMILES_Desalt>
C=C(C)C(=O)OCCCCCCCC(C)C

> <Substance_modify_yyyymmdd>
20080429

$$$$
