29973-13-5
ChemmineR-0915142007XD

 15 15  0  0  0  0  0  0  0  0  1 V2000
    1.1549   -5.3136    0.0000 C   0  0  0  0  0  0  0  0  0  0  0  0
    0.0000   -5.9838    0.0000 O   0  0  0  0  0  0  0  0  0  0  0  0
    2.3038   -5.9838    0.0000 O   0  0  0  0  0  0  0  0  0  0  0  0
    1.1549   -3.9852    0.0000 N   0  0  0  0  0  0  0  0  0  0  0  0
    0.0000   -3.3270    0.0000 C   0  0  0  0  0  0  0  0  0  0  0  0
    3.4587   -5.3136    0.0000 C   0  0  0  0  0  0  0  0  0  0  0  0
    3.4587   -3.9852    0.0000 C   0  0  0  0  0  0  0  0  0  0  0  0
    4.6075   -5.9838    0.0000 C   0  0  0  0  0  0  0  0  0  0  0  0
    4.6075   -3.3270    0.0000 C   0  0  0  0  0  0  0  0  0  0  0  0
    5.7624   -5.3136    0.0000 C   0  0  0  0  0  0  0  0  0  0  0  0
    5.7624   -3.9852    0.0000 C   0  0  0  0  0  0  0  0  0  0  0  0
    2.3038   -3.3270    0.0000 C   0  0  0  0  0  0  0  0  0  0  0  0
    2.3038   -1.9986    0.0000 S   0  0  0  0  0  0  0  0  0  0  0  0
    1.1549   -1.3284    0.0000 C   0  0  0  0  0  0  0  0  0  0  0  0
    1.1549    0.0000    0.0000 C   0  0  0  0  0  0  0  0  0  0  0  0
  1  2  2  0  0  0  0
  1  3  1  0  0  0  0
  1  4  1  0  0  0  0
  3  6  1  0  0  0  0
  4  5  1  0  0  0  0
  6  7  2  0  0  0  0
  6  8  1  0  0  0  0
  7  9  1  0  0  0  0
  7 12  1  0  0  0  0
  8 10  2  0  0  0  0
  9 11  2  0  0  0  0
 10 11  1  0  0  0  0
 12 13  1  0  0  0  0
 13 14  1  0  0  0  0
 14 15  1  0  0  0  0
M  END
> <ID>
7331

> <Formula>
C11H15NO2S

> <FW>
225.3073

> <DSSTox_CID>
17545

> <DSSTox_RID>
79333

> <DSSTox_GSID>
37545

> <DSSTox_FileID_Sort>
4015

> <TS_ChemName>
Ethiofencarb

> <TS_ChemName_Synonyms>


> <TS_CASRN>
29973-13-5

> <CASRN_ChemName_Relationship>
primary

> <TS_Description>
single chemical compound

> <ChemNote>


> <STRUCTURE_Shown>
tested chemical

> <STRUCTURE_Formula>
C11H15NO2S

> <STRUCTURE_MW>
225.3073

> <STRUCTURE_ChemType>
defined organic

> <STRUCTURE_DefinedOrganicForm>
parent

> <STRUCTURE_IUPAC>
2-[(ethylsulfanyl)methyl]phenyl methylcarbamate

> <STRUCTURE_SMILES>
O=C(Oc1ccccc1CSCC)NC

> <STRUCTURE_SMILES_Desalt>
O=C(Oc1ccccc1CSCC)NC

> <Substance_modify_yyyymmdd>
20080429

$$$$
