2998-57-4
ChemmineR-0915142007XD

 32 35  0  0  1  0  0  0  0  0  1 V2000
    9.1991   -1.6940    0.0000 C    0  0  0  0  0  0  0  0  0  0  0  0
    9.1991   -3.0290    0.0000 C    0  0  0  0  0  0  0  0  0  0  0  0
    8.0436   -3.6797    0.0000 C    0  0  0  0  0  0  0  0  0  0  0  0
    1.1892   -5.0259    0.0000 C    0  0  0  0  0  0  0  0  0  0  0  0
    6.9106   -3.0290    0.0000 C    0  0  0  0  0  0  0  0  0  0  0  0
    5.7551   -3.6797    0.0000 C    0  0  0  0  0  0  0  0  0  0  0  0
    5.7551   -5.0259    0.0000 C    0  0  0  0  0  0  0  0  0  0  0  0
    8.0436   -1.0321    0.0000 C    0  0  0  0  0  0  0  0  0  0  0  0
    6.9106   -1.6940    0.0000 C    0  0  0  0  0  0  0  0  0  0  0  0
    2.3222   -5.6990    0.0000 O    0  0  0  0  0  0  0  0  0  0  0  0
    8.0436   -5.0259    0.0000 C    0  0  0  0  0  0  0  0  0  0  0  0
   10.4444   -3.4441    0.0000 C    0  0  0  0  0  0  0  0  0  0  0  0
    4.6108   -3.0290    0.0000 C    0  0  0  0  0  0  0  0  0  0  0  0
    1.1892   -3.6797    0.0000 N    0  0  0  0  0  0  0  0  0  0  0  0
   10.4444   -1.2789    0.0000 C    0  0  0  0  0  0  0  0  0  0  0  0
    0.0000   -5.7326    0.0000 O    0  0  0  0  0  0  0  0  0  0  0  0
    4.6108   -5.6990    0.0000 C    0  0  0  0  0  0  0  0  0  0  0  0
    3.4665   -5.0259    0.0000 C    0  0  0  0  0  0  0  0  0  0  0  0
    6.9106   -5.6990    0.0000 C    0  0  0  0  0  0  0  0  0  0  0  0
   11.2184   -2.3559    0.0000 C    0  0  0  0  0  0  0  0  0  0  0  0
    3.4665   -3.6797    0.0000 C    0  0  0  0  0  0  0  0  0  0  0  0
    9.1991   -0.3590    0.0000 C    0  0  0  0  0  0  0  0  0  0  0  0
   10.8819    0.0000    0.0000 O    0  0  0  0  0  0  0  0  0  0  0  0
    1.1892   -1.0321    0.0000 Cl   0  0  0  0  0  0  0  0  0  0  0  0
    3.4889   -1.0097    0.0000 Cl   0  0  0  0  0  0  0  0  0  0  0  0
    2.3222   -3.0290    0.0000 C    0  0  0  0  0  0  0  0  0  0  0  0
    0.0337   -3.0290    0.0000 C    0  0  0  0  0  0  0  0  0  0  0  0
    2.3222   -1.6940    0.0000 C    0  0  0  0  0  0  0  0  0  0  0  0
    0.0337   -1.6940    0.0000 C    0  0  0  0  0  0  0  0  0  0  0  0
    6.9106   -4.3528    0.0000 H    0  0  0  0  0  0  0  0  0  0  0  0
    8.0436   -2.3671    0.0000 H    0  0  0  0  0  0  0  0  0  0  0  0
    9.1991   -4.3528    0.0000 H    0  0  0  0  0  0  0  0  0  0  0  0
  1  2  1  0  0  0  0
  1  8  1  0  0  0  0
  1 15  1  0  0  0  0
  1 22  1  1  0  0  0
  2  3  1  0  0  0  0
  2 12  1  0  0  0  0
  2 32  1  6  0  0  0
  3 11  1  0  0  0  0
  3  5  1  0  0  0  0
  3 31  1  1  0  0  0
  4 10  1  0  0  0  0
  4 14  1  0  0  0  0
  4 16  2  0  0  0  0
  5  9  1  0  0  0  0
  5  6  1  0  0  0  0
  5 30  1  6  0  0  0
  6  7  2  0  0  0  0
  6 13  1  0  0  0  0
  7 17  1  0  0  0  0
  7 19  1  0  0  0  0
  8  9  1  0  0  0  0
 10 18  1  0  0  0  0
 11 19  1  0  0  0  0
 12 20  1  0  0  0  0
 13 21  2  0  0  0  0
 14 26  1  0  0  0  0
 14 27  1  0  0  0  0
 15 20  1  0  0  0  0
 15 23  1  1  0  0  0
 17 18  2  0  0  0  0
 18 21  1  0  0  0  0
 24 29  1  0  0  0  0
 25 28  1  0  0  0  0
 26 28  1  0  0  0  0
 27 29  1  0  0  0  0
M  END
> <ID>
11698

> <Formula>
C23H31Cl2NO3

> <FW>
440.4031

> <DSSTox_CID>
26458

> <DSSTox_RID>
81632

> <DSSTox_GSID>
46458

> <DSSTox_FileID_Sort>
6313

> <TS_ChemName>
Estramustine

> <TS_ChemName_Synonyms>


> <TS_CASRN>
2998-57-4

> <CASRN_ChemName_Relationship>
primary

> <TS_Description>
single chemical compound

> <ChemNote>
absolute stereochem

> <STRUCTURE_Shown>
tested chemical

> <STRUCTURE_Formula>
C23H31Cl2NO3

> <STRUCTURE_MW>
440.4031

> <STRUCTURE_ChemType>
defined organic

> <STRUCTURE_DefinedOrganicForm>
parent

> <STRUCTURE_IUPAC>
(17beta)-17-hydroxyestra-1,3,5(10)-trien-3-yl bis(2-chloroethyl)carbamate

> <STRUCTURE_SMILES>
ClCCN(CCCl)C(=O)Oc3cc4CC[C@@H]1[C@H](CC[C@]2(C)[C@@H](O)CC[C@@H]12)c4cc3

> <STRUCTURE_SMILES_Desalt>
ClCCN(CCCl)C(=O)Oc3cc4CC[C@@H]1[C@H](CC[C@]2(C)[C@@H](O)CC[C@@H]12)c4cc3

> <Substance_modify_yyyymmdd>
20110812

$$$$
