30007-47-7
ChemmineR-0915142007XD

 10 10  0  0  0  0  0  0  0  0  2 V2000
    4.3005    0.0000    0.0000 O    0  0  0  0  0  0  0  0  0  0  0  0
    4.9602   -1.1557    0.0000 C    0  0  0  0  0  0  0  0  0  0  0  0
    4.3005   -2.3115    0.0000 O    0  0  0  0  0  0  0  0  0  0  0  0
    2.9712   -2.3115    0.0000 C    0  0  0  0  0  0  0  0  0  0  0  0
    2.2966   -1.1557    0.0000 C    0  0  0  0  0  0  0  0  0  0  0  0
    2.9712    0.0000    0.0000 C    0  0  0  0  0  0  0  0  0  0  0  0
    1.1557   -0.4811    0.0000 Br   0  0  0  0  0  0  0  0  0  0  0  0
    1.1557   -1.8105    0.0000 N    0  3  0  0  0  0  0  0  0  0  0  0
    1.1557   -3.1448    0.0000 O    0  5  0  0  0  0  0  0  0  0  0  0
    0.0000   -1.1557    0.0000 O    0  0  0  0  0  0  0  0  0  0  0  0
  1  2  1  0  0  0  0
  1  6  1  0  0  0  0
  2  3  1  0  0  0  0
  3  4  1  0  0  0  0
  4  5  1  0  0  0  0
  5  6  1  0  0  0  0
  5  7  1  0  0  0  0
  5  8  1  0  0  0  0
  8  9  1  0  0  0  0
  8 10  2  0  0  0  0
M  END
> <ID>
10214

> <Formula>
C4H6BrNO4

> <FW>
211.9987

> <DSSTox_CID>
24560

> <DSSTox_RID>
80313

> <DSSTox_GSID>
44560

> <DSSTox_FileID_Sort>
4995

> <TS_ChemName>
5-Bromo-5-nitro-1,3-dioxane

> <TS_ChemName_Synonyms>
5-Bromo-5-nitro-1,3-dioxane (1,3-Dioxane, 5-bromo-5-nitro-)

> <TS_CASRN>
30007-47-7

> <CASRN_ChemName_Relationship>
primary

> <TS_Description>
single chemical compound

> <ChemNote>


> <STRUCTURE_Shown>
tested chemical

> <STRUCTURE_Formula>
C4H6BrNO4

> <STRUCTURE_MW>
211.9987

> <STRUCTURE_ChemType>
defined organic

> <STRUCTURE_DefinedOrganicForm>
parent

> <STRUCTURE_IUPAC>
5-bromo-5-nitro-1,3-dioxane

> <STRUCTURE_SMILES>
O=[N+]([O-])C1(Br)COCOC1

> <STRUCTURE_SMILES_Desalt>
O=[N+]([O-])C1(Br)COCOC1

> <Substance_modify_yyyymmdd>
20091116

$$$$
