30034-03-8
ChemmineR-0915142007XD

 34 36  0  0  1  0  0  0  0  0  2 V2000
    9.5818   -7.5577    0.0000 Na   0  3  0  0  0  0  0  0  0  0  0  0
    7.1006   -2.6607    0.0000 C    0  0  0  0  0  0  0  0  0  0  0  0
    8.4228   -3.9829    0.0000 N    0  0  0  0  0  0  0  0  0  0  0  0
    8.4228   -2.6607    0.0000 C    0  0  0  0  0  0  0  0  0  0  0  0
    7.1006   -3.9829    0.0000 C    0  0  0  0  0  0  0  0  0  0  0  0
    9.5818   -4.6358    0.0000 C    0  0  0  0  0  0  0  0  0  0  0  0
   10.7244   -3.9829    0.0000 C    0  0  0  0  0  0  0  0  0  0  0  0
    9.5818   -1.9914    0.0000 S    0  0  0  0  0  0  0  0  0  0  0  0
   10.7244   -2.6444    0.0000 C    0  0  0  0  0  0  0  0  0  0  0  0
    7.1006   -1.3222    0.0000 H    0  0  0  0  0  0  0  0  0  0  0  0
    8.4228   -1.3222    0.0000 H    0  0  0  0  0  0  0  0  0  0  0  0
    6.1539   -4.9133    0.0000 O    0  0  0  0  0  0  0  0  0  0  0  0
   11.8834   -4.6358    0.0000 C    0  0  0  0  0  0  0  0  0  0  0  0
    9.5818   -5.9743    0.0000 C    0  0  0  0  0  0  0  0  0  0  0  0
   10.7244   -6.6436    0.0000 O    0  0  0  0  0  0  0  0  0  0  0  0
    8.4392   -6.6436    0.0000 O    0  5  0  0  0  0  0  0  0  0  0  0
    5.7621   -2.6607    0.0000 N    0  0  0  0  0  0  0  0  0  0  0  0
    2.3179   -0.6529    0.0000 C    0  0  0  0  0  0  0  0  0  0  0  0
    2.3179   -1.9914    0.0000 C    0  0  0  0  0  0  0  0  0  0  0  0
    1.1426    0.0000    0.0000 C    0  0  0  0  0  0  0  0  0  0  0  0
    1.1426   -2.6607    0.0000 C    0  0  0  0  0  0  0  0  0  0  0  0
    0.0000   -0.6529    0.0000 C    0  0  0  0  0  0  0  0  0  0  0  0
    0.0000   -1.9914    0.0000 C    0  0  0  0  0  0  0  0  0  0  0  0
    4.6195   -0.6529    0.0000 O    0  0  0  0  0  0  0  0  0  0  0  0
    4.6195   -1.9914    0.0000 C    0  0  0  0  0  0  0  0  0  0  0  0
    3.4442   -2.6607    0.0000 C    0  0  0  0  0  0  0  0  0  0  0  0
    3.4442   -3.9992    0.0000 O    0  0  0  0  0  0  0  0  0  0  0  0
   13.0423   -3.9829    0.0000 S    0  0  0  0  0  0  0  0  0  0  0  0
   14.1687   -4.6685    0.0000 C    0  0  0  0  0  0  0  0  0  0  0  0
   15.2460   -3.9013    0.0000 N    0  0  0  0  0  0  0  0  0  0  0  0
   16.3233   -4.6685    0.0000 N    0  0  0  0  0  0  0  0  0  0  0  0
   14.5767   -5.9254    0.0000 N    0  0  0  0  0  0  0  0  0  0  0  0
   15.9152   -5.9254    0.0000 N    0  0  0  0  0  0  0  0  0  0  0  0
   15.2460   -2.5628    0.0000 C    0  0  0  0  0  0  0  0  0  0  0  0
  2  4  1  0  0  0  0
  2  5  1  0  0  0  0
  2 10  1  6  0  0  0
  2 17  1  1  0  0  0
  3  5  1  0  0  0  0
  3  6  1  0  0  0  0
  3  4  1  0  0  0  0
  4  8  1  0  0  0  0
  4 11  1  6  0  0  0
  5 12  2  0  0  0  0
  6  7  2  0  0  0  0
  6 14  1  0  0  0  0
  7  9  1  0  0  0  0
  7 13  1  0  0  0  0
  8  9  1  0  0  0  0
 13 28  1  0  0  0  0
 14 15  2  0  0  0  0
 14 16  1  0  0  0  0
 17 25  1  0  0  0  0
 18 20  2  0  0  0  0
 18 19  1  0  0  0  0
 19 21  2  0  0  0  0
 19 26  1  0  0  0  0
 20 22  1  0  0  0  0
 21 23  1  0  0  0  0
 22 23  2  0  0  0  0
 24 25  2  0  0  0  0
 25 26  1  0  0  0  0
 26 27  1  6  0  0  0
 28 29  1  0  0  0  0
 29 30  1  0  0  0  0
 29 32  2  0  0  0  0
 30 31  1  0  0  0  0
 30 34  1  0  0  0  0
 31 33  2  0  0  0  0
 32 33  1  0  0  0  0
M  END
> <ID>
11043

> <Formula>
C18H17N6NaO5S2

> <FW>
484.4845 (22.9892+461.4953)

> <DSSTox_CID>
25579

> <DSSTox_RID>
80975

> <DSSTox_GSID>
45579

> <DSSTox_FileID_Sort>
5656

> <TS_ChemName>
Cefamandole sodium

> <TS_ChemName_Synonyms>


> <TS_CASRN>
30034-03-8

> <CASRN_ChemName_Relationship>
primary

> <TS_Description>
single chemical compound

> <ChemNote>
stereochem; parent [34444-01-4]

> <STRUCTURE_Shown>
tested chemical

> <STRUCTURE_Formula>
C18H17N6NaO5S2

> <STRUCTURE_MW>
484.4845

> <STRUCTURE_ChemType>
defined organic

> <STRUCTURE_DefinedOrganicForm>
salt

> <STRUCTURE_IUPAC>
sodium (6R,7R)-7-{[(2R)-2-hydroxy-2-phenylacetyl]amino}-3-{[(1-methyl-1H-tetrazol-5-yl)sulfanyl]methyl}-8-oxo-5-thia-1-azabicyclo[4.2.0]oct-2-ene-2-carboxylate

> <STRUCTURE_SMILES>
[Na+].O[C@H](c1ccccc1)C(=O)N[C@@H]4C(=O)N3C(=C(CSc2nnnn2C)CS[C@@H]34)C([O-])=O

> <STRUCTURE_SMILES_Desalt>
O[C@H](c1ccccc1)C(=O)N[C@@H]4C(=O)N3C(=C(CSc2nnnn2C)CS[C@@H]34)C(=O)O

> <Substance_modify_yyyymmdd>
20100107

$$$$
