3008-43-3
ChemmineR-0915142007XD

  9  9  0  0  0  0  0  0  0  0  1 V2000
    1.1358   -2.0232    0.0000 C   0  0  0  0  0  0  0  0  0  0  0  0
    2.2899   -1.3105    0.0000 C   0  0  0  0  0  0  0  0  0  0  0  0
    3.4441   -2.0232    0.0000 C   0  0  0  0  0  0  0  0  0  0  0  0
    3.4441   -3.3338    0.0000 C   0  0  0  0  0  0  0  0  0  0  0  0
    2.2899   -4.0281    0.0000 C   0  0  0  0  0  0  0  0  0  0  0  0
    1.1358   -3.3338    0.0000 C   0  0  0  0  0  0  0  0  0  0  0  0
    0.0000   -1.3749    0.0000 O   0  0  0  0  0  0  0  0  0  0  0  0
    2.2899    0.0000    0.0000 O   0  0  0  0  0  0  0  0  0  0  0  0
    4.5983   -1.3749    0.0000 C   0  0  0  0  0  0  0  0  0  0  0  0
  1  2  1  0  0  0  0
  1  6  1  0  0  0  0
  1  7  2  0  0  0  0
  2  3  1  0  0  0  0
  2  8  2  0  0  0  0
  3  4  1  0  0  0  0
  3  9  1  0  0  0  0
  4  5  1  0  0  0  0
  5  6  1  0  0  0  0
M  END
> <ID>
12796

> <Formula>
C7H10O2

> <FW>
126.1531

> <DSSTox_CID>
27675

> <DSSTox_RID>
82493

> <DSSTox_GSID>
47675

> <DSSTox_FileID_Sort>
7174

> <TS_ChemName>
3-Methylcyclohexane-1,2-dione

> <TS_ChemName_Synonyms>


> <TS_CASRN>
3008-43-3

> <CASRN_ChemName_Relationship>
primary

> <TS_Description>
single chemical compound

> <ChemNote>


> <STRUCTURE_Shown>
tested chemical

> <STRUCTURE_Formula>
C7H10O2

> <STRUCTURE_MW>
126.1531

> <STRUCTURE_ChemType>
defined organic

> <STRUCTURE_DefinedOrganicForm>
parent

> <STRUCTURE_IUPAC>
3-methylcyclohexane-1,2-dione

> <STRUCTURE_SMILES>
O=C1C(=O)CCCC1C

> <STRUCTURE_SMILES_Desalt>
O=C1C(=O)CCCC1C

> <Substance_modify_yyyymmdd>
20101215

$$$$
