3010-96-6
ChemmineR-0915142007XD

 10 10  0  0  0  0  0  0  0  0  1 V2000
    2.6108   -1.2976    0.0000 C   0  0  0  0  0  0  0  0  0  0  0  0
    2.6108   -2.6265    0.0000 C   0  0  0  0  0  0  0  0  0  0  0  0
    1.2820   -2.6265    0.0000 C   0  0  0  0  0  0  0  0  0  0  0  0
    1.2820   -1.2976    0.0000 C   0  0  0  0  0  0  0  0  0  0  0  0
    3.5567   -0.3518    0.0000 O   0  0  0  0  0  0  0  0  0  0  0  0
    0.3361   -3.5567    0.0000 O   0  0  0  0  0  0  0  0  0  0  0  0
    2.9469   -3.9084    0.0000 C   0  0  0  0  0  0  0  0  0  0  0  0
    3.8928   -2.9626    0.0000 C   0  0  0  0  0  0  0  0  0  0  0  0
    0.9458    0.0000    0.0000 C   0  0  0  0  0  0  0  0  0  0  0  0
    0.0000   -0.9458    0.0000 C   0  0  0  0  0  0  0  0  0  0  0  0
  1  2  1  0  0  0  0
  1  4  1  0  0  0  0
  1  5  1  0  0  0  0
  2  3  1  0  0  0  0
  2  7  1  0  0  0  0
  2  8  1  0  0  0  0
  3  4  1  0  0  0  0
  3  6  1  0  0  0  0
  4  9  1  0  0  0  0
  4 10  1  0  0  0  0
M  END
> <ID>
10555

> <Formula>
C8H16O2

> <FW>
144.2114

> <DSSTox_CID>
24908

> <DSSTox_RID>
80577

> <DSSTox_GSID>
44908

> <DSSTox_FileID_Sort>
5259

> <TS_ChemName>
2,2,4,4-Tetramethylcyclobutane-1,3-diol

> <TS_ChemName_Synonyms>
2,2,4,4-Tetramethylcyclobutane-1,3-diol (1,3-Cyclobutanediol, 2,2,4,4-tetramethyl-)

> <TS_CASRN>
3010-96-6

> <CASRN_ChemName_Relationship>
primary

> <TS_Description>
single chemical compound

> <ChemNote>


> <STRUCTURE_Shown>
tested chemical

> <STRUCTURE_Formula>
C8H16O2

> <STRUCTURE_MW>
144.2114

> <STRUCTURE_ChemType>
defined organic

> <STRUCTURE_DefinedOrganicForm>
parent

> <STRUCTURE_IUPAC>
2,2,4,4-tetramethylcyclobutane-1,3-diol

> <STRUCTURE_SMILES>
CC1(C)C(O)C(C)(C)C1O

> <STRUCTURE_SMILES_Desalt>
CC1(C)C(O)C(C)(C)C1O

> <Substance_modify_yyyymmdd>
20091116

$$$$
