30103-44-7
ChemmineR-0915142007XD

 21 22  0  0  0  0  0  0  0  0  1 V2000
    2.8088   -4.0355    0.0000 C   0  0  0  0  0  0  0  0  0  0  0  0
    4.1501   -4.0355    0.0000 C   0  0  0  0  0  0  0  0  0  0  0  0
    4.5514   -2.7973    0.0000 C   0  0  0  0  0  0  0  0  0  0  0  0
    3.4737   -1.9834    0.0000 N   0  0  0  0  0  0  0  0  0  0  0  0
    2.4075   -2.7973    0.0000 C   0  0  0  0  0  0  0  0  0  0  0  0
    3.4737   -0.6764    0.0000 C   0  0  0  0  0  0  0  0  0  0  0  0
    2.3044    0.0000    0.0000 C   0  0  0  0  0  0  0  0  0  0  0  0
    5.6978   -2.0980    0.0000 C   0  0  0  0  0  0  0  0  0  0  0  0
    5.6978   -0.7567    0.0000 O   0  0  0  0  0  0  0  0  0  0  0  0
    6.8672   -2.7629    0.0000 N   0  0  0  0  0  0  0  0  0  0  0  0
    8.0137   -2.0980    0.0000 C   0  0  0  0  0  0  0  0  0  0  0  0
    9.1601   -2.7629    0.0000 C   0  0  0  0  0  0  0  0  0  0  0  0
   10.3180   -2.0980    0.0000 C   0  0  0  0  0  0  0  0  0  0  0  0
   10.3180   -0.7910    0.0000 C   0  0  0  0  0  0  0  0  0  0  0  0
    9.1716   -0.1146    0.0000 C   0  0  0  0  0  0  0  0  0  0  0  0
    8.0137   -0.7567    0.0000 C   0  0  0  0  0  0  0  0  0  0  0  0
    9.1601   -4.1043    0.0000 C   0  0  0  0  0  0  0  0  0  0  0  0
    6.8672   -0.1146    0.0000 C   0  0  0  0  0  0  0  0  0  0  0  0
   11.4645   -0.1146    0.0000 C   0  0  0  0  0  0  0  0  0  0  0  0
    1.1464   -0.6649    0.0000 C   0  0  0  0  0  0  0  0  0  0  0  0
    0.0000    0.0000    0.0000 C   0  0  0  0  0  0  0  0  0  0  0  0
  1  2  1  0  0  0  0
  1  5  1  0  0  0  0
  2  3  1  0  0  0  0
  3  4  1  0  0  0  0
  3  8  1  0  0  0  0
  4  6  1  0  0  0  0
  4  5  1  0  0  0  0
  6  7  1  0  0  0  0
  7 20  1  0  0  0  0
  8  9  2  0  0  0  0
  8 10  1  0  0  0  0
 10 11  1  0  0  0  0
 11 12  2  0  0  0  0
 11 16  1  0  0  0  0
 12 13  1  0  0  0  0
 12 17  1  0  0  0  0
 13 14  2  0  0  0  0
 14 15  1  0  0  0  0
 14 19  1  0  0  0  0
 15 16  2  0  0  0  0
 16 18  1  0  0  0  0
 20 21  1  0  0  0  0
M  END
> <ID>
11414

> <Formula>
C18H28N2O

> <FW>
288.4277

> <DSSTox_CID>
26109

> <DSSTox_RID>
81346

> <DSSTox_GSID>
46109

> <DSSTox_FileID_Sort>
6027

> <TS_ChemName>
Bumecaine

> <TS_ChemName_Synonyms>


> <TS_CASRN>
30103-44-7

> <CASRN_ChemName_Relationship>
primary

> <TS_Description>
single chemical compound

> <ChemNote>


> <STRUCTURE_Shown>
tested chemical

> <STRUCTURE_Formula>
C18H28N2O

> <STRUCTURE_MW>
288.4277

> <STRUCTURE_ChemType>
defined organic

> <STRUCTURE_DefinedOrganicForm>
parent

> <STRUCTURE_IUPAC>
1-butyl-N-(2,4,6-trimethylphenyl)prolinamide

> <STRUCTURE_SMILES>
CCCCN2CCCC2C(=O)Nc1c(C)cc(C)cc1C

> <STRUCTURE_SMILES_Desalt>
CCCCN2CCCC2C(=O)Nc1c(C)cc(C)cc1C

> <Substance_modify_yyyymmdd>
20110818

$$$$
