3011-89-0
ChemmineR-0915142007XD

 13 13  0  0  0  0  0  0  0  0  2 V2000
    5.9921   -1.1505    0.0000 C    0  0  0  0  0  0  0  0  0  0  0  0
    6.6506    0.0000    0.0000 O    0  0  0  0  0  0  0  0  0  0  0  0
    4.6620   -1.1505    0.0000 C    0  0  0  0  0  0  0  0  0  0  0  0
    3.9903   -2.3011    0.0000 C    0  0  0  0  0  0  0  0  0  0  0  0
    3.9903    0.0000    0.0000 C    0  0  0  0  0  0  0  0  0  0  0  0
    2.6602   -2.3011    0.0000 C    0  0  0  0  0  0  0  0  0  0  0  0
    2.6602    0.0000    0.0000 C    0  0  0  0  0  0  0  0  0  0  0  0
    2.0018   -1.1505    0.0000 C    0  0  0  0  0  0  0  0  0  0  0  0
    6.6506   -2.3011    0.0000 N    0  0  0  0  0  0  0  0  0  0  0  0
    4.6620   -3.4583    0.0000 Cl   0  0  0  0  0  0  0  0  0  0  0  0
    0.6717   -1.1505    0.0000 N    0  3  0  0  0  0  0  0  0  0  0  0
    0.0000   -2.3011    0.0000 O    0  5  0  0  0  0  0  0  0  0  0  0
    0.0000    0.0000    0.0000 O    0  0  0  0  0  0  0  0  0  0  0  0
  1  2  2  0  0  0  0
  1  3  1  0  0  0  0
  1  9  1  0  0  0  0
  3  4  2  0  0  0  0
  3  5  1  0  0  0  0
  4  6  1  0  0  0  0
  4 10  1  0  0  0  0
  5  7  2  0  0  0  0
  6  8  2  0  0  0  0
  7  8  1  0  0  0  0
  8 11  1  0  0  0  0
 11 12  1  0  0  0  0
 11 13  2  0  0  0  0
M  END
> <ID>
8371

> <Formula>
C7H5ClN2O3

> <FW>
200.5792

> <DSSTox_CID>
21405

> <DSSTox_RID>
79716

> <DSSTox_GSID>
41405

> <DSSTox_FileID_Sort>
4398

> <TS_ChemName>
2-Chloro-4-nitrobenzamide

> <TS_ChemName_Synonyms>
2-Chloro-4-nitrobenzamide (Aklomide)

> <TS_CASRN>
3011-89-0

> <CASRN_ChemName_Relationship>
primary

> <TS_Description>
single chemical compound

> <ChemNote>


> <STRUCTURE_Shown>
tested chemical

> <STRUCTURE_Formula>
C7H5ClN2O3

> <STRUCTURE_MW>
200.5792

> <STRUCTURE_ChemType>
defined organic

> <STRUCTURE_DefinedOrganicForm>
parent

> <STRUCTURE_IUPAC>
2-chloro-4-nitrobenzamide

> <STRUCTURE_SMILES>
O=C(N)c1ccc(cc1Cl)[N+]([O-])=O

> <STRUCTURE_SMILES_Desalt>
O=C(N)c1ccc(cc1Cl)[N+]([O-])=O

> <Substance_modify_yyyymmdd>
20080825

$$$$
