30124-94-8
ChemmineR-0915142007XD

 32 33  0  0  0  0  0  0  0  0  2 V2000
    4.6633   -1.1658    0.0000 C   0  0  0  0  0  0  0  0  0  0  0  0
    5.3129    0.0000    0.0000 N   0  0  0  0  0  0  0  0  0  0  0  0
    3.9971   -2.3150    0.0000 C   0  0  0  0  0  0  0  0  0  0  0  0
    4.6633   -3.4808    0.0000 C   0  0  0  0  0  0  0  0  0  0  0  0
    2.6648   -2.3150    0.0000 C   0  0  0  0  0  0  0  0  0  0  0  0
    3.9971   -4.6134    0.0000 C   0  0  0  0  0  0  0  0  0  0  0  0
    1.9986   -3.4808    0.0000 C   0  0  0  0  0  0  0  0  0  0  0  0
    2.6648   -4.6134    0.0000 C   0  0  0  0  0  0  0  0  0  0  0  0
    6.6619   -4.6134    0.0000 N   0  0  0  0  0  0  0  0  0  0  0  0
    5.9957   -3.4808    0.0000 N   0  0  0  0  0  0  0  0  0  0  0  0
    9.9762   -3.4808    0.0000 C   0  0  0  0  0  0  0  0  0  0  0  0
   10.6590   -4.6134    0.0000 C   0  0  0  0  0  0  0  0  0  0  0  0
    9.9762   -5.7625    0.0000 C   0  0  0  0  0  0  0  0  0  0  0  0
    8.6438   -5.7625    0.0000 C   0  0  0  0  0  0  0  0  0  0  0  0
    7.9943   -4.6134    0.0000 C   0  0  0  0  0  0  0  0  0  0  0  0
    8.6438   -3.4808    0.0000 C   0  0  0  0  0  0  0  0  0  0  0  0
   11.9914   -4.6134    0.0000 N   0  0  0  0  0  0  0  0  0  0  0  0
   12.6576   -3.4808    0.0000 C   0  0  0  0  0  0  0  0  0  0  0  0
   13.9900   -3.4808    0.0000 C   0  0  0  0  0  0  0  0  0  0  0  0
   14.6562   -2.3150    0.0000 O   0  0  0  0  0  0  0  0  0  0  0  0
   15.9885   -2.3150    0.0000 C   0  0  0  0  0  0  0  0  0  0  0  0
   16.6547   -3.4808    0.0000 O   0  0  0  0  0  0  0  0  0  0  0  0
   16.6547   -1.1658    0.0000 C   0  0  0  0  0  0  0  0  0  0  0  0
   12.6576   -5.7625    0.0000 C   0  0  0  0  0  0  0  0  0  0  0  0
   13.9900   -5.7625    0.0000 C   0  0  0  0  0  0  0  0  0  0  0  0
   14.6562   -6.9284    0.0000 O   0  0  0  0  0  0  0  0  0  0  0  0
   15.9885   -6.9284    0.0000 C   0  0  0  0  0  0  0  0  0  0  0  0
   16.6547   -5.7625    0.0000 O   0  0  0  0  0  0  0  0  0  0  0  0
   16.6547   -8.0775    0.0000 C   0  0  0  0  0  0  0  0  0  0  0  0
    0.6662   -3.4808    0.0000 N   0  3  0  0  0  0  0  0  0  0  0  0
    0.0000   -2.3150    0.0000 O   0  5  0  0  0  0  0  0  0  0  0  0
    0.0000   -4.6134    0.0000 O   0  0  0  0  0  0  0  0  0  0  0  0
  1  2  3  0  0  0  0
  1  3  1  0  0  0  0
  3  4  2  0  0  0  0
  3  5  1  0  0  0  0
  4  6  1  0  0  0  0
  4 10  1  0  0  0  0
  5  7  2  0  0  0  0
  6  8  2  0  0  0  0
  7  8  1  0  0  0  0
  7 30  1  0  0  0  0
  9 15  1  0  0  0  0
  9 10  2  0  0  0  0
 11 16  2  0  0  0  0
 11 12  1  0  0  0  0
 12 13  2  0  0  0  0
 12 17  1  0  0  0  0
 13 14  1  0  0  0  0
 14 15  2  0  0  0  0
 15 16  1  0  0  0  0
 17 18  1  0  0  0  0
 17 24  1  0  0  0  0
 18 19  1  0  0  0  0
 19 20  1  0  0  0  0
 20 21  1  0  0  0  0
 21 22  2  0  0  0  0
 21 23  1  0  0  0  0
 24 25  1  0  0  0  0
 25 26  1  0  0  0  0
 26 27  1  0  0  0  0
 27 28  2  0  0  0  0
 27 29  1  0  0  0  0
 30 31  1  0  0  0  0
 30 32  2  0  0  0  0
M  END
> <ID>
10295

> <Formula>
C21H21N5O6

> <FW>
439.4213

> <DSSTox_CID>
24642

> <DSSTox_RID>
80370

> <DSSTox_GSID>
44642

> <DSSTox_FileID_Sort>
5052

> <TS_ChemName>
Disperse Red 82

> <TS_ChemName_Synonyms>
(Benzonitrile, 2-[[4-[bis[2-(acetyloxy)ethyl]amino]phenyl]azo]-5-nitro-; C.I. 11140

> <TS_CASRN>
30124-94-8

> <CASRN_ChemName_Relationship>
primary

> <TS_Description>
single chemical compound

> <ChemNote>


> <STRUCTURE_Shown>
tested chemical

> <STRUCTURE_Formula>
C21H21N5O6

> <STRUCTURE_MW>
439.4213

> <STRUCTURE_ChemType>
defined organic

> <STRUCTURE_DefinedOrganicForm>
parent

> <STRUCTURE_IUPAC>
({4-[(E)-(2-cyano-4-nitrophenyl)diazenyl]phenyl}imino)diethane-2,1-diyl diacetate

> <STRUCTURE_SMILES>
CC(=O)OCCN(CCOC(C)=O)c2ccc(/N=N/c1ccc(cc1C#N)[N+]([O-])=O)cc2

> <STRUCTURE_SMILES_Desalt>
CC(=O)OCCN(CCOC(C)=O)c2ccc(/N=N/c1ccc(cc1C#N)[N+]([O-])=O)cc2

> <Substance_modify_yyyymmdd>
20091116

$$$$
