30123-17-2
ChemmineR-0915142007XD

 30 31  0  0  0  0  0  0  0  0  2 V2000
    2.5218    0.0000    0.0000 C    0  0  0  0  0  0  0  0  0  0  0  0
    3.0320   -1.2682    0.0000 N    0  0  0  0  0  0  0  0  0  0  0  0
    4.3439   -1.3411    0.0000 C    0  0  0  0  0  0  0  0  0  0  0  0
    5.0873   -2.4343    0.0000 C    0  0  0  0  0  0  0  0  0  0  0  0
    6.4138   -2.3323    0.0000 C    0  0  0  0  0  0  0  0  0  0  0  0
    6.9968   -1.1370    0.0000 C    0  0  0  0  0  0  0  0  0  0  0  0
    6.2243   -0.0292    0.0000 C    0  0  0  0  0  0  0  0  0  0  0  0
    4.9124   -0.1312    0.0000 C    0  0  0  0  0  0  0  0  0  0  0  0
    4.7083   -3.6879    0.0000 C    0  0  0  0  0  0  0  0  0  0  0  0
    5.6558   -4.6354    0.0000 N    0  0  0  0  0  0  0  0  0  0  0  0
    6.9531   -4.2710    0.0000 C    0  0  0  0  0  0  0  0  0  0  0  0
    7.9006   -5.2039    0.0000 C    0  0  0  0  0  0  0  0  0  0  0  0
    9.1834   -4.8686    0.0000 C    0  0  0  0  0  0  0  0  0  0  0  0
   10.1308   -5.8016    0.0000 C    0  0  0  0  0  0  0  0  0  0  0  0
   11.3990   -5.4663    0.0000 C    0  0  0  0  0  0  0  0  0  0  0  0
   12.3465   -6.3992    0.0000 C    0  0  0  0  0  0  0  0  0  0  0  0
   13.6293   -6.0494    0.0000 C    0  0  0  0  0  0  0  0  0  0  0  0
   14.5768   -6.9968    0.0000 O    0  0  0  0  0  0  0  0  0  0  0  0
   13.9791   -4.7666    0.0000 O    0  5  0  0  0  0  0  0  0  0  0  0
    3.4547   -4.1981    0.0000 C    0  0  0  0  0  0  0  0  0  0  0  0
    3.4547   -5.5246    0.0000 C    0  0  0  0  0  0  0  0  0  0  0  0
    2.3031   -6.1805    0.0000 C    0  0  0  0  0  0  0  0  0  0  0  0
    1.1516   -5.5246    0.0000 C    0  0  0  0  0  0  0  0  0  0  0  0
    0.0000   -6.1805    0.0000 Cl   0  0  0  0  0  0  0  0  0  0  0  0
    1.1516   -4.1981    0.0000 C    0  0  0  0  0  0  0  0  0  0  0  0
    2.3031   -3.5276    0.0000 C    0  0  0  0  0  0  0  0  0  0  0  0
    2.0845   -2.1865    0.0000 S    0  0  0  0  0  0  0  0  0  0  0  0
    0.8746   -2.6967    0.0000 O    0  0  0  0  0  0  0  0  0  0  0  0
    1.3556   -1.1078    0.0000 O    0  0  0  0  0  0  0  0  0  0  0  0
   12.6818   -4.4459    0.0000 Na   0  3  0  0  0  0  0  0  0  0  0  0
  1  2  1  0  0  0  0
  2  3  1  0  0  0  0
  2 27  1  0  0  0  0
  3  4  2  0  0  0  0
  3  8  1  0  0  0  0
  4  5  1  0  0  0  0
  4  9  1  0  0  0  0
  5  6  2  0  0  0  0
  6  7  1  0  0  0  0
  7  8  2  0  0  0  0
  9 10  1  0  0  0  0
  9 20  1  0  0  0  0
 10 11  1  0  0  0  0
 11 12  1  0  0  0  0
 12 13  1  0  0  0  0
 13 14  1  0  0  0  0
 14 15  1  0  0  0  0
 15 16  1  0  0  0  0
 16 17  1  0  0  0  0
 17 18  2  0  0  0  0
 17 19  1  0  0  0  0
 20 21  2  0  0  0  0
 20 26  1  0  0  0  0
 21 22  1  0  0  0  0
 22 23  2  0  0  0  0
 23 24  1  0  0  0  0
 23 25  1  0  0  0  0
 25 26  2  0  0  0  0
 26 27  1  0  0  0  0
 27 28  2  0  0  0  0
 27 29  2  0  0  0  0
M  END
> <ID>
11930

> <Formula>
C21H24ClN2NaO4S

> <FW>
458.9340 (435.9448+22.9892)

> <DSSTox_CID>
26737

> <DSSTox_RID>
81866

> <DSSTox_GSID>
46737

> <DSSTox_FileID_Sort>
6547

> <TS_ChemName>
Tianeptine sodium

> <TS_ChemName_Synonyms>


> <TS_CASRN>
30123-17-2

> <CASRN_ChemName_Relationship>
primary

> <TS_Description>
single chemical compound

> <ChemNote>
parent [66981-73-5]

> <STRUCTURE_Shown>
tested chemical

> <STRUCTURE_Formula>
C21H24ClN2NaO4S

> <STRUCTURE_MW>
458.934

> <STRUCTURE_ChemType>
defined organic

> <STRUCTURE_DefinedOrganicForm>
salt

> <STRUCTURE_IUPAC>
sodium 7-[(3-chloro-6-methyl-5,5-dioxido-6,11-dihydrodibenzo[c,f][1,2]thiazepin-11-yl)amino]heptanoate

> <STRUCTURE_SMILES>
[Na+].[O-]C(=O)CCCCCCNC2c1ccc(Cl)cc1S(=O)(=O)N(C)c3ccccc23

> <STRUCTURE_SMILES_Desalt>
O=C(O)CCCCCCNC2c1ccc(Cl)cc1S(=O)(=O)N(C)c3ccccc23

> <Substance_modify_yyyymmdd>
20110803

$$$$
