30187-90-7
ChemmineR-0915142007XD

 18 18  0  0  0  0  0  0  0  0  1 V2000
   10.3612   -1.9917    0.0000 C   0  0  0  0  0  0  0  0  0  0  0  0
   10.3612   -3.3156    0.0000 C   0  0  0  0  0  0  0  0  0  0  0  0
    9.2100   -1.3124    0.0000 C   0  0  0  0  0  0  0  0  0  0  0  0
    9.2100   -3.9718    0.0000 C   0  0  0  0  0  0  0  0  0  0  0  0
    8.0587   -1.9917    0.0000 C   0  0  0  0  0  0  0  0  0  0  0  0
    8.0587   -3.3156    0.0000 C   0  0  0  0  0  0  0  0  0  0  0  0
   11.5124   -1.3124    0.0000 C   0  0  0  0  0  0  0  0  0  0  0  0
    9.2100    0.0000    0.0000 C   0  0  0  0  0  0  0  0  0  0  0  0
    6.9075   -1.3124    0.0000 O   0  0  0  0  0  0  0  0  0  0  0  0
    5.7562   -1.9917    0.0000 C   0  0  0  0  0  0  0  0  0  0  0  0
    4.6050   -1.3124    0.0000 C   0  0  0  0  0  0  0  0  0  0  0  0
    3.4537   -1.9917    0.0000 C   0  0  0  0  0  0  0  0  0  0  0  0
    2.3025   -1.3124    0.0000 N   0  0  0  0  0  0  0  0  0  0  0  0
    1.1512   -1.9917    0.0000 C   0  0  0  0  0  0  0  0  0  0  0  0
    0.4835   -0.8289    0.0000 C   0  0  0  0  0  0  0  0  0  0  0  0
    0.0000   -2.6479    0.0000 C   0  0  0  0  0  0  0  0  0  0  0  0
    1.8190   -3.1314    0.0000 C   0  0  0  0  0  0  0  0  0  0  0  0
    4.6050    0.0000    0.0000 O   0  0  0  0  0  0  0  0  0  0  0  0
  1  2  1  0  0  0  0
  1  3  2  0  0  0  0
  1  7  1  0  0  0  0
  2  4  2  0  0  0  0
  3  5  1  0  0  0  0
  3  8  1  0  0  0  0
  4  6  1  0  0  0  0
  5  6  2  0  0  0  0
  5  9  1  0  0  0  0
  9 10  1  0  0  0  0
 10 11  1  0  0  0  0
 11 12  1  0  0  0  0
 11 18  1  0  0  0  0
 12 13  1  0  0  0  0
 13 14  1  0  0  0  0
 14 15  1  0  0  0  0
 14 16  1  0  0  0  0
 14 17  1  0  0  0  0
M  END
> <ID>
9679

> <Formula>
C15H25NO2

> <FW>
251.3645

> <DSSTox_CID>
23848

> <DSSTox_RID>
97562

> <DSSTox_GSID>
43848

> <DSSTox_FileID_Sort>
8337

> <TS_ChemName>
Xibenolol

> <TS_ChemName_Synonyms>


> <TS_CASRN>
30187-90-7

> <CASRN_ChemName_Relationship>
primary

> <TS_Description>
single chemical compound

> <ChemNote>


> <STRUCTURE_Shown>
tested chemical

> <STRUCTURE_Formula>
C15H25NO2

> <STRUCTURE_MW>
251.3645

> <STRUCTURE_ChemType>
defined organic

> <STRUCTURE_DefinedOrganicForm>
parent

> <STRUCTURE_IUPAC>
1-(tert-butylamino)-3-(2,3-dimethylphenoxy)propan-2-ol

> <STRUCTURE_SMILES>
CC(C)(C)NCC(O)COc1cccc(C)c1C

> <STRUCTURE_SMILES_Desalt>
CC(C)(C)NCC(O)COc1cccc(C)c1C

> <Substance_modify_yyyymmdd>
20081229

$$$$
