302-97-6
ChemmineR-0915142007XD

 27 30  0  0  1  0  0  0  0  0  1 V2000
    7.9418   -4.3424    0.0000 C   0  0  0  0  0  0  0  0  0  0  0  0
    7.9069   -2.9840    0.0000 C   0  0  0  0  0  0  0  0  0  0  0  0
    7.0129   -3.8896    0.0000 C   0  0  0  0  0  0  0  0  0  0  0  0
    5.8170   -3.5877    0.0000 C   0  0  0  0  0  0  0  0  0  0  0  0
    5.2481   -2.4267    0.0000 C   0  0  0  0  0  0  0  0  0  0  0  0
    4.9926   -3.7851    0.0000 H   0  0  0  0  0  0  0  0  0  0  0  0
    6.1769   -1.4513    0.0000 C   0  0  0  0  0  0  0  0  0  0  0  0
    6.4556   -0.1277    0.0000 H   0  0  0  0  0  0  0  0  0  0  0  0
    5.5616   -0.2670    0.0000 C   0  0  0  0  0  0  0  0  0  0  0  0
    4.3192    0.0000    0.0000 C   0  0  0  0  0  0  0  0  0  0  0  0
    3.4948   -1.0217    0.0000 C   0  0  0  0  0  0  0  0  0  0  0  0
    2.2525   -0.5689    0.0000 C   0  0  0  0  0  0  0  0  0  0  0  0
    1.2424   -1.4165    0.0000 C   0  0  0  0  0  0  0  0  0  0  0  0
    0.0000   -1.0101    0.0000 O   0  0  0  0  0  0  0  0  0  0  0  0
    1.5907   -2.6821    0.0000 C   0  0  0  0  0  0  0  0  0  0  0  0
    2.8214   -2.9375    0.0000 C   0  0  0  0  0  0  0  0  0  0  0  0
    3.9128   -2.2641    0.0000 C   0  0  0  0  0  0  0  0  0  0  0  0
    3.5297   -3.5993    0.0000 C   0  0  0  0  0  0  0  0  0  0  0  0
    7.5122   -1.6952    0.0000 C   0  0  0  0  0  0  0  0  0  0  0  0
    7.9069   -0.3715    0.0000 H   0  0  0  0  0  0  0  0  0  0  0  0
    8.6616   -0.9753    0.0000 C   0  0  0  0  0  0  0  0  0  0  0  0
    9.7298   -1.7068    0.0000 C   0  0  0  0  0  0  0  0  0  0  0  0
    9.3467   -2.9840    0.0000 C   0  0  0  0  0  0  0  0  0  0  0  0
    9.5905   -4.3076    0.0000 H   0  0  0  0  0  0  0  0  0  0  0  0
   10.6819   -3.1930    0.0000 C   0  0  0  0  0  0  0  0  0  0  0  0
   11.3553   -4.3540    0.0000 O   0  0  0  0  0  0  0  0  0  0  0  0
   11.6108   -2.2177    0.0000 O   0  0  0  0  0  0  0  0  0  0  0  0
  2  1  1  6  0  0  0
  2  3  1  0  0  0  0
  2 19  1  0  0  0  0
  2 23  1  0  0  0  0
  3  4  1  0  0  0  0
  4  5  1  0  0  0  0
  5  6  1  1  0  0  0
  5  7  1  0  0  0  0
  5 17  1  0  0  0  0
  7  8  1  6  0  0  0
  7  9  1  0  0  0  0
  7 19  1  0  0  0  0
  9 10  1  0  0  0  0
 10 11  1  0  0  0  0
 11 12  2  0  0  0  0
 11 17  1  0  0  0  0
 12 13  1  0  0  0  0
 13 14  2  0  0  0  0
 13 15  1  0  0  0  0
 15 16  1  0  0  0  0
 16 17  1  0  0  0  0
 17 18  1  6  0  0  0
 19 20  1  1  0  0  0
 19 21  1  0  0  0  0
 21 22  1  0  0  0  0
 22 23  1  0  0  0  0
 23 24  1  0  0  0  0
 23 25  1  6  0  0  0
 25 26  1  0  0  0  0
 25 27  2  0  0  0  0
M  END
> <ID>
16108

> <Formula>
C20H28O3

> <FW>
316.4345

> <DSSTox_CID>
31495

> <DSSTox_RID>
97380

> <DSSTox_GSID>
57706

> <DSSTox_FileID_Sort>
8447

> <TS_ChemName>
Etienic acid

> <TS_ChemName_Synonyms>


> <TS_CASRN>
302-97-6

> <CASRN_ChemName_Relationship>
primary

> <TS_Description>
single chemical compound

> <ChemNote>


> <STRUCTURE_Shown>
tested chemical

> <STRUCTURE_Formula>
C20H28O3

> <STRUCTURE_MW>
316.4345

> <STRUCTURE_ChemType>
defined organic

> <STRUCTURE_DefinedOrganicForm>
parent

> <STRUCTURE_IUPAC>
(17beta)-3-oxoandrost-4-ene-17-carboxylic acid

> <STRUCTURE_SMILES>
O=C(O)[C@H]3CC[C@H]2[C@@H]4CCC1=CC(=O)CC[C@]1(C)[C@H]4CC[C@@]23C

> <STRUCTURE_SMILES_Desalt>
O=C(O)[C@H]3CC[C@H]2[C@@H]4CCC1=CC(=O)CC[C@]1(C)[C@H]4CC[C@@]23C

> <Substance_modify_yyyymmdd>
20131018

$$$$
