302-79-4
ChemmineR-0915142007XD

 22 22  0  0  0  0  0  0  0  0  1 V2000
    2.3106   -1.9924    0.0000 C   0  0  0  0  0  0  0  0  0  0  0  0
    3.4729   -1.3421    0.0000 C   0  0  0  0  0  0  0  0  0  0  0  0
    2.3106   -3.3483    0.0000 C   0  0  0  0  0  0  0  0  0  0  0  0
    1.1622   -1.3421    0.0000 C   0  0  0  0  0  0  0  0  0  0  0  0
    4.6074   -1.9924    0.0000 C   0  0  0  0  0  0  0  0  0  0  0  0
   11.5255   -1.9924    0.0000 C   0  0  0  0  0  0  0  0  0  0  0  0
   12.6877   -1.3421    0.0000 C   0  0  0  0  0  0  0  0  0  0  0  0
    8.0803   -1.3421    0.0000 C   0  0  0  0  0  0  0  0  0  0  0  0
   10.3909   -1.3421    0.0000 C   0  0  0  0  0  0  0  0  0  0  0  0
    5.7697   -1.3421    0.0000 C   0  0  0  0  0  0  0  0  0  0  0  0
    9.2287   -1.9924    0.0000 C   0  0  0  0  0  0  0  0  0  0  0  0
    6.9181   -1.9924    0.0000 C   0  0  0  0  0  0  0  0  0  0  0  0
   13.8361   -1.9924    0.0000 O   0  0  0  0  0  0  0  0  0  0  0  0
   12.6877    0.0000    0.0000 O   0  0  0  0  0  0  0  0  0  0  0  0
    1.1622   -3.9986    0.0000 C   0  0  0  0  0  0  0  0  0  0  0  0
    0.0000   -1.9924    0.0000 C   0  0  0  0  0  0  0  0  0  0  0  0
    3.4729   -3.9986    0.0000 C   0  0  0  0  0  0  0  0  0  0  0  0
    1.8125   -0.1937    0.0000 C   0  0  0  0  0  0  0  0  0  0  0  0
    0.4843   -0.1937    0.0000 C   0  0  0  0  0  0  0  0  0  0  0  0
    0.0000   -3.3483    0.0000 C   0  0  0  0  0  0  0  0  0  0  0  0
   10.3909    0.0000    0.0000 C   0  0  0  0  0  0  0  0  0  0  0  0
    5.7697    0.0000    0.0000 C   0  0  0  0  0  0  0  0  0  0  0  0
  1  2  1  0  0  0  0
  1  3  2  0  0  0  0
  1  4  1  0  0  0  0
  2  5  2  0  0  0  0
  3 15  1  0  0  0  0
  3 17  1  0  0  0  0
  4 16  1  0  0  0  0
  4 18  1  0  0  0  0
  4 19  1  0  0  0  0
  5 10  1  0  0  0  0
  6  9  2  0  0  0  0
  6  7  1  0  0  0  0
  7 13  2  0  0  0  0
  7 14  1  0  0  0  0
  8 12  1  0  0  0  0
  8 11  2  0  0  0  0
  9 11  1  0  0  0  0
  9 21  1  0  0  0  0
 10 12  2  0  0  0  0
 10 22  1  0  0  0  0
 15 20  1  0  0  0  0
 16 20  1  0  0  0  0
M  END
> <ID>
1192

> <Formula>
C20H28O2

> <FW>
300.4351

> <DSSTox_CID>
1239

> <DSSTox_RID>
76031

> <DSSTox_GSID>
21239

> <DSSTox_FileID_Sort>
715

> <TS_ChemName>
trans-Retinoic acid

> <TS_ChemName_Synonyms>
trans-Retinoic acid (RA) (All-trans Retinoic Acid) (ATRA) (Tretinoin)

> <TS_CASRN>
302-79-4

> <CASRN_ChemName_Relationship>
primary

> <TS_Description>
single chemical compound

> <ChemNote>
stereochem

> <STRUCTURE_Shown>
tested chemical

> <STRUCTURE_Formula>
C20H28O2

> <STRUCTURE_MW>
300.4351

> <STRUCTURE_ChemType>
defined organic

> <STRUCTURE_DefinedOrganicForm>
parent

> <STRUCTURE_IUPAC>
retinoic acid

> <STRUCTURE_SMILES>
CC=1CCCC(C)(C)C=1/C=CC(\C)=C\C=C\C(\C)=C\C(=O)O

> <STRUCTURE_SMILES_Desalt>
CC=1CCCC(C)(C)C=1/C=CC(\C)=C\C=C\C(\C)=C\C(=O)O

> <Substance_modify_yyyymmdd>
20080429

$$$$
