302-40-9
ChemmineR-0915142007XD

 24 25  0  0  0  0  0  0  0  0  1 V2000
    3.9916   -5.9366    0.0000 O   0  0  0  0  0  0  0  0  0  0  0  0
    3.9916   -4.6022    0.0000 C   0  0  0  0  0  0  0  0  0  0  0  0
    5.3259   -4.6022    0.0000 C   0  0  0  0  0  0  0  0  0  0  0  0
    5.9818   -5.7556    0.0000 O   0  0  0  0  0  0  0  0  0  0  0  0
    5.9818   -3.4489    0.0000 O   0  0  0  0  0  0  0  0  0  0  0  0
    7.3161   -3.4489    0.0000 C   0  0  0  0  0  0  0  0  0  0  0  0
    7.9833   -2.3068    0.0000 C   0  0  0  0  0  0  0  0  0  0  0  0
    9.3176   -2.3068    0.0000 N   0  0  0  0  0  0  0  0  0  0  0  0
    9.9734   -1.1534    0.0000 C   0  0  0  0  0  0  0  0  0  0  0  0
    9.3176    0.0000    0.0000 C   0  0  0  0  0  0  0  0  0  0  0  0
    9.9734   -3.4489    0.0000 C   0  0  0  0  0  0  0  0  0  0  0  0
   11.3077   -3.4489    0.0000 C   0  0  0  0  0  0  0  0  0  0  0  0
    2.6573   -4.6022    0.0000 C   0  0  0  0  0  0  0  0  0  0  0  0
    1.9902   -5.7556    0.0000 C   0  0  0  0  0  0  0  0  0  0  0  0
    0.6672   -5.7556    0.0000 C   0  0  0  0  0  0  0  0  0  0  0  0
    0.0000   -4.6022    0.0000 C   0  0  0  0  0  0  0  0  0  0  0  0
    0.6672   -3.4489    0.0000 C   0  0  0  0  0  0  0  0  0  0  0  0
    1.9902   -3.4489    0.0000 C   0  0  0  0  0  0  0  0  0  0  0  0
    3.9916   -3.2792    0.0000 C   0  0  0  0  0  0  0  0  0  0  0  0
    2.8382   -2.6121    0.0000 C   0  0  0  0  0  0  0  0  0  0  0  0
    2.8382   -1.2778    0.0000 C   0  0  0  0  0  0  0  0  0  0  0  0
    3.9916   -0.6106    0.0000 C   0  0  0  0  0  0  0  0  0  0  0  0
    5.1450   -1.2778    0.0000 C   0  0  0  0  0  0  0  0  0  0  0  0
    5.1450   -2.6121    0.0000 C   0  0  0  0  0  0  0  0  0  0  0  0
  1  2  1  0  0  0  0
  2  3  1  0  0  0  0
  2 13  1  0  0  0  0
  2 19  1  0  0  0  0
  3  4  2  0  0  0  0
  3  5  1  0  0  0  0
  5  6  1  0  0  0  0
  6  7  1  0  0  0  0
  7  8  1  0  0  0  0
  8  9  1  0  0  0  0
  8 11  1  0  0  0  0
  9 10  1  0  0  0  0
 11 12  1  0  0  0  0
 13 14  2  0  0  0  0
 13 18  1  0  0  0  0
 14 15  1  0  0  0  0
 15 16  2  0  0  0  0
 16 17  1  0  0  0  0
 17 18  2  0  0  0  0
 19 20  2  0  0  0  0
 19 24  1  0  0  0  0
 20 21  1  0  0  0  0
 21 22  2  0  0  0  0
 22 23  1  0  0  0  0
 23 24  2  0  0  0  0
M  END
> <ID>
2393

> <Formula>
C20H25NO3

> <FW>
327.4174

> <DSSTox_CID>
2644

> <DSSTox_RID>
76672

> <DSSTox_GSID>
22644

> <DSSTox_FileID_Sort>
1356

> <TS_ChemName>
Benactyzine

> <TS_ChemName_Synonyms>


> <TS_CASRN>
302-40-9

> <CASRN_ChemName_Relationship>
primary

> <TS_Description>
single chemical compound

> <ChemNote>


> <STRUCTURE_Shown>
tested chemical

> <STRUCTURE_Formula>
C20H25NO3

> <STRUCTURE_MW>
327.4174

> <STRUCTURE_ChemType>
defined organic

> <STRUCTURE_DefinedOrganicForm>
parent

> <STRUCTURE_IUPAC>
2-(diethylamino)ethyl hydroxy(diphenyl)acetate

> <STRUCTURE_SMILES>
OC(C(=O)OCCN(CC)CC)(c1ccccc1)c2ccccc2

> <STRUCTURE_SMILES_Desalt>
OC(C(=O)OCCN(CC)CC)(c1ccccc1)c2ccccc2

> <Substance_modify_yyyymmdd>
20080429

$$$$
