302-95-4
ChemmineR-0915142007XD

 34 36  0  0  1  0  0  0  0  0  2 V2000
    6.7452   -2.6614    0.0000 C    0  0  0  0  0  0  0  0  0  0  0  0
    4.4662   -3.9614    0.0000 C    0  0  0  0  0  0  0  0  0  0  0  0
    6.7452   -3.9767    0.0000 C    0  0  0  0  0  0  0  0  0  0  0  0
    3.3191   -4.6344    0.0000 C    0  0  0  0  0  0  0  0  0  0  0  0
    5.6133   -4.6344    0.0000 C    0  0  0  0  0  0  0  0  0  0  0  0
    5.6133   -2.0037    0.0000 C    0  0  0  0  0  0  0  0  0  0  0  0
    4.4662   -2.6614    0.0000 C    0  0  0  0  0  0  0  0  0  0  0  0
    8.0300   -2.2331    0.0000 C    0  0  0  0  0  0  0  0  0  0  0  0
    3.3191   -5.9498    0.0000 C    0  0  0  0  0  0  0  0  0  0  0  0
    8.0300   -4.3897    0.0000 C    0  0  0  0  0  0  0  0  0  0  0  0
    2.1413   -3.9614    0.0000 C    0  0  0  0  0  0  0  0  0  0  0  0
    8.7794   -3.2885    0.0000 C    0  0  0  0  0  0  0  0  0  0  0  0
    5.6133   -5.9498    0.0000 C    0  0  0  0  0  0  0  0  0  0  0  0
   11.8843   -1.6060    0.0000 C    0  0  0  0  0  0  0  0  0  0  0  0
    4.4662   -6.6075    0.0000 C    0  0  0  0  0  0  0  0  0  0  0  0
    2.1413   -6.6075    0.0000 C    0  0  0  0  0  0  0  0  0  0  0  0
   12.3126   -0.3059    0.0000 O    0  0  0  0  0  0  0  0  0  0  0  0
    8.4582   -0.9789    0.0000 C    0  0  0  0  0  0  0  0  0  0  0  0
    9.7889   -0.7495    0.0000 C    0  0  0  0  0  0  0  0  0  0  0  0
    5.6133   -0.6118    0.0000 O    0  0  0  0  0  0  0  0  0  0  0  0
   10.5384   -1.7742    0.0000 C    0  0  0  0  0  0  0  0  0  0  0  0
    6.7452   -1.4072    0.0000 C    0  0  0  0  0  0  0  0  0  0  0  0
    0.9942   -4.6344    0.0000 C    0  0  0  0  0  0  0  0  0  0  0  0
    0.9942   -5.9498    0.0000 C    0  0  0  0  0  0  0  0  0  0  0  0
    3.3191   -3.3649    0.0000 C    0  0  0  0  0  0  0  0  0  0  0  0
   12.7103   -2.6155    0.0000 O    0  5  0  0  0  0  0  0  0  0  0  0
    0.0000   -6.5922    0.0000 O    0  0  0  0  0  0  0  0  0  0  0  0
    7.5711    0.0000    0.0000 C    0  0  0  0  0  0  0  0  0  0  0  0
    6.7605   -5.3839    0.0000 H    0  0  0  0  0  0  0  0  0  0  0  0
    3.3191   -7.5558    0.0000 H    0  0  0  0  0  0  0  0  0  0  0  0
    4.4356   -5.2462    0.0000 H    0  0  0  0  0  0  0  0  0  0  0  0
    5.6133   -3.2426    0.0000 H    0  0  0  0  0  0  0  0  0  0  0  0
    8.0300   -3.5332    0.0000 H    0  0  0  0  0  0  0  0  0  0  0  0
   15.2952   -1.5601    0.0000 Na   0  3  0  0  0  0  0  0  0  0  0  0
  1  3  1  0  0  0  0
  1  6  1  0  0  0  0
  1  8  1  0  0  0  0
  1 22  1  1  0  0  0
  2  7  1  0  0  0  0
  2  4  1  0  0  0  0
  2 31  1  6  0  0  0
  2  5  1  0  0  0  0
  3  5  1  0  0  0  0
  3 10  1  0  0  0  0
  3 29  1  6  0  0  0
  4  9  1  0  0  0  0
  4 11  1  0  0  0  0
  4 25  1  1  0  0  0
  5 13  1  0  0  0  0
  5 32  1  1  0  0  0
  6  7  1  0  0  0  0
  6 20  1  6  0  0  0
  8 12  1  0  0  0  0
  8 18  1  0  0  0  0
  8 33  1  6  0  0  0
  9 16  1  0  0  0  0
  9 30  1  1  0  0  0
  9 15  1  0  0  0  0
 10 12  1  0  0  0  0
 11 23  1  0  0  0  0
 13 15  1  0  0  0  0
 14 21  1  0  0  0  0
 14 17  2  0  0  0  0
 14 26  1  0  0  0  0
 16 24  1  0  0  0  0
 18 19  1  0  0  0  0
 18 28  1  6  0  0  0
 19 21  1  0  0  0  0
 23 24  1  0  0  0  0
 24 27  1  6  0  0  0
M  END
> <ID>
6619

> <Formula>
C24H39NaO4

> <FW>
414.5538 (391.5646+22.9892)

> <DSSTox_CID>
13389

> <DSSTox_RID>
79069

> <DSSTox_GSID>
33389

> <DSSTox_FileID_Sort>
3751

> <TS_ChemName>
Sodium deoxycholate

> <TS_ChemName_Synonyms>


> <TS_CASRN>
302-95-4

> <CASRN_ChemName_Relationship>
primary

> <TS_Description>
single chemical compound

> <ChemNote>
stereochem

> <STRUCTURE_Shown>
tested chemical

> <STRUCTURE_Formula>
C24H39NaO4

> <STRUCTURE_MW>
414.5538

> <STRUCTURE_ChemType>
defined organic

> <STRUCTURE_DefinedOrganicForm>
salt

> <STRUCTURE_IUPAC>
sodium (3alpha,5beta,12alpha)-3,12-dihydroxycholan-24-oate

> <STRUCTURE_SMILES>
[Na+].[O-]C(=O)CC[C@@H](C)[C@H]2CC[C@H]1[C@@H]3CC[C@@H]4C[C@H](O)CC[C@]4(C)[C@H]3C[C@H](O)[C@@]12C

> <STRUCTURE_SMILES_Desalt>
O=C(O)CC[C@@H](C)[C@H]2CC[C@H]1[C@@H]3CC[C@@H]4C[C@H](O)CC[C@]4(C)[C@H]3C[C@H](O)[C@@]12C

> <Substance_modify_yyyymmdd>
20080429

$$$$
