302-27-2
ChemmineR-0915142007XD

 50 56  0  0  1  0  0  0  0  0  1 V2000
    3.8684   -3.8288    0.0000 C   0  0  0  0  0  0  0  0  0  0  0  0
    6.4430   -4.3965    0.0000 C   0  0  0  0  0  0  0  0  0  0  0  0
    2.8386   -5.5980    0.0000 C   0  0  0  0  0  0  0  0  0  0  0  0
    5.7960   -1.4787    0.0000 C   0  0  0  0  0  0  0  0  0  0  0  0
    5.9281   -5.4792    0.0000 C   0  0  0  0  0  0  0  0  0  0  0  0
    3.8684   -5.0171    0.0000 C   0  0  0  0  0  0  0  0  0  0  0  0
    5.9281   -3.3403    0.0000 C   0  0  0  0  0  0  0  0  0  0  0  0
    3.8684   -2.5877    0.0000 C   0  0  0  0  0  0  0  0  0  0  0  0
    6.5222   -2.4293    0.0000 C   0  0  0  0  0  0  0  0  0  0  0  0
    4.7926   -3.0763    0.0000 C   0  0  0  0  0  0  0  0  0  0  0  0
    8.0141   -4.3965    0.0000 C   0  0  0  0  0  0  0  0  0  0  0  0
    2.7726   -4.4097    0.0000 N   0  0  0  0  0  0  0  0  0  0  0  0
    8.0141   -1.4655    0.0000 C   0  0  0  0  0  0  0  0  0  0  0  0
    4.7926   -5.7432    0.0000 C   0  0  0  0  0  0  0  0  0  0  0  0
    3.9608   -6.2581    0.0000 C   0  0  0  0  0  0  0  0  0  0  0  0
    4.7926   -1.8484    0.0000 C   0  0  0  0  0  0  0  0  0  0  0  0
    2.8386   -3.2215    0.0000 C   0  0  0  0  0  0  0  0  0  0  0  0
    9.1891   -2.4293    0.0000 O   0  0  0  0  0  0  0  0  0  0  0  0
    1.8352   -5.0303    0.0000 C   0  0  0  0  0  0  0  0  0  0  0  0
   10.2190   -1.9804    0.0000 C   0  0  0  0  0  0  0  0  0  0  0  0
    1.8352   -3.8024    0.0000 C   0  0  0  0  0  0  0  0  0  0  0  0
    7.0107   -5.5848    0.0000 O   0  0  0  0  0  0  0  0  0  0  0  0
    7.9481   -6.1525    0.0000 C   0  0  0  0  0  0  0  0  0  0  0  0
    6.1261   -0.3301    0.0000 O   0  0  0  0  0  0  0  0  0  0  0  0
   10.2190   -0.8846    0.0000 O   0  0  0  0  0  0  0  0  0  0  0  0
    2.8386   -6.7994    0.0000 C   0  0  0  0  0  0  0  0  0  0  0  0
    8.8195   -4.9378    0.0000 O   0  0  0  0  0  0  0  0  0  0  0  0
    8.7535   -5.6904    0.0000 O   0  0  0  0  0  0  0  0  0  0  0  0
    9.0571   -1.1090    0.0000 O   0  0  0  0  0  0  0  0  0  0  0  0
    4.7926   -6.9579    0.0000 O   0  0  0  0  0  0  0  0  0  0  0  0
    0.9374   -4.3965    0.0000 C   0  0  0  0  0  0  0  0  0  0  0  0
    2.8386   -2.0332    0.0000 O   0  0  0  0  0  0  0  0  0  0  0  0
    0.7922   -5.6508    0.0000 O   0  0  0  0  0  0  0  0  0  0  0  0
    1.8484   -7.3936    0.0000 O   0  0  0  0  0  0  0  0  0  0  0  0
    7.9481   -7.2747    0.0000 C   0  0  0  0  0  0  0  0  0  0  0  0
    5.7432   -7.4596    0.0000 C   0  0  0  0  0  0  0  0  0  0  0  0
    9.0571    0.0000    0.0000 C   0  0  0  0  0  0  0  0  0  0  0  0
    1.8484   -1.4523    0.0000 C   0  0  0  0  0  0  0  0  0  0  0  0
    1.8484   -8.5554    0.0000 C   0  0  0  0  0  0  0  0  0  0  0  0
    0.0000   -3.8948    0.0000 C   0  0  0  0  0  0  0  0  0  0  0  0
    7.1163   -3.3271    0.0000 H   0  0  0  0  0  0  0  0  0  0  0  0
    5.7300   -2.3369    0.0000 H   0  0  0  0  0  0  0  0  0  0  0  0
    4.7266   -4.5682    0.0000 H   0  0  0  0  0  0  0  0  0  0  0  0
    6.2713   -6.4826    0.0000 H   0  0  0  0  0  0  0  0  0  0  0  0
   11.1696   -2.6142    0.0000 C   0  0  0  0  0  0  0  0  0  0  0  0
   12.1994   -2.0332    0.0000 C   0  0  0  0  0  0  0  0  0  0  0  0
   11.1696   -3.7892    0.0000 C   0  0  0  0  0  0  0  0  0  0  0  0
   13.2028   -2.6142    0.0000 C   0  0  0  0  0  0  0  0  0  0  0  0
   12.1994   -4.3833    0.0000 C   0  0  0  0  0  0  0  0  0  0  0  0
   13.2028   -3.7892    0.0000 C   0  0  0  0  0  0  0  0  0  0  0  0
  1  6  1  0  0  0  0
  1  8  1  6  0  0  0
  1 10  1  0  0  0  0
  1 17  1  0  0  0  0
  2  7  1  0  0  0  0
  2 11  1  0  0  0  0
  2 22  1  1  0  0  0
  2  5  1  0  0  0  0
  3  6  1  0  0  0  0
  3 26  1  0  0  0  0
  3 19  1  0  0  0  0
  3 15  1  6  0  0  0
  4 16  1  0  0  0  0
  4 13  1  0  0  0  0
  4 24  1  1  0  0  0
  4  9  1  0  0  0  0
  5  8  1  0  0  0  0
  5 14  1  0  0  0  0
  5 44  1  6  0  0  0
  6 14  1  0  0  0  0
  6 43  1  1  0  0  0
  7 10  1  0  0  0  0
  7  9  1  0  0  0  0
  7 41  1  1  0  0  0
  8 12  1  0  0  0  0
  9 18  1  6  0  0  0
 10 16  1  0  0  0  0
 10 42  1  1  0  0  0
 11 27  1  6  0  0  0
 11 13  1  0  0  0  0
 12 15  1  6  0  0  0
 12 31  1  0  0  0  0
 13 29  1  1  0  0  0
 14 30  1  6  0  0  0
 17 21  1  0  0  0  0
 17 32  1  6  0  0  0
 18 20  1  0  0  0  0
 19 21  1  0  0  0  0
 19 33  1  6  0  0  0
 20 25  2  0  0  0  0
 20 45  1  0  0  0  0
 22 23  1  0  0  0  0
 23 28  2  0  0  0  0
 23 35  1  0  0  0  0
 26 34  1  0  0  0  0
 29 37  1  0  0  0  0
 30 36  1  0  0  0  0
 31 40  1  0  0  0  0
 32 38  1  0  0  0  0
 34 39  1  0  0  0  0
 45 46  1  0  0  0  0
 45 47  2  0  0  0  0
 46 48  2  0  0  0  0
 47 49  1  0  0  0  0
 48 50  1  0  0  0  0
 49 50  2  0  0  0  0
M  END
> <ID>
11602

> <Formula>
C34H47NO11

> <FW>
645.7371

> <DSSTox_CID>
26319

> <DSSTox_RID>
81535

> <DSSTox_GSID>
46319

> <DSSTox_FileID_Sort>
6216

> <TS_ChemName>
Aconitine

> <TS_ChemName_Synonyms>


> <TS_CASRN>
302-27-2

> <CASRN_ChemName_Relationship>
primary

> <TS_Description>
single chemical compound

> <ChemNote>
stereochem

> <STRUCTURE_Shown>
tested chemical

> <STRUCTURE_Formula>
C34H47NO11

> <STRUCTURE_MW>
645.7371

> <STRUCTURE_ChemType>
defined organic

> <STRUCTURE_DefinedOrganicForm>
parent

> <STRUCTURE_IUPAC>
(1a,3a,6a,11b,14a,15a,16b)-8-(acetyloxy)-20-ethyl-3,13,15-trihydroxy-1,6,16-trimethoxy-4-(methoxymethyl)aconitan-14-yl benzoate

> <STRUCTURE_SMILES>
CC(=O)O[C@@]37[C@@H](O)[C@H](OC)[C@@]6(O)C[C@@H]([C@]14C2[N@@](CC)C[C@](COC)([C@H](O)C[C@@H]1OC)[C@H]4[C@@H](OC)[C@@H]23)[C@@H]7[C@H]6OC(=O)c5ccccc5

> <STRUCTURE_SMILES_Desalt>
CC(=O)O[C@@]37[C@@H](O)[C@H](OC)[C@@]6(O)C[C@@H]([C@]14C2[N@@](CC)C[C@](COC)([C@H](O)C[C@@H]1OC)[C@H]4[C@@H](OC)[C@@H]23)[C@@H]7[C@H]6OC(=O)c5ccccc5

> <Substance_modify_yyyymmdd>
20110815

$$$$
