30223-48-4
ChemmineR-0915142007XD

 27 29  0  0  0  0  0  0  0  0  1 V2000
    8.0501   -6.6517    0.0000 C   0  0  0  0  0  0  0  0  0  0  0  0
    6.9093   -5.9801    0.0000 C   0  0  0  0  0  0  0  0  0  0  0  0
    5.7593   -6.6517    0.0000 N   0  0  0  0  0  0  0  0  0  0  0  0
    5.7593   -7.9857    0.0000 C   0  0  0  0  0  0  0  0  0  0  0  0
    6.9093   -8.6389    0.0000 C   0  0  0  0  0  0  0  0  0  0  0  0
    4.6093   -5.9801    0.0000 C   0  0  0  0  0  0  0  0  0  0  0  0
    4.6093   -4.6553    0.0000 C   0  0  0  0  0  0  0  0  0  0  0  0
    3.4592   -3.9836    0.0000 C   0  0  0  0  0  0  0  0  0  0  0  0
    2.3000   -4.6553    0.0000 O   0  0  0  0  0  0  0  0  0  0  0  0
    3.4592   -2.6680    0.0000 N   0  0  0  0  0  0  0  0  0  0  0  0
    2.3000   -1.9964    0.0000 C   0  0  0  0  0  0  0  0  0  0  0  0
    1.1500   -2.6680    0.0000 C   0  0  0  0  0  0  0  0  0  0  0  0
    0.0000   -1.9964    0.0000 C   0  0  0  0  0  0  0  0  0  0  0  0
    0.0000   -0.6716    0.0000 C   0  0  0  0  0  0  0  0  0  0  0  0
    1.1500    0.0000    0.0000 C   0  0  0  0  0  0  0  0  0  0  0  0
    2.3000   -0.6716    0.0000 C   0  0  0  0  0  0  0  0  0  0  0  0
    3.4592    0.0000    0.0000 S   0  0  0  0  0  0  0  0  0  0  0  0
    4.6093   -0.6716    0.0000 C   0  0  0  0  0  0  0  0  0  0  0  0
    5.7593    0.0000    0.0000 C   0  0  0  0  0  0  0  0  0  0  0  0
    6.9093   -0.6716    0.0000 C   0  0  0  0  0  0  0  0  0  0  0  0
    6.9093   -1.9964    0.0000 C   0  0  0  0  0  0  0  0  0  0  0  0
    5.7593   -2.6680    0.0000 C   0  0  0  0  0  0  0  0  0  0  0  0
    4.6093   -1.9964    0.0000 C   0  0  0  0  0  0  0  0  0  0  0  0
    8.0501   -2.6680    0.0000 C   0  0  0  0  0  0  0  0  0  0  0  0
    8.7217   -1.5180    0.0000 F   0  0  0  0  0  0  0  0  0  0  0  0
    9.2001   -3.3304    0.0000 F   0  0  0  0  0  0  0  0  0  0  0  0
    7.3877   -3.8272    0.0000 F   0  0  0  0  0  0  0  0  0  0  0  0
  1  2  1  0  0  0  0
  2  3  1  0  0  0  0
  3  4  1  0  0  0  0
  3  6  1  0  0  0  0
  4  5  1  0  0  0  0
  6  7  1  0  0  0  0
  7  8  1  0  0  0  0
  8  9  2  0  0  0  0
  8 10  1  0  0  0  0
 10 11  1  0  0  0  0
 10 23  1  0  0  0  0
 11 12  2  0  0  0  0
 11 16  1  0  0  0  0
 12 13  1  0  0  0  0
 13 14  2  0  0  0  0
 14 15  1  0  0  0  0
 15 16  2  0  0  0  0
 16 17  1  0  0  0  0
 17 18  1  0  0  0  0
 18 19  2  0  0  0  0
 18 23  1  0  0  0  0
 19 20  1  0  0  0  0
 20 21  2  0  0  0  0
 21 22  1  0  0  0  0
 21 24  1  0  0  0  0
 22 23  2  0  0  0  0
 24 25  1  0  0  0  0
 24 26  1  0  0  0  0
 24 27  1  0  0  0  0
M  END
> <ID>
11473

> <Formula>
C20H21F3N2OS

> <FW>
394.4537

> <DSSTox_CID>
26175

> <DSSTox_RID>
81406

> <DSSTox_GSID>
46175

> <DSSTox_FileID_Sort>
6087

> <TS_ChemName>
Fluacizine

> <TS_ChemName_Synonyms>


> <TS_CASRN>
30223-48-4

> <CASRN_ChemName_Relationship>
primary

> <TS_Description>
single chemical compound

> <ChemNote>


> <STRUCTURE_Shown>
tested chemical

> <STRUCTURE_Formula>
C20H21F3N2OS

> <STRUCTURE_MW>
394.4537

> <STRUCTURE_ChemType>
defined organic

> <STRUCTURE_DefinedOrganicForm>
parent

> <STRUCTURE_IUPAC>
3-(diethylamino)-1-[2-(trifluoromethyl)-10H-phenothiazin-10-yl]propan-1-one

> <STRUCTURE_SMILES>
CCN(CC)CCC(=O)N1c3ccccc3Sc2ccc(cc12)C(F)(F)F

> <STRUCTURE_SMILES_Desalt>
CCN(CC)CCC(=O)N1c3ccccc3Sc2ccc(cc12)C(F)(F)F

> <Substance_modify_yyyymmdd>
20110818

$$$$
