3026-63-9
ChemmineR-0915142007XD

 19 17  0  0  0  0  0  0  0  0  2 V2000
    1.1606   -1.1606    0.0000 S    0  0  0  0  0  0  0  0  0  0  0  0
    0.0000   -1.8362    0.0000 O    0  0  0  0  0  0  0  0  0  0  0  0
    0.4850    0.0000    0.0000 O    0  0  0  0  0  0  0  0  0  0  0  0
    2.3039   -0.5024    0.0000 O    0  0  0  0  0  0  0  0  0  0  0  0
    1.8189   -2.3039    0.0000 O    0  5  0  0  0  0  0  0  0  0  0  0
    3.4472   -1.1606    0.0000 C    0  0  0  0  0  0  0  0  0  0  0  0
    4.6078   -0.5024    0.0000 C    0  0  0  0  0  0  0  0  0  0  0  0
    5.7684   -1.1606    0.0000 C    0  0  0  0  0  0  0  0  0  0  0  0
    6.9291   -0.5024    0.0000 C    0  0  0  0  0  0  0  0  0  0  0  0
    8.0897   -1.1606    0.0000 C    0  0  0  0  0  0  0  0  0  0  0  0
    9.2330   -0.5024    0.0000 C    0  0  0  0  0  0  0  0  0  0  0  0
   10.3936   -1.1606    0.0000 C    0  0  0  0  0  0  0  0  0  0  0  0
   11.5369   -0.5024    0.0000 C    0  0  0  0  0  0  0  0  0  0  0  0
   12.6975   -1.1606    0.0000 C    0  0  0  0  0  0  0  0  0  0  0  0
   13.8581   -0.5024    0.0000 C    0  0  0  0  0  0  0  0  0  0  0  0
   15.0014   -1.1606    0.0000 C    0  0  0  0  0  0  0  0  0  0  0  0
   16.1620   -0.5024    0.0000 C    0  0  0  0  0  0  0  0  0  0  0  0
   17.3226   -1.1606    0.0000 C    0  0  0  0  0  0  0  0  0  0  0  0
    3.2567   -3.0834    0.0000 Na   0  3  0  0  0  0  0  0  0  0  0  0
  1  2  2  0  0  0  0
  1  3  2  0  0  0  0
  1  4  1  0  0  0  0
  1  5  1  0  0  0  0
  4  6  1  0  0  0  0
  6  7  1  0  0  0  0
  7  8  1  0  0  0  0
  8  9  1  0  0  0  0
  9 10  1  0  0  0  0
 10 11  1  0  0  0  0
 11 12  1  0  0  0  0
 12 13  1  0  0  0  0
 13 14  1  0  0  0  0
 14 15  1  0  0  0  0
 15 16  1  0  0  0  0
 16 17  1  0  0  0  0
 17 18  1  0  0  0  0
M  END
> <ID>
6203

> <Formula>
C13H27NaO4S

> <FW>
302.4058 (279.4166+22.9892)

> <DSSTox_CID>
9776

> <DSSTox_RID>
80018

> <DSSTox_GSID>
42418

> <DSSTox_FileID_Sort>
4700

> <TS_ChemName>
Sodium tridecyl sulfate

> <TS_ChemName_Synonyms>


> <TS_CASRN>
3026-63-9

> <CASRN_ChemName_Relationship>
primary

> <TS_Description>
single chemical compound

> <ChemNote>
parent [7328-26-9]

> <STRUCTURE_Shown>
tested chemical

> <STRUCTURE_Formula>
C13H27NaO4S

> <STRUCTURE_MW>
302.4058

> <STRUCTURE_ChemType>
defined organic

> <STRUCTURE_DefinedOrganicForm>
salt

> <STRUCTURE_IUPAC>
sodium tridecyl sulfate

> <STRUCTURE_SMILES>
[Na+].[O-]S(=O)(=O)OCCCCCCCCCCCCC

> <STRUCTURE_SMILES_Desalt>
OS(=O)(=O)OCCCCCCCCCCCCC

> <Substance_modify_yyyymmdd>
20080825

$$$$
