3027-21-2
ChemmineR-0915142007XD

 12 12  0  0  0  0  0  0  0  0  1 V2000
    3.9852   -2.6668    0.0000 O    0  0  0  0  0  0  0  0  0  0  0  0
    5.1418   -3.3260    0.0000 C    0  0  0  0  0  0  0  0  0  0  0  0
    5.3156   -1.3364    0.0000 O    0  0  0  0  0  0  0  0  0  0  0  0
    5.9928   -0.1918    0.0000 C    0  0  0  0  0  0  0  0  0  0  0  0
    3.9852   -1.3364    0.0000 Si   0  0  0  0  0  0  0  0  0  0  0  0
    0.6592   -0.1918    0.0000 C    0  0  0  0  0  0  0  0  0  0  0  0
    0.0000   -1.3364    0.0000 C    0  0  0  0  0  0  0  0  0  0  0  0
    0.6592   -2.4930    0.0000 C    0  0  0  0  0  0  0  0  0  0  0  0
    1.9896   -2.4930    0.0000 C    0  0  0  0  0  0  0  0  0  0  0  0
    2.6668   -1.3364    0.0000 C    0  0  0  0  0  0  0  0  0  0  0  0
    1.9896   -0.1918    0.0000 C    0  0  0  0  0  0  0  0  0  0  0  0
    3.9852    0.0000    0.0000 C    0  0  0  0  0  0  0  0  0  0  0  0
  1  2  1  0  0  0  0
  1  5  1  0  0  0  0
  3  4  1  0  0  0  0
  3  5  1  0  0  0  0
  5 10  1  0  0  0  0
  5 12  1  0  0  0  0
  6 11  2  0  0  0  0
  6  7  1  0  0  0  0
  7  8  2  0  0  0  0
  8  9  1  0  0  0  0
  9 10  2  0  0  0  0
 10 11  1  0  0  0  0
M  END
> <ID>
10556

> <Formula>
C9H14O2Si

> <FW>
182.2918

> <DSSTox_CID>
24909

> <DSSTox_RID>
80578

> <DSSTox_GSID>
44909

> <DSSTox_FileID_Sort>
5260

> <TS_ChemName>
Dimethoxy(methyl)phenylsilane

> <TS_ChemName_Synonyms>
Dimethoxy(methyl)phenylsilane (Silane, dimethoxymethylphenyl-)

> <TS_CASRN>
3027-21-2

> <CASRN_ChemName_Relationship>
primary

> <TS_Description>
single chemical compound

> <ChemNote>


> <STRUCTURE_Shown>
tested chemical

> <STRUCTURE_Formula>
C9H14O2Si

> <STRUCTURE_MW>
182.2918

> <STRUCTURE_ChemType>
organometallic

> <STRUCTURE_DefinedOrganicForm>


> <STRUCTURE_IUPAC>
dimethoxy(methyl)phenylsilane

> <STRUCTURE_SMILES>
CO[Si](C)(OC)c1ccccc1

> <STRUCTURE_SMILES_Desalt>
CO[Si](C)(OC)c1ccccc1

> <Substance_modify_yyyymmdd>
20091116

$$$$
