302962-49-8
ChemmineR-0915142007XD

 33 36  0  0  0  0  0  0  0  0  1 V2000
    3.9964   -4.5951    0.0000 N    0  0  0  0  0  0  0  0  0  0  0  0
    4.6598   -3.4463    0.0000 C    0  0  0  0  0  0  0  0  0  0  0  0
    3.9964   -2.2975    0.0000 C    0  0  0  0  0  0  0  0  0  0  0  0
    2.6535   -2.2975    0.0000 N    0  0  0  0  0  0  0  0  0  0  0  0
    1.9901   -3.4463    0.0000 C    0  0  0  0  0  0  0  0  0  0  0  0
    2.6535   -4.5951    0.0000 C    0  0  0  0  0  0  0  0  0  0  0  0
    1.9901   -1.1488    0.0000 C    0  0  0  0  0  0  0  0  0  0  0  0
    0.6634   -1.1488    0.0000 C    0  0  0  0  0  0  0  0  0  0  0  0
    0.0000    0.0000    0.0000 O    0  0  0  0  0  0  0  0  0  0  0  0
    4.6598   -5.7438    0.0000 C    0  0  0  0  0  0  0  0  0  0  0  0
    3.9964   -6.9088    0.0000 N    0  0  0  0  0  0  0  0  0  0  0  0
    4.6598   -8.0576    0.0000 C    0  0  0  0  0  0  0  0  0  0  0  0
    5.9865   -8.0576    0.0000 N    0  0  0  0  0  0  0  0  0  0  0  0
    6.6499   -6.9088    0.0000 C    0  0  0  0  0  0  0  0  0  0  0  0
    5.9865   -5.7438    0.0000 C    0  0  0  0  0  0  0  0  0  0  0  0
    7.9767   -6.9088    0.0000 N    0  0  0  0  0  0  0  0  0  0  0  0
    8.6400   -5.7438    0.0000 C    0  0  0  0  0  0  0  0  0  0  0  0
    9.9668   -5.6144    0.0000 S    0  0  0  0  0  0  0  0  0  0  0  0
   10.2418   -4.3038    0.0000 C    0  0  0  0  0  0  0  0  0  0  0  0
    9.0931   -3.6405    0.0000 C    0  0  0  0  0  0  0  0  0  0  0  0
    8.1061   -4.5304    0.0000 N    0  0  0  0  0  0  0  0  0  0  0  0
   11.4553   -3.7699    0.0000 C    0  0  0  0  0  0  0  0  0  0  0  0
   12.5394   -4.5465    0.0000 N    0  0  0  0  0  0  0  0  0  0  0  0
   13.7529   -4.0126    0.0000 C    0  0  0  0  0  0  0  0  0  0  0  0
   14.8207   -4.7892    0.0000 C    0  0  0  0  0  0  0  0  0  0  0  0
   16.0342   -4.2553    0.0000 C    0  0  0  0  0  0  0  0  0  0  0  0
   16.1799   -2.9286    0.0000 C    0  0  0  0  0  0  0  0  0  0  0  0
   15.0958   -2.1519    0.0000 C    0  0  0  0  0  0  0  0  0  0  0  0
   13.8823   -2.6859    0.0000 C    0  0  0  0  0  0  0  0  0  0  0  0
   12.8144   -1.9092    0.0000 C    0  0  0  0  0  0  0  0  0  0  0  0
   14.6913   -6.1160    0.0000 Cl   0  0  0  0  0  0  0  0  0  0  0  0
   11.6010   -2.4432    0.0000 O    0  0  0  0  0  0  0  0  0  0  0  0
    3.9964   -9.2063    0.0000 C    0  0  0  0  0  0  0  0  0  0  0  0
  1  2  1  0  0  0  0
  1  6  1  0  0  0  0
  1 10  1  0  0  0  0
  2  3  1  0  0  0  0
  3  4  1  0  0  0  0
  4  5  1  0  0  0  0
  4  7  1  0  0  0  0
  5  6  1  0  0  0  0
  7  8  1  0  0  0  0
  8  9  1  0  0  0  0
 10 11  1  0  0  0  0
 10 15  2  0  0  0  0
 11 12  2  0  0  0  0
 12 13  1  0  0  0  0
 12 33  1  0  0  0  0
 13 14  2  0  0  0  0
 14 15  1  0  0  0  0
 14 16  1  0  0  0  0
 16 17  1  0  0  0  0
 17 18  1  0  0  0  0
 17 21  2  0  0  0  0
 18 19  1  0  0  0  0
 19 20  2  0  0  0  0
 19 22  1  0  0  0  0
 20 21  1  0  0  0  0
 22 23  1  0  0  0  0
 22 32  2  0  0  0  0
 23 24  1  0  0  0  0
 24 25  1  0  0  0  0
 24 29  2  0  0  0  0
 25 26  2  0  0  0  0
 25 31  1  0  0  0  0
 26 27  1  0  0  0  0
 27 28  2  0  0  0  0
 28 29  1  0  0  0  0
 29 30  1  0  0  0  0
M  END
> <ID>
8017

> <Formula>
C22H26ClN7O2S

> <FW>
488.0055

> <DSSTox_CID>
20979

> <DSSTox_RID>
79608

> <DSSTox_GSID>
40979

> <DSSTox_FileID_Sort>
4290

> <TS_ChemName>
Dasatinib

> <TS_ChemName_Synonyms>
Dasatinib (BMS-354825)

> <TS_CASRN>
302962-49-8

> <CASRN_ChemName_Relationship>
primary

> <TS_Description>
single chemical compound

> <ChemNote>


> <STRUCTURE_Shown>
tested chemical

> <STRUCTURE_Formula>
C22H26ClN7O2S

> <STRUCTURE_MW>
488.0055

> <STRUCTURE_ChemType>
defined organic

> <STRUCTURE_DefinedOrganicForm>
parent

> <STRUCTURE_IUPAC>
N-(2-chloro-6-methylphenyl)-2-({6-[4-(2-hydroxyethyl)piperazin-1-yl]-2-methylpyrimidin-4-yl}amino)-1,3-thiazole-5-carboxamide

> <STRUCTURE_SMILES>
Cc4cccc(Cl)c4NC(=O)c3cnc(Nc1nc(C)nc(c1)N2CCN(CCO)CC2)s3

> <STRUCTURE_SMILES_Desalt>
Cc4cccc(Cl)c4NC(=O)c3cnc(Nc1nc(C)nc(c1)N2CCN(CCO)CC2)s3

> <Substance_modify_yyyymmdd>
20080429

$$$$
