30299-08-2
ChemmineR-0915142007XD

 34 36  0  0  0  0  0  0  0  0  1 V2000
    7.9353   -2.6025    0.0000 C   0  0  0  0  0  0  0  0  0  0  0  0
    6.8176   -3.2891    0.0000 C   0  0  0  0  0  0  0  0  0  0  0  0
    9.1008   -3.2891    0.0000 C   0  0  0  0  0  0  0  0  0  0  0  0
    9.1008   -1.9958    0.0000 C   0  0  0  0  0  0  0  0  0  0  0  0
    6.8176   -1.9958    0.0000 C   0  0  0  0  0  0  0  0  0  0  0  0
    6.8176   -4.5983    0.0000 C   0  0  0  0  0  0  0  0  0  0  0  0
    5.6680   -2.6025    0.0000 C   0  0  0  0  0  0  0  0  0  0  0  0
    9.1008   -4.5983    0.0000 C   0  0  0  0  0  0  0  0  0  0  0  0
   10.2344   -2.6025    0.0000 C   0  0  0  0  0  0  0  0  0  0  0  0
    9.1008   -0.6387    0.0000 C   0  0  0  0  0  0  0  0  0  0  0  0
    6.8176   -0.6387    0.0000 C   0  0  0  0  0  0  0  0  0  0  0  0
    5.6680   -5.3008    0.0000 C   0  0  0  0  0  0  0  0  0  0  0  0
    4.5025   -3.2891    0.0000 C   0  0  0  0  0  0  0  0  0  0  0  0
   10.2344   -5.3008    0.0000 C   0  0  0  0  0  0  0  0  0  0  0  0
   11.4000   -3.2891    0.0000 C   0  0  0  0  0  0  0  0  0  0  0  0
    7.9353    0.0000    0.0000 C   0  0  0  0  0  0  0  0  0  0  0  0
    4.5025   -4.5983    0.0000 C   0  0  0  0  0  0  0  0  0  0  0  0
   11.4000   -4.5983    0.0000 C   0  0  0  0  0  0  0  0  0  0  0  0
    3.3529   -5.3008    0.0000 O   0  0  0  0  0  0  0  0  0  0  0  0
   12.5495   -5.3008    0.0000 O   0  0  0  0  0  0  0  0  0  0  0  0
    2.2832   -4.5983    0.0000 C   0  0  0  0  0  0  0  0  0  0  0  0
   13.6672   -4.5983    0.0000 C   0  0  0  0  0  0  0  0  0  0  0  0
    2.2832   -3.2891    0.0000 C   0  0  0  0  0  0  0  0  0  0  0  0
    1.1176   -5.3008    0.0000 C   0  0  0  0  0  0  0  0  0  0  0  0
    2.5865   -5.9075    0.0000 C   0  0  0  0  0  0  0  0  0  0  0  0
   13.6672   -3.2891    0.0000 C   0  0  0  0  0  0  0  0  0  0  0  0
   14.8487   -5.3008    0.0000 C   0  0  0  0  0  0  0  0  0  0  0  0
   14.0184   -5.9075    0.0000 C   0  0  0  0  0  0  0  0  0  0  0  0
    3.3529   -2.6025    0.0000 O   0  0  0  0  0  0  0  0  0  0  0  0
    1.1176   -2.6025    0.0000 O   0  0  0  0  0  0  0  0  0  0  0  0
    0.0000   -4.5983    0.0000 C   0  0  0  0  0  0  0  0  0  0  0  0
   14.8487   -2.6025    0.0000 O   0  0  0  0  0  0  0  0  0  0  0  0
   12.5495   -2.6025    0.0000 O   0  0  0  0  0  0  0  0  0  0  0  0
   15.9663   -4.5983    0.0000 C   0  0  0  0  0  0  0  0  0  0  0  0
  1  2  1  0  0  0  0
  1  3  1  0  0  0  0
  1  4  1  0  0  0  0
  1  5  1  0  0  0  0
  2  6  2  0  0  0  0
  2  7  1  0  0  0  0
  3  8  2  0  0  0  0
  3  9  1  0  0  0  0
  4 10  1  0  0  0  0
  5 11  1  0  0  0  0
  6 12  1  0  0  0  0
  7 13  2  0  0  0  0
  8 14  1  0  0  0  0
  9 15  2  0  0  0  0
 10 16  1  0  0  0  0
 11 16  1  0  0  0  0
 12 17  2  0  0  0  0
 13 17  1  0  0  0  0
 14 18  2  0  0  0  0
 15 18  1  0  0  0  0
 17 19  1  0  0  0  0
 18 20  1  0  0  0  0
 19 21  1  0  0  0  0
 20 22  1  0  0  0  0
 21 23  1  0  0  0  0
 21 24  1  0  0  0  0
 21 25  1  0  0  0  0
 22 26  1  0  0  0  0
 22 27  1  0  0  0  0
 22 28  1  0  0  0  0
 23 29  1  0  0  0  0
 23 30  2  0  0  0  0
 24 31  1  0  0  0  0
 26 32  1  0  0  0  0
 26 33  2  0  0  0  0
 27 34  1  0  0  0  0
M  END
> <ID>
11849

> <Formula>
C28H36O6

> <FW>
468.5818

> <DSSTox_CID>
26638

> <DSSTox_RID>
81784

> <DSSTox_GSID>
46638

> <DSSTox_FileID_Sort>
6465

> <TS_ChemName>
Clinofibrate

> <TS_ChemName_Synonyms>


> <TS_CASRN>
30299-08-2

> <CASRN_ChemName_Relationship>
primary

> <TS_Description>
single chemical compound

> <ChemNote>


> <STRUCTURE_Shown>
tested chemical

> <STRUCTURE_Formula>
C28H36O6

> <STRUCTURE_MW>
468.5818

> <STRUCTURE_ChemType>
defined organic

> <STRUCTURE_DefinedOrganicForm>
parent

> <STRUCTURE_IUPAC>
2,2'-[cyclohexane-1,1-diylbis(benzene-4,1-diyloxy)]bis(2-methylbutanoic acid)

> <STRUCTURE_SMILES>
O=C(O)C(C)(CC)Oc1ccc(cc1)C2(CCCCC2)c3ccc(OC(C)(CC)C(=O)O)cc3

> <STRUCTURE_SMILES_Desalt>
O=C(O)C(C)(CC)Oc1ccc(cc1)C2(CCCCC2)c3ccc(OC(C)(CC)C(=O)O)cc3

> <Substance_modify_yyyymmdd>
20110809

$$$$
