303-45-7
ChemmineR-0915142007XD

 38 41  0  0  0  0  0  0  0  0  1 V2000
    2.0001   -2.3201    0.0000 C   0  0  0  0  0  0  0  0  0  0  0  0
    1.3334   -1.1734    0.0000 O   0  0  0  0  0  0  0  0  0  0  0  0
    1.3334   -3.4668    0.0000 C   0  0  0  0  0  0  0  0  0  0  0  0
    0.0000   -3.4668    0.0000 O   0  0  0  0  0  0  0  0  0  0  0  0
    2.0001   -4.6402    0.0000 C   0  0  0  0  0  0  0  0  0  0  0  0
    1.3334   -5.7736    0.0000 C   0  0  0  0  0  0  0  0  0  0  0  0
    0.0000   -5.7736    0.0000 C   0  0  0  0  0  0  0  0  0  0  0  0
    2.0001   -6.9337    0.0000 C   0  0  0  0  0  0  0  0  0  0  0  0
    3.3335   -4.6402    0.0000 C   0  0  0  0  0  0  0  0  0  0  0  0
    4.0002   -3.4668    0.0000 C   0  0  0  0  0  0  0  0  0  0  0  0
    3.3335   -2.3201    0.0000 C   0  0  0  0  0  0  0  0  0  0  0  0
    4.0002   -1.1734    0.0000 C   0  0  0  0  0  0  0  0  0  0  0  0
    3.3335    0.0000    0.0000 O   0  0  0  0  0  0  0  0  0  0  0  0
    5.3336   -3.4668    0.0000 C   0  0  0  0  0  0  0  0  0  0  0  0
    5.4003   -2.3201    0.0000 O   0  0  0  0  0  0  0  0  0  0  0  0
    6.0003   -4.6402    0.0000 C   0  0  0  0  0  0  0  0  0  0  0  0
    7.3337   -4.6402    0.0000 C   0  0  0  0  0  0  0  0  0  0  0  0
    8.0004   -5.7736    0.0000 C   0  0  0  0  0  0  0  0  0  0  0  0
    7.9204   -6.9337    0.0000 C   0  0  0  0  0  0  0  0  0  0  0  0
    9.3338   -5.7736    0.0000 C   0  0  0  0  0  0  0  0  0  0  0  0
   10.0005   -4.6402    0.0000 C   0  0  0  0  0  0  0  0  0  0  0  0
    9.3338   -3.4668    0.0000 C   0  0  0  0  0  0  0  0  0  0  0  0
    8.0004   -3.4668    0.0000 C   0  0  0  0  0  0  0  0  0  0  0  0
    7.9204   -2.0268    0.0000 O   0  0  0  0  0  0  0  0  0  0  0  0
   10.0005   -2.3201    0.0000 C   0  0  0  0  0  0  0  0  0  0  0  0
    9.3338   -1.1734    0.0000 C   0  0  0  0  0  0  0  0  0  0  0  0
   10.0005    0.0000    0.0000 O   0  0  0  0  0  0  0  0  0  0  0  0
   11.3339   -2.3201    0.0000 C   0  0  0  0  0  0  0  0  0  0  0  0
   12.0006   -1.1734    0.0000 O   0  0  0  0  0  0  0  0  0  0  0  0
   12.0006   -3.4668    0.0000 C   0  0  0  0  0  0  0  0  0  0  0  0
   13.3340   -3.4668    0.0000 O   0  0  0  0  0  0  0  0  0  0  0  0
   11.3339   -4.6402    0.0000 C   0  0  0  0  0  0  0  0  0  0  0  0
   12.0006   -5.7736    0.0000 C   0  0  0  0  0  0  0  0  0  0  0  0
   11.3339   -6.9337    0.0000 C   0  0  0  0  0  0  0  0  0  0  0  0
   13.3340   -5.7736    0.0000 C   0  0  0  0  0  0  0  0  0  0  0  0
    5.3336   -5.7736    0.0000 C   0  0  0  0  0  0  0  0  0  0  0  0
    5.4003   -7.2404    0.0000 C   0  0  0  0  0  0  0  0  0  0  0  0
    4.0002   -5.7736    0.0000 C   0  0  0  0  0  0  0  0  0  0  0  0
  1  2  1  0  0  0  0
  1  3  2  0  0  0  0
  1 11  1  0  0  0  0
  3  4  1  0  0  0  0
  3  5  1  0  0  0  0
  5  6  1  0  0  0  0
  5  9  2  0  0  0  0
  6  7  1  0  0  0  0
  6  8  1  0  0  0  0
  9 10  1  0  0  0  0
  9 38  1  0  0  0  0
 10 11  2  0  0  0  0
 10 14  1  0  0  0  0
 11 12  1  0  0  0  0
 12 13  2  0  0  0  0
 14 15  1  0  0  0  0
 14 16  2  0  0  0  0
 16 17  1  0  0  0  0
 16 36  1  0  0  0  0
 17 18  2  0  0  0  0
 17 23  1  0  0  0  0
 18 19  1  0  0  0  0
 18 20  1  0  0  0  0
 20 21  2  0  0  0  0
 21 22  1  0  0  0  0
 21 32  1  0  0  0  0
 22 23  2  0  0  0  0
 22 25  1  0  0  0  0
 23 24  1  0  0  0  0
 25 26  1  0  0  0  0
 25 28  2  0  0  0  0
 26 27  2  0  0  0  0
 28 29  1  0  0  0  0
 28 30  1  0  0  0  0
 30 31  1  0  0  0  0
 30 32  2  0  0  0  0
 32 33  1  0  0  0  0
 33 34  1  0  0  0  0
 33 35  1  0  0  0  0
 36 37  1  0  0  0  0
 36 38  2  0  0  0  0
M  END
> <ID>
2793

> <Formula>
C30H30O8

> <FW>
518.5544

> <DSSTox_CID>
3110

> <DSSTox_RID>
76879

> <DSSTox_GSID>
23110

> <DSSTox_FileID_Sort>
1563

> <TS_ChemName>
Gossypol

> <TS_ChemName_Synonyms>


> <TS_CASRN>
303-45-7

> <CASRN_ChemName_Relationship>
primary

> <TS_Description>
single chemical compound

> <ChemNote>


> <STRUCTURE_Shown>
tested chemical

> <STRUCTURE_Formula>
C30H30O8

> <STRUCTURE_MW>
518.5544

> <STRUCTURE_ChemType>
defined organic

> <STRUCTURE_DefinedOrganicForm>
parent

> <STRUCTURE_IUPAC>
1,1',6,6',7,7'-hexahydroxy-3,3'-dimethyl-5,5'-di(propan-2-yl)-2,2'-binaphthalene-8,8'-dicarbaldehyde

> <STRUCTURE_SMILES>
CC(C)c4c3cc(C)c(c1c(C)cc2c(c1O)c(C=O)c(O)c(O)c2C(C)C)c(O)c3c(C=O)c(O)c4O

> <STRUCTURE_SMILES_Desalt>
CC(C)c4c3cc(C)c(c1c(C)cc2c(c1O)c(C=O)c(O)c(O)c2C(C)C)c(O)c3c(C=O)c(O)c4O

> <Substance_modify_yyyymmdd>
20080429

$$$$
