303-98-0
ChemmineR-0915142007XD

 63 63  0  0  0  0  0  0  0  0  1 V2000
    4.5993   -2.0105    0.0000 C   0  0  0  0  0  0  0  0  0  0  0  0
    3.4426   -1.3219    0.0000 C   0  0  0  0  0  0  0  0  0  0  0  0
    4.5993   -3.3324    0.0000 C   0  0  0  0  0  0  0  0  0  0  0  0
    5.7284   -1.3219    0.0000 C   0  0  0  0  0  0  0  0  0  0  0  0
    2.2859   -2.0105    0.0000 C   0  0  0  0  0  0  0  0  0  0  0  0
    3.4426    0.0000    0.0000 O   0  0  0  0  0  0  0  0  0  0  0  0
    3.4426   -3.9658    0.0000 C   0  0  0  0  0  0  0  0  0  0  0  0
    5.7284   -3.9658    0.0000 C   0  0  0  0  0  0  0  0  0  0  0  0
    6.8851   -2.0105    0.0000 C   0  0  0  0  0  0  0  0  0  0  0  0
    2.2859   -3.3324    0.0000 C   0  0  0  0  0  0  0  0  0  0  0  0
    1.1292   -1.3219    0.0000 O   0  0  0  0  0  0  0  0  0  0  0  0
    3.4426   -5.3153    0.0000 O   0  0  0  0  0  0  0  0  0  0  0  0
    8.0418   -1.3219    0.0000 C   0  0  0  0  0  0  0  0  0  0  0  0
    1.1292   -3.9658    0.0000 O   0  0  0  0  0  0  0  0  0  0  0  0
    0.0000   -2.0105    0.0000 C   0  0  0  0  0  0  0  0  0  0  0  0
    9.1985   -2.0105    0.0000 C   0  0  0  0  0  0  0  0  0  0  0  0
    8.0418    0.0000    0.0000 C   0  0  0  0  0  0  0  0  0  0  0  0
    0.0000   -3.3324    0.0000 C   0  0  0  0  0  0  0  0  0  0  0  0
   10.3277   -1.3219    0.0000 C   0  0  0  0  0  0  0  0  0  0  0  0
   11.4844   -2.0105    0.0000 C   0  0  0  0  0  0  0  0  0  0  0  0
   12.6136   -1.3219    0.0000 C   0  0  0  0  0  0  0  0  0  0  0  0
   13.7703   -2.0105    0.0000 C   0  0  0  0  0  0  0  0  0  0  0  0
   12.6136    0.0000    0.0000 C   0  0  0  0  0  0  0  0  0  0  0  0
   14.9270   -1.3219    0.0000 C   0  0  0  0  0  0  0  0  0  0  0  0
   16.0837   -2.0105    0.0000 C   0  0  0  0  0  0  0  0  0  0  0  0
   17.2128   -1.3219    0.0000 C   0  0  0  0  0  0  0  0  0  0  0  0
   18.3695   -2.0105    0.0000 C   0  0  0  0  0  0  0  0  0  0  0  0
   17.2128    0.0000    0.0000 C   0  0  0  0  0  0  0  0  0  0  0  0
   19.4987   -1.3219    0.0000 C   0  0  0  0  0  0  0  0  0  0  0  0
   20.6554   -2.0105    0.0000 C   0  0  0  0  0  0  0  0  0  0  0  0
   21.8121   -1.3219    0.0000 C   0  0  0  0  0  0  0  0  0  0  0  0
   22.9413   -2.0105    0.0000 C   0  0  0  0  0  0  0  0  0  0  0  0
   21.8121    0.0000    0.0000 C   0  0  0  0  0  0  0  0  0  0  0  0
   24.0980   -1.3219    0.0000 C   0  0  0  0  0  0  0  0  0  0  0  0
   25.2547   -2.0105    0.0000 C   0  0  0  0  0  0  0  0  0  0  0  0
   26.4114   -1.3219    0.0000 C   0  0  0  0  0  0  0  0  0  0  0  0
   27.5406   -2.0105    0.0000 C   0  0  0  0  0  0  0  0  0  0  0  0
   26.4114    0.0000    0.0000 C   0  0  0  0  0  0  0  0  0  0  0  0
   27.5406   -3.3324    0.0000 C   0  0  0  0  0  0  0  0  0  0  0  0
   26.4114   -3.9658    0.0000 C   0  0  0  0  0  0  0  0  0  0  0  0
   26.4114   -5.3153    0.0000 C   0  0  0  0  0  0  0  0  0  0  0  0
   25.2547   -5.9763    0.0000 C   0  0  0  0  0  0  0  0  0  0  0  0
   27.5406   -5.9763    0.0000 C   0  0  0  0  0  0  0  0  0  0  0  0
   24.0980   -5.3153    0.0000 C   0  0  0  0  0  0  0  0  0  0  0  0
   22.9413   -5.9763    0.0000 C   0  0  0  0  0  0  0  0  0  0  0  0
   21.8121   -5.3153    0.0000 C   0  0  0  0  0  0  0  0  0  0  0  0
   20.6554   -5.9763    0.0000 C   0  0  0  0  0  0  0  0  0  0  0  0
   21.8121   -3.9658    0.0000 C   0  0  0  0  0  0  0  0  0  0  0  0
   19.4987   -5.3153    0.0000 C   0  0  0  0  0  0  0  0  0  0  0  0
   18.3695   -5.9763    0.0000 C   0  0  0  0  0  0  0  0  0  0  0  0
   17.2128   -5.3153    0.0000 C   0  0  0  0  0  0  0  0  0  0  0  0
   16.0837   -5.9763    0.0000 C   0  0  0  0  0  0  0  0  0  0  0  0
   17.2128   -3.9658    0.0000 C   0  0  0  0  0  0  0  0  0  0  0  0
   14.9270   -5.3153    0.0000 C   0  0  0  0  0  0  0  0  0  0  0  0
   13.7703   -5.9763    0.0000 C   0  0  0  0  0  0  0  0  0  0  0  0
   12.6136   -5.3153    0.0000 C   0  0  0  0  0  0  0  0  0  0  0  0
   11.4844   -5.9763    0.0000 C   0  0  0  0  0  0  0  0  0  0  0  0
   12.6136   -3.9658    0.0000 C   0  0  0  0  0  0  0  0  0  0  0  0
   10.3277   -5.3153    0.0000 C   0  0  0  0  0  0  0  0  0  0  0  0
    9.1985   -5.9763    0.0000 C   0  0  0  0  0  0  0  0  0  0  0  0
    8.0418   -5.3153    0.0000 C   0  0  0  0  0  0  0  0  0  0  0  0
    8.0418   -3.9658    0.0000 C   0  0  0  0  0  0  0  0  0  0  0  0
    6.8851   -5.9763    0.0000 C   0  0  0  0  0  0  0  0  0  0  0  0
  1  2  1  0  0  0  0
  1  3  2  0  0  0  0
  1  4  1  0  0  0  0
  2  5  1  0  0  0  0
  2  6  2  0  0  0  0
  3  7  1  0  0  0  0
  3  8  1  0  0  0  0
  4  9  1  0  0  0  0
  5 10  2  0  0  0  0
  5 11  1  0  0  0  0
  7 12  2  0  0  0  0
  7 10  1  0  0  0  0
  9 13  2  0  0  0  0
 10 14  1  0  0  0  0
 11 15  1  0  0  0  0
 13 16  1  0  0  0  0
 13 17  1  0  0  0  0
 14 18  1  0  0  0  0
 16 19  1  0  0  0  0
 19 20  1  0  0  0  0
 20 21  2  0  0  0  0
 21 22  1  0  0  0  0
 21 23  1  0  0  0  0
 22 24  1  0  0  0  0
 24 25  1  0  0  0  0
 25 26  2  0  0  0  0
 26 27  1  0  0  0  0
 26 28  1  0  0  0  0
 27 29  1  0  0  0  0
 29 30  1  0  0  0  0
 30 31  2  0  0  0  0
 31 32  1  0  0  0  0
 31 33  1  0  0  0  0
 32 34  1  0  0  0  0
 34 35  1  0  0  0  0
 35 36  2  0  0  0  0
 36 37  1  0  0  0  0
 36 38  1  0  0  0  0
 37 39  1  0  0  0  0
 39 40  1  0  0  0  0
 40 41  2  0  0  0  0
 41 42  1  0  0  0  0
 41 43  1  0  0  0  0
 42 44  1  0  0  0  0
 44 45  1  0  0  0  0
 45 46  2  0  0  0  0
 46 47  1  0  0  0  0
 46 48  1  0  0  0  0
 47 49  1  0  0  0  0
 49 50  1  0  0  0  0
 50 51  2  0  0  0  0
 51 52  1  0  0  0  0
 51 53  1  0  0  0  0
 52 54  1  0  0  0  0
 54 55  1  0  0  0  0
 55 56  2  0  0  0  0
 56 57  1  0  0  0  0
 56 58  1  0  0  0  0
 57 59  1  0  0  0  0
 59 60  1  0  0  0  0
 60 61  2  0  0  0  0
 61 62  1  0  0  0  0
 61 63  1  0  0  0  0
M  END
> <ID>
11376

> <Formula>
C59H90O4

> <FW>
863.3435

> <DSSTox_CID>
26054

> <DSSTox_RID>
81308

> <DSSTox_GSID>
46054

> <DSSTox_FileID_Sort>
5989

> <TS_ChemName>
Ubidecarenone

> <TS_ChemName_Synonyms>


> <TS_CASRN>
303-98-0

> <CASRN_ChemName_Relationship>
primary

> <TS_Description>
single chemical compound

> <ChemNote>
stereochem

> <STRUCTURE_Shown>
tested chemical

> <STRUCTURE_Formula>
C59H90O4

> <STRUCTURE_MW>
863.3435

> <STRUCTURE_ChemType>
defined organic

> <STRUCTURE_DefinedOrganicForm>
parent

> <STRUCTURE_IUPAC>
2-[(2E,6E,10E,14E,18E,22E,26E,30E,34E)-3,7,11,15,19,23,27,31,35,39-decamethyltetraconta-2,6,10,14,18,22,26,30,34,38-decaen-1-yl]-5,6-dimethoxy-3-methylcyclohexa-2,5-diene-1,4-dione

> <STRUCTURE_SMILES>
COC1=C(OC)C(=O)C(C)=C(C\C=C(/C)CC\C=C(/C)CC\C=C(/C)CC\C=C(/C)CC\C=C(/C)CC\C=C(/C)CC\C=C(/C)CC\C=C(/C)CC\C=C(/C)CC\C=C(/C)C)C1=O

> <STRUCTURE_SMILES_Desalt>
COC1=C(OC)C(=O)C(C)=C(C\C=C(/C)CC\C=C(/C)CC\C=C(/C)CC\C=C(/C)CC\C=C(/C)CC\C=C(/C)CC\C=C(/C)CC\C=C(/C)CC\C=C(/C)CC\C=C(/C)C)C1=O

> <Substance_modify_yyyymmdd>
20110822

$$$$
