303-42-4
ChemmineR-0915142007XD

 34 37  0  0  1  0  0  0  0  0  1 V2000
    3.4582   -6.0050    0.0000 C   0  0  0  0  0  0  0  0  0  0  0  0
    4.6109   -5.3437    0.0000 C   0  0  0  0  0  0  0  0  0  0  0  0
    2.3055   -5.3437    0.0000 C   0  0  0  0  0  0  0  0  0  0  0  0
    6.8986   -4.0033    0.0000 C   0  0  0  0  0  0  0  0  0  0  0  0
    6.8986   -5.3437    0.0000 C   0  0  0  0  0  0  0  0  0  0  0  0
    5.7458   -6.0050    0.0000 C   0  0  0  0  0  0  0  0  0  0  0  0
    3.4582   -7.3453    0.0000 C   0  0  0  0  0  0  0  0  0  0  0  0
    1.1706   -6.0050    0.0000 C   0  0  0  0  0  0  0  0  0  0  0  0
    5.7458   -3.3599    0.0000 C   0  0  0  0  0  0  0  0  0  0  0  0
    4.6109   -4.0033    0.0000 C   0  0  0  0  0  0  0  0  0  0  0  0
    1.1706   -7.3453    0.0000 C   0  0  0  0  0  0  0  0  0  0  0  0
    5.7458   -7.3453    0.0000 C   0  0  0  0  0  0  0  0  0  0  0  0
    8.1853   -5.7637    0.0000 C   0  0  0  0  0  0  0  0  0  0  0  0
    2.3055   -8.0066    0.0000 C   0  0  0  0  0  0  0  0  0  0  0  0
    8.1853   -3.6012    0.0000 C   0  0  0  0  0  0  0  0  0  0  0  0
    4.6109   -8.0066    0.0000 C   0  0  0  0  0  0  0  0  0  0  0  0
    8.9359   -4.6735    0.0000 C   0  0  0  0  0  0  0  0  0  0  0  0
    0.0000   -8.0245    0.0000 O   0  0  0  0  0  0  0  0  0  0  0  0
    3.4582   -4.6735    0.0000 C   0  0  0  0  0  0  0  0  0  0  0  0
    2.3055   -4.0122    0.0000 C   0  0  0  0  0  0  0  0  0  0  0  0
    6.8986   -2.6718    0.0000 C   0  0  0  0  0  0  0  0  0  0  0  0
    8.6500   -2.2876    0.0000 O   0  0  0  0  0  0  0  0  0  0  0  0
    3.4582   -8.6768    0.0000 H   0  0  0  0  0  0  0  0  0  0  0  0
    5.7458   -4.6735    0.0000 H   0  0  0  0  0  0  0  0  0  0  0  0
    4.6109   -6.6752    0.0000 H   0  0  0  0  0  0  0  0  0  0  0  0
    6.8986   -6.6752    0.0000 H   0  0  0  0  0  0  0  0  0  0  0  0
    2.0195   -2.2876    0.0000 C   0  0  0  0  0  0  0  0  0  0  0  0
    2.6897   -1.1349    0.0000 C   0  0  0  0  0  0  0  0  0  0  0  0
    4.0212   -1.1349    0.0000 C   0  0  0  0  0  0  0  0  0  0  0  0
    4.6735    0.0000    0.0000 C   0  0  0  0  0  0  0  0  0  0  0  0
    6.0050    0.0000    0.0000 C   0  0  0  0  0  0  0  0  0  0  0  0
    6.6662   -1.1349    0.0000 C   0  0  0  0  0  0  0  0  0  0  0  0
    7.9887   -1.1349    0.0000 C   0  0  0  0  0  0  0  0  0  0  0  0
    8.6500    0.0000    0.0000 O   0  0  0  0  0  0  0  0  0  0  0  0
  1  2  1  0  0  0  0
  1  3  1  0  0  0  0
  1  7  1  0  0  0  0
  1 19  1  1  0  0  0
  2  6  1  0  0  0  0
  2 10  1  0  0  0  0
  2 25  1  6  0  0  0
  3  8  2  0  0  0  0
  3 20  1  0  0  0  0
  4  9  1  0  0  0  0
  4 15  1  0  0  0  0
  4 21  1  1  0  0  0
  4  5  1  0  0  0  0
  5  6  1  0  0  0  0
  5 13  1  0  0  0  0
  5 26  1  6  0  0  0
  6 12  1  0  0  0  0
  6 24  1  1  0  0  0
  7 14  1  0  0  0  0
  7 16  1  0  0  0  0
  7 23  1  6  0  0  0
  8 11  1  0  0  0  0
  9 10  1  0  0  0  0
 11 14  1  0  0  0  0
 11 18  2  0  0  0  0
 12 16  1  0  0  0  0
 13 17  1  0  0  0  0
 15 22  1  1  0  0  0
 15 17  1  0  0  0  0
 22 33  1  0  0  0  0
 27 28  1  0  0  0  0
 28 29  1  0  0  0  0
 29 30  1  0  0  0  0
 30 31  1  0  0  0  0
 31 32  1  0  0  0  0
 32 33  1  0  0  0  0
 33 34  2  0  0  0  0
M  END
> <ID>
11942

> <Formula>
C27H42O3

> <FW>
414.6206

> <DSSTox_CID>
26754

> <DSSTox_RID>
81878

> <DSSTox_GSID>
46754

> <DSSTox_FileID_Sort>
6559

> <TS_ChemName>
Methenolone enanthate

> <TS_ChemName_Synonyms>


> <TS_CASRN>
303-42-4

> <CASRN_ChemName_Relationship>
primary

> <TS_Description>
single chemical compound

> <ChemNote>
stereochem

> <STRUCTURE_Shown>
tested chemical

> <STRUCTURE_Formula>
C27H42O3

> <STRUCTURE_MW>
414.6206

> <STRUCTURE_ChemType>
defined organic

> <STRUCTURE_DefinedOrganicForm>
parent

> <STRUCTURE_IUPAC>
(5alpha,17beta)-1-methyl-3-oxoandrost-1-en-17-yl heptanoate

> <STRUCTURE_SMILES>
CCCCCCC(=O)O[C@H]2CC[C@H]3[C@@H]4CC[C@H]1CC(=O)C=C(C)[C@]1(C)[C@H]4CC[C@]23C

> <STRUCTURE_SMILES_Desalt>
CCCCCCC(=O)O[C@H]2CC[C@H]3[C@@H]4CC[C@H]1CC(=O)C=C(C)[C@]1(C)[C@H]4CC[C@]23C

> <Substance_modify_yyyymmdd>
20110803

$$$$
