303-25-3
ChemmineR-0915142007XD

 22 22  0  0  0  0  0  0  0  0  1 V2000
    3.4475    0.0000    0.0000 C    0  0  0  0  0  0  0  0  0  0  0  0
    3.4475   -1.3327    0.0000 N    0  0  0  0  0  0  0  0  0  0  0  0
    4.5966   -2.0030    0.0000 C    0  0  0  0  0  0  0  0  0  0  0  0
    4.5966   -3.3357    0.0000 C    0  0  0  0  0  0  0  0  0  0  0  0
    3.4475   -3.9901    0.0000 N    0  0  0  0  0  0  0  0  0  0  0  0
    2.2903   -3.3357    0.0000 C    0  0  0  0  0  0  0  0  0  0  0  0
    2.2903   -2.0030    0.0000 C    0  0  0  0  0  0  0  0  0  0  0  0
    3.4475   -5.3228    0.0000 C    0  0  0  0  0  0  0  0  0  0  0  0
    4.5966   -5.9932    0.0000 C    0  0  0  0  0  0  0  0  0  0  0  0
    5.7538   -5.3228    0.0000 C    0  0  0  0  0  0  0  0  0  0  0  0
    6.9029   -5.9932    0.0000 C    0  0  0  0  0  0  0  0  0  0  0  0
    6.9029   -7.3259    0.0000 C    0  0  0  0  0  0  0  0  0  0  0  0
    5.7538   -7.9803    0.0000 C    0  0  0  0  0  0  0  0  0  0  0  0
    4.5966   -7.3259    0.0000 C    0  0  0  0  0  0  0  0  0  0  0  0
    2.2903   -5.9932    0.0000 C    0  0  0  0  0  0  0  0  0  0  0  0
    2.2903   -7.3259    0.0000 C    0  0  0  0  0  0  0  0  0  0  0  0
    1.1571   -7.9803    0.0000 C    0  0  0  0  0  0  0  0  0  0  0  0
    0.0000   -7.3259    0.0000 C    0  0  0  0  0  0  0  0  0  0  0  0
    0.0000   -5.9932    0.0000 C    0  0  0  0  0  0  0  0  0  0  0  0
    1.1571   -5.3228    0.0000 C    0  0  0  0  0  0  0  0  0  0  0  0
    5.6899   -3.4475    0.0000 Cl   0  0  0  0  0  0  0  0  0  0  0  0
    0.9975   -3.4475    0.0000 Cl   0  0  0  0  0  0  0  0  0  0  0  0
  1  2  1  0  0  0  0
  2  3  1  0  0  0  0
  2  7  1  0  0  0  0
  3  4  1  0  0  0  0
  4  5  1  0  0  0  0
  5  6  1  0  0  0  0
  5  8  1  0  0  0  0
  6  7  1  0  0  0  0
  8  9  1  0  0  0  0
  8 15  1  0  0  0  0
  9 10  2  0  0  0  0
  9 14  1  0  0  0  0
 10 11  1  0  0  0  0
 11 12  2  0  0  0  0
 12 13  1  0  0  0  0
 13 14  2  0  0  0  0
 15 16  2  0  0  0  0
 15 20  1  0  0  0  0
 16 17  1  0  0  0  0
 17 18  2  0  0  0  0
 18 19  1  0  0  0  0
 19 20  2  0  0  0  0
M  END
> <ID>
12874

> <Formula>
C18H24Cl2N2

> <FW>
339.3026 (266.3807+36.4609+36.4609)

> <DSSTox_CID>
27753

> <DSSTox_RID>
82530

> <DSSTox_GSID>
47773

> <DSSTox_FileID_Sort>
7211

> <TS_ChemName>
Cyclizine hydrochloride

> <TS_ChemName_Synonyms>


> <TS_CASRN>
303-25-3

> <CASRN_ChemName_Relationship>
primary

> <TS_Description>
single chemical compound

> <ChemNote>
parent [82-92-8]

> <STRUCTURE_Shown>
tested chemical

> <STRUCTURE_Formula>
C18H24Cl2N2

> <STRUCTURE_MW>
339.3026

> <STRUCTURE_ChemType>
defined organic

> <STRUCTURE_DefinedOrganicForm>
complex

> <STRUCTURE_IUPAC>
1-(diphenylmethyl)-4-methylpiperazine dihydrochloride

> <STRUCTURE_SMILES>
Cl.Cl.CN1CCN(CC1)C(c2ccccc2)c3ccccc3

> <STRUCTURE_SMILES_Desalt>
CN1CCN(CC1)C(c2ccccc2)c3ccccc3

> <Substance_modify_yyyymmdd>


$$$$
