3030-53-3
ChemmineR-0915142007XD

 21 22  0  0  0  0  0  0  0  0  1 V2000
    6.8996   -4.0017    0.0000 O    0  0  0  0  0  0  0  0  0  0  0  0
    8.0587   -3.3394    0.0000 C    0  0  0  0  0  0  0  0  0  0  0  0
    8.0587   -2.0009    0.0000 C    0  0  0  0  0  0  0  0  0  0  0  0
    9.2040   -4.0017    0.0000 C    0  0  0  0  0  0  0  0  0  0  0  0
    9.2040   -1.3385    0.0000 C    0  0  0  0  0  0  0  0  0  0  0  0
   10.3631   -3.3394    0.0000 C    0  0  0  0  0  0  0  0  0  0  0  0
   10.3631   -2.0009    0.0000 C    0  0  0  0  0  0  0  0  0  0  0  0
    5.7542   -3.3394    0.0000 C    0  0  0  0  0  0  0  0  0  0  0  0
    4.5951   -4.0017    0.0000 C    0  0  0  0  0  0  0  0  0  0  0  0
    5.7542   -2.0009    0.0000 C    0  0  0  0  0  0  0  0  0  0  0  0
    3.4636   -3.3394    0.0000 C    0  0  0  0  0  0  0  0  0  0  0  0
    4.5951   -1.3385    0.0000 C    0  0  0  0  0  0  0  0  0  0  0  0
    3.4636   -2.0009    0.0000 C    0  0  0  0  0  0  0  0  0  0  0  0
   11.4947   -1.3385    0.0000 C    0  0  0  0  0  0  0  0  0  0  0  0
   11.4947    0.0000    0.0000 O    0  0  0  0  0  0  0  0  0  0  0  0
   12.6538   -2.0009    0.0000 C    0  0  0  0  0  0  0  0  0  0  0  0
   13.7991   -1.3385    0.0000 Cl   0  0  0  0  0  0  0  0  0  0  0  0
    2.3045   -1.3385    0.0000 C    0  0  0  0  0  0  0  0  0  0  0  0
    2.3045    0.0000    0.0000 O    0  0  0  0  0  0  0  0  0  0  0  0
    1.1591   -2.0009    0.0000 C    0  0  0  0  0  0  0  0  0  0  0  0
    0.0000   -1.3385    0.0000 Cl   0  0  0  0  0  0  0  0  0  0  0  0
  1  2  1  0  0  0  0
  1  8  1  0  0  0  0
  2  3  1  0  0  0  0
  2  4  2  0  0  0  0
  3  5  2  0  0  0  0
  4  6  1  0  0  0  0
  5  7  1  0  0  0  0
  6  7  2  0  0  0  0
  7 14  1  0  0  0  0
  8  9  1  0  0  0  0
  8 10  2  0  0  0  0
  9 11  2  0  0  0  0
 10 12  1  0  0  0  0
 11 13  1  0  0  0  0
 12 13  2  0  0  0  0
 13 18  1  0  0  0  0
 14 15  2  0  0  0  0
 14 16  1  0  0  0  0
 16 17  1  0  0  0  0
 18 19  2  0  0  0  0
 18 20  1  0  0  0  0
 20 21  1  0  0  0  0
M  END
> <ID>
11443

> <Formula>
C16H12Cl2O3

> <FW>
323.1707

> <DSSTox_CID>
26143

> <DSSTox_RID>
81375

> <DSSTox_GSID>
46143

> <DSSTox_FileID_Sort>
6056

> <TS_ChemName>
Clofenoxyde

> <TS_ChemName_Synonyms>


> <TS_CASRN>
3030-53-3

> <CASRN_ChemName_Relationship>
primary

> <TS_Description>
single chemical compound

> <ChemNote>


> <STRUCTURE_Shown>
tested chemical

> <STRUCTURE_Formula>
C16H12Cl2O3

> <STRUCTURE_MW>
323.1707

> <STRUCTURE_ChemType>
defined organic

> <STRUCTURE_DefinedOrganicForm>
parent

> <STRUCTURE_IUPAC>
1,1'-(oxydibenzene-4,1-diyl)bis(2-chloroethanone)

> <STRUCTURE_SMILES>
ClCC(=O)c1ccc(cc1)Oc2ccc(cc2)C(=O)CCl

> <STRUCTURE_SMILES_Desalt>
ClCC(=O)c1ccc(cc1)Oc2ccc(cc2)C(=O)CCl

> <Substance_modify_yyyymmdd>
20110818

$$$$
