3030-47-5
ChemmineR-0915142007XD

 12 11  0  0  0  0  0  0  0  0  1 V2000
    4.5932   -3.3311    0.0000 C   0  0  0  0  0  0  0  0  0  0  0  0
    5.7450   -3.9863    0.0000 C   0  0  0  0  0  0  0  0  0  0  0  0
    4.5932   -2.0001    0.0000 N   0  0  0  0  0  0  0  0  0  0  0  0
    5.7450   -5.3174    0.0000 N   0  0  0  0  0  0  0  0  0  0  0  0
    3.4553   -1.3311    0.0000 C   0  0  0  0  0  0  0  0  0  0  0  0
    2.3035   -2.0001    0.0000 C   0  0  0  0  0  0  0  0  0  0  0  0
    1.1518   -1.3311    0.0000 N   0  0  0  0  0  0  0  0  0  0  0  0
    1.1518    0.0000    0.0000 C   0  0  0  0  0  0  0  0  0  0  0  0
    0.0000   -2.0001    0.0000 C   0  0  0  0  0  0  0  0  0  0  0  0
    5.7450   -1.3311    0.0000 C   0  0  0  0  0  0  0  0  0  0  0  0
    6.8967   -5.9864    0.0000 C   0  0  0  0  0  0  0  0  0  0  0  0
    4.5932   -5.9864    0.0000 C   0  0  0  0  0  0  0  0  0  0  0  0
  1  2  1  0  0  0  0
  1  3  1  0  0  0  0
  2  4  1  0  0  0  0
  3  5  1  0  0  0  0
  3 10  1  0  0  0  0
  4 11  1  0  0  0  0
  4 12  1  0  0  0  0
  5  6  1  0  0  0  0
  6  7  1  0  0  0  0
  7  8  1  0  0  0  0
  7  9  1  0  0  0  0
M  END
> <ID>
5890

> <Formula>
C9H23N3

> <FW>
173.299

> <DSSTox_CID>
9249

> <DSSTox_RID>
78732

> <DSSTox_GSID>
29249

> <DSSTox_FileID_Sort>
3414

> <TS_ChemName>
1,1,4,7,7-Pentamethyldiethylenetriamine

> <TS_ChemName_Synonyms>
N-[2-(Dimethylamino)ethyl]-N,N',N'-trimethylethane-1,2-diamine

> <TS_CASRN>
3030-47-5

> <CASRN_ChemName_Relationship>
primary

> <TS_Description>
single chemical compound

> <ChemNote>


> <STRUCTURE_Shown>
tested chemical

> <STRUCTURE_Formula>
C9H23N3

> <STRUCTURE_MW>
173.299

> <STRUCTURE_ChemType>
defined organic

> <STRUCTURE_DefinedOrganicForm>
parent

> <STRUCTURE_IUPAC>
N-[2-(dimethylamino)ethyl]-N,N',N'-trimethylethane-1,2-diamine

> <STRUCTURE_SMILES>
CN(C)CCN(C)CCN(C)C

> <STRUCTURE_SMILES_Desalt>
CN(C)CCN(C)CCN(C)C

> <Substance_modify_yyyymmdd>
20080429

$$$$
