3031-66-1
ChemmineR-0915142007XD

  8  7  0  0  0  0  0  0  0  0  1 V2000
    0.0804   -0.0643    0.0000 C   0  0  0  0  0  0  0  0  0  0  0  0
    0.7125   -1.2215    0.0000 C   0  0  0  0  0  0  0  0  0  0  0  0
    1.9983   -1.2215    0.0000 C   0  0  0  0  0  0  0  0  0  0  0  0
    3.4072   -1.2215    0.0000 C   0  0  0  0  0  0  0  0  0  0  0  0
    4.7733   -1.2054    0.0000 C   0  0  0  0  0  0  0  0  0  0  0  0
    5.3412   -2.3143    0.0000 C   0  0  0  0  0  0  0  0  0  0  0  0
    0.0000   -2.3625    0.0000 O   0  0  0  0  0  0  0  0  0  0  0  0
    5.3572    0.0000    0.0000 O   0  0  0  0  0  0  0  0  0  0  0  0
  1  2  1  0  0  0  0
  2  3  1  0  0  0  0
  2  7  1  0  0  0  0
  3  4  3  0  0  0  0
  4  5  1  0  0  0  0
  5  6  1  0  0  0  0
  5  8  1  0  0  0  0
M  END
> <ID>
10557

> <Formula>
C6H10O2

> <FW>
114.1424

> <DSSTox_CID>
24910

> <DSSTox_RID>
80579

> <DSSTox_GSID>
44910

> <DSSTox_FileID_Sort>
5261

> <TS_ChemName>
Hex-3-yne-2,5-diol

> <TS_ChemName_Synonyms>
hex-3-yne-2,5-diol (3-Hexyne-2,5-diol)

> <TS_CASRN>
3031-66-1

> <CASRN_ChemName_Relationship>
primary

> <TS_Description>
single chemical compound

> <ChemNote>


> <STRUCTURE_Shown>
tested chemical

> <STRUCTURE_Formula>
C6H10O2

> <STRUCTURE_MW>
114.1424

> <STRUCTURE_ChemType>
defined organic

> <STRUCTURE_DefinedOrganicForm>
parent

> <STRUCTURE_IUPAC>
hex-3-yne-2,5-diol

> <STRUCTURE_SMILES>
CC(O)C#CC(C)O

> <STRUCTURE_SMILES_Desalt>
CC(O)C#CC(C)O

> <Substance_modify_yyyymmdd>
20091116

$$$$
