30319-05-2
ChemmineR-0915142007XD

  7  7  0  0  0  0  0  0  0  0  1 V2000
    1.6742   -3.4168    0.0000 C    0  0  0  0  0  0  0  0  0  0  0  0
    1.2642   -2.1526    0.0000 C    0  0  0  0  0  0  0  0  0  0  0  0
    2.0466   -1.0763    0.0000 C    0  0  0  0  0  0  0  0  0  0  0  0
    3.3758   -1.0763    0.0000 Br   0  0  0  0  0  0  0  0  0  0  0  0
    1.2642    0.0000    0.0000 C    0  0  0  0  0  0  0  0  0  0  0  0
    0.0000   -0.4100    0.0000 C    0  0  0  0  0  0  0  0  0  0  0  0
    0.0000   -1.7425    0.0000 S    0  0  0  0  0  0  0  0  0  0  0  0
  1  2  1  0  0  0  0
  2  3  2  0  0  0  0
  2  7  1  0  0  0  0
  3  4  1  0  0  0  0
  3  5  1  0  0  0  0
  5  6  2  0  0  0  0
  6  7  1  0  0  0  0
M  END
> <ID>
16109

> <Formula>
C5H5BrS

> <FW>
177.0622

> <DSSTox_CID>
31496

> <DSSTox_RID>
97381

> <DSSTox_GSID>
57707

> <DSSTox_FileID_Sort>
8448

> <TS_ChemName>
3-Bromo-2-methylthiophene

> <TS_ChemName_Synonyms>
2-Methyl-3-bromothiophene

> <TS_CASRN>
30319-05-2

> <CASRN_ChemName_Relationship>
primary

> <TS_Description>
single chemical compound

> <ChemNote>


> <STRUCTURE_Shown>
tested chemical

> <STRUCTURE_Formula>
C5H5BrS

> <STRUCTURE_MW>
177.0622

> <STRUCTURE_ChemType>
defined organic

> <STRUCTURE_DefinedOrganicForm>
parent

> <STRUCTURE_IUPAC>
3-bromo-2-methylthiophene

> <STRUCTURE_SMILES>
Cc1sccc1Br

> <STRUCTURE_SMILES_Desalt>
Cc1sccc1Br

> <Substance_modify_yyyymmdd>
20131121

$$$$
