3033-77-0
ChemmineR-0915142007XD

  9  8  0  0  0  0  0  0  0  0  2 V2000
    3.1557   -2.4812    0.0000 N    0  3  0  0  0  0  0  0  0  0  0  0
    4.4867   -2.4812    0.0000 C    0  0  0  0  0  0  0  0  0  0  0  0
    3.1557   -1.1563    0.0000 C    0  0  0  0  0  0  0  0  0  0  0  0
    3.1557   -3.8122    0.0000 C    0  0  0  0  0  0  0  0  0  0  0  0
    1.8248   -2.4812    0.0000 C    0  0  0  0  0  0  0  0  0  0  0  0
    1.1503   -1.3309    0.0000 C    0  0  0  0  0  0  0  0  0  0  0  0
    0.0000   -0.6745    0.0000 C    0  0  0  0  0  0  0  0  0  0  0  0
    1.1503    0.0000    0.0000 O    0  0  0  0  0  0  0  0  0  0  0  0
    6.0224   -1.8730    0.0000 Cl   0  5  0  0  0  0  0  0  0  0  0  0
  1  2  1  0  0  0  0
  1  3  1  0  0  0  0
  1  4  1  0  0  0  0
  1  5  1  0  0  0  0
  5  6  1  0  0  0  0
  6  7  1  0  0  0  0
  6  8  1  0  0  0  0
  7  8  1  0  0  0  0
M  END
> <ID>
10296

> <Formula>
C6H14ClNO

> <FW>
151.6345 (116.1809+35.4535)

> <DSSTox_CID>
24643

> <DSSTox_RID>
80371

> <DSSTox_GSID>
44643

> <DSSTox_FileID_Sort>
5053

> <TS_ChemName>
N,N,N-Trimethyl(oxiran-2-yl)methanaminium chloride

> <TS_ChemName_Synonyms>
N,N,N-Trimethyl(oxiran-2-yl)methanaminium chloride (Oxiranemethanaminium, N,N,N-trimethyl-, chloride0

> <TS_CASRN>
3033-77-0

> <CASRN_ChemName_Relationship>
primary

> <TS_Description>
single chemical compound

> <ChemNote>
ammonium; parent [45633-15-6]

> <STRUCTURE_Shown>
tested chemical

> <STRUCTURE_Formula>
C6H14ClNO

> <STRUCTURE_MW>
151.6345

> <STRUCTURE_ChemType>
defined organic

> <STRUCTURE_DefinedOrganicForm>
salt

> <STRUCTURE_IUPAC>
N,N,N-trimethyl(oxiran-2-yl)methanaminium chloride

> <STRUCTURE_SMILES>
[Cl-].C[N+](C)(C)CC1CO1

> <STRUCTURE_SMILES_Desalt>
C[N+](C)(C)CC1CO1

> <Substance_modify_yyyymmdd>
20091116

$$$$
