3039-83-6
ChemmineR-0915142007XD

  7  5  0  0  0  0  0  0  0  0  2 V2000
    4.1901   -1.2746    0.0000 C    0  0  0  0  0  0  0  0  0  0  0  0
    4.8835   -2.4174    0.0000 C    0  0  0  0  0  0  0  0  0  0  0  0
    2.8813   -1.2746    0.0000 S    0  0  0  0  0  0  0  0  0  0  0  0
    2.8813   -2.7250    0.0000 O    0  0  0  0  0  0  0  0  0  0  0  0
    1.6018   -1.2746    0.0000 O    0  5  0  0  0  0  0  0  0  0  0  0
    2.8813    0.0000    0.0000 O    0  0  0  0  0  0  0  0  0  0  0  0
    0.0000   -1.3234    0.0000 Na   0  3  0  0  0  0  0  0  0  0  0  0
  1  2  2  0  0  0  0
  1  3  1  0  0  0  0
  3  4  2  0  0  0  0
  3  5  1  0  0  0  0
  3  6  2  0  0  0  0
M  END
> <ID>
5209

> <Formula>
C2H3NaO3S

> <FW>
130.0982 (107.1090+22.9892)

> <DSSTox_CID>
7513

> <DSSTox_RID>
78482

> <DSSTox_GSID>
27513

> <DSSTox_FileID_Sort>
3165

> <TS_ChemName>
Sodium ethenesulfonate

> <TS_ChemName_Synonyms>
Ethenesulfonic acid, sodium salt

> <TS_CASRN>
3039-83-6

> <CASRN_ChemName_Relationship>
primary

> <TS_Description>
single chemical compound

> <ChemNote>
parent [1184-84-5]

> <STRUCTURE_Shown>
tested chemical

> <STRUCTURE_Formula>
C2H3NaO3S

> <STRUCTURE_MW>
130.0982

> <STRUCTURE_ChemType>
defined organic

> <STRUCTURE_DefinedOrganicForm>
salt

> <STRUCTURE_IUPAC>
sodium ethenesulfonate

> <STRUCTURE_SMILES>
[Na+].[O-]S(=O)(=O)C=C

> <STRUCTURE_SMILES_Desalt>
C=CS(=O)(=O)O

> <Substance_modify_yyyymmdd>
20080429

$$$$
