30392-40-6
ChemmineR-0915142007XD

 34 36  0  0  0  0  0  0  0  0  1 V2000
    4.6117   -5.9742    0.0000 C   0  0  0  0  0  0  0  0  0  0  0  0
    4.6117   -4.6566    0.0000 O   0  0  0  0  0  0  0  0  0  0  0  0
    5.7646   -6.6480    0.0000 O   0  0  0  0  0  0  0  0  0  0  0  0
    6.9175   -5.9742    0.0000 C   0  0  0  0  0  0  0  0  0  0  0  0
    6.9175   -4.6566    0.0000 C   0  0  0  0  0  0  0  0  0  0  0  0
    5.7646   -3.9828    0.0000 O   0  0  0  0  0  0  0  0  0  0  0  0
    5.7646   -2.6502    0.0000 C   0  0  0  0  0  0  0  0  0  0  0  0
    6.9175   -1.9914    0.0000 O   0  0  0  0  0  0  0  0  0  0  0  0
    4.6117   -1.9914    0.0000 C   0  0  0  0  0  0  0  0  0  0  0  0
    3.4587   -2.6502    0.0000 C   0  0  0  0  0  0  0  0  0  0  0  0
    2.3058   -1.9914    0.0000 C   0  0  0  0  0  0  0  0  0  0  0  0
    2.3058   -0.6588    0.0000 C   0  0  0  0  0  0  0  0  0  0  0  0
    1.1529    0.0000    0.0000 C   0  0  0  0  0  0  0  0  0  0  0  0
    3.4587    0.0000    0.0000 C   0  0  0  0  0  0  0  0  0  0  0  0
    4.6117   -0.6588    0.0000 C   0  0  0  0  0  0  0  0  0  0  0  0
    8.0554   -3.9828    0.0000 C   0  0  0  0  0  0  0  0  0  0  0  0
    9.2083   -4.6566    0.0000 C   0  0  0  0  0  0  0  0  0  0  0  0
    9.2083   -5.9742    0.0000 C   0  0  0  0  0  0  0  0  0  0  0  0
   10.3613   -6.6480    0.0000 C   0  0  0  0  0  0  0  0  0  0  0  0
   10.3613   -7.9806    0.0000 O   0  0  0  0  0  0  0  0  0  0  0  0
   11.5142   -5.9742    0.0000 C   0  0  0  0  0  0  0  0  0  0  0  0
   12.6671   -6.6480    0.0000 N   0  0  0  0  0  0  0  0  0  0  0  0
   13.8200   -5.9742    0.0000 C   0  0  0  0  0  0  0  0  0  0  0  0
   14.9729   -5.3154    0.0000 C   0  0  0  0  0  0  0  0  0  0  0  0
   14.4788   -7.1271    0.0000 C   0  0  0  0  0  0  0  0  0  0  0  0
   13.1612   -4.8213    0.0000 C   0  0  0  0  0  0  0  0  0  0  0  0
    8.0554   -6.6480    0.0000 C   0  0  0  0  0  0  0  0  0  0  0  0
    3.4587   -6.6480    0.0000 C   0  0  0  0  0  0  0  0  0  0  0  0
    3.4587   -7.9806    0.0000 C   0  0  0  0  0  0  0  0  0  0  0  0
    2.3058   -8.6394    0.0000 C   0  0  0  0  0  0  0  0  0  0  0  0
    1.1529   -7.9806    0.0000 C   0  0  0  0  0  0  0  0  0  0  0  0
    0.0000   -8.6394    0.0000 C   0  0  0  0  0  0  0  0  0  0  0  0
    1.1529   -6.6480    0.0000 C   0  0  0  0  0  0  0  0  0  0  0  0
    2.3058   -5.9742    0.0000 C   0  0  0  0  0  0  0  0  0  0  0  0
  1  2  2  0  0  0  0
  1  3  1  0  0  0  0
  1 28  1  0  0  0  0
  3  4  1  0  0  0  0
  4  5  2  0  0  0  0
  4 27  1  0  0  0  0
  5  6  1  0  0  0  0
  5 16  1  0  0  0  0
  6  7  1  0  0  0  0
  7  8  2  0  0  0  0
  7  9  1  0  0  0  0
  9 10  2  0  0  0  0
  9 15  1  0  0  0  0
 10 11  1  0  0  0  0
 11 12  2  0  0  0  0
 12 13  1  0  0  0  0
 12 14  1  0  0  0  0
 14 15  2  0  0  0  0
 16 17  2  0  0  0  0
 17 18  1  0  0  0  0
 18 19  1  0  0  0  0
 18 27  2  0  0  0  0
 19 20  1  0  0  0  0
 19 21  1  0  0  0  0
 21 22  1  0  0  0  0
 22 23  1  0  0  0  0
 23 24  1  0  0  0  0
 23 25  1  0  0  0  0
 23 26  1  0  0  0  0
 28 29  1  0  0  0  0
 28 34  2  0  0  0  0
 29 30  2  0  0  0  0
 30 31  1  0  0  0  0
 31 32  1  0  0  0  0
 31 33  2  0  0  0  0
 33 34  1  0  0  0  0
M  END
> <ID>
2429

> <Formula>
C28H31NO5

> <FW>
461.5494

> <DSSTox_CID>
2683

> <DSSTox_RID>
97538

> <DSSTox_GSID>
22683

> <DSSTox_FileID_Sort>
8312

> <TS_ChemName>
Bitolterol

> <TS_ChemName_Synonyms>


> <TS_CASRN>
30392-40-6

> <CASRN_ChemName_Relationship>
primary

> <TS_Description>
single chemical compound

> <ChemNote>


> <STRUCTURE_Shown>
tested chemical

> <STRUCTURE_Formula>
C28H31NO5

> <STRUCTURE_MW>
461.5494

> <STRUCTURE_ChemType>
defined organic

> <STRUCTURE_DefinedOrganicForm>
parent

> <STRUCTURE_IUPAC>
4-[2-(tert-butylamino)-1-hydroxyethyl]benzene-1,2-diyl bis(4-methylbenzoate)

> <STRUCTURE_SMILES>
O=C(Oc2cc(ccc2OC(=O)c1ccc(C)cc1)C(O)CNC(C)(C)C)c3ccc(C)cc3

> <STRUCTURE_SMILES_Desalt>
O=C(Oc2cc(ccc2OC(=O)c1ccc(C)cc1)C(O)CNC(C)(C)C)c3ccc(C)cc3

> <Substance_modify_yyyymmdd>
20080429

$$$$
