30391-89-0
ChemmineR-0915142007XD

 13 13  0  0  0  0  0  0  0  0  1 V2000
    3.4525   -1.3327    0.0000 C   0  0  0  0  0  0  0  0  0  0  0  0
    3.4525    0.0000    0.0000 O   0  0  0  0  0  0  0  0  0  0  0  0
    2.2994   -1.9886    0.0000 C   0  0  0  0  0  0  0  0  0  0  0  0
    1.1739   -1.3327    0.0000 C   0  0  0  0  0  0  0  0  0  0  0  0
    2.2994   -3.3213    0.0000 C   0  0  0  0  0  0  0  0  0  0  0  0
    0.0000   -1.9886    0.0000 C   0  0  0  0  0  0  0  0  0  0  0  0
    1.1739   -3.9980    0.0000 C   0  0  0  0  0  0  0  0  0  0  0  0
    0.0000   -3.3213    0.0000 C   0  0  0  0  0  0  0  0  0  0  0  0
    4.6056   -1.9886    0.0000 N   0  0  0  0  0  0  0  0  0  0  0  0
    1.1739    0.0000    0.0000 N   0  0  0  0  0  0  0  0  0  0  0  0
    5.7519   -1.3327    0.0000 C   0  0  0  0  0  0  0  0  0  0  0  0
    5.7519    0.0000    0.0000 C   0  0  0  0  0  0  0  0  0  0  0  0
    6.9050   -2.0094    0.0000 C   0  0  0  0  0  0  0  0  0  0  0  0
  1  2  2  0  0  0  0
  1  3  1  0  0  0  0
  1  9  1  0  0  0  0
  3  4  2  0  0  0  0
  3  5  1  0  0  0  0
  4  6  1  0  0  0  0
  4 10  1  0  0  0  0
  5  7  2  0  0  0  0
  6  8  2  0  0  0  0
  7  8  1  0  0  0  0
  9 11  1  0  0  0  0
 11 12  1  0  0  0  0
 11 13  1  0  0  0  0
M  END
> <ID>
8587

> <Formula>
C10H14N2O

> <FW>
178.231

> <DSSTox_CID>
21627

> <DSSTox_RID>
79795

> <DSSTox_GSID>
41627

> <DSSTox_FileID_Sort>
4477

> <TS_ChemName>
2-Amino-N-(1-methylethyl)benzamide

> <TS_ChemName_Synonyms>
Benzamide, 2-amino-N-(1-methylethyl)-

> <TS_CASRN>
30391-89-0

> <CASRN_ChemName_Relationship>
primary

> <TS_Description>
single chemical compound

> <ChemNote>


> <STRUCTURE_Shown>
tested chemical

> <STRUCTURE_Formula>
C10H14N2O

> <STRUCTURE_MW>
178.231

> <STRUCTURE_ChemType>
defined organic

> <STRUCTURE_DefinedOrganicForm>
parent

> <STRUCTURE_IUPAC>
2-amino-N-(propan-2-yl)benzamide

> <STRUCTURE_SMILES>
O=C(NC(C)C)c1ccccc1N

> <STRUCTURE_SMILES_Desalt>
O=C(NC(C)C)c1ccccc1N

> <Substance_modify_yyyymmdd>
20080825

$$$$
