3039-71-2
ChemmineR-0915142007XD

 32 34  0  0  1  0  0  0  0  0  1 V2000
    9.0915   -3.3109    0.0000 C    0  0  0  0  0  0  0  0  0  0  0  0
    8.0059   -3.9351    0.0000 C    0  0  0  0  0  0  0  0  0  0  0  0
   10.1906   -3.8944    0.0000 C    0  0  0  0  0  0  0  0  0  0  0  0
   11.3033   -3.2566    0.0000 C    0  0  0  0  0  0  0  0  0  0  0  0
   11.3033   -1.9947    0.0000 C    0  0  0  0  0  0  0  0  0  0  0  0
    9.0915   -1.9947    0.0000 C    0  0  0  0  0  0  0  0  0  0  0  0
   10.1906   -5.2106    0.0000 C    0  0  0  0  0  0  0  0  0  0  0  0
    8.0059   -5.2106    0.0000 C    0  0  0  0  0  0  0  0  0  0  0  0
   10.1906   -1.3569    0.0000 C    0  0  0  0  0  0  0  0  0  0  0  0
    9.0915   -5.8348    0.0000 C    0  0  0  0  0  0  0  0  0  0  0  0
    8.0059   -2.6324    0.0000 C    0  0  0  0  0  0  0  0  0  0  0  0
    6.8796   -3.3109    0.0000 C    0  0  0  0  0  0  0  0  0  0  0  0
   12.4431   -1.3162    0.0000 C    0  0  0  0  0  0  0  0  0  0  0  0
   13.5693   -3.2566    0.0000 C    0  0  0  0  0  0  0  0  0  0  0  0
   11.3575   -0.6785    0.0000 C    0  0  0  0  0  0  0  0  0  0  0  0
   13.5693   -1.9947    0.0000 C    0  0  0  0  0  0  0  0  0  0  0  0
    6.8796   -5.8891    0.0000 C    0  0  0  0  0  0  0  0  0  0  0  0
    5.7398   -3.9351    0.0000 C    0  0  0  0  0  0  0  0  0  0  0  0
    5.7398   -5.2106    0.0000 C    0  0  0  0  0  0  0  0  0  0  0  0
   10.1906   -2.5782    0.0000 H    0  0  0  0  0  0  0  0  0  0  0  0
    9.0915   -4.6271    0.0000 H    0  0  0  0  0  0  0  0  0  0  0  0
   11.3033   -4.6271    0.0000 H    0  0  0  0  0  0  0  0  0  0  0  0
   12.4024    0.0000    0.0000 O    0  0  0  0  0  0  0  0  0  0  0  0
    4.5729   -5.8348    0.0000 O    0  0  0  0  0  0  0  0  0  0  0  0
    3.4330   -5.1563    0.0000 C    0  0  0  0  0  0  0  0  0  0  0  0
    2.3068   -5.8348    0.0000 C    0  0  0  0  0  0  0  0  0  0  0  0
    1.1263   -5.1563    0.0000 N    0  0  0  0  0  0  0  0  0  0  0  0
    1.1263   -3.8401    0.0000 C    0  0  0  0  0  0  0  0  0  0  0  0
    0.0000   -3.1617    0.0000 C    0  0  0  0  0  0  0  0  0  0  0  0
    0.0000   -5.8348    0.0000 C    0  0  0  0  0  0  0  0  0  0  0  0
    0.0000   -7.1510    0.0000 C    0  0  0  0  0  0  0  0  0  0  0  0
   13.0673   -4.8985    0.0000 Cl   0  0  0  0  0  0  0  0  0  0  0  0
  1  6  1  0  0  0  0
  1  2  1  0  0  0  0
  1 21  1  6  0  0  0
  1  3  1  0  0  0  0
  2  8  1  0  0  0  0
  2 11  1  1  0  0  0
  2 12  1  0  0  0  0
  3  4  1  0  0  0  0
  3  7  1  0  0  0  0
  3 20  1  1  0  0  0
  4 14  1  0  0  0  0
  4  5  1  0  0  0  0
  4 22  1  6  0  0  0
  5  9  1  0  0  0  0
  5 13  1  0  0  0  0
  5 15  1  1  0  0  0
  6  9  1  0  0  0  0
  7 10  1  0  0  0  0
  8 17  1  0  0  0  0
  8 10  2  0  0  0  0
 12 18  1  0  0  0  0
 13 16  1  0  0  0  0
 13 23  2  0  0  0  0
 14 16  1  0  0  0  0
 17 19  1  0  0  0  0
 18 19  1  0  0  0  0
 19 24  1  1  0  0  0
 24 25  1  0  0  0  0
 25 26  1  0  0  0  0
 26 27  1  0  0  0  0
 27 28  1  0  0  0  0
 27 30  1  0  0  0  0
 28 29  1  0  0  0  0
 30 31  1  0  0  0  0
M  END
> <ID>
12065

> <Formula>
C25H42ClNO2

> <FW>
424.0595 (387.5985+36.4609)

> <DSSTox_CID>
26904

> <DSSTox_RID>
82003

> <DSSTox_GSID>
46904

> <DSSTox_FileID_Sort>
6684

> <TS_ChemName>
3beta-(2-Diethylaminoethoxy)androst-5-en-17-one hydrochloride

> <TS_ChemName_Synonyms>


> <TS_CASRN>
3039-71-2

> <CASRN_ChemName_Relationship>
primary

> <TS_Description>
single chemical compound

> <ChemNote>
parent [2855-62-1]

> <STRUCTURE_Shown>
tested chemical

> <STRUCTURE_Formula>
C25H42ClNO2

> <STRUCTURE_MW>
424.0595

> <STRUCTURE_ChemType>
defined organic

> <STRUCTURE_DefinedOrganicForm>
complex

> <STRUCTURE_IUPAC>
(3beta)-3-[2-(diethylamino)ethoxy]androst-5-en-17-one hydrochloride (1:1)

> <STRUCTURE_SMILES>
Cl.CCN(CC)CCO[C@H]4CC[C@@]2(C)C(=CC[C@H]1[C@@H]3CCC(=O)[C@@]3(C)CC[C@@H]12)C4

> <STRUCTURE_SMILES_Desalt>
CCN(CC)CCO[C@H]4CC[C@@]2(C)C(=CC[C@H]1[C@@H]3CCC(=O)[C@@]3(C)CC[C@@H]12)C4

> <Substance_modify_yyyymmdd>
20110726

$$$$
