304-84-7
ChemmineR-0915142007XD

 16 16  0  0  0  0  0  0  0  0  1 V2000
    2.3020   -1.9889    0.0000 C   0  0  0  0  0  0  0  0  0  0  0  0
    1.1510   -2.6611    0.0000 O   0  0  0  0  0  0  0  0  0  0  0  0
    0.0000   -1.9889    0.0000 C   0  0  0  0  0  0  0  0  0  0  0  0
    2.3020   -0.6630    0.0000 C   0  0  0  0  0  0  0  0  0  0  0  0
    1.1510    0.0000    0.0000 O   0  0  0  0  0  0  0  0  0  0  0  0
    3.4530    0.0000    0.0000 C   0  0  0  0  0  0  0  0  0  0  0  0
    4.6040   -0.6630    0.0000 C   0  0  0  0  0  0  0  0  0  0  0  0
    4.6040   -1.9889    0.0000 C   0  0  0  0  0  0  0  0  0  0  0  0
    5.7550   -2.6611    0.0000 C   0  0  0  0  0  0  0  0  0  0  0  0
    5.7550   -3.9870    0.0000 O   0  0  0  0  0  0  0  0  0  0  0  0
    6.9059   -1.9889    0.0000 N   0  0  0  0  0  0  0  0  0  0  0  0
    8.0569   -2.6611    0.0000 C   0  0  0  0  0  0  0  0  0  0  0  0
    9.2079   -1.9889    0.0000 C   0  0  0  0  0  0  0  0  0  0  0  0
    6.9059   -0.6630    0.0000 C   0  0  0  0  0  0  0  0  0  0  0  0
    5.7550    0.0000    0.0000 C   0  0  0  0  0  0  0  0  0  0  0  0
    3.4530   -2.6611    0.0000 C   0  0  0  0  0  0  0  0  0  0  0  0
  1  2  1  0  0  0  0
  1  4  2  0  0  0  0
  1 16  1  0  0  0  0
  2  3  1  0  0  0  0
  4  5  1  0  0  0  0
  4  6  1  0  0  0  0
  6  7  2  0  0  0  0
  7  8  1  0  0  0  0
  8  9  1  0  0  0  0
  8 16  2  0  0  0  0
  9 10  2  0  0  0  0
  9 11  1  0  0  0  0
 11 12  1  0  0  0  0
 11 14  1  0  0  0  0
 12 13  1  0  0  0  0
 14 15  1  0  0  0  0
M  END
> <ID>
2706

> <Formula>
C12H17NO3

> <FW>
223.2683

> <DSSTox_CID>
3007

> <DSSTox_RID>
76829

> <DSSTox_GSID>
23007

> <DSSTox_FileID_Sort>
1513

> <TS_ChemName>
Ethamivan

> <TS_ChemName_Synonyms>


> <TS_CASRN>
304-84-7

> <CASRN_ChemName_Relationship>
primary

> <TS_Description>
single chemical compound

> <ChemNote>


> <STRUCTURE_Shown>
tested chemical

> <STRUCTURE_Formula>
C12H17NO3

> <STRUCTURE_MW>
223.2683

> <STRUCTURE_ChemType>
defined organic

> <STRUCTURE_DefinedOrganicForm>
parent

> <STRUCTURE_IUPAC>
N,N-diethyl-4-hydroxy-3-methoxybenzamide

> <STRUCTURE_SMILES>
Oc1ccc(cc1OC)C(=O)N(CC)CC

> <STRUCTURE_SMILES_Desalt>
Oc1ccc(cc1OC)C(=O)N(CC)CC

> <Substance_modify_yyyymmdd>
20080429

$$$$
