304-17-6
ChemmineR-0915142007XD

 14 15  0  0  0  0  0  0  0  0  1 V2000
    2.3003   -1.6096    0.0000 C   0  0  0  0  0  0  0  0  0  0  0  0
    2.3003   -3.0164    0.0000 C   0  0  0  0  0  0  0  0  0  0  0  0
    4.3409   -2.3130    0.0000 N   0  0  0  0  0  0  0  0  0  0  0  0
    3.5424   -1.2421    0.0000 C   0  0  0  0  0  0  0  0  0  0  0  0
    3.5424   -3.3840    0.0000 C   0  0  0  0  0  0  0  0  0  0  0  0
    1.1153   -0.9886    0.0000 C   0  0  0  0  0  0  0  0  0  0  0  0
    1.1153   -3.6374    0.0000 C   0  0  0  0  0  0  0  0  0  0  0  0
    0.0000   -3.0164    0.0000 C   0  0  0  0  0  0  0  0  0  0  0  0
    0.0000   -1.6096    0.0000 C   0  0  0  0  0  0  0  0  0  0  0  0
    3.9733   -4.6260    0.0000 O   0  0  0  0  0  0  0  0  0  0  0  0
    3.9733    0.0000    0.0000 O   0  0  0  0  0  0  0  0  0  0  0  0
    5.6526   -2.3130    0.0000 C   0  0  0  0  0  0  0  0  0  0  0  0
    6.3370   -1.1470    0.0000 C   0  0  0  0  0  0  0  0  0  0  0  0
    6.3370   -3.4790    0.0000 C   0  0  0  0  0  0  0  0  0  0  0  0
  1  2  2  0  0  0  0
  1  4  1  0  0  0  0
  1  6  1  0  0  0  0
  2  5  1  0  0  0  0
  2  7  1  0  0  0  0
  3  4  1  0  0  0  0
  3  5  1  0  0  0  0
  3 12  1  0  0  0  0
  4 11  2  0  0  0  0
  5 10  2  0  0  0  0
  6  9  2  0  0  0  0
  7  8  2  0  0  0  0
  8  9  1  0  0  0  0
 12 13  1  0  0  0  0
 12 14  1  0  0  0  0
M  END
> <ID>
10297

> <Formula>
C11H11NO2

> <FW>
189.2105

> <DSSTox_CID>
24644

> <DSSTox_RID>
80372

> <DSSTox_GSID>
44644

> <DSSTox_FileID_Sort>
5054

> <TS_ChemName>
N-Isopropylphthalimide

> <TS_ChemName_Synonyms>
N-Isopropylphthalimide (1H-Isoindole-1,3(2H)-dione, 2-(1-methylethyl)-)

> <TS_CASRN>
304-17-6

> <CASRN_ChemName_Relationship>
primary

> <TS_Description>
single chemical compound

> <ChemNote>


> <STRUCTURE_Shown>
tested chemical

> <STRUCTURE_Formula>
C11H11NO2

> <STRUCTURE_MW>
189.2105

> <STRUCTURE_ChemType>
defined organic

> <STRUCTURE_DefinedOrganicForm>
parent

> <STRUCTURE_IUPAC>
2-(propan-2-yl)-1H-isoindole-1,3(2H)-dione

> <STRUCTURE_SMILES>
CC(C)N2C(=O)c1ccccc1C2=O

> <STRUCTURE_SMILES_Desalt>
CC(C)N2C(=O)c1ccccc1C2=O

> <Substance_modify_yyyymmdd>
20091116

$$$$
