304680-36-2
ChemmineR-0915142007XD

 21 20  0  0  0  0  0  0  0  0  2 V2000
    9.1814   -1.7370    0.0000 N   0  0  0  0  0  0  0  0  0  0  0  0
   11.2441   -1.0546    0.0000 N   0  3  0  0  0  0  0  0  0  0  0  0
   10.4531   -2.1403    0.0000 C   0  0  0  0  0  0  0  0  0  0  0  0
    9.1969   -0.4032    0.0000 C   0  0  0  0  0  0  0  0  0  0  0  0
   10.4686    0.0000    0.0000 C   0  0  0  0  0  0  0  0  0  0  0  0
   12.5778   -1.0546    0.0000 C   0  0  0  0  0  0  0  0  0  0  0  0
    8.1112   -2.4970    0.0000 C   0  0  0  0  0  0  0  0  0  0  0  0
    6.8860   -1.9697    0.0000 C   0  0  0  0  0  0  0  0  0  0  0  0
    5.8159   -2.7451    0.0000 C   0  0  0  0  0  0  0  0  0  0  0  0
    4.6062   -2.2023    0.0000 C   0  0  0  0  0  0  0  0  0  0  0  0
    3.5206   -2.9777    0.0000 C   0  0  0  0  0  0  0  0  0  0  0  0
    2.2953   -2.4349    0.0000 C   0  0  0  0  0  0  0  0  0  0  0  0
    1.2252   -3.2259    0.0000 C   0  0  0  0  0  0  0  0  0  0  0  0
    0.0000   -2.6831    0.0000 C   0  0  0  0  0  0  0  0  0  0  0  0
   14.1753   -3.4275    0.0000 P   0  5  0  0  0  0  0  0  0  0  0  0
   12.8570   -3.4275    0.0000 F   0  0  0  0  0  0  0  0  0  0  0  0
   14.8422   -4.5907    0.0000 F   0  0  0  0  0  0  0  0  0  0  0  0
   14.8422   -2.2798    0.0000 F   0  0  0  0  0  0  0  0  0  0  0  0
   13.5239   -4.5907    0.0000 F   0  0  0  0  0  0  0  0  0  0  0  0
   13.5239   -2.2798    0.0000 F   0  0  0  0  0  0  0  0  0  0  0  0
   15.5091   -3.4275    0.0000 F   0  0  0  0  0  0  0  0  0  0  0  0
  1  3  1  0  0  0  0
  1  4  1  0  0  0  0
  1  7  1  0  0  0  0
  2  3  2  0  0  0  0
  2  5  1  0  0  0  0
  2  6  1  0  0  0  0
  4  5  2  0  0  0  0
  7  8  1  0  0  0  0
  8  9  1  0  0  0  0
  9 10  1  0  0  0  0
 10 11  1  0  0  0  0
 11 12  1  0  0  0  0
 12 13  1  0  0  0  0
 13 14  1  0  0  0  0
 15 16  1  0  0  0  0
 15 17  1  0  0  0  0
 15 18  1  0  0  0  0
 15 19  1  0  0  0  0
 15 20  1  0  0  0  0
 15 21  1  0  0  0  0
M  END
> <ID>
13027

> <Formula>
C12H23F6N2P

> <FW>
340.2886 (195.3239+144.9647)

> <DSSTox_CID>
27928

> <DSSTox_RID>
82681

> <DSSTox_GSID>
47952

> <DSSTox_FileID_Sort>
7358

> <TS_ChemName>
1-Methyl-3-octylimidazolium hexafluorophosphate

> <TS_ChemName_Synonyms>


> <TS_CASRN>
304680-36-2

> <CASRN_ChemName_Relationship>
primary

> <TS_Description>
single chemical compound

> <ChemNote>
ammonium; parent [178631-03-3]

> <STRUCTURE_Shown>
tested chemical

> <STRUCTURE_Formula>
C12H23F6N2P

> <STRUCTURE_MW>
340.2886

> <STRUCTURE_ChemType>
defined organic

> <STRUCTURE_DefinedOrganicForm>
salt

> <STRUCTURE_IUPAC>
3-methyl-1-octyl-1H-imidazol-3-ium hexafluorophosphate

> <STRUCTURE_SMILES>
F[P-](F)(F)(F)(F)F.C[n+]1ccn(CCCCCCCC)c1

> <STRUCTURE_SMILES_Desalt>
C[n+]1ccn(CCCCCCCC)c1

> <Substance_modify_yyyymmdd>
20110418

$$$$
