304680-35-1
ChemmineR-0915142007XD

 19 18  0  0  0  0  0  0  0  0  2 V2000
    8.9034   -1.0740    0.0000 N   0  3  0  0  0  0  0  0  0  0  0  0
    6.8825   -1.7668    0.0000 N   0  0  0  0  0  0  0  0  0  0  0  0
    8.1412   -2.1941    0.0000 C   0  0  0  0  0  0  0  0  0  0  0  0
    8.1181    0.0000    0.0000 C   0  0  0  0  0  0  0  0  0  0  0  0
    6.8825   -0.4273    0.0000 C   0  0  0  0  0  0  0  0  0  0  0  0
    5.7970   -2.5290    0.0000 C   0  0  0  0  0  0  0  0  0  0  0  0
    4.6076   -1.9516    0.0000 C   0  0  0  0  0  0  0  0  0  0  0  0
    3.5336   -2.7368    0.0000 C   0  0  0  0  0  0  0  0  0  0  0  0
    2.2749   -2.1825    0.0000 C   0  0  0  0  0  0  0  0  0  0  0  0
    1.2125   -2.9909    0.0000 C   0  0  0  0  0  0  0  0  0  0  0  0
    0.0000   -2.4135    0.0000 C   0  0  0  0  0  0  0  0  0  0  0  0
   10.2314   -1.0740    0.0000 C   0  0  0  0  0  0  0  0  0  0  0  0
   10.2314   -4.1572    0.0000 P   0  5  0  0  0  0  0  0  0  0  0  0
    8.9149   -4.1572    0.0000 F   0  0  0  0  0  0  0  0  0  0  0  0
   10.8781   -5.3005    0.0000 F   0  0  0  0  0  0  0  0  0  0  0  0
   10.8781   -3.0024    0.0000 F   0  0  0  0  0  0  0  0  0  0  0  0
    9.5732   -5.3005    0.0000 F   0  0  0  0  0  0  0  0  0  0  0  0
    9.5732   -3.0024    0.0000 F   0  0  0  0  0  0  0  0  0  0  0  0
   11.5479   -4.1572    0.0000 F   0  0  0  0  0  0  0  0  0  0  0  0
  1  3  2  0  0  0  0
  1  4  1  0  0  0  0
  1 12  1  0  0  0  0
  2  3  1  0  0  0  0
  2  5  1  0  0  0  0
  2  6  1  0  0  0  0
  4  5  2  0  0  0  0
  6  7  1  0  0  0  0
  7  8  1  0  0  0  0
  8  9  1  0  0  0  0
  9 10  1  0  0  0  0
 10 11  1  0  0  0  0
 13 14  1  0  0  0  0
 13 15  1  0  0  0  0
 13 16  1  0  0  0  0
 13 17  1  0  0  0  0
 13 18  1  0  0  0  0
 13 19  1  0  0  0  0
M  END
> <ID>
13024

> <Formula>
C10H19F6N2P

> <FW>
312.2354 (167.2707+144.9647)

> <DSSTox_CID>
27925

> <DSSTox_RID>
82678

> <DSSTox_GSID>
47949

> <DSSTox_FileID_Sort>
7355

> <TS_ChemName>
1-Hexyl-3-methylimidazolium hexafluorophosphate

> <TS_ChemName_Synonyms>


> <TS_CASRN>
304680-35-1

> <CASRN_ChemName_Relationship>
primary

> <TS_Description>
single chemical compound

> <ChemNote>
ammonium; parent [85100-82-9]

> <STRUCTURE_Shown>
tested chemical

> <STRUCTURE_Formula>
C10H19F6N2P

> <STRUCTURE_MW>
312.2354

> <STRUCTURE_ChemType>
defined organic

> <STRUCTURE_DefinedOrganicForm>
salt

> <STRUCTURE_IUPAC>
1-hexyl-3-methyl-1H-imidazol-3-ium hexafluorophosphate

> <STRUCTURE_SMILES>
F[P-](F)(F)(F)(F)F.C[n+]1ccn(CCCCCC)c1

> <STRUCTURE_SMILES_Desalt>
C[n+]1ccn(CCCCCC)c1

> <Substance_modify_yyyymmdd>
20110418

$$$$
