3048-65-5
ChemmineR-0915142007XD

  9 10  0  0  0  0  0  0  0  0  1 V2000
    4.3408   -1.3413    0.0000 C   0  0  0  0  0  0  0  0  0  0  0  0
    2.2833   -0.6381    0.0000 C   0  0  0  0  0  0  0  0  0  0  0  0
    3.5421   -0.2908    0.0000 C   0  0  0  0  0  0  0  0  0  0  0  0
    2.2833   -2.0445    0.0000 C   0  0  0  0  0  0  0  0  0  0  0  0
    3.5421   -2.3961    0.0000 C   0  0  0  0  0  0  0  0  0  0  0  0
    1.1330    0.0000    0.0000 C   0  0  0  0  0  0  0  0  0  0  0  0
    1.1330   -2.6826    0.0000 C   0  0  0  0  0  0  0  0  0  0  0  0
    0.0000   -2.0445    0.0000 C   0  0  0  0  0  0  0  0  0  0  0  0
    0.0000   -0.6381    0.0000 C   0  0  0  0  0  0  0  0  0  0  0  0
  1  3  2  0  0  0  0
  1  5  1  0  0  0  0
  2  3  1  0  0  0  0
  2  4  1  0  0  0  0
  2  6  1  0  0  0  0
  4  5  1  0  0  0  0
  4  7  1  0  0  0  0
  6  9  1  0  0  0  0
  7  8  1  0  0  0  0
  8  9  2  0  0  0  0
M  END
> <ID>
5211

> <Formula>
C9H12

> <FW>
120.1916

> <DSSTox_CID>
7515

> <DSSTox_RID>
78483

> <DSSTox_GSID>
27515

> <DSSTox_FileID_Sort>
3166

> <TS_ChemName>
3a,4,7,7a-Tetrahydroindene

> <TS_ChemName_Synonyms>
3a,4,7,7a-Tetrahydroindene (1H-Indene, 3a,4,7,7a-tetrahydro-)

> <TS_CASRN>
3048-65-5

> <CASRN_ChemName_Relationship>
primary

> <TS_Description>
single chemical compound

> <ChemNote>


> <STRUCTURE_Shown>
tested chemical

> <STRUCTURE_Formula>
C9H12

> <STRUCTURE_MW>
120.1916

> <STRUCTURE_ChemType>
defined organic

> <STRUCTURE_DefinedOrganicForm>
parent

> <STRUCTURE_IUPAC>
3a,4,7,7a-tetrahydro-1H-indene

> <STRUCTURE_SMILES>
C1=CCC2CC=CCC12

> <STRUCTURE_SMILES_Desalt>
C1=CCC2CC=CCC12

> <Substance_modify_yyyymmdd>
20080429

$$$$
