3048-64-4
ChemmineR-0915142007XD

  9 10  0  0  0  0  0  0  0  0  1 V2000
    2.0688   -2.8954    0.0000 C   0  0  0  0  0  0  0  0  0  0  0  0
    2.6183   -1.9064    0.0000 C   0  0  0  0  0  0  0  0  0  0  0  0
    3.5834   -1.2279    0.0000 C   0  0  0  0  0  0  0  0  0  0  0  0
    3.2346   -2.3125    0.0000 C   0  0  0  0  0  0  0  0  0  0  0  0
    3.3398    0.0000    0.0000 C   0  0  0  0  0  0  0  0  0  0  0  0
    4.7779   -1.9255    0.0000 C   0  0  0  0  0  0  0  0  0  0  0  0
    4.3336   -2.8667    0.0000 C   0  0  0  0  0  0  0  0  0  0  0  0
    1.1849   -3.7507    0.0000 C   0  0  0  0  0  0  0  0  0  0  0  0
    0.0000   -3.4066    0.0000 C   0  0  0  0  0  0  0  0  0  0  0  0
  1  2  1  0  0  0  0
  1  4  1  0  0  0  0
  1  8  1  0  0  0  0
  2  3  1  0  0  0  0
  3  5  1  0  0  0  0
  3  6  1  0  0  0  0
  4  5  1  0  0  0  0
  4  7  1  0  0  0  0
  6  7  2  0  0  0  0
  8  9  2  0  0  0  0
M  END
> <ID>
5891

> <Formula>
C9H12

> <FW>
120.1916

> <DSSTox_CID>
9250

> <DSSTox_RID>
78733

> <DSSTox_GSID>
29250

> <DSSTox_FileID_Sort>
3415

> <TS_ChemName>
5-Vinyl-2-norbornene

> <TS_ChemName_Synonyms>
5-Vinyl-2-norbornene (Bicyclo[2.2.1]hept-2-ene, 5-ethenyl-)

> <TS_CASRN>
3048-64-4

> <CASRN_ChemName_Relationship>
primary

> <TS_Description>
single chemical compound

> <ChemNote>


> <STRUCTURE_Shown>
tested chemical

> <STRUCTURE_Formula>
C9H12

> <STRUCTURE_MW>
120.1916

> <STRUCTURE_ChemType>
defined organic

> <STRUCTURE_DefinedOrganicForm>
parent

> <STRUCTURE_IUPAC>
5-ethenylbicyclo[2.2.1]hept-2-ene

> <STRUCTURE_SMILES>
C=CC2CC1C=CC2C1

> <STRUCTURE_SMILES_Desalt>
C=CC2CC1C=CC2C1

> <Substance_modify_yyyymmdd>
20080429

$$$$
