305-85-1
ChemmineR-0915142007XD

 12 12  0  0  0  0  0  0  0  0  2 V2000
    2.3003    0.0000    0.0000 O   0  0  0  0  0  0  0  0  0  0  0  0
    2.3003   -1.3239    0.0000 C   0  0  0  0  0  0  0  0  0  0  0  0
    3.4505   -1.9948    0.0000 C   0  0  0  0  0  0  0  0  0  0  0  0
    4.6007   -1.3239    0.0000 I   0  0  0  0  0  0  0  0  0  0  0  0
    3.4505   -3.3247    0.0000 C   0  0  0  0  0  0  0  0  0  0  0  0
    2.3003   -3.9956    0.0000 C   0  0  0  0  0  0  0  0  0  0  0  0
    1.1502   -3.3247    0.0000 C   0  0  0  0  0  0  0  0  0  0  0  0
    1.1502   -1.9948    0.0000 C   0  0  0  0  0  0  0  0  0  0  0  0
    0.0000   -1.3239    0.0000 I   0  0  0  0  0  0  0  0  0  0  0  0
    2.3003   -5.3195    0.0000 N   0  3  0  0  0  0  0  0  0  0  0  0
    3.4505   -5.9905    0.0000 O   0  5  0  0  0  0  0  0  0  0  0  0
    1.1502   -5.9905    0.0000 O   0  0  0  0  0  0  0  0  0  0  0  0
  1  2  1  0  0  0  0
  2  3  2  0  0  0  0
  2  8  1  0  0  0  0
  3  4  1  0  0  0  0
  3  5  1  0  0  0  0
  5  6  2  0  0  0  0
  6  7  1  0  0  0  0
  6 10  1  0  0  0  0
  7  8  2  0  0  0  0
  8  9  1  0  0  0  0
 10 11  1  0  0  0  0
 10 12  2  0  0  0  0
M  END
> <ID>
11798

> <Formula>
C6H3I2NO3

> <FW>
390.9019

> <DSSTox_CID>
26573

> <DSSTox_RID>
81732

> <DSSTox_GSID>
46573

> <DSSTox_FileID_Sort>
6413

> <TS_ChemName>
2,6-Diiodo-4-nitrophenol

> <TS_ChemName_Synonyms>


> <TS_CASRN>
305-85-1

> <CASRN_ChemName_Relationship>
primary

> <TS_Description>
single chemical compound

> <ChemNote>


> <STRUCTURE_Shown>
tested chemical

> <STRUCTURE_Formula>
C6H3I2NO3

> <STRUCTURE_MW>
390.9019

> <STRUCTURE_ChemType>
defined organic

> <STRUCTURE_DefinedOrganicForm>
parent

> <STRUCTURE_IUPAC>
2,6-diiodo-4-nitrophenol

> <STRUCTURE_SMILES>
Ic1cc(cc(I)c1O)[N+]([O-])=O

> <STRUCTURE_SMILES_Desalt>
Ic1cc(cc(I)c1O)[N+]([O-])=O

> <Substance_modify_yyyymmdd>
20110810

$$$$
