30544-47-9
ChemmineR-0915142007XD

 26 27  0  0  0  0  0  0  0  0  1 V2000
    0.0000   -4.6459    0.0000 O   0  0  0  0  0  0  0  0  0  0  0  0
    1.1453   -3.9845    0.0000 C   0  0  0  0  0  0  0  0  0  0  0  0
    2.3068   -4.6459    0.0000 C   0  0  0  0  0  0  0  0  0  0  0  0
    3.4522   -3.9845    0.0000 O   0  0  0  0  0  0  0  0  0  0  0  0
    4.6136   -4.6459    0.0000 C   0  0  0  0  0  0  0  0  0  0  0  0
    5.7590   -3.9845    0.0000 C   0  0  0  0  0  0  0  0  0  0  0  0
    6.9205   -4.6459    0.0000 O   0  0  0  0  0  0  0  0  0  0  0  0
    8.0658   -3.9845    0.0000 C   0  0  0  0  0  0  0  0  0  0  0  0
    8.0658   -2.6617    0.0000 O   0  0  0  0  0  0  0  0  0  0  0  0
    9.2112   -4.6459    0.0000 C   0  0  0  0  0  0  0  0  0  0  0  0
   10.3726   -3.9845    0.0000 C   0  0  0  0  0  0  0  0  0  0  0  0
   10.3726   -2.6617    0.0000 N   0  0  0  0  0  0  0  0  0  0  0  0
   11.5180   -1.9842    0.0000 C   0  0  0  0  0  0  0  0  0  0  0  0
   11.5180   -0.6614    0.0000 C   0  0  0  0  0  0  0  0  0  0  0  0
   12.6794    0.0000    0.0000 C   0  0  0  0  0  0  0  0  0  0  0  0
   13.8248   -0.6614    0.0000 C   0  0  0  0  0  0  0  0  0  0  0  0
   13.8248   -1.9842    0.0000 C   0  0  0  0  0  0  0  0  0  0  0  0
   12.6794   -2.6617    0.0000 C   0  0  0  0  0  0  0  0  0  0  0  0
   14.9863   -2.6617    0.0000 C   0  0  0  0  0  0  0  0  0  0  0  0
   14.3087   -3.8071    0.0000 F   0  0  0  0  0  0  0  0  0  0  0  0
   15.6477   -1.5002    0.0000 F   0  0  0  0  0  0  0  0  0  0  0  0
   16.1316   -3.3231    0.0000 F   0  0  0  0  0  0  0  0  0  0  0  0
   11.5180   -4.6459    0.0000 C   0  0  0  0  0  0  0  0  0  0  0  0
   11.5180   -5.9848    0.0000 C   0  0  0  0  0  0  0  0  0  0  0  0
   10.3726   -6.6462    0.0000 C   0  0  0  0  0  0  0  0  0  0  0  0
    9.2112   -5.9848    0.0000 C   0  0  0  0  0  0  0  0  0  0  0  0
  1  2  1  0  0  0  0
  2  3  1  0  0  0  0
  3  4  1  0  0  0  0
  4  5  1  0  0  0  0
  5  6  1  0  0  0  0
  6  7  1  0  0  0  0
  7  8  1  0  0  0  0
  8  9  2  0  0  0  0
  8 10  1  0  0  0  0
 10 11  2  0  0  0  0
 10 26  1  0  0  0  0
 11 12  1  0  0  0  0
 11 23  1  0  0  0  0
 12 13  1  0  0  0  0
 13 14  2  0  0  0  0
 13 18  1  0  0  0  0
 14 15  1  0  0  0  0
 15 16  2  0  0  0  0
 16 17  1  0  0  0  0
 17 18  2  0  0  0  0
 17 19  1  0  0  0  0
 19 20  1  0  0  0  0
 19 21  1  0  0  0  0
 19 22  1  0  0  0  0
 23 24  2  0  0  0  0
 24 25  1  0  0  0  0
 25 26  2  0  0  0  0
M  END
> <ID>
10955

> <Formula>
C18H18F3NO4

> <FW>
369.335

> <DSSTox_CID>
25448

> <DSSTox_RID>
80887

> <DSSTox_GSID>
45448

> <DSSTox_FileID_Sort>
5568

> <TS_ChemName>
Etofenamate

> <TS_ChemName_Synonyms>


> <TS_CASRN>
30544-47-9

> <CASRN_ChemName_Relationship>
primary

> <TS_Description>
single chemical compound

> <ChemNote>


> <STRUCTURE_Shown>
tested chemical

> <STRUCTURE_Formula>
C18H18F3NO4

> <STRUCTURE_MW>
369.335

> <STRUCTURE_ChemType>
defined organic

> <STRUCTURE_DefinedOrganicForm>
parent

> <STRUCTURE_IUPAC>
2-(2-hydroxyethoxy)ethyl 2-{[3-(trifluoromethyl)phenyl]amino}benzoate

> <STRUCTURE_SMILES>
FC(F)(F)c1cc(ccc1)Nc2ccccc2C(=O)OCCOCCO

> <STRUCTURE_SMILES_Desalt>
FC(F)(F)c1cc(ccc1)Nc2ccccc2C(=O)OCCOCCO

> <Substance_modify_yyyymmdd>
20100107

$$$$
