3055-99-0
ChemmineR-0915142007XD

 40 39  0  0  0  0  0  0  0  0  1 V2000
    1.1721    0.0000    0.0000 C   0  0  0  0  0  0  0  0  0  0  0  0
    2.2991   -0.7213    0.0000 C   0  0  0  0  0  0  0  0  0  0  0  0
    3.4712   -0.0902    0.0000 O   0  0  0  0  0  0  0  0  0  0  0  0
    4.6433   -0.7664    0.0000 C   0  0  0  0  0  0  0  0  0  0  0  0
    5.8154   -0.1352    0.0000 C   0  0  0  0  0  0  0  0  0  0  0  0
    6.9424   -0.8565    0.0000 O   0  0  0  0  0  0  0  0  0  0  0  0
    8.1145   -0.2254    0.0000 C   0  0  0  0  0  0  0  0  0  0  0  0
    9.2416   -0.9016    0.0000 C   0  0  0  0  0  0  0  0  0  0  0  0
   10.4137   -0.2705    0.0000 O   0  0  0  0  0  0  0  0  0  0  0  0
   11.5407   -0.9467    0.0000 C   0  0  0  0  0  0  0  0  0  0  0  0
   12.7128   -0.3606    0.0000 C   0  0  0  0  0  0  0  0  0  0  0  0
   13.8849   -1.0369    0.0000 O   0  0  0  0  0  0  0  0  0  0  0  0
   15.0570   -0.4057    0.0000 C   0  0  0  0  0  0  0  0  0  0  0  0
   16.1840   -1.0819    0.0000 C   0  0  0  0  0  0  0  0  0  0  0  0
   17.3561   -0.4959    0.0000 O   0  0  0  0  0  0  0  0  0  0  0  0
   18.4831   -1.1721    0.0000 C   0  0  0  0  0  0  0  0  0  0  0  0
   19.6552   -0.5410    0.0000 C   0  0  0  0  0  0  0  0  0  0  0  0
   20.8273   -1.2172    0.0000 O   0  0  0  0  0  0  0  0  0  0  0  0
   21.9994   -0.6311    0.0000 C   0  0  0  0  0  0  0  0  0  0  0  0
   23.0814   -1.3073    0.0000 C   0  0  0  0  0  0  0  0  0  0  0  0
   24.2535   -0.6762    0.0000 O   0  0  0  0  0  0  0  0  0  0  0  0
   25.4256   -1.3524    0.0000 C   0  0  0  0  0  0  0  0  0  0  0  0
   26.5977   -0.7213    0.0000 C   0  0  0  0  0  0  0  0  0  0  0  0
   27.7247   -1.4426    0.0000 O   0  0  0  0  0  0  0  0  0  0  0  0
   28.8968   -0.8115    0.0000 C   0  0  0  0  0  0  0  0  0  0  0  0
   30.0238   -1.4877    0.0000 C   0  0  0  0  0  0  0  0  0  0  0  0
   31.1959   -0.8565    0.0000 O   0  0  0  0  0  0  0  0  0  0  0  0
   32.3680   -1.5778    0.0000 C   0  0  0  0  0  0  0  0  0  0  0  0
   33.5401   -0.9467    0.0000 C   0  0  0  0  0  0  0  0  0  0  0  0
   34.6671   -1.6229    0.0000 C   0  0  0  0  0  0  0  0  0  0  0  0
   35.8392   -0.9918    0.0000 C   0  0  0  0  0  0  0  0  0  0  0  0
   36.9662   -1.7131    0.0000 C   0  0  0  0  0  0  0  0  0  0  0  0
   38.1383   -1.0819    0.0000 C   0  0  0  0  0  0  0  0  0  0  0  0
   39.2654   -1.7581    0.0000 C   0  0  0  0  0  0  0  0  0  0  0  0
   40.4375   -1.1270    0.0000 C   0  0  0  0  0  0  0  0  0  0  0  0
   41.6096   -1.8483    0.0000 C   0  0  0  0  0  0  0  0  0  0  0  0
   42.7817   -1.2172    0.0000 C   0  0  0  0  0  0  0  0  0  0  0  0
   43.9087   -1.8934    0.0000 C   0  0  0  0  0  0  0  0  0  0  0  0
   45.0808   -1.2623    0.0000 C   0  0  0  0  0  0  0  0  0  0  0  0
    0.0000   -0.6311    0.0000 O   0  0  0  0  0  0  0  0  0  0  0  0
  1  2  1  0  0  0  0
  1 40  1  0  0  0  0
  2  3  1  0  0  0  0
  3  4  1  0  0  0  0
  4  5  1  0  0  0  0
  5  6  1  0  0  0  0
  6  7  1  0  0  0  0
  7  8  1  0  0  0  0
  8  9  1  0  0  0  0
  9 10  1  0  0  0  0
 10 11  1  0  0  0  0
 11 12  1  0  0  0  0
 12 13  1  0  0  0  0
 13 14  1  0  0  0  0
 14 15  1  0  0  0  0
 15 16  1  0  0  0  0
 16 17  1  0  0  0  0
 17 18  1  0  0  0  0
 18 19  1  0  0  0  0
 19 20  1  0  0  0  0
 20 21  1  0  0  0  0
 21 22  1  0  0  0  0
 22 23  1  0  0  0  0
 23 24  1  0  0  0  0
 24 25  1  0  0  0  0
 25 26  1  0  0  0  0
 26 27  1  0  0  0  0
 27 28  1  0  0  0  0
 28 29  1  0  0  0  0
 29 30  1  0  0  0  0
 30 31  1  0  0  0  0
 31 32  1  0  0  0  0
 32 33  1  0  0  0  0
 33 34  1  0  0  0  0
 34 35  1  0  0  0  0
 35 36  1  0  0  0  0
 36 37  1  0  0  0  0
 37 38  1  0  0  0  0
 38 39  1  0  0  0  0
M  END
> <ID>
7562

> <Formula>
C30H62O10

> <FW>
582.8073

> <DSSTox_CID>
19721

> <DSSTox_RID>
79436

> <DSSTox_GSID>
39721

> <DSSTox_FileID_Sort>
4118

> <TS_ChemName>
Polyoxyethylen-9-lauryl ether

> <TS_ChemName_Synonyms>
Polyoxyethylen-9-lauryl ether (POELE)

> <TS_CASRN>
3055-99-0

> <CASRN_ChemName_Relationship>
primary

> <TS_Description>
polymer

> <ChemNote>


> <STRUCTURE_Shown>
monomer of polymer

> <STRUCTURE_Formula>
C30H62O10

> <STRUCTURE_MW>
582.8073

> <STRUCTURE_ChemType>
defined organic

> <STRUCTURE_DefinedOrganicForm>
parent

> <STRUCTURE_IUPAC>
3,6,9,12,15,18,21,24,27-nonaoxanonatriacontan-1-ol

> <STRUCTURE_SMILES>
CCCCCCCCCCCCOCCOCCOCCOCCOCCOCCOCCOCCOCCO

> <STRUCTURE_SMILES_Desalt>
CCCCCCCCCCCCOCCOCCOCCOCCOCCOCCOCCOCCOCCO

> <Substance_modify_yyyymmdd>
20080429

$$$$
