3056-17-5
ChemmineR-0915142007XD

 16 17  0  0  1  0  0  0  0  0  1 V2000
    4.3174   -3.9336    0.0000 N   0  0  0  0  0  0  0  0  0  0  0  0
    3.1866   -3.2620    0.0000 C   0  0  0  0  0  0  0  0  0  0  0  0
    3.1866   -1.9600    0.0000 N   0  0  0  0  0  0  0  0  0  0  0  0
    5.4618   -3.2620    0.0000 C   0  0  0  0  0  0  0  0  0  0  0  0
    5.4618   -1.9600    0.0000 C   0  0  0  0  0  0  0  0  0  0  0  0
    4.3174   -1.3021    0.0000 C   0  0  0  0  0  0  0  0  0  0  0  0
    4.3311   -5.6058    0.0000 C   0  0  0  0  0  0  0  0  0  0  0  0
    3.2757   -4.8519    0.0000 O   0  0  0  0  0  0  0  0  0  0  0  0
    3.9336   -6.8530    0.0000 C   0  0  0  0  0  0  0  0  0  0  0  0
    2.0628   -3.9336    0.0000 O   0  0  0  0  0  0  0  0  0  0  0  0
    2.6110   -6.8530    0.0000 C   0  0  0  0  0  0  0  0  0  0  0  0
    4.3174    0.0000    0.0000 O   0  0  0  0  0  0  0  0  0  0  0  0
    2.2135   -5.6058    0.0000 C   0  0  0  0  0  0  0  0  0  0  0  0
    6.5857   -1.3021    0.0000 C   0  0  0  0  0  0  0  0  0  0  0  0
    0.0000   -6.0786    0.0000 O   0  0  0  0  0  0  0  0  0  0  0  0
    0.9663   -5.2083    0.0000 C   0  0  0  0  0  0  0  0  0  0  0  0
  1  2  1  0  0  0  0
  1  4  1  0  0  0  0
  7  1  1  1  0  0  0
  2  3  1  0  0  0  0
  2 10  2  0  0  0  0
  3  6  1  0  0  0  0
  4  5  2  0  0  0  0
  5  6  1  0  0  0  0
  5 14  1  0  0  0  0
  6 12  2  0  0  0  0
  7  8  1  0  0  0  0
  7  9  1  0  0  0  0
  8 13  1  0  0  0  0
  9 11  2  0  0  0  0
 11 13  1  0  0  0  0
 13 16  1  1  0  0  0
 15 16  1  0  0  0  0
M  END
> <ID>
3376

> <Formula>
C10H12N2O4

> <FW>
224.2133

> <DSSTox_CID>
3819

> <DSSTox_RID>
77198

> <DSSTox_GSID>
23819

> <DSSTox_FileID_Sort>
1881

> <TS_ChemName>
Stavudine

> <TS_ChemName_Synonyms>
Stavudine (2',3'-Didehydro-3'-deoxythymidine)(D4T) (Dideoxydidehydrothymidine)

> <TS_CASRN>
3056-17-5

> <CASRN_ChemName_Relationship>
primary

> <TS_Description>
single chemical compound

> <ChemNote>
stereochem

> <STRUCTURE_Shown>
tested chemical

> <STRUCTURE_Formula>
C10H12N2O4

> <STRUCTURE_MW>
224.2133

> <STRUCTURE_ChemType>
defined organic

> <STRUCTURE_DefinedOrganicForm>
parent

> <STRUCTURE_IUPAC>
1-[(2R,5S)-5-(hydroxymethyl)-2,5-dihydrofuran-2-yl]-5-methylpyrimidine-2,4(1H,3H)-dione

> <STRUCTURE_SMILES>
CC1=CN(C(=O)NC1=O)[C@H]2C=C[C@@H](CO)O2

> <STRUCTURE_SMILES_Desalt>
CC1=CN(C(=O)NC1=O)[C@H]2C=C[C@@H](CO)O2

> <Substance_modify_yyyymmdd>
20080429

$$$$
