30560-19-1
ChemmineR-0915142007XD

 10  9  0  0  0  0  0  0  0  0  1 V2000
    2.3165   -2.3165    0.0000 P   0  0  0  0  0  0  0  0  0  0  0  0
    3.4603   -2.9750    0.0000 N   0  0  0  0  0  0  0  0  0  0  0  0
    4.6098   -2.3049    0.0000 C   0  0  0  0  0  0  0  0  0  0  0  0
    1.6695   -3.4949    0.0000 O   0  0  0  0  0  0  0  0  0  0  0  0
    2.9635   -1.1611    0.0000 S   0  0  0  0  0  0  0  0  0  0  0  0
    4.6098   -0.9878    0.0000 O   0  0  0  0  0  0  0  0  0  0  0  0
    1.1553   -1.6695    0.0000 O   0  0  0  0  0  0  0  0  0  0  0  0
    5.7767   -2.9635    0.0000 C   0  0  0  0  0  0  0  0  0  0  0  0
    2.3165    0.0000    0.0000 C   0  0  0  0  0  0  0  0  0  0  0  0
    0.0000   -2.3396    0.0000 C   0  0  0  0  0  0  0  0  0  0  0  0
  1  2  1  0  0  0  0
  1  4  2  0  0  0  0
  1  5  1  0  0  0  0
  1  7  1  0  0  0  0
  2  3  1  0  0  0  0
  3  6  2  0  0  0  0
  3  8  1  0  0  0  0
  5  9  1  0  0  0  0
  7 10  1  0  0  0  0
M  END
> <ID>
3387

> <Formula>
C4H10NO3PS

> <FW>
183.1659

> <DSSTox_CID>
3846

> <DSSTox_RID>
77205

> <DSSTox_GSID>
23846

> <DSSTox_FileID_Sort>
1888

> <TS_ChemName>
Acephate

> <TS_ChemName_Synonyms>


> <TS_CASRN>
30560-19-1

> <CASRN_ChemName_Relationship>
primary

> <TS_Description>
single chemical compound

> <ChemNote>


> <STRUCTURE_Shown>
tested chemical

> <STRUCTURE_Formula>
C4H10NO3PS

> <STRUCTURE_MW>
183.1659

> <STRUCTURE_ChemType>
defined organic

> <STRUCTURE_DefinedOrganicForm>
parent

> <STRUCTURE_IUPAC>
O,S-dimethyl acetylphosphoramidothioate

> <STRUCTURE_SMILES>
O=C(C)NP(=O)(OC)SC

> <STRUCTURE_SMILES_Desalt>
O=C(C)NP(=O)(OC)SC

> <Substance_modify_yyyymmdd>
20080429

$$$$
