3057-08-7
ChemmineR-0915142007XD

 15 16  0  0  0  0  0  0  0  0  1 V2000
    3.6415   -1.1643    0.0000 O   0  0  0  0  0  0  0  0  0  0  0  0
    3.6415   -2.4854    0.0000 P   0  0  0  0  0  0  0  0  0  0  0  0
    2.4854   -3.1460    0.0000 O   0  0  0  0  0  0  0  0  0  0  0  0
    1.3377   -2.4854    0.0000 C   0  0  0  0  0  0  0  0  0  0  0  0
    1.3377   -1.1643    0.0000 C   0  0  0  0  0  0  0  0  0  0  0  0
    2.4854   -0.4872    0.0000 C   0  0  0  0  0  0  0  0  0  0  0  0
    0.6771    0.0000    0.0000 C   0  0  0  0  0  0  0  0  0  0  0  0
    0.0000   -1.1643    0.0000 C   0  0  0  0  0  0  0  0  0  0  0  0
    4.7892   -3.1460    0.0000 O   0  0  0  0  0  0  0  0  0  0  0  0
    5.9535   -2.4854    0.0000 C   0  0  0  0  0  0  0  0  0  0  0  0
    5.9535   -1.1643    0.0000 C   0  0  0  0  0  0  0  0  0  0  0  0
    7.0930   -3.1460    0.0000 C   0  0  0  0  0  0  0  0  0  0  0  0
    7.0930   -0.4872    0.0000 C   0  0  0  0  0  0  0  0  0  0  0  0
    8.2573   -2.4854    0.0000 C   0  0  0  0  0  0  0  0  0  0  0  0
    8.2573   -1.1643    0.0000 C   0  0  0  0  0  0  0  0  0  0  0  0
  1  2  1  0  0  0  0
  1  6  1  0  0  0  0
  2  3  1  0  0  0  0
  2  9  1  0  0  0  0
  3  4  1  0  0  0  0
  4  5  1  0  0  0  0
  5  6  1  0  0  0  0
  5  7  1  0  0  0  0
  5  8  1  0  0  0  0
  9 10  1  0  0  0  0
 10 11  2  0  0  0  0
 10 12  1  0  0  0  0
 11 13  1  0  0  0  0
 12 14  2  0  0  0  0
 13 15  2  0  0  0  0
 14 15  1  0  0  0  0
M  END
> <ID>
10299

> <Formula>
C11H15O3P

> <FW>
226.2088

> <DSSTox_CID>
24646

> <DSSTox_RID>
80374

> <DSSTox_GSID>
44646

> <DSSTox_FileID_Sort>
5056

> <TS_ChemName>
5,5-Dimethyl-2-phenoxy-1,3,2-dioxaphosphinane

> <TS_ChemName_Synonyms>
5,5-Dimethyl-2-phenoxy-1,3,2-dioxaphosphinane (1,3,2-Dioxaphosphorinane, 5,5-dimethyl-2-phenoxy-)

> <TS_CASRN>
3057-08-7

> <CASRN_ChemName_Relationship>
primary

> <TS_Description>
single chemical compound

> <ChemNote>


> <STRUCTURE_Shown>
tested chemical

> <STRUCTURE_Formula>
C11H15O3P

> <STRUCTURE_MW>
226.2088

> <STRUCTURE_ChemType>
defined organic

> <STRUCTURE_DefinedOrganicForm>
parent

> <STRUCTURE_IUPAC>
5,5-dimethyl-2-phenoxy-1,3,2-dioxaphosphinane

> <STRUCTURE_SMILES>
CC2(C)COP(Oc1ccccc1)OC2

> <STRUCTURE_SMILES_Desalt>
CC2(C)COP(Oc1ccccc1)OC2

> <Substance_modify_yyyymmdd>
20091116

$$$$
