306-91-2
ChemmineR-0915142007XD

 38 40  0  0  0  0  0  0  0  0  1 V2000
    4.9152   -3.2364    0.0000 C   0  0  0  0  0  0  0  0  0  0  0  0
    6.1007   -3.9114    0.0000 C   0  0  0  0  0  0  0  0  0  0  0  0
    4.9152   -1.8691    0.0000 C   0  0  0  0  0  0  0  0  0  0  0  0
    7.2862   -3.2364    0.0000 C   0  0  0  0  0  0  0  0  0  0  0  0
    6.1007   -1.1769    0.0000 C   0  0  0  0  0  0  0  0  0  0  0  0
    7.2862   -1.8691    0.0000 C   0  0  0  0  0  0  0  0  0  0  0  0
    3.7210   -3.9114    0.0000 C   0  0  0  0  0  0  0  0  0  0  0  0
    3.7210   -5.2786    0.0000 C   0  0  0  0  0  0  0  0  0  0  0  0
    6.1007   -5.2786    0.0000 C   0  0  0  0  0  0  0  0  0  0  0  0
    4.9152   -5.9709    0.0000 C   0  0  0  0  0  0  0  0  0  0  0  0
    2.5528   -3.2364    0.0000 C   0  0  0  0  0  0  0  0  0  0  0  0
    1.3672   -3.9114    0.0000 C   0  0  0  0  0  0  0  0  0  0  0  0
    2.5528   -5.9709    0.0000 C   0  0  0  0  0  0  0  0  0  0  0  0
    1.3672   -5.2786    0.0000 C   0  0  0  0  0  0  0  0  0  0  0  0
    3.5912   -1.5230    0.0000 F   0  0  0  0  0  0  0  0  0  0  0  0
    4.2402   -0.6750    0.0000 F   0  0  0  0  0  0  0  0  0  0  0  0
    5.4257    0.0000    0.0000 F   0  0  0  0  0  0  0  0  0  0  0  0
    6.7930    0.0000    0.0000 F   0  0  0  0  0  0  0  0  0  0  0  0
    8.6535   -1.8691    0.0000 F   0  0  0  0  0  0  0  0  0  0  0  0
    7.9785   -0.6750    0.0000 F   0  0  0  0  0  0  0  0  0  0  0  0
    8.6535   -3.2364    0.0000 F   0  0  0  0  0  0  0  0  0  0  0  0
    7.9785   -4.4219    0.0000 F   0  0  0  0  0  0  0  0  0  0  0  0
    6.7930   -6.4641    0.0000 F   0  0  0  0  0  0  0  0  0  0  0  0
    7.4679   -5.2786    0.0000 F   0  0  0  0  0  0  0  0  0  0  0  0
    5.6074   -7.1564    0.0000 F   0  0  0  0  0  0  0  0  0  0  0  0
    4.2402   -7.1564    0.0000 F   0  0  0  0  0  0  0  0  0  0  0  0
    3.2277   -7.1564    0.0000 F   0  0  0  0  0  0  0  0  0  0  0  0
    1.8605   -7.1564    0.0000 F   0  0  0  0  0  0  0  0  0  0  0  0
    0.6750   -6.4641    0.0000 F   0  0  0  0  0  0  0  0  0  0  0  0
    0.0000   -5.2786    0.0000 F   0  0  0  0  0  0  0  0  0  0  0  0
    0.0000   -3.9114    0.0000 F   0  0  0  0  0  0  0  0  0  0  0  0
    0.6750   -2.7432    0.0000 F   0  0  0  0  0  0  0  0  0  0  0  0
    1.8605   -2.0509    0.0000 F   0  0  0  0  0  0  0  0  0  0  0  0
    3.2277   -2.0509    0.0000 F   0  0  0  0  0  0  0  0  0  0  0  0
    3.7123   -6.1353    0.0000 F   0  0  0  0  0  0  0  0  0  0  0  0
    3.7123   -2.8383    0.0000 F   0  0  0  0  0  0  0  0  0  0  0  0
    4.1710   -2.6912    0.0000 F   0  0  0  0  0  0  0  0  0  0  0  0
    7.0093   -4.5344    0.0000 F   0  0  0  0  0  0  0  0  0  0  0  0
  1  3  1  0  0  0  0
  1  7  1  0  0  0  0
  1  2  1  0  0  0  0
  1 37  1  0  0  0  0
  2  4  1  0  0  0  0
  2  9  1  0  0  0  0
  2 38  1  0  0  0  0
  3  5  1  0  0  0  0
  3 15  1  0  0  0  0
  3 16  1  0  0  0  0
  4  6  1  0  0  0  0
  4 21  1  0  0  0  0
  4 22  1  0  0  0  0
  5  6  1  0  0  0  0
  5 17  1  0  0  0  0
  5 18  1  0  0  0  0
  6 19  1  0  0  0  0
  6 20  1  0  0  0  0
  7 11  1  0  0  0  0
  7  8  1  0  0  0  0
  7 36  1  0  0  0  0
  8 10  1  0  0  0  0
  8 13  1  0  0  0  0
  8 35  1  0  0  0  0
  9 10  1  0  0  0  0
  9 23  1  0  0  0  0
  9 24  1  0  0  0  0
 10 25  1  0  0  0  0
 10 26  1  0  0  0  0
 11 12  1  0  0  0  0
 11 33  1  0  0  0  0
 11 34  1  0  0  0  0
 12 14  1  0  0  0  0
 12 31  1  0  0  0  0
 12 32  1  0  0  0  0
 13 14  1  0  0  0  0
 13 27  1  0  0  0  0
 13 28  1  0  0  0  0
 14 29  1  0  0  0  0
 14 30  1  0  0  0  0
M  END
> <ID>
12183

> <Formula>
C14F24

> <FW>
624.1115

> <DSSTox_CID>
27029

> <DSSTox_RID>
82050

> <DSSTox_GSID>
47029

> <DSSTox_FileID_Sort>
6731

> <TS_ChemName>
Tetracosafluorotetradecahydrophenanthrene

> <TS_ChemName_Synonyms>
Tetracosafluorotetradecahydrophenanthrene (Perfluoroperhydrophenanthrene)

> <TS_CASRN>
306-91-2

> <CASRN_ChemName_Relationship>
primary

> <TS_Description>
single chemical compound

> <ChemNote>


> <STRUCTURE_Shown>
tested chemical

> <STRUCTURE_Formula>
C14F24

> <STRUCTURE_MW>
624.1115

> <STRUCTURE_ChemType>
defined organic

> <STRUCTURE_DefinedOrganicForm>
parent

> <STRUCTURE_IUPAC>
tetracosafluorotetradecahydrophenanthrene

> <STRUCTURE_SMILES>
FC2(F)C3(F)C(F)(F)C(F)(F)C(F)(F)C(F)(F)C3(F)C1(F)C(F)(F)C(F)(F)C(F)(F)C(F)(F)C1(F)C2(F)F

> <STRUCTURE_SMILES_Desalt>
FC2(F)C3(F)C(F)(F)C(F)(F)C(F)(F)C(F)(F)C3(F)C1(F)C(F)(F)C(F)(F)C(F)(F)C(F)(F)C1(F)C2(F)F

> <Substance_modify_yyyymmdd>
20100427

$$$$
