306-94-5
ChemmineR-0915142007XD

 28 29  0  0  0  0  0  0  0  0  1 V2000
    3.6282   -1.8286    0.0000 C   0  0  0  0  0  0  0  0  0  0  0  0
    3.6282   -3.1493    0.0000 C   0  0  0  0  0  0  0  0  0  0  0  0
    2.4744   -1.1538    0.0000 C   0  0  0  0  0  0  0  0  0  0  0  0
    4.7820   -1.1538    0.0000 C   0  0  0  0  0  0  0  0  0  0  0  0
    3.6282   -0.5007    0.0000 F   0  0  0  0  0  0  0  0  0  0  0  0
    2.4744   -3.8241    0.0000 C   0  0  0  0  0  0  0  0  0  0  0  0
    4.7820   -3.8241    0.0000 C   0  0  0  0  0  0  0  0  0  0  0  0
    3.6282   -4.4772    0.0000 F   0  0  0  0  0  0  0  0  0  0  0  0
    1.3352   -1.8286    0.0000 C   0  0  0  0  0  0  0  0  0  0  0  0
    3.1493    0.0000    0.0000 F   0  0  0  0  0  0  0  0  0  0  0  0
    1.8141    0.0000    0.0000 F   0  0  0  0  0  0  0  0  0  0  0  0
    5.9430   -1.8286    0.0000 C   0  0  0  0  0  0  0  0  0  0  0  0
    5.4423    0.0000    0.0000 F   0  0  0  0  0  0  0  0  0  0  0  0
    4.1071    0.0000    0.0000 F   0  0  0  0  0  0  0  0  0  0  0  0
    1.3352   -3.1493    0.0000 C   0  0  0  0  0  0  0  0  0  0  0  0
    1.8141   -4.9779    0.0000 F   0  0  0  0  0  0  0  0  0  0  0  0
    3.1493   -4.9779    0.0000 F   0  0  0  0  0  0  0  0  0  0  0  0
    5.9430   -3.1493    0.0000 C   0  0  0  0  0  0  0  0  0  0  0  0
    4.1071   -4.9779    0.0000 F   0  0  0  0  0  0  0  0  0  0  0  0
    5.4423   -4.9779    0.0000 F   0  0  0  0  0  0  0  0  0  0  0  0
    0.0000   -1.8286    0.0000 F   0  0  0  0  0  0  0  0  0  0  0  0
    0.6748   -0.6748    0.0000 F   0  0  0  0  0  0  0  0  0  0  0  0
    6.5961   -0.6748    0.0000 F   0  0  0  0  0  0  0  0  0  0  0  0
    7.2564   -1.8286    0.0000 F   0  0  0  0  0  0  0  0  0  0  0  0
    0.0000   -3.1493    0.0000 F   0  0  0  0  0  0  0  0  0  0  0  0
    0.6748   -4.3031    0.0000 F   0  0  0  0  0  0  0  0  0  0  0  0
    7.2564   -3.1493    0.0000 F   0  0  0  0  0  0  0  0  0  0  0  0
    6.5961   -4.3031    0.0000 F   0  0  0  0  0  0  0  0  0  0  0  0
  1  2  1  0  0  0  0
  1  3  1  0  0  0  0
  1  4  1  0  0  0  0
  1  5  1  0  0  0  0
  2  6  1  0  0  0  0
  2  7  1  0  0  0  0
  2  8  1  0  0  0  0
  3  9  1  0  0  0  0
  3 10  1  0  0  0  0
  3 11  1  0  0  0  0
  4 12  1  0  0  0  0
  4 13  1  0  0  0  0
  4 14  1  0  0  0  0
  6 15  1  0  0  0  0
  6 16  1  0  0  0  0
  6 17  1  0  0  0  0
  7 18  1  0  0  0  0
  7 19  1  0  0  0  0
  7 20  1  0  0  0  0
  9 21  1  0  0  0  0
  9 22  1  0  0  0  0
  9 15  1  0  0  0  0
 12 23  1  0  0  0  0
 12 24  1  0  0  0  0
 12 18  1  0  0  0  0
 15 25  1  0  0  0  0
 15 26  1  0  0  0  0
 18 27  1  0  0  0  0
 18 28  1  0  0  0  0
M  END
> <ID>
11746

> <Formula>
C10F18

> <FW>
462.0783

> <DSSTox_CID>
26511

> <DSSTox_RID>
81680

> <DSSTox_GSID>
46511

> <DSSTox_FileID_Sort>
6361

> <TS_ChemName>
Perflunafene

> <TS_ChemName_Synonyms>


> <TS_CASRN>
306-94-5

> <CASRN_ChemName_Relationship>
primary

> <TS_Description>
single chemical compound

> <ChemNote>


> <STRUCTURE_Shown>
tested chemical

> <STRUCTURE_Formula>
C10F18

> <STRUCTURE_MW>
462.0783

> <STRUCTURE_ChemType>
defined organic

> <STRUCTURE_DefinedOrganicForm>
parent

> <STRUCTURE_IUPAC>
octadecafluorodecahydronaphthalene

> <STRUCTURE_SMILES>
FC2(F)C1(F)C(F)(F)C(F)(F)C(F)(F)C(F)(F)C1(F)C(F)(F)C(F)(F)C2(F)F

> <STRUCTURE_SMILES_Desalt>
FC2(F)C1(F)C(F)(F)C(F)(F)C(F)(F)C(F)(F)C1(F)C(F)(F)C(F)(F)C2(F)F

> <Substance_modify_yyyymmdd>
20110812

$$$$
