306-20-7
ChemmineR-0915142007XD

 14 14  0  0  0  0  0  0  0  0  1 V2000
    8.6464   -6.9085    0.0000 Cl   0  0  0  0  0  0  0  0  0  0  0  0
    7.9806   -5.7585    0.0000 C    0  0  0  0  0  0  0  0  0  0  0  0
    6.6491   -5.7585    0.0000 C    0  0  0  0  0  0  0  0  0  0  0  0
    5.9833   -4.5999    0.0000 C    0  0  0  0  0  0  0  0  0  0  0  0
    6.6491   -3.4499    0.0000 O    0  0  0  0  0  0  0  0  0  0  0  0
    4.6518   -4.5999    0.0000 N    0  0  0  0  0  0  0  0  0  0  0  0
    3.9946   -3.4499    0.0000 C    0  0  0  0  0  0  0  0  0  0  0  0
    2.6631   -3.4499    0.0000 C    0  0  0  0  0  0  0  0  0  0  0  0
    1.9973   -2.2999    0.0000 C    0  0  0  0  0  0  0  0  0  0  0  0
    2.6631   -1.1500    0.0000 C    0  0  0  0  0  0  0  0  0  0  0  0
    1.9973    0.0000    0.0000 C    0  0  0  0  0  0  0  0  0  0  0  0
    0.6658    0.0000    0.0000 C    0  0  0  0  0  0  0  0  0  0  0  0
    0.0000   -1.1500    0.0000 C    0  0  0  0  0  0  0  0  0  0  0  0
    0.6658   -2.2999    0.0000 C    0  0  0  0  0  0  0  0  0  0  0  0
  1  2  1  0  0  0  0
  2  3  1  0  0  0  0
  3  4  1  0  0  0  0
  4  5  2  0  0  0  0
  4  6  1  0  0  0  0
  6  7  1  0  0  0  0
  7  8  1  0  0  0  0
  8  9  1  0  0  0  0
  9 10  2  0  0  0  0
  9 14  1  0  0  0  0
 10 11  1  0  0  0  0
 11 12  2  0  0  0  0
 12 13  1  0  0  0  0
 13 14  2  0  0  0  0
M  END
> <ID>
16110

> <Formula>
C11H14ClNO

> <FW>
211.688

> <DSSTox_CID>
31497

> <DSSTox_RID>
97382

> <DSSTox_GSID>
57708

> <DSSTox_FileID_Sort>
8449

> <TS_ChemName>
Fenaclon

> <TS_ChemName_Synonyms>


> <TS_CASRN>
306-20-7

> <CASRN_ChemName_Relationship>
primary

> <TS_Description>
single chemical compound

> <ChemNote>


> <STRUCTURE_Shown>
tested chemical

> <STRUCTURE_Formula>
C11H14ClNO

> <STRUCTURE_MW>
211.688

> <STRUCTURE_ChemType>
defined organic

> <STRUCTURE_DefinedOrganicForm>
parent

> <STRUCTURE_IUPAC>
3-chloro-N-(2-phenylethyl)propanamide

> <STRUCTURE_SMILES>
ClCCC(=O)NCCc1ccccc1

> <STRUCTURE_SMILES_Desalt>
ClCCC(=O)NCCc1ccccc1

> <Substance_modify_yyyymmdd>
20131121

$$$$
