3060-89-7
ChemmineR-0915142007XD

 14 14  0  0  0  0  0  0  0  0  1 V2000
    5.7492   -2.0025    0.0000 C    0  0  0  0  0  0  0  0  0  0  0  0
    4.5957   -1.3289    0.0000 N    0  0  0  0  0  0  0  0  0  0  0  0
    6.9027   -1.3289    0.0000 N    0  0  0  0  0  0  0  0  0  0  0  0
    5.7492   -3.3129    0.0000 O    0  0  0  0  0  0  0  0  0  0  0  0
    3.4791   -2.0025    0.0000 C    0  0  0  0  0  0  0  0  0  0  0  0
    1.1812   -3.3129    0.0000 C    0  0  0  0  0  0  0  0  0  0  0  0
    8.0470   -2.0025    0.0000 O    0  0  0  0  0  0  0  0  0  0  0  0
    0.0000   -4.0051    0.0000 Br   0  0  0  0  0  0  0  0  0  0  0  0
    2.3348   -1.3289    0.0000 C    0  0  0  0  0  0  0  0  0  0  0  0
    3.4791   -3.3129    0.0000 C    0  0  0  0  0  0  0  0  0  0  0  0
    1.1812   -2.0025    0.0000 C    0  0  0  0  0  0  0  0  0  0  0  0
    2.3348   -3.9774    0.0000 C    0  0  0  0  0  0  0  0  0  0  0  0
    6.9027    0.0000    0.0000 C    0  0  0  0  0  0  0  0  0  0  0  0
    9.2283   -1.3104    0.0000 C    0  0  0  0  0  0  0  0  0  0  0  0
  1  2  1  0  0  0  0
  1  3  1  0  0  0  0
  1  4  2  0  0  0  0
  2  5  1  0  0  0  0
  3  7  1  0  0  0  0
  3 13  1  0  0  0  0
  5  9  1  0  0  0  0
  5 10  2  0  0  0  0
  6 12  2  0  0  0  0
  6  8  1  0  0  0  0
  6 11  1  0  0  0  0
  7 14  1  0  0  0  0
  9 11  2  0  0  0  0
 10 12  1  0  0  0  0
M  END
> <ID>
9087

> <Formula>
C9H11BrN2O2

> <FW>
259.0998

> <DSSTox_CID>
22157

> <DSSTox_RID>
79940

> <DSSTox_GSID>
42157

> <DSSTox_FileID_Sort>
4622

> <TS_ChemName>
Metobromuron

> <TS_ChemName_Synonyms>


> <TS_CASRN>
3060-89-7

> <CASRN_ChemName_Relationship>
primary

> <TS_Description>
single chemical compound

> <ChemNote>


> <STRUCTURE_Shown>
tested chemical

> <STRUCTURE_Formula>
C9H11BrN2O2

> <STRUCTURE_MW>
259.0998

> <STRUCTURE_ChemType>
defined organic

> <STRUCTURE_DefinedOrganicForm>
parent

> <STRUCTURE_IUPAC>
3-(4-bromophenyl)-1-methoxy-1-methylurea

> <STRUCTURE_SMILES>
Brc1ccc(NC(=O)N(C)OC)cc1

> <STRUCTURE_SMILES_Desalt>
Brc1ccc(NC(=O)N(C)OC)cc1

> <Substance_modify_yyyymmdd>
20080825

$$$$
