30652-11-0
ChemmineR-0915142007XD

 10 10  0  0  0  0  0  0  0  0  1 V2000
    1.3274   -2.3046    0.0000 C   0  0  0  0  0  0  0  0  0  0  0  0
    1.9958   -1.1523    0.0000 C   0  0  0  0  0  0  0  0  0  0  0  0
    1.9958   -3.4569    0.0000 C   0  0  0  0  0  0  0  0  0  0  0  0
    0.0000   -2.3046    0.0000 O   0  0  0  0  0  0  0  0  0  0  0  0
    3.3232   -1.1523    0.0000 N   0  0  0  0  0  0  0  0  0  0  0  0
    1.3274    0.0000    0.0000 C   0  0  0  0  0  0  0  0  0  0  0  0
    3.3232   -3.4569    0.0000 C   0  0  0  0  0  0  0  0  0  0  0  0
    1.3274   -4.6092    0.0000 O   0  0  0  0  0  0  0  0  0  0  0  0
    3.9869   -2.3046    0.0000 C   0  0  0  0  0  0  0  0  0  0  0  0
    3.9869    0.0000    0.0000 C   0  0  0  0  0  0  0  0  0  0  0  0
  1  2  2  0  0  0  0
  1  3  1  0  0  0  0
  1  4  1  0  0  0  0
  2  5  1  0  0  0  0
  2  6  1  0  0  0  0
  3  7  1  0  0  0  0
  3  8  2  0  0  0  0
  5  9  1  0  0  0  0
  5 10  1  0  0  0  0
  7  9  2  0  0  0  0
M  END
> <ID>
7867

> <Formula>
C7H9NO2

> <FW>
139.1519

> <DSSTox_CID>
20666

> <DSSTox_RID>
79529

> <DSSTox_GSID>
40666

> <DSSTox_FileID_Sort>
4211

> <TS_ChemName>
Deferiprone

> <TS_ChemName_Synonyms>


> <TS_CASRN>
30652-11-0

> <CASRN_ChemName_Relationship>
primary

> <TS_Description>
single chemical compound

> <ChemNote>
tautomers

> <STRUCTURE_Shown>
tested chemical

> <STRUCTURE_Formula>
C7H9NO2

> <STRUCTURE_MW>
139.1519

> <STRUCTURE_ChemType>
defined organic

> <STRUCTURE_DefinedOrganicForm>
parent

> <STRUCTURE_IUPAC>
3-hydroxy-1,2-dimethylpyridin-4(1H)-one

> <STRUCTURE_SMILES>
OC1=C(C)N(C)C=CC1=O

> <STRUCTURE_SMILES_Desalt>
OC1=C(C)N(C)C=CC1=O

> <Substance_modify_yyyymmdd>
20080429

$$$$
