3068-88-0
ChemmineR-0915142007XD

  6  6  0  0  0  0  0  0  0  0  1 V2000
    0.0000   -0.9402    0.0000 C   0  0  0  0  0  0  0  0  0  0  0  0
    1.3308   -0.9402    0.0000 C   0  0  0  0  0  0  0  0  0  0  0  0
    2.2710    0.0000    0.0000 C   0  0  0  0  0  0  0  0  0  0  0  0
    3.2111   -0.9402    0.0000 C   0  0  0  0  0  0  0  0  0  0  0  0
    4.5419   -0.9402    0.0000 O   0  0  0  0  0  0  0  0  0  0  0  0
    2.2710   -1.8804    0.0000 O   0  0  0  0  0  0  0  0  0  0  0  0
  1  2  1  0  0  0  0
  2  3  1  0  0  0  0
  2  6  1  0  0  0  0
  3  4  1  0  0  0  0
  4  5  2  0  0  0  0
  4  6  1  0  0  0  0
M  END
> <ID>
219

> <Formula>
C4H6O2

> <FW>
86.0892

> <DSSTox_CID>
223

> <DSSTox_RID>
75444

> <DSSTox_GSID>
20223

> <DSSTox_FileID_Sort>
128

> <TS_ChemName>
beta-Butyrolactone

> <TS_ChemName_Synonyms>


> <TS_CASRN>
3068-88-0

> <CASRN_ChemName_Relationship>
primary

> <TS_Description>
single chemical compound

> <ChemNote>


> <STRUCTURE_Shown>
tested chemical

> <STRUCTURE_Formula>
C4H6O2

> <STRUCTURE_MW>
86.0892

> <STRUCTURE_ChemType>
defined organic

> <STRUCTURE_DefinedOrganicForm>
parent

> <STRUCTURE_IUPAC>
4-methyloxetan-2-one

> <STRUCTURE_SMILES>
O=C1CC(C)O1

> <STRUCTURE_SMILES_Desalt>
O=C1CC(C)O1

> <Substance_modify_yyyymmdd>
20080429

$$$$
