30685-43-9
ChemmineR-0915142007XD

 59 66  0  0  1  0  0  0  0  0  1 V2000
   12.6763   -4.1995    0.0000 O   0  0  0  0  0  0  0  0  0  0  0  0
   12.6763   -5.5216    0.0000 C   0  0  0  0  0  0  0  0  0  0  0  0
   13.8428   -6.1956    0.0000 C   0  0  0  0  0  0  0  0  0  0  0  0
   13.8428   -7.5176    0.0000 C   0  0  0  0  0  0  0  0  0  0  0  0
   12.6763   -8.1916    0.0000 O   0  0  0  0  0  0  0  0  0  0  0  0
   11.5357   -7.5176    0.0000 C   0  0  0  0  0  0  0  0  0  0  0  0
   10.3692   -8.1916    0.0000 C   0  0  0  0  0  0  0  0  0  0  0  0
   11.5357   -6.1956    0.0000 C   0  0  0  0  0  0  0  0  0  0  0  0
   10.3692   -5.5216    0.0000 O   0  0  0  0  0  0  0  0  0  0  0  0
    9.2286   -6.1956    0.0000 C   0  0  0  0  0  0  0  0  0  0  0  0
    9.2286   -7.5176    0.0000 O   0  0  0  0  0  0  0  0  0  0  0  0
    8.0620   -8.1916    0.0000 C   0  0  0  0  0  0  0  0  0  0  0  0
    8.0620   -9.5137    0.0000 C   0  0  0  0  0  0  0  0  0  0  0  0
    6.9214   -7.5176    0.0000 C   0  0  0  0  0  0  0  0  0  0  0  0
    5.7549   -8.1916    0.0000 O   0  0  0  0  0  0  0  0  0  0  0  0
    4.6143   -7.5176    0.0000 C   0  0  0  0  0  0  0  0  0  0  0  0
    3.4477   -8.1916    0.0000 C   0  0  0  0  0  0  0  0  0  0  0  0
    2.3071   -7.5176    0.0000 C   0  0  0  0  0  0  0  0  0  0  0  0
    1.1406   -8.1916    0.0000 O   0  0  0  0  0  0  0  0  0  0  0  0
    2.3071   -6.1956    0.0000 C   0  0  0  0  0  0  0  0  0  0  0  0
    1.1406   -5.5216    0.0000 O   0  0  0  0  0  0  0  0  0  0  0  0
    0.0000   -6.1956    0.0000 C   0  0  0  0  0  0  0  0  0  0  0  0
    3.4477   -5.5216    0.0000 C   0  0  0  0  0  0  0  0  0  0  0  0
    3.4477   -4.1995    0.0000 C   0  0  0  0  0  0  0  0  0  0  0  0
    4.6143   -6.1956    0.0000 O   0  0  0  0  0  0  0  0  0  0  0  0
    6.9214   -6.1956    0.0000 C   0  0  0  0  0  0  0  0  0  0  0  0
    5.7549   -5.5216    0.0000 O   0  0  0  0  0  0  0  0  0  0  0  0
    8.0620   -5.5216    0.0000 C   0  0  0  0  0  0  0  0  0  0  0  0
   14.9834   -8.1916    0.0000 O   0  0  0  0  0  0  0  0  0  0  0  0
   16.1500   -7.5176    0.0000 C   0  0  0  0  0  0  0  0  0  0  0  0
   16.1500   -6.1956    0.0000 C   0  0  0  0  0  0  0  0  0  0  0  0
   17.2906   -5.5216    0.0000 C   0  0  0  0  0  0  0  0  0  0  0  0
   18.4571   -6.1956    0.0000 C   0  0  0  0  0  0  0  0  0  0  0  0
   18.4830   -4.7180    0.0000 C   0  0  0  0  0  0  0  0  0  0  0  0
   18.4571   -7.5176    0.0000 C   0  0  0  0  0  0  0  0  0  0  0  0
   19.5977   -8.1916    0.0000 C   0  0  0  0  0  0  0  0  0  0  0  0
   20.7383   -7.5176    0.0000 C   0  0  0  0  0  0  0  0  0  0  0  0
   20.7383   -6.1956    0.0000 C   0  0  0  0  0  0  0  0  0  0  0  0
   20.7383   -5.1587    0.0000 H   0  0  0  0  0  0  0  0  0  0  0  0
   19.5977   -5.5216    0.0000 C   0  0  0  0  0  0  0  0  0  0  0  0
   19.6755   -6.7400    0.0000 H   0  0  0  0  0  0  0  0  0  0  0  0
   19.5977   -4.1995    0.0000 C   0  0  0  0  0  0  0  0  0  0  0  0
   20.7383   -3.5255    0.0000 C   0  0  0  0  0  0  0  0  0  0  0  0
   20.7383   -2.2034    0.0000 O   0  0  0  0  0  0  0  0  0  0  0  0
   21.9049   -4.1995    0.0000 C   0  0  0  0  0  0  0  0  0  0  0  0
   22.0345   -2.9034    0.0000 C   0  0  0  0  0  0  0  0  0  0  0  0
   21.9049   -5.5216    0.0000 C   0  0  0  0  0  0  0  0  0  0  0  0
   21.9567   -7.0510    0.0000 O   0  0  0  0  0  0  0  0  0  0  0  0
   23.1751   -5.9363    0.0000 C   0  0  0  0  0  0  0  0  0  0  0  0
   23.9528   -4.8476    0.0000 C   0  0  0  0  0  0  0  0  0  0  0  0
   23.1751   -3.7847    0.0000 C   0  0  0  0  0  0  0  0  0  0  0  0
   23.5898   -2.5145    0.0000 C   0  0  0  0  0  0  0  0  0  0  0  0
   22.7862   -1.4258    0.0000 C   0  0  0  0  0  0  0  0  0  0  0  0
   23.5898   -0.3629    0.0000 O   0  0  0  0  0  0  0  0  0  0  0  0
   24.8341   -2.0998    0.0000 C   0  0  0  0  0  0  0  0  0  0  0  0
   24.8341   -0.7777    0.0000 C   0  0  0  0  0  0  0  0  0  0  0  0
   25.9229    0.0000    0.0000 O   0  0  0  0  0  0  0  0  0  0  0  0
   18.4571   -8.8397    0.0000 H   0  0  0  0  0  0  0  0  0  0  0  0
   17.2906   -8.1916    0.0000 C   0  0  0  0  0  0  0  0  0  0  0  0
  2  1  1  1  0  0  0
  2  3  1  0  0  0  0
  2  8  1  0  0  0  0
  3  4  1  0  0  0  0
  4  5  1  0  0  0  0
  4 29  1  6  0  0  0
  5  6  1  0  0  0  0
  6  7  1  6  0  0  0
  6  8  1  0  0  0  0
  8  9  1  1  0  0  0
 10  9  1  6  0  0  0
 10 11  1  0  0  0  0
 10 28  1  0  0  0  0
 11 12  1  0  0  0  0
 12 13  1  6  0  0  0
 12 14  1  0  0  0  0
 14 15  1  1  0  0  0
 14 26  1  0  0  0  0
 16 15  1  1  0  0  0
 16 17  1  0  0  0  0
 16 25  1  0  0  0  0
 17 18  1  0  0  0  0
 18 19  1  6  0  0  0
 18 20  1  0  0  0  0
 20 21  1  6  0  0  0
 20 23  1  0  0  0  0
 21 22  1  0  0  0  0
 23 24  1  1  0  0  0
 23 25  1  0  0  0  0
 26 27  1  1  0  0  0
 26 28  1  0  0  0  0
 30 29  1  1  0  0  0
 30 31  1  0  0  0  0
 30 59  1  0  0  0  0
 31 32  1  0  0  0  0
 32 33  1  0  0  0  0
 33 34  1  1  0  0  0
 33 35  1  0  0  0  0
 33 40  1  0  0  0  0
 35 36  1  0  0  0  0
 35 58  1  1  0  0  0
 35 59  1  0  0  0  0
 36 37  1  0  0  0  0
 37 38  1  0  0  0  0
 38 39  1  1  0  0  0
 38 40  1  0  0  0  0
 38 47  1  0  0  0  0
 40 41  1  6  0  0  0
 40 42  1  0  0  0  0
 42 43  1  0  0  0  0
 43 44  1  1  0  0  0
 43 45  1  0  0  0  0
 45 46  1  1  0  0  0
 45 47  1  0  0  0  0
 45 51  1  0  0  0  0
 47 48  1  1  0  0  0
 47 49  1  0  0  0  0
 49 50  1  0  0  0  0
 50 51  1  0  0  0  0
 51 52  1  1  0  0  0
 52 53  1  0  0  0  0
 52 55  2  0  0  0  0
 53 54  1  0  0  0  0
 54 56  1  0  0  0  0
 55 56  1  0  0  0  0
 56 57  2  0  0  0  0
M  END
> <ID>
2957

> <Formula>
C42H66O14

> <FW>
794.965

> <DSSTox_CID>
3294

> <DSSTox_RID>
76961

> <DSSTox_GSID>
23294

> <DSSTox_FileID_Sort>
1645

> <TS_ChemName>
Methyldigoxin

> <TS_ChemName_Synonyms>


> <TS_CASRN>
30685-43-9

> <CASRN_ChemName_Relationship>
primary

> <TS_Description>
single chemical compound

> <ChemNote>
stereochem; tautomers

> <STRUCTURE_Shown>
tested chemical

> <STRUCTURE_Formula>
C42H66O14

> <STRUCTURE_MW>
794.965

> <STRUCTURE_ChemType>
defined organic

> <STRUCTURE_DefinedOrganicForm>
parent

> <STRUCTURE_IUPAC>
(3beta,5beta,12beta)-3-{[2,6-dideoxy-4-O-methyl-beta-D-ribo-hexopyranosyl-(1->4)-2,6-dideoxy-beta-D-ribo-hexopyranosyl-(1->4)-2,6-dideoxy-beta-D-ribo-hexopyranosyl]oxy}-12,14-dihydroxycard-20(22)-enolide

> <STRUCTURE_SMILES>
O=C1C=C(CO1)[C@H]2CC[C@@]8(O)[C@]2(C)[C@H](O)C[C@H]4[C@H]8CC[C@@H]3C[C@H](CC[C@@]34C)O[C@@H]7O[C@H](C)[C@@H](O[C@H]6C[C@H](O)[C@H](O[C@H]5C[C@H](O)[C@H](OC)[C@@H](C)O5)[C@@H](C)O6)[C@@H](O)C7

> <STRUCTURE_SMILES_Desalt>
O=C1C=C(CO1)[C@H]2CC[C@@]8(O)[C@]2(C)[C@H](O)C[C@H]4[C@H]8CC[C@@H]3C[C@H](CC[C@@]34C)O[C@@H]7O[C@H](C)[C@@H](O[C@H]6C[C@H](O)[C@H](O[C@H]5C[C@H](O)[C@H](OC)[C@@H](C)O5)[C@@H](C)O6)[C@@H](O)C7

> <Substance_modify_yyyymmdd>
20080429

$$$$
