3068-76-6
ChemmineR-0915142007XD

 17 17  0  0  0  0  0  0  0  0  1 V2000
    2.3116   -2.0110    0.0000 C    0  0  0  0  0  0  0  0  0  0  0  0
    2.3116   -0.6738    0.0000 C    0  0  0  0  0  0  0  0  0  0  0  0
    1.1506    0.0000    0.0000 C    0  0  0  0  0  0  0  0  0  0  0  0
    0.0000   -0.6738    0.0000 C    0  0  0  0  0  0  0  0  0  0  0  0
    0.0000   -2.0110    0.0000 C    0  0  0  0  0  0  0  0  0  0  0  0
    1.1506   -2.6640    0.0000 C    0  0  0  0  0  0  0  0  0  0  0  0
    3.4622   -2.6640    0.0000 N    0  0  0  0  0  0  0  0  0  0  0  0
    4.6024   -2.0110    0.0000 C    0  0  0  0  0  0  0  0  0  0  0  0
    5.7634   -2.6640    0.0000 C    0  0  0  0  0  0  0  0  0  0  0  0
    6.9036   -2.0110    0.0000 C    0  0  0  0  0  0  0  0  0  0  0  0
    8.0542   -2.6640    0.0000 Si   0  0  0  0  0  0  0  0  0  0  0  0
    7.4012   -3.8250    0.0000 O    0  0  0  0  0  0  0  0  0  0  0  0
    8.0749   -4.9756    0.0000 C    0  0  0  0  0  0  0  0  0  0  0  0
    8.7280   -1.5238    0.0000 O    0  0  0  0  0  0  0  0  0  0  0  0
    8.0542   -0.3732    0.0000 C    0  0  0  0  0  0  0  0  0  0  0  0
    9.2152   -3.3378    0.0000 O    0  0  0  0  0  0  0  0  0  0  0  0
   10.3658   -2.6640    0.0000 C    0  0  0  0  0  0  0  0  0  0  0  0
  1  2  2  0  0  0  0
  1  6  1  0  0  0  0
  1  7  1  0  0  0  0
  2  3  1  0  0  0  0
  3  4  2  0  0  0  0
  4  5  1  0  0  0  0
  5  6  2  0  0  0  0
  7  8  1  0  0  0  0
  8  9  1  0  0  0  0
  9 10  1  0  0  0  0
 10 11  1  0  0  0  0
 11 12  1  0  0  0  0
 11 14  1  0  0  0  0
 11 16  1  0  0  0  0
 12 13  1  0  0  0  0
 14 15  1  0  0  0  0
 16 17  1  0  0  0  0
M  END
> <ID>
10301

> <Formula>
C12H21NO3Si

> <FW>
255.3855

> <DSSTox_CID>
24648

> <DSSTox_RID>
80376

> <DSSTox_GSID>
44648

> <DSSTox_FileID_Sort>
5058

> <TS_ChemName>
N-[3-(Trimethoxysilyl)propyl]aniline

> <TS_ChemName_Synonyms>
N-[3-(Trimethoxysilyl)propyl]aniline (Benzenamine, N-[3-(trimethoxysilyl)propyl]-)

> <TS_CASRN>
3068-76-6

> <CASRN_ChemName_Relationship>
primary

> <TS_Description>
single chemical compound

> <ChemNote>


> <STRUCTURE_Shown>
tested chemical

> <STRUCTURE_Formula>
C12H21NO3Si

> <STRUCTURE_MW>
255.3855

> <STRUCTURE_ChemType>
organometallic

> <STRUCTURE_DefinedOrganicForm>


> <STRUCTURE_IUPAC>
N-[3-(trimethoxysilyl)propyl]aniline

> <STRUCTURE_SMILES>
CO[Si](OC)(OC)CCCNc1ccccc1

> <STRUCTURE_SMILES_Desalt>
CO[Si](OC)(OC)CCCNc1ccccc1

> <Substance_modify_yyyymmdd>
20091116

$$$$
