307492-75-7
ChemmineR-0915142007XD

 14 13  0  0  0  0  0  0  0  0  2 V2000
    4.0075   -5.1203    0.0000 C   0  0  0  0  0  0  0  0  0  0  0  0
    5.1981   -2.7469    0.0000 C   0  0  0  0  0  0  0  0  0  0  0  0
    4.3032    0.0000    0.0000 C   0  0  0  0  0  0  0  0  0  0  0  0
    2.8558   -4.4433    0.0000 C   0  0  0  0  0  0  0  0  0  0  0  0
    2.1788   -1.0739    0.0000 C   0  0  0  0  0  0  0  0  0  0  0  0
    1.7820   -2.3267    0.0000 C   0  0  0  0  0  0  0  0  0  0  0  0
    3.9297   -2.3423    0.0000 C   0  0  0  0  0  0  0  0  0  0  0  0
    3.5173   -1.0739    0.0000 N   0  3  0  0  0  0  0  0  0  0  0  0
    2.8558   -3.1126    0.0000 N   0  0  0  0  0  0  0  0  0  0  0  0
    1.3306   -6.4509    0.0000 B   0  5  0  0  0  0  0  0  0  0  0  0
    0.0000   -6.4509    0.0000 F   0  0  0  0  0  0  0  0  0  0  0  0
    1.3306   -7.7816    0.0000 F   0  0  0  0  0  0  0  0  0  0  0  0
    1.3306   -5.1203    0.0000 F   0  0  0  0  0  0  0  0  0  0  0  0
    2.6613   -6.4509    0.0000 F   0  0  0  0  0  0  0  0  0  0  0  0
  1  4  1  0  0  0  0
  2  7  1  0  0  0  0
  3  8  1  0  0  0  0
  4  9  1  0  0  0  0
  5  6  2  0  0  0  0
  5  8  1  0  0  0  0
  6  9  1  0  0  0  0
  7  8  2  0  0  0  0
  7  9  1  0  0  0  0
 10 11  1  0  0  0  0
 10 12  1  0  0  0  0
 10 13  1  0  0  0  0
 10 14  1  0  0  0  0
M  END
> <ID>
14129

> <Formula>
C7H13BF4N2

> <FW>
211.9961 (125.1910+86.8052)

> <DSSTox_CID>
29122

> <DSSTox_RID>
83341

> <DSSTox_GSID>
49266

> <DSSTox_FileID_Sort>
8016

> <TS_ChemName>
1-Ethyl-2,3-dimethylimidazolium tetrafluoroborate

> <TS_ChemName_Synonyms>


> <TS_CASRN>
307492-75-7

> <CASRN_ChemName_Relationship>
primary

> <TS_Description>
single chemical compound

> <ChemNote>


> <STRUCTURE_Shown>
tested chemical

> <STRUCTURE_Formula>
C7H13BF4N2

> <STRUCTURE_MW>
211.9961

> <STRUCTURE_ChemType>
defined organic

> <STRUCTURE_DefinedOrganicForm>
complex

> <STRUCTURE_IUPAC>
1-ethyl-2,3-dimethyl-1H-imidazol-3-ium tetrafluoroborate

> <STRUCTURE_SMILES>
C[n+]1ccn(CC)c1C.F[B-](F)(F)F

> <STRUCTURE_SMILES_Desalt>
C[n+]1ccn(CC)c1C

> <Substance_modify_yyyymmdd>
20111204

$$$$
