3077-12-1
ChemmineR-0915142007XD

 14 14  0  0  0  0  0  0  0  0  1 V2000
    0.6714   -1.1509    0.0000 C   0  0  0  0  0  0  0  0  0  0  0  0
    1.9981   -1.1509    0.0000 C   0  0  0  0  0  0  0  0  0  0  0  0
    0.0000    0.0000    0.0000 O   0  0  0  0  0  0  0  0  0  0  0  0
    1.9981   -3.4528    0.0000 C   0  0  0  0  0  0  0  0  0  0  0  0
    2.6695   -2.3018    0.0000 N   0  0  0  0  0  0  0  0  0  0  0  0
    5.9944   -3.4528    0.0000 C   0  0  0  0  0  0  0  0  0  0  0  0
    6.6658   -2.3018    0.0000 C   0  0  0  0  0  0  0  0  0  0  0  0
    5.9944   -1.1509    0.0000 C   0  0  0  0  0  0  0  0  0  0  0  0
    4.6676   -1.1509    0.0000 C   0  0  0  0  0  0  0  0  0  0  0  0
    3.9963   -2.3018    0.0000 C   0  0  0  0  0  0  0  0  0  0  0  0
    4.6676   -3.4528    0.0000 C   0  0  0  0  0  0  0  0  0  0  0  0
    7.9925   -2.3018    0.0000 C   0  0  0  0  0  0  0  0  0  0  0  0
    0.6714   -3.4528    0.0000 C   0  0  0  0  0  0  0  0  0  0  0  0
    0.0000   -4.6037    0.0000 O   0  0  0  0  0  0  0  0  0  0  0  0
  1  2  1  0  0  0  0
  1  3  1  0  0  0  0
  2  5  1  0  0  0  0
  4  5  1  0  0  0  0
  4 13  1  0  0  0  0
  5 10  1  0  0  0  0
  6 11  2  0  0  0  0
  6  7  1  0  0  0  0
  7  8  2  0  0  0  0
  7 12  1  0  0  0  0
  8  9  1  0  0  0  0
  9 10  2  0  0  0  0
 10 11  1  0  0  0  0
 13 14  1  0  0  0  0
M  END
> <ID>
10303

> <Formula>
C11H17NO2

> <FW>
195.2582

> <DSSTox_CID>
24650

> <DSSTox_RID>
80377

> <DSSTox_GSID>
44650

> <DSSTox_FileID_Sort>
5059

> <TS_ChemName>
2,2'-[(4-Methylphenyl)imino]diethanol

> <TS_ChemName_Synonyms>
2,2'-[(4-Methylphenyl)imino]diethanol (Ethanol, 2,2'-[(4-methylphenyl)imino]bis-)

> <TS_CASRN>
3077-12-1

> <CASRN_ChemName_Relationship>
primary

> <TS_Description>
single chemical compound

> <ChemNote>


> <STRUCTURE_Shown>
tested chemical

> <STRUCTURE_Formula>
C11H17NO2

> <STRUCTURE_MW>
195.2582

> <STRUCTURE_ChemType>
defined organic

> <STRUCTURE_DefinedOrganicForm>
parent

> <STRUCTURE_IUPAC>
2,2'-[(4-methylphenyl)imino]diethanol

> <STRUCTURE_SMILES>
OCCN(CCO)c1ccc(C)cc1

> <STRUCTURE_SMILES_Desalt>
OCCN(CCO)c1ccc(C)cc1

> <Substance_modify_yyyymmdd>
20091116

$$$$
