30781-73-8
ChemmineR-0915142007XD

  7  5  0  0  0  0  0  0  0  0  2 V2000
    2.0048   -0.0454    0.0000 C   0  0  0  0  0  0  0  0  0  0  0  0
    0.0000   -1.2003    0.0000 C   0  0  0  0  0  0  0  0  0  0  0  0
    1.3301   -1.2003    0.0000 N   0  0  0  0  0  0  0  0  0  0  0  0
    5.8134   -1.1354    0.0000 N   0  3  0  0  0  0  0  0  0  0  0  0
    6.4752   -2.2903    0.0000 O   0  0  0  0  0  0  0  0  0  0  0  0
    6.4882    0.0000    0.0000 O   0  0  0  0  0  0  0  0  0  0  0  0
    4.4833   -1.1030    0.0000 O   0  5  0  0  0  0  0  0  0  0  0  0
  1  3  1  0  0  0  0
  2  3  1  0  0  0  0
  4  5  1  0  0  0  0
  4  6  2  0  0  0  0
  4  7  1  0  0  0  0
M  END
> <ID>
12978

> <Formula>
C2H8N2O3

> <FW>
108.0965 (45.0837+63.0128)

> <DSSTox_CID>
27879

> <DSSTox_RID>
82632

> <DSSTox_GSID>
47903

> <DSSTox_FileID_Sort>
7309

> <TS_ChemName>
Dimethylammonium nitrate

> <TS_ChemName_Synonyms>


> <TS_CASRN>
30781-73-8

> <CASRN_ChemName_Relationship>
primary

> <TS_Description>
single chemical compound

> <ChemNote>
parent [124-40-3]

> <STRUCTURE_Shown>
tested chemical

> <STRUCTURE_Formula>
C2H8N2O3

> <STRUCTURE_MW>
108.0965

> <STRUCTURE_ChemType>
defined organic

> <STRUCTURE_DefinedOrganicForm>
salt

> <STRUCTURE_IUPAC>
N-methylmethanamine nitrate (1:1)

> <STRUCTURE_SMILES>
CNC.[O-][N+](=O)O

> <STRUCTURE_SMILES_Desalt>
[O-][N+](=O)O

> <Substance_modify_yyyymmdd>
20110417

$$$$
