3085-30-1
ChemmineR-0915142007XD

 16 15  0  0  0  0  0  0  0  0  1 V2000
    2.3145   -6.6542    0.0000 C    0  0  0  0  0  0  0  0  0  0  0  0
    2.3145   -7.9910    0.0000 C    0  0  0  0  0  0  0  0  0  0  0  0
    1.1573   -8.6495    0.0000 C    0  0  0  0  0  0  0  0  0  0  0  0
    1.1573   -9.9763    0.0000 C    0  0  0  0  0  0  0  0  0  0  0  0
    3.4618   -5.9858    0.0000 O    0  0  0  0  0  0  0  0  0  0  0  0
    2.3145   -2.6637    0.0000 C    0  0  0  0  0  0  0  0  0  0  0  0
    1.1573   -1.9853    0.0000 C    0  0  0  0  0  0  0  0  0  0  0  0
    1.1573   -0.6584    0.0000 C    0  0  0  0  0  0  0  0  0  0  0  0
    0.0000    0.0000    0.0000 C    0  0  0  0  0  0  0  0  0  0  0  0
    2.3145   -3.9905    0.0000 O    0  0  0  0  0  0  0  0  0  0  0  0
    3.4618   -4.6490    0.0000 Al   0  0  0  0  0  0  0  0  0  0  0  0
    4.6190   -2.6637    0.0000 C    0  0  0  0  0  0  0  0  0  0  0  0
    5.7563   -1.9853    0.0000 C    0  0  0  0  0  0  0  0  0  0  0  0
    5.7563   -0.6584    0.0000 C    0  0  0  0  0  0  0  0  0  0  0  0
    6.9136    0.0000    0.0000 C    0  0  0  0  0  0  0  0  0  0  0  0
    4.6190   -3.9905    0.0000 O    0  0  0  0  0  0  0  0  0  0  0  0
  1  2  1  0  0  0  0
  1  5  1  0  0  0  0
  2  3  1  0  0  0  0
  3  4  1  0  0  0  0
  5 11  1  0  0  0  0
  6  7  1  0  0  0  0
  6 10  1  0  0  0  0
  7  8  1  0  0  0  0
  8  9  1  0  0  0  0
 10 11  1  0  0  0  0
 11 16  1  0  0  0  0
 12 13  1  0  0  0  0
 12 16  1  0  0  0  0
 13 14  1  0  0  0  0
 14 15  1  0  0  0  0
M  END
> <ID>
5213

> <Formula>
C12H27AlO3

> <FW>
246.3225

> <DSSTox_CID>
7518

> <DSSTox_RID>
78484

> <DSSTox_GSID>
27518

> <DSSTox_FileID_Sort>
3167

> <TS_ChemName>
Aluminum tributoxide

> <TS_ChemName_Synonyms>
Aluminum tributoxide (1-Butanol, aluminum salt)

> <TS_CASRN>
3085-30-1

> <CASRN_ChemName_Relationship>
primary

> <TS_Description>
single chemical compound

> <ChemNote>


> <STRUCTURE_Shown>
tested chemical

> <STRUCTURE_Formula>
C12H27AlO3

> <STRUCTURE_MW>
246.3225

> <STRUCTURE_ChemType>
organometallic

> <STRUCTURE_DefinedOrganicForm>


> <STRUCTURE_IUPAC>
aluminium tributan-1-olate

> <STRUCTURE_SMILES>
CCCCO[Al](OCCCC)OCCCC

> <STRUCTURE_SMILES_Desalt>
CCCCO[Al](OCCCC)OCCCC

> <Substance_modify_yyyymmdd>
20080429

$$$$
