3087-16-9
ChemmineR-0915142007XD

 39 41  0  0  0  0  0  0  0  0  2 V2000
    1.1565   -5.9951    0.0000 S    0  0  0  0  0  0  0  0  0  0  0  0
    2.2864   -6.6464    0.0000 C    0  0  0  0  0  0  0  0  0  0  0  0
    4.5993  -11.9636    0.0000 S    0  0  0  0  0  0  0  0  0  0  0  0
    4.5993   -6.6464    0.0000 C    0  0  0  0  0  0  0  0  0  0  0  0
    3.4562   -5.9951    0.0000 C    0  0  0  0  0  0  0  0  0  0  0  0
    5.7691   -5.9685    0.0000 C    0  0  0  0  0  0  0  0  0  0  0  0
    3.4562   -8.6271    0.0000 C    0  0  0  0  0  0  0  0  0  0  0  0
    2.2864   -7.9757    0.0000 C    0  0  0  0  0  0  0  0  0  0  0  0
    4.5993   -7.9757    0.0000 C    0  0  0  0  0  0  0  0  0  0  0  0
    5.7691   -4.6658    0.0000 C    0  0  0  0  0  0  0  0  0  0  0  0
    5.7691   -0.6779    0.0000 N    0  3  0  0  0  0  0  0  0  0  0  0
    4.5993  -10.6343    0.0000 C    0  0  0  0  0  0  0  0  0  0  0  0
    5.7691   -2.0072    0.0000 C    0  0  0  0  0  0  0  0  0  0  0  0
    4.5993   -3.9879    0.0000 C    0  0  0  0  0  0  0  0  0  0  0  0
    6.8990   -3.9879    0.0000 C    0  0  0  0  0  0  0  0  0  0  0  0
    6.8990   -2.6586    0.0000 C    0  0  0  0  0  0  0  0  0  0  0  0
    4.5993   -2.6586    0.0000 C    0  0  0  0  0  0  0  0  0  0  0  0
    3.4562   -9.9830    0.0000 C    0  0  0  0  0  0  0  0  0  0  0  0
    1.8078   -4.8253    0.0000 O    0  5  0  0  0  0  0  0  0  0  0  0
    3.2701  -11.9636    0.0000 O    0  5  0  0  0  0  0  0  0  0  0  0
    0.4785   -7.1383    0.0000 O    0  0  0  0  0  0  0  0  0  0  0  0
    0.0000   -5.3172    0.0000 O    0  0  0  0  0  0  0  0  0  0  0  0
    5.7691   -8.6271    0.0000 C    0  0  0  0  0  0  0  0  0  0  0  0
    5.9286  -11.9636    0.0000 O    0  0  0  0  0  0  0  0  0  0  0  0
    4.5993  -13.2929    0.0000 O    0  0  0  0  0  0  0  0  0  0  0  0
    6.8990   -6.6464    0.0000 C    0  0  0  0  0  0  0  0  0  0  0  0
    9.2120   -7.9757    0.0000 C    0  0  0  0  0  0  0  0  0  0  0  0
    5.7691   -9.9830    0.0000 C    0  0  0  0  0  0  0  0  0  0  0  0
   10.3685   -8.6271    0.0000 N    0  0  0  0  0  0  0  0  0  0  0  0
    8.0555   -5.9685    0.0000 C    0  0  0  0  0  0  0  0  0  0  0  0
    6.8990   -7.9757    0.0000 C    0  0  0  0  0  0  0  0  0  0  0  0
    8.0555   -8.6271    0.0000 C    0  0  0  0  0  0  0  0  0  0  0  0
    9.2120   -6.6464    0.0000 C    0  0  0  0  0  0  0  0  0  0  0  0
    3.4562   -4.6658    0.0000 O    0  0  0  0  0  0  0  0  0  0  0  0
    4.5993    0.0000    0.0000 C    0  0  0  0  0  0  0  0  0  0  0  0
    6.8990    0.0000    0.0000 C    0  0  0  0  0  0  0  0  0  0  0  0
   11.4983   -7.9757    0.0000 C    0  0  0  0  0  0  0  0  0  0  0  0
   10.3685   -9.9564    0.0000 C    0  0  0  0  0  0  0  0  0  0  0  0
    1.6882  -12.5618    0.0000 Na   0  3  0  0  0  0  0  0  0  0  0  0
  1  2  1  0  0  0  0
  1 19  1  0  0  0  0
  1 21  2  0  0  0  0
  1 22  2  0  0  0  0
  2  5  2  0  0  0  0
  2  8  1  0  0  0  0
  3 12  1  0  0  0  0
  3 20  1  0  0  0  0
  3 24  2  0  0  0  0
  3 25  2  0  0  0  0
  4  5  1  0  0  0  0
  4  6  1  0  0  0  0
  4  9  2  0  0  0  0
  5 34  1  0  0  0  0
  6 10  2  0  0  0  0
  6 26  1  0  0  0  0
  7  8  2  0  0  0  0
  7  9  1  0  0  0  0
  7 18  1  0  0  0  0
  9 23  1  0  0  0  0
 10 14  1  0  0  0  0
 10 15  1  0  0  0  0
 11 13  2  0  0  0  0
 11 35  1  0  0  0  0
 11 36  1  0  0  0  0
 12 18  2  0  0  0  0
 12 28  1  0  0  0  0
 13 16  1  0  0  0  0
 13 17  1  0  0  0  0
 14 17  2  0  0  0  0
 15 16  2  0  0  0  0
 23 28  2  0  0  0  0
 26 30  2  0  0  0  0
 26 31  1  0  0  0  0
 27 32  1  0  0  0  0
 27 29  1  0  0  0  0
 27 33  2  0  0  0  0
 29 37  1  0  0  0  0
 29 38  1  0  0  0  0
 30 33  1  0  0  0  0
 31 32  2  0  0  0  0
M  END
> <ID>
11802

> <Formula>
C27H25N2NaO7S2

> <FW>
576.6164 (553.6271+22.9892)

> <DSSTox_CID>
26577

> <DSSTox_RID>
81736

> <DSSTox_GSID>
46577

> <DSSTox_FileID_Sort>
6417

> <TS_ChemName>
Acid green 50

> <TS_ChemName_Synonyms>


> <TS_CASRN>
3087-16-9

> <CASRN_ChemName_Relationship>
primary

> <TS_Description>
single chemical compound

> <ChemNote>
C.I. 44090; parent [25317-10-6]

> <STRUCTURE_Shown>
tested chemical

> <STRUCTURE_Formula>
C27H25N2NaO7S2

> <STRUCTURE_MW>
576.6164

> <STRUCTURE_ChemType>
defined organic

> <STRUCTURE_DefinedOrganicForm>
salt

> <STRUCTURE_IUPAC>
sodium 4-{[4-(dimethylamino)phenyl][4-(dimethyliminio)cyclohexa-2,5-dien-1-ylidene]methyl}-3-hydroxynaphthalene-2,7-disulfonate

> <STRUCTURE_SMILES>
[Na+].C/[N+](C)=C1\C=C\C(C=C1)=C(/c2c3ccc(cc3cc(c2O)S([O-])(=O)=O)S([O-])(=O)=O)c4ccc(cc4)N(C)C

> <STRUCTURE_SMILES_Desalt>
C/[N+](C)=C1\C=C\C(C=C1)=C(/c2c3ccc(cc3cc(c2O)S(=O)(=O)O)S(=O)(=O)O)c4ccc(cc4)N(C)C

> <Substance_modify_yyyymmdd>
20110810

$$$$
