3089-11-0
ChemmineR-0915142007XD

 27 27  0  0  0  0  0  0  0  0  1 V2000
    5.7654   -6.6572    0.0000 N   0  0  0  0  0  0  0  0  0  0  0  0
    4.6144   -5.9935    0.0000 C   0  0  0  0  0  0  0  0  0  0  0  0
    4.6144   -4.6662    0.0000 N   0  0  0  0  0  0  0  0  0  0  0  0
    5.7654   -3.9922    0.0000 C   0  0  0  0  0  0  0  0  0  0  0  0
    6.9268   -4.6662    0.0000 N   0  0  0  0  0  0  0  0  0  0  0  0
    6.9268   -5.9935    0.0000 C   0  0  0  0  0  0  0  0  0  0  0  0
    3.4634   -6.6572    0.0000 N   0  0  0  0  0  0  0  0  0  0  0  0
    5.7654   -2.6649    0.0000 N   0  0  0  0  0  0  0  0  0  0  0  0
    8.0778   -6.6572    0.0000 N   0  0  0  0  0  0  0  0  0  0  0  0
    2.3124   -5.9935    0.0000 C   0  0  0  0  0  0  0  0  0  0  0  0
    1.1510   -6.6572    0.0000 O   0  0  0  0  0  0  0  0  0  0  0  0
    0.0000   -5.9935    0.0000 C   0  0  0  0  0  0  0  0  0  0  0  0
    3.4634   -7.9844    0.0000 C   0  0  0  0  0  0  0  0  0  0  0  0
    4.6144   -8.6585    0.0000 O   0  0  0  0  0  0  0  0  0  0  0  0
    4.6144   -9.9857    0.0000 C   0  0  0  0  0  0  0  0  0  0  0  0
    6.9268   -2.0013    0.0000 C   0  0  0  0  0  0  0  0  0  0  0  0
    6.9268   -0.6740    0.0000 O   0  0  0  0  0  0  0  0  0  0  0  0
    8.0778    0.0000    0.0000 C   0  0  0  0  0  0  0  0  0  0  0  0
    4.6144   -2.0013    0.0000 C   0  0  0  0  0  0  0  0  0  0  0  0
    3.4634   -2.6649    0.0000 O   0  0  0  0  0  0  0  0  0  0  0  0
    2.3124   -2.0013    0.0000 C   0  0  0  0  0  0  0  0  0  0  0  0
    9.2184   -5.9935    0.0000 C   0  0  0  0  0  0  0  0  0  0  0  0
    9.2184   -4.6662    0.0000 O   0  0  0  0  0  0  0  0  0  0  0  0
   10.3694   -3.9922    0.0000 C   0  0  0  0  0  0  0  0  0  0  0  0
    8.0778   -7.9844    0.0000 C   0  0  0  0  0  0  0  0  0  0  0  0
    9.2184   -8.6585    0.0000 O   0  0  0  0  0  0  0  0  0  0  0  0
    9.2184   -9.9857    0.0000 C   0  0  0  0  0  0  0  0  0  0  0  0
  1  2  2  0  0  0  0
  1  6  1  0  0  0  0
  2  3  1  0  0  0  0
  2  7  1  0  0  0  0
  3  4  2  0  0  0  0
  4  5  1  0  0  0  0
  4  8  1  0  0  0  0
  5  6  2  0  0  0  0
  6  9  1  0  0  0  0
  7 10  1  0  0  0  0
  7 13  1  0  0  0  0
  8 16  1  0  0  0  0
  8 19  1  0  0  0  0
  9 22  1  0  0  0  0
  9 25  1  0  0  0  0
 10 11  1  0  0  0  0
 11 12  1  0  0  0  0
 13 14  1  0  0  0  0
 14 15  1  0  0  0  0
 16 17  1  0  0  0  0
 17 18  1  0  0  0  0
 19 20  1  0  0  0  0
 20 21  1  0  0  0  0
 22 23  1  0  0  0  0
 23 24  1  0  0  0  0
 25 26  1  0  0  0  0
 26 27  1  0  0  0  0
M  END
> <ID>
5215

> <Formula>
C15H30N6O6

> <FW>
390.4353

> <DSSTox_CID>
7520

> <DSSTox_RID>
78485

> <DSSTox_GSID>
27520

> <DSSTox_FileID_Sort>
3168

> <TS_ChemName>
N,N,N',N',N'',N''-Hexakis(methoxymethyl)-1,3,5-triazine-2,4,6-triamine

> <TS_ChemName_Synonyms>


> <TS_CASRN>
3089-11-0

> <CASRN_ChemName_Relationship>
primary

> <TS_Description>
single chemical compound

> <ChemNote>


> <STRUCTURE_Shown>
tested chemical

> <STRUCTURE_Formula>
C15H30N6O6

> <STRUCTURE_MW>
390.4353

> <STRUCTURE_ChemType>
defined organic

> <STRUCTURE_DefinedOrganicForm>
parent

> <STRUCTURE_IUPAC>
N,N,N',N',N'',N''-hexakis(methoxymethyl)-1,3,5-triazine-2,4,6-triamine

> <STRUCTURE_SMILES>
COCN(COC)c1nc(nc(n1)N(COC)COC)N(COC)COC

> <STRUCTURE_SMILES_Desalt>
COCN(COC)c1nc(nc(n1)N(COC)COC)N(COC)COC

> <Substance_modify_yyyymmdd>
20080429

$$$$
