3092-17-9
ChemmineR-0915142007XD

 19 18  0  0  0  0  0  0  0  0  1 V2000
    4.6323   -2.0151    0.0000 C    0  0  0  0  0  0  0  0  0  0  0  0
    9.2762   -2.0845    0.0000 C    0  0  0  0  0  0  0  0  0  0  0  0
    4.6323   -0.6948    0.0000 C    0  0  0  0  0  0  0  0  0  0  0  0
    3.4974   -2.6752    0.0000 C    0  0  0  0  0  0  0  0  0  0  0  0
    8.0950   -2.7215    0.0000 N    0  0  0  0  0  0  0  0  0  0  0  0
    5.7904   -2.7099    0.0000 C    0  0  0  0  0  0  0  0  0  0  0  0
    9.2762   -0.7991    0.0000 O    0  0  0  0  0  0  0  0  0  0  0  0
    6.9601   -2.0382    0.0000 C    0  0  0  0  0  0  0  0  0  0  0  0
    3.4974   -0.0463    0.0000 C    0  0  0  0  0  0  0  0  0  0  0  0
    2.3625   -2.0151    0.0000 C    0  0  0  0  0  0  0  0  0  0  0  0
    2.3625   -0.6948    0.0000 C    0  0  0  0  0  0  0  0  0  0  0  0
   11.5808   -2.1540    0.0000 N    0  0  0  0  0  0  0  0  0  0  0  0
    5.7904    0.0000    0.0000 O    0  0  0  0  0  0  0  0  0  0  0  0
    5.7904   -4.0417    0.0000 O    0  0  0  0  0  0  0  0  0  0  0  0
   10.3996   -2.7910    0.0000 C    0  0  0  0  0  0  0  0  0  0  0  0
    1.1697   -2.6983    0.0000 O    0  0  0  0  0  0  0  0  0  0  0  0
    6.9485   -0.6717    0.0000 C    0  0  0  0  0  0  0  0  0  0  0  0
    0.0000   -2.0382    0.0000 C    0  0  0  0  0  0  0  0  0  0  0  0
    2.0266   -4.0301    0.0000 Cl   0  0  0  0  0  0  0  0  0  0  0  0
  1  3  1  0  0  0  0
  1  4  2  0  0  0  0
  1  6  1  0  0  0  0
  2  5  1  0  0  0  0
  2  7  2  0  0  0  0
  2 15  1  0  0  0  0
  3  9  2  0  0  0  0
  3 13  1  0  0  0  0
  4 10  1  0  0  0  0
  5  8  1  0  0  0  0
  6  8  1  0  0  0  0
  6 14  1  0  0  0  0
  9 11  1  0  0  0  0
 10 11  2  0  0  0  0
 10 16  1  0  0  0  0
 12 15  1  0  0  0  0
 13 17  1  0  0  0  0
 16 18  1  0  0  0  0
M  END
> <ID>
12623

> <Formula>
C12H19ClN2O4

> <FW>
290.7433 (254.2823+36.4609)

> <DSSTox_CID>
27493

> <DSSTox_RID>
82380

> <DSSTox_GSID>
47493

> <DSSTox_FileID_Sort>
7061

> <TS_ChemName>
Midodrine hydrochloride

> <TS_ChemName_Synonyms>
Midodrine HCl

> <TS_CASRN>
3092-17-9

> <CASRN_ChemName_Relationship>
primary

> <TS_Description>
single chemical compound

> <ChemNote>
parent [42794-76-3]

> <STRUCTURE_Shown>
tested chemical

> <STRUCTURE_Formula>
C12H19ClN2O4

> <STRUCTURE_MW>
290.7433

> <STRUCTURE_ChemType>
defined organic

> <STRUCTURE_DefinedOrganicForm>
complex

> <STRUCTURE_IUPAC>
N-[2-(2,5-dimethoxyphenyl)-2-hydroxyethyl]glycinamide hydrochloride (1:1)

> <STRUCTURE_SMILES>
Cl.COc1ccc(cc1C(O)CNC(=O)CN)OC

> <STRUCTURE_SMILES_Desalt>
COc1ccc(cc1C(O)CNC(=O)CN)OC

> <Substance_modify_yyyymmdd>
20100704

$$$$
