3093-35-4
ChemmineR-0915142007XD

 33 37  0  0  1  0  0  0  0  0  1 V2000
    8.1037   -2.7165    0.0000 C    0  0  0  0  0  0  0  0  0  0  0  0
    6.8658   -3.1062    0.0000 C    0  0  0  0  0  0  0  0  0  0  0  0
    4.5963   -4.4129    0.0000 C    0  0  0  0  0  0  0  0  0  0  0  0
    6.8658   -4.4129    0.0000 C    0  0  0  0  0  0  0  0  0  0  0  0
    3.4616   -5.0663    0.0000 C    0  0  0  0  0  0  0  0  0  0  0  0
    5.7655   -5.0663    0.0000 C    0  0  0  0  0  0  0  0  0  0  0  0
    8.8832   -3.7367    0.0000 C    0  0  0  0  0  0  0  0  0  0  0  0
    3.4616   -6.3730    0.0000 C    0  0  0  0  0  0  0  0  0  0  0  0
    8.8373   -1.5932    0.0000 O    0  0  0  0  0  0  0  0  0  0  0  0
    4.5963   -3.1062    0.0000 C    0  0  0  0  0  0  0  0  0  0  0  0
    5.7655   -2.4644    0.0000 C    0  0  0  0  0  0  0  0  0  0  0  0
   10.1784   -2.0059    0.0000 C    0  0  0  0  0  0  0  0  0  0  0  0
   10.1784   -3.2667    0.0000 O    0  0  0  0  0  0  0  0  0  0  0  0
    8.1037   -4.7797    0.0000 C    0  0  0  0  0  0  0  0  0  0  0  0
    8.1037   -0.8024    0.0000 C    0  0  0  0  0  0  0  0  0  0  0  0
    2.3154   -7.0263    0.0000 C    0  0  0  0  0  0  0  0  0  0  0  0
    5.7655   -6.3730    0.0000 C    0  0  0  0  0  0  0  0  0  0  0  0
    2.3154   -4.4129    0.0000 C    0  0  0  0  0  0  0  0  0  0  0  0
    4.5963   -7.0263    0.0000 C    0  0  0  0  0  0  0  0  0  0  0  0
    1.1806   -6.3730    0.0000 C    0  0  0  0  0  0  0  0  0  0  0  0
    4.5734   -5.5248    0.0000 F    0  0  0  0  0  0  0  0  0  0  0  0
    9.1468    0.0000    0.0000 O    0  0  0  0  0  0  0  0  0  0  0  0
    0.0000   -7.0378    0.0000 O    0  0  0  0  0  0  0  0  0  0  0  0
    6.8658   -1.8569    0.0000 C    0  0  0  0  0  0  0  0  0  0  0  0
    1.1806   -5.0663    0.0000 C    0  0  0  0  0  0  0  0  0  0  0  0
    3.4616   -2.4071    0.0000 O    0  0  0  0  0  0  0  0  0  0  0  0
    3.4616   -3.5762    0.0000 C    0  0  0  0  0  0  0  0  0  0  0  0
    6.9805   -0.1375    0.0000 C    0  0  0  0  0  0  0  0  0  0  0  0
    5.8572   -0.8024    0.0000 Cl   0  0  0  0  0  0  0  0  0  0  0  0
   10.1784   -0.6763    0.0000 C    0  0  0  0  0  0  0  0  0  0  0  0
   11.4622   -2.3956    0.0000 C    0  0  0  0  0  0  0  0  0  0  0  0
    6.8544   -5.7082    0.0000 H    0  0  0  0  0  0  0  0  0  0  0  0
    5.7655   -3.7367    0.0000 H    0  0  0  0  0  0  0  0  0  0  0  0
  1  2  1  0  0  0  0
  1  7  1  0  0  0  0
  1  9  1  6  0  0  0
  1 15  1  1  0  0  0
  2  4  1  0  0  0  0
  2 11  1  0  0  0  0
  2 24  1  1  0  0  0
  3 10  1  0  0  0  0
  3  5  1  0  0  0  0
  3 21  1  6  0  0  0
  3  6  1  0  0  0  0
  4  6  1  0  0  0  0
  4 32  1  6  0  0  0
  4 14  1  0  0  0  0
  5  8  1  0  0  0  0
  5 18  1  0  0  0  0
  5 27  1  1  0  0  0
  6 17  1  0  0  0  0
  6 33  1  1  0  0  0
  7 13  1  6  0  0  0
  7 14  1  0  0  0  0
  8 16  2  0  0  0  0
  8 19  1  0  0  0  0
  9 12  1  0  0  0  0
 10 11  1  0  0  0  0
 10 26  1  1  0  0  0
 12 30  1  0  0  0  0
 12 31  1  0  0  0  0
 12 13  1  0  0  0  0
 15 22  2  0  0  0  0
 15 28  1  0  0  0  0
 16 20  1  0  0  0  0
 17 19  1  0  0  0  0
 18 25  1  0  0  0  0
 20 25  1  0  0  0  0
 20 23  2  0  0  0  0
 28 29  1  0  0  0  0
M  END
> <ID>
10906

> <Formula>
C24H32ClFO5

> <FW>
454.9593

> <DSSTox_CID>
25375

> <DSSTox_RID>
80836

> <DSSTox_GSID>
45375

> <DSSTox_FileID_Sort>
5517

> <TS_ChemName>
Halcinonide

> <TS_ChemName_Synonyms>


> <TS_CASRN>
3093-35-4

> <CASRN_ChemName_Relationship>
primary

> <TS_Description>
single chemical compound

> <ChemNote>
stereochem

> <STRUCTURE_Shown>
tested chemical

> <STRUCTURE_Formula>
C24H32ClFO5

> <STRUCTURE_MW>
454.9593

> <STRUCTURE_ChemType>
defined organic

> <STRUCTURE_DefinedOrganicForm>
parent

> <STRUCTURE_IUPAC>
(4aS,4bR,5S,6aS,6bS,9aR,10aS,10bS)-6b-(chloroacetyl)-4b-fluoro-5-hydroxy-4a,6a,8,8-tetramethyl-3,4,4a,4b,5,6,6a,6b,9a,10,10a,10b,11,12-tetradecahydro-2H-naphtho[2',1':4,5]indeno[1,2-d][1,3]dioxol-2-one

> <STRUCTURE_SMILES>
ClCC(=O)[C@@]54OC(C)(C)O[C@@H]5C[C@@H]3[C@]4(C)C[C@H](O)[C@@]2(F)[C@H]3CCC1=CC(=O)CC[C@@]12C

> <STRUCTURE_SMILES_Desalt>
ClCC(=O)[C@@]54OC(C)(C)O[C@@H]5C[C@@H]3[C@]4(C)C[C@H](O)[C@@]2(F)[C@H]3CCC1=CC(=O)CC[C@@]12C

> <Substance_modify_yyyymmdd>
20110609

$$$$
