3094-09-5
ChemmineR-0915142007XD

 17 18  0  0  1  0  0  0  0  0  1 V2000
    3.4133   -3.7295    0.0000 N   0  0  0  0  0  0  0  0  0  0  0  0
    3.4133   -5.7483    0.0000 C   0  0  0  0  0  0  0  0  0  0  0  0
    2.3107   -3.0890    0.0000 C   0  0  0  0  0  0  0  0  0  0  0  0
    2.3107   -1.8566    0.0000 N   0  0  0  0  0  0  0  0  0  0  0  0
    4.4835   -3.0728    0.0000 C   0  0  0  0  0  0  0  0  0  0  0  0
    4.4835   -1.8566    0.0000 C   0  0  0  0  0  0  0  0  0  0  0  0
    3.4133   -1.2161    0.0000 C   0  0  0  0  0  0  0  0  0  0  0  0
    1.2323   -3.7457    0.0000 O   0  0  0  0  0  0  0  0  0  0  0  0
    3.4133    0.0000    0.0000 O   0  0  0  0  0  0  0  0  0  0  0  0
    5.6429   -1.1837    0.0000 F   0  0  0  0  0  0  0  0  0  0  0  0
    1.2648   -5.7483    0.0000 C   0  0  0  0  0  0  0  0  0  0  0  0
    2.3269   -5.0024    0.0000 O   0  0  0  0  0  0  0  0  0  0  0  0
    1.6702   -7.0211    0.0000 C   0  0  0  0  0  0  0  0  0  0  0  0
    2.9998   -7.0211    0.0000 C   0  0  0  0  0  0  0  0  0  0  0  0
    3.7619   -8.1076    0.0000 O   0  0  0  0  0  0  0  0  0  0  0  0
    0.8837   -8.0913    0.0000 O   0  0  0  0  0  0  0  0  0  0  0  0
    0.0000   -5.3510    0.0000 C   0  0  0  0  0  0  0  0  0  0  0  0
  2  1  1  1  0  0  0
  1  3  1  0  0  0  0
  1  5  1  0  0  0  0
  2 12  1  0  0  0  0
  2 14  1  0  0  0  0
  3  4  1  0  0  0  0
  3  8  2  0  0  0  0
  4  7  1  0  0  0  0
  5  6  2  0  0  0  0
  6  7  1  0  0  0  0
  6 10  1  0  0  0  0
  7  9  2  0  0  0  0
 11 12  1  0  0  0  0
 11 13  1  0  0  0  0
 11 17  1  1  0  0  0
 13 14  1  0  0  0  0
 13 16  1  6  0  0  0
 14 15  1  6  0  0  0
M  END
> <ID>
2671

> <Formula>
C9H11FN2O5

> <FW>
246.1924

> <DSSTox_CID>
2967

> <DSSTox_RID>
76809

> <DSSTox_GSID>
22967

> <DSSTox_FileID_Sort>
1493

> <TS_ChemName>
Doxifluridine

> <TS_ChemName_Synonyms>
Doxifluridine (5'-Deoxy-5-Fluorouridine) (5'FDUR)

> <TS_CASRN>
3094-09-5

> <CASRN_ChemName_Relationship>
primary

> <TS_Description>
single chemical compound

> <ChemNote>
stereochem

> <STRUCTURE_Shown>
tested chemical

> <STRUCTURE_Formula>
C9H11FN2O5

> <STRUCTURE_MW>
246.1924

> <STRUCTURE_ChemType>
defined organic

> <STRUCTURE_DefinedOrganicForm>
parent

> <STRUCTURE_IUPAC>
5'-deoxy-5-fluorouridine

> <STRUCTURE_SMILES>
FC1=CN(C(=O)NC1=O)[C@@H]2O[C@H](C)[C@@H](O)[C@H]2O

> <STRUCTURE_SMILES_Desalt>
FC1=CN(C(=O)NC1=O)[C@@H]2O[C@H](C)[C@@H](O)[C@H]2O

> <Substance_modify_yyyymmdd>
20080429

$$$$
