30964-13-7
ChemmineR-0915142007XD

 37 39  0  0  1  0  0  0  0  0  1 V2000
   11.6115   -7.9877    0.0000 C   0  0  0  0  0  0  0  0  0  0  0  0
   11.6115   -9.3147    0.0000 C   0  0  0  0  0  0  0  0  0  0  0  0
   10.4631   -7.3242    0.0000 C   0  0  0  0  0  0  0  0  0  0  0  0
   10.4631   -9.9910    0.0000 C   0  0  0  0  0  0  0  0  0  0  0  0
    9.3147   -7.9877    0.0000 C   0  0  0  0  0  0  0  0  0  0  0  0
    9.3147   -9.3147    0.0000 C   0  0  0  0  0  0  0  0  0  0  0  0
   12.7599   -9.9910    0.0000 O   0  0  0  0  0  0  0  0  0  0  0  0
    7.9877   -9.3147    0.0000 O   0  0  0  0  0  0  0  0  0  0  0  0
    8.6385  -10.4759    0.0000 C   0  0  0  0  0  0  0  0  0  0  0  0
   10.4631   -5.9972    0.0000 O   0  0  0  0  0  0  0  0  0  0  0  0
    7.3114   -8.1664    0.0000 C   0  0  0  0  0  0  0  0  0  0  0  0
    5.9844   -8.1664    0.0000 C   0  0  0  0  0  0  0  0  0  0  0  0
    7.9877   -7.0180    0.0000 O   0  0  0  0  0  0  0  0  0  0  0  0
    5.3209   -7.0180    0.0000 C   0  0  0  0  0  0  0  0  0  0  0  0
    3.9939   -7.0180    0.0000 C   0  0  0  0  0  0  0  0  0  0  0  0
    3.3176   -8.1664    0.0000 C   0  0  0  0  0  0  0  0  0  0  0  0
    3.3176   -5.8696    0.0000 C   0  0  0  0  0  0  0  0  0  0  0  0
    1.9905   -8.1664    0.0000 C   0  0  0  0  0  0  0  0  0  0  0  0
    1.9905   -5.8696    0.0000 C   0  0  0  0  0  0  0  0  0  0  0  0
    1.3270   -7.0180    0.0000 C   0  0  0  0  0  0  0  0  0  0  0  0
    0.0000   -7.0180    0.0000 O   0  0  0  0  0  0  0  0  0  0  0  0
    1.3270   -9.3147    0.0000 O   0  0  0  0  0  0  0  0  0  0  0  0
    7.3114  -10.4759    0.0000 O   0  0  0  0  0  0  0  0  0  0  0  0
    9.3147  -11.6243    0.0000 O   0  0  0  0  0  0  0  0  0  0  0  0
   10.4631   -4.6701    0.0000 C   0  0  0  0  0  0  0  0  0  0  0  0
   11.6115   -3.9939    0.0000 O   0  0  0  0  0  0  0  0  0  0  0  0
    9.3147   -3.9939    0.0000 C   0  0  0  0  0  0  0  0  0  0  0  0
    9.3147   -2.6668    0.0000 C   0  0  0  0  0  0  0  0  0  0  0  0
    8.1536   -2.0033    0.0000 C   0  0  0  0  0  0  0  0  0  0  0  0
    7.0052   -2.6668    0.0000 C   0  0  0  0  0  0  0  0  0  0  0  0
    8.1536   -0.6763    0.0000 C   0  0  0  0  0  0  0  0  0  0  0  0
    5.8568   -2.0033    0.0000 C   0  0  0  0  0  0  0  0  0  0  0  0
    7.0052    0.0000    0.0000 C   0  0  0  0  0  0  0  0  0  0  0  0
    5.8568   -0.6763    0.0000 C   0  0  0  0  0  0  0  0  0  0  0  0
    4.6957    0.0000    0.0000 O   0  0  0  0  0  0  0  0  0  0  0  0
    4.6957   -2.6668    0.0000 O   0  0  0  0  0  0  0  0  0  0  0  0
   12.7599   -7.3242    0.0000 O   0  0  0  0  0  0  0  0  0  0  0  0
  1  2  1  0  0  0  0
  1  3  1  0  0  0  0
  1 37  1  1  0  0  0
  2  4  1  0  0  0  0
  2  7  1  6  0  0  0
  3  5  1  0  0  0  0
  3 10  1  1  0  0  0
  4  6  1  0  0  0  0
  5  6  1  0  0  0  0
  6  8  1  1  0  0  0
  6  9  1  6  0  0  0
  8 11  1  0  0  0  0
  9 23  1  0  0  0  0
  9 24  2  0  0  0  0
 10 25  1  0  0  0  0
 11 12  1  0  0  0  0
 11 13  2  0  0  0  0
 12 14  2  3  0  0  0
 14 15  1  0  0  0  0
 15 16  1  0  0  0  0
 15 17  2  0  0  0  0
 16 18  2  0  0  0  0
 17 19  1  0  0  0  0
 18 20  1  0  0  0  0
 18 22  1  0  0  0  0
 19 20  2  0  0  0  0
 20 21  1  0  0  0  0
 25 26  2  0  0  0  0
 25 27  1  0  0  0  0
 27 28  2  3  0  0  0
 28 29  1  0  0  0  0
 29 30  1  0  0  0  0
 29 31  2  0  0  0  0
 30 32  2  0  0  0  0
 31 33  1  0  0  0  0
 32 34  1  0  0  0  0
 32 36  1  0  0  0  0
 33 34  2  0  0  0  0
 34 35  1  0  0  0  0
M  END
> <ID>
14495

> <Formula>
C25H24O12

> <FW>
516.4509

> <DSSTox_CID>
29805

> <DSSTox_RID>
79067

> <DSSTox_GSID>
50423

> <DSSTox_FileID_Sort>
3749

> <TS_ChemName>
1,5-Dicaffeoylquinic acid

> <TS_ChemName_Synonyms>
Cynarin

> <TS_CASRN>
30964-13-7

> <CASRN_ChemName_Relationship>
primary

> <TS_Description>
single chemical compound

> <ChemNote>
mixture of Z,E isomers; absolute stereochem

> <STRUCTURE_Shown>
tested chemical

> <STRUCTURE_Formula>
C25H24O12

> <STRUCTURE_MW>
516.4509

> <STRUCTURE_ChemType>
defined organic

> <STRUCTURE_DefinedOrganicForm>
parent

> <STRUCTURE_IUPAC>
(1R,3R,4S,5R)-1,3-bis{[3-(3,4-dihydroxyphenyl)acryloyl]oxy}-4,5-dihydroxycyclohexanecarboxylic acid

> <STRUCTURE_SMILES>
O[C@H]2[C@H](O)C[C@](C[C@H]2OC(=O)C=Cc1ccc(O)c(O)c1)(OC(=O)C=Cc3ccc(O)c(O)c3)C(=O)O

> <STRUCTURE_SMILES_Desalt>
O[C@H]2[C@H](O)C[C@](C[C@H]2OC(=O)C=Cc1ccc(O)c(O)c1)(OC(=O)C=Cc3ccc(O)c(O)c3)C(=O)O

> <Substance_modify_yyyymmdd>
20120227

$$$$
