3101-60-8
ChemmineR-0915142007XD

 15 16  0  0  0  0  0  0  0  0  1 V2000
    9.7986   -1.3326    0.0000 O   0  0  0  0  0  0  0  0  0  0  0  0
    8.6424   -0.6663    0.0000 C   0  0  0  0  0  0  0  0  0  0  0  0
    7.3195   -0.6663    0.0000 C   0  0  0  0  0  0  0  0  0  0  0  0
    6.6532   -1.8127    0.0000 O   0  0  0  0  0  0  0  0  0  0  0  0
    5.3206   -1.8127    0.0000 C   0  0  0  0  0  0  0  0  0  0  0  0
    4.6543   -2.9690    0.0000 C   0  0  0  0  0  0  0  0  0  0  0  0
    3.3217   -2.9690    0.0000 C   0  0  0  0  0  0  0  0  0  0  0  0
    2.6554   -1.8127    0.0000 C   0  0  0  0  0  0  0  0  0  0  0  0
    3.3217   -0.6663    0.0000 C   0  0  0  0  0  0  0  0  0  0  0  0
    1.3326   -1.8127    0.0000 C   0  0  0  0  0  0  0  0  0  0  0  0
    0.0000   -1.8127    0.0000 C   0  0  0  0  0  0  0  0  0  0  0  0
    1.3326   -0.4899    0.0000 C   0  0  0  0  0  0  0  0  0  0  0  0
    1.3326   -3.1453    0.0000 C   0  0  0  0  0  0  0  0  0  0  0  0
    4.6543   -0.6663    0.0000 C   0  0  0  0  0  0  0  0  0  0  0  0
    9.7986    0.0000    0.0000 C   0  0  0  0  0  0  0  0  0  0  0  0
  1  2  1  0  0  0  0
  1 15  1  0  0  0  0
  2  3  1  0  0  0  0
  2 15  1  0  0  0  0
  3  4  1  0  0  0  0
  4  5  1  0  0  0  0
  5  6  2  0  0  0  0
  5 14  1  0  0  0  0
  6  7  1  0  0  0  0
  7  8  2  0  0  0  0
  8  9  1  0  0  0  0
  8 10  1  0  0  0  0
  9 14  2  0  0  0  0
 10 11  1  0  0  0  0
 10 12  1  0  0  0  0
 10 13  1  0  0  0  0
M  END
> <ID>
3819

> <Formula>
C13H18O2

> <FW>
206.2808

> <DSSTox_CID>
4702

> <DSSTox_RID>
77506

> <DSSTox_GSID>
24702

> <DSSTox_FileID_Sort>
2189

> <TS_ChemName>
tert-Butyl phenyl glycidyl ether

> <TS_ChemName_Synonyms>


> <TS_CASRN>
3101-60-8

> <CASRN_ChemName_Relationship>
primary

> <TS_Description>
single chemical compound

> <ChemNote>


> <STRUCTURE_Shown>
tested chemical

> <STRUCTURE_Formula>
C13H18O2

> <STRUCTURE_MW>
206.2808

> <STRUCTURE_ChemType>
defined organic

> <STRUCTURE_DefinedOrganicForm>
parent

> <STRUCTURE_IUPAC>
2-[(4-tert-butylphenoxy)methyl]oxirane

> <STRUCTURE_SMILES>
CC(C)(C)c2ccc(OCC1CO1)cc2

> <STRUCTURE_SMILES_Desalt>
CC(C)(C)c2ccc(OCC1CO1)cc2

> <Substance_modify_yyyymmdd>
20080429

$$$$
