31036-80-3
ChemmineR-0915142007XD

 16 17  0  0  0  0  0  0  0  0  1 V2000
    2.3049   -3.5950    0.0000 C    0  0  0  0  0  0  0  0  0  0  0  0
    3.4534   -4.2637    0.0000 Cl   0  0  0  0  0  0  0  0  0  0  0  0
    1.1485   -4.2637    0.0000 C    0  0  0  0  0  0  0  0  0  0  0  0
    0.0000   -3.5950    0.0000 C    0  0  0  0  0  0  0  0  0  0  0  0
    0.0000   -2.2656    0.0000 C    0  0  0  0  0  0  0  0  0  0  0  0
    1.1485   -1.6048    0.0000 C    0  0  0  0  0  0  0  0  0  0  0  0
    1.1485   -0.2753    0.0000 Cl   0  0  0  0  0  0  0  0  0  0  0  0
    2.3049   -2.2656    0.0000 C    0  0  0  0  0  0  0  0  0  0  0  0
    3.4534   -1.6048    0.0000 O    0  0  0  0  0  0  0  0  0  0  0  0
    4.6098   -2.2656    0.0000 C    0  0  0  0  0  0  0  0  0  0  0  0
    4.6098   -3.5950    0.0000 C    0  0  0  0  0  0  0  0  0  0  0  0
    5.7583   -1.6048    0.0000 C    0  0  0  0  0  0  0  0  0  0  0  0
    5.8999   -0.2832    0.0000 N    0  0  0  0  0  0  0  0  0  0  0  0
    7.1979    0.0000    0.0000 C    0  0  0  0  0  0  0  0  0  0  0  0
    7.8666   -1.1564    0.0000 C    0  0  0  0  0  0  0  0  0  0  0  0
    6.9777   -2.1476    0.0000 N    0  0  0  0  0  0  0  0  0  0  0  0
  1  2  1  0  0  0  0
  1  3  2  0  0  0  0
  1  8  1  0  0  0  0
  3  4  1  0  0  0  0
  4  5  2  0  0  0  0
  5  6  1  0  0  0  0
  6  7  1  0  0  0  0
  6  8  2  0  0  0  0
  8  9  1  0  0  0  0
  9 10  1  0  0  0  0
 10 11  1  0  0  0  0
 10 12  1  0  0  0  0
 12 13  2  0  0  0  0
 12 16  1  0  0  0  0
 13 14  1  0  0  0  0
 14 15  1  0  0  0  0
 15 16  1  0  0  0  0
M  END
> <ID>
2897

> <Formula>
C11H12Cl2N2O

> <FW>
259.1318

> <DSSTox_CID>
3221

> <DSSTox_RID>
97547

> <DSSTox_GSID>
23221

> <DSSTox_FileID_Sort>
8322

> <TS_ChemName>
Lofexidine

> <TS_ChemName_Synonyms>


> <TS_CASRN>
31036-80-3

> <CASRN_ChemName_Relationship>
primary

> <TS_Description>
single chemical compound

> <ChemNote>


> <STRUCTURE_Shown>
tested chemical

> <STRUCTURE_Formula>
C11H12Cl2N2O

> <STRUCTURE_MW>
259.1318

> <STRUCTURE_ChemType>
defined organic

> <STRUCTURE_DefinedOrganicForm>
parent

> <STRUCTURE_IUPAC>
2-[1-(2,6-dichlorophenoxy)ethyl]-4,5-dihydro-1H-imidazole

> <STRUCTURE_SMILES>
Clc2cccc(Cl)c2OC(C)C1=NCCN1

> <STRUCTURE_SMILES_Desalt>
Clc2cccc(Cl)c2OC(C)C1=NCCN1

> <Substance_modify_yyyymmdd>
20080429

$$$$
