311-45-5
ChemmineR-0915142007XD

 18 18  0  0  0  0  0  0  0  0  2 V2000
    0.6670   -4.5983    0.0000 N   0  3  0  0  0  0  0  0  0  0  0  0
    6.6599   -3.4462    0.0000 P   0  0  0  0  0  0  0  0  0  0  0  0
    1.9909   -4.5983    0.0000 C   0  0  0  0  0  0  0  0  0  0  0  0
    0.0000   -3.4462    0.0000 O   0  5  0  0  0  0  0  0  0  0  0  0
    0.0000   -5.7504    0.0000 O   0  0  0  0  0  0  0  0  0  0  0  0
    5.9727   -4.5983    0.0000 O   0  0  0  0  0  0  0  0  0  0  0  0
    5.4977   -2.7792    0.0000 O   0  0  0  0  0  0  0  0  0  0  0  0
    2.6579   -5.7504    0.0000 C   0  0  0  0  0  0  0  0  0  0  0  0
    2.6579   -3.4462    0.0000 C   0  0  0  0  0  0  0  0  0  0  0  0
    7.3168   -2.3042    0.0000 O   0  0  0  0  0  0  0  0  0  0  0  0
    7.8120   -4.1334    0.0000 O   0  0  0  0  0  0  0  0  0  0  0  0
    4.6589   -4.5983    0.0000 C   0  0  0  0  0  0  0  0  0  0  0  0
    3.9919   -5.7504    0.0000 C   0  0  0  0  0  0  0  0  0  0  0  0
    3.9919   -3.4462    0.0000 C   0  0  0  0  0  0  0  0  0  0  0  0
    8.9540   -3.4563    0.0000 C   0  0  0  0  0  0  0  0  0  0  0  0
    6.6700   -1.1521    0.0000 C   0  0  0  0  0  0  0  0  0  0  0  0
   10.1061   -4.1334    0.0000 C   0  0  0  0  0  0  0  0  0  0  0  0
    7.3168    0.0000    0.0000 C   0  0  0  0  0  0  0  0  0  0  0  0
  1  3  1  0  0  0  0
  1  4  1  0  0  0  0
  1  5  2  0  0  0  0
  2  6  1  0  0  0  0
  2  7  2  0  0  0  0
  2 10  1  0  0  0  0
  2 11  1  0  0  0  0
  3  8  2  0  0  0  0
  3  9  1  0  0  0  0
  6 12  1  0  0  0  0
  8 13  1  0  0  0  0
  9 14  2  0  0  0  0
 10 16  1  0  0  0  0
 11 15  1  0  0  0  0
 12 14  1  0  0  0  0
 12 13  2  0  0  0  0
 15 17  1  0  0  0  0
 16 18  1  0  0  0  0
M  END
> <ID>
3476

> <Formula>
C10H14NO6P

> <FW>
275.195

> <DSSTox_CID>
4046

> <DSSTox_RID>
77266

> <DSSTox_GSID>
24046

> <DSSTox_FileID_Sort>
1949

> <TS_ChemName>
Paraoxon

> <TS_ChemName_Synonyms>
Paraoxon (Diethyl-p-nitrophenyl phosphate)

> <TS_CASRN>
311-45-5

> <CASRN_ChemName_Relationship>
primary

> <TS_Description>
single chemical compound

> <ChemNote>


> <STRUCTURE_Shown>
tested chemical

> <STRUCTURE_Formula>
C10H14NO6P

> <STRUCTURE_MW>
275.195

> <STRUCTURE_ChemType>
defined organic

> <STRUCTURE_DefinedOrganicForm>
parent

> <STRUCTURE_IUPAC>
diethyl 4-nitrophenyl phosphate

> <STRUCTURE_SMILES>
[O-][N+](=O)c1ccc(OP(=O)(OCC)OCC)cc1

> <STRUCTURE_SMILES_Desalt>
[O-][N+](=O)c1ccc(OP(=O)(OCC)OCC)cc1

> <Substance_modify_yyyymmdd>
20080429

$$$$
