31112-62-6
ChemmineR-0915142007XD

 32 33  0  0  1  0  0  0  0  0  1 V2000
    7.9866   -4.6125    0.0000 C   0  0  0  0  0  0  0  0  0  0  0  0
    6.6470   -4.6125    0.0000 C   0  0  0  0  0  0  0  0  0  0  0  0
    5.9899   -5.7625    0.0000 N   0  0  0  0  0  0  0  0  0  0  0  0
    4.6504   -5.7625    0.0000 C   0  0  0  0  0  0  0  0  0  0  0  0
    3.9933   -6.9124    0.0000 C   0  0  0  0  0  0  0  0  0  0  0  0
    2.6664   -6.9124    0.0000 O   0  0  0  0  0  0  0  0  0  0  0  0
    1.9966   -5.7625    0.0000 C   0  0  0  0  0  0  0  0  0  0  0  0
    2.6664   -4.6125    0.0000 C   0  0  0  0  0  0  0  0  0  0  0  0
    3.9933   -4.6125    0.0000 C   0  0  0  0  0  0  0  0  0  0  0  0
    4.6504   -3.4499    0.0000 O   0  0  0  0  0  0  0  0  0  0  0  0
    1.9966   -3.4499    0.0000 O   0  0  0  0  0  0  0  0  0  0  0  0
    0.6698   -5.7625    0.0000 C   0  0  0  0  0  0  0  0  0  0  0  0
    0.0000   -6.9124    0.0000 O   0  0  0  0  0  0  0  0  0  0  0  0
    4.6504   -8.0624    0.0000 O   0  0  0  0  0  0  0  0  0  0  0  0
    5.9899   -3.4499    0.0000 O   0  0  0  0  0  0  0  0  0  0  0  0
    8.6437   -3.4499    0.0000 C   0  0  0  0  0  0  0  0  0  0  0  0
    9.9706   -3.4499    0.0000 C   0  0  0  0  0  0  0  0  0  0  0  0
   10.6403   -2.2999    0.0000 N   0  0  0  0  0  0  0  0  0  0  0  0
    9.9706   -1.1500    0.0000 C   0  0  0  0  0  0  0  0  0  0  0  0
   10.6403    0.0000    0.0000 O   0  0  0  0  0  0  0  0  0  0  0  0
    8.6437   -1.1500    0.0000 C   0  0  0  0  0  0  0  0  0  0  0  0
   11.9672   -2.2999    0.0000 C   0  0  0  0  0  0  0  0  0  0  0  0
   10.6403   -4.6125    0.0000 C   0  0  0  0  0  0  0  0  0  0  0  0
    9.9706   -5.7625    0.0000 C   0  0  0  0  0  0  0  0  0  0  0  0
    8.6437   -5.7625    0.0000 C   0  0  0  0  0  0  0  0  0  0  0  0
    7.9866   -6.9124    0.0000 I   0  0  0  0  0  0  0  0  0  0  0  0
   10.6403   -6.9124    0.0000 N   0  0  0  0  0  0  0  0  0  0  0  0
   11.9672   -6.9124    0.0000 C   0  0  0  0  0  0  0  0  0  0  0  0
   12.6370   -5.7625    0.0000 O   0  0  0  0  0  0  0  0  0  0  0  0
   12.6370   -8.0624    0.0000 C   0  0  0  0  0  0  0  0  0  0  0  0
   11.9672   -4.6125    0.0000 I   0  0  0  0  0  0  0  0  0  0  0  0
    7.9866   -2.2999    0.0000 I   0  0  0  0  0  0  0  0  0  0  0  0
  1  2  1  0  0  0  0
  1 16  2  0  0  0  0
  1 25  1  0  0  0  0
  2  3  1  0  0  0  0
  2 15  2  0  0  0  0
  4  3  1  1  0  0  0
  4  5  1  0  0  0  0
  4  9  1  0  0  0  0
  5  6  1  0  0  0  0
  5 14  1  0  0  0  0
  6  7  1  0  0  0  0
  7  8  1  0  0  0  0
  7 12  1  6  0  0  0
  8  9  1  0  0  0  0
  8 11  1  1  0  0  0
  9 10  1  6  0  0  0
 12 13  1  0  0  0  0
 16 17  1  0  0  0  0
 16 32  1  0  0  0  0
 17 18  1  0  0  0  0
 17 23  2  0  0  0  0
 18 19  1  0  0  0  0
 18 22  1  0  0  0  0
 19 20  2  0  0  0  0
 19 21  1  0  0  0  0
 23 24  1  0  0  0  0
 23 31  1  0  0  0  0
 24 25  2  0  0  0  0
 24 27  1  0  0  0  0
 25 26  1  0  0  0  0
 27 28  1  0  0  0  0
 28 29  2  0  0  0  0
 28 30  1  0  0  0  0
M  END
> <ID>
2971

> <Formula>
C18H22I3N3O8

> <FW>
789.096

> <DSSTox_CID>
3310

> <DSSTox_RID>
76969

> <DSSTox_GSID>
23310

> <DSSTox_FileID_Sort>
1653

> <TS_ChemName>
Metrizamide

> <TS_ChemName_Synonyms>


> <TS_CASRN>
31112-62-6

> <CASRN_ChemName_Relationship>
primary

> <TS_Description>
single chemical compound

> <ChemNote>
stereochem

> <STRUCTURE_Shown>
tested chemical

> <STRUCTURE_Formula>
C18H22I3N3O8

> <STRUCTURE_MW>
789.096

> <STRUCTURE_ChemType>
defined organic

> <STRUCTURE_DefinedOrganicForm>
parent

> <STRUCTURE_IUPAC>
2-({3-(acetylamino)-5-[acetyl(methyl)amino]-2,4,6-triiodobenzoyl}amino)-2-deoxy-D-glucopyranose

> <STRUCTURE_SMILES>
OC2O[C@H](CO)[C@@H](O)[C@H](O)[C@H]2NC(=O)c1c(I)c(NC(C)=O)c(I)c(N(C)C(C)=O)c1I

> <STRUCTURE_SMILES_Desalt>
OC2O[C@H](CO)[C@@H](O)[C@H](O)[C@H]2NC(=O)c1c(I)c(NC(C)=O)c(I)c(N(C)C(C)=O)c1I

> <Substance_modify_yyyymmdd>
20080429

$$$$
