31127-82-9
ChemmineR-0915142007XD

 44 45  0  0  0  0  0  0  0  0  1 V2000
    0.0000   -1.1567    0.0000 O   0  0  0  0  0  0  0  0  0  0  0  0
    0.6645   -2.2888    0.0000 C   0  0  0  0  0  0  0  0  0  0  0  0
    0.0000   -3.4455    0.0000 O   0  0  0  0  0  0  0  0  0  0  0  0
    1.9935   -2.2888    0.0000 C   0  0  0  0  0  0  0  0  0  0  0  0
    2.6579   -1.1567    0.0000 C   0  0  0  0  0  0  0  0  0  0  0  0
    1.9935    0.0000    0.0000 I   0  0  0  0  0  0  0  0  0  0  0  0
    3.9869   -1.1567    0.0000 C   0  0  0  0  0  0  0  0  0  0  0  0
    4.6514   -2.2888    0.0000 C   0  0  0  0  0  0  0  0  0  0  0  0
    5.9804   -2.2888    0.0000 I   0  0  0  0  0  0  0  0  0  0  0  0
    3.9869   -3.4455    0.0000 C   0  0  0  0  0  0  0  0  0  0  0  0
    2.6579   -3.4455    0.0000 C   0  0  0  0  0  0  0  0  0  0  0  0
    1.9935   -4.6022    0.0000 I   0  0  0  0  0  0  0  0  0  0  0  0
    4.6514   -4.6022    0.0000 N   0  0  0  0  0  0  0  0  0  0  0  0
    3.9869   -5.7589    0.0000 C   0  0  0  0  0  0  0  0  0  0  0  0
    2.6579   -5.7589    0.0000 O   0  0  0  0  0  0  0  0  0  0  0  0
    4.6514   -6.8909    0.0000 C   0  0  0  0  0  0  0  0  0  0  0  0
    5.9804   -6.8909    0.0000 C   0  0  0  0  0  0  0  0  0  0  0  0
    6.6448   -8.0476    0.0000 O   0  0  0  0  0  0  0  0  0  0  0  0
    7.9738   -8.0476    0.0000 C   0  0  0  0  0  0  0  0  0  0  0  0
    8.6383   -9.2043    0.0000 C   0  0  0  0  0  0  0  0  0  0  0  0
    9.9673   -9.2043    0.0000 O   0  0  0  0  0  0  0  0  0  0  0  0
   10.6563  -10.3610    0.0000 C   0  0  0  0  0  0  0  0  0  0  0  0
   11.9853  -10.3610    0.0000 C   0  0  0  0  0  0  0  0  0  0  0  0
   12.6252  -11.5177    0.0000 O   0  0  0  0  0  0  0  0  0  0  0  0
   13.9542  -11.5177    0.0000 C   0  0  0  0  0  0  0  0  0  0  0  0
   14.6432  -12.6744    0.0000 C   0  0  0  0  0  0  0  0  0  0  0  0
   15.9722  -12.6744    0.0000 O   0  0  0  0  0  0  0  0  0  0  0  0
   16.6367  -13.8311    0.0000 C   0  0  0  0  0  0  0  0  0  0  0  0
   17.9657  -13.8311    0.0000 C   0  0  0  0  0  0  0  0  0  0  0  0
   18.6301  -14.9878    0.0000 C   0  0  0  0  0  0  0  0  0  0  0  0
   17.9657  -16.1199    0.0000 O   0  0  0  0  0  0  0  0  0  0  0  0
   19.9591  -14.9878    0.0000 N   0  0  0  0  0  0  0  0  0  0  0  0
   20.6236  -13.8311    0.0000 C   0  0  0  0  0  0  0  0  0  0  0  0
   19.9591  -12.6744    0.0000 C   0  0  0  0  0  0  0  0  0  0  0  0
   18.6301  -12.6744    0.0000 I   0  0  0  0  0  0  0  0  0  0  0  0
   20.6236  -11.5177    0.0000 C   0  0  0  0  0  0  0  0  0  0  0  0
   21.9526  -11.5177    0.0000 C   0  0  0  0  0  0  0  0  0  0  0  0
   22.6171  -10.3610    0.0000 I   0  0  0  0  0  0  0  0  0  0  0  0
   22.6171  -12.6744    0.0000 C   0  0  0  0  0  0  0  0  0  0  0  0
   21.9526  -13.8311    0.0000 C   0  0  0  0  0  0  0  0  0  0  0  0
   22.6171  -14.9878    0.0000 I   0  0  0  0  0  0  0  0  0  0  0  0
   23.9460  -12.6744    0.0000 C   0  0  0  0  0  0  0  0  0  0  0  0
   24.6105  -13.8311    0.0000 O   0  0  0  0  0  0  0  0  0  0  0  0
   24.6105  -11.5177    0.0000 O   0  0  0  0  0  0  0  0  0  0  0  0
  1  2  1  0  0  0  0
  2  3  2  0  0  0  0
  2  4  1  0  0  0  0
  4  5  2  0  0  0  0
  4 11  1  0  0  0  0
  5  6  1  0  0  0  0
  5  7  1  0  0  0  0
  7  8  2  0  0  0  0
  8  9  1  0  0  0  0
  8 10  1  0  0  0  0
 10 11  2  0  0  0  0
 10 13  1  0  0  0  0
 11 12  1  0  0  0  0
 13 14  1  0  0  0  0
 14 15  2  0  0  0  0
 14 16  1  0  0  0  0
 16 17  1  0  0  0  0
 17 18  1  0  0  0  0
 18 19  1  0  0  0  0
 19 20  1  0  0  0  0
 20 21  1  0  0  0  0
 21 22  1  0  0  0  0
 22 23  1  0  0  0  0
 23 24  1  0  0  0  0
 24 25  1  0  0  0  0
 25 26  1  0  0  0  0
 26 27  1  0  0  0  0
 27 28  1  0  0  0  0
 28 29  1  0  0  0  0
 29 30  1  0  0  0  0
 30 31  2  0  0  0  0
 30 32  1  0  0  0  0
 32 33  1  0  0  0  0
 33 34  2  0  0  0  0
 33 40  1  0  0  0  0
 34 35  1  0  0  0  0
 34 36  1  0  0  0  0
 36 37  2  0  0  0  0
 37 38  1  0  0  0  0
 37 39  1  0  0  0  0
 39 40  2  0  0  0  0
 39 42  1  0  0  0  0
 40 41  1  0  0  0  0
 42 43  1  0  0  0  0
 42 44  2  0  0  0  0
M  END
> <ID>
16112

> <Formula>
C26H26I6N2O10

> <FW>
1287.9189

> <DSSTox_CID>
31499

> <DSSTox_RID>
97384

> <DSSTox_GSID>
57710

> <DSSTox_FileID_Sort>
8451

> <TS_ChemName>
Iodoxamic Acid

> <TS_ChemName_Synonyms>
Endomirabil

> <TS_CASRN>
31127-82-9

> <CASRN_ChemName_Relationship>
primary

> <TS_Description>
single chemical compound

> <ChemNote>


> <STRUCTURE_Shown>
tested chemical

> <STRUCTURE_Formula>
C26H26I6N2O10

> <STRUCTURE_MW>
1287.9189

> <STRUCTURE_ChemType>
defined organic

> <STRUCTURE_DefinedOrganicForm>
parent

> <STRUCTURE_IUPAC>
3,3'-[(1,16-dioxo-4,7,10,13-tetraoxahexadecane-1,16-diyl)diimino]bis(2,4,6-triiodobenzoic acid)

> <STRUCTURE_SMILES>
O=C(Nc1c(I)c(c(I)cc1I)C(=O)O)CCOCCOCCOCCOCCC(=O)Nc2c(I)c(C(=O)O)c(I)cc2I

> <STRUCTURE_SMILES_Desalt>
O=C(Nc1c(I)c(c(I)cc1I)C(=O)O)CCOCCOCCOCCOCCC(=O)Nc2c(I)c(C(=O)O)c(I)cc2I

> <Substance_modify_yyyymmdd>
20131121

$$$$
