31127-54-5
ChemmineR-0915142007XD

 18 19  0  0  0  0  0  0  0  0  1 V2000
    5.7750   -1.9958    0.0000 C   0  0  0  0  0  0  0  0  0  0  0  0
    6.9300   -1.3398    0.0000 C   0  0  0  0  0  0  0  0  0  0  0  0
    8.0850   -1.9958    0.0000 C   0  0  0  0  0  0  0  0  0  0  0  0
    8.0850   -3.3264    0.0000 C   0  0  0  0  0  0  0  0  0  0  0  0
    6.9300   -3.9825    0.0000 C   0  0  0  0  0  0  0  0  0  0  0  0
    5.7750   -3.3264    0.0000 C   0  0  0  0  0  0  0  0  0  0  0  0
    4.6200   -1.3398    0.0000 C   0  0  0  0  0  0  0  0  0  0  0  0
    4.6200    0.0000    0.0000 O   0  0  0  0  0  0  0  0  0  0  0  0
    3.4650   -1.9958    0.0000 C   0  0  0  0  0  0  0  0  0  0  0  0
    3.4650   -3.3264    0.0000 C   0  0  0  0  0  0  0  0  0  0  0  0
    2.3100   -3.9825    0.0000 C   0  0  0  0  0  0  0  0  0  0  0  0
    1.1550   -3.3264    0.0000 C   0  0  0  0  0  0  0  0  0  0  0  0
    1.1550   -1.9958    0.0000 C   0  0  0  0  0  0  0  0  0  0  0  0
    2.3100   -1.3398    0.0000 C   0  0  0  0  0  0  0  0  0  0  0  0
    6.9300    0.0000    0.0000 O   0  0  0  0  0  0  0  0  0  0  0  0
    9.2400   -1.3398    0.0000 O   0  0  0  0  0  0  0  0  0  0  0  0
    9.2400   -3.9825    0.0000 O   0  0  0  0  0  0  0  0  0  0  0  0
    0.0000   -3.9825    0.0000 O   0  0  0  0  0  0  0  0  0  0  0  0
  1  7  1  0  0  0  0
  1  6  2  0  0  0  0
  1  2  1  0  0  0  0
  2  3  2  0  0  0  0
  2 15  1  0  0  0  0
  3  4  1  0  0  0  0
  3 16  1  0  0  0  0
  4  5  2  0  0  0  0
  4 17  1  0  0  0  0
  5  6  1  0  0  0  0
  7  8  2  0  0  0  0
  7  9  1  0  0  0  0
  9 10  2  0  0  0  0
  9 14  1  0  0  0  0
 10 11  1  0  0  0  0
 11 12  2  0  0  0  0
 12 13  1  0  0  0  0
 12 18  1  0  0  0  0
 13 14  2  0  0  0  0
M  END
> <ID>
13031

> <Formula>
C13H10O5

> <FW>
246.2155

> <DSSTox_CID>
27932

> <DSSTox_RID>
82685

> <DSSTox_GSID>
47956

> <DSSTox_FileID_Sort>
7362

> <TS_ChemName>
2,3,4,4'-Tetrahydroxybenzophenone

> <TS_ChemName_Synonyms>


> <TS_CASRN>
31127-54-5

> <CASRN_ChemName_Relationship>
primary

> <TS_Description>
single chemical compound

> <ChemNote>


> <STRUCTURE_Shown>
tested chemical

> <STRUCTURE_Formula>
C13H10O5

> <STRUCTURE_MW>
246.2155

> <STRUCTURE_ChemType>
defined organic

> <STRUCTURE_DefinedOrganicForm>
parent

> <STRUCTURE_IUPAC>
(4-hydroxyphenyl)(2,3,4-trihydroxyphenyl)methanone

> <STRUCTURE_SMILES>
Oc2ccc(C(=O)c1ccc(O)cc1)c(O)c2O

> <STRUCTURE_SMILES_Desalt>
Oc2ccc(C(=O)c1ccc(O)cc1)c(O)c2O

> <Substance_modify_yyyymmdd>
20110418

$$$$
