3113-71-1
ChemmineR-0915142007XD

 13 13  0  0  0  0  0  0  0  0  2 V2000
    2.3015   -1.9974    0.0000 C   0  0  0  0  0  0  0  0  0  0  0  0
    2.3015   -3.3243    0.0000 C   0  0  0  0  0  0  0  0  0  0  0  0
    3.4556   -3.9878    0.0000 C   0  0  0  0  0  0  0  0  0  0  0  0
    4.6098   -3.3243    0.0000 C   0  0  0  0  0  0  0  0  0  0  0  0
    4.6098   -1.9974    0.0000 C   0  0  0  0  0  0  0  0  0  0  0  0
    3.4556   -1.3270    0.0000 C   0  0  0  0  0  0  0  0  0  0  0  0
    5.7571   -1.3270    0.0000 C   0  0  0  0  0  0  0  0  0  0  0  0
    6.9113   -1.9974    0.0000 O   0  0  0  0  0  0  0  0  0  0  0  0
    5.7571    0.0000    0.0000 O   0  0  0  0  0  0  0  0  0  0  0  0
    1.1542   -3.9463    0.0000 N   0  3  0  0  0  0  0  0  0  0  0  0
    0.0000   -3.2829    0.0000 O   0  5  0  0  0  0  0  0  0  0  0  0
    1.1542   -5.2733    0.0000 O   0  0  0  0  0  0  0  0  0  0  0  0
    1.1542   -1.2855    0.0000 C   0  0  0  0  0  0  0  0  0  0  0  0
  1  2  2  0  0  0  0
  1  6  1  0  0  0  0
  1 13  1  0  0  0  0
  2  3  1  0  0  0  0
  2 10  1  0  0  0  0
  3  4  2  0  0  0  0
  4  5  1  0  0  0  0
  5  6  2  0  0  0  0
  5  7  1  0  0  0  0
  7  8  1  0  0  0  0
  7  9  2  0  0  0  0
 10 11  1  0  0  0  0
 10 12  2  0  0  0  0
M  END
> <ID>
4317

> <Formula>
C8H7NO4

> <FW>
181.1455

> <DSSTox_CID>
5641

> <DSSTox_RID>
77866

> <DSSTox_GSID>
25641

> <DSSTox_FileID_Sort>
2549

> <TS_ChemName>
3-Methyl-4-nitrobenzoic acid

> <TS_ChemName_Synonyms>


> <TS_CASRN>
3113-71-1

> <CASRN_ChemName_Relationship>
primary

> <TS_Description>
single chemical compound

> <ChemNote>


> <STRUCTURE_Shown>
tested chemical

> <STRUCTURE_Formula>
C8H7NO4

> <STRUCTURE_MW>
181.1455

> <STRUCTURE_ChemType>
defined organic

> <STRUCTURE_DefinedOrganicForm>
parent

> <STRUCTURE_IUPAC>
3-methyl-4-nitrobenzoic acid

> <STRUCTURE_SMILES>
Cc1cc(ccc1[N+](=O)[O-])C(=O)O

> <STRUCTURE_SMILES_Desalt>
Cc1cc(ccc1[N+](=O)[O-])C(=O)O

> <Substance_modify_yyyymmdd>
20080429

$$$$
