31138-65-5
ChemmineR-0915142007XD

 16 14  0  0  1  0  0  0  0  0  2 V2000
    8.0736   -1.9985    0.0000 C    0  0  0  0  0  0  0  0  0  0  0  0
    8.0736   -3.3209    0.0000 O    0  5  0  0  0  0  0  0  0  0  0  0
    6.9103   -1.3423    0.0000 C    0  0  0  0  0  0  0  0  0  0  0  0
    6.9103    0.0000    0.0000 O    0  0  0  0  0  0  0  0  0  0  0  0
    5.7569   -1.9985    0.0000 C    0  0  0  0  0  0  0  0  0  0  0  0
    5.7569   -3.3209    0.0000 O    0  0  0  0  0  0  0  0  0  0  0  0
    4.6234   -1.3423    0.0000 C    0  0  0  0  0  0  0  0  0  0  0  0
    4.6234    0.0000    0.0000 O    0  0  0  0  0  0  0  0  0  0  0  0
    3.4701   -1.9985    0.0000 C    0  0  0  0  0  0  0  0  0  0  0  0
    3.4701   -3.3209    0.0000 O    0  0  0  0  0  0  0  0  0  0  0  0
    2.3067   -1.3423    0.0000 C    0  0  0  0  0  0  0  0  0  0  0  0
    2.3067    0.0000    0.0000 O    0  0  0  0  0  0  0  0  0  0  0  0
    1.1534   -1.9985    0.0000 C    0  0  0  0  0  0  0  0  0  0  0  0
    9.2270   -1.3423    0.0000 O    0  0  0  0  0  0  0  0  0  0  0  0
    0.0000   -1.3224    0.0000 O    0  0  0  0  0  0  0  0  0  0  0  0
    9.9429   -4.0766    0.0000 Na   0  3  0  0  0  0  0  0  0  0  0  0
  1  2  1  0  0  0  0
  1  3  1  0  0  0  0
  1 14  2  0  0  0  0
  3  4  1  1  0  0  0
  3  5  1  0  0  0  0
  5  6  1  6  0  0  0
  5  7  1  0  0  0  0
  7  8  1  6  0  0  0
  7  9  1  0  0  0  0
  9 10  1  6  0  0  0
  9 11  1  0  0  0  0
 11 12  1  1  0  0  0
 11 13  1  0  0  0  0
 13 15  1  0  0  0  0
M  END
> <ID>
5542

> <Formula>
C7H13NaO8

> <FW>
248.1631 (225.1739+22.9892)

> <DSSTox_CID>
7966

> <DSSTox_RID>
78625

> <DSSTox_GSID>
27966

> <DSSTox_FileID_Sort>
3307

> <TS_ChemName>
D-Gluco-heptonic acid, monosodium salt

> <TS_ChemName_Synonyms>
D-Gluco-heptonic acid, monosodium salt, (2.xi.)-

> <TS_CASRN>
31138-65-5

> <CASRN_ChemName_Relationship>
primary

> <TS_Description>
single chemical compound

> <ChemNote>
parent [23351-51-1]

> <STRUCTURE_Shown>
tested chemical

> <STRUCTURE_Formula>
C7H13NaO8

> <STRUCTURE_MW>
248.1631

> <STRUCTURE_ChemType>
defined organic

> <STRUCTURE_DefinedOrganicForm>
salt

> <STRUCTURE_IUPAC>
sodium (2R,3R,4S,5R,6R)-2,3,4,5,6,7-hexahydroxyheptanoate

> <STRUCTURE_SMILES>
[Na+].O[C@H]([C@@H](O)[C@@H](O)C([O-])=O)[C@H](O)[C@H](O)CO

> <STRUCTURE_SMILES_Desalt>
O[C@H]([C@@H](O)[C@@H](O)C(=O)O)[C@H](O)[C@H](O)CO

> <Substance_modify_yyyymmdd>
20120603

$$$$
