3115-05-7
ChemmineR-0915142007XD

 24 25  0  0  0  0  0  0  0  0  1 V2000
    4.6581   -9.2239    0.0000 N   0  0  0  0  0  0  0  0  0  0  0  0
    3.9847   -8.0709    0.0000 C   0  0  0  0  0  0  0  0  0  0  0  0
    4.6581   -6.9271    0.0000 C   0  0  0  0  0  0  0  0  0  0  0  0
    5.9955   -6.9271    0.0000 I   0  0  0  0  0  0  0  0  0  0  0  0
    3.9847   -5.7649    0.0000 C   0  0  0  0  0  0  0  0  0  0  0  0
    2.6472   -5.7649    0.0000 C   0  0  0  0  0  0  0  0  0  0  0  0
    2.0108   -4.6119    0.0000 I   0  0  0  0  0  0  0  0  0  0  0  0
    1.9924   -6.9271    0.0000 C   0  0  0  0  0  0  0  0  0  0  0  0
    2.6472   -8.0709    0.0000 C   0  0  0  0  0  0  0  0  0  0  0  0
    1.9924   -9.2239    0.0000 I   0  0  0  0  0  0  0  0  0  0  0  0
    4.6396   -4.6119    0.0000 C   0  0  0  0  0  0  0  0  0  0  0  0
    5.9771   -4.6119    0.0000 O   0  0  0  0  0  0  0  0  0  0  0  0
    3.9847   -3.4589    0.0000 N   0  0  0  0  0  0  0  0  0  0  0  0
    2.6657   -3.4682    0.0000 C   0  0  0  0  0  0  0  0  0  0  0  0
    1.9924   -2.3152    0.0000 C   0  0  0  0  0  0  0  0  0  0  0  0
    0.6549   -2.3152    0.0000 C   0  0  0  0  0  0  0  0  0  0  0  0
    0.0000   -3.4589    0.0000 O   0  0  0  0  0  0  0  0  0  0  0  0
    0.0000   -1.1530    0.0000 O   0  0  0  0  0  0  0  0  0  0  0  0
    4.6396   -2.3152    0.0000 C   0  0  0  0  0  0  0  0  0  0  0  0
    4.0032   -1.1530    0.0000 C   0  0  0  0  0  0  0  0  0  0  0  0
    4.6581    0.0000    0.0000 C   0  0  0  0  0  0  0  0  0  0  0  0
    5.9771    0.0000    0.0000 C   0  0  0  0  0  0  0  0  0  0  0  0
    6.6504   -1.1530    0.0000 C   0  0  0  0  0  0  0  0  0  0  0  0
    5.9771   -2.3152    0.0000 C   0  0  0  0  0  0  0  0  0  0  0  0
  1  2  1  0  0  0  0
  2  3  2  0  0  0  0
  2  9  1  0  0  0  0
  3  4  1  0  0  0  0
  3  5  1  0  0  0  0
  5  6  2  0  0  0  0
  5 11  1  0  0  0  0
  6  7  1  0  0  0  0
  6  8  1  0  0  0  0
  8  9  2  0  0  0  0
  9 10  1  0  0  0  0
 11 12  2  0  0  0  0
 11 13  1  0  0  0  0
 13 14  1  0  0  0  0
 13 19  1  0  0  0  0
 14 15  1  0  0  0  0
 15 16  1  0  0  0  0
 16 17  1  0  0  0  0
 16 18  2  0  0  0  0
 19 20  2  0  0  0  0
 19 24  1  0  0  0  0
 20 21  1  0  0  0  0
 21 22  2  0  0  0  0
 22 23  1  0  0  0  0
 23 24  2  0  0  0  0
M  END
> <ID>
16113

> <Formula>
C16H13I3N2O3

> <FW>
661.9994

> <DSSTox_CID>
31500

> <DSSTox_RID>
97385

> <DSSTox_GSID>
57711

> <DSSTox_FileID_Sort>
8452

> <TS_ChemName>
Iobenzamic acid

> <TS_ChemName_Synonyms>


> <TS_CASRN>
3115-05-7

> <CASRN_ChemName_Relationship>
primary

> <TS_Description>
single chemical compound

> <ChemNote>


> <STRUCTURE_Shown>
tested chemical

> <STRUCTURE_Formula>
C16H13I3N2O3

> <STRUCTURE_MW>
661.9994

> <STRUCTURE_ChemType>
defined organic

> <STRUCTURE_DefinedOrganicForm>
parent

> <STRUCTURE_IUPAC>
N-(3-amino-2,4,6-triiodobenzoyl)-N-phenyl-beta-alanine

> <STRUCTURE_SMILES>
Ic1cc(I)c(N)c(I)c1C(=O)N(CCC(=O)O)c2ccccc2

> <STRUCTURE_SMILES_Desalt>
Ic1cc(I)c(N)c(I)c1C(=O)N(CCC(=O)O)c2ccccc2

> <Substance_modify_yyyymmdd>
20131018

$$$$
