31188-99-5
ChemmineR-0915142007XD

 19 20  0  0  0  0  0  0  0  0  1 V2000
    2.7020   -1.1641    0.0000 C   0  0  0  0  0  0  0  0  0  0  0  0
    4.0156   -1.2068    0.0000 C   0  0  0  0  0  0  0  0  0  0  0  0
    2.0719    0.0000    0.0000 O   0  0  0  0  0  0  0  0  0  0  0  0
    4.6671   -2.3923    0.0000 O   0  0  0  0  0  0  0  0  0  0  0  0
    6.0127   -2.4136    0.0000 C   0  0  0  0  0  0  0  0  0  0  0  0
    6.6749   -3.5991    0.0000 C   0  0  0  0  0  0  0  0  0  0  0  0
    6.6963   -1.2816    0.0000 C   0  0  0  0  0  0  0  0  0  0  0  0
    7.9565   -3.5991    0.0000 C   0  0  0  0  0  0  0  0  0  0  0  0
    8.0099   -1.3136    0.0000 C   0  0  0  0  0  0  0  0  0  0  0  0
    8.6507   -2.4991    0.0000 C   0  0  0  0  0  0  0  0  0  0  0  0
    9.9643   -2.5311    0.0000 C   0  0  0  0  0  0  0  0  0  0  0  0
   10.6798   -1.3991    0.0000 O   0  0  0  0  0  0  0  0  0  0  0  0
   10.6051   -3.6952    0.0000 C   0  0  0  0  0  0  0  0  0  0  0  0
    1.9971   -2.3175    0.0000 N   0  0  0  0  0  0  0  0  0  0  0  0
    2.6700   -3.4816    0.0000 C   0  0  0  0  0  0  0  0  0  0  0  0
    0.6835   -2.2855    0.0000 C   0  0  0  0  0  0  0  0  0  0  0  0
    1.9758   -4.6244    0.0000 C   0  0  0  0  0  0  0  0  0  0  0  0
    0.0000   -3.4069    0.0000 C   0  0  0  0  0  0  0  0  0  0  0  0
    0.5981   -4.5816    0.0000 C   0  0  0  0  0  0  0  0  0  0  0  0
  1  2  1  0  0  0  0
  1  3  2  0  0  0  0
  1 14  1  0  0  0  0
  2  4  1  0  0  0  0
  4  5  1  0  0  0  0
  5  6  1  0  0  0  0
  5  7  2  0  0  0  0
  6  8  2  0  0  0  0
  7  9  1  0  0  0  0
  8 10  1  0  0  0  0
  9 10  2  0  0  0  0
 10 11  1  0  0  0  0
 11 12  2  0  0  0  0
 11 13  1  0  0  0  0
 14 15  1  0  0  0  0
 14 16  1  0  0  0  0
 15 17  1  0  0  0  0
 16 18  1  0  0  0  0
 17 19  1  0  0  0  0
 18 19  1  0  0  0  0
M  END
> <ID>
13818

> <Formula>
C15H19NO3

> <FW>
261.3163

> <DSSTox_CID>
28755

> <DSSTox_RID>
83024

> <DSSTox_GSID>
48829

> <DSSTox_FileID_Sort>
7701

> <TS_ChemName>
4'-Piperidinylcarbonylmethoxyacetophenone

> <TS_ChemName_Synonyms>
Ethanone, 2-(4-acetylphenoxy)-1-(1-piperidinyl)-

> <TS_CASRN>
31188-99-5

> <CASRN_ChemName_Relationship>
primary

> <TS_Description>
single chemical compound

> <ChemNote>


> <STRUCTURE_Shown>
tested chemical

> <STRUCTURE_Formula>
C15H19NO3

> <STRUCTURE_MW>
261.3163

> <STRUCTURE_ChemType>
defined organic

> <STRUCTURE_DefinedOrganicForm>
parent

> <STRUCTURE_IUPAC>
2-(4-acetylphenoxy)-1-(piperidin-1-yl)ethanone

> <STRUCTURE_SMILES>
O=C(COc1ccc(cc1)C(C)=O)N2CCCCC2

> <STRUCTURE_SMILES_Desalt>
O=C(COc1ccc(cc1)C(C)=O)N2CCCCC2

> <Substance_modify_yyyymmdd>
20111204

$$$$
