312-84-5
ChemmineR-0915142007XD

  7  6  0  0  1  0  0  0  0  0  1 V2000
    3.4355   -1.3422    0.0000 C   0  0  0  0  0  0  0  0  0  0  0  0
    2.2904   -2.0064    0.0000 C   0  0  0  0  0  0  0  0  0  0  0  0
    3.4355    0.0000    0.0000 O   0  0  0  0  0  0  0  0  0  0  0  0
    2.2904   -3.3348    0.0000 N   0  0  0  0  0  0  0  0  0  0  0  0
    4.5807   -2.0064    0.0000 O   0  0  0  0  0  0  0  0  0  0  0  0
    1.1452   -1.3422    0.0000 C   0  0  0  0  0  0  0  0  0  0  0  0
    0.0000   -2.0338    0.0000 O   0  0  0  0  0  0  0  0  0  0  0  0
  1  2  1  0  0  0  0
  1  3  2  0  0  0  0
  1  5  1  0  0  0  0
  2  4  1  6  0  0  0
  2  6  1  0  0  0  0
  6  7  1  0  0  0  0
M  END
> <ID>
8047

> <Formula>
C3H7NO3

> <FW>
105.0926

> <DSSTox_CID>
21021

> <DSSTox_RID>
79611

> <DSSTox_GSID>
41021

> <DSSTox_FileID_Sort>
4293

> <TS_ChemName>
D-Serine

> <TS_ChemName_Synonyms>


> <TS_CASRN>
312-84-5

> <CASRN_ChemName_Relationship>
primary

> <TS_Description>
single chemical compound

> <ChemNote>
stereochem

> <STRUCTURE_Shown>
tested chemical

> <STRUCTURE_Formula>
C3H7NO3

> <STRUCTURE_MW>
105.0926

> <STRUCTURE_ChemType>
defined organic

> <STRUCTURE_DefinedOrganicForm>
parent

> <STRUCTURE_IUPAC>
D-serine

> <STRUCTURE_SMILES>
O=C(O)[C@H](N)CO

> <STRUCTURE_SMILES_Desalt>
O=C(O)[C@H](N)CO

> <Substance_modify_yyyymmdd>
20080429

$$$$
