31224-92-7
ChemmineR-0915142007XD

 20 21  0  0  0  0  0  0  0  0  1 V2000
    1.9987   -2.2979    0.0000 N   0  0  0  0  0  0  0  0  0  0  0  0
    2.6570   -3.4469    0.0000 C   0  0  0  0  0  0  0  0  0  0  0  0
    9.9816   -4.6078    0.0000 C   0  0  0  0  0  0  0  0  0  0  0  0
   10.6399   -5.7568    0.0000 N   0  0  0  0  0  0  0  0  0  0  0  0
    8.6531   -4.6078    0.0000 C   0  0  0  0  0  0  0  0  0  0  0  0
    3.9855   -3.4469    0.0000 C   0  0  0  0  0  0  0  0  0  0  0  0
    1.9987   -4.6078    0.0000 O   0  0  0  0  0  0  0  0  0  0  0  0
    7.9829   -3.4469    0.0000 C   0  0  0  0  0  0  0  0  0  0  0  0
    7.9829   -5.7568    0.0000 C   0  0  0  0  0  0  0  0  0  0  0  0
    4.6677   -4.6078    0.0000 O   0  0  0  0  0  0  0  0  0  0  0  0
    5.9961   -4.6078    0.0000 C   0  0  0  0  0  0  0  0  0  0  0  0
   11.9684   -5.7568    0.0000 O   0  0  0  0  0  0  0  0  0  0  0  0
    6.6544   -3.4469    0.0000 C   0  0  0  0  0  0  0  0  0  0  0  0
    6.6544   -5.7568    0.0000 C   0  0  0  0  0  0  0  0  0  0  0  0
    2.6570   -1.1370    0.0000 C   0  0  0  0  0  0  0  0  0  0  0  0
    0.6702   -2.2979    0.0000 C   0  0  0  0  0  0  0  0  0  0  0  0
   10.6399   -3.4469    0.0000 C   0  0  0  0  0  0  0  0  0  0  0  0
    0.0000   -1.1370    0.0000 C   0  0  0  0  0  0  0  0  0  0  0  0
    1.9987    0.0000    0.0000 C   0  0  0  0  0  0  0  0  0  0  0  0
    0.6702    0.0000    0.0000 C   0  0  0  0  0  0  0  0  0  0  0  0
  1  2  1  0  0  0  0
  1 15  1  0  0  0  0
  1 16  1  0  0  0  0
  2  6  1  0  0  0  0
  2  7  2  0  0  0  0
  3  5  1  0  0  0  0
  3  4  2  0  0  0  0
  3 17  1  0  0  0  0
  4 12  1  0  0  0  0
  5  9  1  0  0  0  0
  5  8  2  0  0  0  0
  6 10  1  0  0  0  0
  8 13  1  0  0  0  0
  9 14  2  0  0  0  0
 10 11  1  0  0  0  0
 11 13  2  0  0  0  0
 11 14  1  0  0  0  0
 15 19  1  0  0  0  0
 16 18  1  0  0  0  0
 18 20  1  0  0  0  0
 19 20  1  0  0  0  0
M  END
> <ID>
13817

> <Formula>
C15H20N2O3

> <FW>
276.3309

> <DSSTox_CID>
28754

> <DSSTox_RID>
83023

> <DSSTox_GSID>
48828

> <DSSTox_FileID_Sort>
7700

> <TS_ChemName>
Pifoxime

> <TS_ChemName_Synonyms>


> <TS_CASRN>
31224-92-7

> <CASRN_ChemName_Relationship>
primary

> <TS_Description>
single chemical compound

> <ChemNote>


> <STRUCTURE_Shown>
tested chemical

> <STRUCTURE_Formula>
C15H20N2O3

> <STRUCTURE_MW>
276.3309

> <STRUCTURE_ChemType>
defined organic

> <STRUCTURE_DefinedOrganicForm>
parent

> <STRUCTURE_IUPAC>
2-{4-[(1E)-N-hydroxyethanimidoyl]phenoxy}-1-(piperidin-1-yl)ethanone

> <STRUCTURE_SMILES>
O=C(COc1ccc(cc1)C(\C)=N\O)N2CCCCC2

> <STRUCTURE_SMILES_Desalt>
O=C(COc1ccc(cc1)C(\C)=N\O)N2CCCCC2

> <Substance_modify_yyyymmdd>
20111204

$$$$
