312693-54-2
ChemmineR-0915142007XD

 22 21  0  0  0  0  0  0  0  0  2 V2000
    4.5307   -1.8898    0.0000 C    0  0  0  0  0  0  0  0  0  0  0  0
    4.5307   -3.2279    0.0000 C    0  0  0  0  0  0  0  0  0  0  0  0
    3.3804   -1.2325    0.0000 C    0  0  0  0  0  0  0  0  0  0  0  0
    3.3804   -3.8852    0.0000 C    0  0  0  0  0  0  0  0  0  0  0  0
    5.6810   -3.8852    0.0000 C    0  0  0  0  0  0  0  0  0  0  0  0
    5.6810   -1.2325    0.0000 C    0  0  0  0  0  0  0  0  0  0  0  0
    6.8078   -1.8898    0.0000 C    0  0  0  0  0  0  0  0  0  0  0  0
    6.8078   -3.2279    0.0000 C    0  0  0  0  0  0  0  0  0  0  0  0
    2.2302   -3.2279    0.0000 C    0  0  0  0  0  0  0  0  0  0  0  0
    2.2302   -1.8898    0.0000 C    0  0  0  0  0  0  0  0  0  0  0  0
    7.9816   -1.2325    0.0000 S    0  0  0  0  0  0  0  0  0  0  0  0
    8.7093   -2.5236    0.0000 O    0  0  0  0  0  0  0  0  0  0  0  0
    9.0732   -0.5869    0.0000 O    0  5  0  0  0  0  0  0  0  0  0  0
    7.3713   -0.1291    0.0000 O    0  0  0  0  0  0  0  0  0  0  0  0
    1.0916   -1.2325    0.0000 S    0  0  0  0  0  0  0  0  0  0  0  0
    1.8428    0.0000    0.0000 O    0  0  0  0  0  0  0  0  0  0  0  0
    0.0000   -0.5869    0.0000 O    0  0  0  0  0  0  0  0  0  0  0  0
    0.4460   -2.3593    0.0000 O    0  0  0  0  0  0  0  0  0  0  0  0
    5.6810   -5.2233    0.0000 N    0  0  0  0  0  0  0  0  0  0  0  0
    3.3804   -5.2233    0.0000 O    0  0  0  0  0  0  0  0  0  0  0  0
   11.7377   -2.6058    0.0000 Na   0  3  0  0  0  0  0  0  0  0  0  0
   10.4348   -5.8571    0.0000 O    0  0  0  0  0  0  0  0  0  0  0  0
  1  2  2  0  0  0  0
  1  3  1  0  0  0  0
  1  6  1  0  0  0  0
  2  4  1  0  0  0  0
  2  5  1  0  0  0  0
  3 10  2  0  0  0  0
  4  9  2  0  0  0  0
  4 20  1  0  0  0  0
  5  8  2  0  0  0  0
  5 19  1  0  0  0  0
  6  7  2  0  0  0  0
  7  8  1  0  0  0  0
  7 11  1  0  0  0  0
  9 10  1  0  0  0  0
 10 15  1  0  0  0  0
 11 12  2  0  0  0  0
 11 13  1  0  0  0  0
 11 14  2  0  0  0  0
 15 16  2  0  0  0  0
 15 17  1  0  0  0  0
 15 18  2  0  0  0  0
M  END
> <ID>
12136

> <Formula>
C10H10NNaO8S2

> <FW>
359.3081 (318.3036+22.9892+18.0153)

> <DSSTox_CID>
26980

> <DSSTox_RID>
82035

> <DSSTox_GSID>
46980

> <DSSTox_FileID_Sort>
6716

> <TS_ChemName>
2,7-Naphthalenedisulfonic acid, 4-amino-5-hydroxy-, monosodium salt hydrate

> <TS_ChemName_Synonyms>
sodium 4-amino-5-hydroxy-7-sulfonaphthalene-2-sulfonate hydrate

> <TS_CASRN>
312693-54-2

> <CASRN_ChemName_Relationship>
primary

> <TS_Description>
single chemical compound

> <ChemNote>
parent [90-20-0]

> <STRUCTURE_Shown>
tested chemical

> <STRUCTURE_Formula>
C10H10NNaO8S2

> <STRUCTURE_MW>
359.3081

> <STRUCTURE_ChemType>
defined organic

> <STRUCTURE_DefinedOrganicForm>
salt complex

> <STRUCTURE_IUPAC>
sodium 4-amino-5-hydroxy-7-sulfonaphthalene-2-sulfonate hydrate (1:1:1)

> <STRUCTURE_SMILES>
[Na+].O.[O-]S(=O)(=O)c2cc1cc(cc(O)c1c(N)c2)S(=O)(=O)O

> <STRUCTURE_SMILES_Desalt>
O=S(=O)(O)c2cc1cc(cc(O)c1c(N)c2)S(=O)(=O)O

> <Substance_modify_yyyymmdd>
20100220

$$$$
