31282-04-9
ChemmineR-0915142007XD

 36 39  0  0  1  0  0  0  0  0  1 V2000
    3.9682   -6.0522    0.0000 C   0  0  0  0  0  0  0  0  0  0  0  0
    5.5531   -4.6421    0.0000 C   0  0  0  0  0  0  0  0  0  0  0  0
    4.3925   -4.0057    0.0000 C   0  0  0  0  0  0  0  0  0  0  0  0
    5.2910   -6.0397    0.0000 O   0  0  0  0  0  0  0  0  0  0  0  0
    3.4067   -4.8917    0.0000 O   0  0  0  0  0  0  0  0  0  0  0  0
    2.6330   -6.0522    0.0000 O   0  0  0  0  0  0  0  0  0  0  0  0
    8.9722   -4.0057    0.0000 C   0  0  0  0  0  0  0  0  0  0  0  0
    6.6761   -4.0057    0.0000 C   0  0  0  0  0  0  0  0  0  0  0  0
    4.6296   -7.2876    0.0000 C   0  0  0  0  0  0  0  0  0  0  0  0
    1.9966   -7.2876    0.0000 C   0  0  0  0  0  0  0  0  0  0  0  0
    3.9807   -8.4356    0.0000 C   0  0  0  0  0  0  0  0  0  0  0  0
    2.6330   -8.4356    0.0000 C   0  0  0  0  0  0  0  0  0  0  0  0
    7.8242   -4.6421    0.0000 O   0  0  0  0  0  0  0  0  0  0  0  0
    6.6761   -2.6580    0.0000 O   0  0  0  0  0  0  0  0  0  0  0  0
    4.3925   -2.6330    0.0000 C   0  0  0  0  0  0  0  0  0  0  0  0
    8.9722   -2.6580    0.0000 C   0  0  0  0  0  0  0  0  0  0  0  0
   10.1702   -4.6421    0.0000 C   0  0  0  0  0  0  0  0  0  0  0  0
    5.5531   -1.9716    0.0000 C   0  0  0  0  0  0  0  0  0  0  0  0
   10.1702   -1.9966    0.0000 C   0  0  0  0  0  0  0  0  0  0  0  0
   11.3058   -4.0057    0.0000 C   0  0  0  0  0  0  0  0  0  0  0  0
   11.3058   -2.6580    0.0000 C   0  0  0  0  0  0  0  0  0  0  0  0
    0.6489   -7.2876    0.0000 C   0  0  0  0  0  0  0  0  0  0  0  0
    5.9524   -7.2626    0.0000 O   0  0  0  0  0  0  0  0  0  0  0  0
    4.5672   -9.5338    0.0000 O   0  0  0  0  0  0  0  0  0  0  0  0
    2.0964   -9.5587    0.0000 O   0  0  0  0  0  0  0  0  0  0  0  0
   10.1702   -0.6364    0.0000 N   0  0  0  0  0  0  0  0  0  0  0  0
   12.4788   -4.6920    0.0000 N   0  0  0  0  0  0  0  0  0  0  0  0
    3.2445   -1.9342    0.0000 O   0  0  0  0  0  0  0  0  0  0  0  0
    7.8242   -1.9966    0.0000 O   0  0  0  0  0  0  0  0  0  0  0  0
   10.1702   -5.9773    0.0000 O   0  0  0  0  0  0  0  0  0  0  0  0
    0.0000   -8.4481    0.0000 N   0  0  0  0  0  0  0  0  0  0  0  0
    5.5531   -0.6364    0.0000 C   0  0  0  0  0  0  0  0  0  0  0  0
    6.6761    0.0000    0.0000 O   0  0  0  0  0  0  0  0  0  0  0  0
    0.6489   -5.0040    0.0000 O   0  0  0  0  0  0  0  0  0  0  0  0
    0.0000   -6.1520    0.0000 C   0  0  0  0  0  0  0  0  0  0  0  0
   11.2933    0.0000    0.0000 C   0  0  0  0  0  0  0  0  0  0  0  0
  1  4  1  0  0  0  0
  1  5  1  0  0  0  0
  1  6  1  0  0  0  0
  1  9  1  0  0  0  0
  2  4  1  1  0  0  0
  2  8  1  0  0  0  0
  2  3  1  0  0  0  0
  3  5  1  1  0  0  0
  3 15  1  0  0  0  0
  6 10  1  0  0  0  0
  7 13  1  1  0  0  0
  7 16  1  0  0  0  0
  7 17  1  0  0  0  0
  8 13  1  1  0  0  0
  8 14  1  0  0  0  0
  9 11  1  0  0  0  0
  9 23  1  6  0  0  0
 10 22  1  1  0  0  0
 10 12  1  0  0  0  0
 11 12  1  0  0  0  0
 11 24  1  1  0  0  0
 12 25  1  1  0  0  0
 14 18  1  0  0  0  0
 15 18  1  0  0  0  0
 15 28  1  1  0  0  0
 16 19  1  0  0  0  0
 16 29  1  6  0  0  0
 17 20  1  0  0  0  0
 17 30  1  6  0  0  0
 18 32  1  1  0  0  0
 19 26  1  1  0  0  0
 19 21  1  0  0  0  0
 20 21  1  0  0  0  0
 20 27  1  1  0  0  0
 22 31  1  0  0  0  0
 22 35  1  0  0  0  0
 26 36  1  0  0  0  0
 32 33  1  0  0  0  0
 34 35  1  0  0  0  0
M  END
> <ID>
8065

> <Formula>
C20H37N3O13

> <FW>
527.5201

> <DSSTox_CID>
21045

> <DSSTox_RID>
79615

> <DSSTox_GSID>
41045

> <DSSTox_FileID_Sort>
4297

> <TS_ChemName>
Hygromycin B

> <TS_ChemName_Synonyms>


> <TS_CASRN>
31282-04-9

> <CASRN_ChemName_Relationship>
primary

> <TS_Description>
single chemical compound

> <ChemNote>
stereochem

> <STRUCTURE_Shown>
tested chemical

> <STRUCTURE_Formula>
C20H37N3O13

> <STRUCTURE_MW>
527.5201

> <STRUCTURE_ChemType>
defined organic

> <STRUCTURE_DefinedOrganicForm>
parent

> <STRUCTURE_IUPAC>
(3'R,3aS,4S,4'S,5'R,6R,7S,7aS)-4-{[(1R,2S,3R,5S,6R)-3-amino-2,6-dihydroxy-5-(methylamino)cyclohexyl]oxy}-6'-(1-amino-2-hydroxyethyl)-6-(hydroxymethyl)octahydro-4H-spiro[1,3-dioxolo[4,5-c]pyran-2,2'-pyran]-3',4',5',7-tetrol

> <STRUCTURE_SMILES>
O[C@H]4[C@H](N)C[C@H](NC)[C@@H](O)[C@@H]4O[C@@H]2O[C@H](CO)[C@H](O)[C@@H]1OC3(O[C@@H]12)O[C@@H]([C@H](O)[C@H](O)[C@H]3O)C(N)CO

> <STRUCTURE_SMILES_Desalt>
O[C@H]4[C@H](N)C[C@H](NC)[C@@H](O)[C@@H]4O[C@@H]2O[C@H](CO)[C@H](O)[C@@H]1OC3(O[C@@H]12)O[C@@H]([C@H](O)[C@H](O)[C@H]3O)C(N)CO

> <Substance_modify_yyyymmdd>
20080429

$$$$
