313-06-4
ChemmineR-0915142007XD

 32 36  0  0  1  0  0  0  0  0  1 V2000
    6.9605   -3.7490    0.0000 C   0  0  0  0  0  0  0  0  0  0  0  0
    6.9605   -5.0447    0.0000 C   0  0  0  0  0  0  0  0  0  0  0  0
    5.7614   -5.7338    0.0000 C   0  0  0  0  0  0  0  0  0  0  0  0
    4.6174   -5.0447    0.0000 C   0  0  0  0  0  0  0  0  0  0  0  0
    3.5147   -5.7338    0.0000 C   0  0  0  0  0  0  0  0  0  0  0  0
    8.1872   -3.2942    0.0000 C   0  0  0  0  0  0  0  0  0  0  0  0
    3.5147   -7.0570    0.0000 C   0  0  0  0  0  0  0  0  0  0  0  0
    5.7614   -3.0874    0.0000 C   0  0  0  0  0  0  0  0  0  0  0  0
    4.6174   -3.7490    0.0000 C   0  0  0  0  0  0  0  0  0  0  0  0
    8.2148   -5.4581    0.0000 C   0  0  0  0  0  0  0  0  0  0  0  0
    5.7614   -7.0570    0.0000 C   0  0  0  0  0  0  0  0  0  0  0  0
    8.1872   -1.9434    0.0000 O   0  0  0  0  0  0  0  0  0  0  0  0
    2.3431   -5.0447    0.0000 C   0  0  0  0  0  0  0  0  0  0  0  0
    4.6174   -7.7048    0.0000 C   0  0  0  0  0  0  0  0  0  0  0  0
    9.0004   -4.4106    0.0000 C   0  0  0  0  0  0  0  0  0  0  0  0
    2.3431   -7.7048    0.0000 C   0  0  0  0  0  0  0  0  0  0  0  0
    1.1991   -7.0570    0.0000 C   0  0  0  0  0  0  0  0  0  0  0  0
    1.1991   -5.7338    0.0000 C   0  0  0  0  0  0  0  0  0  0  0  0
    6.9605   -2.3845    0.0000 C   0  0  0  0  0  0  0  0  0  0  0  0
    0.0000   -7.7462    0.0000 O   0  0  0  0  0  0  0  0  0  0  0  0
    4.6174   -6.3678    0.0000 H   0  0  0  0  0  0  0  0  0  0  0  0
    6.9605   -6.3678    0.0000 H   0  0  0  0  0  0  0  0  0  0  0  0
    5.7614   -4.4106    0.0000 H   0  0  0  0  0  0  0  0  0  0  0  0
    9.3864   -1.3370    0.0000 C   0  0  0  0  0  0  0  0  0  0  0  0
    9.3864    0.0000    0.0000 O   0  0  0  0  0  0  0  0  0  0  0  0
   10.5442   -1.9986    0.0000 C   0  0  0  0  0  0  0  0  0  0  0  0
   10.5442   -3.3080    0.0000 C   0  0  0  0  0  0  0  0  0  0  0  0
   11.6744   -3.9696    0.0000 C   0  0  0  0  0  0  0  0  0  0  0  0
   11.8398   -5.3065    0.0000 C   0  0  0  0  0  0  0  0  0  0  0  0
   12.9149   -3.4458    0.0000 C   0  0  0  0  0  0  0  0  0  0  0  0
   13.1216   -5.5822    0.0000 C   0  0  0  0  0  0  0  0  0  0  0  0
   13.7832   -4.4244    0.0000 C   0  0  0  0  0  0  0  0  0  0  0  0
  1  2  1  0  0  0  0
  1  6  1  0  0  0  0
  1  8  1  0  0  0  0
  1 19  1  1  0  0  0
  2  3  1  0  0  0  0
  2 10  1  0  0  0  0
  2 22  1  6  0  0  0
  3 11  1  0  0  0  0
  3  4  1  0  0  0  0
  3 23  1  1  0  0  0
  4  9  1  0  0  0  0
  4  5  1  0  0  0  0
  4 21  1  6  0  0  0
  5  7  1  0  0  0  0
  5 13  2  0  0  0  0
  6 12  1  1  0  0  0
  6 15  1  0  0  0  0
  7 16  2  0  0  0  0
  7 14  1  0  0  0  0
  8  9  1  0  0  0  0
 10 15  1  0  0  0  0
 11 14  1  0  0  0  0
 12 24  1  0  0  0  0
 13 18  1  0  0  0  0
 16 17  1  0  0  0  0
 17 18  2  0  0  0  0
 17 20  1  0  0  0  0
 24 25  2  0  0  0  0
 24 26  1  0  0  0  0
 26 27  1  0  0  0  0
 27 28  1  0  0  0  0
 28 29  1  0  0  0  0
 28 30  1  0  0  0  0
 29 31  1  0  0  0  0
 30 32  1  0  0  0  0
 31 32  1  0  0  0  0
M  END
> <ID>
2699

> <Formula>
C26H36O3

> <FW>
396.5622

> <DSSTox_CID>
2999

> <DSSTox_RID>
76824

> <DSSTox_GSID>
22999

> <DSSTox_FileID_Sort>
1508

> <TS_ChemName>
Estradiol cypionate

> <TS_ChemName_Synonyms>


> <TS_CASRN>
313-06-4

> <CASRN_ChemName_Relationship>
primary

> <TS_Description>
single chemical compound

> <ChemNote>
stereochem

> <STRUCTURE_Shown>
tested chemical

> <STRUCTURE_Formula>
C26H36O3

> <STRUCTURE_MW>
396.5622

> <STRUCTURE_ChemType>
defined organic

> <STRUCTURE_DefinedOrganicForm>
parent

> <STRUCTURE_IUPAC>
(17beta)-3-hydroxyestra-1(10),2,4-trien-17-yl 3-cyclopentylpropanoate

> <STRUCTURE_SMILES>
Oc4cc5CC[C@@H]1[C@H](CC[C@]2(C)[C@H](CC[C@@H]12)OC(=O)CCC3CCCC3)c5cc4

> <STRUCTURE_SMILES_Desalt>
Oc4cc5CC[C@@H]1[C@H](CC[C@]2(C)[C@H](CC[C@@H]12)OC(=O)CCC3CCCC3)c5cc4

> <Substance_modify_yyyymmdd>
20080429

$$$$
