3132-99-8
ChemmineR-0915142007XD

  9  9  0  0  0  0  0  0  0  0  1 V2000
    1.1531   -3.9899    0.0000 C    0  0  0  0  0  0  0  0  0  0  0  0
    0.0000   -3.3349    0.0000 O    0  0  0  0  0  0  0  0  0  0  0  0
    2.3063   -3.3349    0.0000 C    0  0  0  0  0  0  0  0  0  0  0  0
    2.3063   -2.0019    0.0000 C    0  0  0  0  0  0  0  0  0  0  0  0
    3.4594   -3.9899    0.0000 C    0  0  0  0  0  0  0  0  0  0  0  0
    3.4594   -1.3330    0.0000 C    0  0  0  0  0  0  0  0  0  0  0  0
    4.6126   -3.3349    0.0000 C    0  0  0  0  0  0  0  0  0  0  0  0
    4.6126   -2.0019    0.0000 C    0  0  0  0  0  0  0  0  0  0  0  0
    3.4594    0.0000    0.0000 Br   0  0  0  0  0  0  0  0  0  0  0  0
  1  2  2  0  0  0  0
  1  3  1  0  0  0  0
  3  4  2  0  0  0  0
  3  5  1  0  0  0  0
  4  6  1  0  0  0  0
  5  7  2  0  0  0  0
  6  8  2  0  0  0  0
  6  9  1  0  0  0  0
  7  8  1  0  0  0  0
M  END
> <ID>
5216

> <Formula>
C7H5BrO

> <FW>
185.018

> <DSSTox_CID>
7521

> <DSSTox_RID>
78486

> <DSSTox_GSID>
27521

> <DSSTox_FileID_Sort>
3169

> <TS_ChemName>
3-Bromobenzaldehyde

> <TS_ChemName_Synonyms>


> <TS_CASRN>
3132-99-8

> <CASRN_ChemName_Relationship>
primary

> <TS_Description>
single chemical compound

> <ChemNote>


> <STRUCTURE_Shown>
tested chemical

> <STRUCTURE_Formula>
C7H5BrO

> <STRUCTURE_MW>
185.018

> <STRUCTURE_ChemType>
defined organic

> <STRUCTURE_DefinedOrganicForm>
parent

> <STRUCTURE_IUPAC>
3-bromobenzaldehyde

> <STRUCTURE_SMILES>
O=Cc1cc(Br)ccc1

> <STRUCTURE_SMILES_Desalt>
O=Cc1cc(Br)ccc1

> <Substance_modify_yyyymmdd>
20080429

$$$$
