3132-64-7
ChemmineR-0915142007XD

  5  5  0  0  0  0  0  0  0  0  1 V2000
    1.1519   -1.8168    0.0000 C    0  0  0  0  0  0  0  0  0  0  0  0
    0.0000   -1.1519    0.0000 Br   0  0  0  0  0  0  0  0  0  0  0  0
    2.3037   -1.1519    0.0000 C    0  0  0  0  0  0  0  0  0  0  0  0
    2.9687    0.0000    0.0000 C    0  0  0  0  0  0  0  0  0  0  0  0
    3.6336   -1.1519    0.0000 O    0  0  0  0  0  0  0  0  0  0  0  0
  1  2  1  0  0  0  0
  1  3  1  0  0  0  0
  3  4  1  0  0  0  0
  3  5  1  0  0  0  0
  4  5  1  0  0  0  0
M  END
> <ID>
4095

> <Formula>
C3H5BrO

> <FW>
136.9752

> <DSSTox_CID>
5237

> <DSSTox_RID>
77711

> <DSSTox_GSID>
25237

> <DSSTox_FileID_Sort>
2394

> <TS_ChemName>
Epibromohydrin

> <TS_ChemName_Synonyms>


> <TS_CASRN>
3132-64-7

> <CASRN_ChemName_Relationship>
primary

> <TS_Description>
single chemical compound

> <ChemNote>


> <STRUCTURE_Shown>
tested chemical

> <STRUCTURE_Formula>
C3H5BrO

> <STRUCTURE_MW>
136.9752

> <STRUCTURE_ChemType>
defined organic

> <STRUCTURE_DefinedOrganicForm>
parent

> <STRUCTURE_IUPAC>
2-(bromomethyl)oxirane

> <STRUCTURE_SMILES>
BrCC1CO1

> <STRUCTURE_SMILES_Desalt>
BrCC1CO1

> <Substance_modify_yyyymmdd>
20080429

$$$$
