313348-27-5
ChemmineR-0915142007XD

 32 35  0  0  1  0  0  0  0  0  1 V2000
    0.0000   -8.1649    0.0000 C   0  0  0  0  0  0  0  0  0  0  0  0
    0.5436   -6.9505    0.0000 N   0  0  0  0  0  0  0  0  0  0  0  0
    1.8620   -6.8118    0.0000 C   0  0  0  0  0  0  0  0  0  0  0  0
    2.6484   -7.8873    0.0000 O   0  0  0  0  0  0  0  0  0  0  0  0
    2.4055   -5.5974    0.0000 C   0  0  0  0  0  0  0  0  0  0  0  0
    3.7008   -5.3199    0.0000 C   0  0  0  0  0  0  0  0  0  0  0  0
    3.8396   -3.9899    0.0000 N   0  0  0  0  0  0  0  0  0  0  0  0
    2.6252   -3.4579    0.0000 N   0  0  0  0  0  0  0  0  0  0  0  0
    1.7347   -4.4409    0.0000 C   0  0  0  0  0  0  0  0  0  0  0  0
    4.9961   -3.3307    0.0000 C   0  0  0  0  0  0  0  0  0  0  0  0
    6.1526   -3.9899    0.0000 N   0  0  0  0  0  0  0  0  0  0  0  0
    7.2975   -3.3307    0.0000 C   0  0  0  0  0  0  0  0  0  0  0  0
    7.2975   -2.0007    0.0000 C   0  0  0  0  0  0  0  0  0  0  0  0
    8.5696   -1.5844    0.0000 N   0  0  0  0  0  0  0  0  0  0  0  0
    9.3445   -2.6599    0.0000 C   0  0  0  0  0  0  0  0  0  0  0  0
    8.5696   -3.7355    0.0000 N   0  0  0  0  0  0  0  0  0  0  0  0
    8.9744   -5.0076    0.0000 C   0  0  0  0  0  0  0  0  0  0  0  0
    9.2520   -3.7008    0.0000 H   0  0  0  0  0  0  0  0  0  0  0  0
    8.1996   -6.0832    0.0000 O   0  0  0  0  0  0  0  0  0  0  0  0
    8.9744   -7.1587    0.0000 C   0  0  0  0  0  0  0  0  0  0  0  0
    7.9914   -8.0492    0.0000 H   0  0  0  0  0  0  0  0  0  0  0  0
    9.2520   -8.4540    0.0000 C   0  0  0  0  0  0  0  0  0  0  0  0
   10.5241   -8.8703    0.0000 O   0  0  0  0  0  0  0  0  0  0  0  0
   10.2466   -6.7424    0.0000 C   0  0  0  0  0  0  0  0  0  0  0  0
   10.7785   -7.9567    0.0000 H   0  0  0  0  0  0  0  0  0  0  0  0
   11.5650   -6.8811    0.0000 O   0  0  0  0  0  0  0  0  0  0  0  0
   10.2466   -5.4124    0.0000 C   0  0  0  0  0  0  0  0  0  0  0  0
   11.5650   -5.2736    0.0000 H   0  0  0  0  0  0  0  0  0  0  0  0
   10.7785   -4.1981    0.0000 O   0  0  0  0  0  0  0  0  0  0  0  0
    6.1526   -1.3300    0.0000 C   0  0  0  0  0  0  0  0  0  0  0  0
    4.9961   -2.0007    0.0000 N   0  0  0  0  0  0  0  0  0  0  0  0
    6.1526    0.0000    0.0000 N   0  0  0  0  0  0  0  0  0  0  0  0
  1  2  1  0  0  0  0
  2  3  1  0  0  0  0
  3  4  2  0  0  0  0
  3  5  1  0  0  0  0
  5  6  2  0  0  0  0
  5  9  1  0  0  0  0
  6  7  1  0  0  0  0
  7  8  1  0  0  0  0
  7 10  1  0  0  0  0
  8  9  2  0  0  0  0
 10 11  2  0  0  0  0
 10 31  1  0  0  0  0
 11 12  1  0  0  0  0
 12 13  2  0  0  0  0
 12 16  1  0  0  0  0
 13 14  1  0  0  0  0
 13 30  1  0  0  0  0
 14 15  2  0  0  0  0
 15 16  1  0  0  0  0
 16 17  1  0  0  0  0
 17 18  1  6  0  0  0
 17 19  1  0  0  0  0
 17 27  1  0  0  0  0
 19 20  1  0  0  0  0
 20 21  1  0  0  0  0
 20 22  1  1  0  0  0
 20 24  1  0  0  0  0
 22 23  1  0  0  0  0
 24 25  1  0  0  0  0
 24 26  1  6  0  0  0
 24 27  1  0  0  0  0
 27 28  1  0  0  0  0
 27 29  1  6  0  0  0
 30 31  2  0  0  0  0
 30 32  1  0  0  0  0
M  END
> <ID>
16114

> <Formula>
C15H18N8O5

> <FW>
390.354

> <DSSTox_CID>
31501

> <DSSTox_RID>
97386

> <DSSTox_GSID>
57712

> <DSSTox_FileID_Sort>
8453

> <TS_ChemName>
Lexiscan

> <TS_ChemName_Synonyms>


> <TS_CASRN>
313348-27-5

> <CASRN_ChemName_Relationship>
primary

> <TS_Description>
single chemical compound

> <ChemNote>


> <STRUCTURE_Shown>
tested chemical

> <STRUCTURE_Formula>
C15H18N8O5

> <STRUCTURE_MW>
390.354

> <STRUCTURE_ChemType>
defined organic

> <STRUCTURE_DefinedOrganicForm>
parent

> <STRUCTURE_IUPAC>
2-[4-(methylcarbamoyl)-1H-pyrazol-1-yl]adenosine

> <STRUCTURE_SMILES>
CNC(=O)c1cn(nc1)c2nc(N)c3ncn(c3n2)[C@@H]4O[C@H](CO)[C@@H](O)[C@H]4O

> <STRUCTURE_SMILES_Desalt>
CNC(=O)c1cn(nc1)c2nc(N)c3ncn(c3n2)[C@@H]4O[C@H](CO)[C@@H](O)[C@H]4O

> <Substance_modify_yyyymmdd>
20131018

$$$$
