31375-17-4
ChemmineR-0915142007XD

 14 14  0  0  0  0  0  0  0  0  1 V2000
    5.7585   -1.3307    0.0000 C   0  0  0  0  0  0  0  0  0  0  0  0
    6.9118   -2.0002    0.0000 C   0  0  0  0  0  0  0  0  0  0  0  0
    8.0651   -1.3469    0.0000 C   0  0  0  0  0  0  0  0  0  0  0  0
    5.7585    0.0000    0.0000 O   0  0  0  0  0  0  0  0  0  0  0  0
    4.6052   -2.0002    0.0000 C   0  0  0  0  0  0  0  0  0  0  0  0
    4.6052   -3.3309    0.0000 C   0  0  0  0  0  0  0  0  0  0  0  0
    3.4599   -4.0003    0.0000 C   0  0  0  0  0  0  0  0  0  0  0  0
    2.3066   -3.3309    0.0000 C   0  0  0  0  0  0  0  0  0  0  0  0
    2.3066   -2.0002    0.0000 C   0  0  0  0  0  0  0  0  0  0  0  0
    3.4599   -1.3469    0.0000 C   0  0  0  0  0  0  0  0  0  0  0  0
    1.1533   -1.3307    0.0000 C   0  0  0  0  0  0  0  0  0  0  0  0
    0.0000   -2.0002    0.0000 C   0  0  0  0  0  0  0  0  0  0  0  0
    1.1533    0.0000    0.0000 C   0  0  0  0  0  0  0  0  0  0  0  0
    5.7585   -4.0003    0.0000 C   0  0  0  0  0  0  0  0  0  0  0  0
  1  2  1  0  0  0  0
  1  4  2  0  0  0  0
  1  5  1  0  0  0  0
  2  3  1  0  0  0  0
  5  6  1  0  0  0  0
  5 10  1  0  0  0  0
  6  7  2  0  0  0  0
  6 14  1  0  0  0  0
  7  8  1  0  0  0  0
  8  9  1  0  0  0  0
  9 10  1  0  0  0  0
  9 11  1  0  0  0  0
 11 12  1  0  0  0  0
 11 13  1  0  0  0  0
M  END
> <ID>
12564

> <Formula>
C13H22O

> <FW>
194.3132

> <DSSTox_CID>
27422

> <DSSTox_RID>
82335

> <DSSTox_GSID>
47422

> <DSSTox_FileID_Sort>
7016

> <TS_ChemName>
1-(5-Isopropyl-2-methyl-cyclohex-2-enyl)-propan-1-one

> <TS_ChemName_Synonyms>


> <TS_CASRN>
31375-17-4

> <CASRN_ChemName_Relationship>
primary

> <TS_Description>
single chemical compound

> <ChemNote>


> <STRUCTURE_Shown>
tested chemical

> <STRUCTURE_Formula>
C13H22O

> <STRUCTURE_MW>
194.3132

> <STRUCTURE_ChemType>
defined organic

> <STRUCTURE_DefinedOrganicForm>
parent

> <STRUCTURE_IUPAC>
1-[2-methyl-5-(propan-2-yl)cyclohex-2-en-1-yl]propan-1-one

> <STRUCTURE_SMILES>
CC(C)C1CC=C(C)C(C1)C(=O)CC

> <STRUCTURE_SMILES_Desalt>
CC(C)C1CC=C(C)C(C1)C(=O)CC

> <Substance_modify_yyyymmdd>
20100619

$$$$
