31386-24-0
ChemmineR-0915142007XD

 24 25  0  0  0  0  0  0  0  0  1 V2000
    9.2036   -4.2125    0.0000 C   0  0  0  0  0  0  0  0  0  0  0  0
    9.2036   -5.5472    0.0000 C   0  0  0  0  0  0  0  0  0  0  0  0
    8.0635   -3.5452    0.0000 C   0  0  0  0  0  0  0  0  0  0  0  0
    8.0635   -6.2006    0.0000 C   0  0  0  0  0  0  0  0  0  0  0  0
    6.9096   -4.2125    0.0000 C   0  0  0  0  0  0  0  0  0  0  0  0
    6.9096   -5.5472    0.0000 C   0  0  0  0  0  0  0  0  0  0  0  0
   10.4687   -3.8093    0.0000 N   0  0  0  0  0  0  0  0  0  0  0  0
   11.2612   -4.8798    0.0000 C   0  0  0  0  0  0  0  0  0  0  0  0
   10.4687   -5.9225    0.0000 C   0  0  0  0  0  0  0  0  0  0  0  0
    5.7557   -6.2006    0.0000 C   0  0  0  0  0  0  0  0  0  0  0  0
    5.7557   -7.5352    0.0000 O   0  0  0  0  0  0  0  0  0  0  0  0
    4.6157   -5.5333    0.0000 O   0  0  0  0  0  0  0  0  0  0  0  0
    3.4479   -6.2006    0.0000 C   0  0  0  0  0  0  0  0  0  0  0  0
    2.3078   -5.5333    0.0000 C   0  0  0  0  0  0  0  0  0  0  0  0
    1.1400   -6.2006    0.0000 N   0  0  0  0  0  0  0  0  0  0  0  0
    1.1400   -7.5352    0.0000 C   0  0  0  0  0  0  0  0  0  0  0  0
    0.0000   -5.5333    0.0000 C   0  0  0  0  0  0  0  0  0  0  0  0
   12.5958   -4.8798    0.0000 C   0  0  0  0  0  0  0  0  0  0  0  0
   10.8858   -7.2155    0.0000 C   0  0  0  0  0  0  0  0  0  0  0  0
   10.8858   -2.5303    0.0000 C   0  0  0  0  0  0  0  0  0  0  0  0
   12.1648   -2.2522    0.0000 C   0  0  0  0  0  0  0  0  0  0  0  0
   12.5958   -1.0010    0.0000 N   0  0  0  0  0  0  0  0  0  0  0  0
   11.7060    0.0000    0.0000 C   0  0  0  0  0  0  0  0  0  0  0  0
   13.9027   -0.7090    0.0000 C   0  0  0  0  0  0  0  0  0  0  0  0
  1  3  2  0  0  0  0
  1  7  1  0  0  0  0
  1  2  1  0  0  0  0
  2  4  2  0  0  0  0
  2  9  1  0  0  0  0
  3  5  1  0  0  0  0
  4  6  1  0  0  0  0
  5  6  2  0  0  0  0
  6 10  1  0  0  0  0
  7  8  1  0  0  0  0
  7 20  1  0  0  0  0
  8  9  2  0  0  0  0
  8 18  1  0  0  0  0
  9 19  1  0  0  0  0
 10 11  2  0  0  0  0
 10 12  1  0  0  0  0
 12 13  1  0  0  0  0
 13 14  1  0  0  0  0
 14 15  1  0  0  0  0
 15 16  1  0  0  0  0
 15 17  1  0  0  0  0
 20 21  1  0  0  0  0
 21 22  1  0  0  0  0
 22 23  1  0  0  0  0
 22 24  1  0  0  0  0
M  END
> <ID>
11633

> <Formula>
C19H29N3O2

> <FW>
331.4525

> <DSSTox_CID>
26385

> <DSSTox_RID>
81566

> <DSSTox_GSID>
46385

> <DSSTox_FileID_Sort>
6247

> <TS_ChemName>
Amindocate

> <TS_ChemName_Synonyms>


> <TS_CASRN>
31386-24-0

> <CASRN_ChemName_Relationship>
primary

> <TS_Description>
single chemical compound

> <ChemNote>


> <STRUCTURE_Shown>
tested chemical

> <STRUCTURE_Formula>
C19H29N3O2

> <STRUCTURE_MW>
331.4525

> <STRUCTURE_ChemType>
defined organic

> <STRUCTURE_DefinedOrganicForm>
parent

> <STRUCTURE_IUPAC>
2-(dimethylamino)ethyl 1-[2-(dimethylamino)ethyl]-2,3-dimethyl-1H-indole-5-carboxylate

> <STRUCTURE_SMILES>
CN(C)CCOC(=O)c1cc2c(cc1)n(CCN(C)C)c(C)c2C

> <STRUCTURE_SMILES_Desalt>
CN(C)CCOC(=O)c1cc2c(cc1)n(CCN(C)C)c(C)c2C

> <Substance_modify_yyyymmdd>
20110814

$$$$
