31386-25-1
ChemmineR-0915142007XD

 26 28  0  0  0  0  0  0  0  0  1 V2000
   10.4627   -5.2462    0.0000 C   0  0  0  0  0  0  0  0  0  0  0  0
   11.2460   -4.1821    0.0000 C   0  0  0  0  0  0  0  0  0  0  0  0
   10.4627   -3.0886    0.0000 N   0  0  0  0  0  0  0  0  0  0  0  0
    9.2066   -4.8324    0.0000 C   0  0  0  0  0  0  0  0  0  0  0  0
    9.2066   -3.4876    0.0000 C   0  0  0  0  0  0  0  0  0  0  0  0
    8.0392   -2.8374    0.0000 C   0  0  0  0  0  0  0  0  0  0  0  0
    6.8717   -3.4876    0.0000 C   0  0  0  0  0  0  0  0  0  0  0  0
    6.8717   -4.8324    0.0000 C   0  0  0  0  0  0  0  0  0  0  0  0
    8.0392   -5.4974    0.0000 C   0  0  0  0  0  0  0  0  0  0  0  0
   12.5760   -4.1821    0.0000 C   0  0  0  0  0  0  0  0  0  0  0  0
   10.8913   -6.5023    0.0000 C   0  0  0  0  0  0  0  0  0  0  0  0
   10.8913   -1.8325    0.0000 C   0  0  0  0  0  0  0  0  0  0  0  0
   12.1770   -1.5517    0.0000 C   0  0  0  0  0  0  0  0  0  0  0  0
   13.0637   -2.5270    0.0000 C   0  0  0  0  0  0  0  0  0  0  0  0
   14.3789   -2.2610    0.0000 C   0  0  0  0  0  0  0  0  0  0  0  0
   14.7779   -0.9901    0.0000 C   0  0  0  0  0  0  0  0  0  0  0  0
   13.9060    0.0000    0.0000 C   0  0  0  0  0  0  0  0  0  0  0  0
   12.5760   -0.2956    0.0000 C   0  0  0  0  0  0  0  0  0  0  0  0
    5.7338   -5.4826    0.0000 C   0  0  0  0  0  0  0  0  0  0  0  0
    4.5811   -4.8324    0.0000 O   0  0  0  0  0  0  0  0  0  0  0  0
    5.7338   -6.8274    0.0000 O   0  0  0  0  0  0  0  0  0  0  0  0
    3.4432   -5.4826    0.0000 C   0  0  0  0  0  0  0  0  0  0  0  0
    2.2758   -4.8324    0.0000 C   0  0  0  0  0  0  0  0  0  0  0  0
    1.1527   -5.4826    0.0000 N   0  0  0  0  0  0  0  0  0  0  0  0
    0.0000   -4.8324    0.0000 C   0  0  0  0  0  0  0  0  0  0  0  0
    1.1527   -6.8274    0.0000 C   0  0  0  0  0  0  0  0  0  0  0  0
  1  4  1  0  0  0  0
  1  2  2  0  0  0  0
  1 11  1  0  0  0  0
  2 10  1  0  0  0  0
  2  3  1  0  0  0  0
  3  5  1  0  0  0  0
  3 12  1  0  0  0  0
  4  9  1  0  0  0  0
  4  5  2  0  0  0  0
  5  6  1  0  0  0  0
  6  7  2  0  0  0  0
  7  8  1  0  0  0  0
  8  9  2  0  0  0  0
  8 19  1  0  0  0  0
 12 13  1  0  0  0  0
 13 14  2  0  0  0  0
 13 18  1  0  0  0  0
 14 15  1  0  0  0  0
 15 16  2  0  0  0  0
 16 17  1  0  0  0  0
 17 18  2  0  0  0  0
 19 20  1  0  0  0  0
 19 21  2  0  0  0  0
 20 22  1  0  0  0  0
 22 23  1  0  0  0  0
 23 24  1  0  0  0  0
 24 25  1  0  0  0  0
 24 26  1  0  0  0  0
M  END
> <ID>
11438

> <Formula>
C22H26N2O2

> <FW>
350.454

> <DSSTox_CID>
26137

> <DSSTox_RID>
81370

> <DSSTox_GSID>
46137

> <DSSTox_FileID_Sort>
6051

> <TS_ChemName>
Indocate

> <TS_ChemName_Synonyms>


> <TS_CASRN>
31386-25-1

> <CASRN_ChemName_Relationship>
primary

> <TS_Description>
single chemical compound

> <ChemNote>


> <STRUCTURE_Shown>
tested chemical

> <STRUCTURE_Formula>
C22H26N2O2

> <STRUCTURE_MW>
350.454

> <STRUCTURE_ChemType>
defined organic

> <STRUCTURE_DefinedOrganicForm>
parent

> <STRUCTURE_IUPAC>
2-(dimethylamino)ethyl 1-benzyl-2,3-dimethyl-1H-indole-5-carboxylate

> <STRUCTURE_SMILES>
CN(C)CCOC(=O)c1cc3c(cc1)n(Cc2ccccc2)c(C)c3C

> <STRUCTURE_SMILES_Desalt>
CN(C)CCOC(=O)c1cc3c(cc1)n(Cc2ccccc2)c(C)c3C

> <Substance_modify_yyyymmdd>
20110817

$$$$
