313994-79-5
ChemmineR-0915142007XD

 42 46  0  0  1  0  0  0  0  0  1 V2000
   14.7338   -2.5871    0.0000 C   0  0  0  0  0  0  0  0  0  0  0  0
   13.4678   -2.1651    0.0000 C   0  0  0  0  0  0  0  0  0  0  0  0
   15.0090   -3.8899    0.0000 O   0  0  0  0  0  0  0  0  0  0  0  0
   12.4769   -3.0642    0.0000 N   0  0  0  0  0  0  0  0  0  0  0  0
   15.7246   -1.6881    0.0000 O   0  0  0  0  0  0  0  0  0  0  0  0
   13.1925   -0.8807    0.0000 C   0  0  0  0  0  0  0  0  0  0  0  0
   11.9265   -0.4771    0.0000 C   0  0  0  0  0  0  0  0  0  0  0  0
   14.1833    0.0000    0.0000 C   0  0  0  0  0  0  0  0  0  0  0  0
   12.7522   -4.3669    0.0000 C   0  0  0  0  0  0  0  0  0  0  0  0
   11.8714   -5.3577    0.0000 C   0  0  0  0  0  0  0  0  0  0  0  0
   12.5320   -6.4953    0.0000 C   0  0  0  0  0  0  0  0  0  0  0  0
   13.8347   -6.2201    0.0000 C   0  0  0  0  0  0  0  0  0  0  0  0
   13.9815   -4.8990    0.0000 C   0  0  0  0  0  0  0  0  0  0  0  0
   11.9999   -7.7247    0.0000 C   0  0  0  0  0  0  0  0  0  0  0  0
   10.6788   -7.8715    0.0000 N   0  0  0  0  0  0  0  0  0  0  0  0
   10.1467   -9.0825    0.0000 C   0  0  0  0  0  0  0  0  0  0  0  0
    9.8898   -6.7889    0.0000 C   0  0  0  0  0  0  0  0  0  0  0  0
    8.8256   -9.2293    0.0000 C   0  0  0  0  0  0  0  0  0  0  0  0
    8.5687   -6.9357    0.0000 C   0  0  0  0  0  0  0  0  0  0  0  0
    8.0366   -8.1467    0.0000 C   0  0  0  0  0  0  0  0  0  0  0  0
    4.7522   -9.1559    0.0000 N   0  0  0  0  0  0  0  0  0  0  0  0
    6.0550   -9.4311    0.0000 N   0  0  0  0  0  0  0  0  0  0  0  0
    5.8348   -7.3027    0.0000 C   0  0  0  0  0  0  0  0  0  0  0  0
    6.7155   -8.2751    0.0000 C   0  0  0  0  0  0  0  0  0  0  0  0
    4.6238   -7.8531    0.0000 C   0  0  0  0  0  0  0  0  0  0  0  0
    3.4679   -7.1926    0.0000 C   0  0  0  0  0  0  0  0  0  0  0  0
    2.3119   -7.8531    0.0000 C   0  0  0  0  0  0  0  0  0  0  0  0
    2.3119   -9.1742    0.0000 C   0  0  0  0  0  0  0  0  0  0  0  0
    1.1560   -7.1742    0.0000 C   0  0  0  0  0  0  0  0  0  0  0  0
    1.1560   -9.8531    0.0000 C   0  0  0  0  0  0  0  0  0  0  0  0
    0.0000   -7.8531    0.0000 C   0  0  0  0  0  0  0  0  0  0  0  0
    0.0183   -9.1926    0.0000 C   0  0  0  0  0  0  0  0  0  0  0  0
    6.6054  -10.6421    0.0000 C   0  0  0  0  0  0  0  0  0  0  0  0
    5.8165  -11.7247    0.0000 C   0  0  0  0  0  0  0  0  0  0  0  0
   17.0824   -7.5963    0.0000 C   0  0  0  0  0  0  0  0  0  0  0  0
   16.8072   -8.8806    0.0000 C   0  0  0  0  0  0  0  0  0  0  0  0
   15.5411   -9.3027    0.0000 C   0  0  0  0  0  0  0  0  0  0  0  0
   14.5503   -8.4036    0.0000 C   0  0  0  0  0  0  0  0  0  0  0  0
   14.8439   -7.1008    0.0000 C   0  0  0  0  0  0  0  0  0  0  0  0
   16.0916   -6.6972    0.0000 C   0  0  0  0  0  0  0  0  0  0  0  0
   18.3484   -7.1742    0.0000 F   0  0  0  0  0  0  0  0  0  0  0  0
   11.2109   -2.6605    0.0000 C   0  0  0  0  0  0  0  0  0  0  0  0
  1  2  1  0  0  0  0
  1  3  2  0  0  0  0
  1  5  1  0  0  0  0
  2  4  1  6  0  0  0
  2  6  1  0  0  0  0
  9  4  1  6  0  0  0
  4 42  1  0  0  0  0
  6  7  1  0  0  0  0
  6  8  1  0  0  0  0
  9 10  1  0  0  0  0
  9 13  1  0  0  0  0
 10 11  1  0  0  0  0
 11 12  1  0  0  0  0
 11 14  1  1  0  0  0
 12 13  1  0  0  0  0
 12 39  1  6  0  0  0
 14 15  1  0  0  0  0
 15 16  1  0  0  0  0
 15 17  1  0  0  0  0
 16 18  1  0  0  0  0
 17 19  1  0  0  0  0
 18 20  1  0  0  0  0
 19 20  1  0  0  0  0
 20 24  1  0  0  0  0
 21 22  1  0  0  0  0
 21 25  2  0  0  0  0
 22 24  1  0  0  0  0
 22 33  1  0  0  0  0
 23 24  2  0  0  0  0
 23 25  1  0  0  0  0
 25 26  1  0  0  0  0
 26 27  1  0  0  0  0
 27 28  2  0  0  0  0
 27 29  1  0  0  0  0
 28 30  1  0  0  0  0
 29 31  2  0  0  0  0
 30 32  2  0  0  0  0
 31 32  1  0  0  0  0
 33 34  1  0  0  0  0
 35 40  2  0  0  0  0
 35 36  1  0  0  0  0
 35 41  1  0  0  0  0
 36 37  2  0  0  0  0
 37 38  1  0  0  0  0
 38 39  2  0  0  0  0
 39 40  1  0  0  0  0
M  END
> <ID>
12469

> <Formula>
C35H47FN4O2

> <FW>
574.7717

> <DSSTox_CID>
27327

> <DSSTox_RID>
82272

> <DSSTox_GSID>
47327

> <DSSTox_FileID_Sort>
6953

> <TS_ChemName>
MK-578

> <TS_ChemName_Synonyms>


> <TS_CASRN>
313994-79-5

> <CASRN_ChemName_Relationship>
primary

> <TS_Description>
single chemical compound

> <ChemNote>
stereochem

> <STRUCTURE_Shown>
tested chemical

> <STRUCTURE_Formula>
C35H47FN4O2

> <STRUCTURE_MW>
574.7717

> <STRUCTURE_ChemType>
defined organic

> <STRUCTURE_DefinedOrganicForm>
parent

> <STRUCTURE_IUPAC>
N-[(1R,3S,4S)-3-{[4-(3-benzyl-1-ethyl-1H-pyrazol-5-yl)piperidin-1-yl]methyl}-4-(3-fluorophenyl)cyclopentyl]-N-methyl-D-valine

> <STRUCTURE_SMILES>
CCn5nc(Cc1ccccc1)cc5C4CCN(C[C@H]3C[C@@H](C[C@@H]3c2cccc(F)c2)N(C)[C@@H](C(=O)O)C(C)C)CC4

> <STRUCTURE_SMILES_Desalt>
CCn5nc(Cc1ccccc1)cc5C4CCN(C[C@H]3C[C@@H](C[C@@H]3c2cccc(F)c2)N(C)[C@@H](C(=O)O)C(C)C)CC4

> <Substance_modify_yyyymmdd>
20130910

$$$$
