314-13-6
ChemmineR-0915142007XD

 62 63  0  0  0  0  0  0  0  0  2 V2000
   22.0919  -13.0386    0.0000 Na   0  3  0  0  0  0  0  0  0  0  0  0
    0.2764   -7.4868    0.0000 Na   0  3  0  0  0  0  0  0  0  0  0  0
   21.2626  -19.9496    0.0000 Na   0  3  0  0  0  0  0  0  0  0  0  0
    1.2440    0.0000    0.0000 Na   0  3  0  0  0  0  0  0  0  0  0  0
   23.0364  -14.1444    0.0000 O    0  5  0  0  0  0  0  0  0  0  0  0
   21.8846  -14.8124    0.0000 S    0  0  0  0  0  0  0  0  0  0  0  0
   22.5527  -15.9643    0.0000 O    0  0  0  0  0  0  0  0  0  0  0  0
   21.2166  -13.6606    0.0000 O    0  0  0  0  0  0  0  0  0  0  0  0
   20.7328  -15.4805    0.0000 C    0  0  0  0  0  0  0  0  0  0  0  0
   20.7328  -16.8166    0.0000 C    0  0  0  0  0  0  0  0  0  0  0  0
   19.5810  -17.4847    0.0000 C    0  0  0  0  0  0  0  0  0  0  0  0
   18.4291  -16.8166    0.0000 C    0  0  0  0  0  0  0  0  0  0  0  0
   17.2773  -17.4847    0.0000 N    0  0  0  0  0  0  0  0  0  0  0  0
   18.4291  -15.4805    0.0000 C    0  0  0  0  0  0  0  0  0  0  0  0
   19.5810  -14.8124    0.0000 C    0  0  0  0  0  0  0  0  0  0  0  0
   19.5810  -13.4994    0.0000 C    0  0  0  0  0  0  0  0  0  0  0  0
   18.4291  -12.8313    0.0000 C    0  0  0  0  0  0  0  0  0  0  0  0
   17.2773  -13.4994    0.0000 C    0  0  0  0  0  0  0  0  0  0  0  0
   16.1255  -12.8313    0.0000 N    0  0  0  0  0  0  0  0  0  0  0  0
   16.1255  -11.4952    0.0000 N    0  0  0  0  0  0  0  0  0  0  0  0
   14.9737  -10.8271    0.0000 C    0  0  0  0  0  0  0  0  0  0  0  0
   14.9737   -9.4910    0.0000 C    0  0  0  0  0  0  0  0  0  0  0  0
   13.8219   -8.8460    0.0000 C    0  0  0  0  0  0  0  0  0  0  0  0
   12.6700   -9.4910    0.0000 C    0  0  0  0  0  0  0  0  0  0  0  0
   12.6700  -10.8271    0.0000 C    0  0  0  0  0  0  0  0  0  0  0  0
   13.8219  -11.4952    0.0000 C    0  0  0  0  0  0  0  0  0  0  0  0
   13.8219  -12.8313    0.0000 C    0  0  0  0  0  0  0  0  0  0  0  0
   11.5182   -8.8460    0.0000 C    0  0  0  0  0  0  0  0  0  0  0  0
   11.5182   -7.5099    0.0000 C    0  0  0  0  0  0  0  0  0  0  0  0
   10.3664   -6.8418    0.0000 C    0  0  0  0  0  0  0  0  0  0  0  0
    9.2146   -7.5099    0.0000 C    0  0  0  0  0  0  0  0  0  0  0  0
    8.0628   -6.8418    0.0000 N    0  0  0  0  0  0  0  0  0  0  0  0
    8.0628   -5.5057    0.0000 N    0  0  0  0  0  0  0  0  0  0  0  0
    6.9109   -4.8377    0.0000 C    0  0  0  0  0  0  0  0  0  0  0  0
    6.9109   -3.5246    0.0000 C    0  0  0  0  0  0  0  0  0  0  0  0
    5.7591   -2.8565    0.0000 C    0  0  0  0  0  0  0  0  0  0  0  0
    4.6073   -3.5246    0.0000 C    0  0  0  0  0  0  0  0  0  0  0  0
    3.4555   -2.8565    0.0000 C    0  0  0  0  0  0  0  0  0  0  0  0
    2.3036   -3.5246    0.0000 C    0  0  0  0  0  0  0  0  0  0  0  0
    2.3036   -4.8377    0.0000 C    0  0  0  0  0  0  0  0  0  0  0  0
    3.4555   -5.5057    0.0000 C    0  0  0  0  0  0  0  0  0  0  0  0
    3.4555   -6.8418    0.0000 N    0  0  0  0  0  0  0  0  0  0  0  0
    4.6073   -4.8377    0.0000 C    0  0  0  0  0  0  0  0  0  0  0  0
    5.7591   -5.5057    0.0000 C    0  0  0  0  0  0  0  0  0  0  0  0
    5.7591   -6.8418    0.0000 O    0  0  0  0  0  0  0  0  0  0  0  0
    1.1518   -5.5057    0.0000 S    0  0  0  0  0  0  0  0  0  0  0  0
    0.0000   -6.1738    0.0000 O    0  5  0  0  0  0  0  0  0  0  0  0
    0.4838   -4.3539    0.0000 O    0  0  0  0  0  0  0  0  0  0  0  0
    1.8199   -6.6575    0.0000 O    0  0  0  0  0  0  0  0  0  0  0  0
    3.4555   -1.5204    0.0000 S    0  0  0  0  0  0  0  0  0  0  0  0
    3.4555   -0.1843    0.0000 O    0  5  0  0  0  0  0  0  0  0  0  0
    4.7916   -1.5204    0.0000 O    0  0  0  0  0  0  0  0  0  0  0  0
    2.1194   -1.5204    0.0000 O    0  0  0  0  0  0  0  0  0  0  0  0
    9.2146   -8.8460    0.0000 C    0  0  0  0  0  0  0  0  0  0  0  0
    8.0628   -9.4910    0.0000 C    0  0  0  0  0  0  0  0  0  0  0  0
   10.3664   -9.4910    0.0000 C    0  0  0  0  0  0  0  0  0  0  0  0
   17.2773  -14.8124    0.0000 C    0  0  0  0  0  0  0  0  0  0  0  0
   16.1255  -15.4805    0.0000 O    0  0  0  0  0  0  0  0  0  0  0  0
   19.5810  -18.8208    0.0000 S    0  0  0  0  0  0  0  0  0  0  0  0
   19.5810  -20.1338    0.0000 O    0  5  0  0  0  0  0  0  0  0  0  0
   18.2449  -18.8208    0.0000 O    0  0  0  0  0  0  0  0  0  0  0  0
   20.9171  -18.8208    0.0000 O    0  0  0  0  0  0  0  0  0  0  0  0
  5  6  1  0  0  0  0
  6  7  2  0  0  0  0
  6  8  2  0  0  0  0
  6  9  1  0  0  0  0
  9 10  2  0  0  0  0
  9 15  1  0  0  0  0
 10 11  1  0  0  0  0
 11 12  2  0  0  0  0
 11 59  1  0  0  0  0
 12 13  1  0  0  0  0
 12 14  1  0  0  0  0
 14 15  2  0  0  0  0
 14 57  1  0  0  0  0
 15 16  1  0  0  0  0
 16 17  2  0  0  0  0
 17 18  1  0  0  0  0
 18 19  1  0  0  0  0
 18 57  2  0  0  0  0
 19 20  2  0  0  0  0
 20 21  1  0  0  0  0
 21 22  2  0  0  0  0
 21 26  1  0  0  0  0
 22 23  1  0  0  0  0
 23 24  2  0  0  0  0
 24 25  1  0  0  0  0
 24 28  1  0  0  0  0
 25 26  2  0  0  0  0
 26 27  1  0  0  0  0
 28 29  2  0  0  0  0
 28 56  1  0  0  0  0
 29 30  1  0  0  0  0
 30 31  2  0  0  0  0
 31 32  1  0  0  0  0
 31 54  1  0  0  0  0
 32 33  2  0  0  0  0
 33 34  1  0  0  0  0
 34 35  2  0  0  0  0
 34 44  1  0  0  0  0
 35 36  1  0  0  0  0
 36 37  2  0  0  0  0
 37 38  1  0  0  0  0
 37 43  1  0  0  0  0
 38 39  2  0  0  0  0
 38 50  1  0  0  0  0
 39 40  1  0  0  0  0
 40 41  2  0  0  0  0
 40 46  1  0  0  0  0
 41 42  1  0  0  0  0
 41 43  1  0  0  0  0
 43 44  2  0  0  0  0
 44 45  1  0  0  0  0
 46 47  1  0  0  0  0
 46 48  2  0  0  0  0
 46 49  2  0  0  0  0
 50 51  1  0  0  0  0
 50 52  2  0  0  0  0
 50 53  2  0  0  0  0
 54 55  1  0  0  0  0
 54 56  2  0  0  0  0
 57 58  1  0  0  0  0
 59 60  1  0  0  0  0
 59 61  2  0  0  0  0
 59 62  2  0  0  0  0
M  END
> <ID>
2546

> <Formula>
C34H24N6Na4O14S4

> <FW>
960.8052 (22.9892+22.9892+22.9892+22.9892+868.8484)

> <DSSTox_CID>
2815

> <DSSTox_RID>
76741

> <DSSTox_GSID>
22815

> <DSSTox_FileID_Sort>
1425

> <TS_ChemName>
C.I. Direct Blue 53

> <TS_ChemName_Synonyms>
C.I. Direct Blue 53 (Evans blue)

> <TS_CASRN>
314-13-6

> <CASRN_ChemName_Relationship>
primary

> <TS_Description>
single chemical compound

> <ChemNote>
C.I. 23860

> <STRUCTURE_Shown>
tested chemical

> <STRUCTURE_Formula>
C34H24N6Na4O14S4

> <STRUCTURE_MW>
960.8052

> <STRUCTURE_ChemType>
defined organic

> <STRUCTURE_DefinedOrganicForm>
salt

> <STRUCTURE_IUPAC>
tetrasodium 6,6'-[(3,3'-dimethylbiphenyl-4,4'-diyl)di(E)diazene-2,1-diyl]bis(4-amino-5-hydroxynaphthalene-1,3-disulfonate)

> <STRUCTURE_SMILES>
[Na+].[Na+].[Na+].[Na+].[O-]S(=O)(=O)c6cc(c(N)c5c6ccc(/N=N/c1ccc(cc1C)c4ccc(/N=N/c3ccc2c(cc(c(N)c2c3O)S([O-])(=O)=O)S([O-])(=O)=O)c(C)c4)c5O)S([O-])(=O)=O

> <STRUCTURE_SMILES_Desalt>
O=S(=O)(O)c6cc(c(N)c5c6ccc(/N=N/c1ccc(cc1C)c4ccc(/N=N/c3ccc2c(cc(c(N)c2c3O)S(=O)(=O)O)S(=O)(=O)O)c(C)c4)c5O)S(=O)(=O)O

> <Substance_modify_yyyymmdd>
20080429

$$$$
