31431-43-3
ChemmineR-0915142007XD

 19 21  0  0  0  0  0  0  0  0  1 V2000
   10.6351    0.0000    0.0000 C   0  0  0  0  0  0  0  0  0  0  0  0
    9.9758   -1.1592    0.0000 O   0  0  0  0  0  0  0  0  0  0  0  0
    8.6464   -1.1592    0.0000 C   0  0  0  0  0  0  0  0  0  0  0  0
    7.9764    0.0000    0.0000 O   0  0  0  0  0  0  0  0  0  0  0  0
    7.9764   -2.3078    0.0000 N   0  0  0  0  0  0  0  0  0  0  0  0
    6.6470   -2.3078    0.0000 C   0  0  0  0  0  0  0  0  0  0  0  0
    5.8706   -3.3820    0.0000 N   0  0  0  0  0  0  0  0  0  0  0  0
    4.6050   -2.9672    0.0000 C   0  0  0  0  0  0  0  0  0  0  0  0
    4.6050   -1.6378    0.0000 C   0  0  0  0  0  0  0  0  0  0  0  0
    5.8706   -1.2337    0.0000 N   0  0  0  0  0  0  0  0  0  0  0  0
    3.4564   -0.9784    0.0000 C   0  0  0  0  0  0  0  0  0  0  0  0
    2.2972   -1.6378    0.0000 C   0  0  0  0  0  0  0  0  0  0  0  0
    2.2972   -2.9672    0.0000 C   0  0  0  0  0  0  0  0  0  0  0  0
    3.4564   -3.6372    0.0000 C   0  0  0  0  0  0  0  0  0  0  0  0
    1.1486   -3.6372    0.0000 C   0  0  0  0  0  0  0  0  0  0  0  0
    0.0000   -2.9672    0.0000 O   0  0  0  0  0  0  0  0  0  0  0  0
    1.1486   -4.9666    0.0000 C   0  0  0  0  0  0  0  0  0  0  0  0
    0.4892   -6.1152    0.0000 C   0  0  0  0  0  0  0  0  0  0  0  0
    1.8186   -6.1152    0.0000 C   0  0  0  0  0  0  0  0  0  0  0  0
  1  2  1  0  0  0  0
  2  3  1  0  0  0  0
  3  4  2  0  0  0  0
  3  5  1  0  0  0  0
  5  6  1  0  0  0  0
  6  7  2  0  0  0  0
  6 10  1  0  0  0  0
  7  8  1  0  0  0  0
  8  9  2  0  0  0  0
  8 14  1  0  0  0  0
  9 10  1  0  0  0  0
  9 11  1  0  0  0  0
 11 12  2  0  0  0  0
 12 13  1  0  0  0  0
 13 14  2  0  0  0  0
 13 15  1  0  0  0  0
 15 16  2  0  0  0  0
 15 17  1  0  0  0  0
 17 18  1  0  0  0  0
 17 19  1  0  0  0  0
 18 19  1  0  0  0  0
M  END
> <ID>
16115

> <Formula>
C13H13N3O3

> <FW>
259.2606

> <DSSTox_CID>
31502

> <DSSTox_RID>
97387

> <DSSTox_GSID>
57713

> <DSSTox_FileID_Sort>
8454

> <TS_ChemName>
Cyclobendazole

> <TS_ChemName_Synonyms>


> <TS_CASRN>
31431-43-3

> <CASRN_ChemName_Relationship>
primary

> <TS_Description>
single chemical compound

> <ChemNote>


> <STRUCTURE_Shown>
tested chemical

> <STRUCTURE_Formula>
C13H13N3O3

> <STRUCTURE_MW>
259.2606

> <STRUCTURE_ChemType>
defined organic

> <STRUCTURE_DefinedOrganicForm>
parent

> <STRUCTURE_IUPAC>
methyl [5-(cyclopropylcarbonyl)-1H-benzimidazol-2-yl]carbamate

> <STRUCTURE_SMILES>
O=C(OC)Nc1nc2cc(ccc2n1)C(=O)C3CC3

> <STRUCTURE_SMILES_Desalt>
O=C(OC)Nc1nc2cc(ccc2n1)C(=O)C3CC3

> <Substance_modify_yyyymmdd>
20131018

$$$$
