31431-39-7
ChemmineR-0915142007XD

 22 24  0  0  0  0  0  0  0  0  1 V2000
    8.9558   -2.3166    0.0000 C   0  0  0  0  0  0  0  0  0  0  0  0
    8.1664   -3.3779    0.0000 N   0  0  0  0  0  0  0  0  0  0  0  0
    8.1664   -1.2295    0.0000 N   0  0  0  0  0  0  0  0  0  0  0  0
   10.2889   -2.3166    0.0000 N   0  0  0  0  0  0  0  0  0  0  0  0
    6.9110   -2.9637    0.0000 C   0  0  0  0  0  0  0  0  0  0  0  0
   10.9618   -1.1518    0.0000 C   0  0  0  0  0  0  0  0  0  0  0  0
    6.9110   -1.6307    0.0000 C   0  0  0  0  0  0  0  0  0  0  0  0
    4.6073   -2.9637    0.0000 C   0  0  0  0  0  0  0  0  0  0  0  0
    3.4426   -3.6367    0.0000 C   0  0  0  0  0  0  0  0  0  0  0  0
    5.7462   -3.6367    0.0000 C   0  0  0  0  0  0  0  0  0  0  0  0
   10.2889    0.0000    0.0000 O   0  0  0  0  0  0  0  0  0  0  0  0
    4.6073   -1.6307    0.0000 C   0  0  0  0  0  0  0  0  0  0  0  0
    3.4426   -4.9697    0.0000 O   0  0  0  0  0  0  0  0  0  0  0  0
    5.7462   -0.9836    0.0000 C   0  0  0  0  0  0  0  0  0  0  0  0
    2.3037   -2.9637    0.0000 C   0  0  0  0  0  0  0  0  0  0  0  0
   12.2819   -1.1518    0.0000 O   0  0  0  0  0  0  0  0  0  0  0  0
    1.1389   -3.6367    0.0000 C   0  0  0  0  0  0  0  0  0  0  0  0
    2.3037   -1.6307    0.0000 C   0  0  0  0  0  0  0  0  0  0  0  0
   12.9420    0.0000    0.0000 C   0  0  0  0  0  0  0  0  0  0  0  0
    0.0000   -2.9637    0.0000 C   0  0  0  0  0  0  0  0  0  0  0  0
    1.1389   -0.9836    0.0000 C   0  0  0  0  0  0  0  0  0  0  0  0
    0.0000   -1.6307    0.0000 C   0  0  0  0  0  0  0  0  0  0  0  0
  1  2  2  0  0  0  0
  1  3  1  0  0  0  0
  1  4  1  0  0  0  0
  2  5  1  0  0  0  0
  3  7  1  0  0  0  0
  4  6  1  0  0  0  0
  5 10  1  0  0  0  0
  5  7  2  0  0  0  0
  6 11  2  0  0  0  0
  6 16  1  0  0  0  0
  7 14  1  0  0  0  0
  8 10  2  0  0  0  0
  8  9  1  0  0  0  0
  8 12  1  0  0  0  0
  9 13  2  0  0  0  0
  9 15  1  0  0  0  0
 12 14  2  0  0  0  0
 15 17  1  0  0  0  0
 15 18  2  0  0  0  0
 16 19  1  0  0  0  0
 17 20  2  0  0  0  0
 18 21  1  0  0  0  0
 20 22  1  0  0  0  0
 21 22  2  0  0  0  0
M  END
> <ID>
7880

> <Formula>
C16H13N3O3

> <FW>
295.2927

> <DSSTox_CID>
20682

> <DSSTox_RID>
79538

> <DSSTox_GSID>
40682

> <DSSTox_FileID_Sort>
4220

> <TS_ChemName>
Mebendazole

> <TS_ChemName_Synonyms>


> <TS_CASRN>
31431-39-7

> <CASRN_ChemName_Relationship>
primary

> <TS_Description>
single chemical compound

> <ChemNote>
tautomers

> <STRUCTURE_Shown>
tested chemical

> <STRUCTURE_Formula>
C16H13N3O3

> <STRUCTURE_MW>
295.2927

> <STRUCTURE_ChemType>
defined organic

> <STRUCTURE_DefinedOrganicForm>
parent

> <STRUCTURE_IUPAC>
methyl (5-benzoyl-1H-benzimidazol-2-yl)carbamate

> <STRUCTURE_SMILES>
O=C(OC)Nc1nc2cc(ccc2n1)C(=O)c3ccccc3

> <STRUCTURE_SMILES_Desalt>
O=C(OC)Nc1nc2cc(ccc2n1)C(=O)c3ccccc3

> <Substance_modify_yyyymmdd>
20080429

$$$$
