31430-18-9
ChemmineR-0915142007XD

 21 23  0  0  0  0  0  0  0  0  1 V2000
    8.7571   -2.6694    0.0000 C   0  0  0  0  0  0  0  0  0  0  0  0
    7.9720   -1.5944    0.0000 N   0  0  0  0  0  0  0  0  0  0  0  0
    7.9720   -3.7444    0.0000 N   0  0  0  0  0  0  0  0  0  0  0  0
   10.0858   -2.6694    0.0000 N   0  0  0  0  0  0  0  0  0  0  0  0
    6.7158   -2.0051    0.0000 C   0  0  0  0  0  0  0  0  0  0  0  0
   10.7501   -3.8169    0.0000 C   0  0  0  0  0  0  0  0  0  0  0  0
    3.2492   -1.3287    0.0000 C   0  0  0  0  0  0  0  0  0  0  0  0
    6.7158   -3.3337    0.0000 C   0  0  0  0  0  0  0  0  0  0  0  0
    2.1017   -2.0051    0.0000 C   0  0  0  0  0  0  0  0  0  0  0  0
    4.4088   -2.0051    0.0000 C   0  0  0  0  0  0  0  0  0  0  0  0
    5.5562   -1.3287    0.0000 C   0  0  0  0  0  0  0  0  0  0  0  0
    1.9688   -3.3217    0.0000 S   0  0  0  0  0  0  0  0  0  0  0  0
    0.8938   -1.4615    0.0000 C   0  0  0  0  0  0  0  0  0  0  0  0
    0.6643   -3.5995    0.0000 C   0  0  0  0  0  0  0  0  0  0  0  0
   12.0788   -3.8169    0.0000 O   0  0  0  0  0  0  0  0  0  0  0  0
    4.4088   -3.3337    0.0000 C   0  0  0  0  0  0  0  0  0  0  0  0
    3.2492    0.0000    0.0000 O   0  0  0  0  0  0  0  0  0  0  0  0
    5.5562   -3.9981    0.0000 C   0  0  0  0  0  0  0  0  0  0  0  0
    0.0000   -2.4520    0.0000 C   0  0  0  0  0  0  0  0  0  0  0  0
   10.0858   -4.9644    0.0000 O   0  0  0  0  0  0  0  0  0  0  0  0
   10.7501   -6.1239    0.0000 C   0  0  0  0  0  0  0  0  0  0  0  0
  1  2  2  0  0  0  0
  1  3  1  0  0  0  0
  1  4  1  0  0  0  0
  2  5  1  0  0  0  0
  3  8  1  0  0  0  0
  4  6  1  0  0  0  0
  5 11  1  0  0  0  0
  5  8  2  0  0  0  0
  6 15  2  0  0  0  0
  6 20  1  0  0  0  0
  7 10  1  0  0  0  0
  7  9  1  0  0  0  0
  7 17  2  0  0  0  0
  8 18  1  0  0  0  0
  9 12  1  0  0  0  0
  9 13  2  0  0  0  0
 10 11  2  0  0  0  0
 10 16  1  0  0  0  0
 12 14  1  0  0  0  0
 13 19  1  0  0  0  0
 14 19  2  0  0  0  0
 16 18  2  0  0  0  0
 20 21  1  0  0  0  0
M  END
> <ID>
6354

> <Formula>
C14H11N3O3S

> <FW>
301.3204

> <DSSTox_CID>
11800

> <DSSTox_RID>
78890

> <DSSTox_GSID>
31800

> <DSSTox_FileID_Sort>
3572

> <TS_ChemName>
Nocodazole

> <TS_ChemName_Synonyms>


> <TS_CASRN>
31430-18-9

> <CASRN_ChemName_Relationship>
primary

> <TS_Description>
single chemical compound

> <ChemNote>
tautomers

> <STRUCTURE_Shown>
tested chemical

> <STRUCTURE_Formula>
C14H11N3O3S

> <STRUCTURE_MW>
301.3204

> <STRUCTURE_ChemType>
defined organic

> <STRUCTURE_DefinedOrganicForm>
parent

> <STRUCTURE_IUPAC>
methyl [5-(thiophen-2-ylcarbonyl)-1H-benzimidazol-2-yl]carbamate

> <STRUCTURE_SMILES>
O=C(c1cc2nc(NC(=O)OC)nc2cc1)c3cccs3

> <STRUCTURE_SMILES_Desalt>
O=C(c1cc2nc(NC(=O)OC)nc2cc1)c3cccs3

> <Substance_modify_yyyymmdd>
20080429

$$$$
