3147-75-9
ChemmineR-0915142007XD

 24 26  0  0  0  0  0  0  0  0  1 V2000
    2.3074   -2.7531    0.0000 C   0  0  0  0  0  0  0  0  0  0  0  0
    2.3074   -1.4261    0.0000 O   0  0  0  0  0  0  0  0  0  0  0  0
    3.4661   -3.4265    0.0000 C   0  0  0  0  0  0  0  0  0  0  0  0
    1.1587   -3.4265    0.0000 C   0  0  0  0  0  0  0  0  0  0  0  0
    1.1587   -4.7634    0.0000 C   0  0  0  0  0  0  0  0  0  0  0  0
    3.4661   -4.7634    0.0000 C   0  0  0  0  0  0  0  0  0  0  0  0
    2.3074   -5.4170    0.0000 C   0  0  0  0  0  0  0  0  0  0  0  0
    4.7634   -1.4459    0.0000 N   0  0  0  0  0  0  0  0  0  0  0  0
    4.6149   -2.7531    0.0000 N   0  0  0  0  0  0  0  0  0  0  0  0
    5.8330   -3.2977    0.0000 N   0  0  0  0  0  0  0  0  0  0  0  0
    6.7143   -2.3074    0.0000 C   0  0  0  0  0  0  0  0  0  0  0  0
    6.0607   -1.1587    0.0000 C   0  0  0  0  0  0  0  0  0  0  0  0
    6.7143    0.0000    0.0000 C   0  0  0  0  0  0  0  0  0  0  0  0
    8.0414    0.0000    0.0000 C   0  0  0  0  0  0  0  0  0  0  0  0
    8.7148   -1.1587    0.0000 C   0  0  0  0  0  0  0  0  0  0  0  0
    8.0414   -2.3074    0.0000 C   0  0  0  0  0  0  0  0  0  0  0  0
    2.3074   -6.7440    0.0000 C   0  0  0  0  0  0  0  0  0  0  0  0
    2.3074   -8.0810    0.0000 C   0  0  0  0  0  0  0  0  0  0  0  0
    1.1587   -8.7445    0.0000 C   0  0  0  0  0  0  0  0  0  0  0  0
    0.4952   -7.5957    0.0000 C   0  0  0  0  0  0  0  0  0  0  0  0
    3.6345   -6.7440    0.0000 C   0  0  0  0  0  0  0  0  0  0  0  0
    0.9804   -6.7440    0.0000 C   0  0  0  0  0  0  0  0  0  0  0  0
    1.8222   -9.9031    0.0000 C   0  0  0  0  0  0  0  0  0  0  0  0
    0.0000   -9.4080    0.0000 C   0  0  0  0  0  0  0  0  0  0  0  0
  1  2  1  0  0  0  0
  1  3  2  0  0  0  0
  1  4  1  0  0  0  0
  3  6  1  0  0  0  0
  3  9  1  0  0  0  0
  4  5  2  0  0  0  0
  5  7  1  0  0  0  0
  6  7  2  0  0  0  0
  7 17  1  0  0  0  0
  8  9  1  0  0  0  0
  8 12  2  0  0  0  0
  9 10  1  0  0  0  0
 10 11  2  0  0  0  0
 11 12  1  0  0  0  0
 11 16  1  0  0  0  0
 12 13  1  0  0  0  0
 13 14  2  0  0  0  0
 14 15  1  0  0  0  0
 15 16  2  0  0  0  0
 17 18  1  0  0  0  0
 17 21  1  0  0  0  0
 17 22  1  0  0  0  0
 18 19  1  0  0  0  0
 19 20  1  0  0  0  0
 19 23  1  0  0  0  0
 19 24  1  0  0  0  0
M  END
> <ID>
5217

> <Formula>
C20H25N3O

> <FW>
323.432

> <DSSTox_CID>
7522

> <DSSTox_RID>
78487

> <DSSTox_GSID>
27522

> <DSSTox_FileID_Sort>
3170

> <TS_ChemName>
Octrizole

> <TS_ChemName_Synonyms>
Octrizole (Phenol, 2-(2H-benzotriazol-2-yl)-4-(1,1,3,3-tetramethylbutyl)-)

> <TS_CASRN>
3147-75-9

> <CASRN_ChemName_Relationship>
primary

> <TS_Description>
single chemical compound

> <ChemNote>


> <STRUCTURE_Shown>
tested chemical

> <STRUCTURE_Formula>
C20H25N3O

> <STRUCTURE_MW>
323.432

> <STRUCTURE_ChemType>
defined organic

> <STRUCTURE_DefinedOrganicForm>
parent

> <STRUCTURE_IUPAC>
2-(2H-benzotriazol-2-yl)-4-(2,4,4-trimethylpentan-2-yl)phenol

> <STRUCTURE_SMILES>
CC(C)(C)CC(C)(C)c1cc(c(O)cc1)n2nc3ccccc3n2

> <STRUCTURE_SMILES_Desalt>
CC(C)(C)CC(C)(C)c1cc(c(O)cc1)n2nc3ccccc3n2

> <Substance_modify_yyyymmdd>
20080429

$$$$
