31477-60-8
ChemmineR-0915142007XD

 34 38  0  0  1  0  0  0  0  0  1 V2000
    5.7524   -3.1613    0.0000 C   0  0  0  0  0  0  0  0  0  0  0  0
    4.5994   -2.4919    0.0000 C   0  0  0  0  0  0  0  0  0  0  0  0
    6.9053   -2.5043    0.0000 C   0  0  0  0  0  0  0  0  0  0  0  0
    5.7524   -4.4878    0.0000 C   0  0  0  0  0  0  0  0  0  0  0  0
    4.5994   -1.1654    0.0000 C   0  0  0  0  0  0  0  0  0  0  0  0
    3.4465   -3.1613    0.0000 C   0  0  0  0  0  0  0  0  0  0  0  0
    8.0707   -3.1613    0.0000 C   0  0  0  0  0  0  0  0  0  0  0  0
    6.9053   -1.1654    0.0000 C   0  0  0  0  0  0  0  0  0  0  0  0
    4.5870   -5.1449    0.0000 C   0  0  0  0  0  0  0  0  0  0  0  0
    6.8805   -5.1449    0.0000 C   0  0  0  0  0  0  0  0  0  0  0  0
    5.7524   -0.4835    0.0000 O   0  0  0  0  0  0  0  0  0  0  0  0
    3.4465   -0.4959    0.0000 C   0  0  0  0  0  0  0  0  0  0  0  0
    2.3059   -2.5043    0.0000 C   0  0  0  0  0  0  0  0  0  0  0  0
    8.0459   -4.4878    0.0000 C   0  0  0  0  0  0  0  0  0  0  0  0
    9.1988   -2.5043    0.0000 C   0  0  0  0  0  0  0  0  0  0  0  0
    7.5748    0.0000    0.0000 C   0  0  0  0  0  0  0  0  0  0  0  0
    8.2319   -1.1654    0.0000 C   0  0  0  0  0  0  0  0  0  0  0  0
    4.5870   -6.4714    0.0000 C   0  0  0  0  0  0  0  0  0  0  0  0
    6.8805   -6.4714    0.0000 C   0  0  0  0  0  0  0  0  0  0  0  0
    2.3059   -1.1654    0.0000 C   0  0  0  0  0  0  0  0  0  0  0  0
    9.1865   -5.1821    0.0000 C   0  0  0  0  0  0  0  0  0  0  0  0
   10.3518   -3.1613    0.0000 C   0  0  0  0  0  0  0  0  0  0  0  0
    5.7152   -7.1533    0.0000 C   0  0  0  0  0  0  0  0  0  0  0  0
    1.1282   -0.4959    0.0000 O   0  0  0  0  0  0  0  0  0  0  0  0
   10.3518   -4.5002    0.0000 C   0  0  0  0  0  0  0  0  0  0  0  0
    5.7152   -8.4798    0.0000 O   0  0  0  0  0  0  0  0  0  0  0  0
    0.0000   -1.1654    0.0000 C   0  0  0  0  0  0  0  0  0  0  0  0
    6.8681   -9.1369    0.0000 C   0  0  0  0  0  0  0  0  0  0  0  0
    6.8681  -10.4634    0.0000 C   0  0  0  0  0  0  0  0  0  0  0  0
    8.0211  -11.1204    0.0000 N   0  0  0  0  0  0  0  0  0  0  0  0
    8.4178  -12.3974    0.0000 C   0  0  0  0  0  0  0  0  0  0  0  0
    9.0749  -10.3518    0.0000 C   0  0  0  0  0  0  0  0  0  0  0  0
    9.7319  -12.3974    0.0000 C   0  0  0  0  0  0  0  0  0  0  0  0
   10.1658  -11.1328    0.0000 C   0  0  0  0  0  0  0  0  0  0  0  0
  1  2  1  0  0  0  0
  1  3  1  0  0  0  0
  1  4  1  6  0  0  0
  2  5  1  0  0  0  0
  2  6  2  0  0  0  0
  3  7  1  1  0  0  0
  3  8  1  0  0  0  0
  4  9  2  0  0  0  0
  4 10  1  0  0  0  0
  5 11  1  0  0  0  0
  5 12  2  0  0  0  0
  6 13  1  0  0  0  0
  7 14  2  0  0  0  0
  7 15  1  0  0  0  0
  8 16  1  0  0  0  0
  8 17  1  0  0  0  0
  8 11  1  0  0  0  0
  9 18  1  0  0  0  0
 10 19  2  0  0  0  0
 12 20  1  0  0  0  0
 13 20  2  0  0  0  0
 14 21  1  0  0  0  0
 15 22  2  0  0  0  0
 18 23  2  0  0  0  0
 19 23  1  0  0  0  0
 20 24  1  0  0  0  0
 21 25  2  0  0  0  0
 22 25  1  0  0  0  0
 23 26  1  0  0  0  0
 24 27  1  0  0  0  0
 26 28  1  0  0  0  0
 28 29  1  0  0  0  0
 29 30  1  0  0  0  0
 30 31  1  0  0  0  0
 30 32  1  0  0  0  0
 31 33  1  0  0  0  0
 32 34  1  0  0  0  0
 33 34  1  0  0  0  0
M  END
> <ID>
12017

> <Formula>
C30H35NO3

> <FW>
457.6038

> <DSSTox_CID>
26844

> <DSSTox_RID>
81954

> <DSSTox_GSID>
46844

> <DSSTox_FileID_Sort>
6635

> <TS_ChemName>
Ormeloxifene

> <TS_ChemName_Synonyms>


> <TS_CASRN>
31477-60-8

> <CASRN_ChemName_Relationship>
primary

> <TS_Description>
single chemical compound

> <ChemNote>
stereochem

> <STRUCTURE_Shown>
tested chemical

> <STRUCTURE_Formula>
C30H35NO3

> <STRUCTURE_MW>
457.6038

> <STRUCTURE_ChemType>
defined organic

> <STRUCTURE_DefinedOrganicForm>
parent

> <STRUCTURE_IUPAC>
1-(2-{4-[(3R,4R)-7-methoxy-2,2-dimethyl-3-phenyl-3,4-dihydro-2H-chromen-4-yl]phenoxy}ethyl)pyrrolidine

> <STRUCTURE_SMILES>
COc1ccc2c(c1)OC(C)(C)[C@H]([C@@H]2c4ccc(OCCN3CCCC3)cc4)c5ccccc5

> <STRUCTURE_SMILES_Desalt>
COc1ccc2c(c1)OC(C)(C)[C@H]([C@@H]2c4ccc(OCCN3CCCC3)cc4)c5ccccc5

> <Substance_modify_yyyymmdd>
20110729

$$$$
