315-22-0
ChemmineR-0915142007XD

 24 26  0  0  1  0  0  0  0  0  1 V2000
    4.1190   -1.8467    0.0000 C   0  0  0  0  0  0  0  0  0  0  0  0
    2.0631   -1.8467    0.0000 C   0  0  0  0  0  0  0  0  0  0  0  0
    1.0460   -3.6357    0.0000 C   0  0  0  0  0  0  0  0  0  0  0  0
    1.0460   -2.4454    0.0000 C   0  0  0  0  0  0  0  0  0  0  0  0
    2.0631   -4.2344    0.0000 O   0  0  0  0  0  0  0  0  0  0  0  0
    5.1217   -2.4454    0.0000 C   0  0  0  0  0  0  0  0  0  0  0  0
    2.0631   -5.4102    0.0000 C   0  0  0  0  0  0  0  0  0  0  0  0
    4.1190   -5.4102    0.0000 C   0  0  0  0  0  0  0  0  0  0  0  0
    3.0946   -7.1992    0.0000 N   0  0  0  0  0  0  0  0  0  0  0  0
    3.0946   -6.0089    0.0000 C   0  0  0  0  0  0  0  0  0  0  0  0
    5.1217   -3.6357    0.0000 O   0  0  0  0  0  0  0  0  0  0  0  0
    5.1217   -6.0089    0.0000 C   0  0  0  0  0  0  0  0  0  0  0  0
    1.0460   -6.0089    0.0000 C   0  0  0  0  0  0  0  0  0  0  0  0
    4.1190   -4.2344    0.0000 C   0  0  0  0  0  0  0  0  0  0  0  0
    5.1217   -7.1992    0.0000 C   0  0  0  0  0  0  0  0  0  0  0  0
    1.0460   -7.2136    0.0000 C   0  0  0  0  0  0  0  0  0  0  0  0
    0.0000   -4.2200    0.0000 O   0  0  0  0  0  0  0  0  0  0  0  0
    6.1676   -1.8467    0.0000 O   0  0  0  0  0  0  0  0  0  0  0  0
    3.6645   -1.0027    0.0000 O   0  0  0  0  0  0  0  0  0  0  0  0
    1.5581   -0.9594    0.0000 O   0  0  0  0  0  0  0  0  0  0  0  0
    5.5833   -0.4040    0.0000 C   0  0  0  0  0  0  0  0  0  0  0  0
    2.3877    0.0000    0.0000 C   0  0  0  0  0  0  0  0  0  0  0  0
    0.0433   -1.8467    0.0000 C   0  0  0  0  0  0  0  0  0  0  0  0
    3.0946   -4.7826    0.0000 H   0  0  0  0  0  0  0  0  0  0  0  0
  1  2  1  0  0  0  0
  1  6  1  0  0  0  0
  1 19  1  1  0  0  0
  1 21  1  6  0  0  0
  2  4  1  0  0  0  0
  2 20  1  1  0  0  0
  2 22  1  6  0  0  0
  3  4  1  0  0  0  0
  3  5  1  0  0  0  0
  3 17  2  0  0  0  0
  4 23  1  6  0  0  0
  7  5  1  1  0  0  0
  6 11  1  0  0  0  0
  6 18  2  0  0  0  0
  7 13  1  0  0  0  0
  7 10  1  0  0  0  0
  8 14  1  0  0  0  0
  8 10  1  0  0  0  0
  8 12  2  0  0  0  0
  9 10  1  0  0  0  0
  9 16  1  0  0  0  0
  9 15  1  0  0  0  0
 10 24  1  6  0  0  0
 11 14  1  0  0  0  0
 12 15  1  0  0  0  0
 13 16  1  0  0  0  0
M  END
> <ID>
868

> <Formula>
C16H23NO6

> <FW>
325.3569

> <DSSTox_CID>
902

> <DSSTox_RID>
75856

> <DSSTox_GSID>
20902

> <DSSTox_FileID_Sort>
540

> <TS_ChemName>
Monocrotaline

> <TS_ChemName_Synonyms>


> <TS_CASRN>
315-22-0

> <CASRN_ChemName_Relationship>
primary

> <TS_Description>
single chemical compound

> <ChemNote>
stereochem

> <STRUCTURE_Shown>
tested chemical

> <STRUCTURE_Formula>
C16H23NO6

> <STRUCTURE_MW>
325.3569

> <STRUCTURE_ChemType>
defined organic

> <STRUCTURE_DefinedOrganicForm>
parent

> <STRUCTURE_IUPAC>
(3R,4R,5R,13aR,13bR)-4,5-dihydroxy-3,4,5-trimethyl-4,5,8,10,12,13,13a,13b-octahydro-2H-[1,6]dioxacycloundecino[2,3,4-gh]pyrrolizine-2,6(3H)-dione

> <STRUCTURE_SMILES>
O=C1OCC3=CCN2CC[C@@H](OC(=O)[C@H](C)[C@@](C)(O)[C@@]1(C)O)[C@H]23

> <STRUCTURE_SMILES_Desalt>
O=C1OCC3=CCN2CC[C@@H](OC(=O)[C@H](C)[C@@](C)(O)[C@@]1(C)O)[C@H]23

> <Substance_modify_yyyymmdd>
20080429

$$$$
