315-18-4
ChemmineR-0915142007XD

 16 16  0  0  0  0  0  0  0  0  1 V2000
    1.1532   -3.9920    0.0000 C   0  0  0  0  0  0  0  0  0  0  0  0
    2.3065   -3.3307    0.0000 C   0  0  0  0  0  0  0  0  0  0  0  0
    2.3065   -2.0000    0.0000 C   0  0  0  0  0  0  0  0  0  0  0  0
    3.4597   -1.3307    0.0000 C   0  0  0  0  0  0  0  0  0  0  0  0
    4.6049   -2.0000    0.0000 C   0  0  0  0  0  0  0  0  0  0  0  0
    4.6049   -3.3307    0.0000 C   0  0  0  0  0  0  0  0  0  0  0  0
    3.4597   -3.9920    0.0000 C   0  0  0  0  0  0  0  0  0  0  0  0
    5.7581   -3.9920    0.0000 O   0  0  0  0  0  0  0  0  0  0  0  0
    6.9114   -3.3307    0.0000 C   0  0  0  0  0  0  0  0  0  0  0  0
    6.9114   -2.0000    0.0000 O   0  0  0  0  0  0  0  0  0  0  0  0
    8.0646   -3.9920    0.0000 N   0  0  0  0  0  0  0  0  0  0  0  0
    8.0646   -5.3226    0.0000 C   0  0  0  0  0  0  0  0  0  0  0  0
    3.4597    0.0000    0.0000 C   0  0  0  0  0  0  0  0  0  0  0  0
    1.1532   -1.3307    0.0000 N   0  0  0  0  0  0  0  0  0  0  0  0
    0.0000   -2.0000    0.0000 C   0  0  0  0  0  0  0  0  0  0  0  0
    1.1532    0.0000    0.0000 C   0  0  0  0  0  0  0  0  0  0  0  0
  1  2  1  0  0  0  0
  2  3  2  0  0  0  0
  2  7  1  0  0  0  0
  3  4  1  0  0  0  0
  3 14  1  0  0  0  0
  4  5  2  0  0  0  0
  4 13  1  0  0  0  0
  5  6  1  0  0  0  0
  6  7  2  0  0  0  0
  6  8  1  0  0  0  0
  8  9  1  0  0  0  0
  9 10  2  0  0  0  0
  9 11  1  0  0  0  0
 11 12  1  0  0  0  0
 14 15  1  0  0  0  0
 14 16  1  0  0  0  0
M  END
> <ID>
859

> <Formula>
C12H18N2O2

> <FW>
222.2835

> <DSSTox_CID>
893

> <DSSTox_RID>
75849

> <DSSTox_GSID>
20893

> <DSSTox_FileID_Sort>
533

> <TS_ChemName>
Mexacarbate

> <TS_ChemName_Synonyms>


> <TS_CASRN>
315-18-4

> <CASRN_ChemName_Relationship>
primary

> <TS_Description>
single chemical compound

> <ChemNote>


> <STRUCTURE_Shown>
tested chemical

> <STRUCTURE_Formula>
C12H18N2O2

> <STRUCTURE_MW>
222.2835

> <STRUCTURE_ChemType>
defined organic

> <STRUCTURE_DefinedOrganicForm>
parent

> <STRUCTURE_IUPAC>
4-(dimethylamino)-3,5-dimethylphenyl methylcarbamate

> <STRUCTURE_SMILES>
O=C(Oc1cc(C)c(c(C)c1)N(C)C)NC

> <STRUCTURE_SMILES_Desalt>
O=C(Oc1cc(C)c(c(C)c1)N(C)C)NC

> <Substance_modify_yyyymmdd>
20080429

$$$$
