315-80-0
ChemmineR-0915142007XD

 23 24  0  0  0  0  0  0  0  0  1 V2000
    3.0895   -4.6122    0.0000 N    0  0  0  0  0  0  0  0  0  0  0  0
    4.3834   -4.6122    0.0000 C    0  0  0  0  0  0  0  0  0  0  0  0
    3.7584   -7.5345    0.0000 N    0  0  0  0  0  0  0  0  0  0  0  0
    5.2196   -5.6332    0.0000 C    0  0  0  0  0  0  0  0  0  0  0  0
    4.9291   -6.9271    0.0000 C    0  0  0  0  0  0  0  0  0  0  0  0
    2.2533   -5.6332    0.0000 C    0  0  0  0  0  0  0  0  0  0  0  0
    2.5614   -6.9623    0.0000 C    0  0  0  0  0  0  0  0  0  0  0  0
    2.4998   -3.4064    0.0000 C    0  0  0  0  0  0  0  0  0  0  0  0
    4.9643   -3.3888    0.0000 O    0  0  0  0  0  0  0  0  0  0  0  0
    3.2479   -2.2885    0.0000 C    0  0  0  0  0  0  0  0  0  0  0  0
    3.7584   -8.8020    0.0000 C    0  0  0  0  0  0  0  0  0  0  0  0
    2.6758   -1.1178    0.0000 N    0  0  0  0  0  0  0  0  0  0  0  0
    6.4958   -5.2372    0.0000 C    0  0  0  0  0  0  0  0  0  0  0  0
    5.9237   -7.8425    0.0000 C    0  0  0  0  0  0  0  0  0  0  0  0
    1.6020   -7.8865    0.0000 C    0  0  0  0  0  0  0  0  0  0  0  0
    0.9770   -5.2372    0.0000 C    0  0  0  0  0  0  0  0  0  0  0  0
    1.4083   -1.1178    0.0000 C    0  0  0  0  0  0  0  0  0  0  0  0
    3.4064    0.0000    0.0000 C    0  0  0  0  0  0  0  0  0  0  0  0
    7.4905   -6.1174    0.0000 C    0  0  0  0  0  0  0  0  0  0  0  0
    0.3081   -7.4905    0.0000 C    0  0  0  0  0  0  0  0  0  0  0  0
    7.1824   -7.4377    0.0000 C    0  0  0  0  0  0  0  0  0  0  0  0
    0.0000   -6.1262    0.0000 C    0  0  0  0  0  0  0  0  0  0  0  0
    4.5330   -1.9540    0.0000 Cl   0  0  0  0  0  0  0  0  0  0  0  0
  1  2  1  0  0  0  0
  1  6  1  0  0  0  0
  1  8  1  0  0  0  0
  2  4  1  0  0  0  0
  2  9  2  0  0  0  0
  3  7  1  0  0  0  0
  3 11  1  0  0  0  0
  3  5  1  0  0  0  0
  4  5  2  0  0  0  0
  4 13  1  0  0  0  0
  5 14  1  0  0  0  0
  6  7  2  0  0  0  0
  6 16  1  0  0  0  0
  7 15  1  0  0  0  0
  8 10  1  0  0  0  0
 10 12  1  0  0  0  0
 12 17  1  0  0  0  0
 12 18  1  0  0  0  0
 13 19  2  0  0  0  0
 14 21  2  0  0  0  0
 15 20  2  0  0  0  0
 16 22  2  0  0  0  0
 19 21  1  0  0  0  0
 20 22  1  0  0  0  0
M  END
> <ID>
13475

> <Formula>
C18H22ClN3O

> <FW>
331.8398 (295.3788+36.4609)

> <DSSTox_CID>
28394

> <DSSTox_RID>
82755

> <DSSTox_GSID>
48421

> <DSSTox_FileID_Sort>
7432

> <TS_ChemName>
Dibenzepin hydrochloride

> <TS_ChemName_Synonyms>


> <TS_CASRN>
315-80-0

> <CASRN_ChemName_Relationship>
primary

> <TS_Description>
single chemical compound

> <ChemNote>
parent [4498-32-2]

> <STRUCTURE_Shown>
tested chemical

> <STRUCTURE_Formula>
C18H22ClN3O

> <STRUCTURE_MW>
331.8398

> <STRUCTURE_ChemType>
defined organic

> <STRUCTURE_DefinedOrganicForm>
complex

> <STRUCTURE_IUPAC>
10-[2-(dimethylamino)ethyl]-5-methyl-5,10-dihydro-11H-dibenzo[b,e][1,4]diazepin-11-one hydrochloride (1:1)

> <STRUCTURE_SMILES>
Cl.CN(C)CCN3c1ccccc1N(C)c2ccccc2C3=O

> <STRUCTURE_SMILES_Desalt>
CN(C)CCN3c1ccccc1N(C)c2ccccc2C3=O

> <Substance_modify_yyyymmdd>
20110818

$$$$
