31501-11-8
ChemmineR-0915142007XD

 14 13  0  0  0  0  0  0  0  0  1 V2000
    5.7704   -1.3387    0.0000 C   0  0  0  0  0  0  0  0  0  0  0  0
    5.7704    0.0000    0.0000 O   0  0  0  0  0  0  0  0  0  0  0  0
    6.9245   -1.9966    0.0000 O   0  0  0  0  0  0  0  0  0  0  0  0
    4.6163   -1.9966    0.0000 C   0  0  0  0  0  0  0  0  0  0  0  0
    3.4738   -1.3387    0.0000 C   0  0  0  0  0  0  0  0  0  0  0  0
    1.1541   -1.3387    0.0000 C   0  0  0  0  0  0  0  0  0  0  0  0
    2.2966   -1.9966    0.0000 C   0  0  0  0  0  0  0  0  0  0  0  0
    0.0000   -1.9966    0.0000 C   0  0  0  0  0  0  0  0  0  0  0  0
    8.0670   -1.3387    0.0000 C   0  0  0  0  0  0  0  0  0  0  0  0
    9.2442   -1.9966    0.0000 C   0  0  0  0  0  0  0  0  0  0  0  0
   10.3867   -1.3387    0.0000 C   0  0  0  0  0  0  0  0  0  0  0  0
   11.5408   -1.9966    0.0000 C   0  0  0  0  0  0  0  0  0  0  0  0
   11.5408   -3.3353    0.0000 C   0  0  0  0  0  0  0  0  0  0  0  0
   10.3867   -3.9931    0.0000 C   0  0  0  0  0  0  0  0  0  0  0  0
  1  2  2  0  0  0  0
  1  3  1  0  0  0  0
  1  4  1  0  0  0  0
  3  9  1  0  0  0  0
  4  5  1  0  0  0  0
  5  7  1  0  0  0  0
  6  7  1  0  0  0  0
  6  8  1  0  0  0  0
  9 10  1  0  0  0  0
 10 11  1  0  0  0  0
 11 12  2  0  0  0  0
 12 13  1  0  0  0  0
 13 14  1  0  0  0  0
M  END
> <ID>
12683

> <Formula>
C12H22O2

> <FW>
198.3019

> <DSSTox_CID>
27560

> <DSSTox_RID>
82420

> <DSSTox_GSID>
47560

> <DSSTox_FileID_Sort>
7101

> <TS_ChemName>
(3Z)-Hex-3-en-1-yl hexanoate

> <TS_ChemName_Synonyms>


> <TS_CASRN>
31501-11-8

> <CASRN_ChemName_Relationship>
primary

> <TS_Description>
single chemical compound

> <ChemNote>
stereochem; mixture of Z,E isomers [84434-19-5]

> <STRUCTURE_Shown>
tested chemical

> <STRUCTURE_Formula>
C12H22O2

> <STRUCTURE_MW>
198.3019

> <STRUCTURE_ChemType>
defined organic

> <STRUCTURE_DefinedOrganicForm>
parent

> <STRUCTURE_IUPAC>
(3Z)-hex-3-en-1-yl hexanoate

> <STRUCTURE_SMILES>
O=C(CCCCC)OCC/C=C\CC

> <STRUCTURE_SMILES_Desalt>
O=C(CCCCC)OCC/C=C\CC

> <Substance_modify_yyyymmdd>
20100929

$$$$
