316-42-7
ChemmineR-0915142007XD

 39 41  0  0  1  0  0  0  0  0  1 V2000
    3.0488  -11.4187    0.0000 Cl   0  0  0  0  0  0  0  0  0  0  0  0
    5.2869  -11.4187    0.0000 Cl   0  0  0  0  0  0  0  0  0  0  0  0
    4.7844   -2.0097    0.0000 C    0  0  0  0  0  0  0  0  0  0  0  0
    4.7844   -3.3457    0.0000 C    0  0  0  0  0  0  0  0  0  0  0  0
    3.6197   -1.3360    0.0000 C    0  0  0  0  0  0  0  0  0  0  0  0
    3.6197   -4.0080    0.0000 C    0  0  0  0  0  0  0  0  0  0  0  0
    2.4664   -2.0097    0.0000 C    0  0  0  0  0  0  0  0  0  0  0  0
    2.4664   -3.3457    0.0000 C    0  0  0  0  0  0  0  0  0  0  0  0
    5.9377   -1.3360    0.0000 C    0  0  0  0  0  0  0  0  0  0  0  0
    7.1024   -2.0097    0.0000 C    0  0  0  0  0  0  0  0  0  0  0  0
    5.7779   -3.9166    0.0000 C    0  0  0  0  0  0  0  0  0  0  0  0
    7.1024   -3.3457    0.0000 N    0  0  0  0  0  0  0  0  0  0  0  0
    1.3017   -1.3360    0.0000 O    0  0  0  0  0  0  0  0  0  0  0  0
    1.3017    0.0000    0.0000 C    0  0  0  0  0  0  0  0  0  0  0  0
    1.3017   -4.0080    0.0000 O    0  0  0  0  0  0  0  0  0  0  0  0
    0.1484   -3.3343    0.0000 C    0  0  0  0  0  0  0  0  0  0  0  0
    4.7159   -4.9900    0.0000 H    0  0  0  0  0  0  0  0  0  0  0  0
    6.8626   -4.7502    0.0000 C    0  0  0  0  0  0  0  0  0  0  0  0
    6.9083   -5.8920    0.0000 C    0  0  0  0  0  0  0  0  0  0  0  0
    8.0844   -6.5543    0.0000 C    0  0  0  0  0  0  0  0  0  0  0  0
    5.7664   -6.5543    0.0000 C    0  0  0  0  0  0  0  0  0  0  0  0
    8.0844   -7.8903    0.0000 C    0  0  0  0  0  0  0  0  0  0  0  0
    5.7664   -7.8903    0.0000 C    0  0  0  0  0  0  0  0  0  0  0  0
    6.9197   -8.5640    0.0000 N    0  0  0  0  0  0  0  0  0  0  0  0
    4.6017   -8.5640    0.0000 C    0  0  0  0  0  0  0  0  0  0  0  0
    4.6246   -9.9000    0.0000 C    0  0  0  0  0  0  0  0  0  0  0  0
    6.9426   -9.9000    0.0000 C    0  0  0  0  0  0  0  0  0  0  0  0
    5.8007  -10.5623    0.0000 C    0  0  0  0  0  0  0  0  0  0  0  0
    3.4599   -7.9132    0.0000 C    0  0  0  0  0  0  0  0  0  0  0  0
    2.3180   -8.5983    0.0000 C    0  0  0  0  0  0  0  0  0  0  0  0
    3.4827  -10.5851    0.0000 C    0  0  0  0  0  0  0  0  0  0  0  0
    2.3180   -9.9343    0.0000 C    0  0  0  0  0  0  0  0  0  0  0  0
    1.1419   -7.9360    0.0000 O    0  0  0  0  0  0  0  0  0  0  0  0
    1.1305   -6.6000    0.0000 C    0  0  0  0  0  0  0  0  0  0  0  0
    1.1647  -10.6080    0.0000 O    0  0  0  0  0  0  0  0  0  0  0  0
    0.0000   -9.9571    0.0000 C    0  0  0  0  0  0  0  0  0  0  0  0
    9.2263   -5.8578    0.0000 C    0  0  0  0  0  0  0  0  0  0  0  0
   10.3910   -6.5201    0.0000 C    0  0  0  0  0  0  0  0  0  0  0  0
    5.8350   -9.0208    0.0000 H    0  0  0  0  0  0  0  0  0  0  0  0
  3  5  2  0  0  0  0
  3  9  1  0  0  0  0
  3  4  1  0  0  0  0
  4  6  2  0  0  0  0
  4 11  1  0  0  0  0
  5  7  1  0  0  0  0
  6  8  1  0  0  0  0
  7  8  2  0  0  0  0
  7 13  1  0  0  0  0
  8 15  1  0  0  0  0
  9 10  1  0  0  0  0
 10 12  1  0  0  0  0
 11 12  1  0  0  0  0
 11 17  1  1  0  0  0
 11 18  1  0  0  0  0
 13 14  1  0  0  0  0
 15 16  1  0  0  0  0
 19 18  1  6  0  0  0
 19 20  1  0  0  0  0
 19 21  1  0  0  0  0
 20 22  1  0  0  0  0
 20 37  1  1  0  0  0
 21 23  1  0  0  0  0
 22 24  1  0  0  0  0
 23 25  1  0  0  0  0
 23 24  1  0  0  0  0
 23 39  1  1  0  0  0
 24 27  1  0  0  0  0
 25 29  1  0  0  0  0
 25 26  2  0  0  0  0
 26 28  1  0  0  0  0
 26 31  1  0  0  0  0
 27 28  1  0  0  0  0
 29 30  2  0  0  0  0
 30 32  1  0  0  0  0
 30 33  1  0  0  0  0
 31 32  2  0  0  0  0
 32 35  1  0  0  0  0
 33 34  1  0  0  0  0
 35 36  1  0  0  0  0
 37 38  1  0  0  0  0
M  END
> <ID>
535

> <Formula>
C29H42Cl2N2O4

> <FW>
553.5608 (36.4609+36.4609+480.6389)

> <DSSTox_CID>
558

> <DSSTox_RID>
75658

> <DSSTox_GSID>
20558

> <DSSTox_FileID_Sort>
342

> <TS_ChemName>
Emetine dihydrochloride

> <TS_ChemName_Synonyms>


> <TS_CASRN>
316-42-7

> <CASRN_ChemName_Relationship>
primary

> <TS_Description>
single chemical compound

> <ChemNote>
stereochem; parent [483-18-1]

> <STRUCTURE_Shown>
tested chemical

> <STRUCTURE_Formula>
C29H42Cl2N2O4

> <STRUCTURE_MW>
553.5608

> <STRUCTURE_ChemType>
defined organic

> <STRUCTURE_DefinedOrganicForm>
complex

> <STRUCTURE_IUPAC>
(1'beta)-6',7',10,11-tetramethoxyemetan dihydrochloride

> <STRUCTURE_SMILES>
Cl.Cl.COc4cc5CCN[C@H](C[C@H]1C[C@H]2c3cc(OC)c(OC)cc3CCN2C[C@@H]1CC)c5cc4OC

> <STRUCTURE_SMILES_Desalt>
COc4cc5CCN[C@H](C[C@H]1C[C@H]2c3cc(OC)c(OC)cc3CCN2C[C@@H]1CC)c5cc4OC

> <Substance_modify_yyyymmdd>
20080429

$$$$
