3160-91-6
ChemmineR-0915142007XD

 13 12  0  0  0  0  0  0  0  0  1 V2000
    2.3073   -2.0034    0.0000 N    0  0  0  0  0  0  0  0  0  0  0  0
    2.3073   -3.3367    0.0000 C    0  0  0  0  0  0  0  0  0  0  0  0
    1.1537   -1.3333    0.0000 C    0  0  0  0  0  0  0  0  0  0  0  0
    1.1537   -3.9929    0.0000 C    0  0  0  0  0  0  0  0  0  0  0  0
    0.0000   -2.0034    0.0000 C    0  0  0  0  0  0  0  0  0  0  0  0
    0.0000   -3.3367    0.0000 O    0  0  0  0  0  0  0  0  0  0  0  0
    3.4610   -1.3333    0.0000 C    0  0  0  0  0  0  0  0  0  0  0  0
    4.6147   -1.9896    0.0000 N    0  0  0  0  0  0  0  0  0  0  0  0
    5.7684   -1.3333    0.0000 C    0  0  0  0  0  0  0  0  0  0  0  0
    6.9082   -1.9896    0.0000 N    0  0  0  0  0  0  0  0  0  0  0  0
    5.7684    0.0000    0.0000 N    0  0  0  0  0  0  0  0  0  0  0  0
    3.4610    0.0000    0.0000 N    0  0  0  0  0  0  0  0  0  0  0  0
    5.1742   -3.8479    0.0000 Cl   0  0  0  0  0  0  0  0  0  0  0  0
  1  2  1  0  0  0  0
  1  3  1  0  0  0  0
  1  7  1  0  0  0  0
  2  4  1  0  0  0  0
  3  5  1  0  0  0  0
  4  6  1  0  0  0  0
  5  6  1  0  0  0  0
  7  8  1  0  0  0  0
  7 12  2  0  0  0  0
  8  9  1  0  0  0  0
  9 10  1  0  0  0  0
  9 11  2  0  0  0  0
M  END
> <ID>
10907

> <Formula>
C6H14ClN5O

> <FW>
207.6613 (171.2003+36.4609)

> <DSSTox_CID>
25376

> <DSSTox_RID>
80837

> <DSSTox_GSID>
45376

> <DSSTox_FileID_Sort>
5518

> <TS_ChemName>
Moroxidine hydrochloride

> <TS_ChemName_Synonyms>


> <TS_CASRN>
3160-91-6

> <CASRN_ChemName_Relationship>
primary

> <TS_Description>
single chemical compound

> <ChemNote>
parent [3731-59-7]

> <STRUCTURE_Shown>
tested chemical

> <STRUCTURE_Formula>
C6H14ClN5O

> <STRUCTURE_MW>
207.6613

> <STRUCTURE_ChemType>
defined organic

> <STRUCTURE_DefinedOrganicForm>
complex

> <STRUCTURE_IUPAC>
N-carbamimidoylmorpholine-4-carboximidamide hydrochloride (1:1)

> <STRUCTURE_SMILES>
Cl.N=C(N)NC(=N)N1CCOCC1

> <STRUCTURE_SMILES_Desalt>
N=C(N)NC(=N)N1CCOCC1

> <Substance_modify_yyyymmdd>
20100107

$$$$
