3160-37-0
ChemmineR-0915142007XD

 14 15  0  0  0  0  0  0  0  0  1 V2000
    5.5087   -1.3167    0.0000 C   0  0  0  0  0  0  0  0  0  0  0  0
    6.6642   -1.9885    0.0000 C   0  0  0  0  0  0  0  0  0  0  0  0
    7.8018   -1.3167    0.0000 C   0  0  0  0  0  0  0  0  0  0  0  0
    8.9573   -1.9885    0.0000 C   0  0  0  0  0  0  0  0  0  0  0  0
    7.8018    0.0000    0.0000 O   0  0  0  0  0  0  0  0  0  0  0  0
    4.3532   -1.9885    0.0000 C   0  0  0  0  0  0  0  0  0  0  0  0
    4.3532   -3.3231    0.0000 C   0  0  0  0  0  0  0  0  0  0  0  0
    3.1977   -3.9770    0.0000 C   0  0  0  0  0  0  0  0  0  0  0  0
    2.0512   -3.3231    0.0000 C   0  0  0  0  0  0  0  0  0  0  0  0
    0.7882   -3.7173    0.0000 O   0  0  0  0  0  0  0  0  0  0  0  0
    0.0000   -2.6424    0.0000 C   0  0  0  0  0  0  0  0  0  0  0  0
    0.7882   -1.5675    0.0000 O   0  0  0  0  0  0  0  0  0  0  0  0
    2.0512   -1.9885    0.0000 C   0  0  0  0  0  0  0  0  0  0  0  0
    3.1977   -1.3167    0.0000 C   0  0  0  0  0  0  0  0  0  0  0  0
  1  2  2  3  0  0  0
  1  6  1  0  0  0  0
  2  3  1  0  0  0  0
  3  4  1  0  0  0  0
  3  5  2  0  0  0  0
  6  7  2  0  0  0  0
  6 14  1  0  0  0  0
  7  8  1  0  0  0  0
  8  9  2  0  0  0  0
  9 10  1  0  0  0  0
  9 13  1  0  0  0  0
 10 11  1  0  0  0  0
 11 12  1  0  0  0  0
 12 13  1  0  0  0  0
 13 14  2  0  0  0  0
M  END
> <ID>
4474

> <Formula>
C11H10O3

> <FW>
190.1953

> <DSSTox_CID>
5926

> <DSSTox_RID>
77969

> <DSSTox_GSID>
25926

> <DSSTox_FileID_Sort>
2652

> <TS_ChemName>
Piperonal acetone

> <TS_ChemName_Synonyms>


> <TS_CASRN>
3160-37-0

> <CASRN_ChemName_Relationship>
primary

> <TS_Description>
single chemical compound

> <ChemNote>
mixture of Z,E isomers

> <STRUCTURE_Shown>
tested chemical

> <STRUCTURE_Formula>
C11H10O3

> <STRUCTURE_MW>
190.1953

> <STRUCTURE_ChemType>
defined organic

> <STRUCTURE_DefinedOrganicForm>
parent

> <STRUCTURE_IUPAC>
4-(1,3-benzodioxol-5-yl)but-3-en-2-one

> <STRUCTURE_SMILES>
CC(=O)C=Cc1ccc2OCOc2c1

> <STRUCTURE_SMILES_Desalt>
CC(=O)C=Cc1ccc2OCOc2c1

> <Substance_modify_yyyymmdd>
20080429

$$$$
