31654-77-0
ChemmineR-0915142007XD

 18 17  0  0  0  0  0  0  0  0  1 V2000
    1.1664   -1.3446    0.0000 C   0  0  0  0  0  0  0  0  0  0  0  0
    1.1664    0.0000    0.0000 O   0  0  0  0  0  0  0  0  0  0  0  0
    2.3167   -1.9927    0.0000 O   0  0  0  0  0  0  0  0  0  0  0  0
    0.0000   -1.9927    0.0000 C   0  0  0  0  0  0  0  0  0  0  0  0
    3.4831   -1.3446    0.0000 C   0  0  0  0  0  0  0  0  0  0  0  0
    4.6334   -1.9927    0.0000 C   0  0  0  0  0  0  0  0  0  0  0  0
    5.7998   -1.3446    0.0000 C   0  0  0  0  0  0  0  0  0  0  0  0
    6.9339   -1.9927    0.0000 C   0  0  0  0  0  0  0  0  0  0  0  0
    8.1003   -1.3446    0.0000 C   0  0  0  0  0  0  0  0  0  0  0  0
    9.2667   -1.9927    0.0000 C   0  0  0  0  0  0  0  0  0  0  0  0
   10.4170   -1.3446    0.0000 C   0  0  0  0  0  0  0  0  0  0  0  0
   11.5834   -1.9927    0.0000 C   0  0  0  0  0  0  0  0  0  0  0  0
   12.7337   -1.3446    0.0000 C   0  0  0  0  0  0  0  0  0  0  0  0
   13.9001   -1.9927    0.0000 C   0  0  0  0  0  0  0  0  0  0  0  0
   13.9001   -3.3373    0.0000 C   0  0  0  0  0  0  0  0  0  0  0  0
   15.0504   -4.0177    0.0000 C   0  0  0  0  0  0  0  0  0  0  0  0
   15.0504   -5.3462    0.0000 C   0  0  0  0  0  0  0  0  0  0  0  0
   16.2006   -6.0104    0.0000 C   0  0  0  0  0  0  0  0  0  0  0  0
  1  2  2  0  0  0  0
  1  3  1  0  0  0  0
  1  4  1  0  0  0  0
  3  5  1  0  0  0  0
  5  6  1  0  0  0  0
  6  7  1  0  0  0  0
  7  8  1  0  0  0  0
  8  9  1  0  0  0  0
  9 10  1  0  0  0  0
 10 11  1  0  0  0  0
 11 12  1  0  0  0  0
 12 13  1  0  0  0  0
 13 14  2  0  0  0  0
 14 15  1  0  0  0  0
 15 16  1  0  0  0  0
 16 17  2  0  0  0  0
 17 18  1  0  0  0  0
M  END
> <ID>
7018

> <Formula>
C16H28O2

> <FW>
252.3923

> <DSSTox_CID>
15285

> <DSSTox_RID>
79253

> <DSSTox_GSID>
35285

> <DSSTox_FileID_Sort>
3935

> <TS_ChemName>
9,12-Tetradecadien-1-ol, acetate, (Z,E)-

> <TS_ChemName_Synonyms>


> <TS_CASRN>
31654-77-0

> <CASRN_ChemName_Relationship>
primary

> <TS_Description>
single chemical compound

> <ChemNote>
stereochem

> <STRUCTURE_Shown>
tested chemical

> <STRUCTURE_Formula>
C16H28O2

> <STRUCTURE_MW>
252.3923

> <STRUCTURE_ChemType>
defined organic

> <STRUCTURE_DefinedOrganicForm>
parent

> <STRUCTURE_IUPAC>
(9Z,12E)-tetradeca-9,12-dien-1-yl acetate

> <STRUCTURE_SMILES>
CC(=O)OCCCCCCCC/C=C\C\C=C\C

> <STRUCTURE_SMILES_Desalt>
CC(=O)OCCCCCCCC/C=C\C\C=C\C

> <Substance_modify_yyyymmdd>
20080429

$$$$
