3166-62-9
ChemmineR-0915142007XD

 26 26  0  0  0  0  0  0  0  0  1 V2000
   12.0809   -1.2215    0.0000 C    0  0  0  0  0  0  0  0  0  0  0  0
   13.4233   -1.2215    0.0000 Br   0  0  0  0  0  0  0  0  0  0  0  0
    4.0001   -5.9465    0.0000 O    0  0  0  0  0  0  0  0  0  0  0  0
    4.0001   -4.6176    0.0000 C    0  0  0  0  0  0  0  0  0  0  0  0
    5.3290   -4.6176    0.0000 C    0  0  0  0  0  0  0  0  0  0  0  0
    5.9868   -5.7720    0.0000 O    0  0  0  0  0  0  0  0  0  0  0  0
    5.9868   -3.4632    0.0000 O    0  0  0  0  0  0  0  0  0  0  0  0
    7.3157   -3.4632    0.0000 C    0  0  0  0  0  0  0  0  0  0  0  0
    7.9734   -2.3222    0.0000 C    0  0  0  0  0  0  0  0  0  0  0  0
    9.3157   -2.3222    0.0000 N    0  0  0  0  0  0  0  0  0  0  0  0
    9.9735   -1.1678    0.0000 C    0  0  0  0  0  0  0  0  0  0  0  0
    9.3157    0.0000    0.0000 C    0  0  0  0  0  0  0  0  0  0  0  0
    9.9735   -3.4632    0.0000 C    0  0  0  0  0  0  0  0  0  0  0  0
   11.3024   -3.4632    0.0000 C    0  0  0  0  0  0  0  0  0  0  0  0
    2.6712   -4.6176    0.0000 C    0  0  0  0  0  0  0  0  0  0  0  0
    1.9866   -5.7720    0.0000 C    0  0  0  0  0  0  0  0  0  0  0  0
    0.6712   -5.7720    0.0000 C    0  0  0  0  0  0  0  0  0  0  0  0
    0.0000   -4.6176    0.0000 C    0  0  0  0  0  0  0  0  0  0  0  0
    0.6712   -3.4632    0.0000 C    0  0  0  0  0  0  0  0  0  0  0  0
    1.9866   -3.4632    0.0000 C    0  0  0  0  0  0  0  0  0  0  0  0
    4.0001   -3.2753    0.0000 C    0  0  0  0  0  0  0  0  0  0  0  0
    2.8457   -2.6175    0.0000 C    0  0  0  0  0  0  0  0  0  0  0  0
    2.8457   -1.2886    0.0000 C    0  0  0  0  0  0  0  0  0  0  0  0
    4.0001   -0.6175    0.0000 C    0  0  0  0  0  0  0  0  0  0  0  0
    5.1411   -1.2886    0.0000 C    0  0  0  0  0  0  0  0  0  0  0  0
    5.1411   -2.6175    0.0000 C    0  0  0  0  0  0  0  0  0  0  0  0
  1  2  1  0  0  0  0
  3  4  1  0  0  0  0
  4  5  1  0  0  0  0
  4 15  1  0  0  0  0
  4 21  1  0  0  0  0
  5  6  2  0  0  0  0
  5  7  1  0  0  0  0
  7  8  1  0  0  0  0
  8  9  1  0  0  0  0
  9 10  1  0  0  0  0
 10 11  1  0  0  0  0
 10 13  1  0  0  0  0
 11 12  1  0  0  0  0
 13 14  1  0  0  0  0
 15 16  2  0  0  0  0
 15 20  1  0  0  0  0
 16 17  1  0  0  0  0
 17 18  2  0  0  0  0
 18 19  1  0  0  0  0
 19 20  2  0  0  0  0
 21 22  2  0  0  0  0
 21 26  1  0  0  0  0
 22 23  1  0  0  0  0
 23 24  2  0  0  0  0
 24 25  1  0  0  0  0
 25 26  2  0  0  0  0
M  END
> <ID>
12007

> <Formula>
C21H28BrNO3

> <FW>
422.3559 (94.9385+327.4174)

> <DSSTox_CID>
26832

> <DSSTox_RID>
81944

> <DSSTox_GSID>
46832

> <DSSTox_FileID_Sort>
6625

> <TS_ChemName>
Benzactyzine methylbromide

> <TS_ChemName_Synonyms>


> <TS_CASRN>
3166-62-9

> <CASRN_ChemName_Relationship>
primary

> <TS_Description>
single chemical compound

> <ChemNote>
parent [302-40-9]

> <STRUCTURE_Shown>
tested chemical

> <STRUCTURE_Formula>
C21H28BrNO3

> <STRUCTURE_MW>
422.3559

> <STRUCTURE_ChemType>
defined organic

> <STRUCTURE_DefinedOrganicForm>
complex

> <STRUCTURE_IUPAC>
2-(diethylamino)ethyl hydroxy(diphenyl)acetate - bromomethane (1:1)

> <STRUCTURE_SMILES>
OC(C(=O)OCCN(CC)CC)(c1ccccc1)c2ccccc2.BrC

> <STRUCTURE_SMILES_Desalt>
OC(C(=O)OCCN(CC)CC)(c1ccccc1)c2ccccc2

> <Substance_modify_yyyymmdd>
20110731

$$$$
