31677-93-7
ChemmineR-0915142007XD

 17 16  0  0  0  0  0  0  0  0  1 V2000
    0.9092   -0.5922    0.0000 Cl   0  0  0  0  0  0  0  0  0  0  0  0
    0.6700   -5.7606    0.0000 C    0  0  0  0  0  0  0  0  0  0  0  0
    0.0000   -4.6061    0.0000 C    0  0  0  0  0  0  0  0  0  0  0  0
    0.6700   -3.4575    0.0000 C    0  0  0  0  0  0  0  0  0  0  0  0
    0.0000   -2.3030    0.0000 Cl   0  0  0  0  0  0  0  0  0  0  0  0
    1.9980   -3.4575    0.0000 C    0  0  0  0  0  0  0  0  0  0  0  0
    2.6560   -4.6061    0.0000 C    0  0  0  0  0  0  0  0  0  0  0  0
    3.9839   -4.6061    0.0000 C    0  0  0  0  0  0  0  0  0  0  0  0
    4.6539   -5.7606    0.0000 O    0  0  0  0  0  0  0  0  0  0  0  0
    4.6539   -3.4575    0.0000 C    0  0  0  0  0  0  0  0  0  0  0  0
    5.9819   -3.4575    0.0000 C    0  0  0  0  0  0  0  0  0  0  0  0
    3.9839   -2.3030    0.0000 N    0  0  0  0  0  0  0  0  0  0  0  0
    4.6539   -1.1545    0.0000 C    0  0  0  0  0  0  0  0  0  0  0  0
    5.8084   -1.8245    0.0000 C    0  0  0  0  0  0  0  0  0  0  0  0
    3.5054   -0.4965    0.0000 C    0  0  0  0  0  0  0  0  0  0  0  0
    5.3119    0.0000    0.0000 C    0  0  0  0  0  0  0  0  0  0  0  0
    1.9980   -5.7606    0.0000 C    0  0  0  0  0  0  0  0  0  0  0  0
  2  3  2  0  0  0  0
  2 17  1  0  0  0  0
  3  4  1  0  0  0  0
  4  5  1  0  0  0  0
  4  6  2  0  0  0  0
  6  7  1  0  0  0  0
  7  8  1  0  0  0  0
  7 17  2  0  0  0  0
  8  9  2  0  0  0  0
  8 10  1  0  0  0  0
 10 11  1  0  0  0  0
 10 12  1  0  0  0  0
 12 13  1  0  0  0  0
 13 14  1  0  0  0  0
 13 15  1  0  0  0  0
 13 16  1  0  0  0  0
M  END
> <ID>
10215

> <Formula>
C13H19Cl2NO

> <FW>
276.2021 (36.4609+239.7411)

> <DSSTox_CID>
24561

> <DSSTox_RID>
80314

> <DSSTox_GSID>
44561

> <DSSTox_FileID_Sort>
4996

> <TS_ChemName>
Bupropion hydrochloride

> <TS_ChemName_Synonyms>
Bupropion hydrochloride (1-(3-clorofenil)-2-[(1,1-dimetiletil)amino]-1-propanone cloridrato)

> <TS_CASRN>
31677-93-7

> <CASRN_ChemName_Relationship>
primary

> <TS_Description>
single chemical compound

> <ChemNote>
parent [34911-55-2]

> <STRUCTURE_Shown>
tested chemical

> <STRUCTURE_Formula>
C13H19Cl2NO

> <STRUCTURE_MW>
276.2021

> <STRUCTURE_ChemType>
defined organic

> <STRUCTURE_DefinedOrganicForm>
complex

> <STRUCTURE_IUPAC>
2-(tert-butylamino)-1-(3-chlorophenyl)propan-1-one hydrochloride (1:1)

> <STRUCTURE_SMILES>
Cl.O=C(c1cc(Cl)ccc1)C(C)NC(C)(C)C

> <STRUCTURE_SMILES_Desalt>
O=C(c1cc(Cl)ccc1)C(C)NC(C)(C)C

> <Substance_modify_yyyymmdd>
20091116

$$$$
