317-52-2
ChemmineR-0915142007XD

 40 43  0  0  0  0  0  0  0  0  2 V2000
    3.1218   -3.2988    0.0000 C    0  0  0  0  0  0  0  0  0  0  0  0
   13.0343   -6.8873    0.0000 C    0  0  0  0  0  0  0  0  0  0  0  0
    2.3494   -4.3609    0.0000 C    0  0  0  0  0  0  0  0  0  0  0  0
   13.8389   -7.9171    0.0000 C    0  0  0  0  0  0  0  0  0  0  0  0
    2.3011   -2.2046    0.0000 C    0  0  0  0  0  0  0  0  0  0  0  0
   13.7906   -5.7769    0.0000 C    0  0  0  0  0  0  0  0  0  0  0  0
    1.0781   -2.6551    0.0000 C    0  0  0  0  0  0  0  0  0  0  0  0
    1.0781   -4.0068    0.0000 C    0  0  0  0  0  0  0  0  0  0  0  0
   15.0458   -6.1631    0.0000 C    0  0  0  0  0  0  0  0  0  0  0  0
   15.0458   -7.4827    0.0000 C    0  0  0  0  0  0  0  0  0  0  0  0
    4.4896   -3.2988    0.0000 N    0  3  0  0  0  0  0  0  0  0  0  0
   11.6826   -6.8873    0.0000 N    0  3  0  0  0  0  0  0  0  0  0  0
    2.6069   -0.8850    0.0000 C    0  0  0  0  0  0  0  0  0  0  0  0
    2.6551   -5.5999    0.0000 C    0  0  0  0  0  0  0  0  0  0  0  0
   13.5171   -4.5540    0.0000 C    0  0  0  0  0  0  0  0  0  0  0  0
   13.5654   -9.2528    0.0000 C    0  0  0  0  0  0  0  0  0  0  0  0
    0.0805   -4.8597    0.0000 C    0  0  0  0  0  0  0  0  0  0  0  0
   16.0918   -8.3677    0.0000 C    0  0  0  0  0  0  0  0  0  0  0  0
   16.0113   -5.2942    0.0000 C    0  0  0  0  0  0  0  0  0  0  0  0
    0.0000   -1.7701    0.0000 C    0  0  0  0  0  0  0  0  0  0  0  0
   10.3631   -6.8873    0.0000 C    0  0  0  0  0  0  0  0  0  0  0  0
    5.8091   -3.2988    0.0000 C    0  0  0  0  0  0  0  0  0  0  0  0
   11.6826   -5.5356    0.0000 C    0  0  0  0  0  0  0  0  0  0  0  0
   11.6826   -8.1102    0.0000 C    0  0  0  0  0  0  0  0  0  0  0  0
    4.4896   -1.9793    0.0000 C    0  0  0  0  0  0  0  0  0  0  0  0
    4.4896   -4.6022    0.0000 C    0  0  0  0  0  0  0  0  0  0  0  0
    9.7355   -5.7287    0.0000 C    0  0  0  0  0  0  0  0  0  0  0  0
    6.4367   -4.5540    0.0000 C    0  0  0  0  0  0  0  0  0  0  0  0
    1.5770    0.0000    0.0000 C    0  0  0  0  0  0  0  0  0  0  0  0
   14.4826   -3.6367    0.0000 C    0  0  0  0  0  0  0  0  0  0  0  0
   14.5630  -10.1056    0.0000 C    0  0  0  0  0  0  0  0  0  0  0  0
    1.6575   -6.5493    0.0000 C    0  0  0  0  0  0  0  0  0  0  0  0
    8.4321   -5.7287    0.0000 C    0  0  0  0  0  0  0  0  0  0  0  0
    7.8528   -4.5540    0.0000 C    0  0  0  0  0  0  0  0  0  0  0  0
   15.7860   -9.6872    0.0000 C    0  0  0  0  0  0  0  0  0  0  0  0
   15.7538   -4.0229    0.0000 C    0  0  0  0  0  0  0  0  0  0  0  0
    0.3862   -6.0827    0.0000 C    0  0  0  0  0  0  0  0  0  0  0  0
    0.2575   -0.4023    0.0000 C    0  0  0  0  0  0  0  0  0  0  0  0
    5.5195   -6.1953    0.0000 Br   0  5  0  0  0  0  0  0  0  0  0  0
    9.9930   -8.2873    0.0000 Br   0  5  0  0  0  0  0  0  0  0  0  0
  1  3  1  0  0  0  0
  1  5  1  0  0  0  0
  1 11  1  0  0  0  0
  2 12  1  0  0  0  0
  2  4  1  0  0  0  0
  2  6  1  0  0  0  0
  3  8  2  0  0  0  0
  3 14  1  0  0  0  0
  4 10  2  0  0  0  0
  4 16  1  0  0  0  0
  5  7  2  0  0  0  0
  5 13  1  0  0  0  0
  6  9  2  0  0  0  0
  6 15  1  0  0  0  0
  7 20  1  0  0  0  0
  7  8  1  0  0  0  0
  8 17  1  0  0  0  0
  9 19  1  0  0  0  0
  9 10  1  0  0  0  0
 10 18  1  0  0  0  0
 11 22  1  0  0  0  0
 11 25  1  0  0  0  0
 11 26  1  0  0  0  0
 12 21  1  0  0  0  0
 12 23  1  0  0  0  0
 12 24  1  0  0  0  0
 13 29  2  0  0  0  0
 14 32  2  0  0  0  0
 15 30  2  0  0  0  0
 16 31  2  0  0  0  0
 17 37  2  0  0  0  0
 18 35  2  0  0  0  0
 19 36  2  0  0  0  0
 20 38  2  0  0  0  0
 21 27  1  0  0  0  0
 22 28  1  0  0  0  0
 27 33  1  0  0  0  0
 28 34  1  0  0  0  0
 29 38  1  0  0  0  0
 30 36  1  0  0  0  0
 31 35  1  0  0  0  0
 32 37  1  0  0  0  0
 33 34  1  0  0  0  0
M  END
> <ID>
13744

> <Formula>
C36H42Br2N2

> <FW>
662.5401 (502.7310+79.9045+79.9045)

> <DSSTox_CID>
28679

> <DSSTox_RID>
82949

> <DSSTox_GSID>
48753

> <DSSTox_FileID_Sort>
7626

> <TS_ChemName>
Hexafluorenium dibromide

> <TS_ChemName_Synonyms>


> <TS_CASRN>
317-52-2

> <CASRN_ChemName_Relationship>
primary

> <TS_Description>
single chemical compound

> <ChemNote>


> <STRUCTURE_Shown>
tested chemical

> <STRUCTURE_Formula>
C36H42Br2N2

> <STRUCTURE_MW>
662.5401

> <STRUCTURE_ChemType>
defined organic

> <STRUCTURE_DefinedOrganicForm>
salt

> <STRUCTURE_IUPAC>
N,N'-di(9H-fluoren-9-yl)-N,N,N',N'-tetramethylhexane-1,6-diaminium dibromide

> <STRUCTURE_SMILES>
[Br-].[Br-].C[N+](C)(CCCCCC[N+](C)(C)C3c1ccccc1c2ccccc23)C6c4ccccc4c5ccccc56

> <STRUCTURE_SMILES_Desalt>
C[N+](C)(CCCCCC[N+](C)(C)C3c1ccccc1c2ccccc23)C6c4ccccc4c5ccccc56

> <Substance_modify_yyyymmdd>
20100107

$$$$
