317318-84-6
ChemmineR-0915142007XD

 31 33  0  0  0  0  0  0  0  0  1 V2000
   15.4578   -1.1457    0.0000 C   0  0  0  0  0  0  0  0  0  0  0  0
   16.1152   -2.2914    0.0000 C   0  0  0  0  0  0  0  0  0  0  0  0
   14.1242   -1.1457    0.0000 C   0  0  0  0  0  0  0  0  0  0  0  0
   15.4578   -3.4559    0.0000 C   0  0  0  0  0  0  0  0  0  0  0  0
   13.4669   -2.2914    0.0000 C   0  0  0  0  0  0  0  0  0  0  0  0
   14.1242   -3.4559    0.0000 C   0  0  0  0  0  0  0  0  0  0  0  0
    6.7240   -3.9818    0.0000 C   0  0  0  0  0  0  0  0  0  0  0  0
    6.8743   -5.2966    0.0000 C   0  0  0  0  0  0  0  0  0  0  0  0
    5.5220   -3.4371    0.0000 C   0  0  0  0  0  0  0  0  0  0  0  0
    5.7849   -6.0854    0.0000 C   0  0  0  0  0  0  0  0  0  0  0  0
    4.4326   -4.2260    0.0000 C   0  0  0  0  0  0  0  0  0  0  0  0
    4.5829   -5.5408    0.0000 C   0  0  0  0  0  0  0  0  0  0  0  0
    3.2305   -3.6813    0.0000 C   0  0  0  0  0  0  0  0  0  0  0  0
    3.5123   -6.3296    0.0000 O   0  0  0  0  0  0  0  0  0  0  0  0
    2.2914   -5.7849    0.0000 C   0  0  0  0  0  0  0  0  0  0  0  0
    1.2208   -6.5738    0.0000 C   0  0  0  0  0  0  0  0  0  0  0  0
    0.0000   -6.0291    0.0000 O   0  0  0  0  0  0  0  0  0  0  0  0
    1.3523   -7.8885    0.0000 O   0  0  0  0  0  0  0  0  0  0  0  0
    7.7946   -3.1930    0.0000 S   0  0  0  0  0  0  0  0  0  0  0  0
    9.0155   -3.7377    0.0000 C   0  0  0  0  0  0  0  0  0  0  0  0
   12.1333   -2.2914    0.0000 C   0  0  0  0  0  0  0  0  0  0  0  0
   11.3633   -3.3808    0.0000 S   0  0  0  0  0  0  0  0  0  0  0  0
   11.3633   -1.2208    0.0000 N   0  0  0  0  0  0  0  0  0  0  0  0
   10.0861   -2.9676    0.0000 C   0  0  0  0  0  0  0  0  0  0  0  0
   10.0861   -1.6341    0.0000 C   0  0  0  0  0  0  0  0  0  0  0  0
    9.0155   -0.8452    0.0000 C   0  0  0  0  0  0  0  0  0  0  0  0
   16.1152    0.0000    0.0000 F   0  0  0  0  0  0  0  0  0  0  0  0
   17.4487   -2.2914    0.0000 C   0  0  0  0  0  0  0  0  0  0  0  0
   17.4487   -3.6250    0.0000 F   0  0  0  0  0  0  0  0  0  0  0  0
   17.4487   -0.9767    0.0000 F   0  0  0  0  0  0  0  0  0  0  0  0
   18.7822   -2.2914    0.0000 F   0  0  0  0  0  0  0  0  0  0  0  0
  1  2  1  0  0  0  0
  1  3  2  0  0  0  0
  1 27  1  0  0  0  0
  2  4  2  0  0  0  0
  2 28  1  0  0  0  0
  3  5  1  0  0  0  0
  4  6  1  0  0  0  0
  5  6  2  0  0  0  0
  5 21  1  0  0  0  0
  7  8  1  0  0  0  0
  7  9  2  0  0  0  0
  7 19  1  0  0  0  0
  8 10  2  0  0  0  0
  9 11  1  0  0  0  0
 10 12  1  0  0  0  0
 11 12  2  0  0  0  0
 11 13  1  0  0  0  0
 12 14  1  0  0  0  0
 14 15  1  0  0  0  0
 15 16  1  0  0  0  0
 16 17  1  0  0  0  0
 16 18  2  0  0  0  0
 19 20  1  0  0  0  0
 20 24  1  0  0  0  0
 21 22  1  0  0  0  0
 21 23  2  0  0  0  0
 22 24  1  0  0  0  0
 23 25  1  0  0  0  0
 24 25  2  0  0  0  0
 25 26  1  0  0  0  0
 28 29  1  0  0  0  0
 28 30  1  0  0  0  0
 28 31  1  0  0  0  0
M  END
> <ID>
7952

> <Formula>
C21H17F4NO3S2

> <FW>
471.4882

> <DSSTox_CID>
20760

> <DSSTox_RID>
79591

> <DSSTox_GSID>
40760

> <DSSTox_FileID_Sort>
4273

> <TS_ChemName>
{4-[({2-[3-Fluoro-4-(trifluoromethyl)phenyl]-4-methyl-1,3-thiazol-5-yl}methyl)sulfanyl]-2-methylphenoxy}acetic acid

> <TS_ChemName_Synonyms>
GW0742

> <TS_CASRN>
317318-84-6

> <CASRN_ChemName_Relationship>
primary

> <TS_Description>
single chemical compound

> <ChemNote>


> <STRUCTURE_Shown>
tested chemical

> <STRUCTURE_Formula>
C21H17F4NO3S2

> <STRUCTURE_MW>
471.4882

> <STRUCTURE_ChemType>
defined organic

> <STRUCTURE_DefinedOrganicForm>
parent

> <STRUCTURE_IUPAC>
{4-[({2-[3-fluoro-4-(trifluoromethyl)phenyl]-4-methyl-1,3-thiazol-5-yl}methyl)sulfanyl]-2-methylphenoxy}acetic acid

> <STRUCTURE_SMILES>
O=C(O)COc1ccc(cc1C)SCc2sc(nc2C)c3cc(F)c(cc3)C(F)(F)F

> <STRUCTURE_SMILES_Desalt>
O=C(O)COc1ccc(cc1C)SCc2sc(nc2C)c3cc(F)c(cc3)C(F)(F)F

> <Substance_modify_yyyymmdd>
20080429

$$$$
