31842-01-0
ChemmineR-0915142007XD

 21 23  0  0  0  0  0  0  0  0  1 V2000
   10.3324   -3.4986    0.0000 C   0  0  0  0  0  0  0  0  0  0  0  0
    9.6677   -2.3440    0.0000 C   0  0  0  0  0  0  0  0  0  0  0  0
   10.3324   -1.1895    0.0000 C   0  0  0  0  0  0  0  0  0  0  0  0
    9.6677   -0.0466    0.0000 O   0  0  0  0  0  0  0  0  0  0  0  0
   11.6619   -1.1895    0.0000 O   0  0  0  0  0  0  0  0  0  0  0  0
    8.3383   -2.3440    0.0000 C   0  0  0  0  0  0  0  0  0  0  0  0
    7.6735   -3.4986    0.0000 C   0  0  0  0  0  0  0  0  0  0  0  0
    6.3441   -3.4986    0.0000 C   0  0  0  0  0  0  0  0  0  0  0  0
    5.6793   -2.3440    0.0000 C   0  0  0  0  0  0  0  0  0  0  0  0
    6.3441   -1.1895    0.0000 C   0  0  0  0  0  0  0  0  0  0  0  0
    7.6735   -1.1895    0.0000 C   0  0  0  0  0  0  0  0  0  0  0  0
    4.3499   -2.3440    0.0000 N   0  0  0  0  0  0  0  0  0  0  0  0
    3.5685   -3.4169    0.0000 C   0  0  0  0  0  0  0  0  0  0  0  0
    2.2974   -3.0088    0.0000 C   0  0  0  0  0  0  0  0  0  0  0  0
    1.1545   -3.6735    0.0000 C   0  0  0  0  0  0  0  0  0  0  0  0
    0.0000   -3.0088    0.0000 C   0  0  0  0  0  0  0  0  0  0  0  0
    0.0000   -1.6793    0.0000 C   0  0  0  0  0  0  0  0  0  0  0  0
    1.1545   -1.0146    0.0000 C   0  0  0  0  0  0  0  0  0  0  0  0
    2.2974   -1.6793    0.0000 C   0  0  0  0  0  0  0  0  0  0  0  0
    3.5685   -1.2711    0.0000 C   0  0  0  0  0  0  0  0  0  0  0  0
    3.9767    0.0000    0.0000 O   0  0  0  0  0  0  0  0  0  0  0  0
  1  2  1  0  0  0  0
  2  3  1  0  0  0  0
  2  6  1  0  0  0  0
  3  4  1  0  0  0  0
  3  5  2  0  0  0  0
  6  7  2  0  0  0  0
  6 11  1  0  0  0  0
  7  8  1  0  0  0  0
  8  9  2  0  0  0  0
  9 10  1  0  0  0  0
  9 12  1  0  0  0  0
 10 11  2  0  0  0  0
 12 13  1  0  0  0  0
 12 20  1  0  0  0  0
 13 14  1  0  0  0  0
 14 15  2  0  0  0  0
 14 19  1  0  0  0  0
 15 16  1  0  0  0  0
 16 17  2  0  0  0  0
 17 18  1  0  0  0  0
 18 19  2  0  0  0  0
 19 20  1  0  0  0  0
 20 21  2  0  0  0  0
M  END
> <ID>
11227

> <Formula>
C17H15NO3

> <FW>
281.3059

> <DSSTox_CID>
25831

> <DSSTox_RID>
81159

> <DSSTox_GSID>
45831

> <DSSTox_FileID_Sort>
5840

> <TS_ChemName>
Indoprofen

> <TS_ChemName_Synonyms>


> <TS_CASRN>
31842-01-0

> <CASRN_ChemName_Relationship>
primary

> <TS_Description>
single chemical compound

> <ChemNote>


> <STRUCTURE_Shown>
tested chemical

> <STRUCTURE_Formula>
C17H15NO3

> <STRUCTURE_MW>
281.3059

> <STRUCTURE_ChemType>
defined organic

> <STRUCTURE_DefinedOrganicForm>
parent

> <STRUCTURE_IUPAC>
2-[4-(1-oxo-1,3-dihydro-2H-isoindol-2-yl)phenyl]propanoic acid

> <STRUCTURE_SMILES>
O=C(O)C(C)c1ccc(cc1)N2Cc3ccccc3C2=O

> <STRUCTURE_SMILES_Desalt>
O=C(O)C(C)c1ccc(cc1)N2Cc3ccccc3C2=O

> <Substance_modify_yyyymmdd>
20110922

$$$$
