31868-18-5
ChemmineR-0915142007XD

 24 27  0  0  0  0  0  0  0  0  1 V2000
    4.9177    0.0000    0.0000 C    0  0  0  0  0  0  0  0  0  0  0  0
    4.5060   -1.2643    0.0000 C    0  0  0  0  0  0  0  0  0  0  0  0
    5.2852   -2.3375    0.0000 C    0  0  0  0  0  0  0  0  0  0  0  0
    4.5060   -3.4181    0.0000 O    0  0  0  0  0  0  0  0  0  0  0  0
    3.2417   -3.0065    0.0000 C    0  0  0  0  0  0  0  0  0  0  0  0
    3.2417   -1.6760    0.0000 N    0  0  0  0  0  0  0  0  0  0  0  0
    2.1979   -0.8453    0.0000 C    0  0  0  0  0  0  0  0  0  0  0  0
    0.9041   -1.1394    0.0000 C    0  0  0  0  0  0  0  0  0  0  0  0
    0.0735   -0.1029    0.0000 O    0  0  0  0  0  0  0  0  0  0  0  0
    0.3234   -2.3375    0.0000 N    0  0  0  0  0  0  0  0  0  0  0  0
    0.9041   -3.5357    0.0000 C    0  0  0  0  0  0  0  0  0  0  0  0
    0.0000   -4.5134    0.0000 C    0  0  0  0  0  0  0  0  0  0  0  0
    0.3896   -5.7850    0.0000 C    0  0  0  0  0  0  0  0  0  0  0  0
    1.6907   -6.0791    0.0000 C    0  0  0  0  0  0  0  0  0  0  0  0
    2.0803   -7.3508    0.0000 Cl   0  0  0  0  0  0  0  0  0  0  0  0
    2.5948   -5.1014    0.0000 C    0  0  0  0  0  0  0  0  0  0  0  0
    2.1979   -3.8371    0.0000 C    0  0  0  0  0  0  0  0  0  0  0  0
    3.6827   -4.2634    0.0000 C    0  0  0  0  0  0  0  0  0  0  0  0
    2.8153   -5.2705    0.0000 C    0  0  0  0  0  0  0  0  0  0  0  0
    3.2490   -6.5275    0.0000 C    0  0  0  0  0  0  0  0  0  0  0  0
    4.5575   -6.7701    0.0000 C    0  0  0  0  0  0  0  0  0  0  0  0
    5.4249   -5.7630    0.0000 C    0  0  0  0  0  0  0  0  0  0  0  0
    4.9838   -4.5060    0.0000 C    0  0  0  0  0  0  0  0  0  0  0  0
    5.8512   -3.4990    0.0000 Cl   0  0  0  0  0  0  0  0  0  0  0  0
  1  2  1  0  0  0  0
  2  3  1  0  0  0  0
  2  6  1  0  0  0  0
  3  4  1  0  0  0  0
  4  5  1  0  0  0  0
  5  6  1  0  0  0  0
  5 17  1  0  0  0  0
  5 18  1  0  0  0  0
  6  7  1  0  0  0  0
  7  8  1  0  0  0  0
  8  9  2  0  0  0  0
  8 10  1  0  0  0  0
 10 11  1  0  0  0  0
 11 12  2  0  0  0  0
 11 17  1  0  0  0  0
 12 13  1  0  0  0  0
 13 14  2  0  0  0  0
 14 15  1  0  0  0  0
 14 16  1  0  0  0  0
 16 17  2  0  0  0  0
 18 19  2  0  0  0  0
 18 23  1  0  0  0  0
 19 20  1  0  0  0  0
 20 21  2  0  0  0  0
 21 22  1  0  0  0  0
 22 23  2  0  0  0  0
 23 24  1  0  0  0  0
M  END
> <ID>
16117

> <Formula>
C18H16Cl2N2O2

> <FW>
363.2378

> <DSSTox_CID>
31504

> <DSSTox_RID>
97389

> <DSSTox_GSID>
57715

> <DSSTox_FileID_Sort>
8456

> <TS_ChemName>
Mexazolam

> <TS_ChemName_Synonyms>


> <TS_CASRN>
31868-18-5

> <CASRN_ChemName_Relationship>
primary

> <TS_Description>
single chemical compound

> <ChemNote>


> <STRUCTURE_Shown>
tested chemical

> <STRUCTURE_Formula>
C18H16Cl2N2O2

> <STRUCTURE_MW>
363.2378

> <STRUCTURE_ChemType>
defined organic

> <STRUCTURE_DefinedOrganicForm>
parent

> <STRUCTURE_IUPAC>
10-chloro-11b-(2-chlorophenyl)-3-methyl-2,3,7,11b-tetrahydro[1,3]oxazolo[3,2-d][1,4]benzodiazepin-6(5H)-one

> <STRUCTURE_SMILES>
Clc1ccccc1C34OCC(C)N4CC(=O)Nc2ccc(Cl)cc23

> <STRUCTURE_SMILES_Desalt>
Clc1ccccc1C34OCC(C)N4CC(=O)Nc2ccc(Cl)cc23

> <Substance_modify_yyyymmdd>
20131018

$$$$
