3188-00-9
ChemmineR-0915142007XD

  7  7  0  0  0  0  0  0  0  0  1 V2000
    0.0000   -0.7851    0.0000 C   0  0  0  0  0  0  0  0  0  0  0  0
    1.0752    0.0000    0.0000 O   0  0  0  0  0  0  0  0  0  0  0  0
    0.3994   -2.0480    0.0000 C   0  0  0  0  0  0  0  0  0  0  0  0
    2.1470   -0.7851    0.0000 C   0  0  0  0  0  0  0  0  0  0  0  0
    1.7306   -2.0480    0.0000 C   0  0  0  0  0  0  0  0  0  0  0  0
    3.4134   -0.3686    0.0000 C   0  0  0  0  0  0  0  0  0  0  0  0
    2.5157   -3.1233    0.0000 O   0  0  0  0  0  0  0  0  0  0  0  0
  1  2  1  0  0  0  0
  1  3  1  0  0  0  0
  2  4  1  0  0  0  0
  3  5  1  0  0  0  0
  4  5  1  0  0  0  0
  4  6  1  0  0  0  0
  5  7  2  0  0  0  0
M  END
> <ID>
12798

> <Formula>
C5H8O2

> <FW>
100.1158

> <DSSTox_CID>
27677

> <DSSTox_RID>
82494

> <DSSTox_GSID>
47677

> <DSSTox_FileID_Sort>
7175

> <TS_ChemName>
2-Methyldihydrofuran-3(2H)-one

> <TS_ChemName_Synonyms>
2-Methyldihydrofuran-3(2H)-one (2-Methyltetrahydro-3-furanone)

> <TS_CASRN>
3188-00-9

> <CASRN_ChemName_Relationship>
primary

> <TS_Description>
single chemical compound

> <ChemNote>


> <STRUCTURE_Shown>
tested chemical

> <STRUCTURE_Formula>
C5H8O2

> <STRUCTURE_MW>
100.1158

> <STRUCTURE_ChemType>
defined organic

> <STRUCTURE_DefinedOrganicForm>
parent

> <STRUCTURE_IUPAC>
2-methyldihydrofuran-3(2H)-one

> <STRUCTURE_SMILES>
CC1OCCC1=O

> <STRUCTURE_SMILES_Desalt>
CC1OCCC1=O

> <Substance_modify_yyyymmdd>
20101215

$$$$
