319-78-8
ChemmineR-0915142007XD

  9  8  0  0  1  0  0  0  0  0  1 V2000
    5.7589   -1.3476    0.0000 C   0  0  0  0  0  0  0  0  0  0  0  0
    4.6071   -1.9983    0.0000 C   0  0  0  0  0  0  0  0  0  0  0  0
    3.4553   -1.3476    0.0000 C   0  0  0  0  0  0  0  0  0  0  0  0
    3.4553    0.0000    0.0000 C   0  0  0  0  0  0  0  0  0  0  0  0
    2.3036   -1.9983    0.0000 C   0  0  0  0  0  0  0  0  0  0  0  0
    2.3036   -3.3286    0.0000 N   0  0  0  0  0  0  0  0  0  0  0  0
    1.1518   -1.3476    0.0000 C   0  0  0  0  0  0  0  0  0  0  0  0
    0.0000   -1.9983    0.0000 O   0  0  0  0  0  0  0  0  0  0  0  0
    1.1518    0.0000    0.0000 O   0  0  0  0  0  0  0  0  0  0  0  0
  1  2  1  0  0  0  0
  2  3  1  0  0  0  0
  3  4  1  0  0  0  0
  3  5  1  0  0  0  0
  5  6  1  1  0  0  0
  5  7  1  0  0  0  0
  7  8  1  0  0  0  0
  7  9  2  0  0  0  0
M  END
> <ID>
11617

> <Formula>
C6H13NO2

> <FW>
131.1729

> <DSSTox_CID>
26346

> <DSSTox_RID>
81550

> <DSSTox_GSID>
46346

> <DSSTox_FileID_Sort>
6231

> <TS_ChemName>
D-Isoleucine

> <TS_ChemName_Synonyms>


> <TS_CASRN>
319-78-8

> <CASRN_ChemName_Relationship>
primary

> <TS_Description>
single chemical compound

> <ChemNote>
stereochem

> <STRUCTURE_Shown>
tested chemical

> <STRUCTURE_Formula>
C6H13NO2

> <STRUCTURE_MW>
131.1729

> <STRUCTURE_ChemType>
defined organic

> <STRUCTURE_DefinedOrganicForm>
parent

> <STRUCTURE_IUPAC>
D-isoleucine

> <STRUCTURE_SMILES>
CC(CC)[C@@H](N)C(=O)O

> <STRUCTURE_SMILES_Desalt>
CC(CC)[C@@H](N)C(=O)O

> <Substance_modify_yyyymmdd>
20110814

$$$$
