319-84-6
ChemmineR-0915142007XD

 12 12  0  0  1  0  0  0  0  0  1 V2000
    3.4507   -1.9939    0.0000 C    0  0  0  0  0  0  0  0  0  0  0  0
    3.4507   -3.3231    0.0000 C    0  0  0  0  0  0  0  0  0  0  0  0
    2.3076   -1.3292    0.0000 C    0  0  0  0  0  0  0  0  0  0  0  0
    2.3076   -3.9877    0.0000 C    0  0  0  0  0  0  0  0  0  0  0  0
    1.1591   -1.9939    0.0000 C    0  0  0  0  0  0  0  0  0  0  0  0
    1.1591   -3.3231    0.0000 C    0  0  0  0  0  0  0  0  0  0  0  0
    0.0000   -1.3292    0.0000 Cl   0  0  0  0  0  0  0  0  0  0  0  0
    2.3076    0.0000    0.0000 Cl   0  0  0  0  0  0  0  0  0  0  0  0
    4.6098   -1.3292    0.0000 Cl   0  0  0  0  0  0  0  0  0  0  0  0
    4.6098   -3.9877    0.0000 Cl   0  0  0  0  0  0  0  0  0  0  0  0
    2.3076   -5.3170    0.0000 Cl   0  0  0  0  0  0  0  0  0  0  0  0
    0.0000   -3.9877    0.0000 Cl   0  0  0  0  0  0  0  0  0  0  0  0
  1  2  1  0  0  0  0
  1  3  1  0  0  0  0
  1  9  1  1  0  0  0
  2  4  1  0  0  0  0
  2 10  1  6  0  0  0
  3  5  1  0  0  0  0
  3  8  1  1  0  0  0
  4  6  1  0  0  0  0
  4 11  1  1  0  0  0
  5  6  1  0  0  0  0
  5  7  1  6  0  0  0
  6 12  1  6  0  0  0
M  END
> <ID>
655

> <Formula>
C6H6Cl6

> <FW>
290.8298

> <DSSTox_CID>
684

> <DSSTox_RID>
75732

> <DSSTox_GSID>
20684

> <DSSTox_FileID_Sort>
416

> <TS_ChemName>
alpha-1,2,3,4,5,6-Hexachlorocyclohexane

> <TS_ChemName_Synonyms>
alpha-1,2,3,4,5,6-Hexachlorocyclohexane (alpha-Hexachlorocyclohexane) (alpha-HCH)

> <TS_CASRN>
319-84-6

> <CASRN_ChemName_Relationship>
primary

> <TS_Description>
single chemical compound

> <ChemNote>
stereochem; same 2D structure beta-HCH [319-85-7]; gamma-HCH (Lindane) [58-89-9]; delta-HCH [319-86-8]; epsilon-HCH [6108-10-7]; zeta-HCH or iota-HCH [6108-11-8]; eta-HCH  [6108-12-9]; theta-HCH [6108-13-0]

> <STRUCTURE_Shown>
tested chemical

> <STRUCTURE_Formula>
C6H6Cl6

> <STRUCTURE_MW>
290.8298

> <STRUCTURE_ChemType>
defined organic

> <STRUCTURE_DefinedOrganicForm>
parent

> <STRUCTURE_IUPAC>
(1R,2R,3R,4R,5S,6S)-1,2,3,4,5,6-hexachlorocyclohexane

> <STRUCTURE_SMILES>
Cl[C@H]1[C@H](Cl)[C@@H](Cl)[C@H](Cl)[C@H](Cl)[C@H]1Cl

> <STRUCTURE_SMILES_Desalt>
Cl[C@H]1[C@H](Cl)[C@@H](Cl)[C@H](Cl)[C@H](Cl)[C@H]1Cl

> <Substance_modify_yyyymmdd>
20080429

$$$$
