319460-85-0
ChemmineR-0915142007XD

 28 31  0  0  0  0  0  0  0  0  1 V2000
    2.3096   -3.9946    0.0000 C   0  0  0  0  0  0  0  0  0  0  0  0
    2.3096   -5.3261    0.0000 C   0  0  0  0  0  0  0  0  0  0  0  0
    1.1548   -3.3229    0.0000 C   0  0  0  0  0  0  0  0  0  0  0  0
    1.1548   -5.9742    0.0000 C   0  0  0  0  0  0  0  0  0  0  0  0
    0.0000   -3.9946    0.0000 C   0  0  0  0  0  0  0  0  0  0  0  0
    0.0000   -5.3261    0.0000 C   0  0  0  0  0  0  0  0  0  0  0  0
    3.4643   -3.3229    0.0000 S   0  0  0  0  0  0  0  0  0  0  0  0
    4.6191   -3.9710    0.0000 C   0  0  0  0  0  0  0  0  0  0  0  0
    5.7739   -3.3229    0.0000 C   0  0  0  0  0  0  0  0  0  0  0  0
    4.6191   -5.3261    0.0000 C   0  0  0  0  0  0  0  0  0  0  0  0
    6.9051   -3.9946    0.0000 C   0  0  0  0  0  0  0  0  0  0  0  0
    5.7739   -5.9742    0.0000 C   0  0  0  0  0  0  0  0  0  0  0  0
    6.9051   -5.3261    0.0000 C   0  0  0  0  0  0  0  0  0  0  0  0
    1.1548   -1.9914    0.0000 C   0  0  0  0  0  0  0  0  0  0  0  0
    2.3096   -1.3198    0.0000 O   0  0  0  0  0  0  0  0  0  0  0  0
    0.0000   -1.3315    0.0000 N   0  0  0  0  0  0  0  0  0  0  0  0
    0.0000    0.0000    0.0000 C   0  0  0  0  0  0  0  0  0  0  0  0
    8.1777   -3.5704    0.0000 N   0  0  0  0  0  0  0  0  0  0  0  0
    8.9672   -4.6545    0.0000 N   0  0  0  0  0  0  0  0  0  0  0  0
    8.1777   -5.7268    0.0000 C   0  0  0  0  0  0  0  0  0  0  0  0
    8.5902   -6.9876    0.0000 C   0  0  0  0  0  0  0  0  0  0  0  0
    7.6946   -7.9892    0.0000 C   0  0  0  0  0  0  0  0  0  0  0  0
    8.0835   -9.2500    0.0000 C   0  0  0  0  0  0  0  0  0  0  0  0
    9.3797   -9.5446    0.0000 C   0  0  0  0  0  0  0  0  0  0  0  0
    7.1879  -10.2281    0.0000 N   0  0  0  0  0  0  0  0  0  0  0  0
    9.7803  -10.8055    0.0000 C   0  0  0  0  0  0  0  0  0  0  0  0
    7.5886  -11.5007    0.0000 C   0  0  0  0  0  0  0  0  0  0  0  0
    8.8848  -11.7835    0.0000 C   0  0  0  0  0  0  0  0  0  0  0  0
  1  2  1  0  0  0  0
  1  3  2  0  0  0  0
  1  7  1  0  0  0  0
  2  4  2  0  0  0  0
  3  5  1  0  0  0  0
  3 14  1  0  0  0  0
  4  6  1  0  0  0  0
  5  6  2  0  0  0  0
  7  8  1  0  0  0  0
  8  9  1  0  0  0  0
  8 10  2  0  0  0  0
  9 11  2  0  0  0  0
 10 12  1  0  0  0  0
 11 18  1  0  0  0  0
 11 13  1  0  0  0  0
 12 13  2  0  0  0  0
 13 20  1  0  0  0  0
 14 15  2  0  0  0  0
 14 16  1  0  0  0  0
 16 17  1  0  0  0  0
 18 19  1  0  0  0  0
 19 20  2  0  0  0  0
 20 21  1  0  0  0  0
 21 22  2  0  0  0  0
 22 23  1  0  0  0  0
 23 24  1  0  0  0  0
 23 25  2  0  0  0  0
 24 26  2  0  0  0  0
 25 27  1  0  0  0  0
 26 28  1  0  0  0  0
 27 28  2  0  0  0  0
M  END
> <ID>
14033

> <Formula>
C22H18N4OS

> <FW>
386.4695

> <DSSTox_CID>
28975

> <DSSTox_RID>
83240

> <DSSTox_GSID>
49049

> <DSSTox_FileID_Sort>
7915

> <TS_ChemName>
Axitinib

> <TS_ChemName_Synonyms>
AG-013736

> <TS_CASRN>
319460-85-0

> <CASRN_ChemName_Relationship>
primary

> <TS_Description>
single chemical compound

> <ChemNote>


> <STRUCTURE_Shown>
tested chemical

> <STRUCTURE_Formula>
C22H18N4OS

> <STRUCTURE_MW>
386.4695

> <STRUCTURE_ChemType>
defined organic

> <STRUCTURE_DefinedOrganicForm>
parent

> <STRUCTURE_IUPAC>
N-methyl-2-({3-[(E)-2-(pyridin-2-yl)ethenyl]-1H-indazol-6-yl}sulfanyl)benzamide

> <STRUCTURE_SMILES>
CNC(=O)c4ccccc4Sc1ccc3c(c1)nnc3/C=C/c2ccccn2

> <STRUCTURE_SMILES_Desalt>
CNC(=O)c4ccccc4Sc1ccc3c(c1)nnc3/C=C/c2ccccn2

> <Substance_modify_yyyymmdd>
20131114

$$$$
