3194-55-6
ChemmineR-0915142007XD

 18 18  0  0  0  0  0  0  0  0  1 V2000
    3.4535   -3.9922    0.0000 C    0  0  0  0  0  0  0  0  0  0  0  0
    2.3043   -1.9931    0.0000 C    0  0  0  0  0  0  0  0  0  0  0  0
    2.3043   -4.6566    0.0000 C    0  0  0  0  0  0  0  0  0  0  0  0
    1.1492   -2.6575    0.0000 C    0  0  0  0  0  0  0  0  0  0  0  0
    1.1492   -3.9922    0.0000 C    0  0  0  0  0  0  0  0  0  0  0  0
    4.6087   -1.9931    0.0000 C    0  0  0  0  0  0  0  0  0  0  0  0
    5.7579   -2.6635    0.0000 C    0  0  0  0  0  0  0  0  0  0  0  0
    4.6087   -4.6566    0.0000 C    0  0  0  0  0  0  0  0  0  0  0  0
    5.7579   -3.9922    0.0000 C    0  0  0  0  0  0  0  0  0  0  0  0
    4.6087   -0.6644    0.0000 C    0  0  0  0  0  0  0  0  0  0  0  0
    2.3043   -0.6644    0.0000 C    0  0  0  0  0  0  0  0  0  0  0  0
    3.4535    0.0000    0.0000 C    0  0  0  0  0  0  0  0  0  0  0  0
    5.7579    0.0000    0.0000 Br   0  0  0  0  0  0  0  0  0  0  0  0
    3.4535   -2.6575    0.0000 Br   0  0  0  0  0  0  0  0  0  0  0  0
    4.6087   -3.3278    0.0000 Br   0  0  0  0  0  0  0  0  0  0  0  0
    4.6087   -5.9853    0.0000 Br   0  0  0  0  0  0  0  0  0  0  0  0
    0.0000   -1.9931    0.0000 Br   0  0  0  0  0  0  0  0  0  0  0  0
    3.4535   -1.3287    0.0000 Br   0  0  0  0  0  0  0  0  0  0  0  0
  1  3  1  0  0  0  0
  1  8  1  0  0  0  0
  1 15  1  0  0  0  0
  2  4  1  0  0  0  0
  2 11  1  0  0  0  0
  2 18  1  0  0  0  0
  3  5  1  0  0  0  0
  4  5  1  0  0  0  0
  4 17  1  0  0  0  0
  6  7  1  0  0  0  0
  6 10  1  0  0  0  0
  6 14  1  0  0  0  0
  7  9  1  0  0  0  0
  8  9  1  0  0  0  0
  8 16  1  0  0  0  0
 10 12  1  0  0  0  0
 10 13  1  0  0  0  0
 11 12  1  0  0  0  0
M  END
> <ID>
5221

> <Formula>
C12H18Br6

> <FW>
641.6953

> <DSSTox_CID>
7527

> <DSSTox_RID>
78489

> <DSSTox_GSID>
27527

> <DSSTox_FileID_Sort>
3172

> <TS_ChemName>
1,2,5,6,9,10-Hexabromocyclododecane

> <TS_ChemName_Synonyms>


> <TS_CASRN>
3194-55-6

> <CASRN_ChemName_Relationship>
primary

> <TS_Description>
single chemical compound

> <ChemNote>


> <STRUCTURE_Shown>
tested chemical

> <STRUCTURE_Formula>
C12H18Br6

> <STRUCTURE_MW>
641.6953

> <STRUCTURE_ChemType>
defined organic

> <STRUCTURE_DefinedOrganicForm>
parent

> <STRUCTURE_IUPAC>
1,2,5,6,9,10-hexabromocyclododecane

> <STRUCTURE_SMILES>
BrC1CCC(Br)C(Br)CCC(Br)C(Br)CCC1Br

> <STRUCTURE_SMILES_Desalt>
BrC1CCC(Br)C(Br)CCC(Br)C(Br)CCC1Br

> <Substance_modify_yyyymmdd>
20080429

$$$$
