31983-27-4
ChemmineR-0915142007XD

 11 10  0  0  0  0  0  0  0  0  1 V2000
    4.5984   -2.6543    0.0000 C   0  0  0  0  0  0  0  0  0  0  0  0
    5.7497   -1.9993    0.0000 C   0  0  0  0  0  0  0  0  0  0  0  0
    5.7497   -0.6618    0.0000 C   0  0  0  0  0  0  0  0  0  0  0  0
    4.5984    0.0000    0.0000 C   0  0  0  0  0  0  0  0  0  0  0  0
    3.4540   -0.6618    0.0000 C   0  0  0  0  0  0  0  0  0  0  0  0
    2.2958    0.0000    0.0000 C   0  0  0  0  0  0  0  0  0  0  0  0
    1.1444   -0.6756    0.0000 C   0  0  0  0  0  0  0  0  0  0  0  0
    0.0000   -0.0207    0.0000 C   0  0  0  0  0  0  0  0  0  0  0  0
    3.4402   -3.3299    0.0000 N   0  0  0  0  0  0  0  0  0  0  0  0
    6.8942    0.0000    0.0000 C   0  0  0  0  0  0  0  0  0  0  0  0
    1.1582   -2.0131    0.0000 C   0  0  0  0  0  0  0  0  0  0  0  0
  1  2  1  0  0  0  0
  1  9  3  0  0  0  0
  2  3  2  0  0  0  0
  3  4  1  0  0  0  0
  3 10  1  0  0  0  0
  4  5  1  0  0  0  0
  5  6  1  0  0  0  0
  6  7  2  0  0  0  0
  7  8  1  0  0  0  0
  7 11  1  0  0  0  0
M  END
> <ID>
10464

> <Formula>
C10H15N

> <FW>
149.2328

> <DSSTox_CID>
24816

> <DSSTox_RID>
80497

> <DSSTox_GSID>
44816

> <DSSTox_FileID_Sort>
5179

> <TS_ChemName>
(2Z)-3,7-Dimethylocta-2,6-dienenitrile

> <TS_ChemName_Synonyms>
(2Z)-3,7-Dimethylocta-2,6-dienenitrile (2,6-Octadienenitrile, 3,7-dimethyl-, (2Z)-)

> <TS_CASRN>
31983-27-4

> <CASRN_ChemName_Relationship>
primary

> <TS_Description>
single chemical compound

> <ChemNote>
stereochem

> <STRUCTURE_Shown>
tested chemical

> <STRUCTURE_Formula>
C10H15N

> <STRUCTURE_MW>
149.2328

> <STRUCTURE_ChemType>
defined organic

> <STRUCTURE_DefinedOrganicForm>
parent

> <STRUCTURE_IUPAC>
(2Z)-3,7-dimethylocta-2,6-dienenitrile

> <STRUCTURE_SMILES>
C\C(C)=C\CCC(/C)=C\C#N

> <STRUCTURE_SMILES_Desalt>
C\C(C)=C\CCC(/C)=C\C#N

> <Substance_modify_yyyymmdd>
20091116

$$$$
