320-72-9
ChemmineR-0915142007XD

 12 12  0  0  0  0  0  0  0  0  1 V2000
    4.6243   -1.3278    0.0000 C    0  0  0  0  0  0  0  0  0  0  0  0
    4.6243    0.0000    0.0000 O    0  0  0  0  0  0  0  0  0  0  0  0
    3.4524   -2.0033    0.0000 C    0  0  0  0  0  0  0  0  0  0  0  0
    5.7732   -2.0033    0.0000 O    0  0  0  0  0  0  0  0  0  0  0  0
    2.3208   -1.3278    0.0000 C    0  0  0  0  0  0  0  0  0  0  0  0
    3.4524   -3.3311    0.0000 C    0  0  0  0  0  0  0  0  0  0  0  0
    1.1662   -2.0033    0.0000 C    0  0  0  0  0  0  0  0  0  0  0  0
    2.3208   -3.9835    0.0000 C    0  0  0  0  0  0  0  0  0  0  0  0
    1.1662   -3.3311    0.0000 C    0  0  0  0  0  0  0  0  0  0  0  0
    0.0000   -1.3278    0.0000 Cl   0  0  0  0  0  0  0  0  0  0  0  0
    2.3208   -5.3113    0.0000 Cl   0  0  0  0  0  0  0  0  0  0  0  0
    2.3208    0.0000    0.0000 O    0  0  0  0  0  0  0  0  0  0  0  0
  1  2  2  0  0  0  0
  1  3  1  0  0  0  0
  1  4  1  0  0  0  0
  3  5  2  0  0  0  0
  3  6  1  0  0  0  0
  5  7  1  0  0  0  0
  5 12  1  0  0  0  0
  6  8  2  0  0  0  0
  7  9  2  0  0  0  0
  7 10  1  0  0  0  0
  8  9  1  0  0  0  0
  8 11  1  0  0  0  0
M  END
> <ID>
10561

> <Formula>
C7H4Cl2O3

> <FW>
207.0109

> <DSSTox_CID>
24914

> <DSSTox_RID>
80582

> <DSSTox_GSID>
44914

> <DSSTox_FileID_Sort>
5264

> <TS_ChemName>
3,5-Dichlorosalicylic acid

> <TS_ChemName_Synonyms>
3,5-Dichlorosalicylic acid (Benzoic acid, 3,5-dichloro-2-hydroxy-)

> <TS_CASRN>
320-72-9

> <CASRN_ChemName_Relationship>
primary

> <TS_Description>
single chemical compound

> <ChemNote>


> <STRUCTURE_Shown>
tested chemical

> <STRUCTURE_Formula>
C7H4Cl2O3

> <STRUCTURE_MW>
207.0109

> <STRUCTURE_ChemType>
defined organic

> <STRUCTURE_DefinedOrganicForm>
parent

> <STRUCTURE_IUPAC>
3,5-dichloro-2-hydroxybenzoic acid

> <STRUCTURE_SMILES>
Oc1c(cc(Cl)cc1Cl)C(=O)O

> <STRUCTURE_SMILES_Desalt>
Oc1c(cc(Cl)cc1Cl)C(=O)O

> <Substance_modify_yyyymmdd>
20091116

$$$$
