3200-06-4
ChemmineR-0915142007XD

 34 35  0  0  0  0  0  0  0  0  1 V2000
    5.7894   -3.9779    0.0000 C   0  0  0  0  0  0  0  0  0  0  0  0
    3.4965   -5.3207    0.0000 C   0  0  0  0  0  0  0  0  0  0  0  0
    4.6239   -3.3318    0.0000 C   0  0  0  0  0  0  0  0  0  0  0  0
    3.4965   -3.9779    0.0000 C   0  0  0  0  0  0  0  0  0  0  0  0
    2.3056   -5.9921    0.0000 C   0  0  0  0  0  0  0  0  0  0  0  0
    4.6239   -1.9509    0.0000 C   0  0  0  0  0  0  0  0  0  0  0  0
    5.7894   -5.3207    0.0000 O   0  0  0  0  0  0  0  0  0  0  0  0
    6.8789   -2.0523    0.0000 O   0  0  0  0  0  0  0  0  0  0  0  0
    2.3056   -7.3476    0.0000 C   0  0  0  0  0  0  0  0  0  0  0  0
    6.9422   -3.3318    0.0000 O   0  0  0  0  0  0  0  0  0  0  0  0
    5.7894   -1.3048    0.0000 C   0  0  0  0  0  0  0  0  0  0  0  0
   10.3627   -4.0412    0.0000 N   0  0  0  0  0  0  0  0  0  0  0  0
    4.6239   -5.9921    0.0000 C   0  0  0  0  0  0  0  0  0  0  0  0
    8.0444   -4.0412    0.0000 C   0  0  0  0  0  0  0  0  0  0  0  0
    4.6239   -7.3476    0.0000 C   0  0  0  0  0  0  0  0  0  0  0  0
    1.1782   -5.3207    0.0000 C   0  0  0  0  0  0  0  0  0  0  0  0
    9.2099   -3.3571    0.0000 C   0  0  0  0  0  0  0  0  0  0  0  0
    7.9557   -1.1908    0.0000 C   0  0  0  0  0  0  0  0  0  0  0  0
    3.4965   -8.0191    0.0000 C   0  0  0  0  0  0  0  0  0  0  0  0
   10.3627   -5.3587    0.0000 C   0  0  0  0  0  0  0  0  0  0  0  0
   11.5155   -3.3571    0.0000 C   0  0  0  0  0  0  0  0  0  0  0  0
    1.1782   -8.0191    0.0000 C   0  0  0  0  0  0  0  0  0  0  0  0
    6.1695    0.0000    0.0000 C   0  0  0  0  0  0  0  0  0  0  0  0
   11.2621   -5.8654    0.0000 C   0  0  0  0  0  0  0  0  0  0  0  0
   12.6683   -4.0412    0.0000 C   0  0  0  0  0  0  0  0  0  0  0  0
    7.5250    0.0000    0.0000 C   0  0  0  0  0  0  0  0  0  0  0  0
    0.0000   -5.9921    0.0000 C   0  0  0  0  0  0  0  0  0  0  0  0
    0.0000   -7.3476    0.0000 C   0  0  0  0  0  0  0  0  0  0  0  0
    7.7530   -7.8670    0.0000 C   0  0  0  0  0  0  0  0  0  0  0  0
    8.9058   -7.1956    0.0000 C   0  0  0  0  0  0  0  0  0  0  0  0
    6.5749   -7.1956    0.0000 O   0  0  0  0  0  0  0  0  0  0  0  0
    8.9058   -5.8528    0.0000 O   0  0  0  0  0  0  0  0  0  0  0  0
   10.0713   -7.8670    0.0000 O   0  0  0  0  0  0  0  0  0  0  0  0
    7.7530   -9.2099    0.0000 O   0  0  0  0  0  0  0  0  0  0  0  0
  1  3  1  0  0  0  0
  1  7  2  0  0  0  0
  1 10  1  0  0  0  0
  2  4  1  0  0  0  0
  2  5  2  0  0  0  0
  2 13  1  0  0  0  0
  3  4  1  0  0  0  0
  3  6  1  0  0  0  0
  5  9  1  0  0  0  0
  5 16  1  0  0  0  0
  6 11  1  0  0  0  0
  8 11  1  0  0  0  0
  8 18  1  0  0  0  0
  9 22  1  0  0  0  0
  9 19  2  0  0  0  0
 10 14  1  0  0  0  0
 11 23  1  0  0  0  0
 12 17  1  0  0  0  0
 12 20  1  0  0  0  0
 12 21  1  0  0  0  0
 13 15  2  0  0  0  0
 14 17  1  0  0  0  0
 15 19  1  0  0  0  0
 16 27  2  0  0  0  0
 18 26  1  0  0  0  0
 20 24  1  0  0  0  0
 21 25  1  0  0  0  0
 22 28  2  0  0  0  0
 23 26  1  0  0  0  0
 27 28  1  0  0  0  0
 29 30  1  0  0  0  0
 29 31  2  0  0  0  0
 29 34  1  0  0  0  0
 30 32  2  0  0  0  0
 30 33  1  0  0  0  0
M  END
> <ID>
11003

> <Formula>
C26H35NO7

> <FW>
473.5586 (383.5237+90.0349)

> <DSSTox_CID>
25533

> <DSSTox_RID>
80935

> <DSSTox_GSID>
45533

> <DSSTox_FileID_Sort>
5616

> <TS_ChemName>
Nafronyl oxalate

> <TS_ChemName_Synonyms>


> <TS_CASRN>
3200-06-4

> <CASRN_ChemName_Relationship>
primary

> <TS_Description>
single chemical compound

> <ChemNote>
parent [31329-57-4]

> <STRUCTURE_Shown>
tested chemical

> <STRUCTURE_Formula>
C26H35NO7

> <STRUCTURE_MW>
473.5586

> <STRUCTURE_ChemType>
defined organic

> <STRUCTURE_DefinedOrganicForm>
complex

> <STRUCTURE_IUPAC>
2-(diethylamino)ethyl 3-(naphthalen-1-yl)-2-(tetrahydrofuran-2-ylmethyl)propanoate ethanedioate (1:1)

> <STRUCTURE_SMILES>
O=C(O)C(=O)O.CCN(CC)CCOC(=O)C(Cc1cccc2ccccc12)CC3CCCO3

> <STRUCTURE_SMILES_Desalt>
CCN(CC)CCOC(=O)C(Cc1cccc2ccccc12)CC3CCCO3

> <Substance_modify_yyyymmdd>
20100107

$$$$
