3209-13-0
ChemmineR-0915142007XD

 10 10  0  0  0  0  0  0  0  0  1 V2000
    2.2823   -1.3141    0.0000 C   0  0  0  0  0  0  0  0  0  0  0  0
    2.2823    0.0000    0.0000 O   0  0  0  0  0  0  0  0  0  0  0  0
    3.4465   -1.9884    0.0000 C   0  0  0  0  0  0  0  0  0  0  0  0
    1.1469   -1.9884    0.0000 C   0  0  0  0  0  0  0  0  0  0  0  0
    1.1469   -3.3025    0.0000 C   0  0  0  0  0  0  0  0  0  0  0  0
    3.4465   -3.3025    0.0000 C   0  0  0  0  0  0  0  0  0  0  0  0
    2.2823   -3.9825    0.0000 C   0  0  0  0  0  0  0  0  0  0  0  0
    4.5992   -3.9825    0.0000 O   0  0  0  0  0  0  0  0  0  0  0  0
    5.7634   -3.3025    0.0000 C   0  0  0  0  0  0  0  0  0  0  0  0
    0.0000   -3.9825    0.0000 C   0  0  0  0  0  0  0  0  0  0  0  0
  1  2  1  0  0  0  0
  1  3  2  0  0  0  0
  1  4  1  0  0  0  0
  3  6  1  0  0  0  0
  4  5  2  0  0  0  0
  5  7  1  0  0  0  0
  5 10  1  0  0  0  0
  6  7  2  0  0  0  0
  6  8  1  0  0  0  0
  8  9  1  0  0  0  0
M  END
> <ID>
12583

> <Formula>
C8H10O2

> <FW>
138.1638

> <DSSTox_CID>
27443

> <DSSTox_RID>
82350

> <DSSTox_GSID>
47443

> <DSSTox_FileID_Sort>
7031

> <TS_ChemName>
3-Methoxy-5-methylphenol

> <TS_ChemName_Synonyms>


> <TS_CASRN>
3209-13-0

> <CASRN_ChemName_Relationship>
primary

> <TS_Description>
single chemical compound

> <ChemNote>


> <STRUCTURE_Shown>
tested chemical

> <STRUCTURE_Formula>
C8H10O2

> <STRUCTURE_MW>
138.1638

> <STRUCTURE_ChemType>
defined organic

> <STRUCTURE_DefinedOrganicForm>
parent

> <STRUCTURE_IUPAC>
3-methoxy-5-methylphenol

> <STRUCTURE_SMILES>
Oc1cc(C)cc(OC)c1

> <STRUCTURE_SMILES_Desalt>
Oc1cc(C)cc(OC)c1

> <Substance_modify_yyyymmdd>
20100620

$$$$
