321-64-2
ChemmineR-0915142007XD

 15 17  0  0  0  0  0  0  0  0  1 V2000
    3.4645   -1.3234    0.0000 C   0  0  0  0  0  0  0  0  0  0  0  0
    3.4645   -3.9911    0.0000 N   0  0  0  0  0  0  0  0  0  0  0  0
    4.6147   -2.0094    0.0000 C   0  0  0  0  0  0  0  0  0  0  0  0
    2.3143   -1.9955    0.0000 C   0  0  0  0  0  0  0  0  0  0  0  0
    4.6147   -3.3190    0.0000 C   0  0  0  0  0  0  0  0  0  0  0  0
    2.3143   -3.3190    0.0000 C   0  0  0  0  0  0  0  0  0  0  0  0
    3.4645    0.0000    0.0000 N   0  0  0  0  0  0  0  0  0  0  0  0
    5.7649   -1.3442    0.0000 C   0  0  0  0  0  0  0  0  0  0  0  0
    1.1641   -1.3234    0.0000 C   0  0  0  0  0  0  0  0  0  0  0  0
    5.7649   -3.9911    0.0000 C   0  0  0  0  0  0  0  0  0  0  0  0
    1.1641   -3.9911    0.0000 C   0  0  0  0  0  0  0  0  0  0  0  0
    6.9290   -2.0094    0.0000 C   0  0  0  0  0  0  0  0  0  0  0  0
    0.0000   -2.0094    0.0000 C   0  0  0  0  0  0  0  0  0  0  0  0
    6.9290   -3.3051    0.0000 C   0  0  0  0  0  0  0  0  0  0  0  0
    0.0000   -3.3190    0.0000 C   0  0  0  0  0  0  0  0  0  0  0  0
  1  3  2  0  0  0  0
  1  4  1  0  0  0  0
  1  7  1  0  0  0  0
  2  6  1  0  0  0  0
  2  5  2  0  0  0  0
  3  5  1  0  0  0  0
  3  8  1  0  0  0  0
  4  6  2  0  0  0  0
  4  9  1  0  0  0  0
  5 10  1  0  0  0  0
  6 11  1  0  0  0  0
  8 12  1  0  0  0  0
  9 13  2  0  0  0  0
 10 14  1  0  0  0  0
 11 15  2  0  0  0  0
 12 14  1  0  0  0  0
 13 15  1  0  0  0  0
M  END
> <ID>
7294

> <Formula>
C13H14N2

> <FW>
198.2637

> <DSSTox_CID>
17272

> <DSSTox_RID>
79318

> <DSSTox_GSID>
37272

> <DSSTox_FileID_Sort>
4000

> <TS_ChemName>
Tacrine

> <TS_ChemName_Synonyms>


> <TS_CASRN>
321-64-2

> <CASRN_ChemName_Relationship>
primary

> <TS_Description>
single chemical compound

> <ChemNote>


> <STRUCTURE_Shown>
tested chemical

> <STRUCTURE_Formula>
C13H14N2

> <STRUCTURE_MW>
198.2637

> <STRUCTURE_ChemType>
defined organic

> <STRUCTURE_DefinedOrganicForm>
parent

> <STRUCTURE_IUPAC>
1,2,3,4-tetrahydroacridin-9-amine

> <STRUCTURE_SMILES>
Nc1c3ccccc3nc2CCCCc12

> <STRUCTURE_SMILES_Desalt>
Nc1c3ccccc3nc2CCCCc12

> <Substance_modify_yyyymmdd>
20080429

$$$$
