321-55-1
ChemmineR-0915142007XD

 24 25  0  0  0  0  0  0  0  0  1 V2000
    2.3006   -1.2850    0.0000 C    0  0  0  0  0  0  0  0  0  0  0  0
    2.3006   -2.6115    0.0000 C    0  0  0  0  0  0  0  0  0  0  0  0
    1.1503   -3.2850    0.0000 C    0  0  0  0  0  0  0  0  0  0  0  0
    0.0000   -2.6115    0.0000 Cl   0  0  0  0  0  0  0  0  0  0  0  0
    1.1503   -4.6115    0.0000 C    0  0  0  0  0  0  0  0  0  0  0  0
    0.0000   -5.2747    0.0000 O    0  0  0  0  0  0  0  0  0  0  0  0
    2.3006   -5.2747    0.0000 O    0  0  0  0  0  0  0  0  0  0  0  0
    3.4508   -4.6115    0.0000 C    0  0  0  0  0  0  0  0  0  0  0  0
    4.6011   -5.2747    0.0000 C    0  0  0  0  0  0  0  0  0  0  0  0
    5.7618   -4.6115    0.0000 C    0  0  0  0  0  0  0  0  0  0  0  0
    5.7618   -3.2850    0.0000 C    0  0  0  0  0  0  0  0  0  0  0  0
    4.6011   -2.6115    0.0000 C    0  0  0  0  0  0  0  0  0  0  0  0
    3.4508   -3.2850    0.0000 C    0  0  0  0  0  0  0  0  0  0  0  0
    6.9121   -5.2747    0.0000 O    0  0  0  0  0  0  0  0  0  0  0  0
    8.0623   -4.6115    0.0000 P    0  0  0  0  0  0  0  0  0  0  0  0
    8.7256   -5.7618    0.0000 O    0  0  0  0  0  0  0  0  0  0  0  0
    7.3991   -3.4612    0.0000 O    0  0  0  0  0  0  0  0  0  0  0  0
    8.0623   -2.3109    0.0000 C    0  0  0  0  0  0  0  0  0  0  0  0
    7.3991   -1.1606    0.0000 C    0  0  0  0  0  0  0  0  0  0  0  0
    8.0623    0.0000    0.0000 Cl   0  0  0  0  0  0  0  0  0  0  0  0
    9.2126   -3.9483    0.0000 O    0  0  0  0  0  0  0  0  0  0  0  0
    9.2126   -2.6115    0.0000 C    0  0  0  0  0  0  0  0  0  0  0  0
   10.3629   -1.9482    0.0000 C    0  0  0  0  0  0  0  0  0  0  0  0
   10.3629   -0.6218    0.0000 Cl   0  0  0  0  0  0  0  0  0  0  0  0
  1  2  1  0  0  0  0
  2  3  2  0  0  0  0
  2 13  1  0  0  0  0
  3  4  1  0  0  0  0
  3  5  1  0  0  0  0
  5  6  2  0  0  0  0
  5  7  1  0  0  0  0
  7  8  1  0  0  0  0
  8  9  2  0  0  0  0
  8 13  1  0  0  0  0
  9 10  1  0  0  0  0
 10 11  2  0  0  0  0
 10 14  1  0  0  0  0
 11 12  1  0  0  0  0
 12 13  2  0  0  0  0
 14 15  1  0  0  0  0
 15 16  2  0  0  0  0
 15 17  1  0  0  0  0
 15 21  1  0  0  0  0
 17 18  1  0  0  0  0
 18 19  1  0  0  0  0
 19 20  1  0  0  0  0
 21 22  1  0  0  0  0
 22 23  1  0  0  0  0
 23 24  1  0  0  0  0
M  END
> <ID>
11515

> <Formula>
C14H14Cl3O6P

> <FW>
415.5901

> <DSSTox_CID>
26221

> <DSSTox_RID>
81448

> <DSSTox_GSID>
46221

> <DSSTox_FileID_Sort>
6129

> <TS_ChemName>
Haloxon

> <TS_ChemName_Synonyms>


> <TS_CASRN>
321-55-1

> <CASRN_ChemName_Relationship>
primary

> <TS_Description>
single chemical compound

> <ChemNote>


> <STRUCTURE_Shown>
tested chemical

> <STRUCTURE_Formula>
C14H14Cl3O6P

> <STRUCTURE_MW>
415.5901

> <STRUCTURE_ChemType>
defined organic

> <STRUCTURE_DefinedOrganicForm>
parent

> <STRUCTURE_IUPAC>
bis(2-chloroethyl) 3-chloro-4-methyl-2-oxo-2H-chromen-7-yl phosphate

> <STRUCTURE_SMILES>
O=P(OCCCl)(OCCCl)Oc1ccc2c(c1)OC(=O)C(Cl)=C2C

> <STRUCTURE_SMILES_Desalt>
O=P(OCCCl)(OCCCl)Oc1ccc2c(c1)OC(=O)C(Cl)=C2C

> <Substance_modify_yyyymmdd>
20110817

$$$$
