321-60-8
ChemmineR-0915142007XD

 13 14  0  0  0  0  0  0  0  0  1 V2000
    1.9999   -1.1495    0.0000 C   0  0  0  0  0  0  0  0  0  0  0  0
    2.6577   -2.2989    0.0000 C   0  0  0  0  0  0  0  0  0  0  0  0
    0.6711   -1.1495    0.0000 C   0  0  0  0  0  0  0  0  0  0  0  0
    1.9999   -3.4551    0.0000 C   0  0  0  0  0  0  0  0  0  0  0  0
    0.0000   -2.2989    0.0000 C   0  0  0  0  0  0  0  0  0  0  0  0
    0.6711   -3.4551    0.0000 C   0  0  0  0  0  0  0  0  0  0  0  0
    3.9866   -2.2989    0.0000 C   0  0  0  0  0  0  0  0  0  0  0  0
    4.6577   -1.1495    0.0000 C   0  0  0  0  0  0  0  0  0  0  0  0
    4.6577   -3.4551    0.0000 C   0  0  0  0  0  0  0  0  0  0  0  0
    5.9866   -1.1495    0.0000 C   0  0  0  0  0  0  0  0  0  0  0  0
    5.9866   -3.4551    0.0000 C   0  0  0  0  0  0  0  0  0  0  0  0
    6.6443   -2.2989    0.0000 C   0  0  0  0  0  0  0  0  0  0  0  0
    3.9866    0.0000    0.0000 F   0  0  0  0  0  0  0  0  0  0  0  0
  1  2  1  0  0  0  0
  1  3  2  0  0  0  0
  2  4  2  0  0  0  0
  2  7  1  0  0  0  0
  3  5  1  0  0  0  0
  4  6  1  0  0  0  0
  5  6  2  0  0  0  0
  7  8  1  0  0  0  0
  7  9  2  0  0  0  0
  8 10  2  0  0  0  0
  8 13  1  0  0  0  0
  9 11  1  0  0  0  0
 10 12  1  0  0  0  0
 11 12  2  0  0  0  0
M  END
> <ID>
12849

> <Formula>
C12H9F

> <FW>
172.1983

> <DSSTox_CID>
27728

> <DSSTox_RID>
82527

> <DSSTox_GSID>
47744

> <DSSTox_FileID_Sort>
7208

> <TS_ChemName>
2-Fluorobiphenyl

> <TS_ChemName_Synonyms>


> <TS_CASRN>
321-60-8

> <CASRN_ChemName_Relationship>
primary

> <TS_Description>
single chemical compound

> <ChemNote>


> <STRUCTURE_Shown>
tested chemical

> <STRUCTURE_Formula>
C12H9F

> <STRUCTURE_MW>
172.1983

> <STRUCTURE_ChemType>
defined organic

> <STRUCTURE_DefinedOrganicForm>
parent

> <STRUCTURE_IUPAC>
2-fluorobiphenyl

> <STRUCTURE_SMILES>
Fc2ccccc2c1ccccc1

> <STRUCTURE_SMILES_Desalt>
Fc2ccccc2c1ccccc1

> <Substance_modify_yyyymmdd>
20110208

$$$$
