321746-49-0
ChemmineR-0915142007XD

 22 20  0  0  0  0  0  0  0  0  2 V2000
    2.3662   -2.0548    0.0000 S   0  3  0  0  0  0  0  0  0  0  0  0
    2.3662   -0.6849    0.0000 C   0  0  0  0  0  0  0  0  0  0  0  0
    1.1831   -2.7242    0.0000 C   0  0  0  0  0  0  0  0  0  0  0  0
    3.5493   -2.7242    0.0000 C   0  0  0  0  0  0  0  0  0  0  0  0
    3.5493   -4.0941    0.0000 C   0  0  0  0  0  0  0  0  0  0  0  0
    0.0000   -2.0548    0.0000 C   0  0  0  0  0  0  0  0  0  0  0  0
    3.5493    0.0000    0.0000 C   0  0  0  0  0  0  0  0  0  0  0  0
   11.6908   -1.7279    0.0000 O   0  0  0  0  0  0  0  0  0  0  0  0
   11.0214   -2.8643    0.0000 S   0  0  0  0  0  0  0  0  0  0  0  0
   10.3521   -4.0007    0.0000 O   0  0  0  0  0  0  0  0  0  0  0  0
    9.8695   -2.1949    0.0000 C   0  0  0  0  0  0  0  0  0  0  0  0
    9.2157   -3.3313    0.0000 F   0  0  0  0  0  0  0  0  0  0  0  0
   10.5389   -1.0586    0.0000 F   0  0  0  0  0  0  0  0  0  0  0  0
    8.7331   -1.5411    0.0000 F   0  0  0  0  0  0  0  0  0  0  0  0
   12.1578   -3.5181    0.0000 N   0  5  0  0  0  0  0  0  0  0  0  0
   12.6249   -1.7279    0.0000 O   0  0  0  0  0  0  0  0  0  0  0  0
   13.2787   -2.8643    0.0000 S   0  0  0  0  0  0  0  0  0  0  0  0
   13.9480   -4.0007    0.0000 O   0  0  0  0  0  0  0  0  0  0  0  0
   14.4306   -2.1949    0.0000 C   0  0  0  0  0  0  0  0  0  0  0  0
   13.7768   -1.0586    0.0000 F   0  0  0  0  0  0  0  0  0  0  0  0
   15.0844   -3.3313    0.0000 F   0  0  0  0  0  0  0  0  0  0  0  0
   15.5670   -1.5411    0.0000 F   0  0  0  0  0  0  0  0  0  0  0  0
  1  2  1  0  0  0  0
  1  3  1  0  0  0  0
  1  4  1  0  0  0  0
  2  7  1  0  0  0  0
  3  6  1  0  0  0  0
  4  5  1  0  0  0  0
  8  9  2  0  0  0  0
  9 10  2  0  0  0  0
  9 11  1  0  0  0  0
  9 15  1  0  0  0  0
 11 12  1  0  0  0  0
 11 13  1  0  0  0  0
 11 14  1  0  0  0  0
 15 17  1  0  0  0  0
 16 17  2  0  0  0  0
 17 18  2  0  0  0  0
 17 19  1  0  0  0  0
 19 20  1  0  0  0  0
 19 21  1  0  0  0  0
 19 22  1  0  0  0  0
M  END
> <ID>
12963

> <Formula>
C8H15F6NO4S3

> <FW>
399.3944 (119.2478+280.1467)

> <DSSTox_CID>
27864

> <DSSTox_RID>
82617

> <DSSTox_GSID>
47888

> <DSSTox_FileID_Sort>
7294

> <TS_ChemName>
Triethylsulfonium bis(trifluoromethanesulfonyl)imide

> <TS_ChemName_Synonyms>


> <TS_CASRN>
321746-49-0

> <CASRN_ChemName_Relationship>
primary

> <TS_Description>
single chemical compound

> <ChemNote>
sulfonium; parent [29245-61-2]

> <STRUCTURE_Shown>
tested chemical

> <STRUCTURE_Formula>
C8H15F6NO4S3

> <STRUCTURE_MW>
399.3944

> <STRUCTURE_ChemType>
defined organic

> <STRUCTURE_DefinedOrganicForm>
complex

> <STRUCTURE_IUPAC>
triethylsulfonium bis[(trifluoromethyl)sulfonyl]azanide

> <STRUCTURE_SMILES>
FC(F)(F)S(=O)(=O)[N-]S(=O)(=O)C(F)(F)F.CC[S+](CC)CC

> <STRUCTURE_SMILES_Desalt>
O=S(=O)(NS(=O)(=O)C(F)(F)F)C(F)(F)F

> <Substance_modify_yyyymmdd>
20110419

$$$$
