322-79-2
ChemmineR-0915142007XD

 17 17  0  0  0  0  0  0  0  0  1 V2000
    0.0000   -4.6026    0.0000 C   0  0  0  0  0  0  0  0  0  0  0  0
    1.3273   -4.6026    0.0000 C   0  0  0  0  0  0  0  0  0  0  0  0
    1.9980   -5.7586    0.0000 O   0  0  0  0  0  0  0  0  0  0  0  0
    1.9980   -3.4538    0.0000 O   0  0  0  0  0  0  0  0  0  0  0  0
    3.3253   -3.4538    0.0000 C   0  0  0  0  0  0  0  0  0  0  0  0
    3.9890   -2.2977    0.0000 C   0  0  0  0  0  0  0  0  0  0  0  0
    5.3162   -2.2977    0.0000 C   0  0  0  0  0  0  0  0  0  0  0  0
    5.9870   -3.4538    0.0000 C   0  0  0  0  0  0  0  0  0  0  0  0
    5.3162   -4.6026    0.0000 C   0  0  0  0  0  0  0  0  0  0  0  0
    3.9890   -4.6026    0.0000 C   0  0  0  0  0  0  0  0  0  0  0  0
    5.9870   -5.7586    0.0000 C   0  0  0  0  0  0  0  0  0  0  0  0
    4.8310   -6.4223    0.0000 F   0  0  0  0  0  0  0  0  0  0  0  0
    7.1359   -5.0879    0.0000 F   0  0  0  0  0  0  0  0  0  0  0  0
    6.6506   -6.9075    0.0000 F   0  0  0  0  0  0  0  0  0  0  0  0
    3.3253   -1.1489    0.0000 C   0  0  0  0  0  0  0  0  0  0  0  0
    1.9980   -1.1489    0.0000 O   0  0  0  0  0  0  0  0  0  0  0  0
    3.9890    0.0000    0.0000 O   0  0  0  0  0  0  0  0  0  0  0  0
  1  2  1  0  0  0  0
  2  3  2  0  0  0  0
  2  4  1  0  0  0  0
  4  5  1  0  0  0  0
  5  6  2  0  0  0  0
  5 10  1  0  0  0  0
  6  7  1  0  0  0  0
  6 15  1  0  0  0  0
  7  8  2  0  0  0  0
  8  9  1  0  0  0  0
  9 10  2  0  0  0  0
  9 11  1  0  0  0  0
 11 12  1  0  0  0  0
 11 13  1  0  0  0  0
 11 14  1  0  0  0  0
 15 16  1  0  0  0  0
 15 17  2  0  0  0  0
M  END
> <ID>
10861

> <Formula>
C10H7F3O4

> <FW>
248.1554

> <DSSTox_CID>
25305

> <DSSTox_RID>
80791

> <DSSTox_GSID>
45305

> <DSSTox_FileID_Sort>
5472

> <TS_ChemName>
Triflusal

> <TS_ChemName_Synonyms>


> <TS_CASRN>
322-79-2

> <CASRN_ChemName_Relationship>
primary

> <TS_Description>
single chemical compound

> <ChemNote>


> <STRUCTURE_Shown>
tested chemical

> <STRUCTURE_Formula>
C10H7F3O4

> <STRUCTURE_MW>
248.1554

> <STRUCTURE_ChemType>
defined organic

> <STRUCTURE_DefinedOrganicForm>
parent

> <STRUCTURE_IUPAC>
2-(acetyloxy)-4-(trifluoromethyl)benzoic acid

> <STRUCTURE_SMILES>
O=C(C)Oc1cc(ccc1C(=O)O)C(F)(F)F

> <STRUCTURE_SMILES_Desalt>
O=C(C)Oc1cc(ccc1C(=O)O)C(F)(F)F

> <Substance_modify_yyyymmdd>
20110720

$$$$
