32222-06-3
ChemmineR-0915142007XD

 32 34  0  0  1  0  0  0  0  0  1 V2000
    4.5484   -2.9800    0.0000 C   0  0  0  0  0  0  0  0  0  0  0  0
    2.2518   -8.2117    0.0000 C   0  0  0  0  0  0  0  0  0  0  0  0
    3.4281   -8.9063    0.0000 C   0  0  0  0  0  0  0  0  0  0  0  0
    4.5484   -4.3131    0.0000 C   0  0  0  0  0  0  0  0  0  0  0  0
    5.6350   -2.3526    0.0000 C   0  0  0  0  0  0  0  0  0  0  0  0
    2.2518   -6.9234    0.0000 C   0  0  0  0  0  0  0  0  0  0  0  0
    3.4281  -10.1834    0.0000 C   0  0  0  0  0  0  0  0  0  0  0  0
    3.4281   -4.9853    0.0000 C   0  0  0  0  0  0  0  0  0  0  0  0
    3.4281   -6.2624    0.0000 C   0  0  0  0  0  0  0  0  0  0  0  0
    6.7553   -4.3131    0.0000 C   0  0  0  0  0  0  0  0  0  0  0  0
    6.7553   -2.9800    0.0000 C   0  0  0  0  0  0  0  0  0  0  0  0
    2.2518  -10.8220    0.0000 C   0  0  0  0  0  0  0  0  0  0  0  0
    1.1315   -8.9063    0.0000 C   0  0  0  0  0  0  0  0  0  0  0  0
    1.1315  -10.1834    0.0000 C   0  0  0  0  0  0  0  0  0  0  0  0
    4.5484   -8.2117    0.0000 C   0  0  0  0  0  0  0  0  0  0  0  0
   10.0938   -1.1091    0.0000 C   0  0  0  0  0  0  0  0  0  0  0  0
    5.6350   -1.0643    0.0000 C   0  0  0  0  0  0  0  0  0  0  0  0
    3.4281   -2.3526    0.0000 C   0  0  0  0  0  0  0  0  0  0  0  0
    4.5484  -10.8108    0.0000 O   0  0  0  0  0  0  0  0  0  0  0  0
    4.5484   -1.7364    0.0000 C   0  0  0  0  0  0  0  0  0  0  0  0
   11.2029   -1.7813    0.0000 O   0  0  0  0  0  0  0  0  0  0  0  0
    0.0000  -10.8556    0.0000 O   0  0  0  0  0  0  0  0  0  0  0  0
    2.2518   -4.3131    0.0000 C   0  0  0  0  0  0  0  0  0  0  0  0
    2.2518   -2.9800    0.0000 C   0  0  0  0  0  0  0  0  0  0  0  0
    7.8532   -1.0643    0.0000 C   0  0  0  0  0  0  0  0  0  0  0  0
    8.9959   -0.4369    0.0000 C   0  0  0  0  0  0  0  0  0  0  0  0
    6.7553   -0.4033    0.0000 C   0  0  0  0  0  0  0  0  0  0  0  0
    9.4440   -2.1958    0.0000 C   0  0  0  0  0  0  0  0  0  0  0  0
   10.7659    0.0000    0.0000 C   0  0  0  0  0  0  0  0  0  0  0  0
    4.5484   -0.4033    0.0000 C   0  0  0  0  0  0  0  0  0  0  0  0
    4.5484   -5.6574    0.0000 H   0  0  0  0  0  0  0  0  0  0  0  0
    6.7665   -1.6804    0.0000 H   0  0  0  0  0  0  0  0  0  0  0  0
  1  4  1  0  0  0  0
  1  5  1  0  0  0  0
  1 18  1  0  0  0  0
  1 20  1  1  0  0  0
  2  6  2  0  0  0  0
  2  3  1  0  0  0  0
  2 13  1  0  0  0  0
  3  7  1  0  0  0  0
  3 15  2  0  0  0  0
  4  8  1  0  0  0  0
  4 10  1  0  0  0  0
  4 31  1  6  0  0  0
  5 11  1  0  0  0  0
  5 17  1  0  0  0  0
  5 32  1  6  0  0  0
  6  9  1  0  0  0  0
  7 19  1  1  0  0  0
  7 12  1  0  0  0  0
  8  9  2  0  0  0  0
  8 23  1  0  0  0  0
 10 11  1  0  0  0  0
 12 14  1  0  0  0  0
 13 14  1  0  0  0  0
 14 22  1  6  0  0  0
 16 26  1  0  0  0  0
 16 21  1  0  0  0  0
 16 28  1  0  0  0  0
 16 29  1  0  0  0  0
 17 27  1  0  0  0  0
 17 30  1  6  0  0  0
 18 24  1  0  0  0  0
 23 24  1  0  0  0  0
 25 27  1  0  0  0  0
 25 26  1  0  0  0  0
M  END
> <ID>
2462

> <Formula>
C27H44O3

> <FW>
416.6365

> <DSSTox_CID>
2722

> <DSSTox_RID>
76700

> <DSSTox_GSID>
22722

> <DSSTox_FileID_Sort>
1384

> <TS_ChemName>
Calcitriol

> <TS_ChemName_Synonyms>
Calcitriol (1,25-dihydroxyvitamin D3) (1,25(OH)2D3) (1,25 (OH)2 vitamin D3)

> <TS_CASRN>
32222-06-3

> <CASRN_ChemName_Relationship>
primary

> <TS_Description>
single chemical compound

> <ChemNote>
stereochem

> <STRUCTURE_Shown>
tested chemical

> <STRUCTURE_Formula>
C27H44O3

> <STRUCTURE_MW>
416.6365

> <STRUCTURE_ChemType>
defined organic

> <STRUCTURE_DefinedOrganicForm>
parent

> <STRUCTURE_IUPAC>
(1S,3R,5Z,7E)-9,10-secocholesta-5,7,10-triene-1,3,25-triol

> <STRUCTURE_SMILES>
C=C1C(/C[C@@H](O)C[C@@H]1O)=C\C=C2/CCC[C@]3(C)[C@H](CC[C@@H]23)[C@H](C)CCCC(C)(C)O

> <STRUCTURE_SMILES_Desalt>
C=C1C(/C[C@@H](O)C[C@@H]1O)=C\C=C2/CCC[C@]3(C)[C@H](CC[C@@H]23)[C@H](C)CCCC(C)(C)O

> <Substance_modify_yyyymmdd>
20080429

$$$$
