32266-10-7
ChemmineR-0915142007XD

 35 35  0  0  0  0  0  0  0  0  1 V2000
   17.9824   -2.4047    0.0000 C   0  0  0  0  0  0  0  0  0  0  0  0
    3.2773   -2.3622    0.0000 C   0  0  0  0  0  0  0  0  0  0  0  0
   19.3018   -2.4047    0.0000 C   0  0  0  0  0  0  0  0  0  0  0  0
    1.9791   -2.3622    0.0000 C   0  0  0  0  0  0  0  0  0  0  0  0
   17.2589   -3.5752    0.0000 C   0  0  0  0  0  0  0  0  0  0  0  0
    3.9795   -3.4688    0.0000 C   0  0  0  0  0  0  0  0  0  0  0  0
   19.8977   -3.5539    0.0000 C   0  0  0  0  0  0  0  0  0  0  0  0
    1.3194   -3.5114    0.0000 C   0  0  0  0  0  0  0  0  0  0  0  0
   17.9398   -4.7031    0.0000 C   0  0  0  0  0  0  0  0  0  0  0  0
    3.2773   -4.6605    0.0000 C   0  0  0  0  0  0  0  0  0  0  0  0
   19.2593   -4.7031    0.0000 C   0  0  0  0  0  0  0  0  0  0  0  0
    1.9578   -4.6605    0.0000 C   0  0  0  0  0  0  0  0  0  0  0  0
   15.9394   -3.5752    0.0000 C   0  0  0  0  0  0  0  0  0  0  0  0
    5.2990   -3.4688    0.0000 C   0  0  0  0  0  0  0  0  0  0  0  0
   19.8977   -1.2343    0.0000 O   0  0  0  0  0  0  0  0  0  0  0  0
    1.3194   -1.1705    0.0000 O   0  0  0  0  0  0  0  0  0  0  0  0
   13.8752   -2.3409    0.0000 N   0  0  0  0  0  0  0  0  0  0  0  0
    7.2781   -2.3409    0.0000 N   0  0  0  0  0  0  0  0  0  0  0  0
   21.2810   -3.5539    0.0000 O   0  0  0  0  0  0  0  0  0  0  0  0
    0.0000   -3.5114    0.0000 O   0  0  0  0  0  0  0  0  0  0  0  0
    5.9374   -4.6392    0.0000 O   0  0  0  0  0  0  0  0  0  0  0  0
   15.2159   -4.6392    0.0000 O   0  0  0  0  0  0  0  0  0  0  0  0
   15.2159   -2.3409    0.0000 C   0  0  0  0  0  0  0  0  0  0  0  0
    5.9587   -2.3409    0.0000 C   0  0  0  0  0  0  0  0  0  0  0  0
    7.9591   -1.1917    0.0000 C   0  0  0  0  0  0  0  0  0  0  0  0
   13.2155   -1.2130    0.0000 C   0  0  0  0  0  0  0  0  0  0  0  0
   11.8748   -1.2130    0.0000 C   0  0  0  0  0  0  0  0  0  0  0  0
    9.2785   -1.1917    0.0000 C   0  0  0  0  0  0  0  0  0  0  0  0
    9.9382    0.0000    0.0000 C   0  0  0  0  0  0  0  0  0  0  0  0
   11.2576    0.0000    0.0000 C   0  0  0  0  0  0  0  0  0  0  0  0
   10.7682   -4.6392    0.0000 S   0  0  0  0  0  0  0  0  0  0  0  0
   12.0876   -4.6392    0.0000 O   0  0  0  0  0  0  0  0  0  0  0  0
    9.4487   -4.6392    0.0000 O   0  0  0  0  0  0  0  0  0  0  0  0
   10.7682   -5.9587    0.0000 O   0  0  0  0  0  0  0  0  0  0  0  0
   10.7682   -3.3198    0.0000 O   0  0  0  0  0  0  0  0  0  0  0  0
  1  3  2  0  0  0  0
  1  5  1  0  0  0  0
  2  6  1  0  0  0  0
  2  4  2  0  0  0  0
  3  7  1  0  0  0  0
  3 15  1  0  0  0  0
  4 16  1  0  0  0  0
  4  8  1  0  0  0  0
  5  9  2  0  0  0  0
  5 13  1  0  0  0  0
  6 14  1  0  0  0  0
  6 10  2  0  0  0  0
  7 19  1  0  0  0  0
  7 11  2  0  0  0  0
  8 12  2  0  0  0  0
  8 20  1  0  0  0  0
  9 11  1  0  0  0  0
 10 12  1  0  0  0  0
 13 22  1  0  0  0  0
 13 23  1  0  0  0  0
 14 24  1  0  0  0  0
 14 21  1  0  0  0  0
 17 23  1  0  0  0  0
 17 26  1  0  0  0  0
 18 25  1  0  0  0  0
 18 24  1  0  0  0  0
 25 28  1  0  0  0  0
 26 27  1  0  0  0  0
 27 30  1  0  0  0  0
 28 29  1  0  0  0  0
 29 30  1  0  0  0  0
 31 32  2  0  0  0  0
 31 33  2  0  0  0  0
 31 34  1  0  0  0  0
 31 35  1  0  0  0  0
M  END
> <ID>
11886

> <Formula>
C22H34N2O10S

> <FW>
518.5778 (420.4993+98.0785)

> <DSSTox_CID>
26688

> <DSSTox_RID>
81822

> <DSSTox_GSID>
46688

> <DSSTox_FileID_Sort>
6503

> <TS_ChemName>
Hexoprenaline sulfate

> <TS_ChemName_Synonyms>


> <TS_CASRN>
32266-10-7

> <CASRN_ChemName_Relationship>
primary

> <TS_Description>
single chemical compound

> <ChemNote>
parent [3215-70-1]

> <STRUCTURE_Shown>
tested chemical

> <STRUCTURE_Formula>
C22H34N2O10S

> <STRUCTURE_MW>
518.5778

> <STRUCTURE_ChemType>
defined organic

> <STRUCTURE_DefinedOrganicForm>
complex

> <STRUCTURE_IUPAC>
4,4'-{hexane-1,6-diylbis[imino(1-hydroxyethane-2,1-diyl)]}dibenzene-1,2-diol sulfate (1:1)

> <STRUCTURE_SMILES>
Oc1ccc(cc1O)C(O)CNCCCCCCNCC(O)c2ccc(O)c(O)c2.O=S(=O)(O)O

> <STRUCTURE_SMILES_Desalt>
Oc1ccc(cc1O)C(O)CNCCCCCCNCC(O)c2ccc(O)c(O)c2

> <Substance_modify_yyyymmdd>
20110805

$$$$
