32295-18-4
ChemmineR-0915142007XD

 23 24  0  0  1  0  0  0  0  0  1 V2000
    4.6108   -0.6553    0.0000 C   0  0  0  0  0  0  0  0  0  0  0  0
    4.6108   -1.9778    0.0000 C   0  0  0  0  0  0  0  0  0  0  0  0
    3.4670   -2.6569    0.0000 C   0  0  0  0  0  0  0  0  0  0  0  0
    2.2994   -2.0016    0.0000 C   0  0  0  0  0  0  0  0  0  0  0  0
    1.1676   -2.6688    0.0000 C   0  0  0  0  0  0  0  0  0  0  0  0
    0.0000   -2.0135    0.0000 C   0  0  0  0  0  0  0  0  0  0  0  0
    0.0000   -0.6910    0.0000 C   0  0  0  0  0  0  0  0  0  0  0  0
    1.1318    0.0000    0.0000 C   0  0  0  0  0  0  0  0  0  0  0  0
    2.2994   -0.6672    0.0000 C   0  0  0  0  0  0  0  0  0  0  0  0
    5.7784   -2.6330    0.0000 N   0  0  0  0  0  0  0  0  0  0  0  0
    6.9221   -1.9658    0.0000 C   0  0  0  0  0  0  0  0  0  0  0  0
    6.9221   -0.6434    0.0000 O   0  0  0  0  0  0  0  0  0  0  0  0
    8.0778   -2.6211    0.0000 N   0  0  0  0  0  0  0  0  0  0  0  0
    9.2096   -1.9539    0.0000 S   0  0  0  0  0  0  0  0  0  0  0  0
   10.3653   -1.2748    0.0000 O   0  0  0  0  0  0  0  0  0  0  0  0
    8.5425   -0.8102    0.0000 O   0  0  0  0  0  0  0  0  0  0  0  0
    9.8888   -3.0977    0.0000 C   0  0  0  0  0  0  0  0  0  0  0  0
   11.2231   -3.0858    0.0000 C   0  0  0  0  0  0  0  0  0  0  0  0
   11.8784   -4.2534    0.0000 C   0  0  0  0  0  0  0  0  0  0  0  0
   11.2231   -5.4090    0.0000 C   0  0  0  0  0  0  0  0  0  0  0  0
   11.9142   -6.5409    0.0000 C   0  0  0  0  0  0  0  0  0  0  0  0
    9.9007   -5.4090    0.0000 C   0  0  0  0  0  0  0  0  0  0  0  0
    9.2216   -4.2534    0.0000 C   0  0  0  0  0  0  0  0  0  0  0  0
  2  1  1  6  0  0  0
  2  3  1  0  0  0  0
  2 10  1  0  0  0  0
  3  4  1  0  0  0  0
  4  5  2  0  0  0  0
  4  9  1  0  0  0  0
  5  6  1  0  0  0  0
  6  7  2  0  0  0  0
  7  8  1  0  0  0  0
  8  9  2  0  0  0  0
 10 11  1  0  0  0  0
 11 12  2  0  0  0  0
 11 13  1  0  0  0  0
 13 14  1  0  0  0  0
 14 15  2  0  0  0  0
 14 16  2  0  0  0  0
 14 17  1  0  0  0  0
 17 18  2  0  0  0  0
 17 23  1  0  0  0  0
 18 19  1  0  0  0  0
 19 20  2  0  0  0  0
 20 21  1  0  0  0  0
 20 22  1  0  0  0  0
 22 23  2  0  0  0  0
M  END
> <ID>
11422

> <Formula>
C17H20N2O3S

> <FW>
332.4173

> <DSSTox_CID>
26118

> <DSSTox_RID>
81354

> <DSSTox_GSID>
46118

> <DSSTox_FileID_Sort>
6035

> <TS_ChemName>
Tosifen

> <TS_ChemName_Synonyms>


> <TS_CASRN>
32295-18-4

> <CASRN_ChemName_Relationship>
primary

> <TS_Description>
single chemical compound

> <ChemNote>
stereochem

> <STRUCTURE_Shown>
tested chemical

> <STRUCTURE_Formula>
C17H20N2O3S

> <STRUCTURE_MW>
332.4173

> <STRUCTURE_ChemType>
defined organic

> <STRUCTURE_DefinedOrganicForm>
parent

> <STRUCTURE_IUPAC>
4-methyl-N-{[(2S)-1-phenylpropan-2-yl]carbamoyl}benzenesulfonamide

> <STRUCTURE_SMILES>
Cc1ccc(cc1)S(=O)(=O)NC(=O)N[C@@H](C)Cc2ccccc2

> <STRUCTURE_SMILES_Desalt>
Cc1ccc(cc1)S(=O)(=O)NC(=O)N[C@@H](C)Cc2ccccc2

> <Substance_modify_yyyymmdd>
20110818

$$$$
