3234-28-4
ChemmineR-0915142007XD

 15 15  0  0  0  0  0  0  0  0  1 V2000
   11.9965    0.0000    0.0000 O   0  0  0  0  0  0  0  0  0  0  0  0
   13.3295    0.0000    0.0000 C   0  0  0  0  0  0  0  0  0  0  0  0
   12.6630   -1.1463    0.0000 C   0  0  0  0  0  0  0  0  0  0  0  0
   12.6630   -2.4793    0.0000 C   0  0  0  0  0  0  0  0  0  0  0  0
   11.5166   -3.1458    0.0000 C   0  0  0  0  0  0  0  0  0  0  0  0
   10.3570   -2.4793    0.0000 C   0  0  0  0  0  0  0  0  0  0  0  0
    9.2107   -3.1458    0.0000 C   0  0  0  0  0  0  0  0  0  0  0  0
    8.0643   -2.4793    0.0000 C   0  0  0  0  0  0  0  0  0  0  0  0
    6.9047   -3.1458    0.0000 C   0  0  0  0  0  0  0  0  0  0  0  0
    5.7583   -2.4793    0.0000 C   0  0  0  0  0  0  0  0  0  0  0  0
    4.6120   -3.1458    0.0000 C   0  0  0  0  0  0  0  0  0  0  0  0
    3.4523   -2.4793    0.0000 C   0  0  0  0  0  0  0  0  0  0  0  0
    2.3060   -3.1458    0.0000 C   0  0  0  0  0  0  0  0  0  0  0  0
    1.1463   -2.4793    0.0000 C   0  0  0  0  0  0  0  0  0  0  0  0
    0.0000   -3.1458    0.0000 C   0  0  0  0  0  0  0  0  0  0  0  0
  1  2  1  0  0  0  0
  1  3  1  0  0  0  0
  2  3  1  0  0  0  0
  3  4  1  0  0  0  0
  4  5  1  0  0  0  0
  5  6  1  0  0  0  0
  6  7  1  0  0  0  0
  7  8  1  0  0  0  0
  8  9  1  0  0  0  0
  9 10  1  0  0  0  0
 10 11  1  0  0  0  0
 11 12  1  0  0  0  0
 12 13  1  0  0  0  0
 13 14  1  0  0  0  0
 14 15  1  0  0  0  0
M  END
> <ID>
4104

> <Formula>
C14H28O

> <FW>
212.3715

> <DSSTox_CID>
5249

> <DSSTox_RID>
77716

> <DSSTox_GSID>
25249

> <DSSTox_FileID_Sort>
2399

> <TS_ChemName>
1,2-Epoxytetradecane

> <TS_ChemName_Synonyms>


> <TS_CASRN>
3234-28-4

> <CASRN_ChemName_Relationship>
primary

> <TS_Description>
single chemical compound

> <ChemNote>


> <STRUCTURE_Shown>
tested chemical

> <STRUCTURE_Formula>
C14H28O

> <STRUCTURE_MW>
212.3715

> <STRUCTURE_ChemType>
defined organic

> <STRUCTURE_DefinedOrganicForm>
parent

> <STRUCTURE_IUPAC>
2-dodecyloxirane

> <STRUCTURE_SMILES>
CCCCCCCCCCCCC1CO1

> <STRUCTURE_SMILES_Desalt>
CCCCCCCCCCCCC1CO1

> <Substance_modify_yyyymmdd>
20080429

$$$$
