32353-64-3
ChemmineR-0915142007XD

 12 11  0  0  0  0  0  0  0  0  2 V2000
    3.4667   -7.9695    0.0000 C   0  0  0  0  0  0  0  0  0  0  0  0
    1.1396    0.0000    0.0000 C   0  0  0  0  0  0  0  0  0  0  0  0
    2.2952   -7.3080    0.0000 C   0  0  0  0  0  0  0  0  0  0  0  0
    2.2952   -5.9771    0.0000 C   0  0  0  0  0  0  0  0  0  0  0  0
    0.0000   -1.9924    0.0000 C   0  0  0  0  0  0  0  0  0  0  0  0
    2.2952   -1.9924    0.0000 C   0  0  0  0  0  0  0  0  0  0  0  0
    1.1396   -5.3157    0.0000 C   0  0  0  0  0  0  0  0  0  0  0  0
    0.0000   -3.3233    0.0000 C   0  0  0  0  0  0  0  0  0  0  0  0
    2.2952   -3.3233    0.0000 C   0  0  0  0  0  0  0  0  0  0  0  0
    1.1396   -1.3150    0.0000 C   0  0  0  0  0  0  0  0  0  0  0  0
    1.1556   -3.9847    0.0000 N   0  3  0  0  0  0  0  0  0  0  0  0
    0.6774   -7.9057    0.0000 I   0  5  0  0  0  0  0  0  0  0  0  0
  1  3  1  0  0  0  0
  2 10  1  0  0  0  0
  3  4  1  0  0  0  0
  4  7  1  0  0  0  0
  5  8  1  0  0  0  0
  5 10  2  0  0  0  0
  6  9  2  0  0  0  0
  6 10  1  0  0  0  0
  7 11  1  0  0  0  0
  8 11  2  0  0  0  0
  9 11  1  0  0  0  0
M  END
> <ID>
14130

> <Formula>
C10H16IN

> <FW>
277.1452 (150.2402+126.9050)

> <DSSTox_CID>
29123

> <DSSTox_RID>
83342

> <DSSTox_GSID>
49267

> <DSSTox_FileID_Sort>
8017

> <TS_ChemName>
1-Butyl-4-methylpyridinium iodide

> <TS_ChemName_Synonyms>


> <TS_CASRN>
32353-64-3

> <CASRN_ChemName_Relationship>
primary

> <TS_Description>
single chemical compound

> <ChemNote>
stereochem

> <STRUCTURE_Shown>
tested chemical

> <STRUCTURE_Formula>
C10H16IN

> <STRUCTURE_MW>
277.1452

> <STRUCTURE_ChemType>
defined organic

> <STRUCTURE_DefinedOrganicForm>
salt

> <STRUCTURE_IUPAC>
1-butyl-4-methylpyridinium iodide

> <STRUCTURE_SMILES>
[I-].Cc1cc[n+](CCCC)cc1

> <STRUCTURE_SMILES_Desalt>
Cc1cc[n+](CCCC)cc1

> <Substance_modify_yyyymmdd>
20111204

$$$$
