32360-05-7
ChemmineR-0915142007XD

 24 23  0  0  0  0  0  0  0  0  1 V2000
   21.9789   -1.3357    0.0000 C   0  0  0  0  0  0  0  0  0  0  0  0
   23.1203   -1.9915    0.0000 C   0  0  0  0  0  0  0  0  0  0  0  0
   24.2860   -1.3357    0.0000 C   0  0  0  0  0  0  0  0  0  0  0  0
   21.9789    0.0000    0.0000 O   0  0  0  0  0  0  0  0  0  0  0  0
   20.8131   -1.9915    0.0000 O   0  0  0  0  0  0  0  0  0  0  0  0
   23.1203   -3.3272    0.0000 C   0  0  0  0  0  0  0  0  0  0  0  0
   19.6474   -1.3357    0.0000 C   0  0  0  0  0  0  0  0  0  0  0  0
   18.5060   -1.9915    0.0000 C   0  0  0  0  0  0  0  0  0  0  0  0
   17.3402   -1.3357    0.0000 C   0  0  0  0  0  0  0  0  0  0  0  0
   16.1988   -1.9915    0.0000 C   0  0  0  0  0  0  0  0  0  0  0  0
   15.0331   -1.3357    0.0000 C   0  0  0  0  0  0  0  0  0  0  0  0
   13.8916   -1.9915    0.0000 C   0  0  0  0  0  0  0  0  0  0  0  0
   12.7259   -1.3357    0.0000 C   0  0  0  0  0  0  0  0  0  0  0  0
   11.5602   -1.9915    0.0000 C   0  0  0  0  0  0  0  0  0  0  0  0
   10.3944   -1.3357    0.0000 C   0  0  0  0  0  0  0  0  0  0  0  0
    9.2530   -1.9915    0.0000 C   0  0  0  0  0  0  0  0  0  0  0  0
    8.0873   -1.3357    0.0000 C   0  0  0  0  0  0  0  0  0  0  0  0
    6.9458   -1.9915    0.0000 C   0  0  0  0  0  0  0  0  0  0  0  0
    5.7801   -1.3357    0.0000 C   0  0  0  0  0  0  0  0  0  0  0  0
    4.6386   -1.9915    0.0000 C   0  0  0  0  0  0  0  0  0  0  0  0
    3.4729   -1.3357    0.0000 C   0  0  0  0  0  0  0  0  0  0  0  0
    2.3072   -1.9915    0.0000 C   0  0  0  0  0  0  0  0  0  0  0  0
    1.1657   -1.3357    0.0000 C   0  0  0  0  0  0  0  0  0  0  0  0
    0.0000   -1.9915    0.0000 C   0  0  0  0  0  0  0  0  0  0  0  0
  1  2  1  0  0  0  0
  1  5  1  0  0  0  0
  1  4  2  0  0  0  0
  2  3  2  0  0  0  0
  2  6  1  0  0  0  0
  5  7  1  0  0  0  0
  7  8  1  0  0  0  0
  8  9  1  0  0  0  0
  9 10  1  0  0  0  0
 10 11  1  0  0  0  0
 11 12  1  0  0  0  0
 12 13  1  0  0  0  0
 13 14  1  0  0  0  0
 14 15  1  0  0  0  0
 15 16  1  0  0  0  0
 16 17  1  0  0  0  0
 17 18  1  0  0  0  0
 18 19  1  0  0  0  0
 19 20  1  0  0  0  0
 20 21  1  0  0  0  0
 21 22  1  0  0  0  0
 22 23  1  0  0  0  0
 23 24  1  0  0  0  0
M  END
> <ID>
5551

> <Formula>
C22H42O2

> <FW>
338.5677

> <DSSTox_CID>
7975

> <DSSTox_RID>
78628

> <DSSTox_GSID>
27975

> <DSSTox_FileID_Sort>
3310

> <TS_ChemName>
2-Propenoic acid, 2-methyl-, octadecyl ester

> <TS_ChemName_Synonyms>


> <TS_CASRN>
32360-05-7

> <CASRN_ChemName_Relationship>
primary

> <TS_Description>
single chemical compound

> <ChemNote>


> <STRUCTURE_Shown>
tested chemical

> <STRUCTURE_Formula>
C22H42O2

> <STRUCTURE_MW>
338.5677

> <STRUCTURE_ChemType>
defined organic

> <STRUCTURE_DefinedOrganicForm>
parent

> <STRUCTURE_IUPAC>
octadecyl 2-methylprop-2-enoate

> <STRUCTURE_SMILES>
C=C(C)C(=O)OCCCCCCCCCCCCCCCCCC

> <STRUCTURE_SMILES_Desalt>
C=C(C)C(=O)OCCCCCCCCCCCCCCCCCC

> <Substance_modify_yyyymmdd>
20080429

$$$$
