3236-71-3
ChemmineR-0915142007XD

 27 31  0  0  0  0  0  0  0  0  1 V2000
    6.5532   -1.0685    0.0000 C   0  0  0  0  0  0  0  0  0  0  0  0
    7.3228    0.0000    0.0000 O   0  0  0  0  0  0  0  0  0  0  0  0
    7.0987   -2.2716    0.0000 C   0  0  0  0  0  0  0  0  0  0  0  0
    5.2381   -0.9415    0.0000 C   0  0  0  0  0  0  0  0  0  0  0  0
    4.4759   -2.0100    0.0000 C   0  0  0  0  0  0  0  0  0  0  0  0
    6.3290   -3.3401    0.0000 C   0  0  0  0  0  0  0  0  0  0  0  0
    5.0214   -3.2131    0.0000 C   0  0  0  0  0  0  0  0  0  0  0  0
    0.9863   -1.5169    0.0000 C   0  0  0  0  0  0  0  0  0  0  0  0
    0.0000   -0.6277    0.0000 O   0  0  0  0  0  0  0  0  0  0  0  0
    2.2417   -1.1059    0.0000 C   0  0  0  0  0  0  0  0  0  0  0  0
    0.7099   -2.8096    0.0000 C   0  0  0  0  0  0  0  0  0  0  0  0
    1.6887   -3.6988    0.0000 C   0  0  0  0  0  0  0  0  0  0  0  0
    3.2280   -1.9951    0.0000 C   0  0  0  0  0  0  0  0  0  0  0  0
    2.9516   -3.2878    0.0000 C   0  0  0  0  0  0  0  0  0  0  0  0
    4.8943   -6.3290    0.0000 C   0  0  0  0  0  0  0  0  0  0  0  0
    3.5792   -6.3290    0.0000 C   0  0  0  0  0  0  0  0  0  0  0  0
    3.1682   -5.0737    0.0000 C   0  0  0  0  0  0  0  0  0  0  0  0
    5.3053   -5.0737    0.0000 C   0  0  0  0  0  0  0  0  0  0  0  0
    4.2368   -4.3040    0.0000 C   0  0  0  0  0  0  0  0  0  0  0  0
    2.6975   -7.3079    0.0000 C   0  0  0  0  0  0  0  0  0  0  0  0
    5.7761   -7.3079    0.0000 C   0  0  0  0  0  0  0  0  0  0  0  0
    1.8830   -4.8047    0.0000 C   0  0  0  0  0  0  0  0  0  0  0  0
    6.5906   -4.8047    0.0000 C   0  0  0  0  0  0  0  0  0  0  0  0
    7.0688   -7.0314    0.0000 C   0  0  0  0  0  0  0  0  0  0  0  0
    1.4048   -7.0314    0.0000 C   0  0  0  0  0  0  0  0  0  0  0  0
    7.4723   -5.7835    0.0000 C   0  0  0  0  0  0  0  0  0  0  0  0
    1.0013   -5.7835    0.0000 C   0  0  0  0  0  0  0  0  0  0  0  0
  1  2  1  0  0  0  0
  1  3  2  0  0  0  0
  1  4  1  0  0  0  0
  3  6  1  0  0  0  0
  4  5  2  0  0  0  0
  5  7  1  0  0  0  0
  6  7  2  0  0  0  0
  7 19  1  0  0  0  0
  8  9  1  0  0  0  0
  8 10  2  0  0  0  0
  8 11  1  0  0  0  0
 10 13  1  0  0  0  0
 11 12  2  0  0  0  0
 12 14  1  0  0  0  0
 13 14  2  0  0  0  0
 14 19  1  0  0  0  0
 15 16  1  0  0  0  0
 15 18  2  0  0  0  0
 15 21  1  0  0  0  0
 16 17  2  0  0  0  0
 16 20  1  0  0  0  0
 17 19  1  0  0  0  0
 17 22  1  0  0  0  0
 18 19  1  0  0  0  0
 18 23  1  0  0  0  0
 20 25  2  0  0  0  0
 21 24  2  0  0  0  0
 22 27  2  0  0  0  0
 23 26  2  0  0  0  0
 24 26  1  0  0  0  0
 25 27  1  0  0  0  0
M  END
> <ID>
7418

> <Formula>
C25H18O2

> <FW>
350.4092

> <DSSTox_CID>
17731

> <DSSTox_RID>
79367

> <DSSTox_GSID>
37731

> <DSSTox_FileID_Sort>
4049

> <TS_ChemName>
4,4'-(9H-Fluorene-9,9-diyl)diphenol

> <TS_ChemName_Synonyms>
4,4’-(9H-fluorene-9,9-diyl)diphenol (phenol,4,4'-(9H-fluoren-9-ylidene)bis-)

> <TS_CASRN>
3236-71-3

> <CASRN_ChemName_Relationship>
primary

> <TS_Description>
single chemical compound

> <ChemNote>


> <STRUCTURE_Shown>
tested chemical

> <STRUCTURE_Formula>
C25H18O2

> <STRUCTURE_MW>
350.4092

> <STRUCTURE_ChemType>
defined organic

> <STRUCTURE_DefinedOrganicForm>
parent

> <STRUCTURE_IUPAC>
4,4'-(9H-fluorene-9,9-diyl)diphenol

> <STRUCTURE_SMILES>
Oc1ccc(cc1)C4(c2ccccc2c3ccccc34)c5ccc(O)cc5

> <STRUCTURE_SMILES_Desalt>
Oc1ccc(cc1)C4(c2ccccc2c3ccccc34)c5ccc(O)cc5

> <Substance_modify_yyyymmdd>
20080429

$$$$
