32388-55-9
ChemmineR-0915142007XD

 19 21  0  0  1  0  0  0  0  0  1 V2000
    1.2898   -4.8478    0.0000 C   0  0  0  0  0  0  0  0  0  0  0  0
    0.0000   -4.6572    0.0000 C   0  0  0  0  0  0  0  0  0  0  0  0
    1.7599   -6.0613    0.0000 O   0  0  0  0  0  0  0  0  0  0  0  0
    4.3586   -2.0268    0.0000 C   0  0  0  0  0  0  0  0  0  0  0  0
    4.3586   -3.3229    0.0000 C   0  0  0  0  0  0  0  0  0  0  0  0
    6.3536   -2.6812    0.0000 C   0  0  0  0  0  0  0  0  0  0  0  0
    5.5912   -3.7232    0.0000 C   0  0  0  0  0  0  0  0  0  0  0  0
    5.5912   -1.6392    0.0000 C   0  0  0  0  0  0  0  0  0  0  0  0
    3.3483   -4.1298    0.0000 C   0  0  0  0  0  0  0  0  0  0  0  0
    3.3483   -1.2199    0.0000 C   0  0  0  0  0  0  0  0  0  0  0  0
    2.0840   -1.5122    0.0000 C   0  0  0  0  0  0  0  0  0  0  0  0
    2.0840   -3.8312    0.0000 C   0  0  0  0  0  0  0  0  0  0  0  0
    1.5249   -2.6812    0.0000 C   0  0  0  0  0  0  0  0  0  0  0  0
    2.7066   -3.0688    0.0000 C   0  0  0  0  0  0  0  0  0  0  0  0
    5.9978   -4.9558    0.0000 C   0  0  0  0  0  0  0  0  0  0  0  0
    0.2351   -2.6812    0.0000 C   0  0  0  0  0  0  0  0  0  0  0  0
    2.4970   -0.2541    0.0000 C   0  0  0  0  0  0  0  0  0  0  0  0
    3.7740    0.0000    0.0000 C   0  0  0  0  0  0  0  0  0  0  0  0
    4.9558   -0.8768    0.0000 H   0  0  0  0  0  0  0  0  0  0  0  0
  1  2  1  0  0  0  0
  1  3  2  0  0  0  0
  1 12  1  0  0  0  0
  4  5  1  0  0  0  0
  4  8  1  0  0  0  0
  4 10  1  0  0  0  0
  4 19  1  1  0  0  0
  5  7  1  0  0  0  0
  5  9  1  0  0  0  0
  5 14  1  6  0  0  0
  6  7  1  0  0  0  0
  6  8  1  0  0  0  0
  7 15  1  1  0  0  0
  9 12  1  0  0  0  0
 10 11  1  0  0  0  0
 10 17  1  0  0  0  0
 10 18  1  0  0  0  0
 11 13  1  0  0  0  0
 11 14  1  6  0  0  0
 12 13  2  0  0  0  0
 13 16  1  0  0  0  0
M  END
> <ID>
5976

> <Formula>
C17H26O

> <FW>
246.3877

> <DSSTox_CID>
9353

> <DSSTox_RID>
78769

> <DSSTox_GSID>
29353

> <DSSTox_FileID_Sort>
3451

> <TS_ChemName>
1-Cedr-8-en-9-ylethanone

> <TS_ChemName_Synonyms>
Ethanone, 1-[(3R,3aR,7R,8aS)-2,3,4,7,8,8a-hexahydro-3,6,8,8-tetramethyl-1H-3a,7-methanoazulen-5-yl]-; Acetyl-alpha-cedrene; 9-Acetyl-8-cedrene; Acetyl Cedrene; Methyl cedryl ketone

> <TS_CASRN>
32388-55-9

> <CASRN_ChemName_Relationship>
primary

> <TS_Description>
single chemical compound

> <ChemNote>
stereochem

> <STRUCTURE_Shown>
tested chemical

> <STRUCTURE_Formula>
C17H26O

> <STRUCTURE_MW>
246.3877

> <STRUCTURE_ChemType>
defined organic

> <STRUCTURE_DefinedOrganicForm>
parent

> <STRUCTURE_IUPAC>
1-(cedr-8-en-9-yl)ethanone

> <STRUCTURE_SMILES>
CC(=O)C=1C[C@]23C[C@@H](C=1C)C(C)(C)[C@@H]3CC[C@H]2C

> <STRUCTURE_SMILES_Desalt>
CC(=O)C=1C[C@]23C[C@@H](C=1C)C(C)(C)[C@@H]3CC[C@H]2C

> <Substance_modify_yyyymmdd>
20080429

$$$$
