3239-45-0
ChemmineR-0915142007XD

 17 16  0  0  1  0  0  0  0  0  1 V2000
    1.3580   -4.0086    0.0000 C    0  0  0  0  0  0  0  0  0  0  0  0
    1.3580   -2.6327    0.0000 C    0  0  0  0  0  0  0  0  0  0  0  0
    2.5076   -1.9775    0.0000 C    0  0  0  0  0  0  0  0  0  0  0  0
    2.5076   -0.6552    0.0000 C    0  0  0  0  0  0  0  0  0  0  0  0
    1.3283   -5.3488    0.0000 F    0  0  0  0  0  0  0  0  0  0  0  0
    0.0000   -4.0086    0.0000 F    0  0  0  0  0  0  0  0  0  0  0  0
    2.7161   -4.0086    0.0000 F    0  0  0  0  0  0  0  0  0  0  0  0
    3.6572    0.0000    0.0000 C    0  0  0  0  0  0  0  0  0  0  0  0
    4.8068   -1.9775    0.0000 N    0  0  0  0  0  0  0  0  0  0  0  0
    0.2085   -1.9775    0.0000 C    0  0  0  0  0  0  0  0  0  0  0  0
    4.7889   -0.6671    0.0000 C    0  0  0  0  0  0  0  0  0  0  0  0
    0.2263   -0.6552    0.0000 C    0  0  0  0  0  0  0  0  0  0  0  0
    1.3759    0.0000    0.0000 C    0  0  0  0  0  0  0  0  0  0  0  0
    5.9563   -2.6327    0.0000 C    0  0  0  0  0  0  0  0  0  0  0  0
    5.9563    0.0000    0.0000 C    0  0  0  0  0  0  0  0  0  0  0  0
    5.9563   -3.9431    0.0000 C    0  0  0  0  0  0  0  0  0  0  0  0
    4.5506   -5.3190    0.0000 Cl   0  0  0  0  0  0  0  0  0  0  0  0
  1  2  1  0  0  0  0
  1  5  1  0  0  0  0
  1  6  1  0  0  0  0
  1  7  1  0  0  0  0
  2  3  2  0  0  0  0
  2 10  1  0  0  0  0
  3  4  1  0  0  0  0
  4  8  1  0  0  0  0
  4 13  2  0  0  0  0
  8 11  1  0  0  0  0
  9 11  1  0  0  0  0
  9 14  1  0  0  0  0
 10 12  2  0  0  0  0
 11 15  1  6  0  0  0
 12 13  1  0  0  0  0
 14 16  1  0  0  0  0
M  END
> <ID>
13860

> <Formula>
C12H17ClF3N

> <FW>
267.7183 (231.2573+36.4609)

> <DSSTox_CID>
28797

> <DSSTox_RID>
83066

> <DSSTox_GSID>
48871

> <DSSTox_FileID_Sort>
7743

> <TS_ChemName>
Dexfenfluramine hydrochloride

> <TS_ChemName_Synonyms>
(+)-Fenfluramine hydrochloride

> <TS_CASRN>
3239-45-0

> <CASRN_ChemName_Relationship>
primary

> <TS_Description>
single chemical compound

> <ChemNote>


> <STRUCTURE_Shown>
tested chemical

> <STRUCTURE_Formula>
C12H17ClF3N

> <STRUCTURE_MW>
267.7183

> <STRUCTURE_ChemType>
defined organic

> <STRUCTURE_DefinedOrganicForm>
complex

> <STRUCTURE_IUPAC>
(2S)-N-ethyl-1-[3-(trifluoromethyl)phenyl]propan-2-amine hydrochloride (1:1)

> <STRUCTURE_SMILES>
Cl.FC(F)(F)c1cccc(C[C@H](C)NCC)c1

> <STRUCTURE_SMILES_Desalt>
FC(F)(F)c1cccc(C[C@H](C)NCC)c1

> <Substance_modify_yyyymmdd>
20111204

$$$$
