32435-46-4
ChemmineR-0915142007XD

 21 20  0  0  0  0  0  0  0  0  1 V2000
    7.6579   -0.9439    0.0000 P   0  0  0  0  0  0  0  0  0  0  0  0
    8.5866   -1.9031    0.0000 O   0  0  0  0  0  0  0  0  0  0  0  0
    8.6018   -0.0152    0.0000 O   0  0  0  0  0  0  0  0  0  0  0  0
    6.7292    0.0000    0.0000 O   0  0  0  0  0  0  0  0  0  0  0  0
    6.6988   -1.8726    0.0000 O   0  0  0  0  0  0  0  0  0  0  0  0
    9.8655   -1.5681    0.0000 C   0  0  0  0  0  0  0  0  0  0  0  0
   10.7942   -2.5273    0.0000 C   0  0  0  0  0  0  0  0  0  0  0  0
   12.0883   -2.1923    0.0000 O   0  0  0  0  0  0  0  0  0  0  0  0
   13.0170   -3.1515    0.0000 C   0  0  0  0  0  0  0  0  0  0  0  0
   14.2958   -2.8165    0.0000 C   0  0  0  0  0  0  0  0  0  0  0  0
   12.6516   -4.4303    0.0000 O   0  0  0  0  0  0  0  0  0  0  0  0
   15.2245   -3.7757    0.0000 C   0  0  0  0  0  0  0  0  0  0  0  0
   14.6460   -1.5377    0.0000 C   0  0  0  0  0  0  0  0  0  0  0  0
    5.4199   -1.5225    0.0000 C   0  0  0  0  0  0  0  0  0  0  0  0
    4.4608   -2.4511    0.0000 C   0  0  0  0  0  0  0  0  0  0  0  0
    3.1819   -2.0705    0.0000 O   0  0  0  0  0  0  0  0  0  0  0  0
    2.2380   -2.9992    0.0000 C   0  0  0  0  0  0  0  0  0  0  0  0
    0.9591   -2.6338    0.0000 C   0  0  0  0  0  0  0  0  0  0  0  0
    2.5577   -4.2933    0.0000 O   0  0  0  0  0  0  0  0  0  0  0  0
    0.0000   -3.5625    0.0000 C   0  0  0  0  0  0  0  0  0  0  0  0
    0.6242   -1.3550    0.0000 C   0  0  0  0  0  0  0  0  0  0  0  0
  1  2  1  0  0  0  0
  1  3  1  0  0  0  0
  1  4  2  0  0  0  0
  1  5  1  0  0  0  0
  2  6  1  0  0  0  0
  5 14  1  0  0  0  0
  6  7  1  0  0  0  0
  7  8  1  0  0  0  0
  8  9  1  0  0  0  0
  9 10  1  0  0  0  0
  9 11  2  0  0  0  0
 10 12  2  0  0  0  0
 10 13  1  0  0  0  0
 14 15  1  0  0  0  0
 15 16  1  0  0  0  0
 16 17  1  0  0  0  0
 17 18  1  0  0  0  0
 17 19  2  0  0  0  0
 18 20  2  0  0  0  0
 18 21  1  0  0  0  0
M  END
> <ID>
10563

> <Formula>
C12H19O8P

> <FW>
322.2482

> <DSSTox_CID>
24916

> <DSSTox_RID>
80584

> <DSSTox_GSID>
44916

> <DSSTox_FileID_Sort>
5266

> <TS_ChemName>
Bis(methacryloyloxyethyl) hydrogen phosphate

> <TS_ChemName_Synonyms>
Bis(methacryloyloxyethyl) hydrogen phosphate (2-Propenoic acid, 2-methyl-, phosphinicobis(oxy-2,1-ethanediyl) ester)

> <TS_CASRN>
32435-46-4

> <CASRN_ChemName_Relationship>
primary

> <TS_Description>
single chemical compound

> <ChemNote>


> <STRUCTURE_Shown>
tested chemical

> <STRUCTURE_Formula>
C12H19O8P

> <STRUCTURE_MW>
322.2482

> <STRUCTURE_ChemType>
defined organic

> <STRUCTURE_DefinedOrganicForm>
parent

> <STRUCTURE_IUPAC>
(hydroxyphosphoryl)bis(oxyethane-2,1-diyl) bis(2-methylprop-2-enoate)

> <STRUCTURE_SMILES>
O=C(OCCOP(O)(=O)OCCOC(=O)C(=C)C)C(=C)C

> <STRUCTURE_SMILES_Desalt>
O=C(OCCOP(O)(=O)OCCOC(=O)C(=C)C)C(=C)C

> <Substance_modify_yyyymmdd>
20091116

$$$$
