32449-92-6
ChemmineR-0915142007XD

 12 13  0  0  1  0  0  0  0  0  1 V2000
    2.9137   -0.9245    0.0000 C   0  0  0  0  0  0  0  0  0  0  0  0
    4.0103   -0.1466    0.0000 O   0  0  0  0  0  0  0  0  0  0  0  0
    3.3344   -2.1996    0.0000 C   0  0  0  0  0  0  0  0  0  0  0  0
    5.0941   -0.9245    0.0000 C   0  0  0  0  0  0  0  0  0  0  0  0
    4.6733   -2.1996    0.0000 C   0  0  0  0  0  0  0  0  0  0  0  0
    6.3756   -0.5164    0.0000 O   0  0  0  0  0  0  0  0  0  0  0  0
    5.4512   -3.3026    0.0000 O   0  0  0  0  0  0  0  0  0  0  0  0
    2.2315   -3.0284    0.0000 O   0  0  0  0  0  0  0  0  0  0  0  0
    1.4409   -0.9245    0.0000 C   0  0  0  0  0  0  0  0  0  0  0  0
    1.0010   -2.1996    0.0000 C   0  0  0  0  0  0  0  0  0  0  0  0
    0.6822    0.0000    0.0000 O   0  0  0  0  0  0  0  0  0  0  0  0
    0.0000   -2.3462    0.0000 O   0  0  0  0  0  0  0  0  0  0  0  0
  1  2  1  0  0  0  0
  1  3  1  0  0  0  0
  1  9  1  1  0  0  0
  2  4  1  0  0  0  0
  3  5  1  0  0  0  0
  3  8  1  1  0  0  0
  4  5  1  0  0  0  0
  4  6  1  1  0  0  0
  5  7  1  6  0  0  0
  8 10  1  0  0  0  0
  9 10  1  0  0  0  0
  9 11  1  6  0  0  0
 10 12  2  0  0  0  0
M  END
> <ID>
8793

> <Formula>
C6H8O6

> <FW>
176.1241

> <DSSTox_CID>
21844

> <DSSTox_RID>
79855

> <DSSTox_GSID>
41844

> <DSSTox_FileID_Sort>
4537

> <TS_ChemName>
D-Glucuronolactone

> <TS_ChemName_Synonyms>


> <TS_CASRN>
32449-92-6

> <CASRN_ChemName_Relationship>
primary

> <TS_Description>
single chemical compound

> <ChemNote>
stereochem

> <STRUCTURE_Shown>
tested chemical

> <STRUCTURE_Formula>
C6H8O6

> <STRUCTURE_MW>
176.1241

> <STRUCTURE_ChemType>
defined organic

> <STRUCTURE_DefinedOrganicForm>
parent

> <STRUCTURE_IUPAC>
(3aR,5R,6R,6aR)-3,5,6-trihydroxytetrahydrofuro[3,2-b]furan-2(3H)-one

> <STRUCTURE_SMILES>
O[C@@H]2O[C@@H]1[C@@H](O)C(=O)O[C@@H]1[C@H]2O

> <STRUCTURE_SMILES_Desalt>
O[C@@H]2O[C@@H]1[C@@H](O)C(=O)O[C@@H]1[C@H]2O

> <Substance_modify_yyyymmdd>
20080825

$$$$
