32462-30-9
ChemmineR-0915142007XD

 12 12  0  0  1  0  0  0  0  0  1 V2000
    5.3180   -2.3083    0.0000 C   0  0  0  0  0  0  0  0  0  0  0  0
    3.9885   -2.3083    0.0000 C   0  0  0  0  0  0  0  0  0  0  0  0
    5.9754   -1.1542    0.0000 C   0  0  0  0  0  0  0  0  0  0  0  0
    5.9754   -3.4625    0.0000 N   0  0  0  0  0  0  0  0  0  0  0  0
    3.3164   -1.1542    0.0000 C   0  0  0  0  0  0  0  0  0  0  0  0
    3.3164   -3.4625    0.0000 C   0  0  0  0  0  0  0  0  0  0  0  0
    5.3180    0.0000    0.0000 O   0  0  0  0  0  0  0  0  0  0  0  0
    7.3049   -1.1542    0.0000 O   0  0  0  0  0  0  0  0  0  0  0  0
    1.9869   -1.1542    0.0000 C   0  0  0  0  0  0  0  0  0  0  0  0
    1.9869   -3.4625    0.0000 C   0  0  0  0  0  0  0  0  0  0  0  0
    1.3295   -2.3083    0.0000 C   0  0  0  0  0  0  0  0  0  0  0  0
    0.0000   -2.3083    0.0000 O   0  0  0  0  0  0  0  0  0  0  0  0
  1  2  1  0  0  0  0
  1  3  1  0  0  0  0
  1  4  1  1  0  0  0
  2  5  2  0  0  0  0
  2  6  1  0  0  0  0
  3  7  1  0  0  0  0
  3  8  2  0  0  0  0
  5  9  1  0  0  0  0
  6 10  2  0  0  0  0
  9 11  2  0  0  0  0
 10 11  1  0  0  0  0
 11 12  1  0  0  0  0
M  END
> <ID>
11650

> <Formula>
C8H9NO3

> <FW>
167.162

> <DSSTox_CID>
26403

> <DSSTox_RID>
81583

> <DSSTox_GSID>
46403

> <DSSTox_FileID_Sort>
6264

> <TS_ChemName>
Oxfenicine

> <TS_ChemName_Synonyms>


> <TS_CASRN>
32462-30-9

> <CASRN_ChemName_Relationship>
primary

> <TS_Description>
single chemical compound

> <ChemNote>
stereochem

> <STRUCTURE_Shown>
tested chemical

> <STRUCTURE_Formula>
C8H9NO3

> <STRUCTURE_MW>
167.162

> <STRUCTURE_ChemType>
defined organic

> <STRUCTURE_DefinedOrganicForm>
parent

> <STRUCTURE_IUPAC>
(2S)-amino(4-hydroxyphenyl)acetic acid

> <STRUCTURE_SMILES>
N[C@@H](c1ccc(O)cc1)C(=O)O

> <STRUCTURE_SMILES_Desalt>
N[C@@H](c1ccc(O)cc1)C(=O)O

> <Substance_modify_yyyymmdd>
20110813

$$$$
