3249-53-4
ChemmineR-0915142007XD

 10  9  0  0  0  0  0  0  0  0  1 V2000
    3.4937   -1.3456    0.0000 C   0  0  0  0  0  0  0  0  0  0  0  0
    4.6447   -1.9860    0.0000 C   0  0  0  0  0  0  0  0  0  0  0  0
    5.7796   -1.3456    0.0000 C   0  0  0  0  0  0  0  0  0  0  0  0
    6.9387   -1.9860    0.0000 C   0  0  0  0  0  0  0  0  0  0  0  0
    3.4937    0.0000    0.0000 O   0  0  0  0  0  0  0  0  0  0  0  0
    2.3264   -1.9860    0.0000 O   0  0  0  0  0  0  0  0  0  0  0  0
    6.9387   -3.3316    0.0000 O   0  0  0  0  0  0  0  0  0  0  0  0
    8.1060   -1.3456    0.0000 O   0  0  0  0  0  0  0  0  0  0  0  0
    1.1673   -1.3456    0.0000 C   0  0  0  0  0  0  0  0  0  0  0  0
    0.0000   -2.0184    0.0000 C   0  0  0  0  0  0  0  0  0  0  0  0
  1  2  1  0  0  0  0
  1  6  1  0  0  0  0
  1  5  2  0  0  0  0
  2  3  2  3  0  0  0
  3  4  1  0  0  0  0
  4  8  1  0  0  0  0
  4  7  2  0  0  0  0
  6  9  1  0  0  0  0
  9 10  1  0  0  0  0
M  END
> <ID>
10140

> <Formula>
C6H8O4

> <FW>
144.1253

> <DSSTox_CID>
24485

> <DSSTox_RID>
80261

> <DSSTox_GSID>
44485

> <DSSTox_FileID_Sort>
4943

> <TS_ChemName>
4-Ethoxy-4-oxobut-2-enoic acid

> <TS_ChemName_Synonyms>


> <TS_CASRN>
3249-53-4

> <CASRN_ChemName_Relationship>
primary

> <TS_Description>
mixture of Z,E isomers

> <ChemNote>
mixture of Z [3990-03-2], E [2459-05-4] isomers

> <STRUCTURE_Shown>
representative isomer in mixture

> <STRUCTURE_Formula>
C6H8O4

> <STRUCTURE_MW>
144.1253

> <STRUCTURE_ChemType>
defined organic

> <STRUCTURE_DefinedOrganicForm>
parent

> <STRUCTURE_IUPAC>
4-ethoxy-4-oxobut-2-enoic acid

> <STRUCTURE_SMILES>
OC(=O)C=CC(=O)OCC

> <STRUCTURE_SMILES_Desalt>
OC(=O)C=CC(=O)OCC

> <Substance_modify_yyyymmdd>
20091116

$$$$
