32536-52-0
ChemmineR-0915142007XD

 21 22  0  0  0  0  0  0  0  0  1 V2000
    6.9198    0.0000    0.0000 Br   0  0  0  0  0  0  0  0  0  0  0  0
    9.2264   -1.3286    0.0000 Br   0  0  0  0  0  0  0  0  0  0  0  0
    9.2264   -3.9858    0.0000 Br   0  0  0  0  0  0  0  0  0  0  0  0
    6.9198   -5.3144    0.0000 Br   0  0  0  0  0  0  0  0  0  0  0  0
    4.6132   -3.9858    0.0000 Br   0  0  0  0  0  0  0  0  0  0  0  0
    2.3066   -5.3144    0.0000 Br   0  0  0  0  0  0  0  0  0  0  0  0
    0.0000   -3.9858    0.0000 Br   0  0  0  0  0  0  0  0  0  0  0  0
    0.0000   -1.3286    0.0000 Br   0  0  0  0  0  0  0  0  0  0  0  0
    4.6132   -1.3286    0.0000 O    0  0  0  0  0  0  0  0  0  0  0  0
    8.0731   -2.0021    0.0000 C    0  0  0  0  0  0  0  0  0  0  0  0
    8.0731   -3.3123    0.0000 C    0  0  0  0  0  0  0  0  0  0  0  0
    6.9198   -1.3286    0.0000 C    0  0  0  0  0  0  0  0  0  0  0  0
    6.9198   -3.9858    0.0000 C    0  0  0  0  0  0  0  0  0  0  0  0
    5.7665   -2.0021    0.0000 C    0  0  0  0  0  0  0  0  0  0  0  0
    5.7665   -3.3123    0.0000 C    0  0  0  0  0  0  0  0  0  0  0  0
    3.4599   -2.0021    0.0000 C    0  0  0  0  0  0  0  0  0  0  0  0
    3.4599   -3.3123    0.0000 C    0  0  0  0  0  0  0  0  0  0  0  0
    2.3066   -1.3286    0.0000 C    0  0  0  0  0  0  0  0  0  0  0  0
    2.3066   -3.9858    0.0000 C    0  0  0  0  0  0  0  0  0  0  0  0
    1.1533   -2.0021    0.0000 C    0  0  0  0  0  0  0  0  0  0  0  0
    1.1533   -3.3123    0.0000 C    0  0  0  0  0  0  0  0  0  0  0  0
  1 12  1  0  0  0  0
  2 10  1  0  0  0  0
  3 11  1  0  0  0  0
  4 13  1  0  0  0  0
  5 17  1  0  0  0  0
  6 19  1  0  0  0  0
  7 21  1  0  0  0  0
  8 20  1  0  0  0  0
  9 14  1  0  0  0  0
  9 16  1  0  0  0  0
 10 11  1  0  0  0  0
 10 12  2  0  0  0  0
 11 13  2  0  0  0  0
 12 14  1  0  0  0  0
 13 15  1  0  0  0  0
 14 15  2  0  0  0  0
 16 17  1  0  0  0  0
 16 18  2  0  0  0  0
 17 19  2  0  0  0  0
 18 20  1  0  0  0  0
 19 21  1  0  0  0  0
 20 21  2  0  0  0  0
M  END
> <ID>
3572

> <Formula>
C12H2Br8O

> <FW>
801.3757

> <DSSTox_CID>
4236

> <DSSTox_RID>
77334

> <DSSTox_GSID>
24236

> <DSSTox_FileID_Sort>
2017

> <TS_ChemName>
Octabromodiphenyl ether

> <TS_ChemName_Synonyms>
Octabromodiphenyl ether (Benzene, 1,1'-oxybis-, octabromo deriv.) (DE-79)

> <TS_CASRN>
32536-52-0

> <CASRN_ChemName_Relationship>
primary

> <TS_Description>
mixture or formulation

> <ChemNote>
12 possible isomers; structure shown 1,1'-oxybis(2,3,4,5-tetrabromobenzene)

> <STRUCTURE_Shown>
representative isomer in mixture

> <STRUCTURE_Formula>
C12H2Br8O

> <STRUCTURE_MW>
801.3757

> <STRUCTURE_ChemType>
defined organic

> <STRUCTURE_DefinedOrganicForm>
parent

> <STRUCTURE_IUPAC>
bis(2,3,4,5-tetrabromophenyl) ether

> <STRUCTURE_SMILES>
Brc1c(cc(Br)c(Br)c1Br)Oc2cc(Br)c(Br)c(Br)c2Br

> <STRUCTURE_SMILES_Desalt>
Brc1c(cc(Br)c(Br)c1Br)Oc2cc(Br)c(Br)c(Br)c2Br

> <Substance_modify_yyyymmdd>
20080429

$$$$
