326-61-4
ChemmineR-0915142007XD

 14 15  0  0  0  0  0  0  0  0  1 V2000
    5.4978   -1.3252    0.0000 C   0  0  0  0  0  0  0  0  0  0  0  0
    6.6528   -1.9878    0.0000 O   0  0  0  0  0  0  0  0  0  0  0  0
    7.7989   -1.3252    0.0000 C   0  0  0  0  0  0  0  0  0  0  0  0
    8.9540   -1.9878    0.0000 C   0  0  0  0  0  0  0  0  0  0  0  0
    7.7989    0.0000    0.0000 O   0  0  0  0  0  0  0  0  0  0  0  0
    4.3516   -1.9878    0.0000 C   0  0  0  0  0  0  0  0  0  0  0  0
    4.3516   -3.3219    0.0000 C   0  0  0  0  0  0  0  0  0  0  0  0
    3.1966   -3.9845    0.0000 C   0  0  0  0  0  0  0  0  0  0  0  0
    2.0505   -3.3219    0.0000 C   0  0  0  0  0  0  0  0  0  0  0  0
    0.7790   -3.7338    0.0000 O   0  0  0  0  0  0  0  0  0  0  0  0
    0.0000   -2.6593    0.0000 C   0  0  0  0  0  0  0  0  0  0  0  0
    0.7790   -1.5759    0.0000 O   0  0  0  0  0  0  0  0  0  0  0  0
    2.0505   -1.9878    0.0000 C   0  0  0  0  0  0  0  0  0  0  0  0
    3.1966   -1.3252    0.0000 C   0  0  0  0  0  0  0  0  0  0  0  0
  1  2  1  0  0  0  0
  1  6  1  0  0  0  0
  2  3  1  0  0  0  0
  3  4  1  0  0  0  0
  3  5  2  0  0  0  0
  6  7  2  0  0  0  0
  6 14  1  0  0  0  0
  7  8  1  0  0  0  0
  8  9  2  0  0  0  0
  9 10  1  0  0  0  0
  9 13  1  0  0  0  0
 10 11  1  0  0  0  0
 11 12  1  0  0  0  0
 12 13  1  0  0  0  0
 13 14  2  0  0  0  0
M  END
> <ID>
4473

> <Formula>
C10H10O4

> <FW>
194.184

> <DSSTox_CID>
5925

> <DSSTox_RID>
77968

> <DSSTox_GSID>
25925

> <DSSTox_FileID_Sort>
2651

> <TS_ChemName>
Piperonyl acetate

> <TS_ChemName_Synonyms>


> <TS_CASRN>
326-61-4

> <CASRN_ChemName_Relationship>
primary

> <TS_Description>
single chemical compound

> <ChemNote>


> <STRUCTURE_Shown>
tested chemical

> <STRUCTURE_Formula>
C10H10O4

> <STRUCTURE_MW>
194.184

> <STRUCTURE_ChemType>
defined organic

> <STRUCTURE_DefinedOrganicForm>
parent

> <STRUCTURE_IUPAC>
1,3-benzodioxol-5-ylmethyl acetate

> <STRUCTURE_SMILES>
CC(=O)OCc1ccc2OCOc2c1

> <STRUCTURE_SMILES_Desalt>
CC(=O)OCc1ccc2OCOc2c1

> <Substance_modify_yyyymmdd>
20080429

$$$$
