326-06-7
ChemmineR-0915142007XD

 15 15  0  0  0  0  0  0  0  0  1 V2000
    0.0000   -3.3105    0.0000 C   0  0  0  0  0  0  0  0  0  0  0  0
    1.1518   -3.9871    0.0000 C   0  0  0  0  0  0  0  0  0  0  0  0
    0.0000   -1.9815    0.0000 C   0  0  0  0  0  0  0  0  0  0  0  0
    2.3037   -3.3266    0.0000 C   0  0  0  0  0  0  0  0  0  0  0  0
    1.1518   -1.3290    0.0000 C   0  0  0  0  0  0  0  0  0  0  0  0
    4.5993   -1.9976    0.0000 C   0  0  0  0  0  0  0  0  0  0  0  0
    2.3037   -1.9976    0.0000 C   0  0  0  0  0  0  0  0  0  0  0  0
    3.4555   -1.3290    0.0000 C   0  0  0  0  0  0  0  0  0  0  0  0
    5.7511   -1.3451    0.0000 C   0  0  0  0  0  0  0  0  0  0  0  0
    6.9029   -1.9976    0.0000 C   0  0  0  0  0  0  0  0  0  0  0  0
    6.2263   -3.1575    0.0000 F   0  0  0  0  0  0  0  0  0  0  0  0
    7.5715   -0.8458    0.0000 F   0  0  0  0  0  0  0  0  0  0  0  0
    8.0548   -2.6742    0.0000 F   0  0  0  0  0  0  0  0  0  0  0  0
    3.4555   -0.0161    0.0000 O   0  0  0  0  0  0  0  0  0  0  0  0
    5.7511    0.0000    0.0000 O   0  0  0  0  0  0  0  0  0  0  0  0
  1  2  2  0  0  0  0
  1  3  1  0  0  0  0
  2  4  1  0  0  0  0
  3  5  2  0  0  0  0
  4  7  2  0  0  0  0
  5  7  1  0  0  0  0
  6  8  1  0  0  0  0
  6  9  1  0  0  0  0
  7  8  1  0  0  0  0
  8 14  2  0  0  0  0
  9 10  1  0  0  0  0
  9 15  2  0  0  0  0
 10 11  1  0  0  0  0
 10 12  1  0  0  0  0
 10 13  1  0  0  0  0
M  END
> <ID>
14131

> <Formula>
C10H7F3O2

> <FW>
216.1566

> <DSSTox_CID>
29124

> <DSSTox_RID>
83343

> <DSSTox_GSID>
49268

> <DSSTox_FileID_Sort>
8018

> <TS_ChemName>
4,4,4-Trifluoro-1-phenyl-1,3-butanedione

> <TS_ChemName_Synonyms>


> <TS_CASRN>
326-06-7

> <CASRN_ChemName_Relationship>
primary

> <TS_Description>
single chemical compound

> <ChemNote>


> <STRUCTURE_Shown>
tested chemical

> <STRUCTURE_Formula>
C10H7F3O2

> <STRUCTURE_MW>
216.1566

> <STRUCTURE_ChemType>
defined organic

> <STRUCTURE_DefinedOrganicForm>
parent

> <STRUCTURE_IUPAC>
4,4,4-trifluoro-1-phenylbutane-1,3-dione

> <STRUCTURE_SMILES>
O=C(CC(=O)C(F)(F)F)c1ccccc1

> <STRUCTURE_SMILES_Desalt>
O=C(CC(=O)C(F)(F)F)c1ccccc1

> <Substance_modify_yyyymmdd>
20111204

$$$$
