3260-85-3
ChemmineR-0915142007XD

 10 10  0  0  0  0  0  0  0  0  1 V2000
    1.1566   -1.9893    0.0000 C    0  0  0  0  0  0  0  0  0  0  0  0
    1.1566   -3.3263    0.0000 C    0  0  0  0  0  0  0  0  0  0  0  0
    2.3131   -3.9832    0.0000 C    0  0  0  0  0  0  0  0  0  0  0  0
    3.4697   -3.3263    0.0000 C    0  0  0  0  0  0  0  0  0  0  0  0
    3.4558   -1.9754    0.0000 C    0  0  0  0  0  0  0  0  0  0  0  0
    2.3131   -1.3324    0.0000 C    0  0  0  0  0  0  0  0  0  0  0  0
    0.0139   -1.3324    0.0000 O    0  0  0  0  0  0  0  0  0  0  0  0
    0.0139    0.0000    0.0000 C    0  0  0  0  0  0  0  0  0  0  0  0
    4.6262   -3.9832    0.0000 Cl   0  0  0  0  0  0  0  0  0  0  0  0
    0.0000   -3.9832    0.0000 C    0  0  0  0  0  0  0  0  0  0  0  0
  1  6  2  0  0  0  0
  1  2  1  0  0  0  0
  1  7  1  0  0  0  0
  2  3  2  0  0  0  0
  2 10  1  0  0  0  0
  3  4  1  0  0  0  0
  4  5  2  0  0  0  0
  4  9  1  0  0  0  0
  5  6  1  0  0  0  0
  7  8  1  0  0  0  0
M  END
> <ID>
8473

> <Formula>
C8H9ClO

> <FW>
156.6095

> <DSSTox_CID>
21507

> <DSSTox_RID>
79755

> <DSSTox_GSID>
41507

> <DSSTox_FileID_Sort>
4437

> <TS_ChemName>
4-Chloro-2-methylanisole

> <TS_ChemName_Synonyms>


> <TS_CASRN>
3260-85-3

> <CASRN_ChemName_Relationship>
primary

> <TS_Description>
single chemical compound

> <ChemNote>


> <STRUCTURE_Shown>
tested chemical

> <STRUCTURE_Formula>
C8H9ClO

> <STRUCTURE_MW>
156.6095

> <STRUCTURE_ChemType>
defined organic

> <STRUCTURE_DefinedOrganicForm>
parent

> <STRUCTURE_IUPAC>
4-chloro-1-methoxy-2-methylbenzene

> <STRUCTURE_SMILES>
COc1ccc(Cl)cc1C

> <STRUCTURE_SMILES_Desalt>
COc1ccc(Cl)cc1C

> <Substance_modify_yyyymmdd>
20080825

$$$$
