32687-77-7
ChemmineR-0915142007XD

 21 21  0  0  0  0  0  0  0  0  1 V2000
    3.4658   -3.9929    0.0000 C   0  0  0  0  0  0  0  0  0  0  0  0
    4.6158   -4.6477    0.0000 C   0  0  0  0  0  0  0  0  0  0  0  0
    4.6158   -5.9813    0.0000 C   0  0  0  0  0  0  0  0  0  0  0  0
    3.4658   -6.6521    0.0000 C   0  0  0  0  0  0  0  0  0  0  0  0
    2.3079   -5.9813    0.0000 C   0  0  0  0  0  0  0  0  0  0  0  0
    2.3079   -4.6477    0.0000 C   0  0  0  0  0  0  0  0  0  0  0  0
    2.3079   -0.6548    0.0000 C   0  0  0  0  0  0  0  0  0  0  0  0
    2.3079   -1.9885    0.0000 C   0  0  0  0  0  0  0  0  0  0  0  0
    3.4658   -2.6593    0.0000 C   0  0  0  0  0  0  0  0  0  0  0  0
    3.4658    0.0000    0.0000 O   0  0  0  0  0  0  0  0  0  0  0  0
    1.1579   -6.6521    0.0000 C   0  0  0  0  0  0  0  0  0  0  0  0
    1.8128   -7.7941    0.0000 C   0  0  0  0  0  0  0  0  0  0  0  0
    0.4791   -5.5022    0.0000 C   0  0  0  0  0  0  0  0  0  0  0  0
    0.0000   -7.3150    0.0000 C   0  0  0  0  0  0  0  0  0  0  0  0
    5.7737   -6.6521    0.0000 C   0  0  0  0  0  0  0  0  0  0  0  0
    6.4285   -5.5022    0.0000 C   0  0  0  0  0  0  0  0  0  0  0  0
    5.1029   -7.7941    0.0000 C   0  0  0  0  0  0  0  0  0  0  0  0
    6.9077   -7.3150    0.0000 C   0  0  0  0  0  0  0  0  0  0  0  0
    3.4658   -7.9858    0.0000 O   0  0  0  0  0  0  0  0  0  0  0  0
    1.1579    0.0000    0.0000 N   0  0  0  0  0  0  0  0  0  0  0  0
    0.0000   -0.6548    0.0000 N   0  0  0  0  0  0  0  0  0  0  0  0
  1  2  2  0  0  0  0
  1  6  1  0  0  0  0
  1  9  1  0  0  0  0
  2  3  1  0  0  0  0
  3  4  2  0  0  0  0
  3 15  1  0  0  0  0
  4  5  1  0  0  0  0
  4 19  1  0  0  0  0
  5  6  2  0  0  0  0
  5 11  1  0  0  0  0
  7  8  1  0  0  0  0
  7 10  2  0  0  0  0
  7 20  1  0  0  0  0
  8  9  1  0  0  0  0
 11 12  1  0  0  0  0
 11 13  1  0  0  0  0
 11 14  1  0  0  0  0
 15 16  1  0  0  0  0
 15 17  1  0  0  0  0
 15 18  1  0  0  0  0
 20 21  1  0  0  0  0
M  END
> <ID>
5552

> <Formula>
C17H28N2O2

> <FW>
292.4164

> <DSSTox_CID>
7978

> <DSSTox_RID>
78629

> <DSSTox_GSID>
27978

> <DSSTox_FileID_Sort>
3311

> <TS_ChemName>
3-[3,5-DI(tert-butyl)-4-hydroxyphenyl]propanohydrazide

> <TS_ChemName_Synonyms>


> <TS_CASRN>
32687-77-7

> <CASRN_ChemName_Relationship>
primary

> <TS_Description>
single chemical compound

> <ChemNote>


> <STRUCTURE_Shown>
tested chemical

> <STRUCTURE_Formula>
C17H28N2O2

> <STRUCTURE_MW>
292.4164

> <STRUCTURE_ChemType>
defined organic

> <STRUCTURE_DefinedOrganicForm>
parent

> <STRUCTURE_IUPAC>
3-(3,5-di-tert-butyl-4-hydroxyphenyl)propanehydrazide

> <STRUCTURE_SMILES>
CC(C)(C)c1cc(cc(c1O)C(C)(C)C)CCC(=O)NN

> <STRUCTURE_SMILES_Desalt>
CC(C)(C)c1cc(cc(c1O)C(C)(C)C)CCC(=O)NN

> <Substance_modify_yyyymmdd>
20080429

$$$$
