327-97-9
ChemmineR-0915142007XD

 25 26  0  0  1  0  0  0  0  0  1 V2000
    0.0000   -3.3282    0.0000 O   0  0  0  0  0  0  0  0  0  0  0  0
    1.1516   -3.9863    0.0000 C   0  0  0  0  0  0  0  0  0  0  0  0
    1.1516   -5.3151    0.0000 C   0  0  0  0  0  0  0  0  0  0  0  0
    2.3032   -5.9858    0.0000 C   0  0  0  0  0  0  0  0  0  0  0  0
    3.4548   -5.3151    0.0000 C   0  0  0  0  0  0  0  0  0  0  0  0
    3.4548   -3.9863    0.0000 C   0  0  0  0  0  0  0  0  0  0  0  0
    2.3032   -3.3282    0.0000 C   0  0  0  0  0  0  0  0  0  0  0  0
    4.6064   -3.3282    0.0000 C   0  0  0  0  0  0  0  0  0  0  0  0
    5.7580   -3.9863    0.0000 C   0  0  0  0  0  0  0  0  0  0  0  0
    6.9222   -3.3282    0.0000 C   0  0  0  0  0  0  0  0  0  0  0  0
    6.9222   -2.0121    0.0000 O   0  0  0  0  0  0  0  0  0  0  0  0
    8.0738   -3.9863    0.0000 O   0  0  0  0  0  0  0  0  0  0  0  0
    0.0000   -5.9858    0.0000 O   0  0  0  0  0  0  0  0  0  0  0  0
    9.2001   -3.3156    0.0000 C   0  0  0  0  0  0  0  0  0  0  0  0
    9.2001   -1.9868    0.0000 C   0  0  0  0  0  0  0  0  0  0  0  0
   10.3517   -3.9736    0.0000 C   0  0  0  0  0  0  0  0  0  0  0  0
   10.3390   -1.3161    0.0000 C   0  0  0  0  0  0  0  0  0  0  0  0
   11.5033   -3.3029    0.0000 C   0  0  0  0  0  0  0  0  0  0  0  0
   11.5033   -1.9742    0.0000 C   0  0  0  0  0  0  0  0  0  0  0  0
    8.0485   -1.3414    0.0000 O   0  0  0  0  0  0  0  0  0  0  0  0
   10.3390    0.0000    0.0000 O   0  0  0  0  0  0  0  0  0  0  0  0
   12.6549   -3.9610    0.0000 O   0  0  0  0  0  0  0  0  0  0  0  0
   11.4906   -4.7076    0.0000 C   0  0  0  0  0  0  0  0  0  0  0  0
   10.3390   -5.3657    0.0000 O   0  0  0  0  0  0  0  0  0  0  0  0
   12.6422   -5.3783    0.0000 O   0  0  0  0  0  0  0  0  0  0  0  0
  1  2  1  0  0  0  0
  2  3  2  0  0  0  0
  2  7  1  0  0  0  0
  3  4  1  0  0  0  0
  3 13  1  0  0  0  0
  4  5  2  0  0  0  0
  5  6  1  0  0  0  0
  6  7  2  0  0  0  0
  6  8  1  0  0  0  0
  8  9  2  3  0  0  0
  9 10  1  0  0  0  0
 10 11  2  0  0  0  0
 10 12  1  0  0  0  0
 14 12  1  1  0  0  0
 14 15  1  0  0  0  0
 14 16  1  0  0  0  0
 15 17  1  0  0  0  0
 15 20  1  6  0  0  0
 16 18  1  0  0  0  0
 17 19  1  0  0  0  0
 17 21  1  6  0  0  0
 18 19  1  0  0  0  0
 18 22  1  6  0  0  0
 18 23  1  1  0  0  0
 23 24  2  0  0  0  0
 23 25  1  0  0  0  0
M  END
> <ID>
3853

> <Formula>
C16H18O9

> <FW>
354.3087

> <DSSTox_CID>
4786

> <DSSTox_RID>
77531

> <DSSTox_GSID>
24786

> <DSSTox_FileID_Sort>
2214

> <TS_ChemName>
Chlorogenic acid

> <TS_ChemName_Synonyms>


> <TS_CASRN>
327-97-9

> <CASRN_ChemName_Relationship>
primary

> <TS_Description>
mixture of Z,E isomers

> <ChemNote>
mixture of Z,E isomers; stereochem

> <STRUCTURE_Shown>
representative isomer in mixture

> <STRUCTURE_Formula>
C16H18O9

> <STRUCTURE_MW>
354.3087

> <STRUCTURE_ChemType>
defined organic

> <STRUCTURE_DefinedOrganicForm>
parent

> <STRUCTURE_IUPAC>
(1S,3R,4R,5R)-3-{[3-(3,4-dihydroxyphenyl)acryloyl]oxy}-1,4,5-trihydroxycyclohexanecarboxylic acid

> <STRUCTURE_SMILES>
O[C@@H]2[C@H](O)C[C@](O)(C[C@H]2OC(=O)C=Cc1ccc(O)c(O)c1)C(=O)O

> <STRUCTURE_SMILES_Desalt>
O[C@@H]2[C@H](O)C[C@](O)(C[C@H]2OC(=O)C=Cc1ccc(O)c(O)c1)C(=O)O

> <Substance_modify_yyyymmdd>
20110518

$$$$
