327022-58-2
ChemmineR-0915142007XD

 16 15  0  0  0  0  0  0  0  0  2 V2000
    4.1678   -4.3635    0.0000 C   0  0  0  0  0  0  0  0  0  0  0  0
    0.8481   -3.1893    0.0000 C   0  0  0  0  0  0  0  0  0  0  0  0
    3.5155   -3.2038    0.0000 C   0  0  0  0  0  0  0  0  0  0  0  0
    2.1818    0.0000    0.0000 C   0  0  0  0  0  0  0  0  0  0  0  0
    0.8626    0.0000    0.0000 C   0  0  0  0  0  0  0  0  0  0  0  0
    2.1818   -3.2038    0.0000 C   0  0  0  0  0  0  0  0  0  0  0  0
    2.5949   -1.2685    0.0000 C   0  0  0  0  0  0  0  0  0  0  0  0
    0.4494   -1.2685    0.0000 C   0  0  0  0  0  0  0  0  0  0  0  0
    1.5222   -2.0513    0.0000 N   0  3  0  0  0  0  0  0  0  0  0  0
    0.0000   -6.0959    0.0000 F   0  0  0  0  0  0  0  0  0  0  0  0
    0.6596   -7.2484    0.0000 F   0  0  0  0  0  0  0  0  0  0  0  0
    1.9861   -7.2484    0.0000 F   0  0  0  0  0  0  0  0  0  0  0  0
    1.9861   -4.9362    0.0000 F   0  0  0  0  0  0  0  0  0  0  0  0
    0.6596   -4.9362    0.0000 F   0  0  0  0  0  0  0  0  0  0  0  0
    2.6602   -6.0959    0.0000 F   0  0  0  0  0  0  0  0  0  0  0  0
    1.3337   -6.0959    0.0000 P   0  5  0  0  0  0  0  0  0  0  0  0
  1  3  1  0  0  0  0
  2  9  1  0  0  0  0
  3  6  1  0  0  0  0
  4  5  1  0  0  0  0
  4  7  1  0  0  0  0
  5  8  1  0  0  0  0
  6  9  1  0  0  0  0
  7  9  1  0  0  0  0
  8  9  1  0  0  0  0
 10 16  1  0  0  0  0
 11 16  1  0  0  0  0
 12 16  1  0  0  0  0
 13 16  1  0  0  0  0
 14 16  1  0  0  0  0
 15 16  1  0  0  0  0
M  END
> <ID>
14132

> <Formula>
C8H18F6NP

> <FW>
273.1994 (128.2347+144.9647)

> <DSSTox_CID>
29125

> <DSSTox_RID>
83344

> <DSSTox_GSID>
49269

> <DSSTox_FileID_Sort>
8019

> <TS_ChemName>
1-Methyl-1-propylpyrrolidinium hexfluorophosphate

> <TS_ChemName_Synonyms>


> <TS_CASRN>
327022-58-2

> <CASRN_ChemName_Relationship>
primary

> <TS_Description>
single chemical compound

> <ChemNote>


> <STRUCTURE_Shown>
tested chemical

> <STRUCTURE_Formula>
C8H18F6NP

> <STRUCTURE_MW>
273.1994

> <STRUCTURE_ChemType>
defined organic

> <STRUCTURE_DefinedOrganicForm>
complex

> <STRUCTURE_IUPAC>
1-methyl-1-propylpyrrolidinium hexafluorophosphate

> <STRUCTURE_SMILES>
C[N+]1(CCC)CCCC1.F[P-](F)(F)(F)(F)F

> <STRUCTURE_SMILES_Desalt>
C[N+]1(CCC)CCCC1

> <Substance_modify_yyyymmdd>
20111204

$$$$
