32784-82-0
ChemmineR-0915142007XD

 28 27  0  0  0  0  0  0  0  0  1 V2000
    1.1608   -1.1608    0.0000 S   0  0  0  0  0  0  0  0  0  0  0  0
   12.6584   -1.1608    0.0000 S   0  0  0  0  0  0  0  0  0  0  0  0
    0.0000   -1.8241    0.0000 O   0  0  0  0  0  0  0  0  0  0  0  0
   13.3355    0.0000    0.0000 O   0  0  0  0  0  0  0  0  0  0  0  0
    1.8103   -2.3078    0.0000 O   0  0  0  0  0  0  0  0  0  0  0  0
   12.0089   -2.3078    0.0000 O   0  0  0  0  0  0  0  0  0  0  0  0
   11.5252   -0.4975    0.0000 O   0  0  0  0  0  0  0  0  0  0  0  0
    2.3078   -0.4975    0.0000 O   0  0  0  0  0  0  0  0  0  0  0  0
   13.8192   -1.8241    0.0000 C   0  0  0  0  0  0  0  0  0  0  0  0
    0.4837    0.0000    0.0000 C   0  0  0  0  0  0  0  0  0  0  0  0
    6.9096   -0.4975    0.0000 N   0  0  0  0  0  0  0  0  0  0  0  0
    9.2174   -0.4975    0.0000 C   0  0  0  0  0  0  0  0  0  0  0  0
    4.6018   -0.4975    0.0000 C   0  0  0  0  0  0  0  0  0  0  0  0
    5.7488   -1.1608    0.0000 C   0  0  0  0  0  0  0  0  0  0  0  0
    8.0704   -1.1608    0.0000 C   0  0  0  0  0  0  0  0  0  0  0  0
   10.3782   -1.1608    0.0000 C   0  0  0  0  0  0  0  0  0  0  0  0
    3.4410   -1.1608    0.0000 C   0  0  0  0  0  0  0  0  0  0  0  0
   10.2953  -10.2124    0.0000 C   0  0  0  0  0  0  0  0  0  0  0  0
   10.2953   -4.8920    0.0000 S   0  0  0  0  0  0  0  0  0  0  0  0
    8.9549   -4.8920    0.0000 O   0  0  0  0  0  0  0  0  0  0  0  0
   11.6220   -4.8920    0.0000 O   0  0  0  0  0  0  0  0  0  0  0  0
   10.2953   -3.5654    0.0000 O   0  0  0  0  0  0  0  0  0  0  0  0
   11.4423   -6.8958    0.0000 C   0  0  0  0  0  0  0  0  0  0  0  0
   11.4423   -8.2224    0.0000 C   0  0  0  0  0  0  0  0  0  0  0  0
   10.2953   -6.2186    0.0000 C   0  0  0  0  0  0  0  0  0  0  0  0
   10.2953   -8.8858    0.0000 C   0  0  0  0  0  0  0  0  0  0  0  0
    9.1345   -6.8958    0.0000 C   0  0  0  0  0  0  0  0  0  0  0  0
    9.1345   -8.2224    0.0000 C   0  0  0  0  0  0  0  0  0  0  0  0
  1  3  2  0  0  0  0
  1  5  2  0  0  0  0
  1  8  1  0  0  0  0
  1 10  1  0  0  0  0
  2  7  1  0  0  0  0
  2  4  2  0  0  0  0
  2  6  2  0  0  0  0
  2  9  1  0  0  0  0
  7 16  1  0  0  0  0
  8 17  1  0  0  0  0
 11 14  1  0  0  0  0
 11 15  1  0  0  0  0
 12 15  1  0  0  0  0
 12 16  1  0  0  0  0
 13 17  1  0  0  0  0
 13 14  1  0  0  0  0
 18 26  1  0  0  0  0
 19 20  1  0  0  0  0
 19 21  2  0  0  0  0
 19 22  2  0  0  0  0
 19 25  1  0  0  0  0
 23 24  1  0  0  0  0
 23 25  2  0  0  0  0
 24 26  2  0  0  0  0
 25 27  1  0  0  0  0
 26 28  1  0  0  0  0
 27 28  2  0  0  0  0
M  END
> <ID>
13741

> <Formula>
C15H27NO9S3

> <FW>
461.5712 (289.3696+172.2016)

> <DSSTox_CID>
28676

> <DSSTox_RID>
82946

> <DSSTox_GSID>
48750

> <DSSTox_FileID_Sort>
7623

> <TS_ChemName>
Improsulfan tosylate

> <TS_ChemName_Synonyms>


> <TS_CASRN>
32784-82-0

> <CASRN_ChemName_Relationship>
primary

> <TS_Description>
single chemical compound

> <ChemNote>


> <STRUCTURE_Shown>
tested chemical

> <STRUCTURE_Formula>
C15H27NO9S3

> <STRUCTURE_MW>
461.5712

> <STRUCTURE_ChemType>
defined organic

> <STRUCTURE_DefinedOrganicForm>
complex

> <STRUCTURE_IUPAC>
iminodipropane-3,1-diyl dimethanesulfonate 4-methylbenzenesulfonate (1:1)

> <STRUCTURE_SMILES>
Cc1ccc(cc1)S(O)(=O)=O.CS(=O)(=O)OCCCNCCCOS(C)(=O)=O

> <STRUCTURE_SMILES_Desalt>
CS(=O)(=O)OCCCNCCCOS(C)(=O)=O

> <Substance_modify_yyyymmdd>
20111204

$$$$
