32780-64-6
ChemmineR-0915142007XD

 25 25  0  0  0  0  0  0  0  0  1 V2000
   16.7052   -3.2742    0.0000 Cl   0  0  0  0  0  0  0  0  0  0  0  0
   11.4932   -2.0046    0.0000 C    0  0  0  0  0  0  0  0  0  0  0  0
   11.4932   -3.3410    0.0000 C    0  0  0  0  0  0  0  0  0  0  0  0
   10.3405   -3.9925    0.0000 C    0  0  0  0  0  0  0  0  0  0  0  0
    9.2046   -3.3410    0.0000 C    0  0  0  0  0  0  0  0  0  0  0  0
    9.2046   -2.0046    0.0000 C    0  0  0  0  0  0  0  0  0  0  0  0
   10.3405   -1.3364    0.0000 C    0  0  0  0  0  0  0  0  0  0  0  0
    8.0519   -1.3364    0.0000 C    0  0  0  0  0  0  0  0  0  0  0  0
    6.8992   -2.0046    0.0000 C    0  0  0  0  0  0  0  0  0  0  0  0
    5.7466   -1.3364    0.0000 N    0  0  0  0  0  0  0  0  0  0  0  0
    4.5939   -2.0046    0.0000 C    0  0  0  0  0  0  0  0  0  0  0  0
    4.5939   -3.3410    0.0000 C    0  0  0  0  0  0  0  0  0  0  0  0
    3.4413   -3.9925    0.0000 C    0  0  0  0  0  0  0  0  0  0  0  0
    2.3053   -3.3410    0.0000 C    0  0  0  0  0  0  0  0  0  0  0  0
    1.1527   -3.9925    0.0000 C    0  0  0  0  0  0  0  0  0  0  0  0
    0.0000   -3.3410    0.0000 C    0  0  0  0  0  0  0  0  0  0  0  0
    0.0000   -2.0046    0.0000 C    0  0  0  0  0  0  0  0  0  0  0  0
    1.1527   -1.3364    0.0000 C    0  0  0  0  0  0  0  0  0  0  0  0
    2.3053   -2.0046    0.0000 C    0  0  0  0  0  0  0  0  0  0  0  0
    3.4413   -1.3364    0.0000 C    0  0  0  0  0  0  0  0  0  0  0  0
    8.0519    0.0000    0.0000 O    0  0  0  0  0  0  0  0  0  0  0  0
   12.6625   -3.9925    0.0000 O    0  0  0  0  0  0  0  0  0  0  0  0
   12.6625   -1.3364    0.0000 C    0  0  0  0  0  0  0  0  0  0  0  0
   13.7985   -2.0046    0.0000 N    0  0  0  0  0  0  0  0  0  0  0  0
   12.6625    0.0000    0.0000 O    0  0  0  0  0  0  0  0  0  0  0  0
  2  3  2  0  0  0  0
  2  7  1  0  0  0  0
  2 23  1  0  0  0  0
  3  4  1  0  0  0  0
  3 22  1  0  0  0  0
  4  5  2  0  0  0  0
  5  6  1  0  0  0  0
  6  7  2  0  0  0  0
  6  8  1  0  0  0  0
  8  9  1  0  0  0  0
  8 21  1  0  0  0  0
  9 10  1  0  0  0  0
 10 11  1  0  0  0  0
 11 12  1  0  0  0  0
 11 20  1  0  0  0  0
 12 13  1  0  0  0  0
 13 14  1  0  0  0  0
 14 15  2  0  0  0  0
 14 19  1  0  0  0  0
 15 16  1  0  0  0  0
 16 17  2  0  0  0  0
 17 18  1  0  0  0  0
 18 19  2  0  0  0  0
 23 24  1  0  0  0  0
 23 25  2  0  0  0  0
M  END
> <ID>
10307

> <Formula>
C19H25ClN2O3

> <FW>
364.8664 (36.4609+328.4055)

> <DSSTox_CID>
24654

> <DSSTox_RID>
80378

> <DSSTox_GSID>
44654

> <DSSTox_FileID_Sort>
5060

> <TS_ChemName>
Labetalol hydrochloride

> <TS_ChemName_Synonyms>
Labetalol hydrochloride (5-[1-hydroxy-2-[(1-methyl-3-phenylpropyl)amino]ethyl]salicylamide monohydrochloride

> <TS_CASRN>
32780-64-6

> <CASRN_ChemName_Relationship>
primary

> <TS_Description>
single chemical compound

> <ChemNote>
parent [36894-69-6]

> <STRUCTURE_Shown>
tested chemical

> <STRUCTURE_Formula>
C19H25ClN2O3

> <STRUCTURE_MW>
364.8664

> <STRUCTURE_ChemType>
defined organic

> <STRUCTURE_DefinedOrganicForm>
complex

> <STRUCTURE_IUPAC>
2-hydroxy-5-{1-hydroxy-2-[(4-phenylbutan-2-yl)amino]ethyl}benzamide hydrochloride (1:1)

> <STRUCTURE_SMILES>
Cl.O=C(N)c1cc(ccc1O)C(O)CNC(C)CCc2ccccc2

> <STRUCTURE_SMILES_Desalt>
O=C(N)c1cc(ccc1O)C(O)CNC(C)CCc2ccccc2

> <Substance_modify_yyyymmdd>
20091116

$$$$
