3278-89-5
ChemmineR-0915142007XD

 13 13  0  0  0  0  0  0  0  0  1 V2000
    3.4649   -3.3195    0.0000 C    0  0  0  0  0  0  0  0  0  0  0  0
    2.3099   -3.9899    0.0000 C    0  0  0  0  0  0  0  0  0  0  0  0
    1.1550   -3.3195    0.0000 C    0  0  0  0  0  0  0  0  0  0  0  0
    1.1550   -1.9869    0.0000 C    0  0  0  0  0  0  0  0  0  0  0  0
    2.3099   -1.3327    0.0000 C    0  0  0  0  0  0  0  0  0  0  0  0
    3.4649   -1.9869    0.0000 C    0  0  0  0  0  0  0  0  0  0  0  0
    4.6118   -3.9899    0.0000 Br   0  0  0  0  0  0  0  0  0  0  0  0
    2.3099    0.0000    0.0000 Br   0  0  0  0  0  0  0  0  0  0  0  0
    0.0000   -3.9899    0.0000 Br   0  0  0  0  0  0  0  0  0  0  0  0
    4.6118   -1.3327    0.0000 O    0  0  0  0  0  0  0  0  0  0  0  0
    5.7668   -1.9869    0.0000 C    0  0  0  0  0  0  0  0  0  0  0  0
    6.9218   -1.3327    0.0000 C    0  0  0  0  0  0  0  0  0  0  0  0
    8.0767   -1.9869    0.0000 C    0  0  0  0  0  0  0  0  0  0  0  0
  1  2  2  0  0  0  0
  1  6  1  0  0  0  0
  1  7  1  0  0  0  0
  2  3  1  0  0  0  0
  3  4  2  0  0  0  0
  3  9  1  0  0  0  0
  4  5  1  0  0  0  0
  5  6  2  0  0  0  0
  5  8  1  0  0  0  0
  6 10  1  0  0  0  0
 10 11  1  0  0  0  0
 11 12  1  0  0  0  0
 12 13  2  0  0  0  0
M  END
> <ID>
10565

> <Formula>
C9H7Br3O

> <FW>
370.8633

> <DSSTox_CID>
24918

> <DSSTox_RID>
80585

> <DSSTox_GSID>
44918

> <DSSTox_FileID_Sort>
5267

> <TS_ChemName>
1,3,5-Tribromo-2-(prop-2-en-1-yloxy)benzene

> <TS_ChemName_Synonyms>
1,3,5-Tribromo-2-(prop-2-en-1-yloxy)benzene (prop-2-en-1-yl 2,4,6-tribromophenyl ether) (Benzene, 1,3,5-tribromo-2-(2-propenyloxy)-0

> <TS_CASRN>
3278-89-5

> <CASRN_ChemName_Relationship>
primary

> <TS_Description>
single chemical compound

> <ChemNote>


> <STRUCTURE_Shown>
tested chemical

> <STRUCTURE_Formula>
C9H7Br3O

> <STRUCTURE_MW>
370.8633

> <STRUCTURE_ChemType>
defined organic

> <STRUCTURE_DefinedOrganicForm>
parent

> <STRUCTURE_IUPAC>
prop-2-en-1-yl 2,4,6-tribromophenyl ether

> <STRUCTURE_SMILES>
Brc1cc(Br)cc(Br)c1OCC=C

> <STRUCTURE_SMILES_Desalt>
Brc1cc(Br)cc(Br)c1OCC=C

> <Substance_modify_yyyymmdd>
20091116

$$$$
