32795-47-4
ChemmineR-0915142007XD

 26 27  0  0  0  0  0  0  0  0  1 V2000
    4.6204    0.0000    0.0000 C   0  0  0  0  0  0  0  0  0  0  0  0
    4.6204   -1.3315    0.0000 N   0  0  0  0  0  0  0  0  0  0  0  0
    3.4620   -1.9840    0.0000 C   0  0  0  0  0  0  0  0  0  0  0  0
    3.4620   -3.3155    0.0000 C   0  0  0  0  0  0  0  0  0  0  0  0
    2.3036   -3.9946    0.0000 C   0  0  0  0  0  0  0  0  0  0  0  0
    2.3036   -5.3261    0.0000 C   0  0  0  0  0  0  0  0  0  0  0  0
    1.1584   -5.9786    0.0000 C   0  0  0  0  0  0  0  0  0  0  0  0
    0.0000   -5.3261    0.0000 C   0  0  0  0  0  0  0  0  0  0  0  0
    0.0000   -3.9946    0.0000 C   0  0  0  0  0  0  0  0  0  0  0  0
    1.1584   -3.3155    0.0000 C   0  0  0  0  0  0  0  0  0  0  0  0
    4.6204   -3.9946    0.0000 C   0  0  0  0  0  0  0  0  0  0  0  0
    5.7522   -3.3155    0.0000 C   0  0  0  0  0  0  0  0  0  0  0  0
    5.7522   -1.9840    0.0000 C   0  0  0  0  0  0  0  0  0  0  0  0
    6.9107   -3.9946    0.0000 C   0  0  0  0  0  0  0  0  0  0  0  0
    6.9107   -5.3261    0.0000 C   0  0  0  0  0  0  0  0  0  0  0  0
    5.7522   -5.9786    0.0000 C   0  0  0  0  0  0  0  0  0  0  0  0
    4.6204   -5.3261    0.0000 C   0  0  0  0  0  0  0  0  0  0  0  0
    8.0558   -3.3155    0.0000 N   0  0  0  0  0  0  0  0  0  0  0  0
   11.3180   -2.5965    0.0000 O   0  0  0  0  0  0  0  0  0  0  0  0
   11.9838   -1.4647    0.0000 C   0  0  0  0  0  0  0  0  0  0  0  0
   13.3153   -1.4647    0.0000 O   0  0  0  0  0  0  0  0  0  0  0  0
   11.3180   -0.2929    0.0000 C   0  0  0  0  0  0  0  0  0  0  0  0
    9.9865   -0.2929    0.0000 C   0  0  0  0  0  0  0  0  0  0  0  0
    9.3207   -1.4647    0.0000 C   0  0  0  0  0  0  0  0  0  0  0  0
    7.9892   -1.4647    0.0000 O   0  0  0  0  0  0  0  0  0  0  0  0
    9.9865   -2.5965    0.0000 O   0  0  0  0  0  0  0  0  0  0  0  0
  1  2  1  0  0  0  0
  2  3  1  0  0  0  0
  2 13  1  0  0  0  0
  3  4  1  0  0  0  0
  4  5  1  0  0  0  0
  4 11  1  0  0  0  0
  5  6  2  0  0  0  0
  5 10  1  0  0  0  0
  6  7  1  0  0  0  0
  7  8  2  0  0  0  0
  8  9  1  0  0  0  0
  9 10  2  0  0  0  0
 11 12  2  0  0  0  0
 11 17  1  0  0  0  0
 12 13  1  0  0  0  0
 12 14  1  0  0  0  0
 14 15  2  0  0  0  0
 14 18  1  0  0  0  0
 15 16  1  0  0  0  0
 16 17  2  0  0  0  0
 19 20  1  0  0  0  0
 20 21  2  0  0  0  0
 20 22  1  0  0  0  0
 22 23  2  0  0  0  0
 23 24  1  0  0  0  0
 24 25  1  0  0  0  0
 24 26  2  0  0  0  0
M  END
> <ID>
11199

> <Formula>
C20H22N2O4

> <FW>
354.3997 (238.3275+116.0722)

> <DSSTox_CID>
25790

> <DSSTox_RID>
81131

> <DSSTox_GSID>
45790

> <DSSTox_FileID_Sort>
5812

> <TS_ChemName>
Nomifensine maleate

> <TS_ChemName_Synonyms>


> <TS_CASRN>
32795-47-4

> <CASRN_ChemName_Relationship>
primary

> <TS_Description>
single chemical compound

> <ChemNote>
stereochem; parent [24526-64-5]

> <STRUCTURE_Shown>
tested chemical

> <STRUCTURE_Formula>
C20H22N2O4

> <STRUCTURE_MW>
354.3997

> <STRUCTURE_ChemType>
defined organic

> <STRUCTURE_DefinedOrganicForm>
complex

> <STRUCTURE_IUPAC>
2-methyl-4-phenyl-1,2,3,4-tetrahydroisoquinolin-8-amine (2Z)-but-2-enedioate (1:1)

> <STRUCTURE_SMILES>
O=C(O)/C=C\C(=O)O.Nc3cccc1c3CN(C)CC1c2ccccc2

> <STRUCTURE_SMILES_Desalt>
Nc3cccc1c3CN(C)CC1c2ccccc2

> <Substance_modify_yyyymmdd>
20110902

$$$$
