328-38-1
ChemmineR-0915142007XD

  9  8  0  0  1  0  0  0  0  0  1 V2000
    5.7622   -1.3311    0.0000 C   0  0  0  0  0  0  0  0  0  0  0  0
    4.6097   -1.9937    0.0000 C   0  0  0  0  0  0  0  0  0  0  0  0
    4.6097   -3.3248    0.0000 C   0  0  0  0  0  0  0  0  0  0  0  0
    3.4573   -1.3311    0.0000 C   0  0  0  0  0  0  0  0  0  0  0  0
    2.3049   -1.9937    0.0000 C   0  0  0  0  0  0  0  0  0  0  0  0
    2.3049   -3.3248    0.0000 N   0  0  0  0  0  0  0  0  0  0  0  0
    1.1524   -1.3311    0.0000 C   0  0  0  0  0  0  0  0  0  0  0  0
    0.0000   -1.9937    0.0000 O   0  0  0  0  0  0  0  0  0  0  0  0
    1.1524    0.0000    0.0000 O   0  0  0  0  0  0  0  0  0  0  0  0
  1  2  1  0  0  0  0
  2  3  1  0  0  0  0
  2  4  1  0  0  0  0
  4  5  1  0  0  0  0
  5  6  1  1  0  0  0
  5  7  1  0  0  0  0
  7  8  1  0  0  0  0
  7  9  2  0  0  0  0
M  END
> <ID>
11618

> <Formula>
C6H13NO2

> <FW>
131.1729

> <DSSTox_CID>
26347

> <DSSTox_RID>
81551

> <DSSTox_GSID>
46347

> <DSSTox_FileID_Sort>
6232

> <TS_ChemName>
D-Leucine

> <TS_ChemName_Synonyms>


> <TS_CASRN>
328-38-1

> <CASRN_ChemName_Relationship>
primary

> <TS_Description>
single chemical compound

> <ChemNote>
stereochem

> <STRUCTURE_Shown>
tested chemical

> <STRUCTURE_Formula>
C6H13NO2

> <STRUCTURE_MW>
131.1729

> <STRUCTURE_ChemType>
defined organic

> <STRUCTURE_DefinedOrganicForm>
parent

> <STRUCTURE_IUPAC>
D-leucine

> <STRUCTURE_SMILES>
CC(C)C[C@@H](N)C(=O)O

> <STRUCTURE_SMILES_Desalt>
CC(C)C[C@@H](N)C(=O)O

> <Substance_modify_yyyymmdd>
20110814

$$$$
