328-84-7
ChemmineR-0915142007XD

 12 12  0  0  0  0  0  0  0  0  1 V2000
    1.3303   -5.3211    0.0000 C    0  0  0  0  0  0  0  0  0  0  0  0
    0.1796   -4.6626    0.0000 C    0  0  0  0  0  0  0  0  0  0  0  0
    0.1796   -3.3324    0.0000 C    0  0  0  0  0  0  0  0  0  0  0  0
    1.3303   -2.6606    0.0000 C    0  0  0  0  0  0  0  0  0  0  0  0
    2.4810   -3.3324    0.0000 C    0  0  0  0  0  0  0  0  0  0  0  0
    2.4810   -4.6626    0.0000 C    0  0  0  0  0  0  0  0  0  0  0  0
    1.3303   -6.6514    0.0000 Cl   0  0  0  0  0  0  0  0  0  0  0  0
    3.6383   -5.3211    0.0000 Cl   0  0  0  0  0  0  0  0  0  0  0  0
    1.3303   -1.3303    0.0000 C    0  0  0  0  0  0  0  0  0  0  0  0
    1.3303    0.0000    0.0000 F    0  0  0  0  0  0  0  0  0  0  0  0
    0.0000   -1.3303    0.0000 F    0  0  0  0  0  0  0  0  0  0  0  0
    2.6606   -1.3303    0.0000 F    0  0  0  0  0  0  0  0  0  0  0  0
  1  2  2  0  0  0  0
  1  6  1  0  0  0  0
  1  7  1  0  0  0  0
  2  3  1  0  0  0  0
  3  4  2  0  0  0  0
  4  5  1  0  0  0  0
  4  9  1  0  0  0  0
  5  6  2  0  0  0  0
  6  8  1  0  0  0  0
  9 10  1  0  0  0  0
  9 11  1  0  0  0  0
  9 12  1  0  0  0  0
M  END
> <ID>
4952

> <Formula>
C7H3Cl2F3

> <FW>
214.9999

> <DSSTox_CID>
7142

> <DSSTox_RID>
78322

> <DSSTox_GSID>
27142

> <DSSTox_FileID_Sort>
3005

> <TS_ChemName>
1,2-Dichloro-4-(trifluoromethyl)benzene

> <TS_ChemName_Synonyms>


> <TS_CASRN>
328-84-7

> <CASRN_ChemName_Relationship>
primary

> <TS_Description>
single chemical compound

> <ChemNote>


> <STRUCTURE_Shown>
tested chemical

> <STRUCTURE_Formula>
C7H3Cl2F3

> <STRUCTURE_MW>
214.9999

> <STRUCTURE_ChemType>
defined organic

> <STRUCTURE_DefinedOrganicForm>
parent

> <STRUCTURE_IUPAC>
1,2-dichloro-4-(trifluoromethyl)benzene

> <STRUCTURE_SMILES>
Clc1ccc(cc1Cl)C(F)(F)F

> <STRUCTURE_SMILES_Desalt>
Clc1ccc(cc1Cl)C(F)(F)F

> <Substance_modify_yyyymmdd>
20080429

$$$$
