328-50-7
ChemmineR-0915142007XD

 10  9  0  0  0  0  0  0  0  0  1 V2000
    1.1316   -1.3399    0.0000 C   0  0  0  0  0  0  0  0  0  0  0  0
    5.7831   -1.3399    0.0000 C   0  0  0  0  0  0  0  0  0  0  0  0
    0.0000   -1.9855    0.0000 O   0  0  0  0  0  0  0  0  0  0  0  0
    5.7831    0.0000    0.0000 O   0  0  0  0  0  0  0  0  0  0  0  0
    1.1316    0.0000    0.0000 O   0  0  0  0  0  0  0  0  0  0  0  0
    6.9425   -1.9855    0.0000 O   0  0  0  0  0  0  0  0  0  0  0  0
    4.6306   -1.9855    0.0000 C   0  0  0  0  0  0  0  0  0  0  0  0
    2.3118   -1.9855    0.0000 C   0  0  0  0  0  0  0  0  0  0  0  0
    3.4574   -1.3399    0.0000 C   0  0  0  0  0  0  0  0  0  0  0  0
    2.3118   -3.3254    0.0000 O   0  0  0  0  0  0  0  0  0  0  0  0
  1  3  2  0  0  0  0
  1  5  1  0  0  0  0
  1  8  1  0  0  0  0
  2  7  1  0  0  0  0
  2  4  2  0  0  0  0
  2  6  1  0  0  0  0
  7  9  1  0  0  0  0
  8  9  1  0  0  0  0
  8 10  2  0  0  0  0
M  END
> <ID>
6603

> <Formula>
C5H6O5

> <FW>
146.0981

> <DSSTox_CID>
13179

> <DSSTox_RID>
79054

> <DSSTox_GSID>
33179

> <DSSTox_FileID_Sort>
3736

> <TS_ChemName>
alpha-Ketoglutaric acid

> <TS_ChemName_Synonyms>


> <TS_CASRN>
328-50-7

> <CASRN_ChemName_Relationship>
primary

> <TS_Description>
single chemical compound

> <ChemNote>


> <STRUCTURE_Shown>
tested chemical

> <STRUCTURE_Formula>
C5H6O5

> <STRUCTURE_MW>
146.0981

> <STRUCTURE_ChemType>
defined organic

> <STRUCTURE_DefinedOrganicForm>
parent

> <STRUCTURE_IUPAC>
2-oxopentanedioic acid

> <STRUCTURE_SMILES>
OC(=O)C(=O)CCC(=O)O

> <STRUCTURE_SMILES_Desalt>
OC(=O)C(=O)CCC(=O)O

> <Substance_modify_yyyymmdd>
20080429

$$$$
