328090-25-1
ChemmineR-0915142007XD

 19 19  0  0  0  0  0  0  0  0  2 V2000
    5.6186    0.0000    0.0000 C   0  0  0  0  0  0  0  0  0  0  0  0
    4.4902   -1.9659    0.0000 C   0  0  0  0  0  0  0  0  0  0  0  0
    6.7702   -1.9543    0.0000 C   0  0  0  0  0  0  0  0  0  0  0  0
    4.5018   -3.2688    0.0000 C   0  0  0  0  0  0  0  0  0  0  0  0
    6.7702   -3.2571    0.0000 C   0  0  0  0  0  0  0  0  0  0  0  0
    5.6186   -1.3029    0.0000 C   0  0  0  0  0  0  0  0  0  0  0  0
    5.6302   -3.9202    0.0000 C   0  0  0  0  0  0  0  0  0  0  0  0
    4.3273   -5.2463    0.0000 O   0  5  0  0  0  0  0  0  0  0  0  0
    6.9447   -5.2463    0.0000 O   0  0  0  0  0  0  0  0  0  0  0  0
    5.6302   -6.5492    0.0000 O   0  0  0  0  0  0  0  0  0  0  0  0
    5.6302   -5.2463    0.0000 S   0  0  0  0  0  0  0  0  0  0  0  0
    2.8035   -6.3630    0.0000 C   0  0  0  0  0  0  0  0  0  0  0  0
    2.1986  -11.6326    0.0000 C   0  0  0  0  0  0  0  0  0  0  0  0
    1.0702  -10.9696    0.0000 C   0  0  0  0  0  0  0  0  0  0  0  0
    0.4071   -7.6543    0.0000 C   0  0  0  0  0  0  0  0  0  0  0  0
    0.0000   -8.9106    0.0000 C   0  0  0  0  0  0  0  0  0  0  0  0
    2.1288   -8.8990    0.0000 C   0  0  0  0  0  0  0  0  0  0  0  0
    1.7333   -7.6543    0.0000 N   0  3  0  0  0  0  0  0  0  0  0  0
    1.0702   -9.6783    0.0000 N   0  0  0  0  0  0  0  0  0  0  0  0
  1  6  1  0  0  0  0
  2  4  1  0  0  0  0
  2  6  2  0  0  0  0
  3  5  2  0  0  0  0
  3  6  1  0  0  0  0
  4  7  2  0  0  0  0
  5  7  1  0  0  0  0
  7 11  1  0  0  0  0
  8 11  1  0  0  0  0
  9 11  2  0  0  0  0
 10 11  2  0  0  0  0
 12 18  1  0  0  0  0
 13 14  1  0  0  0  0
 14 19  1  0  0  0  0
 15 16  2  0  0  0  0
 15 18  1  0  0  0  0
 16 19  1  0  0  0  0
 17 18  2  0  0  0  0
 17 19  1  0  0  0  0
M  END
> <ID>
14133

> <Formula>
C13H18N2O3S

> <FW>
282.3586 (171.1942+111.1644)

> <DSSTox_CID>
29126

> <DSSTox_RID>
83345

> <DSSTox_GSID>
49270

> <DSSTox_FileID_Sort>
8020

> <TS_ChemName>
1-Ethyl-3-methylimidazolium tosylate

> <TS_ChemName_Synonyms>


> <TS_CASRN>
328090-25-1

> <CASRN_ChemName_Relationship>
primary

> <TS_Description>
single chemical compound

> <ChemNote>


> <STRUCTURE_Shown>
tested chemical

> <STRUCTURE_Formula>
C13H18N2O3S

> <STRUCTURE_MW>
282.3586

> <STRUCTURE_ChemType>
defined organic

> <STRUCTURE_DefinedOrganicForm>
complex

> <STRUCTURE_IUPAC>
1-ethyl-3-methyl-1H-imidazol-3-ium 4-methylbenzenesulfonate

> <STRUCTURE_SMILES>
C[n+]1ccn(CC)c1.[O-]S(=O)(=O)c1ccc(C)cc1

> <STRUCTURE_SMILES_Desalt>
Cc1ccc(cc1)S(O)(=O)=O

> <Substance_modify_yyyymmdd>
20111204

$$$$
