3282-73-3
ChemmineR-0915142007XD

 28 26  0  0  0  0  0  0  0  0  2 V2000
   13.8383   -3.3212    0.0000 N    0  3  0  0  0  0  0  0  0  0  0  0
   12.7036   -2.6570    0.0000 C    0  0  0  0  0  0  0  0  0  0  0  0
   11.5412   -3.3212    0.0000 C    0  0  0  0  0  0  0  0  0  0  0  0
   10.3787   -2.6570    0.0000 C    0  0  0  0  0  0  0  0  0  0  0  0
    9.2440   -3.3212    0.0000 C    0  0  0  0  0  0  0  0  0  0  0  0
    8.0539   -2.6570    0.0000 C    0  0  0  0  0  0  0  0  0  0  0  0
    6.9192   -3.3212    0.0000 C    0  0  0  0  0  0  0  0  0  0  0  0
    5.7567   -2.6570    0.0000 C    0  0  0  0  0  0  0  0  0  0  0  0
    4.6220   -3.3212    0.0000 C    0  0  0  0  0  0  0  0  0  0  0  0
    3.4596   -2.6570    0.0000 C    0  0  0  0  0  0  0  0  0  0  0  0
    2.2972   -3.3212    0.0000 C    0  0  0  0  0  0  0  0  0  0  0  0
    1.1624   -2.6570    0.0000 C    0  0  0  0  0  0  0  0  0  0  0  0
    0.0000   -3.3212    0.0000 C    0  0  0  0  0  0  0  0  0  0  0  0
   14.9731   -3.9854    0.0000 C    0  0  0  0  0  0  0  0  0  0  0  0
   16.1355   -3.3212    0.0000 C    0  0  0  0  0  0  0  0  0  0  0  0
   17.2979   -3.9854    0.0000 C    0  0  0  0  0  0  0  0  0  0  0  0
   18.4603   -3.3212    0.0000 C    0  0  0  0  0  0  0  0  0  0  0  0
   19.6227   -3.9854    0.0000 C    0  0  0  0  0  0  0  0  0  0  0  0
   20.7575   -3.3212    0.0000 C    0  0  0  0  0  0  0  0  0  0  0  0
   21.9199   -3.9854    0.0000 C    0  0  0  0  0  0  0  0  0  0  0  0
   23.0546   -3.3212    0.0000 C    0  0  0  0  0  0  0  0  0  0  0  0
   24.2171   -3.9854    0.0000 C    0  0  0  0  0  0  0  0  0  0  0  0
   25.3795   -3.3212    0.0000 C    0  0  0  0  0  0  0  0  0  0  0  0
   26.5142   -3.9854    0.0000 C    0  0  0  0  0  0  0  0  0  0  0  0
   27.6766   -3.3212    0.0000 C    0  0  0  0  0  0  0  0  0  0  0  0
   13.2018   -4.4559    0.0000 C    0  0  0  0  0  0  0  0  0  0  0  0
   14.5026   -2.1588    0.0000 C    0  0  0  0  0  0  0  0  0  0  0  0
   13.1187    0.0000    0.0000 Br   0  5  0  0  0  0  0  0  0  0  0  0
  1  2  1  0  0  0  0
  1 14  1  0  0  0  0
  1 26  1  0  0  0  0
  1 27  1  0  0  0  0
  2  3  1  0  0  0  0
  3  4  1  0  0  0  0
  4  5  1  0  0  0  0
  5  6  1  0  0  0  0
  6  7  1  0  0  0  0
  7  8  1  0  0  0  0
  8  9  1  0  0  0  0
  9 10  1  0  0  0  0
 10 11  1  0  0  0  0
 11 12  1  0  0  0  0
 12 13  1  0  0  0  0
 14 15  1  0  0  0  0
 15 16  1  0  0  0  0
 16 17  1  0  0  0  0
 17 18  1  0  0  0  0
 18 19  1  0  0  0  0
 19 20  1  0  0  0  0
 20 21  1  0  0  0  0
 21 22  1  0  0  0  0
 22 23  1  0  0  0  0
 23 24  1  0  0  0  0
 24 25  1  0  0  0  0
M  END
> <ID>
12262

> <Formula>
C26H56BrN

> <FW>
462.6335 (382.7290+79.9045)

> <DSSTox_CID>
27112

> <DSSTox_RID>
82122

> <DSSTox_GSID>
47112

> <DSSTox_FileID_Sort>
6803

> <TS_ChemName>
Didodecyldimethylammonium bromide

> <TS_ChemName_Synonyms>


> <TS_CASRN>
3282-73-3

> <CASRN_ChemName_Relationship>
primary

> <TS_Description>
single chemical compound

> <ChemNote>
ammonium; parent [13146-86-6]

> <STRUCTURE_Shown>
tested chemical

> <STRUCTURE_Formula>
C26H56BrN

> <STRUCTURE_MW>
462.6335

> <STRUCTURE_ChemType>
defined organic

> <STRUCTURE_DefinedOrganicForm>
salt

> <STRUCTURE_IUPAC>
N-dodecyl-N,N-dimethyldodecan-1-aminium bromide

> <STRUCTURE_SMILES>
[Br-].C[N+](C)(CCCCCCCCCCCC)CCCCCCCCCCCC

> <STRUCTURE_SMILES_Desalt>
C[N+](C)(CCCCCCCCCCCC)CCCCCCCCCCCC

> <Substance_modify_yyyymmdd>
20100429

$$$$
