32838-28-1
ChemmineR-0915142007XD

 22 21  0  0  0  0  0  0  0  0  1 V2000
   14.6486   -9.2286    0.0000 C   0  0  0  0  0  0  0  0  0  0  0  0
   13.9748   -8.0714    0.0000 C   0  0  0  0  0  0  0  0  0  0  0  0
   12.6417   -8.0714    0.0000 C   0  0  0  0  0  0  0  0  0  0  0  0
   11.9825   -6.9141    0.0000 C   0  0  0  0  0  0  0  0  0  0  0  0
   10.6349   -6.9141    0.0000 C   0  0  0  0  0  0  0  0  0  0  0  0
    9.9757   -8.0714    0.0000 C   0  0  0  0  0  0  0  0  0  0  0  0
   10.6495   -9.2140    0.0000 C   0  0  0  0  0  0  0  0  0  0  0  0
    9.9757   -5.7569    0.0000 C   0  0  0  0  0  0  0  0  0  0  0  0
    8.6427   -5.7569    0.0000 N   0  0  0  0  0  0  0  0  0  0  0  0
    7.9688   -4.6143    0.0000 C   0  0  0  0  0  0  0  0  0  0  0  0
    8.6427   -3.4571    0.0000 O   0  0  0  0  0  0  0  0  0  0  0  0
    6.6651   -4.6143    0.0000 C   0  0  0  0  0  0  0  0  0  0  0  0
    5.9913   -3.4717    0.0000 C   0  0  0  0  0  0  0  0  0  0  0  0
    6.6651   -2.3145    0.0000 C   0  0  0  0  0  0  0  0  0  0  0  0
    4.6729   -3.4571    0.0000 O   0  0  0  0  0  0  0  0  0  0  0  0
    3.9991   -2.3145    0.0000 C   0  0  0  0  0  0  0  0  0  0  0  0
    4.6583   -1.1572    0.0000 O   0  0  0  0  0  0  0  0  0  0  0  0
    2.6660   -2.2998    0.0000 C   0  0  0  0  0  0  0  0  0  0  0  0
    1.9922   -1.1572    0.0000 C   0  0  0  0  0  0  0  0  0  0  0  0
    0.6592   -1.1572    0.0000 C   0  0  0  0  0  0  0  0  0  0  0  0
    0.0000   -2.2998    0.0000 O   0  0  0  0  0  0  0  0  0  0  0  0
    0.0000    0.0000    0.0000 O   0  0  0  0  0  0  0  0  0  0  0  0
  1  2  1  0  0  0  0
  2  3  1  0  0  0  0
  3  4  1  0  0  0  0
  4  5  1  0  0  0  0
  5  6  1  0  0  0  0
  5  8  1  0  0  0  0
  6  7  1  0  0  0  0
  8  9  1  0  0  0  0
  9 10  1  0  0  0  0
 10 11  2  0  0  0  0
 10 12  1  0  0  0  0
 12 13  1  0  0  0  0
 13 14  1  0  0  0  0
 13 15  1  0  0  0  0
 15 16  1  0  0  0  0
 16 17  2  0  0  0  0
 16 18  1  0  0  0  0
 18 19  1  0  0  0  0
 19 20  1  0  0  0  0
 20 21  1  0  0  0  0
 20 22  2  0  0  0  0
M  END
> <ID>
16118

> <Formula>
C16H29NO5

> <FW>
315.4052

> <DSSTox_CID>
31505

> <DSSTox_RID>
97390

> <DSSTox_GSID>
57716

> <DSSTox_FileID_Sort>
8457

> <TS_ChemName>
Butoctamide semisuccinate

> <TS_ChemName_Synonyms>


> <TS_CASRN>
32838-28-1

> <CASRN_ChemName_Relationship>
primary

> <TS_Description>
single chemical compound

> <ChemNote>


> <STRUCTURE_Shown>
tested chemical

> <STRUCTURE_Formula>
C16H29NO5

> <STRUCTURE_MW>
315.4052

> <STRUCTURE_ChemType>
defined organic

> <STRUCTURE_DefinedOrganicForm>
parent

> <STRUCTURE_IUPAC>
4-({4-[(2-ethylhexyl)amino]-4-oxobutan-2-yl}oxy)-4-oxobutanoic acid

> <STRUCTURE_SMILES>
CC(CC(=O)NCC(CC)CCCC)OC(=O)CCC(=O)O

> <STRUCTURE_SMILES_Desalt>
CC(CC(=O)NCC(CC)CCCC)OC(=O)CCC(=O)O

> <Substance_modify_yyyymmdd>
20131121

$$$$
