328392-46-7_1
ChemmineR-0915142007XD

 50 52  0  0  0  0  0  0  0  0  1 V2000
   10.3315   -5.2846    0.0000 C   0  0  0  0  0  0  0  0  0  0  0  0
   10.3315   -3.9680    0.0000 O   0  0  0  0  0  0  0  0  0  0  0  0
    9.1978   -5.9612    0.0000 C   0  0  0  0  0  0  0  0  0  0  0  0
    8.0824   -5.2846    0.0000 C   0  0  0  0  0  0  0  0  0  0  0  0
    9.1978   -7.2961    0.0000 C   0  0  0  0  0  0  0  0  0  0  0  0
    6.8938   -5.9612    0.0000 C   0  0  0  0  0  0  0  0  0  0  0  0
    8.0824   -7.9361    0.0000 C   0  0  0  0  0  0  0  0  0  0  0  0
    6.8938   -7.2961    0.0000 C   0  0  0  0  0  0  0  0  0  0  0  0
   11.5201   -5.9612    0.0000 N   0  0  0  0  0  0  0  0  0  0  0  0
    8.0824   -3.9680    0.0000 N   0  0  0  0  0  0  0  0  0  0  0  0
    9.1978   -3.3097    0.0000 C   0  0  0  0  0  0  0  0  0  0  0  0
    9.1978   -1.9932    0.0000 C   0  0  0  0  0  0  0  0  0  0  0  0
   10.3315   -1.3166    0.0000 N   0  0  0  0  0  0  0  0  0  0  0  0
   11.4652   -1.9932    0.0000 C   0  0  0  0  0  0  0  0  0  0  0  0
   10.3315    0.0000    0.0000 C   0  0  0  0  0  0  0  0  0  0  0  0
    6.8938   -3.3097    0.0000 C   0  0  0  0  0  0  0  0  0  0  0  0
    5.7600   -3.9680    0.0000 C   0  0  0  0  0  0  0  0  0  0  0  0
   11.5201   -7.2961    0.0000 C   0  0  0  0  0  0  0  0  0  0  0  0
   12.6538   -7.9361    0.0000 C   0  0  0  0  0  0  0  0  0  0  0  0
   12.6538   -5.2846    0.0000 C   0  0  0  0  0  0  0  0  0  0  0  0
   12.6538   -3.9680    0.0000 C   0  0  0  0  0  0  0  0  0  0  0  0
    8.0824  -10.5875    0.0000 C   0  0  0  0  0  0  0  0  0  0  0  0
    8.0824   -9.2709    0.0000 S   0  0  0  0  0  0  0  0  0  0  0  0
    9.5452   -9.2709    0.0000 O   0  0  0  0  0  0  0  0  0  0  0  0
    6.7475   -9.2709    0.0000 O   0  0  0  0  0  0  0  0  0  0  0  0
    4.5715  -11.2641    0.0000 C   0  0  0  0  0  0  0  0  0  0  0  0
    4.5715  -12.5807    0.0000 C   0  0  0  0  0  0  0  0  0  0  0  0
    5.7600  -13.2390    0.0000 C   0  0  0  0  0  0  0  0  0  0  0  0
    6.8938  -12.5807    0.0000 C   0  0  0  0  0  0  0  0  0  0  0  0
    6.8938  -11.2641    0.0000 C   0  0  0  0  0  0  0  0  0  0  0  0
    5.7600  -10.5875    0.0000 C   0  0  0  0  0  0  0  0  0  0  0  0
    5.7600   -7.9361    0.0000 N   0  0  0  0  0  0  0  0  0  0  0  0
    5.7600   -9.2709    0.0000 C   0  0  0  0  0  0  0  0  0  0  0  0
    4.6446   -7.2961    0.0000 C   0  0  0  0  0  0  0  0  0  0  0  0
    4.6446   -9.9292    0.0000 C   0  0  0  0  0  0  0  0  0  0  0  0
    3.4377   -7.9361    0.0000 C   0  0  0  0  0  0  0  0  0  0  0  0
    3.4377   -9.2709    0.0000 C   0  0  0  0  0  0  0  0  0  0  0  0
    0.0000   -9.9292    0.0000 C   0  0  0  0  0  0  0  0  0  0  0  0
    0.0000  -11.2641    0.0000 C   0  0  0  0  0  0  0  0  0  0  0  0
    1.1886  -11.9224    0.0000 C   0  0  0  0  0  0  0  0  0  0  0  0
    2.3223  -11.2641    0.0000 C   0  0  0  0  0  0  0  0  0  0  0  0
    2.3223   -9.9292    0.0000 C   0  0  0  0  0  0  0  0  0  0  0  0
    1.1886   -9.2709    0.0000 C   0  0  0  0  0  0  0  0  0  0  0  0
   17.1339   -2.8526    0.0000 C   0  0  0  0  0  0  0  0  0  0  0  0
   17.1339   -4.1692    0.0000 O   0  0  0  0  0  0  0  0  0  0  0  0
   18.2859   -2.1760    0.0000 O   0  0  0  0  0  0  0  0  0  0  0  0
   16.0001   -2.1760    0.0000 C   0  0  0  0  0  0  0  0  0  0  0  0
   16.0001   -0.8594    0.0000 F   0  0  0  0  0  0  0  0  0  0  0  0
   14.8481   -2.8526    0.0000 F   0  0  0  0  0  0  0  0  0  0  0  0
   14.8481   -1.5360    0.0000 F   0  0  0  0  0  0  0  0  0  0  0  0
  1  2  2  0  0  0  0
  1  3  1  0  0  0  0
  1  9  1  0  0  0  0
  3  4  2  0  0  0  0
  3  5  1  0  0  0  0
  4  6  1  0  0  0  0
  4 10  1  0  0  0  0
  5  7  2  0  0  0  0
  6  8  2  0  0  0  0
  7  8  1  0  0  0  0
  7 23  1  0  0  0  0
  8 32  1  0  0  0  0
  9 18  1  0  0  0  0
  9 20  1  0  0  0  0
 10 11  1  0  0  0  0
 10 16  1  0  0  0  0
 11 12  1  0  0  0  0
 12 13  1  0  0  0  0
 13 14  1  0  0  0  0
 13 15  1  0  0  0  0
 16 17  1  0  0  0  0
 18 19  1  0  0  0  0
 20 21  1  0  0  0  0
 22 23  1  0  0  0  0
 22 30  1  0  0  0  0
 23 24  2  0  0  0  0
 23 25  2  0  0  0  0
 26 31  2  0  0  0  0
 26 27  1  0  0  0  0
 27 28  2  0  0  0  0
 28 29  1  0  0  0  0
 29 30  2  0  0  0  0
 30 31  1  0  0  0  0
 32 33  1  0  0  0  0
 32 34  1  0  0  0  0
 33 35  1  0  0  0  0
 34 36  1  0  0  0  0
 35 37  1  0  0  0  0
 36 37  1  0  0  0  0
 37 42  1  0  0  0  0
 38 43  2  0  0  0  0
 38 39  1  0  0  0  0
 39 40  2  0  0  0  0
 40 41  1  0  0  0  0
 41 42  2  0  0  0  0
 42 43  1  0  0  0  0
 44 45  2  0  0  0  0
 44 46  1  0  0  0  0
 44 47  1  0  0  0  0
 47 48  1  0  0  0  0
 47 49  1  0  0  0  0
 47 50  1  0  0  0  0
M  END
> <ID>
13570

> <Formula>
C37H49F3N4O5S

> <FW>
718.8690 (604.8456+114.0233)

> <DSSTox_CID>
28496

> <DSSTox_RID>
82771

> <DSSTox_GSID>
48522

> <DSSTox_FileID_Sort>
7448

> <TS_ChemName>
HMR1171 trifluoroacetate (1:1)

> <TS_ChemName_Synonyms>
5-(Benzylsulfonyl)-2-{[2-(dimethylamino)ethyl](ethyl)amino}-N,N-Diethyl-4-(4-phenylpiperidin-1-yl)benzamide trifluoroacetate (1:1)

> <TS_CASRN>
328392-46-7_1

> <CASRN_ChemName_Relationship>
CAS for parent

> <TS_Description>
single chemical compound

> <ChemNote>
parent [328392-46-7]

> <STRUCTURE_Shown>
tested chemical

> <STRUCTURE_Formula>
C37H49F3N4O5S

> <STRUCTURE_MW>
718.869

> <STRUCTURE_ChemType>
defined organic

> <STRUCTURE_DefinedOrganicForm>
complex

> <STRUCTURE_IUPAC>
5-(benzylsulfonyl)-2-{[2-(dimethylamino)ethyl](ethyl)amino}-N,N-diethyl-4-(4-phenylpiperidin-1-yl)benzamide trifluoroacetate (1:1)

> <STRUCTURE_SMILES>
FC(F)(F)C(=O)O.CCN(CC)C(=O)c1cc(c(cc1N(CC)CCN(C)C)N2CCC(CC2)c3ccccc3)S(=O)(=O)Cc4ccccc4

> <STRUCTURE_SMILES_Desalt>
CCN(CC)C(=O)c1cc(c(cc1N(CC)CCN(C)C)N2CCC(CC2)c3ccccc3)S(=O)(=O)Cc4ccccc4

> <Substance_modify_yyyymmdd>
20130911

$$$$
