3286-46-2
ChemmineR-0915142007XD

 48 49  0  0  0  0  0  0  0  0  1 V2000
    0.0000   -2.3239    0.0000 N   0  0  0  0  0  0  0  0  0  0  0  0
   14.6155   -2.3239    0.0000 N   0  0  0  0  0  0  0  0  0  0  0  0
    1.9877   -3.4931    0.0000 C   0  0  0  0  0  0  0  0  0  0  0  0
   12.6132   -3.4931    0.0000 C   0  0  0  0  0  0  0  0  0  0  0  0
    0.6577   -3.4931    0.0000 C   0  0  0  0  0  0  0  0  0  0  0  0
   13.9578   -3.4931    0.0000 C   0  0  0  0  0  0  0  0  0  0  0  0
    3.9900   -4.6185    0.0000 N   0  0  0  0  0  0  0  0  0  0  0  0
   10.6255   -4.6185    0.0000 N   0  0  0  0  0  0  0  0  0  0  0  0
    9.9531   -5.7877    0.0000 C   0  0  0  0  0  0  0  0  0  0  0  0
    4.6477   -5.7877    0.0000 C   0  0  0  0  0  0  0  0  0  0  0  0
    8.6231   -5.7877    0.0000 C   0  0  0  0  0  0  0  0  0  0  0  0
    5.9631   -5.7877    0.0000 C   0  0  0  0  0  0  0  0  0  0  0  0
    2.6600   -4.6185    0.0000 C   0  0  0  0  0  0  0  0  0  0  0  0
   11.9555   -4.6185    0.0000 C   0  0  0  0  0  0  0  0  0  0  0  0
    7.9654   -4.6185    0.0000 S   0  0  0  0  0  0  0  0  0  0  0  0
    6.6500   -4.6185    0.0000 S   0  0  0  0  0  0  0  0  0  0  0  0
   12.6132   -1.1839    0.0000 N   0  0  0  0  0  0  0  0  0  0  0  0
    1.9877   -1.1839    0.0000 N   0  0  0  0  0  0  0  0  0  0  0  0
    0.6577   -1.1839    0.0000 C   0  0  0  0  0  0  0  0  0  0  0  0
   13.9578   -1.1839    0.0000 C   0  0  0  0  0  0  0  0  0  0  0  0
    9.9531   -3.4931    0.0000 C   0  0  0  0  0  0  0  0  0  0  0  0
    4.6477   -3.4931    0.0000 C   0  0  0  0  0  0  0  0  0  0  0  0
    2.6600   -2.3239    0.0000 C   0  0  0  0  0  0  0  0  0  0  0  0
   11.9555   -2.3239    0.0000 C   0  0  0  0  0  0  0  0  0  0  0  0
   10.6255   -2.3239    0.0000 O   0  0  0  0  0  0  0  0  0  0  0  0
    3.9900   -2.3239    0.0000 O   0  0  0  0  0  0  0  0  0  0  0  0
    0.0000   -4.6185    0.0000 N   0  0  0  0  0  0  0  0  0  0  0  0
   14.6155   -4.6185    0.0000 N   0  0  0  0  0  0  0  0  0  0  0  0
    7.9654   -6.9424    0.0000 C   0  0  0  0  0  0  0  0  0  0  0  0
    6.6500   -6.9424    0.0000 C   0  0  0  0  0  0  0  0  0  0  0  0
   10.6255   -6.9424    0.0000 C   0  0  0  0  0  0  0  0  0  0  0  0
    3.9900   -6.9424    0.0000 C   0  0  0  0  0  0  0  0  0  0  0  0
    9.9531   -8.0970    0.0000 O   0  0  0  0  0  0  0  0  0  0  0  0
    4.6477   -8.0970    0.0000 O   0  0  0  0  0  0  0  0  0  0  0  0
   14.6155    0.0000    0.0000 C   0  0  0  0  0  0  0  0  0  0  0  0
    0.0000    0.0000    0.0000 C   0  0  0  0  0  0  0  0  0  0  0  0
    5.9631   -8.0970    0.0000 C   0  0  0  0  0  0  0  0  0  0  0  0
    8.6231   -8.0970    0.0000 C   0  0  0  0  0  0  0  0  0  0  0  0
   10.6108   -9.2662    0.0000 C   0  0  0  0  0  0  0  0  0  0  0  0
    9.9239  -10.3770    0.0000 O   0  0  0  0  0  0  0  0  0  0  0  0
   11.9409   -9.2662    0.0000 C   0  0  0  0  0  0  0  0  0  0  0  0
   12.5986  -10.4208    0.0000 C   0  0  0  0  0  0  0  0  0  0  0  0
   12.6132   -8.1116    0.0000 C   0  0  0  0  0  0  0  0  0  0  0  0
    3.9900   -9.2662    0.0000 C   0  0  0  0  0  0  0  0  0  0  0  0
    4.6623  -10.3770    0.0000 O   0  0  0  0  0  0  0  0  0  0  0  0
    2.6600   -9.2662    0.0000 C   0  0  0  0  0  0  0  0  0  0  0  0
    2.0023  -10.4208    0.0000 C   0  0  0  0  0  0  0  0  0  0  0  0
    1.9877   -8.1116    0.0000 C   0  0  0  0  0  0  0  0  0  0  0  0
  1  5  1  0  0  0  0
  1 19  2  0  0  0  0
  2  6  1  0  0  0  0
  2 20  2  0  0  0  0
  3  5  2  0  0  0  0
  3 13  1  0  0  0  0
  3 23  1  0  0  0  0
  4 14  1  0  0  0  0
  4  6  2  0  0  0  0
  4 24  1  0  0  0  0
  5 27  1  0  0  0  0
  6 28  1  0  0  0  0
  7 13  1  0  0  0  0
  7 10  1  0  0  0  0
  7 22  1  0  0  0  0
  8  9  1  0  0  0  0
  8 14  1  0  0  0  0
  8 21  1  0  0  0  0
  9 11  2  0  0  0  0
  9 31  1  0  0  0  0
 10 12  2  0  0  0  0
 10 32  1  0  0  0  0
 11 15  1  0  0  0  0
 11 29  1  0  0  0  0
 12 16  1  0  0  0  0
 12 30  1  0  0  0  0
 15 16  1  0  0  0  0
 17 24  2  0  0  0  0
 17 20  1  0  0  0  0
 18 19  1  0  0  0  0
 18 23  2  0  0  0  0
 19 36  1  0  0  0  0
 20 35  1  0  0  0  0
 21 25  2  0  0  0  0
 22 26  2  0  0  0  0
 29 38  1  0  0  0  0
 30 37  1  0  0  0  0
 33 38  1  0  0  0  0
 33 39  1  0  0  0  0
 34 37  1  0  0  0  0
 34 44  1  0  0  0  0
 39 40  2  0  0  0  0
 39 41  1  0  0  0  0
 41 42  1  0  0  0  0
 41 43  1  0  0  0  0
 44 45  2  0  0  0  0
 44 46  1  0  0  0  0
 46 47  1  0  0  0  0
 46 48  1  0  0  0  0
M  END
> <ID>
11852

> <Formula>
C32H46N8O6S2

> <FW>
702.8876

> <DSSTox_CID>
26641

> <DSSTox_RID>
81787

> <DSSTox_GSID>
46641

> <DSSTox_FileID_Sort>
6468

> <TS_ChemName>
Bisibutiamine

> <TS_ChemName_Synonyms>


> <TS_CASRN>
3286-46-2

> <CASRN_ChemName_Relationship>
primary

> <TS_Description>
single chemical compound

> <ChemNote>


> <STRUCTURE_Shown>
tested chemical

> <STRUCTURE_Formula>
C32H46N8O6S2

> <STRUCTURE_MW>
702.8876

> <STRUCTURE_ChemType>
defined organic

> <STRUCTURE_DefinedOrganicForm>
parent

> <STRUCTURE_IUPAC>
disulfanediylbis(2Z)-2-{[(4-amino-2-methylpyrimidin-5-yl)methyl](formyl)amino}pent-2-ene-3,5-diyl bis(2-methylpropanoate)

> <STRUCTURE_SMILES>
Nc2nc(C)ncc2CN(C=O)C(/C)=C(/CCOC(=O)C(C)C)SSC(/CCOC(=O)C(C)C)=C(/C)N(C=O)Cc1cnc(C)nc1N

> <STRUCTURE_SMILES_Desalt>
Nc2nc(C)ncc2CN(C=O)C(/C)=C(/CCOC(=O)C(C)C)SSC(/CCOC(=O)C(C)C)=C(/C)N(C=O)Cc1cnc(C)nc1N

> <Substance_modify_yyyymmdd>
20110808

$$$$
