32887-03-9
ChemmineR-0915142007XD

 33 34  0  0  1  0  0  0  0  0  1 V2000
    8.2189   -2.5202    0.0000 N    0  0  0  0  0  0  0  0  0  0  0  0
    8.2189   -1.0595    0.0000 C    0  0  0  0  0  0  0  0  0  0  0  0
    6.7421   -2.5202    0.0000 C    0  0  0  0  0  0  0  0  0  0  0  0
    6.7421   -1.0595    0.0000 C    0  0  0  0  0  0  0  0  0  0  0  0
    9.5834   -2.9858    0.0000 C    0  0  0  0  0  0  0  0  0  0  0  0
    9.6155   -0.6421    0.0000 S    0  0  0  0  0  0  0  0  0  0  0  0
   10.4341   -1.7818    0.0000 C    0  0  0  0  0  0  0  0  0  0  0  0
    9.5994   -4.3823    0.0000 C    0  0  0  0  0  0  0  0  0  0  0  0
   13.9175   -4.3823    0.0000 C    0  0  0  0  0  0  0  0  0  0  0  0
    5.9394   -3.4352    0.0000 O    0  0  0  0  0  0  0  0  0  0  0  0
   14.9930   -5.0084    0.0000 C    0  0  0  0  0  0  0  0  0  0  0  0
   10.6749   -5.0084    0.0000 O    0  0  0  0  0  0  0  0  0  0  0  0
   12.8260   -5.0084    0.0000 O    0  0  0  0  0  0  0  0  0  0  0  0
   11.7344   -4.3823    0.0000 C    0  0  0  0  0  0  0  0  0  0  0  0
    8.5078   -5.0084    0.0000 O    0  0  0  0  0  0  0  0  0  0  0  0
   13.9175   -3.1302    0.0000 O    0  0  0  0  0  0  0  0  0  0  0  0
   11.2689   -0.6260    0.0000 C    0  0  0  0  0  0  0  0  0  0  0  0
   11.3331   -2.8895    0.0000 C    0  0  0  0  0  0  0  0  0  0  0  0
   15.6030   -3.9168    0.0000 C    0  0  0  0  0  0  0  0  0  0  0  0
   16.0525   -5.6344    0.0000 C    0  0  0  0  0  0  0  0  0  0  0  0
   14.3670   -6.1000    0.0000 C    0  0  0  0  0  0  0  0  0  0  0  0
    8.2189   -0.0803    0.0000 H    0  0  0  0  0  0  0  0  0  0  0  0
    6.7421    0.0000    0.0000 H    0  0  0  0  0  0  0  0  0  0  0  0
    5.3294   -1.0595    0.0000 N    0  0  0  0  0  0  0  0  0  0  0  0
    4.1576   -1.0595    0.0000 C    0  0  0  0  0  0  0  0  0  0  0  0
    3.0981   -1.0434    0.0000 N    0  0  0  0  0  0  0  0  0  0  0  0
    2.0066   -0.1284    0.0000 C    0  0  0  0  0  0  0  0  0  0  0  0
    3.0981   -2.4400    0.0000 C    0  0  0  0  0  0  0  0  0  0  0  0
    2.0066   -3.3229    0.0000 C    0  0  0  0  0  0  0  0  0  0  0  0
    0.6260   -0.4174    0.0000 C    0  0  0  0  0  0  0  0  0  0  0  0
    0.6100   -3.0018    0.0000 C    0  0  0  0  0  0  0  0  0  0  0  0
    0.0000   -1.7016    0.0000 C    0  0  0  0  0  0  0  0  0  0  0  0
    4.1094   -4.7034    0.0000 Cl   0  0  0  0  0  0  0  0  0  0  0  0
  1  2  1  0  0  0  0
  1  3  1  0  0  0  0
  1  5  1  0  0  0  0
  2  6  1  0  0  0  0
  2 22  1  6  0  0  0
  2  4  1  0  0  0  0
  3  4  1  0  0  0  0
  3 10  2  0  0  0  0
  4 23  1  6  0  0  0
  4 24  1  1  0  0  0
  5  7  1  0  0  0  0
  5  8  1  6  0  0  0
  6  7  1  0  0  0  0
  7 17  1  0  0  0  0
  7 18  1  0  0  0  0
  8 12  1  0  0  0  0
  8 15  2  0  0  0  0
  9 13  1  0  0  0  0
  9 11  1  0  0  0  0
  9 16  2  0  0  0  0
 11 19  1  0  0  0  0
 11 20  1  0  0  0  0
 11 21  1  0  0  0  0
 12 14  1  0  0  0  0
 13 14  1  0  0  0  0
 24 25  2  0  0  0  0
 25 26  1  0  0  0  0
 26 27  1  0  0  0  0
 26 28  1  0  0  0  0
 27 30  1  0  0  0  0
 28 29  1  0  0  0  0
 29 31  1  0  0  0  0
 30 32  1  0  0  0  0
 31 32  1  0  0  0  0
M  END
> <ID>
10957

> <Formula>
C21H34ClN3O5S

> <FW>
476.0298 (439.5688+36.4609)

> <DSSTox_CID>
25453

> <DSSTox_RID>
80889

> <DSSTox_GSID>
45453

> <DSSTox_FileID_Sort>
5570

> <TS_ChemName>
Pivmecillinam hydrochloride

> <TS_ChemName_Synonyms>


> <TS_CASRN>
32887-03-9

> <CASRN_ChemName_Relationship>
primary

> <TS_Description>
single chemical compound

> <ChemNote>
parent [32886-97-8]

> <STRUCTURE_Shown>
tested chemical

> <STRUCTURE_Formula>
C21H34ClN3O5S

> <STRUCTURE_MW>
476.0298

> <STRUCTURE_ChemType>
defined organic

> <STRUCTURE_DefinedOrganicForm>
complex

> <STRUCTURE_IUPAC>
[(2,2-dimethylpropanoyl)oxy]methyl (2S,5R,6R)-6-[(azepan-1-ylmethylidene)amino]-3,3-dimethyl-7-oxo-4-thia-1-azabicyclo[3.2.0]heptane-2-carboxylate hydrochloride (1:1)

> <STRUCTURE_SMILES>
Cl.CC(C)(C)C(=O)OCOC(=O)[C@@H]2N3C(=O)[C@@H](/N=C/N1CCCCCC1)[C@H]3SC2(C)C

> <STRUCTURE_SMILES_Desalt>
CC(C)(C)C(=O)OCOC(=O)[C@@H]2N3C(=O)[C@@H](/N=C/N1CCCCCC1)[C@H]3SC2(C)C

> <Substance_modify_yyyymmdd>
20100107

$$$$
