329-01-1
ChemmineR-0915142007XD

 13 13  0  0  0  0  0  0  0  0  1 V2000
    4.6630   -3.4468    0.0000 C   0  0  0  0  0  0  0  0  0  0  0  0
    5.3215   -4.6036    0.0000 C   0  0  0  0  0  0  0  0  0  0  0  0
    4.6630   -5.7546    0.0000 C   0  0  0  0  0  0  0  0  0  0  0  0
    3.3341   -5.7546    0.0000 C   0  0  0  0  0  0  0  0  0  0  0  0
    2.6637   -4.6036    0.0000 C   0  0  0  0  0  0  0  0  0  0  0  0
    3.3341   -3.4468    0.0000 C   0  0  0  0  0  0  0  0  0  0  0  0
    4.6630   -1.1568    0.0000 C   0  0  0  0  0  0  0  0  0  0  0  0
    5.3215   -2.3078    0.0000 N   0  0  0  0  0  0  0  0  0  0  0  0
    3.9926    0.0000    0.0000 O   0  0  0  0  0  0  0  0  0  0  0  0
    1.3289   -4.6036    0.0000 C   0  0  0  0  0  0  0  0  0  0  0  0
    0.0000   -4.6036    0.0000 F   0  0  0  0  0  0  0  0  0  0  0  0
    1.3289   -5.9325    0.0000 F   0  0  0  0  0  0  0  0  0  0  0  0
    1.3289   -3.2688    0.0000 F   0  0  0  0  0  0  0  0  0  0  0  0
  1  2  2  0  0  0  0
  1  6  1  0  0  0  0
  1  8  1  0  0  0  0
  2  3  1  0  0  0  0
  3  4  2  0  0  0  0
  4  5  1  0  0  0  0
  5  6  2  0  0  0  0
  5 10  1  0  0  0  0
  7  8  2  0  0  0  0
  7  9  2  0  0  0  0
 10 11  1  0  0  0  0
 10 12  1  0  0  0  0
 10 13  1  0  0  0  0
M  END
> <ID>
4953

> <Formula>
C8H4F3NO

> <FW>
187.1187

> <DSSTox_CID>
7143

> <DSSTox_RID>
78323

> <DSSTox_GSID>
27143

> <DSSTox_FileID_Sort>
3006

> <TS_ChemName>
1-Isocyanato-3-(trifluoromethyl)benzene

> <TS_ChemName_Synonyms>


> <TS_CASRN>
329-01-1

> <CASRN_ChemName_Relationship>
primary

> <TS_Description>
single chemical compound

> <ChemNote>


> <STRUCTURE_Shown>
tested chemical

> <STRUCTURE_Formula>
C8H4F3NO

> <STRUCTURE_MW>
187.1187

> <STRUCTURE_ChemType>
defined organic

> <STRUCTURE_DefinedOrganicForm>
parent

> <STRUCTURE_IUPAC>
1-isocyanato-3-(trifluoromethyl)benzene

> <STRUCTURE_SMILES>
O=C=N/c1cc(ccc1)C(F)(F)F

> <STRUCTURE_SMILES_Desalt>
O=C=N/c1cc(ccc1)C(F)(F)F

> <Substance_modify_yyyymmdd>
20080429

$$$$
