3290-92-4
ChemmineR-0915142007XD

 24 23  0  0  0  0  0  0  0  0  1 V2000
    5.3225   -5.3225    0.0000 C   0  0  0  0  0  0  0  0  0  0  0  0
    6.6531   -5.3225    0.0000 C   0  0  0  0  0  0  0  0  0  0  0  0
    7.3238   -4.1728    0.0000 C   0  0  0  0  0  0  0  0  0  0  0  0
    4.1728   -3.3212    0.0000 O   0  0  0  0  0  0  0  0  0  0  0  0
    5.3225   -3.9919    0.0000 C   0  0  0  0  0  0  0  0  0  0  0  0
    6.4722   -7.3238    0.0000 O   0  0  0  0  0  0  0  0  0  0  0  0
    5.3225   -6.6531    0.0000 C   0  0  0  0  0  0  0  0  0  0  0  0
    3.3319   -4.1728    0.0000 O   0  0  0  0  0  0  0  0  0  0  0  0
    3.9919   -5.3225    0.0000 C   0  0  0  0  0  0  0  0  0  0  0  0
    4.1728   -1.9906    0.0000 C   0  0  0  0  0  0  0  0  0  0  0  0
    3.0125   -1.3306    0.0000 C   0  0  0  0  0  0  0  0  0  0  0  0
    5.3225   -1.3306    0.0000 O   0  0  0  0  0  0  0  0  0  0  0  0
    3.0125    0.0000    0.0000 C   0  0  0  0  0  0  0  0  0  0  0  0
    1.8735   -1.9906    0.0000 C   0  0  0  0  0  0  0  0  0  0  0  0
    6.4722   -8.6544    0.0000 C   0  0  0  0  0  0  0  0  0  0  0  0
    7.6325   -9.3144    0.0000 C   0  0  0  0  0  0  0  0  0  0  0  0
    5.3225   -9.3144    0.0000 O   0  0  0  0  0  0  0  0  0  0  0  0
    7.6325  -10.6450    0.0000 C   0  0  0  0  0  0  0  0  0  0  0  0
    8.7821   -8.6544    0.0000 C   0  0  0  0  0  0  0  0  0  0  0  0
    2.0013   -4.1728    0.0000 C   0  0  0  0  0  0  0  0  0  0  0  0
    1.3306   -5.3225    0.0000 C   0  0  0  0  0  0  0  0  0  0  0  0
    1.3306   -3.0125    0.0000 O   0  0  0  0  0  0  0  0  0  0  0  0
    0.0000   -5.3225    0.0000 C   0  0  0  0  0  0  0  0  0  0  0  0
    2.0013   -6.4722    0.0000 C   0  0  0  0  0  0  0  0  0  0  0  0
  1  2  1  0  0  0  0
  1  5  1  0  0  0  0
  1  7  1  0  0  0  0
  1  9  1  0  0  0  0
  2  3  1  0  0  0  0
  4  5  1  0  0  0  0
  4 10  1  0  0  0  0
  6  7  1  0  0  0  0
  6 15  1  0  0  0  0
  8  9  1  0  0  0  0
  8 20  1  0  0  0  0
 10 11  1  0  0  0  0
 10 12  2  0  0  0  0
 11 13  2  0  0  0  0
 11 14  1  0  0  0  0
 15 16  1  0  0  0  0
 15 17  2  0  0  0  0
 16 18  2  0  0  0  0
 16 19  1  0  0  0  0
 20 21  1  0  0  0  0
 20 22  2  0  0  0  0
 21 23  2  0  0  0  0
 21 24  1  0  0  0  0
M  END
> <ID>
5224

> <Formula>
C18H26O6

> <FW>
338.3954

> <DSSTox_CID>
7530

> <DSSTox_RID>
78492

> <DSSTox_GSID>
27530

> <DSSTox_FileID_Sort>
3175

> <TS_ChemName>
Trimethylolpropane trimethacrylate

> <TS_ChemName_Synonyms>
Trimethylolpropane trimethacrylate (2-Propenoic acid, 2-methyl-, 2-ethyl-2-[[(2-methyl-1-oxo-2-propenyl)oxy]methyl]-1,3-propanediyl ester)

> <TS_CASRN>
3290-92-4

> <CASRN_ChemName_Relationship>
primary

> <TS_Description>
single chemical compound

> <ChemNote>


> <STRUCTURE_Shown>
tested chemical

> <STRUCTURE_Formula>
C18H26O6

> <STRUCTURE_MW>
338.3954

> <STRUCTURE_ChemType>
defined organic

> <STRUCTURE_DefinedOrganicForm>
parent

> <STRUCTURE_IUPAC>
2,2-bis{[(2-methylacryloyl)oxy]methyl}butyl 2-methylprop-2-enoate

> <STRUCTURE_SMILES>
O=C(OCC(COC(=O)C(=C)C)(CC)COC(=O)C(=C)C)C(=C)C

> <STRUCTURE_SMILES_Desalt>
O=C(OCC(COC(=O)C(=C)C)(CC)COC(=O)C(=C)C)C(=C)C

> <Substance_modify_yyyymmdd>
20080429

$$$$
