32986-56-4
ChemmineR-0915142007XD

 32 34  0  0  1  0  0  0  0  0  1 V2000
    5.7468   -5.9656    0.0000 C   0  0  0  0  0  0  0  0  0  0  0  0
    5.7468   -7.3131    0.0000 C   0  0  0  0  0  0  0  0  0  0  0  0
    4.5951   -5.3207    0.0000 C   0  0  0  0  0  0  0  0  0  0  0  0
    4.5951   -7.9810    0.0000 C   0  0  0  0  0  0  0  0  0  0  0  0
    3.4550   -5.9656    0.0000 C   0  0  0  0  0  0  0  0  0  0  0  0
    3.4550   -7.3131    0.0000 C   0  0  0  0  0  0  0  0  0  0  0  0
    4.5951   -3.9848    0.0000 O   0  0  0  0  0  0  0  0  0  0  0  0
    6.9215   -5.2977    0.0000 O   0  0  0  0  0  0  0  0  0  0  0  0
    2.2918   -5.3207    0.0000 O   0  0  0  0  0  0  0  0  0  0  0  0
    2.2918   -7.9810    0.0000 N   0  0  0  0  0  0  0  0  0  0  0  0
    6.8985   -7.9810    0.0000 N   0  0  0  0  0  0  0  0  0  0  0  0
    8.0617   -5.9656    0.0000 C   0  0  0  0  0  0  0  0  0  0  0  0
    9.2248   -5.2977    0.0000 C   0  0  0  0  0  0  0  0  0  0  0  0
    8.0617   -7.2900    0.0000 O   0  0  0  0  0  0  0  0  0  0  0  0
   10.3650   -5.9656    0.0000 C   0  0  0  0  0  0  0  0  0  0  0  0
    9.2248   -7.9465    0.0000 C   0  0  0  0  0  0  0  0  0  0  0  0
   10.3650   -7.2900    0.0000 C   0  0  0  0  0  0  0  0  0  0  0  0
    9.2248   -3.9617    0.0000 O   0  0  0  0  0  0  0  0  0  0  0  0
   11.5167   -5.2977    0.0000 N   0  0  0  0  0  0  0  0  0  0  0  0
   11.5167   -7.9465    0.0000 O   0  0  0  0  0  0  0  0  0  0  0  0
    9.2248   -9.2824    0.0000 C   0  0  0  0  0  0  0  0  0  0  0  0
   10.3650   -9.9504    0.0000 O   0  0  0  0  0  0  0  0  0  0  0  0
    2.2918   -3.9848    0.0000 C   0  0  0  0  0  0  0  0  0  0  0  0
    1.1517   -3.3053    0.0000 C   0  0  0  0  0  0  0  0  0  0  0  0
    3.4550   -3.3053    0.0000 O   0  0  0  0  0  0  0  0  0  0  0  0
    1.1517   -1.9809    0.0000 C   0  0  0  0  0  0  0  0  0  0  0  0
    3.4550   -1.9809    0.0000 C   0  0  0  0  0  0  0  0  0  0  0  0
    2.2918   -1.3359    0.0000 C   0  0  0  0  0  0  0  0  0  0  0  0
    0.0000   -3.9848    0.0000 N   0  0  0  0  0  0  0  0  0  0  0  0
    2.2918    0.0000    0.0000 O   0  0  0  0  0  0  0  0  0  0  0  0
    4.5951   -1.3359    0.0000 C   0  0  0  0  0  0  0  0  0  0  0  0
    4.5951    0.0000    0.0000 N   0  0  0  0  0  0  0  0  0  0  0  0
  1  2  1  0  0  0  0
  1  3  1  0  0  0  0
  1  8  1  1  0  0  0
  2  4  1  0  0  0  0
  2 11  1  6  0  0  0
  3  5  1  0  0  0  0
  3  7  1  6  0  0  0
  4  6  1  0  0  0  0
  5  6  1  0  0  0  0
  5  9  1  1  0  0  0
  6 10  1  6  0  0  0
 12  8  1  6  0  0  0
 23  9  1  6  0  0  0
 12 13  1  0  0  0  0
 12 14  1  0  0  0  0
 13 15  1  0  0  0  0
 13 18  1  6  0  0  0
 14 16  1  0  0  0  0
 15 17  1  0  0  0  0
 15 19  1  1  0  0  0
 16 17  1  0  0  0  0
 16 21  1  1  0  0  0
 17 20  1  6  0  0  0
 21 22  1  0  0  0  0
 23 24  1  0  0  0  0
 23 25  1  0  0  0  0
 24 26  1  0  0  0  0
 24 29  1  6  0  0  0
 25 27  1  0  0  0  0
 26 28  1  0  0  0  0
 27 28  1  0  0  0  0
 27 31  1  1  0  0  0
 28 30  1  6  0  0  0
 31 32  1  0  0  0  0
M  END
> <ID>
3288

> <Formula>
C18H37N5O9

> <FW>
467.5145

> <DSSTox_CID>
3680

> <DSSTox_RID>
77144

> <DSSTox_GSID>
23680

> <DSSTox_FileID_Sort>
1827

> <TS_ChemName>
Tobramycin

> <TS_ChemName_Synonyms>


> <TS_CASRN>
32986-56-4

> <CASRN_ChemName_Relationship>
primary

> <TS_Description>
single chemical compound

> <ChemNote>
stereochem

> <STRUCTURE_Shown>
tested chemical

> <STRUCTURE_Formula>
C18H37N5O9

> <STRUCTURE_MW>
467.5145

> <STRUCTURE_ChemType>
defined organic

> <STRUCTURE_DefinedOrganicForm>
parent

> <STRUCTURE_IUPAC>
(1S,2S,3R,4S,6R)-4,6-diamino-3-[(2,6-diamino-2,3,6-trideoxy-alpha-D-ribo-hexopyranosyl)oxy]-2-hydroxycyclohexyl 3-amino-3-deoxy-alpha-D-glucopyranoside

> <STRUCTURE_SMILES>
N[C@@H]3C[C@H](O)[C@@H](CN)O[C@@H]3O[C@H]2[C@H](O)[C@@H](O[C@H]1O[C@H](CO)[C@@H](O)[C@H](N)[C@H]1O)[C@H](N)C[C@@H]2N

> <STRUCTURE_SMILES_Desalt>
N[C@@H]3C[C@H](O)[C@@H](CN)O[C@@H]3O[C@H]2[C@H](O)[C@@H](O[C@H]1O[C@H](CO)[C@@H](O)[C@H](N)[C@H]1O)[C@H](N)C[C@@H]2N

> <Substance_modify_yyyymmdd>
20080429

$$$$
