33007-83-9
ChemmineR-0915142007XD

 24 23  0  0  0  0  0  0  0  0  1 V2000
    6.8986   -4.6037    0.0000 C   0  0  0  0  0  0  0  0  0  0  0  0
    7.5760   -5.7650    0.0000 C   0  0  0  0  0  0  0  0  0  0  0  0
    8.0599   -3.9401    0.0000 C   0  0  0  0  0  0  0  0  0  0  0  0
    5.7512   -5.2673    0.0000 C   0  0  0  0  0  0  0  0  0  0  0  0
    6.2489   -3.4562    0.0000 C   0  0  0  0  0  0  0  0  0  0  0  0
    8.9032   -5.7650    0.0000 C   0  0  0  0  0  0  0  0  0  0  0  0
    4.6037   -4.6037    0.0000 O   0  0  0  0  0  0  0  0  0  0  0  0
    4.9217   -3.4562    0.0000 O   0  0  0  0  0  0  0  0  0  0  0  0
    9.2074   -4.6037    0.0000 O   0  0  0  0  0  0  0  0  0  0  0  0
   10.3687   -3.9401    0.0000 C   0  0  0  0  0  0  0  0  0  0  0  0
   11.5161   -4.6037    0.0000 C   0  0  0  0  0  0  0  0  0  0  0  0
   10.3687   -2.5991    0.0000 O   0  0  0  0  0  0  0  0  0  0  0  0
    3.4562   -5.2673    0.0000 C   0  0  0  0  0  0  0  0  0  0  0  0
    2.3088   -4.6037    0.0000 C   0  0  0  0  0  0  0  0  0  0  0  0
    1.1475   -5.2673    0.0000 C   0  0  0  0  0  0  0  0  0  0  0  0
    0.0000   -4.6037    0.0000 S   0  0  0  0  0  0  0  0  0  0  0  0
    4.2442   -2.2949    0.0000 C   0  0  0  0  0  0  0  0  0  0  0  0
    4.9217   -1.1475    0.0000 C   0  0  0  0  0  0  0  0  0  0  0  0
    2.9171   -2.2949    0.0000 O   0  0  0  0  0  0  0  0  0  0  0  0
    6.2489   -1.1475    0.0000 C   0  0  0  0  0  0  0  0  0  0  0  0
    6.8986    0.0000    0.0000 S   0  0  0  0  0  0  0  0  0  0  0  0
    3.4562   -6.5945    0.0000 O   0  0  0  0  0  0  0  0  0  0  0  0
   12.6774   -3.9401    0.0000 C   0  0  0  0  0  0  0  0  0  0  0  0
   13.8249   -4.6037    0.0000 S   0  0  0  0  0  0  0  0  0  0  0  0
  1  2  1  0  0  0  0
  1  3  1  0  0  0  0
  1  4  1  0  0  0  0
  1  5  1  0  0  0  0
  2  6  1  0  0  0  0
  3  9  1  0  0  0  0
  4  7  1  0  0  0  0
  5  8  1  0  0  0  0
  7 13  1  0  0  0  0
  8 17  1  0  0  0  0
  9 10  1  0  0  0  0
 10 11  1  0  0  0  0
 10 12  2  0  0  0  0
 11 23  1  0  0  0  0
 13 14  1  0  0  0  0
 13 22  2  0  0  0  0
 14 15  1  0  0  0  0
 15 16  1  0  0  0  0
 17 18  1  0  0  0  0
 17 19  2  0  0  0  0
 18 20  1  0  0  0  0
 20 21  1  0  0  0  0
 23 24  1  0  0  0  0
M  END
> <ID>
10566

> <Formula>
C15H26O6S3

> <FW>
398.5583

> <DSSTox_CID>
24919

> <DSSTox_RID>
80586

> <DSSTox_GSID>
44919

> <DSSTox_FileID_Sort>
5268

> <TS_ChemName>
2,2-Bis{[(3-sulfanylpropanoyl)oxy]methyl}butyl 3-sulfanylpropanoate

> <TS_ChemName_Synonyms>
2,2-Bis{[(3-sulfanylpropanoyl)oxy]methyl}butyl 3-sulfanylpropanoate (Propanoic acid, 3-mercapto-, 2-ethyl-2-[(3-mercapto-1-oxopropoxy)methyl]-1,3-propanediyl ester)

> <TS_CASRN>
33007-83-9

> <CASRN_ChemName_Relationship>
primary

> <TS_Description>
single chemical compound

> <ChemNote>


> <STRUCTURE_Shown>
tested chemical

> <STRUCTURE_Formula>
C15H26O6S3

> <STRUCTURE_MW>
398.5583

> <STRUCTURE_ChemType>
defined organic

> <STRUCTURE_DefinedOrganicForm>
parent

> <STRUCTURE_IUPAC>
2,2-bis{[(3-sulfanylpropanoyl)oxy]methyl}butyl 3-sulfanylpropanoate

> <STRUCTURE_SMILES>
SCCC(=O)OCC(COC(=O)CCS)(COC(=O)CCS)CC

> <STRUCTURE_SMILES_Desalt>
SCCC(=O)OCC(COC(=O)CCS)(COC(=O)CCS)CC

> <Substance_modify_yyyymmdd>
20091116

$$$$
