330198-91-9
ChemmineR-0915142007XD

 35 34  0  0  0  0  0  0  0  0  1 V2000
    4.6132   -5.9820    0.0000 C   0  0  0  0  0  0  0  0  0  0  0  0
    4.6132   -7.3000    0.0000 C   0  0  0  0  0  0  0  0  0  0  0  0
    3.4726   -7.9844    0.0000 C   0  0  0  0  0  0  0  0  0  0  0  0
    5.7792   -7.9844    0.0000 O   0  0  0  0  0  0  0  0  0  0  0  0
    6.9198   -7.3000    0.0000 C   0  0  0  0  0  0  0  0  0  0  0  0
    8.0858   -7.9844    0.0000 C   0  0  0  0  0  0  0  0  0  0  0  0
    6.9198   -5.9820    0.0000 O   0  0  0  0  0  0  0  0  0  0  0  0
    5.7792   -5.3229    0.0000 O   0  0  0  0  0  0  0  0  0  0  0  0
    5.7792   -3.9795    0.0000 C   0  0  0  0  0  0  0  0  0  0  0  0
    4.6132   -3.3205    0.0000 O   0  0  0  0  0  0  0  0  0  0  0  0
    6.9198   -3.3205    0.0000 C   0  0  0  0  0  0  0  0  0  0  0  0
    8.0858   -3.9795    0.0000 C   0  0  0  0  0  0  0  0  0  0  0  0
    9.2011   -3.3205    0.0000 C   0  0  0  0  0  0  0  0  0  0  0  0
   10.3671   -3.9795    0.0000 C   0  0  0  0  0  0  0  0  0  0  0  0
   11.5077   -3.3205    0.0000 C   0  0  0  0  0  0  0  0  0  0  0  0
   12.6737   -3.9795    0.0000 C   0  0  0  0  0  0  0  0  0  0  0  0
   13.8397   -3.3205    0.0000 C   0  0  0  0  0  0  0  0  0  0  0  0
   14.9803   -3.9795    0.0000 C   0  0  0  0  0  0  0  0  0  0  0  0
   16.1463   -3.3205    0.0000 C   0  0  0  0  0  0  0  0  0  0  0  0
   17.2869   -3.9795    0.0000 C   0  0  0  0  0  0  0  0  0  0  0  0
   18.4529   -3.3205    0.0000 C   0  0  0  0  0  0  0  0  0  0  0  0
   18.4529   -1.9771    0.0000 O   0  0  0  0  0  0  0  0  0  0  0  0
   19.5682   -1.3181    0.0000 C   0  0  0  0  0  0  0  0  0  0  0  0
   19.5682    0.0000    0.0000 O   0  0  0  0  0  0  0  0  0  0  0  0
   20.7341   -1.9771    0.0000 C   0  0  0  0  0  0  0  0  0  0  0  0
   19.5682   -3.9795    0.0000 C   0  0  0  0  0  0  0  0  0  0  0  0
    2.3066   -7.3000    0.0000 O   0  0  0  0  0  0  0  0  0  0  0  0
    1.1660   -7.9844    0.0000 C   0  0  0  0  0  0  0  0  0  0  0  0
    1.1660   -9.3025    0.0000 O   0  0  0  0  0  0  0  0  0  0  0  0
    0.0000   -7.3000    0.0000 C   0  0  0  0  0  0  0  0  0  0  0  0
   20.7341   -3.3205    0.0000 C   0  0  0  0  0  0  0  0  0  0  0  0
   21.8748   -3.9795    0.0000 C   0  0  0  0  0  0  0  0  0  0  0  0
   23.0408   -3.3205    0.0000 C   0  0  0  0  0  0  0  0  0  0  0  0
   24.1814   -3.9795    0.0000 C   0  0  0  0  0  0  0  0  0  0  0  0
   25.3474   -3.3205    0.0000 C   0  0  0  0  0  0  0  0  0  0  0  0
  1  2  1  0  0  0  0
  1  8  1  0  0  0  0
  2  3  1  0  0  0  0
  2  4  1  0  0  0  0
  3 27  1  0  0  0  0
  4  5  1  0  0  0  0
  5  6  1  0  0  0  0
  5  7  2  0  0  0  0
  8  9  1  0  0  0  0
  9 10  2  0  0  0  0
  9 11  1  0  0  0  0
 11 12  1  0  0  0  0
 12 13  1  0  0  0  0
 13 14  1  0  0  0  0
 14 15  1  0  0  0  0
 15 16  1  0  0  0  0
 16 17  1  0  0  0  0
 17 18  1  0  0  0  0
 18 19  1  0  0  0  0
 19 20  1  0  0  0  0
 20 21  1  0  0  0  0
 21 22  1  0  0  0  0
 21 26  1  0  0  0  0
 22 23  1  0  0  0  0
 23 24  2  0  0  0  0
 23 25  1  0  0  0  0
 26 31  1  0  0  0  0
 27 28  1  0  0  0  0
 28 29  2  0  0  0  0
 28 30  1  0  0  0  0
 31 32  1  0  0  0  0
 32 33  1  0  0  0  0
 33 34  1  0  0  0  0
 34 35  1  0  0  0  0
M  END
> <ID>
12536

> <Formula>
C27H48O8

> <FW>
500.6652

> <DSSTox_CID>
27394

> <DSSTox_RID>
82316

> <DSSTox_GSID>
47394

> <DSSTox_FileID_Sort>
6997

> <TS_ChemName>
Fully acetylated glycerol monoester on 12-Hydroxystearic acid (85%); Fully acetylated glycerol monostearate represents (10%)

> <TS_ChemName_Synonyms>
Grinstad Soft-N-Safe

> <TS_CASRN>
330198-91-9

> <CASRN_ChemName_Relationship>
primary

> <TS_Description>
mixture or formulation

> <ChemNote>
2 main components are 2,3-bis(acetyloxy)propyl 12-(acetyloxy)octadecanoate (85%) and 2,3-bis(acetyloxy)propyl octadecanoate (10%); structure shown 2,3-bis(acetyloxy)propyl 12-(acetyloxy)octadecanoate

> <STRUCTURE_Shown>
representative component

> <STRUCTURE_Formula>
C27H48O8

> <STRUCTURE_MW>
500.6652

> <STRUCTURE_ChemType>
defined organic

> <STRUCTURE_DefinedOrganicForm>
parent

> <STRUCTURE_IUPAC>
2,3-bis(acetyloxy)propyl 12-(acetyloxy)octadecanoate

> <STRUCTURE_SMILES>
O=C(C)OC(COC(C)=O)COC(=O)CCCCCCCCCCC(CCCCCC)OC(C)=O

> <STRUCTURE_SMILES_Desalt>
O=C(C)OC(COC(C)=O)COC(=O)CCCCCCCCCCC(CCCCCC)OC(C)=O

> <Substance_modify_yyyymmdd>
20100614

$$$$
