33032-12-1
ChemmineR-0915142007XD

 60 59  0  0  0  0  0  0  0  0  1 V2000
    4.3622   -2.0062    0.0000 N   0  0  0  0  0  0  0  0  0  0  0  0
    4.3622   -3.3867    0.0000 C   0  0  0  0  0  0  0  0  0  0  0  0
    2.0430   -2.0062    0.0000 C   0  0  0  0  0  0  0  0  0  0  0  0
    2.0430   -3.3867    0.0000 S   0  0  0  0  0  0  0  0  0  0  0  0
    3.2026   -1.3804    0.0000 C   0  0  0  0  0  0  0  0  0  0  0  0
    5.5586   -4.0677    0.0000 N   0  0  0  0  0  0  0  0  0  0  0  0
    0.7915   -3.7732    0.0000 C   0  0  0  0  0  0  0  0  0  0  0  0
    0.7915   -1.6013    0.0000 C   0  0  0  0  0  0  0  0  0  0  0  0
    5.5586   -1.3804    0.0000 C   0  0  0  0  0  0  0  0  0  0  0  0
    0.0000   -2.6873    0.0000 C   0  0  0  0  0  0  0  0  0  0  0  0
    7.8961   -1.3804    0.0000 N   0  0  0  0  0  0  0  0  0  0  0  0
    6.6997   -2.0062    0.0000 C   0  0  0  0  0  0  0  0  0  0  0  0
    3.2026   -4.0677    0.0000 C   0  0  0  0  0  0  0  0  0  0  0  0
    5.5586   -5.3929    0.0000 C   0  0  0  0  0  0  0  0  0  0  0  0
    9.0557   -2.0062    0.0000 C   0  0  0  0  0  0  0  0  0  0  0  0
    7.8961    0.0000    0.0000 C   0  0  0  0  0  0  0  0  0  0  0  0
    3.2026   -5.3929    0.0000 C   0  0  0  0  0  0  0  0  0  0  0  0
    4.3622   -6.0923    0.0000 C   0  0  0  0  0  0  0  0  0  0  0  0
   16.8966   -2.6504    0.0000 C   0  0  0  0  0  0  0  0  0  0  0  0
   13.4915   -2.0062    0.0000 C   0  0  0  0  0  0  0  0  0  0  0  0
   14.6142   -2.6504    0.0000 C   0  0  0  0  0  0  0  0  0  0  0  0
   15.7554   -2.0062    0.0000 C   0  0  0  0  0  0  0  0  0  0  0  0
   16.8966   -3.9573    0.0000 O   0  0  0  0  0  0  0  0  0  0  0  0
   13.4915   -0.6810    0.0000 O   0  0  0  0  0  0  0  0  0  0  0  0
   18.0193   -2.0062    0.0000 O   0  0  0  0  0  0  0  0  0  0  0  0
   12.3687   -2.6504    0.0000 O   0  0  0  0  0  0  0  0  0  0  0  0
    5.6322   -9.1293    0.0000 N   0  0  0  0  0  0  0  0  0  0  0  0
    5.6322  -10.4913    0.0000 C   0  0  0  0  0  0  0  0  0  0  0  0
    3.3315   -9.1293    0.0000 C   0  0  0  0  0  0  0  0  0  0  0  0
    3.3315  -10.4913    0.0000 S   0  0  0  0  0  0  0  0  0  0  0  0
    4.4726   -8.5035    0.0000 C   0  0  0  0  0  0  0  0  0  0  0  0
    6.8286  -11.1723    0.0000 N   0  0  0  0  0  0  0  0  0  0  0  0
    2.0615  -10.8963    0.0000 C   0  0  0  0  0  0  0  0  0  0  0  0
    2.0615   -8.7244    0.0000 C   0  0  0  0  0  0  0  0  0  0  0  0
    6.8286   -8.5035    0.0000 C   0  0  0  0  0  0  0  0  0  0  0  0
    1.2700   -9.8103    0.0000 C   0  0  0  0  0  0  0  0  0  0  0  0
    9.1845   -8.5035    0.0000 N   0  0  0  0  0  0  0  0  0  0  0  0
    7.9881   -9.1293    0.0000 C   0  0  0  0  0  0  0  0  0  0  0  0
    4.4726  -11.1723    0.0000 C   0  0  0  0  0  0  0  0  0  0  0  0
    6.8286  -12.4976    0.0000 C   0  0  0  0  0  0  0  0  0  0  0  0
   10.3257   -9.1293    0.0000 C   0  0  0  0  0  0  0  0  0  0  0  0
    9.1845   -7.1047    0.0000 C   0  0  0  0  0  0  0  0  0  0  0  0
    4.4726  -12.4976    0.0000 C   0  0  0  0  0  0  0  0  0  0  0  0
    5.6322  -13.1970    0.0000 C   0  0  0  0  0  0  0  0  0  0  0  0
   17.2647   -6.5525    0.0000 C   0  0  0  0  0  0  0  0  0  0  0  0
   13.8596   -5.9083    0.0000 C   0  0  0  0  0  0  0  0  0  0  0  0
   15.0008   -6.5525    0.0000 C   0  0  0  0  0  0  0  0  0  0  0  0
   16.1419   -5.9083    0.0000 C   0  0  0  0  0  0  0  0  0  0  0  0
   17.2647   -7.8593    0.0000 O   0  0  0  0  0  0  0  0  0  0  0  0
   13.8596   -4.6015    0.0000 O   0  0  0  0  0  0  0  0  0  0  0  0
   18.4058   -5.9083    0.0000 O   0  0  0  0  0  0  0  0  0  0  0  0
   12.7368   -6.5525    0.0000 O   0  0  0  0  0  0  0  0  0  0  0  0
   17.1726  -10.4913    0.0000 C   0  0  0  0  0  0  0  0  0  0  0  0
   13.7676   -9.8471    0.0000 C   0  0  0  0  0  0  0  0  0  0  0  0
   14.9087  -10.4913    0.0000 C   0  0  0  0  0  0  0  0  0  0  0  0
   16.0315   -9.8471    0.0000 C   0  0  0  0  0  0  0  0  0  0  0  0
   17.1726  -11.8165    0.0000 O   0  0  0  0  0  0  0  0  0  0  0  0
   13.7676   -8.5403    0.0000 O   0  0  0  0  0  0  0  0  0  0  0  0
   18.3138   -9.8471    0.0000 O   0  0  0  0  0  0  0  0  0  0  0  0
   12.6448  -10.4913    0.0000 O   0  0  0  0  0  0  0  0  0  0  0  0
  1  2  1  0  0  0  0
  1  5  1  0  0  0  0
  1  9  1  0  0  0  0
  2  6  1  0  0  0  0
  2 13  2  0  0  0  0
  3  5  1  0  0  0  0
  3  4  1  0  0  0  0
  3  8  2  0  0  0  0
  4  7  1  0  0  0  0
  6 14  2  0  0  0  0
  7 10  2  0  0  0  0
  8 10  1  0  0  0  0
  9 12  1  0  0  0  0
 11 12  1  0  0  0  0
 11 15  1  0  0  0  0
 11 16  1  0  0  0  0
 13 17  1  0  0  0  0
 14 18  1  0  0  0  0
 17 18  2  0  0  0  0
 19 22  1  0  0  0  0
 19 23  2  0  0  0  0
 19 25  1  0  0  0  0
 20 21  1  0  0  0  0
 20 24  2  0  0  0  0
 20 26  1  0  0  0  0
 21 22  2  0  0  0  0
 27 28  1  0  0  0  0
 27 31  1  0  0  0  0
 27 35  1  0  0  0  0
 28 32  1  0  0  0  0
 28 39  2  0  0  0  0
 29 31  1  0  0  0  0
 29 30  1  0  0  0  0
 29 34  2  0  0  0  0
 30 33  1  0  0  0  0
 32 40  2  0  0  0  0
 33 36  2  0  0  0  0
 34 36  1  0  0  0  0
 35 38  1  0  0  0  0
 37 38  1  0  0  0  0
 37 41  1  0  0  0  0
 37 42  1  0  0  0  0
 39 43  1  0  0  0  0
 40 44  1  0  0  0  0
 43 44  2  0  0  0  0
 45 48  1  0  0  0  0
 45 49  2  0  0  0  0
 45 51  1  0  0  0  0
 46 47  1  0  0  0  0
 46 50  2  0  0  0  0
 46 52  1  0  0  0  0
 47 48  2  0  0  0  0
 53 56  1  0  0  0  0
 53 57  2  0  0  0  0
 53 59  1  0  0  0  0
 54 55  1  0  0  0  0
 54 58  2  0  0  0  0
 54 60  1  0  0  0  0
 55 56  2  0  0  0  0
M  END
> <ID>
12546

> <Formula>
C40H50N6O12S2

> <FW>
870.9880 (261.3858+116.0722+261.3858+116.0722+116.0722)

> <DSSTox_CID>
27404

> <DSSTox_RID>
82320

> <DSSTox_GSID>
47404

> <DSSTox_FileID_Sort>
7001

> <TS_ChemName>
Methapyrilene fumarate

> <TS_ChemName_Synonyms>


> <TS_CASRN>
33032-12-1

> <CASRN_ChemName_Relationship>
primary

> <TS_Description>
single chemical compound

> <ChemNote>
mixture of methapyrilene [91-80-5] and  fumaric acid  [110-17-8] (2:3); stereochem

> <STRUCTURE_Shown>
tested chemical

> <STRUCTURE_Formula>
C40H50N6O12S2

> <STRUCTURE_MW>
870.988

> <STRUCTURE_ChemType>
defined organic

> <STRUCTURE_DefinedOrganicForm>
complex

> <STRUCTURE_IUPAC>
N,N-dimethyl-N'-(pyridin-2-yl)-N'-(thiophen-2-ylmethyl)ethane-1,2-diamine (2E)-but-2-enedioate (2:3)

> <STRUCTURE_SMILES>
O=C(O)/C=C/C(=O)O.O=C(O)/C=C/C(=O)O.O=C(O)/C=C/C(=O)O.CN(C)CCN(Cc1cccs1)c2ccccn2.CN(C)CCN(Cc1cccs1)c2ccccn2

> <STRUCTURE_SMILES_Desalt>
CN(C)CCN(Cc1cccs1)c2ccccn2

> <Substance_modify_yyyymmdd>
20100617

$$$$
