330671-29-9
ChemmineR-0915142007XD

 17 16  0  0  0  0  0  0  0  0  2 V2000
    1.1870   -3.9835    0.0000 N   0  3  0  0  0  0  0  0  0  0  0  0
    2.2734   -4.7682    0.0000 C   0  0  0  0  0  0  0  0  0  0  0  0
    0.0939   -4.7682    0.0000 C   0  0  0  0  0  0  0  0  0  0  0  0
    1.8375   -6.0491    0.0000 C   0  0  0  0  0  0  0  0  0  0  0  0
    0.5097   -6.0491    0.0000 C   0  0  0  0  0  0  0  0  0  0  0  0
    1.1870   -2.6557    0.0000 C   0  0  0  0  0  0  0  0  0  0  0  0
    2.3204   -1.9985    0.0000 C   0  0  0  0  0  0  0  0  0  0  0  0
    2.3204   -0.6706    0.0000 C   0  0  0  0  0  0  0  0  0  0  0  0
    3.4739    0.0000    0.0000 C   0  0  0  0  0  0  0  0  0  0  0  0
    0.0000   -3.3934    0.0000 C   0  0  0  0  0  0  0  0  0  0  0  0
    5.3785   -3.1386    0.0000 P   0  5  0  0  0  0  0  0  0  0  0  0
    4.0640   -3.1386    0.0000 F   0  0  0  0  0  0  0  0  0  0  0  0
    6.0357   -4.2853    0.0000 F   0  0  0  0  0  0  0  0  0  0  0  0
    6.0357   -1.9851    0.0000 F   0  0  0  0  0  0  0  0  0  0  0  0
    4.7212   -4.2853    0.0000 F   0  0  0  0  0  0  0  0  0  0  0  0
    4.7212   -1.9851    0.0000 F   0  0  0  0  0  0  0  0  0  0  0  0
    6.7063   -3.1386    0.0000 F   0  0  0  0  0  0  0  0  0  0  0  0
  1  2  1  0  0  0  0
  1  3  1  0  0  0  0
  1  6  1  0  0  0  0
  1 10  1  0  0  0  0
  2  4  1  0  0  0  0
  3  5  1  0  0  0  0
  4  5  1  0  0  0  0
  6  7  1  0  0  0  0
  7  8  1  0  0  0  0
  8  9  1  0  0  0  0
 11 12  1  0  0  0  0
 11 13  1  0  0  0  0
 11 14  1  0  0  0  0
 11 15  1  0  0  0  0
 11 16  1  0  0  0  0
 11 17  1  0  0  0  0
M  END
> <ID>
13012

> <Formula>
C9H20F6NP

> <FW>
287.2260 (142.2613+144.9647)

> <DSSTox_CID>
27913

> <DSSTox_RID>
82666

> <DSSTox_GSID>
47937

> <DSSTox_FileID_Sort>
7343

> <TS_ChemName>
1-Butyl-1-methylpyrrolidinium hexafluorophosphate

> <TS_ChemName_Synonyms>


> <TS_CASRN>
330671-29-9

> <CASRN_ChemName_Relationship>
primary

> <TS_Description>
single chemical compound

> <ChemNote>
ammonium; parent [223437-10-3]

> <STRUCTURE_Shown>
tested chemical

> <STRUCTURE_Formula>
C9H20F6NP

> <STRUCTURE_MW>
287.226

> <STRUCTURE_ChemType>
defined organic

> <STRUCTURE_DefinedOrganicForm>
salt

> <STRUCTURE_IUPAC>
1-butyl-1-methylpyrrolidinium hexafluorophosphate

> <STRUCTURE_SMILES>
CCCC[N+]1(C)CCCC1.F[P-](F)(F)(F)(F)F

> <STRUCTURE_SMILES_Desalt>
CCCC[N+]1(C)CCCC1

> <Substance_modify_yyyymmdd>
20110418

$$$$
