33089-61-1
ChemmineR-0915142007XD

 22 23  0  0  0  0  0  0  0  0  1 V2000
    4.5990   -2.7069    0.0000 N   0  0  0  0  0  0  0  0  0  0  0  0
    9.2118   -2.6931    0.0000 N   0  0  0  0  0  0  0  0  0  0  0  0
    8.0517   -2.0302    0.0000 C   0  0  0  0  0  0  0  0  0  0  0  0
    5.7729   -2.0302    0.0000 C   0  0  0  0  0  0  0  0  0  0  0  0
    6.9192   -2.7069    0.0000 N   0  0  0  0  0  0  0  0  0  0  0  0
   10.3304   -2.0164    0.0000 C   0  0  0  0  0  0  0  0  0  0  0  0
    3.4803   -2.0302    0.0000 C   0  0  0  0  0  0  0  0  0  0  0  0
    3.4803   -0.7043    0.0000 C   0  0  0  0  0  0  0  0  0  0  0  0
   10.3304   -0.6905    0.0000 C   0  0  0  0  0  0  0  0  0  0  0  0
   11.4905   -0.0138    0.0000 C   0  0  0  0  0  0  0  0  0  0  0  0
    2.3202   -0.0552    0.0000 C   0  0  0  0  0  0  0  0  0  0  0  0
   11.4905   -2.6793    0.0000 C   0  0  0  0  0  0  0  0  0  0  0  0
    2.3202   -2.7069    0.0000 C   0  0  0  0  0  0  0  0  0  0  0  0
   12.6506   -0.6905    0.0000 C   0  0  0  0  0  0  0  0  0  0  0  0
    1.1601   -0.7043    0.0000 C   0  0  0  0  0  0  0  0  0  0  0  0
   12.6506   -2.0164    0.0000 C   0  0  0  0  0  0  0  0  0  0  0  0
    1.1601   -2.0302    0.0000 C   0  0  0  0  0  0  0  0  0  0  0  0
    6.9192   -4.0327    0.0000 C   0  0  0  0  0  0  0  0  0  0  0  0
    4.5990   -0.0414    0.0000 C   0  0  0  0  0  0  0  0  0  0  0  0
    9.2118    0.0000    0.0000 C   0  0  0  0  0  0  0  0  0  0  0  0
    0.0000   -0.0414    0.0000 C   0  0  0  0  0  0  0  0  0  0  0  0
   13.8107    0.0000    0.0000 C   0  0  0  0  0  0  0  0  0  0  0  0
  1  4  2  0  0  0  0
  1  7  1  0  0  0  0
  2  3  2  0  0  0  0
  2  6  1  0  0  0  0
  3  5  1  0  0  0  0
  4  5  1  0  0  0  0
  5 18  1  0  0  0  0
  6  9  2  0  0  0  0
  6 12  1  0  0  0  0
  7  8  2  0  0  0  0
  7 13  1  0  0  0  0
  8 11  1  0  0  0  0
  8 19  1  0  0  0  0
  9 10  1  0  0  0  0
  9 20  1  0  0  0  0
 10 14  2  0  0  0  0
 11 15  2  0  0  0  0
 12 16  2  0  0  0  0
 13 17  2  0  0  0  0
 14 16  1  0  0  0  0
 14 22  1  0  0  0  0
 15 17  1  0  0  0  0
 15 21  1  0  0  0  0
M  END
> <ID>
3397

> <Formula>
C19H23N3

> <FW>
293.406

> <DSSTox_CID>
3871

> <DSSTox_RID>
77213

> <DSSTox_GSID>
23871

> <DSSTox_FileID_Sort>
1896

> <TS_ChemName>
Amitraz

> <TS_ChemName_Synonyms>


> <TS_CASRN>
33089-61-1

> <CASRN_ChemName_Relationship>
primary

> <TS_Description>
single chemical compound

> <ChemNote>


> <STRUCTURE_Shown>
tested chemical

> <STRUCTURE_Formula>
C19H23N3

> <STRUCTURE_MW>
293.406

> <STRUCTURE_ChemType>
defined organic

> <STRUCTURE_DefinedOrganicForm>
parent

> <STRUCTURE_IUPAC>
N'-(2,4-dimethylphenyl)-N-{(E)-[(2,4-dimethylphenyl)imino]methyl}-N-methylimidoformamide

> <STRUCTURE_SMILES>
Cc2ccc(/N=C/N(C)/C=N/c1ccc(C)cc1C)c(C)c2

> <STRUCTURE_SMILES_Desalt>
Cc2ccc(/N=C/N(C)/C=N/c1ccc(C)cc1C)c(C)c2

> <Substance_modify_yyyymmdd>
20080429

$$$$
