33159-27-2
ChemmineR-0915142007XD

 27 29  0  0  1  0  0  0  0  0  1 V2000
    4.2900   -3.3163    0.0000 C   0  0  0  0  0  0  0  0  0  0  0  0
    4.2900   -4.6563    0.0000 C   0  0  0  0  0  0  0  0  0  0  0  0
    5.4469   -5.3408    0.0000 C   0  0  0  0  0  0  0  0  0  0  0  0
    6.5941   -4.6563    0.0000 C   0  0  0  0  0  0  0  0  0  0  0  0
    6.5941   -3.3163    0.0000 C   0  0  0  0  0  0  0  0  0  0  0  0
    5.4469   -2.6608    0.0000 C   0  0  0  0  0  0  0  0  0  0  0  0
    0.8387   -5.3408    0.0000 C   0  0  0  0  0  0  0  0  0  0  0  0
    0.8387   -6.6712    0.0000 C   0  0  0  0  0  0  0  0  0  0  0  0
    1.9859   -7.3364    0.0000 C   0  0  0  0  0  0  0  0  0  0  0  0
    1.9859   -4.6563    0.0000 C   0  0  0  0  0  0  0  0  0  0  0  0
    3.1428   -5.3408    0.0000 C   0  0  0  0  0  0  0  0  0  0  0  0
    3.1428   -6.6712    0.0000 C   0  0  0  0  0  0  0  0  0  0  0  0
    4.2900   -7.3364    0.0000 C   0  0  0  0  0  0  0  0  0  0  0  0
    5.4469   -6.6712    0.0000 C   0  0  0  0  0  0  0  0  0  0  0  0
    5.4469   -1.3400    0.0000 S   0  0  0  0  0  0  0  0  0  0  0  0
    4.1068   -1.3400    0.0000 O   0  0  0  0  0  0  0  0  0  0  0  0
    6.7676   -1.3400    0.0000 O   0  0  0  0  0  0  0  0  0  0  0  0
    5.4469    0.0000    0.0000 O   0  0  0  0  0  0  0  0  0  0  0  0
    7.7509   -2.6608    0.0000 C   0  0  0  0  0  0  0  0  0  0  0  0
    7.7509   -1.3400    0.0000 C   0  0  0  0  0  0  0  0  0  0  0  0
    8.8982   -3.3163    0.0000 C   0  0  0  0  0  0  0  0  0  0  0  0
    2.6608   -8.4643    0.0000 C   0  0  0  0  0  0  0  0  0  0  0  0
    1.3207   -8.4643    0.0000 C   0  0  0  0  0  0  0  0  0  0  0  0
    3.1428   -7.9823    0.0000 H   0  0  0  0  0  0  0  0  0  0  0  0
    3.1428   -4.0104    0.0000 C   0  0  0  0  0  0  0  0  0  0  0  0
    0.0000   -8.4643    0.0000 O   0  0  0  0  0  0  0  0  0  0  0  0
    1.9859   -9.6405    0.0000 O   0  0  0  0  0  0  0  0  0  0  0  0
  1  2  2  0  0  0  0
  1  6  1  0  0  0  0
  2 11  1  0  0  0  0
  2  3  1  0  0  0  0
  3 14  1  0  0  0  0
  3  4  2  0  0  0  0
  4  5  1  0  0  0  0
  5 19  1  0  0  0  0
  5  6  2  0  0  0  0
  6 15  1  0  0  0  0
  7 10  1  0  0  0  0
  7  8  1  0  0  0  0
  8  9  1  0  0  0  0
  9 12  1  0  0  0  0
  9 22  1  1  0  0  0
  9 23  1  6  0  0  0
 10 11  1  0  0  0  0
 11 12  1  0  0  0  0
 11 25  1  1  0  0  0
 12 13  1  0  0  0  0
 12 24  1  6  0  0  0
 13 14  1  0  0  0  0
 15 16  1  0  0  0  0
 15 17  2  0  0  0  0
 15 18  2  0  0  0  0
 19 20  1  0  0  0  0
 19 21  1  0  0  0  0
 23 26  1  0  0  0  0
 23 27  2  0  0  0  0
M  END
> <ID>
12048

> <Formula>
C20H28O5S

> <FW>
380.4983

> <DSSTox_CID>
26881

> <DSSTox_RID>
81985

> <DSSTox_GSID>
46881

> <DSSTox_FileID_Sort>
6666

> <TS_ChemName>
Ecabet

> <TS_ChemName_Synonyms>


> <TS_CASRN>
33159-27-2

> <CASRN_ChemName_Relationship>
primary

> <TS_Description>
single chemical compound

> <ChemNote>
stereochem

> <STRUCTURE_Shown>
tested chemical

> <STRUCTURE_Formula>
C20H28O5S

> <STRUCTURE_MW>
380.4983

> <STRUCTURE_ChemType>
defined organic

> <STRUCTURE_DefinedOrganicForm>
parent

> <STRUCTURE_IUPAC>
12-sulfoabieta-8(14),9(11),12-trien-18-oic acid

> <STRUCTURE_SMILES>
CC(C)c2cc3CC[C@@H]1[C@](C)(CCC[C@@]1(C)C(=O)O)c3cc2S(=O)(=O)O

> <STRUCTURE_SMILES_Desalt>
CC(C)c2cc3CC[C@@H]1[C@](C)(CCC[C@@]1(C)C(=O)O)c3cc2S(=O)(=O)O

> <Substance_modify_yyyymmdd>
20110727

$$$$
