331623-06-4
ChemmineR-0915142007XD

 41 43  0  0  1  0  0  0  0  0  2 V2000
    5.6365   -7.1968    0.0000 N    0  0  0  0  0  0  0  0  0  0  0  0
    4.4980   -6.5361    0.0000 C    0  0  0  0  0  0  0  0  0  0  0  0
    6.7470   -6.5361    0.0000 C    0  0  0  0  0  0  0  0  0  0  0  0
    6.7470   -5.2570    0.0000 C    0  0  0  0  0  0  0  0  0  0  0  0
    4.4980   -5.2570    0.0000 C    0  0  0  0  0  0  0  0  0  0  0  0
    5.6365   -4.5964    0.0000 C    0  0  0  0  0  0  0  0  0  0  0  0
    7.9839   -6.9438    0.0000 C    0  0  0  0  0  0  0  0  0  0  0  0
    8.7570   -5.9036    0.0000 C    0  0  0  0  0  0  0  0  0  0  0  0
    7.9839   -4.8494    0.0000 C    0  0  0  0  0  0  0  0  0  0  0  0
   10.0502   -5.9036    0.0000 C    0  0  0  0  0  0  0  0  0  0  0  0
   10.6968   -7.0140    0.0000 O    0  0  0  0  0  0  0  0  0  0  0  0
   10.6968   -4.7791    0.0000 O    0  5  0  0  0  0  0  0  0  0  0  0
   11.2450   -1.5743    0.0000 O    0  0  0  0  0  0  0  0  0  0  0  0
   11.1185   -0.2671    0.0000 C    0  0  0  0  0  0  0  0  0  0  0  0
    9.8393    0.0000    0.0000 O    0  0  0  0  0  0  0  0  0  0  0  0
    9.1928   -1.1245    0.0000 C    0  0  0  0  0  0  0  0  0  0  0  0
   10.0783   -2.1084    0.0000 C    0  0  0  0  0  0  0  0  0  0  0  0
    9.6566   -3.3454    0.0000 C    0  0  0  0  0  0  0  0  0  0  0  0
    8.3916   -3.6124    0.0000 C    0  0  0  0  0  0  0  0  0  0  0  0
    7.5201   -2.6426    0.0000 C    0  0  0  0  0  0  0  0  0  0  0  0
    7.9277   -1.3916    0.0000 C    0  0  0  0  0  0  0  0  0  0  0  0
    3.3735   -7.1968    0.0000 C    0  0  0  0  0  0  0  0  0  0  0  0
    2.2490   -6.5361    0.0000 C    0  0  0  0  0  0  0  0  0  0  0  0
    1.1104   -7.1968    0.0000 C    0  0  0  0  0  0  0  0  0  0  0  0
    0.0000   -6.5361    0.0000 C    0  0  0  0  0  0  0  0  0  0  0  0
    6.9297  -11.4980    0.0000 C    0  0  0  0  0  0  0  0  0  0  0  0
    8.0823  -12.1305    0.0000 C    0  0  0  0  0  0  0  0  0  0  0  0
    9.1928  -11.4558    0.0000 C    0  0  0  0  0  0  0  0  0  0  0  0
    9.1646  -10.1626    0.0000 C    0  0  0  0  0  0  0  0  0  0  0  0
    8.0120   -9.5442    0.0000 C    0  0  0  0  0  0  0  0  0  0  0  0
    6.9157  -10.1908    0.0000 C    0  0  0  0  0  0  0  0  0  0  0  0
    5.7771   -9.5723    0.0000 C    0  0  0  0  0  0  0  0  0  0  0  0
    4.6807  -10.2470    0.0000 C    0  0  0  0  0  0  0  0  0  0  0  0
    4.6948  -11.5401    0.0000 C    0  0  0  0  0  0  0  0  0  0  0  0
    3.5281   -9.6144    0.0000 C    0  0  0  0  0  0  0  0  0  0  0  0
    3.5000   -8.3213    0.0000 O    0  5  0  0  0  0  0  0  0  0  0  0
    2.4177  -10.2891    0.0000 O    0  0  0  0  0  0  0  0  0  0  0  0
    8.0964  -13.4237    0.0000 O    0  0  0  0  0  0  0  0  0  0  0  0
    9.2349  -14.0562    0.0000 C    0  0  0  0  0  0  0  0  0  0  0  0
   12.4538   -5.9036    0.0000 Na   0  3  0  0  0  0  0  0  0  0  0  0
    0.2530   -9.2209    0.0000 Na   0  3  0  0  0  0  0  0  0  0  0  0
  1  2  2  0  0  0  0
  1  3  1  0  0  0  0
  2  5  1  0  0  0  0
  2 22  1  0  0  0  0
  3  4  2  0  0  0  0
  3  7  1  0  0  0  0
  4  6  1  0  0  0  0
  4  9  1  0  0  0  0
  5  6  2  0  0  0  0
  7  8  1  0  0  0  0
  7 30  1  6  0  0  0
  8  9  1  0  0  0  0
  8 10  1  1  0  0  0
  9 19  1  6  0  0  0
 10 11  2  0  0  0  0
 10 12  1  0  0  0  0
 13 14  1  0  0  0  0
 13 17  1  0  0  0  0
 14 15  1  0  0  0  0
 15 16  1  0  0  0  0
 16 17  2  0  0  0  0
 16 21  1  0  0  0  0
 17 18  1  0  0  0  0
 18 19  2  0  0  0  0
 19 20  1  0  0  0  0
 20 21  2  0  0  0  0
 22 23  1  0  0  0  0
 23 24  1  0  0  0  0
 24 25  1  0  0  0  0
 26 31  2  0  0  0  0
 26 27  1  0  0  0  0
 27 28  2  0  0  0  0
 27 38  1  0  0  0  0
 28 29  1  0  0  0  0
 29 30  2  0  0  0  0
 30 31  1  0  0  0  0
 31 32  1  0  0  0  0
 32 33  1  0  0  0  0
 33 34  1  6  0  0  0
 33 35  1  0  0  0  0
 35 36  1  0  0  0  0
 35 37  2  0  0  0  0
 38 39  1  0  0  0  0
M  END
> <ID>
12473

> <Formula>
C31H31NNa2O7

> <FW>
575.5599 (529.5814+22.9892+22.9892)

> <DSSTox_CID>
27331

> <DSSTox_RID>
82275

> <DSSTox_GSID>
47331

> <DSSTox_FileID_Sort>
6956

> <TS_ChemName>
MK-547

> <TS_ChemName_Synonyms>


> <TS_CASRN>
331623-06-4

> <CASRN_ChemName_Relationship>
primary

> <TS_Description>
single chemical compound

> <ChemNote>
stereochem

> <STRUCTURE_Shown>
tested chemical

> <STRUCTURE_Formula>
C31H31NNa2O7

> <STRUCTURE_MW>
575.5599

> <STRUCTURE_ChemType>
defined organic

> <STRUCTURE_DefinedOrganicForm>
salt

> <STRUCTURE_IUPAC>
disodium (5S,6R,7R)-5-(1,3-benzodioxol-5-yl)-2-butyl-7-{2-[(2S)-2-carboxylatopropyl]-4-methoxyphenyl}-6,7-dihydro-5H-cyclopenta[b]pyridine-6-carboxylate

> <STRUCTURE_SMILES>
[Na+].[Na+].[O-]C(=O)[C@@H](C)Cc1cc(OC)ccc1[C@@H]5c2nc(CCCC)ccc2[C@H](c3ccc4OCOc4c3)[C@H]5C([O-])=O

> <STRUCTURE_SMILES_Desalt>
O=C(O)[C@@H](C)Cc1cc(OC)ccc1[C@@H]5c2nc(CCCC)ccc2[C@H](c3ccc4OCOc4c3)[C@H]5C(=O)O

> <Substance_modify_yyyymmdd>
20130910

$$$$
