331753-56-1
ChemmineR-0915142007XD

 27 18  0  0  0  0  0  0  0  0  2 V2000
    2.3496   -2.2861    0.0000 C    0  0  0  0  0  0  0  0  0  0  0  0
    3.4927   -2.9338    0.0000 C    0  0  0  0  0  0  0  0  0  0  0  0
    1.1431   -2.9338    0.0000 C    0  0  0  0  0  0  0  0  0  0  0  0
    4.6484   -2.2861    0.0000 C    0  0  0  0  0  0  0  0  0  0  0  0
    4.6484   -0.9525    0.0000 O    0  0  0  0  0  0  0  0  0  0  0  0
    1.1431   -4.2674    0.0000 O    0  0  0  0  0  0  0  0  0  0  0  0
    5.7915   -2.9338    0.0000 O    0  5  0  0  0  0  0  0  0  0  0  0
    0.0000   -2.2861    0.0000 O    0  5  0  0  0  0  0  0  0  0  0  0
    3.4927   -4.2674    0.0000 O    0  0  0  0  0  0  0  0  0  0  0  0
    2.3496   -0.9525    0.0000 O    0  0  0  0  0  0  0  0  0  0  0  0
    8.1665   -4.3436    0.0000 Sb   0  7  0  0  0  0  0  0  0  0  0  0
    5.8296   -4.2928    0.0000 K    0  3  0  0  0  0  0  0  0  0  0  0
   10.7701   -4.4960    0.0000 K    0  3  0  0  0  0  0  0  0  0  0  0
   12.6879   -4.4960    0.0000 Sb   0  7  0  0  0  0  0  0  0  0  0  0
    7.1504   -5.3977    0.0000 O    0  0  0  0  0  0  0  0  0  0  0  0
    9.2587   -1.3336    0.0000 C    0  0  0  0  0  0  0  0  0  0  0  0
   10.4018   -1.9813    0.0000 C    0  0  0  0  0  0  0  0  0  0  0  0
    8.0522   -1.9813    0.0000 C    0  0  0  0  0  0  0  0  0  0  0  0
   11.5575   -1.3336    0.0000 C    0  0  0  0  0  0  0  0  0  0  0  0
   11.5575    0.0000    0.0000 O    0  0  0  0  0  0  0  0  0  0  0  0
    8.0522   -3.3148    0.0000 O    0  0  0  0  0  0  0  0  0  0  0  0
   12.7006   -1.9813    0.0000 O    0  5  0  0  0  0  0  0  0  0  0  0
    6.9091   -1.3336    0.0000 O    0  5  0  0  0  0  0  0  0  0  0  0
   10.4018   -3.3148    0.0000 O    0  0  0  0  0  0  0  0  0  0  0  0
    9.2587    0.0000    0.0000 O    0  0  0  0  0  0  0  0  0  0  0  0
    3.8610   -5.3977    0.0000 O    0  0  0  0  0  0  0  0  0  0  0  0
    9.0809   -5.5374    0.0000 O    0  0  0  0  0  0  0  0  0  0  0  0
  1  2  1  0  0  0  0
  1  3  1  0  0  0  0
  1 10  1  0  0  0  0
  2  4  1  0  0  0  0
  2  9  1  0  0  0  0
  3  6  2  0  0  0  0
  3  8  1  0  0  0  0
  4  5  2  0  0  0  0
  4  7  1  0  0  0  0
 16 17  1  0  0  0  0
 16 18  1  0  0  0  0
 16 25  1  0  0  0  0
 17 19  1  0  0  0  0
 17 24  1  0  0  0  0
 18 21  2  0  0  0  0
 18 23  1  0  0  0  0
 19 20  2  0  0  0  0
 19 22  1  0  0  0  0
M  END
> <ID>
14007

> <Formula>
C8H14K2O15Sb2

> <FW>
671.9087 (148.0721+121.7616+39.0978+39.0978+121.7616+18.0153+148.0721+18.0153+18.0153)

> <DSSTox_CID>
28949

> <DSSTox_RID>
83214

> <DSSTox_GSID>
49023

> <DSSTox_FileID_Sort>
7890

> <TS_ChemName>
Potassium antimony(III) tartrate hydrate

> <TS_ChemName_Synonyms>


> <TS_CASRN>
331753-56-1

> <CASRN_ChemName_Relationship>
primary

> <TS_Description>
single chemical compound

> <ChemNote>


> <STRUCTURE_Shown>
tested chemical

> <STRUCTURE_Formula>
C8H14K2O15Sb2

> <STRUCTURE_MW>
671.9087

> <STRUCTURE_ChemType>
organometallic

> <STRUCTURE_DefinedOrganicForm>


> <STRUCTURE_IUPAC>
dipotassium 5,11-dioxo-2,6,8,12,13,14-hexaoxa-1,7-distibatricyclo[8.2.1.1~4,7~]tetradecane-3,9-dicarboxylate hydrate

> <STRUCTURE_SMILES>
[K+].[K+].[SbH3-3].[SbH3-3].O.O.O.[O-]C(=O)C(O)C(O)C(=O)[O-].[O-]C(=O)C(O)C(O)C([O-])=O

> <STRUCTURE_SMILES_Desalt>
O=C(O)C(O)C(O)C(O)=O

> <Substance_modify_yyyymmdd>
20111204

$$$$
