331741-94-7
ChemmineR-0915142007XD

 38 41  0  0  0  0  0  0  0  0  1 V2000
    0.6610   -0.0307    0.0000 C   0  0  0  0  0  0  0  0  0  0  0  0
    0.0000   -1.1837    0.0000 O   0  0  0  0  0  0  0  0  0  0  0  0
    0.6610   -2.3366    0.0000 C   0  0  0  0  0  0  0  0  0  0  0  0
    1.9830   -2.3366    0.0000 C   0  0  0  0  0  0  0  0  0  0  0  0
    2.6594   -3.4895    0.0000 C   0  0  0  0  0  0  0  0  0  0  0  0
    1.9830   -4.6424    0.0000 C   0  0  0  0  0  0  0  0  0  0  0  0
    2.6594   -5.7953    0.0000 O   0  0  0  0  0  0  0  0  0  0  0  0
    1.9830   -6.9329    0.0000 C   0  0  0  0  0  0  0  0  0  0  0  0
    0.6610   -6.9329    0.0000 O   0  0  0  0  0  0  0  0  0  0  0  0
    2.6594   -8.0858    0.0000 N   0  0  0  0  0  0  0  0  0  0  0  0
    1.9830   -9.2387    0.0000 C   0  0  0  0  0  0  0  0  0  0  0  0
    2.6594  -10.3916    0.0000 C   0  0  0  0  0  0  0  0  0  0  0  0
    1.9830  -11.5446    0.0000 O   0  0  0  0  0  0  0  0  0  0  0  0
    3.9814  -10.3916    0.0000 O   0  0  0  0  0  0  0  0  0  0  0  0
    3.9814   -8.0858    0.0000 C   0  0  0  0  0  0  0  0  0  0  0  0
    4.6424   -6.9329    0.0000 C   0  0  0  0  0  0  0  0  0  0  0  0
    3.9814   -5.7953    0.0000 C   0  0  0  0  0  0  0  0  0  0  0  0
    4.6424   -4.6424    0.0000 C   0  0  0  0  0  0  0  0  0  0  0  0
    5.9798   -4.6424    0.0000 C   0  0  0  0  0  0  0  0  0  0  0  0
    6.6408   -3.4895    0.0000 O   0  0  0  0  0  0  0  0  0  0  0  0
    7.9782   -3.4895    0.0000 C   0  0  0  0  0  0  0  0  0  0  0  0
    8.6238   -2.3366    0.0000 C   0  0  0  0  0  0  0  0  0  0  0  0
    9.9612   -2.3366    0.0000 C   0  0  0  0  0  0  0  0  0  0  0  0
   10.7452   -1.2605    0.0000 C   0  0  0  0  0  0  0  0  0  0  0  0
   10.3302    0.0000    0.0000 C   0  0  0  0  0  0  0  0  0  0  0  0
   12.0057   -1.6602    0.0000 O   0  0  0  0  0  0  0  0  0  0  0  0
   12.0057   -2.9976    0.0000 C   0  0  0  0  0  0  0  0  0  0  0  0
   10.7452   -3.4126    0.0000 N   0  0  0  0  0  0  0  0  0  0  0  0
   13.0818   -3.7816    0.0000 C   0  0  0  0  0  0  0  0  0  0  0  0
   14.2962   -3.2282    0.0000 C   0  0  0  0  0  0  0  0  0  0  0  0
   15.3723   -4.0122    0.0000 C   0  0  0  0  0  0  0  0  0  0  0  0
   15.2339   -5.3495    0.0000 C   0  0  0  0  0  0  0  0  0  0  0  0
   14.0349   -5.8876    0.0000 C   0  0  0  0  0  0  0  0  0  0  0  0
   12.9434   -5.1036    0.0000 C   0  0  0  0  0  0  0  0  0  0  0  0
    6.6408   -5.7953    0.0000 C   0  0  0  0  0  0  0  0  0  0  0  0
    5.9798   -6.9329    0.0000 C   0  0  0  0  0  0  0  0  0  0  0  0
    0.6610   -4.6424    0.0000 C   0  0  0  0  0  0  0  0  0  0  0  0
    0.0000   -3.4895    0.0000 C   0  0  0  0  0  0  0  0  0  0  0  0
  1  2  1  0  0  0  0
  2  3  1  0  0  0  0
  3  4  2  0  0  0  0
  3 38  1  0  0  0  0
  4  5  1  0  0  0  0
  5  6  2  0  0  0  0
  6  7  1  0  0  0  0
  6 37  1  0  0  0  0
  7  8  1  0  0  0  0
  8  9  2  0  0  0  0
  8 10  1  0  0  0  0
 10 11  1  0  0  0  0
 10 15  1  0  0  0  0
 11 12  1  0  0  0  0
 12 13  1  0  0  0  0
 12 14  2  0  0  0  0
 15 16  1  0  0  0  0
 16 17  2  0  0  0  0
 16 36  1  0  0  0  0
 17 18  1  0  0  0  0
 18 19  2  0  0  0  0
 19 20  1  0  0  0  0
 19 35  1  0  0  0  0
 20 21  1  0  0  0  0
 21 22  1  0  0  0  0
 22 23  1  0  0  0  0
 23 24  2  0  0  0  0
 23 28  1  0  0  0  0
 24 25  1  0  0  0  0
 24 26  1  0  0  0  0
 26 27  1  0  0  0  0
 27 28  2  0  0  0  0
 27 29  1  0  0  0  0
 29 30  2  0  0  0  0
 29 34  1  0  0  0  0
 30 31  1  0  0  0  0
 31 32  2  0  0  0  0
 32 33  1  0  0  0  0
 33 34  2  0  0  0  0
 35 36  2  0  0  0  0
 37 38  2  0  0  0  0
M  END
> <ID>
16120

> <Formula>
C29H28N2O7

> <FW>
516.5418

> <DSSTox_CID>
31508

> <DSSTox_RID>
97393

> <DSSTox_GSID>
57719

> <DSSTox_FileID_Sort>
8460

> <TS_ChemName>
Muraglitazar

> <TS_ChemName_Synonyms>


> <TS_CASRN>
331741-94-7

> <CASRN_ChemName_Relationship>
primary

> <TS_Description>
single chemical compound

> <ChemNote>


> <STRUCTURE_Shown>
tested chemical

> <STRUCTURE_Formula>
C29H28N2O7

> <STRUCTURE_MW>
516.5418

> <STRUCTURE_ChemType>
defined organic

> <STRUCTURE_DefinedOrganicForm>
parent

> <STRUCTURE_IUPAC>
N-[(4-methoxyphenoxy)carbonyl]-N-{4-[2-(5-methyl-2-phenyl-1,3-oxazol-4-yl)ethoxy]benzyl}glycine

> <STRUCTURE_SMILES>
COc1ccc(cc1)OC(=O)N(CC(=O)O)Cc2ccc(cc2)OCCc3nc(oc3C)c4ccccc4

> <STRUCTURE_SMILES_Desalt>
COc1ccc(cc1)OC(=O)N(CC(=O)O)Cc2ccc(cc2)OCCc3nc(oc3C)c4ccccc4

> <Substance_modify_yyyymmdd>
20131018

$$$$
