331717-63-6
ChemmineR-0915142007XD

 11 10  0  0  0  0  0  0  0  0  2 V2000
    2.3000   -0.3992    0.0000 C   0  0  0  0  0  0  0  0  0  0  0  0
    3.5758    0.0000    0.0000 C   0  0  0  0  0  0  0  0  0  0  0  0
    2.3000   -1.7358    0.0000 N   0  0  0  0  0  0  0  0  0  0  0  0
    4.3482   -1.0589    0.0000 N   0  3  0  0  0  0  0  0  0  0  0  0
    3.5584   -2.1351    0.0000 C   0  0  0  0  0  0  0  0  0  0  0  0
    5.6848   -1.0589    0.0000 C   0  0  0  0  0  0  0  0  0  0  0  0
    1.2238   -2.5256    0.0000 C   0  0  0  0  0  0  0  0  0  0  0  0
    0.0000   -1.9962    0.0000 C   0  0  0  0  0  0  0  0  0  0  0  0
    7.3599   -2.1698    0.0000 C   0  0  0  0  0  0  0  0  0  0  0  0
    8.6791   -2.1698    0.0000 N   0  0  0  0  0  0  0  0  0  0  0  0
    6.0233   -2.1698    0.0000 S   0  5  0  0  0  0  0  0  0  0  0  0
  1  2  2  0  0  0  0
  1  3  1  0  0  0  0
  2  4  1  0  0  0  0
  3  5  1  0  0  0  0
  3  7  1  0  0  0  0
  4  5  2  0  0  0  0
  4  6  1  0  0  0  0
  7  8  1  0  0  0  0
  9 10  3  0  0  0  0
  9 11  1  0  0  0  0
M  END
> <ID>
12959

> <Formula>
C7H11N3S

> <FW>
169.2473 (111.1644+58.0829)

> <DSSTox_CID>
27860

> <DSSTox_RID>
82613

> <DSSTox_GSID>
47884

> <DSSTox_FileID_Sort>
7290

> <TS_ChemName>
1-Ethyl-3-methylimidazolium thiocyanate

> <TS_ChemName_Synonyms>


> <TS_CASRN>
331717-63-6

> <CASRN_ChemName_Relationship>
primary

> <TS_Description>
single chemical compound

> <ChemNote>
ammonium; parent [65039-03-4]

> <STRUCTURE_Shown>
tested chemical

> <STRUCTURE_Formula>
C7H11N3S

> <STRUCTURE_MW>
169.2473

> <STRUCTURE_ChemType>
defined organic

> <STRUCTURE_DefinedOrganicForm>
salt

> <STRUCTURE_IUPAC>
1-ethyl-3-methyl-1H-imidazol-3-ium thiocyanate

> <STRUCTURE_SMILES>
N#C[S-].C[n+]1ccn(CC)c1

> <STRUCTURE_SMILES_Desalt>
C[n+]1ccn(CC)c1

> <Substance_modify_yyyymmdd>
20110419

$$$$
