3319-31-1
ChemmineR-0915142007XD

 39 39  0  0  0  0  0  0  0  0  1 V2000
   10.3717   -9.9845    0.0000 O   0  0  0  0  0  0  0  0  0  0  0  0
   10.3717   -8.6457    0.0000 C   0  0  0  0  0  0  0  0  0  0  0  0
   11.5169   -7.9844    0.0000 O   0  0  0  0  0  0  0  0  0  0  0  0
   12.6783   -8.6457    0.0000 C   0  0  0  0  0  0  0  0  0  0  0  0
   13.8235   -7.9844    0.0000 C   0  0  0  0  0  0  0  0  0  0  0  0
   13.8235   -6.6617    0.0000 C   0  0  0  0  0  0  0  0  0  0  0  0
   14.9849   -5.9843    0.0000 C   0  0  0  0  0  0  0  0  0  0  0  0
   14.9849   -4.6616    0.0000 C   0  0  0  0  0  0  0  0  0  0  0  0
   16.1301   -4.0003    0.0000 C   0  0  0  0  0  0  0  0  0  0  0  0
   14.9849   -8.6457    0.0000 C   0  0  0  0  0  0  0  0  0  0  0  0
   16.1301   -7.9844    0.0000 C   0  0  0  0  0  0  0  0  0  0  0  0
    9.2103   -7.9844    0.0000 C   0  0  0  0  0  0  0  0  0  0  0  0
    8.0651   -8.6457    0.0000 C   0  0  0  0  0  0  0  0  0  0  0  0
    6.9198   -7.9844    0.0000 C   0  0  0  0  0  0  0  0  0  0  0  0
    6.9198   -6.6617    0.0000 C   0  0  0  0  0  0  0  0  0  0  0  0
    8.0651   -5.9843    0.0000 C   0  0  0  0  0  0  0  0  0  0  0  0
    8.0651   -4.6616    0.0000 C   0  0  0  0  0  0  0  0  0  0  0  0
    9.2103   -4.0003    0.0000 O   0  0  0  0  0  0  0  0  0  0  0  0
    6.9198   -4.0003    0.0000 O   0  0  0  0  0  0  0  0  0  0  0  0
    6.9198   -2.6615    0.0000 C   0  0  0  0  0  0  0  0  0  0  0  0
    5.7585   -2.0001    0.0000 C   0  0  0  0  0  0  0  0  0  0  0  0
    4.6132   -2.6615    0.0000 C   0  0  0  0  0  0  0  0  0  0  0  0
    3.4518   -2.0001    0.0000 C   0  0  0  0  0  0  0  0  0  0  0  0
    2.3066   -2.6615    0.0000 C   0  0  0  0  0  0  0  0  0  0  0  0
    1.1452   -2.0001    0.0000 C   0  0  0  0  0  0  0  0  0  0  0  0
    5.7585   -0.6613    0.0000 C   0  0  0  0  0  0  0  0  0  0  0  0
    4.6132    0.0000    0.0000 C   0  0  0  0  0  0  0  0  0  0  0  0
    5.7585   -5.9843    0.0000 C   0  0  0  0  0  0  0  0  0  0  0  0
    5.7585   -4.6616    0.0000 O   0  0  0  0  0  0  0  0  0  0  0  0
    4.6132   -6.6617    0.0000 O   0  0  0  0  0  0  0  0  0  0  0  0
    3.4518   -5.9843    0.0000 C   0  0  0  0  0  0  0  0  0  0  0  0
    2.3066   -6.6617    0.0000 C   0  0  0  0  0  0  0  0  0  0  0  0
    2.3066   -7.9844    0.0000 C   0  0  0  0  0  0  0  0  0  0  0  0
    1.1452   -8.6457    0.0000 C   0  0  0  0  0  0  0  0  0  0  0  0
    1.1452   -9.9845    0.0000 C   0  0  0  0  0  0  0  0  0  0  0  0
    0.0000  -10.6459    0.0000 C   0  0  0  0  0  0  0  0  0  0  0  0
    1.1452   -5.9843    0.0000 C   0  0  0  0  0  0  0  0  0  0  0  0
    0.0000   -6.6617    0.0000 C   0  0  0  0  0  0  0  0  0  0  0  0
    9.2103   -6.6617    0.0000 C   0  0  0  0  0  0  0  0  0  0  0  0
  1  2  2  0  0  0  0
  2  3  1  0  0  0  0
  2 12  1  0  0  0  0
  3  4  1  0  0  0  0
  4  5  1  0  0  0  0
  5  6  1  0  0  0  0
  5 10  1  0  0  0  0
  6  7  1  0  0  0  0
  7  8  1  0  0  0  0
  8  9  1  0  0  0  0
 10 11  1  0  0  0  0
 12 13  2  0  0  0  0
 12 39  1  0  0  0  0
 13 14  1  0  0  0  0
 14 15  2  0  0  0  0
 15 16  1  0  0  0  0
 15 28  1  0  0  0  0
 16 17  1  0  0  0  0
 16 39  2  0  0  0  0
 17 18  2  0  0  0  0
 17 19  1  0  0  0  0
 19 20  1  0  0  0  0
 20 21  1  0  0  0  0
 21 22  1  0  0  0  0
 21 26  1  0  0  0  0
 22 23  1  0  0  0  0
 23 24  1  0  0  0  0
 24 25  1  0  0  0  0
 26 27  1  0  0  0  0
 28 29  2  0  0  0  0
 28 30  1  0  0  0  0
 30 31  1  0  0  0  0
 31 32  1  0  0  0  0
 32 33  1  0  0  0  0
 32 37  1  0  0  0  0
 33 34  1  0  0  0  0
 34 35  1  0  0  0  0
 35 36  1  0  0  0  0
 37 38  1  0  0  0  0
M  END
> <ID>
4626

> <Formula>
C33H54O6

> <FW>
546.7783

> <DSSTox_CID>
6265

> <DSSTox_RID>
78080

> <DSSTox_GSID>
26265

> <DSSTox_FileID_Sort>
2763

> <TS_ChemName>
Tris(2-ethylhexyl) trimellitate

> <TS_ChemName_Synonyms>
Tris (2-ethylhexyl) trimellitate (1,2,4-Benzenetricarboxylic acid, tris(2-ethylhexyl) ester)

> <TS_CASRN>
3319-31-1

> <CASRN_ChemName_Relationship>
primary

> <TS_Description>
single chemical compound

> <ChemNote>


> <STRUCTURE_Shown>
tested chemical

> <STRUCTURE_Formula>
C33H54O6

> <STRUCTURE_MW>
546.7783

> <STRUCTURE_ChemType>
defined organic

> <STRUCTURE_DefinedOrganicForm>
parent

> <STRUCTURE_IUPAC>
tris(2-ethylhexyl) benzene-1,2,4-tricarboxylate

> <STRUCTURE_SMILES>
CCC(CCCC)COC(=O)c1cc(C(=O)OCC(CC)CCCC)c(cc1)C(=O)OCC(CC)CCCC

> <STRUCTURE_SMILES_Desalt>
CCC(CCCC)COC(=O)c1cc(C(=O)OCC(CC)CCCC)c(cc1)C(=O)OCC(CC)CCCC

> <Substance_modify_yyyymmdd>
20080429

$$$$
