3321-80-0
ChemmineR-0915142007XD

 24 26  0  0  0  0  0  0  0  0  1 V2000
    9.9781   -0.5288    0.0000 C   0  0  0  0  0  0  0  0  0  0  0  0
    9.3095   -1.6863    0.0000 N   0  0  0  0  0  0  0  0  0  0  0  0
    9.9781   -2.8338    0.0000 C   0  0  0  0  0  0  0  0  0  0  0  0
    9.3095   -3.9912    0.0000 C   0  0  0  0  0  0  0  0  0  0  0  0
    7.9825   -3.9912    0.0000 C   0  0  0  0  0  0  0  0  0  0  0  0
    7.3139   -2.8338    0.0000 C   0  0  0  0  0  0  0  0  0  0  0  0
    7.9825   -1.6863    0.0000 C   0  0  0  0  0  0  0  0  0  0  0  0
    5.9868   -2.8338    0.0000 O   0  0  0  0  0  0  0  0  0  0  0  0
    5.3183   -3.9912    0.0000 C   0  0  0  0  0  0  0  0  0  0  0  0
    5.9868   -5.1387    0.0000 O   0  0  0  0  0  0  0  0  0  0  0  0
    3.9912   -3.9912    0.0000 C   0  0  0  0  0  0  0  0  0  0  0  0
    3.9912   -5.3183    0.0000 O   0  0  0  0  0  0  0  0  0  0  0  0
    2.6641   -3.9912    0.0000 C   0  0  0  0  0  0  0  0  0  0  0  0
    1.9956   -5.1387    0.0000 C   0  0  0  0  0  0  0  0  0  0  0  0
    0.6685   -5.1387    0.0000 C   0  0  0  0  0  0  0  0  0  0  0  0
    0.0000   -3.9912    0.0000 C   0  0  0  0  0  0  0  0  0  0  0  0
    0.6685   -2.8338    0.0000 C   0  0  0  0  0  0  0  0  0  0  0  0
    1.9956   -2.8338    0.0000 C   0  0  0  0  0  0  0  0  0  0  0  0
    3.9912   -2.6542    0.0000 C   0  0  0  0  0  0  0  0  0  0  0  0
    2.8438   -1.9956    0.0000 C   0  0  0  0  0  0  0  0  0  0  0  0
    2.8438   -0.6586    0.0000 C   0  0  0  0  0  0  0  0  0  0  0  0
    3.9912    0.0000    0.0000 C   0  0  0  0  0  0  0  0  0  0  0  0
    5.1387   -0.6586    0.0000 C   0  0  0  0  0  0  0  0  0  0  0  0
    5.1387   -1.9956    0.0000 C   0  0  0  0  0  0  0  0  0  0  0  0
  1  2  1  0  0  0  0
  2  3  1  0  0  0  0
  2  7  1  0  0  0  0
  3  4  1  0  0  0  0
  4  5  1  0  0  0  0
  5  6  1  0  0  0  0
  6  7  1  0  0  0  0
  6  8  1  0  0  0  0
  8  9  1  0  0  0  0
  9 10  2  0  0  0  0
  9 11  1  0  0  0  0
 11 12  1  0  0  0  0
 11 13  1  0  0  0  0
 11 19  1  0  0  0  0
 13 14  2  0  0  0  0
 13 18  1  0  0  0  0
 14 15  1  0  0  0  0
 15 16  2  0  0  0  0
 16 17  1  0  0  0  0
 17 18  2  0  0  0  0
 19 20  2  0  0  0  0
 19 24  1  0  0  0  0
 20 21  1  0  0  0  0
 21 22  2  0  0  0  0
 22 23  1  0  0  0  0
 23 24  2  0  0  0  0
M  END
> <ID>
11552

> <Formula>
C20H23NO3

> <FW>
325.4015

> <DSSTox_CID>
26258

> <DSSTox_RID>
81485

> <DSSTox_GSID>
46258

> <DSSTox_FileID_Sort>
6166

> <TS_ChemName>
N-Methyl-3-piperidyl benzilate

> <TS_ChemName_Synonyms>


> <TS_CASRN>
3321-80-0

> <CASRN_ChemName_Relationship>
primary

> <TS_Description>
single chemical compound

> <ChemNote>


> <STRUCTURE_Shown>
tested chemical

> <STRUCTURE_Formula>
C20H23NO3

> <STRUCTURE_MW>
325.4015

> <STRUCTURE_ChemType>
defined organic

> <STRUCTURE_DefinedOrganicForm>
parent

> <STRUCTURE_IUPAC>
1-methylpiperidin-3-yl hydroxy(diphenyl)acetate

> <STRUCTURE_SMILES>
CN3CCCC(OC(=O)C(O)(c1ccccc1)c2ccccc2)C3

> <STRUCTURE_SMILES_Desalt>
CN3CCCC(OC(=O)C(O)(c1ccccc1)c2ccccc2)C3

> <Substance_modify_yyyymmdd>
20110816

$$$$
