33228-44-3
ChemmineR-0915142007XD

 12 12  0  0  0  0  0  0  0  0  1 V2000
    0.0000   -2.6528    0.0000 N   0  0  0  0  0  0  0  0  0  0  0  0
    1.1369   -2.0058    0.0000 C   0  0  0  0  0  0  0  0  0  0  0  0
    1.1369   -0.6470    0.0000 C   0  0  0  0  0  0  0  0  0  0  0  0
    2.2831   -2.6528    0.0000 C   0  0  0  0  0  0  0  0  0  0  0  0
    2.2831    0.0000    0.0000 C   0  0  0  0  0  0  0  0  0  0  0  0
    3.4477   -2.0058    0.0000 C   0  0  0  0  0  0  0  0  0  0  0  0
    3.4477   -0.6470    0.0000 C   0  0  0  0  0  0  0  0  0  0  0  0
    4.5939    0.0000    0.0000 C   0  0  0  0  0  0  0  0  0  0  0  0
    5.7585   -0.6470    0.0000 C   0  0  0  0  0  0  0  0  0  0  0  0
    6.9047    0.0000    0.0000 C   0  0  0  0  0  0  0  0  0  0  0  0
    8.0693   -0.6470    0.0000 C   0  0  0  0  0  0  0  0  0  0  0  0
    9.2432    0.0000    0.0000 C   0  0  0  0  0  0  0  0  0  0  0  0
  1  2  1  0  0  0  0
  2  3  2  0  0  0  0
  2  4  1  0  0  0  0
  3  5  1  0  0  0  0
  4  6  2  0  0  0  0
  5  7  2  0  0  0  0
  6  7  1  0  0  0  0
  7  8  1  0  0  0  0
  8  9  1  0  0  0  0
  9 10  1  0  0  0  0
 10 11  1  0  0  0  0
 11 12  1  0  0  0  0
M  END
> <ID>
7903

> <Formula>
C11H17N

> <FW>
163.2594

> <DSSTox_CID>
20707

> <DSSTox_RID>
79556

> <DSSTox_GSID>
40707

> <DSSTox_FileID_Sort>
4238

> <TS_ChemName>
4-Pentylaniline

> <TS_ChemName_Synonyms>
4-Pentylaniline (4-n-amylaniline)

> <TS_CASRN>
33228-44-3

> <CASRN_ChemName_Relationship>
primary

> <TS_Description>
single chemical compound

> <ChemNote>


> <STRUCTURE_Shown>
tested chemical

> <STRUCTURE_Formula>
C11H17N

> <STRUCTURE_MW>
163.2594

> <STRUCTURE_ChemType>
defined organic

> <STRUCTURE_DefinedOrganicForm>
parent

> <STRUCTURE_IUPAC>
4-pentylaniline

> <STRUCTURE_SMILES>
Nc1ccc(CCCCC)cc1

> <STRUCTURE_SMILES_Desalt>
Nc1ccc(CCCCC)cc1

> <Substance_modify_yyyymmdd>
20080429

$$$$
