33228-45-4
ChemmineR-0915142007XD

 13 13  0  0  0  0  0  0  0  0  1 V2000
    0.0000   -2.6504    0.0000 N   0  0  0  0  0  0  0  0  0  0  0  0
    1.1433   -2.0060    0.0000 C   0  0  0  0  0  0  0  0  0  0  0  0
    1.1433   -0.6444    0.0000 C   0  0  0  0  0  0  0  0  0  0  0  0
    2.2763   -2.6504    0.0000 C   0  0  0  0  0  0  0  0  0  0  0  0
    2.2763    0.0000    0.0000 C   0  0  0  0  0  0  0  0  0  0  0  0
    3.4508   -2.0060    0.0000 C   0  0  0  0  0  0  0  0  0  0  0  0
    3.4508   -0.6444    0.0000 C   0  0  0  0  0  0  0  0  0  0  0  0
    4.5941    0.0000    0.0000 C   0  0  0  0  0  0  0  0  0  0  0  0
    5.7686   -0.6444    0.0000 C   0  0  0  0  0  0  0  0  0  0  0  0
    6.9016    0.0000    0.0000 C   0  0  0  0  0  0  0  0  0  0  0  0
    8.0761   -0.6444    0.0000 C   0  0  0  0  0  0  0  0  0  0  0  0
    9.2506    0.0000    0.0000 C   0  0  0  0  0  0  0  0  0  0  0  0
   10.3939   -0.6860    0.0000 C   0  0  0  0  0  0  0  0  0  0  0  0
  1  2  1  0  0  0  0
  2  3  2  0  0  0  0
  2  4  1  0  0  0  0
  3  5  1  0  0  0  0
  4  6  2  0  0  0  0
  5  7  2  0  0  0  0
  6  7  1  0  0  0  0
  7  8  1  0  0  0  0
  8  9  1  0  0  0  0
  9 10  1  0  0  0  0
 10 11  1  0  0  0  0
 11 12  1  0  0  0  0
 12 13  1  0  0  0  0
M  END
> <ID>
7904

> <Formula>
C12H19N

> <FW>
177.286

> <DSSTox_CID>
20708

> <DSSTox_RID>
79557

> <DSSTox_GSID>
40708

> <DSSTox_FileID_Sort>
4239

> <TS_ChemName>
4-Hexylaniline

> <TS_ChemName_Synonyms>


> <TS_CASRN>
33228-45-4

> <CASRN_ChemName_Relationship>
primary

> <TS_Description>
single chemical compound

> <ChemNote>


> <STRUCTURE_Shown>
tested chemical

> <STRUCTURE_Formula>
C12H19N

> <STRUCTURE_MW>
177.286

> <STRUCTURE_ChemType>
defined organic

> <STRUCTURE_DefinedOrganicForm>
parent

> <STRUCTURE_IUPAC>
4-hexylaniline

> <STRUCTURE_SMILES>
Nc1ccc(CCCCCC)cc1

> <STRUCTURE_SMILES_Desalt>
Nc1ccc(CCCCCC)cc1

> <Substance_modify_yyyymmdd>
20080429

$$$$
