33237-74-0
ChemmineR-0915142007XD

 25 26  0  0  0  0  0  0  0  0  1 V2000
    4.3278   -3.4645    0.0000 C    0  0  0  0  0  0  0  0  0  0  0  0
    5.6693   -3.4645    0.0000 N    0  0  0  0  0  0  0  0  0  0  0  0
    3.5695   -2.3914    0.0000 C    0  0  0  0  0  0  0  0  0  0  0  0
    3.5695   -4.5377    0.0000 C    0  0  0  0  0  0  0  0  0  0  0  0
    2.3097   -4.1178    0.0000 C    0  0  0  0  0  0  0  0  0  0  0  0
    2.3097   -2.7880    0.0000 C    0  0  0  0  0  0  0  0  0  0  0  0
    6.3342   -2.3097    0.0000 C    0  0  0  0  0  0  0  0  0  0  0  0
    7.6640   -4.6311    0.0000 C    0  0  0  0  0  0  0  0  0  0  0  0
    9.6821   -5.7626    0.0000 N    0  0  0  0  0  0  0  0  0  0  0  0
    6.3342   -4.6077    0.0000 C    0  0  0  0  0  0  0  0  0  0  0  0
    8.3289   -5.7626    0.0000 C    0  0  0  0  0  0  0  0  0  0  0  0
    1.1548   -4.7944    0.0000 C    0  0  0  0  0  0  0  0  0  0  0  0
    1.1548   -2.1347    0.0000 C    0  0  0  0  0  0  0  0  0  0  0  0
    7.6640   -2.3214    0.0000 C    0  0  0  0  0  0  0  0  0  0  0  0
    5.6693   -1.1315    0.0000 C    0  0  0  0  0  0  0  0  0  0  0  0
   10.3353   -4.6311    0.0000 C    0  0  0  0  0  0  0  0  0  0  0  0
   10.3353   -6.9408    0.0000 C    0  0  0  0  0  0  0  0  0  0  0  0
    9.6821   -3.4645    0.0000 C    0  0  0  0  0  0  0  0  0  0  0  0
   11.6651   -6.9524    0.0000 C    0  0  0  0  0  0  0  0  0  0  0  0
    0.0000   -2.7880    0.0000 C    0  0  0  0  0  0  0  0  0  0  0  0
    0.0000   -4.1178    0.0000 C    0  0  0  0  0  0  0  0  0  0  0  0
    6.3342    0.0000    0.0000 C    0  0  0  0  0  0  0  0  0  0  0  0
    8.3289   -1.1782    0.0000 C    0  0  0  0  0  0  0  0  0  0  0  0
    7.6640    0.0000    0.0000 C    0  0  0  0  0  0  0  0  0  0  0  0
    4.7710   -5.8092    0.0000 Cl   0  0  0  0  0  0  0  0  0  0  0  0
  1  2  1  0  0  0  0
  1  3  1  0  0  0  0
  1  4  1  0  0  0  0
  2  7  1  0  0  0  0
  2 10  1  0  0  0  0
  3  6  1  0  0  0  0
  4  5  1  0  0  0  0
  5 12  2  0  0  0  0
  5  6  1  0  0  0  0
  6 13  2  0  0  0  0
  7 14  1  0  0  0  0
  7 15  2  0  0  0  0
  8 10  1  0  0  0  0
  8 11  1  0  0  0  0
  9 11  1  0  0  0  0
  9 16  1  0  0  0  0
  9 17  1  0  0  0  0
 12 21  1  0  0  0  0
 13 20  1  0  0  0  0
 14 23  2  0  0  0  0
 15 22  1  0  0  0  0
 16 18  1  0  0  0  0
 17 19  1  0  0  0  0
 20 21  2  0  0  0  0
 22 24  2  0  0  0  0
 23 24  1  0  0  0  0
M  END
> <ID>
11920

> <Formula>
C22H31ClN2

> <FW>
358.9479 (322.4870+36.4609)

> <DSSTox_CID>
26726

> <DSSTox_RID>
81856

> <DSSTox_GSID>
46726

> <DSSTox_FileID_Sort>
6537

> <TS_ChemName>
Aprindine hydrochloride

> <TS_ChemName_Synonyms>


> <TS_CASRN>
33237-74-0

> <CASRN_ChemName_Relationship>
primary

> <TS_Description>
single chemical compound

> <ChemNote>
parent [37640-71-4]

> <STRUCTURE_Shown>
tested chemical

> <STRUCTURE_Formula>
C22H31ClN2

> <STRUCTURE_MW>
358.9479

> <STRUCTURE_ChemType>
defined organic

> <STRUCTURE_DefinedOrganicForm>
complex

> <STRUCTURE_IUPAC>
N-(2,3-dihydro-1H-inden-2-yl)-N',N'-diethyl-N-phenylpropane-1,3-diamine hydrochloride (1:1)

> <STRUCTURE_SMILES>
Cl.CCN(CC)CCCN(c1ccccc1)C2Cc3ccccc3C2

> <STRUCTURE_SMILES_Desalt>
CCN(CC)CCCN(c1ccccc1)C2Cc3ccccc3C2

> <Substance_modify_yyyymmdd>
20110804

$$$$
