33245-39-5
ChemmineR-0915142007XD

 23 23  0  0  0  0  0  0  0  0  2 V2000
    4.6141   -3.9878    0.0000 C    0  0  0  0  0  0  0  0  0  0  0  0
    3.4721   -1.9985    0.0000 C    0  0  0  0  0  0  0  0  0  0  0  0
    4.6141   -2.6524    0.0000 C    0  0  0  0  0  0  0  0  0  0  0  0
    3.4721   -0.6723    0.0000 N    0  3  0  0  0  0  0  0  0  0  0  0
    5.7745   -4.6693    0.0000 N    0  3  0  0  0  0  0  0  0  0  0  0
    1.1604   -4.6693    0.0000 C    0  0  0  0  0  0  0  0  0  0  0  0
    2.3116   -3.9878    0.0000 C    0  0  0  0  0  0  0  0  0  0  0  0
    3.4721   -4.6509    0.0000 C    0  0  0  0  0  0  0  0  0  0  0  0
    2.3116   -2.6524    0.0000 C    0  0  0  0  0  0  0  0  0  0  0  0
    5.7653   -1.9985    0.0000 N    0  0  0  0  0  0  0  0  0  0  0  0
    4.6233    0.0000    0.0000 O    0  5  0  0  0  0  0  0  0  0  0  0
    6.9257   -4.0155    0.0000 O    0  5  0  0  0  0  0  0  0  0  0  0
    2.3301    0.0000    0.0000 O    0  0  0  0  0  0  0  0  0  0  0  0
    5.7653   -5.9863    0.0000 O    0  0  0  0  0  0  0  0  0  0  0  0
    0.0000   -5.3417    0.0000 F    0  0  0  0  0  0  0  0  0  0  0  0
    0.4881   -3.4997    0.0000 F    0  0  0  0  0  0  0  0  0  0  0  0
    1.8327   -5.8298    0.0000 F    0  0  0  0  0  0  0  0  0  0  0  0
    9.2098   -2.6708    0.0000 Cl   0  0  0  0  0  0  0  0  0  0  0  0
    6.9073   -2.6524    0.0000 C    0  0  0  0  0  0  0  0  0  0  0  0
    5.7653   -0.6723    0.0000 C    0  0  0  0  0  0  0  0  0  0  0  0
    8.0493   -1.9985    0.0000 C    0  0  0  0  0  0  0  0  0  0  0  0
    6.9073    0.0000    0.0000 C    0  0  0  0  0  0  0  0  0  0  0  0
    8.0493   -0.6723    0.0000 C    0  0  0  0  0  0  0  0  0  0  0  0
  1  3  2  0  0  0  0
  1  5  1  0  0  0  0
  1  8  1  0  0  0  0
  2  3  1  0  0  0  0
  2  4  1  0  0  0  0
  2  9  2  0  0  0  0
  3 10  1  0  0  0  0
  4 11  1  0  0  0  0
  4 13  2  0  0  0  0
  5 12  1  0  0  0  0
  5 14  2  0  0  0  0
  6  7  1  0  0  0  0
  6 15  1  0  0  0  0
  6 16  1  0  0  0  0
  6 17  1  0  0  0  0
  7  8  2  0  0  0  0
  7  9  1  0  0  0  0
 10 19  1  0  0  0  0
 10 20  1  0  0  0  0
 18 21  1  0  0  0  0
 19 21  1  0  0  0  0
 20 22  1  0  0  0  0
 22 23  1  0  0  0  0
M  END
> <ID>
6542

> <Formula>
C12H13ClF3N3O4

> <FW>
355.6975

> <DSSTox_CID>
12614

> <DSSTox_RID>
79005

> <DSSTox_GSID>
32614

> <DSSTox_FileID_Sort>
3687

> <TS_ChemName>
Fluchloralin

> <TS_ChemName_Synonyms>


> <TS_CASRN>
33245-39-5

> <CASRN_ChemName_Relationship>
primary

> <TS_Description>
single chemical compound

> <ChemNote>


> <STRUCTURE_Shown>
tested chemical

> <STRUCTURE_Formula>
C12H13ClF3N3O4

> <STRUCTURE_MW>
355.6975

> <STRUCTURE_ChemType>
defined organic

> <STRUCTURE_DefinedOrganicForm>
parent

> <STRUCTURE_IUPAC>
N-(2-chloroethyl)-2,6-dinitro-N-propyl-4-(trifluoromethyl)aniline

> <STRUCTURE_SMILES>
[O-][N+](=O)c1cc(cc([N+]([O-])=O)c1N(CCCl)CCC)C(F)(F)F

> <STRUCTURE_SMILES_Desalt>
[O-][N+](=O)c1cc(cc([N+]([O-])=O)c1N(CCCl)CCC)C(F)(F)F

> <Substance_modify_yyyymmdd>
20080429

$$$$
