333-20-0
ChemmineR-0915142007XD

  4  2  0  0  0  0  0  0  0  0  2 V2000
    1.3300    0.0000    0.0000 C   0  0  0  0  0  0  0  0  0  0  0  0
    2.6600    0.0000    0.0000 N   0  0  0  0  0  0  0  0  0  0  0  0
    0.0000    0.0000    0.0000 S   0  5  0  0  0  0  0  0  0  0  0  0
    5.3629    0.0000    0.0000 K   0  3  0  0  0  0  0  0  0  0  0  0
  1  2  3  0  0  0  0
  1  3  1  0  0  0  0
M  END
> <ID>
6078

> <Formula>
CKNS

> <FW>
97.1807 (58.0829+39.0978)

> <DSSTox_CID>
9619

> <DSSTox_RID>
78790

> <DSSTox_GSID>
29619

> <DSSTox_FileID_Sort>
3472

> <TS_ChemName>
Potassium thiocyanate

> <TS_ChemName_Synonyms>


> <TS_CASRN>
333-20-0

> <CASRN_ChemName_Relationship>
primary

> <TS_Description>
single chemical compound

> <ChemNote>


> <STRUCTURE_Shown>
tested chemical

> <STRUCTURE_Formula>
CKNS

> <STRUCTURE_MW>
97.1807

> <STRUCTURE_ChemType>
defined organic

> <STRUCTURE_DefinedOrganicForm>
salt

> <STRUCTURE_IUPAC>
potassium thiocyanate

> <STRUCTURE_SMILES>
[K+].[S-]C#N

> <STRUCTURE_SMILES_Desalt>
N#CS

> <Substance_modify_yyyymmdd>
20080429

$$$$
