333-27-7
ChemmineR-0915142007XD

  9  8  0  0  0  0  0  0  0  0  1 V2000
    4.6498   -0.1767    0.0000 C   0  0  0  0  0  0  0  0  0  0  0  0
    1.3298   -1.3298    0.0000 C   0  0  0  0  0  0  0  0  0  0  0  0
    1.3298   -2.6597    0.0000 F   0  0  0  0  0  0  0  0  0  0  0  0
    1.3298    0.0000    0.0000 F   0  0  0  0  0  0  0  0  0  0  0  0
    0.0000   -1.3298    0.0000 F   0  0  0  0  0  0  0  0  0  0  0  0
    2.6597   -2.6597    0.0000 O   0  0  0  0  0  0  0  0  0  0  0  0
    2.6597    0.0000    0.0000 O   0  0  0  0  0  0  0  0  0  0  0  0
    3.9942   -1.3298    0.0000 O   0  0  0  0  0  0  0  0  0  0  0  0
    2.6597   -1.3298    0.0000 S   0  0  0  0  0  0  0  0  0  0  0  0
  1  8  1  0  0  0  0
  2  3  1  0  0  0  0
  2  4  1  0  0  0  0
  2  5  1  0  0  0  0
  2  9  1  0  0  0  0
  6  9  2  0  0  0  0
  7  9  2  0  0  0  0
  8  9  1  0  0  0  0
M  END
> <ID>
14135

> <Formula>
C2H3F3O3S

> <FW>
164.1036

> <DSSTox_CID>
29128

> <DSSTox_RID>
83347

> <DSSTox_GSID>
49272

> <DSSTox_FileID_Sort>
8022

> <TS_ChemName>
Methyl trifluoromethanesulfonate

> <TS_ChemName_Synonyms>


> <TS_CASRN>
333-27-7

> <CASRN_ChemName_Relationship>
primary

> <TS_Description>
single chemical compound

> <ChemNote>


> <STRUCTURE_Shown>
tested chemical

> <STRUCTURE_Formula>
C2H3F3O3S

> <STRUCTURE_MW>
164.1036

> <STRUCTURE_ChemType>
defined organic

> <STRUCTURE_DefinedOrganicForm>
parent

> <STRUCTURE_IUPAC>
methyl trifluoromethanesulfonate

> <STRUCTURE_SMILES>
FC(F)(F)S(=O)(=O)OC

> <STRUCTURE_SMILES_Desalt>
FC(F)(F)S(=O)(=O)OC

> <Substance_modify_yyyymmdd>
20111204

$$$$
