333-36-8
ChemmineR-0915142007XD

 11 10  0  0  0  0  0  0  0  0  1 V2000
    0.4837    0.0000    0.0000 F   0  0  0  0  0  0  0  0  0  0  0  0
    1.1539   -1.1470    0.0000 C   0  0  0  0  0  0  0  0  0  0  0  0
    1.8173   -2.3010    0.0000 F   0  0  0  0  0  0  0  0  0  0  0  0
    0.0000   -1.8173    0.0000 F   0  0  0  0  0  0  0  0  0  0  0  0
    2.3010   -0.4837    0.0000 C   0  0  0  0  0  0  0  0  0  0  0  0
    3.4549   -1.1470    0.0000 O   0  0  0  0  0  0  0  0  0  0  0  0
    4.6088   -0.4837    0.0000 C   0  0  0  0  0  0  0  0  0  0  0  0
    5.7559   -1.1470    0.0000 C   0  0  0  0  0  0  0  0  0  0  0  0
    6.4261    0.0000    0.0000 F   0  0  0  0  0  0  0  0  0  0  0  0
    6.9098   -1.8173    0.0000 F   0  0  0  0  0  0  0  0  0  0  0  0
    5.0925   -2.3010    0.0000 F   0  0  0  0  0  0  0  0  0  0  0  0
  1  2  1  0  0  0  0
  2  3  1  0  0  0  0
  2  4  1  0  0  0  0
  2  5  1  0  0  0  0
  5  6  1  0  0  0  0
  6  7  1  0  0  0  0
  7  8  1  0  0  0  0
  8  9  1  0  0  0  0
  8 10  1  0  0  0  0
  8 11  1  0  0  0  0
M  END
> <ID>
11749

> <Formula>
C4H4F6O

> <FW>
182.0644

> <DSSTox_CID>
26516

> <DSSTox_RID>
81683

> <DSSTox_GSID>
46516

> <DSSTox_FileID_Sort>
6364

> <TS_ChemName>
Flurothyl

> <TS_ChemName_Synonyms>


> <TS_CASRN>
333-36-8

> <CASRN_ChemName_Relationship>
primary

> <TS_Description>
single chemical compound

> <ChemNote>


> <STRUCTURE_Shown>
tested chemical

> <STRUCTURE_Formula>
C4H4F6O

> <STRUCTURE_MW>
182.0644

> <STRUCTURE_ChemType>
defined organic

> <STRUCTURE_DefinedOrganicForm>
parent

> <STRUCTURE_IUPAC>
bis(2,2,2-trifluoroethyl) ether

> <STRUCTURE_SMILES>
FC(F)(F)COCC(F)(F)F

> <STRUCTURE_SMILES_Desalt>
FC(F)(F)COCC(F)(F)F

> <Substance_modify_yyyymmdd>
20110811

$$$$
