3331-46-2
ChemmineR-0915142007XD

 21 25  0  0  0  0  0  0  0  0  1 V2000
    0.0000   -5.3290    0.0000 C   0  0  0  0  0  0  0  0  0  0  0  0
    8.0621   -3.3296    0.0000 C   0  0  0  0  0  0  0  0  0  0  0  0
    0.0000   -3.9988    0.0000 C   0  0  0  0  0  0  0  0  0  0  0  0
    1.1529   -5.9821    0.0000 C   0  0  0  0  0  0  0  0  0  0  0  0
    6.9092   -3.9988    0.0000 C   0  0  0  0  0  0  0  0  0  0  0  0
    8.0621   -1.9994    0.0000 C   0  0  0  0  0  0  0  0  0  0  0  0
    1.1529   -1.9994    0.0000 C   0  0  0  0  0  0  0  0  0  0  0  0
    2.3058   -1.3302    0.0000 C   0  0  0  0  0  0  0  0  0  0  0  0
    3.4586   -5.9821    0.0000 C   0  0  0  0  0  0  0  0  0  0  0  0
    4.6035   -5.3290    0.0000 C   0  0  0  0  0  0  0  0  0  0  0  0
    4.6035   -1.3302    0.0000 C   0  0  0  0  0  0  0  0  0  0  0  0
    1.1529   -3.3296    0.0000 C   0  0  0  0  0  0  0  0  0  0  0  0
    2.3058   -5.3290    0.0000 C   0  0  0  0  0  0  0  0  0  0  0  0
    3.4586   -1.9994    0.0000 C   0  0  0  0  0  0  0  0  0  0  0  0
    5.7563   -3.3296    0.0000 C   0  0  0  0  0  0  0  0  0  0  0  0
    4.6035   -3.9988    0.0000 C   0  0  0  0  0  0  0  0  0  0  0  0
    5.7563   -1.9994    0.0000 C   0  0  0  0  0  0  0  0  0  0  0  0
    6.9092   -1.3302    0.0000 C   0  0  0  0  0  0  0  0  0  0  0  0
    2.3058   -3.9988    0.0000 C   0  0  0  0  0  0  0  0  0  0  0  0
    3.4586   -3.3296    0.0000 C   0  0  0  0  0  0  0  0  0  0  0  0
    6.9092    0.0000    0.0000 O   0  0  0  0  0  0  0  0  0  0  0  0
  1  3  2  0  0  0  0
  1  4  1  0  0  0  0
  2  5  1  0  0  0  0
  2  6  1  0  0  0  0
  3 12  1  0  0  0  0
  4 13  2  0  0  0  0
  5 15  1  0  0  0  0
  6 18  1  0  0  0  0
  7  8  2  0  0  0  0
  7 12  1  0  0  0  0
  8 14  1  0  0  0  0
  9 10  2  0  0  0  0
  9 13  1  0  0  0  0
 10 16  1  0  0  0  0
 11 14  2  0  0  0  0
 11 17  1  0  0  0  0
 12 19  2  0  0  0  0
 13 19  1  0  0  0  0
 14 20  1  0  0  0  0
 15 16  1  0  0  0  0
 15 17  2  0  0  0  0
 16 20  2  0  0  0  0
 17 18  1  0  0  0  0
 18 21  2  0  0  0  0
 19 20  1  0  0  0  0
M  END
> <ID>
14134

> <Formula>
C20H14O

> <FW>
270.3246

> <DSSTox_CID>
29127

> <DSSTox_RID>
83346

> <DSSTox_GSID>
49271

> <DSSTox_FileID_Sort>
8021

> <TS_ChemName>
9,10-Dihydrobenzo[a]pyren-7(8H)-one

> <TS_ChemName_Synonyms>


> <TS_CASRN>
3331-46-2

> <CASRN_ChemName_Relationship>
primary

> <TS_Description>
single chemical compound

> <ChemNote>


> <STRUCTURE_Shown>
tested chemical

> <STRUCTURE_Formula>
C20H14O

> <STRUCTURE_MW>
270.3246

> <STRUCTURE_ChemType>
defined organic

> <STRUCTURE_DefinedOrganicForm>
parent

> <STRUCTURE_IUPAC>
9,10-dihydrobenzo[pqr]tetraphen-7(8H)-one

> <STRUCTURE_SMILES>
O=C5CCCc1c5cc2ccc4cccc3ccc1c2c34

> <STRUCTURE_SMILES_Desalt>
O=C5CCCc1c5cc2ccc4cccc3ccc1c2c34

> <Substance_modify_yyyymmdd>
20111204

$$$$
