3333-52-6
ChemmineR-0915142007XD

 10  9  0  0  0  0  0  0  0  0  1 V2000
    2.3051   -1.1499    0.0000 C   0  0  0  0  0  0  0  0  0  0  0  0
    3.4551   -0.4853    0.0000 C   0  0  0  0  0  0  0  0  0  0  0  0
    1.6405    0.0000    0.0000 C   0  0  0  0  0  0  0  0  0  0  0  0
    1.1499   -1.8146    0.0000 C   0  0  0  0  0  0  0  0  0  0  0  0
    0.0000   -2.4792    0.0000 N   0  0  0  0  0  0  0  0  0  0  0  0
    2.9698   -2.3051    0.0000 C   0  0  0  0  0  0  0  0  0  0  0  0
    3.6344   -3.4551    0.0000 C   0  0  0  0  0  0  0  0  0  0  0  0
    1.8198   -2.9698    0.0000 C   0  0  0  0  0  0  0  0  0  0  0  0
    4.1250   -1.6352    0.0000 C   0  0  0  0  0  0  0  0  0  0  0  0
    5.2749   -0.9706    0.0000 N   0  0  0  0  0  0  0  0  0  0  0  0
  1  2  1  0  0  0  0
  1  3  1  0  0  0  0
  1  4  1  0  0  0  0
  1  6  1  0  0  0  0
  4  5  3  0  0  0  0
  6  7  1  0  0  0  0
  6  8  1  0  0  0  0
  6  9  1  0  0  0  0
  9 10  3  0  0  0  0
M  END
> <ID>
4557

> <Formula>
C8H12N2

> <FW>
136.1943

> <DSSTox_CID>
6125

> <DSSTox_RID>
78028

> <DSSTox_GSID>
26125

> <DSSTox_FileID_Sort>
2711

> <TS_ChemName>
Tetramethylsuccinonitrile

> <TS_ChemName_Synonyms>


> <TS_CASRN>
3333-52-6

> <CASRN_ChemName_Relationship>
primary

> <TS_Description>
single chemical compound

> <ChemNote>


> <STRUCTURE_Shown>
tested chemical

> <STRUCTURE_Formula>
C8H12N2

> <STRUCTURE_MW>
136.1943

> <STRUCTURE_ChemType>
defined organic

> <STRUCTURE_DefinedOrganicForm>
parent

> <STRUCTURE_IUPAC>
tetramethylbutanedinitrile

> <STRUCTURE_SMILES>
CC(C)(C#N)C(C)(C)C#N

> <STRUCTURE_SMILES_Desalt>
CC(C)(C#N)C(C)(C)C#N

> <Substance_modify_yyyymmdd>
20080429

$$$$
