3337-62-0
ChemmineR-0915142007XD

 12 12  0  0  0  0  0  0  0  0  1 V2000
    4.6342   -1.3348    0.0000 C    0  0  0  0  0  0  0  0  0  0  0  0
    4.6342    0.0000    0.0000 O    0  0  0  0  0  0  0  0  0  0  0  0
    3.4555   -1.9878    0.0000 C    0  0  0  0  0  0  0  0  0  0  0  0
    5.7784   -1.9878    0.0000 O    0  0  0  0  0  0  0  0  0  0  0  0
    2.3229   -1.3348    0.0000 C    0  0  0  0  0  0  0  0  0  0  0  0
    3.4555   -3.3283    0.0000 C    0  0  0  0  0  0  0  0  0  0  0  0
    1.1788   -1.9878    0.0000 C    0  0  0  0  0  0  0  0  0  0  0  0
    2.3229   -3.9813    0.0000 C    0  0  0  0  0  0  0  0  0  0  0  0
    1.1788   -3.3283    0.0000 C    0  0  0  0  0  0  0  0  0  0  0  0
    0.0000   -1.3348    0.0000 Br   0  0  0  0  0  0  0  0  0  0  0  0
    2.3229   -5.3161    0.0000 Br   0  0  0  0  0  0  0  0  0  0  0  0
    0.0000   -3.9813    0.0000 O    0  0  0  0  0  0  0  0  0  0  0  0
  1  2  2  0  0  0  0
  1  3  1  0  0  0  0
  1  4  1  0  0  0  0
  3  5  2  0  0  0  0
  3  6  1  0  0  0  0
  5  7  1  0  0  0  0
  6  8  2  0  0  0  0
  7  9  2  0  0  0  0
  7 10  1  0  0  0  0
  8  9  1  0  0  0  0
  8 11  1  0  0  0  0
  9 12  1  0  0  0  0
M  END
> <ID>
8612

> <Formula>
C7H4Br2O3

> <FW>
295.9129

> <DSSTox_CID>
21656

> <DSSTox_RID>
79805

> <DSSTox_GSID>
41656

> <DSSTox_FileID_Sort>
4487

> <TS_ChemName>
3,5-Dibromo-4-hydroxybenzoic acid

> <TS_ChemName_Synonyms>
Benzoic acid, 3,5-dibromo-4-hydroxy-

> <TS_CASRN>
3337-62-0

> <CASRN_ChemName_Relationship>
primary

> <TS_Description>
single chemical compound

> <ChemNote>


> <STRUCTURE_Shown>
tested chemical

> <STRUCTURE_Formula>
C7H4Br2O3

> <STRUCTURE_MW>
295.9129

> <STRUCTURE_ChemType>
defined organic

> <STRUCTURE_DefinedOrganicForm>
parent

> <STRUCTURE_IUPAC>
3,5-dibromo-4-hydroxybenzoic acid

> <STRUCTURE_SMILES>
Brc1cc(cc(Br)c1O)C(=O)O

> <STRUCTURE_SMILES_Desalt>
Brc1cc(cc(Br)c1O)C(=O)O

> <Substance_modify_yyyymmdd>
20080825

$$$$
