3337-71-1
ChemmineR-0915142007XD

 15 15  0  0  0  0  0  0  0  0  1 V2000
    7.2875   -1.1820    0.0000 C   0  0  0  0  0  0  0  0  0  0  0  0
    6.6360    0.0000    0.0000 O   0  0  0  0  0  0  0  0  0  0  0  0
    8.6371   -1.1820    0.0000 O   0  0  0  0  0  0  0  0  0  0  0  0
    6.6360   -2.2989    0.0000 N   0  0  0  0  0  0  0  0  0  0  0  0
    5.3144   -2.2989    0.0000 S   0  0  0  0  0  0  0  0  0  0  0  0
    5.3144   -3.6391    0.0000 O   0  0  0  0  0  0  0  0  0  0  0  0
    5.3144   -0.9959    0.0000 O   0  0  0  0  0  0  0  0  0  0  0  0
    3.9928   -2.2989    0.0000 C   0  0  0  0  0  0  0  0  0  0  0  0
    3.3227   -1.1448    0.0000 C   0  0  0  0  0  0  0  0  0  0  0  0
    3.3227   -3.4530    0.0000 C   0  0  0  0  0  0  0  0  0  0  0  0
    1.9824   -1.1448    0.0000 C   0  0  0  0  0  0  0  0  0  0  0  0
    2.0197   -3.4530    0.0000 C   0  0  0  0  0  0  0  0  0  0  0  0
    1.3402   -2.2989    0.0000 C   0  0  0  0  0  0  0  0  0  0  0  0
    0.0000   -2.2989    0.0000 N   0  0  0  0  0  0  0  0  0  0  0  0
    9.3072    0.0000    0.0000 C   0  0  0  0  0  0  0  0  0  0  0  0
  1  2  2  0  0  0  0
  1  3  1  0  0  0  0
  1  4  1  0  0  0  0
  3 15  1  0  0  0  0
  4  5  1  0  0  0  0
  5  6  2  0  0  0  0
  5  7  2  0  0  0  0
  5  8  1  0  0  0  0
  8  9  2  0  0  0  0
  8 10  1  0  0  0  0
  9 11  1  0  0  0  0
 10 12  2  0  0  0  0
 11 13  2  0  0  0  0
 12 13  1  0  0  0  0
 13 14  1  0  0  0  0
M  END
> <ID>
3410

> <Formula>
C8H10N2O4S

> <FW>
230.241

> <DSSTox_CID>
3890

> <DSSTox_RID>
77220

> <DSSTox_GSID>
23890

> <DSSTox_FileID_Sort>
1903

> <TS_ChemName>
Asulam

> <TS_ChemName_Synonyms>
Asulam (Carbamic acid, ((4-aminophenyl)sulfonyl)-, methyl ester, monosodium salt)

> <TS_CASRN>
3337-71-1

> <CASRN_ChemName_Relationship>
primary

> <TS_Description>
single chemical compound

> <ChemNote>


> <STRUCTURE_Shown>
tested chemical

> <STRUCTURE_Formula>
C8H10N2O4S

> <STRUCTURE_MW>
230.241

> <STRUCTURE_ChemType>
defined organic

> <STRUCTURE_DefinedOrganicForm>
parent

> <STRUCTURE_IUPAC>
methyl [(4-aminophenyl)sulfonyl]carbamate

> <STRUCTURE_SMILES>
Nc1ccc(cc1)S(=O)(=O)NC(=O)OC

> <STRUCTURE_SMILES_Desalt>
Nc1ccc(cc1)S(=O)(=O)NC(=O)OC

> <Substance_modify_yyyymmdd>
20080429

$$$$
