33402-03-8
ChemmineR-0915142007XD

 22 21  0  0  1  0  0  0  0  0  1 V2000
    2.2986   -3.9059    0.0000 O   0  0  0  0  0  0  0  0  0  0  0  0
    2.2986   -5.2301    0.0000 C   0  0  0  0  0  0  0  0  0  0  0  0
    3.4562   -5.9047    0.0000 C   0  0  0  0  0  0  0  0  0  0  0  0
    3.4562   -7.2289    0.0000 O   0  0  0  0  0  0  0  0  0  0  0  0
    4.6222   -5.2301    0.0000 C   0  0  0  0  0  0  0  0  0  0  0  0
    5.7715   -5.9047    0.0000 O   0  0  0  0  0  0  0  0  0  0  0  0
    4.6222   -3.9059    0.0000 O   0  0  0  0  0  0  0  0  0  0  0  0
    1.1493   -5.9047    0.0000 C   0  0  0  0  0  0  0  0  0  0  0  0
    0.0000   -5.2301    0.0000 O   0  0  0  0  0  0  0  0  0  0  0  0
    1.1493   -7.2289    0.0000 O   0  0  0  0  0  0  0  0  0  0  0  0
    4.8720   -1.9821    0.0000 C   0  0  0  0  0  0  0  0  0  0  0  0
    3.7227   -2.6567    0.0000 C   0  0  0  0  0  0  0  0  0  0  0  0
    2.5734   -1.9821    0.0000 C   0  0  0  0  0  0  0  0  0  0  0  0
    2.5734   -0.6579    0.0000 C   0  0  0  0  0  0  0  0  0  0  0  0
    3.7227    0.0000    0.0000 C   0  0  0  0  0  0  0  0  0  0  0  0
    4.8720   -0.6579    0.0000 C   0  0  0  0  0  0  0  0  0  0  0  0
    1.4241   -2.6567    0.0000 O   0  0  0  0  0  0  0  0  0  0  0  0
    6.0296   -2.6567    0.0000 C   0  0  0  0  0  0  0  0  0  0  0  0
    7.1789   -1.9821    0.0000 C   0  0  0  0  0  0  0  0  0  0  0  0
    8.3282   -2.6567    0.0000 C   0  0  0  0  0  0  0  0  0  0  0  0
    7.1789   -0.6579    0.0000 N   0  0  0  0  0  0  0  0  0  0  0  0
    6.0296   -3.9809    0.0000 O   0  0  0  0  0  0  0  0  0  0  0  0
  2  1  1  1  0  0  0
  2  3  1  0  0  0  0
  2  8  1  0  0  0  0
  3  4  1  6  0  0  0
  3  5  1  0  0  0  0
  5  6  1  0  0  0  0
  5  7  2  0  0  0  0
  8  9  1  0  0  0  0
  8 10  2  0  0  0  0
 11 12  2  0  0  0  0
 11 16  1  0  0  0  0
 11 18  1  0  0  0  0
 12 13  1  0  0  0  0
 13 14  2  0  0  0  0
 13 17  1  0  0  0  0
 14 15  1  0  0  0  0
 15 16  2  0  0  0  0
 18 19  1  0  0  0  0
 18 22  1  6  0  0  0
 19 20  1  0  0  0  0
 19 21  1  1  0  0  0
M  END
> <ID>
11044

> <Formula>
C13H19NO8

> <FW>
317.2919 (150.0868+167.2050)

> <DSSTox_CID>
25580

> <DSSTox_RID>
80976

> <DSSTox_GSID>
45580

> <DSSTox_FileID_Sort>
5657

> <TS_ChemName>
Metaraminol bitartrate

> <TS_ChemName_Synonyms>


> <TS_CASRN>
33402-03-8

> <CASRN_ChemName_Relationship>
primary

> <TS_Description>
single chemical compound

> <ChemNote>
stereochem; parent [54-49-9]

> <STRUCTURE_Shown>
tested chemical

> <STRUCTURE_Formula>
C13H19NO8

> <STRUCTURE_MW>
317.2919

> <STRUCTURE_ChemType>
defined organic

> <STRUCTURE_DefinedOrganicForm>
complex

> <STRUCTURE_IUPAC>
(2R,3S)-2,3-dihydroxybutanedioic acid - 3-[(1R,2S)-2-amino-1-hydroxypropyl]phenol (1:1)

> <STRUCTURE_SMILES>
O[C@H](c1cc(O)ccc1)[C@H](C)N.O=C(O)[C@H](O)[C@H](O)C(=O)O

> <STRUCTURE_SMILES_Desalt>
O[C@H](c1cc(O)ccc1)[C@H](C)N

> <Substance_modify_yyyymmdd>
20110719

$$$$
