33401-94-4
ChemmineR-0915142007XD

 24 24  0  0  1  0  0  0  0  0  1 V2000
    5.2528   -2.1447    0.0000 C   0  0  0  0  0  0  0  0  0  0  0  0
    4.2440   -1.2541    0.0000 C   0  0  0  0  0  0  0  0  0  0  0  0
    7.2430   -3.9350    0.0000 C   0  0  0  0  0  0  0  0  0  0  0  0
    9.0879   -0.8906    0.0000 C   0  0  0  0  0  0  0  0  0  0  0  0
    8.0791    0.0000    0.0000 C   0  0  0  0  0  0  0  0  0  0  0  0
    8.7970   -2.2174    0.0000 C   0  0  0  0  0  0  0  0  0  0  0  0
    6.8068   -0.4090    0.0000 N   0  0  0  0  0  0  0  0  0  0  0  0
    7.5157   -2.6264    0.0000 N   0  0  0  0  0  0  0  0  0  0  0  0
    6.5251   -1.7358    0.0000 C   0  0  0  0  0  0  0  0  0  0  0  0
    2.9626   -1.6540    0.0000 C   0  0  0  0  0  0  0  0  0  0  0  0
    1.8812   -0.8815    0.0000 S   0  0  0  0  0  0  0  0  0  0  0  0
    0.7906   -1.6540    0.0000 C   0  0  0  0  0  0  0  0  0  0  0  0
    2.5628   -2.9354    0.0000 C   0  0  0  0  0  0  0  0  0  0  0  0
    1.2178   -2.9354    0.0000 C   0  0  0  0  0  0  0  0  0  0  0  0
    1.1360   -5.3618    0.0000 C   0  0  0  0  0  0  0  0  0  0  0  0
    2.2720   -6.0162    0.0000 C   0  0  0  0  0  0  0  0  0  0  0  0
    0.0000   -6.0162    0.0000 O   0  0  0  0  0  0  0  0  0  0  0  0
    1.1360   -4.0532    0.0000 O   0  0  0  0  0  0  0  0  0  0  0  0
    2.2720   -7.3248    0.0000 O   0  0  0  0  0  0  0  0  0  0  0  0
    3.3989   -5.3618    0.0000 C   0  0  0  0  0  0  0  0  0  0  0  0
    4.5348   -6.0162    0.0000 C   0  0  0  0  0  0  0  0  0  0  0  0
    5.6708   -5.3618    0.0000 O   0  0  0  0  0  0  0  0  0  0  0  0
    4.5348   -7.3248    0.0000 O   0  0  0  0  0  0  0  0  0  0  0  0
    3.3989   -4.0532    0.0000 O   0  0  0  0  0  0  0  0  0  0  0  0
  1  2  2  0  0  0  0
  1  9  1  0  0  0  0
  2 10  1  0  0  0  0
  3  8  1  0  0  0  0
  4  5  1  0  0  0  0
  4  6  1  0  0  0  0
  5  7  1  0  0  0  0
  6  8  1  0  0  0  0
  7  9  2  0  0  0  0
  8  9  1  0  0  0  0
 10 11  1  0  0  0  0
 10 13  2  0  0  0  0
 11 12  1  0  0  0  0
 12 14  2  0  0  0  0
 13 14  1  0  0  0  0
 15 16  1  0  0  0  0
 15 17  1  0  0  0  0
 15 18  2  0  0  0  0
 16 19  1  1  0  0  0
 16 20  1  0  0  0  0
 20 21  1  0  0  0  0
 20 24  1  1  0  0  0
 21 22  1  0  0  0  0
 21 23  2  0  0  0  0
M  END
> <ID>
13847

> <Formula>
C15H20N2O6S

> <FW>
356.3941 (206.3073+150.0868)

> <DSSTox_CID>
28784

> <DSSTox_RID>
83053

> <DSSTox_GSID>
48858

> <DSSTox_FileID_Sort>
7730

> <TS_ChemName>
Pyrantel tartrate

> <TS_ChemName_Synonyms>


> <TS_CASRN>
33401-94-4

> <CASRN_ChemName_Relationship>
primary

> <TS_Description>
single chemical compound

> <ChemNote>


> <STRUCTURE_Shown>
tested chemical

> <STRUCTURE_Formula>
C15H20N2O6S

> <STRUCTURE_MW>
356.3941

> <STRUCTURE_ChemType>
defined organic

> <STRUCTURE_DefinedOrganicForm>
complex

> <STRUCTURE_IUPAC>
(2R,3R)-2,3-dihydroxybutanedioic acid - 1-methyl-2-[(E)-2-(thiophen-2-yl)ethenyl]-1,4,5,6-tetrahydropyrimidine (1:1)

> <STRUCTURE_SMILES>
O=C(O)[C@H](O)[C@@H](O)C(=O)O.CN2CCCN=C2/C=C/c1cccs1

> <STRUCTURE_SMILES_Desalt>
CN2CCCN=C2/C=C/c1cccs1

> <Substance_modify_yyyymmdd>
20111204

$$$$
