33414-36-7
ChemmineR-0915142007XD

 31 34  0  0  0  0  0  0  0  0  1 V2000
    0.0000  -10.6429    0.0000 O   0  0  0  0  0  0  0  0  0  0  0  0
    1.1544   -9.9832    0.0000 C   0  0  0  0  0  0  0  0  0  0  0  0
    1.1544   -8.6513    0.0000 C   0  0  0  0  0  0  0  0  0  0  0  0
    2.3087   -7.9790    0.0000 N   0  0  0  0  0  0  0  0  0  0  0  0
    3.4631   -8.6386    0.0000 C   0  0  0  0  0  0  0  0  0  0  0  0
    4.6301   -7.9790    0.0000 C   0  0  0  0  0  0  0  0  0  0  0  0
    4.6301   -6.6470    0.0000 N   0  0  0  0  0  0  0  0  0  0  0  0
    3.4631   -5.9747    0.0000 C   0  0  0  0  0  0  0  0  0  0  0  0
    2.3087   -6.6470    0.0000 C   0  0  0  0  0  0  0  0  0  0  0  0
    5.7591   -5.9747    0.0000 C   0  0  0  0  0  0  0  0  0  0  0  0
    5.7591   -4.6555    0.0000 C   0  0  0  0  0  0  0  0  0  0  0  0
    6.9007   -3.9831    0.0000 C   0  0  0  0  0  0  0  0  0  0  0  0
    8.0551   -4.6555    0.0000 O   0  0  0  0  0  0  0  0  0  0  0  0
    6.9007   -2.6512    0.0000 N   0  0  0  0  0  0  0  0  0  0  0  0
    5.7591   -1.9916    0.0000 C   0  0  0  0  0  0  0  0  0  0  0  0
    4.6301   -2.6512    0.0000 C   0  0  0  0  0  0  0  0  0  0  0  0
    3.4631   -1.9916    0.0000 C   0  0  0  0  0  0  0  0  0  0  0  0
    3.4631   -0.6596    0.0000 C   0  0  0  0  0  0  0  0  0  0  0  0
    4.6301    0.0000    0.0000 C   0  0  0  0  0  0  0  0  0  0  0  0
    5.7591   -0.6596    0.0000 C   0  0  0  0  0  0  0  0  0  0  0  0
    6.9007    0.0000    0.0000 S   0  0  0  0  0  0  0  0  0  0  0  0
    8.0551   -0.6596    0.0000 C   0  0  0  0  0  0  0  0  0  0  0  0
    9.2221    0.0000    0.0000 C   0  0  0  0  0  0  0  0  0  0  0  0
   10.3765   -0.6596    0.0000 C   0  0  0  0  0  0  0  0  0  0  0  0
   10.3765   -1.9916    0.0000 C   0  0  0  0  0  0  0  0  0  0  0  0
    9.2221   -2.6512    0.0000 C   0  0  0  0  0  0  0  0  0  0  0  0
    8.0551   -1.9916    0.0000 C   0  0  0  0  0  0  0  0  0  0  0  0
   11.5308   -2.6512    0.0000 C   0  0  0  0  0  0  0  0  0  0  0  0
   10.8585   -3.8056    0.0000 F   0  0  0  0  0  0  0  0  0  0  0  0
   12.1904   -1.5095    0.0000 F   0  0  0  0  0  0  0  0  0  0  0  0
   12.6852   -3.3235    0.0000 F   0  0  0  0  0  0  0  0  0  0  0  0
  1  2  1  0  0  0  0
  2  3  1  0  0  0  0
  3  4  1  0  0  0  0
  4  5  1  0  0  0  0
  4  9  1  0  0  0  0
  5  6  1  0  0  0  0
  6  7  1  0  0  0  0
  7  8  1  0  0  0  0
  7 10  1  0  0  0  0
  8  9  1  0  0  0  0
 10 11  1  0  0  0  0
 11 12  1  0  0  0  0
 12 13  2  0  0  0  0
 12 14  1  0  0  0  0
 14 15  1  0  0  0  0
 14 27  1  0  0  0  0
 15 16  2  0  0  0  0
 15 20  1  0  0  0  0
 16 17  1  0  0  0  0
 17 18  2  0  0  0  0
 18 19  1  0  0  0  0
 19 20  2  0  0  0  0
 20 21  1  0  0  0  0
 21 22  1  0  0  0  0
 22 23  2  0  0  0  0
 22 27  1  0  0  0  0
 23 24  1  0  0  0  0
 24 25  2  0  0  0  0
 25 26  1  0  0  0  0
 25 28  1  0  0  0  0
 26 27  2  0  0  0  0
 28 29  1  0  0  0  0
 28 30  1  0  0  0  0
 28 31  1  0  0  0  0
M  END
> <ID>
11474

> <Formula>
C22H24F3N3O2S

> <FW>
451.5051

> <DSSTox_CID>
26176

> <DSSTox_RID>
81407

> <DSSTox_GSID>
46176

> <DSSTox_FileID_Sort>
6088

> <TS_ChemName>
Ftorpropazine

> <TS_ChemName_Synonyms>


> <TS_CASRN>
33414-36-7

> <CASRN_ChemName_Relationship>
primary

> <TS_Description>
single chemical compound

> <ChemNote>


> <STRUCTURE_Shown>
tested chemical

> <STRUCTURE_Formula>
C22H24F3N3O2S

> <STRUCTURE_MW>
451.5051

> <STRUCTURE_ChemType>
defined organic

> <STRUCTURE_DefinedOrganicForm>
parent

> <STRUCTURE_IUPAC>
3-[4-(2-hydroxyethyl)piperazin-1-yl]-1-[2-(trifluoromethyl)-10H-phenothiazin-10-yl]propan-1-one

> <STRUCTURE_SMILES>
OCCN1CCN(CC1)CCC(=O)N2c4ccccc4Sc3ccc(cc23)C(F)(F)F

> <STRUCTURE_SMILES_Desalt>
OCCN1CCN(CC1)CCC(=O)N2c4ccccc4Sc3ccc(cc23)C(F)(F)F

> <Substance_modify_yyyymmdd>
20110818

$$$$
