33419-42-0
ChemmineR-0915142007XD

 42 48  0  0  1  0  0  0  0  0  1 V2000
    0.0000   -3.1912    0.0000 C   0  0  0  0  0  0  0  0  0  0  0  0
    1.3297   -3.1912    0.0000 O   0  0  0  0  0  0  0  0  0  0  0  0
    1.9945   -4.3480    0.0000 C   0  0  0  0  0  0  0  0  0  0  0  0
    3.3242   -4.3480    0.0000 C   0  0  0  0  0  0  0  0  0  0  0  0
    3.9890   -5.4916    0.0000 C   0  0  0  0  0  0  0  0  0  0  0  0
    3.3242   -6.6484    0.0000 C   0  0  0  0  0  0  0  0  0  0  0  0
    1.9945   -6.6484    0.0000 C   0  0  0  0  0  0  0  0  0  0  0  0
    1.3297   -7.8052    0.0000 O   0  0  0  0  0  0  0  0  0  0  0  0
    0.0000   -7.8052    0.0000 C   0  0  0  0  0  0  0  0  0  0  0  0
    1.3297   -5.4916    0.0000 C   0  0  0  0  0  0  0  0  0  0  0  0
    0.0000   -5.4916    0.0000 O   0  0  0  0  0  0  0  0  0  0  0  0
    5.3187   -5.4916    0.0000 C   0  0  0  0  0  0  0  0  0  0  0  0
    5.9835   -4.3480    0.0000 C   0  0  0  0  0  0  0  0  0  0  0  0
    5.3187   -3.1912    0.0000 C   0  0  0  0  0  0  0  0  0  0  0  0
    5.9835   -2.0477    0.0000 C   0  0  0  0  0  0  0  0  0  0  0  0
    5.5713   -0.7712    0.0000 O   0  0  0  0  0  0  0  0  0  0  0  0
    6.6484    0.0000    0.0000 C   0  0  0  0  0  0  0  0  0  0  0  0
    7.7254   -0.7712    0.0000 O   0  0  0  0  0  0  0  0  0  0  0  0
    7.3132   -2.0477    0.0000 C   0  0  0  0  0  0  0  0  0  0  0  0
    7.9780   -3.1912    0.0000 C   0  0  0  0  0  0  0  0  0  0  0  0
    7.3132   -4.3480    0.0000 C   0  0  0  0  0  0  0  0  0  0  0  0
    7.9780   -5.4916    0.0000 C   0  0  0  0  0  0  0  0  0  0  0  0
    9.3077   -5.4916    0.0000 O   0  0  0  0  0  0  0  0  0  0  0  0
    9.9726   -6.6484    0.0000 C   0  0  0  0  0  0  0  0  0  0  0  0
    9.3077   -7.8052    0.0000 O   0  0  0  0  0  0  0  0  0  0  0  0
    9.9726   -8.9487    0.0000 C   0  0  0  0  0  0  0  0  0  0  0  0
    9.3077  -10.1055    0.0000 C   0  0  0  0  0  0  0  0  0  0  0  0
    9.9726  -11.2490    0.0000 O   0  0  0  0  0  0  0  0  0  0  0  0
   11.3022  -11.2490    0.0000 C   0  0  0  0  0  0  0  0  0  0  0  0
   11.9671  -12.4059    0.0000 C   0  0  0  0  0  0  0  0  0  0  0  0
   11.9671  -10.1055    0.0000 O   0  0  0  0  0  0  0  0  0  0  0  0
   11.3022   -8.9487    0.0000 C   0  0  0  0  0  0  0  0  0  0  0  0
   11.9671   -7.8052    0.0000 C   0  0  0  0  0  0  0  0  0  0  0  0
   13.2967   -7.8052    0.0000 O   0  0  0  0  0  0  0  0  0  0  0  0
   11.3022   -6.6484    0.0000 C   0  0  0  0  0  0  0  0  0  0  0  0
   11.9671   -5.4916    0.0000 O   0  0  0  0  0  0  0  0  0  0  0  0
    7.3132   -6.6484    0.0000 C   0  0  0  0  0  0  0  0  0  0  0  0
    7.7254   -7.9116    0.0000 C   0  0  0  0  0  0  0  0  0  0  0  0
    6.6484   -8.6961    0.0000 O   0  0  0  0  0  0  0  0  0  0  0  0
    5.5713   -7.9116    0.0000 C   0  0  0  0  0  0  0  0  0  0  0  0
    4.3081   -8.3238    0.0000 O   0  0  0  0  0  0  0  0  0  0  0  0
    5.9835   -6.6484    0.0000 C   0  0  0  0  0  0  0  0  0  0  0  0
  1  2  1  0  0  0  0
  2  3  1  0  0  0  0
  3  4  2  0  0  0  0
  3 10  1  0  0  0  0
  4  5  1  0  0  0  0
  5  6  2  0  0  0  0
 12  5  1  6  0  0  0
  6  7  1  0  0  0  0
  7  8  1  0  0  0  0
  7 10  2  0  0  0  0
  8  9  1  0  0  0  0
 10 11  1  0  0  0  0
 12 13  1  0  0  0  0
 12 42  1  0  0  0  0
 13 14  2  0  0  0  0
 13 21  1  0  0  0  0
 14 15  1  0  0  0  0
 15 16  1  0  0  0  0
 15 19  2  0  0  0  0
 16 17  1  0  0  0  0
 17 18  1  0  0  0  0
 18 19  1  0  0  0  0
 19 20  1  0  0  0  0
 20 21  2  0  0  0  0
 21 22  1  0  0  0  0
 22 23  1  0  0  0  0
 22 37  1  0  0  0  0
 24 23  1  1  0  0  0
 24 25  1  0  0  0  0
 24 35  1  0  0  0  0
 26 25  1  1  0  0  0
 26 27  1  0  0  0  0
 26 32  1  0  0  0  0
 27 28  1  0  0  0  0
 28 29  1  0  0  0  0
 29 30  1  6  0  0  0
 29 31  1  0  0  0  0
 32 31  1  6  0  0  0
 32 33  1  0  0  0  0
 33 34  1  1  0  0  0
 33 35  1  0  0  0  0
 35 36  1  6  0  0  0
 37 38  1  0  0  0  0
 37 42  1  0  0  0  0
 38 39  1  0  0  0  0
 39 40  1  0  0  0  0
 40 41  2  0  0  0  0
 42 40  1  6  0  0  0
M  END
> <ID>
2728

> <Formula>
C29H32O13

> <FW>
588.5566

> <DSSTox_CID>
3035

> <DSSTox_RID>
76842

> <DSSTox_GSID>
23035

> <DSSTox_FileID_Sort>
1526

> <TS_ChemName>
Etoposide

> <TS_ChemName_Synonyms>
Etoposide (ETOP)

> <TS_CASRN>
33419-42-0

> <CASRN_ChemName_Relationship>
primary

> <TS_Description>
single chemical compound

> <ChemNote>
stereochem

> <STRUCTURE_Shown>
tested chemical

> <STRUCTURE_Formula>
C29H32O13

> <STRUCTURE_MW>
588.5566

> <STRUCTURE_ChemType>
defined organic

> <STRUCTURE_DefinedOrganicForm>
parent

> <STRUCTURE_IUPAC>
(8aR,9R)-9-(4-hydroxy-3,5-dimethoxyphenyl)-8-oxo-5,5a,6,8,8a,9-hexahydrofuro[3',4':6,7]naphtho[2,3-d][1,3]dioxol-5-yl 4,6-O-[(1R)-ethylidene]-beta-D-glucopyranoside

> <STRUCTURE_SMILES>
COc1cc(cc(OC)c1O)[C@@H]5c2cc7OCOc7cc2C(O[C@@H]3O[C@@H]4CO[C@@H](C)O[C@H]4[C@H](O)[C@H]3O)C6COC(=O)[C@H]56

> <STRUCTURE_SMILES_Desalt>
COc1cc(cc(OC)c1O)[C@@H]5c2cc7OCOc7cc2C(O[C@@H]3O[C@@H]4CO[C@@H](C)O[C@H]4[C@H](O)[C@H]3O)C6COC(=O)[C@H]56

> <Substance_modify_yyyymmdd>
20080429

$$$$
