33414-30-1
ChemmineR-0915142007XD

 29 32  0  0  0  0  0  0  0  0  1 V2000
   11.9737   -5.9389    0.0000 C   0  0  0  0  0  0  0  0  0  0  0  0
   10.6446   -5.9389    0.0000 N   0  0  0  0  0  0  0  0  0  0  0  0
    9.9741   -7.0884    0.0000 C   0  0  0  0  0  0  0  0  0  0  0  0
    8.6450   -7.0884    0.0000 C   0  0  0  0  0  0  0  0  0  0  0  0
    7.9864   -5.9389    0.0000 N   0  0  0  0  0  0  0  0  0  0  0  0
    8.6450   -4.7895    0.0000 C   0  0  0  0  0  0  0  0  0  0  0  0
    9.9741   -4.7895    0.0000 C   0  0  0  0  0  0  0  0  0  0  0  0
    6.6574   -5.9389    0.0000 C   0  0  0  0  0  0  0  0  0  0  0  0
    5.9868   -4.7895    0.0000 C   0  0  0  0  0  0  0  0  0  0  0  0
    4.6578   -4.7895    0.0000 C   0  0  0  0  0  0  0  0  0  0  0  0
    3.9872   -5.9389    0.0000 O   0  0  0  0  0  0  0  0  0  0  0  0
    3.9872   -3.6280    0.0000 N   0  0  0  0  0  0  0  0  0  0  0  0
    2.6582   -3.6280    0.0000 C   0  0  0  0  0  0  0  0  0  0  0  0
    1.9996   -4.7895    0.0000 C   0  0  0  0  0  0  0  0  0  0  0  0
    0.6705   -4.7895    0.0000 C   0  0  0  0  0  0  0  0  0  0  0  0
    0.0000   -3.6280    0.0000 C   0  0  0  0  0  0  0  0  0  0  0  0
    0.6705   -2.4785    0.0000 C   0  0  0  0  0  0  0  0  0  0  0  0
    1.9996   -2.4785    0.0000 C   0  0  0  0  0  0  0  0  0  0  0  0
    2.6582   -1.3291    0.0000 S   0  0  0  0  0  0  0  0  0  0  0  0
    3.9872   -1.3291    0.0000 C   0  0  0  0  0  0  0  0  0  0  0  0
    4.6578   -0.1796    0.0000 C   0  0  0  0  0  0  0  0  0  0  0  0
    5.9868   -0.1796    0.0000 C   0  0  0  0  0  0  0  0  0  0  0  0
    6.6574   -1.3291    0.0000 C   0  0  0  0  0  0  0  0  0  0  0  0
    5.9868   -2.4785    0.0000 C   0  0  0  0  0  0  0  0  0  0  0  0
    4.6578   -2.4785    0.0000 C   0  0  0  0  0  0  0  0  0  0  0  0
    7.9864   -1.3291    0.0000 C   0  0  0  0  0  0  0  0  0  0  0  0
    7.9864    0.0000    0.0000 F   0  0  0  0  0  0  0  0  0  0  0  0
    9.3155   -1.3291    0.0000 F   0  0  0  0  0  0  0  0  0  0  0  0
    7.9864   -2.6582    0.0000 F   0  0  0  0  0  0  0  0  0  0  0  0
  1  2  1  0  0  0  0
  2  3  1  0  0  0  0
  2  7  1  0  0  0  0
  3  4  1  0  0  0  0
  4  5  1  0  0  0  0
  5  6  1  0  0  0  0
  5  8  1  0  0  0  0
  6  7  1  0  0  0  0
  8  9  1  0  0  0  0
  9 10  1  0  0  0  0
 10 11  2  0  0  0  0
 10 12  1  0  0  0  0
 12 13  1  0  0  0  0
 12 25  1  0  0  0  0
 13 14  2  0  0  0  0
 13 18  1  0  0  0  0
 14 15  1  0  0  0  0
 15 16  2  0  0  0  0
 16 17  1  0  0  0  0
 17 18  2  0  0  0  0
 18 19  1  0  0  0  0
 19 20  1  0  0  0  0
 20 21  2  0  0  0  0
 20 25  1  0  0  0  0
 21 22  1  0  0  0  0
 22 23  2  0  0  0  0
 23 24  1  0  0  0  0
 23 26  1  0  0  0  0
 24 25  2  0  0  0  0
 26 27  1  0  0  0  0
 26 28  1  0  0  0  0
 26 29  1  0  0  0  0
M  END
> <ID>
11478

> <Formula>
C21H22F3N3OS

> <FW>
421.4791

> <DSSTox_CID>
26180

> <DSSTox_RID>
81411

> <DSSTox_GSID>
46180

> <DSSTox_FileID_Sort>
6092

> <TS_ChemName>
Ftormetazine

> <TS_ChemName_Synonyms>


> <TS_CASRN>
33414-30-1

> <CASRN_ChemName_Relationship>
primary

> <TS_Description>
single chemical compound

> <ChemNote>


> <STRUCTURE_Shown>
tested chemical

> <STRUCTURE_Formula>
C21H22F3N3OS

> <STRUCTURE_MW>
421.4791

> <STRUCTURE_ChemType>
defined organic

> <STRUCTURE_DefinedOrganicForm>
parent

> <STRUCTURE_IUPAC>
3-(4-methylpiperazin-1-yl)-1-[2-(trifluoromethyl)-10H-phenothiazin-10-yl]propan-1-one

> <STRUCTURE_SMILES>
CN1CCN(CC1)CCC(=O)N2c4ccccc4Sc3ccc(cc23)C(F)(F)F

> <STRUCTURE_SMILES_Desalt>
CN1CCN(CC1)CCC(=O)N2c4ccccc4Sc3ccc(cc23)C(F)(F)F

> <Substance_modify_yyyymmdd>
20110818

$$$$
