3344-77-2
ChemmineR-0915142007XD

 14 13  0  0  0  0  0  0  0  0  1 V2000
   15.0082    0.0000    0.0000 O    0  0  0  0  0  0  0  0  0  0  0  0
   13.8525   -0.6604    0.0000 C    0  0  0  0  0  0  0  0  0  0  0  0
   12.6969    0.0000    0.0000 C    0  0  0  0  0  0  0  0  0  0  0  0
   11.5413   -0.6604    0.0000 C    0  0  0  0  0  0  0  0  0  0  0  0
   10.4007    0.0000    0.0000 C    0  0  0  0  0  0  0  0  0  0  0  0
    9.2450   -0.6604    0.0000 C    0  0  0  0  0  0  0  0  0  0  0  0
    8.0894    0.0000    0.0000 C    0  0  0  0  0  0  0  0  0  0  0  0
    6.9188   -0.6604    0.0000 C    0  0  0  0  0  0  0  0  0  0  0  0
    5.7631    0.0000    0.0000 C    0  0  0  0  0  0  0  0  0  0  0  0
    4.6075   -0.6604    0.0000 C    0  0  0  0  0  0  0  0  0  0  0  0
    3.4669    0.0000    0.0000 C    0  0  0  0  0  0  0  0  0  0  0  0
    1.1556    0.0000    0.0000 C    0  0  0  0  0  0  0  0  0  0  0  0
    0.0000   -0.6604    0.0000 Br   0  0  0  0  0  0  0  0  0  0  0  0
    2.3113   -0.6604    0.0000 C    0  0  0  0  0  0  0  0  0  0  0  0
  1  2  1  0  0  0  0
  2  3  1  0  0  0  0
  3  4  1  0  0  0  0
  4  5  1  0  0  0  0
  5  6  1  0  0  0  0
  6  7  1  0  0  0  0
  7  8  1  0  0  0  0
  8  9  1  0  0  0  0
  9 10  1  0  0  0  0
 10 11  1  0  0  0  0
 11 14  1  0  0  0  0
 12 13  1  0  0  0  0
 12 14  1  0  0  0  0
M  END
> <ID>
14136

> <Formula>
C12H25BrO

> <FW>
265.2303

> <DSSTox_CID>
29129

> <DSSTox_RID>
83348

> <DSSTox_GSID>
49273

> <DSSTox_FileID_Sort>
8023

> <TS_ChemName>
12-Bromo-1-dodecanol

> <TS_ChemName_Synonyms>


> <TS_CASRN>
3344-77-2

> <CASRN_ChemName_Relationship>
primary

> <TS_Description>
single chemical compound

> <ChemNote>


> <STRUCTURE_Shown>
tested chemical

> <STRUCTURE_Formula>
C12H25BrO

> <STRUCTURE_MW>
265.2303

> <STRUCTURE_ChemType>
defined organic

> <STRUCTURE_DefinedOrganicForm>
parent

> <STRUCTURE_IUPAC>
12-bromododecan-1-ol

> <STRUCTURE_SMILES>
BrCCCCCCCCCCCCO

> <STRUCTURE_SMILES_Desalt>
BrCCCCCCCCCCCCO

> <Substance_modify_yyyymmdd>
20111204

$$$$
