33467-74-2
ChemmineR-0915142007XD

 11 10  0  0  0  0  0  0  0  0  1 V2000
    2.2988   -1.3309    0.0000 C   0  0  0  0  0  0  0  0  0  0  0  0
    2.2988    0.0000    0.0000 O   0  0  0  0  0  0  0  0  0  0  0  0
    3.4523   -1.9923    0.0000 O   0  0  0  0  0  0  0  0  0  0  0  0
    1.1373   -1.9923    0.0000 C   0  0  0  0  0  0  0  0  0  0  0  0
    0.0000   -1.3309    0.0000 C   0  0  0  0  0  0  0  0  0  0  0  0
    4.6138   -1.3309    0.0000 C   0  0  0  0  0  0  0  0  0  0  0  0
    5.7511   -1.9923    0.0000 C   0  0  0  0  0  0  0  0  0  0  0  0
    6.9126   -1.3309    0.0000 C   0  0  0  0  0  0  0  0  0  0  0  0
    8.0661   -1.9923    0.0000 C   0  0  0  0  0  0  0  0  0  0  0  0
    8.0661   -3.3232    0.0000 C   0  0  0  0  0  0  0  0  0  0  0  0
    6.9126   -4.0008    0.0000 C   0  0  0  0  0  0  0  0  0  0  0  0
  1  2  2  0  0  0  0
  1  3  1  0  0  0  0
  1  4  1  0  0  0  0
  3  6  1  0  0  0  0
  4  5  1  0  0  0  0
  6  7  1  0  0  0  0
  7  8  1  0  0  0  0
  8  9  2  0  0  0  0
  9 10  1  0  0  0  0
 10 11  1  0  0  0  0
M  END
> <ID>
12701

> <Formula>
C9H16O2

> <FW>
156.2221

> <DSSTox_CID>
27579

> <DSSTox_RID>
82430

> <DSSTox_GSID>
47579

> <DSSTox_FileID_Sort>
7111

> <TS_ChemName>
(3Z)-Hex-3-en-1-yl propanoate

> <TS_ChemName_Synonyms>


> <TS_CASRN>
33467-74-2

> <CASRN_ChemName_Relationship>
primary

> <TS_Description>
single chemical compound

> <ChemNote>
stereochem

> <STRUCTURE_Shown>
tested chemical

> <STRUCTURE_Formula>
C9H16O2

> <STRUCTURE_MW>
156.2221

> <STRUCTURE_ChemType>
defined organic

> <STRUCTURE_DefinedOrganicForm>
parent

> <STRUCTURE_IUPAC>
(3Z)-hex-3-en-1-yl propanoate

> <STRUCTURE_SMILES>
O=C(CC)OCC/C=C\CC

> <STRUCTURE_SMILES_Desalt>
O=C(CC)OCC/C=C\CC

> <Substance_modify_yyyymmdd>
20100930

$$$$
