3347-22-6
ChemmineR-0915142007XD

 20 22  0  0  0  0  0  0  0  0  1 V2000
    4.6071   -3.3237    0.0000 C   0  0  0  0  0  0  0  0  0  0  0  0
    4.6071   -1.9942    0.0000 C   0  0  0  0  0  0  0  0  0  0  0  0
    5.7519   -3.9792    0.0000 S   0  0  0  0  0  0  0  0  0  0  0  0
    5.7519   -1.3295    0.0000 S   0  0  0  0  0  0  0  0  0  0  0  0
    3.4438   -3.9792    0.0000 C   0  0  0  0  0  0  0  0  0  0  0  0
    3.4438   -1.3295    0.0000 C   0  0  0  0  0  0  0  0  0  0  0  0
    6.9060   -1.9942    0.0000 C   0  0  0  0  0  0  0  0  0  0  0  0
    6.9060   -3.3237    0.0000 C   0  0  0  0  0  0  0  0  0  0  0  0
    2.3081   -3.3237    0.0000 C   0  0  0  0  0  0  0  0  0  0  0  0
    2.3081   -1.9942    0.0000 C   0  0  0  0  0  0  0  0  0  0  0  0
    8.0693   -1.3203    0.0000 C   0  0  0  0  0  0  0  0  0  0  0  0
    8.0693   -3.9885    0.0000 C   0  0  0  0  0  0  0  0  0  0  0  0
    9.2233   -4.6532    0.0000 N   0  0  0  0  0  0  0  0  0  0  0  0
    9.2326   -0.6463    0.0000 N   0  0  0  0  0  0  0  0  0  0  0  0
    3.4438    0.0000    0.0000 O   0  0  0  0  0  0  0  0  0  0  0  0
    3.4438   -5.3087    0.0000 O   0  0  0  0  0  0  0  0  0  0  0  0
    1.1541   -1.3295    0.0000 C   0  0  0  0  0  0  0  0  0  0  0  0
    1.1541   -3.9792    0.0000 C   0  0  0  0  0  0  0  0  0  0  0  0
    0.0000   -3.3237    0.0000 C   0  0  0  0  0  0  0  0  0  0  0  0
    0.0000   -1.9942    0.0000 C   0  0  0  0  0  0  0  0  0  0  0  0
  1  2  2  0  0  0  0
  1  3  1  0  0  0  0
  1  5  1  0  0  0  0
  2  4  1  0  0  0  0
  2  6  1  0  0  0  0
  3  8  1  0  0  0  0
  4  7  1  0  0  0  0
  5  9  1  0  0  0  0
  5 16  2  0  0  0  0
  6 15  2  0  0  0  0
  6 10  1  0  0  0  0
  7  8  2  0  0  0  0
  7 11  1  0  0  0  0
  8 12  1  0  0  0  0
  9 10  2  0  0  0  0
  9 18  1  0  0  0  0
 10 17  1  0  0  0  0
 11 14  3  0  0  0  0
 12 13  3  0  0  0  0
 17 20  2  0  0  0  0
 18 19  2  0  0  0  0
 19 20  1  0  0  0  0
M  END
> <ID>
7649

> <Formula>
C14H4N2O2S2

> <FW>
296.3238

> <DSSTox_CID>
20270

> <DSSTox_RID>
79463

> <DSSTox_GSID>
40270

> <DSSTox_FileID_Sort>
4145

> <TS_ChemName>
Dithianon

> <TS_ChemName_Synonyms>


> <TS_CASRN>
3347-22-6

> <CASRN_ChemName_Relationship>
primary

> <TS_Description>
single chemical compound

> <ChemNote>


> <STRUCTURE_Shown>
tested chemical

> <STRUCTURE_Formula>
C14H4N2O2S2

> <STRUCTURE_MW>
296.3238

> <STRUCTURE_ChemType>
defined organic

> <STRUCTURE_DefinedOrganicForm>
parent

> <STRUCTURE_IUPAC>
5,10-dioxo-5,10-dihydronaphtho[2,3-b][1,4]dithiine-2,3-dicarbonitrile

> <STRUCTURE_SMILES>
N#CC=1SC3=C(SC=1C#N)C(=O)c2ccccc2C3=O

> <STRUCTURE_SMILES_Desalt>
N#CC=1SC3=C(SC=1C#N)C(=O)c2ccccc2C3=O

> <Substance_modify_yyyymmdd>
20080429

$$$$
