33490-33-4
ChemmineR-0915142007XD

 48 49  0  0  1  0  0  0  0  0  1 V2000
   13.7642   -1.9983    0.0000 N   0  0  0  0  0  0  0  0  0  0  0  0
   13.7642   -3.3248    0.0000 C   0  0  0  0  0  0  0  0  0  0  0  0
   12.6272   -1.3265    0.0000 C   0  0  0  0  0  0  0  0  0  0  0  0
   12.6272   -3.9794    0.0000 O   0  0  0  0  0  0  0  0  0  0  0  0
   11.4902   -1.9983    0.0000 C   0  0  0  0  0  0  0  0  0  0  0  0
   11.4902   -3.3248    0.0000 N   0  0  0  0  0  0  0  0  0  0  0  0
   11.4902   -5.9432    0.0000 N   0  0  0  0  0  0  0  0  0  0  0  0
   10.3360   -3.9794    0.0000 C   0  0  0  0  0  0  0  0  0  0  0  0
   10.3360   -5.3058    0.0000 C   0  0  0  0  0  0  0  0  0  0  0  0
   14.9356   -3.9794    0.0000 C   0  0  0  0  0  0  0  0  0  0  0  0
   14.9356   -5.3058    0.0000 C   0  0  0  0  0  0  0  0  0  0  0  0
   11.4902   -7.2697    0.0000 C   0  0  0  0  0  0  0  0  0  0  0  0
   13.7642   -7.2697    0.0000 N   0  0  0  0  0  0  0  0  0  0  0  0
   12.6272   -7.9588    0.0000 C   0  0  0  0  0  0  0  0  0  0  0  0
   16.0725   -5.9777    0.0000 N   0  0  0  0  0  0  0  0  0  0  0  0
   16.0725   -7.3041    0.0000 C   0  0  0  0  0  0  0  0  0  0  0  0
   14.9356   -7.9588    0.0000 C   0  0  0  0  0  0  0  0  0  0  0  0
   16.0725   -3.3248    0.0000 N   0  0  0  0  0  0  0  0  0  0  0  0
   10.3360   -1.3265    0.0000 O   0  0  0  0  0  0  0  0  0  0  0  0
   17.2267   -7.9588    0.0000 O   0  0  0  0  0  0  0  0  0  0  0  0
   12.6272   -9.2852    0.0000 O   0  0  0  0  0  0  0  0  0  0  0  0
    9.1991   -5.9432    0.0000 O   0  0  0  0  0  0  0  0  0  0  0  0
   14.9356   -9.2852    0.0000 C   0  0  0  0  0  0  0  0  0  0  0  0
   16.0725   -9.9571    0.0000 N   0  0  0  0  0  0  0  0  0  0  0  0
   13.7642   -9.9226    0.0000 C   0  0  0  0  0  0  0  0  0  0  0  0
   16.0725  -11.2835    0.0000 C   0  0  0  0  0  0  0  0  0  0  0  0
   13.7642  -11.2491    0.0000 C   0  0  0  0  0  0  0  0  0  0  0  0
   14.9356  -11.9381    0.0000 N   0  0  0  0  0  0  0  0  0  0  0  0
   17.2267  -11.9381    0.0000 N   0  0  0  0  0  0  0  0  0  0  0  0
   12.6272    0.0000    0.0000 C   0  0  0  0  0  0  0  0  0  0  0  0
    9.1991   -3.2903    0.0000 C   0  0  0  0  0  0  0  0  0  0  0  0
    8.0277   -3.9794    0.0000 N   0  0  0  0  0  0  0  0  0  0  0  0
   10.3360   -7.9588    0.0000 C   0  0  0  0  0  0  0  0  0  0  0  0
    9.1991   -7.2697    0.0000 N   0  0  0  0  0  0  0  0  0  0  0  0
    8.0277   -7.9588    0.0000 C   0  0  0  0  0  0  0  0  0  0  0  0
    6.8907   -7.2697    0.0000 N   0  0  0  0  0  0  0  0  0  0  0  0
    8.0277   -9.2852    0.0000 O   0  0  0  0  0  0  0  0  0  0  0  0
    6.8907   -3.2903    0.0000 C   0  0  0  0  0  0  0  0  0  0  0  0
    6.8907   -1.9638    0.0000 O   0  0  0  0  0  0  0  0  0  0  0  0
    5.7365   -3.9794    0.0000 C   0  0  0  0  0  0  0  0  0  0  0  0
    4.5995   -3.2903    0.0000 C   0  0  0  0  0  0  0  0  0  0  0  0
    3.4453   -3.9794    0.0000 C   0  0  0  0  0  0  0  0  0  0  0  0
    4.5995   -1.9638    0.0000 N   0  0  0  0  0  0  0  0  0  0  0  0
    2.2912   -3.2903    0.0000 C   0  0  0  0  0  0  0  0  0  0  0  0
    1.1370   -3.9794    0.0000 C   0  0  0  0  0  0  0  0  0  0  0  0
    0.0000   -3.2903    0.0000 N   0  0  0  0  0  0  0  0  0  0  0  0
   13.7814   -8.6306    0.0000 H   0  0  0  0  0  0  0  0  0  0  0  0
   16.0898   -8.6306    0.0000 H   0  0  0  0  0  0  0  0  0  0  0  0
  1  2  1  0  0  0  0
  1  3  1  0  0  0  0
  2 10  1  0  0  0  0
  2  4  2  0  0  0  0
  3  5  1  0  0  0  0
  3 30  1  6  0  0  0
  5  6  1  0  0  0  0
  5 19  2  0  0  0  0
  6  8  1  0  0  0  0
  7  9  1  0  0  0  0
  7 12  1  0  0  0  0
  8  9  1  0  0  0  0
  8 31  1  6  0  0  0
  9 22  2  0  0  0  0
 10 11  1  0  0  0  0
 10 18  1  1  0  0  0
 11 15  1  0  0  0  0
 12 14  1  0  0  0  0
 12 33  2  0  0  0  0
 13 14  1  0  0  0  0
 13 17  1  0  0  0  0
 14 21  2  0  0  0  0
 15 16  1  0  0  0  0
 16 17  1  0  0  0  0
 16 20  2  0  0  0  0
 17 23  1  0  0  0  0
 17 47  1  1  0  0  0
 23 24  1  0  0  0  0
 23 25  1  0  0  0  0
 23 48  1  6  0  0  0
 24 26  2  0  0  0  0
 25 27  1  0  0  0  0
 26 28  1  0  0  0  0
 26 29  1  0  0  0  0
 27 28  1  0  0  0  0
 31 32  1  0  0  0  0
 32 38  1  0  0  0  0
 33 34  1  0  0  0  0
 34 35  1  0  0  0  0
 35 36  1  0  0  0  0
 35 37  2  0  0  0  0
 38 39  2  0  0  0  0
 38 40  1  0  0  0  0
 40 41  1  0  0  0  0
 41 42  1  0  0  0  0
 41 43  1  6  0  0  0
 42 44  1  0  0  0  0
 44 45  1  0  0  0  0
 45 46  1  0  0  0  0
M  END
> <ID>
11861

> <Formula>
C25H44N14O7

> <FW>
652.7065

> <DSSTox_CID>
26652

> <DSSTox_RID>
81796

> <DSSTox_GSID>
46652

> <DSSTox_FileID_Sort>
6477

> <TS_ChemName>
Capreomycin IB

> <TS_ChemName_Synonyms>


> <TS_CASRN>
33490-33-4

> <CASRN_ChemName_Relationship>
primary

> <TS_Description>
single chemical compound

> <ChemNote>
stereochem; tautomers

> <STRUCTURE_Shown>
tested chemical

> <STRUCTURE_Formula>
C25H44N14O7

> <STRUCTURE_MW>
652.7065

> <STRUCTURE_ChemType>
defined organic

> <STRUCTURE_DefinedOrganicForm>
parent

> <STRUCTURE_IUPAC>
(3S)-3,6-diamino-N-({(2S,5S,8Z,11S,15S)-15-amino-11-[(4S)-2-amino-1,4,5,6-tetrahydropyrimidin-4-yl]-8-[(carbamoylamino)methylidene]-2-methyl-3,6,9,12,16-pentaoxo-1,4,7,10,13-pentaazacyclohexadecan-5-yl}methyl)hexanamide

> <STRUCTURE_SMILES>
NCCC[C@H](N)CC(=O)NC[C@@H]1NC(=O)[C@H](C)NC(=O)[C@@H](N)CNC(=O)[C@@H](NC(=O)C(\NC1=O)=C\NC(N)=O)[C@@H]2CCNC(N)=N2

> <STRUCTURE_SMILES_Desalt>
NCCC[C@H](N)CC(=O)NC[C@@H]1NC(=O)[C@H](C)NC(=O)[C@@H](N)CNC(=O)[C@@H](NC(=O)C(\NC1=O)=C\NC(N)=O)[C@@H]2CCNC(N)=N2

> <Substance_modify_yyyymmdd>
20120227

$$$$
