335-76-2
ChemmineR-0915142007XD

 31 30  0  0  0  0  0  0  0  0  1 V2000
    1.1565   -1.3090    0.0000 C   0  0  0  0  0  0  0  0  0  0  0  0
    2.3385   -1.9826    0.0000 C   0  0  0  0  0  0  0  0  0  0  0  0
    3.4696   -1.3090    0.0000 C   0  0  0  0  0  0  0  0  0  0  0  0
    4.6261   -1.9826    0.0000 C   0  0  0  0  0  0  0  0  0  0  0  0
    5.7572   -1.3090    0.0000 C   0  0  0  0  0  0  0  0  0  0  0  0
    6.9518   -1.9826    0.0000 C   0  0  0  0  0  0  0  0  0  0  0  0
    8.0829   -1.3090    0.0000 C   0  0  0  0  0  0  0  0  0  0  0  0
    9.2394   -1.9826    0.0000 C   0  0  0  0  0  0  0  0  0  0  0  0
   10.4214   -1.3090    0.0000 C   0  0  0  0  0  0  0  0  0  0  0  0
   11.5525   -1.9826    0.0000 C   0  0  0  0  0  0  0  0  0  0  0  0
    1.1565    0.0000    0.0000 O   0  0  0  0  0  0  0  0  0  0  0  0
    0.0000   -1.9826    0.0000 O   0  0  0  0  0  0  0  0  0  0  0  0
    2.3385   -3.2916    0.0000 F   0  0  0  0  0  0  0  0  0  0  0  0
    1.1565   -2.6562    0.0000 F   0  0  0  0  0  0  0  0  0  0  0  0
    3.4696    0.0000    0.0000 F   0  0  0  0  0  0  0  0  0  0  0  0
    3.4696   -2.6562    0.0000 F   0  0  0  0  0  0  0  0  0  0  0  0
    4.6261   -3.2916    0.0000 F   0  0  0  0  0  0  0  0  0  0  0  0
    4.6261   -0.6354    0.0000 F   0  0  0  0  0  0  0  0  0  0  0  0
    5.7572    0.0000    0.0000 F   0  0  0  0  0  0  0  0  0  0  0  0
    5.7572   -2.6562    0.0000 F   0  0  0  0  0  0  0  0  0  0  0  0
    6.9518   -3.2916    0.0000 F   0  0  0  0  0  0  0  0  0  0  0  0
    6.9518   -0.6354    0.0000 F   0  0  0  0  0  0  0  0  0  0  0  0
    8.0829    0.0000    0.0000 F   0  0  0  0  0  0  0  0  0  0  0  0
    8.0829   -2.6562    0.0000 F   0  0  0  0  0  0  0  0  0  0  0  0
    9.2394   -3.2916    0.0000 F   0  0  0  0  0  0  0  0  0  0  0  0
    9.2394   -0.6354    0.0000 F   0  0  0  0  0  0  0  0  0  0  0  0
   10.4214    0.0000    0.0000 F   0  0  0  0  0  0  0  0  0  0  0  0
   11.5525   -0.6354    0.0000 F   0  0  0  0  0  0  0  0  0  0  0  0
   12.7090   -1.3090    0.0000 F   0  0  0  0  0  0  0  0  0  0  0  0
   11.5525   -3.2916    0.0000 F   0  0  0  0  0  0  0  0  0  0  0  0
   12.7090   -2.6562    0.0000 F   0  0  0  0  0  0  0  0  0  0  0  0
  1  2  1  0  0  0  0
  1 12  1  0  0  0  0
  1 11  2  0  0  0  0
  2  3  1  0  0  0  0
  2 13  1  0  0  0  0
  2 14  1  0  0  0  0
  3  4  1  0  0  0  0
  3 15  1  0  0  0  0
  3 16  1  0  0  0  0
  4  5  1  0  0  0  0
  4 17  1  0  0  0  0
  4 18  1  0  0  0  0
  5  6  1  0  0  0  0
  5 19  1  0  0  0  0
  5 20  1  0  0  0  0
  6  7  1  0  0  0  0
  6 21  1  0  0  0  0
  6 22  1  0  0  0  0
  7  8  1  0  0  0  0
  7 23  1  0  0  0  0
  7 24  1  0  0  0  0
  8  9  1  0  0  0  0
  8 25  1  0  0  0  0
  8 26  1  0  0  0  0
  9 10  1  0  0  0  0
  9 27  1  0  0  0  0
  9 28  1  0  0  0  0
 10 29  1  0  0  0  0
 10 30  1  0  0  0  0
 10 31  1  0  0  0  0
M  END
> <ID>
6358

> <Formula>
C10HF19O2

> <FW>
514.0834

> <DSSTox_CID>
11860

> <DSSTox_RID>
78891

> <DSSTox_GSID>
31860

> <DSSTox_FileID_Sort>
3573

> <TS_ChemName>
Perfluorodecanoic acid

> <TS_ChemName_Synonyms>
Perfluorodecanoic acid (PFDA)

> <TS_CASRN>
335-76-2

> <CASRN_ChemName_Relationship>
primary

> <TS_Description>
single chemical compound

> <ChemNote>


> <STRUCTURE_Shown>
tested chemical

> <STRUCTURE_Formula>
C10HF19O2

> <STRUCTURE_MW>
514.0834

> <STRUCTURE_ChemType>
defined organic

> <STRUCTURE_DefinedOrganicForm>
parent

> <STRUCTURE_IUPAC>
nonadecafluorodecanoic acid

> <STRUCTURE_SMILES>
FC(F)(C(F)(F)C(=O)O)C(F)(F)C(F)(F)C(F)(F)C(F)(F)C(F)(F)C(F)(F)C(F)(F)F

> <STRUCTURE_SMILES_Desalt>
FC(F)(C(F)(F)C(=O)O)C(F)(F)C(F)(F)C(F)(F)C(F)(F)C(F)(F)C(F)(F)C(F)(F)F

> <Substance_modify_yyyymmdd>
20080429

$$$$
