335-67-1
ChemmineR-0915142007XD

 25 24  0  0  0  0  0  0  0  0  1 V2000
    1.1361   -1.3044    0.0000 C   0  0  0  0  0  0  0  0  0  0  0  0
    2.2933   -1.9777    0.0000 C   0  0  0  0  0  0  0  0  0  0  0  0
    3.4189   -1.3044    0.0000 C   0  0  0  0  0  0  0  0  0  0  0  0
    4.5656   -1.9777    0.0000 C   0  0  0  0  0  0  0  0  0  0  0  0
    5.6912   -1.3044    0.0000 C   0  0  0  0  0  0  0  0  0  0  0  0
    6.8589   -1.9777    0.0000 C   0  0  0  0  0  0  0  0  0  0  0  0
    7.9845   -1.3044    0.0000 C   0  0  0  0  0  0  0  0  0  0  0  0
    9.1311   -1.9777    0.0000 C   0  0  0  0  0  0  0  0  0  0  0  0
    1.1361    0.0000    0.0000 O   0  0  0  0  0  0  0  0  0  0  0  0
    0.0000   -1.9777    0.0000 O   0  0  0  0  0  0  0  0  0  0  0  0
    2.2933   -3.2716    0.0000 F   0  0  0  0  0  0  0  0  0  0  0  0
    1.1361   -2.6510    0.0000 F   0  0  0  0  0  0  0  0  0  0  0  0
    3.4189    0.0000    0.0000 F   0  0  0  0  0  0  0  0  0  0  0  0
    3.4189   -2.6510    0.0000 F   0  0  0  0  0  0  0  0  0  0  0  0
    4.5656   -3.2716    0.0000 F   0  0  0  0  0  0  0  0  0  0  0  0
    4.5656   -0.6417    0.0000 F   0  0  0  0  0  0  0  0  0  0  0  0
    5.6912    0.0000    0.0000 F   0  0  0  0  0  0  0  0  0  0  0  0
    5.6912   -2.6510    0.0000 F   0  0  0  0  0  0  0  0  0  0  0  0
    6.8589   -3.2716    0.0000 F   0  0  0  0  0  0  0  0  0  0  0  0
    6.8589   -0.6417    0.0000 F   0  0  0  0  0  0  0  0  0  0  0  0
    7.9845    0.0000    0.0000 F   0  0  0  0  0  0  0  0  0  0  0  0
    7.9845   -2.6510    0.0000 F   0  0  0  0  0  0  0  0  0  0  0  0
    9.1311   -3.2716    0.0000 F   0  0  0  0  0  0  0  0  0  0  0  0
    9.1311   -0.6417    0.0000 F   0  0  0  0  0  0  0  0  0  0  0  0
   10.5197   -1.3150    0.0000 F   0  0  0  0  0  0  0  0  0  0  0  0
  1  2  1  0  0  0  0
  1 10  1  0  0  0  0
  1  9  2  0  0  0  0
  2  3  1  0  0  0  0
  2 11  1  0  0  0  0
  2 12  1  0  0  0  0
  3  4  1  0  0  0  0
  3 13  1  0  0  0  0
  3 14  1  0  0  0  0
  4  5  1  0  0  0  0
  4 15  1  0  0  0  0
  4 16  1  0  0  0  0
  5  6  1  0  0  0  0
  5 17  1  0  0  0  0
  5 18  1  0  0  0  0
  6  7  1  0  0  0  0
  6 19  1  0  0  0  0
  6 20  1  0  0  0  0
  7  8  1  0  0  0  0
  7 21  1  0  0  0  0
  7 22  1  0  0  0  0
  8 23  1  0  0  0  0
  8 24  1  0  0  0  0
  8 25  1  0  0  0  0
M  END
> <ID>
6363

> <Formula>
C8HF15O2

> <FW>
414.0684

> <DSSTox_CID>
11865

> <DSSTox_RID>
78895

> <DSSTox_GSID>
31865

> <DSSTox_FileID_Sort>
3577

> <TS_ChemName>
Perfluorooctanoic acid

> <TS_ChemName_Synonyms>
Perfluorooctanoic acid (PFOA)

> <TS_CASRN>
335-67-1

> <CASRN_ChemName_Relationship>
primary

> <TS_Description>
single chemical compound

> <ChemNote>


> <STRUCTURE_Shown>
tested chemical

> <STRUCTURE_Formula>
C8HF15O2

> <STRUCTURE_MW>
414.0684

> <STRUCTURE_ChemType>
defined organic

> <STRUCTURE_DefinedOrganicForm>
parent

> <STRUCTURE_IUPAC>
pentadecafluorooctanoic acid

> <STRUCTURE_SMILES>
FC(F)(C(F)(F)C(=O)O)C(F)(F)C(F)(F)C(F)(F)C(F)(F)C(F)(F)F

> <STRUCTURE_SMILES_Desalt>
FC(F)(C(F)(F)C(=O)O)C(F)(F)C(F)(F)C(F)(F)C(F)(F)C(F)(F)F

> <Substance_modify_yyyymmdd>
20080429

$$$$
