335104-84-2
ChemmineR-0915142007XD

 28 29  0  0  0  0  0  0  0  0  1 V2000
    1.1532   -1.3306    0.0000 C    0  0  0  0  0  0  0  0  0  0  0  0
    2.3064   -1.9896    0.0000 C    0  0  0  0  0  0  0  0  0  0  0  0
    2.3064   -3.3202    0.0000 C    0  0  0  0  0  0  0  0  0  0  0  0
    1.1532   -3.9919    0.0000 C    0  0  0  0  0  0  0  0  0  0  0  0
    0.0000   -3.3202    0.0000 C    0  0  0  0  0  0  0  0  0  0  0  0
    0.0000   -1.9896    0.0000 C    0  0  0  0  0  0  0  0  0  0  0  0
    1.1532    0.0000    0.0000 O    0  0  0  0  0  0  0  0  0  0  0  0
    3.4596   -3.9919    0.0000 O    0  0  0  0  0  0  0  0  0  0  0  0
    3.4596   -1.3306    0.0000 C    0  0  0  0  0  0  0  0  0  0  0  0
    3.4596    0.0000    0.0000 O    0  0  0  0  0  0  0  0  0  0  0  0
    4.6001   -1.9896    0.0000 C    0  0  0  0  0  0  0  0  0  0  0  0
    5.7533   -1.3306    0.0000 C    0  0  0  0  0  0  0  0  0  0  0  0
    4.6001   -3.3202    0.0000 C    0  0  0  0  0  0  0  0  0  0  0  0
    6.9192   -1.9896    0.0000 C    0  0  0  0  0  0  0  0  0  0  0  0
    5.7533   -3.9919    0.0000 C    0  0  0  0  0  0  0  0  0  0  0  0
    6.9192   -3.3202    0.0000 C    0  0  0  0  0  0  0  0  0  0  0  0
    5.7533    0.0000    0.0000 Cl   0  0  0  0  0  0  0  0  0  0  0  0
    9.2130   -4.6508    0.0000 C    0  0  0  0  0  0  0  0  0  0  0  0
    8.0724   -3.9919    0.0000 S    0  0  0  0  0  0  0  0  0  0  0  0
    7.4008   -5.1324    0.0000 O    0  0  0  0  0  0  0  0  0  0  0  0
    8.7314   -2.8260    0.0000 O    0  0  0  0  0  0  0  0  0  0  0  0
    8.0724   -1.3306    0.0000 C    0  0  0  0  0  0  0  0  0  0  0  0
    9.2130   -1.9896    0.0000 O    0  0  0  0  0  0  0  0  0  0  0  0
   10.3662   -1.3306    0.0000 C    0  0  0  0  0  0  0  0  0  0  0  0
   11.5194   -1.9896    0.0000 C    0  0  0  0  0  0  0  0  0  0  0  0
   12.6726   -2.6612    0.0000 F    0  0  0  0  0  0  0  0  0  0  0  0
   10.8604   -3.1428    0.0000 F    0  0  0  0  0  0  0  0  0  0  0  0
   12.1910   -0.8491    0.0000 F    0  0  0  0  0  0  0  0  0  0  0  0
  1  2  1  0  0  0  0
  1  6  1  0  0  0  0
  1  7  2  0  0  0  0
  2  3  1  0  0  0  0
  2  9  1  0  0  0  0
  3  4  1  0  0  0  0
  3  8  2  0  0  0  0
  4  5  1  0  0  0  0
  5  6  1  0  0  0  0
  9 10  2  0  0  0  0
  9 11  1  0  0  0  0
 11 12  2  0  0  0  0
 11 13  1  0  0  0  0
 12 14  1  0  0  0  0
 12 17  1  0  0  0  0
 13 15  2  0  0  0  0
 14 16  2  0  0  0  0
 14 22  1  0  0  0  0
 15 16  1  0  0  0  0
 16 19  1  0  0  0  0
 18 19  1  0  0  0  0
 19 20  2  0  0  0  0
 19 21  2  0  0  0  0
 22 23  1  0  0  0  0
 23 24  1  0  0  0  0
 24 25  1  0  0  0  0
 25 26  1  0  0  0  0
 25 27  1  0  0  0  0
 25 28  1  0  0  0  0
M  END
> <ID>
12191

> <Formula>
C17H16ClF3O6S

> <FW>
440.8185

> <DSSTox_CID>
27037

> <DSSTox_RID>
82058

> <DSSTox_GSID>
47037

> <DSSTox_FileID_Sort>
6739

> <TS_ChemName>
Tembotrione

> <TS_ChemName_Synonyms>


> <TS_CASRN>
335104-84-2

> <CASRN_ChemName_Relationship>
primary

> <TS_Description>
single chemical compound

> <ChemNote>


> <STRUCTURE_Shown>
tested chemical

> <STRUCTURE_Formula>
C17H16ClF3O6S

> <STRUCTURE_MW>
440.8185

> <STRUCTURE_ChemType>
defined organic

> <STRUCTURE_DefinedOrganicForm>
parent

> <STRUCTURE_IUPAC>
2-{2-chloro-4-(methylsulfonyl)-3-[(2,2,2-trifluoroethoxy)methyl]benzoyl}cyclohexane-1,3-dione

> <STRUCTURE_SMILES>
O=C2CCCC(=O)C2C(=O)c1ccc(c(COCC(F)(F)F)c1Cl)S(C)(=O)=O

> <STRUCTURE_SMILES_Desalt>
O=C2CCCC(=O)C2C(=O)c1ccc(c(COCC(F)(F)F)c1Cl)S(C)(=O)=O

> <Substance_modify_yyyymmdd>
20100804

$$$$
