33564-30-6
ChemmineR-0915142007XD

 30 31  0  0  1  0  0  0  0  0  2 V2000
    5.7334   -4.4189    0.0000 C    0  0  0  0  0  0  0  0  0  0  0  0
    7.0619   -5.7614    0.0000 N    0  0  0  0  0  0  0  0  0  0  0  0
    5.7334   -5.7614    0.0000 C    0  0  0  0  0  0  0  0  0  0  0  0
    7.0619   -4.4189    0.0000 C    0  0  0  0  0  0  0  0  0  0  0  0
    8.2365   -6.4326    0.0000 C    0  0  0  0  0  0  0  0  0  0  0  0
    8.2365   -3.7757    0.0000 S    0  0  0  0  0  0  0  0  0  0  0  0
    4.4049   -4.4189    0.0000 N    0  0  0  0  0  0  0  0  0  0  0  0
    9.3692   -5.7614    0.0000 C    0  0  0  0  0  0  0  0  0  0  0  0
    3.7337   -3.2862    0.0000 C    0  0  0  0  0  0  0  0  0  0  0  0
    8.2365   -7.7611    0.0000 C    0  0  0  0  0  0  0  0  0  0  0  0
   12.8372   -6.4326    0.0000 C    0  0  0  0  0  0  0  0  0  0  0  0
    2.4192   -3.2862    0.0000 C    0  0  0  0  0  0  0  0  0  0  0  0
    1.7480   -2.0696    0.0000 C    0  0  0  0  0  0  0  0  0  0  0  0
    9.3692   -4.4189    0.0000 C    0  0  0  0  0  0  0  0  0  0  0  0
    4.7965   -6.6843    0.0000 O    0  0  0  0  0  0  0  0  0  0  0  0
    0.4055   -2.0696    0.0000 S    0  0  0  0  0  0  0  0  0  0  0  0
    5.7334   -3.0765    0.0000 O    0  0  0  0  0  0  0  0  0  0  0  0
   10.5299   -6.4326    0.0000 C    0  0  0  0  0  0  0  0  0  0  0  0
   11.6766   -5.7614    0.0000 O    0  0  0  0  0  0  0  0  0  0  0  0
    0.0000   -0.7831    0.0000 C    0  0  0  0  0  0  0  0  0  0  0  0
   12.8372   -7.7611    0.0000 O    0  0  0  0  0  0  0  0  0  0  0  0
    9.3692   -8.4183    0.0000 O    0  0  0  0  0  0  0  0  0  0  0  0
    4.4049   -2.1256    0.0000 O    0  0  0  0  0  0  0  0  0  0  0  0
    2.1395   -0.7831    0.0000 C    0  0  0  0  0  0  0  0  0  0  0  0
    1.0907    0.0000    0.0000 C    0  0  0  0  0  0  0  0  0  0  0  0
   13.9839   -5.7614    0.0000 N    0  0  0  0  0  0  0  0  0  0  0  0
    7.0619   -8.4183    0.0000 O    0  5  0  0  0  0  0  0  0  0  0  0
    6.8661   -2.4052    0.0000 C    0  0  0  0  0  0  0  0  0  0  0  0
    7.0898   -3.1883    0.0000 H    0  0  0  0  0  0  0  0  0  0  0  0
    5.4537   -8.4183    0.0000 Na   0  3  0  0  0  0  0  0  0  0  0  0
  1  3  1  0  0  0  0
  1  4  1  0  0  0  0
  1  7  1  1  0  0  0
  1 17  1  6  0  0  0
  2  4  1  0  0  0  0
  2  5  1  0  0  0  0
  2  3  1  0  0  0  0
  3 15  2  0  0  0  0
  4  6  1  0  0  0  0
  4 29  1  6  0  0  0
  5 10  1  0  0  0  0
  5  8  2  0  0  0  0
  6 14  1  0  0  0  0
  7  9  1  0  0  0  0
  8 14  1  0  0  0  0
  8 18  1  0  0  0  0
  9 12  1  0  0  0  0
  9 23  2  0  0  0  0
 10 22  2  0  0  0  0
 10 27  1  0  0  0  0
 11 19  1  0  0  0  0
 11 21  2  0  0  0  0
 11 26  1  0  0  0  0
 12 13  1  0  0  0  0
 13 16  1  0  0  0  0
 13 24  2  0  0  0  0
 16 20  1  0  0  0  0
 17 28  1  0  0  0  0
 18 19  1  0  0  0  0
 20 25  2  0  0  0  0
 24 25  1  0  0  0  0
M  END
> <ID>
13980

> <Formula>
C16H16N3NaO7S2

> <FW>
449.4339 (426.4447+22.9892)

> <DSSTox_CID>
28921

> <DSSTox_RID>
83187

> <DSSTox_GSID>
48995

> <DSSTox_FileID_Sort>
7863

> <TS_ChemName>
Cefoxitin sodium salt

> <TS_ChemName_Synonyms>


> <TS_CASRN>
33564-30-6

> <CASRN_ChemName_Relationship>
primary

> <TS_Description>
single chemical compound

> <ChemNote>


> <STRUCTURE_Shown>
tested chemical

> <STRUCTURE_Formula>
C16H16N3NaO7S2

> <STRUCTURE_MW>
449.4339

> <STRUCTURE_ChemType>
defined organic

> <STRUCTURE_DefinedOrganicForm>
salt

> <STRUCTURE_IUPAC>
sodium (6R,7S)-3-[(carbamoyloxy)methyl]-7-methoxy-8-oxo-7-[(thiophen-2-ylacetyl)amino]-5-thia-1-azabicyclo[4.2.0]oct-2-ene-2-carboxylate

> <STRUCTURE_SMILES>
[Na+].[O-]C(=O)C=2N3C(=O)[C@](NC(=O)Cc1cccs1)(OC)[C@H]3SCC=2COC(N)=O

> <STRUCTURE_SMILES_Desalt>
O=C(O)C=2N3C(=O)[C@](NC(=O)Cc1cccs1)(OC)[C@H]3SCC=2COC(N)=O

> <Substance_modify_yyyymmdd>
20111204

$$$$
