33564-31-7
ChemmineR-0915142007XD

 37 40  0  0  1  0  0  0  0  0  1 V2000
    3.4938   -5.7782    0.0000 C   0  0  0  0  0  0  0  0  0  0  0  0
    6.9428   -3.7737    0.0000 C   0  0  0  0  0  0  0  0  0  0  0  0
    4.6472   -5.1063    0.0000 C   0  0  0  0  0  0  0  0  0  0  0  0
    3.4938   -7.1108    0.0000 C   0  0  0  0  0  0  0  0  0  0  0  0
    6.9428   -5.1063    0.0000 C   0  0  0  0  0  0  0  0  0  0  0  0
    5.8118   -5.7782    0.0000 C   0  0  0  0  0  0  0  0  0  0  0  0
    8.2194   -3.3594    0.0000 C   0  0  0  0  0  0  0  0  0  0  0  0
    4.6472   -3.7737    0.0000 C   0  0  0  0  0  0  0  0  0  0  0  0
    2.3292   -5.1063    0.0000 C   0  0  0  0  0  0  0  0  0  0  0  0
    5.8118   -3.1131    0.0000 C   0  0  0  0  0  0  0  0  0  0  0  0
    9.0032   -4.4456    0.0000 C   0  0  0  0  0  0  0  0  0  0  0  0
    8.2194   -5.5430    0.0000 C   0  0  0  0  0  0  0  0  0  0  0  0
    5.8118   -7.1108    0.0000 C   0  0  0  0  0  0  0  0  0  0  0  0
    4.6472   -7.7827    0.0000 C   0  0  0  0  0  0  0  0  0  0  0  0
    2.3292   -7.7827    0.0000 C   0  0  0  0  0  0  0  0  0  0  0  0
    8.2194   -2.0268    0.0000 C   0  0  0  0  0  0  0  0  0  0  0  0
    1.1870   -5.7782    0.0000 C   0  0  0  0  0  0  0  0  0  0  0  0
    1.1870   -7.0884    0.0000 C   0  0  0  0  0  0  0  0  0  0  0  0
    4.6248   -6.3829    0.0000 F   0  0  0  0  0  0  0  0  0  0  0  0
    9.3840   -1.3998    0.0000 O   0  0  0  0  0  0  0  0  0  0  0  0
    0.0000   -7.7491    0.0000 O   0  0  0  0  0  0  0  0  0  0  0  0
    9.2384   -2.5644    0.0000 O   0  0  0  0  0  0  0  0  0  0  0  0
    3.4938   -4.4344    0.0000 C   0  0  0  0  0  0  0  0  0  0  0  0
    6.9764   -2.5084    0.0000 C   0  0  0  0  0  0  0  0  0  0  0  0
    3.4938   -3.1019    0.0000 O   0  0  0  0  0  0  0  0  0  0  0  0
    4.6472   -9.1152    0.0000 F   0  0  0  0  0  0  0  0  0  0  0  0
   10.3358   -4.7816    0.0000 C   0  0  0  0  0  0  0  0  0  0  0  0
    7.0884   -1.3662    0.0000 C   0  0  0  0  0  0  0  0  0  0  0  0
    5.9238   -2.0045    0.0000 O   0  0  0  0  0  0  0  0  0  0  0  0
    5.8118   -4.4456    0.0000 H   0  0  0  0  0  0  0  0  0  0  0  0
    6.9428   -6.4165    0.0000 H   0  0  0  0  0  0  0  0  0  0  0  0
    4.7816   -1.3326    0.0000 C   0  0  0  0  0  0  0  0  0  0  0  0
    4.7816    0.0000    0.0000 O   0  0  0  0  0  0  0  0  0  0  0  0
    3.6282   -1.9933    0.0000 C   0  0  0  0  0  0  0  0  0  0  0  0
   10.4590   -3.0795    0.0000 C   0  0  0  0  0  0  0  0  0  0  0  0
   11.1981   -1.9709    0.0000 O   0  0  0  0  0  0  0  0  0  0  0  0
   11.0525   -4.2889    0.0000 C   0  0  0  0  0  0  0  0  0  0  0  0
  1  3  1  0  0  0  0
  1  4  1  0  0  0  0
  1  9  1  0  0  0  0
  1 23  1  1  0  0  0
  2 10  1  0  0  0  0
  2  7  1  0  0  0  0
  2 24  1  1  0  0  0
  2  5  1  0  0  0  0
  3  6  1  0  0  0  0
  3  8  1  0  0  0  0
  3 19  1  6  0  0  0
  4 14  1  0  0  0  0
  4 15  2  0  0  0  0
  5  6  1  0  0  0  0
  5 12  1  0  0  0  0
  5 31  1  6  0  0  0
  6 13  1  0  0  0  0
  6 30  1  1  0  0  0
  7 16  1  0  0  0  0
  7 22  1  6  0  0  0
  7 11  1  0  0  0  0
  8 10  1  0  0  0  0
  8 25  1  1  0  0  0
  9 17  2  0  0  0  0
 11 12  1  0  0  0  0
 11 27  1  1  0  0  0
 13 14  1  0  0  0  0
 14 26  1  6  0  0  0
 15 18  1  0  0  0  0
 16 20  2  0  0  0  0
 16 28  1  0  0  0  0
 17 18  1  0  0  0  0
 18 21  2  0  0  0  0
 22 35  1  0  0  0  0
 28 29  1  0  0  0  0
 29 32  1  0  0  0  0
 32 33  2  0  0  0  0
 32 34  1  0  0  0  0
 35 36  2  0  0  0  0
 35 37  1  0  0  0  0
M  END
> <ID>
11092

> <Formula>
C26H32F2O7

> <FW>
494.5249

> <DSSTox_CID>
25646

> <DSSTox_RID>
81024

> <DSSTox_GSID>
45646

> <DSSTox_FileID_Sort>
5705

> <TS_ChemName>
Diflorasone diacetate

> <TS_ChemName_Synonyms>


> <TS_CASRN>
33564-31-7

> <CASRN_ChemName_Relationship>
primary

> <TS_Description>
single chemical compound

> <ChemNote>
stereochem; tautomers

> <STRUCTURE_Shown>
tested chemical

> <STRUCTURE_Formula>
C26H32F2O7

> <STRUCTURE_MW>
494.5249

> <STRUCTURE_ChemType>
defined organic

> <STRUCTURE_DefinedOrganicForm>
parent

> <STRUCTURE_IUPAC>
(6alpha,11beta,16beta)-6,9-difluoro-11-hydroxy-16-methyl-3,20-dioxopregna-1,4-diene-17,21-diyl diacetate

> <STRUCTURE_SMILES>
CC(=O)OCC(=O)[C@@]4(OC(C)=O)[C@@H](C)C[C@@H]3[C@]4(C)C[C@H](O)[C@@]2(F)[C@H]3C[C@H](F)C1=CC(=O)C=C[C@@]12C

> <STRUCTURE_SMILES_Desalt>
CC(=O)OCC(=O)[C@@]4(OC(C)=O)[C@@H](C)C[C@@H]3[C@]4(C)C[C@H](O)[C@@]2(F)[C@H]3C[C@H](F)C1=CC(=O)C=C[C@@]12C

> <Substance_modify_yyyymmdd>
20100107

$$$$
