33629-47-9
ChemmineR-0915142007XD

 21 21  0  0  0  0  0  0  0  0  2 V2000
    4.5930   -4.3827    0.0000 C   0  0  0  0  0  0  0  0  0  0  0  0
    3.4322   -2.3891    0.0000 C   0  0  0  0  0  0  0  0  0  0  0  0
    4.5930   -3.0452    0.0000 C   0  0  0  0  0  0  0  0  0  0  0  0
    3.4322   -1.5310    0.0000 N   0  3  0  0  0  0  0  0  0  0  0  0
    5.7203   -5.0473    0.0000 N   0  3  0  0  0  0  0  0  0  0  0  0
    2.3218   -3.0452    0.0000 C   0  0  0  0  0  0  0  0  0  0  0  0
    3.4322   -5.0473    0.0000 C   0  0  0  0  0  0  0  0  0  0  0  0
    2.3218   -4.3827    0.0000 C   0  0  0  0  0  0  0  0  0  0  0  0
    6.0904   -2.0189    0.0000 N   0  0  0  0  0  0  0  0  0  0  0  0
    4.5426   -0.8244    0.0000 O   0  5  0  0  0  0  0  0  0  0  0  0
    5.7203   -6.3848    0.0000 O   0  5  0  0  0  0  0  0  0  0  0  0
    1.1777   -5.0810    0.0000 C   0  0  0  0  0  0  0  0  0  0  0  0
    2.3218   -0.8917    0.0000 O   0  0  0  0  0  0  0  0  0  0  0  0
    6.8980   -4.3827    0.0000 O   0  0  0  0  0  0  0  0  0  0  0  0
    6.0904   -0.6814    0.0000 C   0  0  0  0  0  0  0  0  0  0  0  0
    0.0000   -5.8044    0.0000 C   0  0  0  0  0  0  0  0  0  0  0  0
    0.4711   -3.9537    0.0000 C   0  0  0  0  0  0  0  0  0  0  0  0
    1.8339   -6.2250    0.0000 C   0  0  0  0  0  0  0  0  0  0  0  0
    7.2345    0.0000    0.0000 C   0  0  0  0  0  0  0  0  0  0  0  0
    4.9295   -0.0168    0.0000 C   0  0  0  0  0  0  0  0  0  0  0  0
    8.4122   -0.6646    0.0000 C   0  0  0  0  0  0  0  0  0  0  0  0
  1  3  2  0  0  0  0
  1  5  1  0  0  0  0
  1  7  1  0  0  0  0
  2  3  1  0  0  0  0
  2  4  1  0  0  0  0
  2  6  2  0  0  0  0
  3  9  1  0  0  0  0
  4 10  1  0  0  0  0
  4 13  2  0  0  0  0
  5 11  1  0  0  0  0
  5 14  2  0  0  0  0
  6  8  1  0  0  0  0
  7  8  2  0  0  0  0
  8 12  1  0  0  0  0
  9 15  1  0  0  0  0
 12 16  1  0  0  0  0
 12 17  1  0  0  0  0
 12 18  1  0  0  0  0
 15 19  1  0  0  0  0
 15 20  1  0  0  0  0
 19 21  1  0  0  0  0
M  END
> <ID>
6422

> <Formula>
C14H21N3O4

> <FW>
295.3342

> <DSSTox_CID>
12337

> <DSSTox_RID>
78916

> <DSSTox_GSID>
32337

> <DSSTox_FileID_Sort>
3598

> <TS_ChemName>
Butralin

> <TS_ChemName_Synonyms>


> <TS_CASRN>
33629-47-9

> <CASRN_ChemName_Relationship>
primary

> <TS_Description>
single chemical compound

> <ChemNote>


> <STRUCTURE_Shown>
tested chemical

> <STRUCTURE_Formula>
C14H21N3O4

> <STRUCTURE_MW>
295.3342

> <STRUCTURE_ChemType>
defined organic

> <STRUCTURE_DefinedOrganicForm>
parent

> <STRUCTURE_IUPAC>
N-(butan-2-yl)-4-tert-butyl-2,6-dinitroaniline

> <STRUCTURE_SMILES>
[O-][N+](=O)c1cc(cc([N+]([O-])=O)c1NC(C)CC)C(C)(C)C

> <STRUCTURE_SMILES_Desalt>
[O-][N+](=O)c1cc(cc([N+]([O-])=O)c1NC(C)CC)C(C)(C)C

> <Substance_modify_yyyymmdd>
20080429

$$$$
