33693-84-4
ChemmineR-0915142007XD

 16 16  0  0  0  0  0  0  0  0  1 V2000
    2.2967   -3.8230    0.0000 C   0  0  0  0  0  0  0  0  0  0  0  0
    2.2967   -5.1425    0.0000 C   0  0  0  0  0  0  0  0  0  0  0  0
    1.1412   -5.8130    0.0000 C   0  0  0  0  0  0  0  0  0  0  0  0
    0.0000   -5.1568    0.0000 C   0  0  0  0  0  0  0  0  0  0  0  0
    0.0000   -3.8230    0.0000 C   0  0  0  0  0  0  0  0  0  0  0  0
    1.1412   -3.1454    0.0000 C   0  0  0  0  0  0  0  0  0  0  0  0
    3.4521   -5.7987    0.0000 C   0  0  0  0  0  0  0  0  0  0  0  0
    4.5933   -5.1425    0.0000 O   0  0  0  0  0  0  0  0  0  0  0  0
    3.4521   -7.1325    0.0000 O   0  0  0  0  0  0  0  0  0  0  0  0
    3.4521   -3.1454    0.0000 C   0  0  0  0  0  0  0  0  0  0  0  0
    4.5933   -3.8088    0.0000 O   0  0  0  0  0  0  0  0  0  0  0  0
    3.4521   -1.8188    0.0000 O   0  0  0  0  0  0  0  0  0  0  0  0
    4.6076   -1.1555    0.0000 C   0  0  0  0  0  0  0  0  0  0  0  0
    5.2709   -2.3109    0.0000 C   0  0  0  0  0  0  0  0  0  0  0  0
    3.9371    0.0000    0.0000 C   0  0  0  0  0  0  0  0  0  0  0  0
    5.7702   -0.4850    0.0000 C   0  0  0  0  0  0  0  0  0  0  0  0
  1  2  1  0  0  0  0
  1  6  2  0  0  0  0
  1 10  1  0  0  0  0
  2  3  2  0  0  0  0
  2  7  1  0  0  0  0
  3  4  1  0  0  0  0
  4  5  2  0  0  0  0
  5  6  1  0  0  0  0
  7  8  2  0  0  0  0
  7  9  1  0  0  0  0
 10 11  2  0  0  0  0
 10 12  1  0  0  0  0
 12 13  1  0  0  0  0
 13 14  1  0  0  0  0
 13 15  1  0  0  0  0
 13 16  1  0  0  0  0
M  END
> <ID>
12298

> <Formula>
C12H14O4

> <FW>
222.2372

> <DSSTox_CID>
27150

> <DSSTox_RID>
82154

> <DSSTox_GSID>
47150

> <DSSTox_FileID_Sort>
6835

> <TS_ChemName>
tert-Butyl hydrogen phthalate

> <TS_ChemName_Synonyms>


> <TS_CASRN>
33693-84-4

> <CASRN_ChemName_Relationship>
primary

> <TS_Description>
single chemical compound

> <ChemNote>


> <STRUCTURE_Shown>
tested chemical

> <STRUCTURE_Formula>
C12H14O4

> <STRUCTURE_MW>
222.2372

> <STRUCTURE_ChemType>
defined organic

> <STRUCTURE_DefinedOrganicForm>
parent

> <STRUCTURE_IUPAC>
2-(tert-butoxycarbonyl)benzoic acid

> <STRUCTURE_SMILES>
O=C(O)c1ccccc1C(=O)OC(C)(C)C

> <STRUCTURE_SMILES_Desalt>
O=C(O)c1ccccc1C(=O)OC(C)(C)C

> <Substance_modify_yyyymmdd>
20100502

$$$$
