337-47-3
ChemmineR-0915142007XD

 18 17  0  0  0  0  0  0  0  0  2 V2000
    5.1619   -2.9644    0.0000 C    0  0  0  0  0  0  0  0  0  0  0  0
    4.0071   -0.9738    0.0000 C    0  0  0  0  0  0  0  0  0  0  0  0
    4.0071   -2.3095    0.0000 C    0  0  0  0  0  0  0  0  0  0  0  0
    5.1619   -0.3188    0.0000 N    0  0  0  0  0  0  0  0  0  0  0  0
    6.3080   -2.3095    0.0000 N    0  0  0  0  0  0  0  0  0  0  0  0
    6.3080   -0.9738    0.0000 C    0  0  0  0  0  0  0  0  0  0  0  0
    7.4628   -0.3188    0.0000 S    0  5  0  0  0  0  0  0  0  0  0  0
    2.8524   -0.3188    0.0000 O    0  0  0  0  0  0  0  0  0  0  0  0
    5.1619   -4.2915    0.0000 O    0  0  0  0  0  0  0  0  0  0  0  0
    2.6714   -2.3095    0.0000 C    0  0  0  0  0  0  0  0  0  0  0  0
    4.0071   -4.6104    0.0000 C    0  0  0  0  0  0  0  0  0  0  0  0
    3.3436   -3.4298    0.0000 C    0  0  0  0  0  0  0  0  0  0  0  0
    3.3436   -5.7651    0.0000 C    0  0  0  0  0  0  0  0  0  0  0  0
    1.9820   -1.1547    0.0000 C    0  0  0  0  0  0  0  0  0  0  0  0
    1.9820   -3.4298    0.0000 C    0  0  0  0  0  0  0  0  0  0  0  0
    0.6118   -1.1547    0.0000 C    0  0  0  0  0  0  0  0  0  0  0  0
    0.0000    0.0000    0.0000 C    0  0  0  0  0  0  0  0  0  0  0  0
    8.6175   -1.7149    0.0000 Na   0  3  0  0  0  0  0  0  0  0  0  0
  1  3  1  0  0  0  0
  1  5  1  0  0  0  0
  1  9  2  0  0  0  0
  2  3  1  0  0  0  0
  2  8  2  0  0  0  0
  2  4  1  0  0  0  0
  3 10  1  0  0  0  0
  3 12  1  0  0  0  0
  4  6  1  0  0  0  0
  5  6  2  0  0  0  0
  6  7  1  0  0  0  0
 10 14  1  0  0  0  0
 10 15  1  0  0  0  0
 11 12  1  0  0  0  0
 11 13  2  0  0  0  0
 14 16  1  0  0  0  0
 16 17  1  0  0  0  0
M  END
> <ID>
11343

> <Formula>
C12H17N2NaO2S

> <FW>
276.3303 (253.3411+22.9892)

> <DSSTox_CID>
25988

> <DSSTox_RID>
81275

> <DSSTox_GSID>
45988

> <DSSTox_FileID_Sort>
5956

> <TS_ChemName>
Thiamylal sodium

> <TS_ChemName_Synonyms>


> <TS_CASRN>
337-47-3

> <CASRN_ChemName_Relationship>
primary

> <TS_Description>
single chemical compound

> <ChemNote>
tautomers

> <STRUCTURE_Shown>
tested chemical

> <STRUCTURE_Formula>
C12H17N2NaO2S

> <STRUCTURE_MW>
276.3303

> <STRUCTURE_ChemType>
defined organic

> <STRUCTURE_DefinedOrganicForm>
salt

> <STRUCTURE_IUPAC>
sodium 4,6-dioxo-5-(pentan-2-yl)-5-(prop-2-en-1-yl)-1,4,5,6-tetrahydropyrimidine-2-thiolate

> <STRUCTURE_SMILES>
[Na+].O=C1NC([S-])=NC(=O)C1(CC=C)C(C)CCC

> <STRUCTURE_SMILES_Desalt>
O=C1NC(S)=NC(=O)C1(CC=C)C(C)CCC

> <Substance_modify_yyyymmdd>
20100107

$$$$
