337-03-1
ChemmineR-0915142007XD

 28 31  0  0  1  0  0  0  0  0  1 V2000
   10.6396   -0.7767    0.0000 C   0  0  0  0  0  0  0  0  0  0  0  0
    8.6606    0.0000    0.0000 O   0  0  0  0  0  0  0  0  0  0  0  0
    5.8092   -3.3302    0.0000 H   0  0  0  0  0  0  0  0  0  0  0  0
    7.0115   -4.9793    0.0000 H   0  0  0  0  0  0  0  0  0  0  0  0
    9.3096   -2.3088    0.0000 O   0  0  0  0  0  0  0  0  0  0  0  0
    3.5004   -3.0855    0.0000 C   0  0  0  0  0  0  0  0  0  0  0  0
    4.6069   -5.1602    0.0000 F   0  0  0  0  0  0  0  0  0  0  0  0
    1.1704   -5.8198    0.0000 C   0  0  0  0  0  0  0  0  0  0  0  0
    1.1704   -4.4793    0.0000 C   0  0  0  0  0  0  0  0  0  0  0  0
    2.3194   -3.7983    0.0000 C   0  0  0  0  0  0  0  0  0  0  0  0
    3.4898   -4.4793    0.0000 C   0  0  0  0  0  0  0  0  0  0  0  0
    4.6495   -3.7983    0.0000 C   0  0  0  0  0  0  0  0  0  0  0  0
    4.6495   -2.4684    0.0000 C   0  0  0  0  0  0  0  0  0  0  0  0
    5.8198   -1.7981    0.0000 C   0  0  0  0  0  0  0  0  0  0  0  0
    6.9902   -2.4684    0.0000 C   0  0  0  0  0  0  0  0  0  0  0  0
    8.2563   -2.0641    0.0000 C   0  0  0  0  0  0  0  0  0  0  0  0
    9.0543   -3.1493    0.0000 C   0  0  0  0  0  0  0  0  0  0  0  0
    8.2563   -4.2239    0.0000 C   0  0  0  0  0  0  0  0  0  0  0  0
    6.9902   -3.7983    0.0000 C   0  0  0  0  0  0  0  0  0  0  0  0
    5.8198   -4.4793    0.0000 C   0  0  0  0  0  0  0  0  0  0  0  0
    5.8198   -5.8198    0.0000 C   0  0  0  0  0  0  0  0  0  0  0  0
    4.6495   -6.4901    0.0000 C   0  0  0  0  0  0  0  0  0  0  0  0
    3.4898   -5.8198    0.0000 C   0  0  0  0  0  0  0  0  0  0  0  0
    2.3194   -6.4901    0.0000 C   0  0  0  0  0  0  0  0  0  0  0  0
    9.3628   -1.2661    0.0000 C   0  0  0  0  0  0  0  0  0  0  0  0
    6.9902   -1.1172    0.0000 C   0  0  0  0  0  0  0  0  0  0  0  0
    3.9898   -1.2980    0.0000 O   0  0  0  0  0  0  0  0  0  0  0  0
    0.0000   -6.4901    0.0000 O   0  0  0  0  0  0  0  0  0  0  0  0
  1 25  1  0  0  0  0
  2 25  2  0  0  0  0
 20  3  1  1  0  0  0
 19  4  1  6  0  0  0
 16  5  1  6  0  0  0
 11  6  1  1  0  0  0
  7 12  1  0  0  0  0
  8  9  1  0  0  0  0
  8 24  1  0  0  0  0
  8 28  2  0  0  0  0
  9 10  1  0  0  0  0
 10 11  1  0  0  0  0
 11 12  1  0  0  0  0
 11 23  1  0  0  0  0
 12 13  1  0  0  0  0
 12 20  1  0  0  0  0
 13 14  1  0  0  0  0
 13 27  1  1  0  0  0
 14 15  1  0  0  0  0
 15 16  1  0  0  0  0
 15 19  1  0  0  0  0
 15 26  1  1  0  0  0
 16 17  1  0  0  0  0
 16 25  1  1  0  0  0
 17 18  1  0  0  0  0
 18 19  1  0  0  0  0
 19 20  1  0  0  0  0
 20 21  1  0  0  0  0
 21 22  1  0  0  0  0
 22 23  1  0  0  0  0
 23 24  2  0  0  0  0
M  END
> <ID>
13755

> <Formula>
C21H29FO4

> <FW>
364.451

> <DSSTox_CID>
28691

> <DSSTox_RID>
82961

> <DSSTox_GSID>
48765

> <DSSTox_FileID_Sort>
7638

> <TS_ChemName>
Flugestone

> <TS_ChemName_Synonyms>


> <TS_CASRN>
337-03-1

> <CASRN_ChemName_Relationship>
primary

> <TS_Description>
single chemical compound

> <ChemNote>
stereochem; parent [26652-09-5 ]

> <STRUCTURE_Shown>
tested chemical

> <STRUCTURE_Formula>
C21H29FO4

> <STRUCTURE_MW>
364.451

> <STRUCTURE_ChemType>
defined organic

> <STRUCTURE_DefinedOrganicForm>
parent

> <STRUCTURE_IUPAC>
(9xi,11beta)-9-fluoro-11,17-dihydroxypregn-4-ene-3,20-dione

> <STRUCTURE_SMILES>
CC(=O)[C@@]4(O)CC[C@@H]2[C@]4(C)C[C@H](O)C1(F)[C@@]3(C)CCC(=O)C=C3CC[C@H]12

> <STRUCTURE_SMILES_Desalt>
CC(=O)[C@@]4(O)CC[C@@H]2[C@]4(C)C[C@H](O)C1(F)[C@@]3(C)CCC(=O)C=C3CC[C@H]12

> <Substance_modify_yyyymmdd>
20100107

$$$$
