33703-08-1
ChemmineR-0915142007XD

 28 27  0  0  0  0  0  0  0  0  1 V2000
   10.3734   -1.3265    0.0000 C   0  0  0  0  0  0  0  0  0  0  0  0
   11.5407   -1.9898    0.0000 C   0  0  0  0  0  0  0  0  0  0  0  0
   12.7081   -1.3265    0.0000 C   0  0  0  0  0  0  0  0  0  0  0  0
   13.8489   -1.9898    0.0000 C   0  0  0  0  0  0  0  0  0  0  0  0
   15.0162   -1.3265    0.0000 C   0  0  0  0  0  0  0  0  0  0  0  0
   16.1570   -1.9898    0.0000 C   0  0  0  0  0  0  0  0  0  0  0  0
   10.3734    0.0000    0.0000 O   0  0  0  0  0  0  0  0  0  0  0  0
    9.2326   -1.9898    0.0000 O   0  0  0  0  0  0  0  0  0  0  0  0
   16.1570   -3.3163    0.0000 O   0  0  0  0  0  0  0  0  0  0  0  0
   17.2978   -1.3265    0.0000 O   0  0  0  0  0  0  0  0  0  0  0  0
    8.0652   -1.3265    0.0000 C   0  0  0  0  0  0  0  0  0  0  0  0
    6.9244   -1.9898    0.0000 C   0  0  0  0  0  0  0  0  0  0  0  0
    5.7571   -1.3265    0.0000 C   0  0  0  0  0  0  0  0  0  0  0  0
    4.6163   -1.9898    0.0000 C   0  0  0  0  0  0  0  0  0  0  0  0
    3.4755   -1.3265    0.0000 C   0  0  0  0  0  0  0  0  0  0  0  0
    2.3081   -1.9898    0.0000 C   0  0  0  0  0  0  0  0  0  0  0  0
    1.1673   -1.3265    0.0000 C   0  0  0  0  0  0  0  0  0  0  0  0
    1.1673    0.0000    0.0000 C   0  0  0  0  0  0  0  0  0  0  0  0
   18.4652   -1.9898    0.0000 C   0  0  0  0  0  0  0  0  0  0  0  0
   19.6060   -1.3265    0.0000 C   0  0  0  0  0  0  0  0  0  0  0  0
   20.7733   -1.9898    0.0000 C   0  0  0  0  0  0  0  0  0  0  0  0
   21.9141   -1.3265    0.0000 C   0  0  0  0  0  0  0  0  0  0  0  0
   23.0814   -1.9898    0.0000 C   0  0  0  0  0  0  0  0  0  0  0  0
   24.2223   -1.3265    0.0000 C   0  0  0  0  0  0  0  0  0  0  0  0
   25.3631   -1.9898    0.0000 C   0  0  0  0  0  0  0  0  0  0  0  0
   25.3631   -3.3163    0.0000 C   0  0  0  0  0  0  0  0  0  0  0  0
    0.0000   -1.9898    0.0000 C   0  0  0  0  0  0  0  0  0  0  0  0
   26.5304   -1.3265    0.0000 C   0  0  0  0  0  0  0  0  0  0  0  0
  1  2  1  0  0  0  0
  1  8  1  0  0  0  0
  1  7  2  0  0  0  0
  2  3  1  0  0  0  0
  3  4  1  0  0  0  0
  4  5  1  0  0  0  0
  5  6  1  0  0  0  0
  6 10  1  0  0  0  0
  6  9  2  0  0  0  0
  8 11  1  0  0  0  0
 10 19  1  0  0  0  0
 11 12  1  0  0  0  0
 12 13  1  0  0  0  0
 13 14  1  0  0  0  0
 14 15  1  0  0  0  0
 15 16  1  0  0  0  0
 16 17  1  0  0  0  0
 17 18  1  0  0  0  0
 17 27  1  0  0  0  0
 19 20  1  0  0  0  0
 20 21  1  0  0  0  0
 21 22  1  0  0  0  0
 22 23  1  0  0  0  0
 23 24  1  0  0  0  0
 24 25  1  0  0  0  0
 25 26  1  0  0  0  0
 25 28  1  0  0  0  0
M  END
> <ID>
5556

> <Formula>
C24H46O4

> <FW>
398.6196

> <DSSTox_CID>
7982

> <DSSTox_RID>
78631

> <DSSTox_GSID>
27982

> <DSSTox_FileID_Sort>
3313

> <TS_ChemName>
Hexanedioic acid, diisononyl ester

> <TS_ChemName_Synonyms>


> <TS_CASRN>
33703-08-1

> <CASRN_ChemName_Relationship>
primary

> <TS_Description>
mixture or formulation

> <ChemNote>
mixture of isononyl isomers; structure shown 7-methyloctyl

> <STRUCTURE_Shown>
representative isomer in mixture

> <STRUCTURE_Formula>
C24H46O4

> <STRUCTURE_MW>
398.6196

> <STRUCTURE_ChemType>
defined organic

> <STRUCTURE_DefinedOrganicForm>
parent

> <STRUCTURE_IUPAC>
bis(7-methyloctyl) hexanedioate

> <STRUCTURE_SMILES>
CC(C)CCCCCCOC(=O)CCCCC(=O)OCCCCCCC(C)C

> <STRUCTURE_SMILES_Desalt>
CC(C)CCCCCCOC(=O)CCCCC(=O)OCCCCCCC(C)C

> <Substance_modify_yyyymmdd>
20080429

$$$$
