33704-61-9
ChemmineR-0915142007XD

 15 16  0  0  0  0  0  0  0  0  1 V2000
    2.3098   -1.9912    0.0000 C   0  0  0  0  0  0  0  0  0  0  0  0
    2.3098   -3.3225    0.0000 C   0  0  0  0  0  0  0  0  0  0  0  0
    1.1549   -1.3313    0.0000 C   0  0  0  0  0  0  0  0  0  0  0  0
    1.1549   -3.9938    0.0000 C   0  0  0  0  0  0  0  0  0  0  0  0
    0.0000   -1.9912    0.0000 C   0  0  0  0  0  0  0  0  0  0  0  0
    0.0000   -3.3225    0.0000 C   0  0  0  0  0  0  0  0  0  0  0  0
    3.5728   -1.5873    0.0000 C   0  0  0  0  0  0  0  0  0  0  0  0
    4.3579   -2.6625    0.0000 C   0  0  0  0  0  0  0  0  0  0  0  0
    3.5728   -3.7378    0.0000 C   0  0  0  0  0  0  0  0  0  0  0  0
    1.1549    0.0000    0.0000 O   0  0  0  0  0  0  0  0  0  0  0  0
    4.5513   -0.6941    0.0000 C   0  0  0  0  0  0  0  0  0  0  0  0
    3.2997   -0.2901    0.0000 C   0  0  0  0  0  0  0  0  0  0  0  0
    5.6891   -2.6625    0.0000 C   0  0  0  0  0  0  0  0  0  0  0  0
    3.2997   -5.0349    0.0000 C   0  0  0  0  0  0  0  0  0  0  0  0
    4.5513   -4.6366    0.0000 C   0  0  0  0  0  0  0  0  0  0  0  0
  1  3  1  0  0  0  0
  1  7  1  0  0  0  0
  1  2  2  0  0  0  0
  2  4  1  0  0  0  0
  2  9  1  0  0  0  0
  3  5  1  0  0  0  0
  3 10  2  0  0  0  0
  4  6  1  0  0  0  0
  5  6  1  0  0  0  0
  7  8  1  0  0  0  0
  7 11  1  0  0  0  0
  7 12  1  0  0  0  0
  8  9  1  0  0  0  0
  8 13  1  0  0  0  0
  9 14  1  0  0  0  0
  9 15  1  0  0  0  0
M  END
> <ID>
12541

> <Formula>
C14H22O

> <FW>
206.3239

> <DSSTox_CID>
27399

> <DSSTox_RID>
82319

> <DSSTox_GSID>
47399

> <DSSTox_FileID_Sort>
7000

> <TS_ChemName>
Dihydro-1,1,2,3,3-pentamethyl-4(5H)-indanone

> <TS_ChemName_Synonyms>
Dihydro-1,1,2,3,3-pentamethyl-4(5H)-indanone (Cashmeran)

> <TS_CASRN>
33704-61-9

> <CASRN_ChemName_Relationship>
primary

> <TS_Description>
single chemical compound

> <ChemNote>


> <STRUCTURE_Shown>
tested chemical

> <STRUCTURE_Formula>
C14H22O

> <STRUCTURE_MW>
206.3239

> <STRUCTURE_ChemType>
defined organic

> <STRUCTURE_DefinedOrganicForm>
parent

> <STRUCTURE_IUPAC>
1,1,2,3,3-pentamethyl-1,2,3,5,6,7-hexahydro-4H-inden-4-one

> <STRUCTURE_SMILES>
O=C1CCCC2=C1C(C)(C)C(C)C2(C)C

> <STRUCTURE_SMILES_Desalt>
O=C1CCCC2=C1C(C)(C)C(C)C2(C)C

> <Substance_modify_yyyymmdd>
20100617

$$$$
