3372-02-9
ChemmineR-0915142007XD

 22 25  0  0  1  0  0  0  0  0  1 V2000
    2.6459   -2.2368    0.0000 C    0  0  0  0  0  0  0  0  0  0  0  0
    3.9523   -2.2368    0.0000 C    0  0  0  0  0  0  0  0  0  0  0  0
    4.6253   -1.1085    0.0000 C    0  0  0  0  0  0  0  0  0  0  0  0
    2.0058   -1.1085    0.0000 C    0  0  0  0  0  0  0  0  0  0  0  0
    3.3519   -0.3299    0.0000 O    0  0  0  0  0  0  0  0  0  0  0  0
    2.0058   -3.3519    0.0000 C    0  0  0  0  0  0  0  0  0  0  0  0
    4.6253   -3.3519    0.0000 C    0  0  0  0  0  0  0  0  0  0  0  0
    0.7060   -3.3519    0.0000 C    0  0  0  0  0  0  0  0  0  0  0  0
    2.6459   -4.4933    0.0000 C    0  0  0  0  0  0  0  0  0  0  0  0
    0.0660   -2.2368    0.0000 C    0  0  0  0  0  0  0  0  0  0  0  0
    3.9787   -4.4933    0.0000 C    0  0  0  0  0  0  0  0  0  0  0  0
    0.6730   -1.1085    0.0000 C    0  0  0  0  0  0  0  0  0  0  0  0
    2.0718   -5.1070    0.0000 N    0  0  0  0  0  0  0  0  0  0  0  0
    5.9251   -1.1085    0.0000 C    0  0  0  0  0  0  0  0  0  0  0  0
    5.9251   -3.3519    0.0000 C    0  0  0  0  0  0  0  0  0  0  0  0
    6.5982   -2.2368    0.0000 C    0  0  0  0  0  0  0  0  0  0  0  0
    1.3790   -2.2368    0.0000 C    0  0  0  0  0  0  0  0  0  0  0  0
    1.3790   -4.7771    0.0000 C    0  0  0  0  0  0  0  0  0  0  0  0
    6.5982    0.0000    0.0000 O    0  0  0  0  0  0  0  0  0  0  0  0
    0.0000    0.0000    0.0000 O    0  0  0  0  0  0  0  0  0  0  0  0
    3.3255   -3.3519    0.0000 H    0  0  0  0  0  0  0  0  0  0  0  0
    3.6356   -6.1099    0.0000 Cl   0  0  0  0  0  0  0  0  0  0  0  0
  1  2  1  0  0  0  0
  1  4  1  0  0  0  0
  1  6  1  0  0  0  0
  1 17  1  1  0  0  0
  2  3  1  0  0  0  0
  2  7  2  0  0  0  0
  3 14  2  0  0  0  0
  3  5  1  0  0  0  0
  4  5  1  6  0  0  0
  4 12  1  0  0  0  0
  6  8  1  0  0  0  0
  6  9  1  0  0  0  0
  6 21  1  1  0  0  0
  7 15  1  0  0  0  0
  7 11  1  0  0  0  0
  8 10  2  0  0  0  0
  9 11  1  0  0  0  0
  9 13  1  1  0  0  0
 10 12  1  0  0  0  0
 12 20  1  6  0  0  0
 13 18  1  0  0  0  0
 14 19  1  0  0  0  0
 14 16  1  0  0  0  0
 15 16  2  0  0  0  0
 17 18  1  0  0  0  0
M  END
> <ID>
13904

> <Formula>
C16H18ClNO3

> <FW>
307.7720 (271.3111+36.4609)

> <DSSTox_CID>
28841

> <DSSTox_RID>
83110

> <DSSTox_GSID>
48915

> <DSSTox_FileID_Sort>
7787

> <TS_ChemName>
N-Normorphine hydrochloride

> <TS_ChemName_Synonyms>


> <TS_CASRN>
3372-02-9

> <CASRN_ChemName_Relationship>
primary

> <TS_Description>
single chemical compound

> <ChemNote>


> <STRUCTURE_Shown>
tested chemical

> <STRUCTURE_Formula>
C16H18ClNO3

> <STRUCTURE_MW>
307.772

> <STRUCTURE_ChemType>
defined organic

> <STRUCTURE_DefinedOrganicForm>
complex

> <STRUCTURE_IUPAC>
(5alpha,6alpha)-7,8-didehydro-4,5-epoxymorphinan-3,6-diol hydrochloride (1:1)

> <STRUCTURE_SMILES>
Cl.Oc1ccc2C[C@H]4NCC[C@@]35[C@@H](Oc1c23)[C@@H](O)C=C[C@@H]45

> <STRUCTURE_SMILES_Desalt>
Oc1ccc2C[C@H]4NCC[C@@]35[C@@H](Oc1c23)[C@@H](O)C=C[C@@H]45

> <Substance_modify_yyyymmdd>
20111204

$$$$
