33743-96-3
ChemmineR-0915142007XD

 25 28  0  0  0  0  0  0  0  0  1 V2000
   11.2522   -2.6835    0.0000 C   0  0  0  0  0  0  0  0  0  0  0  0
   12.5787   -2.6835    0.0000 C   0  0  0  0  0  0  0  0  0  0  0  0
   10.4899   -1.6009    0.0000 C   0  0  0  0  0  0  0  0  0  0  0  0
   10.4899   -3.7507    0.0000 C   0  0  0  0  0  0  0  0  0  0  0  0
   13.2648   -3.8117    0.0000 C   0  0  0  0  0  0  0  0  0  0  0  0
   13.2648   -1.5247    0.0000 C   0  0  0  0  0  0  0  0  0  0  0  0
    9.2244   -1.9973    0.0000 N   0  0  0  0  0  0  0  0  0  0  0  0
    9.2244   -3.3391    0.0000 C   0  0  0  0  0  0  0  0  0  0  0  0
   14.5913   -3.8117    0.0000 C   0  0  0  0  0  0  0  0  0  0  0  0
   14.5913   -1.5247    0.0000 C   0  0  0  0  0  0  0  0  0  0  0  0
    8.0656   -1.3265    0.0000 C   0  0  0  0  0  0  0  0  0  0  0  0
   15.2469   -2.6835    0.0000 C   0  0  0  0  0  0  0  0  0  0  0  0
    6.9069   -1.9973    0.0000 C   0  0  0  0  0  0  0  0  0  0  0  0
    5.7481   -1.3265    0.0000 C   0  0  0  0  0  0  0  0  0  0  0  0
    4.6046   -1.9973    0.0000 C   0  0  0  0  0  0  0  0  0  0  0  0
    5.7481    0.0000    0.0000 O   0  0  0  0  0  0  0  0  0  0  0  0
    3.4458   -1.3265    0.0000 C   0  0  0  0  0  0  0  0  0  0  0  0
    4.6046   -3.3391    0.0000 C   0  0  0  0  0  0  0  0  0  0  0  0
    2.3023   -1.9973    0.0000 C   0  0  0  0  0  0  0  0  0  0  0  0
    3.4458   -3.9947    0.0000 C   0  0  0  0  0  0  0  0  0  0  0  0
    2.3023   -3.3391    0.0000 C   0  0  0  0  0  0  0  0  0  0  0  0
    1.1435   -1.3265    0.0000 O   0  0  0  0  0  0  0  0  0  0  0  0
    1.1435   -3.9947    0.0000 O   0  0  0  0  0  0  0  0  0  0  0  0
    0.0000   -1.9973    0.0000 C   0  0  0  0  0  0  0  0  0  0  0  0
    0.0000   -3.3391    0.0000 C   0  0  0  0  0  0  0  0  0  0  0  0
  1  2  1  0  0  0  0
  1  3  1  0  0  0  0
  1  4  1  0  0  0  0
  2  5  2  0  0  0  0
  2  6  1  0  0  0  0
  3  7  1  0  0  0  0
  4  8  1  0  0  0  0
  5  9  1  0  0  0  0
  6 10  2  0  0  0  0
  7 11  1  0  0  0  0
  7  8  1  0  0  0  0
  9 12  2  0  0  0  0
 10 12  1  0  0  0  0
 11 13  1  0  0  0  0
 13 14  1  0  0  0  0
 14 15  1  0  0  0  0
 14 16  2  0  0  0  0
 15 17  2  0  0  0  0
 15 18  1  0  0  0  0
 17 19  1  0  0  0  0
 18 20  2  0  0  0  0
 19 21  2  0  0  0  0
 19 22  1  0  0  0  0
 20 21  1  0  0  0  0
 21 23  1  0  0  0  0
 22 24  1  0  0  0  0
 23 25  1  0  0  0  0
 24 25  1  0  0  0  0
M  END
> <ID>
11578

> <Formula>
C21H23NO3

> <FW>
337.4122

> <DSSTox_CID>
26285

> <DSSTox_RID>
81511

> <DSSTox_GSID>
46285

> <DSSTox_FileID_Sort>
6192

> <TS_ChemName>
Proroxan

> <TS_ChemName_Synonyms>


> <TS_CASRN>
33743-96-3

> <CASRN_ChemName_Relationship>
primary

> <TS_Description>
single chemical compound

> <ChemNote>


> <STRUCTURE_Shown>
tested chemical

> <STRUCTURE_Formula>
C21H23NO3

> <STRUCTURE_MW>
337.4122

> <STRUCTURE_ChemType>
defined organic

> <STRUCTURE_DefinedOrganicForm>
parent

> <STRUCTURE_IUPAC>
1-(2,3-dihydro-1,4-benzodioxin-6-yl)-3-(3-phenylpyrrolidin-1-yl)propan-1-one

> <STRUCTURE_SMILES>
O=C(CCN1CCC(C1)c2ccccc2)c3ccc4OCCOc4c3

> <STRUCTURE_SMILES_Desalt>
O=C(CCN1CCC(C1)c2ccccc2)c3ccc4OCCOc4c3

> <Substance_modify_yyyymmdd>
20110815

$$$$
