3374-22-9
ChemmineR-0915142007XD

  7  6  0  0  0  0  0  0  0  0  1 V2000
    3.3235   -1.1505    0.0000 C   0  0  0  0  0  0  0  0  0  0  0  0
    1.9973   -1.1505    0.0000 C   0  0  0  0  0  0  0  0  0  0  0  0
    3.9946    0.0000    0.0000 O   0  0  0  0  0  0  0  0  0  0  0  0
    1.3262    0.0000    0.0000 N   0  0  0  0  0  0  0  0  0  0  0  0
    3.9946   -2.3009    0.0000 O   0  0  0  0  0  0  0  0  0  0  0  0
    0.0000   -2.3009    0.0000 S   0  0  0  0  0  0  0  0  0  0  0  0
    1.3262   -2.3009    0.0000 C   0  0  0  0  0  0  0  0  0  0  0  0
  1  2  1  0  0  0  0
  1  3  2  0  0  0  0
  1  5  1  0  0  0  0
  2  4  1  0  0  0  0
  2  7  1  0  0  0  0
  6  7  1  0  0  0  0
M  END
> <ID>
12144

> <Formula>
C3H7NO2S

> <FW>
121.1582

> <DSSTox_CID>
26988

> <DSSTox_RID>
82037

> <DSSTox_GSID>
46988

> <DSSTox_FileID_Sort>
6718

> <TS_ChemName>
DL-Cysteine

> <TS_ChemName_Synonyms>


> <TS_CASRN>
3374-22-9

> <CASRN_ChemName_Relationship>
primary

> <TS_Description>
single chemical compound

> <ChemNote>


> <STRUCTURE_Shown>
tested chemical

> <STRUCTURE_Formula>
C3H7NO2S

> <STRUCTURE_MW>
121.1582

> <STRUCTURE_ChemType>
defined organic

> <STRUCTURE_DefinedOrganicForm>
parent

> <STRUCTURE_IUPAC>
cysteine

> <STRUCTURE_SMILES>
O=C(O)C(N)CS

> <STRUCTURE_SMILES_Desalt>
O=C(O)C(N)CS

> <Substance_modify_yyyymmdd>
20100309

$$$$
