33765-68-3
ChemmineR-0915142007XD

 26 29  0  0  1  0  0  0  0  0  1 V2000
    6.9261   -1.6821    0.0000 C   0  0  0  0  0  0  0  0  0  0  0  0
    6.9261   -3.0013    0.0000 C   0  0  0  0  0  0  0  0  0  0  0  0
    5.7827   -3.7049    0.0000 C   0  0  0  0  0  0  0  0  0  0  0  0
    3.4740   -5.0242    0.0000 C   0  0  0  0  0  0  0  0  0  0  0  0
    4.6504   -3.0343    0.0000 C   0  0  0  0  0  0  0  0  0  0  0  0
    3.4740   -3.7049    0.0000 C   0  0  0  0  0  0  0  0  0  0  0  0
    8.2124   -1.2863    0.0000 C   0  0  0  0  0  0  0  0  0  0  0  0
    8.2124   -3.4521    0.0000 C   0  0  0  0  0  0  0  0  0  0  0  0
    2.3087   -5.6728    0.0000 C   0  0  0  0  0  0  0  0  0  0  0  0
    5.7827   -0.9894    0.0000 C   0  0  0  0  0  0  0  0  0  0  0  0
    8.9709   -2.3417    0.0000 C   0  0  0  0  0  0  0  0  0  0  0  0
    4.6504   -1.6821    0.0000 C   0  0  0  0  0  0  0  0  0  0  0  0
    5.7827   -5.0242    0.0000 C   0  0  0  0  0  0  0  0  0  0  0  0
    2.3087   -3.0343    0.0000 C   0  0  0  0  0  0  0  0  0  0  0  0
    4.6504   -5.6728    0.0000 C   0  0  0  0  0  0  0  0  0  0  0  0
    1.1763   -5.0242    0.0000 C   0  0  0  0  0  0  0  0  0  0  0  0
    0.0000   -5.6728    0.0000 O   0  0  0  0  0  0  0  0  0  0  0  0
    1.1763   -3.7049    0.0000 C   0  0  0  0  0  0  0  0  0  0  0  0
    8.6082    0.0000    0.0000 O   0  0  0  0  0  0  0  0  0  0  0  0
    6.9261   -0.3628    0.0000 C   0  0  0  0  0  0  0  0  0  0  0  0
   10.2902   -2.3417    0.0000 C   0  0  0  0  0  0  0  0  0  0  0  0
   10.9938   -3.4521    0.0000 C   0  0  0  0  0  0  0  0  0  0  0  0
    3.4740   -2.3417    0.0000 H   0  0  0  0  0  0  0  0  0  0  0  0
    5.7827   -2.3857    0.0000 H   0  0  0  0  0  0  0  0  0  0  0  0
    4.6504   -4.3535    0.0000 H   0  0  0  0  0  0  0  0  0  0  0  0
    6.9261   -4.3206    0.0000 H   0  0  0  0  0  0  0  0  0  0  0  0
  1  2  1  0  0  0  0
  1  7  1  0  0  0  0
  1 10  1  0  0  0  0
  1 20  1  1  0  0  0
  2  3  1  0  0  0  0
  2  8  1  0  0  0  0
  2 26  1  6  0  0  0
  3 13  1  0  0  0  0
  3  5  1  0  0  0  0
  3 24  1  1  0  0  0
  4  6  1  0  0  0  0
  4  9  2  0  0  0  0
  4 15  1  0  0  0  0
  5 12  1  0  0  0  0
  5  6  1  0  0  0  0
  5 25  1  6  0  0  0
  6 14  1  0  0  0  0
  6 23  1  1  0  0  0
  7 11  1  0  0  0  0
  7 19  1  1  0  0  0
  8 11  1  0  0  0  0
  9 16  1  0  0  0  0
 10 12  1  0  0  0  0
 11 21  1  1  0  0  0
 13 15  1  0  0  0  0
 14 18  1  0  0  0  0
 16 18  1  0  0  0  0
 16 17  2  0  0  0  0
 21 22  1  0  0  0  0
M  END
> <ID>
13803

> <Formula>
C20H30O2

> <FW>
302.451

> <DSSTox_CID>
28740

> <DSSTox_RID>
83009

> <DSSTox_GSID>
48814

> <DSSTox_FileID_Sort>
7686

> <TS_ChemName>
Oxendolone

> <TS_ChemName_Synonyms>


> <TS_CASRN>
33765-68-3

> <CASRN_ChemName_Relationship>
primary

> <TS_Description>
single chemical compound

> <ChemNote>
stereochem

> <STRUCTURE_Shown>
tested chemical

> <STRUCTURE_Formula>
C20H30O2

> <STRUCTURE_MW>
302.451

> <STRUCTURE_ChemType>
defined organic

> <STRUCTURE_DefinedOrganicForm>
parent

> <STRUCTURE_IUPAC>
(16beta,17beta)-16-ethyl-17-hydroxyestr-4-en-3-one

> <STRUCTURE_SMILES>
CC[C@H]2C[C@H]3[C@@H]4CCC1=CC(=O)CC[C@@H]1[C@H]4CC[C@]3(C)[C@H]2O

> <STRUCTURE_SMILES_Desalt>
CC[C@H]2C[C@H]3[C@@H]4CCC1=CC(=O)CC[C@@H]1[C@H]4CC[C@]3(C)[C@H]2O

> <Substance_modify_yyyymmdd>
20111204

$$$$
