338-69-2
ChemmineR-0915142007XD

  6  5  0  0  1  0  0  0  0  0  1 V2000
    3.3250   -1.1509    0.0000 C   0  0  0  0  0  0  0  0  0  0  0  0
    1.9943   -1.1509    0.0000 C   0  0  0  0  0  0  0  0  0  0  0  0
    1.3307    0.0000    0.0000 N   0  0  0  0  0  0  0  0  0  0  0  0
    1.3307   -2.3053    0.0000 C   0  0  0  0  0  0  0  0  0  0  0  0
    1.9943   -3.4563    0.0000 O   0  0  0  0  0  0  0  0  0  0  0  0
    0.0000   -2.3053    0.0000 O   0  0  0  0  0  0  0  0  0  0  0  0
  1  2  1  0  0  0  0
  2  3  1  6  0  0  0
  2  4  1  0  0  0  0
  4  5  1  0  0  0  0
  4  6  2  0  0  0  0
M  END
> <ID>
11095

> <Formula>
C3H7NO2

> <FW>
89.0932

> <DSSTox_CID>
25649

> <DSSTox_RID>
81027

> <DSSTox_GSID>
45649

> <DSSTox_FileID_Sort>
5708

> <TS_ChemName>
D-Alanine

> <TS_ChemName_Synonyms>


> <TS_CASRN>
338-69-2

> <CASRN_ChemName_Relationship>
primary

> <TS_Description>
single chemical compound

> <ChemNote>
stereochem; tautomers

> <STRUCTURE_Shown>
tested chemical

> <STRUCTURE_Formula>
C3H7NO2

> <STRUCTURE_MW>
89.0932

> <STRUCTURE_ChemType>
defined organic

> <STRUCTURE_DefinedOrganicForm>
parent

> <STRUCTURE_IUPAC>
D-alanine

> <STRUCTURE_SMILES>
C[C@@H](N)C(=O)O

> <STRUCTURE_SMILES_Desalt>
C[C@@H](N)C(=O)O

> <Substance_modify_yyyymmdd>
20100107

$$$$
