338-98-7
ChemmineR-0915142007XD

 32 35  0  0  1  0  0  0  0  0  1 V2000
    6.9549   -3.7281    0.0000 C   0  0  0  0  0  0  0  0  0  0  0  0
    4.6409   -5.0522    0.0000 C   0  0  0  0  0  0  0  0  0  0  0  0
    3.5096   -5.7207    0.0000 C   0  0  0  0  0  0  0  0  0  0  0  0
    5.7850   -5.7207    0.0000 C   0  0  0  0  0  0  0  0  0  0  0  0
    8.2147   -3.3167    0.0000 C   0  0  0  0  0  0  0  0  0  0  0  0
    6.9549   -5.0522    0.0000 C   0  0  0  0  0  0  0  0  0  0  0  0
    3.5096   -7.0706    0.0000 C   0  0  0  0  0  0  0  0  0  0  0  0
    4.6409   -3.7281    0.0000 C   0  0  0  0  0  0  0  0  0  0  0  0
    5.7850   -3.0725    0.0000 C   0  0  0  0  0  0  0  0  0  0  0  0
    2.3397   -5.0522    0.0000 C   0  0  0  0  0  0  0  0  0  0  0  0
    8.2147   -1.9669    0.0000 C   0  0  0  0  0  0  0  0  0  0  0  0
    2.3397   -7.7262    0.0000 C   0  0  0  0  0  0  0  0  0  0  0  0
    9.0118   -4.3966    0.0000 C   0  0  0  0  0  0  0  0  0  0  0  0
    8.2147   -5.4508    0.0000 C   0  0  0  0  0  0  0  0  0  0  0  0
    5.7850   -7.0706    0.0000 C   0  0  0  0  0  0  0  0  0  0  0  0
    1.1827   -5.7207    0.0000 C   0  0  0  0  0  0  0  0  0  0  0  0
    1.1827   -7.0706    0.0000 C   0  0  0  0  0  0  0  0  0  0  0  0
    4.6409   -7.7262    0.0000 C   0  0  0  0  0  0  0  0  0  0  0  0
   11.6857   -1.3241    0.0000 C   0  0  0  0  0  0  0  0  0  0  0  0
    4.6409   -6.3378    0.0000 F   0  0  0  0  0  0  0  0  0  0  0  0
    9.3846   -1.2984    0.0000 C   0  0  0  0  0  0  0  0  0  0  0  0
    7.0449   -1.2984    0.0000 O   0  0  0  0  0  0  0  0  0  0  0  0
   10.5159   -1.9669    0.0000 O   0  0  0  0  0  0  0  0  0  0  0  0
   11.6857    0.0000    0.0000 O   0  0  0  0  0  0  0  0  0  0  0  0
    0.0000   -7.7519    0.0000 O   0  0  0  0  0  0  0  0  0  0  0  0
    9.5645   -3.3553    0.0000 O   0  0  0  0  0  0  0  0  0  0  0  0
    6.9549   -2.4554    0.0000 C   0  0  0  0  0  0  0  0  0  0  0  0
    3.4710   -3.0339    0.0000 O   0  0  0  0  0  0  0  0  0  0  0  0
    3.5096   -4.3966    0.0000 C   0  0  0  0  0  0  0  0  0  0  0  0
   12.8556   -1.9283    0.0000 C   0  0  0  0  0  0  0  0  0  0  0  0
    6.9549   -6.3764    0.0000 H   0  0  0  0  0  0  0  0  0  0  0  0
    5.7850   -4.4223    0.0000 H   0  0  0  0  0  0  0  0  0  0  0  0
  1  5  1  0  0  0  0
  1  6  1  0  0  0  0
  1  9  1  0  0  0  0
  1 27  1  1  0  0  0
  2  8  1  0  0  0  0
  2  3  1  0  0  0  0
  2 20  1  6  0  0  0
  2  4  1  0  0  0  0
  3  7  1  0  0  0  0
  3 10  1  0  0  0  0
  3 29  1  1  0  0  0
  4  6  1  0  0  0  0
  4 15  1  0  0  0  0
  4 32  1  1  0  0  0
  5 11  1  0  0  0  0
  5 13  1  0  0  0  0
  5 26  1  6  0  0  0
  6 14  1  0  0  0  0
  6 31  1  6  0  0  0
  7 12  2  0  0  0  0
  7 18  1  0  0  0  0
  8  9  1  0  0  0  0
  8 28  1  1  0  0  0
 10 16  2  0  0  0  0
 11 21  1  0  0  0  0
 11 22  2  0  0  0  0
 12 17  1  0  0  0  0
 13 14  1  0  0  0  0
 15 18  1  0  0  0  0
 16 17  1  0  0  0  0
 17 25  2  0  0  0  0
 19 23  1  0  0  0  0
 19 24  2  0  0  0  0
 19 30  1  0  0  0  0
 21 23  1  0  0  0  0
M  END
> <ID>
10862

> <Formula>
C23H29FO6

> <FW>
420.4712

> <DSSTox_CID>
25306

> <DSSTox_RID>
80792

> <DSSTox_GSID>
45306

> <DSSTox_FileID_Sort>
5473

> <TS_ChemName>
Isoflupredone acetate

> <TS_ChemName_Synonyms>


> <TS_CASRN>
338-98-7

> <CASRN_ChemName_Relationship>
primary

> <TS_Description>
single chemical compound

> <ChemNote>
stereochem; tautomers

> <STRUCTURE_Shown>
tested chemical

> <STRUCTURE_Formula>
C23H29FO6

> <STRUCTURE_MW>
420.4712

> <STRUCTURE_ChemType>
defined organic

> <STRUCTURE_DefinedOrganicForm>
parent

> <STRUCTURE_IUPAC>
(11beta)-9-fluoro-11,17-dihydroxy-3,20-dioxopregna-1,4-dien-21-yl acetate

> <STRUCTURE_SMILES>
CC(=O)OCC(=O)[C@@]4(O)CC[C@@H]3[C@]4(C)C[C@H](O)[C@@]2(F)[C@H]3CCC1=CC(=O)C=C[C@@]12C

> <STRUCTURE_SMILES_Desalt>
CC(=O)OCC(=O)[C@@]4(O)CC[C@@H]3[C@]4(C)C[C@H](O)[C@@]2(F)[C@H]3CCC1=CC(=O)C=C[C@@]12C

> <Substance_modify_yyyymmdd>
20110718

$$$$
