3380-34-5
ChemmineR-0915142007XD

 17 18  0  0  0  0  0  0  0  0  1 V2000
    4.6122   -1.3283    0.0000 O    0  0  0  0  0  0  0  0  0  0  0  0
    3.4591   -1.9648    0.0000 C    0  0  0  0  0  0  0  0  0  0  0  0
    5.7468   -1.9648    0.0000 C    0  0  0  0  0  0  0  0  0  0  0  0
    2.3061   -1.3283    0.0000 C    0  0  0  0  0  0  0  0  0  0  0  0
    6.9183   -1.3283    0.0000 C    0  0  0  0  0  0  0  0  0  0  0  0
    1.1530   -1.9648    0.0000 C    0  0  0  0  0  0  0  0  0  0  0  0
    8.0529   -1.9648    0.0000 C    0  0  0  0  0  0  0  0  0  0  0  0
    3.4591   -3.2931    0.0000 C    0  0  0  0  0  0  0  0  0  0  0  0
    5.7468   -3.2931    0.0000 C    0  0  0  0  0  0  0  0  0  0  0  0
    8.0529   -3.2931    0.0000 C    0  0  0  0  0  0  0  0  0  0  0  0
    1.1530   -3.2931    0.0000 C    0  0  0  0  0  0  0  0  0  0  0  0
    2.3061    0.0000    0.0000 Cl   0  0  0  0  0  0  0  0  0  0  0  0
    6.9183    0.0000    0.0000 O    0  0  0  0  0  0  0  0  0  0  0  0
    2.3061   -3.9849    0.0000 C    0  0  0  0  0  0  0  0  0  0  0  0
    6.9183   -3.9849    0.0000 C    0  0  0  0  0  0  0  0  0  0  0  0
    0.0000   -3.9849    0.0000 Cl   0  0  0  0  0  0  0  0  0  0  0  0
    9.2244   -3.9849    0.0000 Cl   0  0  0  0  0  0  0  0  0  0  0  0
  1  2  1  0  0  0  0
  1  3  1  0  0  0  0
  2  4  1  0  0  0  0
  2  8  2  0  0  0  0
  3  5  2  0  0  0  0
  3  9  1  0  0  0  0
  4  6  2  0  0  0  0
  4 12  1  0  0  0  0
  5  7  1  0  0  0  0
  5 13  1  0  0  0  0
  6 11  1  0  0  0  0
  7 10  2  0  0  0  0
  8 14  1  0  0  0  0
  9 15  2  0  0  0  0
 10 15  1  0  0  0  0
 10 17  1  0  0  0  0
 11 14  2  0  0  0  0
 11 16  1  0  0  0  0
M  END
> <ID>
6477

> <Formula>
C12H7Cl3O2

> <FW>
289.5418

> <DSSTox_CID>
12498

> <DSSTox_RID>
78958

> <DSSTox_GSID>
32498

> <DSSTox_FileID_Sort>
3640

> <TS_ChemName>
Triclosan

> <TS_ChemName_Synonyms>
Triclosan (5-Chloro-2-(2,4-dichlorophenoxy)phenol)

> <TS_CASRN>
3380-34-5

> <CASRN_ChemName_Relationship>
primary

> <TS_Description>
single chemical compound

> <ChemNote>


> <STRUCTURE_Shown>
tested chemical

> <STRUCTURE_Formula>
C12H7Cl3O2

> <STRUCTURE_MW>
289.5418

> <STRUCTURE_ChemType>
defined organic

> <STRUCTURE_DefinedOrganicForm>
parent

> <STRUCTURE_IUPAC>
5-chloro-2-(2,4-dichlorophenoxy)phenol

> <STRUCTURE_SMILES>
Clc2cc(Cl)ccc2Oc1ccc(Cl)cc1O

> <STRUCTURE_SMILES_Desalt>
Clc2cc(Cl)ccc2Oc1ccc(Cl)cc1O

> <Substance_modify_yyyymmdd>
20080429

$$$$
