33818-15-4
ChemmineR-0915142007XD

 32 32  0  0  1  0  0  0  0  0  2 V2000
   12.0199   -2.2328    0.0000 C    0  0  0  0  0  0  0  0  0  0  0  0
   13.1549   -1.3955    0.0000 O    0  0  0  0  0  0  0  0  0  0  0  0
   12.4292   -3.5539    0.0000 C    0  0  0  0  0  0  0  0  0  0  0  0
   14.2527   -2.2328    0.0000 C    0  0  0  0  0  0  0  0  0  0  0  0
   13.8247   -3.5539    0.0000 C    0  0  0  0  0  0  0  0  0  0  0  0
   11.6478   -4.6703    0.0000 O    0  0  0  0  0  0  0  0  0  0  0  0
   14.6434   -4.6703    0.0000 O    0  0  0  0  0  0  0  0  0  0  0  0
   15.5551   -1.7862    0.0000 N    0  0  0  0  0  0  0  0  0  0  0  0
   15.5551   -0.6140    0.0000 C    0  0  0  0  0  0  0  0  0  0  0  0
   16.5971   -0.0372    0.0000 N    0  0  0  0  0  0  0  0  0  0  0  0
   16.5599   -2.4003    0.0000 C    0  0  0  0  0  0  0  0  0  0  0  0
   17.6019   -1.8048    0.0000 C    0  0  0  0  0  0  0  0  0  0  0  0
   17.6019   -0.6512    0.0000 C    0  0  0  0  0  0  0  0  0  0  0  0
   14.6062    0.0000    0.0000 O    0  0  0  0  0  0  0  0  0  0  0  0
   18.6066   -0.0930    0.0000 N    0  0  0  0  0  0  0  0  0  0  0  0
   10.7174   -1.8048    0.0000 C    0  0  0  0  0  0  0  0  0  0  0  0
    9.5266   -2.5119    0.0000 O    0  0  0  0  0  0  0  0  0  0  0  0
    8.3358   -1.8048    0.0000 P    0  0  0  0  0  0  0  0  0  0  0  0
    7.1077   -2.5119    0.0000 O    0  0  0  0  0  0  0  0  0  0  0  0
    8.3358   -0.4280    0.0000 O    0  0  0  0  0  0  0  0  0  0  0  0
    5.9355   -1.8048    0.0000 P    0  0  0  0  0  0  0  0  0  0  0  0
    4.7447   -2.5119    0.0000 O    0  0  0  0  0  0  0  0  0  0  0  0
    5.9355   -0.4280    0.0000 O    0  0  0  0  0  0  0  0  0  0  0  0
    8.6707   -3.1631    0.0000 O    0  5  0  0  0  0  0  0  0  0  0  0
    6.3076   -3.1445    0.0000 O    0  5  0  0  0  0  0  0  0  0  0  0
    3.5539   -1.8421    0.0000 C    0  0  0  0  0  0  0  0  0  0  0  0
    2.3816   -2.5305    0.0000 C    0  0  0  0  0  0  0  0  0  0  0  0
    1.2094   -1.8607    0.0000 N    0  3  0  0  0  0  0  0  0  0  0  0
    1.2094   -0.4652    0.0000 C    0  0  0  0  0  0  0  0  0  0  0  0
    0.0000   -2.5677    0.0000 C    0  0  0  0  0  0  0  0  0  0  0  0
    1.5444   -3.2189    0.0000 C    0  0  0  0  0  0  0  0  0  0  0  0
    8.7637   -4.6331    0.0000 Na   0  3  0  0  0  0  0  0  0  0  0  0
  1  2  1  0  0  0  0
  1  3  1  0  0  0  0
  1 16  1  1  0  0  0
  2  4  1  0  0  0  0
  3  5  1  0  0  0  0
  3  6  1  6  0  0  0
  4  5  1  0  0  0  0
  4  8  1  1  0  0  0
  5  7  1  6  0  0  0
  8  9  1  0  0  0  0
  8 11  1  0  0  0  0
  9 10  1  0  0  0  0
  9 14  2  0  0  0  0
 10 13  2  0  0  0  0
 11 12  2  0  0  0  0
 12 13  1  0  0  0  0
 13 15  1  0  0  0  0
 16 17  1  0  0  0  0
 17 18  1  0  0  0  0
 18 19  1  0  0  0  0
 18 20  2  0  0  0  0
 18 24  1  0  0  0  0
 19 21  1  0  0  0  0
 21 22  1  0  0  0  0
 21 23  2  0  0  0  0
 21 25  1  0  0  0  0
 22 26  1  0  0  0  0
 26 27  1  0  0  0  0
 27 28  1  0  0  0  0
 28 29  1  0  0  0  0
 28 30  1  0  0  0  0
 28 31  1  0  0  0  0
M  END
> <ID>
11171

> <Formula>
C14H25N4NaO11P2

> <FW>
510.3058 (487.3166+22.9892)

> <DSSTox_CID>
25760

> <DSSTox_RID>
81103

> <DSSTox_GSID>
48981

> <DSSTox_FileID_Sort>
5784

> <TS_ChemName>
Citicoline sodium

> <TS_ChemName_Synonyms>


> <TS_CASRN>
33818-15-4

> <CASRN_ChemName_Relationship>
primary

> <TS_Description>
single chemical compound

> <ChemNote>
parent [987-78-0]

> <STRUCTURE_Shown>
tested chemical

> <STRUCTURE_Formula>
C14H25N4NaO11P2

> <STRUCTURE_MW>
510.3058

> <STRUCTURE_ChemType>
defined organic

> <STRUCTURE_DefinedOrganicForm>
salt

> <STRUCTURE_IUPAC>
sodium 5'-O-[({[2-(trimethylammonio)ethoxy]phosphinato}oxy)phosphinato]cytidine

> <STRUCTURE_SMILES>
[Na+].C[N+](C)(C)CCOP([O-])(=O)OP([O-])(=O)OC[C@H]2O[C@@H](N1C=CC(N)=NC1=O)[C@H](O)[C@@H]2O

> <STRUCTURE_SMILES_Desalt>
C[N+](C)(C)CCOP(=O)(O)OP(=O)(O)OC[C@H]2O[C@@H](N1C=CC(N)=NC1=O)[C@H](O)[C@@H]2O

> <Substance_modify_yyyymmdd>
20111204

$$$$
