33817-20-8
ChemmineR-0915142007XD

 34 36  0  0  1  0  0  0  0  0  1 V2000
    8.5886   -3.9588    0.0000 N   0  0  0  0  0  0  0  0  0  0  0  0
    8.5886   -2.6336    0.0000 C   0  0  0  0  0  0  0  0  0  0  0  0
    7.2467   -3.9588    0.0000 C   0  0  0  0  0  0  0  0  0  0  0  0
    7.2467   -2.6336    0.0000 C   0  0  0  0  0  0  0  0  0  0  0  0
    9.8467   -4.3782    0.0000 C   0  0  0  0  0  0  0  0  0  0  0  0
    9.8467   -2.2143    0.0000 S   0  0  0  0  0  0  0  0  0  0  0  0
   10.6351   -3.2878    0.0000 C   0  0  0  0  0  0  0  0  0  0  0  0
    5.7369   -2.6504    0.0000 N   0  0  0  0  0  0  0  0  0  0  0  0
    4.6130   -1.9962    0.0000 C   0  0  0  0  0  0  0  0  0  0  0  0
    9.8970   -5.6866    0.0000 C   0  0  0  0  0  0  0  0  0  0  0  0
   14.4765   -5.6866    0.0000 C   0  0  0  0  0  0  0  0  0  0  0  0
    3.4556   -2.6504    0.0000 C   0  0  0  0  0  0  0  0  0  0  0  0
    6.3240   -4.8982    0.0000 O   0  0  0  0  0  0  0  0  0  0  0  0
   15.6340   -6.3408    0.0000 C   0  0  0  0  0  0  0  0  0  0  0  0
    4.6130   -0.6710    0.0000 O   0  0  0  0  0  0  0  0  0  0  0  0
   11.0377   -6.3408    0.0000 O   0  0  0  0  0  0  0  0  0  0  0  0
   13.3191   -6.3408    0.0000 O   0  0  0  0  0  0  0  0  0  0  0  0
   12.1616   -5.6866    0.0000 C   0  0  0  0  0  0  0  0  0  0  0  0
    8.7396   -6.3408    0.0000 O   0  0  0  0  0  0  0  0  0  0  0  0
   14.4765   -4.3446    0.0000 O   0  0  0  0  0  0  0  0  0  0  0  0
    2.2981   -1.9962    0.0000 C   0  0  0  0  0  0  0  0  0  0  0  0
    3.4556   -3.9756    0.0000 N   0  0  0  0  0  0  0  0  0  0  0  0
   11.7590   -2.6336    0.0000 C   0  0  0  0  0  0  0  0  0  0  0  0
   11.7590   -3.9588    0.0000 C   0  0  0  0  0  0  0  0  0  0  0  0
   14.9630   -7.4815    0.0000 C   0  0  0  0  0  0  0  0  0  0  0  0
   16.2882   -5.2001    0.0000 C   0  0  0  0  0  0  0  0  0  0  0  0
   16.7747   -7.0118    0.0000 C   0  0  0  0  0  0  0  0  0  0  0  0
    1.1407   -2.6504    0.0000 C   0  0  0  0  0  0  0  0  0  0  0  0
    2.2981   -0.6710    0.0000 C   0  0  0  0  0  0  0  0  0  0  0  0
    1.1407    0.0000    0.0000 C   0  0  0  0  0  0  0  0  0  0  0  0
    0.0000   -1.9962    0.0000 C   0  0  0  0  0  0  0  0  0  0  0  0
    0.0000   -0.6710    0.0000 C   0  0  0  0  0  0  0  0  0  0  0  0
    7.2467   -1.3084    0.0000 H   0  0  0  0  0  0  0  0  0  0  0  0
    8.5886   -1.2916    0.0000 H   0  0  0  0  0  0  0  0  0  0  0  0
  1  2  1  0  0  0  0
  1  3  1  0  0  0  0
  1  5  1  0  0  0  0
  2  6  1  0  0  0  0
  2  4  1  0  0  0  0
  2 34  1  6  0  0  0
  3  4  1  0  0  0  0
  3 13  2  0  0  0  0
  4  8  1  1  0  0  0
  4 33  1  6  0  0  0
  5  7  1  0  0  0  0
  5 10  1  6  0  0  0
  6  7  1  0  0  0  0
  7 23  1  0  0  0  0
  7 24  1  0  0  0  0
  8  9  1  0  0  0  0
  9 12  1  0  0  0  0
  9 15  2  0  0  0  0
 10 16  1  0  0  0  0
 10 19  2  0  0  0  0
 11 17  1  0  0  0  0
 11 14  1  0  0  0  0
 11 20  2  0  0  0  0
 12 21  1  0  0  0  0
 12 22  1  6  0  0  0
 14 25  1  0  0  0  0
 14 26  1  0  0  0  0
 14 27  1  0  0  0  0
 16 18  1  0  0  0  0
 17 18  1  0  0  0  0
 21 28  2  0  0  0  0
 21 29  1  0  0  0  0
 28 31  1  0  0  0  0
 29 30  2  0  0  0  0
 30 32  1  0  0  0  0
 31 32  2  0  0  0  0
M  END
> <ID>
10958

> <Formula>
C22H29N3O6S

> <FW>
463.5472

> <DSSTox_CID>
25459

> <DSSTox_RID>
80890

> <DSSTox_GSID>
45459

> <DSSTox_FileID_Sort>
5571

> <TS_ChemName>
Pivampicillin

> <TS_ChemName_Synonyms>


> <TS_CASRN>
33817-20-8

> <CASRN_ChemName_Relationship>
primary

> <TS_Description>
single chemical compound

> <ChemNote>


> <STRUCTURE_Shown>
tested chemical

> <STRUCTURE_Formula>
C22H29N3O6S

> <STRUCTURE_MW>
463.5472

> <STRUCTURE_ChemType>
defined organic

> <STRUCTURE_DefinedOrganicForm>
parent

> <STRUCTURE_IUPAC>
[(2,2-dimethylpropanoyl)oxy]methyl (2S,5R,6R)-6-{[(2R)-2-amino-2-phenylacetyl]amino}-3,3-dimethyl-7-oxo-4-thia-1-azabicyclo[3.2.0]heptane-2-carboxylate

> <STRUCTURE_SMILES>
CC(C)(C)C(=O)OCOC(=O)[C@@H]2N3C(=O)[C@@H](NC(=O)[C@H](N)c1ccccc1)[C@H]3SC2(C)C

> <STRUCTURE_SMILES_Desalt>
CC(C)(C)C(=O)OCOC(=O)[C@@H]2N3C(=O)[C@@H](NC(=O)[C@H](N)c1ccccc1)[C@H]3SC2(C)C

> <Substance_modify_yyyymmdd>
20100107

$$$$
