33820-53-0
ChemmineR-0915142007XD

 22 22  0  0  0  0  0  0  0  0  2 V2000
    4.6411   -5.2686    0.0000 C   0  0  0  0  0  0  0  0  0  0  0  0
    3.4693   -3.2755    0.0000 C   0  0  0  0  0  0  0  0  0  0  0  0
    4.6411   -3.9491    0.0000 C   0  0  0  0  0  0  0  0  0  0  0  0
    3.4693   -1.9469    0.0000 N   0  3  0  0  0  0  0  0  0  0  0  0
    5.7760   -5.9513    0.0000 N   0  3  0  0  0  0  0  0  0  0  0  0
    2.3344   -3.9491    0.0000 C   0  0  0  0  0  0  0  0  0  0  0  0
    3.4970   -5.9513    0.0000 C   0  0  0  0  0  0  0  0  0  0  0  0
    2.3344   -5.2686    0.0000 C   0  0  0  0  0  0  0  0  0  0  0  0
    5.7760   -3.3032    0.0000 N   0  0  0  0  0  0  0  0  0  0  0  0
    5.7760   -7.2708    0.0000 O   0  5  0  0  0  0  0  0  0  0  0  0
    4.6411   -1.3010    0.0000 O   0  5  0  0  0  0  0  0  0  0  0  0
    6.9478   -5.2686    0.0000 O   0  0  0  0  0  0  0  0  0  0  0  0
    2.3344   -1.2733    0.0000 O   0  0  0  0  0  0  0  0  0  0  0  0
    1.1626   -5.9513    0.0000 C   0  0  0  0  0  0  0  0  0  0  0  0
    6.9478   -3.9491    0.0000 C   0  0  0  0  0  0  0  0  0  0  0  0
    5.7760   -1.9746    0.0000 C   0  0  0  0  0  0  0  0  0  0  0  0
    1.1626   -7.2708    0.0000 C   0  0  0  0  0  0  0  0  0  0  0  0
    0.0000   -5.2686    0.0000 C   0  0  0  0  0  0  0  0  0  0  0  0
    8.0828   -3.3032    0.0000 C   0  0  0  0  0  0  0  0  0  0  0  0
    6.9478   -1.3010    0.0000 C   0  0  0  0  0  0  0  0  0  0  0  0
    9.2269   -3.9768    0.0000 C   0  0  0  0  0  0  0  0  0  0  0  0
    6.9478    0.0000    0.0000 C   0  0  0  0  0  0  0  0  0  0  0  0
  1  3  2  0  0  0  0
  1  5  1  0  0  0  0
  1  7  1  0  0  0  0
  2  3  1  0  0  0  0
  2  4  1  0  0  0  0
  2  6  2  0  0  0  0
  3  9  1  0  0  0  0
  4 11  1  0  0  0  0
  4 13  2  0  0  0  0
  5 10  1  0  0  0  0
  5 12  2  0  0  0  0
  6  8  1  0  0  0  0
  7  8  2  0  0  0  0
  8 14  1  0  0  0  0
  9 15  1  0  0  0  0
  9 16  1  0  0  0  0
 14 17  1  0  0  0  0
 14 18  1  0  0  0  0
 15 19  1  0  0  0  0
 16 20  1  0  0  0  0
 19 21  1  0  0  0  0
 20 22  1  0  0  0  0
M  END
> <ID>
3533

> <Formula>
C15H23N3O4

> <FW>
309.3608

> <DSSTox_CID>
4157

> <DSSTox_RID>
77308

> <DSSTox_GSID>
24157

> <DSSTox_FileID_Sort>
1991

> <TS_ChemName>
Isopropalin

> <TS_ChemName_Synonyms>


> <TS_CASRN>
33820-53-0

> <CASRN_ChemName_Relationship>
primary

> <TS_Description>
single chemical compound

> <ChemNote>


> <STRUCTURE_Shown>
tested chemical

> <STRUCTURE_Formula>
C15H23N3O4

> <STRUCTURE_MW>
309.3608

> <STRUCTURE_ChemType>
defined organic

> <STRUCTURE_DefinedOrganicForm>
parent

> <STRUCTURE_IUPAC>
2,6-dinitro-4-(propan-2-yl)-N,N-dipropylaniline

> <STRUCTURE_SMILES>
[O-][N+](=O)c1cc(cc([N+]([O-])=O)c1N(CCC)CCC)C(C)C

> <STRUCTURE_SMILES_Desalt>
[O-][N+](=O)c1cc(cc([N+]([O-])=O)c1N(CCC)CCC)C(C)C

> <Substance_modify_yyyymmdd>
20080429

$$$$
