3383-96-8
ChemmineR-0915142007XD

 27 28  0  0  0  0  0  0  0  0  1 V2000
   11.5227   -0.6778    0.0000 C   0  0  0  0  0  0  0  0  0  0  0  0
   11.5227   -2.0011    0.0000 C   0  0  0  0  0  0  0  0  0  0  0  0
   10.3769    0.0000    0.0000 C   0  0  0  0  0  0  0  0  0  0  0  0
   10.3769   -2.6628    0.0000 C   0  0  0  0  0  0  0  0  0  0  0  0
    9.2311   -0.6778    0.0000 C   0  0  0  0  0  0  0  0  0  0  0  0
    9.2311   -2.0011    0.0000 C   0  0  0  0  0  0  0  0  0  0  0  0
    6.9072   -0.6778    0.0000 C   0  0  0  0  0  0  0  0  0  0  0  0
    6.9072   -2.0011    0.0000 C   0  0  0  0  0  0  0  0  0  0  0  0
    5.7614    0.0000    0.0000 C   0  0  0  0  0  0  0  0  0  0  0  0
    5.7614   -2.6628    0.0000 C   0  0  0  0  0  0  0  0  0  0  0  0
    4.5994   -0.6778    0.0000 C   0  0  0  0  0  0  0  0  0  0  0  0
    4.5994   -2.0011    0.0000 C   0  0  0  0  0  0  0  0  0  0  0  0
    8.0691    0.0000    0.0000 S   0  0  0  0  0  0  0  0  0  0  0  0
    3.4536   -2.6628    0.0000 O   0  0  0  0  0  0  0  0  0  0  0  0
   12.6685   -2.6628    0.0000 O   0  0  0  0  0  0  0  0  0  0  0  0
    2.2916   -2.0011    0.0000 P   0  0  0  0  0  0  0  0  0  0  0  0
   13.8305   -2.0011    0.0000 P   0  0  0  0  0  0  0  0  0  0  0  0
    1.6300   -3.1631    0.0000 O   0  0  0  0  0  0  0  0  0  0  0  0
    1.1620   -1.3395    0.0000 O   0  0  0  0  0  0  0  0  0  0  0  0
    2.9694   -0.8553    0.0000 S   0  0  0  0  0  0  0  0  0  0  0  0
   13.1688   -0.8553    0.0000 S   0  0  0  0  0  0  0  0  0  0  0  0
   14.5083   -3.1631    0.0000 O   0  0  0  0  0  0  0  0  0  0  0  0
   14.9763   -1.3395    0.0000 O   0  0  0  0  0  0  0  0  0  0  0  0
    0.3066   -3.1631    0.0000 C   0  0  0  0  0  0  0  0  0  0  0  0
    0.0000   -2.0011    0.0000 C   0  0  0  0  0  0  0  0  0  0  0  0
   16.1383   -2.0011    0.0000 C   0  0  0  0  0  0  0  0  0  0  0  0
   15.8316   -3.1631    0.0000 C   0  0  0  0  0  0  0  0  0  0  0  0
  1  2  1  0  0  0  0
  1  3  2  0  0  0  0
  2  4  2  0  0  0  0
  2 15  1  0  0  0  0
  3  5  1  0  0  0  0
  4  6  1  0  0  0  0
  5  6  2  0  0  0  0
  5 13  1  0  0  0  0
  7  8  1  0  0  0  0
  7  9  2  0  0  0  0
  7 13  1  0  0  0  0
  8 10  2  0  0  0  0
  9 11  1  0  0  0  0
 10 12  1  0  0  0  0
 11 12  2  0  0  0  0
 12 14  1  0  0  0  0
 14 16  1  0  0  0  0
 15 17  1  0  0  0  0
 16 18  1  0  0  0  0
 16 19  1  0  0  0  0
 16 20  2  0  0  0  0
 17 21  2  0  0  0  0
 17 22  1  0  0  0  0
 17 23  1  0  0  0  0
 18 24  1  0  0  0  0
 19 25  1  0  0  0  0
 22 27  1  0  0  0  0
 23 26  1  0  0  0  0
M  END
> <ID>
6473

> <Formula>
C16H20O6P2S3

> <FW>
466.4689

> <DSSTox_CID>
12484

> <DSSTox_RID>
78954

> <DSSTox_GSID>
32484

> <DSSTox_FileID_Sort>
3636

> <TS_ChemName>
Temephos

> <TS_ChemName_Synonyms>


> <TS_CASRN>
3383-96-8

> <CASRN_ChemName_Relationship>
primary

> <TS_Description>
single chemical compound

> <ChemNote>


> <STRUCTURE_Shown>
tested chemical

> <STRUCTURE_Formula>
C16H20O6P2S3

> <STRUCTURE_MW>
466.4689

> <STRUCTURE_ChemType>
defined organic

> <STRUCTURE_DefinedOrganicForm>
parent

> <STRUCTURE_IUPAC>
O,O,O',O'-tetramethyl O,O'-(sulfanediyldibenzene-4,1-diyl) bis(phosphorothioate)

> <STRUCTURE_SMILES>
COP(=S)(OC)Oc1ccc(cc1)Sc2ccc(cc2)OP(=S)(OC)OC

> <STRUCTURE_SMILES_Desalt>
COP(=S)(OC)Oc1ccc(cc1)Sc2ccc(cc2)OP(=S)(OC)OC

> <Substance_modify_yyyymmdd>
20080429

$$$$
