3385-03-3
ChemmineR-0915142007XD

 34 38  0  0  1  0  0  0  0  0  1 V2000
    8.1803   -2.0071    0.0000 C   0  0  0  0  0  0  0  0  0  0  0  0
    6.9083   -2.4156    0.0000 C   0  0  0  0  0  0  0  0  0  0  0  0
    3.4425   -4.4111    0.0000 C   0  0  0  0  0  0  0  0  0  0  0  0
    3.4425   -5.7180    0.0000 C   0  0  0  0  0  0  0  0  0  0  0  0
    6.9083   -3.7459    0.0000 C   0  0  0  0  0  0  0  0  0  0  0  0
    5.7764   -4.4111    0.0000 C   0  0  0  0  0  0  0  0  0  0  0  0
    4.6211   -3.7459    0.0000 C   0  0  0  0  0  0  0  0  0  0  0  0
    8.9271   -3.0807    0.0000 C   0  0  0  0  0  0  0  0  0  0  0  0
    8.9972   -0.9336    0.0000 O   0  0  0  0  0  0  0  0  0  0  0  0
    2.3106   -3.7459    0.0000 C   0  0  0  0  0  0  0  0  0  0  0  0
    5.7764   -1.7504    0.0000 C   0  0  0  0  0  0  0  0  0  0  0  0
   10.2225   -1.3770    0.0000 C   0  0  0  0  0  0  0  0  0  0  0  0
    4.6211   -2.4156    0.0000 C   0  0  0  0  0  0  0  0  0  0  0  0
   10.2225   -2.6140    0.0000 O   0  0  0  0  0  0  0  0  0  0  0  0
    8.1803   -4.1310    0.0000 C   0  0  0  0  0  0  0  0  0  0  0  0
    5.7764   -5.7180    0.0000 C   0  0  0  0  0  0  0  0  0  0  0  0
    4.6211   -6.3949    0.0000 C   0  0  0  0  0  0  0  0  0  0  0  0
    2.3106   -6.3949    0.0000 C   0  0  0  0  0  0  0  0  0  0  0  0
    8.1803   -0.6768    0.0000 C   0  0  0  0  0  0  0  0  0  0  0  0
    1.1669   -4.4111    0.0000 C   0  0  0  0  0  0  0  0  0  0  0  0
    1.1669   -5.7180    0.0000 C   0  0  0  0  0  0  0  0  0  0  0  0
    9.3472   -0.0117    0.0000 O   0  0  0  0  0  0  0  0  0  0  0  0
    0.0000   -6.4065    0.0000 O   0  0  0  0  0  0  0  0  0  0  0  0
    6.9083   -1.0853    0.0000 C   0  0  0  0  0  0  0  0  0  0  0  0
    3.4425   -3.0807    0.0000 C   0  0  0  0  0  0  0  0  0  0  0  0
    4.6211   -7.7252    0.0000 F   0  0  0  0  0  0  0  0  0  0  0  0
    3.4425   -1.7271    0.0000 O   0  0  0  0  0  0  0  0  0  0  0  0
    7.0717    0.0000    0.0000 C   0  0  0  0  0  0  0  0  0  0  0  0
   10.6309   -0.0583    0.0000 C   0  0  0  0  0  0  0  0  0  0  0  0
   11.6695   -1.3770    0.0000 C   0  0  0  0  0  0  0  0  0  0  0  0
    5.8931   -0.6068    0.0000 O   0  0  0  0  0  0  0  0  0  0  0  0
    6.9083   -5.0529    0.0000 H   0  0  0  0  0  0  0  0  0  0  0  0
    5.7764   -3.0807    0.0000 H   0  0  0  0  0  0  0  0  0  0  0  0
    4.6211   -5.0762    0.0000 H   0  0  0  0  0  0  0  0  0  0  0  0
  1  2  1  0  0  0  0
  1  8  1  0  0  0  0
  1  9  1  6  0  0  0
  1 19  1  0  0  0  0
  2  5  1  0  0  0  0
  2 11  1  0  0  0  0
  2 24  1  1  0  0  0
  3  7  1  0  0  0  0
  3  4  1  0  0  0  0
  3 10  1  0  0  0  0
  3 25  1  1  0  0  0
  4 18  2  0  0  0  0
  4 17  1  0  0  0  0
  5  6  1  0  0  0  0
  5 32  1  6  0  0  0
  5 15  1  0  0  0  0
  6 16  1  0  0  0  0
  6 33  1  1  0  0  0
  6  7  1  0  0  0  0
  7 13  1  0  0  0  0
  7 34  1  6  0  0  0
  8 14  1  6  0  0  0
  8 15  1  0  0  0  0
  9 12  1  0  0  0  0
 10 20  2  0  0  0  0
 11 13  1  0  0  0  0
 12 29  1  0  0  0  0
 12 30  1  0  0  0  0
 12 14  1  0  0  0  0
 13 27  1  1  0  0  0
 16 17  1  0  0  0  0
 17 26  1  6  0  0  0
 18 21  1  0  0  0  0
 19 22  2  0  0  0  0
 19 28  1  0  0  0  0
 20 21  1  0  0  0  0
 21 23  2  0  0  0  0
 28 31  1  0  0  0  0
M  END
> <ID>
11004

> <Formula>
C24H31FO6

> <FW>
434.4977

> <DSSTox_CID>
25534

> <DSSTox_RID>
80936

> <DSSTox_GSID>
45534

> <DSSTox_FileID_Sort>
5617

> <TS_ChemName>
Flunisolide

> <TS_ChemName_Synonyms>


> <TS_CASRN>
3385-03-3

> <CASRN_ChemName_Relationship>
primary

> <TS_Description>
single chemical compound

> <ChemNote>
stereochem; tautomers

> <STRUCTURE_Shown>
tested chemical

> <STRUCTURE_Formula>
C24H31FO6

> <STRUCTURE_MW>
434.4977

> <STRUCTURE_ChemType>
defined organic

> <STRUCTURE_DefinedOrganicForm>
parent

> <STRUCTURE_IUPAC>
(4aR,4bS,5S,6aS,6bS,9aR,10aS,10bS,12S)-12-fluoro-5-hydroxy-6b-(hydroxyacetyl)-4a,6a,8,8-tetramethyl-4a,4b,5,6,6a,6b,9a,10,10a,10b,11,12-dodecahydro-2H-naphtho[2',1':4,5]indeno[1,2-d][1,3]dioxol-2-one

> <STRUCTURE_SMILES>
OCC(=O)[C@@]54OC(C)(C)O[C@@H]5C[C@@H]3[C@]4(C)C[C@H](O)[C@H]2[C@H]3C[C@H](F)C1=CC(=O)C=C[C@@]12C

> <STRUCTURE_SMILES_Desalt>
OCC(=O)[C@@]54OC(C)(C)O[C@@H]5C[C@@H]3[C@]4(C)C[C@H](O)[C@H]2[C@H]3C[C@H](F)C1=CC(=O)C=C[C@@]12C

> <Substance_modify_yyyymmdd>
20100107

$$$$
