3386-87-6
ChemmineR-0915142007XD

 12 11  0  0  0  0  0  0  0  0  1 V2000
   11.5087   -0.6710    0.0000 C   0  0  0  0  0  0  0  0  0  0  0  0
   12.6608    0.0000    0.0000 N   0  0  0  0  0  0  0  0  0  0  0  0
   10.3692   -1.3294    0.0000 C   0  0  0  0  0  0  0  0  0  0  0  0
    9.2171   -0.6710    0.0000 C   0  0  0  0  0  0  0  0  0  0  0  0
    1.1521   -1.3420    0.0000 C   0  0  0  0  0  0  0  0  0  0  0  0
    0.0000   -2.0131    0.0000 N   0  0  0  0  0  0  0  0  0  0  0  0
    2.2916   -0.6837    0.0000 C   0  0  0  0  0  0  0  0  0  0  0  0
    3.4437   -1.3420    0.0000 C   0  0  0  0  0  0  0  0  0  0  0  0
    5.7480   -1.3420    0.0000 C   0  0  0  0  0  0  0  0  0  0  0  0
    4.5959   -0.6710    0.0000 O   0  0  0  0  0  0  0  0  0  0  0  0
    6.9128   -0.6710    0.0000 C   0  0  0  0  0  0  0  0  0  0  0  0
    8.0650   -1.3420    0.0000 O   0  0  0  0  0  0  0  0  0  0  0  0
  1  2  3  0  0  0  0
  1  3  1  0  0  0  0
  3  4  1  0  0  0  0
  4 12  1  0  0  0  0
  5  6  3  0  0  0  0
  5  7  1  0  0  0  0
  7  8  1  0  0  0  0
  8 10  1  0  0  0  0
  9 10  1  0  0  0  0
  9 11  1  0  0  0  0
 11 12  1  0  0  0  0
M  END
> <ID>
10309

> <Formula>
C8H12N2O2

> <FW>
168.1931

> <DSSTox_CID>
24656

> <DSSTox_RID>
80380

> <DSSTox_GSID>
44656

> <DSSTox_FileID_Sort>
5062

> <TS_ChemName>
3,3'-(Ethylenedioxy)dipropiononitrile

> <TS_ChemName_Synonyms>
3,3'-(ethylenedioxy)dipropiononitrile (3,3'-[ethane-1,2-diylbis(oxy)]dipropanenitrile)

> <TS_CASRN>
3386-87-6

> <CASRN_ChemName_Relationship>
primary

> <TS_Description>
single chemical compound

> <ChemNote>


> <STRUCTURE_Shown>
tested chemical

> <STRUCTURE_Formula>
C8H12N2O2

> <STRUCTURE_MW>
168.1931

> <STRUCTURE_ChemType>
defined organic

> <STRUCTURE_DefinedOrganicForm>
parent

> <STRUCTURE_IUPAC>
3,3'-[ethane-1,2-diylbis(oxy)]dipropanenitrile

> <STRUCTURE_SMILES>
N#CCCOCCOCCC#N

> <STRUCTURE_SMILES_Desalt>
N#CCCOCCOCCC#N

> <Substance_modify_yyyymmdd>
20091116

$$$$
