339-43-5
ChemmineR-0915142007XD

 18 18  0  0  0  0  0  0  0  0  1 V2000
    9.2091   -1.8128    0.0000 C   0  0  0  0  0  0  0  0  0  0  0  0
    9.2091   -3.1491    0.0000 C   0  0  0  0  0  0  0  0  0  0  0  0
   10.3590   -3.8121    0.0000 N   0  0  0  0  0  0  0  0  0  0  0  0
    8.0593   -3.8121    0.0000 C   0  0  0  0  0  0  0  0  0  0  0  0
    6.9094   -3.1491    0.0000 C   0  0  0  0  0  0  0  0  0  0  0  0
    6.9094   -1.8128    0.0000 C   0  0  0  0  0  0  0  0  0  0  0  0
    5.7596   -1.1498    0.0000 S   0  0  0  0  0  0  0  0  0  0  0  0
    6.4226    0.0000    0.0000 O   0  0  0  0  0  0  0  0  0  0  0  0
    5.0862   -2.2997    0.0000 O   0  0  0  0  0  0  0  0  0  0  0  0
    4.5994   -0.4869    0.0000 N   0  0  0  0  0  0  0  0  0  0  0  0
    3.4495   -1.1498    0.0000 C   0  0  0  0  0  0  0  0  0  0  0  0
    3.4495   -2.4861    0.0000 O   0  0  0  0  0  0  0  0  0  0  0  0
    2.2997   -0.4869    0.0000 N   0  0  0  0  0  0  0  0  0  0  0  0
    1.1498   -1.1498    0.0000 C   0  0  0  0  0  0  0  0  0  0  0  0
    1.1498   -2.4861    0.0000 C   0  0  0  0  0  0  0  0  0  0  0  0
    0.0000   -3.1491    0.0000 C   0  0  0  0  0  0  0  0  0  0  0  0
    0.0000   -4.4751    0.0000 C   0  0  0  0  0  0  0  0  0  0  0  0
    8.0593   -1.1498    0.0000 C   0  0  0  0  0  0  0  0  0  0  0  0
  1  2  2  0  0  0  0
  1 18  1  0  0  0  0
  2  3  1  0  0  0  0
  2  4  1  0  0  0  0
  4  5  2  0  0  0  0
  5  6  1  0  0  0  0
  6  7  1  0  0  0  0
  6 18  2  0  0  0  0
  7  8  2  0  0  0  0
  7  9  2  0  0  0  0
  7 10  1  0  0  0  0
 10 11  1  0  0  0  0
 11 12  2  0  0  0  0
 11 13  1  0  0  0  0
 13 14  1  0  0  0  0
 14 15  1  0  0  0  0
 15 16  1  0  0  0  0
 16 17  1  0  0  0  0
M  END
> <ID>
2480

> <Formula>
C11H17N3O3S

> <FW>
271.336

> <DSSTox_CID>
2741

> <DSSTox_RID>
76710

> <DSSTox_GSID>
22741

> <DSSTox_FileID_Sort>
1394

> <TS_ChemName>
Carbutamide

> <TS_ChemName_Synonyms>
Carbutamide (N1-(Butylcarbamoyl)-sulfanilamide)

> <TS_CASRN>
339-43-5

> <CASRN_ChemName_Relationship>
primary

> <TS_Description>
single chemical compound

> <ChemNote>


> <STRUCTURE_Shown>
tested chemical

> <STRUCTURE_Formula>
C11H17N3O3S

> <STRUCTURE_MW>
271.336

> <STRUCTURE_ChemType>
defined organic

> <STRUCTURE_DefinedOrganicForm>
parent

> <STRUCTURE_IUPAC>
4-amino-N-(butylcarbamoyl)benzenesulfonamide

> <STRUCTURE_SMILES>
Nc1ccc(cc1)S(=O)(=O)NC(=O)NCCCC

> <STRUCTURE_SMILES_Desalt>
Nc1ccc(cc1)S(=O)(=O)NC(=O)NCCCC

> <Substance_modify_yyyymmdd>
20080429

$$$$
