33924-48-0
ChemmineR-0915142007XD

 13 13  0  0  0  0  0  0  0  0  1 V2000
    1.1363   -5.9805    0.0000 C    0  0  0  0  0  0  0  0  0  0  0  0
    1.1363   -4.6468    0.0000 O    0  0  0  0  0  0  0  0  0  0  0  0
    2.2905   -3.9949    0.0000 C    0  0  0  0  0  0  0  0  0  0  0  0
    3.4447   -4.6468    0.0000 O    0  0  0  0  0  0  0  0  0  0  0  0
    2.2905   -2.6613    0.0000 C    0  0  0  0  0  0  0  0  0  0  0  0
    1.1363   -1.9855    0.0000 C    0  0  0  0  0  0  0  0  0  0  0  0
    1.1363   -0.6578    0.0000 C    0  0  0  0  0  0  0  0  0  0  0  0
    2.2905    0.0000    0.0000 C    0  0  0  0  0  0  0  0  0  0  0  0
    3.4447   -0.6578    0.0000 C    0  0  0  0  0  0  0  0  0  0  0  0
    3.4447   -1.9855    0.0000 C    0  0  0  0  0  0  0  0  0  0  0  0
    4.5990   -2.6613    0.0000 O    0  0  0  0  0  0  0  0  0  0  0  0
    4.5990   -3.9949    0.0000 C    0  0  0  0  0  0  0  0  0  0  0  0
    0.0000    0.0000    0.0000 Cl   0  0  0  0  0  0  0  0  0  0  0  0
  1  2  1  0  0  0  0
  2  3  1  0  0  0  0
  3  4  2  0  0  0  0
  3  5  1  0  0  0  0
  5  6  2  0  0  0  0
  5 10  1  0  0  0  0
  6  7  1  0  0  0  0
  7  8  2  0  0  0  0
  7 13  1  0  0  0  0
  8  9  1  0  0  0  0
  9 10  2  0  0  0  0
 10 11  1  0  0  0  0
 11 12  1  0  0  0  0
M  END
> <ID>
16121

> <Formula>
C9H9ClO3

> <FW>
200.619

> <DSSTox_CID>
31509

> <DSSTox_RID>
97394

> <DSSTox_GSID>
57720

> <DSSTox_FileID_Sort>
8461

> <TS_ChemName>
Methyl 5-chloro-o-anisate

> <TS_ChemName_Synonyms>


> <TS_CASRN>
33924-48-0

> <CASRN_ChemName_Relationship>
primary

> <TS_Description>
single chemical compound

> <ChemNote>


> <STRUCTURE_Shown>
tested chemical

> <STRUCTURE_Formula>
C9H9ClO3

> <STRUCTURE_MW>
200.619

> <STRUCTURE_ChemType>
defined organic

> <STRUCTURE_DefinedOrganicForm>
parent

> <STRUCTURE_IUPAC>
methyl 5-chloro-2-methoxybenzoate

> <STRUCTURE_SMILES>
COc1ccc(Cl)cc1C(=O)OC

> <STRUCTURE_SMILES_Desalt>
COc1ccc(Cl)cc1C(=O)OC

> <Substance_modify_yyyymmdd>
20131018

$$$$
