33956-49-9
ChemmineR-0915142007XD

 13 12  0  0  0  0  0  0  0  0  1 V2000
    1.1737    0.0000    0.0000 C   0  0  0  0  0  0  0  0  0  0  0  0
    2.3334   -0.6427    0.0000 C   0  0  0  0  0  0  0  0  0  0  0  0
    3.5071    0.0000    0.0000 C   0  0  0  0  0  0  0  0  0  0  0  0
    4.6528   -0.6427    0.0000 C   0  0  0  0  0  0  0  0  0  0  0  0
    5.8265    0.0000    0.0000 C   0  0  0  0  0  0  0  0  0  0  0  0
    6.9862   -0.6427    0.0000 C   0  0  0  0  0  0  0  0  0  0  0  0
    8.1460    0.0000    0.0000 C   0  0  0  0  0  0  0  0  0  0  0  0
    9.3197   -0.6427    0.0000 C   0  0  0  0  0  0  0  0  0  0  0  0
   10.4654    0.0000    0.0000 C   0  0  0  0  0  0  0  0  0  0  0  0
   11.6391   -0.6427    0.0000 C   0  0  0  0  0  0  0  0  0  0  0  0
   12.7988    0.0000    0.0000 C   0  0  0  0  0  0  0  0  0  0  0  0
   13.9725   -0.6427    0.0000 C   0  0  0  0  0  0  0  0  0  0  0  0
    0.0000   -0.6427    0.0000 O   0  0  0  0  0  0  0  0  0  0  0  0
  1  2  1  0  0  0  0
  1 13  1  0  0  0  0
  2  3  1  0  0  0  0
  3  4  1  0  0  0  0
  4  5  1  0  0  0  0
  5  6  1  0  0  0  0
  6  7  1  0  0  0  0
  7  8  1  0  0  0  0
  8  9  2  0  0  0  0
  9 10  1  0  0  0  0
 10 11  2  0  0  0  0
 11 12  1  0  0  0  0
M  END
> <ID>
7020

> <Formula>
C12H22O

> <FW>
182.3025

> <DSSTox_CID>
15288

> <DSSTox_RID>
79255

> <DSSTox_GSID>
35288

> <DSSTox_FileID_Sort>
3937

> <TS_ChemName>
Codlelure

> <TS_ChemName_Synonyms>
Codlelure ((E,E)-8,10-Dodecadien-1-ol)

> <TS_CASRN>
33956-49-9

> <CASRN_ChemName_Relationship>
primary

> <TS_Description>
single chemical compound

> <ChemNote>
stereochem

> <STRUCTURE_Shown>
tested chemical

> <STRUCTURE_Formula>
C12H22O

> <STRUCTURE_MW>
182.3025

> <STRUCTURE_ChemType>
defined organic

> <STRUCTURE_DefinedOrganicForm>
parent

> <STRUCTURE_IUPAC>
(8E,10E)-dodeca-8,10-dien-1-ol

> <STRUCTURE_SMILES>
C\C=C\C=C\CCCCCCCO

> <STRUCTURE_SMILES_Desalt>
C\C=C\C=C\CCCCCCCO

> <Substance_modify_yyyymmdd>
20080429

$$$$
