3397-62-4
ChemmineR-0915142007XD

  9  9  0  0  0  0  0  0  0  0  1 V2000
    2.2979    0.0000    0.0000 Cl   0  0  0  0  0  0  0  0  0  0  0  0
    4.6050   -3.9972    0.0000 N    0  0  0  0  0  0  0  0  0  0  0  0
    0.0000   -3.9972    0.0000 N    0  0  0  0  0  0  0  0  0  0  0  0
    3.4492   -1.9940    0.0000 N    0  0  0  0  0  0  0  0  0  0  0  0
    3.4492   -3.3248    0.0000 C    0  0  0  0  0  0  0  0  0  0  0  0
    2.2979   -1.3309    0.0000 C    0  0  0  0  0  0  0  0  0  0  0  0
    2.2979   -3.9972    0.0000 N    0  0  0  0  0  0  0  0  0  0  0  0
    1.1559   -2.0032    0.0000 N    0  0  0  0  0  0  0  0  0  0  0  0
    1.1559   -3.3248    0.0000 C    0  0  0  0  0  0  0  0  0  0  0  0
  1  6  1  0  0  0  0
  2  5  1  0  0  0  0
  3  9  1  0  0  0  0
  4  5  2  0  0  0  0
  4  6  1  0  0  0  0
  5  7  1  0  0  0  0
  6  8  2  0  0  0  0
  7  9  2  0  0  0  0
  8  9  1  0  0  0  0
M  END
> <ID>
7434

> <Formula>
C3H4ClN5

> <FW>
145.5504

> <DSSTox_CID>
17806

> <DSSTox_RID>
79379

> <DSSTox_GSID>
37806

> <DSSTox_FileID_Sort>
4061

> <TS_ChemName>
2-Chloro-4,6-diamino-1,3,5-triazine

> <TS_ChemName_Synonyms>
2,4-Diamino-6-chloro-s-triazine (DACT) (Desethyldesisopropyl atrazine) (2-Chloro-4,6-diamino-s-triazine) (Diaminochlortriazine)

> <TS_CASRN>
3397-62-4

> <CASRN_ChemName_Relationship>
primary

> <TS_Description>
single chemical compound

> <ChemNote>


> <STRUCTURE_Shown>
tested chemical

> <STRUCTURE_Formula>
C3H4ClN5

> <STRUCTURE_MW>
145.5504

> <STRUCTURE_ChemType>
defined organic

> <STRUCTURE_DefinedOrganicForm>
parent

> <STRUCTURE_IUPAC>
6-chloro-1,3,5-triazine-2,4-diamine

> <STRUCTURE_SMILES>
Nc1nc(N)nc(Cl)n1

> <STRUCTURE_SMILES_Desalt>
Nc1nc(N)nc(Cl)n1

> <Substance_modify_yyyymmdd>
20080429

$$$$
