33996-33-7
ChemmineR-0915142007XD

 14 14  0  0  1  0  0  0  0  0  1 V2000
    2.0729   -2.0238    0.0000 N   0  0  0  0  0  0  0  0  0  0  0  0
    3.1584   -2.7602    0.0000 C   0  0  0  0  0  0  0  0  0  0  0  0
    2.0729   -0.7037    0.0000 C   0  0  0  0  0  0  0  0  0  0  0  0
    4.4022   -2.3129    0.0000 C   0  0  0  0  0  0  0  0  0  0  0  0
    2.7439   -4.0858    0.0000 C   0  0  0  0  0  0  0  0  0  0  0  0
    0.9874   -2.7602    0.0000 C   0  0  0  0  0  0  0  0  0  0  0  0
    1.4019   -4.0858    0.0000 C   0  0  0  0  0  0  0  0  0  0  0  0
    0.9546   -0.0164    0.0000 O   0  0  0  0  0  0  0  0  0  0  0  0
    4.6586   -1.0037    0.0000 O   0  0  0  0  0  0  0  0  0  0  0  0
    5.4550   -3.1257    0.0000 O   0  0  0  0  0  0  0  0  0  0  0  0
    0.0000   -4.0858    0.0000 O   0  0  0  0  0  0  0  0  0  0  0  0
    3.1912    0.0000    0.0000 C   0  0  0  0  0  0  0  0  0  0  0  0
    1.4183   -5.4550    0.0000 H   0  0  0  0  0  0  0  0  0  0  0  0
    4.0531   -3.5076    0.0000 H   0  0  0  0  0  0  0  0  0  0  0  0
  1  2  1  0  0  0  0
  1  3  1  0  0  0  0
  1  6  1  0  0  0  0
  2  4  1  6  0  0  0
  2  5  1  0  0  0  0
  2 14  1  1  0  0  0
  3  8  2  0  0  0  0
  3 12  1  0  0  0  0
  4  9  2  0  0  0  0
  4 10  1  0  0  0  0
  5  7  1  0  0  0  0
  6  7  1  0  0  0  0
  7 11  1  1  0  0  0
  7 13  1  6  0  0  0
M  END
> <ID>
11656

> <Formula>
C7H11NO4

> <FW>
173.1665

> <DSSTox_CID>
26410

> <DSSTox_RID>
81589

> <DSSTox_GSID>
46410

> <DSSTox_FileID_Sort>
6270

> <TS_ChemName>
Oxaceprol

> <TS_ChemName_Synonyms>


> <TS_CASRN>
33996-33-7

> <CASRN_ChemName_Relationship>
primary

> <TS_Description>
single chemical compound

> <ChemNote>
stereochem

> <STRUCTURE_Shown>
tested chemical

> <STRUCTURE_Formula>
C7H11NO4

> <STRUCTURE_MW>
173.1665

> <STRUCTURE_ChemType>
defined organic

> <STRUCTURE_DefinedOrganicForm>
parent

> <STRUCTURE_IUPAC>
(4R)-1-acetyl-4-hydroxy-L-proline

> <STRUCTURE_SMILES>
O[C@@H]1C[C@@H](C(=O)O)N(C1)C(=O)C

> <STRUCTURE_SMILES_Desalt>
O[C@@H]1C[C@@H](C(=O)O)N(C1)C(=O)C

> <Substance_modify_yyyymmdd>
20110813

$$$$
