340-57-8
ChemmineR-0915142007XD

 19 21  0  0  0  0  0  0  0  0  1 V2000
    4.6252   -2.6591    0.0000 N    0  0  0  0  0  0  0  0  0  0  0  0
    3.4649   -2.0144    0.0000 C    0  0  0  0  0  0  0  0  0  0  0  0
    4.6252   -3.9967    0.0000 C    0  0  0  0  0  0  0  0  0  0  0  0
    3.4649   -4.6735    0.0000 N    0  0  0  0  0  0  0  0  0  0  0  0
    2.3045   -2.6591    0.0000 C    0  0  0  0  0  0  0  0  0  0  0  0
    2.3045   -3.9967    0.0000 C    0  0  0  0  0  0  0  0  0  0  0  0
    5.7533   -2.0144    0.0000 C    0  0  0  0  0  0  0  0  0  0  0  0
    3.4649   -0.6930    0.0000 O    0  0  0  0  0  0  0  0  0  0  0  0
    6.9136   -2.6591    0.0000 C    0  0  0  0  0  0  0  0  0  0  0  0
    5.7533   -4.6735    0.0000 C    0  0  0  0  0  0  0  0  0  0  0  0
    6.9136   -3.9967    0.0000 Cl   0  0  0  0  0  0  0  0  0  0  0  0
    1.1442   -2.0144    0.0000 C    0  0  0  0  0  0  0  0  0  0  0  0
    5.7533   -0.6769    0.0000 C    0  0  0  0  0  0  0  0  0  0  0  0
    1.1442   -4.6735    0.0000 C    0  0  0  0  0  0  0  0  0  0  0  0
    8.0578   -2.0144    0.0000 C    0  0  0  0  0  0  0  0  0  0  0  0
    0.0000   -2.6591    0.0000 C    0  0  0  0  0  0  0  0  0  0  0  0
    6.9136    0.0000    0.0000 C    0  0  0  0  0  0  0  0  0  0  0  0
    0.0000   -3.9967    0.0000 C    0  0  0  0  0  0  0  0  0  0  0  0
    8.0578   -0.6769    0.0000 C    0  0  0  0  0  0  0  0  0  0  0  0
  1  2  1  0  0  0  0
  1  3  1  0  0  0  0
  1  7  1  0  0  0  0
  2  5  1  0  0  0  0
  2  8  2  0  0  0  0
  3  4  2  0  0  0  0
  3 10  1  0  0  0  0
  4  6  1  0  0  0  0
  5 12  1  0  0  0  0
  5  6  2  0  0  0  0
  6 14  1  0  0  0  0
  7  9  2  0  0  0  0
  7 13  1  0  0  0  0
  9 11  1  0  0  0  0
  9 15  1  0  0  0  0
 12 16  2  0  0  0  0
 13 17  2  0  0  0  0
 14 18  2  0  0  0  0
 15 19  2  0  0  0  0
 16 18  1  0  0  0  0
 17 19  1  0  0  0  0
M  END
> <ID>
13864

> <Formula>
C15H11ClN2O

> <FW>
270.7136

> <DSSTox_CID>
28801

> <DSSTox_RID>
83070

> <DSSTox_GSID>
48875

> <DSSTox_FileID_Sort>
7747

> <TS_ChemName>
Mecloqualone

> <TS_ChemName_Synonyms>


> <TS_CASRN>
340-57-8

> <CASRN_ChemName_Relationship>
primary

> <TS_Description>
single chemical compound

> <ChemNote>


> <STRUCTURE_Shown>
tested chemical

> <STRUCTURE_Formula>
C15H11ClN2O

> <STRUCTURE_MW>
270.7136

> <STRUCTURE_ChemType>
defined organic

> <STRUCTURE_DefinedOrganicForm>
parent

> <STRUCTURE_IUPAC>
3-(2-chlorophenyl)-2-methylquinazolin-4(3H)-one

> <STRUCTURE_SMILES>
Clc1ccccc1N3C(C)=Nc2ccccc2C3=O

> <STRUCTURE_SMILES_Desalt>
Clc1ccccc1N3C(C)=Nc2ccccc2C3=O

> <Substance_modify_yyyymmdd>
20111204

$$$$
