34014-18-1
ChemmineR-0915142007XD

 15 15  0  0  0  0  0  0  0  0  1 V2000
    4.6985   -1.7384    0.0000 C   0  0  0  0  0  0  0  0  0  0  0  0
    3.6162   -0.9594    0.0000 S   0  0  0  0  0  0  0  0  0  0  0  0
    4.2803   -3.0012    0.0000 N   0  0  0  0  0  0  0  0  0  0  0  0
    2.5420   -1.7466    0.0000 C   0  0  0  0  0  0  0  0  0  0  0  0
    5.9613   -1.3202    0.0000 N   0  0  0  0  0  0  0  0  0  0  0  0
    2.9602   -3.0012    0.0000 N   0  0  0  0  0  0  0  0  0  0  0  0
    6.9617   -2.1812    0.0000 C   0  0  0  0  0  0  0  0  0  0  0  0
    1.2628   -1.3284    0.0000 C   0  0  0  0  0  0  0  0  0  0  0  0
    8.1999   -1.7630    0.0000 O   0  0  0  0  0  0  0  0  0  0  0  0
    6.6829   -3.4850    0.0000 N   0  0  0  0  0  0  0  0  0  0  0  0
    6.2237    0.0000    0.0000 C   0  0  0  0  0  0  0  0  0  0  0  0
    0.8610   -2.6076    0.0000 C   0  0  0  0  0  0  0  0  0  0  0  0
    1.6810   -0.0492    0.0000 C   0  0  0  0  0  0  0  0  0  0  0  0
    0.0000   -0.9102    0.0000 C   0  0  0  0  0  0  0  0  0  0  0  0
    7.6669   -4.3541    0.0000 C   0  0  0  0  0  0  0  0  0  0  0  0
  1  2  1  0  0  0  0
  1  3  2  0  0  0  0
  1  5  1  0  0  0  0
  2  4  1  0  0  0  0
  3  6  1  0  0  0  0
  4  8  1  0  0  0  0
  4  6  2  0  0  0  0
  5  7  1  0  0  0  0
  5 11  1  0  0  0  0
  7  9  2  0  0  0  0
  7 10  1  0  0  0  0
  8 12  1  0  0  0  0
  8 13  1  0  0  0  0
  8 14  1  0  0  0  0
 10 15  1  0  0  0  0
M  END
> <ID>
3618

> <Formula>
C9H16N4OS

> <FW>
228.3145

> <DSSTox_CID>
4316

> <DSSTox_RID>
77365

> <DSSTox_GSID>
24316

> <DSSTox_FileID_Sort>
2048

> <TS_ChemName>
Tebuthiuron

> <TS_ChemName_Synonyms>


> <TS_CASRN>
34014-18-1

> <CASRN_ChemName_Relationship>
primary

> <TS_Description>
single chemical compound

> <ChemNote>


> <STRUCTURE_Shown>
tested chemical

> <STRUCTURE_Formula>
C9H16N4OS

> <STRUCTURE_MW>
228.3145

> <STRUCTURE_ChemType>
defined organic

> <STRUCTURE_DefinedOrganicForm>
parent

> <STRUCTURE_IUPAC>
1-(5-tert-butyl-1,3,4-thiadiazol-2-yl)-1,3-dimethylurea

> <STRUCTURE_SMILES>
CC(C)(C)c1nnc(s1)N(C)C(=O)NC

> <STRUCTURE_SMILES_Desalt>
CC(C)(C)c1nnc(s1)N(C)C(=O)NC

> <Substance_modify_yyyymmdd>
20080429

$$$$
