34031-32-8
ChemmineR-0915142007XD

 32 32  0  0  1  0  0  0  0  0  1 V2000
   10.2842   -5.7591    0.0000 C    0  0  0  0  0  0  0  0  0  0  0  0
    8.9575   -5.7591    0.0000 C    0  0  0  0  0  0  0  0  0  0  0  0
    8.2890   -6.9110    0.0000 O    0  0  0  0  0  0  0  0  0  0  0  0
    8.2890   -4.6073    0.0000 O    0  0  0  0  0  0  0  0  0  0  0  0
    6.9624   -4.6073    0.0000 C    0  0  0  0  0  0  0  0  0  0  0  0
    6.2939   -5.7591    0.0000 C    0  0  0  0  0  0  0  0  0  0  0  0
    4.9673   -5.7591    0.0000 C    0  0  0  0  0  0  0  0  0  0  0  0
    4.2988   -4.6073    0.0000 O    0  0  0  0  0  0  0  0  0  0  0  0
    4.9673   -3.4555    0.0000 C    0  0  0  0  0  0  0  0  0  0  0  0
    6.2939   -3.4555    0.0000 C    0  0  0  0  0  0  0  0  0  0  0  0
    6.9624   -2.3037    0.0000 O    0  0  0  0  0  0  0  0  0  0  0  0
    6.2939   -1.1518    0.0000 C    0  0  0  0  0  0  0  0  0  0  0  0
    6.9624    0.0000    0.0000 O    0  0  0  0  0  0  0  0  0  0  0  0
    4.9673   -1.1518    0.0000 C    0  0  0  0  0  0  0  0  0  0  0  0
    4.2988   -2.3037    0.0000 C    0  0  0  0  0  0  0  0  0  0  0  0
    2.9721   -2.3037    0.0000 O    0  0  0  0  0  0  0  0  0  0  0  0
    2.3037   -1.1518    0.0000 C    0  0  0  0  0  0  0  0  0  0  0  0
    0.9770   -1.1518    0.0000 O    0  0  0  0  0  0  0  0  0  0  0  0
    2.9721    0.0000    0.0000 C    0  0  0  0  0  0  0  0  0  0  0  0
    4.2988   -6.9110    0.0000 S    0  0  0  0  0  0  0  0  0  0  0  0
    2.9721   -6.9110    0.0000 Au   0  0  0  0  0  0  0  0  0  0  0  0
    2.3037   -8.0628    0.0000 P    0  0  0  0  0  0  0  0  0  0  0  0
    1.6352   -9.2146    0.0000 C    0  0  0  0  0  0  0  0  0  0  0  0
    0.3085   -9.2146    0.0000 C    0  0  0  0  0  0  0  0  0  0  0  0
    1.1518   -7.3943    0.0000 C    0  0  0  0  0  0  0  0  0  0  0  0
    0.0000   -8.0628    0.0000 C    0  0  0  0  0  0  0  0  0  0  0  0
    3.4555   -8.7313    0.0000 C    0  0  0  0  0  0  0  0  0  0  0  0
    3.4555  -10.0579    0.0000 C    0  0  0  0  0  0  0  0  0  0  0  0
    6.9624   -6.9110    0.0000 O    0  0  0  0  0  0  0  0  0  0  0  0
    6.2939   -8.0628    0.0000 C    0  0  0  0  0  0  0  0  0  0  0  0
    6.9624   -9.2146    0.0000 O    0  0  0  0  0  0  0  0  0  0  0  0
    4.9673   -8.0628    0.0000 C    0  0  0  0  0  0  0  0  0  0  0  0
  1  2  1  0  0  0  0
  2  3  2  0  0  0  0
  2  4  1  0  0  0  0
  5  4  1  1  0  0  0
  5  6  1  0  0  0  0
  5 10  1  0  0  0  0
  6  7  1  0  0  0  0
  6 29  1  6  0  0  0
  7  8  1  0  0  0  0
  7 20  1  1  0  0  0
  8  9  1  0  0  0  0
  9 10  1  0  0  0  0
  9 15  1  1  0  0  0
 10 11  1  6  0  0  0
 11 12  1  0  0  0  0
 12 13  2  0  0  0  0
 12 14  1  0  0  0  0
 15 16  1  0  0  0  0
 16 17  1  0  0  0  0
 17 18  2  0  0  0  0
 17 19  1  0  0  0  0
 20 21  1  0  0  0  0
 21 22  2  0  0  0  0
 22 23  1  0  0  0  0
 22 25  1  0  0  0  0
 22 27  1  0  0  0  0
 23 24  1  0  0  0  0
 25 26  1  0  0  0  0
 27 28  1  0  0  0  0
 29 30  1  0  0  0  0
 30 31  2  0  0  0  0
 30 32  1  0  0  0  0
M  END
> <ID>
112

> <Formula>
C20H34AuO9PS

> <FW>
678.4839

> <DSSTox_CID>
115

> <DSSTox_RID>
75377

> <DSSTox_GSID>
20115

> <DSSTox_FileID_Sort>
61

> <TS_ChemName>
Auranofin

> <TS_ChemName_Synonyms>


> <TS_CASRN>
34031-32-8

> <CASRN_ChemName_Relationship>
primary

> <TS_Description>
single chemical compound

> <ChemNote>
stereochem

> <STRUCTURE_Shown>
tested chemical

> <STRUCTURE_Formula>
C20H34AuO9PS

> <STRUCTURE_MW>
678.4839

> <STRUCTURE_ChemType>
organometallic

> <STRUCTURE_DefinedOrganicForm>


> <STRUCTURE_IUPAC>
(2,3,4,6-tetra-O-acetyl-1-thio-beta-L-glucopyranosato-kappaS~1~)(triethyl-lambda~5~-phosphanylidene)gold

> <STRUCTURE_SMILES>
CC(=O)OC[C@@H]1O[C@H](S[Au]=P(CC)(CC)CC)[C@@H](OC(C)=O)[C@H](OC(C)=O)[C@H]1OC(C)=O

> <STRUCTURE_SMILES_Desalt>
CC(=O)OC[C@@H]1O[C@H](S[Au]=P(CC)(CC)CC)[C@@H](OC(C)=O)[C@H](OC(C)=O)[C@H]1OC(C)=O

> <Substance_modify_yyyymmdd>
20080429

$$$$
