3407-42-9
ChemmineR-0915142007XD

 17 19  0  0  0  0  0  0  0  0  1 V2000
    3.2119   -4.0872    0.0000 C   0  0  0  0  0  0  0  0  0  0  0  0
    3.7761   -3.0527    0.0000 C   0  0  0  0  0  0  0  0  0  0  0  0
    4.7744   -2.3510    0.0000 C   0  0  0  0  0  0  0  0  0  0  0  0
    4.4055   -3.4723    0.0000 C   0  0  0  0  0  0  0  0  0  0  0  0
    4.5140   -1.0779    0.0000 C   0  0  0  0  0  0  0  0  0  0  0  0
    6.0042   -3.0744    0.0000 C   0  0  0  0  0  0  0  0  0  0  0  0
    5.5412   -4.0510    0.0000 C   0  0  0  0  0  0  0  0  0  0  0  0
    7.2339   -2.7055    0.0000 C   0  0  0  0  0  0  0  0  0  0  0  0
    6.1561   -1.8085    0.0000 C   0  0  0  0  0  0  0  0  0  0  0  0
    5.9608   -5.2518    0.0000 C   0  0  0  0  0  0  0  0  0  0  0  0
    2.1991   -3.2987    0.0000 C   0  0  0  0  0  0  0  0  0  0  0  0
    1.0127   -3.7906    0.0000 C   0  0  0  0  0  0  0  0  0  0  0  0
    2.3655   -2.0400    0.0000 C   0  0  0  0  0  0  0  0  0  0  0  0
    0.0000   -3.0093    0.0000 C   0  0  0  0  0  0  0  0  0  0  0  0
    1.3527   -1.2587    0.0000 C   0  0  0  0  0  0  0  0  0  0  0  0
    0.1664   -1.7506    0.0000 C   0  0  0  0  0  0  0  0  0  0  0  0
    1.5191    0.0000    0.0000 O   0  0  0  0  0  0  0  0  0  0  0  0
  1  2  1  0  0  0  0
  1  4  1  0  0  0  0
  1 11  1  0  0  0  0
  2  3  1  0  0  0  0
  3  5  1  0  0  0  0
  3  6  1  0  0  0  0
  4  5  1  0  0  0  0
  4  7  1  0  0  0  0
  6  7  1  0  0  0  0
  6  8  1  0  0  0  0
  6  9  1  0  0  0  0
  7 10  1  0  0  0  0
 11 12  1  0  0  0  0
 11 13  1  0  0  0  0
 12 14  1  0  0  0  0
 13 15  1  0  0  0  0
 14 16  1  0  0  0  0
 15 16  1  0  0  0  0
 15 17  1  0  0  0  0
M  END
> <ID>
10465

> <Formula>
C16H28O

> <FW>
236.3929

> <DSSTox_CID>
24817

> <DSSTox_RID>
80498

> <DSSTox_GSID>
44817

> <DSSTox_FileID_Sort>
5180

> <TS_ChemName>
3-(5,5,6-Trimethylbicyclo[2.2.1]hept-2-yl)cyclohexanol

> <TS_ChemName_Synonyms>
3-(5,5,6-Trimethylbicyclo[2.2.1]hept-2-yl)cyclohexanol (Cyclohexanol, 3-(5,5,6-trimethylbicyclo[2.2.1]hept-2-yl)-) (Sandenol)

> <TS_CASRN>
3407-42-9

> <CASRN_ChemName_Relationship>
primary

> <TS_Description>
single chemical compound

> <ChemNote>


> <STRUCTURE_Shown>
tested chemical

> <STRUCTURE_Formula>
C16H28O

> <STRUCTURE_MW>
236.3929

> <STRUCTURE_ChemType>
defined organic

> <STRUCTURE_DefinedOrganicForm>
parent

> <STRUCTURE_IUPAC>
3-(5,5,6-trimethylbicyclo[2.2.1]hept-2-yl)cyclohexanol

> <STRUCTURE_SMILES>
OC1CC(CCC1)C2CC3CC2C(C)C3(C)C

> <STRUCTURE_SMILES_Desalt>
OC1CC(CCC1)C2CC3CC2C(C)C3(C)C

> <Substance_modify_yyyymmdd>
20091116

$$$$
