34097-16-0
ChemmineR-0915142007XD

 36 39  0  0  1  0  0  0  0  0  1 V2000
    3.4707   -5.6870    0.0000 C    0  0  0  0  0  0  0  0  0  0  0  0
    4.6416   -5.0179    0.0000 C    0  0  0  0  0  0  0  0  0  0  0  0
    6.9275   -3.6937    0.0000 C    0  0  0  0  0  0  0  0  0  0  0  0
    3.4707   -7.0111    0.0000 C    0  0  0  0  0  0  0  0  0  0  0  0
    6.9275   -5.0179    0.0000 C    0  0  0  0  0  0  0  0  0  0  0  0
    5.7845   -5.6870    0.0000 C    0  0  0  0  0  0  0  0  0  0  0  0
    4.6416   -3.6937    0.0000 C    0  0  0  0  0  0  0  0  0  0  0  0
    2.3278   -5.0179    0.0000 C    0  0  0  0  0  0  0  0  0  0  0  0
    8.1541   -3.2756    0.0000 C    0  0  0  0  0  0  0  0  0  0  0  0
    5.7845   -3.0107    0.0000 C    0  0  0  0  0  0  0  0  0  0  0  0
    8.1541   -5.3943    0.0000 C    0  0  0  0  0  0  0  0  0  0  0  0
    8.9486   -4.3349    0.0000 C    0  0  0  0  0  0  0  0  0  0  0  0
    5.7845   -7.0111    0.0000 C    0  0  0  0  0  0  0  0  0  0  0  0
    4.6416   -7.6802    0.0000 C    0  0  0  0  0  0  0  0  0  0  0  0
    2.3278   -7.6802    0.0000 C    0  0  0  0  0  0  0  0  0  0  0  0
    1.1569   -5.6870    0.0000 C    0  0  0  0  0  0  0  0  0  0  0  0
    1.1569   -7.0111    0.0000 C    0  0  0  0  0  0  0  0  0  0  0  0
    8.1541   -2.0629    0.0000 C    0  0  0  0  0  0  0  0  0  0  0  0
    4.6416   -6.3281    0.0000 Cl   0  0  0  0  0  0  0  0  0  0  0  0
    7.1505   -1.1848    0.0000 O    0  0  0  0  0  0  0  0  0  0  0  0
    0.0000   -7.6941    0.0000 O    0  0  0  0  0  0  0  0  0  0  0  0
    3.4707   -4.1816    0.0000 C    0  0  0  0  0  0  0  0  0  0  0  0
    6.9275   -2.4393    0.0000 C    0  0  0  0  0  0  0  0  0  0  0  0
    3.4707   -2.9829    0.0000 O    0  0  0  0  0  0  0  0  0  0  0  0
    4.6416   -8.8510    0.0000 F    0  0  0  0  0  0  0  0  0  0  0  0
   10.3007   -4.3349    0.0000 C    0  0  0  0  0  0  0  0  0  0  0  0
   10.4400   -2.0211    0.0000 O    0  0  0  0  0  0  0  0  0  0  0  0
    9.3250   -1.3381    0.0000 C    0  0  0  0  0  0  0  0  0  0  0  0
    5.7845   -4.3349    0.0000 H    0  0  0  0  0  0  0  0  0  0  0  0
    6.9275   -6.3700    0.0000 H    0  0  0  0  0  0  0  0  0  0  0  0
   11.6248   -1.3381    0.0000 C    0  0  0  0  0  0  0  0  0  0  0  0
   12.7817   -2.0211    0.0000 C    0  0  0  0  0  0  0  0  0  0  0  0
   11.6248    0.0000    0.0000 O    0  0  0  0  0  0  0  0  0  0  0  0
   13.4508   -0.8503    0.0000 C    0  0  0  0  0  0  0  0  0  0  0  0
   12.0987   -3.2059    0.0000 C    0  0  0  0  0  0  0  0  0  0  0  0
   13.9386   -2.6902    0.0000 C    0  0  0  0  0  0  0  0  0  0  0  0
  1  2  1  0  0  0  0
  1  4  1  0  0  0  0
  1  8  1  0  0  0  0
  1 22  1  1  0  0  0
  2  6  1  0  0  0  0
  2  7  1  0  0  0  0
  2 19  1  6  0  0  0
  3 10  1  0  0  0  0
  3  9  1  0  0  0  0
  3 23  1  1  0  0  0
  3  5  1  0  0  0  0
  4 14  1  0  0  0  0
  4 15  2  0  0  0  0
  5  6  1  0  0  0  0
  5 11  1  0  0  0  0
  5 30  1  6  0  0  0
  6 13  1  0  0  0  0
  6 29  1  1  0  0  0
  7 10  1  0  0  0  0
  7 24  1  1  0  0  0
  8 16  2  0  0  0  0
  9 18  1  1  0  0  0
  9 12  1  0  0  0  0
 11 12  1  0  0  0  0
 12 26  1  6  0  0  0
 13 14  1  0  0  0  0
 14 25  1  6  0  0  0
 15 17  1  0  0  0  0
 16 17  1  0  0  0  0
 17 21  2  0  0  0  0
 18 20  2  0  0  0  0
 18 28  1  0  0  0  0
 27 28  1  0  0  0  0
 27 31  1  0  0  0  0
 31 32  1  0  0  0  0
 31 33  2  0  0  0  0
 32 34  1  0  0  0  0
 32 35  1  0  0  0  0
 32 36  1  0  0  0  0
M  END
> <ID>
10959

> <Formula>
C27H36ClFO5

> <FW>
495.0231

> <DSSTox_CID>
25460

> <DSSTox_RID>
80891

> <DSSTox_GSID>
45460

> <DSSTox_FileID_Sort>
5572

> <TS_ChemName>
Clocortolone pivalate

> <TS_ChemName_Synonyms>


> <TS_CASRN>
34097-16-0

> <CASRN_ChemName_Relationship>
primary

> <TS_Description>
single chemical compound

> <ChemNote>
stereochem; tautomers

> <STRUCTURE_Shown>
tested chemical

> <STRUCTURE_Formula>
C27H36ClFO5

> <STRUCTURE_MW>
495.0231

> <STRUCTURE_ChemType>
defined organic

> <STRUCTURE_DefinedOrganicForm>
parent

> <STRUCTURE_IUPAC>
(6alpha,11beta,16alpha)-9-chloro-6-fluoro-11-hydroxy-16-methyl-3,20-dioxopregna-1,4-dien-21-yl 2,2-dimethylpropanoate

> <STRUCTURE_SMILES>
CC(C)(C)C(=O)OCC(=O)[C@H]4[C@H](C)C[C@@H]3[C@]4(C)C[C@H](O)[C@@]2(Cl)[C@H]3C[C@H](F)C1=CC(=O)C=C[C@@]12C

> <STRUCTURE_SMILES_Desalt>
CC(C)(C)C(=O)OCC(=O)[C@H]4[C@H](C)C[C@@H]3[C@]4(C)C[C@H](O)[C@@]2(Cl)[C@H]3C[C@H](F)C1=CC(=O)C=C[C@@]12C

> <Substance_modify_yyyymmdd>
20100107

$$$$
