341-69-5
ChemmineR-0915142007XD

 21 21  0  0  0  0  0  0  0  0  1 V2000
    1.3266   -1.9940    0.0000 C    0  0  0  0  0  0  0  0  0  0  0  0
    2.4802   -1.3266    0.0000 N    0  0  0  0  0  0  0  0  0  0  0  0
    2.4802    0.0000    0.0000 C    0  0  0  0  0  0  0  0  0  0  0  0
    3.6337   -1.9940    0.0000 C    0  0  0  0  0  0  0  0  0  0  0  0
    3.6337   -3.3206    0.0000 C    0  0  0  0  0  0  0  0  0  0  0  0
    4.7873   -3.9880    0.0000 O    0  0  0  0  0  0  0  0  0  0  0  0
    4.7873   -5.3146    0.0000 C    0  0  0  0  0  0  0  0  0  0  0  0
    5.9326   -5.9820    0.0000 C    0  0  0  0  0  0  0  0  0  0  0  0
    7.0862   -5.3146    0.0000 C    0  0  0  0  0  0  0  0  0  0  0  0
    8.2397   -5.9820    0.0000 C    0  0  0  0  0  0  0  0  0  0  0  0
    8.2397   -7.3086    0.0000 C    0  0  0  0  0  0  0  0  0  0  0  0
    7.0862   -7.9760    0.0000 C    0  0  0  0  0  0  0  0  0  0  0  0
    5.9326   -7.3086    0.0000 C    0  0  0  0  0  0  0  0  0  0  0  0
    4.7873   -7.9760    0.0000 C    0  0  0  0  0  0  0  0  0  0  0  0
    3.6337   -5.9820    0.0000 C    0  0  0  0  0  0  0  0  0  0  0  0
    3.6337   -7.3086    0.0000 C    0  0  0  0  0  0  0  0  0  0  0  0
    2.4802   -7.9760    0.0000 C    0  0  0  0  0  0  0  0  0  0  0  0
    1.3266   -7.3086    0.0000 C    0  0  0  0  0  0  0  0  0  0  0  0
    1.3266   -5.9820    0.0000 C    0  0  0  0  0  0  0  0  0  0  0  0
    2.4802   -5.3146    0.0000 C    0  0  0  0  0  0  0  0  0  0  0  0
    0.0000   -3.9880    0.0000 Cl   0  0  0  0  0  0  0  0  0  0  0  0
  1  2  1  0  0  0  0
  2  3  1  0  0  0  0
  2  4  1  0  0  0  0
  4  5  1  0  0  0  0
  5  6  1  0  0  0  0
  6  7  1  0  0  0  0
  7  8  1  0  0  0  0
  7 15  1  0  0  0  0
  8  9  2  0  0  0  0
  8 13  1  0  0  0  0
  9 10  1  0  0  0  0
 10 11  2  0  0  0  0
 11 12  1  0  0  0  0
 12 13  2  0  0  0  0
 13 14  1  0  0  0  0
 15 16  2  0  0  0  0
 15 20  1  0  0  0  0
 16 17  1  0  0  0  0
 17 18  2  0  0  0  0
 18 19  1  0  0  0  0
 19 20  2  0  0  0  0
M  END
> <ID>
4420

> <Formula>
C18H24ClNO

> <FW>
305.8423 (269.3813+36.4609)

> <DSSTox_CID>
5815

> <DSSTox_RID>
77934

> <DSSTox_GSID>
25815

> <DSSTox_FileID_Sort>
2617

> <TS_ChemName>
Orphenadrine hydrochloride

> <TS_ChemName_Synonyms>
Orphenadrine hydrochloride (Disipal)

> <TS_CASRN>
341-69-5

> <CASRN_ChemName_Relationship>
primary

> <TS_Description>
single chemical compound

> <ChemNote>
parent [83-98-7]

> <STRUCTURE_Shown>
tested chemical

> <STRUCTURE_Formula>
C18H24ClNO

> <STRUCTURE_MW>
305.8423

> <STRUCTURE_ChemType>
defined organic

> <STRUCTURE_DefinedOrganicForm>
complex

> <STRUCTURE_IUPAC>
N,N-dimethyl-2-[(2-methylphenyl)(phenyl)methoxy]ethanamine hydrochloride (1:1)

> <STRUCTURE_SMILES>
Cl.CN(C)CCOC(c1ccccc1)c2ccccc2C

> <STRUCTURE_SMILES_Desalt>
CN(C)CCOC(c1ccccc1)c2ccccc2C

> <Substance_modify_yyyymmdd>
20080429

$$$$
