341031-54-7
ChemmineR-0915142007XD

 38 39  0  0  0  0  0  0  0  0  1 V2000
    3.4648   -7.6916    0.0000 C   0  0  0  0  0  0  0  0  0  0  0  0
    3.4648   -9.0159    0.0000 C   0  0  0  0  0  0  0  0  0  0  0  0
    2.3039   -7.0204    0.0000 C   0  0  0  0  0  0  0  0  0  0  0  0
    2.3039   -9.6871    0.0000 C   0  0  0  0  0  0  0  0  0  0  0  0
    1.1610   -7.6916    0.0000 C   0  0  0  0  0  0  0  0  0  0  0  0
    1.1610   -9.0159    0.0000 C   0  0  0  0  0  0  0  0  0  0  0  0
    4.7165   -7.2925    0.0000 C   0  0  0  0  0  0  0  0  0  0  0  0
    5.5147   -8.3628    0.0000 C   0  0  0  0  0  0  0  0  0  0  0  0
    4.7165   -9.4331    0.0000 N   0  0  0  0  0  0  0  0  0  0  0  0
    5.1338   -6.0227    0.0000 C   0  0  0  0  0  0  0  0  0  0  0  0
    6.4399   -5.7506    0.0000 C   0  0  0  0  0  0  0  0  0  0  0  0
    6.9660   -4.5170    0.0000 C   0  0  0  0  0  0  0  0  0  0  0  0
    7.4376   -6.6213    0.0000 N   0  0  0  0  0  0  0  0  0  0  0  0
    8.2902   -4.6621    0.0000 C   0  0  0  0  0  0  0  0  0  0  0  0
    8.5624   -5.9501    0.0000 C   0  0  0  0  0  0  0  0  0  0  0  0
    6.3129   -3.3741    0.0000 C   0  0  0  0  0  0  0  0  0  0  0  0
    9.7959   -6.5125    0.0000 C   0  0  0  0  0  0  0  0  0  0  0  0
    9.1973   -3.6825    0.0000 C   0  0  0  0  0  0  0  0  0  0  0  0
   10.4853   -3.9546    0.0000 N   0  0  0  0  0  0  0  0  0  0  0  0
    8.7800   -2.4127    0.0000 O   0  0  0  0  0  0  0  0  0  0  0  0
   11.3923   -2.9569    0.0000 C   0  0  0  0  0  0  0  0  0  0  0  0
   12.6803   -3.2290    0.0000 C   0  0  0  0  0  0  0  0  0  0  0  0
   13.5691   -2.2494    0.0000 N   0  0  0  0  0  0  0  0  0  0  0  0
   14.8753   -2.5215    0.0000 C   0  0  0  0  0  0  0  0  0  0  0  0
   13.1701   -0.9977    0.0000 C   0  0  0  0  0  0  0  0  0  0  0  0
   14.0408    0.0000    0.0000 C   0  0  0  0  0  0  0  0  0  0  0  0
   15.2744   -3.7914    0.0000 C   0  0  0  0  0  0  0  0  0  0  0  0
    6.8390   -8.3628    0.0000 O   0  0  0  0  0  0  0  0  0  0  0  0
    0.0000   -7.0204    0.0000 F   0  0  0  0  0  0  0  0  0  0  0  0
   14.6576   -8.6349    0.0000 C   0  0  0  0  0  0  0  0  0  0  0  0
   16.9796   -8.6349    0.0000 C   0  0  0  0  0  0  0  0  0  0  0  0
   13.5329   -7.9637    0.0000 C   0  0  0  0  0  0  0  0  0  0  0  0
   15.8186   -7.9637    0.0000 C   0  0  0  0  0  0  0  0  0  0  0  0
   18.1406   -7.9819    0.0000 O   0  0  0  0  0  0  0  0  0  0  0  0
   13.5329   -6.6032    0.0000 O   0  0  0  0  0  0  0  0  0  0  0  0
   16.9796   -9.9592    0.0000 O   0  0  0  0  0  0  0  0  0  0  0  0
   12.3719   -8.5986    0.0000 O   0  0  0  0  0  0  0  0  0  0  0  0
   15.8186   -6.6213    0.0000 O   0  0  0  0  0  0  0  0  0  0  0  0
  1  3  2  0  0  0  0
  1  7  1  0  0  0  0
  1  2  1  0  0  0  0
  2  4  2  0  0  0  0
  2  9  1  0  0  0  0
  3  5  1  0  0  0  0
  4  6  1  0  0  0  0
  5  6  2  0  0  0  0
  5 29  1  0  0  0  0
  7  8  1  0  0  0  0
  7 10  2  0  0  0  0
  8  9  1  0  0  0  0
  8 28  2  0  0  0  0
 10 11  1  0  0  0  0
 11 12  2  0  0  0  0
 11 13  1  0  0  0  0
 12 14  1  0  0  0  0
 12 16  1  0  0  0  0
 13 15  2  0  0  0  0
 14 15  1  0  0  0  0
 14 18  1  0  0  0  0
 15 17  1  0  0  0  0
 18 19  1  0  0  0  0
 18 20  2  0  0  0  0
 19 21  1  0  0  0  0
 21 22  1  0  0  0  0
 22 23  1  0  0  0  0
 23 24  1  0  0  0  0
 23 25  1  0  0  0  0
 24 27  1  0  0  0  0
 25 26  1  0  0  0  0
 30 32  1  0  0  0  0
 30 33  1  0  0  0  0
 31 33  1  0  0  0  0
 31 34  2  0  0  0  0
 31 36  1  0  0  0  0
 32 35  2  0  0  0  0
 32 37  1  0  0  0  0
 33 38  1  0  0  0  0
M  END
> <ID>
11729

> <Formula>
C26H33FN4O7

> <FW>
532.5612 (398.4738+134.0874)

> <DSSTox_CID>
26492

> <DSSTox_RID>
81663

> <DSSTox_GSID>
46492

> <DSSTox_FileID_Sort>
6344

> <TS_ChemName>
Sunitinib malate

> <TS_ChemName_Synonyms>


> <TS_CASRN>
341031-54-7

> <CASRN_ChemName_Relationship>
primary

> <TS_Description>
single chemical compound

> <ChemNote>
parent [557795-19-4]

> <STRUCTURE_Shown>
tested chemical

> <STRUCTURE_Formula>
C26H33FN4O7

> <STRUCTURE_MW>
532.5612

> <STRUCTURE_ChemType>
defined organic

> <STRUCTURE_DefinedOrganicForm>
complex

> <STRUCTURE_IUPAC>
2-hydroxybutanedioic acid - N-[2-(diethylamino)ethyl]-5-[(Z)-(5-fluoro-2-oxo-1,2-dihydro-3H-indol-3-ylidene)methyl]-2,4-dimethyl-3H-pyrrole-3-carboxamide (1:1)

> <STRUCTURE_SMILES>
O=C(O)C(O)CC(=O)O.CCN(CC)CCNC(=O)C1C(C)=C(N=C1C)/C=C2/c3cc(F)ccc3NC2=O

> <STRUCTURE_SMILES_Desalt>
CCN(CC)CCNC(=O)C1C(C)=C(N=C1C)/C=C2/c3cc(F)ccc3NC2=O

> <Substance_modify_yyyymmdd>
20110812

$$$$
