34123-59-6
ChemmineR-0915142007XD

 15 15  0  0  0  0  0  0  0  0  1 V2000
    6.6409   -1.1486    0.0000 C   0  0  0  0  0  0  0  0  0  0  0  0
    5.9846   -2.3057    0.0000 N   0  0  0  0  0  0  0  0  0  0  0  0
    7.9621   -1.1486    0.0000 N   0  0  0  0  0  0  0  0  0  0  0  0
    5.9846    0.0000    0.0000 O   0  0  0  0  0  0  0  0  0  0  0  0
    1.9949   -2.3057    0.0000 C   0  0  0  0  0  0  0  0  0  0  0  0
    4.6547   -2.3057    0.0000 C   0  0  0  0  0  0  0  0  0  0  0  0
    2.6512   -1.1486    0.0000 C   0  0  0  0  0  0  0  0  0  0  0  0
    2.6512   -3.4543    0.0000 C   0  0  0  0  0  0  0  0  0  0  0  0
    0.6736   -2.3057    0.0000 C   0  0  0  0  0  0  0  0  0  0  0  0
    3.9811   -3.4543    0.0000 C   0  0  0  0  0  0  0  0  0  0  0  0
    3.9811   -1.1486    0.0000 C   0  0  0  0  0  0  0  0  0  0  0  0
    8.6357   -2.3057    0.0000 C   0  0  0  0  0  0  0  0  0  0  0  0
    8.6357    0.0000    0.0000 C   0  0  0  0  0  0  0  0  0  0  0  0
    0.0000   -1.1486    0.0000 C   0  0  0  0  0  0  0  0  0  0  0  0
    0.0000   -3.4543    0.0000 C   0  0  0  0  0  0  0  0  0  0  0  0
  1  2  1  0  0  0  0
  1  3  1  0  0  0  0
  1  4  2  0  0  0  0
  2  6  1  0  0  0  0
  3 12  1  0  0  0  0
  3 13  1  0  0  0  0
  5  7  1  0  0  0  0
  5  9  1  0  0  0  0
  5  8  2  0  0  0  0
  6 10  2  0  0  0  0
  6 11  1  0  0  0  0
  7 11  2  0  0  0  0
  8 10  1  0  0  0  0
  9 14  1  0  0  0  0
  9 15  1  0  0  0  0
M  END
> <ID>
9009

> <Formula>
C12H18N2O

> <FW>
206.2841

> <DSSTox_CID>
22077

> <DSSTox_RID>
79917

> <DSSTox_GSID>
42077

> <DSSTox_FileID_Sort>
4599

> <TS_ChemName>
Isoproturon

> <TS_ChemName_Synonyms>
Isoproturon (3-(4-Isopropyl-phenyl)-1,1-dimethyl-urea	)

> <TS_CASRN>
34123-59-6

> <CASRN_ChemName_Relationship>
primary

> <TS_Description>
single chemical compound

> <ChemNote>


> <STRUCTURE_Shown>
tested chemical

> <STRUCTURE_Formula>
C12H18N2O

> <STRUCTURE_MW>
206.2841

> <STRUCTURE_ChemType>
defined organic

> <STRUCTURE_DefinedOrganicForm>
parent

> <STRUCTURE_IUPAC>
1,1-dimethyl-3-[4-(propan-2-yl)phenyl]urea

> <STRUCTURE_SMILES>
O=C(Nc1ccc(cc1)C(C)C)N(C)C

> <STRUCTURE_SMILES_Desalt>
O=C(Nc1ccc(cc1)C(C)C)N(C)C

> <Substance_modify_yyyymmdd>
20080825

$$$$
