3413-64-7
ChemmineR-0915142007XD

 21 20  0  0  0  0  0  0  0  0  1 V2000
    4.3393   -3.8904    0.0000 Cl   0  0  0  0  0  0  0  0  0  0  0  0
    8.0950   -2.6335    0.0000 C    0  0  0  0  0  0  0  0  0  0  0  0
    8.0950   -3.9502    0.0000 O    0  0  0  0  0  0  0  0  0  0  0  0
    9.2471   -1.9751    0.0000 N    0  0  0  0  0  0  0  0  0  0  0  0
    5.7757   -2.6485    0.0000 O    0  0  0  0  0  0  0  0  0  0  0  0
    6.9728   -1.9751    0.0000 C    0  0  0  0  0  0  0  0  0  0  0  0
    4.6236   -1.9751    0.0000 C    0  0  0  0  0  0  0  0  0  0  0  0
   12.6737   -2.6185    0.0000 N    0  0  0  0  0  0  0  0  0  0  0  0
    2.3342   -0.6883    0.0000 C    0  0  0  0  0  0  0  0  0  0  0  0
    4.6236   -0.6883    0.0000 C    0  0  0  0  0  0  0  0  0  0  0  0
    3.4714   -2.6485    0.0000 C    0  0  0  0  0  0  0  0  0  0  0  0
    3.4864    0.0000    0.0000 C    0  0  0  0  0  0  0  0  0  0  0  0
    2.3342   -1.9751    0.0000 C    0  0  0  0  0  0  0  0  0  0  0  0
   10.3694   -2.6335    0.0000 C    0  0  0  0  0  0  0  0  0  0  0  0
    1.1372    0.0000    0.0000 O    0  0  0  0  0  0  0  0  0  0  0  0
   11.5365   -1.9452    0.0000 C    0  0  0  0  0  0  0  0  0  0  0  0
   13.8258   -1.9452    0.0000 C    0  0  0  0  0  0  0  0  0  0  0  0
   12.6737   -3.9203    0.0000 C    0  0  0  0  0  0  0  0  0  0  0  0
    0.0000   -0.7631    0.0000 C    0  0  0  0  0  0  0  0  0  0  0  0
   14.9630   -2.6185    0.0000 C    0  0  0  0  0  0  0  0  0  0  0  0
   11.4916   -4.5936    0.0000 C    0  0  0  0  0  0  0  0  0  0  0  0
  2  3  2  0  0  0  0
  2  4  1  0  0  0  0
  2  6  1  0  0  0  0
  4 14  1  0  0  0  0
  5  6  1  0  0  0  0
  5  7  1  0  0  0  0
  7 10  1  0  0  0  0
  7 11  2  0  0  0  0
  8 16  1  0  0  0  0
  8 17  1  0  0  0  0
  8 18  1  0  0  0  0
  9 13  2  0  0  0  0
  9 15  1  0  0  0  0
  9 12  1  0  0  0  0
 10 12  2  0  0  0  0
 11 13  1  0  0  0  0
 14 16  1  0  0  0  0
 15 19  1  0  0  0  0
 17 20  1  0  0  0  0
 18 21  1  0  0  0  0
M  END
> <ID>
11250

> <Formula>
C15H25ClN2O3

> <FW>
316.8236 (36.4609+280.3627)

> <DSSTox_CID>
25862

> <DSSTox_RID>
81182

> <DSSTox_GSID>
45862

> <DSSTox_FileID_Sort>
5863

> <TS_ChemName>
Mefexamide hydrochloride

> <TS_ChemName_Synonyms>


> <TS_CASRN>
3413-64-7

> <CASRN_ChemName_Relationship>
primary

> <TS_Description>
single chemical compound

> <ChemNote>
parent [1227-79-2]

> <STRUCTURE_Shown>
tested chemical

> <STRUCTURE_Formula>
C15H25ClN2O3

> <STRUCTURE_MW>
316.8236

> <STRUCTURE_ChemType>
defined organic

> <STRUCTURE_DefinedOrganicForm>
complex

> <STRUCTURE_IUPAC>
N-[2-(diethylamino)ethyl]-2-(4-methoxyphenoxy)acetamide hydrochloride (1:1)

> <STRUCTURE_SMILES>
Cl.CCN(CC)CCNC(=O)COc1ccc(cc1)OC

> <STRUCTURE_SMILES_Desalt>
CCN(CC)CCNC(=O)COc1ccc(cc1)OC

> <Substance_modify_yyyymmdd>
20110922

$$$$
