34140-59-5
ChemmineR-0915142007XD

 36 36  0  0  0  0  0  0  0  0  1 V2000
    3.4565   -6.2925    0.0000 C   0  0  0  0  0  0  0  0  0  0  0  0
    2.7854   -5.1404    0.0000 C   0  0  0  0  0  0  0  0  0  0  0  0
    3.4565   -3.9882    0.0000 C   0  0  0  0  0  0  0  0  0  0  0  0
    4.6086   -4.6593    0.0000 C   0  0  0  0  0  0  0  0  0  0  0  0
    5.7608   -3.9882    0.0000 O   0  0  0  0  0  0  0  0  0  0  0  0
    6.9003   -4.6593    0.0000 C   0  0  0  0  0  0  0  0  0  0  0  0
    6.9003   -5.9887    0.0000 O   0  0  0  0  0  0  0  0  0  0  0  0
    8.0524   -3.9882    0.0000 C   0  0  0  0  0  0  0  0  0  0  0  0
    8.0524   -2.6588    0.0000 C   0  0  0  0  0  0  0  0  0  0  0  0
    9.2046   -2.0004    0.0000 C   0  0  0  0  0  0  0  0  0  0  0  0
   10.3567   -2.6588    0.0000 C   0  0  0  0  0  0  0  0  0  0  0  0
   11.5089   -2.0004    0.0000 O   0  0  0  0  0  0  0  0  0  0  0  0
   12.6611   -2.6588    0.0000 C   0  0  0  0  0  0  0  0  0  0  0  0
   10.3567   -3.9882    0.0000 C   0  0  0  0  0  0  0  0  0  0  0  0
    9.2046   -4.6593    0.0000 C   0  0  0  0  0  0  0  0  0  0  0  0
   11.5089   -4.6593    0.0000 O   0  0  0  0  0  0  0  0  0  0  0  0
   12.6611   -3.9882    0.0000 C   0  0  0  0  0  0  0  0  0  0  0  0
    9.2046   -0.6710    0.0000 O   0  0  0  0  0  0  0  0  0  0  0  0
   10.3567    0.0000    0.0000 C   0  0  0  0  0  0  0  0  0  0  0  0
    4.1148   -2.8361    0.0000 N   0  0  0  0  0  0  0  0  0  0  0  0
    3.4565   -1.6839    0.0000 C   0  0  0  0  0  0  0  0  0  0  0  0
    5.4443   -2.8361    0.0000 C   0  0  0  0  0  0  0  0  0  0  0  0
    2.3043   -3.3299    0.0000 C   0  0  0  0  0  0  0  0  0  0  0  0
    1.1522   -3.9882    0.0000 C   0  0  0  0  0  0  0  0  0  0  0  0
    0.0000   -3.3299    0.0000 C   0  0  0  0  0  0  0  0  0  0  0  0
    0.0000   -2.0004    0.0000 C   0  0  0  0  0  0  0  0  0  0  0  0
    1.1522   -1.3294    0.0000 C   0  0  0  0  0  0  0  0  0  0  0  0
    2.3043   -2.0004    0.0000 C   0  0  0  0  0  0  0  0  0  0  0  0
    7.0395   -7.7106    0.0000 O   0  0  0  0  0  0  0  0  0  0  0  0
    7.7106   -8.8627    0.0000 C   0  0  0  0  0  0  0  0  0  0  0  0
    9.0400   -8.8627    0.0000 O   0  0  0  0  0  0  0  0  0  0  0  0
    7.0395  -10.0149    0.0000 C   0  0  0  0  0  0  0  0  0  0  0  0
    5.7101  -10.0149    0.0000 C   0  0  0  0  0  0  0  0  0  0  0  0
    5.0518   -8.8627    0.0000 C   0  0  0  0  0  0  0  0  0  0  0  0
    3.7224   -8.8627    0.0000 O   0  0  0  0  0  0  0  0  0  0  0  0
    5.7101   -7.7106    0.0000 O   0  0  0  0  0  0  0  0  0  0  0  0
  1  2  1  0  0  0  0
  2  3  1  0  0  0  0
  3  4  1  0  0  0  0
  3 20  1  0  0  0  0
  3 23  1  0  0  0  0
  4  5  1  0  0  0  0
  5  6  1  0  0  0  0
  6  7  2  0  0  0  0
  6  8  1  0  0  0  0
  8  9  2  0  0  0  0
  8 15  1  0  0  0  0
  9 10  1  0  0  0  0
 10 11  2  0  0  0  0
 10 18  1  0  0  0  0
 11 12  1  0  0  0  0
 11 14  1  0  0  0  0
 12 13  1  0  0  0  0
 14 15  2  0  0  0  0
 14 16  1  0  0  0  0
 16 17  1  0  0  0  0
 18 19  1  0  0  0  0
 20 21  1  0  0  0  0
 20 22  1  0  0  0  0
 23 24  2  0  0  0  0
 23 28  1  0  0  0  0
 24 25  1  0  0  0  0
 25 26  2  0  0  0  0
 26 27  1  0  0  0  0
 27 28  2  0  0  0  0
 29 30  1  0  0  0  0
 30 31  2  0  0  0  0
 30 32  1  0  0  0  0
 32 33  2  0  0  0  0
 33 34  1  0  0  0  0
 34 35  1  0  0  0  0
 34 36  2  0  0  0  0
M  END
> <ID>
11360

> <Formula>
C26H33NO9

> <FW>
503.5415 (387.4694+116.0722)

> <DSSTox_CID>
26017

> <DSSTox_RID>
81292

> <DSSTox_GSID>
46017

> <DSSTox_FileID_Sort>
5973

> <TS_ChemName>
Trimebutine maleate

> <TS_ChemName_Synonyms>


> <TS_CASRN>
34140-59-5

> <CASRN_ChemName_Relationship>
primary

> <TS_Description>
single chemical compound

> <ChemNote>
parent [39133-31-8]

> <STRUCTURE_Shown>
tested chemical

> <STRUCTURE_Formula>
C26H33NO9

> <STRUCTURE_MW>
503.5415

> <STRUCTURE_ChemType>
defined organic

> <STRUCTURE_DefinedOrganicForm>
complex

> <STRUCTURE_IUPAC>
2-(dimethylamino)-2-phenylbutyl 3,4,5-trimethoxybenzoate (2Z)-but-2-enedioate (1:1)

> <STRUCTURE_SMILES>
COc1c(cc(cc1OC)C(=O)OCC(CC)(c2ccccc2)N(C)C)OC.O=C(O)/C=C\C(=O)O

> <STRUCTURE_SMILES_Desalt>
COc1c(cc(cc1OC)C(=O)OCC(CC)(c2ccccc2)N(C)C)OC

> <Substance_modify_yyyymmdd>
20110824

$$$$
