34161-23-4
ChemmineR-0915142007XD

 28 30  0  0  0  0  0  0  0  0  1 V2000
    8.0892   -1.9967    0.0000 N    0  0  0  0  0  0  0  0  0  0  0  0
    6.9287   -1.3482    0.0000 C    0  0  0  0  0  0  0  0  0  0  0  0
   10.3931   -3.3278    0.0000 N    0  0  0  0  0  0  0  0  0  0  0  0
   15.0179   -3.3278    0.0000 C    0  0  0  0  0  0  0  0  0  0  0  0
   15.0179   -1.9967    0.0000 C    0  0  0  0  0  0  0  0  0  0  0  0
   16.2978   -3.7374    0.0000 O    0  0  0  0  0  0  0  0  0  0  0  0
   16.2978   -1.6042    0.0000 O    0  0  0  0  0  0  0  0  0  0  0  0
   17.0658   -2.6623    0.0000 C    0  0  0  0  0  0  0  0  0  0  0  0
   13.8574   -3.9934    0.0000 C    0  0  0  0  0  0  0  0  0  0  0  0
    9.2497   -1.3482    0.0000 C    0  0  0  0  0  0  0  0  0  0  0  0
    8.0892   -3.3278    0.0000 C    0  0  0  0  0  0  0  0  0  0  0  0
    5.7853   -1.9967    0.0000 C    0  0  0  0  0  0  0  0  0  0  0  0
    6.9287    0.0000    0.0000 O    0  0  0  0  0  0  0  0  0  0  0  0
   12.6969   -3.3278    0.0000 C    0  0  0  0  0  0  0  0  0  0  0  0
   11.5365   -3.9934    0.0000 C    0  0  0  0  0  0  0  0  0  0  0  0
   13.8574   -1.3482    0.0000 C    0  0  0  0  0  0  0  0  0  0  0  0
    4.6248   -1.3482    0.0000 O    0  0  0  0  0  0  0  0  0  0  0  0
   10.3931   -1.9967    0.0000 C    0  0  0  0  0  0  0  0  0  0  0  0
    9.2497   -3.9934    0.0000 C    0  0  0  0  0  0  0  0  0  0  0  0
    3.4644   -1.9967    0.0000 C    0  0  0  0  0  0  0  0  0  0  0  0
   12.6969   -1.9967    0.0000 C    0  0  0  0  0  0  0  0  0  0  0  0
    1.1605   -3.3449    0.0000 C    0  0  0  0  0  0  0  0  0  0  0  0
    0.0000   -3.9934    0.0000 Cl   0  0  0  0  0  0  0  0  0  0  0  0
    2.3039   -1.3482    0.0000 C    0  0  0  0  0  0  0  0  0  0  0  0
    3.4644   -3.3449    0.0000 C    0  0  0  0  0  0  0  0  0  0  0  0
    1.1605   -1.9967    0.0000 C    0  0  0  0  0  0  0  0  0  0  0  0
    2.3039   -3.9934    0.0000 C    0  0  0  0  0  0  0  0  0  0  0  0
    6.8092   -5.0003    0.0000 Cl   0  0  0  0  0  0  0  0  0  0  0  0
  1  2  1  0  0  0  0
  1 10  1  0  0  0  0
  1 11  1  0  0  0  0
  2 12  1  0  0  0  0
  2 13  2  0  0  0  0
  3 19  1  0  0  0  0
  3 15  1  0  0  0  0
  3 18  1  0  0  0  0
  4  9  1  0  0  0  0
  4  6  1  0  0  0  0
  4  5  2  0  0  0  0
  5 16  1  0  0  0  0
  5  7  1  0  0  0  0
  6  8  1  0  0  0  0
  7  8  1  0  0  0  0
  9 14  2  0  0  0  0
 10 18  1  0  0  0  0
 11 19  1  0  0  0  0
 12 17  1  0  0  0  0
 14 15  1  0  0  0  0
 14 21  1  0  0  0  0
 16 21  2  0  0  0  0
 17 20  1  0  0  0  0
 20 24  2  0  0  0  0
 20 25  1  0  0  0  0
 22 27  1  0  0  0  0
 22 23  1  0  0  0  0
 22 26  2  0  0  0  0
 24 26  1  0  0  0  0
 25 27  2  0  0  0  0
M  END
> <ID>
12586

> <Formula>
C20H22Cl2N2O4

> <FW>
425.3057 (388.8447+36.4609)

> <DSSTox_CID>
27446

> <DSSTox_RID>
82352

> <DSSTox_GSID>
47446

> <DSSTox_FileID_Sort>
7033

> <TS_ChemName>
Fipexide hydrochloride

> <TS_ChemName_Synonyms>


> <TS_CASRN>
34161-23-4

> <CASRN_ChemName_Relationship>
primary

> <TS_Description>
single chemical compound

> <ChemNote>
parent [34161-24-5]

> <STRUCTURE_Shown>
tested chemical

> <STRUCTURE_Formula>
C20H22Cl2N2O4

> <STRUCTURE_MW>
425.3057

> <STRUCTURE_ChemType>
defined organic

> <STRUCTURE_DefinedOrganicForm>
complex

> <STRUCTURE_IUPAC>
1-[4-(1,3-benzodioxol-5-ylmethyl)piperazin-1-yl]-2-(4-chlorophenoxy)ethanone hydrochloride (1:1)

> <STRUCTURE_SMILES>
Cl.Clc1ccc(cc1)OCC(=O)N2CCN(CC2)Cc3ccc4OCOc4c3

> <STRUCTURE_SMILES_Desalt>
Clc1ccc(cc1)OCC(=O)N2CCN(CC2)Cc3ccc4OCOc4c3

> <Substance_modify_yyyymmdd>
20100620

$$$$
