3416-26-0
ChemmineR-0915142007XD

 36 39  0  0  0  0  0  0  0  0  1 V2000
   17.2426   -1.9874    0.0000 C   0  0  0  0  0  0  0  0  0  0  0  0
   17.2426   -3.3123    0.0000 C   0  0  0  0  0  0  0  0  0  0  0  0
   18.4019   -3.9748    0.0000 C   0  0  0  0  0  0  0  0  0  0  0  0
   18.4019   -5.3181    0.0000 C   0  0  0  0  0  0  0  0  0  0  0  0
   17.2426   -5.9806    0.0000 C   0  0  0  0  0  0  0  0  0  0  0  0
   16.1017   -5.3181    0.0000 C   0  0  0  0  0  0  0  0  0  0  0  0
   16.1017   -3.9748    0.0000 C   0  0  0  0  0  0  0  0  0  0  0  0
   14.9607   -3.3123    0.0000 N   0  0  0  0  0  0  0  0  0  0  0  0
   13.8014   -3.9748    0.0000 C   0  0  0  0  0  0  0  0  0  0  0  0
   13.8014   -5.3181    0.0000 O   0  0  0  0  0  0  0  0  0  0  0  0
   12.6421   -3.3123    0.0000 C   0  0  0  0  0  0  0  0  0  0  0  0
   11.5012   -3.9748    0.0000 N   0  0  0  0  0  0  0  0  0  0  0  0
   11.5012   -5.3181    0.0000 C   0  0  0  0  0  0  0  0  0  0  0  0
   10.3419   -5.9806    0.0000 C   0  0  0  0  0  0  0  0  0  0  0  0
    9.2010   -5.3181    0.0000 N   0  0  0  0  0  0  0  0  0  0  0  0
    8.0600   -5.9806    0.0000 C   0  0  0  0  0  0  0  0  0  0  0  0
    6.9007   -5.3181    0.0000 C   0  0  0  0  0  0  0  0  0  0  0  0
    5.7598   -5.9806    0.0000 C   0  0  0  0  0  0  0  0  0  0  0  0
    4.6005   -5.3181    0.0000 C   0  0  0  0  0  0  0  0  0  0  0  0
    3.4412   -5.9806    0.0000 C   0  0  0  0  0  0  0  0  0  0  0  0
    3.4412   -7.3056    0.0000 C   0  0  0  0  0  0  0  0  0  0  0  0
    2.3002   -7.9680    0.0000 C   0  0  0  0  0  0  0  0  0  0  0  0
    1.1409   -7.3056    0.0000 C   0  0  0  0  0  0  0  0  0  0  0  0
    0.0000   -7.9680    0.0000 F   0  0  0  0  0  0  0  0  0  0  0  0
    1.1409   -5.9806    0.0000 C   0  0  0  0  0  0  0  0  0  0  0  0
    2.3002   -5.3181    0.0000 C   0  0  0  0  0  0  0  0  0  0  0  0
    4.6005   -3.9748    0.0000 C   0  0  0  0  0  0  0  0  0  0  0  0
    3.4412   -3.3123    0.0000 C   0  0  0  0  0  0  0  0  0  0  0  0
    3.4412   -1.9874    0.0000 C   0  0  0  0  0  0  0  0  0  0  0  0
    4.6005   -1.3249    0.0000 C   0  0  0  0  0  0  0  0  0  0  0  0
    4.6005    0.0000    0.0000 F   0  0  0  0  0  0  0  0  0  0  0  0
    5.7598   -1.9874    0.0000 C   0  0  0  0  0  0  0  0  0  0  0  0
    5.7598   -3.3123    0.0000 C   0  0  0  0  0  0  0  0  0  0  0  0
    9.2010   -3.9748    0.0000 C   0  0  0  0  0  0  0  0  0  0  0  0
   10.3419   -3.3123    0.0000 C   0  0  0  0  0  0  0  0  0  0  0  0
   14.9607   -5.9806    0.0000 C   0  0  0  0  0  0  0  0  0  0  0  0
  1  2  1  0  0  0  0
  2  3  2  0  0  0  0
  2  7  1  0  0  0  0
  3  4  1  0  0  0  0
  4  5  2  0  0  0  0
  5  6  1  0  0  0  0
  6  7  2  0  0  0  0
  6 36  1  0  0  0  0
  7  8  1  0  0  0  0
  8  9  1  0  0  0  0
  9 10  2  0  0  0  0
  9 11  1  0  0  0  0
 11 12  1  0  0  0  0
 12 13  1  0  0  0  0
 12 35  1  0  0  0  0
 13 14  1  0  0  0  0
 14 15  1  0  0  0  0
 15 16  1  0  0  0  0
 15 34  1  0  0  0  0
 16 17  1  0  0  0  0
 17 18  1  0  0  0  0
 18 19  1  0  0  0  0
 19 20  1  0  0  0  0
 19 27  1  0  0  0  0
 20 21  2  0  0  0  0
 20 26  1  0  0  0  0
 21 22  1  0  0  0  0
 22 23  2  0  0  0  0
 23 24  1  0  0  0  0
 23 25  1  0  0  0  0
 25 26  2  0  0  0  0
 27 28  2  0  0  0  0
 27 33  1  0  0  0  0
 28 29  1  0  0  0  0
 29 30  2  0  0  0  0
 30 31  1  0  0  0  0
 30 32  1  0  0  0  0
 32 33  2  0  0  0  0
 34 35  1  0  0  0  0
M  END
> <ID>
10908

> <Formula>
C30H35F2N3O

> <FW>
491.6152

> <DSSTox_CID>
25377

> <DSSTox_RID>
80838

> <DSSTox_GSID>
45377

> <DSSTox_FileID_Sort>
5519

> <TS_ChemName>
Lidoflazine

> <TS_ChemName_Synonyms>


> <TS_CASRN>
3416-26-0

> <CASRN_ChemName_Relationship>
primary

> <TS_Description>
single chemical compound

> <ChemNote>


> <STRUCTURE_Shown>
tested chemical

> <STRUCTURE_Formula>
C30H35F2N3O

> <STRUCTURE_MW>
491.6152

> <STRUCTURE_ChemType>
defined organic

> <STRUCTURE_DefinedOrganicForm>
parent

> <STRUCTURE_IUPAC>
2-{4-[4,4-bis(4-fluorophenyl)butyl]piperazin-1-yl}-N-(2,6-dimethylphenyl)acetamide

> <STRUCTURE_SMILES>
Cc4cccc(C)c4NC(=O)CN3CCN(CCCC(c1ccc(F)cc1)c2ccc(F)cc2)CC3

> <STRUCTURE_SMILES_Desalt>
Cc4cccc(C)c4NC(=O)CN3CCN(CCCC(c1ccc(F)cc1)c2ccc(F)cc2)CC3

> <Substance_modify_yyyymmdd>
20100107

$$$$
