34214-51-2
ChemmineR-0915142007XD

 34 35  0  0  1  0  0  0  0  0  2 V2000
    7.4784   -7.3508    0.0000 O    0  0  0  0  0  0  0  0  0  0  0  0
    9.5968   -4.5559    0.0000 N    0  0  0  0  0  0  0  0  0  0  0  0
    9.5968   -3.1266    0.0000 C    0  0  0  0  0  0  0  0  0  0  0  0
    8.1548   -4.5559    0.0000 C    0  0  0  0  0  0  0  0  0  0  0  0
    8.1548   -3.1266    0.0000 C    0  0  0  0  0  0  0  0  0  0  0  0
    2.6800   -3.1266    0.0000 C    0  0  0  0  0  0  0  0  0  0  0  0
    4.7984   -3.1266    0.0000 C    0  0  0  0  0  0  0  0  0  0  0  0
   10.8730   -4.9771    0.0000 C    0  0  0  0  0  0  0  0  0  0  0  0
   10.8730   -2.7310    0.0000 S    0  0  0  0  0  0  0  0  0  0  0  0
    5.9087   -2.4630    0.0000 C    0  0  0  0  0  0  0  0  0  0  0  0
    2.6800   -4.1603    0.0000 N    0  0  0  0  0  0  0  0  0  0  0  0
   11.6898   -3.8413    0.0000 C    0  0  0  0  0  0  0  0  0  0  0  0
    7.1849   -2.4630    0.0000 N    0  0  0  0  0  0  0  0  0  0  0  0
    1.9653   -2.2716    0.0000 C    0  0  0  0  0  0  0  0  0  0  0  0
    3.7520   -4.8878    0.0000 O    0  0  0  0  0  0  0  0  0  0  0  0
    4.7984   -4.1603    0.0000 C    0  0  0  0  0  0  0  0  0  0  0  0
   11.3707   -6.3554    0.0000 C    0  0  0  0  0  0  0  0  0  0  0  0
    7.3125   -5.4110    0.0000 O    0  0  0  0  0  0  0  0  0  0  0  0
    0.6508   -2.2716    0.0000 C    0  0  0  0  0  0  0  0  0  0  0  0
    2.6289   -1.1358    0.0000 C    0  0  0  0  0  0  0  0  0  0  0  0
    5.4493   -1.3272    0.0000 O    0  0  0  0  0  0  0  0  0  0  0  0
   12.7618   -6.6361    0.0000 O    0  0  0  0  0  0  0  0  0  0  0  0
   10.4391   -7.4273    0.0000 O    0  5  0  0  0  0  0  0  0  0  0  0
    0.0000   -3.4712    0.0000 Cl   0  0  0  0  0  0  0  0  0  0  0  0
    3.9179   -1.1358    0.0000 F    0  0  0  0  0  0  0  0  0  0  0  0
   12.2002   -2.5268    0.0000 C    0  0  0  0  0  0  0  0  0  0  0  0
   12.7618   -4.7601    0.0000 C    0  0  0  0  0  0  0  0  0  0  0  0
    5.7045   -4.8239    0.0000 C    0  0  0  0  0  0  0  0  0  0  0  0
    0.6508    0.0000    0.0000 C    0  0  0  0  0  0  0  0  0  0  0  0
    0.0000   -1.1613    0.0000 C    0  0  0  0  0  0  0  0  0  0  0  0
    1.9398    0.0000    0.0000 C    0  0  0  0  0  0  0  0  0  0  0  0
    8.1165   -1.8249    0.0000 H    0  0  0  0  0  0  0  0  0  0  0  0
    9.5713   -1.8887    0.0000 H    0  0  0  0  0  0  0  0  0  0  0  0
   12.0088   -7.7847    0.0000 Na   0  3  0  0  0  0  0  0  0  0  0  0
  2  3  1  0  0  0  0
  2  4  1  0  0  0  0
  2  8  1  0  0  0  0
  3  9  1  1  0  0  0
  3  5  1  0  0  0  0
  3 33  1  6  0  0  0
  4  5  1  0  0  0  0
  4 18  2  0  0  0  0
  5 13  1  1  0  0  0
  5 32  1  6  0  0  0
  6  7  1  0  0  0  0
  6 11  2  0  0  0  0
  6 14  1  0  0  0  0
  7 10  1  0  0  0  0
  7 16  2  0  0  0  0
  8 12  1  0  0  0  0
  8 17  1  6  0  0  0
  9 12  1  0  0  0  0
 10 13  1  0  0  0  0
 10 21  2  0  0  0  0
 11 15  1  0  0  0  0
 12 26  1  0  0  0  0
 12 27  1  0  0  0  0
 14 19  1  0  0  0  0
 14 20  2  0  0  0  0
 15 16  1  0  0  0  0
 16 28  1  0  0  0  0
 17 22  2  0  0  0  0
 17 23  1  0  0  0  0
 19 24  1  0  0  0  0
 19 30  2  0  0  0  0
 20 25  1  0  0  0  0
 20 31  1  0  0  0  0
 29 31  2  0  0  0  0
 29 30  1  0  0  0  0
M  END
> <ID>
11714

> <Formula>
C19H18ClFN3NaO6S

> <FW>
493.8689 (18.0153+452.8644+22.9892)

> <DSSTox_CID>
26477

> <DSSTox_RID>
81648

> <DSSTox_GSID>
46477

> <DSSTox_FileID_Sort>
6329

> <TS_ChemName>
Floxacillin sodium hydrate

> <TS_ChemName_Synonyms>


> <TS_CASRN>
34214-51-2

> <CASRN_ChemName_Relationship>
primary

> <TS_Description>
single chemical compound

> <ChemNote>
stereochem; parent [5250-39-5]

> <STRUCTURE_Shown>
tested chemical

> <STRUCTURE_Formula>
C19H18ClFN3NaO6S

> <STRUCTURE_MW>
493.8689

> <STRUCTURE_ChemType>
defined organic

> <STRUCTURE_DefinedOrganicForm>
salt complex

> <STRUCTURE_IUPAC>
sodium (2S,5R,6R)-6-({[3-(2-chloro-6-fluorophenyl)-5-methyl-1,2-oxazol-4-yl]carbonyl}amino)-3,3-dimethyl-7-oxo-4-thia-1-azabicyclo[3.2.0]heptane-2-carboxylate hydrate (1:1:1)

> <STRUCTURE_SMILES>
[Na+].O.O=C([O-])[C@@H]3N4C(=O)[C@@H](NC(=O)c2c(C)onc2c1c(F)cccc1Cl)[C@H]4SC3(C)C

> <STRUCTURE_SMILES_Desalt>
OC(=O)[C@@H]3N4C(=O)[C@@H](NC(=O)c2c(C)onc2c1c(F)cccc1Cl)[C@H]4SC3(C)C

> <Substance_modify_yyyymmdd>
20110812

$$$$
