342573-75-5
ChemmineR-0915142007XD

 15 14  0  0  0  0  0  0  0  0  2 V2000
    7.0257   -5.1076    0.0000 C   0  0  0  0  0  0  0  0  0  0  0  0
    7.3490    0.0000    0.0000 C   0  0  0  0  0  0  0  0  0  0  0  0
    5.8792   -4.4388    0.0000 C   0  0  0  0  0  0  0  0  0  0  0  0
    5.2325   -1.0583    0.0000 C   0  0  0  0  0  0  0  0  0  0  0  0
    4.8063   -2.3223    0.0000 C   0  0  0  0  0  0  0  0  0  0  0  0
    6.9669   -2.3370    0.0000 C   0  0  0  0  0  0  0  0  0  0  0  0
    6.5627   -1.0730    0.0000 N   0  3  0  0  0  0  0  0  0  0  0  0
    5.8792   -3.1086    0.0000 N   0  0  0  0  0  0  0  0  0  0  0  0
    0.0000   -7.1433    0.0000 C   0  0  0  0  0  0  0  0  0  0  0  0
    1.3302   -7.1433    0.0000 C   0  0  0  0  0  0  0  0  0  0  0  0
    3.3144   -7.3196    0.0000 O   0  5  0  0  0  0  0  0  0  0  0  0
    3.3144   -4.6593    0.0000 O   0  0  0  0  0  0  0  0  0  0  0  0
    4.6446   -5.9895    0.0000 O   0  0  0  0  0  0  0  0  0  0  0  0
    1.9842   -5.9895    0.0000 O   0  0  0  0  0  0  0  0  0  0  0  0
    3.3144   -5.9895    0.0000 S   0  0  0  0  0  0  0  0  0  0  0  0
  1  3  1  0  0  0  0
  2  7  1  0  0  0  0
  3  8  1  0  0  0  0
  4  5  2  0  0  0  0
  4  7  1  0  0  0  0
  5  8  1  0  0  0  0
  6  7  2  0  0  0  0
  6  8  1  0  0  0  0
  9 10  1  0  0  0  0
 10 14  1  0  0  0  0
 11 15  1  0  0  0  0
 12 15  2  0  0  0  0
 13 15  2  0  0  0  0
 14 15  1  0  0  0  0
M  END
> <ID>
14137

> <Formula>
C8H16N2O4S

> <FW>
236.2886 (111.1644+125.1242)

> <DSSTox_CID>
29130

> <DSSTox_RID>
83349

> <DSSTox_GSID>
49274

> <DSSTox_FileID_Sort>
8024

> <TS_ChemName>
1-Ethyl-3-methylimidazolium ethyl sulfate

> <TS_ChemName_Synonyms>


> <TS_CASRN>
342573-75-5

> <CASRN_ChemName_Relationship>
primary

> <TS_Description>
single chemical compound

> <ChemNote>


> <STRUCTURE_Shown>
tested chemical

> <STRUCTURE_Formula>
C8H16N2O4S

> <STRUCTURE_MW>
236.2886

> <STRUCTURE_ChemType>
defined organic

> <STRUCTURE_DefinedOrganicForm>
complex

> <STRUCTURE_IUPAC>
1-ethyl-3-methyl-1H-imidazol-3-ium ethyl sulfate

> <STRUCTURE_SMILES>
C[n+]1ccn(CC)c1.[O-]S(=O)(=O)OCC

> <STRUCTURE_SMILES_Desalt>
C[n+]1ccn(CC)c1

> <Substance_modify_yyyymmdd>
20111204

$$$$
