34256-82-1
ChemmineR-0915142007XD

 18 18  0  0  0  0  0  0  0  0  1 V2000
    2.3142   -4.6603    0.0000 C    0  0  0  0  0  0  0  0  0  0  0  0
    2.3142   -5.9850    0.0000 O    0  0  0  0  0  0  0  0  0  0  0  0
    1.1491   -3.9900    0.0000 C    0  0  0  0  0  0  0  0  0  0  0  0
    3.4474   -3.9900    0.0000 N    0  0  0  0  0  0  0  0  0  0  0  0
    0.0000   -4.6603    0.0000 Cl   0  0  0  0  0  0  0  0  0  0  0  0
    4.6125   -4.6603    0.0000 C    0  0  0  0  0  0  0  0  0  0  0  0
    4.6125   -5.9850    0.0000 O    0  0  0  0  0  0  0  0  0  0  0  0
    5.7616   -6.6553    0.0000 C    0  0  0  0  0  0  0  0  0  0  0  0
    5.7616   -7.9800    0.0000 C    0  0  0  0  0  0  0  0  0  0  0  0
    3.4474   -2.6653    0.0000 C    0  0  0  0  0  0  0  0  0  0  0  0
    2.3142   -1.9950    0.0000 C    0  0  0  0  0  0  0  0  0  0  0  0
    4.6125   -1.9950    0.0000 C    0  0  0  0  0  0  0  0  0  0  0  0
    2.3142   -0.6703    0.0000 C    0  0  0  0  0  0  0  0  0  0  0  0
    4.6125   -0.6703    0.0000 C    0  0  0  0  0  0  0  0  0  0  0  0
    3.4474    0.0000    0.0000 C    0  0  0  0  0  0  0  0  0  0  0  0
    1.1491   -2.6653    0.0000 C    0  0  0  0  0  0  0  0  0  0  0  0
    0.0000   -1.9950    0.0000 C    0  0  0  0  0  0  0  0  0  0  0  0
    5.7616   -2.6653    0.0000 C    0  0  0  0  0  0  0  0  0  0  0  0
  1  2  2  0  0  0  0
  1  4  1  0  0  0  0
  1  3  1  0  0  0  0
  3  5  1  0  0  0  0
  4  6  1  0  0  0  0
  4 10  1  0  0  0  0
  6  7  1  0  0  0  0
  7  8  1  0  0  0  0
  8  9  1  0  0  0  0
 10 11  2  0  0  0  0
 10 12  1  0  0  0  0
 11 13  1  0  0  0  0
 11 16  1  0  0  0  0
 12 14  2  0  0  0  0
 12 18  1  0  0  0  0
 13 15  2  0  0  0  0
 14 15  1  0  0  0  0
 16 17  1  0  0  0  0
M  END
> <ID>
3388

> <Formula>
C14H20ClNO2

> <FW>
269.7671

> <DSSTox_CID>
3848

> <DSSTox_RID>
77206

> <DSSTox_GSID>
23848

> <DSSTox_FileID_Sort>
1889

> <TS_ChemName>
Acetochlor

> <TS_ChemName_Synonyms>


> <TS_CASRN>
34256-82-1

> <CASRN_ChemName_Relationship>
primary

> <TS_Description>
single chemical compound

> <ChemNote>


> <STRUCTURE_Shown>
tested chemical

> <STRUCTURE_Formula>
C14H20ClNO2

> <STRUCTURE_MW>
269.7671

> <STRUCTURE_ChemType>
defined organic

> <STRUCTURE_DefinedOrganicForm>
parent

> <STRUCTURE_IUPAC>
2-chloro-N-(ethoxymethyl)-N-(2-ethyl-6-methylphenyl)acetamide

> <STRUCTURE_SMILES>
ClCC(=O)N(COCC)c1c(C)cccc1CC

> <STRUCTURE_SMILES_Desalt>
ClCC(=O)N(COCC)c1c(C)cccc1CC

> <Substance_modify_yyyymmdd>
20080429

$$$$
