34273-10-4
ChemmineR-0915142007XD

 65 67  0  0  1  0  0  0  0  0  1 V2000
   20.5910   -2.0508    0.0000 N   0  0  0  0  0  0  0  0  0  0  0  0
   21.6441   -1.2748    0.0000 C   0  0  0  0  0  0  0  0  0  0  0  0
   20.5910   -3.3533    0.0000 C   0  0  0  0  0  0  0  0  0  0  0  0
   19.5102   -1.2748    0.0000 C   0  0  0  0  0  0  0  0  0  0  0  0
   21.2284   -0.0277    0.0000 C   0  0  0  0  0  0  0  0  0  0  0  0
   22.8358   -1.8014    0.0000 C   0  0  0  0  0  0  0  0  0  0  0  0
   19.4271   -4.0462    0.0000 C   0  0  0  0  0  0  0  0  0  0  0  0
   21.7273   -4.0184    0.0000 O   0  0  0  0  0  0  0  0  0  0  0  0
   19.8982   -0.0277    0.0000 C   0  0  0  0  0  0  0  0  0  0  0  0
   24.0829   -1.1085    0.0000 N   0  0  0  0  0  0  0  0  0  0  0  0
   22.8358   -3.1316    0.0000 O   0  0  0  0  0  0  0  0  0  0  0  0
   19.4271   -5.3764    0.0000 C   0  0  0  0  0  0  0  0  0  0  0  0
   18.2908   -3.3533    0.0000 N   0  0  0  0  0  0  0  0  0  0  0  0
   25.3023   -1.8845    0.0000 C   0  0  0  0  0  0  0  0  0  0  0  0
   20.5633   -6.0138    0.0000 C   0  0  0  0  0  0  0  0  0  0  0  0
   17.1546   -4.0462    0.0000 C   0  0  0  0  0  0  0  0  0  0  0  0
   26.5494   -1.3302    0.0000 C   0  0  0  0  0  0  0  0  0  0  0  0
   25.3023   -3.2702    0.0000 C   0  0  0  0  0  0  0  0  0  0  0  0
   21.8381   -5.6258    0.0000 C   0  0  0  0  0  0  0  0  0  0  0  0
   20.5633   -7.3440    0.0000 N   0  0  0  0  0  0  0  0  0  0  0  0
   15.9906   -3.3533    0.0000 C   0  0  0  0  0  0  0  0  0  0  0  0
   17.1546   -5.3764    0.0000 O   0  0  0  0  0  0  0  0  0  0  0  0
   27.7134   -1.9954    0.0000 O   0  0  0  0  0  0  0  0  0  0  0  0
   26.5494    0.0000    0.0000 O   0  0  0  0  0  0  0  0  0  0  0  0
   22.6141   -6.6789    0.0000 N   0  0  0  0  0  0  0  0  0  0  0  0
   21.8381   -7.7597    0.0000 C   0  0  0  0  0  0  0  0  0  0  0  0
   14.8544   -4.0462    0.0000 N   0  0  0  0  0  0  0  0  0  0  0  0
   15.9906   -2.0508    0.0000 C   0  0  0  0  0  0  0  0  0  0  0  0
   13.7181   -3.3533    0.0000 C   0  0  0  0  0  0  0  0  0  0  0  0
   17.1546   -1.4134    0.0000 C   0  0  0  0  0  0  0  0  0  0  0  0
   14.8544   -1.4134    0.0000 C   0  0  0  0  0  0  0  0  0  0  0  0
   12.5542   -4.0462    0.0000 C   0  0  0  0  0  0  0  0  0  0  0  0
   13.7181   -2.0508    0.0000 O   0  0  0  0  0  0  0  0  0  0  0  0
   12.5542   -5.3764    0.0000 C   0  0  0  0  0  0  0  0  0  0  0  0
   11.4456   -3.3533    0.0000 N   0  0  0  0  0  0  0  0  0  0  0  0
   13.7181   -6.0138    0.0000 C   0  0  0  0  0  0  0  0  0  0  0  0
   10.2539   -4.0462    0.0000 C   0  0  0  0  0  0  0  0  0  0  0  0
   13.7181   -7.3440    0.0000 C   0  0  0  0  0  0  0  0  0  0  0  0
   14.8544   -5.3764    0.0000 C   0  0  0  0  0  0  0  0  0  0  0  0
    9.1454   -3.3533    0.0000 C   0  0  0  0  0  0  0  0  0  0  0  0
   10.2539   -5.3764    0.0000 O   0  0  0  0  0  0  0  0  0  0  0  0
   14.8544   -8.0369    0.0000 C   0  0  0  0  0  0  0  0  0  0  0  0
   15.9906   -6.0138    0.0000 C   0  0  0  0  0  0  0  0  0  0  0  0
    8.0092   -4.0462    0.0000 N   0  0  0  0  0  0  0  0  0  0  0  0
    9.1454   -2.0508    0.0000 C   0  0  0  0  0  0  0  0  0  0  0  0
   15.9906   -7.3440    0.0000 C   0  0  0  0  0  0  0  0  0  0  0  0
    6.8452   -3.3533    0.0000 C   0  0  0  0  0  0  0  0  0  0  0  0
   10.2539   -1.4134    0.0000 C   0  0  0  0  0  0  0  0  0  0  0  0
    7.9815   -1.4134    0.0000 C   0  0  0  0  0  0  0  0  0  0  0  0
   17.1546   -8.0369    0.0000 O   0  0  0  0  0  0  0  0  0  0  0  0
    5.7090   -4.0462    0.0000 C   0  0  0  0  0  0  0  0  0  0  0  0
    6.8452   -2.0508    0.0000 O   0  0  0  0  0  0  0  0  0  0  0  0
    4.5727   -3.3533    0.0000 N   0  0  0  0  0  0  0  0  0  0  0  0
    5.7090   -5.3487    0.0000 C   0  0  0  0  0  0  0  0  0  0  0  0
    3.4087   -4.0462    0.0000 C   0  0  0  0  0  0  0  0  0  0  0  0
    6.8452   -6.0138    0.0000 C   0  0  0  0  0  0  0  0  0  0  0  0
    2.2725   -3.3533    0.0000 C   0  0  0  0  0  0  0  0  0  0  0  0
    3.4087   -5.3764    0.0000 O   0  0  0  0  0  0  0  0  0  0  0  0
    6.8452   -7.3440    0.0000 C   0  0  0  0  0  0  0  0  0  0  0  0
    1.1362   -4.0462    0.0000 N   0  0  0  0  0  0  0  0  0  0  0  0
    8.0092   -7.9815    0.0000 N   0  0  0  0  0  0  0  0  0  0  0  0
    0.0000   -3.3810    0.0000 C   0  0  0  0  0  0  0  0  0  0  0  0
    8.0092   -9.3117    0.0000 C   0  0  0  0  0  0  0  0  0  0  0  0
    9.1454   -9.9768    0.0000 N   0  0  0  0  0  0  0  0  0  0  0  0
    6.8452   -9.9768    0.0000 N   0  0  0  0  0  0  0  0  0  0  0  0
  1  2  1  0  0  0  0
  1  3  1  0  0  0  0
  1  4  1  0  0  0  0
  2  5  1  0  0  0  0
  2  6  1  1  0  0  0
  3  7  1  0  0  0  0
  3  8  2  0  0  0  0
  4  9  1  0  0  0  0
  5  9  1  0  0  0  0
  6 10  1  0  0  0  0
  6 11  2  0  0  0  0
  7 12  1  0  0  0  0
  7 13  1  6  0  0  0
 14 10  1  6  0  0  0
 12 15  1  0  0  0  0
 13 16  1  0  0  0  0
 14 17  1  0  0  0  0
 14 18  1  0  0  0  0
 15 19  2  0  0  0  0
 15 20  1  0  0  0  0
 16 21  1  0  0  0  0
 16 22  2  0  0  0  0
 17 23  1  0  0  0  0
 17 24  2  0  0  0  0
 19 25  1  0  0  0  0
 20 26  2  0  0  0  0
 21 27  1  1  0  0  0
 21 28  1  0  0  0  0
 25 26  1  0  0  0  0
 27 29  1  0  0  0  0
 28 30  1  0  0  0  0
 28 31  1  0  0  0  0
 29 32  1  0  0  0  0
 29 33  2  0  0  0  0
 32 34  1  0  0  0  0
 32 35  1  6  0  0  0
 34 36  1  0  0  0  0
 35 37  1  0  0  0  0
 36 38  2  0  0  0  0
 36 39  1  0  0  0  0
 37 40  1  0  0  0  0
 37 41  2  0  0  0  0
 38 42  1  0  0  0  0
 39 43  2  0  0  0  0
 40 44  1  1  0  0  0
 40 45  1  0  0  0  0
 42 46  2  0  0  0  0
 43 46  1  0  0  0  0
 44 47  1  0  0  0  0
 45 48  1  0  0  0  0
 45 49  1  0  0  0  0
 46 50  1  0  0  0  0
 47 51  1  0  0  0  0
 47 52  2  0  0  0  0
 51 53  1  6  0  0  0
 51 54  1  0  0  0  0
 53 55  1  0  0  0  0
 54 56  1  0  0  0  0
 55 57  1  0  0  0  0
 55 58  2  0  0  0  0
 56 59  1  0  0  0  0
 57 60  1  0  0  0  0
 59 61  1  0  0  0  0
 60 62  1  0  0  0  0
 61 63  1  0  0  0  0
 63 64  1  0  0  0  0
 63 65  2  0  0  0  0
M  END
> <ID>
11776

> <Formula>
C42H65N13O10

> <FW>
912.0466

> <DSSTox_CID>
26549

> <DSSTox_RID>
81710

> <DSSTox_GSID>
46549

> <DSSTox_FileID_Sort>
6391

> <TS_ChemName>
Saralasin

> <TS_ChemName_Synonyms>


> <TS_CASRN>
34273-10-4

> <CASRN_ChemName_Relationship>
primary

> <TS_Description>
single chemical compound

> <ChemNote>
stereochem; tautomers

> <STRUCTURE_Shown>
tested chemical

> <STRUCTURE_Formula>
C42H65N13O10

> <STRUCTURE_MW>
912.0466

> <STRUCTURE_ChemType>
defined organic

> <STRUCTURE_DefinedOrganicForm>
parent

> <STRUCTURE_IUPAC>
N-methylglycyl-L-arginyl-L-valyl-L-tyrosyl-L-valyl-L-histidyl-L-prolyl-L-alanine

> <STRUCTURE_SMILES>
O=C(N[C@@H](C)C(=O)O)[C@@H]3CCCN3C(=O)[C@H](Cc1cncn1)NC(=O)[C@@H](NC(=O)[C@H](Cc2ccc(O)cc2)NC(=O)[C@@H](NC(=O)[C@H](CCCNC(=N)N)NC(=O)CNC)C(C)C)C(C)C

> <STRUCTURE_SMILES_Desalt>
O=C(N[C@@H](C)C(=O)O)[C@@H]3CCCN3C(=O)[C@H](Cc1cncn1)NC(=O)[C@@H](NC(=O)[C@H](Cc2ccc(O)cc2)NC(=O)[C@@H](NC(=O)[C@H](CCCNC(=N)N)NC(=O)CNC)C(C)C)C(C)C

> <Substance_modify_yyyymmdd>
20110811

$$$$
