34381-68-5
ChemmineR-0915142007XD

 25 24  0  0  0  0  0  0  0  0  1 V2000
    6.9275   -3.3809    0.0000 C    0  0  0  0  0  0  0  0  0  0  0  0
    8.0729   -4.0295    0.0000 C    0  0  0  0  0  0  0  0  0  0  0  0
    6.9275   -2.0424    0.0000 C    0  0  0  0  0  0  0  0  0  0  0  0
    3.4361   -5.3819    0.0000 C    0  0  0  0  0  0  0  0  0  0  0  0
    4.6091   -6.0581    0.0000 N    0  0  0  0  0  0  0  0  0  0  0  0
    5.7821   -4.0295    0.0000 C    0  0  0  0  0  0  0  0  0  0  0  0
    5.7821   -5.3681    0.0000 C    0  0  0  0  0  0  0  0  0  0  0  0
    9.2458   -3.3533    0.0000 O    0  0  0  0  0  0  0  0  0  0  0  0
    3.4361   -4.0433    0.0000 O    0  0  0  0  0  0  0  0  0  0  0  0
    8.0729   -1.3938    0.0000 O    0  0  0  0  0  0  0  0  0  0  0  0
   11.5228   -3.3119    0.0000 N    0  0  0  0  0  0  0  0  0  0  0  0
    8.0729   -5.3681    0.0000 C    0  0  0  0  0  0  0  0  0  0  0  0
   10.3774   -1.3386    0.0000 C    0  0  0  0  0  0  0  0  0  0  0  0
    9.2458   -2.0010    0.0000 C    0  0  0  0  0  0  0  0  0  0  0  0
   11.5228   -2.0010    0.0000 C    0  0  0  0  0  0  0  0  0  0  0  0
    6.9275   -6.0305    0.0000 C    0  0  0  0  0  0  0  0  0  0  0  0
   10.3774    0.0000    0.0000 O    0  0  0  0  0  0  0  0  0  0  0  0
   12.6544   -3.9881    0.0000 C    0  0  0  0  0  0  0  0  0  0  0  0
    2.2770   -6.0581    0.0000 C    0  0  0  0  0  0  0  0  0  0  0  0
    5.7821   -1.3938    0.0000 C    0  0  0  0  0  0  0  0  0  0  0  0
    1.1454   -5.4095    0.0000 C    0  0  0  0  0  0  0  0  0  0  0  0
   12.6544   -5.3267    0.0000 C    0  0  0  0  0  0  0  0  0  0  0  0
   13.7998   -3.3119    0.0000 C    0  0  0  0  0  0  0  0  0  0  0  0
    0.0000   -6.0581    0.0000 C    0  0  0  0  0  0  0  0  0  0  0  0
   10.7086   -5.7683    0.0000 Cl   0  0  0  0  0  0  0  0  0  0  0  0
  1  2  2  0  0  0  0
  1  3  1  0  0  0  0
  1  6  1  0  0  0  0
  2  8  1  0  0  0  0
  2 12  1  0  0  0  0
  3 10  2  0  0  0  0
  3 20  1  0  0  0  0
  4  5  1  0  0  0  0
  4  9  2  0  0  0  0
  4 19  1  0  0  0  0
  5  7  1  0  0  0  0
  6  7  2  0  0  0  0
  7 16  1  0  0  0  0
  8 14  1  0  0  0  0
 11 15  1  0  0  0  0
 11 18  1  0  0  0  0
 12 16  2  0  0  0  0
 13 14  1  0  0  0  0
 13 15  1  0  0  0  0
 13 17  1  0  0  0  0
 18 22  1  0  0  0  0
 18 23  1  0  0  0  0
 19 21  1  0  0  0  0
 21 24  1  0  0  0  0
M  END
> <ID>
10960

> <Formula>
C18H29ClN2O4

> <FW>
372.8869 (336.4259+36.4609)

> <DSSTox_CID>
25461

> <DSSTox_RID>
80892

> <DSSTox_GSID>
45461

> <DSSTox_FileID_Sort>
5573

> <TS_ChemName>
Acebutolol hydrochloride

> <TS_ChemName_Synonyms>


> <TS_CASRN>
34381-68-5

> <CASRN_ChemName_Relationship>
primary

> <TS_Description>
single chemical compound

> <ChemNote>
parent[37517-30-9]

> <STRUCTURE_Shown>
tested chemical

> <STRUCTURE_Formula>
C18H29ClN2O4

> <STRUCTURE_MW>
372.8869

> <STRUCTURE_ChemType>
defined organic

> <STRUCTURE_DefinedOrganicForm>
complex

> <STRUCTURE_IUPAC>
N-{3-acetyl-4-[2-hydroxy-3-(propan-2-ylamino)propoxy]phenyl}butanamide hydrochloride (1:1)

> <STRUCTURE_SMILES>
Cl.CC(C)NCC(O)COc1ccc(cc1C(C)=O)NC(=O)CCC

> <STRUCTURE_SMILES_Desalt>
CC(C)NCC(O)COc1ccc(cc1C(C)=O)NC(=O)CCC

> <Substance_modify_yyyymmdd>
20100107

$$$$
