343952-33-0
ChemmineR-0915142007XD

 16 15  0  0  0  0  0  0  0  0  2 V2000
    5.1658   -7.9952    0.0000 C   0  0  0  0  0  0  0  0  0  0  0  0
    2.8885    0.0000    0.0000 C   0  0  0  0  0  0  0  0  0  0  0  0
    4.0223   -7.3248    0.0000 C   0  0  0  0  0  0  0  0  0  0  0  0
    4.0223   -5.9940    0.0000 C   0  0  0  0  0  0  0  0  0  0  0  0
    1.7351   -1.9914    0.0000 C   0  0  0  0  0  0  0  0  0  0  0  0
    4.0223   -2.0013    0.0000 C   0  0  0  0  0  0  0  0  0  0  0  0
    2.8688   -5.3236    0.0000 C   0  0  0  0  0  0  0  0  0  0  0  0
    1.7351   -3.3223    0.0000 C   0  0  0  0  0  0  0  0  0  0  0  0
    4.0223   -3.3322    0.0000 C   0  0  0  0  0  0  0  0  0  0  0  0
    2.8885   -1.3309    0.0000 C   0  0  0  0  0  0  0  0  0  0  0  0
    2.8688   -3.9927    0.0000 N   0  3  0  0  0  0  0  0  0  0  0  0
    1.3309   -8.5079    0.0000 B   0  5  0  0  0  0  0  0  0  0  0  0
    0.0000   -8.5079    0.0000 F   0  0  0  0  0  0  0  0  0  0  0  0
    1.3309   -9.8585    0.0000 F   0  0  0  0  0  0  0  0  0  0  0  0
    1.3309   -7.1770    0.0000 F   0  0  0  0  0  0  0  0  0  0  0  0
    2.6618   -8.5079    0.0000 F   0  0  0  0  0  0  0  0  0  0  0  0
  1  3  1  0  0  0  0
  2 10  1  0  0  0  0
  3  4  1  0  0  0  0
  4  7  1  0  0  0  0
  5  8  1  0  0  0  0
  5 10  2  0  0  0  0
  6  9  2  0  0  0  0
  6 10  1  0  0  0  0
  7 11  1  0  0  0  0
  8 11  2  0  0  0  0
  9 11  1  0  0  0  0
 12 13  1  0  0  0  0
 12 14  1  0  0  0  0
 12 15  1  0  0  0  0
 12 16  1  0  0  0  0
M  END
> <ID>
14138

> <Formula>
C10H16BF4N

> <FW>
237.0454 (150.2402+86.8052)

> <DSSTox_CID>
29131

> <DSSTox_RID>
83350

> <DSSTox_GSID>
49275

> <DSSTox_FileID_Sort>
8025

> <TS_ChemName>
1-Butyl-4-methylpyridinium tetrafluoroborate

> <TS_ChemName_Synonyms>


> <TS_CASRN>
343952-33-0

> <CASRN_ChemName_Relationship>
primary

> <TS_Description>
single chemical compound

> <ChemNote>


> <STRUCTURE_Shown>
tested chemical

> <STRUCTURE_Formula>
C10H16BF4N

> <STRUCTURE_MW>
237.0454

> <STRUCTURE_ChemType>
defined organic

> <STRUCTURE_DefinedOrganicForm>
complex

> <STRUCTURE_IUPAC>
1-butyl-4-methylpyridinium tetrafluoroborate

> <STRUCTURE_SMILES>
Cc1cc[n+](CCCC)cc1.F[B-](F)(F)F

> <STRUCTURE_SMILES_Desalt>
Cc1cc[n+](CCCC)cc1

> <Substance_modify_yyyymmdd>
20111204

$$$$
