3440-28-6
ChemmineR-0915142007XD

 14 14  0  0  0  0  0  0  0  0  1 V2000
    1.1537   -1.9896    0.0000 C   0  0  0  0  0  0  0  0  0  0  0  0
    1.1537   -0.6701    0.0000 C   0  0  0  0  0  0  0  0  0  0  0  0
    2.3143   -2.6666    0.0000 C   0  0  0  0  0  0  0  0  0  0  0  0
    0.0000   -2.6666    0.0000 C   0  0  0  0  0  0  0  0  0  0  0  0
    2.3143    0.0000    0.0000 N   0  0  0  0  0  0  0  0  0  0  0  0
    0.0000    0.0000    0.0000 O   0  0  0  0  0  0  0  0  0  0  0  0
    2.3143   -3.9792    0.0000 C   0  0  0  0  0  0  0  0  0  0  0  0
    0.0000   -3.9792    0.0000 C   0  0  0  0  0  0  0  0  0  0  0  0
    3.4542   -0.6701    0.0000 C   0  0  0  0  0  0  0  0  0  0  0  0
    1.1537   -4.6562    0.0000 C   0  0  0  0  0  0  0  0  0  0  0  0
    4.6079    0.0000    0.0000 C   0  0  0  0  0  0  0  0  0  0  0  0
    5.7547   -0.6701    0.0000 C   0  0  0  0  0  0  0  0  0  0  0  0
    5.7547   -1.9896    0.0000 O   0  0  0  0  0  0  0  0  0  0  0  0
    6.9084    0.0000    0.0000 O   0  0  0  0  0  0  0  0  0  0  0  0
  1  2  1  0  0  0  0
  1  3  2  0  0  0  0
  1  4  1  0  0  0  0
  2  5  1  0  0  0  0
  2  6  2  0  0  0  0
  3  7  1  0  0  0  0
  4  8  2  0  0  0  0
  5  9  1  0  0  0  0
  7 10  2  0  0  0  0
  8 10  1  0  0  0  0
  9 11  1  0  0  0  0
 11 12  1  0  0  0  0
 12 13  1  0  0  0  0
 12 14  2  0  0  0  0
M  END
> <ID>
11079

> <Formula>
C10H11NO3

> <FW>
193.1992

> <DSSTox_CID>
25626

> <DSSTox_RID>
81011

> <DSSTox_GSID>
45626

> <DSSTox_FileID_Sort>
5692

> <TS_ChemName>
Betamipron

> <TS_ChemName_Synonyms>


> <TS_CASRN>
3440-28-6

> <CASRN_ChemName_Relationship>
primary

> <TS_Description>
single chemical compound

> <ChemNote>


> <STRUCTURE_Shown>
tested chemical

> <STRUCTURE_Formula>
C10H11NO3

> <STRUCTURE_MW>
193.1992

> <STRUCTURE_ChemType>
defined organic

> <STRUCTURE_DefinedOrganicForm>
parent

> <STRUCTURE_IUPAC>
N-benzoyl-beta-alanine

> <STRUCTURE_SMILES>
O=C(NCCC(=O)O)c1ccccc1

> <STRUCTURE_SMILES_Desalt>
O=C(NCCC(=O)O)c1ccccc1

> <Substance_modify_yyyymmdd>
20100107

$$$$
