34413-35-9
ChemmineR-0915142007XD

 10 11  0  0  0  0  0  0  0  0  1 V2000
    1.1735    0.0000    0.0000 N   0  0  0  0  0  0  0  0  0  0  0  0
    1.1735   -2.6691    0.0000 N   0  0  0  0  0  0  0  0  0  0  0  0
    2.3331   -1.9926    0.0000 C   0  0  0  0  0  0  0  0  0  0  0  0
    2.3331   -0.6719    0.0000 C   0  0  0  0  0  0  0  0  0  0  0  0
    0.0000   -0.6719    0.0000 C   0  0  0  0  0  0  0  0  0  0  0  0
    0.0000   -1.9926    0.0000 C   0  0  0  0  0  0  0  0  0  0  0  0
    3.4606    0.0000    0.0000 C   0  0  0  0  0  0  0  0  0  0  0  0
    3.4606   -2.6691    0.0000 C   0  0  0  0  0  0  0  0  0  0  0  0
    4.6019   -1.9926    0.0000 C   0  0  0  0  0  0  0  0  0  0  0  0
    4.6019   -0.6719    0.0000 C   0  0  0  0  0  0  0  0  0  0  0  0
  1  4  2  0  0  0  0
  1  5  1  0  0  0  0
  2  3  2  0  0  0  0
  2  6  1  0  0  0  0
  3  4  1  0  0  0  0
  3  8  1  0  0  0  0
  4  7  1  0  0  0  0
  5  6  2  0  0  0  0
  7 10  1  0  0  0  0
  8  9  1  0  0  0  0
  9 10  1  0  0  0  0
M  END
> <ID>
12799

> <Formula>
C8H10N2

> <FW>
134.1784

> <DSSTox_CID>
27678

> <DSSTox_RID>
82495

> <DSSTox_GSID>
47678

> <DSSTox_FileID_Sort>
7176

> <TS_ChemName>
5,6,7,8-Tetrahydroquinoxaline

> <TS_ChemName_Synonyms>


> <TS_CASRN>
34413-35-9

> <CASRN_ChemName_Relationship>
primary

> <TS_Description>
single chemical compound

> <ChemNote>


> <STRUCTURE_Shown>
tested chemical

> <STRUCTURE_Formula>
C8H10N2

> <STRUCTURE_MW>
134.1784

> <STRUCTURE_ChemType>
defined organic

> <STRUCTURE_DefinedOrganicForm>
parent

> <STRUCTURE_IUPAC>
5,6,7,8-tetrahydroquinoxaline

> <STRUCTURE_SMILES>
c1nc2CCCCc2nc1

> <STRUCTURE_SMILES_Desalt>
c1nc2CCCCc2nc1

> <Substance_modify_yyyymmdd>
20101215

$$$$
