34443-12-4
ChemmineR-0915142007XD

 17 16  0  0  0  0  0  0  0  0  1 V2000
    1.1511   -1.3281    0.0000 C   0  0  0  0  0  0  0  0  0  0  0  0
    2.3021   -1.9985    0.0000 C   0  0  0  0  0  0  0  0  0  0  0  0
    0.0000   -1.9985    0.0000 C   0  0  0  0  0  0  0  0  0  0  0  0
    3.4532   -1.3281    0.0000 C   0  0  0  0  0  0  0  0  0  0  0  0
    4.6042   -1.9985    0.0000 C   0  0  0  0  0  0  0  0  0  0  0  0
    5.7553   -1.3281    0.0000 C   0  0  0  0  0  0  0  0  0  0  0  0
    4.6042   -3.3267    0.0000 C   0  0  0  0  0  0  0  0  0  0  0  0
    3.4532   -3.9844    0.0000 C   0  0  0  0  0  0  0  0  0  0  0  0
    6.8937   -1.9985    0.0000 O   0  0  0  0  0  0  0  0  0  0  0  0
    8.0448   -1.3281    0.0000 C   0  0  0  0  0  0  0  0  0  0  0  0
    9.1958   -1.9985    0.0000 O   0  0  0  0  0  0  0  0  0  0  0  0
    8.0448    0.0000    0.0000 O   0  0  0  0  0  0  0  0  0  0  0  0
   10.3469   -1.3281    0.0000 O   0  0  0  0  0  0  0  0  0  0  0  0
   11.4979   -1.9985    0.0000 C   0  0  0  0  0  0  0  0  0  0  0  0
   12.6490   -1.3281    0.0000 C   0  0  0  0  0  0  0  0  0  0  0  0
   11.4979   -3.3267    0.0000 C   0  0  0  0  0  0  0  0  0  0  0  0
   11.4979   -0.6704    0.0000 C   0  0  0  0  0  0  0  0  0  0  0  0
  1  2  1  0  0  0  0
  1  3  1  0  0  0  0
  2  4  1  0  0  0  0
  4  5  1  0  0  0  0
  5  6  1  0  0  0  0
  5  7  1  0  0  0  0
  6  9  1  0  0  0  0
  7  8  1  0  0  0  0
  9 10  1  0  0  0  0
 10 11  1  0  0  0  0
 10 12  2  0  0  0  0
 11 13  1  0  0  0  0
 13 14  1  0  0  0  0
 14 15  1  0  0  0  0
 14 16  1  0  0  0  0
 14 17  1  0  0  0  0
M  END
> <ID>
10568

> <Formula>
C13H26O4

> <FW>
246.3431

> <DSSTox_CID>
24921

> <DSSTox_RID>
80587

> <DSSTox_GSID>
44921

> <DSSTox_FileID_Sort>
5269

> <TS_ChemName>
tert-Butylperoxy 2-ethylhexyl carbonate

> <TS_ChemName_Synonyms>
(tert-Butylperoxy 2-ethylhexyl carbonate  3-({[(tert-Butylperoxy)carbonyl]oxy}methyl)heptane) (Carbonoperoxoic acid, OO-(1,1-dimethylethyl) O-(2-ethylhexyl) ester) (tert-Butylperoxy 2-ethylhexyl carbonate) (Luperox® TBEC))

> <TS_CASRN>
34443-12-4

> <CASRN_ChemName_Relationship>
primary

> <TS_Description>
single chemical compound

> <ChemNote>


> <STRUCTURE_Shown>
tested chemical

> <STRUCTURE_Formula>
C13H26O4

> <STRUCTURE_MW>
246.3431

> <STRUCTURE_ChemType>
defined organic

> <STRUCTURE_DefinedOrganicForm>
parent

> <STRUCTURE_IUPAC>
3-({[(tert-butylperoxy)carbonyl]oxy}methyl)heptane

> <STRUCTURE_SMILES>
CC(C)(C)OOC(=O)OCC(CCCC)CC

> <STRUCTURE_SMILES_Desalt>
CC(C)(C)OOC(=O)OCC(CCCC)CC

> <Substance_modify_yyyymmdd>
20091116

$$$$
