3445-11-2
ChemmineR-0915142007XD

  9  9  0  0  0  0  0  0  0  0  1 V2000
    1.1492   -3.3241    0.0000 N   0  0  0  0  0  0  0  0  0  0  0  0
    2.2232   -4.1081    0.0000 C   0  0  0  0  0  0  0  0  0  0  0  0
    0.0806   -4.1081    0.0000 C   0  0  0  0  0  0  0  0  0  0  0  0
    1.8204   -5.3701    0.0000 C   0  0  0  0  0  0  0  0  0  0  0  0
    0.4779   -5.3701    0.0000 C   0  0  0  0  0  0  0  0  0  0  0  0
    3.4852   -3.7053    0.0000 O   0  0  0  0  0  0  0  0  0  0  0  0
    1.1492   -1.9816    0.0000 C   0  0  0  0  0  0  0  0  0  0  0  0
    0.0000   -1.3425    0.0000 C   0  0  0  0  0  0  0  0  0  0  0  0
    0.0000    0.0000    0.0000 O   0  0  0  0  0  0  0  0  0  0  0  0
  1  2  1  0  0  0  0
  1  3  1  0  0  0  0
  1  7  1  0  0  0  0
  2  4  1  0  0  0  0
  2  6  2  0  0  0  0
  3  5  1  0  0  0  0
  4  5  1  0  0  0  0
  7  8  1  0  0  0  0
  8  9  1  0  0  0  0
M  END
> <ID>
10569

> <Formula>
C6H11NO2

> <FW>
129.157

> <DSSTox_CID>
24922

> <DSSTox_RID>
80588

> <DSSTox_GSID>
44922

> <DSSTox_FileID_Sort>
5270

> <TS_ChemName>
1-(2-Hydroxyethyl)pyrrolidin-2-one

> <TS_ChemName_Synonyms>
2-Pyrrolidinone, 1-(2-hydroxyethyl)-

> <TS_CASRN>
3445-11-2

> <CASRN_ChemName_Relationship>
primary

> <TS_Description>
single chemical compound

> <ChemNote>


> <STRUCTURE_Shown>
tested chemical

> <STRUCTURE_Formula>
C6H11NO2

> <STRUCTURE_MW>
129.157

> <STRUCTURE_ChemType>
defined organic

> <STRUCTURE_DefinedOrganicForm>
parent

> <STRUCTURE_IUPAC>
1-(2-hydroxyethyl)pyrrolidin-2-one

> <STRUCTURE_SMILES>
O=C1CCCN1CCO

> <STRUCTURE_SMILES_Desalt>
O=C1CCCN1CCO

> <Substance_modify_yyyymmdd>
20091116

$$$$
