344790-87-0
ChemmineR-0915142007XD

 13 12  0  0  0  0  0  0  0  0  2 V2000
    9.1864   -2.9430    0.0000 C   0  0  0  0  0  0  0  0  0  0  0  0
   10.5108   -2.9430    0.0000 N   0  0  0  0  0  0  0  0  0  0  0  0
    7.8621   -2.9430    0.0000 S   0  5  0  0  0  0  0  0  0  0  0  0
    6.6218   -1.0616    0.0000 N   0  3  0  0  0  0  0  0  0  0  0  0
    4.6037   -1.7343    0.0000 N   0  0  0  0  0  0  0  0  0  0  0  0
    5.8440   -2.1652    0.0000 C   0  0  0  0  0  0  0  0  0  0  0  0
    5.8440    0.0000    0.0000 C   0  0  0  0  0  0  0  0  0  0  0  0
    4.6037   -0.4309    0.0000 C   0  0  0  0  0  0  0  0  0  0  0  0
    3.5001   -2.5331    0.0000 C   0  0  0  0  0  0  0  0  0  0  0  0
    2.2914   -1.9550    0.0000 C   0  0  0  0  0  0  0  0  0  0  0  0
    1.2298   -2.7328    0.0000 C   0  0  0  0  0  0  0  0  0  0  0  0
    0.0000   -2.1968    0.0000 C   0  0  0  0  0  0  0  0  0  0  0  0
    7.9777   -1.0616    0.0000 C   0  0  0  0  0  0  0  0  0  0  0  0
  1  2  3  0  0  0  0
  1  3  1  0  0  0  0
  4  6  2  0  0  0  0
  4  7  1  0  0  0  0
  4 13  1  0  0  0  0
  5  6  1  0  0  0  0
  5  8  1  0  0  0  0
  5  9  1  0  0  0  0
  7  8  2  0  0  0  0
  9 10  1  0  0  0  0
 10 11  1  0  0  0  0
 11 12  1  0  0  0  0
M  END
> <ID>
12989

> <Formula>
C9H15N3S

> <FW>
197.3005 (58.0829+139.2176)

> <DSSTox_CID>
27890

> <DSSTox_RID>
82643

> <DSSTox_GSID>
47914

> <DSSTox_FileID_Sort>
7320

> <TS_ChemName>
1-Butyl-3-methylimidazolium thiocyanate

> <TS_ChemName_Synonyms>


> <TS_CASRN>
344790-87-0

> <CASRN_ChemName_Relationship>
primary

> <TS_Description>
single chemical compound

> <ChemNote>
ammonium; parent [80432-08-2]

> <STRUCTURE_Shown>
tested chemical

> <STRUCTURE_Formula>
C9H15N3S

> <STRUCTURE_MW>
197.3005

> <STRUCTURE_ChemType>
defined organic

> <STRUCTURE_DefinedOrganicForm>
salt

> <STRUCTURE_IUPAC>
1-butyl-3-methyl-1H-imidazol-3-ium thiocyanate

> <STRUCTURE_SMILES>
CCCCn1cc[n+](C)c1.[S-]C#N

> <STRUCTURE_SMILES_Desalt>
CCCCn1cc[n+](C)c1

> <Substance_modify_yyyymmdd>
20110419

$$$$
