344774-05-6
ChemmineR-0915142007XD

 25 24  0  0  0  0  0  0  0  0  2 V2000
   11.8893   -2.7779    0.0000 C   0  0  0  0  0  0  0  0  0  0  0  0
   12.5560   -1.6350    0.0000 C   0  0  0  0  0  0  0  0  0  0  0  0
   13.8894   -1.6350    0.0000 C   0  0  0  0  0  0  0  0  0  0  0  0
   14.5402   -2.7779    0.0000 C   0  0  0  0  0  0  0  0  0  0  0  0
   13.8894   -3.9367    0.0000 C   0  0  0  0  0  0  0  0  0  0  0  0
   12.5560   -3.9367    0.0000 C   0  0  0  0  0  0  0  0  0  0  0  0
   15.8736   -2.7779    0.0000 C   0  0  0  0  0  0  0  0  0  0  0  0
   10.5559   -2.7779    0.0000 S   0  0  0  0  0  0  0  0  0  0  0  0
   10.5559   -1.4604    0.0000 O   0  5  0  0  0  0  0  0  0  0  0  0
   10.5559   -4.1113    0.0000 O   0  0  0  0  0  0  0  0  0  0  0  0
    9.2226   -2.7779    0.0000 O   0  0  0  0  0  0  0  0  0  0  0  0
    3.3335   -2.3017    0.0000 P   0  3  0  0  0  0  0  0  0  0  0  0
    4.6668   -2.3017    0.0000 C   0  0  0  0  0  0  0  0  0  0  0  0
    3.3335   -0.9683    0.0000 C   0  0  0  0  0  0  0  0  0  0  0  0
    3.3335   -3.6351    0.0000 C   0  0  0  0  0  0  0  0  0  0  0  0
    2.0001   -2.3017    0.0000 C   0  0  0  0  0  0  0  0  0  0  0  0
    2.1747   -4.3017    0.0000 C   0  0  0  0  0  0  0  0  0  0  0  0
    1.3334   -1.1429    0.0000 C   0  0  0  0  0  0  0  0  0  0  0  0
    5.3177   -3.4604    0.0000 C   0  0  0  0  0  0  0  0  0  0  0  0
    2.1747   -5.6351    0.0000 C   0  0  0  0  0  0  0  0  0  0  0  0
    1.0318   -3.6351    0.0000 C   0  0  0  0  0  0  0  0  0  0  0  0
    0.0000   -1.1429    0.0000 C   0  0  0  0  0  0  0  0  0  0  0  0
    2.0001    0.0000    0.0000 C   0  0  0  0  0  0  0  0  0  0  0  0
    6.6510   -3.4604    0.0000 C   0  0  0  0  0  0  0  0  0  0  0  0
    4.6668   -4.6033    0.0000 C   0  0  0  0  0  0  0  0  0  0  0  0
  1  6  2  0  0  0  0
  1  2  1  0  0  0  0
  1  8  1  0  0  0  0
  2  3  2  0  0  0  0
  3  4  1  0  0  0  0
  4  7  1  0  0  0  0
  4  5  2  0  0  0  0
  5  6  1  0  0  0  0
  8  9  1  0  0  0  0
  8 10  2  0  0  0  0
  8 11  2  0  0  0  0
 12 13  1  0  0  0  0
 12 14  1  0  0  0  0
 12 15  1  0  0  0  0
 12 16  1  0  0  0  0
 13 19  1  0  0  0  0
 15 17  1  0  0  0  0
 16 18  1  0  0  0  0
 17 20  1  0  0  0  0
 17 21  1  0  0  0  0
 18 22  1  0  0  0  0
 18 23  1  0  0  0  0
 19 24  1  0  0  0  0
 19 25  1  0  0  0  0
M  END
> <ID>
12974

> <Formula>
C20H37O3PS

> <FW>
388.5447 (171.1942+217.3505)

> <DSSTox_CID>
27875

> <DSSTox_RID>
82628

> <DSSTox_GSID>
47899

> <DSSTox_FileID_Sort>
7305

> <TS_ChemName>
Triisobutylmethylphosphonium tosylate

> <TS_ChemName_Synonyms>


> <TS_CASRN>
344774-05-6

> <CASRN_ChemName_Relationship>
primary

> <TS_Description>
single chemical compound

> <ChemNote>
phosphonium; parent [344774-04-5]

> <STRUCTURE_Shown>
tested chemical

> <STRUCTURE_Formula>
C20H37O3PS

> <STRUCTURE_MW>
388.5447

> <STRUCTURE_ChemType>
defined organic

> <STRUCTURE_DefinedOrganicForm>
complex

> <STRUCTURE_IUPAC>
methyl[tris(2-methylpropyl)]phosphonium 4-methylbenzenesulfonate

> <STRUCTURE_SMILES>
Cc1ccc(cc1)S(=O)([O-])=O.CC(C)C[P+](C)(CC(C)C)CC(C)C

> <STRUCTURE_SMILES_Desalt>
CC(C)C[P+](C)(CC(C)C)CC(C)C

> <Substance_modify_yyyymmdd>
20110419

$$$$
