34487-61-1
ChemmineR-0915142007XD

 26 28  0  0  0  0  0  0  0  0  2 V2000
    8.3703   -1.4899    0.0000 Na   0  3  0  0  0  0  0  0  0  0  0  0
    1.4229   -5.3821    0.0000 S    0  0  0  0  0  0  0  0  0  0  0  0
    2.7371   -5.5244    0.0000 O    0  0  0  0  0  0  0  0  0  0  0  0
    3.2811   -4.3107    0.0000 C    0  0  0  0  0  0  0  0  0  0  0  0
    4.4362   -4.9636    0.0000 C    0  0  0  0  0  0  0  0  0  0  0  0
    5.5830   -4.3107    0.0000 C    0  0  0  0  0  0  0  0  0  0  0  0
    6.7381   -4.9636    0.0000 C    0  0  0  0  0  0  0  0  0  0  0  0
    6.7381   -6.3112    0.0000 C    0  0  0  0  0  0  0  0  0  0  0  0
    5.5830   -6.9641    0.0000 C    0  0  0  0  0  0  0  0  0  0  0  0
    4.4362   -6.3112    0.0000 C    0  0  0  0  0  0  0  0  0  0  0  0
    7.8932   -6.9641    0.0000 O    0  0  0  0  0  0  0  0  0  0  0  0
    4.0679   -3.2309    0.0000 C    0  0  0  0  0  0  0  0  0  0  0  0
    3.5239   -2.0172    0.0000 C    0  0  0  0  0  0  0  0  0  0  0  0
    4.3023   -0.9458    0.0000 C    0  0  0  0  0  0  0  0  0  0  0  0
    5.6332   -1.0881    0.0000 C    0  0  0  0  0  0  0  0  0  0  0  0
    6.1605   -2.2935    0.0000 C    0  0  0  0  0  0  0  0  0  0  0  0
    5.3904   -3.3816    0.0000 C    0  0  0  0  0  0  0  0  0  0  0  0
    6.4200    0.0000    0.0000 O    0  5  0  0  0  0  0  0  0  0  0  0
    2.3018   -3.4234    0.0000 C    0  0  0  0  0  0  0  0  0  0  0  0
    1.1551   -4.0847    0.0000 C    0  0  0  0  0  0  0  0  0  0  0  0
    0.0000   -3.4234    0.0000 C    0  0  0  0  0  0  0  0  0  0  0  0
    0.0000   -2.0842    0.0000 C    0  0  0  0  0  0  0  0  0  0  0  0
    1.1551   -1.4229    0.0000 C    0  0  0  0  0  0  0  0  0  0  0  0
    2.3018   -2.0842    0.0000 C    0  0  0  0  0  0  0  0  0  0  0  0
    1.4229   -6.7046    0.0000 O    0  0  0  0  0  0  0  0  0  0  0  0
    0.0921   -5.5244    0.0000 O    0  0  0  0  0  0  0  0  0  0  0  0
  2  3  1  0  0  0  0
  2 20  1  0  0  0  0
  2 25  2  0  0  0  0
  2 26  2  0  0  0  0
  3  4  1  0  0  0  0
  4  5  1  0  0  0  0
  4 12  1  0  0  0  0
  4 19  1  0  0  0  0
  5  6  1  0  0  0  0
  5 10  2  0  0  0  0
  6  7  2  0  0  0  0
  7  8  1  0  0  0  0
  8  9  2  0  0  0  0
  8 11  1  0  0  0  0
  9 10  1  0  0  0  0
 12 13  2  0  0  0  0
 12 17  1  0  0  0  0
 13 14  1  0  0  0  0
 14 15  2  0  0  0  0
 15 16  1  0  0  0  0
 15 18  1  0  0  0  0
 16 17  2  0  0  0  0
 19 20  2  0  0  0  0
 19 24  1  0  0  0  0
 20 21  1  0  0  0  0
 21 22  2  0  0  0  0
 22 23  1  0  0  0  0
 23 24  2  0  0  0  0
M  END
> <ID>
10077

> <Formula>
C19H13NaO5S

> <FW>
376.3583 (22.9892+353.3691)

> <DSSTox_CID>
24420

> <DSSTox_RID>
80214

> <DSSTox_GSID>
44420

> <DSSTox_FileID_Sort>
4896

> <TS_ChemName>
Phenol Red sodium salt

> <TS_ChemName_Synonyms>
Phenol Red sodium salt (Phenol, 4,4'-(3H-2,1-benzoxathiol-3-ylidene)bis-, S,S-dioxide, monosodium salt)

> <TS_CASRN>
34487-61-1

> <CASRN_ChemName_Relationship>
primary

> <TS_Description>
single chemical compound

> <ChemNote>
parent [147-74-8]

> <STRUCTURE_Shown>
tested chemical

> <STRUCTURE_Formula>
C19H13NaO5S

> <STRUCTURE_MW>
376.3583

> <STRUCTURE_ChemType>
defined organic

> <STRUCTURE_DefinedOrganicForm>
salt

> <STRUCTURE_IUPAC>
sodium 4-[3-(4-hydroxyphenyl)-1,1-dioxido-3H-2,1-benzoxathiol-3-yl]phenolate

> <STRUCTURE_SMILES>
[Na+].Oc1ccc(cc1)C3(OS(=O)(=O)c2ccccc23)c4ccc([O-])cc4

> <STRUCTURE_SMILES_Desalt>
Oc1ccc(cc1)C3(OS(=O)(=O)c2ccccc23)c4ccc(O)cc4

> <Substance_modify_yyyymmdd>
20091116

$$$$
