34493-98-6
ChemmineR-0915142007XD

 31 33  0  0  1  0  0  0  0  0  1 V2000
    3.9903   -1.1439    0.0000 N   0  0  0  0  0  0  0  0  0  0  0  0
    3.3252   -2.3010    0.0000 C   0  0  0  0  0  0  0  0  0  0  0  0
    1.9951   -2.3010    0.0000 C   0  0  0  0  0  0  0  0  0  0  0  0
    1.3301   -3.4582    0.0000 C   0  0  0  0  0  0  0  0  0  0  0  0
    1.9951   -4.6021    0.0000 C   0  0  0  0  0  0  0  0  0  0  0  0
    1.3301   -5.7593    0.0000 C   0  0  0  0  0  0  0  0  0  0  0  0
    0.0000   -5.7593    0.0000 N   0  0  0  0  0  0  0  0  0  0  0  0
    3.3252   -4.6021    0.0000 O   0  0  0  0  0  0  0  0  0  0  0  0
    3.9903   -3.4582    0.0000 C   0  0  0  0  0  0  0  0  0  0  0  0
    5.3203   -3.4582    0.0000 O   0  0  0  0  0  0  0  0  0  0  0  0
    5.9854   -4.6021    0.0000 C   0  0  0  0  0  0  0  0  0  0  0  0
    7.3155   -4.6021    0.0000 C   0  0  0  0  0  0  0  0  0  0  0  0
    7.9805   -3.4582    0.0000 O   0  0  0  0  0  0  0  0  0  0  0  0
    7.9805   -5.7593    0.0000 C   0  0  0  0  0  0  0  0  0  0  0  0
    9.3106   -5.7593    0.0000 O   0  0  0  0  0  0  0  0  0  0  0  0
    9.9756   -4.6021    0.0000 C   0  0  0  0  0  0  0  0  0  0  0  0
    9.3106   -3.4582    0.0000 O   0  0  0  0  0  0  0  0  0  0  0  0
    9.9756   -2.3010    0.0000 C   0  0  0  0  0  0  0  0  0  0  0  0
    9.3106   -1.1439    0.0000 C   0  0  0  0  0  0  0  0  0  0  0  0
    9.9756    0.0000    0.0000 O   0  0  0  0  0  0  0  0  0  0  0  0
   11.3057   -2.3010    0.0000 C   0  0  0  0  0  0  0  0  0  0  0  0
   11.9708   -1.1439    0.0000 O   0  0  0  0  0  0  0  0  0  0  0  0
   11.9708   -3.4582    0.0000 C   0  0  0  0  0  0  0  0  0  0  0  0
   13.3009   -3.4582    0.0000 N   0  0  0  0  0  0  0  0  0  0  0  0
   11.3057   -4.6021    0.0000 C   0  0  0  0  0  0  0  0  0  0  0  0
   11.9708   -5.7593    0.0000 O   0  0  0  0  0  0  0  0  0  0  0  0
    7.3155   -6.9031    0.0000 C   0  0  0  0  0  0  0  0  0  0  0  0
    7.9805   -8.0603    0.0000 N   0  0  0  0  0  0  0  0  0  0  0  0
    5.9854   -6.9031    0.0000 C   0  0  0  0  0  0  0  0  0  0  0  0
    5.3203   -5.7593    0.0000 C   0  0  0  0  0  0  0  0  0  0  0  0
    3.9903   -5.7593    0.0000 N   0  0  0  0  0  0  0  0  0  0  0  0
  2  1  1  1  0  0  0
  2  3  1  0  0  0  0
  2  9  1  0  0  0  0
  3  4  1  0  0  0  0
  4  5  1  0  0  0  0
  5  6  1  6  0  0  0
  5  8  1  0  0  0  0
  6  7  1  0  0  0  0
  8  9  1  0  0  0  0
  9 10  1  1  0  0  0
 11 10  1  1  0  0  0
 11 12  1  0  0  0  0
 11 30  1  0  0  0  0
 12 13  1  6  0  0  0
 12 14  1  0  0  0  0
 14 15  1  1  0  0  0
 14 27  1  0  0  0  0
 16 15  1  1  0  0  0
 16 17  1  0  0  0  0
 16 25  1  0  0  0  0
 17 18  1  0  0  0  0
 18 19  1  6  0  0  0
 18 21  1  0  0  0  0
 19 20  1  0  0  0  0
 21 22  1  1  0  0  0
 21 23  1  0  0  0  0
 23 24  1  6  0  0  0
 23 25  1  0  0  0  0
 25 26  1  1  0  0  0
 27 28  1  6  0  0  0
 27 29  1  0  0  0  0
 29 30  1  0  0  0  0
 30 31  1  6  0  0  0
M  END
> <ID>
2628

> <Formula>
C18H37N5O8

> <FW>
451.5151

> <DSSTox_CID>
2915

> <DSSTox_RID>
76787

> <DSSTox_GSID>
22915

> <DSSTox_FileID_Sort>
1471

> <TS_ChemName>
Dibekacin

> <TS_ChemName_Synonyms>


> <TS_CASRN>
34493-98-6

> <CASRN_ChemName_Relationship>
primary

> <TS_Description>
single chemical compound

> <ChemNote>
stereochem

> <STRUCTURE_Shown>
tested chemical

> <STRUCTURE_Formula>
C18H37N5O8

> <STRUCTURE_MW>
451.5151

> <STRUCTURE_ChemType>
defined organic

> <STRUCTURE_DefinedOrganicForm>
parent

> <STRUCTURE_IUPAC>
(1R,2S,3S,4R,6S)-4,6-diamino-3-[(3-amino-3-deoxy-alpha-D-glucopyranosyl)oxy]-2-hydroxycyclohexyl 2,6-diamino-2,3,4,6-tetradeoxy-alpha-D-erythro-hexopyranoside

> <STRUCTURE_SMILES>
N[C@@H]3CC[C@@H](CN)O[C@@H]3O[C@H]2[C@H](O)[C@@H](O[C@H]1O[C@H](CO)[C@@H](O)[C@H](N)[C@H]1O)[C@H](N)C[C@@H]2N

> <STRUCTURE_SMILES_Desalt>
N[C@@H]3CC[C@@H](CN)O[C@@H]3O[C@H]2[C@H](O)[C@@H](O[C@H]1O[C@H](CO)[C@@H](O)[C@H](N)[C@H]1O)[C@H](N)C[C@@H]2N

> <Substance_modify_yyyymmdd>
20080429

$$$$
