344930-95-6
ChemmineR-0915142007XD

 39 43  0  0  0  0  0  0  0  0  1 V2000
   10.8359   -8.0561    0.0000 C   0  0  0  0  0  0  0  0  0  0  0  0
   11.4971   -9.2166    0.0000 N   0  0  0  0  0  0  0  0  0  0  0  0
    9.5000   -8.0561    0.0000 N   0  0  0  0  0  0  0  0  0  0  0  0
   10.8359  -10.3636    0.0000 C   0  0  0  0  0  0  0  0  0  0  0  0
    8.8252   -9.2166    0.0000 C   0  0  0  0  0  0  0  0  0  0  0  0
    9.5000  -10.3636    0.0000 C   0  0  0  0  0  0  0  0  0  0  0  0
   11.4971   -6.9226    0.0000 C   0  0  0  0  0  0  0  0  0  0  0  0
   12.8195   -6.9226    0.0000 C   0  0  0  0  0  0  0  0  0  0  0  0
   12.8195   -9.2166    0.0000 C   0  0  0  0  0  0  0  0  0  0  0  0
   13.4943   -8.0561    0.0000 C   0  0  0  0  0  0  0  0  0  0  0  0
   11.4971  -11.5241    0.0000 O   0  0  0  0  0  0  0  0  0  0  0  0
    7.5028   -9.2166    0.0000 O   0  0  0  0  0  0  0  0  0  0  0  0
    6.8416   -8.0561    0.0000 C   0  0  0  0  0  0  0  0  0  0  0  0
    5.5191   -8.0561    0.0000 N   0  0  0  0  0  0  0  0  0  0  0  0
    2.3075   -6.7336    0.0000 C   0  0  0  0  0  0  0  0  0  0  0  0
    3.4680   -7.4083    0.0000 C   0  0  0  0  0  0  0  0  0  0  0  0
    1.1605   -7.4083    0.0000 C   0  0  0  0  0  0  0  0  0  0  0  0
    3.4680   -8.7308    0.0000 C   0  0  0  0  0  0  0  0  0  0  0  0
    1.1605   -8.7308    0.0000 C   0  0  0  0  0  0  0  0  0  0  0  0
    2.3075   -9.3920    0.0000 C   0  0  0  0  0  0  0  0  0  0  0  0
    4.7230   -6.9900    0.0000 S   0  0  0  0  0  0  0  0  0  0  0  0
    4.7230   -9.1491    0.0000 C   0  0  0  0  0  0  0  0  0  0  0  0
    5.1278  -10.4176    0.0000 O   0  0  0  0  0  0  0  0  0  0  0  0
    2.3075  -10.7279    0.0000 C   0  0  0  0  0  0  0  0  0  0  0  0
    1.1605  -11.3892    0.0000 C   0  0  0  0  0  0  0  0  0  0  0  0
    3.4680  -11.3892    0.0000 C   0  0  0  0  0  0  0  0  0  0  0  0
    5.7081   -6.1129    0.0000 O   0  0  0  0  0  0  0  0  0  0  0  0
    4.4531   -5.6946    0.0000 O   0  0  0  0  0  0  0  0  0  0  0  0
    0.0000   -6.7336    0.0000 O   0  0  0  0  0  0  0  0  0  0  0  0
    0.0000   -5.3977    0.0000 C   0  0  0  0  0  0  0  0  0  0  0  0
   10.8359   -5.7755    0.0000 O   0  0  0  0  0  0  0  0  0  0  0  0
   11.4971   -4.6150    0.0000 C   0  0  0  0  0  0  0  0  0  0  0  0
   10.8359   -3.4680    0.0000 C   0  0  0  0  0  0  0  0  0  0  0  0
   11.4971   -2.3075    0.0000 N   0  0  0  0  0  0  0  0  0  0  0  0
   12.8195    0.0000    0.0000 C   0  0  0  0  0  0  0  0  0  0  0  0
   11.4971    0.0000    0.0000 C   0  0  0  0  0  0  0  0  0  0  0  0
   13.4943   -1.1605    0.0000 C   0  0  0  0  0  0  0  0  0  0  0  0
   10.8359   -1.1605    0.0000 C   0  0  0  0  0  0  0  0  0  0  0  0
   12.8195   -2.3075    0.0000 C   0  0  0  0  0  0  0  0  0  0  0  0
  1  3  2  0  0  0  0
  1  7  1  0  0  0  0
  1  2  1  0  0  0  0
  2  4  1  0  0  0  0
  2  9  1  0  0  0  0
  3  5  1  0  0  0  0
  4  6  1  0  0  0  0
  4 11  2  0  0  0  0
  5  6  2  0  0  0  0
  5 12  1  0  0  0  0
  7  8  2  0  0  0  0
  7 31  1  0  0  0  0
  8 10  1  0  0  0  0
  9 10  2  0  0  0  0
 12 13  1  0  0  0  0
 13 14  1  0  0  0  0
 14 21  1  0  0  0  0
 14 22  1  0  0  0  0
 15 16  1  0  0  0  0
 15 17  2  0  0  0  0
 16 18  2  0  0  0  0
 16 21  1  0  0  0  0
 17 19  1  0  0  0  0
 17 29  1  0  0  0  0
 18 20  1  0  0  0  0
 18 22  1  0  0  0  0
 19 20  2  0  0  0  0
 20 24  1  0  0  0  0
 21 27  2  0  0  0  0
 21 28  2  0  0  0  0
 22 23  2  0  0  0  0
 24 25  1  0  0  0  0
 24 26  1  0  0  0  0
 29 30  1  0  0  0  0
 31 32  1  0  0  0  0
 32 33  1  0  0  0  0
 33 34  1  0  0  0  0
 34 38  1  0  0  0  0
 34 39  1  0  0  0  0
 35 36  1  0  0  0  0
 35 37  1  0  0  0  0
 36 38  1  0  0  0  0
 37 39  1  0  0  0  0
M  END
> <ID>
12510

> <Formula>
C27H32N4O7S

> <FW>
556.6306

> <DSSTox_CID>
27368

> <DSSTox_RID>
82301

> <DSSTox_GSID>
47368

> <DSSTox_FileID_Sort>
6982

> <TS_ChemName>
SSR69071

> <TS_ChemName_Synonyms>


> <TS_CASRN>
344930-95-6

> <CASRN_ChemName_Relationship>
primary

> <TS_Description>
single chemical compound

> <ChemNote>


> <STRUCTURE_Shown>
tested chemical

> <STRUCTURE_Formula>
C27H32N4O7S

> <STRUCTURE_MW>
556.6306

> <STRUCTURE_ChemType>
defined organic

> <STRUCTURE_DefinedOrganicForm>
parent

> <STRUCTURE_IUPAC>
2-{[6-methoxy-1,1-dioxido-3-oxo-4-(propan-2-yl)-1,2-benzothiazol-2(3H)-yl]methoxy}-9-[2-(piperidin-1-yl)ethoxy]-4H-pyrido[1,2-a]pyrimidin-4-one

> <STRUCTURE_SMILES>
CC(C)c1cc(cc5c1C(=O)N(COC3=CC(=O)N4C=CC=C(OCCN2CCCCC2)C4=N3)S5(=O)=O)OC

> <STRUCTURE_SMILES_Desalt>
CC(C)c1cc(cc5c1C(=O)N(COC3=CC(=O)N4C=CC=C(OCCN2CCCCC2)C4=N3)S5(=O)=O)OC

> <Substance_modify_yyyymmdd>
20130910

$$$$
