3452-97-9
ChemmineR-0915142007XD

 10  9  0  0  0  0  0  0  0  0  1 V2000
    1.3350    0.0000    0.0000 C   0  0  0  0  0  0  0  0  0  0  0  0
    2.0025   -1.1347    0.0000 C   0  0  0  0  0  0  0  0  0  0  0  0
    3.3374   -1.1347    0.0000 C   0  0  0  0  0  0  0  0  0  0  0  0
    4.0116   -2.2895    0.0000 C   0  0  0  0  0  0  0  0  0  0  0  0
    5.3399   -2.2895    0.0000 C   0  0  0  0  0  0  0  0  0  0  0  0
    6.6749   -2.2895    0.0000 C   0  0  0  0  0  0  0  0  0  0  0  0
    0.0000    0.0000    0.0000 O   0  0  0  0  0  0  0  0  0  0  0  0
    4.0116    0.0000    0.0000 C   0  0  0  0  0  0  0  0  0  0  0  0
    5.3399   -0.9612    0.0000 C   0  0  0  0  0  0  0  0  0  0  0  0
    5.3399   -3.6245    0.0000 C   0  0  0  0  0  0  0  0  0  0  0  0
  1  2  1  0  0  0  0
  1  7  1  0  0  0  0
  2  3  1  0  0  0  0
  3  4  1  0  0  0  0
  3  8  1  0  0  0  0
  4  5  1  0  0  0  0
  5  6  1  0  0  0  0
  5  9  1  0  0  0  0
  5 10  1  0  0  0  0
M  END
> <ID>
6110

> <Formula>
C9H20O

> <FW>
144.2545

> <DSSTox_CID>
9661

> <DSSTox_RID>
78799

> <DSSTox_GSID>
29661

> <DSSTox_FileID_Sort>
3481

> <TS_ChemName>
3,5,5-Trimethyl-1-hexanol

> <TS_ChemName_Synonyms>


> <TS_CASRN>
3452-97-9

> <CASRN_ChemName_Relationship>
primary

> <TS_Description>
single chemical compound

> <ChemNote>


> <STRUCTURE_Shown>
tested chemical

> <STRUCTURE_Formula>
C9H20O

> <STRUCTURE_MW>
144.2545

> <STRUCTURE_ChemType>
defined organic

> <STRUCTURE_DefinedOrganicForm>
parent

> <STRUCTURE_IUPAC>
3,5,5-trimethylhexan-1-ol

> <STRUCTURE_SMILES>
CC(C)(C)CC(C)CCO

> <STRUCTURE_SMILES_Desalt>
CC(C)(C)CC(C)CCO

> <Substance_modify_yyyymmdd>
20080429

$$$$
