34552-84-6
ChemmineR-0915142007XD

 23 25  0  0  0  0  0  0  0  0  1 V2000
    3.4437   -1.1672    0.0000 S   0  0  0  0  0  0  0  0  0  0  0  0
    4.5993   -1.8259    0.0000 N   0  0  0  0  0  0  0  0  0  0  0  0
    4.5993   -3.1548    0.0000 C   0  0  0  0  0  0  0  0  0  0  0  0
    3.4437   -3.8135    0.0000 C   0  0  0  0  0  0  0  0  0  0  0  0
    5.7665   -3.8251    0.0000 C   0  0  0  0  0  0  0  0  0  0  0  0
    2.2997   -1.8259    0.0000 C   0  0  0  0  0  0  0  0  0  0  0  0
    2.2997   -3.1548    0.0000 C   0  0  0  0  0  0  0  0  0  0  0  0
    8.0662   -3.8366    0.0000 C   0  0  0  0  0  0  0  0  0  0  0  0
    6.9106   -3.1664    0.0000 N   0  0  0  0  0  0  0  0  0  0  0  0
    8.3551   -5.1425    0.0000 N   0  0  0  0  0  0  0  0  0  0  0  0
    9.2334   -3.1895    0.0000 C   0  0  0  0  0  0  0  0  0  0  0  0
    4.1140    0.0000    0.0000 O   0  0  0  0  0  0  0  0  0  0  0  0
    2.8544   -0.0116    0.0000 O   0  0  0  0  0  0  0  0  0  0  0  0
    9.6725   -5.2812    0.0000 O   0  0  0  0  0  0  0  0  0  0  0  0
   10.2272   -4.0793    0.0000 C   0  0  0  0  0  0  0  0  0  0  0  0
    5.7665   -5.1656    0.0000 O   0  0  0  0  0  0  0  0  0  0  0  0
    3.4437   -5.1425    0.0000 O   0  0  0  0  0  0  0  0  0  0  0  0
    5.7665   -1.1556    0.0000 C   0  0  0  0  0  0  0  0  0  0  0  0
    1.1672   -3.8135    0.0000 C   0  0  0  0  0  0  0  0  0  0  0  0
    1.1672   -1.1672    0.0000 C   0  0  0  0  0  0  0  0  0  0  0  0
   11.5561   -3.8598    0.0000 C   0  0  0  0  0  0  0  0  0  0  0  0
    0.0000   -3.1548    0.0000 C   0  0  0  0  0  0  0  0  0  0  0  0
    0.0000   -1.8259    0.0000 C   0  0  0  0  0  0  0  0  0  0  0  0
  1  2  1  0  0  0  0
  1  6  1  0  0  0  0
  1 12  2  0  0  0  0
  1 13  2  0  0  0  0
  2  3  1  0  0  0  0
  2 18  1  0  0  0  0
  3  5  1  0  0  0  0
  3  4  2  0  0  0  0
  4  7  1  0  0  0  0
  4 17  1  0  0  0  0
  5  9  1  0  0  0  0
  5 16  2  0  0  0  0
  6  7  2  0  0  0  0
  6 20  1  0  0  0  0
  7 19  1  0  0  0  0
  8  9  1  0  0  0  0
  8 10  2  0  0  0  0
  8 11  1  0  0  0  0
 10 14  1  0  0  0  0
 11 15  2  0  0  0  0
 14 15  1  0  0  0  0
 15 21  1  0  0  0  0
 19 22  2  0  0  0  0
 20 23  2  0  0  0  0
 22 23  1  0  0  0  0
M  END
> <ID>
10961

> <Formula>
C14H13N3O5S

> <FW>
335.3351

> <DSSTox_CID>
25462

> <DSSTox_RID>
80893

> <DSSTox_GSID>
45462

> <DSSTox_FileID_Sort>
5574

> <TS_ChemName>
Isoxicam

> <TS_ChemName_Synonyms>


> <TS_CASRN>
34552-84-6

> <CASRN_ChemName_Relationship>
primary

> <TS_Description>
single chemical compound

> <ChemNote>
stereochem; tautomers

> <STRUCTURE_Shown>
tested chemical

> <STRUCTURE_Formula>
C14H13N3O5S

> <STRUCTURE_MW>
335.3351

> <STRUCTURE_ChemType>
defined organic

> <STRUCTURE_DefinedOrganicForm>
parent

> <STRUCTURE_IUPAC>
4-hydroxy-2-methyl-N-(5-methyl-1,2-oxazol-3-yl)-2H-1,2-benzothiazine-3-carboxamide 1,1-dioxide

> <STRUCTURE_SMILES>
Cc1cc(no1)NC(=O)C3=C(O)c2ccccc2S(=O)(=O)N3C

> <STRUCTURE_SMILES_Desalt>
Cc1cc(no1)NC(=O)C3=C(O)c2ccccc2S(=O)(=O)N3C

> <Substance_modify_yyyymmdd>
20100107

$$$$
