3459-20-9
ChemmineR-0915142007XD

 22 22  0  0  0  0  0  0  0  0  2 V2000
    3.3282   -8.0570    0.0000 C    0  0  0  0  0  0  0  0  0  0  0  0
    3.9939   -9.2081    0.0000 S    0  0  0  0  0  0  0  0  0  0  0  0
    2.8428   -9.8737    0.0000 N    0  5  0  0  0  0  0  0  0  0  0  0
    2.8428  -11.2050    0.0000 C    0  0  0  0  0  0  0  0  0  0  0  0
    1.6918  -11.8706    0.0000 N    0  0  0  0  0  0  0  0  0  0  0  0
    1.6918  -13.2019    0.0000 C    0  0  0  0  0  0  0  0  0  0  0  0
    2.8428  -13.8675    0.0000 C    0  0  0  0  0  0  0  0  0  0  0  0
    3.9939  -13.2019    0.0000 C    0  0  0  0  0  0  0  0  0  0  0  0
    3.9939  -11.8706    0.0000 N    0  0  0  0  0  0  0  0  0  0  0  0
    5.1449   -8.5424    0.0000 O    0  0  0  0  0  0  0  0  0  0  0  0
    4.6595  -10.3591    0.0000 O    0  0  0  0  0  0  0  0  0  0  0  0
    3.9939   -6.9060    0.0000 C    0  0  0  0  0  0  0  0  0  0  0  0
    3.3282   -5.7550    0.0000 C    0  0  0  0  0  0  0  0  0  0  0  0
    3.9939   -4.6040    0.0000 O    0  0  0  0  0  0  0  0  0  0  0  0
    3.3282   -3.4530    0.0000 C    0  0  0  0  0  0  0  0  0  0  0  0
    3.9939   -2.3020    0.0000 C    0  0  0  0  0  0  0  0  0  0  0  0
    3.3282   -1.1510    0.0000 O    0  0  0  0  0  0  0  0  0  0  0  0
    3.9939    0.0000    0.0000 C    0  0  0  0  0  0  0  0  0  0  0  0
    1.9969   -5.7550    0.0000 C    0  0  0  0  0  0  0  0  0  0  0  0
    1.3313   -6.9060    0.0000 C    0  0  0  0  0  0  0  0  0  0  0  0
    1.9969   -8.0570    0.0000 C    0  0  0  0  0  0  0  0  0  0  0  0
    0.0000   -6.9060    0.0000 Na   0  3  0  0  0  0  0  0  0  0  0  0
  1  2  1  0  0  0  0
  1 12  1  0  0  0  0
  1 21  2  0  0  0  0
  2  3  1  0  0  0  0
  2 10  2  0  0  0  0
  2 11  2  0  0  0  0
  3  4  1  0  0  0  0
  4  5  1  0  0  0  0
  4  9  2  0  0  0  0
  5  6  2  0  0  0  0
  6  7  1  0  0  0  0
  7  8  2  0  0  0  0
  8  9  1  0  0  0  0
 12 13  2  0  0  0  0
 13 14  1  0  0  0  0
 13 19  1  0  0  0  0
 14 15  1  0  0  0  0
 15 16  1  0  0  0  0
 16 17  1  0  0  0  0
 17 18  1  0  0  0  0
 19 20  2  0  0  0  0
 20 21  1  0  0  0  0
M  END
> <ID>
16008

> <Formula>
C13H14N3NaO4S

> <FW>
331.3227 (308.3335+22.9892)

> <DSSTox_CID>
31390

> <DSSTox_RID>
97277

> <DSSTox_GSID>
57601

> <DSSTox_FileID_Sort>
8344

> <TS_ChemName>
Glymidine sodium

> <TS_ChemName_Synonyms>
2-Benzenesulfonamido-5-(beta-methoxyethoxy)pyrimidine sodium salt; Glyconormal

> <TS_CASRN>
3459-20-9

> <CASRN_ChemName_Relationship>
primary

> <TS_Description>
single chemical compound

> <ChemNote>


> <STRUCTURE_Shown>
tested chemical

> <STRUCTURE_Formula>
C13H14N3NaO4S

> <STRUCTURE_MW>
331.3227

> <STRUCTURE_ChemType>
defined organic

> <STRUCTURE_DefinedOrganicForm>
salt

> <STRUCTURE_IUPAC>
sodium {[3-(2-methoxyethoxy)phenyl]sulfonyl}(pyrimidin-2-yl)azanide

> <STRUCTURE_SMILES>
[Na+].O=S(=O)([N-]c1ncccn1)c2cc(OCCOC)ccc2

> <STRUCTURE_SMILES_Desalt>
O=S(=O)(Nc1ncccn1)c2cc(OCCOC)ccc2

> <Substance_modify_yyyymmdd>
20131018

$$$$
