345984-11-4
ChemmineR-0915142007XD

 15 14  0  0  0  0  0  0  0  0  2 V2000
    6.4410   -4.3473    0.0000 C   0  0  0  0  0  0  0  0  0  0  0  0
    1.7815   -3.1900    0.0000 C   0  0  0  0  0  0  0  0  0  0  0  0
    5.1162   -4.3473    0.0000 C   0  0  0  0  0  0  0  0  0  0  0  0
    4.4386   -3.1900    0.0000 C   0  0  0  0  0  0  0  0  0  0  0  0
    1.7815    0.0000    0.0000 C   0  0  0  0  0  0  0  0  0  0  0  0
    3.1063    0.0000    0.0000 C   0  0  0  0  0  0  0  0  0  0  0  0
    3.1063   -3.1900    0.0000 C   0  0  0  0  0  0  0  0  0  0  0  0
    1.3628   -1.2638    0.0000 C   0  0  0  0  0  0  0  0  0  0  0  0
    3.5250   -1.2638    0.0000 C   0  0  0  0  0  0  0  0  0  0  0  0
    2.4515   -2.0328    0.0000 N   0  3  0  0  0  0  0  0  0  0  0  0
    1.3323   -4.9563    0.0000 F   0  0  0  0  0  0  0  0  0  0  0  0
    2.6571   -6.2811    0.0000 F   0  0  0  0  0  0  0  0  0  0  0  0
    1.3323   -6.2811    0.0000 B   0  5  0  0  0  0  0  0  0  0  0  0
    0.0000   -6.2811    0.0000 F   0  0  0  0  0  0  0  0  0  0  0  0
    1.3323   -7.6134    0.0000 F   0  0  0  0  0  0  0  0  0  0  0  0
  1  3  1  0  0  0  0
  2 10  1  0  0  0  0
  3  4  1  0  0  0  0
  4  7  1  0  0  0  0
  5  6  1  0  0  0  0
  5  8  1  0  0  0  0
  6  9  1  0  0  0  0
  7 10  1  0  0  0  0
  8 10  1  0  0  0  0
  9 10  1  0  0  0  0
 11 13  1  0  0  0  0
 12 13  1  0  0  0  0
 13 14  1  0  0  0  0
 13 15  1  0  0  0  0
M  END
> <ID>
14139

> <Formula>
C9H20BF4N

> <FW>
229.0664 (142.2613+86.8052)

> <DSSTox_CID>
29132

> <DSSTox_RID>
83351

> <DSSTox_GSID>
49276

> <DSSTox_FileID_Sort>
8026

> <TS_ChemName>
1-Butyl-1-methylpyrrolidinium tetrafluoroborate

> <TS_ChemName_Synonyms>


> <TS_CASRN>
345984-11-4

> <CASRN_ChemName_Relationship>
primary

> <TS_Description>
single chemical compound

> <ChemNote>


> <STRUCTURE_Shown>
tested chemical

> <STRUCTURE_Formula>
C9H20BF4N

> <STRUCTURE_MW>
229.0664

> <STRUCTURE_ChemType>
defined organic

> <STRUCTURE_DefinedOrganicForm>
complex

> <STRUCTURE_IUPAC>
1-butyl-1-methylpyrrolidinium tetrafluoroborate

> <STRUCTURE_SMILES>
CCCC[N+]1(C)CCCC1.F[B-](F)(F)F

> <STRUCTURE_SMILES_Desalt>
CCCC[N+]1(C)CCCC1

> <Substance_modify_yyyymmdd>
20111204

$$$$
