34592-47-7
ChemmineR-0915142007XD

  8  8  0  0  1  0  0  0  0  0  1 V2000
    4.0415   -2.3036    0.0000 O   0  0  0  0  0  0  0  0  0  0  0  0
    3.3746   -1.1518    0.0000 C   0  0  0  0  0  0  0  0  0  0  0  0
    4.0415    0.0000    0.0000 O   0  0  0  0  0  0  0  0  0  0  0  0
    2.0450   -1.1518    0.0000 C   0  0  0  0  0  0  0  0  0  0  0  0
    1.2650   -2.2269    0.0000 C   0  0  0  0  0  0  0  0  0  0  0  0
    0.0000   -1.8187    0.0000 S   0  0  0  0  0  0  0  0  0  0  0  0
    0.0000   -0.4850    0.0000 C   0  0  0  0  0  0  0  0  0  0  0  0
    1.2650   -0.0768    0.0000 N   0  0  0  0  0  0  0  0  0  0  0  0
  1  2  1  0  0  0  0
  2  3  2  0  0  0  0
  4  2  1  6  0  0  0
  4  5  1  0  0  0  0
  4  8  1  0  0  0  0
  5  6  1  0  0  0  0
  6  7  1  0  0  0  0
  7  8  1  0  0  0  0
M  END
> <ID>
11766

> <Formula>
C4H7NO2S

> <FW>
133.1689

> <DSSTox_CID>
26536

> <DSSTox_RID>
81700

> <DSSTox_GSID>
46536

> <DSSTox_FileID_Sort>
6381

> <TS_ChemName>
L-Thioproline

> <TS_ChemName_Synonyms>


> <TS_CASRN>
34592-47-7

> <CASRN_ChemName_Relationship>
primary

> <TS_Description>
single chemical compound

> <ChemNote>
stereochem

> <STRUCTURE_Shown>
tested chemical

> <STRUCTURE_Formula>
C4H7NO2S

> <STRUCTURE_MW>
133.1689

> <STRUCTURE_ChemType>
defined organic

> <STRUCTURE_DefinedOrganicForm>
parent

> <STRUCTURE_IUPAC>
(4R)-1,3-thiazolidine-4-carboxylic acid

> <STRUCTURE_SMILES>
O=C(O)[C@@H]1CSCN1

> <STRUCTURE_SMILES_Desalt>
O=C(O)[C@@H]1CSCN1

> <Substance_modify_yyyymmdd>
20110811

$$$$
