34590-94-8
ChemmineR-0915142007XD

 10  9  0  0  0  0  0  0  0  0  1 V2000
    6.9375   -1.3320    0.0000 C   0  0  0  0  0  0  0  0  0  0  0  0
    8.0938   -1.9888    0.0000 C   0  0  0  0  0  0  0  0  0  0  0  0
    9.2500   -1.3320    0.0000 C   0  0  0  0  0  0  0  0  0  0  0  0
    6.9375    0.0000    0.0000 O   0  0  0  0  0  0  0  0  0  0  0  0
    5.7813   -1.9888    0.0000 O   0  0  0  0  0  0  0  0  0  0  0  0
    4.6250   -1.3320    0.0000 C   0  0  0  0  0  0  0  0  0  0  0  0
    3.4688   -1.9888    0.0000 C   0  0  0  0  0  0  0  0  0  0  0  0
    2.3125   -1.3320    0.0000 C   0  0  0  0  0  0  0  0  0  0  0  0
    1.1563   -1.9888    0.0000 O   0  0  0  0  0  0  0  0  0  0  0  0
    0.0000   -1.3320    0.0000 C   0  0  0  0  0  0  0  0  0  0  0  0
  1  2  1  0  0  0  0
  1  4  1  0  0  0  0
  1  5  1  0  0  0  0
  2  3  1  0  0  0  0
  5  6  1  0  0  0  0
  6  7  1  0  0  0  0
  7  8  1  0  0  0  0
  8  9  1  0  0  0  0
  9 10  1  0  0  0  0
M  END
> <ID>
5557

> <Formula>
C7H16O3

> <FW>
148.2001

> <DSSTox_CID>
7983

> <DSSTox_RID>
78632

> <DSSTox_GSID>
27983

> <DSSTox_FileID_Sort>
3314

> <TS_ChemName>
Propanol, 1(or 2)-(2-methoxymethylethoxy)-

> <TS_ChemName_Synonyms>
Propanol, 1(or 2)-(2-methoxymethylethoxy)- (Dipropylene glycol monomethyl ether)

> <TS_CASRN>
34590-94-8

> <CASRN_ChemName_Relationship>
primary

> <TS_Description>
mixture or formulation

> <ChemNote>
mixture of 1- and 2-(3-methoxypropoxy)propan-1-ol; structure shown 1-(3-methoxypropoxy)propan-1-ol

> <STRUCTURE_Shown>
representative isomer in mixture

> <STRUCTURE_Formula>
C7H16O3

> <STRUCTURE_MW>
148.2001

> <STRUCTURE_ChemType>
defined organic

> <STRUCTURE_DefinedOrganicForm>
parent

> <STRUCTURE_IUPAC>
1-(3-methoxypropoxy)propan-1-ol

> <STRUCTURE_SMILES>
COCCCOC(O)CC

> <STRUCTURE_SMILES_Desalt>
COCCCOC(O)CC

> <Substance_modify_yyyymmdd>
20080429

$$$$
