346-18-9
ChemmineR-0915142007XD

 25 26  0  0  0  0  0  0  0  0  1 V2000
    7.5760    0.0000    0.0000 O    0  0  0  0  0  0  0  0  0  0  0  0
    6.9046   -1.1529    0.0000 S    0  0  0  0  0  0  0  0  0  0  0  0
    6.2458    0.0000    0.0000 O    0  0  0  0  0  0  0  0  0  0  0  0
    5.7517   -1.8117    0.0000 N    0  0  0  0  0  0  0  0  0  0  0  0
    4.6115   -1.1529    0.0000 C    0  0  0  0  0  0  0  0  0  0  0  0
    5.7517   -3.1419    0.0000 C    0  0  0  0  0  0  0  0  0  0  0  0
    4.6115   -3.8133    0.0000 C    0  0  0  0  0  0  0  0  0  0  0  0
    3.4586   -3.1419    0.0000 S    0  0  0  0  0  0  0  0  0  0  0  0
    2.3057   -3.8133    0.0000 C    0  0  0  0  0  0  0  0  0  0  0  0
    1.1529   -3.1419    0.0000 C    0  0  0  0  0  0  0  0  0  0  0  0
    1.8117   -2.0017    0.0000 F    0  0  0  0  0  0  0  0  0  0  0  0
    0.0000   -2.4831    0.0000 F    0  0  0  0  0  0  0  0  0  0  0  0
    0.4814   -4.2948    0.0000 F    0  0  0  0  0  0  0  0  0  0  0  0
    6.9046   -3.8133    0.0000 N    0  0  0  0  0  0  0  0  0  0  0  0
    8.0574   -3.1419    0.0000 C    0  0  0  0  0  0  0  0  0  0  0  0
    9.2103   -3.8133    0.0000 C    0  0  0  0  0  0  0  0  0  0  0  0
   10.3632   -3.1419    0.0000 C    0  0  0  0  0  0  0  0  0  0  0  0
   11.5160   -3.8133    0.0000 Cl   0  0  0  0  0  0  0  0  0  0  0  0
   10.3632   -1.8117    0.0000 C    0  0  0  0  0  0  0  0  0  0  0  0
    9.2103   -1.1529    0.0000 C    0  0  0  0  0  0  0  0  0  0  0  0
    8.0574   -1.8117    0.0000 C    0  0  0  0  0  0  0  0  0  0  0  0
   11.5160   -1.1529    0.0000 S    0  0  0  0  0  0  0  0  0  0  0  0
   12.1748   -2.3057    0.0000 N    0  0  0  0  0  0  0  0  0  0  0  0
   12.6689   -0.4814    0.0000 O    0  0  0  0  0  0  0  0  0  0  0  0
   10.8446    0.0000    0.0000 O    0  0  0  0  0  0  0  0  0  0  0  0
  1  2  2  0  0  0  0
  2  3  2  0  0  0  0
  2  4  1  0  0  0  0
  2 21  1  0  0  0  0
  4  5  1  0  0  0  0
  4  6  1  0  0  0  0
  6  7  1  0  0  0  0
  6 14  1  0  0  0  0
  7  8  1  0  0  0  0
  8  9  1  0  0  0  0
  9 10  1  0  0  0  0
 10 11  1  0  0  0  0
 10 12  1  0  0  0  0
 10 13  1  0  0  0  0
 14 15  1  0  0  0  0
 15 16  1  0  0  0  0
 15 21  2  0  0  0  0
 16 17  2  0  0  0  0
 17 18  1  0  0  0  0
 17 19  1  0  0  0  0
 19 20  2  0  0  0  0
 19 22  1  0  0  0  0
 20 21  1  0  0  0  0
 22 23  1  0  0  0  0
 22 24  2  0  0  0  0
 22 25  2  0  0  0  0
M  END
> <ID>
4478

> <Formula>
C11H13ClF3N3O4S3

> <FW>
439.8818

> <DSSTox_CID>
5939

> <DSSTox_RID>
77972

> <DSSTox_GSID>
25939

> <DSSTox_FileID_Sort>
2655

> <TS_ChemName>
Polythiazide

> <TS_ChemName_Synonyms>


> <TS_CASRN>
346-18-9

> <CASRN_ChemName_Relationship>
primary

> <TS_Description>
polymer

> <ChemNote>


> <STRUCTURE_Shown>
monomer of polymer

> <STRUCTURE_Formula>
C11H13ClF3N3O4S3

> <STRUCTURE_MW>
439.8818

> <STRUCTURE_ChemType>
defined organic

> <STRUCTURE_DefinedOrganicForm>
parent

> <STRUCTURE_IUPAC>
6-chloro-2-methyl-3-{[(2,2,2-trifluoroethyl)sulfanyl]methyl}-3,4-dihydro-2H-1,2,4-benzothiadiazine-7-sulfonamide 1,1-dioxide

> <STRUCTURE_SMILES>
NS(=O)(=O)c2cc1c(NC(CSCC(F)(F)F)N(C)S1(=O)=O)cc2Cl

> <STRUCTURE_SMILES_Desalt>
NS(=O)(=O)c2cc1c(NC(CSCC(F)(F)F)N(C)S1(=O)=O)cc2Cl

> <Substance_modify_yyyymmdd>
20080429

$$$$
