34643-46-4
ChemmineR-0915142007XD

 18 18  0  0  0  0  0  0  0  0  1 V2000
    5.7556   -3.4582    0.0000 P    0  0  0  0  0  0  0  0  0  0  0  0
    5.0784   -4.6109    0.0000 S    0  0  0  0  0  0  0  0  0  0  0  0
    4.6028   -2.7810    0.0000 O    0  0  0  0  0  0  0  0  0  0  0  0
    6.4085   -2.3054    0.0000 O    0  0  0  0  0  0  0  0  0  0  0  0
    6.9083   -4.1111    0.0000 S    0  0  0  0  0  0  0  0  0  0  0  0
    3.4421   -3.4582    0.0000 C    0  0  0  0  0  0  0  0  0  0  0  0
    3.4421   -4.7882    0.0000 C    0  0  0  0  0  0  0  0  0  0  0  0
    2.2893   -2.7810    0.0000 C    0  0  0  0  0  0  0  0  0  0  0  0
    2.2893   -5.4412    0.0000 C    0  0  0  0  0  0  0  0  0  0  0  0
    1.1366   -3.4582    0.0000 C    0  0  0  0  0  0  0  0  0  0  0  0
    1.1366   -4.7882    0.0000 C    0  0  0  0  0  0  0  0  0  0  0  0
    4.6028   -5.4412    0.0000 Cl   0  0  0  0  0  0  0  0  0  0  0  0
    0.0000   -5.4412    0.0000 Cl   0  0  0  0  0  0  0  0  0  0  0  0
    5.7556   -1.1527    0.0000 C    0  0  0  0  0  0  0  0  0  0  0  0
    6.4085    0.0000    0.0000 C    0  0  0  0  0  0  0  0  0  0  0  0
    6.9083   -5.4412    0.0000 C    0  0  0  0  0  0  0  0  0  0  0  0
    8.0610   -6.1183    0.0000 C    0  0  0  0  0  0  0  0  0  0  0  0
    8.0610   -7.4484    0.0000 C    0  0  0  0  0  0  0  0  0  0  0  0
  1  2  2  0  0  0  0
  1  3  1  0  0  0  0
  1  4  1  0  0  0  0
  1  5  1  0  0  0  0
  3  6  1  0  0  0  0
  4 14  1  0  0  0  0
  5 16  1  0  0  0  0
  6  7  2  0  0  0  0
  6  8  1  0  0  0  0
  7  9  1  0  0  0  0
  7 12  1  0  0  0  0
  8 10  2  0  0  0  0
  9 11  2  0  0  0  0
 10 11  1  0  0  0  0
 11 13  1  0  0  0  0
 14 15  1  0  0  0  0
 16 17  1  0  0  0  0
 17 18  1  0  0  0  0
M  END
> <ID>
9268

> <Formula>
C11H15Cl2O2PS2

> <FW>
345.2454

> <DSSTox_CID>
22349

> <DSSTox_RID>
80002

> <DSSTox_GSID>
42349

> <DSSTox_FileID_Sort>
4684

> <TS_ChemName>
Prothiofos

> <TS_ChemName_Synonyms>


> <TS_CASRN>
34643-46-4

> <CASRN_ChemName_Relationship>
primary

> <TS_Description>
single chemical compound

> <ChemNote>


> <STRUCTURE_Shown>
tested chemical

> <STRUCTURE_Formula>
C11H15Cl2O2PS2

> <STRUCTURE_MW>
345.2454

> <STRUCTURE_ChemType>
defined organic

> <STRUCTURE_DefinedOrganicForm>
parent

> <STRUCTURE_IUPAC>
O-(2,4-dichlorophenyl) O-ethyl S-propyl phosphorodithioate

> <STRUCTURE_SMILES>
Clc1cc(Cl)ccc1OP(=S)(OCC)SCCC

> <STRUCTURE_SMILES_Desalt>
Clc1cc(Cl)ccc1OP(=S)(OCC)SCCC

> <Substance_modify_yyyymmdd>
20080825

$$$$
