34661-75-1
ChemmineR-0915142007XD

 28 30  0  0  0  0  0  0  0  0  1 V2000
   13.8102   -4.6682    0.0000 C   0  0  0  0  0  0  0  0  0  0  0  0
   12.6432   -3.9949    0.0000 N   0  0  0  0  0  0  0  0  0  0  0  0
   13.8102   -5.9849    0.0000 N   0  0  0  0  0  0  0  0  0  0  0  0
   11.4911   -4.6682    0.0000 C   0  0  0  0  0  0  0  0  0  0  0  0
   12.6432   -6.6582    0.0000 C   0  0  0  0  0  0  0  0  0  0  0  0
   11.4911   -5.9849    0.0000 C   0  0  0  0  0  0  0  0  0  0  0  0
    3.4563   -2.6633    0.0000 N   0  0  0  0  0  0  0  0  0  0  0  0
    2.2892   -1.9900    0.0000 C   0  0  0  0  0  0  0  0  0  0  0  0
    5.7455   -3.9800    0.0000 N   0  0  0  0  0  0  0  0  0  0  0  0
   14.9623   -3.9800    0.0000 O   0  0  0  0  0  0  0  0  0  0  0  0
   12.6432   -7.9899    0.0000 O   0  0  0  0  0  0  0  0  0  0  0  0
   10.3390   -3.9800    0.0000 N   0  0  0  0  0  0  0  0  0  0  0  0
    3.4563   -3.9800    0.0000 C   0  0  0  0  0  0  0  0  0  0  0  0
    4.5934   -1.9900    0.0000 C   0  0  0  0  0  0  0  0  0  0  0  0
    1.1521   -2.6633    0.0000 C   0  0  0  0  0  0  0  0  0  0  0  0
   12.6432   -2.6633    0.0000 C   0  0  0  0  0  0  0  0  0  0  0  0
   14.9623   -6.6732    0.0000 C   0  0  0  0  0  0  0  0  0  0  0  0
    4.5934   -4.6533    0.0000 C   0  0  0  0  0  0  0  0  0  0  0  0
    5.7455   -2.6633    0.0000 C   0  0  0  0  0  0  0  0  0  0  0  0
    1.1521   -3.9650    0.0000 O   0  0  0  0  0  0  0  0  0  0  0  0
    6.8827   -4.6533    0.0000 C   0  0  0  0  0  0  0  0  0  0  0  0
    8.0497   -3.9800    0.0000 C   0  0  0  0  0  0  0  0  0  0  0  0
    2.2892   -0.6583    0.0000 C   0  0  0  0  0  0  0  0  0  0  0  0
    9.1869   -4.6533    0.0000 C   0  0  0  0  0  0  0  0  0  0  0  0
    0.0000   -1.9900    0.0000 C   0  0  0  0  0  0  0  0  0  0  0  0
    0.0000   -4.6383    0.0000 C   0  0  0  0  0  0  0  0  0  0  0  0
    1.1521    0.0000    0.0000 C   0  0  0  0  0  0  0  0  0  0  0  0
    0.0000   -0.6583    0.0000 C   0  0  0  0  0  0  0  0  0  0  0  0
  1  2  1  0  0  0  0
  1  3  1  0  0  0  0
  1 10  2  0  0  0  0
  2  4  1  0  0  0  0
  2 16  1  0  0  0  0
  3  5  1  0  0  0  0
  3 17  1  0  0  0  0
  4 12  1  0  0  0  0
  4  6  2  0  0  0  0
  5  6  1  0  0  0  0
  5 11  2  0  0  0  0
  7 14  1  0  0  0  0
  7  8  1  0  0  0  0
  7 13  1  0  0  0  0
  8 15  2  0  0  0  0
  8 23  1  0  0  0  0
  9 21  1  0  0  0  0
  9 18  1  0  0  0  0
  9 19  1  0  0  0  0
 12 24  1  0  0  0  0
 13 18  1  0  0  0  0
 14 19  1  0  0  0  0
 15 20  1  0  0  0  0
 15 25  1  0  0  0  0
 20 26  1  0  0  0  0
 21 22  1  0  0  0  0
 22 24  1  0  0  0  0
 23 27  2  0  0  0  0
 25 28  2  0  0  0  0
 27 28  1  0  0  0  0
M  END
> <ID>
1369

> <Formula>
C20H29N5O3

> <FW>
387.476

> <DSSTox_CID>
1425

> <DSSTox_RID>
76154

> <DSSTox_GSID>
21425

> <DSSTox_FileID_Sort>
838

> <TS_ChemName>
Urapidil

> <TS_ChemName_Synonyms>


> <TS_CASRN>
34661-75-1

> <CASRN_ChemName_Relationship>
primary

> <TS_Description>
single chemical compound

> <ChemNote>


> <STRUCTURE_Shown>
tested chemical

> <STRUCTURE_Formula>
C20H29N5O3

> <STRUCTURE_MW>
387.476

> <STRUCTURE_ChemType>
defined organic

> <STRUCTURE_DefinedOrganicForm>
parent

> <STRUCTURE_IUPAC>
6-({3-[4-(2-methoxyphenyl)piperazin-1-yl]propyl}amino)-1,3-dimethylpyrimidine-2,4(1H,3H)-dione

> <STRUCTURE_SMILES>
COc3ccccc3N2CCN(CCCNC1=CC(=O)N(C)C(=O)N1C)CC2

> <STRUCTURE_SMILES_Desalt>
COc3ccccc3N2CCN(CCCNC1=CC(=O)N(C)C(=O)N1C)CC2

> <Substance_modify_yyyymmdd>
20080429

$$$$
