3468-11-9
ChemmineR-0915142007XD

 11 12  0  0  0  0  0  0  0  0  1 V2000
    2.2980   -1.6884    0.0000 C   0  0  0  0  0  0  0  0  0  0  0  0
    2.2980   -3.0203    0.0000 C   0  0  0  0  0  0  0  0  0  0  0  0
    3.5643   -1.2710    0.0000 C   0  0  0  0  0  0  0  0  0  0  0  0
    1.1396   -1.0130    0.0000 C   0  0  0  0  0  0  0  0  0  0  0  0
    3.5643   -3.4189    0.0000 C   0  0  0  0  0  0  0  0  0  0  0  0
    1.1396   -3.6769    0.0000 C   0  0  0  0  0  0  0  0  0  0  0  0
    4.3381   -2.3449    0.0000 N   0  0  0  0  0  0  0  0  0  0  0  0
    3.9817    0.0000    0.0000 N   0  0  0  0  0  0  0  0  0  0  0  0
    0.0000   -1.6884    0.0000 C   0  0  0  0  0  0  0  0  0  0  0  0
    3.9817   -4.6899    0.0000 N   0  0  0  0  0  0  0  0  0  0  0  0
    0.0000   -3.0203    0.0000 C   0  0  0  0  0  0  0  0  0  0  0  0
  1  2  2  0  0  0  0
  1  3  1  0  0  0  0
  1  4  1  0  0  0  0
  2  5  1  0  0  0  0
  2  6  1  0  0  0  0
  3  7  1  0  0  0  0
  3  8  2  0  0  0  0
  4  9  2  0  0  0  0
  5 10  2  0  0  0  0
  5  7  1  0  0  0  0
  6 11  2  0  0  0  0
  9 11  1  0  0  0  0
M  END
> <ID>
10311

> <Formula>
C8H7N3

> <FW>
145.1613

> <DSSTox_CID>
24658

> <DSSTox_RID>
80381

> <DSSTox_GSID>
44658

> <DSSTox_FileID_Sort>
5063

> <TS_ChemName>
1H-Isoindole-1,3(2H)-diimine

> <TS_ChemName_Synonyms>
1H-Isoindole-1,3(2H)-diimine (1H-Isoindol-3-amine, 1-imino-)

> <TS_CASRN>
3468-11-9

> <CASRN_ChemName_Relationship>
primary

> <TS_Description>
single chemical compound

> <ChemNote>


> <STRUCTURE_Shown>
tested chemical

> <STRUCTURE_Formula>
C8H7N3

> <STRUCTURE_MW>
145.1613

> <STRUCTURE_ChemType>
defined organic

> <STRUCTURE_DefinedOrganicForm>
parent

> <STRUCTURE_IUPAC>
1H-isoindole-1,3(2H)-diimine

> <STRUCTURE_SMILES>
N=C1NC(=N)c2ccccc12

> <STRUCTURE_SMILES_Desalt>
N=C1NC(=N)c2ccccc12

> <Substance_modify_yyyymmdd>
20091116

$$$$
