3470-36-8
ChemmineR-0915142007XD

 27 24  0  0  1  0  0  0  0  0  2 V2000
    4.7161   -5.6507    0.0000 Ca   0  2  0  0  0  0  0  0  0  0  0  0
    0.0967   -1.9874    0.0000 O    0  0  0  0  0  0  0  0  0  0  0  0
    1.2569   -1.3321    0.0000 C    0  0  0  0  0  0  0  0  0  0  0  0
    2.4064   -1.9874    0.0000 C    0  0  0  0  0  0  0  0  0  0  0  0
    2.4064   -3.3195    0.0000 O    0  0  0  0  0  0  0  0  0  0  0  0
    3.5666   -1.3321    0.0000 C    0  0  0  0  0  0  0  0  0  0  0  0
    3.5666    0.0000    0.0000 O    0  0  0  0  0  0  0  0  0  0  0  0
    4.7161   -1.9874    0.0000 C    0  0  0  0  0  0  0  0  0  0  0  0
    4.7161   -3.3195    0.0000 O    0  0  0  0  0  0  0  0  0  0  0  0
    5.8978   -1.3321    0.0000 C    0  0  0  0  0  0  0  0  0  0  0  0
    5.8978    0.0000    0.0000 O    0  0  0  0  0  0  0  0  0  0  0  0
    7.0472   -1.9874    0.0000 C    0  0  0  0  0  0  0  0  0  0  0  0
    7.0472   -3.3195    0.0000 O    0  5  0  0  0  0  0  0  0  0  0  0
    8.1860   -1.3321    0.0000 O    0  0  0  0  0  0  0  0  0  0  0  0
    0.0000   -9.4107    0.0000 O    0  0  0  0  0  0  0  0  0  0  0  0
    1.1602   -8.7553    0.0000 C    0  0  0  0  0  0  0  0  0  0  0  0
    2.3097   -9.4107    0.0000 C    0  0  0  0  0  0  0  0  0  0  0  0
    2.3097  -10.7428    0.0000 O    0  0  0  0  0  0  0  0  0  0  0  0
    3.4699   -8.7553    0.0000 C    0  0  0  0  0  0  0  0  0  0  0  0
    3.4699   -7.4232    0.0000 O    0  0  0  0  0  0  0  0  0  0  0  0
    4.6194   -9.4107    0.0000 C    0  0  0  0  0  0  0  0  0  0  0  0
    4.6194  -10.7428    0.0000 O    0  0  0  0  0  0  0  0  0  0  0  0
    5.8011   -8.7553    0.0000 C    0  0  0  0  0  0  0  0  0  0  0  0
    5.8011   -7.4232    0.0000 O    0  0  0  0  0  0  0  0  0  0  0  0
    6.9506   -9.4107    0.0000 C    0  0  0  0  0  0  0  0  0  0  0  0
    6.9506  -10.7428    0.0000 O    0  5  0  0  0  0  0  0  0  0  0  0
    8.0893   -8.7553    0.0000 O    0  0  0  0  0  0  0  0  0  0  0  0
  2  3  1  0  0  0  0
  3  4  1  0  0  0  0
  4  5  2  0  0  0  0
  4  6  1  0  0  0  0
  6  7  1  1  0  0  0
  6  8  1  0  0  0  0
  8  9  1  1  0  0  0
  8 10  1  0  0  0  0
 10 11  1  1  0  0  0
 10 12  1  0  0  0  0
 12 13  1  0  0  0  0
 12 14  2  0  0  0  0
 15 16  1  0  0  0  0
 16 17  1  0  0  0  0
 17 18  2  0  0  0  0
 17 19  1  0  0  0  0
 19 20  1  1  0  0  0
 19 21  1  0  0  0  0
 21 22  1  1  0  0  0
 21 23  1  0  0  0  0
 23 24  1  1  0  0  0
 23 25  1  0  0  0  0
 25 26  1  0  0  0  0
 25 27  2  0  0  0  0
M  END
> <ID>
10723

> <Formula>
C12H18CaO14

> <FW>
426.3409 (40.0769+193.1320+193.1320)

> <DSSTox_CID>
25078

> <DSSTox_RID>
80654

> <DSSTox_GSID>
45078

> <DSSTox_FileID_Sort>
5336

> <TS_ChemName>
D-Xylo-5-hexulosonic acid, calcium salt

> <TS_ChemName_Synonyms>


> <TS_CASRN>
3470-36-8

> <CASRN_ChemName_Relationship>
primary

> <TS_Description>
single chemical compound

> <ChemNote>
stereochem, parent [5287-64-9]

> <STRUCTURE_Shown>
tested chemical

> <STRUCTURE_Formula>
C12H18CaO14

> <STRUCTURE_MW>
426.3409

> <STRUCTURE_ChemType>
defined organic

> <STRUCTURE_DefinedOrganicForm>
salt

> <STRUCTURE_IUPAC>
calcium di(D-xylo-hex-5-ulosonate)

> <STRUCTURE_SMILES>
[Ca+2].O=C([O-])[C@H](O)[C@@H](O)[C@H](O)C(=O)CO.OCC(=O)[C@@H](O)[C@H](O)[C@@H](O)C([O-])=O

> <STRUCTURE_SMILES_Desalt>
OC(=O)[C@H](O)[C@@H](O)[C@H](O)C(=O)CO

> <Substance_modify_yyyymmdd>
20100107

$$$$
