34841-35-5
ChemmineR-0915142007XD

 11 11  0  0  0  0  0  0  0  0  1 V2000
    2.3033    0.0000    0.0000 C    0  0  0  0  0  0  0  0  0  0  0  0
    2.3033   -1.3281    0.0000 C    0  0  0  0  0  0  0  0  0  0  0  0
    0.0000   -5.3126    0.0000 C    0  0  0  0  0  0  0  0  0  0  0  0
    0.0000   -3.9844    0.0000 C    0  0  0  0  0  0  0  0  0  0  0  0
    1.1546   -5.9826    0.0000 C    0  0  0  0  0  0  0  0  0  0  0  0
    2.3033   -3.9844    0.0000 C    0  0  0  0  0  0  0  0  0  0  0  0
    1.1546   -3.3263    0.0000 C    0  0  0  0  0  0  0  0  0  0  0  0
    2.3033   -5.3126    0.0000 C    0  0  0  0  0  0  0  0  0  0  0  0
    1.1546   -1.9982    0.0000 C    0  0  0  0  0  0  0  0  0  0  0  0
    3.4580   -5.9826    0.0000 Cl   0  0  0  0  0  0  0  0  0  0  0  0
    0.0000   -1.3281    0.0000 O    0  0  0  0  0  0  0  0  0  0  0  0
  1  2  1  0  0  0  0
  2  9  1  0  0  0  0
  3  4  2  0  0  0  0
  3  5  1  0  0  0  0
  4  7  1  0  0  0  0
  5  8  2  0  0  0  0
  6  7  2  0  0  0  0
  6  8  1  0  0  0  0
  7  9  1  0  0  0  0
  8 10  1  0  0  0  0
  9 11  2  0  0  0  0
M  END
> <ID>
14140

> <Formula>
C9H9ClO

> <FW>
168.6202

> <DSSTox_CID>
29133

> <DSSTox_RID>
83352

> <DSSTox_GSID>
49277

> <DSSTox_FileID_Sort>
8027

> <TS_ChemName>
3'-Chloropropiophenone

> <TS_ChemName_Synonyms>


> <TS_CASRN>
34841-35-5

> <CASRN_ChemName_Relationship>
primary

> <TS_Description>
single chemical compound

> <ChemNote>


> <STRUCTURE_Shown>
tested chemical

> <STRUCTURE_Formula>
C9H9ClO

> <STRUCTURE_MW>
168.6202

> <STRUCTURE_ChemType>
defined organic

> <STRUCTURE_DefinedOrganicForm>
parent

> <STRUCTURE_IUPAC>
1-(3-chlorophenyl)propan-1-one

> <STRUCTURE_SMILES>
O=C(CC)c1cc(Cl)ccc1

> <STRUCTURE_SMILES_Desalt>
O=C(CC)c1cc(Cl)ccc1

> <Substance_modify_yyyymmdd>
20111204

$$$$
