34885-03-5
ChemmineR-0915142007XD

  9  9  0  0  0  0  0  0  0  0  1 V2000
    1.1967   -1.9865    0.0000 C   0  0  0  0  0  0  0  0  0  0  0  0
    2.3634   -2.6686    0.0000 C   0  0  0  0  0  0  0  0  0  0  0  0
    2.3096   -4.0089    0.0000 C   0  0  0  0  0  0  0  0  0  0  0  0
    1.1488   -4.6551    0.0000 C   0  0  0  0  0  0  0  0  0  0  0  0
    0.0000   -3.9789    0.0000 C   0  0  0  0  0  0  0  0  0  0  0  0
    0.0479   -2.6387    0.0000 C   0  0  0  0  0  0  0  0  0  0  0  0
    1.1967   -0.6821    0.0000 C   0  0  0  0  0  0  0  0  0  0  0  0
    0.0658    0.0000    0.0000 O   0  0  0  0  0  0  0  0  0  0  0  0
    1.1309   -5.9834    0.0000 C   0  0  0  0  0  0  0  0  0  0  0  0
  1  2  1  0  0  0  0
  1  6  1  0  0  0  0
  1  7  1  0  0  0  0
  2  3  1  0  0  0  0
  3  4  1  0  0  0  0
  4  5  1  0  0  0  0
  4  9  1  0  0  0  0
  5  6  1  0  0  0  0
  7  8  1  0  0  0  0
M  END
> <ID>
8763

> <Formula>
C8H16O

> <FW>
128.212

> <DSSTox_CID>
21813

> <DSSTox_RID>
79850

> <DSSTox_GSID>
41813

> <DSSTox_FileID_Sort>
4532

> <TS_ChemName>
Cyclohexanemethanol, 4-methyl-

> <TS_ChemName_Synonyms>


> <TS_CASRN>
34885-03-5

> <CASRN_ChemName_Relationship>
primary

> <TS_Description>
single chemical compound

> <ChemNote>


> <STRUCTURE_Shown>
tested chemical

> <STRUCTURE_Formula>
C8H16O

> <STRUCTURE_MW>
128.212

> <STRUCTURE_ChemType>
defined organic

> <STRUCTURE_DefinedOrganicForm>
parent

> <STRUCTURE_IUPAC>
(4-methylcyclohexyl)methanol

> <STRUCTURE_SMILES>
CC1CCC(CO)CC1

> <STRUCTURE_SMILES_Desalt>
CC1CCC(CO)CC1

> <Substance_modify_yyyymmdd>
20080825

$$$$
