3493-12-7
ChemmineR-0915142007XD

 11  9  0  0  0  0  0  0  0  0  2 V2000
    2.2066   -3.3298    0.0000 C    0  0  0  0  0  0  0  0  0  0  0  0
    2.2066   -1.9915    0.0000 S    0  3  0  0  0  0  0  0  0  0  0  0
    1.0436   -1.3383    0.0000 C    0  0  0  0  0  0  0  0  0  0  0  0
    3.3458   -1.3383    0.0000 C    0  0  0  0  0  0  0  0  0  0  0  0
    4.5088   -1.9915    0.0000 C    0  0  0  0  0  0  0  0  0  0  0  0
    5.6639   -1.3383    0.0000 C    0  0  0  0  0  0  0  0  0  0  0  0
    5.6639    0.0000    0.0000 N    0  0  0  0  0  0  0  0  0  0  0  0
    6.8110   -1.9915    0.0000 C    0  0  0  0  0  0  0  0  0  0  0  0
    7.9661   -1.3383    0.0000 O    0  0  0  0  0  0  0  0  0  0  0  0
    6.8110   -3.3298    0.0000 O    0  0  0  0  0  0  0  0  0  0  0  0
    0.0000   -2.7164    0.0000 Cl   0  5  0  0  0  0  0  0  0  0  0  0
  1  2  1  0  0  0  0
  2  3  1  0  0  0  0
  2  4  1  0  0  0  0
  4  5  1  0  0  0  0
  5  6  1  0  0  0  0
  6  7  1  0  0  0  0
  6  8  1  0  0  0  0
  8  9  1  0  0  0  0
  8 10  2  0  0  0  0
M  END
> <ID>
11909

> <Formula>
C6H14ClNO2S

> <FW>
199.6989 (164.2453+35.4535)

> <DSSTox_CID>
26713

> <DSSTox_RID>
81845

> <DSSTox_GSID>
46713

> <DSSTox_FileID_Sort>
6526

> <TS_ChemName>
DL-Methionine methylsulfonium chloride

> <TS_ChemName_Synonyms>


> <TS_CASRN>
3493-12-7

> <CASRN_ChemName_Relationship>
primary

> <TS_Description>
single chemical compound

> <ChemNote>
sulfonium; parent [13065-25-3]

> <STRUCTURE_Shown>
tested chemical

> <STRUCTURE_Formula>
C6H14ClNO2S

> <STRUCTURE_MW>
199.6989

> <STRUCTURE_ChemType>
defined organic

> <STRUCTURE_DefinedOrganicForm>
salt

> <STRUCTURE_IUPAC>
(3-amino-3-carboxypropyl)(dimethyl)sulfonium chloride

> <STRUCTURE_SMILES>
[Cl-].C[S+](C)CCC(N)C(=O)O

> <STRUCTURE_SMILES_Desalt>
C[S+](C)CCC(N)C(=O)O

> <Substance_modify_yyyymmdd>
20110805

$$$$
