349495-42-7
ChemmineR-0915142007XD

 21 23  0  0  0  0  0  0  0  0  1 V2000
    3.6487   -3.4251    0.0000 C   0  0  0  0  0  0  0  0  0  0  0  0
    3.3743   -4.7362    0.0000 C   0  0  0  0  0  0  0  0  0  0  0  0
    4.8176   -2.8560    0.0000 N   0  0  0  0  0  0  0  0  0  0  0  0
    2.4596   -2.7442    0.0000 C   0  0  0  0  0  0  0  0  0  0  0  0
    2.0226   -4.8989    0.0000 N   0  0  0  0  0  0  0  0  0  0  0  0
    4.1874   -5.7526    0.0000 C   0  0  0  0  0  0  0  0  0  0  0  0
    6.0067   -3.3946    0.0000 C   0  0  0  0  0  0  0  0  0  0  0  0
    1.4636   -3.6589    0.0000 N   0  0  0  0  0  0  0  0  0  0  0  0
    2.3275   -1.4432    0.0000 C   0  0  0  0  0  0  0  0  0  0  0  0
    1.3314   -6.0270    0.0000 C   0  0  0  0  0  0  0  0  0  0  0  0
    5.5087   -5.6815    0.0000 N   0  0  0  0  0  0  0  0  0  0  0  0
    3.6792   -7.0027    0.0000 O   0  0  0  0  0  0  0  0  0  0  0  0
    7.0637   -2.5409    0.0000 C   0  0  0  0  0  0  0  0  0  0  0  0
    6.2913   -4.6753    0.0000 C   0  0  0  0  0  0  0  0  0  0  0  0
    0.0000   -6.0372    0.0000 C   0  0  0  0  0  0  0  0  0  0  0  0
    8.3138   -3.0084    0.0000 C   0  0  0  0  0  0  0  0  0  0  0  0
    6.8604   -1.2196    0.0000 C   0  0  0  0  0  0  0  0  0  0  0  0
    9.3404   -2.1648    0.0000 C   0  0  0  0  0  0  0  0  0  0  0  0
    7.8870   -0.3862    0.0000 C   0  0  0  0  0  0  0  0  0  0  0  0
    9.1371   -0.8537    0.0000 C   0  0  0  0  0  0  0  0  0  0  0  0
   10.1636    0.0000    0.0000 O   0  0  0  0  0  0  0  0  0  0  0  0
  1  2  2  0  0  0  0
  1  3  1  0  0  0  0
  1  4  1  0  0  0  0
  2  5  1  0  0  0  0
  2  6  1  0  0  0  0
  3  7  2  0  0  0  0
  4  8  2  0  0  0  0
  4  9  1  0  0  0  0
  5 10  1  0  0  0  0
  5  8  1  0  0  0  0
  6 11  1  0  0  0  0
  6 12  2  0  0  0  0
  7 13  1  0  0  0  0
  7 14  1  0  0  0  0
 10 15  1  0  0  0  0
 11 14  1  0  0  0  0
 13 16  2  0  0  0  0
 13 17  1  0  0  0  0
 16 18  1  0  0  0  0
 17 19  2  0  0  0  0
 18 20  2  0  0  0  0
 19 20  1  0  0  0  0
 20 21  1  0  0  0  0
M  END
> <ID>
12405

> <Formula>
C15H16N4O2

> <FW>
284.3131

> <DSSTox_CID>
27263

> <DSSTox_RID>
82220

> <DSSTox_GSID>
47263

> <DSSTox_FileID_Sort>
6901

> <TS_ChemName>
PharmaCode_254538

> <TS_ChemName_Synonyms>
1-ethyl-5-(4-hydroxyphenyl)-3-methyl-6,7-dihydropyrazolo[4,3-e][1,4]diazepin-8(1H)-one

> <TS_CASRN>
349495-42-7

> <CASRN_ChemName_Relationship>
primary

> <TS_Description>
single chemical compound

> <ChemNote>


> <STRUCTURE_Shown>
tested chemical

> <STRUCTURE_Formula>
C15H16N4O2

> <STRUCTURE_MW>
284.3131

> <STRUCTURE_ChemType>
defined organic

> <STRUCTURE_DefinedOrganicForm>
parent

> <STRUCTURE_IUPAC>
1-ethyl-5-(4-hydroxyphenyl)-3-methyl-6,7-dihydropyrazolo[4,3-e][1,4]diazepin-8(1H)-one

> <STRUCTURE_SMILES>
Oc1ccc(cc1)C=2CNC(=O)c3c(N=2)c(C)nn3CC

> <STRUCTURE_SMILES_Desalt>
Oc1ccc(cc1)C=2CNC(=O)c3c(N=2)c(C)nn3CC

> <Substance_modify_yyyymmdd>
20130910

$$$$
