350-12-9
ChemmineR-0915142007XD

 21 23  0  0  0  0  0  0  0  0  1 V2000
    6.9135   -2.0164    0.0000 N   0  0  0  0  0  0  0  0  0  0  0  0
    6.9135   -0.6914    0.0000 C   0  0  0  0  0  0  0  0  0  0  0  0
    5.7613   -0.0230    0.0000 S   0  0  0  0  0  0  0  0  0  0  0  0
    4.6090   -2.0164    0.0000 N   0  0  0  0  0  0  0  0  0  0  0  0
    5.7613   -2.6732    0.0000 C   0  0  0  0  0  0  0  0  0  0  0  0
    4.6090   -0.6914    0.0000 C   0  0  0  0  0  0  0  0  0  0  0  0
    8.0543   -2.6848    0.0000 C   0  0  0  0  0  0  0  0  0  0  0  0
    8.0543    0.0000    0.0000 S   0  0  0  0  0  0  0  0  0  0  0  0
    3.4683   -2.6848    0.0000 C   0  0  0  0  0  0  0  0  0  0  0  0
    9.2065   -2.0280    0.0000 C   0  0  0  0  0  0  0  0  0  0  0  0
    2.3160   -2.0280    0.0000 C   0  0  0  0  0  0  0  0  0  0  0  0
   10.3473   -2.6848    0.0000 C   0  0  0  0  0  0  0  0  0  0  0  0
    9.2065   -0.6914    0.0000 C   0  0  0  0  0  0  0  0  0  0  0  0
    2.3160   -0.6914    0.0000 C   0  0  0  0  0  0  0  0  0  0  0  0
    1.1638   -2.6848    0.0000 C   0  0  0  0  0  0  0  0  0  0  0  0
    0.0000   -2.0280    0.0000 C   0  0  0  0  0  0  0  0  0  0  0  0
    1.1638   -0.0346    0.0000 C   0  0  0  0  0  0  0  0  0  0  0  0
   10.4049   -0.0346    0.0000 C   0  0  0  0  0  0  0  0  0  0  0  0
   11.5226   -2.0510    0.0000 C   0  0  0  0  0  0  0  0  0  0  0  0
   11.5226   -0.7259    0.0000 C   0  0  0  0  0  0  0  0  0  0  0  0
    0.0000   -0.6914    0.0000 C   0  0  0  0  0  0  0  0  0  0  0  0
  1  2  1  0  0  0  0
  1  5  1  0  0  0  0
  1  7  1  0  0  0  0
  2  3  1  0  0  0  0
  2  8  2  0  0  0  0
  3  6  1  0  0  0  0
  4  5  1  0  0  0  0
  4  6  1  0  0  0  0
  4  9  1  0  0  0  0
  7 10  1  0  0  0  0
  9 11  1  0  0  0  0
 10 12  2  0  0  0  0
 10 13  1  0  0  0  0
 11 14  1  0  0  0  0
 11 15  2  0  0  0  0
 12 19  1  0  0  0  0
 13 18  2  0  0  0  0
 14 17  2  0  0  0  0
 15 16  1  0  0  0  0
 16 21  2  0  0  0  0
 17 21  1  0  0  0  0
 18 20  1  0  0  0  0
 19 20  2  0  0  0  0
M  END
> <ID>
11551

> <Formula>
C17H18N2S2

> <FW>
314.4682

> <DSSTox_CID>
26257

> <DSSTox_RID>
81484

> <DSSTox_GSID>
46257

> <DSSTox_FileID_Sort>
6165

> <TS_ChemName>
Sulbentine

> <TS_ChemName_Synonyms>


> <TS_CASRN>
350-12-9

> <CASRN_ChemName_Relationship>
primary

> <TS_Description>
single chemical compound

> <ChemNote>


> <STRUCTURE_Shown>
tested chemical

> <STRUCTURE_Formula>
C17H18N2S2

> <STRUCTURE_MW>
314.4682

> <STRUCTURE_ChemType>
defined organic

> <STRUCTURE_DefinedOrganicForm>
parent

> <STRUCTURE_IUPAC>
3,5-dibenzyl-1,3,5-thiadiazinane-2-thione

> <STRUCTURE_SMILES>
S=C3SCN(Cc1ccccc1)CN3Cc2ccccc2

> <STRUCTURE_SMILES_Desalt>
S=C3SCN(Cc1ccccc1)CN3Cc2ccccc2

> <Substance_modify_yyyymmdd>
20110816

$$$$
