350-03-8
ChemmineR-0915142007XD

  9  9  0  0  0  0  0  0  0  0  1 V2000
    3.4432   -1.3470    0.0000 C   0  0  0  0  0  0  0  0  0  0  0  0
    4.5971   -1.9997    0.0000 C   0  0  0  0  0  0  0  0  0  0  0  0
    3.4432    0.0000    0.0000 O   0  0  0  0  0  0  0  0  0  0  0  0
    1.1539   -4.0041    0.0000 N   0  0  0  0  0  0  0  0  0  0  0  0
    0.0000   -3.3329    0.0000 C   0  0  0  0  0  0  0  0  0  0  0  0
    2.3078   -3.3329    0.0000 C   0  0  0  0  0  0  0  0  0  0  0  0
    2.3078   -1.9997    0.0000 C   0  0  0  0  0  0  0  0  0  0  0  0
    0.0000   -1.9997    0.0000 C   0  0  0  0  0  0  0  0  0  0  0  0
    1.1539   -1.3470    0.0000 C   0  0  0  0  0  0  0  0  0  0  0  0
  1  2  1  0  0  0  0
  1  3  2  0  0  0  0
  1  7  1  0  0  0  0
  4  5  2  0  0  0  0
  4  6  1  0  0  0  0
  5  8  1  0  0  0  0
  6  7  2  0  0  0  0
  7  9  1  0  0  0  0
  8  9  2  0  0  0  0
M  END
> <ID>
10078

> <Formula>
C7H7NO

> <FW>
121.1366

> <DSSTox_CID>
24421

> <DSSTox_RID>
80215

> <DSSTox_GSID>
44421

> <DSSTox_FileID_Sort>
4897

> <TS_ChemName>
3-Acetylpyridine

> <TS_ChemName_Synonyms>
Ethanone, 1-(3-pyridinyl)-

> <TS_CASRN>
350-03-8

> <CASRN_ChemName_Relationship>
primary

> <TS_Description>
single chemical compound

> <ChemNote>


> <STRUCTURE_Shown>
tested chemical

> <STRUCTURE_Formula>
C7H7NO

> <STRUCTURE_MW>
121.1366

> <STRUCTURE_ChemType>
defined organic

> <STRUCTURE_DefinedOrganicForm>
parent

> <STRUCTURE_IUPAC>
1-(pyridin-3-yl)ethanone

> <STRUCTURE_SMILES>
CC(=O)c1cccnc1

> <STRUCTURE_SMILES_Desalt>
CC(=O)c1cccnc1

> <Substance_modify_yyyymmdd>
20091116

$$$$
