35035-05-3
ChemmineR-0915142007XD

 22 23  0  0  0  0  0  0  0  0  2 V2000
    0.0000   -4.0339    0.0000 Br   0  5  0  0  0  0  0  0  0  0  0  0
    3.9871   -6.7107    0.0000 C    0  0  0  0  0  0  0  0  0  0  0  0
    3.3226   -5.5595    0.0000 C    0  0  0  0  0  0  0  0  0  0  0  0
    1.9935   -5.5595    0.0000 O    0  0  0  0  0  0  0  0  0  0  0  0
    1.3290   -6.7107    0.0000 C    0  0  0  0  0  0  0  0  0  0  0  0
    3.9871   -4.4083    0.0000 C    0  0  0  0  0  0  0  0  0  0  0  0
    5.3161   -4.4083    0.0000 C    0  0  0  0  0  0  0  0  0  0  0  0
    5.9806   -3.2571    0.0000 C    0  0  0  0  0  0  0  0  0  0  0  0
    5.3161   -2.1059    0.0000 C    0  0  0  0  0  0  0  0  0  0  0  0
    3.9965   -1.9655    0.0000 C    0  0  0  0  0  0  0  0  0  0  0  0
    3.7157   -0.6645    0.0000 C    0  0  0  0  0  0  0  0  0  0  0  0
    4.8669    0.0000    0.0000 C    0  0  0  0  0  0  0  0  0  0  0  0
    5.8590   -0.8891    0.0000 S    0  0  0  0  0  0  0  0  0  0  0  0
    7.3097   -3.2571    0.0000 C    0  0  0  0  0  0  0  0  0  0  0  0
    8.0959   -2.1807    0.0000 S    0  0  0  0  0  0  0  0  0  0  0  0
    9.3594   -2.5925    0.0000 C    0  0  0  0  0  0  0  0  0  0  0  0
    9.3594   -3.9216    0.0000 C    0  0  0  0  0  0  0  0  0  0  0  0
    8.0959   -4.3334    0.0000 C    0  0  0  0  0  0  0  0  0  0  0  0
    5.9806   -5.5595    0.0000 C    0  0  0  0  0  0  0  0  0  0  0  0
    5.3161   -6.7107    0.0000 N    0  3  0  0  0  0  0  0  0  0  0  0
    6.5703   -7.1693    0.0000 C    0  0  0  0  0  0  0  0  0  0  0  0
    5.0915   -8.0210    0.0000 C    0  0  0  0  0  0  0  0  0  0  0  0
  2  3  1  0  0  0  0
  2 20  1  0  0  0  0
  3  4  1  0  0  0  0
  3  6  1  0  0  0  0
  4  5  1  0  0  0  0
  6  7  1  0  0  0  0
  7  8  2  0  0  0  0
  7 19  1  0  0  0  0
  8  9  1  0  0  0  0
  8 14  1  0  0  0  0
  9 10  2  0  0  0  0
  9 13  1  0  0  0  0
 10 11  1  0  0  0  0
 11 12  2  0  0  0  0
 12 13  1  0  0  0  0
 14 15  1  0  0  0  0
 14 18  2  0  0  0  0
 15 16  1  0  0  0  0
 16 17  2  0  0  0  0
 17 18  1  0  0  0  0
 19 20  1  0  0  0  0
 20 21  1  0  0  0  0
 20 22  1  0  0  0  0
M  END
> <ID>
3280

> <Formula>
C17H22BrNOS2

> <FW>
400.3967 (79.9045+320.4921)

> <DSSTox_CID>
3672

> <DSSTox_RID>
77138

> <DSSTox_GSID>
23672

> <DSSTox_FileID_Sort>
1821

> <TS_ChemName>
Timepidium bromide

> <TS_ChemName_Synonyms>


> <TS_CASRN>
35035-05-3

> <CASRN_ChemName_Relationship>
primary

> <TS_Description>
single chemical compound

> <ChemNote>
ammonium; parent [97094-64-9]

> <STRUCTURE_Shown>
tested chemical

> <STRUCTURE_Formula>
C17H22BrNOS2

> <STRUCTURE_MW>
400.3967

> <STRUCTURE_ChemType>
defined organic

> <STRUCTURE_DefinedOrganicForm>
salt

> <STRUCTURE_IUPAC>
3-[di(thiophen-2-yl)methylidene]-5-methoxy-1,1-dimethylpiperidinium bromide

> <STRUCTURE_SMILES>
[Br-].COC1C\C(C[N+](C)(C)C1)=C(/c2sccc2)c3cccs3

> <STRUCTURE_SMILES_Desalt>
COC1C\C(C[N+](C)(C)C1)=C(/c2sccc2)c3cccs3

> <Substance_modify_yyyymmdd>
20080429

$$$$
