350493-08-2
ChemmineR-0915142007XD

 26 25  0  0  0  0  0  0  0  0  2 V2000
    6.5815   -1.1053    0.0000 N   0  3  0  0  0  0  0  0  0  0  0  0
    4.5552   -1.7417    0.0000 N   0  0  0  0  0  0  0  0  0  0  0  0
    5.8112   -2.1604    0.0000 C   0  0  0  0  0  0  0  0  0  0  0  0
    5.8112    0.0000    0.0000 C   0  0  0  0  0  0  0  0  0  0  0  0
    4.5552   -0.4187    0.0000 C   0  0  0  0  0  0  0  0  0  0  0  0
    3.5001   -2.4953    0.0000 C   0  0  0  0  0  0  0  0  0  0  0  0
    2.2776   -1.9761    0.0000 C   0  0  0  0  0  0  0  0  0  0  0  0
    1.1890   -2.7465    0.0000 C   0  0  0  0  0  0  0  0  0  0  0  0
    0.0000   -2.1604    0.0000 C   0  0  0  0  0  0  0  0  0  0  0  0
    6.2466   -3.4499    0.0000 C   0  0  0  0  0  0  0  0  0  0  0  0
    7.9213   -1.1053    0.0000 C   0  0  0  0  0  0  0  0  0  0  0  0
   12.8114   -2.5288    0.0000 O   0  0  0  0  0  0  0  0  0  0  0  0
   12.1248   -3.6676    0.0000 S   0  0  0  0  0  0  0  0  0  0  0  0
   11.4381   -4.8231    0.0000 O   0  0  0  0  0  0  0  0  0  0  0  0
   10.9692   -3.0144    0.0000 C   0  0  0  0  0  0  0  0  0  0  0  0
   10.2993   -4.1700    0.0000 F   0  0  0  0  0  0  0  0  0  0  0  0
   11.6224   -1.8589    0.0000 F   0  0  0  0  0  0  0  0  0  0  0  0
    9.8304   -2.3446    0.0000 F   0  0  0  0  0  0  0  0  0  0  0  0
   13.2970   -4.3374    0.0000 N   0  5  0  0  0  0  0  0  0  0  0  0
   13.7660   -2.5288    0.0000 O   0  0  0  0  0  0  0  0  0  0  0  0
   14.4023   -3.6676    0.0000 S   0  0  0  0  0  0  0  0  0  0  0  0
   15.1057   -4.8231    0.0000 O   0  0  0  0  0  0  0  0  0  0  0  0
   15.5914   -3.0144    0.0000 C   0  0  0  0  0  0  0  0  0  0  0  0
   14.9215   -1.8589    0.0000 F   0  0  0  0  0  0  0  0  0  0  0  0
   16.2445   -4.1700    0.0000 F   0  0  0  0  0  0  0  0  0  0  0  0
   16.7469   -2.3446    0.0000 F   0  0  0  0  0  0  0  0  0  0  0  0
  1  3  2  0  0  0  0
  1  4  1  0  0  0  0
  1 11  1  0  0  0  0
  2  3  1  0  0  0  0
  2  5  1  0  0  0  0
  2  6  1  0  0  0  0
  3 10  1  0  0  0  0
  4  5  2  0  0  0  0
  6  7  1  0  0  0  0
  7  8  1  0  0  0  0
  8  9  1  0  0  0  0
 12 13  2  0  0  0  0
 13 14  2  0  0  0  0
 13 15  1  0  0  0  0
 13 19  1  0  0  0  0
 15 16  1  0  0  0  0
 15 17  1  0  0  0  0
 15 18  1  0  0  0  0
 19 21  1  0  0  0  0
 20 21  2  0  0  0  0
 21 22  2  0  0  0  0
 21 23  1  0  0  0  0
 23 24  1  0  0  0  0
 23 25  1  0  0  0  0
 23 26  1  0  0  0  0
M  END
> <ID>
13005

> <Formula>
C11H17F6N3O4S2

> <FW>
433.3908 (153.2441+280.1467)

> <DSSTox_CID>
27906

> <DSSTox_RID>
82659

> <DSSTox_GSID>
47930

> <DSSTox_FileID_Sort>
7336

> <TS_ChemName>
1-Butyl-2,3-dimethylimidazolium bis(trifluoromethylsulfonyl)imide

> <TS_ChemName_Synonyms>


> <TS_CASRN>
350493-08-2

> <CASRN_ChemName_Relationship>
primary

> <TS_Description>
single chemical compound

> <ChemNote>
ammonium; parent [108203-89-0]

> <STRUCTURE_Shown>
tested chemical

> <STRUCTURE_Formula>
C11H17F6N3O4S2

> <STRUCTURE_MW>
433.3908

> <STRUCTURE_ChemType>
defined organic

> <STRUCTURE_DefinedOrganicForm>
salt

> <STRUCTURE_IUPAC>
1-butyl-2,3-dimethyl-1H-imidazol-3-ium bis[(trifluoromethyl)sulfonyl]azanide

> <STRUCTURE_SMILES>
CCCCn1cc[n+](C)c1C.FC(F)(F)S(=O)(=O)[N-]S(=O)(=O)C(F)(F)F

> <STRUCTURE_SMILES_Desalt>
O=S(=O)(NS(=O)(=O)C(F)(F)F)C(F)(F)F

> <Substance_modify_yyyymmdd>
20110418

$$$$
