3505-38-2
ChemmineR-0915142007XD

 28 28  0  0  0  0  0  0  0  0  1 V2000
    9.1968   -2.6592    0.0000 C    0  0  0  0  0  0  0  0  0  0  0  0
    9.1968   -3.9730    0.0000 N    0  0  0  0  0  0  0  0  0  0  0  0
   10.3320   -4.6457    0.0000 C    0  0  0  0  0  0  0  0  0  0  0  0
    8.0407   -4.6457    0.0000 C    0  0  0  0  0  0  0  0  0  0  0  0
    6.8845   -3.9730    0.0000 C    0  0  0  0  0  0  0  0  0  0  0  0
    5.7493   -4.6457    0.0000 O    0  0  0  0  0  0  0  0  0  0  0  0
    4.5827   -3.9730    0.0000 C    0  0  0  0  0  0  0  0  0  0  0  0
    3.4475   -4.6457    0.0000 C    0  0  0  0  0  0  0  0  0  0  0  0
    3.4475   -5.9701    0.0000 C    0  0  0  0  0  0  0  0  0  0  0  0
    2.2913   -6.6322    0.0000 C    0  0  0  0  0  0  0  0  0  0  0  0
    1.1562   -5.9701    0.0000 C    0  0  0  0  0  0  0  0  0  0  0  0
    0.0000   -6.6322    0.0000 Cl   0  0  0  0  0  0  0  0  0  0  0  0
    1.1562   -4.6457    0.0000 C    0  0  0  0  0  0  0  0  0  0  0  0
    2.2913   -3.9730    0.0000 C    0  0  0  0  0  0  0  0  0  0  0  0
    4.5827   -2.6592    0.0000 C    0  0  0  0  0  0  0  0  0  0  0  0
    3.4475   -1.9865    0.0000 C    0  0  0  0  0  0  0  0  0  0  0  0
    3.4475   -0.6727    0.0000 C    0  0  0  0  0  0  0  0  0  0  0  0
    4.5827    0.0000    0.0000 C    0  0  0  0  0  0  0  0  0  0  0  0
    5.7493   -0.6727    0.0000 C    0  0  0  0  0  0  0  0  0  0  0  0
    5.7493   -1.9865    0.0000 N    0  0  0  0  0  0  0  0  0  0  0  0
    9.1653   -7.0106    0.0000 C    0  0  0  0  0  0  0  0  0  0  0  0
    6.4746   -7.0106    0.0000 C    0  0  0  0  0  0  0  0  0  0  0  0
    7.1262   -5.8544    0.0000 C    0  0  0  0  0  0  0  0  0  0  0  0
    8.5031   -5.8544    0.0000 C    0  0  0  0  0  0  0  0  0  0  0  0
    8.5031   -8.1668    0.0000 O    0  0  0  0  0  0  0  0  0  0  0  0
    7.1262   -8.1668    0.0000 O    0  0  0  0  0  0  0  0  0  0  0  0
   10.5107   -7.0316    0.0000 O    0  0  0  0  0  0  0  0  0  0  0  0
    5.1292   -7.0316    0.0000 O    0  0  0  0  0  0  0  0  0  0  0  0
  1  2  1  0  0  0  0
  2  3  1  0  0  0  0
  2  4  1  0  0  0  0
  4  5  1  0  0  0  0
  5  6  1  0  0  0  0
  6  7  1  0  0  0  0
  7  8  1  0  0  0  0
  7 15  1  0  0  0  0
  8  9  2  0  0  0  0
  8 14  1  0  0  0  0
  9 10  1  0  0  0  0
 10 11  2  0  0  0  0
 11 12  1  0  0  0  0
 11 13  1  0  0  0  0
 13 14  2  0  0  0  0
 15 16  2  0  0  0  0
 15 20  1  0  0  0  0
 16 17  1  0  0  0  0
 17 18  2  0  0  0  0
 18 19  1  0  0  0  0
 19 20  2  0  0  0  0
 21 24  1  0  0  0  0
 21 25  2  0  0  0  0
 21 27  1  0  0  0  0
 22 23  1  0  0  0  0
 22 26  2  0  0  0  0
 22 28  1  0  0  0  0
 23 24  2  0  0  0  0
M  END
> <ID>
12911

> <Formula>
C20H23ClN2O5

> <FW>
406.8600 (290.7879+116.0722)

> <DSSTox_CID>
27805

> <DSSTox_RID>
82573

> <DSSTox_GSID>
47828

> <DSSTox_FileID_Sort>
7250

> <TS_ChemName>
Carbinoxamine maleate

> <TS_ChemName_Synonyms>


> <TS_CASRN>
3505-38-2

> <CASRN_ChemName_Relationship>
primary

> <TS_Description>
single chemical compound

> <ChemNote>
parent [486-16-8]

> <STRUCTURE_Shown>
tested chemical

> <STRUCTURE_Formula>
C20H23ClN2O5

> <STRUCTURE_MW>
406.86

> <STRUCTURE_ChemType>
defined organic

> <STRUCTURE_DefinedOrganicForm>
complex

> <STRUCTURE_IUPAC>
2-[(4-chlorophenyl)(pyridin-2-yl)methoxy]-N,N-dimethylethanamine (2Z)-but-2-enedioate (1:1)

> <STRUCTURE_SMILES>
O=C(O)/C=C\C(=O)O.Clc1ccc(cc1)C(OCCN(C)C)c2ccccn2

> <STRUCTURE_SMILES_Desalt>
Clc1ccc(cc1)C(OCCN(C)C)c2ccccn2

> <Substance_modify_yyyymmdd>
20110811

$$$$
