35065-27-1
ChemmineR-0915142007XD

 18 19  0  0  0  0  0  0  0  0  1 V2000
    3.9992   -2.3119    0.0000 C    0  0  0  0  0  0  0  0  0  0  0  0
    5.3229   -2.3119    0.0000 C    0  0  0  0  0  0  0  0  0  0  0  0
    3.3373   -3.4492    0.0000 C    0  0  0  0  0  0  0  0  0  0  0  0
    3.3373   -1.1559    0.0000 C    0  0  0  0  0  0  0  0  0  0  0  0
    6.0034   -1.1559    0.0000 C    0  0  0  0  0  0  0  0  0  0  0  0
    6.0034   -3.4492    0.0000 C    0  0  0  0  0  0  0  0  0  0  0  0
    1.9856   -3.4492    0.0000 C    0  0  0  0  0  0  0  0  0  0  0  0
    7.3365   -1.1559    0.0000 C    0  0  0  0  0  0  0  0  0  0  0  0
    7.3365   -3.4492    0.0000 C    0  0  0  0  0  0  0  0  0  0  0  0
    2.0042   -1.1559    0.0000 C    0  0  0  0  0  0  0  0  0  0  0  0
    1.3331   -2.3119    0.0000 C    0  0  0  0  0  0  0  0  0  0  0  0
    7.9890   -2.3119    0.0000 C    0  0  0  0  0  0  0  0  0  0  0  0
    1.3331   -4.6051    0.0000 Cl   0  0  0  0  0  0  0  0  0  0  0  0
    0.0000   -2.3119    0.0000 Cl   0  0  0  0  0  0  0  0  0  0  0  0
    9.3221   -2.3119    0.0000 Cl   0  0  0  0  0  0  0  0  0  0  0  0
    3.9992    0.0000    0.0000 Cl   0  0  0  0  0  0  0  0  0  0  0  0
    5.3229    0.0000    0.0000 Cl   0  0  0  0  0  0  0  0  0  0  0  0
    7.9890   -4.6051    0.0000 Cl   0  0  0  0  0  0  0  0  0  0  0  0
  1  2  1  0  0  0  0
  1  3  2  0  0  0  0
  1  4  1  0  0  0  0
  2  5  2  0  0  0  0
  2  6  1  0  0  0  0
  3  7  1  0  0  0  0
  4 10  2  0  0  0  0
  4 16  1  0  0  0  0
  5  8  1  0  0  0  0
  5 17  1  0  0  0  0
  6  9  2  0  0  0  0
  7 11  2  0  0  0  0
  7 13  1  0  0  0  0
  8 12  2  0  0  0  0
  9 12  1  0  0  0  0
  9 18  1  0  0  0  0
 10 11  1  0  0  0  0
 11 14  1  0  0  0  0
 12 15  1  0  0  0  0
M  END
> <ID>
6399

> <Formula>
C12H4Cl6

> <FW>
360.8782

> <DSSTox_CID>
12180

> <DSSTox_RID>
78907

> <DSSTox_GSID>
32180

> <DSSTox_FileID_Sort>
3589

> <TS_ChemName>
2,2',4,4',5,5'-Hexachlorobiphenyl

> <TS_ChemName_Synonyms>
PCB 153

> <TS_CASRN>
35065-27-1

> <CASRN_ChemName_Relationship>
primary

> <TS_Description>
single chemical compound

> <ChemNote>
PCB 153

> <STRUCTURE_Shown>
tested chemical

> <STRUCTURE_Formula>
C12H4Cl6

> <STRUCTURE_MW>
360.8782

> <STRUCTURE_ChemType>
defined organic

> <STRUCTURE_DefinedOrganicForm>
parent

> <STRUCTURE_IUPAC>
2,2',4,4',5,5'-hexachlorobiphenyl

> <STRUCTURE_SMILES>
Clc2cc(c1cc(Cl)c(Cl)cc1Cl)c(Cl)cc2Cl

> <STRUCTURE_SMILES_Desalt>
Clc2cc(c1cc(Cl)c(Cl)cc1Cl)c(Cl)cc2Cl

> <Substance_modify_yyyymmdd>
20080429

$$$$
