3508-00-7
ChemmineR-0915142007XD

 18 17  0  0  0  0  0  0  0  0  1 V2000
   18.5936   -0.6507    0.0000 C    0  0  0  0  0  0  0  0  0  0  0  0
   17.4105    0.0000    0.0000 C    0  0  0  0  0  0  0  0  0  0  0  0
   16.2275   -0.6507    0.0000 C    0  0  0  0  0  0  0  0  0  0  0  0
   15.1036    0.0000    0.0000 C    0  0  0  0  0  0  0  0  0  0  0  0
   13.9402   -0.6507    0.0000 C    0  0  0  0  0  0  0  0  0  0  0  0
   12.7375    0.0000    0.0000 C    0  0  0  0  0  0  0  0  0  0  0  0
   11.6333   -0.6507    0.0000 C    0  0  0  0  0  0  0  0  0  0  0  0
   10.4502    0.0000    0.0000 C    0  0  0  0  0  0  0  0  0  0  0  0
    9.2672   -0.6507    0.0000 C    0  0  0  0  0  0  0  0  0  0  0  0
    8.1433    0.0000    0.0000 C    0  0  0  0  0  0  0  0  0  0  0  0
    6.9800   -0.6507    0.0000 C    0  0  0  0  0  0  0  0  0  0  0  0
    5.7772    0.0000    0.0000 C    0  0  0  0  0  0  0  0  0  0  0  0
    4.6730   -0.6507    0.0000 C    0  0  0  0  0  0  0  0  0  0  0  0
    3.4900    0.0000    0.0000 C    0  0  0  0  0  0  0  0  0  0  0  0
    2.3069   -0.6507    0.0000 C    0  0  0  0  0  0  0  0  0  0  0  0
    1.1830    0.0000    0.0000 C    0  0  0  0  0  0  0  0  0  0  0  0
    0.0000   -0.6507    0.0000 C    0  0  0  0  0  0  0  0  0  0  0  0
   19.7175    0.0000    0.0000 Br   0  0  0  0  0  0  0  0  0  0  0  0
  1  2  1  0  0  0  0
  1 18  1  0  0  0  0
  2  3  1  0  0  0  0
  3  4  1  0  0  0  0
  4  5  1  0  0  0  0
  5  6  1  0  0  0  0
  6  7  1  0  0  0  0
  7  8  1  0  0  0  0
  8  9  1  0  0  0  0
  9 10  1  0  0  0  0
 10 11  1  0  0  0  0
 11 12  1  0  0  0  0
 12 13  1  0  0  0  0
 13 14  1  0  0  0  0
 14 15  1  0  0  0  0
 15 16  1  0  0  0  0
 16 17  1  0  0  0  0
M  END
> <ID>
14143

> <Formula>
C17H35Br

> <FW>
319.3638

> <DSSTox_CID>
29136

> <DSSTox_RID>
83355

> <DSSTox_GSID>
49280

> <DSSTox_FileID_Sort>
8030

> <TS_ChemName>
Heptadecane,1-bromo-

> <TS_ChemName_Synonyms>


> <TS_CASRN>
3508-00-7

> <CASRN_ChemName_Relationship>
primary

> <TS_Description>
single chemical compound

> <ChemNote>


> <STRUCTURE_Shown>
tested chemical

> <STRUCTURE_Formula>
C17H35Br

> <STRUCTURE_MW>
319.3638

> <STRUCTURE_ChemType>
defined organic

> <STRUCTURE_DefinedOrganicForm>
parent

> <STRUCTURE_IUPAC>
1-bromoheptadecane

> <STRUCTURE_SMILES>
BrCCCCCCCCCCCCCCCCC

> <STRUCTURE_SMILES_Desalt>
BrCCCCCCCCCCCCCCCCC

> <Substance_modify_yyyymmdd>
20111204

$$$$
