35189-28-7
ChemmineR-0915142007XD

 31 34  0  0  1  0  0  0  0  0  1 V2000
    8.1962   -3.7717    0.0000 C   0  0  0  0  0  0  0  0  0  0  0  0
    9.4777   -3.3607    0.0000 C   0  0  0  0  0  0  0  0  0  0  0  0
    8.1962   -5.1015    0.0000 C   0  0  0  0  0  0  0  0  0  0  0  0
    4.7267   -7.0961    0.0000 C   0  0  0  0  0  0  0  0  0  0  0  0
    7.0236   -5.7785    0.0000 C   0  0  0  0  0  0  0  0  0  0  0  0
    5.8631   -5.1015    0.0000 C   0  0  0  0  0  0  0  0  0  0  0  0
    4.7267   -5.7785    0.0000 C   0  0  0  0  0  0  0  0  0  0  0  0
   10.7712   -3.3849    0.0000 C   0  0  0  0  0  0  0  0  0  0  0  0
    3.5541   -7.7973    0.0000 C   0  0  0  0  0  0  0  0  0  0  0  0
    7.0236   -3.0827    0.0000 C   0  0  0  0  0  0  0  0  0  0  0  0
    9.4777   -2.0309    0.0000 O   0  0  0  0  0  0  0  0  0  0  0  0
    5.8631   -3.7717    0.0000 C   0  0  0  0  0  0  0  0  0  0  0  0
    9.4777   -5.5004    0.0000 C   0  0  0  0  0  0  0  0  0  0  0  0
    7.0236   -7.0961    0.0000 C   0  0  0  0  0  0  0  0  0  0  0  0
   12.0888   -3.3849    0.0000 C   0  0  0  0  0  0  0  0  0  0  0  0
    3.5541   -5.1015    0.0000 C   0  0  0  0  0  0  0  0  0  0  0  0
   10.5536   -1.2935    0.0000 C   0  0  0  0  0  0  0  0  0  0  0  0
   10.2392   -4.4245    0.0000 C   0  0  0  0  0  0  0  0  0  0  0  0
    5.8631   -7.7973    0.0000 C   0  0  0  0  0  0  0  0  0  0  0  0
    2.4178   -7.0961    0.0000 C   0  0  0  0  0  0  0  0  0  0  0  0
    1.2210   -7.7973    0.0000 N   0  0  0  0  0  0  0  0  0  0  0  0
   10.5536    0.0000    0.0000 O   0  0  0  0  0  0  0  0  0  0  0  0
    2.4178   -5.7785    0.0000 C   0  0  0  0  0  0  0  0  0  0  0  0
    8.1962   -2.4299    0.0000 C   0  0  0  0  0  0  0  0  0  0  0  0
    0.0000   -7.1687    0.0000 O   0  0  0  0  0  0  0  0  0  0  0  0
   11.5811   -1.8979    0.0000 C   0  0  0  0  0  0  0  0  0  0  0  0
    7.0115   -1.8012    0.0000 C   0  0  0  0  0  0  0  0  0  0  0  0
    4.7267   -4.4487    0.0000 H   0  0  0  0  0  0  0  0  0  0  0  0
    7.0236   -4.4487    0.0000 H   0  0  0  0  0  0  0  0  0  0  0  0
    8.1962   -6.4313    0.0000 H   0  0  0  0  0  0  0  0  0  0  0  0
    5.8631   -6.4313    0.0000 H   0  0  0  0  0  0  0  0  0  0  0  0
  1  2  1  0  0  0  0
  1  3  1  0  0  0  0
  1 10  1  0  0  0  0
  1 24  1  1  0  0  0
  2  8  1  6  0  0  0
  2 11  1  0  0  0  0
  2 18  1  0  0  0  0
  3  5  1  0  0  0  0
  3 13  1  0  0  0  0
  3 30  1  6  0  0  0
  4  7  1  0  0  0  0
  4  9  2  0  0  0  0
  4 19  1  0  0  0  0
  5 14  1  0  0  0  0
  5  6  1  0  0  0  0
  5 29  1  1  0  0  0
  6 12  1  0  0  0  0
  6  7  1  0  0  0  0
  6 31  1  6  0  0  0
  7 16  1  0  0  0  0
  7 28  1  1  0  0  0
  8 15  3  0  0  0  0
  9 20  1  0  0  0  0
 10 12  1  0  0  0  0
 11 17  1  0  0  0  0
 13 18  1  0  0  0  0
 14 19  1  0  0  0  0
 16 23  1  0  0  0  0
 17 22  2  0  0  0  0
 17 26  1  0  0  0  0
 20 23  1  0  0  0  0
 20 21  2  0  0  0  0
 21 25  1  0  0  0  0
 24 27  1  0  0  0  0
M  END
> <ID>
12081

> <Formula>
C23H31NO3

> <FW>
369.4971

> <DSSTox_CID>
26922

> <DSSTox_RID>
82018

> <DSSTox_GSID>
46922

> <DSSTox_FileID_Sort>
6699

> <TS_ChemName>
Norgestimate

> <TS_ChemName_Synonyms>


> <TS_CASRN>
35189-28-7

> <CASRN_ChemName_Relationship>
primary

> <TS_Description>
single chemical compound

> <ChemNote>
stereochem

> <STRUCTURE_Shown>
tested chemical

> <STRUCTURE_Formula>
C23H31NO3

> <STRUCTURE_MW>
369.4971

> <STRUCTURE_ChemType>
defined organic

> <STRUCTURE_DefinedOrganicForm>
parent

> <STRUCTURE_IUPAC>
(3E,8R,9S,10R,13S,14S,17R)-13-ethyl-17-ethynyl-3-(hydroxyimino)-2,3,6,7,8,9,10,11,12,13,14,15,16,17-tetradecahydro-1H-cyclopenta[a]phenanthren-17-yl acetate

> <STRUCTURE_SMILES>
CC(=O)O[C@@]3(C#C)CC[C@H]2[C@@H]4CCC1=CC(\CC[C@@H]1[C@H]4CC[C@@]23CC)=N\O

> <STRUCTURE_SMILES_Desalt>
CC(=O)O[C@@]3(C#C)CC[C@H]2[C@@H]4CCC1=CC(\CC[C@@H]1[C@H]4CC[C@@]23CC)=N\O

> <Substance_modify_yyyymmdd>
20110725

$$$$
