35212-22-7
ChemmineR-0915142007XD

 21 23  0  0  0  0  0  0  0  0  1 V2000
    8.0258   -2.6523    0.0000 C   0  0  0  0  0  0  0  0  0  0  0  0
    6.8776   -1.9978    0.0000 C   0  0  0  0  0  0  0  0  0  0  0  0
    5.7294   -2.6523    0.0000 C   0  0  0  0  0  0  0  0  0  0  0  0
    8.0258   -4.0186    0.0000 C   0  0  0  0  0  0  0  0  0  0  0  0
    5.7294   -4.0186    0.0000 C   0  0  0  0  0  0  0  0  0  0  0  0
    6.8776   -4.6731    0.0000 O   0  0  0  0  0  0  0  0  0  0  0  0
    4.5812   -4.6731    0.0000 C   0  0  0  0  0  0  0  0  0  0  0  0
    4.5812   -1.9978    0.0000 C   0  0  0  0  0  0  0  0  0  0  0  0
    9.1854   -1.9978    0.0000 C   0  0  0  0  0  0  0  0  0  0  0  0
    6.8776   -0.6545    0.0000 O   0  0  0  0  0  0  0  0  0  0  0  0
    3.4331   -4.0186    0.0000 C   0  0  0  0  0  0  0  0  0  0  0  0
    2.2734   -4.6960    0.0000 O   0  0  0  0  0  0  0  0  0  0  0  0
    3.4331   -2.6523    0.0000 C   0  0  0  0  0  0  0  0  0  0  0  0
    1.1367   -4.0531    0.0000 C   0  0  0  0  0  0  0  0  0  0  0  0
   10.3336   -2.6523    0.0000 C   0  0  0  0  0  0  0  0  0  0  0  0
    9.1854   -0.6545    0.0000 C   0  0  0  0  0  0  0  0  0  0  0  0
    0.0000   -4.7535    0.0000 C   0  0  0  0  0  0  0  0  0  0  0  0
    1.1367   -2.7671    0.0000 C   0  0  0  0  0  0  0  0  0  0  0  0
   10.3336    0.0000    0.0000 C   0  0  0  0  0  0  0  0  0  0  0  0
   11.4818   -1.9978    0.0000 C   0  0  0  0  0  0  0  0  0  0  0  0
   11.4818   -0.6545    0.0000 C   0  0  0  0  0  0  0  0  0  0  0  0
  1  2  1  0  0  0  0
  1  4  2  0  0  0  0
  1  9  1  0  0  0  0
  2  3  1  0  0  0  0
  2 10  2  0  0  0  0
  3  8  1  0  0  0  0
  3  5  2  0  0  0  0
  4  6  1  0  0  0  0
  5  6  1  0  0  0  0
  5  7  1  0  0  0  0
  7 11  2  0  0  0  0
  8 13  2  0  0  0  0
  9 15  1  0  0  0  0
  9 16  2  0  0  0  0
 11 12  1  0  0  0  0
 11 13  1  0  0  0  0
 12 14  1  0  0  0  0
 14 17  1  0  0  0  0
 14 18  1  0  0  0  0
 15 20  2  0  0  0  0
 16 19  1  0  0  0  0
 19 21  2  0  0  0  0
 20 21  1  0  0  0  0
M  END
> <ID>
7877

> <Formula>
C18H16O3

> <FW>
280.3178

> <DSSTox_CID>
20679

> <DSSTox_RID>
79537

> <DSSTox_GSID>
40679

> <DSSTox_FileID_Sort>
4219

> <TS_ChemName>
Ipriflavone

> <TS_ChemName_Synonyms>


> <TS_CASRN>
35212-22-7

> <CASRN_ChemName_Relationship>
primary

> <TS_Description>
single chemical compound

> <ChemNote>


> <STRUCTURE_Shown>
tested chemical

> <STRUCTURE_Formula>
C18H16O3

> <STRUCTURE_MW>
280.3178

> <STRUCTURE_ChemType>
defined organic

> <STRUCTURE_DefinedOrganicForm>
parent

> <STRUCTURE_IUPAC>
3-phenyl-7-(propan-2-yloxy)-4H-chromen-4-one

> <STRUCTURE_SMILES>
CC(C)Oc1ccc2c(c1)OC=C(C2=O)c3ccccc3

> <STRUCTURE_SMILES_Desalt>
CC(C)Oc1ccc2c(c1)OC=C(C2=O)c3ccccc3

> <Substance_modify_yyyymmdd>
20080429

$$$$
