3521-62-8
ChemmineR-0915142007XD

 72 73  0  0  1  0  0  0  0  0  1 V2000
    8.2002   -7.0512    0.0000 C   0  0  0  0  0  0  0  0  0  0  0  0
    6.0240   -7.0512    0.0000 C   0  0  0  0  0  0  0  0  0  0  0  0
    4.9445   -3.8999    0.0000 C   0  0  0  0  0  0  0  0  0  0  0  0
    7.1556   -7.6953    0.0000 C   0  0  0  0  0  0  0  0  0  0  0  0
    9.2971   -5.1883    0.0000 C   0  0  0  0  0  0  0  0  0  0  0  0
    8.2002   -5.8150    0.0000 C   0  0  0  0  0  0  0  0  0  0  0  0
    6.0240   -2.0196    0.0000 C   0  0  0  0  0  0  0  0  0  0  0  0
    6.0240   -5.8150    0.0000 O   0  0  0  0  0  0  0  0  0  0  0  0
    6.0240   -3.2731    0.0000 C   0  0  0  0  0  0  0  0  0  0  0  0
    7.1730   -1.3232    0.0000 C   0  0  0  0  0  0  0  0  0  0  0  0
   10.4114   -5.8673    0.0000 O   0  0  0  0  0  0  0  0  0  0  0  0
    9.2971   -3.8999    0.0000 C   0  0  0  0  0  0  0  0  0  0  0  0
    4.9445   -5.1883    0.0000 C   0  0  0  0  0  0  0  0  0  0  0  0
    9.3145   -7.7476    0.0000 O   0  0  0  0  0  0  0  0  0  0  0  0
    8.2002   -2.0196    0.0000 C   0  0  0  0  0  0  0  0  0  0  0  0
    8.2002   -3.2731    0.0000 C   0  0  0  0  0  0  0  0  0  0  0  0
    4.9445   -7.7476    0.0000 O   0  0  0  0  0  0  0  0  0  0  0  0
    7.1730    0.0000    0.0000 O   0  0  0  0  0  0  0  0  0  0  0  0
    4.9445   -2.6115    0.0000 O   0  0  0  0  0  0  0  0  0  0  0  0
    9.2971   -2.6115    0.0000 O   0  0  0  0  0  0  0  0  0  0  0  0
    7.1556   -3.9173    0.0000 O   0  0  0  0  0  0  0  0  0  0  0  0
    3.8651   -3.2035    0.0000 C   0  0  0  0  0  0  0  0  0  0  0  0
    6.8422   -8.9315    0.0000 C   0  0  0  0  0  0  0  0  0  0  0  0
    7.1556   -5.1709    0.0000 C   0  0  0  0  0  0  0  0  0  0  0  0
    4.9445   -1.3754    0.0000 C   0  0  0  0  0  0  0  0  0  0  0  0
   10.1676   -3.6213    0.0000 C   0  0  0  0  0  0  0  0  0  0  0  0
    3.8651   -5.8673    0.0000 C   0  0  0  0  0  0  0  0  0  0  0  0
    9.0185   -1.0620    0.0000 C   0  0  0  0  0  0  0  0  0  0  0  0
    3.5691   -7.1034    0.0000 C   0  0  0  0  0  0  0  0  0  0  0  0
   10.4636  -11.0904    0.0000 C   0  0  0  0  0  0  0  0  0  0  0  0
    9.3145  -11.7519    0.0000 C   0  0  0  0  0  0  0  0  0  0  0  0
   10.4636   -9.7498    0.0000 C   0  0  0  0  0  0  0  0  0  0  0  0
    8.1306  -11.0904    0.0000 C   0  0  0  0  0  0  0  0  0  0  0  0
    9.3145   -9.0708    0.0000 C   0  0  0  0  0  0  0  0  0  0  0  0
    8.1306   -9.7498    0.0000 O   0  0  0  0  0  0  0  0  0  0  0  0
   11.8042  -11.0729    0.0000 O   0  0  0  0  0  0  0  0  0  0  0  0
    9.3145  -13.1099    0.0000 O   0  0  0  0  0  0  0  0  0  0  0  0
   10.8466  -12.5180    0.0000 C   0  0  0  0  0  0  0  0  0  0  0  0
   12.5180  -12.2220    0.0000 C   0  0  0  0  0  0  0  0  0  0  0  0
    6.9815  -11.7519    0.0000 C   0  0  0  0  0  0  0  0  0  0  0  0
   13.7541   -4.6660    0.0000 C   0  0  0  0  0  0  0  0  0  0  0  0
   14.4505   -5.8673    0.0000 C   0  0  0  0  0  0  0  0  0  0  0  0
   12.4135   -4.6660    0.0000 C   0  0  0  0  0  0  0  0  0  0  0  0
   13.7541   -6.9989    0.0000 C   0  0  0  0  0  0  0  0  0  0  0  0
   11.7519   -5.8673    0.0000 C   0  0  0  0  0  0  0  0  0  0  0  0
   12.4135   -6.9989    0.0000 O   0  0  0  0  0  0  0  0  0  0  0  0
   14.4505   -8.1654    0.0000 C   0  0  0  0  0  0  0  0  0  0  0  0
   11.7519   -3.5169    0.0000 O   0  0  0  0  0  0  0  0  0  0  0  0
   14.4505   -3.5169    0.0000 N   0  0  0  0  0  0  0  0  0  0  0  0
   15.7737   -3.5169    0.0000 C   0  0  0  0  0  0  0  0  0  0  0  0
   13.7541   -2.3678    0.0000 C   0  0  0  0  0  0  0  0  0  0  0  0
   11.7519   -2.2285    0.0000 C   0  0  0  0  0  0  0  0  0  0  0  0
   12.8836   -1.5669    0.0000 C   0  0  0  0  0  0  0  0  0  0  0  0
   10.6203   -1.5495    0.0000 O   0  0  0  0  0  0  0  0  0  0  0  0
   12.8836   -0.2612    0.0000 C   0  0  0  0  0  0  0  0  0  0  0  0
   16.1742  -14.8684    0.0000 S   0  0  0  0  0  0  0  0  0  0  0  0
   17.4103  -14.1546    0.0000 O   0  0  0  0  0  0  0  0  0  0  0  0
   16.8880  -16.1219    0.0000 O   0  0  0  0  0  0  0  0  0  0  0  0
   15.4603  -13.6323    0.0000 O   0  0  0  0  0  0  0  0  0  0  0  0
   14.9380  -15.5822    0.0000 O   0  0  0  0  0  0  0  0  0  0  0  0
   13.6845  -14.8684    0.0000 C   0  0  0  0  0  0  0  0  0  0  0  0
   12.4484  -15.5822    0.0000 C   0  0  0  0  0  0  0  0  0  0  0  0
   11.1948  -14.8684    0.0000 C   0  0  0  0  0  0  0  0  0  0  0  0
    9.9587  -15.5822    0.0000 C   0  0  0  0  0  0  0  0  0  0  0  0
    8.7051  -14.8684    0.0000 C   0  0  0  0  0  0  0  0  0  0  0  0
    7.4516  -15.5822    0.0000 C   0  0  0  0  0  0  0  0  0  0  0  0
    6.2155  -14.8684    0.0000 C   0  0  0  0  0  0  0  0  0  0  0  0
    4.9793  -15.5822    0.0000 C   0  0  0  0  0  0  0  0  0  0  0  0
    3.7432  -14.8684    0.0000 C   0  0  0  0  0  0  0  0  0  0  0  0
    2.4897  -15.5822    0.0000 C   0  0  0  0  0  0  0  0  0  0  0  0
    1.2535  -14.8684    0.0000 C   0  0  0  0  0  0  0  0  0  0  0  0
    0.0000  -15.5822    0.0000 C   0  0  0  0  0  0  0  0  0  0  0  0
  1  6  1  0  0  0  0
  1  4  1  0  0  0  0
  1 14  1  6  0  0  0
  2  4  1  0  0  0  0
  2  8  1  0  0  0  0
  2 17  2  0  0  0  0
  3  9  1  0  0  0  0
  3 19  1  1  0  0  0
  3 22  1  6  0  0  0
  3 13  1  0  0  0  0
  4 23  1  1  0  0  0
  5 11  1  6  0  0  0
  5  6  1  0  0  0  0
  5 12  1  0  0  0  0
  6 24  1  6  0  0  0
  7 10  1  0  0  0  0
  7  9  1  0  0  0  0
  7 25  1  1  0  0  0
  8 13  1  0  0  0  0
  9 21  1  1  0  0  0
 10 15  1  0  0  0  0
 10 18  2  0  0  0  0
 45 11  1  1  0  0  0
 12 16  1  0  0  0  0
 12 20  1  1  0  0  0
 12 26  1  6  0  0  0
 13 27  1  6  0  0  0
 34 14  1  1  0  0  0
 15 16  1  0  0  0  0
 15 28  1  6  0  0  0
 27 29  1  0  0  0  0
 30 31  1  0  0  0  0
 30 32  1  0  0  0  0
 30 36  1  1  0  0  0
 30 38  1  0  0  0  0
 31 33  1  0  0  0  0
 31 37  1  1  0  0  0
 32 34  1  0  0  0  0
 33 35  1  0  0  0  0
 33 40  1  6  0  0  0
 34 35  1  0  0  0  0
 36 39  1  0  0  0  0
 41 42  1  0  0  0  0
 41 43  1  0  0  0  0
 41 49  1  1  0  0  0
 42 44  1  0  0  0  0
 43 45  1  0  0  0  0
 43 48  1  6  0  0  0
 44 46  1  0  0  0  0
 44 47  1  1  0  0  0
 45 46  1  0  0  0  0
 48 52  1  0  0  0  0
 49 50  1  0  0  0  0
 49 51  1  0  0  0  0
 52 53  1  0  0  0  0
 52 54  2  0  0  0  0
 53 55  1  0  0  0  0
 56 57  2  0  0  0  0
 56 58  2  0  0  0  0
 56 59  1  0  0  0  0
 56 60  1  0  0  0  0
 60 61  1  0  0  0  0
 61 62  1  0  0  0  0
 62 63  1  0  0  0  0
 63 64  1  0  0  0  0
 64 65  1  0  0  0  0
 65 66  1  0  0  0  0
 66 67  1  0  0  0  0
 67 68  1  0  0  0  0
 68 69  1  0  0  0  0
 69 70  1  0  0  0  0
 70 71  1  0  0  0  0
 71 72  1  0  0  0  0
M  END
> <ID>
7277

> <Formula>
C52H97NO18S

> <FW>
1056.3875 (789.9900+266.3974)

> <DSSTox_CID>
17224

> <DSSTox_RID>
79309

> <DSSTox_GSID>
37224

> <DSSTox_FileID_Sort>
3991

> <TS_ChemName>
Erythromycin estolate

> <TS_ChemName_Synonyms>


> <TS_CASRN>
3521-62-8

> <CASRN_ChemName_Relationship>
primary

> <TS_Description>
single chemical compound

> <ChemNote>
stereochem; parent [134-36-1]

> <STRUCTURE_Shown>
tested chemical

> <STRUCTURE_Formula>
C52H97NO18S

> <STRUCTURE_MW>
1056.3875

> <STRUCTURE_ChemType>
defined organic

> <STRUCTURE_DefinedOrganicForm>
complex

> <STRUCTURE_IUPAC>
(2S,3R,4S,6R)-4-(dimethylamino)-2-{[(3R,4S,5S,6R,7R,9R,11R,12R,13S,14R)-14-ethyl-7,12,13-trihydroxy-4-{[(2R,4R,5S,6S)-5-hydroxy-4-methoxy-4,6-dimethyltetrahydro-2H-pyran-2-yl]oxy}-3,5,7,9,11,13-hexamethyl-2,10-dioxooxacyclotetradecan-6-yl]oxy}-6-methyltet

> <STRUCTURE_SMILES>
O=S(=O)(O)OCCCCCCCCCCCC.CCC(=O)O[C@@H]3[C@H](C[C@@H](C)O[C@H]3O[C@@H]2[C@@H](C)[C@H](O[C@H]1C[C@@](C)(OC)[C@@H](O)[C@H](C)O1)[C@@H](C)C(=O)O[C@H](CC)[C@@](C)(O)[C@H](O)[C@@H](C)C(=O)[C@H](C)C[C@@]2(C)O)N(C)C

> <STRUCTURE_SMILES_Desalt>
CCC(=O)O[C@@H]3[C@H](C[C@@H](C)O[C@H]3O[C@@H]2[C@@H](C)[C@H](O[C@H]1C[C@@](C)(OC)[C@@H](O)[C@H](C)O1)[C@@H](C)C(=O)O[C@H](CC)[C@@](C)(O)[C@H](O)[C@@H](C)C(=O)[C@H](C)C[C@@]2(C)O)N(C)C

> <Substance_modify_yyyymmdd>
20080429

$$$$
