35256-85-0
ChemmineR-0915142007XD

 17 17  0  0  0  0  0  0  0  0  1 V2000
    5.7690   -2.6539    0.0000 C   0  0  0  0  0  0  0  0  0  0  0  0
    5.7690   -1.3269    0.0000 C   0  0  0  0  0  0  0  0  0  0  0  0
    4.4350   -1.3269    0.0000 C   0  0  0  0  0  0  0  0  0  0  0  0
    6.9186   -3.3280    0.0000 O   0  0  0  0  0  0  0  0  0  0  0  0
    4.6124   -3.3280    0.0000 N   0  0  0  0  0  0  0  0  0  0  0  0
    7.0960   -1.3269    0.0000 C   0  0  0  0  0  0  0  0  0  0  0  0
    5.7690    0.0000    0.0000 C   0  0  0  0  0  0  0  0  0  0  0  0
    4.6124   -4.6408    0.0000 C   0  0  0  0  0  0  0  0  0  0  0  0
    5.7690   -5.3149    0.0000 C   0  0  0  0  0  0  0  0  0  0  0  0
    3.4628   -5.3149    0.0000 C   0  0  0  0  0  0  0  0  0  0  0  0
    3.4628   -2.6539    0.0000 C   0  0  0  0  0  0  0  0  0  0  0  0
    2.3062   -3.3280    0.0000 C   0  0  0  0  0  0  0  0  0  0  0  0
    1.1566   -2.6539    0.0000 C   0  0  0  0  0  0  0  0  0  0  0  0
    2.3062   -4.6408    0.0000 C   0  0  0  0  0  0  0  0  0  0  0  0
    0.0000   -3.3280    0.0000 C   0  0  0  0  0  0  0  0  0  0  0  0
    1.1566   -5.3149    0.0000 C   0  0  0  0  0  0  0  0  0  0  0  0
    0.0000   -4.6408    0.0000 C   0  0  0  0  0  0  0  0  0  0  0  0
  1  2  1  0  0  0  0
  1  5  1  0  0  0  0
  1  4  2  0  0  0  0
  2  3  1  0  0  0  0
  2  6  1  0  0  0  0
  2  7  1  0  0  0  0
  5  8  1  0  0  0  0
  5 11  1  0  0  0  0
  8  9  1  0  0  0  0
  8 10  1  0  0  0  0
 11 12  1  0  0  0  0
 12 13  2  0  0  0  0
 12 14  1  0  0  0  0
 13 15  1  0  0  0  0
 14 16  2  0  0  0  0
 15 17  2  0  0  0  0
 16 17  1  0  0  0  0
M  END
> <ID>
8647

> <Formula>
C15H23NO

> <FW>
233.3492

> <DSSTox_CID>
21691

> <DSSTox_RID>
79821

> <DSSTox_GSID>
41691

> <DSSTox_FileID_Sort>
4503

> <TS_ChemName>
Butam

> <TS_ChemName_Synonyms>


> <TS_CASRN>
35256-85-0

> <CASRN_ChemName_Relationship>
primary

> <TS_Description>
single chemical compound

> <ChemNote>


> <STRUCTURE_Shown>
tested chemical

> <STRUCTURE_Formula>
C15H23NO

> <STRUCTURE_MW>
233.3492

> <STRUCTURE_ChemType>
defined organic

> <STRUCTURE_DefinedOrganicForm>
parent

> <STRUCTURE_IUPAC>
N-benzyl-2,2-dimethyl-N-(propan-2-yl)propanamide

> <STRUCTURE_SMILES>
CC(C)(C)C(=O)N(Cc1ccccc1)C(C)C

> <STRUCTURE_SMILES_Desalt>
CC(C)(C)C(=O)N(Cc1ccccc1)C(C)C

> <Substance_modify_yyyymmdd>
20080825

$$$$
