35250-53-4
ChemmineR-0915142007XD

  9  9  0  0  0  0  0  0  0  0  1 V2000
    0.6645   -2.3047    0.0000 N   0  0  0  0  0  0  0  0  0  0  0  0
    0.0000   -1.1553    0.0000 C   0  0  0  0  0  0  0  0  0  0  0  0
    0.6645    0.0000    0.0000 C   0  0  0  0  0  0  0  0  0  0  0  0
    1.9934    0.0000    0.0000 N   0  0  0  0  0  0  0  0  0  0  0  0
    2.6578   -1.1553    0.0000 C   0  0  0  0  0  0  0  0  0  0  0  0
    3.9928   -1.1553    0.0000 C   0  0  0  0  0  0  0  0  0  0  0  0
    4.6572   -2.3047    0.0000 C   0  0  0  0  0  0  0  0  0  0  0  0
    5.9861   -2.3047    0.0000 S   0  0  0  0  0  0  0  0  0  0  0  0
    1.9934   -2.3047    0.0000 C   0  0  0  0  0  0  0  0  0  0  0  0
  1  2  2  0  0  0  0
  1  9  1  0  0  0  0
  2  3  1  0  0  0  0
  3  4  2  0  0  0  0
  4  5  1  0  0  0  0
  5  6  1  0  0  0  0
  5  9  2  0  0  0  0
  6  7  1  0  0  0  0
  7  8  1  0  0  0  0
M  END
> <ID>
4489

> <Formula>
C6H8N2S

> <FW>
140.2061

> <DSSTox_CID>
5977

> <DSSTox_RID>
77979

> <DSSTox_GSID>
25977

> <DSSTox_FileID_Sort>
2662

> <TS_ChemName>
Pyrazineethanethiol

> <TS_ChemName_Synonyms>


> <TS_CASRN>
35250-53-4

> <CASRN_ChemName_Relationship>
primary

> <TS_Description>
single chemical compound

> <ChemNote>


> <STRUCTURE_Shown>
tested chemical

> <STRUCTURE_Formula>
C6H8N2S

> <STRUCTURE_MW>
140.2061

> <STRUCTURE_ChemType>
defined organic

> <STRUCTURE_DefinedOrganicForm>
parent

> <STRUCTURE_IUPAC>
2-(pyrazin-2-yl)ethanethiol

> <STRUCTURE_SMILES>
SCCc1cnccn1

> <STRUCTURE_SMILES_Desalt>
SCCc1cnccn1

> <Substance_modify_yyyymmdd>
20080429

$$$$
