353280-07-6
ChemmineR-0915142007XD

 30 33  0  0  0  0  0  0  0  0  1 V2000
    2.6542   -5.5004    0.0000 C   0  0  0  0  0  0  0  0  0  0  0  0
    1.9878   -6.6525    0.0000 C   0  0  0  0  0  0  0  0  0  0  0  0
    3.9870   -5.5004    0.0000 O   0  0  0  0  0  0  0  0  0  0  0  0
    1.9878   -4.3371    0.0000 N   0  0  0  0  0  0  0  0  0  0  0  0
    2.6542   -7.8045    0.0000 C   0  0  0  0  0  0  0  0  0  0  0  0
    0.6551   -6.6525    0.0000 C   0  0  0  0  0  0  0  0  0  0  0  0
    4.6421   -4.3371    0.0000 C   0  0  0  0  0  0  0  0  0  0  0  0
    0.6551   -4.3371    0.0000 C   0  0  0  0  0  0  0  0  0  0  0  0
    3.9870   -7.8045    0.0000 N   0  0  0  0  0  0  0  0  0  0  0  0
    1.9878   -8.9566    0.0000 O   0  0  0  0  0  0  0  0  0  0  0  0
    0.0000   -5.5004    0.0000 C   0  0  0  0  0  0  0  0  0  0  0  0
    3.9870   -3.1851    0.0000 C   0  0  0  0  0  0  0  0  0  0  0  0
    5.9748   -4.3371    0.0000 C   0  0  0  0  0  0  0  0  0  0  0  0
    4.6421   -6.6525    0.0000 C   0  0  0  0  0  0  0  0  0  0  0  0
    4.6421   -2.0330    0.0000 C   0  0  0  0  0  0  0  0  0  0  0  0
    6.6525   -3.1851    0.0000 C   0  0  0  0  0  0  0  0  0  0  0  0
    5.9748   -6.6525    0.0000 C   0  0  0  0  0  0  0  0  0  0  0  0
    5.9748   -2.0330    0.0000 C   0  0  0  0  0  0  0  0  0  0  0  0
    4.2468   -0.7680    0.0000 N   0  0  0  0  0  0  0  0  0  0  0  0
    6.6525   -5.5004    0.0000 C   0  0  0  0  0  0  0  0  0  0  0  0
    6.6525   -7.8045    0.0000 C   0  0  0  0  0  0  0  0  0  0  0  0
    6.3927   -0.7680    0.0000 N   0  0  0  0  0  0  0  0  0  0  0  0
    5.3197    0.0000    0.0000 O   0  0  0  0  0  0  0  0  0  0  0  0
    7.9740   -5.5004    0.0000 C   0  0  0  0  0  0  0  0  0  0  0  0
    7.9740   -7.8045    0.0000 C   0  0  0  0  0  0  0  0  0  0  0  0
    8.6403   -6.6525    0.0000 C   0  0  0  0  0  0  0  0  0  0  0  0
    9.9618   -6.6525    0.0000 C   0  0  0  0  0  0  0  0  0  0  0  0
    9.9618   -7.9740    0.0000 C   0  0  0  0  0  0  0  0  0  0  0  0
    9.9618   -5.3197    0.0000 C   0  0  0  0  0  0  0  0  0  0  0  0
   11.2946   -6.6525    0.0000 O   0  0  0  0  0  0  0  0  0  0  0  0
  1  2  1  0  0  0  0
  1  3  1  0  0  0  0
  1  4  2  0  0  0  0
  2  5  1  0  0  0  0
  2  6  2  0  0  0  0
  3  7  1  0  0  0  0
  4  8  1  0  0  0  0
  5  9  1  0  0  0  0
  5 10  2  0  0  0  0
  6 11  1  0  0  0  0
  7 12  2  0  0  0  0
  7 13  1  0  0  0  0
  8 11  2  0  0  0  0
  9 14  1  0  0  0  0
 12 15  1  0  0  0  0
 13 16  2  0  0  0  0
 14 17  1  0  0  0  0
 15 18  1  0  0  0  0
 15 19  2  0  0  0  0
 16 18  1  0  0  0  0
 17 20  2  0  0  0  0
 17 21  1  0  0  0  0
 18 22  2  0  0  0  0
 19 23  1  0  0  0  0
 20 24  1  0  0  0  0
 21 25  2  0  0  0  0
 22 23  1  0  0  0  0
 24 26  2  0  0  0  0
 25 26  1  0  0  0  0
 26 27  1  0  0  0  0
 27 28  1  0  0  0  0
 27 29  1  0  0  0  0
 27 30  1  0  0  0  0
M  END
> <ID>
12423

> <Formula>
C22H20N4O4

> <FW>
404.4186

> <DSSTox_CID>
27281

> <DSSTox_RID>
82235

> <DSSTox_GSID>
47281

> <DSSTox_FileID_Sort>
6916

> <TS_ChemName>
CP-612372

> <TS_ChemName_Synonyms>


> <TS_CASRN>
353280-07-6

> <CASRN_ChemName_Relationship>
primary

> <TS_Description>
single chemical compound

> <ChemNote>


> <STRUCTURE_Shown>
tested chemical

> <STRUCTURE_Formula>
C22H20N4O4

> <STRUCTURE_MW>
404.4186

> <STRUCTURE_ChemType>
defined organic

> <STRUCTURE_DefinedOrganicForm>
parent

> <STRUCTURE_IUPAC>
2-(2,1,3-benzoxadiazol-5-yloxy)-N-[4-(2-hydroxypropan-2-yl)benzyl]pyridine-3-carboxamide

> <STRUCTURE_SMILES>
CC(C)(O)c1ccc(cc1)CNC(=O)c4cccnc4Oc2ccc3nonc3c2

> <STRUCTURE_SMILES_Desalt>
CC(C)(O)c1ccc(cc1)CNC(=O)c4cccnc4Oc2ccc3nonc3c2

> <Substance_modify_yyyymmdd>
20130910

$$$$
