35367-38-5
ChemmineR-0915142007XD

 21 22  0  0  0  0  0  0  0  0  1 V2000
    3.9813   -3.4433    0.0000 C    0  0  0  0  0  0  0  0  0  0  0  0
    4.6389   -2.3075    0.0000 N    0  0  0  0  0  0  0  0  0  0  0  0
    2.6423   -3.4433    0.0000 C    0  0  0  0  0  0  0  0  0  0  0  0
    5.9780   -2.3075    0.0000 C    0  0  0  0  0  0  0  0  0  0  0  0
    6.6356   -1.1478    0.0000 N    0  0  0  0  0  0  0  0  0  0  0  0
    4.6509   -4.6031    0.0000 O    0  0  0  0  0  0  0  0  0  0  0  0
    1.9727   -2.3075    0.0000 C    0  0  0  0  0  0  0  0  0  0  0  0
    1.9847   -4.6031    0.0000 C    0  0  0  0  0  0  0  0  0  0  0  0
    6.6475   -3.4433    0.0000 O    0  0  0  0  0  0  0  0  0  0  0  0
    7.9746   -1.1478    0.0000 C    0  0  0  0  0  0  0  0  0  0  0  0
   10.6408   -1.1478    0.0000 C    0  0  0  0  0  0  0  0  0  0  0  0
    2.6303   -1.1239    0.0000 F    0  0  0  0  0  0  0  0  0  0  0  0
    2.6542   -5.7508    0.0000 F    0  0  0  0  0  0  0  0  0  0  0  0
   11.9560   -1.1478    0.0000 Cl   0  0  0  0  0  0  0  0  0  0  0  0
    8.6322    0.0000    0.0000 C    0  0  0  0  0  0  0  0  0  0  0  0
    8.6561   -2.3075    0.0000 C    0  0  0  0  0  0  0  0  0  0  0  0
    9.9832   -2.3075    0.0000 C    0  0  0  0  0  0  0  0  0  0  0  0
    9.9832    0.0000    0.0000 C    0  0  0  0  0  0  0  0  0  0  0  0
    0.0000   -3.4433    0.0000 C    0  0  0  0  0  0  0  0  0  0  0  0
    0.6576   -4.6031    0.0000 C    0  0  0  0  0  0  0  0  0  0  0  0
    0.6576   -2.3075    0.0000 C    0  0  0  0  0  0  0  0  0  0  0  0
  1  2  1  0  0  0  0
  1  3  1  0  0  0  0
  1  6  2  0  0  0  0
  2  4  1  0  0  0  0
  3  7  1  0  0  0  0
  3  8  2  0  0  0  0
  4  5  1  0  0  0  0
  4  9  2  0  0  0  0
  5 10  1  0  0  0  0
  7 12  1  0  0  0  0
  7 21  2  0  0  0  0
  8 13  1  0  0  0  0
  8 20  1  0  0  0  0
 10 15  1  0  0  0  0
 10 16  2  0  0  0  0
 11 17  2  0  0  0  0
 11 14  1  0  0  0  0
 11 18  1  0  0  0  0
 15 18  2  0  0  0  0
 16 17  1  0  0  0  0
 19 20  2  0  0  0  0
 19 21  1  0  0  0  0
M  END
> <ID>
3479

> <Formula>
C14H9ClF2N2O2

> <FW>
310.6833

> <DSSTox_CID>
4049

> <DSSTox_RID>
77268

> <DSSTox_GSID>
24049

> <DSSTox_FileID_Sort>
1951

> <TS_ChemName>
Diflubenzuron

> <TS_ChemName_Synonyms>


> <TS_CASRN>
35367-38-5

> <CASRN_ChemName_Relationship>
primary

> <TS_Description>
single chemical compound

> <ChemNote>


> <STRUCTURE_Shown>
tested chemical

> <STRUCTURE_Formula>
C14H9ClF2N2O2

> <STRUCTURE_MW>
310.6833

> <STRUCTURE_ChemType>
defined organic

> <STRUCTURE_DefinedOrganicForm>
parent

> <STRUCTURE_IUPAC>
N-[(4-chlorophenyl)carbamoyl]-2,6-difluorobenzamide

> <STRUCTURE_SMILES>
Clc2ccc(NC(=O)NC(=O)c1c(F)cccc1F)cc2

> <STRUCTURE_SMILES_Desalt>
Clc2ccc(NC(=O)NC(=O)c1c(F)cccc1F)cc2

> <Substance_modify_yyyymmdd>
20080429

$$$$
