354-58-5
ChemmineR-0915142007XD

  8  7  0  0  0  0  0  0  0  0  1 V2000
    1.3283   -1.3323    0.0000 C    0  0  0  0  0  0  0  0  0  0  0  0
    2.6605   -1.3323    0.0000 C    0  0  0  0  0  0  0  0  0  0  0  0
    1.3283    0.0000    0.0000 Cl   0  0  0  0  0  0  0  0  0  0  0  0
    0.0000   -1.3323    0.0000 Cl   0  0  0  0  0  0  0  0  0  0  0  0
    1.3123   -2.6605    0.0000 Cl   0  0  0  0  0  0  0  0  0  0  0  0
    2.6446   -2.6605    0.0000 F    0  0  0  0  0  0  0  0  0  0  0  0
    2.6605    0.0000    0.0000 F    0  0  0  0  0  0  0  0  0  0  0  0
    3.9888   -1.3323    0.0000 F    0  0  0  0  0  0  0  0  0  0  0  0
  1  2  1  0  0  0  0
  1  3  1  0  0  0  0
  1  4  1  0  0  0  0
  1  5  1  0  0  0  0
  2  6  1  0  0  0  0
  2  7  1  0  0  0  0
  2  8  1  0  0  0  0
M  END
> <ID>
4956

> <Formula>
C2Cl3F3

> <FW>
187.3756

> <DSSTox_CID>
7148

> <DSSTox_RID>
78325

> <DSSTox_GSID>
27148

> <DSSTox_FileID_Sort>
3008

> <TS_ChemName>
1,1,1-Trichloro-2,2,2-trifluoroethane

> <TS_ChemName_Synonyms>
CFC-113a

> <TS_CASRN>
354-58-5

> <CASRN_ChemName_Relationship>
primary

> <TS_Description>
single chemical compound

> <ChemNote>


> <STRUCTURE_Shown>
tested chemical

> <STRUCTURE_Formula>
C2Cl3F3

> <STRUCTURE_MW>
187.3756

> <STRUCTURE_ChemType>
defined organic

> <STRUCTURE_DefinedOrganicForm>
parent

> <STRUCTURE_IUPAC>
1,1,1-trichloro-2,2,2-trifluoroethane

> <STRUCTURE_SMILES>
ClC(Cl)(Cl)C(F)(F)F

> <STRUCTURE_SMILES_Desalt>
ClC(Cl)(Cl)C(F)(F)F

> <Substance_modify_yyyymmdd>
20080429

$$$$
