35400-43-2
ChemmineR-0915142007XD

 18 18  0  0  0  0  0  0  0  0  1 V2000
    4.5827   -3.4428    0.0000 P   0  0  0  0  0  0  0  0  0  0  0  0
    3.9149   -4.6172    0.0000 S   0  0  0  0  0  0  0  0  0  0  0  0
    5.7456   -4.0991    0.0000 O   0  0  0  0  0  0  0  0  0  0  0  0
    3.4313   -2.7750    0.0000 S   0  0  0  0  0  0  0  0  0  0  0  0
    5.2620   -2.2798    0.0000 O   0  0  0  0  0  0  0  0  0  0  0  0
    6.8971   -3.4428    0.0000 C   0  0  0  0  0  0  0  0  0  0  0  0
    9.1999   -2.0956    0.0000 C   0  0  0  0  0  0  0  0  0  0  0  0
   10.3629   -1.4393    0.0000 S   0  0  0  0  0  0  0  0  0  0  0  0
    6.8971   -2.0956    0.0000 C   0  0  0  0  0  0  0  0  0  0  0  0
    8.0140   -4.0991    0.0000 C   0  0  0  0  0  0  0  0  0  0  0  0
    9.1999   -3.4313    0.0000 C   0  0  0  0  0  0  0  0  0  0  0  0
    8.0140   -1.4623    0.0000 C   0  0  0  0  0  0  0  0  0  0  0  0
    2.2798   -3.4658    0.0000 C   0  0  0  0  0  0  0  0  0  0  0  0
   11.5143   -2.0956    0.0000 C   0  0  0  0  0  0  0  0  0  0  0  0
    4.5827   -1.1399    0.0000 C   0  0  0  0  0  0  0  0  0  0  0  0
    1.1169   -2.8095    0.0000 C   0  0  0  0  0  0  0  0  0  0  0  0
    5.2390    0.0000    0.0000 C   0  0  0  0  0  0  0  0  0  0  0  0
    0.0000   -3.4773    0.0000 C   0  0  0  0  0  0  0  0  0  0  0  0
  1  2  2  0  0  0  0
  1  3  1  0  0  0  0
  1  4  1  0  0  0  0
  1  5  1  0  0  0  0
  3  6  1  0  0  0  0
  4 13  1  0  0  0  0
  5 15  1  0  0  0  0
  6  9  1  0  0  0  0
  6 10  2  0  0  0  0
  7 11  2  0  0  0  0
  7  8  1  0  0  0  0
  7 12  1  0  0  0  0
  8 14  1  0  0  0  0
  9 12  2  0  0  0  0
 10 11  1  0  0  0  0
 13 16  1  0  0  0  0
 15 17  1  0  0  0  0
 16 18  1  0  0  0  0
M  END
> <ID>
6576

> <Formula>
C12H19O2PS3

> <FW>
322.4468

> <DSSTox_CID>
12675

> <DSSTox_RID>
79031

> <DSSTox_GSID>
32675

> <DSSTox_FileID_Sort>
3713

> <TS_ChemName>
Sulprofos

> <TS_ChemName_Synonyms>


> <TS_CASRN>
35400-43-2

> <CASRN_ChemName_Relationship>
primary

> <TS_Description>
single chemical compound

> <ChemNote>


> <STRUCTURE_Shown>
tested chemical

> <STRUCTURE_Formula>
C12H19O2PS3

> <STRUCTURE_MW>
322.4468

> <STRUCTURE_ChemType>
defined organic

> <STRUCTURE_DefinedOrganicForm>
parent

> <STRUCTURE_IUPAC>
O-ethyl O-[4-(methylsulfanyl)phenyl] S-propyl phosphorodithioate

> <STRUCTURE_SMILES>
CSc1ccc(OP(=S)(OCC)SCCC)cc1

> <STRUCTURE_SMILES_Desalt>
CSc1ccc(OP(=S)(OCC)SCCC)cc1

> <Substance_modify_yyyymmdd>
20080429

$$$$
