35418-55-4
ChemmineR-0915142007XD

 50 49  0  0  1  0  0  0  0  0  2 V2000
    0.0000   -1.9788    0.0000 C   0  0  0  0  0  0  0  0  0  0  0  0
    1.1711   -1.2923    0.0000 C   0  0  0  0  0  0  0  0  0  0  0  0
    2.3019   -1.9788    0.0000 C   0  0  0  0  0  0  0  0  0  0  0  0
    3.4326   -1.3327    0.0000 C   0  0  0  0  0  0  0  0  0  0  0  0
    4.6037   -1.9788    0.0000 C   0  0  0  0  0  0  0  0  0  0  0  0
    5.7749   -1.3327    0.0000 C   0  0  0  0  0  0  0  0  0  0  0  0
    6.9056   -1.9788    0.0000 C   0  0  0  0  0  0  0  0  0  0  0  0
    8.0767   -1.3327    0.0000 C   0  0  0  0  0  0  0  0  0  0  0  0
    9.2075   -1.9788    0.0000 C   0  0  0  0  0  0  0  0  0  0  0  0
   10.3786   -1.3327    0.0000 C   0  0  0  0  0  0  0  0  0  0  0  0
   11.5093   -1.9788    0.0000 C   0  0  0  0  0  0  0  0  0  0  0  0
   12.6804   -1.3327    0.0000 C   0  0  0  0  0  0  0  0  0  0  0  0
   13.8516   -2.0192    0.0000 C   0  0  0  0  0  0  0  0  0  0  0  0
   14.9823   -1.3327    0.0000 C   0  0  0  0  0  0  0  0  0  0  0  0
   16.1534   -2.0192    0.0000 C   0  0  0  0  0  0  0  0  0  0  0  0
   17.3246   -1.3327    0.0000 C   0  0  0  0  0  0  0  0  0  0  0  0
   18.4553   -2.0192    0.0000 O   0  0  0  0  0  0  0  0  0  0  0  0
   17.3246    0.0000    0.0000 O   0  0  0  0  0  0  0  0  0  0  0  0
   19.5860   -1.3327    0.0000 C   0  0  0  0  0  0  0  0  0  0  0  0
   20.7572   -2.0192    0.0000 C   0  0  0  0  0  0  0  0  0  0  0  0
   40.3836   -1.4134    0.0000 C   0  0  0  0  0  0  0  0  0  0  0  0
   39.2125   -2.0596    0.0000 C   0  0  0  0  0  0  0  0  0  0  0  0
   38.0817   -1.4134    0.0000 C   0  0  0  0  0  0  0  0  0  0  0  0
   36.9106   -2.0596    0.0000 C   0  0  0  0  0  0  0  0  0  0  0  0
   35.7395   -1.4134    0.0000 C   0  0  0  0  0  0  0  0  0  0  0  0
   34.6087   -2.0596    0.0000 C   0  0  0  0  0  0  0  0  0  0  0  0
   33.4780   -1.3730    0.0000 C   0  0  0  0  0  0  0  0  0  0  0  0
   32.3069   -2.0596    0.0000 C   0  0  0  0  0  0  0  0  0  0  0  0
   31.1357   -1.3730    0.0000 C   0  0  0  0  0  0  0  0  0  0  0  0
   30.0050   -2.0192    0.0000 C   0  0  0  0  0  0  0  0  0  0  0  0
   28.8339   -1.3730    0.0000 C   0  0  0  0  0  0  0  0  0  0  0  0
   27.6628   -2.0192    0.0000 C   0  0  0  0  0  0  0  0  0  0  0  0
   26.5320   -1.3730    0.0000 C   0  0  0  0  0  0  0  0  0  0  0  0
   25.3609   -2.0192    0.0000 C   0  0  0  0  0  0  0  0  0  0  0  0
   24.2302   -1.3730    0.0000 C   0  0  0  0  0  0  0  0  0  0  0  0
   23.0590   -2.0192    0.0000 C   0  0  0  0  0  0  0  0  0  0  0  0
   23.0590   -3.3518    0.0000 O   0  0  0  0  0  0  0  0  0  0  0  0
   21.9283   -1.3730    0.0000 O   0  0  0  0  0  0  0  0  0  0  0  0
   19.5860   -5.3306    0.0000 P   0  0  0  0  0  0  0  0  0  0  0  0
   18.2534   -5.3306    0.0000 O   0  5  0  0  0  0  0  0  0  0  0  0
   19.5860   -3.9980    0.0000 O   0  0  0  0  0  0  0  0  0  0  0  0
   19.5860   -6.6633    0.0000 O   0  0  0  0  0  0  0  0  0  0  0  0
   20.9187   -5.3306    0.0000 O   0  0  0  0  0  0  0  0  0  0  0  0
   18.4553   -7.3498    0.0000 C   0  0  0  0  0  0  0  0  0  0  0  0
   18.4553   -8.6825    0.0000 C   0  0  0  0  0  0  0  0  0  0  0  0
   17.3246   -9.3286    0.0000 N   0  3  0  0  0  0  0  0  0  0  0  0
   16.6380   -8.1979    0.0000 C   0  0  0  0  0  0  0  0  0  0  0  0
   17.9707  -10.4997    0.0000 C   0  0  0  0  0  0  0  0  0  0  0  0
   16.1534  -10.0151    0.0000 C   0  0  0  0  0  0  0  0  0  0  0  0
   20.7572   -3.3518    0.0000 C   0  0  0  0  0  0  0  0  0  0  0  0
  1  2  1  0  0  0  0
  2  3  1  0  0  0  0
  3  4  1  0  0  0  0
  4  5  1  0  0  0  0
  5  6  1  0  0  0  0
  6  7  1  0  0  0  0
  7  8  1  0  0  0  0
  8  9  1  0  0  0  0
  9 10  1  0  0  0  0
 10 11  1  0  0  0  0
 11 12  1  0  0  0  0
 12 13  1  0  0  0  0
 13 14  1  0  0  0  0
 14 15  1  0  0  0  0
 15 16  1  0  0  0  0
 16 17  1  0  0  0  0
 16 18  2  0  0  0  0
 17 19  1  0  0  0  0
 19 20  1  0  0  0  0
 20 38  1  6  0  0  0
 20 50  1  0  0  0  0
 21 22  1  0  0  0  0
 22 23  1  0  0  0  0
 23 24  1  0  0  0  0
 24 25  1  0  0  0  0
 25 26  1  0  0  0  0
 26 27  1  0  0  0  0
 27 28  1  0  0  0  0
 28 29  1  0  0  0  0
 29 30  1  0  0  0  0
 30 31  1  0  0  0  0
 31 32  1  0  0  0  0
 32 33  1  0  0  0  0
 33 34  1  0  0  0  0
 34 35  1  0  0  0  0
 35 36  1  0  0  0  0
 36 37  2  0  0  0  0
 36 38  1  0  0  0  0
 39 40  1  0  0  0  0
 39 41  1  0  0  0  0
 39 42  1  0  0  0  0
 39 43  2  0  0  0  0
 41 50  1  0  0  0  0
 42 44  1  0  0  0  0
 44 45  1  0  0  0  0
 45 46  1  0  0  0  0
 46 47  1  0  0  0  0
 46 48  1  0  0  0  0
 46 49  1  0  0  0  0
M  END
> <ID>
13695

> <Formula>
C40H80NO8P

> <FW>
734.0389

> <DSSTox_CID>
28629

> <DSSTox_RID>
82899

> <DSSTox_GSID>
48703

> <DSSTox_FileID_Sort>
7576

> <TS_ChemName>
(7S)-7-(Hexadecanoyloxy)-4-hydroxy-N,N,N-trimethyl-10-oxo-3,5,9-trioxa-4-phosphapentacosan-1-aminium 4-oxide

> <TS_ChemName_Synonyms>
2,3-Dipalmitoyl-sn-glycero-1-phosphocholine

> <TS_CASRN>
35418-55-4

> <CASRN_ChemName_Relationship>
primary

> <TS_Description>
single chemical compound

> <ChemNote>
ammonium

> <STRUCTURE_Shown>
tested chemical

> <STRUCTURE_Formula>
C40H80NO8P

> <STRUCTURE_MW>
734.0389

> <STRUCTURE_ChemType>
defined organic

> <STRUCTURE_DefinedOrganicForm>
parent

> <STRUCTURE_IUPAC>
(2S)-2,3-bis(hexadecanoyloxy)propyl 2-(trimethylammonio)ethyl phosphate

> <STRUCTURE_SMILES>
C[N+](C)(C)CCOP([O-])(=O)OC[C@H](COC(=O)CCCCCCCCCCCCCCC)OC(=O)CCCCCCCCCCCCCCC

> <STRUCTURE_SMILES_Desalt>
C[N+](C)(C)CCOP(O)(=O)OC[C@H](COC(=O)CCCCCCCCCCCCCCC)OC(=O)CCCCCCCCCCCCCCC

> <Substance_modify_yyyymmdd>
20111204

$$$$
