3542-36-7
ChemmineR-0915142007XD

 19 18  0  0  0  0  0  0  0  0  1 V2000
    1.1387   -1.1387    0.0000 Sn   0  0  0  0  0  0  0  0  0  0  0  0
    0.4762    0.0000    0.0000 Cl   0  0  0  0  0  0  0  0  0  0  0  0
    0.0000   -1.8116    0.0000 Cl   0  0  0  0  0  0  0  0  0  0  0  0
    2.2878   -0.4762    0.0000 C    0  0  0  0  0  0  0  0  0  0  0  0
    3.4472   -1.1387    0.0000 C    0  0  0  0  0  0  0  0  0  0  0  0
    4.5963   -0.4762    0.0000 C    0  0  0  0  0  0  0  0  0  0  0  0
    5.7558   -1.1387    0.0000 C    0  0  0  0  0  0  0  0  0  0  0  0
    6.9048   -0.4762    0.0000 C    0  0  0  0  0  0  0  0  0  0  0  0
    8.0643   -1.1387    0.0000 C    0  0  0  0  0  0  0  0  0  0  0  0
    9.2133   -0.4762    0.0000 C    0  0  0  0  0  0  0  0  0  0  0  0
   10.3521   -1.1387    0.0000 C    0  0  0  0  0  0  0  0  0  0  0  0
    1.8116   -2.2878    0.0000 C    0  0  0  0  0  0  0  0  0  0  0  0
    1.1387   -3.4472    0.0000 C    0  0  0  0  0  0  0  0  0  0  0  0
    1.8116   -4.5963    0.0000 C    0  0  0  0  0  0  0  0  0  0  0  0
    1.1387   -5.7558    0.0000 C    0  0  0  0  0  0  0  0  0  0  0  0
    1.8116   -6.9048    0.0000 C    0  0  0  0  0  0  0  0  0  0  0  0
    1.1387   -8.0643    0.0000 C    0  0  0  0  0  0  0  0  0  0  0  0
    1.8116   -9.2133    0.0000 C    0  0  0  0  0  0  0  0  0  0  0  0
    1.1387  -10.3521    0.0000 C    0  0  0  0  0  0  0  0  0  0  0  0
  1  2  1  0  0  0  0
  1  3  1  0  0  0  0
  1  4  1  0  0  0  0
  1 12  1  0  0  0  0
  4  5  1  0  0  0  0
  5  6  1  0  0  0  0
  6  7  1  0  0  0  0
  7  8  1  0  0  0  0
  8  9  1  0  0  0  0
  9 10  1  0  0  0  0
 10 11  1  0  0  0  0
 12 13  1  0  0  0  0
 13 14  1  0  0  0  0
 14 15  1  0  0  0  0
 15 16  1  0  0  0  0
 16 17  1  0  0  0  0
 17 18  1  0  0  0  0
 18 19  1  0  0  0  0
M  END
> <ID>
6111

> <Formula>
C16H34Cl2Sn

> <FW>
416.0572

> <DSSTox_CID>
9662

> <DSSTox_RID>
78800

> <DSSTox_GSID>
29662

> <DSSTox_FileID_Sort>
3482

> <TS_ChemName>
Dichloro(dioctyl)stannane

> <TS_ChemName_Synonyms>


> <TS_CASRN>
3542-36-7

> <CASRN_ChemName_Relationship>
primary

> <TS_Description>
single chemical compound

> <ChemNote>


> <STRUCTURE_Shown>
tested chemical

> <STRUCTURE_Formula>
C16H34Cl2Sn

> <STRUCTURE_MW>
416.0572

> <STRUCTURE_ChemType>
organometallic

> <STRUCTURE_DefinedOrganicForm>


> <STRUCTURE_IUPAC>
dichloro(dioctyl)stannane

> <STRUCTURE_SMILES>
Cl[Sn](Cl)(CCCCCCCC)CCCCCCCC

> <STRUCTURE_SMILES_Desalt>
Cl[Sn](Cl)(CCCCCCCC)CCCCCCCC

> <Substance_modify_yyyymmdd>
20080429

$$$$
