35457-80-8
ChemmineR-0915142007XD

 57 59  0  0  1  0  0  0  0  0  1 V2000
    5.7382   -2.0094    0.0000 C   0  0  0  0  0  0  0  0  0  0  0  0
    5.7382   -3.3352    0.0000 C   0  0  0  0  0  0  0  0  0  0  0  0
    4.5988   -1.3258    0.0000 C   0  0  0  0  0  0  0  0  0  0  0  0
    4.5988   -3.9981    0.0000 C   0  0  0  0  0  0  0  0  0  0  0  0
    3.4595   -2.0094    0.0000 C   0  0  0  0  0  0  0  0  0  0  0  0
    3.4595   -3.3352    0.0000 C   0  0  0  0  0  0  0  0  0  0  0  0
    4.5988   -5.3446    0.0000 O   0  0  0  0  0  0  0  0  0  0  0  0
    2.2994   -3.9981    0.0000 C   0  0  0  0  0  0  0  0  0  0  0  0
    2.2994   -5.3446    0.0000 C   0  0  0  0  0  0  0  0  0  0  0  0
    6.8775   -3.9981    0.0000 C   0  0  0  0  0  0  0  0  0  0  0  0
    6.8775   -5.3446    0.0000 C   0  0  0  0  0  0  0  0  0  0  0  0
    5.7382   -5.9867    0.0000 C   0  0  0  0  0  0  0  0  0  0  0  0
    3.4387   -7.3125    0.0000 C   0  0  0  0  0  0  0  0  0  0  0  0
    2.2994   -7.9961    0.0000 O   0  0  0  0  0  0  0  0  0  0  0  0
    1.1601   -5.9867    0.0000 C   0  0  0  0  0  0  0  0  0  0  0  0
    1.1601   -7.3125    0.0000 C   0  0  0  0  0  0  0  0  0  0  0  0
    5.7382   -7.3125    0.0000 C   0  0  0  0  0  0  0  0  0  0  0  0
    4.5988   -7.9961    0.0000 C   0  0  0  0  0  0  0  0  0  0  0  0
    6.8775   -7.9961    0.0000 O   0  0  0  0  0  0  0  0  0  0  0  0
    6.8775   -9.3219    0.0000 C   0  0  0  0  0  0  0  0  0  0  0  0
    5.7382   -9.9641    0.0000 C   0  0  0  0  0  0  0  0  0  0  0  0
    4.5988    0.0000    0.0000 O   0  0  0  0  0  0  0  0  0  0  0  0
    8.0376  -10.0055    0.0000 O   0  0  0  0  0  0  0  0  0  0  0  0
    3.4387   -5.9867    0.0000 O   0  0  0  0  0  0  0  0  0  0  0  0
    0.0000   -7.9961    0.0000 C   0  0  0  0  0  0  0  0  0  0  0  0
    6.8775   -1.3258    0.0000 C   0  0  0  0  0  0  0  0  0  0  0  0
    8.0376   -3.3352    0.0000 C   0  0  0  0  0  0  0  0  0  0  0  0
    9.1976   -3.9981    0.0000 C   0  0  0  0  0  0  0  0  0  0  0  0
   10.3577   -3.3352    0.0000 O   0  0  0  0  0  0  0  0  0  0  0  0
    8.0376   -5.9867    0.0000 O   0  0  0  0  0  0  0  0  0  0  0  0
    4.5988   -9.3219    0.0000 C   0  0  0  0  0  0  0  0  0  0  0  0
   11.5177   -7.9961    0.0000 C   0  0  0  0  0  0  0  0  0  0  0  0
   10.3577   -8.6797    0.0000 C   0  0  0  0  0  0  0  0  0  0  0  0
   11.5177   -6.6703    0.0000 C   0  0  0  0  0  0  0  0  0  0  0  0
    9.1976   -7.9961    0.0000 O   0  0  0  0  0  0  0  0  0  0  0  0
   10.3577   -5.9867    0.0000 C   0  0  0  0  0  0  0  0  0  0  0  0
    9.1976   -6.6703    0.0000 C   0  0  0  0  0  0  0  0  0  0  0  0
   12.6571   -5.9867    0.0000 N   0  0  0  0  0  0  0  0  0  0  0  0
   13.8378   -6.6703    0.0000 C   0  0  0  0  0  0  0  0  0  0  0  0
   12.6571   -4.6610    0.0000 C   0  0  0  0  0  0  0  0  0  0  0  0
   10.3577   -4.6610    0.0000 O   0  0  0  0  0  0  0  0  0  0  0  0
   10.3577  -10.0055    0.0000 C   0  0  0  0  0  0  0  0  0  0  0  0
   12.6571   -8.6797    0.0000 O   0  0  0  0  0  0  0  0  0  0  0  0
   16.1373  -10.6477    0.0000 C   0  0  0  0  0  0  0  0  0  0  0  0
   14.9565  -11.3313    0.0000 C   0  0  0  0  0  0  0  0  0  0  0  0
   16.1373   -9.3219    0.0000 C   0  0  0  0  0  0  0  0  0  0  0  0
   13.8378  -10.6477    0.0000 O   0  0  0  0  0  0  0  0  0  0  0  0
   14.9565   -8.6797    0.0000 C   0  0  0  0  0  0  0  0  0  0  0  0
   13.8378   -9.3219    0.0000 C   0  0  0  0  0  0  0  0  0  0  0  0
   14.9565  -12.6571    0.0000 C   0  0  0  0  0  0  0  0  0  0  0  0
   17.2766  -11.3313    0.0000 O   0  0  0  0  0  0  0  0  0  0  0  0
   18.4159  -10.6477    0.0000 C   0  0  0  0  0  0  0  0  0  0  0  0
   18.4159   -9.3219    0.0000 O   0  0  0  0  0  0  0  0  0  0  0  0
   19.5760  -11.3313    0.0000 C   0  0  0  0  0  0  0  0  0  0  0  0
   20.7153  -10.6477    0.0000 C   0  0  0  0  0  0  0  0  0  0  0  0
   17.3387   -8.8040    0.0000 C   0  0  0  0  0  0  0  0  0  0  0  0
   16.4480   -8.0583    0.0000 O   0  0  0  0  0  0  0  0  0  0  0  0
  1  2  1  0  0  0  0
  1  3  1  0  0  0  0
  1 26  1  6  0  0  0
  2 10  1  0  0  0  0
  3  5  1  0  0  0  0
  3 22  1  6  0  0  0
  4  7  1  0  0  0  0
  5  6  2  0  0  0  0
  6  8  1  0  0  0  0
 12  7  1  6  0  0  0
  8  9  2  0  0  0  0
  9 15  1  0  0  0  0
 10 11  1  0  0  0  0
 10 27  1  6  0  0  0
 11 12  1  0  0  0  0
 11 30  1  6  0  0  0
 12 17  1  0  0  0  0
 13 14  1  0  0  0  0
 13 18  1  0  0  0  0
 13 24  2  0  0  0  0
 14 16  1  0  0  0  0
 15 16  1  0  0  0  0
 16 25  1  6  0  0  0
 17 19  1  6  0  0  0
 17 18  1  0  0  0  0
 19 20  1  0  0  0  0
 20 21  1  0  0  0  0
 20 23  2  0  0  0  0
 21 31  1  0  0  0  0
 27 28  1  0  0  0  0
 28 29  2  0  0  0  0
 37 30  1  1  0  0  0
 32 33  1  0  0  0  0
 32 34  1  0  0  0  0
 32 43  1  6  0  0  0
 33 35  1  0  0  0  0
 33 42  1  1  0  0  0
 34 36  1  0  0  0  0
 34 38  1  1  0  0  0
 35 37  1  0  0  0  0
 36 37  1  0  0  0  0
 36 41  1  6  0  0  0
 38 39  1  0  0  0  0
 38 40  1  0  0  0  0
 49 43  1  1  0  0  0
 44 45  1  0  0  0  0
 44 46  1  0  0  0  0
 44 51  1  1  0  0  0
 45 47  1  0  0  0  0
 45 50  1  6  0  0  0
 46 48  1  0  0  0  0
 46 56  1  6  0  0  0
 46 57  1  1  0  0  0
 47 49  1  0  0  0  0
 48 49  1  0  0  0  0
 51 52  1  0  0  0  0
 52 53  2  0  0  0  0
 52 54  1  0  0  0  0
 54 55  1  0  0  0  0
M  END
> <ID>
10962

> <Formula>
C41H67NO15

> <FW>
813.9684

> <DSSTox_CID>
25463

> <DSSTox_RID>
80894

> <DSSTox_GSID>
45463

> <DSSTox_FileID_Sort>
5575

> <TS_ChemName>
Midecamycin

> <TS_ChemName_Synonyms>


> <TS_CASRN>
35457-80-8

> <CASRN_ChemName_Relationship>
primary

> <TS_Description>
single chemical compound

> <ChemNote>
stereochem

> <STRUCTURE_Shown>
tested chemical

> <STRUCTURE_Formula>
C41H67NO15

> <STRUCTURE_MW>
813.9684

> <STRUCTURE_ChemType>
defined organic

> <STRUCTURE_DefinedOrganicForm>
parent

> <STRUCTURE_IUPAC>
(4R,5S,6S,7R,9R,10R,11E,13E,16R)-6-{[(2S,3R,4R,5S,6R)-4-(dimethylamino)-3-hydroxy-5-{[(2S,4R,5S,6S)-4-hydroxy-4,6-dimethyl-5-(propanoyloxy)tetrahydro-2H-pyran-2-yl]oxy}-6-methyltetrahydro-2H-pyran-2-yl]oxy}-10-hydroxy-5-methoxy-9,16-dimethyl-2-oxo-7-(2-ox

> <STRUCTURE_SMILES>
CCC(=O)O[C@H]1[C@H](C)O[C@H](C[C@@]1(C)O)O[C@@H]3[C@@H](C)O[C@@H](O[C@@H]2[C@@H](OC)[C@H](OC(=O)CC)CC(=O)O[C@H](C)CC=CC=C[C@H](O)[C@H](C)C[C@@H]2CC=O)[C@H](O)[C@H]3N(C)C

> <STRUCTURE_SMILES_Desalt>
CCC(=O)O[C@H]1[C@H](C)O[C@H](C[C@@]1(C)O)O[C@@H]3[C@@H](C)O[C@@H](O[C@@H]2[C@@H](OC)[C@H](OC(=O)CC)CC(=O)O[C@H](C)CC=CC=C[C@H](O)[C@H](C)C[C@@H]2CC=O)[C@H](O)[C@H]3N(C)C

> <Substance_modify_yyyymmdd>
20100107

$$$$
