3547-33-9
ChemmineR-0915142007XD

 12 11  0  0  0  0  0  0  0  0  1 V2000
   11.5436    0.0000    0.0000 C   0  0  0  0  0  0  0  0  0  0  0  0
   10.3880   -0.6604    0.0000 C   0  0  0  0  0  0  0  0  0  0  0  0
   12.6993   -0.6604    0.0000 O   0  0  0  0  0  0  0  0  0  0  0  0
    9.2324    0.0000    0.0000 S   0  0  0  0  0  0  0  0  0  0  0  0
    8.0894   -0.6604    0.0000 C   0  0  0  0  0  0  0  0  0  0  0  0
    6.9338    0.0000    0.0000 C   0  0  0  0  0  0  0  0  0  0  0  0
    5.7782   -0.6604    0.0000 C   0  0  0  0  0  0  0  0  0  0  0  0
    4.6225    0.0000    0.0000 C   0  0  0  0  0  0  0  0  0  0  0  0
    3.4669   -0.6604    0.0000 C   0  0  0  0  0  0  0  0  0  0  0  0
    2.3113    0.0000    0.0000 C   0  0  0  0  0  0  0  0  0  0  0  0
    1.1556   -0.6604    0.0000 C   0  0  0  0  0  0  0  0  0  0  0  0
    0.0000    0.0000    0.0000 C   0  0  0  0  0  0  0  0  0  0  0  0
  1  2  1  0  0  0  0
  1  3  1  0  0  0  0
  2  4  1  0  0  0  0
  4  5  1  0  0  0  0
  5  6  1  0  0  0  0
  6  7  1  0  0  0  0
  7  8  1  0  0  0  0
  8  9  1  0  0  0  0
  9 10  1  0  0  0  0
 10 11  1  0  0  0  0
 11 12  1  0  0  0  0
M  END
> <ID>
6487

> <Formula>
C10H22OS

> <FW>
190.3461

> <DSSTox_CID>
12516

> <DSSTox_RID>
78963

> <DSSTox_GSID>
32516

> <DSSTox_FileID_Sort>
3645

> <TS_ChemName>
2-Hydroxyethyl octyl sulfide

> <TS_ChemName_Synonyms>


> <TS_CASRN>
3547-33-9

> <CASRN_ChemName_Relationship>
primary

> <TS_Description>
single chemical compound

> <ChemNote>


> <STRUCTURE_Shown>
tested chemical

> <STRUCTURE_Formula>
C10H22OS

> <STRUCTURE_MW>
190.3461

> <STRUCTURE_ChemType>
defined organic

> <STRUCTURE_DefinedOrganicForm>
parent

> <STRUCTURE_IUPAC>
2-(octylsulfanyl)ethanol

> <STRUCTURE_SMILES>
OCCSCCCCCCCC

> <STRUCTURE_SMILES_Desalt>
OCCSCCCCCCCC

> <Substance_modify_yyyymmdd>
20080429

$$$$
