355-42-0
ChemmineR-0915142007XD

 20 19  0  0  0  0  0  0  0  0  1 V2000
    1.1492   -1.1572    0.0000 C   0  0  0  0  0  0  0  0  0  0  0  0
    2.3064   -1.8323    0.0000 C   0  0  0  0  0  0  0  0  0  0  0  0
    3.4396   -1.1572    0.0000 C   0  0  0  0  0  0  0  0  0  0  0  0
    4.5968   -1.8323    0.0000 C   0  0  0  0  0  0  0  0  0  0  0  0
    5.7299   -1.1572    0.0000 C   0  0  0  0  0  0  0  0  0  0  0  0
    0.0000   -1.8323    0.0000 F   0  0  0  0  0  0  0  0  0  0  0  0
    6.8871   -1.8323    0.0000 C   0  0  0  0  0  0  0  0  0  0  0  0
    0.4983    0.0000    0.0000 F   0  0  0  0  0  0  0  0  0  0  0  0
    1.8082    0.0000    0.0000 F   0  0  0  0  0  0  0  0  0  0  0  0
    1.6153   -2.9815    0.0000 F   0  0  0  0  0  0  0  0  0  0  0  0
    2.9493   -2.9815    0.0000 F   0  0  0  0  0  0  0  0  0  0  0  0
    2.7886    0.0000    0.0000 F   0  0  0  0  0  0  0  0  0  0  0  0
    4.1146    0.0000    0.0000 F   0  0  0  0  0  0  0  0  0  0  0  0
    3.9378   -2.9815    0.0000 F   0  0  0  0  0  0  0  0  0  0  0  0
    5.2638   -2.9815    0.0000 F   0  0  0  0  0  0  0  0  0  0  0  0
    5.0870    0.0000    0.0000 F   0  0  0  0  0  0  0  0  0  0  0  0
    6.4050    0.0000    0.0000 F   0  0  0  0  0  0  0  0  0  0  0  0
    8.0363   -1.1572    0.0000 F   0  0  0  0  0  0  0  0  0  0  0  0
    6.2282   -2.9815    0.0000 F   0  0  0  0  0  0  0  0  0  0  0  0
    7.5381   -2.9815    0.0000 F   0  0  0  0  0  0  0  0  0  0  0  0
  1  2  1  0  0  0  0
  1  6  1  0  0  0  0
  1  8  1  0  0  0  0
  1  9  1  0  0  0  0
  2  3  1  0  0  0  0
  2 10  1  0  0  0  0
  2 11  1  0  0  0  0
  3  4  1  0  0  0  0
  3 12  1  0  0  0  0
  3 13  1  0  0  0  0
  4  5  1  0  0  0  0
  4 14  1  0  0  0  0
  4 15  1  0  0  0  0
  5  7  1  0  0  0  0
  5 16  1  0  0  0  0
  5 17  1  0  0  0  0
  7 18  1  0  0  0  0
  7 19  1  0  0  0  0
  7 20  1  0  0  0  0
M  END
> <ID>
11775

> <Formula>
C6F14

> <FW>
338.0418

> <DSSTox_CID>
26548

> <DSSTox_RID>
81709

> <DSSTox_GSID>
46548

> <DSSTox_FileID_Sort>
6390

> <TS_ChemName>
Perflexane

> <TS_ChemName_Synonyms>


> <TS_CASRN>
355-42-0

> <CASRN_ChemName_Relationship>
primary

> <TS_Description>
single chemical compound

> <ChemNote>


> <STRUCTURE_Shown>
tested chemical

> <STRUCTURE_Formula>
C6F14

> <STRUCTURE_MW>
338.0418

> <STRUCTURE_ChemType>
defined organic

> <STRUCTURE_DefinedOrganicForm>
parent

> <STRUCTURE_IUPAC>
tetradecafluorohexane

> <STRUCTURE_SMILES>
FC(F)(C(F)(F)C(F)(F)F)C(F)(F)C(F)(F)C(F)(F)F

> <STRUCTURE_SMILES_Desalt>
FC(F)(C(F)(F)C(F)(F)F)C(F)(F)C(F)(F)C(F)(F)F

> <Substance_modify_yyyymmdd>
20110811

$$$$
