35531-88-5
ChemmineR-0915142007XD

 37 41  0  0  1  0  0  0  0  0  1 V2000
    8.2469   -9.4320    0.0000 N   0  0  0  0  0  0  0  0  0  0  0  0
    8.2469   -8.1018    0.0000 C   0  0  0  0  0  0  0  0  0  0  0  0
    6.9168   -9.4320    0.0000 C   0  0  0  0  0  0  0  0  0  0  0  0
    6.9168   -8.1018    0.0000 C   0  0  0  0  0  0  0  0  0  0  0  0
    9.5287   -9.8431    0.0000 C   0  0  0  0  0  0  0  0  0  0  0  0
    9.5287   -7.7028    0.0000 S   0  0  0  0  0  0  0  0  0  0  0  0
   10.2905   -8.7548    0.0000 C   0  0  0  0  0  0  0  0  0  0  0  0
    4.6072   -8.1018    0.0000 C   0  0  0  0  0  0  0  0  0  0  0  0
    5.7680   -7.4609    0.0000 N   0  0  0  0  0  0  0  0  0  0  0  0
    3.4584   -7.4609    0.0000 C   0  0  0  0  0  0  0  0  0  0  0  0
    9.9399  -11.1007    0.0000 C   0  0  0  0  0  0  0  0  0  0  0  0
    3.4584   -6.1066    0.0000 C   0  0  0  0  0  0  0  0  0  0  0  0
    5.9857  -10.3631    0.0000 O   0  0  0  0  0  0  0  0  0  0  0  0
    4.6072   -9.4320    0.0000 O   0  0  0  0  0  0  0  0  0  0  0  0
    2.3096   -8.1018    0.0000 C   0  0  0  0  0  0  0  0  0  0  0  0
   11.2458  -11.3909    0.0000 O   0  0  0  0  0  0  0  0  0  0  0  0
    2.3096   -5.4415    0.0000 O   0  0  0  0  0  0  0  0  0  0  0  0
    9.0329  -12.0923    0.0000 O   0  0  0  0  0  0  0  0  0  0  0  0
    4.6072   -5.4415    0.0000 O   0  0  0  0  0  0  0  0  0  0  0  0
   11.4514   -9.4320    0.0000 C   0  0  0  0  0  0  0  0  0  0  0  0
   11.4514   -8.1018    0.0000 C   0  0  0  0  0  0  0  0  0  0  0  0
    2.3096   -9.4320    0.0000 C   0  0  0  0  0  0  0  0  0  0  0  0
    1.1488   -7.4609    0.0000 C   0  0  0  0  0  0  0  0  0  0  0  0
    0.0000   -8.1018    0.0000 C   0  0  0  0  0  0  0  0  0  0  0  0
    1.1488  -10.1212    0.0000 C   0  0  0  0  0  0  0  0  0  0  0  0
    0.0000   -9.4320    0.0000 C   0  0  0  0  0  0  0  0  0  0  0  0
    8.2469   -6.7717    0.0000 H   0  0  0  0  0  0  0  0  0  0  0  0
    4.6072   -4.1114    0.0000 C   0  0  0  0  0  0  0  0  0  0  0  0
    3.4584   -3.4463    0.0000 C   0  0  0  0  0  0  0  0  0  0  0  0
    5.7680   -3.4463    0.0000 C   0  0  0  0  0  0  0  0  0  0  0  0
    3.4584   -2.1161    0.0000 C   0  0  0  0  0  0  0  0  0  0  0  0
    5.7680   -2.1161    0.0000 C   0  0  0  0  0  0  0  0  0  0  0  0
    4.6072   -1.4390    0.0000 C   0  0  0  0  0  0  0  0  0  0  0  0
    6.7475   -1.2213    0.0000 C   0  0  0  0  0  0  0  0  0  0  0  0
    6.2275    0.0000    0.0000 C   0  0  0  0  0  0  0  0  0  0  0  0
    4.8974   -0.1451    0.0000 C   0  0  0  0  0  0  0  0  0  0  0  0
    7.0377   -6.7959    0.0000 H   0  0  0  0  0  0  0  0  0  0  0  0
  1  2  1  0  0  0  0
  1  3  1  0  0  0  0
  1  5  1  0  0  0  0
  2  6  1  0  0  0  0
  2  4  1  0  0  0  0
  2 27  1  6  0  0  0
  3  4  1  0  0  0  0
  3 13  2  0  0  0  0
  4  9  1  1  0  0  0
  4 37  1  6  0  0  0
  5  7  1  0  0  0  0
  5 11  1  6  0  0  0
  6  7  1  0  0  0  0
  7 20  1  0  0  0  0
  7 21  1  0  0  0  0
  8  9  1  0  0  0  0
  8 10  1  0  0  0  0
  8 14  2  0  0  0  0
 10 12  1  0  0  0  0
 10 15  1  0  0  0  0
 11 16  2  0  0  0  0
 11 18  1  0  0  0  0
 12 17  2  0  0  0  0
 12 19  1  0  0  0  0
 15 22  2  0  0  0  0
 15 23  1  0  0  0  0
 19 28  1  0  0  0  0
 22 25  1  0  0  0  0
 23 24  2  0  0  0  0
 24 26  1  0  0  0  0
 25 26  2  0  0  0  0
 28 29  1  0  0  0  0
 28 30  2  0  0  0  0
 29 31  2  0  0  0  0
 30 32  1  0  0  0  0
 31 33  1  0  0  0  0
 32 33  2  0  0  0  0
 32 34  1  0  0  0  0
 33 36  1  0  0  0  0
 34 35  1  0  0  0  0
 35 36  1  0  0  0  0
M  END
> <ID>
13697

> <Formula>
C26H26N2O6S

> <FW>
494.5594

> <DSSTox_CID>
28631

> <DSSTox_RID>
82901

> <DSSTox_GSID>
48705

> <DSSTox_FileID_Sort>
7578

> <TS_ChemName>
Carbenicillin indanyl

> <TS_ChemName_Synonyms>


> <TS_CASRN>
35531-88-5

> <CASRN_ChemName_Relationship>
primary

> <TS_Description>
single chemical compound

> <ChemNote>


> <STRUCTURE_Shown>
tested chemical

> <STRUCTURE_Formula>
C26H26N2O6S

> <STRUCTURE_MW>
494.5594

> <STRUCTURE_ChemType>
defined organic

> <STRUCTURE_DefinedOrganicForm>
parent

> <STRUCTURE_IUPAC>
(2S,5R,6R)-6-{[3-(2,3-dihydro-1H-inden-5-yloxy)-3-oxo-2-phenylpropanoyl]amino}-3,3-dimethyl-7-oxo-4-thia-1-azabicyclo[3.2.0]heptane-2-carboxylic acid

> <STRUCTURE_SMILES>
OC(=O)[C@@H]4N5C(=O)[C@@H](NC(=O)C(c1ccccc1)C(=O)Oc2cc3CCCc3cc2)[C@H]5SC4(C)C

> <STRUCTURE_SMILES_Desalt>
OC(=O)[C@@H]4N5C(=O)[C@@H](NC(=O)C(c1ccccc1)C(=O)Oc2cc3CCCc3cc2)[C@H]5SC4(C)C

> <Substance_modify_yyyymmdd>
20111204

$$$$
