35543-24-9
ChemmineR-0915142007XD

 23 23  0  0  0  0  0  0  0  0  1 V2000
    3.4529   -3.9765    0.0000 C    0  0  0  0  0  0  0  0  0  0  0  0
    3.4529   -5.3228    0.0000 O    0  0  0  0  0  0  0  0  0  0  0  0
    2.3061   -5.9710    0.0000 C    0  0  0  0  0  0  0  0  0  0  0  0
    2.3061   -3.3158    0.0000 C    0  0  0  0  0  0  0  0  0  0  0  0
    2.3061   -1.9945    0.0000 C    0  0  0  0  0  0  0  0  0  0  0  0
    1.1468   -1.3213    0.0000 O    0  0  0  0  0  0  0  0  0  0  0  0
    0.0000   -1.9945    0.0000 C    0  0  0  0  0  0  0  0  0  0  0  0
    3.4529   -1.3213    0.0000 C    0  0  0  0  0  0  0  0  0  0  0  0
    4.5873   -1.9945    0.0000 C    0  0  0  0  0  0  0  0  0  0  0  0
    5.7591   -1.3213    0.0000 O    0  0  0  0  0  0  0  0  0  0  0  0
    5.7591    0.0000    0.0000 C    0  0  0  0  0  0  0  0  0  0  0  0
    4.5873   -3.3158    0.0000 C    0  0  0  0  0  0  0  0  0  0  0  0
    5.7591   -3.9765    0.0000 C    0  0  0  0  0  0  0  0  0  0  0  0
    5.7591   -5.3228    0.0000 O    0  0  0  0  0  0  0  0  0  0  0  0
    6.9059   -3.3158    0.0000 C    0  0  0  0  0  0  0  0  0  0  0  0
    8.0527   -3.9765    0.0000 C    0  0  0  0  0  0  0  0  0  0  0  0
    9.2120   -3.3158    0.0000 C    0  0  0  0  0  0  0  0  0  0  0  0
   10.3588   -3.9765    0.0000 N    0  0  0  0  0  0  0  0  0  0  0  0
   11.5680   -3.4405    0.0000 C    0  0  0  0  0  0  0  0  0  0  0  0
   12.4655   -4.4253    0.0000 C    0  0  0  0  0  0  0  0  0  0  0  0
   11.7924   -5.5721    0.0000 C    0  0  0  0  0  0  0  0  0  0  0  0
   10.4835   -5.3103    0.0000 C    0  0  0  0  0  0  0  0  0  0  0  0
    8.9876   -7.2175    0.0000 Cl   0  0  0  0  0  0  0  0  0  0  0  0
  1  2  1  0  0  0  0
  1  4  2  0  0  0  0
  1 12  1  0  0  0  0
  2  3  1  0  0  0  0
  4  5  1  0  0  0  0
  5  6  1  0  0  0  0
  5  8  2  0  0  0  0
  6  7  1  0  0  0  0
  8  9  1  0  0  0  0
  9 10  1  0  0  0  0
  9 12  2  0  0  0  0
 10 11  1  0  0  0  0
 12 13  1  0  0  0  0
 13 14  2  0  0  0  0
 13 15  1  0  0  0  0
 15 16  1  0  0  0  0
 16 17  1  0  0  0  0
 17 18  1  0  0  0  0
 18 19  1  0  0  0  0
 18 22  1  0  0  0  0
 19 20  1  0  0  0  0
 20 21  1  0  0  0  0
 21 22  1  0  0  0  0
M  END
> <ID>
12134

> <Formula>
C17H26ClNO4

> <FW>
343.8456 (307.3847+36.4609)

> <DSSTox_CID>
26977

> <DSSTox_RID>
82032

> <DSSTox_GSID>
46977

> <DSSTox_FileID_Sort>
6713

> <TS_ChemName>
Buflomedil hydrochloride

> <TS_ChemName_Synonyms>


> <TS_CASRN>
35543-24-9

> <CASRN_ChemName_Relationship>
primary

> <TS_Description>
single chemical compound

> <ChemNote>
parent [55837-25-7]

> <STRUCTURE_Shown>
tested chemical

> <STRUCTURE_Formula>
C17H26ClNO4

> <STRUCTURE_MW>
343.8456

> <STRUCTURE_ChemType>
defined organic

> <STRUCTURE_DefinedOrganicForm>
complex

> <STRUCTURE_IUPAC>
4-(pyrrolidin-1-yl)-1-(2,4,6-trimethoxyphenyl)butan-1-one hydrochloride (1:1)

> <STRUCTURE_SMILES>
Cl.COc2cc(OC)cc(OC)c2C(=O)CCCN1CCCC1

> <STRUCTURE_SMILES_Desalt>
COc2cc(OC)cc(OC)c2C(=O)CCCN1CCCC1

> <Substance_modify_yyyymmdd>
20100220

$$$$
