35554-44-0
ChemmineR-0915142007XD

 19 20  0  0  0  0  0  0  0  0  1 V2000
    5.7691   -2.0150    0.0000 C    0  0  0  0  0  0  0  0  0  0  0  0
    6.9100   -2.6775    0.0000 C    0  0  0  0  0  0  0  0  0  0  0  0
    3.4596   -4.6926    0.0000 N    0  0  0  0  0  0  0  0  0  0  0  0
    1.3158   -4.9226    0.0000 N    0  0  0  0  0  0  0  0  0  0  0  0
    4.6098   -2.6867    0.0000 C    0  0  0  0  0  0  0  0  0  0  0  0
    2.3187   -4.0301    0.0000 C    0  0  0  0  0  0  0  0  0  0  0  0
    8.0510   -2.0058    0.0000 C    0  0  0  0  0  0  0  0  0  0  0  0
    5.7691   -0.6717    0.0000 C    0  0  0  0  0  0  0  0  0  0  0  0
    4.6098   -4.0209    0.0000 C    0  0  0  0  0  0  0  0  0  0  0  0
    1.8862   -6.1371    0.0000 C    0  0  0  0  0  0  0  0  0  0  0  0
    3.1928   -5.9991    0.0000 C    0  0  0  0  0  0  0  0  0  0  0  0
    8.0510   -0.6717    0.0000 C    0  0  0  0  0  0  0  0  0  0  0  0
    1.1409   -2.0518    0.0000 C    0  0  0  0  0  0  0  0  0  0  0  0
    6.9100   -4.0209    0.0000 Cl   0  0  0  0  0  0  0  0  0  0  0  0
    0.0000   -2.7235    0.0000 C    0  0  0  0  0  0  0  0  0  0  0  0
    6.9100   -0.0184    0.0000 C    0  0  0  0  0  0  0  0  0  0  0  0
    3.4320   -2.0334    0.0000 O    0  0  0  0  0  0  0  0  0  0  0  0
    9.2011    0.0000    0.0000 Cl   0  0  0  0  0  0  0  0  0  0  0  0
    2.2911   -2.7051    0.0000 C    0  0  0  0  0  0  0  0  0  0  0  0
  1  2  2  0  0  0  0
  1  5  1  0  0  0  0
  1  8  1  0  0  0  0
  2  7  1  0  0  0  0
  2 14  1  0  0  0  0
  3  9  1  0  0  0  0
  3  6  1  0  0  0  0
  3 11  1  0  0  0  0
  4  6  2  0  0  0  0
  4 10  1  0  0  0  0
  5  9  1  0  0  0  0
  5 17  1  0  0  0  0
  7 12  2  0  0  0  0
  8 16  2  0  0  0  0
 10 11  2  0  0  0  0
 12 16  1  0  0  0  0
 12 18  1  0  0  0  0
 13 19  1  0  0  0  0
 13 15  2  0  0  0  0
 17 19  1  0  0  0  0
M  END
> <ID>
3529

> <Formula>
C14H14Cl2N2O

> <FW>
297.1798

> <DSSTox_CID>
4151

> <DSSTox_RID>
77305

> <DSSTox_GSID>
24151

> <DSSTox_FileID_Sort>
1988

> <TS_ChemName>
Imazalil

> <TS_ChemName_Synonyms>


> <TS_CASRN>
35554-44-0

> <CASRN_ChemName_Relationship>
primary

> <TS_Description>
single chemical compound

> <ChemNote>


> <STRUCTURE_Shown>
tested chemical

> <STRUCTURE_Formula>
C14H14Cl2N2O

> <STRUCTURE_MW>
297.1798

> <STRUCTURE_ChemType>
defined organic

> <STRUCTURE_DefinedOrganicForm>
parent

> <STRUCTURE_IUPAC>
1-[2-(2,4-dichlorophenyl)-2-(prop-2-en-1-yloxy)ethyl]-1H-imidazole

> <STRUCTURE_SMILES>
Clc2ccc(C(OCC=C)Cn1ccnc1)c(Cl)c2

> <STRUCTURE_SMILES_Desalt>
Clc2ccc(C(OCC=C)Cn1ccnc1)c(Cl)c2

> <Substance_modify_yyyymmdd>
20080429

$$$$
