35575-96-3
ChemmineR-0915142007XD

 19 20  0  0  0  0  0  0  0  0  1 V2000
    6.8570   -5.2325    0.0000 P    0  0  0  0  0  0  0  0  0  0  0  0
    8.0967   -4.8136    0.0000 O    0  0  0  0  0  0  0  0  0  0  0  0
    7.2588   -6.4893    0.0000 O    0  0  0  0  0  0  0  0  0  0  0  0
    5.5831   -5.6344    0.0000 O    0  0  0  0  0  0  0  0  0  0  0  0
    6.4380   -3.9586    0.0000 S    0  0  0  0  0  0  0  0  0  0  0  0
    4.5827   -4.7281    0.0000 C    0  0  0  0  0  0  0  0  0  0  0  0
    8.5499   -6.7458    0.0000 C    0  0  0  0  0  0  0  0  0  0  0  0
    5.1299   -3.6679    0.0000 C    0  0  0  0  0  0  0  0  0  0  0  0
    2.3085   -2.6505    0.0000 N    0  0  0  0  0  0  0  0  0  0  0  0
    1.1286   -2.0007    0.0000 C    0  0  0  0  0  0  0  0  0  0  0  0
    3.4712   -2.0007    0.0000 C    0  0  0  0  0  0  0  0  0  0  0  0
    3.4712   -0.6669    0.0000 C    0  0  0  0  0  0  0  0  0  0  0  0
    1.1286   -0.6669    0.0000 C    0  0  0  0  0  0  0  0  0  0  0  0
    2.3085    0.0000    0.0000 C    0  0  0  0  0  0  0  0  0  0  0  0
    4.7110   -0.2650    0.0000 O    0  0  0  0  0  0  0  0  0  0  0  0
    5.4976   -1.3252    0.0000 C    0  0  0  0  0  0  0  0  0  0  0  0
    4.7110   -2.4025    0.0000 N    0  0  0  0  0  0  0  0  0  0  0  0
    6.8399   -1.3252    0.0000 O    0  0  0  0  0  0  0  0  0  0  0  0
    0.0000    0.0000    0.0000 Cl   0  0  0  0  0  0  0  0  0  0  0  0
  1  2  2  0  0  0  0
  1  3  1  0  0  0  0
  1  4  1  0  0  0  0
  1  5  1  0  0  0  0
  3  7  1  0  0  0  0
  4  6  1  0  0  0  0
  5  8  1  0  0  0  0
  8 17  1  0  0  0  0
  9 10  1  0  0  0  0
  9 11  2  0  0  0  0
 10 13  2  0  0  0  0
 11 12  1  0  0  0  0
 11 17  1  0  0  0  0
 12 14  2  0  0  0  0
 12 15  1  0  0  0  0
 13 14  1  0  0  0  0
 13 19  1  0  0  0  0
 15 16  1  0  0  0  0
 16 17  1  0  0  0  0
 16 18  2  0  0  0  0
M  END
> <ID>
6916

> <Formula>
C9H10ClN2O5PS

> <FW>
324.6779

> <DSSTox_CID>
14818

> <DSSTox_RID>
79206

> <DSSTox_GSID>
34818

> <DSSTox_FileID_Sort>
3888

> <TS_ChemName>
Azamethiphos

> <TS_ChemName_Synonyms>
Azamethiphos (Phosphorothioic acid, S-{(6-chloro-2-oxooxazolo(4,5-b}pyridin-3(2H)-yl}methyl} O,O-dimethyl ester)

> <TS_CASRN>
35575-96-3

> <CASRN_ChemName_Relationship>
primary

> <TS_Description>
single chemical compound

> <ChemNote>


> <STRUCTURE_Shown>
tested chemical

> <STRUCTURE_Formula>
C9H10ClN2O5PS

> <STRUCTURE_MW>
324.6779

> <STRUCTURE_ChemType>
defined organic

> <STRUCTURE_DefinedOrganicForm>
parent

> <STRUCTURE_IUPAC>
S-[(6-chloro-2-oxo[1,3]oxazolo[4,5-b]pyridin-3(2H)-yl)methyl] O,O-dimethyl phosphorothioate

> <STRUCTURE_SMILES>
O=P(OC)(OC)SCN1c2ncc(Cl)cc2OC1=O

> <STRUCTURE_SMILES_Desalt>
O=P(OC)(OC)SCN1c2ncc(Cl)cc2OC1=O

> <Substance_modify_yyyymmdd>
20080429

$$$$
