35578-47-3
ChemmineR-0915142007XD

 18 19  0  0  0  0  0  0  0  0  1 V2000
    4.5959   -1.9874    0.0000 C    0  0  0  0  0  0  0  0  0  0  0  0
    5.7552   -2.6602    0.0000 C    0  0  0  0  0  0  0  0  0  0  0  0
    4.5959   -0.6625    0.0000 O    0  0  0  0  0  0  0  0  0  0  0  0
    5.7552   -3.9955    0.0000 O    0  0  0  0  0  0  0  0  0  0  0  0
    2.2876   -4.6476    0.0000 C    0  0  0  0  0  0  0  0  0  0  0  0
    1.1386   -3.9955    0.0000 C    0  0  0  0  0  0  0  0  0  0  0  0
    1.1386   -2.6602    0.0000 C    0  0  0  0  0  0  0  0  0  0  0  0
    2.2876   -1.9874    0.0000 C    0  0  0  0  0  0  0  0  0  0  0  0
    3.4469   -2.6602    0.0000 C    0  0  0  0  0  0  0  0  0  0  0  0
    3.4469   -3.9955    0.0000 C    0  0  0  0  0  0  0  0  0  0  0  0
    0.0000   -4.6476    0.0000 Br   0  0  0  0  0  0  0  0  0  0  0  0
    8.0635    0.0000    0.0000 C    0  0  0  0  0  0  0  0  0  0  0  0
    9.2124   -0.6625    0.0000 C    0  0  0  0  0  0  0  0  0  0  0  0
    9.2124   -1.9874    0.0000 C    0  0  0  0  0  0  0  0  0  0  0  0
    8.0635   -2.6602    0.0000 C    0  0  0  0  0  0  0  0  0  0  0  0
    6.9042   -1.9874    0.0000 C    0  0  0  0  0  0  0  0  0  0  0  0
    6.9042   -0.6625    0.0000 C    0  0  0  0  0  0  0  0  0  0  0  0
   10.3511    0.0000    0.0000 Br   0  0  0  0  0  0  0  0  0  0  0  0
  1  2  1  0  0  0  0
  1  3  2  0  0  0  0
  1  9  1  0  0  0  0
  2  4  2  0  0  0  0
  2 16  1  0  0  0  0
  5 10  2  0  0  0  0
  5  6  1  0  0  0  0
  6  7  2  0  0  0  0
  6 11  1  0  0  0  0
  7  8  1  0  0  0  0
  8  9  2  0  0  0  0
  9 10  1  0  0  0  0
 12 17  2  0  0  0  0
 12 13  1  0  0  0  0
 13 14  2  0  0  0  0
 13 18  1  0  0  0  0
 14 15  1  0  0  0  0
 15 16  2  0  0  0  0
 16 17  1  0  0  0  0
M  END
> <ID>
10572

> <Formula>
C14H8Br2O2

> <FW>
368.0201

> <DSSTox_CID>
24925

> <DSSTox_RID>
80590

> <DSSTox_GSID>
44925

> <DSSTox_FileID_Sort>
5272

> <TS_ChemName>
4,4'-Dibromobenzil

> <TS_ChemName_Synonyms>
4,4'-Dibromobenzil (1,2-Bis(4-bromophenyl)ethane-1,2-dione) (Ethanedione, bis(4-bromophenyl)-)

> <TS_CASRN>
35578-47-3

> <CASRN_ChemName_Relationship>
primary

> <TS_Description>
single chemical compound

> <ChemNote>


> <STRUCTURE_Shown>
tested chemical

> <STRUCTURE_Formula>
C14H8Br2O2

> <STRUCTURE_MW>
368.0201

> <STRUCTURE_ChemType>
defined organic

> <STRUCTURE_DefinedOrganicForm>
parent

> <STRUCTURE_IUPAC>
1,2-bis(4-bromophenyl)ethane-1,2-dione

> <STRUCTURE_SMILES>
O=C(c1ccc(Br)cc1)C(=O)c2ccc(Br)cc2

> <STRUCTURE_SMILES_Desalt>
O=C(c1ccc(Br)cc1)C(=O)c2ccc(Br)cc2

> <Substance_modify_yyyymmdd>
20091116

$$$$
