356-12-7
ChemmineR-0915142007XD

 38 42  0  0  1  0  0  0  0  0  1 V2000
    8.1735   -3.4749    0.0000 C   0  0  0  0  0  0  0  0  0  0  0  0
    3.4749   -5.8877    0.0000 C   0  0  0  0  0  0  0  0  0  0  0  0
    6.9382   -3.8905    0.0000 C   0  0  0  0  0  0  0  0  0  0  0  0
    4.6178   -5.2181    0.0000 C   0  0  0  0  0  0  0  0  0  0  0  0
    3.4749   -7.2153    0.0000 C   0  0  0  0  0  0  0  0  0  0  0  0
    6.9382   -5.2181    0.0000 C   0  0  0  0  0  0  0  0  0  0  0  0
    5.7838   -5.8877    0.0000 C   0  0  0  0  0  0  0  0  0  0  0  0
    8.9585   -4.5370    0.0000 C   0  0  0  0  0  0  0  0  0  0  0  0
    8.9701   -2.4128    0.0000 O   0  0  0  0  0  0  0  0  0  0  0  0
    4.6178   -3.8905    0.0000 C   0  0  0  0  0  0  0  0  0  0  0  0
    2.3204   -5.2181    0.0000 C   0  0  0  0  0  0  0  0  0  0  0  0
    5.7607   -3.2325    0.0000 C   0  0  0  0  0  0  0  0  0  0  0  0
   10.2169   -2.8169    0.0000 C   0  0  0  0  0  0  0  0  0  0  0  0
   10.2169   -4.1445    0.0000 O   0  0  0  0  0  0  0  0  0  0  0  0
    8.1735   -5.6337    0.0000 C   0  0  0  0  0  0  0  0  0  0  0  0
    8.1735   -1.9626    0.0000 C   0  0  0  0  0  0  0  0  0  0  0  0
    5.7838   -7.2153    0.0000 C   0  0  0  0  0  0  0  0  0  0  0  0
    4.6178   -7.8387    0.0000 C   0  0  0  0  0  0  0  0  0  0  0  0
    2.3204   -7.8387    0.0000 C   0  0  0  0  0  0  0  0  0  0  0  0
    1.1660   -5.8877    0.0000 C   0  0  0  0  0  0  0  0  0  0  0  0
    1.1660   -7.2153    0.0000 C   0  0  0  0  0  0  0  0  0  0  0  0
    4.7448   -1.3738    0.0000 C   0  0  0  0  0  0  0  0  0  0  0  0
    4.6178   -6.5342    0.0000 F   0  0  0  0  0  0  0  0  0  0  0  0
    7.0190   -1.3161    0.0000 C   0  0  0  0  0  0  0  0  0  0  0  0
    9.3049   -1.3161    0.0000 O   0  0  0  0  0  0  0  0  0  0  0  0
    5.8877   -2.0203    0.0000 O   0  0  0  0  0  0  0  0  0  0  0  0
    3.6019   -2.0318    0.0000 O   0  0  0  0  0  0  0  0  0  0  0  0
    0.0000   -7.8387    0.0000 O   0  0  0  0  0  0  0  0  0  0  0  0
    3.4749   -4.5370    0.0000 C   0  0  0  0  0  0  0  0  0  0  0  0
    6.9382   -2.5629    0.0000 C   0  0  0  0  0  0  0  0  0  0  0  0
    3.4749   -3.1978    0.0000 O   0  0  0  0  0  0  0  0  0  0  0  0
    4.6178   -9.1779    0.0000 F   0  0  0  0  0  0  0  0  0  0  0  0
   10.5517   -1.5701    0.0000 C   0  0  0  0  0  0  0  0  0  0  0  0
   11.5445   -2.8169    0.0000 C   0  0  0  0  0  0  0  0  0  0  0  0
    4.7448    0.0000    0.0000 C   0  0  0  0  0  0  0  0  0  0  0  0
    6.9382   -6.5342    0.0000 H   0  0  0  0  0  0  0  0  0  0  0  0
    5.7838   -4.5370    0.0000 H   0  0  0  0  0  0  0  0  0  0  0  0
   10.1014   -5.1950    0.0000 H   0  0  0  0  0  0  0  0  0  0  0  0
  1  3  1  0  0  0  0
  1  8  1  0  0  0  0
  1  9  1  6  0  0  0
  1 16  1  1  0  0  0
  2  4  1  0  0  0  0
  2  5  1  0  0  0  0
  2 11  1  0  0  0  0
  2 29  1  1  0  0  0
  3  6  1  0  0  0  0
  3 12  1  0  0  0  0
  3 30  1  1  0  0  0
  4 10  1  0  0  0  0
  4 23  1  6  0  0  0
  4  7  1  0  0  0  0
  5 19  2  0  0  0  0
  5 18  1  0  0  0  0
  6  7  1  0  0  0  0
  6 36  1  6  0  0  0
  6 15  1  0  0  0  0
  7 17  1  0  0  0  0
  7 37  1  1  0  0  0
  8 14  1  6  0  0  0
  8 15  1  0  0  0  0
  8 38  1  1  0  0  0
  9 13  1  0  0  0  0
 10 12  1  0  0  0  0
 10 31  1  1  0  0  0
 11 20  2  0  0  0  0
 13 33  1  0  0  0  0
 13 34  1  0  0  0  0
 13 14  1  0  0  0  0
 16 24  1  0  0  0  0
 16 25  2  0  0  0  0
 17 18  1  0  0  0  0
 18 32  1  6  0  0  0
 19 21  1  0  0  0  0
 20 21  1  0  0  0  0
 21 28  2  0  0  0  0
 22 26  1  0  0  0  0
 22 27  2  0  0  0  0
 22 35  1  0  0  0  0
 24 26  1  0  0  0  0
M  END
> <ID>
10863

> <Formula>
C26H32F2O7

> <FW>
494.5249

> <DSSTox_CID>
25307

> <DSSTox_RID>
80793

> <DSSTox_GSID>
45307

> <DSSTox_FileID_Sort>
5474

> <TS_ChemName>
Fluocinonide

> <TS_ChemName_Synonyms>


> <TS_CASRN>
356-12-7

> <CASRN_ChemName_Relationship>
primary

> <TS_Description>
single chemical compound

> <ChemNote>
stereochem; tautomers

> <STRUCTURE_Shown>
tested chemical

> <STRUCTURE_Formula>
C26H32F2O7

> <STRUCTURE_MW>
494.5249

> <STRUCTURE_ChemType>
defined organic

> <STRUCTURE_DefinedOrganicForm>
parent

> <STRUCTURE_IUPAC>
2-[(4aS,4bR,5S,6aS,6bS,9aR,10aS,10bS,12S)-4b,12-difluoro-5-hydroxy-4a,6a,8,8-tetramethyl-2-oxo-2,4a,4b,5,6,6a,9a,10,10a,10b,11,12-dodecahydro-6bH-naphtho[2',1':4,5]indeno[1,2-d][1,3]dioxol-6b-yl]-2-oxoethyl acetate

> <STRUCTURE_SMILES>
CC(=O)OCC(=O)[C@]45OC(C)(C)O[C@@H]5C[C@@H]3[C@]4(C)C[C@H](O)[C@@]2(F)[C@H]3C[C@H](F)C1=CC(=O)C=C[C@@]12C

> <STRUCTURE_SMILES_Desalt>
CC(=O)OCC(=O)[C@]45OC(C)(C)O[C@@H]5C[C@@H]3[C@]4(C)C[C@H](O)[C@@]2(F)[C@H]3C[C@H](F)C1=CC(=O)C=C[C@@]12C

> <Substance_modify_yyyymmdd>
20110718

$$$$
