3562-99-0
ChemmineR-0915142007XD

 19 20  0  0  0  0  0  0  0  0  1 V2000
    9.9727    0.0000    0.0000 C   0  0  0  0  0  0  0  0  0  0  0  0
    9.3045   -1.1568    0.0000 O   0  0  0  0  0  0  0  0  0  0  0  0
    7.9782   -1.1568    0.0000 C   0  0  0  0  0  0  0  0  0  0  0  0
    7.3100    0.0000    0.0000 C   0  0  0  0  0  0  0  0  0  0  0  0
    5.9836    0.0000    0.0000 C   0  0  0  0  0  0  0  0  0  0  0  0
    5.3155   -1.1568    0.0000 C   0  0  0  0  0  0  0  0  0  0  0  0
    3.9891   -1.1568    0.0000 C   0  0  0  0  0  0  0  0  0  0  0  0
    3.3209    0.0000    0.0000 O   0  0  0  0  0  0  0  0  0  0  0  0
    3.3209   -2.3037    0.0000 C   0  0  0  0  0  0  0  0  0  0  0  0
    1.9945   -2.3037    0.0000 C   0  0  0  0  0  0  0  0  0  0  0  0
    1.3264   -3.4605    0.0000 C   0  0  0  0  0  0  0  0  0  0  0  0
    1.9945   -4.6074    0.0000 O   0  0  0  0  0  0  0  0  0  0  0  0
    0.0000   -3.4605    0.0000 O   0  0  0  0  0  0  0  0  0  0  0  0
    5.9836   -2.3037    0.0000 C   0  0  0  0  0  0  0  0  0  0  0  0
    7.3100   -2.3037    0.0000 C   0  0  0  0  0  0  0  0  0  0  0  0
    7.9782   -3.4605    0.0000 C   0  0  0  0  0  0  0  0  0  0  0  0
    7.3100   -4.6074    0.0000 C   0  0  0  0  0  0  0  0  0  0  0  0
    5.9836   -4.6074    0.0000 C   0  0  0  0  0  0  0  0  0  0  0  0
    5.3155   -3.4605    0.0000 C   0  0  0  0  0  0  0  0  0  0  0  0
  1  2  1  0  0  0  0
  2  3  1  0  0  0  0
  3  4  2  0  0  0  0
  3 15  1  0  0  0  0
  4  5  1  0  0  0  0
  5  6  2  0  0  0  0
  6  7  1  0  0  0  0
  6 14  1  0  0  0  0
  7  8  2  0  0  0  0
  7  9  1  0  0  0  0
  9 10  1  0  0  0  0
 10 11  1  0  0  0  0
 11 12  1  0  0  0  0
 11 13  2  0  0  0  0
 14 15  2  0  0  0  0
 14 19  1  0  0  0  0
 15 16  1  0  0  0  0
 16 17  2  0  0  0  0
 17 18  1  0  0  0  0
 18 19  2  0  0  0  0
M  END
> <ID>
11534

> <Formula>
C15H14O4

> <FW>
258.2693

> <DSSTox_CID>
26240

> <DSSTox_RID>
81467

> <DSSTox_GSID>
46240

> <DSSTox_FileID_Sort>
6148

> <TS_ChemName>
Menbutone

> <TS_ChemName_Synonyms>


> <TS_CASRN>
3562-99-0

> <CASRN_ChemName_Relationship>
primary

> <TS_Description>
single chemical compound

> <ChemNote>


> <STRUCTURE_Shown>
tested chemical

> <STRUCTURE_Formula>
C15H14O4

> <STRUCTURE_MW>
258.2693

> <STRUCTURE_ChemType>
defined organic

> <STRUCTURE_DefinedOrganicForm>
parent

> <STRUCTURE_IUPAC>
4-(4-methoxynaphthalen-1-yl)-4-oxobutanoic acid

> <STRUCTURE_SMILES>
O=C(O)CCC(=O)c1ccc(OC)c2ccccc12

> <STRUCTURE_SMILES_Desalt>
O=C(O)CCC(=O)c1ccc(OC)c2ccccc12

> <Substance_modify_yyyymmdd>
20110817

$$$$
