3563-01-7
ChemmineR-0915142007XD

 24 25  0  0  0  0  0  0  0  0  1 V2000
    2.3219   -4.1123    0.0000 N   0  0  0  0  0  0  0  0  0  0  0  0
    3.4770   -3.4539    0.0000 C   0  0  0  0  0  0  0  0  0  0  0  0
    4.6206   -4.1123    0.0000 C   0  0  0  0  0  0  0  0  0  0  0  0
    5.7873   -3.4539    0.0000 O   0  0  0  0  0  0  0  0  0  0  0  0
    6.9309   -4.1123    0.0000 C   0  0  0  0  0  0  0  0  0  0  0  0
    8.0745   -3.4539    0.0000 C   0  0  0  0  0  0  0  0  0  0  0  0
    9.2528   -2.7839    0.0000 C   0  0  0  0  0  0  0  0  0  0  0  0
    7.4045   -2.2987    0.0000 C   0  0  0  0  0  0  0  0  0  0  0  0
    8.7676   -4.6090    0.0000 C   0  0  0  0  0  0  0  0  0  0  0  0
    6.0761   -2.2987    0.0000 C   0  0  0  0  0  0  0  0  0  0  0  0
    5.4292   -1.1320    0.0000 C   0  0  0  0  0  0  0  0  0  0  0  0
    6.0761    0.0000    0.0000 C   0  0  0  0  0  0  0  0  0  0  0  0
    7.4045    0.0000    0.0000 C   0  0  0  0  0  0  0  0  0  0  0  0
    8.0745   -1.1320    0.0000 C   0  0  0  0  0  0  0  0  0  0  0  0
    9.2528   -1.4555    0.0000 C   0  0  0  0  0  0  0  0  0  0  0  0
   10.3963   -0.7971    0.0000 C   0  0  0  0  0  0  0  0  0  0  0  0
   11.5515   -1.4555    0.0000 C   0  0  0  0  0  0  0  0  0  0  0  0
   11.5515   -2.7839    0.0000 C   0  0  0  0  0  0  0  0  0  0  0  0
   10.3963   -3.4539    0.0000 C   0  0  0  0  0  0  0  0  0  0  0  0
    1.1667   -3.4539    0.0000 C   0  0  0  0  0  0  0  0  0  0  0  0
    0.0000   -4.1123    0.0000 C   0  0  0  0  0  0  0  0  0  0  0  0
    2.3219   -5.4408    0.0000 C   0  0  0  0  0  0  0  0  0  0  0  0
    1.1667   -6.1107    0.0000 C   0  0  0  0  0  0  0  0  0  0  0  0
    6.9309   -5.4408    0.0000 O   0  0  0  0  0  0  0  0  0  0  0  0
  1  2  1  0  0  0  0
  1 20  1  0  0  0  0
  1 22  1  0  0  0  0
  2  3  1  0  0  0  0
  3  4  1  0  0  0  0
  4  5  1  0  0  0  0
  5  6  1  0  0  0  0
  5 24  2  0  0  0  0
  6  7  1  0  0  0  0
  6  8  1  0  0  0  0
  6  9  1  0  0  0  0
  7 15  2  0  0  0  0
  7 19  1  0  0  0  0
  8 14  1  0  0  0  0
  8 10  2  0  0  0  0
 10 11  1  0  0  0  0
 11 12  2  0  0  0  0
 12 13  1  0  0  0  0
 13 14  2  0  0  0  0
 15 16  1  0  0  0  0
 16 17  2  0  0  0  0
 17 18  1  0  0  0  0
 18 19  2  0  0  0  0
 20 21  1  0  0  0  0
 22 23  1  0  0  0  0
M  END
> <ID>
11586

> <Formula>
C21H27NO2

> <FW>
325.4446

> <DSSTox_CID>
26294

> <DSSTox_RID>
81519

> <DSSTox_GSID>
46294

> <DSSTox_FileID_Sort>
6200

> <TS_ChemName>
Aprofene

> <TS_ChemName_Synonyms>


> <TS_CASRN>
3563-01-7

> <CASRN_ChemName_Relationship>
primary

> <TS_Description>
single chemical compound

> <ChemNote>


> <STRUCTURE_Shown>
tested chemical

> <STRUCTURE_Formula>
C21H27NO2

> <STRUCTURE_MW>
325.4446

> <STRUCTURE_ChemType>
defined organic

> <STRUCTURE_DefinedOrganicForm>
parent

> <STRUCTURE_IUPAC>
2-(diethylamino)ethyl 2,2-diphenylpropanoate

> <STRUCTURE_SMILES>
CC(C(=O)OCCN(CC)CC)(c1ccccc1)c2ccccc2

> <STRUCTURE_SMILES_Desalt>
CC(C(=O)OCCN(CC)CC)(c1ccccc1)c2ccccc2

> <Substance_modify_yyyymmdd>
20110815

$$$$
