3564-09-8
ChemmineR-0915142007XD

 32 32  0  0  0  0  0  0  0  0  2 V2000
    5.5974   -2.2648    0.0000 C    0  0  0  0  0  0  0  0  0  0  0  0
    5.5974   -3.6025    0.0000 C    0  0  0  0  0  0  0  0  0  0  0  0
    4.4474   -1.6076    0.0000 C    0  0  0  0  0  0  0  0  0  0  0  0
    4.4474   -4.2714    0.0000 C    0  0  0  0  0  0  0  0  0  0  0  0
    6.7591   -4.2714    0.0000 C    0  0  0  0  0  0  0  0  0  0  0  0
    6.7591   -1.6076    0.0000 C    0  0  0  0  0  0  0  0  0  0  0  0
    7.9091   -2.2648    0.0000 C    0  0  0  0  0  0  0  0  0  0  0  0
    7.9091   -3.6025    0.0000 C    0  0  0  0  0  0  0  0  0  0  0  0
    3.2974   -3.6025    0.0000 C    0  0  0  0  0  0  0  0  0  0  0  0
    3.2974   -2.2648    0.0000 C    0  0  0  0  0  0  0  0  0  0  0  0
    9.0591   -1.6076    0.0000 S    0  0  0  0  0  0  0  0  0  0  0  0
    9.7162   -2.7693    0.0000 O    0  0  0  0  0  0  0  0  0  0  0  0
    8.3902   -0.4576    0.0000 O    0  5  0  0  0  0  0  0  0  0  0  0
   10.2090   -0.9388    0.0000 O    0  0  0  0  0  0  0  0  0  0  0  0
    2.1592   -1.6076    0.0000 S    0  0  0  0  0  0  0  0  0  0  0  0
    2.8163   -0.4576    0.0000 O    0  0  0  0  0  0  0  0  0  0  0  0
    1.4903   -2.7693    0.0000 O    0  5  0  0  0  0  0  0  0  0  0  0
    1.0092   -0.9388    0.0000 O    0  0  0  0  0  0  0  0  0  0  0  0
    9.0591   -4.2714    0.0000 O    0  0  0  0  0  0  0  0  0  0  0  0
    7.9091   -6.2545    0.0000 N    0  0  0  0  0  0  0  0  0  0  0  0
    6.7591   -5.5974    0.0000 N    0  0  0  0  0  0  0  0  0  0  0  0
    7.9091   -7.5805    0.0000 C    0  0  0  0  0  0  0  0  0  0  0  0
    9.0591   -8.2611    0.0000 C    0  0  0  0  0  0  0  0  0  0  0  0
    6.7591   -8.2611    0.0000 C    0  0  0  0  0  0  0  0  0  0  0  0
    9.0591   -9.5871    0.0000 C    0  0  0  0  0  0  0  0  0  0  0  0
    6.7591   -9.5871    0.0000 C    0  0  0  0  0  0  0  0  0  0  0  0
    7.9091  -10.2442    0.0000 C    0  0  0  0  0  0  0  0  0  0  0  0
   10.2090   -7.5805    0.0000 C    0  0  0  0  0  0  0  0  0  0  0  0
    7.9091  -11.5702    0.0000 C    0  0  0  0  0  0  0  0  0  0  0  0
    5.5974  -10.2442    0.0000 C    0  0  0  0  0  0  0  0  0  0  0  0
   11.7345    0.0000    0.0000 Na   0  3  0  0  0  0  0  0  0  0  0  0
    0.0000   -0.1525    0.0000 Na   0  3  0  0  0  0  0  0  0  0  0  0
  1  2  2  0  0  0  0
  1  3  1  0  0  0  0
  1  6  1  0  0  0  0
  2  4  1  0  0  0  0
  2  5  1  0  0  0  0
  3 10  2  0  0  0  0
  4  9  2  0  0  0  0
  5  8  2  0  0  0  0
  5 21  1  0  0  0  0
  6  7  2  0  0  0  0
  7  8  1  0  0  0  0
  7 11  1  0  0  0  0
  8 19  1  0  0  0  0
  9 10  1  0  0  0  0
 10 15  1  0  0  0  0
 11 12  2  0  0  0  0
 11 13  1  0  0  0  0
 11 14  2  0  0  0  0
 15 16  2  0  0  0  0
 15 17  1  0  0  0  0
 15 18  2  0  0  0  0
 20 22  1  0  0  0  0
 20 21  2  0  0  0  0
 22 23  2  0  0  0  0
 22 24  1  0  0  0  0
 23 25  1  0  0  0  0
 23 28  1  0  0  0  0
 24 26  2  0  0  0  0
 25 27  2  0  0  0  0
 26 27  1  0  0  0  0
 26 30  1  0  0  0  0
 27 29  1  0  0  0  0
M  END
> <ID>
1184

> <Formula>
C19H16N2Na2O7S2

> <FW>
494.4491 (448.4706+22.9892+22.9892)

> <DSSTox_CID>
1231

> <DSSTox_RID>
76023

> <DSSTox_GSID>
21231

> <DSSTox_FileID_Sort>
707

> <TS_ChemName>
Ponceau 3R

> <TS_ChemName_Synonyms>
Ponceau 3R (FD & C Red No. 1)

> <TS_CASRN>
3564-09-8

> <CASRN_ChemName_Relationship>
primary

> <TS_Description>
single chemical compound

> <ChemNote>
C.I.16155

> <STRUCTURE_Shown>
tested chemical

> <STRUCTURE_Formula>
C19H16N2Na2O7S2

> <STRUCTURE_MW>
494.4491

> <STRUCTURE_ChemType>
defined organic

> <STRUCTURE_DefinedOrganicForm>
salt

> <STRUCTURE_IUPAC>
disodium 3-hydroxy-4-[(E)-(2,4,5-trimethylphenyl)diazenyl]naphthalene-2,7-disulfonate

> <STRUCTURE_SMILES>
[Na+].[Na+].[O-]S(=O)(=O)c2cc3cc(c(O)c(/N=N/c1cc(C)c(C)cc1C)c3cc2)S([O-])(=O)=O

> <STRUCTURE_SMILES_Desalt>
O=S(=O)(O)c2cc3cc(c(O)c(/N=N/c1cc(C)c(C)cc1C)c3cc2)S(=O)(=O)O

> <Substance_modify_yyyymmdd>
20080429

$$$$
