35661-60-0
ChemmineR-0915142007XD

 26 28  0  0  1  0  0  0  0  0  1 V2000
    3.3694   -3.8840    0.0000 C   0  0  0  0  0  0  0  0  0  0  0  0
    4.4957   -4.5248    0.0000 O   0  0  0  0  0  0  0  0  0  0  0  0
    3.3694   -2.5926    0.0000 C   0  0  0  0  0  0  0  0  0  0  0  0
    4.4957   -5.8260    0.0000 C   0  0  0  0  0  0  0  0  0  0  0  0
    2.2430   -1.9323    0.0000 C   0  0  0  0  0  0  0  0  0  0  0  0
    4.4957   -1.9323    0.0000 C   0  0  0  0  0  0  0  0  0  0  0  0
    3.3694   -6.4765    0.0000 N   0  0  0  0  0  0  0  0  0  0  0  0
    5.6123   -6.4765    0.0000 O   0  0  0  0  0  0  0  0  0  0  0  0
    2.2430   -0.6409    0.0000 C   0  0  0  0  0  0  0  0  0  0  0  0
    1.1264   -2.5926    0.0000 C   0  0  0  0  0  0  0  0  0  0  0  0
    4.4957   -0.6409    0.0000 C   0  0  0  0  0  0  0  0  0  0  0  0
    5.6123   -2.5926    0.0000 C   0  0  0  0  0  0  0  0  0  0  0  0
    3.3694   -7.7777    0.0000 C   0  0  0  0  0  0  0  0  0  0  0  0
    1.1264    0.0000    0.0000 C   0  0  0  0  0  0  0  0  0  0  0  0
    0.0000   -1.9323    0.0000 C   0  0  0  0  0  0  0  0  0  0  0  0
    5.6123    0.0000    0.0000 C   0  0  0  0  0  0  0  0  0  0  0  0
    6.7387   -1.9323    0.0000 C   0  0  0  0  0  0  0  0  0  0  0  0
    2.2430   -8.4185    0.0000 C   0  0  0  0  0  0  0  0  0  0  0  0
    4.4957   -8.4185    0.0000 C   0  0  0  0  0  0  0  0  0  0  0  0
    0.0000   -0.6409    0.0000 C   0  0  0  0  0  0  0  0  0  0  0  0
    6.7387   -0.6409    0.0000 C   0  0  0  0  0  0  0  0  0  0  0  0
    1.1264   -7.7777    0.0000 C   0  0  0  0  0  0  0  0  0  0  0  0
    5.6123   -7.7777    0.0000 O   0  0  0  0  0  0  0  0  0  0  0  0
    4.4957   -9.7099    0.0000 O   0  0  0  0  0  0  0  0  0  0  0  0
    1.1264   -6.4765    0.0000 C   0  0  0  0  0  0  0  0  0  0  0  0
    0.0000   -8.4185    0.0000 C   0  0  0  0  0  0  0  0  0  0  0  0
  1  2  1  0  0  0  0
  1  3  1  0  0  0  0
  2  4  1  0  0  0  0
  3  5  1  0  0  0  0
  3  6  1  0  0  0  0
  4  7  1  0  0  0  0
  4  8  2  0  0  0  0
  5  9  2  0  0  0  0
  5 10  1  0  0  0  0
  6 11  1  0  0  0  0
  6 12  2  0  0  0  0
 13  7  1  6  0  0  0
  9 14  1  0  0  0  0
  9 11  1  0  0  0  0
 10 15  2  0  0  0  0
 11 16  2  0  0  0  0
 12 17  1  0  0  0  0
 13 18  1  0  0  0  0
 13 19  1  0  0  0  0
 14 20  2  0  0  0  0
 15 20  1  0  0  0  0
 16 21  1  0  0  0  0
 17 21  2  0  0  0  0
 18 22  1  0  0  0  0
 19 23  2  0  0  0  0
 19 24  1  0  0  0  0
 22 25  1  0  0  0  0
 22 26  1  0  0  0  0
M  END
> <ID>
7944

> <Formula>
C21H23NO4

> <FW>
353.4116

> <DSSTox_CID>
20751

> <DSSTox_RID>
79588

> <DSSTox_GSID>
40751

> <DSSTox_FileID_Sort>
4270

> <TS_ChemName>
N-(9-Fluorenylmethoxycarbonyl)-L-leucine

> <TS_ChemName_Synonyms>
N-(9-Fluorenylmethoxycarbonyl)-L-leucine (Fmoc-L-Leucine)

> <TS_CASRN>
35661-60-0

> <CASRN_ChemName_Relationship>
primary

> <TS_Description>
single chemical compound

> <ChemNote>
stereochem

> <STRUCTURE_Shown>
tested chemical

> <STRUCTURE_Formula>
C21H23NO4

> <STRUCTURE_MW>
353.4116

> <STRUCTURE_ChemType>
defined organic

> <STRUCTURE_DefinedOrganicForm>
parent

> <STRUCTURE_IUPAC>
N-[(9H-fluoren-9-ylmethoxy)carbonyl]-L-leucine

> <STRUCTURE_SMILES>
O=C(O)[C@H](CC(C)C)NC(=O)OCC3c1ccccc1c2ccccc23

> <STRUCTURE_SMILES_Desalt>
O=C(O)[C@H](CC(C)C)NC(=O)OCC3c1ccccc1c2ccccc23

> <Substance_modify_yyyymmdd>
20080429

$$$$
