3567-08-6
ChemmineR-0915142007XD

 21 22  0  0  0  0  0  0  0  0  1 V2000
    0.0000   -0.6791    0.0000 C   0  0  0  0  0  0  0  0  0  0  0  0
    1.1544    0.0000    0.0000 O   0  0  0  0  0  0  0  0  0  0  0  0
    2.2953   -0.6791    0.0000 C   0  0  0  0  0  0  0  0  0  0  0  0
    3.4497    0.0000    0.0000 C   0  0  0  0  0  0  0  0  0  0  0  0
    4.5905   -0.6791    0.0000 C   0  0  0  0  0  0  0  0  0  0  0  0
    4.5905   -2.0101    0.0000 C   0  0  0  0  0  0  0  0  0  0  0  0
    3.4497   -2.6620    0.0000 C   0  0  0  0  0  0  0  0  0  0  0  0
    2.2953   -2.0101    0.0000 C   0  0  0  0  0  0  0  0  0  0  0  0
    5.7450   -2.6620    0.0000 S   0  0  0  0  0  0  0  0  0  0  0  0
    6.4240   -1.5075    0.0000 O   0  0  0  0  0  0  0  0  0  0  0  0
    5.0931   -3.8164    0.0000 O   0  0  0  0  0  0  0  0  0  0  0  0
    6.8994   -3.3410    0.0000 N   0  0  0  0  0  0  0  0  0  0  0  0
    8.0538   -2.6620    0.0000 C   0  0  0  0  0  0  0  0  0  0  0  0
    8.2032   -1.3446    0.0000 N   0  0  0  0  0  0  0  0  0  0  0  0
    9.4935   -1.0729    0.0000 N   0  0  0  0  0  0  0  0  0  0  0  0
   10.1590   -2.2138    0.0000 C   0  0  0  0  0  0  0  0  0  0  0  0
   11.4899   -2.3632    0.0000 C   0  0  0  0  0  0  0  0  0  0  0  0
   12.2641   -1.2902    0.0000 C   0  0  0  0  0  0  0  0  0  0  0  0
   13.5815   -1.4261    0.0000 C   0  0  0  0  0  0  0  0  0  0  0  0
   11.7208   -0.0679    0.0000 C   0  0  0  0  0  0  0  0  0  0  0  0
    9.2762   -3.2052    0.0000 S   0  0  0  0  0  0  0  0  0  0  0  0
  1  2  1  0  0  0  0
  2  3  1  0  0  0  0
  3  4  2  0  0  0  0
  3  8  1  0  0  0  0
  4  5  1  0  0  0  0
  5  6  2  0  0  0  0
  6  7  1  0  0  0  0
  6  9  1  0  0  0  0
  7  8  2  0  0  0  0
  9 10  2  0  0  0  0
  9 11  2  0  0  0  0
  9 12  1  0  0  0  0
 12 13  1  0  0  0  0
 13 14  2  0  0  0  0
 13 21  1  0  0  0  0
 14 15  1  0  0  0  0
 15 16  2  0  0  0  0
 16 17  1  0  0  0  0
 16 21  1  0  0  0  0
 17 18  1  0  0  0  0
 18 19  1  0  0  0  0
 18 20  1  0  0  0  0
M  END
> <ID>
11570

> <Formula>
C13H17N3O3S2

> <FW>
327.4224

> <DSSTox_CID>
26276

> <DSSTox_RID>
81503

> <DSSTox_GSID>
46276

> <DSSTox_FileID_Sort>
6184

> <TS_ChemName>
Glysobuzole

> <TS_ChemName_Synonyms>


> <TS_CASRN>
3567-08-6

> <CASRN_ChemName_Relationship>
primary

> <TS_Description>
single chemical compound

> <ChemNote>


> <STRUCTURE_Shown>
tested chemical

> <STRUCTURE_Formula>
C13H17N3O3S2

> <STRUCTURE_MW>
327.4224

> <STRUCTURE_ChemType>
defined organic

> <STRUCTURE_DefinedOrganicForm>
parent

> <STRUCTURE_IUPAC>
4-methoxy-N-[5-(2-methylpropyl)-1,3,4-thiadiazol-2-yl]benzenesulfonamide

> <STRUCTURE_SMILES>
O=S(=O)(Nc1nnc(CC(C)C)s1)c2ccc(OC)cc2

> <STRUCTURE_SMILES_Desalt>
O=S(=O)(Nc1nnc(CC(C)C)s1)c2ccc(OC)cc2

> <Substance_modify_yyyymmdd>
20110815

$$$$
