3567-62-2
ChemmineR-0915142007XD

 13 13  0  0  0  0  0  0  0  0  1 V2000
    5.7566   -3.3298    0.0000 C    0  0  0  0  0  0  0  0  0  0  0  0
    2.3058   -1.3303    0.0000 C    0  0  0  0  0  0  0  0  0  0  0  0
    3.4426   -1.9914    0.0000 C    0  0  0  0  0  0  0  0  0  0  0  0
    4.6036   -3.9909    0.0000 N    0  0  0  0  0  0  0  0  0  0  0  0
    3.4426   -3.3217    0.0000 C    0  0  0  0  0  0  0  0  0  0  0  0
    1.1529   -1.9914    0.0000 C    0  0  0  0  0  0  0  0  0  0  0  0
    5.7727   -1.9995    0.0000 O    0  0  0  0  0  0  0  0  0  0  0  0
    6.9095   -4.0070    0.0000 N    0  0  0  0  0  0  0  0  0  0  0  0
    1.1529   -3.3217    0.0000 C    0  0  0  0  0  0  0  0  0  0  0  0
    2.3220    0.0000    0.0000 Cl   0  0  0  0  0  0  0  0  0  0  0  0
    2.2897   -3.9909    0.0000 C    0  0  0  0  0  0  0  0  0  0  0  0
    0.0000   -1.3142    0.0000 Cl   0  0  0  0  0  0  0  0  0  0  0  0
    8.0624   -3.3459    0.0000 C    0  0  0  0  0  0  0  0  0  0  0  0
  1  4  1  0  0  0  0
  1  7  2  0  0  0  0
  1  8  1  0  0  0  0
  2  3  1  0  0  0  0
  2 10  1  0  0  0  0
  2  6  2  0  0  0  0
  3  5  2  0  0  0  0
  4  5  1  0  0  0  0
  5 11  1  0  0  0  0
  6  9  1  0  0  0  0
  6 12  1  0  0  0  0
  8 13  1  0  0  0  0
  9 11  2  0  0  0  0
M  END
> <ID>
9110

> <Formula>
C8H8Cl2N2O

> <FW>
219.0679

> <DSSTox_CID>
22180

> <DSSTox_RID>
79945

> <DSSTox_GSID>
42180

> <DSSTox_FileID_Sort>
4627

> <TS_ChemName>
N-(3,4-Dichlorophenyl)-N'-methylurea

> <TS_ChemName_Synonyms>


> <TS_CASRN>
3567-62-2

> <CASRN_ChemName_Relationship>
primary

> <TS_Description>
single chemical compound

> <ChemNote>


> <STRUCTURE_Shown>
tested chemical

> <STRUCTURE_Formula>
C8H8Cl2N2O

> <STRUCTURE_MW>
219.0679

> <STRUCTURE_ChemType>
defined organic

> <STRUCTURE_DefinedOrganicForm>
parent

> <STRUCTURE_IUPAC>
1-(3,4-dichlorophenyl)-3-methylurea

> <STRUCTURE_SMILES>
Clc1ccc(NC(=O)NC)cc1Cl

> <STRUCTURE_SMILES_Desalt>
Clc1ccc(NC(=O)NC)cc1Cl

> <Substance_modify_yyyymmdd>
20080825

$$$$
