35691-65-7
ChemmineR-0915142007XD

 10  9  0  0  0  0  0  0  0  0  1 V2000
    0.0000   -1.9895    0.0000 N    0  0  0  0  0  0  0  0  0  0  0  0
    1.3361   -1.9895    0.0000 C    0  0  0  0  0  0  0  0  0  0  0  0
    2.6649   -1.9895    0.0000 C    0  0  0  0  0  0  0  0  0  0  0  0
    2.6649   -3.3256    0.0000 Br   0  0  0  0  0  0  0  0  0  0  0  0
    4.0011   -1.9895    0.0000 C    0  0  0  0  0  0  0  0  0  0  0  0
    4.6765   -0.8516    0.0000 C    0  0  0  0  0  0  0  0  0  0  0  0
    6.0053   -0.8516    0.0000 C    0  0  0  0  0  0  0  0  0  0  0  0
    7.3414   -0.8516    0.0000 N    0  0  0  0  0  0  0  0  0  0  0  0
    2.6649   -0.6607    0.0000 C    0  0  0  0  0  0  0  0  0  0  0  0
    1.5270    0.0000    0.0000 Br   0  0  0  0  0  0  0  0  0  0  0  0
  1  2  3  0  0  0  0
  2  3  1  0  0  0  0
  3  4  1  0  0  0  0
  3  5  1  0  0  0  0
  3  9  1  0  0  0  0
  5  6  1  0  0  0  0
  6  7  1  0  0  0  0
  7  8  3  0  0  0  0
  9 10  1  0  0  0  0
M  END
> <ID>
3929

> <Formula>
C6H6Br2N2

> <FW>
265.9332

> <DSSTox_CID>
4944

> <DSSTox_RID>
77593

> <DSSTox_GSID>
24944

> <DSSTox_FileID_Sort>
2276

> <TS_ChemName>
1,2-Dibromo-2,4-dicyanobutane

> <TS_ChemName_Synonyms>
1,2-Dibromo-2,4-dicyanobutane (1-Bromo-1-(bromomethyl)-1,3-propanedicarbonitrile)

> <TS_CASRN>
35691-65-7

> <CASRN_ChemName_Relationship>
primary

> <TS_Description>
single chemical compound

> <ChemNote>


> <STRUCTURE_Shown>
tested chemical

> <STRUCTURE_Formula>
C6H6Br2N2

> <STRUCTURE_MW>
265.9332

> <STRUCTURE_ChemType>
defined organic

> <STRUCTURE_DefinedOrganicForm>
parent

> <STRUCTURE_IUPAC>
2-bromo-2-(bromomethyl)pentanedinitrile

> <STRUCTURE_SMILES>
N#CCCC(Br)(CBr)C#N

> <STRUCTURE_SMILES_Desalt>
N#CCCC(Br)(CBr)C#N

> <Substance_modify_yyyymmdd>
20080429

$$$$
