3569-10-6
ChemmineR-0915142007XD

 18 19  0  0  1  0  0  0  0  0  1 V2000
    2.0498   -3.3260    0.0000 C   0  0  0  0  0  0  0  0  0  0  0  0
    0.7817   -3.7408    0.0000 C   0  0  0  0  0  0  0  0  0  0  0  0
    2.0498   -2.0020    0.0000 C   0  0  0  0  0  0  0  0  0  0  0  0
    0.0000   -2.6720    0.0000 C   0  0  0  0  0  0  0  0  0  0  0  0
    0.7817   -1.5793    0.0000 C   0  0  0  0  0  0  0  0  0  0  0  0
    3.1984   -3.9960    0.0000 C   0  0  0  0  0  0  0  0  0  0  0  0
    4.3469   -3.3260    0.0000 C   0  0  0  0  0  0  0  0  0  0  0  0
    3.1984   -1.3400    0.0000 C   0  0  0  0  0  0  0  0  0  0  0  0
    4.3469   -2.0020    0.0000 C   0  0  0  0  0  0  0  0  0  0  0  0
    0.3828   -5.0010    0.0000 C   0  0  0  0  0  0  0  0  0  0  0  0
    1.8185   -0.6700    0.0000 H   0  0  0  0  0  0  0  0  0  0  0  0
    3.1984    0.0000    0.0000 C   0  0  0  0  0  0  0  0  0  0  0  0
    3.1984   -5.3200    0.0000 C   0  0  0  0  0  0  0  0  0  0  0  0
    4.3469   -5.9741    0.0000 C   0  0  0  0  0  0  0  0  0  0  0  0
    4.3469   -7.3061    0.0000 C   0  0  0  0  0  0  0  0  0  0  0  0
    5.4955   -5.3200    0.0000 C   0  0  0  0  0  0  0  0  0  0  0  0
    3.1984   -7.9760    0.0000 O   0  0  0  0  0  0  0  0  0  0  0  0
    5.4955   -7.9760    0.0000 O   0  0  0  0  0  0  0  0  0  0  0  0
  1  2  2  0  0  0  0
  1  6  1  0  0  0  0
  1  3  1  0  0  0  0
  2  4  1  0  0  0  0
  2 10  1  0  0  0  0
  3  5  1  0  0  0  0
  3  8  1  0  0  0  0
  3 11  1  1  0  0  0
  4  5  1  0  0  0  0
  6  7  1  0  0  0  0
  6 13  1  1  0  0  0
  7  9  1  0  0  0  0
  8  9  1  0  0  0  0
  8 12  1  6  0  0  0
 13 14  2  0  0  0  0
 14 15  1  0  0  0  0
 14 16  1  0  0  0  0
 15 17  2  0  0  0  0
 15 18  1  0  0  0  0
M  END
> <ID>
6660

> <Formula>
C15H22O2

> <FW>
234.334

> <DSSTox_CID>
14089

> <DSSTox_RID>
79112

> <DSSTox_GSID>
34089

> <DSSTox_FileID_Sort>
3794

> <TS_ChemName>
Valerenic acid

> <TS_ChemName_Synonyms>


> <TS_CASRN>
3569-10-6

> <CASRN_ChemName_Relationship>
primary

> <TS_Description>
single chemical compound

> <ChemNote>
stereochem

> <STRUCTURE_Shown>
tested chemical

> <STRUCTURE_Formula>
C15H22O2

> <STRUCTURE_MW>
234.334

> <STRUCTURE_ChemType>
defined organic

> <STRUCTURE_DefinedOrganicForm>
parent

> <STRUCTURE_IUPAC>
(2E)-3-[(4S,7R,7aR)-3,7-dimethyl-2,4,5,6,7,7a-hexahydro-1H-inden-4-yl]-2-methylprop-2-enoic acid

> <STRUCTURE_SMILES>
O=C(O)C(\C)=C\[C@@H]1CC[C@@H](C)[C@H]2CCC(C)=C12

> <STRUCTURE_SMILES_Desalt>
O=C(O)C(\C)=C\[C@@H]1CC[C@@H](C)[C@H]2CCC(C)=C12

> <Substance_modify_yyyymmdd>
20080429

$$$$
