357-70-0
ChemmineR-0915142007XD

 21 24  0  0  1  0  0  0  0  0  1 V2000
    5.8201   -3.3861    0.0000 C   0  0  0  0  0  0  0  0  0  0  0  0
    3.5351   -3.6262    0.0000 C   0  0  0  0  0  0  0  0  0  0  0  0
    3.8331   -2.2353    0.0000 O   0  0  0  0  0  0  0  0  0  0  0  0
    4.7769   -4.3464    0.0000 C   0  0  0  0  0  0  0  0  0  0  0  0
    5.2405   -2.0780    0.0000 C   0  0  0  0  0  0  0  0  0  0  0  0
    4.7769   -5.7704    0.0000 C   0  0  0  0  0  0  0  0  0  0  0  0
    7.2689   -3.5185    0.0000 C   0  0  0  0  0  0  0  0  0  0  0  0
    6.8218   -6.0105    0.0000 N   0  0  0  0  0  0  0  0  0  0  0  0
    6.7804   -3.9821    0.0000 C   0  0  0  0  0  0  0  0  0  0  0  0
    6.0767   -0.9272    0.0000 C   0  0  0  0  0  0  0  0  0  0  0  0
    5.8366   -6.3747    0.0000 C   0  0  0  0  0  0  0  0  0  0  0  0
    2.3015   -4.3464    0.0000 C   0  0  0  0  0  0  0  0  0  0  0  0
    8.0885   -2.3512    0.0000 C   0  0  0  0  0  0  0  0  0  0  0  0
    3.5351   -6.4907    0.0000 C   0  0  0  0  0  0  0  0  0  0  0  0
    2.3015   -5.7704    0.0000 C   0  0  0  0  0  0  0  0  0  0  0  0
    7.1944   -5.0832    0.0000 C   0  0  0  0  0  0  0  0  0  0  0  0
    7.5090   -1.0514    0.0000 C   0  0  0  0  0  0  0  0  0  0  0  0
    1.1508   -3.7421    0.0000 O   0  0  0  0  0  0  0  0  0  0  0  0
    8.2789    0.0000    0.0000 O   0  0  0  0  0  0  0  0  0  0  0  0
    7.5752   -6.6645    0.0000 C   0  0  0  0  0  0  0  0  0  0  0  0
    0.0000   -4.3795    0.0000 C   0  0  0  0  0  0  0  0  0  0  0  0
  1  4  1  1  0  0  0
  1  5  1  0  0  0  0
  1  7  1  0  0  0  0
  1  9  1  6  0  0  0
  2  4  1  0  0  0  0
  2 12  2  0  0  0  0
  2  3  1  0  0  0  0
  5  3  1  1  0  0  0
  4  6  2  0  0  0  0
  5 10  1  0  0  0  0
  6 11  1  0  0  0  0
  6 14  1  0  0  0  0
  7 13  2  0  0  0  0
  8 16  1  0  0  0  0
  8 20  1  0  0  0  0
  8 11  1  0  0  0  0
  9 16  1  0  0  0  0
 10 17  1  0  0  0  0
 12 18  1  0  0  0  0
 12 15  1  0  0  0  0
 13 17  1  0  0  0  0
 14 15  2  0  0  0  0
 17 19  1  1  0  0  0
 18 21  1  0  0  0  0
M  END
> <ID>
11067

> <Formula>
C17H21NO3

> <FW>
287.3535

> <DSSTox_CID>
25606

> <DSSTox_RID>
80999

> <DSSTox_GSID>
45606

> <DSSTox_FileID_Sort>
5680

> <TS_ChemName>
Galanthamine

> <TS_ChemName_Synonyms>


> <TS_CASRN>
357-70-0

> <CASRN_ChemName_Relationship>
primary

> <TS_Description>
single chemical compound

> <ChemNote>
stereochem

> <STRUCTURE_Shown>
tested chemical

> <STRUCTURE_Formula>
C17H21NO3

> <STRUCTURE_MW>
287.3535

> <STRUCTURE_ChemType>
defined organic

> <STRUCTURE_DefinedOrganicForm>
parent

> <STRUCTURE_IUPAC>
galanthamine

> <STRUCTURE_SMILES>
O[C@H]1C=C[C@@]42CCN(C)Cc3ccc(OC)c(O[C@H]2C1)c34

> <STRUCTURE_SMILES_Desalt>
O[C@H]1C=C[C@@]42CCN(C)Cc3ccc(OC)c(O[C@H]2C1)c34

> <Substance_modify_yyyymmdd>
20100107

$$$$
