357-57-3
ChemmineR-0915142007XD

 34 40  0  0  1  0  0  0  0  0  1 V2000
    8.2384   -2.9654    0.0000 C   0  0  0  0  0  0  0  0  0  0  0  0
    7.1943   -3.5606    0.0000 C   0  0  0  0  0  0  0  0  0  0  0  0
    7.1943   -4.7405    0.0000 C   0  0  0  0  0  0  0  0  0  0  0  0
    6.1814   -2.9654    0.0000 C   0  0  0  0  0  0  0  0  0  0  0  0
    5.1477   -3.5606    0.0000 N   0  0  0  0  0  0  0  0  0  0  0  0
    6.1814   -5.3565    0.0000 C   0  0  0  0  0  0  0  0  0  0  0  0
    5.1477   -4.7405    0.0000 C   0  0  0  0  0  0  0  0  0  0  0  0
    8.2384   -1.7855    0.0000 C   0  0  0  0  0  0  0  0  0  0  0  0
    7.1943   -1.1799    0.0000 C   0  0  0  0  0  0  0  0  0  0  0  0
    6.1814   -1.7855    0.0000 C   0  0  0  0  0  0  0  0  0  0  0  0
    4.1244   -2.9654    0.0000 C   0  0  0  0  0  0  0  0  0  0  0  0
    4.1244   -1.7855    0.0000 C   0  0  0  0  0  0  0  0  0  0  0  0
    3.0803   -3.5606    0.0000 C   0  0  0  0  0  0  0  0  0  0  0  0
    2.0570   -2.9654    0.0000 C   0  0  0  0  0  0  0  0  0  0  0  0
    3.0803   -1.1799    0.0000 C   0  0  0  0  0  0  0  0  0  0  0  0
    2.0570   -1.7855    0.0000 C   0  0  0  0  0  0  0  0  0  0  0  0
    7.1943    0.0000    0.0000 N   0  0  0  0  0  0  0  0  0  0  0  0
    5.1477   -1.1799    0.0000 C   0  0  0  0  0  0  0  0  0  0  0  0
    5.1477    0.0000    0.0000 C   0  0  0  0  0  0  0  0  0  0  0  0
    9.4079    0.0000    0.0000 C   0  0  0  0  0  0  0  0  0  0  0  0
    4.1244   -5.3565    0.0000 O   0  0  0  0  0  0  0  0  0  0  0  0
    7.1943   -5.9308    0.0000 H   0  0  0  0  0  0  0  0  0  0  0  0
    6.1814   -4.1558    0.0000 H   0  0  0  0  0  0  0  0  0  0  0  0
    8.2384   -4.1558    0.0000 H   0  0  0  0  0  0  0  0  0  0  0  0
    7.1943   -2.3807    0.0000 H   0  0  0  0  0  0  0  0  0  0  0  0
    9.4079   -2.9654    0.0000 C   0  0  0  0  0  0  0  0  0  0  0  0
   10.4416   -3.5606    0.0000 C   0  0  0  0  0  0  0  0  0  0  0  0
   10.4416   -4.7405    0.0000 C   0  0  0  0  0  0  0  0  0  0  0  0
    8.7918   -5.4296    0.0000 O   0  0  0  0  0  0  0  0  0  0  0  0
    8.2489   -0.5952    0.0000 H   0  0  0  0  0  0  0  0  0  0  0  0
    1.0337   -1.2008    0.0000 O   0  0  0  0  0  0  0  0  0  0  0  0
    1.0337   -3.5606    0.0000 O   0  0  0  0  0  0  0  0  0  0  0  0
    0.0000   -2.9654    0.0000 C   0  0  0  0  0  0  0  0  0  0  0  0
    0.0000   -1.7960    0.0000 C   0  0  0  0  0  0  0  0  0  0  0  0
  1 26  1  0  0  0  0
  1  8  1  0  0  0  0
  1 24  1  6  0  0  0
  1  2  1  0  0  0  0
  2  4  1  0  0  0  0
  2 25  1  6  0  0  0
  2  3  1  0  0  0  0
  3  6  1  0  0  0  0
  3 22  1  6  0  0  0
  3 29  1  0  0  0  0
  4  5  1  0  0  0  0
  4 10  1  0  0  0  0
  4 23  1  1  0  0  0
  5  7  1  0  0  0  0
  5 11  1  0  0  0  0
  6  7  1  0  0  0  0
  7 21  2  0  0  0  0
  8  9  1  0  0  0  0
  9 17  1  0  0  0  0
  9 10  1  0  0  0  0
  9 30  1  6  0  0  0
 10 12  1  0  0  0  0
 10 18  1  1  0  0  0
 11 13  1  0  0  0  0
 11 12  2  0  0  0  0
 12 15  1  0  0  0  0
 13 14  2  0  0  0  0
 14 16  1  0  0  0  0
 14 32  1  0  0  0  0
 15 16  2  0  0  0  0
 16 31  1  0  0  0  0
 17 19  1  0  0  0  0
 17 20  1  0  0  0  0
 18 19  1  0  0  0  0
 20 26  1  0  0  0  0
 26 27  2  0  0  0  0
 27 28  1  0  0  0  0
 28 29  1  0  0  0  0
 31 34  1  0  0  0  0
 32 33  1  0  0  0  0
M  END
> <ID>
3797

> <Formula>
C23H26N2O4

> <FW>
394.4635

> <DSSTox_CID>
4662

> <DSSTox_RID>
77490

> <DSSTox_GSID>
24662

> <DSSTox_FileID_Sort>
2173

> <TS_ChemName>
Brucine

> <TS_ChemName_Synonyms>


> <TS_CASRN>
357-57-3

> <CASRN_ChemName_Relationship>
primary

> <TS_Description>
single chemical compound

> <ChemNote>
stereochem

> <STRUCTURE_Shown>
tested chemical

> <STRUCTURE_Formula>
C23H26N2O4

> <STRUCTURE_MW>
394.4635

> <STRUCTURE_ChemType>
defined organic

> <STRUCTURE_DefinedOrganicForm>
parent

> <STRUCTURE_IUPAC>
2,3-dimethoxystrychnidin-10-one

> <STRUCTURE_SMILES>
COc1cc2c(cc1OC)N5C(=O)C[C@@H]4OCC=C3CN7CC[C@]26[C@@H]7C[C@@H]3[C@@H]4[C@H]56

> <STRUCTURE_SMILES_Desalt>
COc1cc2c(cc1OC)N5C(=O)C[C@@H]4OCC=C3CN7CC[C@]26[C@@H]7C[C@@H]3[C@@H]4[C@H]56

> <Substance_modify_yyyymmdd>
20080429

$$$$
