3570-55-6
ChemmineR-0915142007XD

  7  6  0  0  0  0  0  0  0  0  1 V2000
    1.1578   -0.6586    0.0000 C   0  0  0  0  0  0  0  0  0  0  0  0
    2.3294    0.0000    0.0000 C   0  0  0  0  0  0  0  0  0  0  0  0
    0.0000    0.0000    0.0000 S   0  0  0  0  0  0  0  0  0  0  0  0
    5.7750   -0.6586    0.0000 C   0  0  0  0  0  0  0  0  0  0  0  0
    4.6242    0.0000    0.0000 C   0  0  0  0  0  0  0  0  0  0  0  0
    6.9328    0.0000    0.0000 S   0  0  0  0  0  0  0  0  0  0  0  0
    3.4664   -0.6586    0.0000 S   0  0  0  0  0  0  0  0  0  0  0  0
  1  2  1  0  0  0  0
  1  3  1  0  0  0  0
  2  7  1  0  0  0  0
  4  5  1  0  0  0  0
  4  6  1  0  0  0  0
  5  7  1  0  0  0  0
M  END
> <ID>
10313

> <Formula>
C4H10S3

> <FW>
154.3172

> <DSSTox_CID>
24660

> <DSSTox_RID>
80382

> <DSSTox_GSID>
44660

> <DSSTox_FileID_Sort>
5064

> <TS_ChemName>
2,2'-Sulfanediyldiethanethiol

> <TS_ChemName_Synonyms>
Ethanethiol, 2,2'-thiobis-

> <TS_CASRN>
3570-55-6

> <CASRN_ChemName_Relationship>
primary

> <TS_Description>
single chemical compound

> <ChemNote>


> <STRUCTURE_Shown>
tested chemical

> <STRUCTURE_Formula>
C4H10S3

> <STRUCTURE_MW>
154.3172

> <STRUCTURE_ChemType>
defined organic

> <STRUCTURE_DefinedOrganicForm>
parent

> <STRUCTURE_IUPAC>
2,2'-sulfanediyldiethanethiol

> <STRUCTURE_SMILES>
SCCSCCS

> <STRUCTURE_SMILES_Desalt>
SCCSCCS

> <Substance_modify_yyyymmdd>
20091116

$$$$
