3572-06-3
ChemmineR-0915142007XD

 15 15  0  0  0  0  0  0  0  0  1 V2000
    6.6482   -2.3024    0.0000 C   0  0  0  0  0  0  0  0  0  0  0  0
    5.9804   -3.4586    0.0000 C   0  0  0  0  0  0  0  0  0  0  0  0
    5.9804   -1.1562    0.0000 C   0  0  0  0  0  0  0  0  0  0  0  0
    7.9838   -2.3024    0.0000 O   0  0  0  0  0  0  0  0  0  0  0  0
    4.6448   -3.4586    0.0000 C   0  0  0  0  0  0  0  0  0  0  0  0
    4.6448   -1.1562    0.0000 C   0  0  0  0  0  0  0  0  0  0  0  0
    8.6416   -1.1562    0.0000 C   0  0  0  0  0  0  0  0  0  0  0  0
    3.9869   -2.3024    0.0000 C   0  0  0  0  0  0  0  0  0  0  0  0
    7.9838    0.0000    0.0000 C   0  0  0  0  0  0  0  0  0  0  0  0
    9.9673   -1.1562    0.0000 O   0  0  0  0  0  0  0  0  0  0  0  0
    2.6613   -2.3024    0.0000 C   0  0  0  0  0  0  0  0  0  0  0  0
    1.9835   -3.4586    0.0000 C   0  0  0  0  0  0  0  0  0  0  0  0
    0.6578   -3.4586    0.0000 C   0  0  0  0  0  0  0  0  0  0  0  0
    0.0000   -4.6149    0.0000 C   0  0  0  0  0  0  0  0  0  0  0  0
    0.0000   -2.3024    0.0000 O   0  0  0  0  0  0  0  0  0  0  0  0
  1  2  1  0  0  0  0
  1  3  2  0  0  0  0
  1  4  1  0  0  0  0
  2  5  2  0  0  0  0
  3  6  1  0  0  0  0
  4  7  1  0  0  0  0
  5  8  1  0  0  0  0
  6  8  2  0  0  0  0
  7  9  1  0  0  0  0
  7 10  2  0  0  0  0
  8 11  1  0  0  0  0
 11 12  1  0  0  0  0
 12 13  1  0  0  0  0
 13 14  1  0  0  0  0
 13 15  2  0  0  0  0
M  END
> <ID>
7034

> <Formula>
C12H14O3

> <FW>
206.2378

> <DSSTox_CID>
15481

> <DSSTox_RID>
79259

> <DSSTox_GSID>
35481

> <DSSTox_FileID_Sort>
3941

> <TS_ChemName>
4-(4-(Acetyloxy)phenyl)-2-butanone

> <TS_ChemName_Synonyms>
4-(4-(Acetyloxy)phenyl)-2-butanone (2-Butanone, 4-(4-(acetyloxy)phenyl)-, acetate)

> <TS_CASRN>
3572-06-3

> <CASRN_ChemName_Relationship>
primary

> <TS_Description>
single chemical compound

> <ChemNote>


> <STRUCTURE_Shown>
tested chemical

> <STRUCTURE_Formula>
C12H14O3

> <STRUCTURE_MW>
206.2378

> <STRUCTURE_ChemType>
defined organic

> <STRUCTURE_DefinedOrganicForm>
parent

> <STRUCTURE_IUPAC>
4-(3-oxobutyl)phenyl acetate

> <STRUCTURE_SMILES>
O=C(C)Oc1ccc(cc1)CCC(C)=O

> <STRUCTURE_SMILES_Desalt>
O=C(C)Oc1ccc(cc1)CCC(C)=O

> <Substance_modify_yyyymmdd>
20080429

$$$$
