35834-26-5
ChemmineR-0915142007XD

 41 43  0  0  1  0  0  0  0  0  1 V2000
    6.9042   -1.9768    0.0000 C   0  0  0  0  0  0  0  0  0  0  0  0
    6.9042   -3.3285    0.0000 C   0  0  0  0  0  0  0  0  0  0  0  0
    5.7559   -1.3227    0.0000 C   0  0  0  0  0  0  0  0  0  0  0  0
    4.6076   -1.9768    0.0000 C   0  0  0  0  0  0  0  0  0  0  0  0
    4.6076   -3.3285    0.0000 C   0  0  0  0  0  0  0  0  0  0  0  0
    8.0670   -1.3227    0.0000 C   0  0  0  0  0  0  0  0  0  0  0  0
    9.2152   -2.0058    0.0000 C   0  0  0  0  0  0  0  0  0  0  0  0
    8.0670   -3.9971    0.0000 C   0  0  0  0  0  0  0  0  0  0  0  0
    9.2152   -3.3285    0.0000 C   0  0  0  0  0  0  0  0  0  0  0  0
    3.4448   -3.9971    0.0000 C   0  0  0  0  0  0  0  0  0  0  0  0
    3.4448   -5.3198    0.0000 C   0  0  0  0  0  0  0  0  0  0  0  0
    8.0670   -5.3198    0.0000 C   0  0  0  0  0  0  0  0  0  0  0  0
    6.9042   -6.0030    0.0000 C   0  0  0  0  0  0  0  0  0  0  0  0
    9.2152   -5.9739    0.0000 O   0  0  0  0  0  0  0  0  0  0  0  0
    4.5931   -7.3111    0.0000 C   0  0  0  0  0  0  0  0  0  0  0  0
    3.4448   -7.9797    0.0000 O   0  0  0  0  0  0  0  0  0  0  0  0
    2.3111   -5.9739    0.0000 C   0  0  0  0  0  0  0  0  0  0  0  0
    2.3111   -7.3111    0.0000 C   0  0  0  0  0  0  0  0  0  0  0  0
    6.9042   -7.3111    0.0000 C   0  0  0  0  0  0  0  0  0  0  0  0
    5.7559   -7.9797    0.0000 C   0  0  0  0  0  0  0  0  0  0  0  0
    5.7559    0.0000    0.0000 O   0  0  0  0  0  0  0  0  0  0  0  0
   10.3780   -1.3227    0.0000 O   0  0  0  0  0  0  0  0  0  0  0  0
    2.3111   -4.6512    0.0000 O   0  0  0  0  0  0  0  0  0  0  0  0
    2.2820   -3.3285    0.0000 C   0  0  0  0  0  0  0  0  0  0  0  0
    1.1483   -5.3198    0.0000 C   0  0  0  0  0  0  0  0  0  0  0  0
    1.1483   -7.9797    0.0000 C   0  0  0  0  0  0  0  0  0  0  0  0
    0.0000   -7.3111    0.0000 C   0  0  0  0  0  0  0  0  0  0  0  0
    8.0670   -7.9797    0.0000 O   0  0  0  0  0  0  0  0  0  0  0  0
    4.5931   -5.9739    0.0000 O   0  0  0  0  0  0  0  0  0  0  0  0
    5.7559   -5.3198    0.0000 C   0  0  0  0  0  0  0  0  0  0  0  0
   10.5379   -5.9739    0.0000 C   0  0  0  0  0  0  0  0  0  0  0  0
   11.2211   -4.8402    0.0000 C   0  0  0  0  0  0  0  0  0  0  0  0
   11.2211   -7.1367    0.0000 O   0  0  0  0  0  0  0  0  0  0  0  0
   12.5438   -4.8402    0.0000 C   0  0  0  0  0  0  0  0  0  0  0  0
   12.5438   -7.1367    0.0000 C   0  0  0  0  0  0  0  0  0  0  0  0
   13.1978   -5.9739    0.0000 C   0  0  0  0  0  0  0  0  0  0  0  0
   10.5379   -3.6919    0.0000 O   0  0  0  0  0  0  0  0  0  0  0  0
   13.1978   -3.6919    0.0000 N   0  0  0  0  0  0  0  0  0  0  0  0
   13.1978   -8.2850    0.0000 C   0  0  0  0  0  0  0  0  0  0  0  0
   14.5351   -3.6919    0.0000 C   0  0  0  0  0  0  0  0  0  0  0  0
   12.5438   -2.5291    0.0000 C   0  0  0  0  0  0  0  0  0  0  0  0
  1  3  1  0  0  0  0
  1  6  1  6  0  0  0
  1  2  1  0  0  0  0
  2  8  1  0  0  0  0
  3  4  1  0  0  0  0
  3 21  2  0  0  0  0
  4  5  2  0  0  0  0
  5 10  1  0  0  0  0
  7  9  1  0  0  0  0
  7 22  2  0  0  0  0
  8 12  1  0  0  0  0
  8  9  1  6  0  0  0
 10 23  1  0  0  0  0
 10 11  1  0  0  0  0
 10 24  1  6  0  0  0
 11 17  1  0  0  0  0
 11 23  1  0  0  0  0
 12 13  1  0  0  0  0
 12 14  1  6  0  0  0
 13 19  1  0  0  0  0
 13 30  1  6  0  0  0
 31 14  1  1  0  0  0
 15 16  1  0  0  0  0
 15 20  1  0  0  0  0
 15 29  2  0  0  0  0
 16 18  1  0  0  0  0
 17 18  1  0  0  0  0
 17 25  1  0  0  0  0
 18 26  1  0  0  0  0
 19 20  1  0  0  0  0
 19 28  1  6  0  0  0
 26 27  1  0  0  0  0
 31 32  1  0  0  0  0
 31 33  1  0  0  0  0
 32 34  1  0  0  0  0
 32 37  1  6  0  0  0
 33 35  1  0  0  0  0
 34 36  1  0  0  0  0
 34 38  1  1  0  0  0
 35 36  1  0  0  0  0
 35 39  1  1  0  0  0
 38 40  1  0  0  0  0
 38 41  1  0  0  0  0
M  END
> <ID>
11629

> <Formula>
C31H51NO9

> <FW>
581.7379

> <DSSTox_CID>
26361

> <DSSTox_RID>
81562

> <DSSTox_GSID>
46361

> <DSSTox_FileID_Sort>
6243

> <TS_ChemName>
Rosaramicin

> <TS_ChemName_Synonyms>


> <TS_CASRN>
35834-26-5

> <CASRN_ChemName_Relationship>
primary

> <TS_Description>
single chemical compound

> <ChemNote>
stereochem

> <STRUCTURE_Shown>
tested chemical

> <STRUCTURE_Formula>
C31H51NO9

> <STRUCTURE_MW>
581.7379

> <STRUCTURE_ChemType>
defined organic

> <STRUCTURE_DefinedOrganicForm>
parent

> <STRUCTURE_IUPAC>
(7R,8S,9S,10R,12R,14E,16S)-3-ethyl-7-hydroxy-2,8,12,16-tetramethyl-5,13-dioxo-10-(2-oxoethyl)-4,17-dioxabicyclo[14.1.0]heptadec-14-en-9-yl 3,4,6-trideoxy-3-(dimethylamino)-beta-D-xylo-hexopyranoside

> <STRUCTURE_SMILES>
CN(C)[C@H]3C[C@@H](C)O[C@@H](O[C@@H]1[C@@H](C)[C@H](O)CC(=O)OC(CC)C(C)C2O[C@@]2(C)C=CC(=O)[C@H](C)C[C@@H]1CC=O)[C@@H]3O

> <STRUCTURE_SMILES_Desalt>
CN(C)[C@H]3C[C@@H](C)O[C@@H](O[C@@H]1[C@@H](C)[C@H](O)CC(=O)OC(CC)C(C)C2O[C@@]2(C)C=CC(=O)[C@H](C)C[C@@H]1CC=O)[C@@H]3O

> <Substance_modify_yyyymmdd>
20110814

$$$$
