35898-87-4
ChemmineR-0915142007XD

 43 45  0  0  0  0  0  0  0  0  1 V2000
    3.4640   -0.7672    0.0000 C   0  0  0  0  0  0  0  0  0  0  0  0
    2.3016   -1.4414    0.0000 O   0  0  0  0  0  0  0  0  0  0  0  0
    2.3016   -2.7666    0.0000 C   0  0  0  0  0  0  0  0  0  0  0  0
    3.4640   -3.4408    0.0000 C   0  0  0  0  0  0  0  0  0  0  0  0
    3.4640   -4.7659    0.0000 C   0  0  0  0  0  0  0  0  0  0  0  0
    2.3016   -5.4401    0.0000 C   0  0  0  0  0  0  0  0  0  0  0  0
    1.1624   -4.7659    0.0000 C   0  0  0  0  0  0  0  0  0  0  0  0
    1.1624   -3.4408    0.0000 C   0  0  0  0  0  0  0  0  0  0  0  0
    0.0000   -2.7666    0.0000 O   0  0  0  0  0  0  0  0  0  0  0  0
    0.0000   -1.4414    0.0000 C   0  0  0  0  0  0  0  0  0  0  0  0
    0.0000   -5.4401    0.0000 O   0  0  0  0  0  0  0  0  0  0  0  0
    0.0000   -6.7653    0.0000 C   0  0  0  0  0  0  0  0  0  0  0  0
    4.6032   -5.4401    0.0000 C   0  0  0  0  0  0  0  0  0  0  0  0
    4.6032   -6.7653    0.0000 O   0  0  0  0  0  0  0  0  0  0  0  0
    5.7656   -4.7659    0.0000 O   0  0  0  0  0  0  0  0  0  0  0  0
    6.9048   -5.4401    0.0000 C   0  0  0  0  0  0  0  0  0  0  0  0
    8.0672   -4.7659    0.0000 C   0  0  0  0  0  0  0  0  0  0  0  0
    9.2064   -5.4401    0.0000 C   0  0  0  0  0  0  0  0  0  0  0  0
   10.3688   -4.7659    0.0000 N   0  0  0  0  0  0  0  0  0  0  0  0
   10.2758   -3.4640    0.0000 C   0  0  0  0  0  0  0  0  0  0  0  0
   11.2290   -2.5108    0.0000 C   0  0  0  0  0  0  0  0  0  0  0  0
   12.5541   -2.7433    0.0000 C   0  0  0  0  0  0  0  0  0  0  0  0
   13.2283   -3.8825    0.0000 N   0  0  0  0  0  0  0  0  0  0  0  0
   14.5535   -3.7895    0.0000 C   0  0  0  0  0  0  0  0  0  0  0  0
   15.2974   -4.8822    0.0000 C   0  0  0  0  0  0  0  0  0  0  0  0
   16.6226   -4.7892    0.0000 C   0  0  0  0  0  0  0  0  0  0  0  0
   17.3665   -5.8818    0.0000 O   0  0  0  0  0  0  0  0  0  0  0  0
   18.6917   -5.7888    0.0000 C   0  0  0  0  0  0  0  0  0  0  0  0
   19.4356   -6.8815    0.0000 O   0  0  0  0  0  0  0  0  0  0  0  0
   19.2729   -4.5799    0.0000 C   0  0  0  0  0  0  0  0  0  0  0  0
   18.5289   -3.4873    0.0000 C   0  0  0  0  0  0  0  0  0  0  0  0
   19.1102   -2.2783    0.0000 C   0  0  0  0  0  0  0  0  0  0  0  0
   20.4353   -2.1853    0.0000 C   0  0  0  0  0  0  0  0  0  0  0  0
   20.9933   -0.9997    0.0000 O   0  0  0  0  0  0  0  0  0  0  0  0
   22.3184   -0.8834    0.0000 C   0  0  0  0  0  0  0  0  0  0  0  0
   21.1793   -3.2780    0.0000 C   0  0  0  0  0  0  0  0  0  0  0  0
   20.5981   -4.4869    0.0000 C   0  0  0  0  0  0  0  0  0  0  0  0
   22.5044   -3.1850    0.0000 O   0  0  0  0  0  0  0  0  0  0  0  0
   23.2484   -4.2777    0.0000 C   0  0  0  0  0  0  0  0  0  0  0  0
   18.3430   -1.1857    0.0000 O   0  0  0  0  0  0  0  0  0  0  0  0
   18.9242    0.0000    0.0000 C   0  0  0  0  0  0  0  0  0  0  0  0
   12.7401   -5.1146    0.0000 C   0  0  0  0  0  0  0  0  0  0  0  0
   11.4614   -5.5099    0.0000 C   0  0  0  0  0  0  0  0  0  0  0  0
  1  2  1  0  0  0  0
  2  3  1  0  0  0  0
  3  4  2  0  0  0  0
  3  8  1  0  0  0  0
  4  5  1  0  0  0  0
  5  6  2  0  0  0  0
  5 13  1  0  0  0  0
  6  7  1  0  0  0  0
  7  8  2  0  0  0  0
  7 11  1  0  0  0  0
  8  9  1  0  0  0  0
  9 10  1  0  0  0  0
 11 12  1  0  0  0  0
 13 14  2  0  0  0  0
 13 15  1  0  0  0  0
 15 16  1  0  0  0  0
 16 17  1  0  0  0  0
 17 18  1  0  0  0  0
 18 19  1  0  0  0  0
 19 20  1  0  0  0  0
 19 43  1  0  0  0  0
 20 21  1  0  0  0  0
 21 22  1  0  0  0  0
 22 23  1  0  0  0  0
 23 24  1  0  0  0  0
 23 42  1  0  0  0  0
 24 25  1  0  0  0  0
 25 26  1  0  0  0  0
 26 27  1  0  0  0  0
 27 28  1  0  0  0  0
 28 29  2  0  0  0  0
 28 30  1  0  0  0  0
 30 31  2  0  0  0  0
 30 37  1  0  0  0  0
 31 32  1  0  0  0  0
 32 33  2  0  0  0  0
 32 40  1  0  0  0  0
 33 34  1  0  0  0  0
 33 36  1  0  0  0  0
 34 35  1  0  0  0  0
 36 37  2  0  0  0  0
 36 38  1  0  0  0  0
 38 39  1  0  0  0  0
 40 41  1  0  0  0  0
 42 43  1  0  0  0  0
M  END
> <ID>
10939

> <Formula>
C31H44N2O10

> <FW>
604.6885

> <DSSTox_CID>
25425

> <DSSTox_RID>
80871

> <DSSTox_GSID>
45425

> <DSSTox_FileID_Sort>
5552

> <TS_ChemName>
Dilazep

> <TS_ChemName_Synonyms>
Dilazep (3,3'-(1,4-Diazepan-1,4-diyl)dipropyl bis(3,4,5-trimethoxybenzoat))

> <TS_CASRN>
35898-87-4

> <CASRN_ChemName_Relationship>
primary

> <TS_Description>
single chemical compound

> <ChemNote>


> <STRUCTURE_Shown>
tested chemical

> <STRUCTURE_Formula>
C31H44N2O10

> <STRUCTURE_MW>
604.6885

> <STRUCTURE_ChemType>
defined organic

> <STRUCTURE_DefinedOrganicForm>
parent

> <STRUCTURE_IUPAC>
1,4-diazepane-1,4-diyldipropane-3,1-diyl bis(3,4,5-trimethoxybenzoate)

> <STRUCTURE_SMILES>
COc1cc(cc(OC)c1OC)C(=O)OCCCN3CCCN(CCCOC(=O)c2cc(OC)c(OC)c(OC)c2)CC3

> <STRUCTURE_SMILES_Desalt>
COc1cc(cc(OC)c1OC)C(=O)OCCCN3CCCN(CCCOC(=O)c2cc(OC)c(OC)c(OC)c2)CC3

> <Substance_modify_yyyymmdd>
20100107

$$$$
