35891-70-4
ChemmineR-0915142007XD

 28 27  0  0  1  0  0  0  0  0  1 V2000
    1.1407   -1.2776    0.0000 C   0  0  0  0  0  0  0  0  0  0  0  0
    2.2815   -1.9849    0.0000 C   0  0  0  0  0  0  0  0  0  0  0  0
    3.4222   -1.2776    0.0000 C   0  0  0  0  0  0  0  0  0  0  0  0
    4.5629   -1.9849    0.0000 C   0  0  0  0  0  0  0  0  0  0  0  0
    5.7036   -1.2776    0.0000 C   0  0  0  0  0  0  0  0  0  0  0  0
    6.8444   -1.9849    0.0000 C   0  0  0  0  0  0  0  0  0  0  0  0
    7.9851   -1.2776    0.0000 C   0  0  0  0  0  0  0  0  0  0  0  0
    9.1258   -1.9849    0.0000 C   0  0  0  0  0  0  0  0  0  0  0  0
   10.2665   -1.2776    0.0000 C   0  0  0  0  0  0  0  0  0  0  0  0
   11.4073   -1.9849    0.0000 C   0  0  0  0  0  0  0  0  0  0  0  0
   12.5480   -1.2776    0.0000 C   0  0  0  0  0  0  0  0  0  0  0  0
   13.6887   -1.9849    0.0000 C   0  0  0  0  0  0  0  0  0  0  0  0
   14.8295   -1.2776    0.0000 C   0  0  0  0  0  0  0  0  0  0  0  0
   15.9702   -1.9849    0.0000 C   0  0  0  0  0  0  0  0  0  0  0  0
   17.1109   -1.2776    0.0000 C   0  0  0  0  0  0  0  0  0  0  0  0
   18.2516   -1.9849    0.0000 C   0  0  0  0  0  0  0  0  0  0  0  0
   19.3924   -1.2776    0.0000 C   0  0  0  0  0  0  0  0  0  0  0  0
   20.5331   -1.9849    0.0000 C   0  0  0  0  0  0  0  0  0  0  0  0
   21.6738   -1.2776    0.0000 C   0  0  0  0  0  0  0  0  0  0  0  0
   22.8146   -1.9849    0.0000 C   0  0  0  0  0  0  0  0  0  0  0  0
    1.1407    0.0000    0.0000 O   0  0  0  0  0  0  0  0  0  0  0  0
    0.0000   -1.9849    0.0000 O   0  0  0  0  0  0  0  0  0  0  0  0
    2.2815   -3.2853    0.0000 N   0  0  0  0  0  0  0  0  0  0  0  0
    3.4222    0.0000    0.0000 O   0  0  0  0  0  0  0  0  0  0  0  0
    4.5629   -3.2853    0.0000 O   0  0  0  0  0  0  0  0  0  0  0  0
    1.1407   -2.6693    0.0000 C   0  0  0  0  0  0  0  0  0  0  0  0
    1.0723   -3.9469    0.0000 O   0  0  0  0  0  0  0  0  0  0  0  0
   15.9702   -3.2853    0.0000 O   0  0  0  0  0  0  0  0  0  0  0  0
  1  2  1  0  0  0  0
  1 22  1  0  0  0  0
  1 21  2  0  0  0  0
  2  3  1  0  0  0  0
  2 23  1  0  0  0  0
  2 26  1  1  0  0  0
  3  4  1  0  0  0  0
  3 24  1  1  0  0  0
  4  5  1  0  0  0  0
  4 25  1  1  0  0  0
  5  6  1  0  0  0  0
  6  7  2  0  0  0  0
  7  8  1  0  0  0  0
  8  9  1  0  0  0  0
  9 10  1  0  0  0  0
 10 11  1  0  0  0  0
 11 12  1  0  0  0  0
 12 13  1  0  0  0  0
 13 14  1  0  0  0  0
 14 15  1  0  0  0  0
 14 28  2  0  0  0  0
 15 16  1  0  0  0  0
 16 17  1  0  0  0  0
 17 18  1  0  0  0  0
 18 19  1  0  0  0  0
 19 20  1  0  0  0  0
 26 27  1  0  0  0  0
M  END
> <ID>
11628

> <Formula>
C21H39NO6

> <FW>
401.5375

> <DSSTox_CID>
26360

> <DSSTox_RID>
81561

> <DSSTox_GSID>
46360

> <DSSTox_FileID_Sort>
6242

> <TS_ChemName>
Myriocin

> <TS_ChemName_Synonyms>


> <TS_CASRN>
35891-70-4

> <CASRN_ChemName_Relationship>
primary

> <TS_Description>
single chemical compound

> <ChemNote>
stereochem

> <STRUCTURE_Shown>
tested chemical

> <STRUCTURE_Formula>
C21H39NO6

> <STRUCTURE_MW>
401.5375

> <STRUCTURE_ChemType>
defined organic

> <STRUCTURE_DefinedOrganicForm>
parent

> <STRUCTURE_IUPAC>
(2S,3R,4R,6E)-2-amino-3,4-dihydroxy-2-(hydroxymethyl)-14-oxoicos-6-enoic acid

> <STRUCTURE_SMILES>
O[C@@H]([C@H](O)C\C=C\CCCCCCC(=O)CCCCCC)[C@@](N)(CO)C(=O)O

> <STRUCTURE_SMILES_Desalt>
O[C@@H]([C@H](O)C\C=C\CCCCCCC(=O)CCCCCC)[C@@](N)(CO)C(=O)O

> <Substance_modify_yyyymmdd>
20110814

$$$$
