35891-93-1
ChemmineR-0915142007XD

 15 14  0  0  0  0  0  0  0  0  1 V2000
    3.4454   -2.6567    0.0000 N    0  0  0  0  0  0  0  0  0  0  0  0
    4.6008   -1.9994    0.0000 C    0  0  0  0  0  0  0  0  0  0  0  0
    2.3039   -1.9994    0.0000 C    0  0  0  0  0  0  0  0  0  0  0  0
    4.6008   -0.6642    0.0000 O    0  0  0  0  0  0  0  0  0  0  0  0
    2.3039   -0.6642    0.0000 C    0  0  0  0  0  0  0  0  0  0  0  0
    1.1416   -2.6567    0.0000 C    0  0  0  0  0  0  0  0  0  0  0  0
    5.7631   -2.6567    0.0000 C    0  0  0  0  0  0  0  0  0  0  0  0
    5.7631   -3.9920    0.0000 N    0  0  0  0  0  0  0  0  0  0  0  0
    0.0000   -0.6642    0.0000 C    0  0  0  0  0  0  0  0  0  0  0  0
    0.0000   -1.9994    0.0000 C    0  0  0  0  0  0  0  0  0  0  0  0
    1.1416    0.0000    0.0000 C    0  0  0  0  0  0  0  0  0  0  0  0
    3.4454    0.0000    0.0000 C    0  0  0  0  0  0  0  0  0  0  0  0
    1.1416   -3.9920    0.0000 C    0  0  0  0  0  0  0  0  0  0  0  0
    6.9185   -1.9994    0.0000 C    0  0  0  0  0  0  0  0  0  0  0  0
    6.3097   -0.4359    0.0000 Cl   0  0  0  0  0  0  0  0  0  0  0  0
  1  2  1  0  0  0  0
  1  3  1  0  0  0  0
  2  4  2  0  0  0  0
  2  7  1  0  0  0  0
  3  5  1  0  0  0  0
  3  6  2  0  0  0  0
  5 11  2  0  0  0  0
  5 12  1  0  0  0  0
  6 10  1  0  0  0  0
  6 13  1  0  0  0  0
  7  8  1  0  0  0  0
  7 14  1  0  0  0  0
  9 10  2  0  0  0  0
  9 11  1  0  0  0  0
M  END
> <ID>
11010

> <Formula>
C11H17ClN2O

> <FW>
228.7185 (192.2575+36.4609)

> <DSSTox_CID>
25540

> <DSSTox_RID>
80942

> <DSSTox_GSID>
45540

> <DSSTox_FileID_Sort>
5623

> <TS_ChemName>
Tocainide hydrochloride

> <TS_ChemName_Synonyms>


> <TS_CASRN>
35891-93-1

> <CASRN_ChemName_Relationship>
primary

> <TS_Description>
single chemical compound

> <ChemNote>
parent [41708-72-9]

> <STRUCTURE_Shown>
tested chemical

> <STRUCTURE_Formula>
C11H17ClN2O

> <STRUCTURE_MW>
228.7185

> <STRUCTURE_ChemType>
defined organic

> <STRUCTURE_DefinedOrganicForm>
complex

> <STRUCTURE_IUPAC>
N-(2,6-dimethylphenyl)alaninamide hydrochloride (1:1)

> <STRUCTURE_SMILES>
Cl.O=C(Nc1c(C)cccc1C)C(C)N

> <STRUCTURE_SMILES_Desalt>
O=C(Nc1c(C)cccc1C)C(C)N

> <Substance_modify_yyyymmdd>
20100107

$$$$
