35941-71-0
ChemmineR-0915142007XD

 24 25  0  0  0  0  0  0  0  0  1 V2000
    5.6434   -1.9417    0.0000 N    0  0  0  0  0  0  0  0  0  0  0  0
    5.6434   -0.6551    0.0000 C    0  0  0  0  0  0  0  0  0  0  0  0
    4.5226   -0.0158    0.0000 S    0  0  0  0  0  0  0  0  0  0  0  0
    3.4018   -1.9417    0.0000 C    0  0  0  0  0  0  0  0  0  0  0  0
    6.7405   -3.8517    0.0000 C    0  0  0  0  0  0  0  0  0  0  0  0
    6.7405   -2.5810    0.0000 C    0  0  0  0  0  0  0  0  0  0  0  0
    3.4018   -0.6551    0.0000 C    0  0  0  0  0  0  0  0  0  0  0  0
    5.6276   -4.5068    0.0000 N    0  0  0  0  0  0  0  0  0  0  0  0
    2.2968   -2.5968    0.0000 C    0  0  0  0  0  0  0  0  0  0  0  0
    3.4018   -5.8092    0.0000 N    0  0  0  0  0  0  0  0  0  0  0  0
    6.7721    0.0000    0.0000 O    0  0  0  0  0  0  0  0  0  0  0  0
    7.8929   -4.5068    0.0000 O    0  0  0  0  0  0  0  0  0  0  0  0
    5.6276   -5.8092    0.0000 C    0  0  0  0  0  0  0  0  0  0  0  0
    4.5226   -3.8675    0.0000 C    0  0  0  0  0  0  0  0  0  0  0  0
    2.2968   -0.0158    0.0000 C    0  0  0  0  0  0  0  0  0  0  0  0
    1.1839   -1.9417    0.0000 C    0  0  0  0  0  0  0  0  0  0  0  0
    4.5226   -6.4485    0.0000 C    0  0  0  0  0  0  0  0  0  0  0  0
    3.4018   -4.5226    0.0000 C    0  0  0  0  0  0  0  0  0  0  0  0
    1.1839   -0.6709    0.0000 C    0  0  0  0  0  0  0  0  0  0  0  0
    0.0316   -2.5810    0.0000 Cl   0  0  0  0  0  0  0  0  0  0  0  0
    2.2495   -6.4643    0.0000 C    0  0  0  0  0  0  0  0  0  0  0  0
    0.0000   -6.4327    0.0000 O    0  0  0  0  0  0  0  0  0  0  0  0
    1.1208   -5.7934    0.0000 C    0  0  0  0  0  0  0  0  0  0  0  0
    3.5439   -7.8298    0.0000 Cl   0  0  0  0  0  0  0  0  0  0  0  0
  1  2  1  0  0  0  0
  1  4  1  0  0  0  0
  1  6  1  0  0  0  0
  2  3  1  0  0  0  0
  2 11  2  0  0  0  0
  3  7  1  0  0  0  0
  4  7  2  0  0  0  0
  4  9  1  0  0  0  0
  5  6  1  0  0  0  0
  5  8  1  0  0  0  0
  5 12  2  0  0  0  0
  7 15  1  0  0  0  0
  8 13  1  0  0  0  0
  8 14  1  0  0  0  0
  9 16  2  0  0  0  0
 10 18  1  0  0  0  0
 10 21  1  0  0  0  0
 10 17  1  0  0  0  0
 13 17  1  0  0  0  0
 14 18  1  0  0  0  0
 15 19  2  0  0  0  0
 16 19  1  0  0  0  0
 16 20  1  0  0  0  0
 21 23  1  0  0  0  0
 22 23  1  0  0  0  0
M  END
> <ID>
13747

> <Formula>
C15H19Cl2N3O3S

> <FW>
392.3007 (355.8397+36.4609)

> <DSSTox_CID>
28683

> <DSSTox_RID>
82953

> <DSSTox_GSID>
48757

> <DSSTox_FileID_Sort>
7630

> <TS_ChemName>
Tiaramide hydrochloride

> <TS_ChemName_Synonyms>


> <TS_CASRN>
35941-71-0

> <CASRN_ChemName_Relationship>
primary

> <TS_Description>
single chemical compound

> <ChemNote>


> <STRUCTURE_Shown>
tested chemical

> <STRUCTURE_Formula>
C15H19Cl2N3O3S

> <STRUCTURE_MW>
392.3007

> <STRUCTURE_ChemType>
defined organic

> <STRUCTURE_DefinedOrganicForm>
complex

> <STRUCTURE_IUPAC>
5-chloro-3-{2-[4-(2-hydroxyethyl)piperazin-1-yl]-2-oxoethyl}-1,3-benzothiazol-2(3H)-one hydrochloride (1:1)

> <STRUCTURE_SMILES>
Cl.OCCN1CCN(CC1)C(=O)CN2c3cc(Cl)ccc3SC2=O

> <STRUCTURE_SMILES_Desalt>
OCCN1CCN(CC1)C(=O)CN2c3cc(Cl)ccc3SC2=O

> <Substance_modify_yyyymmdd>
20111204

$$$$
