35943-35-2
ChemmineR-0915142007XD

 23 26  0  0  1  0  0  0  0  0  1 V2000
    3.5004   -2.4321    0.0000 C   0  0  0  0  0  0  0  0  0  0  0  0
    3.5004   -3.6394    0.0000 C   0  0  0  0  0  0  0  0  0  0  0  0
    4.5427   -1.8240    0.0000 C   0  0  0  0  0  0  0  0  0  0  0  0
    2.4494   -1.8240    0.0000 C   0  0  0  0  0  0  0  0  0  0  0  0
    4.6643   -3.9521    0.0000 N   0  0  0  0  0  0  0  0  0  0  0  0
    2.4494   -4.2561    0.0000 N   0  0  0  0  0  0  0  0  0  0  0  0
    5.4026   -2.6666    0.0000 C   0  0  0  0  0  0  0  0  0  0  0  0
    4.5427   -0.5993    0.0000 C   0  0  0  0  0  0  0  0  0  0  0  0
    2.4494   -0.5993    0.0000 N   0  0  0  0  0  0  0  0  0  0  0  0
    1.3811   -2.4321    0.0000 N   0  0  0  0  0  0  0  0  0  0  0  0
    1.3811   -3.6394    0.0000 C   0  0  0  0  0  0  0  0  0  0  0  0
    3.5004    0.0000    0.0000 N   0  0  0  0  0  0  0  0  0  0  0  0
    5.5937    0.0000    0.0000 N   0  0  0  0  0  0  0  0  0  0  0  0
    1.3811    0.0000    0.0000 C   0  0  0  0  0  0  0  0  0  0  0  0
    4.6383   -6.2191    0.0000 C   0  0  0  0  0  0  0  0  0  0  0  0
    3.5004   -5.4026    0.0000 O   0  0  0  0  0  0  0  0  0  0  0  0
    4.1953   -7.5481    0.0000 C   0  0  0  0  0  0  0  0  0  0  0  0
    2.3713   -6.2191    0.0000 C   0  0  0  0  0  0  0  0  0  0  0  0
    2.7969   -7.5481    0.0000 C   0  0  0  0  0  0  0  0  0  0  0  0
    5.0291   -8.6859    0.0000 O   0  0  0  0  0  0  0  0  0  0  0  0
    1.0336   -5.7848    0.0000 C   0  0  0  0  0  0  0  0  0  0  0  0
    1.9804   -8.6859    0.0000 O   0  0  0  0  0  0  0  0  0  0  0  0
    0.0000   -6.7316    0.0000 O   0  0  0  0  0  0  0  0  0  0  0  0
  1  2  2  0  0  0  0
  1  3  1  0  0  0  0
  1  4  1  0  0  0  0
  2  5  1  0  0  0  0
  2  6  1  0  0  0  0
  3  7  2  0  0  0  0
  3  8  1  0  0  0  0
  4  9  1  0  0  0  0
  4 10  2  0  0  0  0
  5  7  1  0  0  0  0
 15  5  1  1  0  0  0
  6 11  2  0  0  0  0
  8 12  2  0  0  0  0
  8 13  1  0  0  0  0
  9 14  1  0  0  0  0
  9 12  1  0  0  0  0
 10 11  1  0  0  0  0
 15 16  1  0  0  0  0
 15 17  1  0  0  0  0
 16 18  1  0  0  0  0
 17 19  1  0  0  0  0
 17 20  1  6  0  0  0
 18 21  1  1  0  0  0
 18 19  1  0  0  0  0
 19 22  1  6  0  0  0
 21 23  1  0  0  0  0
M  END
> <ID>
11156

> <Formula>
C13H16N6O4

> <FW>
320.3039

> <DSSTox_CID>
25743

> <DSSTox_RID>
81088

> <DSSTox_GSID>
45743

> <DSSTox_FileID_Sort>
5769

> <TS_ChemName>
Tricirbine

> <TS_ChemName_Synonyms>


> <TS_CASRN>
35943-35-2

> <CASRN_ChemName_Relationship>
primary

> <TS_Description>
single chemical compound

> <ChemNote>
stereochem; tautomers

> <STRUCTURE_Shown>
tested chemical

> <STRUCTURE_Formula>
C13H16N6O4

> <STRUCTURE_MW>
320.3039

> <STRUCTURE_ChemType>
defined organic

> <STRUCTURE_DefinedOrganicForm>
parent

> <STRUCTURE_IUPAC>
5-methyl-1-(beta-D-ribofuranosyl)-1,5-dihydro-1,4,5,6,8-pentaazaacenaphthylen-3-amine

> <STRUCTURE_SMILES>
CN4N=C(N)c2cn([C@@H]1O[C@H](CO)[C@@H](O)[C@H]1O)c3ncnc4c23

> <STRUCTURE_SMILES_Desalt>
CN4N=C(N)c2cn([C@@H]1O[C@H](CO)[C@@H](O)[C@H]1O)c3ncnc4c23

> <Substance_modify_yyyymmdd>
20110826

$$$$
