35941-65-2
ChemmineR-0915142007XD

 22 24  0  0  0  0  0  0  0  0  1 V2000
    5.3798   -3.5655    0.0000 C   0  0  0  0  0  0  0  0  0  0  0  0
    4.4320   -4.5043    0.0000 C   0  0  0  0  0  0  0  0  0  0  0  0
    3.1683   -4.1703    0.0000 C   0  0  0  0  0  0  0  0  0  0  0  0
    2.8253   -2.8885    0.0000 C   0  0  0  0  0  0  0  0  0  0  0  0
    2.2296   -5.1181    0.0000 C   0  0  0  0  0  0  0  0  0  0  0  0
    0.9388   -4.7751    0.0000 N   0  0  0  0  0  0  0  0  0  0  0  0
    0.0000   -5.7138    0.0000 C   0  0  0  0  0  0  0  0  0  0  0  0
    0.5958   -3.4843    0.0000 C   0  0  0  0  0  0  0  0  0  0  0  0
    6.6255   -3.9356    0.0000 C   0  0  0  0  0  0  0  0  0  0  0  0
    7.7267   -3.1864    0.0000 C   0  0  0  0  0  0  0  0  0  0  0  0
    7.8080   -1.8775    0.0000 C   0  0  0  0  0  0  0  0  0  0  0  0
    6.8692   -0.9388    0.0000 C   0  0  0  0  0  0  0  0  0  0  0  0
    5.5333   -1.1554    0.0000 C   0  0  0  0  0  0  0  0  0  0  0  0
    4.8743   -2.3018    0.0000 C   0  0  0  0  0  0  0  0  0  0  0  0
    3.5384   -2.3018    0.0000 C   0  0  0  0  0  0  0  0  0  0  0  0
    2.8795   -1.1554    0.0000 C   0  0  0  0  0  0  0  0  0  0  0  0
    3.5384    0.0000    0.0000 C   0  0  0  0  0  0  0  0  0  0  0  0
    4.8743    0.0000    0.0000 C   0  0  0  0  0  0  0  0  0  0  0  0
    8.9273   -3.7641    0.0000 C   0  0  0  0  0  0  0  0  0  0  0  0
    9.0266   -5.0910    0.0000 C   0  0  0  0  0  0  0  0  0  0  0  0
    7.9253   -5.8402    0.0000 C   0  0  0  0  0  0  0  0  0  0  0  0
    6.7248   -5.2625    0.0000 C   0  0  0  0  0  0  0  0  0  0  0  0
  1  2  1  0  0  0  0
  1  9  1  0  0  0  0
  1 14  1  0  0  0  0
  2  3  1  0  0  0  0
  3  4  1  0  0  0  0
  3  5  1  0  0  0  0
  5  6  1  0  0  0  0
  6  7  1  0  0  0  0
  6  8  1  0  0  0  0
  9 10  2  0  0  0  0
  9 22  1  0  0  0  0
 10 11  1  0  0  0  0
 10 19  1  0  0  0  0
 11 12  1  0  0  0  0
 12 13  1  0  0  0  0
 13 14  2  0  0  0  0
 13 18  1  0  0  0  0
 14 15  1  0  0  0  0
 15 16  2  0  0  0  0
 16 17  1  0  0  0  0
 17 18  2  0  0  0  0
 19 20  2  0  0  0  0
 20 21  1  0  0  0  0
 21 22  2  0  0  0  0
M  END
> <ID>
2457

> <Formula>
C21H27N

> <FW>
293.4458

> <DSSTox_CID>
2715

> <DSSTox_RID>
97541

> <DSSTox_GSID>
22715

> <DSSTox_FileID_Sort>
8315

> <TS_ChemName>
Butriptyline

> <TS_ChemName_Synonyms>


> <TS_CASRN>
35941-65-2

> <CASRN_ChemName_Relationship>
primary

> <TS_Description>
single chemical compound

> <ChemNote>


> <STRUCTURE_Shown>
tested chemical

> <STRUCTURE_Formula>
C21H27N

> <STRUCTURE_MW>
293.4458

> <STRUCTURE_ChemType>
defined organic

> <STRUCTURE_DefinedOrganicForm>
parent

> <STRUCTURE_IUPAC>
3-(10,11-dihydro-5H-dibenzo[a,d][7]annulen-5-yl)-N,N,2-trimethylpropan-1-amine

> <STRUCTURE_SMILES>
CN(C)CC(C)CC2c3ccccc3CCc1ccccc12

> <STRUCTURE_SMILES_Desalt>
CN(C)CC(C)CC2c3ccccc3CCc1ccccc12

> <Substance_modify_yyyymmdd>
20080429

$$$$
