3598-37-6
ChemmineR-0915142007XD

 31 32  0  0  0  0  0  0  0  0  1 V2000
    3.4537   -5.3156    0.0000 N   0  0  0  0  0  0  0  0  0  0  0  0
    4.5921   -5.9716    0.0000 C   0  0  0  0  0  0  0  0  0  0  0  0
    3.4537   -7.9686    0.0000 S   0  0  0  0  0  0  0  0  0  0  0  0
    4.5921   -7.2933    0.0000 C   0  0  0  0  0  0  0  0  0  0  0  0
    2.3057   -5.9716    0.0000 C   0  0  0  0  0  0  0  0  0  0  0  0
    2.3057   -7.2933    0.0000 C   0  0  0  0  0  0  0  0  0  0  0  0
    5.7401   -5.3156    0.0000 C   0  0  0  0  0  0  0  0  0  0  0  0
    6.8978   -5.9716    0.0000 C   0  0  0  0  0  0  0  0  0  0  0  0
    8.0651   -5.3156    0.0000 C   0  0  0  0  0  0  0  0  0  0  0  0
    5.7401   -7.9686    0.0000 C   0  0  0  0  0  0  0  0  0  0  0  0
    6.8978   -7.2933    0.0000 C   0  0  0  0  0  0  0  0  0  0  0  0
    9.2131   -5.9716    0.0000 O   0  0  0  0  0  0  0  0  0  0  0  0
    3.4537   -4.0036    0.0000 C   0  0  0  0  0  0  0  0  0  0  0  0
    2.3153   -3.3283    0.0000 C   0  0  0  0  0  0  0  0  0  0  0  0
    1.1673   -1.3313    0.0000 N   0  0  0  0  0  0  0  0  0  0  0  0
    1.1480   -5.3156    0.0000 C   0  0  0  0  0  0  0  0  0  0  0  0
    1.1480   -7.9686    0.0000 C   0  0  0  0  0  0  0  0  0  0  0  0
    2.3153   -1.9970    0.0000 C   0  0  0  0  0  0  0  0  0  0  0  0
    8.0747   -3.9650    0.0000 C   0  0  0  0  0  0  0  0  0  0  0  0
    0.0193   -1.9970    0.0000 C   0  0  0  0  0  0  0  0  0  0  0  0
    1.1866    0.0000    0.0000 C   0  0  0  0  0  0  0  0  0  0  0  0
    0.0000   -5.9716    0.0000 C   0  0  0  0  0  0  0  0  0  0  0  0
    0.0000   -7.2933    0.0000 C   0  0  0  0  0  0  0  0  0  0  0  0
    8.3063   -1.6690    0.0000 C   0  0  0  0  0  0  0  0  0  0  0  0
    5.6147   -1.6690    0.0000 C   0  0  0  0  0  0  0  0  0  0  0  0
    6.2707   -0.5113    0.0000 C   0  0  0  0  0  0  0  0  0  0  0  0
    7.6503   -0.5113    0.0000 C   0  0  0  0  0  0  0  0  0  0  0  0
    7.6503   -2.8170    0.0000 O   0  0  0  0  0  0  0  0  0  0  0  0
    6.2707   -2.8170    0.0000 O   0  0  0  0  0  0  0  0  0  0  0  0
    9.6472   -1.6786    0.0000 O   0  0  0  0  0  0  0  0  0  0  0  0
    4.2737   -1.6786    0.0000 O   0  0  0  0  0  0  0  0  0  0  0  0
  1  2  1  0  0  0  0
  1  5  1  0  0  0  0
  1 13  1  0  0  0  0
  2  4  2  0  0  0  0
  2  7  1  0  0  0  0
  3  6  1  0  0  0  0
  3  4  1  0  0  0  0
  4 10  1  0  0  0  0
  5  6  2  0  0  0  0
  5 16  1  0  0  0  0
  6 17  1  0  0  0  0
  7  8  2  0  0  0  0
  8  9  1  0  0  0  0
  8 11  1  0  0  0  0
  9 12  2  0  0  0  0
  9 19  1  0  0  0  0
 10 11  2  0  0  0  0
 13 14  1  0  0  0  0
 14 18  1  0  0  0  0
 15 18  1  0  0  0  0
 15 20  1  0  0  0  0
 15 21  1  0  0  0  0
 16 22  2  0  0  0  0
 17 23  2  0  0  0  0
 22 23  1  0  0  0  0
 24 27  1  0  0  0  0
 24 28  2  0  0  0  0
 24 30  1  0  0  0  0
 25 26  1  0  0  0  0
 25 29  2  0  0  0  0
 25 31  1  0  0  0  0
 26 27  2  0  0  0  0
M  END
> <ID>
12884

> <Formula>
C23H26N2O5S

> <FW>
442.5279 (326.4558+116.0722)

> <DSSTox_CID>
27763

> <DSSTox_RID>
82540

> <DSSTox_GSID>
47783

> <DSSTox_FileID_Sort>
7221

> <TS_ChemName>
Acetopromazine maleate

> <TS_ChemName_Synonyms>
Acetylpromazine maleate

> <TS_CASRN>
3598-37-6

> <CASRN_ChemName_Relationship>
primary

> <TS_Description>
single chemical compound

> <ChemNote>
parent [61-00-7]

> <STRUCTURE_Shown>
tested chemical

> <STRUCTURE_Formula>
C23H26N2O5S

> <STRUCTURE_MW>
442.5279

> <STRUCTURE_ChemType>
defined organic

> <STRUCTURE_DefinedOrganicForm>
complex

> <STRUCTURE_IUPAC>
1-{10-[3-(dimethylamino)propyl]-10H-phenothiazin-2-yl}ethanone (2Z)-but-2-enedioate (1:1)

> <STRUCTURE_SMILES>
O=C(O)/C=C\C(=O)O.CC(=O)c1cc2N(CCCN(C)C)c3ccccc3Sc2cc1

> <STRUCTURE_SMILES_Desalt>
CC(=O)c1cc2N(CCCN(C)C)c3ccccc3Sc2cc1

> <Substance_modify_yyyymmdd>


$$$$
