3599-32-4
ChemmineR-0915142007XD

 54 58  0  0  0  0  0  0  0  0  2 V2000
    0.0000   -6.8564    0.0000 Na   0  3  0  0  0  0  0  0  0  0  0  0
    1.3348  -11.8723    0.0000 O    0  5  0  0  0  0  0  0  0  0  0  0
    2.6414  -11.6616    0.0000 S    0  0  0  0  0  0  0  0  0  0  0  0
    2.8522  -12.9682    0.0000 O    0  0  0  0  0  0  0  0  0  0  0  0
    2.4307  -10.3409    0.0000 O    0  0  0  0  0  0  0  0  0  0  0  0
    3.9621  -11.4508    0.0000 C    0  0  0  0  0  0  0  0  0  0  0  0
    4.7911  -12.4905    0.0000 C    0  0  0  0  0  0  0  0  0  0  0  0
    6.1118  -12.2798    0.0000 C    0  0  0  0  0  0  0  0  0  0  0  0
    6.5895  -11.0293    0.0000 C    0  0  0  0  0  0  0  0  0  0  0  0
    7.8821  -10.7624    0.0000 N    0  3  0  0  0  0  0  0  0  0  0  0
    8.8796  -11.6475    0.0000 C    0  0  0  0  0  0  0  0  0  0  0  0
    8.8796  -12.9823    0.0000 C    0  0  0  0  0  0  0  0  0  0  0  0
   10.0318  -13.6426    0.0000 C    0  0  0  0  0  0  0  0  0  0  0  0
   11.1698  -12.9823    0.0000 C    0  0  0  0  0  0  0  0  0  0  0  0
   12.3219  -13.6426    0.0000 C    0  0  0  0  0  0  0  0  0  0  0  0
   13.4740  -12.9823    0.0000 C    0  0  0  0  0  0  0  0  0  0  0  0
   13.4740  -11.6475    0.0000 C    0  0  0  0  0  0  0  0  0  0  0  0
   12.3219  -10.9872    0.0000 C    0  0  0  0  0  0  0  0  0  0  0  0
   11.1698  -11.6475    0.0000 C    0  0  0  0  0  0  0  0  0  0  0  0
   10.0318  -10.9872    0.0000 C    0  0  0  0  0  0  0  0  0  0  0  0
    9.7508   -9.6805    0.0000 C    0  0  0  0  0  0  0  0  0  0  0  0
    9.7508   -8.3457    0.0000 C    0  0  0  0  0  0  0  0  0  0  0  0
   11.0715   -9.5400    0.0000 C    0  0  0  0  0  0  0  0  0  0  0  0
    8.4300   -9.5400    0.0000 C    0  0  0  0  0  0  0  0  0  0  0  0
    7.7556   -8.3879    0.0000 C    0  0  0  0  0  0  0  0  0  0  0  0
    6.4349   -8.3879    0.0000 C    0  0  0  0  0  0  0  0  0  0  0  0
    5.7605   -9.5400    0.0000 C    0  0  0  0  0  0  0  0  0  0  0  0
    4.4398   -9.5400    0.0000 C    0  0  0  0  0  0  0  0  0  0  0  0
    3.7654   -8.3879    0.0000 C    0  0  0  0  0  0  0  0  0  0  0  0
    4.4398   -7.2358    0.0000 C    0  0  0  0  0  0  0  0  0  0  0  0
    5.7605   -7.2358    0.0000 C    0  0  0  0  0  0  0  0  0  0  0  0
    6.4349   -6.0837    0.0000 C    0  0  0  0  0  0  0  0  0  0  0  0
    7.7556   -5.9432    0.0000 N    0  0  0  0  0  0  0  0  0  0  0  0
    8.6408   -6.9407    0.0000 C    0  0  0  0  0  0  0  0  0  0  0  0
    9.9475   -6.6597    0.0000 C    0  0  0  0  0  0  0  0  0  0  0  0
   10.8888   -7.6011    0.0000 C    0  0  0  0  0  0  0  0  0  0  0  0
   12.1674   -7.2498    0.0000 C    0  0  0  0  0  0  0  0  0  0  0  0
   13.1087   -8.1912    0.0000 S    0  0  0  0  0  0  0  0  0  0  0  0
   14.0501   -9.1325    0.0000 O    0  5  0  0  0  0  0  0  0  0  0  0
   12.1674   -9.1325    0.0000 O    0  0  0  0  0  0  0  0  0  0  0  0
   14.0501   -7.2498    0.0000 O    0  0  0  0  0  0  0  0  0  0  0  0
    8.0366   -4.6506    0.0000 C    0  0  0  0  0  0  0  0  0  0  0  0
    9.1887   -3.9762    0.0000 C    0  0  0  0  0  0  0  0  0  0  0  0
    9.1887   -2.6555    0.0000 C    0  0  0  0  0  0  0  0  0  0  0  0
    8.0366   -1.9951    0.0000 C    0  0  0  0  0  0  0  0  0  0  0  0
    8.0366   -0.6604    0.0000 C    0  0  0  0  0  0  0  0  0  0  0  0
    6.8845    0.0000    0.0000 C    0  0  0  0  0  0  0  0  0  0  0  0
    5.7324   -0.6604    0.0000 C    0  0  0  0  0  0  0  0  0  0  0  0
    5.7324   -1.9951    0.0000 C    0  0  0  0  0  0  0  0  0  0  0  0
    6.8845   -2.6555    0.0000 C    0  0  0  0  0  0  0  0  0  0  0  0
    6.8845   -3.9762    0.0000 C    0  0  0  0  0  0  0  0  0  0  0  0
    5.8870   -4.8754    0.0000 C    0  0  0  0  0  0  0  0  0  0  0  0
    5.1142   -3.7935    0.0000 C    0  0  0  0  0  0  0  0  0  0  0  0
    4.7349   -5.5357    0.0000 C    0  0  0  0  0  0  0  0  0  0  0  0
  2  3  1  0  0  0  0
  3  4  2  0  0  0  0
  3  5  2  0  0  0  0
  3  6  1  0  0  0  0
  6  7  1  0  0  0  0
  7  8  1  0  0  0  0
  8  9  1  0  0  0  0
  9 10  1  0  0  0  0
 10 11  1  0  0  0  0
 10 24  2  0  0  0  0
 11 12  2  0  0  0  0
 11 20  1  0  0  0  0
 12 13  1  0  0  0  0
 13 14  2  0  0  0  0
 14 15  1  0  0  0  0
 14 19  1  0  0  0  0
 15 16  2  0  0  0  0
 16 17  1  0  0  0  0
 17 18  2  0  0  0  0
 18 19  1  0  0  0  0
 19 20  2  0  0  0  0
 20 21  1  0  0  0  0
 21 22  1  0  0  0  0
 21 23  1  0  0  0  0
 21 24  1  0  0  0  0
 24 25  1  0  0  0  0
 25 26  2  0  0  0  0
 26 27  1  0  0  0  0
 27 28  2  0  0  0  0
 28 29  1  0  0  0  0
 29 30  2  0  0  0  0
 30 31  1  0  0  0  0
 31 32  2  0  0  0  0
 32 33  1  0  0  0  0
 32 52  1  0  0  0  0
 33 34  1  0  0  0  0
 33 42  1  0  0  0  0
 34 35  1  0  0  0  0
 35 36  1  0  0  0  0
 36 37  1  0  0  0  0
 37 38  1  0  0  0  0
 38 39  1  0  0  0  0
 38 40  2  0  0  0  0
 38 41  2  0  0  0  0
 42 43  2  0  0  0  0
 42 51  1  0  0  0  0
 43 44  1  0  0  0  0
 44 45  2  0  0  0  0
 45 46  1  0  0  0  0
 45 50  1  0  0  0  0
 46 47  2  0  0  0  0
 47 48  1  0  0  0  0
 48 49  2  0  0  0  0
 49 50  1  0  0  0  0
 50 51  2  0  0  0  0
 51 52  1  0  0  0  0
 52 53  1  0  0  0  0
 52 54  1  0  0  0  0
M  END
> <ID>
2823

> <Formula>
C43H47N2NaO6S2

> <FW>
774.9628 (22.9892+751.9736)

> <DSSTox_CID>
3145

> <DSSTox_RID>
76889

> <DSSTox_GSID>
23145

> <DSSTox_FileID_Sort>
1573

> <TS_ChemName>
Indocyanine green

> <TS_ChemName_Synonyms>


> <TS_CASRN>
3599-32-4

> <CASRN_ChemName_Relationship>
primary

> <TS_Description>
single chemical compound

> <ChemNote>
ammonium; stereochem; parent [28782-33-4]

> <STRUCTURE_Shown>
tested chemical

> <STRUCTURE_Formula>
C43H47N2NaO6S2

> <STRUCTURE_MW>
774.9628

> <STRUCTURE_ChemType>
defined organic

> <STRUCTURE_DefinedOrganicForm>
salt

> <STRUCTURE_IUPAC>
sodium 4-[(2E)-2-{(2Z,4Z,6Z)-7-[1,1-dimethyl-3-(4-sulfonatobutyl)-1H-benzo[e]indolium-2-yl]hepta-2,4,6-trien-1-ylidene}-1,1-dimethyl-1,2-dihydro-3H-benzo[e]indol-3-yl]butane-1-sulfonate

> <STRUCTURE_SMILES>
[Na+].[O-]S(=O)(=O)CCCC[N+]=6c2ccc1ccccc1c2C(C)(C)C=6/C=C\C=C/C=C\C=C5\N(CCCCS([O-])(=O)=O)c4ccc3ccccc3c4C5(C)C

> <STRUCTURE_SMILES_Desalt>
O=S(=O)(O)CCCC[N+]=6c2ccc1ccccc1c2C(C)(C)C=6/C=C\C=C/C=C\C=C5\N(CCCCS(=O)(=O)O)c4ccc3ccccc3c4C5(C)C

> <Substance_modify_yyyymmdd>
20080429

$$$$
