36001-88-4
ChemmineR-0915142007XD

 19 19  0  0  0  0  0  0  0  0  2 V2000
    4.6233   -2.2812    0.0000 P   0  0  0  0  0  0  0  0  0  0  0  0
    4.6233   -0.9657    0.0000 S   0  0  0  0  0  0  0  0  0  0  0  0
    5.9540   -2.2812    0.0000 O   0  0  0  0  0  0  0  0  0  0  0  0
    3.2850   -2.2812    0.0000 N   0  0  0  0  0  0  0  0  0  0  0  0
    4.6233   -3.6119    0.0000 O   0  0  0  0  0  0  0  0  0  0  0  0
    2.6158   -1.1406    0.0000 C   0  0  0  0  0  0  0  0  0  0  0  0
    1.2851   -1.1406    0.0000 C   0  0  0  0  0  0  0  0  0  0  0  0
    3.2850    0.0000    0.0000 C   0  0  0  0  0  0  0  0  0  0  0  0
    6.6080   -3.4523    0.0000 C   0  0  0  0  0  0  0  0  0  0  0  0
    3.4523   -4.2811    0.0000 C   0  0  0  0  0  0  0  0  0  0  0  0
    3.4523   -5.6118    0.0000 C   0  0  0  0  0  0  0  0  0  0  0  0
    2.3116   -3.6119    0.0000 C   0  0  0  0  0  0  0  0  0  0  0  0
    2.3116   -6.2734    0.0000 C   0  0  0  0  0  0  0  0  0  0  0  0
    1.1558   -4.2811    0.0000 C   0  0  0  0  0  0  0  0  0  0  0  0
    1.1558   -5.6118    0.0000 C   0  0  0  0  0  0  0  0  0  0  0  0
    0.0000   -6.2734    0.0000 C   0  0  0  0  0  0  0  0  0  0  0  0
    4.6233   -6.2734    0.0000 N   0  3  0  0  0  0  0  0  0  0  0  0
    4.6233   -7.6041    0.0000 O   0  5  0  0  0  0  0  0  0  0  0  0
    5.7563   -5.6118    0.0000 O   0  0  0  0  0  0  0  0  0  0  0  0
  1  2  2  0  0  0  0
  1  3  1  0  0  0  0
  1  5  1  0  0  0  0
  1  4  1  0  0  0  0
  3  9  1  0  0  0  0
  4  6  1  0  0  0  0
  5 10  1  0  0  0  0
  6  7  1  0  0  0  0
  6  8  1  0  0  0  0
 10 11  2  0  0  0  0
 10 12  1  0  0  0  0
 11 13  1  0  0  0  0
 11 17  1  0  0  0  0
 12 14  2  0  0  0  0
 13 15  2  0  0  0  0
 14 15  1  0  0  0  0
 15 16  1  0  0  0  0
 17 18  1  0  0  0  0
 17 19  2  0  0  0  0
M  END
> <ID>
8561

> <Formula>
C11H17N2O4PS

> <FW>
304.3024

> <DSSTox_CID>
21600

> <DSSTox_RID>
79781

> <DSSTox_GSID>
41600

> <DSSTox_FileID_Sort>
4463

> <TS_ChemName>
Amiprofos-methyl

> <TS_ChemName_Synonyms>


> <TS_CASRN>
36001-88-4

> <CASRN_ChemName_Relationship>
primary

> <TS_Description>
single chemical compound

> <ChemNote>


> <STRUCTURE_Shown>
tested chemical

> <STRUCTURE_Formula>
C11H17N2O4PS

> <STRUCTURE_MW>
304.3024

> <STRUCTURE_ChemType>
defined organic

> <STRUCTURE_DefinedOrganicForm>
parent

> <STRUCTURE_IUPAC>
O-methyl O-(4-methyl-2-nitrophenyl) propan-2-ylphosphoramidothioate

> <STRUCTURE_SMILES>
S=P(Oc1ccc(C)cc1[N+]([O-])=O)(NC(C)C)OC

> <STRUCTURE_SMILES_Desalt>
S=P(Oc1ccc(C)cc1[N+]([O-])=O)(NC(C)C)OC

> <Substance_modify_yyyymmdd>
20080825

$$$$
