3605-01-4
ChemmineR-0915142007XD

 22 25  0  0  0  0  0  0  0  0  1 V2000
    2.3083   -2.6682    0.0000 C   0  0  0  0  0  0  0  0  0  0  0  0
    3.4749   -2.0105    0.0000 N   0  0  0  0  0  0  0  0  0  0  0  0
    5.7708   -0.6826    0.0000 N   0  0  0  0  0  0  0  0  0  0  0  0
   10.3750   -0.6826    0.0000 C   0  0  0  0  0  0  0  0  0  0  0  0
    1.1666   -2.0105    0.0000 N   0  0  0  0  0  0  0  0  0  0  0  0
    2.3083   -3.9961    0.0000 N   0  0  0  0  0  0  0  0  0  0  0  0
   10.3750   -2.0105    0.0000 C   0  0  0  0  0  0  0  0  0  0  0  0
   11.6284   -0.2730    0.0000 O   0  0  0  0  0  0  0  0  0  0  0  0
   11.6284   -2.4076    0.0000 O   0  0  0  0  0  0  0  0  0  0  0  0
   12.4102   -1.3403    0.0000 C   0  0  0  0  0  0  0  0  0  0  0  0
    9.2084    0.0000    0.0000 C   0  0  0  0  0  0  0  0  0  0  0  0
    4.6042   -2.6682    0.0000 C   0  0  0  0  0  0  0  0  0  0  0  0
    3.4749   -0.6826    0.0000 C   0  0  0  0  0  0  0  0  0  0  0  0
    8.0542   -0.6826    0.0000 C   0  0  0  0  0  0  0  0  0  0  0  0
    6.9125    0.0000    0.0000 C   0  0  0  0  0  0  0  0  0  0  0  0
    9.2084   -2.6682    0.0000 C   0  0  0  0  0  0  0  0  0  0  0  0
    5.7708   -2.0105    0.0000 C   0  0  0  0  0  0  0  0  0  0  0  0
    4.6042    0.0000    0.0000 C   0  0  0  0  0  0  0  0  0  0  0  0
    8.0542   -2.0105    0.0000 C   0  0  0  0  0  0  0  0  0  0  0  0
    0.0000   -3.9961    0.0000 C   0  0  0  0  0  0  0  0  0  0  0  0
    1.1666   -4.6662    0.0000 C   0  0  0  0  0  0  0  0  0  0  0  0
    0.0000   -2.6682    0.0000 C   0  0  0  0  0  0  0  0  0  0  0  0
  1  2  1  0  0  0  0
  1  5  2  0  0  0  0
  1  6  1  0  0  0  0
  2 12  1  0  0  0  0
  2 13  1  0  0  0  0
  3 18  1  0  0  0  0
  3 15  1  0  0  0  0
  3 17  1  0  0  0  0
  4 11  1  0  0  0  0
  4  8  1  0  0  0  0
  4  7  2  0  0  0  0
  5 22  1  0  0  0  0
  6 21  2  0  0  0  0
  7 16  1  0  0  0  0
  7  9  1  0  0  0  0
  8 10  1  0  0  0  0
  9 10  1  0  0  0  0
 11 14  2  0  0  0  0
 12 17  1  0  0  0  0
 13 18  1  0  0  0  0
 14 15  1  0  0  0  0
 14 19  1  0  0  0  0
 16 19  2  0  0  0  0
 20 21  1  0  0  0  0
 20 22  2  0  0  0  0
M  END
> <ID>
10805

> <Formula>
C16H18N4O2

> <FW>
298.3397

> <DSSTox_CID>
25188

> <DSSTox_RID>
80735

> <DSSTox_GSID>
45188

> <DSSTox_FileID_Sort>
5416

> <TS_ChemName>
Piribedil

> <TS_ChemName_Synonyms>


> <TS_CASRN>
3605-01-4

> <CASRN_ChemName_Relationship>
primary

> <TS_Description>
single chemical compound

> <ChemNote>


> <STRUCTURE_Shown>
tested chemical

> <STRUCTURE_Formula>
C16H18N4O2

> <STRUCTURE_MW>
298.3397

> <STRUCTURE_ChemType>
defined organic

> <STRUCTURE_DefinedOrganicForm>
parent

> <STRUCTURE_IUPAC>
2-[4-(1,3-benzodioxol-5-ylmethyl)piperazin-1-yl]pyrimidine

> <STRUCTURE_SMILES>
c1cc(cc2OCOc12)CN3CCN(CC3)c4ncccn4

> <STRUCTURE_SMILES_Desalt>
c1cc(cc2OCOc12)CN3CCN(CC3)c4ncccn4

> <Substance_modify_yyyymmdd>
20100107

$$$$
