36067-72-8
ChemmineR-0915142007XD

 15 14  0  0  0  0  0  0  0  0  1 V2000
    3.3642   -2.1461    0.0000 C    0  0  0  0  0  0  0  0  0  0  0  0
    3.3642   -0.8369    0.0000 C    0  0  0  0  0  0  0  0  0  0  0  0
    4.4248   -2.9830    0.0000 C    0  0  0  0  0  0  0  0  0  0  0  0
    4.4248    0.0000    0.0000 C    0  0  0  0  0  0  0  0  0  0  0  0
    5.7258   -2.6930    0.0000 C    0  0  0  0  0  0  0  0  0  0  0  0
    6.2975   -1.5081    0.0000 N    0  0  0  0  0  0  0  0  0  0  0  0
    5.7258   -0.3066    0.0000 C    0  0  0  0  0  0  0  0  0  0  0  0
    2.1130   -2.5687    0.0000 O    0  0  0  0  0  0  0  0  0  0  0  0
    1.3341   -1.5081    0.0000 C    0  0  0  0  0  0  0  0  0  0  0  0
    2.1130   -0.4143    0.0000 N    0  0  0  0  0  0  0  0  0  0  0  0
    0.0000   -1.5081    0.0000 N    0  0  0  0  0  0  0  0  0  0  0  0
    7.6316   -1.5081    0.0000 C    0  0  0  0  0  0  0  0  0  0  0  0
    8.2862   -2.6599    0.0000 C    0  0  0  0  0  0  0  0  0  0  0  0
    1.3175   -3.7039    0.0000 Cl   0  0  0  0  0  0  0  0  0  0  0  0
    3.3642   -3.7039    0.0000 Cl   0  0  0  0  0  0  0  0  0  0  0  0
  1  3  1  0  0  0  0
  1  8  1  0  0  0  0
  1  2  2  0  0  0  0
  2  4  1  0  0  0  0
  2 10  1  0  0  0  0
  3  5  1  0  0  0  0
  4  7  1  0  0  0  0
  5  6  1  0  0  0  0
  6  7  1  0  0  0  0
  6 12  1  0  0  0  0
  8  9  1  0  0  0  0
  9 10  2  0  0  0  0
  9 11  1  0  0  0  0
 12 13  1  0  0  0  0
M  END
> <ID>
11167

> <Formula>
C9H17Cl2N3O

> <FW>
254.1568 (181.2349+36.4609+36.4609)

> <DSSTox_CID>
25756

> <DSSTox_RID>
81099

> <DSSTox_GSID>
45756

> <DSSTox_FileID_Sort>
5780

> <TS_ChemName>
Azepexole hydrochloride

> <TS_ChemName_Synonyms>


> <TS_CASRN>
36067-72-8

> <CASRN_ChemName_Relationship>
primary

> <TS_Description>
single chemical compound

> <ChemNote>
parent [36067-73-9]

> <STRUCTURE_Shown>
tested chemical

> <STRUCTURE_Formula>
C9H17Cl2N3O

> <STRUCTURE_MW>
254.1568

> <STRUCTURE_ChemType>
defined organic

> <STRUCTURE_DefinedOrganicForm>
complex

> <STRUCTURE_IUPAC>
6-ethyl-5,6,7,8-tetrahydro-4H-[1,3]oxazolo[4,5-d]azepin-2-amine dihydrochloride

> <STRUCTURE_SMILES>
Cl.Cl.CCN1CCc2oc(N)nc2CC1

> <STRUCTURE_SMILES_Desalt>
CCN1CCc2oc(N)nc2CC1

> <Substance_modify_yyyymmdd>
20110826

$$$$
