361-09-1
ChemmineR-0915142007XD

 35 37  0  0  1  0  0  0  0  0  2 V2000
    6.7761   -2.6443    0.0000 C    0  0  0  0  0  0  0  0  0  0  0  0
    4.4210   -3.9528    0.0000 C    0  0  0  0  0  0  0  0  0  0  0  0
    3.3054   -4.6276    0.0000 C    0  0  0  0  0  0  0  0  0  0  0  0
    6.7761   -3.9941    0.0000 C    0  0  0  0  0  0  0  0  0  0  0  0
    5.6055   -4.6276    0.0000 C    0  0  0  0  0  0  0  0  0  0  0  0
    5.6055   -2.0246    0.0000 C    0  0  0  0  0  0  0  0  0  0  0  0
    3.3054   -5.9636    0.0000 C    0  0  0  0  0  0  0  0  0  0  0  0
    4.4210   -2.6443    0.0000 C    0  0  0  0  0  0  0  0  0  0  0  0
    5.6055   -5.9636    0.0000 C    0  0  0  0  0  0  0  0  0  0  0  0
    8.0295   -2.2312    0.0000 C    0  0  0  0  0  0  0  0  0  0  0  0
    4.4210   -6.6109    0.0000 C    0  0  0  0  0  0  0  0  0  0  0  0
    8.0295   -4.3935    0.0000 C    0  0  0  0  0  0  0  0  0  0  0  0
    2.1348   -3.9528    0.0000 C    0  0  0  0  0  0  0  0  0  0  0  0
    8.7732   -3.3054    0.0000 C    0  0  0  0  0  0  0  0  0  0  0  0
   11.8858   -1.5976    0.0000 C    0  0  0  0  0  0  0  0  0  0  0  0
    2.1348   -6.6109    0.0000 C    0  0  0  0  0  0  0  0  0  0  0  0
   12.2852   -0.3030    0.0000 O    0  0  0  0  0  0  0  0  0  0  0  0
    8.4564   -0.9779    0.0000 C    0  0  0  0  0  0  0  0  0  0  0  0
    9.7648   -0.7575    0.0000 C    0  0  0  0  0  0  0  0  0  0  0  0
    5.6055   -0.6060    0.0000 O    0  0  0  0  0  0  0  0  0  0  0  0
    6.6935   -6.7073    0.0000 O    0  0  0  0  0  0  0  0  0  0  0  0
   10.5361   -1.7767    0.0000 C    0  0  0  0  0  0  0  0  0  0  0  0
    6.7761   -1.4048    0.0000 C    0  0  0  0  0  0  0  0  0  0  0  0
    0.9916   -4.6276    0.0000 C    0  0  0  0  0  0  0  0  0  0  0  0
    0.9916   -5.9636    0.0000 C    0  0  0  0  0  0  0  0  0  0  0  0
    3.3054   -3.3881    0.0000 C    0  0  0  0  0  0  0  0  0  0  0  0
   12.6846   -2.6168    0.0000 O    0  5  0  0  0  0  0  0  0  0  0  0
    0.0000   -6.5971    0.0000 O    0  0  0  0  0  0  0  0  0  0  0  0
    7.5612    0.0000    0.0000 C    0  0  0  0  0  0  0  0  0  0  0  0
    6.7761   -5.3713    0.0000 H    0  0  0  0  0  0  0  0  0  0  0  0
    3.3054   -7.5612    0.0000 H    0  0  0  0  0  0  0  0  0  0  0  0
    4.4210   -5.2749    0.0000 H    0  0  0  0  0  0  0  0  0  0  0  0
    5.5779   -3.2366    0.0000 H    0  0  0  0  0  0  0  0  0  0  0  0
    8.0295   -3.5396    0.0000 H    0  0  0  0  0  0  0  0  0  0  0  0
   13.7727   -1.7491    0.0000 Na   0  3  0  0  0  0  0  0  0  0  0  0
  1  4  1  0  0  0  0
  1  6  1  0  0  0  0
  1 10  1  0  0  0  0
  1 23  1  1  0  0  0
  2  8  1  0  0  0  0
  2  3  1  0  0  0  0
  2 32  1  6  0  0  0
  2  5  1  0  0  0  0
  3  7  1  0  0  0  0
  3 13  1  0  0  0  0
  3 26  1  1  0  0  0
  4  5  1  0  0  0  0
  4 12  1  0  0  0  0
  4 30  1  6  0  0  0
  5  9  1  0  0  0  0
  5 33  1  1  0  0  0
  6  8  1  0  0  0  0
  6 20  1  6  0  0  0
  7 16  1  0  0  0  0
  7 31  1  1  0  0  0
  7 11  1  0  0  0  0
  9 11  1  0  0  0  0
  9 21  1  6  0  0  0
 10 14  1  0  0  0  0
 10 18  1  0  0  0  0
 10 34  1  6  0  0  0
 12 14  1  0  0  0  0
 13 24  1  0  0  0  0
 15 22  1  0  0  0  0
 15 17  2  0  0  0  0
 15 27  1  0  0  0  0
 16 25  1  0  0  0  0
 18 19  1  0  0  0  0
 18 29  1  6  0  0  0
 19 22  1  0  0  0  0
 24 25  1  0  0  0  0
 25 28  1  6  0  0  0
M  END
> <ID>
6652

> <Formula>
C24H39NaO5

> <FW>
430.5532 (407.5640+22.9892)

> <DSSTox_CID>
13979

> <DSSTox_RID>
79104

> <DSSTox_GSID>
33979

> <DSSTox_FileID_Sort>
3786

> <TS_ChemName>
Sodium cholate

> <TS_ChemName_Synonyms>


> <TS_CASRN>
361-09-1

> <CASRN_ChemName_Relationship>
primary

> <TS_Description>
single chemical compound

> <ChemNote>
stereochem; parent [81-25-4]

> <STRUCTURE_Shown>
tested chemical

> <STRUCTURE_Formula>
C24H39NaO5

> <STRUCTURE_MW>
430.5532

> <STRUCTURE_ChemType>
defined organic

> <STRUCTURE_DefinedOrganicForm>
salt

> <STRUCTURE_IUPAC>
sodium (3alpha,5beta,7alpha,8xi,12alpha)-3,7,12-trihydroxycholan-24-oate

> <STRUCTURE_SMILES>
[Na+].[O-]C(=O)CC[C@@H](C)[C@H]2CC[C@H]1[C@@H]3[C@H](O)C[C@@H]4C[C@H](O)CC[C@]4(C)[C@H]3C[C@H](O)[C@@]12C

> <STRUCTURE_SMILES_Desalt>
O=C(O)CC[C@@H](C)[C@H]2CC[C@H]1[C@@H]3[C@H](O)C[C@@H]4C[C@H](O)CC[C@]4(C)[C@H]3C[C@H](O)[C@@]12C

> <Substance_modify_yyyymmdd>
20080429

$$$$
