361-37-5
ChemmineR-0915142007XD

 27 30  0  0  1  0  0  0  0  0  1 V2000
    3.4379   -3.9499    0.0000 C   0  0  0  0  0  0  0  0  0  0  0  0
    3.4379   -6.5923    0.0000 C   0  0  0  0  0  0  0  0  0  0  0  0
    2.2858   -4.6356    0.0000 C   0  0  0  0  0  0  0  0  0  0  0  0
    4.5716   -4.6356    0.0000 C   0  0  0  0  0  0  0  0  0  0  0  0
    2.2858   -5.9523    0.0000 C   0  0  0  0  0  0  0  0  0  0  0  0
    3.4379   -2.6424    0.0000 C   0  0  0  0  0  0  0  0  0  0  0  0
    4.5716   -2.0024    0.0000 C   0  0  0  0  0  0  0  0  0  0  0  0
    1.4995   -7.8723    0.0000 N   0  0  0  0  0  0  0  0  0  0  0  0
    5.7237   -3.9499    0.0000 N   0  0  0  0  0  0  0  0  0  0  0  0
    3.0813   -7.8723    0.0000 C   0  0  0  0  0  0  0  0  0  0  0  0
    4.5716   -0.6766    0.0000 C   0  0  0  0  0  0  0  0  0  0  0  0
    1.1521   -6.5923    0.0000 C   0  0  0  0  0  0  0  0  0  0  0  0
    4.5716   -5.9523    0.0000 C   0  0  0  0  0  0  0  0  0  0  0  0
    5.7237   -2.6424    0.0000 C   0  0  0  0  0  0  0  0  0  0  0  0
    5.7237    0.0000    0.0000 N   0  0  0  0  0  0  0  0  0  0  0  0
    3.4379    0.0000    0.0000 O   0  0  0  0  0  0  0  0  0  0  0  0
    1.1521   -3.9499    0.0000 C   0  0  0  0  0  0  0  0  0  0  0  0
    0.6217   -8.8598    0.0000 C   0  0  0  0  0  0  0  0  0  0  0  0
    6.8574   -4.6356    0.0000 C   0  0  0  0  0  0  0  0  0  0  0  0
    0.0000   -5.9523    0.0000 C   0  0  0  0  0  0  0  0  0  0  0  0
    6.8574   -0.6766    0.0000 C   0  0  0  0  0  0  0  0  0  0  0  0
    0.0000   -4.6356    0.0000 C   0  0  0  0  0  0  0  0  0  0  0  0
    8.0095   -2.6424    0.0000 O   0  0  0  0  0  0  0  0  0  0  0  0
    6.8574   -2.0024    0.0000 C   0  0  0  0  0  0  0  0  0  0  0  0
    8.0095    0.0000    0.0000 C   0  0  0  0  0  0  0  0  0  0  0  0
    9.1433   -0.6766    0.0000 C   0  0  0  0  0  0  0  0  0  0  0  0
    5.7237   -5.2757    0.0000 H   0  0  0  0  0  0  0  0  0  0  0  0
  1  3  1  0  0  0  0
  1  4  1  0  0  0  0
  1  6  2  0  0  0  0
  2 13  1  0  0  0  0
  2 10  2  0  0  0  0
  2  5  1  0  0  0  0
  3  5  2  0  0  0  0
  3 17  1  0  0  0  0
  4  9  1  0  0  0  0
  4 13  1  0  0  0  0
  4 27  1  1  0  0  0
  5 12  1  0  0  0  0
  6  7  1  0  0  0  0
  7 11  1  1  0  0  0
  7 14  1  0  0  0  0
  8 12  1  0  0  0  0
  8 18  1  0  0  0  0
  8 10  1  0  0  0  0
  9 19  1  0  0  0  0
  9 14  1  0  0  0  0
 11 15  1  0  0  0  0
 11 16  2  0  0  0  0
 12 20  2  0  0  0  0
 15 21  1  0  0  0  0
 17 22  2  0  0  0  0
 20 22  1  0  0  0  0
 21 24  1  1  0  0  0
 21 25  1  0  0  0  0
 23 24  1  0  0  0  0
 25 26  1  0  0  0  0
M  END
> <ID>
2968

> <Formula>
C21H27N3O2

> <FW>
353.458

> <DSSTox_CID>
3307

> <DSSTox_RID>
76968

> <DSSTox_GSID>
23307

> <DSSTox_FileID_Sort>
1652

> <TS_ChemName>
Methysergide

> <TS_ChemName_Synonyms>


> <TS_CASRN>
361-37-5

> <CASRN_ChemName_Relationship>
primary

> <TS_Description>
single chemical compound

> <ChemNote>
stereochem

> <STRUCTURE_Shown>
tested chemical

> <STRUCTURE_Formula>
C21H27N3O2

> <STRUCTURE_MW>
353.458

> <STRUCTURE_ChemType>
defined organic

> <STRUCTURE_DefinedOrganicForm>
parent

> <STRUCTURE_IUPAC>
(8beta)-N-[(2S)-1-hydroxybutan-2-yl]-1,6-dimethyl-9,10-didehydroergoline-8-carboxamide

> <STRUCTURE_SMILES>
CC[C@@H](CO)NC(=O)[C@@H]3C=C2c4cccc1c4c(cn1C)C[C@H]2N(C)C3

> <STRUCTURE_SMILES_Desalt>
CC[C@@H](CO)NC(=O)[C@@H]3C=C2c4cccc1c4c(cn1C)C[C@H]2N(C)C3

> <Substance_modify_yyyymmdd>
20080429

$$$$
