3613-30-7
ChemmineR-0915142007XD

 13 12  0  0  0  0  0  0  0  0  1 V2000
    1.1530   -1.3296    0.0000 C   0  0  0  0  0  0  0  0  0  0  0  0
    2.3164   -1.9944    0.0000 C   0  0  0  0  0  0  0  0  0  0  0  0
    3.4695   -1.3296    0.0000 C   0  0  0  0  0  0  0  0  0  0  0  0
    4.6329   -1.9944    0.0000 C   0  0  0  0  0  0  0  0  0  0  0  0
    5.7547   -1.3296    0.0000 C   0  0  0  0  0  0  0  0  0  0  0  0
    6.9181   -1.9944    0.0000 C   0  0  0  0  0  0  0  0  0  0  0  0
    8.0711   -1.3296    0.0000 C   0  0  0  0  0  0  0  0  0  0  0  0
    8.7463   -2.4722    0.0000 C   0  0  0  0  0  0  0  0  0  0  0  0
    0.0000   -1.9944    0.0000 O   0  0  0  0  0  0  0  0  0  0  0  0
    9.2346   -0.6752    0.0000 O   0  0  0  0  0  0  0  0  0  0  0  0
   10.3876   -1.3296    0.0000 C   0  0  0  0  0  0  0  0  0  0  0  0
    3.4695    0.0000    0.0000 C   0  0  0  0  0  0  0  0  0  0  0  0
    7.4167   -0.1766    0.0000 C   0  0  0  0  0  0  0  0  0  0  0  0
  1  2  1  0  0  0  0
  1  9  2  0  0  0  0
  2  3  1  0  0  0  0
  3  4  1  0  0  0  0
  3 12  1  0  0  0  0
  4  5  1  0  0  0  0
  5  6  1  0  0  0  0
  6  7  1  0  0  0  0
  7  8  1  0  0  0  0
  7 10  1  0  0  0  0
  7 13  1  0  0  0  0
 10 11  1  0  0  0  0
M  END
> <ID>
7509

> <Formula>
C11H22O2

> <FW>
186.2912

> <DSSTox_CID>
18818

> <DSSTox_RID>
79402

> <DSSTox_GSID>
38818

> <DSSTox_FileID_Sort>
4084

> <TS_ChemName>
7-Methoxy-3,7-dimethyloctanal

> <TS_ChemName_Synonyms>
Octanal, 7-methoxy-3,7-dimethyl-

> <TS_CASRN>
3613-30-7

> <CASRN_ChemName_Relationship>
primary

> <TS_Description>
single chemical compound

> <ChemNote>


> <STRUCTURE_Shown>
tested chemical

> <STRUCTURE_Formula>
C11H22O2

> <STRUCTURE_MW>
186.2912

> <STRUCTURE_ChemType>
defined organic

> <STRUCTURE_DefinedOrganicForm>
parent

> <STRUCTURE_IUPAC>
7-methoxy-3,7-dimethyloctanal

> <STRUCTURE_SMILES>
COC(C)(C)CCCC(C)CC=O

> <STRUCTURE_SMILES_Desalt>
COC(C)(C)CCCC(C)CC=O

> <Substance_modify_yyyymmdd>
20080429

$$$$
