361343-19-3
ChemmineR-0915142007XD

 29 32  0  0  0  0  0  0  0  0  1 V2000
    1.1515   -5.3198    0.0000 C    0  0  0  0  0  0  0  0  0  0  0  0
    2.3030   -5.9992    0.0000 C    0  0  0  0  0  0  0  0  0  0  0  0
    1.1515   -3.9956    0.0000 N    0  0  0  0  0  0  0  0  0  0  0  0
    0.0000   -5.9992    0.0000 C    0  0  0  0  0  0  0  0  0  0  0  0
    3.4544   -5.3198    0.0000 C    0  0  0  0  0  0  0  0  0  0  0  0
    2.3030   -7.3234    0.0000 C    0  0  0  0  0  0  0  0  0  0  0  0
    0.0000   -3.3393    0.0000 C    0  0  0  0  0  0  0  0  0  0  0  0
    2.3030   -3.3393    0.0000 C    0  0  0  0  0  0  0  0  0  0  0  0
    0.0000   -7.3234    0.0000 C    0  0  0  0  0  0  0  0  0  0  0  0
    4.6174   -5.9992    0.0000 C    0  0  0  0  0  0  0  0  0  0  0  0
    1.1515   -7.9798    0.0000 C    0  0  0  0  0  0  0  0  0  0  0  0
    0.0000   -2.0036    0.0000 C    0  0  0  0  0  0  0  0  0  0  0  0
    2.3030   -2.0036    0.0000 C    0  0  0  0  0  0  0  0  0  0  0  0
    5.7689   -5.3198    0.0000 C    0  0  0  0  0  0  0  0  0  0  0  0
    4.6174   -7.3234    0.0000 S    0  0  0  0  0  0  0  0  0  0  0  0
    1.1515   -1.3357    0.0000 N    0  0  0  0  0  0  0  0  0  0  0  0
    6.9204   -5.9992    0.0000 N    0  0  0  0  0  0  0  0  0  0  0  0
    5.7689   -3.9956    0.0000 O    0  0  0  0  0  0  0  0  0  0  0  0
    5.7689   -7.9798    0.0000 C    0  0  0  0  0  0  0  0  0  0  0  0
    1.1515    0.0000    0.0000 C    0  0  0  0  0  0  0  0  0  0  0  0
    8.0604   -5.3198    0.0000 C    0  0  0  0  0  0  0  0  0  0  0  0
    6.9204   -7.3234    0.0000 C    0  0  0  0  0  0  0  0  0  0  0  0
    8.0604   -3.9956    0.0000 C    0  0  0  0  0  0  0  0  0  0  0  0
    9.2118   -5.9992    0.0000 C    0  0  0  0  0  0  0  0  0  0  0  0
    9.2118   -3.3393    0.0000 C    0  0  0  0  0  0  0  0  0  0  0  0
   10.3633   -5.3198    0.0000 C    0  0  0  0  0  0  0  0  0  0  0  0
   10.3633   -3.9956    0.0000 C    0  0  0  0  0  0  0  0  0  0  0  0
    9.2118   -2.0036    0.0000 Cl   0  0  0  0  0  0  0  0  0  0  0  0
   11.5148   -3.3393    0.0000 Cl   0  0  0  0  0  0  0  0  0  0  0  0
  1  2  1  0  0  0  0
  1  3  1  0  0  0  0
  1  4  2  0  0  0  0
  2  5  1  0  0  0  0
  2  6  2  0  0  0  0
  3  7  1  0  0  0  0
  3  8  1  0  0  0  0
  4  9  1  0  0  0  0
  5 10  2  0  0  0  0
  6 11  1  0  0  0  0
  7 12  1  0  0  0  0
  8 13  1  0  0  0  0
  9 11  2  0  0  0  0
 10 14  1  0  0  0  0
 10 15  1  0  0  0  0
 12 16  1  0  0  0  0
 13 16  1  0  0  0  0
 14 17  1  0  0  0  0
 14 18  2  0  0  0  0
 15 19  1  0  0  0  0
 16 20  1  0  0  0  0
 17 21  1  0  0  0  0
 17 22  1  0  0  0  0
 19 22  1  0  0  0  0
 21 23  1  0  0  0  0
 21 24  2  0  0  0  0
 23 25  2  0  0  0  0
 24 26  1  0  0  0  0
 25 27  1  0  0  0  0
 25 28  1  0  0  0  0
 26 27  2  0  0  0  0
 27 29  1  0  0  0  0
M  END
> <ID>
12419

> <Formula>
C22H23Cl2N3OS

> <FW>
448.4085

> <DSSTox_CID>
27277

> <DSSTox_RID>
82231

> <DSSTox_GSID>
47277

> <DSSTox_FileID_Sort>
6912

> <TS_ChemName>
Elzasonan

> <TS_ChemName_Synonyms>
CP-448187

> <TS_CASRN>
361343-19-3

> <CASRN_ChemName_Relationship>
primary

> <TS_Description>
single chemical compound

> <ChemNote>
stereochem

> <STRUCTURE_Shown>
tested chemical

> <STRUCTURE_Formula>
C22H23Cl2N3OS

> <STRUCTURE_MW>
448.4085

> <STRUCTURE_ChemType>
defined organic

> <STRUCTURE_DefinedOrganicForm>
parent

> <STRUCTURE_IUPAC>
(2Z)-4-(3,4-dichlorophenyl)-2-[2-(4-methylpiperazin-1-yl)benzylidene]thiomorpholin-3-one

> <STRUCTURE_SMILES>
CN1CCN(CC1)c4ccccc4/C=C3\SCCN(c2cc(Cl)c(Cl)cc2)C3=O

> <STRUCTURE_SMILES_Desalt>
CN1CCN(CC1)c4ccccc4/C=C3\SCCN(c2cc(Cl)c(Cl)cc2)C3=O

> <Substance_modify_yyyymmdd>
20130910

$$$$
