361377-29-9
ChemmineR-0915142007XD

 32 35  0  0  0  0  0  0  0  0  1 V2000
    6.6724   -4.6194    0.0000 C    0  0  0  0  0  0  0  0  0  0  0  0
    5.9978   -5.7632    0.0000 N    0  0  0  0  0  0  0  0  0  0  0  0
    5.9978   -3.4755    0.0000 C    0  0  0  0  0  0  0  0  0  0  0  0
    4.6634   -5.7632    0.0000 C    0  0  0  0  0  0  0  0  0  0  0  0
    4.6634   -3.4755    0.0000 C    0  0  0  0  0  0  0  0  0  0  0  0
    4.0034   -4.6194    0.0000 N    0  0  0  0  0  0  0  0  0  0  0  0
    2.6690   -2.3317    0.0000 C    0  0  0  0  0  0  0  0  0  0  0  0
    1.9944   -3.4755    0.0000 C    0  0  0  0  0  0  0  0  0  0  0  0
    1.9944   -1.1732    0.0000 C    0  0  0  0  0  0  0  0  0  0  0  0
    0.6599   -3.4755    0.0000 C    0  0  0  0  0  0  0  0  0  0  0  0
    0.6599   -1.1732    0.0000 C    0  0  0  0  0  0  0  0  0  0  0  0
    0.0000   -2.3317    0.0000 C    0  0  0  0  0  0  0  0  0  0  0  0
    4.0034   -2.3317    0.0000 O    0  0  0  0  0  0  0  0  0  0  0  0
    2.6690    0.0000    0.0000 Cl   0  0  0  0  0  0  0  0  0  0  0  0
    6.6724   -2.3317    0.0000 F    0  0  0  0  0  0  0  0  0  0  0  0
    7.9922   -4.6194    0.0000 O    0  0  0  0  0  0  0  0  0  0  0  0
   10.6612   -2.3317    0.0000 C    0  0  0  0  0  0  0  0  0  0  0  0
    9.9866   -3.4755    0.0000 C    0  0  0  0  0  0  0  0  0  0  0  0
    9.9866   -1.1732    0.0000 C    0  0  0  0  0  0  0  0  0  0  0  0
    8.6521   -3.4755    0.0000 C    0  0  0  0  0  0  0  0  0  0  0  0
    8.6521   -1.1732    0.0000 C    0  0  0  0  0  0  0  0  0  0  0  0
    7.9922   -2.3317    0.0000 C    0  0  0  0  0  0  0  0  0  0  0  0
   10.6612   -4.6194    0.0000 C    0  0  0  0  0  0  0  0  0  0  0  0
    9.9866   -5.7632    0.0000 N    0  0  0  0  0  0  0  0  0  0  0  0
   14.6646   -4.6194    0.0000 C    0  0  0  0  0  0  0  0  0  0  0  0
   13.9901   -5.7632    0.0000 O    0  0  0  0  0  0  0  0  0  0  0  0
   13.9901   -3.4755    0.0000 C    0  0  0  0  0  0  0  0  0  0  0  0
   12.6556   -5.7632    0.0000 N    0  0  0  0  0  0  0  0  0  0  0  0
   12.6556   -3.4755    0.0000 O    0  0  0  0  0  0  0  0  0  0  0  0
   11.9957   -4.6194    0.0000 C    0  0  0  0  0  0  0  0  0  0  0  0
    9.3120   -6.9217    0.0000 O    0  0  0  0  0  0  0  0  0  0  0  0
    9.9866   -8.0655    0.0000 C    0  0  0  0  0  0  0  0  0  0  0  0
  1  2  1  0  0  0  0
  1  3  2  0  0  0  0
  1 16  1  0  0  0  0
  2  4  2  0  0  0  0
  3  5  1  0  0  0  0
  3 15  1  0  0  0  0
  4  6  1  0  0  0  0
  5  6  2  0  0  0  0
  5 13  1  0  0  0  0
  7  8  1  0  0  0  0
  7  9  2  0  0  0  0
  7 13  1  0  0  0  0
  8 10  2  0  0  0  0
  9 11  1  0  0  0  0
  9 14  1  0  0  0  0
 10 12  1  0  0  0  0
 11 12  2  0  0  0  0
 16 20  1  0  0  0  0
 17 18  1  0  0  0  0
 17 19  2  0  0  0  0
 18 20  2  0  0  0  0
 18 23  1  0  0  0  0
 19 21  1  0  0  0  0
 20 22  1  0  0  0  0
 21 22  2  0  0  0  0
 23 24  2  0  0  0  0
 23 30  1  0  0  0  0
 24 31  1  0  0  0  0
 25 26  1  0  0  0  0
 25 27  1  0  0  0  0
 26 28  1  0  0  0  0
 27 29  1  0  0  0  0
 28 30  2  0  0  0  0
 29 30  1  0  0  0  0
 31 32  1  0  0  0  0
M  END
> <ID>
6851

> <Formula>
C21H16ClFN4O5

> <FW>
458.8269

> <DSSTox_CID>
14625

> <DSSTox_RID>
79180

> <DSSTox_GSID>
34625

> <DSSTox_FileID_Sort>
3862

> <TS_ChemName>
Fluoxastrobin

> <TS_ChemName_Synonyms>


> <TS_CASRN>
361377-29-9

> <CASRN_ChemName_Relationship>
primary

> <TS_Description>
single chemical compound

> <ChemNote>
stereochem

> <STRUCTURE_Shown>
tested chemical

> <STRUCTURE_Formula>
C21H16ClFN4O5

> <STRUCTURE_MW>
458.8269

> <STRUCTURE_ChemType>
defined organic

> <STRUCTURE_DefinedOrganicForm>
parent

> <STRUCTURE_IUPAC>
1-(2-{[6-(2-chlorophenoxy)-5-fluoropyrimidin-4-yl]oxy}phenyl)-1-(5,6-dihydro-1,4,2-dioxazin-3-yl)-N-methoxymethanimine

> <STRUCTURE_SMILES>
Clc4ccccc4Oc3ncnc(Oc2ccccc2C(=N\OC)\C=1OCCON=1)c3F

> <STRUCTURE_SMILES_Desalt>
Clc4ccccc4Oc3ncnc(Oc2ccccc2C(=N\OC)\C=1OCCON=1)c3F

> <Substance_modify_yyyymmdd>
20110425

$$$$
