361442-04-8
ChemmineR-0915142007XD

 23 27  0  0  1  0  0  0  0  0  1 V2000
    2.4585    0.0000    0.0000 C   0  0  0  0  0  0  0  0  0  0  0  0
    3.6000   -1.9385    0.0000 C   0  0  0  0  0  0  0  0  0  0  0  0
    1.7426   -2.6477    0.0000 C   0  0  0  0  0  0  0  0  0  0  0  0
    1.2698   -2.0465    0.0000 C   0  0  0  0  0  0  0  0  0  0  0  0
    1.7426   -0.9861    0.0000 C   0  0  0  0  0  0  0  0  0  0  0  0
    1.2698   -0.6214    0.0000 C   0  0  0  0  0  0  0  0  0  0  0  0
    3.6000   -0.6687    0.0000 C   0  0  0  0  0  0  0  0  0  0  0  0
    3.0259   -3.0934    0.0000 C   0  0  0  0  0  0  0  0  0  0  0  0
    0.7159   -3.0934    0.0000 C   0  0  0  0  0  0  0  0  0  0  0  0
    2.5058   -2.5396    0.0000 C   0  0  0  0  0  0  0  0  0  0  0  0
    0.0000   -1.7291    0.0000 O   0  0  0  0  0  0  0  0  0  0  0  0
    1.7426   -4.3632    0.0000 C   0  0  0  0  0  0  0  0  0  0  0  0
    0.6011   -5.0116    0.0000 N   0  0  0  0  0  0  0  0  0  0  0  0
    2.8841   -5.0116    0.0000 C   0  0  0  0  0  0  0  0  0  0  0  0
    2.8841   -6.3287    0.0000 O   0  0  0  0  0  0  0  0  0  0  0  0
    4.0255   -4.3430    0.0000 N   0  0  0  0  0  0  0  0  0  0  0  0
    4.1538   -3.0462    0.0000 C   0  0  0  0  0  0  0  0  0  0  0  0
    5.2345   -4.8833    0.0000 C   0  0  0  0  0  0  0  0  0  0  0  0
    5.4574   -2.7625    0.0000 C   0  0  0  0  0  0  0  0  0  0  0  0
    6.1058   -3.9039    0.0000 C   0  0  0  0  0  0  0  0  0  0  0  0
    4.5659   -1.7899    0.0000 C   0  0  0  0  0  0  0  0  0  0  0  0
    5.5047   -6.1666    0.0000 C   0  0  0  0  0  0  0  0  0  0  0  0
    6.7542   -6.5651    0.0000 N   0  0  0  0  0  0  0  0  0  0  0  0
  1  5  1  0  0  0  0
  1  6  1  0  0  0  0
  1  7  1  0  0  0  0
  2  7  1  0  0  0  0
  2  8  1  0  0  0  0
  2 10  1  0  0  0  0
  3  5  1  0  0  0  0
  3  8  1  0  0  0  0
  3  9  1  0  0  0  0
 12  3  1  1  0  0  0
  4  6  1  0  0  0  0
  4  9  1  0  0  0  0
  4 10  1  0  0  0  0
  4 11  1  0  0  0  0
 12 13  1  0  0  0  0
 12 14  1  0  0  0  0
 14 15  2  0  0  0  0
 14 16  1  0  0  0  0
 16 17  1  0  0  0  0
 16 18  1  0  0  0  0
 17 21  1  1  0  0  0
 17 19  1  0  0  0  0
 18 20  1  0  0  0  0
 18 22  1  1  0  0  0
 19 20  1  0  0  0  0
 19 21  1  1  0  0  0
 22 23  3  0  0  0  0
M  END
> <ID>
13579

> <Formula>
C18H25N3O2

> <FW>
315.41

> <DSSTox_CID>
28506

> <DSSTox_RID>
82778

> <DSSTox_GSID>
48580

> <DSSTox_FileID_Sort>
7455

> <TS_ChemName>
Saxagliptin

> <TS_ChemName_Synonyms>


> <TS_CASRN>
361442-04-8

> <CASRN_ChemName_Relationship>
primary

> <TS_Description>
single chemical compound

> <ChemNote>
stereochem

> <STRUCTURE_Shown>
tested chemical

> <STRUCTURE_Formula>
C18H25N3O2

> <STRUCTURE_MW>
315.41

> <STRUCTURE_ChemType>
defined organic

> <STRUCTURE_DefinedOrganicForm>
parent

> <STRUCTURE_IUPAC>
(1S,3S,5S)-2-[(2S)-2-amino-2-(3-hydroxytricyclo[3.3.1.1~3,7~]dec-1-yl)acetyl]-2-azabicyclo[3.1.0]hexane-3-carbonitrile

> <STRUCTURE_SMILES>
O=C([C@@H](N)C13CC2CC(C1)CC(O)(C2)C3)N5[C@H](C#N)C[C@@H]4C[C@@H]45

> <STRUCTURE_SMILES_Desalt>
O=C([C@@H](N)C13CC2CC(C1)CC(O)(C2)C3)N5[C@H](C#N)C[C@@H]4C[C@@H]45

> <Substance_modify_yyyymmdd>
20111014

$$$$
