36141-82-9
ChemmineR-0915142007XD

 27 28  0  0  0  0  0  0  0  0  1 V2000
    1.1735   -4.0292    0.0000 C   0  0  0  0  0  0  0  0  0  0  0  0
   18.4443   -2.0342    0.0000 C   0  0  0  0  0  0  0  0  0  0  0  0
    1.1735   -2.6796    0.0000 N   0  0  0  0  0  0  0  0  0  0  0  0
   17.2707   -2.6796    0.0000 N   0  0  0  0  0  0  0  0  0  0  0  0
    0.0000   -4.6942    0.0000 O   0  0  0  0  0  0  0  0  0  0  0  0
   18.4443   -0.7041    0.0000 O   0  0  0  0  0  0  0  0  0  0  0  0
   16.0972   -1.9950    0.0000 C   0  0  0  0  0  0  0  0  0  0  0  0
    2.3471   -1.9950    0.0000 C   0  0  0  0  0  0  0  0  0  0  0  0
    4.6551   -0.6650    0.0000 C   0  0  0  0  0  0  0  0  0  0  0  0
   13.8088   -0.6650    0.0000 C   0  0  0  0  0  0  0  0  0  0  0  0
   16.0972   -0.6650    0.0000 C   0  0  0  0  0  0  0  0  0  0  0  0
    3.5011   -2.6796    0.0000 C   0  0  0  0  0  0  0  0  0  0  0  0
   14.9432   -2.6796    0.0000 C   0  0  0  0  0  0  0  0  0  0  0  0
    2.3471   -0.6650    0.0000 C   0  0  0  0  0  0  0  0  0  0  0  0
    4.6551   -1.9950    0.0000 C   0  0  0  0  0  0  0  0  0  0  0  0
   13.8088   -1.9950    0.0000 C   0  0  0  0  0  0  0  0  0  0  0  0
    3.5011    0.0000    0.0000 C   0  0  0  0  0  0  0  0  0  0  0  0
   14.9432    0.0000    0.0000 C   0  0  0  0  0  0  0  0  0  0  0  0
   12.6352    0.0000    0.0000 O   0  0  0  0  0  0  0  0  0  0  0  0
    5.7895    0.0000    0.0000 O   0  0  0  0  0  0  0  0  0  0  0  0
    9.2319   -0.6650    0.0000 O   0  0  0  0  0  0  0  0  0  0  0  0
    2.2884   -4.6942    0.0000 C   0  0  0  0  0  0  0  0  0  0  0  0
   19.5591   -2.6796    0.0000 C   0  0  0  0  0  0  0  0  0  0  0  0
    6.9435   -0.6650    0.0000 C   0  0  0  0  0  0  0  0  0  0  0  0
   11.5008   -0.6650    0.0000 C   0  0  0  0  0  0  0  0  0  0  0  0
   10.3663    0.0000    0.0000 C   0  0  0  0  0  0  0  0  0  0  0  0
    8.0975    0.0000    0.0000 C   0  0  0  0  0  0  0  0  0  0  0  0
  1  3  1  0  0  0  0
  1  5  2  0  0  0  0
  1 22  1  0  0  0  0
  2  4  1  0  0  0  0
  2  6  2  0  0  0  0
  2 23  1  0  0  0  0
  3  8  1  0  0  0  0
  4  7  1  0  0  0  0
  7 11  2  0  0  0  0
  7 13  1  0  0  0  0
  8 12  2  0  0  0  0
  8 14  1  0  0  0  0
  9 17  1  0  0  0  0
  9 20  1  0  0  0  0
  9 15  2  0  0  0  0
 10 19  1  0  0  0  0
 10 16  1  0  0  0  0
 10 18  2  0  0  0  0
 11 18  1  0  0  0  0
 12 15  1  0  0  0  0
 13 16  2  0  0  0  0
 14 17  2  0  0  0  0
 19 25  1  0  0  0  0
 20 24  1  0  0  0  0
 21 27  1  0  0  0  0
 21 26  1  0  0  0  0
 24 27  1  0  0  0  0
 25 26  1  0  0  0  0
M  END
> <ID>
11523

> <Formula>
C20H24N2O5

> <FW>
372.415

> <DSSTox_CID>
26229

> <DSSTox_RID>
81456

> <DSSTox_GSID>
46229

> <DSSTox_FileID_Sort>
6137

> <TS_ChemName>
Diamfenetide

> <TS_ChemName_Synonyms>


> <TS_CASRN>
36141-82-9

> <CASRN_ChemName_Relationship>
primary

> <TS_Description>
single chemical compound

> <ChemNote>


> <STRUCTURE_Shown>
tested chemical

> <STRUCTURE_Formula>
C20H24N2O5

> <STRUCTURE_MW>
372.415

> <STRUCTURE_ChemType>
defined organic

> <STRUCTURE_DefinedOrganicForm>
parent

> <STRUCTURE_IUPAC>
N,N'-[oxybis(ethane-2,1-diyloxybenzene-4,1-diyl)]diacetamide

> <STRUCTURE_SMILES>
CC(=O)Nc1ccc(cc1)OCCOCCOc2ccc(cc2)NC(C)=O

> <STRUCTURE_SMILES_Desalt>
CC(=O)Nc1ccc(cc1)OCCOCCOc2ccc(cc2)NC(C)=O

> <Substance_modify_yyyymmdd>
20110817

$$$$
