3616-78-2
ChemmineR-0915142007XD

 17 16  0  0  1  0  0  0  0  0  1 V2000
    3.4780   -5.9894    0.0000 C    0  0  0  0  0  0  0  0  0  0  0  0
    2.3054   -5.3160    0.0000 C    0  0  0  0  0  0  0  0  0  0  0  0
    2.3054   -3.9850    0.0000 C    0  0  0  0  0  0  0  0  0  0  0  0
    1.1408   -3.3354    0.0000 C    0  0  0  0  0  0  0  0  0  0  0  0
    4.6347   -6.6707    0.0000 F    0  0  0  0  0  0  0  0  0  0  0  0
    2.7966   -7.1778    0.0000 F    0  0  0  0  0  0  0  0  0  0  0  0
    4.1276   -4.8406    0.0000 F    0  0  0  0  0  0  0  0  0  0  0  0
    1.1408   -1.9648    0.0000 C    0  0  0  0  0  0  0  0  0  0  0  0
    3.4463   -1.9648    0.0000 N    0  0  0  0  0  0  0  0  0  0  0  0
    1.1408   -5.9498    0.0000 C    0  0  0  0  0  0  0  0  0  0  0  0
    2.3054   -1.3310    0.0000 C    0  0  0  0  0  0  0  0  0  0  0  0
    0.0000   -5.3160    0.0000 C    0  0  0  0  0  0  0  0  0  0  0  0
    0.0000   -3.9850    0.0000 C    0  0  0  0  0  0  0  0  0  0  0  0
    4.6030   -1.3310    0.0000 C    0  0  0  0  0  0  0  0  0  0  0  0
    2.3054    0.0000    0.0000 C    0  0  0  0  0  0  0  0  0  0  0  0
    5.7438   -1.9648    0.0000 C    0  0  0  0  0  0  0  0  0  0  0  0
    1.2834   -7.9225    0.0000 Cl   0  0  0  0  0  0  0  0  0  0  0  0
  1  2  1  0  0  0  0
  1  5  1  0  0  0  0
  1  6  1  0  0  0  0
  1  7  1  0  0  0  0
  2  3  2  0  0  0  0
  2 10  1  0  0  0  0
  3  4  1  0  0  0  0
  4  8  1  0  0  0  0
  4 13  2  0  0  0  0
  8 11  1  0  0  0  0
  9 11  1  0  0  0  0
  9 14  1  0  0  0  0
 10 12  2  0  0  0  0
 11 15  1  1  0  0  0
 12 13  1  0  0  0  0
 14 16  1  0  0  0  0
M  END
> <ID>
13861

> <Formula>
C12H17ClF3N

> <FW>
267.7183 (231.2573+36.4609)

> <DSSTox_CID>
28798

> <DSSTox_RID>
83067

> <DSSTox_GSID>
48872

> <DSSTox_FileID_Sort>
7744

> <TS_ChemName>
(-)-Fenfluramine hydrochloride

> <TS_ChemName_Synonyms>


> <TS_CASRN>
3616-78-2

> <CASRN_ChemName_Relationship>
primary

> <TS_Description>
single chemical compound

> <ChemNote>


> <STRUCTURE_Shown>
tested chemical

> <STRUCTURE_Formula>
C12H17ClF3N

> <STRUCTURE_MW>
267.7183

> <STRUCTURE_ChemType>
defined organic

> <STRUCTURE_DefinedOrganicForm>
complex

> <STRUCTURE_IUPAC>
(2R)-N-ethyl-1-[3-(trifluoromethyl)phenyl]propan-2-amine hydrochloride (1:1)

> <STRUCTURE_SMILES>
Cl.FC(F)(F)c1cccc(C[C@@H](C)NCC)c1

> <STRUCTURE_SMILES_Desalt>
FC(F)(F)c1cccc(C[C@@H](C)NCC)c1

> <Substance_modify_yyyymmdd>
20111204

$$$$
