36167-63-2
ChemmineR-0915142007XD

 34 35  0  0  0  0  0  0  0  0  1 V2000
    9.2281   -3.9826    0.0000 C    0  0  0  0  0  0  0  0  0  0  0  0
   10.3799   -3.3304    0.0000 C    0  0  0  0  0  0  0  0  0  0  0  0
   10.3799   -1.9983    0.0000 C    0  0  0  0  0  0  0  0  0  0  0  0
    8.0763   -3.3166    0.0000 C    0  0  0  0  0  0  0  0  0  0  0  0
    8.0763   -1.9844    0.0000 C    0  0  0  0  0  0  0  0  0  0  0  0
    8.0763   -7.2992    0.0000 C    0  0  0  0  0  0  0  0  0  0  0  0
    9.2281   -1.3322    0.0000 C    0  0  0  0  0  0  0  0  0  0  0  0
    9.2281   -5.3009    0.0000 C    0  0  0  0  0  0  0  0  0  0  0  0
   11.5316   -1.3461    0.0000 C    0  0  0  0  0  0  0  0  0  0  0  0
    8.0763   -5.9531    0.0000 C    0  0  0  0  0  0  0  0  0  0  0  0
   12.6973   -2.0121    0.0000 C    0  0  0  0  0  0  0  0  0  0  0  0
    6.9245   -3.9688    0.0000 C    0  0  0  0  0  0  0  0  0  0  0  0
   11.5316   -3.9826    0.0000 C    0  0  0  0  0  0  0  0  0  0  0  0
   12.6973   -3.3166    0.0000 C    0  0  0  0  0  0  0  0  0  0  0  0
    6.9245   -1.3322    0.0000 C    0  0  0  0  0  0  0  0  0  0  0  0
    5.7728   -1.9844    0.0000 C    0  0  0  0  0  0  0  0  0  0  0  0
    6.9245   -5.3009    0.0000 C    0  0  0  0  0  0  0  0  0  0  0  0
    9.4224   -7.2992    0.0000 F    0  0  0  0  0  0  0  0  0  0  0  0
    8.0763   -8.6175    0.0000 F    0  0  0  0  0  0  0  0  0  0  0  0
    6.7303   -7.2992    0.0000 F    0  0  0  0  0  0  0  0  0  0  0  0
   11.5316   -0.0139    0.0000 Cl   0  0  0  0  0  0  0  0  0  0  0  0
    5.7728   -3.3027    0.0000 C    0  0  0  0  0  0  0  0  0  0  0  0
    4.6210   -3.9410    0.0000 N    0  0  0  0  0  0  0  0  0  0  0  0
   13.8768   -3.9410    0.0000 Cl   0  0  0  0  0  0  0  0  0  0  0  0
    6.9245    0.0000    0.0000 O    0  0  0  0  0  0  0  0  0  0  0  0
    3.4276   -3.2749    0.0000 C    0  0  0  0  0  0  0  0  0  0  0  0
    4.6210   -5.2871    0.0000 C    0  0  0  0  0  0  0  0  0  0  0  0
    2.2897   -3.9410    0.0000 C    0  0  0  0  0  0  0  0  0  0  0  0
    3.4276   -5.9531    0.0000 C    0  0  0  0  0  0  0  0  0  0  0  0
    2.2897   -5.2871    0.0000 C    0  0  0  0  0  0  0  0  0  0  0  0
    1.1240   -3.3166    0.0000 C    0  0  0  0  0  0  0  0  0  0  0  0
    0.0000   -3.9965    0.0000 C    0  0  0  0  0  0  0  0  0  0  0  0
    1.1240   -5.9254    0.0000 C    0  0  0  0  0  0  0  0  0  0  0  0
   12.0867   -5.9948    0.0000 Cl   0  0  0  0  0  0  0  0  0  0  0  0
  1  2  1  0  0  0  0
  1  4  1  0  0  0  0
  1  8  2  0  0  0  0
  2  3  2  0  0  0  0
  2 13  1  0  0  0  0
  3  9  1  0  0  0  0
  3  7  1  0  0  0  0
  4  5  1  0  0  0  0
  4 12  2  0  0  0  0
  5  7  2  0  0  0  0
  5 15  1  0  0  0  0
  6 10  1  0  0  0  0
  6 18  1  0  0  0  0
  6 19  1  0  0  0  0
  6 20  1  0  0  0  0
  8 10  1  0  0  0  0
  9 21  1  0  0  0  0
  9 11  2  0  0  0  0
 10 17  2  0  0  0  0
 11 14  1  0  0  0  0
 12 17  1  0  0  0  0
 13 14  2  0  0  0  0
 14 24  1  0  0  0  0
 15 16  1  0  0  0  0
 15 25  1  0  0  0  0
 16 22  1  0  0  0  0
 22 23  1  0  0  0  0
 23 26  1  0  0  0  0
 23 27  1  0  0  0  0
 26 28  1  0  0  0  0
 27 29  1  0  0  0  0
 28 31  1  0  0  0  0
 29 30  1  0  0  0  0
 30 33  1  0  0  0  0
 31 32  1  0  0  0  0
M  END
> <ID>
10963

> <Formula>
C26H31Cl3F3NO

> <FW>
536.8846 (500.4237+36.4609)

> <DSSTox_CID>
25464

> <DSSTox_RID>
80895

> <DSSTox_GSID>
45464

> <DSSTox_FileID_Sort>
5576

> <TS_ChemName>
Halofantrine hydrochloride

> <TS_ChemName_Synonyms>


> <TS_CASRN>
36167-63-2

> <CASRN_ChemName_Relationship>
primary

> <TS_Description>
single chemical compound

> <ChemNote>
parent [69756-53-2]

> <STRUCTURE_Shown>
tested chemical

> <STRUCTURE_Formula>
C26H31Cl3F3NO

> <STRUCTURE_MW>
536.8846

> <STRUCTURE_ChemType>
defined organic

> <STRUCTURE_DefinedOrganicForm>
complex

> <STRUCTURE_IUPAC>
3-(dibutylamino)-1-[1,3-dichloro-6-(trifluoromethyl)phenanthren-9-yl]propan-1-ol hydrochloride (1:1)

> <STRUCTURE_SMILES>
Cl.CCCCN(CCCC)CCC(O)c2cc1c(Cl)cc(Cl)cc1c3cc(ccc23)C(F)(F)F

> <STRUCTURE_SMILES_Desalt>
CCCCN(CCCC)CCC(O)c2cc1c(Cl)cc(Cl)cc1c3cc(ccc23)C(F)(F)F

> <Substance_modify_yyyymmdd>
20100107

$$$$
