36177-92-1
ChemmineR-0915142007XD

 15 15  0  0  0  0  0  0  0  0  1 V2000
    1.3348   -2.4816    0.0000 N   0  0  0  0  0  0  0  0  0  0  0  0
    1.3348   -1.1562    0.0000 C   0  0  0  0  0  0  0  0  0  0  0  0
    2.4910   -3.1584    0.0000 C   0  0  0  0  0  0  0  0  0  0  0  0
    2.4910   -0.4982    0.0000 C   0  0  0  0  0  0  0  0  0  0  0  0
    3.6378   -2.4816    0.0000 C   0  0  0  0  0  0  0  0  0  0  0  0
    3.6378   -1.1562    0.0000 C   0  0  0  0  0  0  0  0  0  0  0  0
    4.7846   -0.4982    0.0000 N   0  0  0  0  0  0  0  0  0  0  0  0
    5.9314   -1.1562    0.0000 C   0  0  0  0  0  0  0  0  0  0  0  0
    7.0876   -0.4982    0.0000 C   0  0  0  0  0  0  0  0  0  0  0  0
    8.2439   -1.1562    0.0000 C   0  0  0  0  0  0  0  0  0  0  0  0
    9.4001   -0.4982    0.0000 C   0  0  0  0  0  0  0  0  0  0  0  0
    0.6580    0.0000    0.0000 C   0  0  0  0  0  0  0  0  0  0  0  0
    0.0000   -1.1562    0.0000 C   0  0  0  0  0  0  0  0  0  0  0  0
    3.1396   -4.3146    0.0000 C   0  0  0  0  0  0  0  0  0  0  0  0
    1.8142   -4.3146    0.0000 C   0  0  0  0  0  0  0  0  0  0  0  0
  1  2  1  0  0  0  0
  1  3  1  0  0  0  0
  2  4  1  0  0  0  0
  2 12  1  0  0  0  0
  2 13  1  0  0  0  0
  3  5  1  0  0  0  0
  3 14  1  0  0  0  0
  3 15  1  0  0  0  0
  4  6  1  0  0  0  0
  5  6  1  0  0  0  0
  6  7  1  0  0  0  0
  7  8  1  0  0  0  0
  8  9  1  0  0  0  0
  9 10  1  0  0  0  0
 10 11  1  0  0  0  0
M  END
> <ID>
10573

> <Formula>
C13H28N2

> <FW>
212.3748

> <DSSTox_CID>
24926

> <DSSTox_RID>
80591

> <DSSTox_GSID>
44926

> <DSSTox_FileID_Sort>
5273

> <TS_ChemName>
N-Butyl-2,2,6,6-tetramethylpiperidin-4-amine

> <TS_ChemName_Synonyms>


> <TS_CASRN>
36177-92-1

> <CASRN_ChemName_Relationship>
primary

> <TS_Description>
single chemical compound

> <ChemNote>


> <STRUCTURE_Shown>
tested chemical

> <STRUCTURE_Formula>
C13H28N2

> <STRUCTURE_MW>
212.3748

> <STRUCTURE_ChemType>
defined organic

> <STRUCTURE_DefinedOrganicForm>
parent

> <STRUCTURE_IUPAC>
N-butyl-2,2,6,6-tetramethylpiperidin-4-amine

> <STRUCTURE_SMILES>
CC1(C)CC(NCCCC)CC(C)(C)N1

> <STRUCTURE_SMILES_Desalt>
CC1(C)CC(NCCCC)CC(C)(C)N1

> <Substance_modify_yyyymmdd>
20091116

$$$$
