362-74-3
ChemmineR-0915142007XD

 32 35  0  0  1  0  0  0  0  0  1 V2000
    6.9125   -5.5322    0.0000 N   0  0  0  0  0  0  0  0  0  0  0  0
    6.9125   -7.7044    0.0000 C   0  0  0  0  0  0  0  0  0  0  0  0
    6.5052   -8.9715    0.0000 C   0  0  0  0  0  0  0  0  0  0  0  0
    5.6341   -5.1589    0.0000 C   0  0  0  0  0  0  0  0  0  0  0  0
    2.9528   -9.6956    0.0000 P   0  0  0  0  0  0  0  0  0  0  0  0
    5.1589   -8.9715    0.0000 C   0  0  0  0  0  0  0  0  0  0  0  0
    5.6341   -3.8918    0.0000 C   0  0  0  0  0  0  0  0  0  0  0  0
    6.8672   -3.5071    0.0000 N   0  0  0  0  0  0  0  0  0  0  0  0
    5.8377   -6.9125    0.0000 O   0  0  0  0  0  0  0  0  0  0  0  0
    7.6139   -4.5140    0.0000 C   0  0  0  0  0  0  0  0  0  0  0  0
    4.5367   -3.2243    0.0000 C   0  0  0  0  0  0  0  0  0  0  0  0
    4.7516   -7.7044    0.0000 C   0  0  0  0  0  0  0  0  0  0  0  0
    4.2765   -9.9671    0.0000 O   0  0  0  0  0  0  0  0  0  0  0  0
    4.5367   -1.9346    0.0000 N   0  0  0  0  0  0  0  0  0  0  0  0
    2.5455   -8.4171    0.0000 O   0  0  0  0  0  0  0  0  0  0  0  0
    4.5140   -5.7472    0.0000 N   0  0  0  0  0  0  0  0  0  0  0  0
    3.5411   -3.8692    0.0000 N   0  0  0  0  0  0  0  0  0  0  0  0
    7.2971  -10.0576    0.0000 O   0  0  0  0  0  0  0  0  0  0  0  0
    3.4506   -7.4216    0.0000 C   0  0  0  0  0  0  0  0  0  0  0  0
    3.4619   -1.2897    0.0000 C   0  0  0  0  0  0  0  0  0  0  0  0
    2.6700  -10.9966    0.0000 O   0  0  0  0  0  0  0  0  0  0  0  0
    3.5411   -5.1250    0.0000 C   0  0  0  0  0  0  0  0  0  0  0  0
    8.6208  -10.0576    0.0000 C   0  0  0  0  0  0  0  0  0  0  0  0
    1.6744  -10.1028    0.0000 O   0  0  0  0  0  0  0  0  0  0  0  0
    3.4619    0.0000    0.0000 O   0  0  0  0  0  0  0  0  0  0  0  0
    9.2996  -11.2229    0.0000 O   0  0  0  0  0  0  0  0  0  0  0  0
    2.3079   -1.9006    0.0000 C   0  0  0  0  0  0  0  0  0  0  0  0
    9.2996   -8.9036    0.0000 C   0  0  0  0  0  0  0  0  0  0  0  0
    1.0635   -1.2897    0.0000 C   0  0  0  0  0  0  0  0  0  0  0  0
   10.6346   -8.9036    0.0000 C   0  0  0  0  0  0  0  0  0  0  0  0
    0.0000   -1.9006    0.0000 C   0  0  0  0  0  0  0  0  0  0  0  0
   11.3134   -7.7383    0.0000 C   0  0  0  0  0  0  0  0  0  0  0  0
  2  1  1  1  0  0  0
  1  4  1  0  0  0  0
  1 10  1  0  0  0  0
  2  3  1  0  0  0  0
  2  9  1  0  0  0  0
  3  6  1  0  0  0  0
  3 18  1  6  0  0  0
  4  7  2  0  0  0  0
  4 16  1  0  0  0  0
  5 13  1  0  0  0  0
  5 21  2  0  0  0  0
  5 24  1  0  0  0  0
  5 15  1  0  0  0  0
  6 13  1  6  0  0  0
  6 12  1  0  0  0  0
  7 11  1  0  0  0  0
  7  8  1  0  0  0  0
  8 10  2  0  0  0  0
  9 12  1  0  0  0  0
 11 14  1  0  0  0  0
 11 17  2  0  0  0  0
 12 19  1  1  0  0  0
 14 20  1  0  0  0  0
 15 19  1  0  0  0  0
 16 22  2  0  0  0  0
 17 22  1  0  0  0  0
 18 23  1  0  0  0  0
 20 25  2  0  0  0  0
 20 27  1  0  0  0  0
 23 26  2  0  0  0  0
 23 28  1  0  0  0  0
 27 29  1  0  0  0  0
 28 30  1  0  0  0  0
 29 31  1  0  0  0  0
 30 32  1  0  0  0  0
M  END
> <ID>
7767

> <Formula>
C18H24N5O8P

> <FW>
469.3856

> <DSSTox_CID>
20459

> <DSSTox_RID>
79495

> <DSSTox_GSID>
40459

> <DSSTox_FileID_Sort>
4177

> <TS_ChemName>
Bucladesine

> <TS_ChemName_Synonyms>
dibutyryl cAMP (DBA) (Dibutyryl Cyclic Adenosine Monophosphate) (Bucladesine)

> <TS_CASRN>
362-74-3

> <CASRN_ChemName_Relationship>
primary

> <TS_Description>
single chemical compound

> <ChemNote>
stereochem

> <STRUCTURE_Shown>
tested chemical

> <STRUCTURE_Formula>
C18H24N5O8P

> <STRUCTURE_MW>
469.3856

> <STRUCTURE_ChemType>
defined organic

> <STRUCTURE_DefinedOrganicForm>
parent

> <STRUCTURE_IUPAC>
(4aR,6R,7R,7aR)-6-[6-(butanoylamino)-9H-purin-9-yl]-2-hydroxy-2-oxidotetrahydro-4H-furo[3,2-d][1,3,2]dioxaphosphinin-7-yl butanoate

> <STRUCTURE_SMILES>
CCCC(=O)Nc4ncnc3c4ncn3[C@@H]2O[C@@H]1COP(=O)(O)O[C@H]1[C@H]2OC(=O)CCC

> <STRUCTURE_SMILES_Desalt>
CCCC(=O)Nc4ncnc3c4ncn3[C@@H]2O[C@@H]1COP(=O)(O)O[C@H]1[C@H]2OC(=O)CCC

> <Substance_modify_yyyymmdd>
20080429

$$$$
