362043-46-7
ChemmineR-0915142007XD

 23 22  0  0  0  0  0  0  0  0  2 V2000
    2.4338    0.0000    0.0000 C   0  0  0  0  0  0  0  0  0  0  0  0
    6.4609  -12.5454    0.0000 C   0  0  0  0  0  0  0  0  0  0  0  0
    5.3820  -11.9181    0.0000 C   0  0  0  0  0  0  0  0  0  0  0  0
    5.3820  -10.6887    0.0000 C   0  0  0  0  0  0  0  0  0  0  0  0
    4.3282  -10.0740    0.0000 C   0  0  0  0  0  0  0  0  0  0  0  0
    4.3282   -8.8320    0.0000 C   0  0  0  0  0  0  0  0  0  0  0  0
    3.2367   -8.2172    0.0000 C   0  0  0  0  0  0  0  0  0  0  0  0
    3.2367   -6.9878    0.0000 C   0  0  0  0  0  0  0  0  0  0  0  0
    2.1704   -6.3605    0.0000 C   0  0  0  0  0  0  0  0  0  0  0  0
    2.1704   -5.1311    0.0000 C   0  0  0  0  0  0  0  0  0  0  0  0
    1.1040   -4.5038    0.0000 C   0  0  0  0  0  0  0  0  0  0  0  0
    0.4642   -1.3675    0.0000 C   0  0  0  0  0  0  0  0  0  0  0  0
    0.0878   -2.5593    0.0000 C   0  0  0  0  0  0  0  0  0  0  0  0
    2.0951   -2.5467    0.0000 C   0  0  0  0  0  0  0  0  0  0  0  0
    1.7062   -1.3675    0.0000 N   0  3  0  0  0  0  0  0  0  0  0  0
    1.0789   -3.2744    0.0000 N   0  0  0  0  0  0  0  0  0  0  0  0
    2.2833  -12.3196    0.0000 F   0  0  0  0  0  0  0  0  0  0  0  0
    0.2133  -12.3698    0.0000 F   0  0  0  0  0  0  0  0  0  0  0  0
    0.2133   -9.7603    0.0000 F   0  0  0  0  0  0  0  0  0  0  0  0
    2.1578   -9.6223    0.0000 F   0  0  0  0  0  0  0  0  0  0  0  0
    0.0000  -11.1152    0.0000 F   0  0  0  0  0  0  0  0  0  0  0  0
    2.4840  -11.1152    0.0000 F   0  0  0  0  0  0  0  0  0  0  0  0
    1.2295  -11.1152    0.0000 P   0  5  0  0  0  0  0  0  0  0  0  0
  1 15  1  0  0  0  0
  2  3  1  0  0  0  0
  3  4  1  0  0  0  0
  4  5  1  0  0  0  0
  5  6  1  0  0  0  0
  6  7  1  0  0  0  0
  7  8  1  0  0  0  0
  8  9  1  0  0  0  0
  9 10  1  0  0  0  0
 10 11  1  0  0  0  0
 11 16  1  0  0  0  0
 12 13  2  0  0  0  0
 12 15  1  0  0  0  0
 13 16  1  0  0  0  0
 14 15  2  0  0  0  0
 14 16  1  0  0  0  0
 17 23  1  0  0  0  0
 18 23  1  0  0  0  0
 19 23  1  0  0  0  0
 20 23  1  0  0  0  0
 21 23  1  0  0  0  0
 22 23  1  0  0  0  0
M  END
> <ID>
14146

> <Formula>
C14H27F6N2P

> <FW>
368.3418 (223.3770+144.9647)

> <DSSTox_CID>
29139

> <DSSTox_RID>
83358

> <DSSTox_GSID>
49283

> <DSSTox_FileID_Sort>
8033

> <TS_ChemName>
1-Decyl-3-methylimidazolium hexafluorophosphate

> <TS_ChemName_Synonyms>


> <TS_CASRN>
362043-46-7

> <CASRN_ChemName_Relationship>
primary

> <TS_Description>
single chemical compound

> <ChemNote>


> <STRUCTURE_Shown>
tested chemical

> <STRUCTURE_Formula>
C14H27F6N2P

> <STRUCTURE_MW>
368.3418

> <STRUCTURE_ChemType>
defined organic

> <STRUCTURE_DefinedOrganicForm>
complex

> <STRUCTURE_IUPAC>
1-decyl-3-methyl-1H-imidazol-3-ium hexafluorophosphate

> <STRUCTURE_SMILES>
F[P-](F)(F)(F)(F)F.C[n+]1ccn(CCCCCCCCCC)c1

> <STRUCTURE_SMILES_Desalt>
C[n+]1ccn(CCCCCCCCCC)c1

> <Substance_modify_yyyymmdd>
20111204

$$$$
