3622-84-2
ChemmineR-0915142007XD

 14 14  0  0  0  0  0  0  0  0  1 V2000
    2.2933   -1.9986    0.0000 C   0  0  0  0  0  0  0  0  0  0  0  0
    1.1513   -2.6617    0.0000 C   0  0  0  0  0  0  0  0  0  0  0  0
    0.0000   -1.9986    0.0000 C   0  0  0  0  0  0  0  0  0  0  0  0
    0.0000   -0.6723    0.0000 C   0  0  0  0  0  0  0  0  0  0  0  0
    1.1513    0.0000    0.0000 C   0  0  0  0  0  0  0  0  0  0  0  0
    2.2933   -0.6723    0.0000 C   0  0  0  0  0  0  0  0  0  0  0  0
    3.4446   -2.6617    0.0000 S   0  0  0  0  0  0  0  0  0  0  0  0
    2.7907   -3.8130    0.0000 O   0  0  0  0  0  0  0  0  0  0  0  0
    4.1169   -1.5105    0.0000 O   0  0  0  0  0  0  0  0  0  0  0  0
    4.5958   -3.3341    0.0000 N   0  0  0  0  0  0  0  0  0  0  0  0
    5.7471   -2.6617    0.0000 C   0  0  0  0  0  0  0  0  0  0  0  0
    6.9076   -3.3341    0.0000 C   0  0  0  0  0  0  0  0  0  0  0  0
    8.0588   -2.6617    0.0000 C   0  0  0  0  0  0  0  0  0  0  0  0
    9.2101   -3.3341    0.0000 C   0  0  0  0  0  0  0  0  0  0  0  0
  1  2  2  0  0  0  0
  1  6  1  0  0  0  0
  1  7  1  0  0  0  0
  2  3  1  0  0  0  0
  3  4  2  0  0  0  0
  4  5  1  0  0  0  0
  5  6  2  0  0  0  0
  7  8  2  0  0  0  0
  7 10  1  0  0  0  0
  7  9  2  0  0  0  0
 10 11  1  0  0  0  0
 11 12  1  0  0  0  0
 12 13  1  0  0  0  0
 13 14  1  0  0  0  0
M  END
> <ID>
5232

> <Formula>
C10H15NO2S

> <FW>
213.2966

> <DSSTox_CID>
7540

> <DSSTox_RID>
78496

> <DSSTox_GSID>
27540

> <DSSTox_FileID_Sort>
3179

> <TS_ChemName>
N-Butylbenzenesulfonamide

> <TS_ChemName_Synonyms>


> <TS_CASRN>
3622-84-2

> <CASRN_ChemName_Relationship>
primary

> <TS_Description>
single chemical compound

> <ChemNote>


> <STRUCTURE_Shown>
tested chemical

> <STRUCTURE_Formula>
C10H15NO2S

> <STRUCTURE_MW>
213.2966

> <STRUCTURE_ChemType>
defined organic

> <STRUCTURE_DefinedOrganicForm>
parent

> <STRUCTURE_IUPAC>
N-butylbenzenesulfonamide

> <STRUCTURE_SMILES>
O=S(=O)(NCCCC)c1ccccc1

> <STRUCTURE_SMILES_Desalt>
O=S(=O)(NCCCC)c1ccccc1

> <Substance_modify_yyyymmdd>
20080429

$$$$
