363-24-6
ChemmineR-0915142007XD

 25 25  0  0  1  0  0  0  0  0  1 V2000
    2.7529   -8.8804    0.0000 O   0  0  0  0  0  0  0  0  0  0  0  0
    2.3422   -7.6150    0.0000 C   0  0  0  0  0  0  0  0  0  0  0  0
    1.0768   -7.2043    0.0000 C   0  0  0  0  0  0  0  0  0  0  0  0
    1.0768   -5.8722    0.0000 C   0  0  0  0  0  0  0  0  0  0  0  0
    0.0000   -5.0952    0.0000 O   0  0  0  0  0  0  0  0  0  0  0  0
    2.3422   -5.4615    0.0000 C   0  0  0  0  0  0  0  0  0  0  0  0
    2.7529   -4.1960    0.0000 C   0  0  0  0  0  0  0  0  0  0  0  0
    1.8094   -3.2636    0.0000 C   0  0  0  0  0  0  0  0  0  0  0  0
    2.1535   -1.9759    0.0000 C   0  0  0  0  0  0  0  0  0  0  0  0
    3.4412   -1.6318    0.0000 C   0  0  0  0  0  0  0  0  0  0  0  0
    4.3847   -2.5753    0.0000 C   0  0  0  0  0  0  0  0  0  0  0  0
    5.6613   -2.2312    0.0000 C   0  0  0  0  0  0  0  0  0  0  0  0
    6.0054   -0.9435    0.0000 C   0  0  0  0  0  0  0  0  0  0  0  0
    5.0730    0.0000    0.0000 O   0  0  0  0  0  0  0  0  0  0  0  0
    7.2931   -0.5994    0.0000 O   0  0  0  0  0  0  0  0  0  0  0  0
    3.1193   -6.5382    0.0000 C   0  0  0  0  0  0  0  0  0  0  0  0
    4.4513   -6.5382    0.0000 C   0  0  0  0  0  0  0  0  0  0  0  0
    5.1174   -7.6927    0.0000 C   0  0  0  0  0  0  0  0  0  0  0  0
    6.4494   -7.6927    0.0000 C   0  0  0  0  0  0  0  0  0  0  0  0
    7.1155   -8.8471    0.0000 O   0  0  0  0  0  0  0  0  0  0  0  0
    7.1155   -6.5382    0.0000 C   0  0  0  0  0  0  0  0  0  0  0  0
    8.4364   -6.5382    0.0000 C   0  0  0  0  0  0  0  0  0  0  0  0
    9.1024   -5.3838    0.0000 C   0  0  0  0  0  0  0  0  0  0  0  0
   10.4345   -5.3838    0.0000 C   0  0  0  0  0  0  0  0  0  0  0  0
   11.1005   -4.2404    0.0000 C   0  0  0  0  0  0  0  0  0  0  0  0
  2  1  1  6  0  0  0
  2  3  1  0  0  0  0
  2 16  1  0  0  0  0
  3  4  1  0  0  0  0
  4  5  2  0  0  0  0
  4  6  1  0  0  0  0
  6  7  1  6  0  0  0
  6 16  1  0  0  0  0
  7  8  1  0  0  0  0
  8  9  2  0  0  0  0
  9 10  1  0  0  0  0
 10 11  1  0  0  0  0
 11 12  1  0  0  0  0
 12 13  1  0  0  0  0
 13 14  1  0  0  0  0
 13 15  2  0  0  0  0
 16 17  1  1  0  0  0
 17 18  2  0  0  0  0
 18 19  1  0  0  0  0
 19 20  1  6  0  0  0
 19 21  1  0  0  0  0
 21 22  1  0  0  0  0
 22 23  1  0  0  0  0
 23 24  1  0  0  0  0
 24 25  1  0  0  0  0
M  END
> <ID>
2654

> <Formula>
C20H32O5

> <FW>
352.4651

> <DSSTox_CID>
2947

> <DSSTox_RID>
76801

> <DSSTox_GSID>
22947

> <DSSTox_FileID_Sort>
1485

> <TS_ChemName>
Dinoprostone

> <TS_ChemName_Synonyms>
Dinoprostone (Prostaglandin E2) (PGE2)

> <TS_CASRN>
363-24-6

> <CASRN_ChemName_Relationship>
primary

> <TS_Description>
single chemical compound

> <ChemNote>
stereochem

> <STRUCTURE_Shown>
tested chemical

> <STRUCTURE_Formula>
C20H32O5

> <STRUCTURE_MW>
352.4651

> <STRUCTURE_ChemType>
defined organic

> <STRUCTURE_DefinedOrganicForm>
parent

> <STRUCTURE_IUPAC>
(5Z,11alpha,13E,15S)-11,15-dihydroxy-9-oxoprosta-5,13-dien-1-oic acid

> <STRUCTURE_SMILES>
O[C@@H]1CC(=O)[C@H](C/C=C\CCCC(=O)O)[C@H]1/C=C/[C@@H](O)CCCCC

> <STRUCTURE_SMILES_Desalt>
O[C@@H]1CC(=O)[C@H](C/C=C\CCCC(=O)O)[C@H]1/C=C/[C@@H](O)CCCCC

> <Substance_modify_yyyymmdd>
20080429

$$$$
