36304-84-4
ChemmineR-0915142007XD

 25 27  0  0  1  0  0  0  0  0  1 V2000
    2.6482   -2.3294    0.0000 C   0  0  0  0  0  0  0  0  0  0  0  0
    3.9679   -2.3294    0.0000 C   0  0  0  0  0  0  0  0  0  0  0  0
    2.6482   -4.6499    0.0000 C   0  0  0  0  0  0  0  0  0  0  0  0
    1.9928   -3.4542    0.0000 C   0  0  0  0  0  0  0  0  0  0  0  0
    2.0371   -5.2611    0.0000 N   0  0  0  0  0  0  0  0  0  0  0  0
    4.6322   -3.4542    0.0000 C   0  0  0  0  0  0  0  0  0  0  0  0
    3.9679   -4.6499    0.0000 C   0  0  0  0  0  0  0  0  0  0  0  0
    1.3551   -2.3294    0.0000 C   0  0  0  0  0  0  0  0  0  0  0  0
    1.3551   -4.8625    0.0000 C   0  0  0  0  0  0  0  0  0  0  0  0
    4.6322   -1.1603    0.0000 C   0  0  0  0  0  0  0  0  0  0  0  0
    5.9608   -3.4542    0.0000 C   0  0  0  0  0  0  0  0  0  0  0  0
    5.9608   -1.1603    0.0000 C   0  0  0  0  0  0  0  0  0  0  0  0
    1.9574   -1.1603    0.0000 C   0  0  0  0  0  0  0  0  0  0  0  0
    6.6428   -2.3294    0.0000 C   0  0  0  0  0  0  0  0  0  0  0  0
    2.0371   -6.5011    0.0000 C   0  0  0  0  0  0  0  0  0  0  0  0
    0.6377   -3.4542    0.0000 C   0  0  0  0  0  0  0  0  0  0  0  0
    6.6428    0.0000    0.0000 C   0  0  0  0  0  0  0  0  0  0  0  0
    0.6377   -1.1603    0.0000 C   0  0  0  0  0  0  0  0  0  0  0  0
    0.0000   -2.3294    0.0000 C   0  0  0  0  0  0  0  0  0  0  0  0
    3.2328   -3.4542    0.0000 H   0  0  0  0  0  0  0  0  0  0  0  0
    5.2699   -7.5373    0.0000 P   0  0  0  0  0  0  0  0  0  0  0  0
    6.5985   -7.5373    0.0000 O   0  0  0  0  0  0  0  0  0  0  0  0
    5.2699   -8.8570    0.0000 O   0  0  0  0  0  0  0  0  0  0  0  0
    5.2699   -6.2088    0.0000 O   0  0  0  0  0  0  0  0  0  0  0  0
    3.9502   -7.5373    0.0000 O   0  0  0  0  0  0  0  0  0  0  0  0
  1  2  1  0  0  0  0
  1  4  1  0  0  0  0
  1  8  1  6  0  0  0
  1 13  1  0  0  0  0
  2  6  2  0  0  0  0
  2 10  1  0  0  0  0
  3  4  1  0  0  0  0
  3  7  1  0  0  0  0
  3  5  1  6  0  0  0
  4 16  1  0  0  0  0
  4 20  1  6  0  0  0
  5  9  1  0  0  0  0
  5 15  1  0  0  0  0
  6 11  1  0  0  0  0
  6  7  1  0  0  0  0
  8  9  1  0  0  0  0
 10 12  2  0  0  0  0
 11 14  2  0  0  0  0
 12 14  1  0  0  0  0
 12 17  1  0  0  0  0
 13 18  1  0  0  0  0
 16 19  1  0  0  0  0
 18 19  1  0  0  0  0
 21 22  2  0  0  0  0
 21 23  1  0  0  0  0
 21 24  1  0  0  0  0
 21 25  1  0  0  0  0
M  END
> <ID>
13715

> <Formula>
C18H28NO4P

> <FW>
353.3930 (255.3978+97.9952)

> <DSSTox_CID>
28649

> <DSSTox_RID>
82919

> <DSSTox_GSID>
48723

> <DSSTox_FileID_Sort>
7596

> <TS_ChemName>
Dimemorfan phosphate

> <TS_ChemName_Synonyms>


> <TS_CASRN>
36304-84-4

> <CASRN_ChemName_Relationship>
primary

> <TS_Description>
single chemical compound

> <ChemNote>


> <STRUCTURE_Shown>
tested chemical

> <STRUCTURE_Formula>
C18H28NO4P

> <STRUCTURE_MW>
353.393

> <STRUCTURE_ChemType>
defined organic

> <STRUCTURE_DefinedOrganicForm>
complex

> <STRUCTURE_IUPAC>
(9alpha,13alpha,14alpha)-3,17-dimethylmorphinan phosphate (1:1)

> <STRUCTURE_SMILES>
O=P(O)(O)O.Cc3ccc4C[C@@H]1N(C)CC[C@]2(CCCC[C@H]12)c4c3

> <STRUCTURE_SMILES_Desalt>
Cc3ccc4C[C@@H]1N(C)CC[C@]2(CCCC[C@H]12)c4c3

> <Substance_modify_yyyymmdd>
20111204

$$$$
