36330-85-5
ChemmineR-0915142007XD

 19 20  0  0  0  0  0  0  0  0  1 V2000
    0.6708   -4.6119    0.0000 C   0  0  0  0  0  0  0  0  0  0  0  0
    0.0000   -3.4620    0.0000 C   0  0  0  0  0  0  0  0  0  0  0  0
    0.6708   -2.3120    0.0000 C   0  0  0  0  0  0  0  0  0  0  0  0
    2.0005   -2.3120    0.0000 C   0  0  0  0  0  0  0  0  0  0  0  0
    2.6594   -3.4620    0.0000 C   0  0  0  0  0  0  0  0  0  0  0  0
    3.9890   -3.4620    0.0000 C   0  0  0  0  0  0  0  0  0  0  0  0
    4.6599   -2.3120    0.0000 C   0  0  0  0  0  0  0  0  0  0  0  0
    5.9895   -2.3120    0.0000 C   0  0  0  0  0  0  0  0  0  0  0  0
    6.6604   -3.4620    0.0000 C   0  0  0  0  0  0  0  0  0  0  0  0
    7.9900   -3.4620    0.0000 C   0  0  0  0  0  0  0  0  0  0  0  0
    8.6489   -4.6119    0.0000 O   0  0  0  0  0  0  0  0  0  0  0  0
    8.6489   -2.3120    0.0000 C   0  0  0  0  0  0  0  0  0  0  0  0
    9.9786   -2.3120    0.0000 C   0  0  0  0  0  0  0  0  0  0  0  0
   10.6494   -1.1500    0.0000 C   0  0  0  0  0  0  0  0  0  0  0  0
    9.9786    0.0000    0.0000 O   0  0  0  0  0  0  0  0  0  0  0  0
   11.9791   -1.1500    0.0000 O   0  0  0  0  0  0  0  0  0  0  0  0
    5.9895   -4.6119    0.0000 C   0  0  0  0  0  0  0  0  0  0  0  0
    4.6599   -4.6119    0.0000 C   0  0  0  0  0  0  0  0  0  0  0  0
    2.0005   -4.6119    0.0000 C   0  0  0  0  0  0  0  0  0  0  0  0
  1  2  2  0  0  0  0
  1 19  1  0  0  0  0
  2  3  1  0  0  0  0
  3  4  2  0  0  0  0
  4  5  1  0  0  0  0
  5  6  1  0  0  0  0
  5 19  2  0  0  0  0
  6  7  2  0  0  0  0
  6 18  1  0  0  0  0
  7  8  1  0  0  0  0
  8  9  2  0  0  0  0
  9 10  1  0  0  0  0
  9 17  1  0  0  0  0
 10 11  2  0  0  0  0
 10 12  1  0  0  0  0
 12 13  1  0  0  0  0
 13 14  1  0  0  0  0
 14 15  1  0  0  0  0
 14 16  2  0  0  0  0
 17 18  2  0  0  0  0
M  END
> <ID>
2736

> <Formula>
C16H14O3

> <FW>
254.2806

> <DSSTox_CID>
3043

> <DSSTox_RID>
76849

> <DSSTox_GSID>
23043

> <DSSTox_FileID_Sort>
1533

> <TS_ChemName>
Fenbufen

> <TS_ChemName_Synonyms>


> <TS_CASRN>
36330-85-5

> <CASRN_ChemName_Relationship>
primary

> <TS_Description>
single chemical compound

> <ChemNote>


> <STRUCTURE_Shown>
tested chemical

> <STRUCTURE_Formula>
C16H14O3

> <STRUCTURE_MW>
254.2806

> <STRUCTURE_ChemType>
defined organic

> <STRUCTURE_DefinedOrganicForm>
parent

> <STRUCTURE_IUPAC>
4-(biphenyl-4-yl)-4-oxobutanoic acid

> <STRUCTURE_SMILES>
O=C(CCC(=O)O)c1ccc(cc1)c2ccccc2

> <STRUCTURE_SMILES_Desalt>
O=C(CCC(=O)O)c1ccc(cc1)c2ccccc2

> <Substance_modify_yyyymmdd>
20080429

$$$$
