36362-97-7
ChemmineR-0915142007XD

 15 15  0  0  0  0  0  0  0  0  1 V2000
    0.0000   -4.6067    0.0000 O   0  0  0  0  0  0  0  0  0  0  0  0
    0.6630   -3.4533    0.0000 C   0  0  0  0  0  0  0  0  0  0  0  0
    1.9960   -3.4533    0.0000 C   0  0  0  0  0  0  0  0  0  0  0  0
    2.6590   -2.2999    0.0000 C   0  0  0  0  0  0  0  0  0  0  0  0
    1.9960   -1.1534    0.0000 C   0  0  0  0  0  0  0  0  0  0  0  0
    0.6630   -1.1534    0.0000 O   0  0  0  0  0  0  0  0  0  0  0  0
    2.6590    0.0000    0.0000 O   0  0  0  0  0  0  0  0  0  0  0  0
    3.9851   -2.2999    0.0000 C   0  0  0  0  0  0  0  0  0  0  0  0
    4.6551   -3.4533    0.0000 C   0  0  0  0  0  0  0  0  0  0  0  0
    3.9851   -4.6067    0.0000 C   0  0  0  0  0  0  0  0  0  0  0  0
    2.6590   -4.6067    0.0000 C   0  0  0  0  0  0  0  0  0  0  0  0
    1.9960   -5.7532    0.0000 C   0  0  0  0  0  0  0  0  0  0  0  0
    2.6590   -6.9066    0.0000 O   0  0  0  0  0  0  0  0  0  0  0  0
    0.6630   -5.7532    0.0000 O   0  0  0  0  0  0  0  0  0  0  0  0
    0.0000   -2.2999    0.0000 O   0  0  0  0  0  0  0  0  0  0  0  0
  1  2  2  0  0  0  0
  2  3  1  0  0  0  0
  2 15  1  0  0  0  0
  3  4  1  0  0  0  0
  3 11  2  0  0  0  0
  4  5  1  0  0  0  0
  4  8  2  0  0  0  0
  5  6  1  0  0  0  0
  5  7  2  0  0  0  0
  8  9  1  0  0  0  0
  9 10  2  0  0  0  0
 10 11  1  0  0  0  0
 11 12  1  0  0  0  0
 12 13  1  0  0  0  0
 12 14  2  0  0  0  0
M  END
> <ID>
1427

> <Formula>
C9H6O6

> <FW>
210.1403

> <DSSTox_CID>
1486

> <DSSTox_RID>
76180

> <DSSTox_GSID>
21486

> <DSSTox_FileID_Sort>
864

> <TS_ChemName>
1,2,3-Benzenetricarboxylic acid

> <TS_ChemName_Synonyms>


> <TS_CASRN>
36362-97-7

> <CASRN_ChemName_Relationship>
primary

> <TS_Description>
single chemical compound

> <ChemNote>


> <STRUCTURE_Shown>
tested chemical

> <STRUCTURE_Formula>
C9H6O6

> <STRUCTURE_MW>
210.1403

> <STRUCTURE_ChemType>
defined organic

> <STRUCTURE_DefinedOrganicForm>
parent

> <STRUCTURE_IUPAC>
benzene-1,2,3-tricarboxylic acid

> <STRUCTURE_SMILES>
OC(=O)c1c(cccc1C(=O)O)C(=O)O

> <STRUCTURE_SMILES_Desalt>
OC(=O)c1c(cccc1C(=O)O)C(=O)O

> <Substance_modify_yyyymmdd>
20080429

$$$$
