36415-61-9
ChemmineR-0915142007XD

 26 29  0  0  1  0  0  0  0  0  1 V2000
    3.1916   -1.8699    0.0000 C    0  0  0  0  0  0  0  0  0  0  0  0
    3.1916   -3.0741    0.0000 C    0  0  0  0  0  0  0  0  0  0  0  0
    2.1147   -1.2531    0.0000 C    0  0  0  0  0  0  0  0  0  0  0  0
    2.1147   -3.7007    0.0000 C    0  0  0  0  0  0  0  0  0  0  0  0
    1.0769   -1.8699    0.0000 C    0  0  0  0  0  0  0  0  0  0  0  0
    1.0769   -3.0741    0.0000 C    0  0  0  0  0  0  0  0  0  0  0  0
    5.3062   -1.8699    0.0000 C    0  0  0  0  0  0  0  0  0  0  0  0
    4.2293   -3.7007    0.0000 N    0  0  0  0  0  0  0  0  0  0  0  0
    5.3062   -3.0741    0.0000 C    0  0  0  0  0  0  0  0  0  0  0  0
    7.4307   -1.8699    0.0000 N    0  0  0  0  0  0  0  0  0  0  0  0
    6.3538   -3.7007    0.0000 C    0  0  0  0  0  0  0  0  0  0  0  0
    7.4307   -3.0741    0.0000 C    0  0  0  0  0  0  0  0  0  0  0  0
    6.3538   -4.9440    0.0000 C    0  0  0  0  0  0  0  0  0  0  0  0
    7.4307   -5.5216    0.0000 C    0  0  0  0  0  0  0  0  0  0  0  0
    8.4684   -3.7007    0.0000 C    0  0  0  0  0  0  0  0  0  0  0  0
    8.4684   -4.9440    0.0000 C    0  0  0  0  0  0  0  0  0  0  0  0
    5.7664   -0.9594    0.0000 C    0  0  0  0  0  0  0  0  0  0  0  0
    6.9608   -0.9594    0.0000 C    0  0  0  0  0  0  0  0  0  0  0  0
    9.3398   -3.7007    0.0000 C    0  0  0  0  0  0  0  0  0  0  0  0
    9.7901   -4.4447    0.0000 C    0  0  0  0  0  0  0  0  0  0  0  0
    8.7524   -1.0769    0.0000 C    0  0  0  0  0  0  0  0  0  0  0  0
    7.4307   -4.1118    0.0000 H    0  0  0  0  0  0  0  0  0  0  0  0
    6.3538   -2.6923    0.0000 H    0  0  0  0  0  0  0  0  0  0  0  0
    0.0000   -1.2531    0.0000 O    0  0  0  0  0  0  0  0  0  0  0  0
    0.0000    0.0000    0.0000 C    0  0  0  0  0  0  0  0  0  0  0  0
    3.7692   -5.6391    0.0000 Cl   0  0  0  0  0  0  0  0  0  0  0  0
  1  3  1  0  0  0  0
  1  7  1  0  0  0  0
  1  2  2  0  0  0  0
  2  4  1  0  0  0  0
  2  8  1  0  0  0  0
  3  5  2  0  0  0  0
  4  6  2  0  0  0  0
  5  6  1  0  0  0  0
  5 24  1  0  0  0  0
  7  9  2  0  0  0  0
  7 17  1  0  0  0  0
  8  9  1  0  0  0  0
  9 11  1  0  0  0  0
 10 12  1  0  0  0  0
 10 18  1  0  0  0  0
 10 21  1  1  0  0  0
 11 13  1  0  0  0  0
 11 12  1  0  0  0  0
 11 23  1  6  0  0  0
 12 15  1  0  0  0  0
 12 22  1  6  0  0  0
 13 14  1  0  0  0  0
 14 16  1  0  0  0  0
 14 21  1  1  0  0  0
 15 16  1  0  0  0  0
 15 19  1  1  0  0  0
 17 18  1  0  0  0  0
 19 20  1  0  0  0  0
 24 25  1  0  0  0  0
M  END
> <ID>
13866

> <Formula>
C20H27ClN2O

> <FW>
346.8942 (310.4332+36.4609)

> <DSSTox_CID>
28803

> <DSSTox_RID>
83072

> <DSSTox_GSID>
48877

> <DSSTox_FileID_Sort>
7749

> <TS_ChemName>
Ibogaine hydrochloride

> <TS_ChemName_Synonyms>


> <TS_CASRN>
36415-61-9

> <CASRN_ChemName_Relationship>
primary

> <TS_Description>
single chemical compound

> <ChemNote>


> <STRUCTURE_Shown>
tested chemical

> <STRUCTURE_Formula>
C20H27ClN2O

> <STRUCTURE_MW>
346.8942

> <STRUCTURE_ChemType>
defined organic

> <STRUCTURE_DefinedOrganicForm>
complex

> <STRUCTURE_IUPAC>
12-methoxyibogamine hydrochloride (1:1)

> <STRUCTURE_SMILES>
Cl.COc4ccc5nc1c(CC[N@]3C[C@H]2C[C@@H]1[C@@H]3[C@H](C2)CC)c5c4

> <STRUCTURE_SMILES_Desalt>
COc4ccc5nc1c(CC[N@]3C[C@H]2C[C@@H]1[C@@H]3[C@H](C2)CC)c5c4

> <Substance_modify_yyyymmdd>
20111204

$$$$
