36431-72-8
ChemmineR-0915142007XD

 14 15  0  0  0  0  0  0  0  0  1 V2000
    2.3345   -0.6657    0.0000 C   0  0  0  0  0  0  0  0  0  0  0  0
    2.3345   -2.0112    0.0000 C   0  0  0  0  0  0  0  0  0  0  0  0
    1.1696    0.0000    0.0000 C   0  0  0  0  0  0  0  0  0  0  0  0
    1.1696   -2.6959    0.0000 C   0  0  0  0  0  0  0  0  0  0  0  0
    0.0000   -0.6657    0.0000 C   0  0  0  0  0  0  0  0  0  0  0  0
    0.0000   -2.0112    0.0000 C   0  0  0  0  0  0  0  0  0  0  0  0
    3.5042    0.0000    0.0000 C   0  0  0  0  0  0  0  0  0  0  0  0
    0.5040   -3.8465    0.0000 C   0  0  0  0  0  0  0  0  0  0  0  0
    1.8496   -3.8465    0.0000 C   0  0  0  0  0  0  0  0  0  0  0  0
    3.3758   -1.3646    0.0000 C   0  0  0  0  0  0  0  0  0  0  0  0
    2.2870   -3.2474    0.0000 O   0  0  0  0  0  0  0  0  0  0  0  0
    3.6040   -3.5232    0.0000 C   0  0  0  0  0  0  0  0  0  0  0  0
    4.2839   -2.3536    0.0000 C   0  0  0  0  0  0  0  0  0  0  0  0
    4.1556   -4.7546    0.0000 C   0  0  0  0  0  0  0  0  0  0  0  0
  1  2  1  0  0  0  0
  1  3  2  0  0  0  0
  1  7  1  0  0  0  0
  2  4  1  0  0  0  0
  2 10  1  0  0  0  0
  2 11  1  0  0  0  0
  3  5  1  0  0  0  0
  4  6  1  0  0  0  0
  4  8  1  0  0  0  0
  4  9  1  0  0  0  0
  5  6  1  0  0  0  0
 10 13  1  0  0  0  0
 11 12  1  0  0  0  0
 12 13  1  0  0  0  0
 12 14  1  0  0  0  0
M  END
> <ID>
12209

> <Formula>
C13H22O

> <FW>
194.3132

> <DSSTox_CID>
27055

> <DSSTox_RID>
82072

> <DSSTox_GSID>
47055

> <DSSTox_FileID_Sort>
6753

> <TS_ChemName>
Theaspirane

> <TS_ChemName_Synonyms>
(+/-)-Theaspirane

> <TS_CASRN>
36431-72-8

> <CASRN_ChemName_Relationship>
primary

> <TS_Description>
single chemical compound

> <ChemNote>


> <STRUCTURE_Shown>
tested chemical

> <STRUCTURE_Formula>
C13H22O

> <STRUCTURE_MW>
194.3132

> <STRUCTURE_ChemType>
defined organic

> <STRUCTURE_DefinedOrganicForm>
parent

> <STRUCTURE_IUPAC>
2,6,10,10-tetramethyl-1-oxaspiro[4.5]dec-6-ene

> <STRUCTURE_SMILES>
CC2=CCCC(C)(C)C12CCC(C)O1

> <STRUCTURE_SMILES_Desalt>
CC2=CCCC(C)(C)C12CCC(C)O1

> <Substance_modify_yyyymmdd>
20100429

$$$$
