36443-68-2
ChemmineR-0915142007XD

 42 43  0  0  0  0  0  0  0  0  1 V2000
    8.0570   -5.3234    0.0000 O   0  0  0  0  0  0  0  0  0  0  0  0
    8.0570   -3.9997    0.0000 C   0  0  0  0  0  0  0  0  0  0  0  0
    6.9060   -3.3091    0.0000 C   0  0  0  0  0  0  0  0  0  0  0  0
    5.7550   -3.9997    0.0000 C   0  0  0  0  0  0  0  0  0  0  0  0
    4.6040   -3.3091    0.0000 C   0  0  0  0  0  0  0  0  0  0  0  0
    3.4530   -3.9997    0.0000 C   0  0  0  0  0  0  0  0  0  0  0  0
    2.3020   -3.3091    0.0000 C   0  0  0  0  0  0  0  0  0  0  0  0
    2.3020   -1.9855    0.0000 C   0  0  0  0  0  0  0  0  0  0  0  0
    3.4530   -1.3237    0.0000 C   0  0  0  0  0  0  0  0  0  0  0  0
    4.6040   -1.9855    0.0000 C   0  0  0  0  0  0  0  0  0  0  0  0
    3.4530    0.0000    0.0000 C   0  0  0  0  0  0  0  0  0  0  0  0
    1.1510   -1.3237    0.0000 O   0  0  0  0  0  0  0  0  0  0  0  0
    1.1510   -3.9997    0.0000 C   0  0  0  0  0  0  0  0  0  0  0  0
    0.4892   -2.8487    0.0000 C   0  0  0  0  0  0  0  0  0  0  0  0
    1.8128   -5.1507    0.0000 C   0  0  0  0  0  0  0  0  0  0  0  0
    0.0000   -4.6616    0.0000 C   0  0  0  0  0  0  0  0  0  0  0  0
    9.2080   -3.3379    0.0000 O   0  0  0  0  0  0  0  0  0  0  0  0
   10.3590   -3.9997    0.0000 C   0  0  0  0  0  0  0  0  0  0  0  0
   11.5100   -3.3379    0.0000 C   0  0  0  0  0  0  0  0  0  0  0  0
   12.6610   -3.9997    0.0000 O   0  0  0  0  0  0  0  0  0  0  0  0
   13.8120   -3.3379    0.0000 C   0  0  0  0  0  0  0  0  0  0  0  0
   14.9630   -3.9710    0.0000 C   0  0  0  0  0  0  0  0  0  0  0  0
   16.1140   -3.3091    0.0000 O   0  0  0  0  0  0  0  0  0  0  0  0
   17.2650   -3.9710    0.0000 C   0  0  0  0  0  0  0  0  0  0  0  0
   18.4160   -3.3091    0.0000 C   0  0  0  0  0  0  0  0  0  0  0  0
   19.5670   -3.9710    0.0000 O   0  0  0  0  0  0  0  0  0  0  0  0
   20.7180   -3.3091    0.0000 C   0  0  0  0  0  0  0  0  0  0  0  0
   20.7180   -1.9855    0.0000 O   0  0  0  0  0  0  0  0  0  0  0  0
   21.8690   -3.9710    0.0000 C   0  0  0  0  0  0  0  0  0  0  0  0
   23.0200   -3.3091    0.0000 C   0  0  0  0  0  0  0  0  0  0  0  0
   24.1710   -3.9710    0.0000 C   0  0  0  0  0  0  0  0  0  0  0  0
   24.1710   -5.3234    0.0000 C   0  0  0  0  0  0  0  0  0  0  0  0
   25.3220   -5.9852    0.0000 C   0  0  0  0  0  0  0  0  0  0  0  0
   26.4730   -5.3234    0.0000 C   0  0  0  0  0  0  0  0  0  0  0  0
   26.4730   -3.9710    0.0000 C   0  0  0  0  0  0  0  0  0  0  0  0
   25.3220   -3.3091    0.0000 C   0  0  0  0  0  0  0  0  0  0  0  0
   27.6240   -3.3091    0.0000 C   0  0  0  0  0  0  0  0  0  0  0  0
   28.2858   -4.4601    0.0000 C   0  0  0  0  0  0  0  0  0  0  0  0
   26.9622   -2.1581    0.0000 C   0  0  0  0  0  0  0  0  0  0  0  0
   28.7750   -2.6473    0.0000 C   0  0  0  0  0  0  0  0  0  0  0  0
   27.6240   -5.9852    0.0000 O   0  0  0  0  0  0  0  0  0  0  0  0
   25.3220   -7.3089    0.0000 C   0  0  0  0  0  0  0  0  0  0  0  0
  1  2  2  0  0  0  0
  2  3  1  0  0  0  0
  2 17  1  0  0  0  0
  3  4  1  0  0  0  0
  4  5  1  0  0  0  0
  5  6  1  0  0  0  0
  5 10  2  0  0  0  0
  6  7  2  0  0  0  0
  7  8  1  0  0  0  0
  7 13  1  0  0  0  0
  8  9  2  0  0  0  0
  8 12  1  0  0  0  0
  9 10  1  0  0  0  0
  9 11  1  0  0  0  0
 13 14  1  0  0  0  0
 13 15  1  0  0  0  0
 13 16  1  0  0  0  0
 17 18  1  0  0  0  0
 18 19  1  0  0  0  0
 19 20  1  0  0  0  0
 20 21  1  0  0  0  0
 21 22  1  0  0  0  0
 22 23  1  0  0  0  0
 23 24  1  0  0  0  0
 24 25  1  0  0  0  0
 25 26  1  0  0  0  0
 26 27  1  0  0  0  0
 27 28  2  0  0  0  0
 27 29  1  0  0  0  0
 29 30  1  0  0  0  0
 30 31  1  0  0  0  0
 31 32  1  0  0  0  0
 31 36  2  0  0  0  0
 32 33  2  0  0  0  0
 33 34  1  0  0  0  0
 33 42  1  0  0  0  0
 34 35  2  0  0  0  0
 34 41  1  0  0  0  0
 35 36  1  0  0  0  0
 35 37  1  0  0  0  0
 37 38  1  0  0  0  0
 37 39  1  0  0  0  0
 37 40  1  0  0  0  0
M  END
> <ID>
9928

> <Formula>
C34H50O8

> <FW>
586.756

> <DSSTox_CID>
24236

> <DSSTox_RID>
80130

> <DSSTox_GSID>
44236

> <DSSTox_FileID_Sort>
4812

> <TS_ChemName>
Triethylene glycol bis(3-tert-butyl-4-hydroxy-5-methylphenyl)propionate

> <TS_ChemName_Synonyms>
Benzenepropanoic acid, 3,5-bis(1,1-dimethylethyl)-4-hydroxy-, 1,2-ethanediylbis(oxy-2,1-ethanediyl) ester (TK 12627)

> <TS_CASRN>
36443-68-2

> <CASRN_ChemName_Relationship>
primary

> <TS_Description>
single chemical compound

> <ChemNote>


> <STRUCTURE_Shown>
tested chemical

> <STRUCTURE_Formula>
C34H50O8

> <STRUCTURE_MW>
586.756

> <STRUCTURE_ChemType>
defined organic

> <STRUCTURE_DefinedOrganicForm>
parent

> <STRUCTURE_IUPAC>
ethane-1,2-diylbis(oxyethane-2,1-diyl) bis[3-(3-tert-butyl-4-hydroxy-5-methylphenyl)propanoate]

> <STRUCTURE_SMILES>
CC(C)(C)c1cc(cc(C)c1O)CCC(=O)OCCOCCOCCOC(=O)CCc2cc(C)c(O)c(c2)C(C)(C)C

> <STRUCTURE_SMILES_Desalt>
CC(C)(C)c1cc(cc(C)c1O)CCC(=O)OCCOCCOCCOC(=O)CCc2cc(C)c(O)c(c2)C(C)(C)C

> <Substance_modify_yyyymmdd>
20090302

$$$$
