3644-61-9
ChemmineR-0915142007XD

 19 19  0  0  0  0  0  0  0  0  1 V2000
   10.9537   -1.8840    0.0000 Cl   0  0  0  0  0  0  0  0  0  0  0  0
    4.6115   -3.3080    0.0000 C    0  0  0  0  0  0  0  0  0  0  0  0
    4.6115   -1.9936    0.0000 C    0  0  0  0  0  0  0  0  0  0  0  0
    3.4504   -1.3363    0.0000 C    0  0  0  0  0  0  0  0  0  0  0  0
    2.3112   -1.9826    0.0000 N    0  0  0  0  0  0  0  0  0  0  0  0
    1.1611   -1.3254    0.0000 C    0  0  0  0  0  0  0  0  0  0  0  0
    0.0000   -1.9826    0.0000 C    0  0  0  0  0  0  0  0  0  0  0  0
    0.0000   -3.3080    0.0000 C    0  0  0  0  0  0  0  0  0  0  0  0
    1.1611   -3.9871    0.0000 C    0  0  0  0  0  0  0  0  0  0  0  0
    2.3112   -3.3080    0.0000 C    0  0  0  0  0  0  0  0  0  0  0  0
    5.7616   -1.3363    0.0000 C    0  0  0  0  0  0  0  0  0  0  0  0
    5.7616    0.0000    0.0000 O    0  0  0  0  0  0  0  0  0  0  0  0
    6.9008   -1.9936    0.0000 C    0  0  0  0  0  0  0  0  0  0  0  0
    6.9008   -3.3299    0.0000 C    0  0  0  0  0  0  0  0  0  0  0  0
    8.0619   -3.9871    0.0000 C    0  0  0  0  0  0  0  0  0  0  0  0
    9.2230   -3.3299    0.0000 C    0  0  0  0  0  0  0  0  0  0  0  0
   10.3731   -3.9871    0.0000 C    0  0  0  0  0  0  0  0  0  0  0  0
    9.2230   -1.9936    0.0000 C    0  0  0  0  0  0  0  0  0  0  0  0
    8.0619   -1.3254    0.0000 C    0  0  0  0  0  0  0  0  0  0  0  0
  2  3  1  0  0  0  0
  3  4  1  0  0  0  0
  3 11  1  0  0  0  0
  4  5  1  0  0  0  0
  5  6  1  0  0  0  0
  5 10  1  0  0  0  0
  6  7  1  0  0  0  0
  7  8  1  0  0  0  0
  8  9  1  0  0  0  0
  9 10  1  0  0  0  0
 11 12  2  0  0  0  0
 11 13  1  0  0  0  0
 13 14  2  0  0  0  0
 13 19  1  0  0  0  0
 14 15  1  0  0  0  0
 15 16  2  0  0  0  0
 16 17  1  0  0  0  0
 16 18  1  0  0  0  0
 18 19  2  0  0  0  0
M  END
> <ID>
11255

> <Formula>
C16H24ClNO

> <FW>
281.8209 (36.4609+245.3599)

> <DSSTox_CID>
25868

> <DSSTox_RID>
81187

> <DSSTox_GSID>
45868

> <DSSTox_FileID_Sort>
5868

> <TS_ChemName>
Tolperisone hydrochloride

> <TS_ChemName_Synonyms>


> <TS_CASRN>
3644-61-9

> <CASRN_ChemName_Relationship>
primary

> <TS_Description>
single chemical compound

> <ChemNote>
parent [728-88-1]

> <STRUCTURE_Shown>
tested chemical

> <STRUCTURE_Formula>
C16H24ClNO

> <STRUCTURE_MW>
281.8209

> <STRUCTURE_ChemType>
defined organic

> <STRUCTURE_DefinedOrganicForm>
complex

> <STRUCTURE_IUPAC>
2-methyl-1-(4-methylphenyl)-3-(piperidin-1-yl)propan-1-one hydrochloride (1:1)

> <STRUCTURE_SMILES>
Cl.CC(CN1CCCCC1)C(=O)c2ccc(C)cc2

> <STRUCTURE_SMILES_Desalt>
CC(CN1CCCCC1)C(=O)c2ccc(C)cc2

> <Substance_modify_yyyymmdd>
20110922

$$$$
