364782-34-3
ChemmineR-0915142007XD

 27 28  0  0  1  0  0  0  0  0  1 V2000
    3.4417   -5.9850    0.0000 C    0  0  0  0  0  0  0  0  0  0  0  0
    3.4417   -4.6581    0.0000 C    0  0  0  0  0  0  0  0  0  0  0  0
    4.6028   -3.9946    0.0000 N    0  0  0  0  0  0  0  0  0  0  0  0
    5.7639   -4.6581    0.0000 C    0  0  0  0  0  0  0  0  0  0  0  0
    6.9111   -3.9946    0.0000 C    0  0  0  0  0  0  0  0  0  0  0  0
    8.0584   -4.6581    0.0000 C    0  0  0  0  0  0  0  0  0  0  0  0
    9.2056   -3.9946    0.0000 C    0  0  0  0  0  0  0  0  0  0  0  0
    9.2056   -2.6539    0.0000 C    0  0  0  0  0  0  0  0  0  0  0  0
   10.3529   -1.9904    0.0000 C    0  0  0  0  0  0  0  0  0  0  0  0
   11.5139   -2.6539    0.0000 C    0  0  0  0  0  0  0  0  0  0  0  0
   11.5139   -3.9946    0.0000 C    0  0  0  0  0  0  0  0  0  0  0  0
   10.3529   -4.6581    0.0000 C    0  0  0  0  0  0  0  0  0  0  0  0
   12.6750   -4.6581    0.0000 C    0  0  0  0  0  0  0  0  0  0  0  0
   11.9977   -5.8053    0.0000 F    0  0  0  0  0  0  0  0  0  0  0  0
   13.3246   -3.4970    0.0000 F    0  0  0  0  0  0  0  0  0  0  0  0
   13.8222   -5.3077    0.0000 F    0  0  0  0  0  0  0  0  0  0  0  0
    2.3083   -3.9946    0.0000 C    0  0  0  0  0  0  0  0  0  0  0  0
    1.1472   -4.6581    0.0000 C    0  0  0  0  0  0  0  0  0  0  0  0
    0.0000   -3.9946    0.0000 C    0  0  0  0  0  0  0  0  0  0  0  0
    0.0000   -2.6539    0.0000 C    0  0  0  0  0  0  0  0  0  0  0  0
    1.1472   -1.9904    0.0000 C    0  0  0  0  0  0  0  0  0  0  0  0
    1.1472   -0.6635    0.0000 C    0  0  0  0  0  0  0  0  0  0  0  0
    2.3083    0.0000    0.0000 C    0  0  0  0  0  0  0  0  0  0  0  0
    3.4417   -0.6635    0.0000 C    0  0  0  0  0  0  0  0  0  0  0  0
    3.4417   -1.9904    0.0000 C    0  0  0  0  0  0  0  0  0  0  0  0
    2.3083   -2.6539    0.0000 C    0  0  0  0  0  0  0  0  0  0  0  0
    7.2429   -5.6948    0.0000 Cl   0  0  0  0  0  0  0  0  0  0  0  0
  2  1  1  6  0  0  0
  2  3  1  0  0  0  0
  2 17  1  0  0  0  0
  3  4  1  0  0  0  0
  4  5  1  0  0  0  0
  5  6  1  0  0  0  0
  6  7  1  0  0  0  0
  7  8  2  0  0  0  0
  7 12  1  0  0  0  0
  8  9  1  0  0  0  0
  9 10  2  0  0  0  0
 10 11  1  0  0  0  0
 11 12  2  0  0  0  0
 11 13  1  0  0  0  0
 13 14  1  0  0  0  0
 13 15  1  0  0  0  0
 13 16  1  0  0  0  0
 17 18  2  0  0  0  0
 17 26  1  0  0  0  0
 18 19  1  0  0  0  0
 19 20  2  0  0  0  0
 20 21  1  0  0  0  0
 21 22  2  0  0  0  0
 21 26  1  0  0  0  0
 22 23  1  0  0  0  0
 23 24  2  0  0  0  0
 24 25  1  0  0  0  0
 25 26  2  0  0  0  0
M  END
> <ID>
11973

> <Formula>
C22H23ClF3N

> <FW>
393.8729 (357.4120+36.4609)

> <DSSTox_CID>
26792

> <DSSTox_RID>
81909

> <DSSTox_GSID>
46792

> <DSSTox_FileID_Sort>
6590

> <TS_ChemName>
Cinacalcet hydrochloride

> <TS_ChemName_Synonyms>


> <TS_CASRN>
364782-34-3

> <CASRN_ChemName_Relationship>
primary

> <TS_Description>
single chemical compound

> <ChemNote>
stereochem; parent [226256-56-0]

> <STRUCTURE_Shown>
tested chemical

> <STRUCTURE_Formula>
C22H23ClF3N

> <STRUCTURE_MW>
393.8729

> <STRUCTURE_ChemType>
defined organic

> <STRUCTURE_DefinedOrganicForm>
complex

> <STRUCTURE_IUPAC>
N-[(1R)-1-(naphthalen-1-yl)ethyl]-3-[3-(trifluoromethyl)phenyl]propan-1-amine hydrochloride (1:1)

> <STRUCTURE_SMILES>
Cl.FC(F)(F)c3cccc(CCCN[C@H](C)c2cccc1ccccc12)c3

> <STRUCTURE_SMILES_Desalt>
FC(F)(F)c3cccc(CCCN[C@H](C)c2cccc1ccccc12)c3

> <Substance_modify_yyyymmdd>
20110802

$$$$
