3648-20-2
ChemmineR-0915142007XD

 34 34  0  0  0  0  0  0  0  0  1 V2000
   13.9037   -9.4399    0.0000 C   0  0  0  0  0  0  0  0  0  0  0  0
   14.5623  -10.5620    0.0000 C   0  0  0  0  0  0  0  0  0  0  0  0
   13.9037  -11.7084    0.0000 C   0  0  0  0  0  0  0  0  0  0  0  0
   12.6109  -11.7084    0.0000 C   0  0  0  0  0  0  0  0  0  0  0  0
   11.8548  -10.5620    0.0000 C   0  0  0  0  0  0  0  0  0  0  0  0
   12.6109   -9.4399    0.0000 C   0  0  0  0  0  0  0  0  0  0  0  0
   14.5623   -8.2935    0.0000 C   0  0  0  0  0  0  0  0  0  0  0  0
   15.8551   -8.2935    0.0000 O   0  0  0  0  0  0  0  0  0  0  0  0
   13.8306   -7.1470    0.0000 O   0  0  0  0  0  0  0  0  0  0  0  0
   11.9523   -8.2935    0.0000 C   0  0  0  0  0  0  0  0  0  0  0  0
   12.6109   -7.1470    0.0000 O   0  0  0  0  0  0  0  0  0  0  0  0
   10.6595   -8.2935    0.0000 O   0  0  0  0  0  0  0  0  0  0  0  0
   14.4648   -6.0250    0.0000 C   0  0  0  0  0  0  0  0  0  0  0  0
   15.8551   -6.0250    0.0000 C   0  0  0  0  0  0  0  0  0  0  0  0
   16.5137   -4.8053    0.0000 C   0  0  0  0  0  0  0  0  0  0  0  0
   17.8066   -4.8053    0.0000 C   0  0  0  0  0  0  0  0  0  0  0  0
   18.4408   -3.5857    0.0000 C   0  0  0  0  0  0  0  0  0  0  0  0
   19.7580   -3.5857    0.0000 C   0  0  0  0  0  0  0  0  0  0  0  0
   20.4166   -2.4393    0.0000 C   0  0  0  0  0  0  0  0  0  0  0  0
   21.7825   -2.3661    0.0000 C   0  0  0  0  0  0  0  0  0  0  0  0
   22.4411   -1.2196    0.0000 C   0  0  0  0  0  0  0  0  0  0  0  0
   23.7339   -1.2196    0.0000 C   0  0  0  0  0  0  0  0  0  0  0  0
   24.3925    0.0000    0.0000 C   0  0  0  0  0  0  0  0  0  0  0  0
    9.9278   -9.4399    0.0000 C   0  0  0  0  0  0  0  0  0  0  0  0
    8.6350   -9.4399    0.0000 C   0  0  0  0  0  0  0  0  0  0  0  0
    7.9520  -10.5620    0.0000 C   0  0  0  0  0  0  0  0  0  0  0  0
    6.5860  -10.6595    0.0000 C   0  0  0  0  0  0  0  0  0  0  0  0
    5.9518  -11.8060    0.0000 C   0  0  0  0  0  0  0  0  0  0  0  0
    4.6346  -11.8060    0.0000 C   0  0  0  0  0  0  0  0  0  0  0  0
    3.9760  -12.9280    0.0000 C   0  0  0  0  0  0  0  0  0  0  0  0
    2.6100  -12.9280    0.0000 C   0  0  0  0  0  0  0  0  0  0  0  0
    1.9514  -14.0745    0.0000 C   0  0  0  0  0  0  0  0  0  0  0  0
    0.6586  -14.0745    0.0000 C   0  0  0  0  0  0  0  0  0  0  0  0
    0.0000  -15.2941    0.0000 C   0  0  0  0  0  0  0  0  0  0  0  0
  1  2  2  0  0  0  0
  1  6  1  0  0  0  0
  1  7  1  0  0  0  0
  2  3  1  0  0  0  0
  3  4  2  0  0  0  0
  4  5  1  0  0  0  0
  5  6  2  0  0  0  0
  6 10  1  0  0  0  0
  7  8  2  0  0  0  0
  7  9  1  0  0  0  0
  9 13  1  0  0  0  0
 10 11  2  0  0  0  0
 10 12  1  0  0  0  0
 12 24  1  0  0  0  0
 13 14  1  0  0  0  0
 14 15  1  0  0  0  0
 15 16  1  0  0  0  0
 16 17  1  0  0  0  0
 17 18  1  0  0  0  0
 18 19  1  0  0  0  0
 19 20  1  0  0  0  0
 20 21  1  0  0  0  0
 21 22  1  0  0  0  0
 22 23  1  0  0  0  0
 24 25  1  0  0  0  0
 25 26  1  0  0  0  0
 26 27  1  0  0  0  0
 27 28  1  0  0  0  0
 28 29  1  0  0  0  0
 29 30  1  0  0  0  0
 30 31  1  0  0  0  0
 31 32  1  0  0  0  0
 32 33  1  0  0  0  0
 33 34  1  0  0  0  0
M  END
> <ID>
4084

> <Formula>
C30H50O4

> <FW>
474.7156

> <DSSTox_CID>
5215

> <DSSTox_RID>
77702

> <DSSTox_GSID>
25215

> <DSSTox_FileID_Sort>
2385

> <TS_ChemName>
Diundecyl phthalate

> <TS_ChemName_Synonyms>
Diundecyl phthalate (1,2-Benzenedicarboxylic acid, diundecyl ester)

> <TS_CASRN>
3648-20-2

> <CASRN_ChemName_Relationship>
primary

> <TS_Description>
single chemical compound

> <ChemNote>


> <STRUCTURE_Shown>
tested chemical

> <STRUCTURE_Formula>
C30H50O4

> <STRUCTURE_MW>
474.7156

> <STRUCTURE_ChemType>
defined organic

> <STRUCTURE_DefinedOrganicForm>
parent

> <STRUCTURE_IUPAC>
diundecyl benzene-1,2-dicarboxylate

> <STRUCTURE_SMILES>
O=C(OCCCCCCCCCCC)c1ccccc1C(=O)OCCCCCCCCCCC

> <STRUCTURE_SMILES_Desalt>
O=C(OCCCCCCCCCCC)c1ccccc1C(=O)OCCCCCCCCCCC

> <Substance_modify_yyyymmdd>
20080429

$$$$
