36504-56-0
ChemmineR-0915142007XD

 18 17  0  0  0  0  0  0  0  0  1 V2000
    1.1522   -3.3276    0.0000 C   0  0  0  0  0  0  0  0  0  0  0  0
    1.1522   -1.9982    0.0000 C   0  0  0  0  0  0  0  0  0  0  0  0
    0.0000   -1.3294    0.0000 C   0  0  0  0  0  0  0  0  0  0  0  0
    2.3043   -1.3294    0.0000 N   0  0  0  0  0  0  0  0  0  0  0  0
    3.4565   -1.9982    0.0000 N   0  0  0  0  0  0  0  0  0  0  0  0
    4.6006   -1.3294    0.0000 C   0  0  0  0  0  0  0  0  0  0  0  0
    4.6006    0.0000    0.0000 O   0  0  0  0  0  0  0  0  0  0  0  0
    5.7528   -1.9982    0.0000 C   0  0  0  0  0  0  0  0  0  0  0  0
    6.9049   -1.3294    0.0000 C   0  0  0  0  0  0  0  0  0  0  0  0
    8.0571   -1.9982    0.0000 C   0  0  0  0  0  0  0  0  0  0  0  0
    8.0571   -3.3276    0.0000 N   0  0  0  0  0  0  0  0  0  0  0  0
    6.9049   -3.9883    0.0000 C   0  0  0  0  0  0  0  0  0  0  0  0
    5.7528   -3.3276    0.0000 C   0  0  0  0  0  0  0  0  0  0  0  0
    3.9883   -7.9765    0.0000 O   0  0  0  0  0  0  0  0  0  0  0  0
    3.9883   -6.6471    0.0000 S   0  0  0  0  0  0  0  0  0  0  0  0
    2.6588   -6.6471    0.0000 O   0  0  0  0  0  0  0  0  0  0  0  0
    3.9883   -5.3177    0.0000 O   0  0  0  0  0  0  0  0  0  0  0  0
    5.3177   -6.6471    0.0000 O   0  0  0  0  0  0  0  0  0  0  0  0
  1  2  1  0  0  0  0
  2  3  1  0  0  0  0
  2  4  1  0  0  0  0
  4  5  1  0  0  0  0
  5  6  1  0  0  0  0
  6  7  2  0  0  0  0
  6  8  1  0  0  0  0
  8  9  2  0  0  0  0
  8 13  1  0  0  0  0
  9 10  1  0  0  0  0
 10 11  2  0  0  0  0
 11 12  1  0  0  0  0
 12 13  2  0  0  0  0
 14 15  1  0  0  0  0
 15 16  1  0  0  0  0
 15 17  2  0  0  0  0
 15 18  2  0  0  0  0
M  END
> <ID>
11242

> <Formula>
C9H15N3O5S

> <FW>
277.2975 (179.2190+98.0785)

> <DSSTox_CID>
25852

> <DSSTox_RID>
81174

> <DSSTox_GSID>
45852

> <DSSTox_FileID_Sort>
5855

> <TS_ChemName>
Iproniazid sulfate

> <TS_ChemName_Synonyms>


> <TS_CASRN>
36504-56-0

> <CASRN_ChemName_Relationship>
primary

> <TS_Description>
single chemical compound

> <ChemNote>
parent [54-92-2]

> <STRUCTURE_Shown>
tested chemical

> <STRUCTURE_Formula>
C9H15N3O5S

> <STRUCTURE_MW>
277.2975

> <STRUCTURE_ChemType>
defined organic

> <STRUCTURE_DefinedOrganicForm>
complex

> <STRUCTURE_IUPAC>
N'-(propan-2-yl)pyridine-4-carbohydrazide sulfate (1:1)

> <STRUCTURE_SMILES>
O=C(NNC(C)C)c1ccncc1.O=S(=O)(O)O

> <STRUCTURE_SMILES_Desalt>
O=C(NNC(C)C)c1ccncc1

> <Substance_modify_yyyymmdd>
20110922

$$$$
