36504-94-6
ChemmineR-0915142007XD

 30 33  0  0  1  0  0  0  0  0  1 V2000
    8.4164   -4.0966    0.0000 Cl   0  0  0  0  0  0  0  0  0  0  0  0
    7.0380   -1.1746    0.0000 C    0  0  0  0  0  0  0  0  0  0  0  0
    7.0380   -2.5434    0.0000 C    0  0  0  0  0  0  0  0  0  0  0  0
    5.8731   -0.4951    0.0000 C    0  0  0  0  0  0  0  0  0  0  0  0
    5.8731   -3.1938    0.0000 C    0  0  0  0  0  0  0  0  0  0  0  0
    4.7082   -1.1746    0.0000 C    0  0  0  0  0  0  0  0  0  0  0  0
    4.7082   -2.5434    0.0000 N    0  0  0  0  0  0  0  0  0  0  0  0
    5.8731   -4.5722    0.0000 C    0  0  0  0  0  0  0  0  0  0  0  0
    4.7082   -5.2324    0.0000 C    0  0  0  0  0  0  0  0  0  0  0  0
    3.5238   -3.1938    0.0000 C    0  0  0  0  0  0  0  0  0  0  0  0
    3.5238   -4.5722    0.0000 C    0  0  0  0  0  0  0  0  0  0  0  0
    4.7082   -6.5914    0.0000 C    0  0  0  0  0  0  0  0  0  0  0  0
    2.3492   -5.2324    0.0000 C    0  0  0  0  0  0  0  0  0  0  0  0
    2.3492   -6.5914    0.0000 C    0  0  0  0  0  0  0  0  0  0  0  0
    7.0380   -5.2324    0.0000 C    0  0  0  0  0  0  0  0  0  0  0  0
    7.0380   -6.5914    0.0000 C    0  0  0  0  0  0  0  0  0  0  0  0
    5.8731   -7.2806    0.0000 C    0  0  0  0  0  0  0  0  0  0  0  0
    1.1649   -4.5722    0.0000 C    0  0  0  0  0  0  0  0  0  0  0  0
    0.0000   -5.2324    0.0000 C    0  0  0  0  0  0  0  0  0  0  0  0
    1.1649   -7.2806    0.0000 C    0  0  0  0  0  0  0  0  0  0  0  0
    0.0000   -6.5914    0.0000 C    0  0  0  0  0  0  0  0  0  0  0  0
    5.8731   -1.8541    0.0000 H    0  0  0  0  0  0  0  0  0  0  0  0
    3.5238   -5.9216    0.0000 H    0  0  0  0  0  0  0  0  0  0  0  0
    8.3970   -1.1746    0.0000 C    0  0  0  0  0  0  0  0  0  0  0  0
    9.0668   -2.3783    0.0000 C    0  0  0  0  0  0  0  0  0  0  0  0
    9.0862    0.0000    0.0000 C    0  0  0  0  0  0  0  0  0  0  0  0
    7.7369    0.0000    0.0000 O    0  0  0  0  0  0  0  0  0  0  0  0
    9.7075   -0.8154    0.0000 C    0  0  0  0  0  0  0  0  0  0  0  0
    2.8540   -7.3777    0.0000 C    0  0  0  0  0  0  0  0  0  0  0  0
    4.2131   -7.3777    0.0000 C    0  0  0  0  0  0  0  0  0  0  0  0
  2  3  1  0  0  0  0
  2  4  1  0  0  0  0
  2 24  1  1  0  0  0
  2 27  1  6  0  0  0
  3  5  1  0  0  0  0
  4  6  1  0  0  0  0
  5  8  1  0  0  0  0
  5  7  1  0  0  0  0
  5 22  1  6  0  0  0
  6  7  1  0  0  0  0
  7 10  1  0  0  0  0
  8 15  2  0  0  0  0
  8  9  1  0  0  0  0
  9 11  1  0  0  0  0
  9 12  2  0  0  0  0
 10 11  1  0  0  0  0
 11 13  1  0  0  0  0
 11 23  1  1  0  0  0
 12 17  1  0  0  0  0
 12 30  1  0  0  0  0
 13 18  1  0  0  0  0
 13 14  2  0  0  0  0
 14 20  1  0  0  0  0
 14 29  1  0  0  0  0
 15 16  1  0  0  0  0
 16 17  2  0  0  0  0
 18 19  2  0  0  0  0
 19 21  1  0  0  0  0
 20 21  2  0  0  0  0
 24 25  1  0  0  0  0
 24 26  1  0  0  0  0
 24 28  1  0  0  0  0
 29 30  1  0  0  0  0
M  END
> <ID>
11168

> <Formula>
C25H32ClNO

> <FW>
397.9807 (36.4609+361.5197)

> <DSSTox_CID>
25757

> <DSSTox_RID>
81100

> <DSSTox_GSID>
45757

> <DSSTox_FileID_Sort>
5781

> <TS_ChemName>
Butaclamol hydrochloride

> <TS_ChemName_Synonyms>


> <TS_CASRN>
36504-94-6

> <CASRN_ChemName_Relationship>
primary

> <TS_Description>
single chemical compound

> <ChemNote>
stereochem; parent [36504-93-5]

> <STRUCTURE_Shown>
tested chemical

> <STRUCTURE_Formula>
C25H32ClNO

> <STRUCTURE_MW>
397.9807

> <STRUCTURE_ChemType>
defined organic

> <STRUCTURE_DefinedOrganicForm>
complex

> <STRUCTURE_IUPAC>
(3S,4aS,13bS)-3-tert-butyl-2,3,4,4a,8,9,13b,14-octahydro-1H-benzo[6,7]cyclohepta[1,2,3-de]pyrido[2,1-a]isoquinolin-3-ol hydrochloride (1:1)

> <STRUCTURE_SMILES>
Cl.CC(C)(C)[C@]4(O)CCN5C[C@@H]2c3c(cccc3CCc1ccccc12)[C@@H]5C4

> <STRUCTURE_SMILES_Desalt>
CC(C)(C)[C@]4(O)CCN5C[C@@H]2c3c(cccc3CCc1ccccc12)[C@@H]5C4

> <Substance_modify_yyyymmdd>
20110826

$$$$
