3653-48-3
ChemmineR-0915142007XD

 14 13  0  0  0  0  0  0  0  0  2 V2000
    2.3103   -2.6582    0.0000 C    0  0  0  0  0  0  0  0  0  0  0  0
    6.9219   -2.6582    0.0000 C    0  0  0  0  0  0  0  0  0  0  0  0
    3.4610   -1.9892    0.0000 C    0  0  0  0  0  0  0  0  0  0  0  0
    4.6117   -2.6582    0.0000 O    0  0  0  0  0  0  0  0  0  0  0  0
    1.1507   -1.9892    0.0000 C    0  0  0  0  0  0  0  0  0  0  0  0
    6.9219   -3.9873    0.0000 O    0  0  0  0  0  0  0  0  0  0  0  0
    3.4610   -0.6601    0.0000 C    0  0  0  0  0  0  0  0  0  0  0  0
    5.7623   -1.9892    0.0000 C    0  0  0  0  0  0  0  0  0  0  0  0
    1.1507   -0.6601    0.0000 C    0  0  0  0  0  0  0  0  0  0  0  0
    8.0548   -1.9892    0.0000 O    0  5  0  0  0  0  0  0  0  0  0  0
    2.3103    0.0000    0.0000 C    0  0  0  0  0  0  0  0  0  0  0  0
    0.0000    0.0000    0.0000 Cl   0  0  0  0  0  0  0  0  0  0  0  0
    2.3103   -3.9873    0.0000 C    0  0  0  0  0  0  0  0  0  0  0  0
    8.9200   -0.7671    0.0000 Na   0  3  0  0  0  0  0  0  0  0  0  0
  1  3  2  0  0  0  0
  1  5  1  0  0  0  0
  1 13  1  0  0  0  0
  2  8  1  0  0  0  0
  2  6  2  0  0  0  0
  2 10  1  0  0  0  0
  3  4  1  0  0  0  0
  3  7  1  0  0  0  0
  4  8  1  0  0  0  0
  5  9  2  0  0  0  0
  7 11  2  0  0  0  0
  9 11  1  0  0  0  0
  9 12  1  0  0  0  0
M  END
> <ID>
6877

> <Formula>
C9H8ClNaO3

> <FW>
222.6008 (199.6116+22.9892)

> <DSSTox_CID>
14700

> <DSSTox_RID>
79194

> <DSSTox_GSID>
34700

> <DSSTox_FileID_Sort>
3876

> <TS_ChemName>
MCPA-sodium

> <TS_ChemName_Synonyms>


> <TS_CASRN>
3653-48-3

> <CASRN_ChemName_Relationship>
primary

> <TS_Description>
single chemical compound

> <ChemNote>
parent [94-74-6]

> <STRUCTURE_Shown>
tested chemical

> <STRUCTURE_Formula>
C9H8ClNaO3

> <STRUCTURE_MW>
222.6008

> <STRUCTURE_ChemType>
defined organic

> <STRUCTURE_DefinedOrganicForm>
salt

> <STRUCTURE_IUPAC>
sodium (4-chloro-2-methylphenoxy)acetate

> <STRUCTURE_SMILES>
[Na+].Clc1cc(C)c(OCC([O-])=O)cc1

> <STRUCTURE_SMILES_Desalt>
Clc1cc(C)c(OCC(=O)O)cc1

> <Substance_modify_yyyymmdd>
20080429

$$$$
