36587-93-6
ChemmineR-0915142007XD

 17 15  0  0  0  0  0  0  0  0  1 V2000
    1.1530   -1.3296    0.0000 C   0  0  0  0  0  0  0  0  0  0  0  0
    1.1530    0.0000    0.0000 N   0  0  0  0  0  0  0  0  0  0  0  0
    2.3060   -1.9840    0.0000 N   0  0  0  0  0  0  0  0  0  0  0  0
    0.0000   -1.9840    0.0000 N   0  0  0  0  0  0  0  0  0  0  0  0
    9.2345   -1.9840    0.0000 C   0  0  0  0  0  0  0  0  0  0  0  0
    9.2345   -3.3344    0.0000 N   0  0  0  0  0  0  0  0  0  0  0  0
    8.0815   -1.3296    0.0000 N   0  0  0  0  0  0  0  0  0  0  0  0
   10.3876   -1.3296    0.0000 N   0  0  0  0  0  0  0  0  0  0  0  0
    5.7547   -1.3296    0.0000 C   0  0  0  0  0  0  0  0  0  0  0  0
    6.9077   -1.9840    0.0000 C   0  0  0  0  0  0  0  0  0  0  0  0
    4.6121   -1.9840    0.0000 C   0  0  0  0  0  0  0  0  0  0  0  0
    3.4591   -1.3296    0.0000 C   0  0  0  0  0  0  0  0  0  0  0  0
    5.5573   -4.8406    0.0000 S   0  0  0  0  0  0  0  0  0  0  0  0
    6.8973   -4.8406    0.0000 O   0  0  0  0  0  0  0  0  0  0  0  0
    4.2277   -4.8406    0.0000 O   0  0  0  0  0  0  0  0  0  0  0  0
    5.5573   -6.1702    0.0000 O   0  0  0  0  0  0  0  0  0  0  0  0
    5.5573   -3.5110    0.0000 O   0  0  0  0  0  0  0  0  0  0  0  0
  1  2  2  0  0  0  0
  1  3  1  0  0  0  0
  1  4  1  0  0  0  0
  3 12  1  0  0  0  0
  5  6  2  0  0  0  0
  5  7  1  0  0  0  0
  5  8  1  0  0  0  0
  7 10  1  0  0  0  0
  9 11  1  0  0  0  0
  9 10  1  0  0  0  0
 11 12  1  0  0  0  0
 13 14  2  0  0  0  0
 13 15  2  0  0  0  0
 13 16  1  0  0  0  0
 13 17  1  0  0  0  0
M  END
> <ID>
13729

> <Formula>
C6H18N6O4S

> <FW>
270.3099 (172.2314+98.0785)

> <DSSTox_CID>
28664

> <DSSTox_RID>
82934

> <DSSTox_GSID>
48738

> <DSSTox_FileID_Sort>
7611

> <TS_ChemName>
Tetramethylenediguanide sulfate

> <TS_ChemName_Synonyms>
ARCAINE SULFATE

> <TS_CASRN>
36587-93-6

> <CASRN_ChemName_Relationship>
primary

> <TS_Description>
single chemical compound

> <ChemNote>
CASRN is for a compound containing x sulfate; structure shown monosulfate [14923-17-2]; parent [544-05-8]

> <STRUCTURE_Shown>
tested chemical

> <STRUCTURE_Formula>
C6H18N6O4S

> <STRUCTURE_MW>
270.3099

> <STRUCTURE_ChemType>
defined organic

> <STRUCTURE_DefinedOrganicForm>
complex

> <STRUCTURE_IUPAC>
1,1'-butane-1,4-diyldiguanidine sulfate (1:1)

> <STRUCTURE_SMILES>
O=S(=O)(O)O.N=C(N)NCCCCNC(=N)N

> <STRUCTURE_SMILES_Desalt>
NC(=N)NCCCCNC(=N)N

> <Substance_modify_yyyymmdd>
20100107

$$$$
