36589-58-9
ChemmineR-0915142007XD

 13 10  0  0  0  0  0  0  0  0  2 V2000
    2.2176    0.0000    0.0000 O    0  5  0  0  0  0  0  0  0  0  0  0
    2.8908   -1.1484    0.0000 S    0  0  0  0  0  0  0  0  0  0  0  0
    3.5442   -2.3067    0.0000 O    0  0  0  0  0  0  0  0  0  0  0  0
    1.7325   -1.8216    0.0000 O    0  0  0  0  0  0  0  0  0  0  0  0
    4.0293   -0.4950    0.0000 C    0  0  0  0  0  0  0  0  0  0  0  0
    5.1875   -1.1484    0.0000 C    0  0  0  0  0  0  0  0  0  0  0  0
    6.3359   -0.4950    0.0000 C    0  0  0  0  0  0  0  0  0  0  0  0
    7.4942   -1.1484    0.0000 S    0  0  0  0  0  0  0  0  0  0  0  0
    8.1674    0.0000    0.0000 O    0  5  0  0  0  0  0  0  0  0  0  0
    8.6525   -1.8216    0.0000 O    0  0  0  0  0  0  0  0  0  0  0  0
    6.8309   -2.3067    0.0000 O    0  0  0  0  0  0  0  0  0  0  0  0
    0.0000    0.0000    0.0000 Na   0  3  0  0  0  0  0  0  0  0  0  0
    9.8999   -0.0396    0.0000 Na   0  3  0  0  0  0  0  0  0  0  0  0
  1  2  1  0  0  0  0
  2  3  2  0  0  0  0
  2  4  2  0  0  0  0
  2  5  1  0  0  0  0
  5  6  1  0  0  0  0
  6  7  1  0  0  0  0
  7  8  1  0  0  0  0
  8  9  1  0  0  0  0
  8 10  2  0  0  0  0
  8 11  2  0  0  0  0
M  END
> <ID>
11925

> <Formula>
C3H6Na2O6S2

> <FW>
248.1857 (202.2072+22.9892+22.9892)

> <DSSTox_CID>
26732

> <DSSTox_RID>
81861

> <DSSTox_GSID>
46732

> <DSSTox_FileID_Sort>
6542

> <TS_ChemName>
Disodium propane-1,3-disulfonate

> <TS_ChemName_Synonyms>


> <TS_CASRN>
36589-58-9

> <CASRN_ChemName_Relationship>
primary

> <TS_Description>
single chemical compound

> <ChemNote>
parent [21668-77-9]

> <STRUCTURE_Shown>
tested chemical

> <STRUCTURE_Formula>
C3H6Na2O6S2

> <STRUCTURE_MW>
248.1857

> <STRUCTURE_ChemType>
defined organic

> <STRUCTURE_DefinedOrganicForm>
salt

> <STRUCTURE_IUPAC>
disodium propane-1,3-disulfonate

> <STRUCTURE_SMILES>
[Na+].[Na+].[O-]S(=O)(=O)CCCS(=O)([O-])=O

> <STRUCTURE_SMILES_Desalt>
OS(=O)(=O)CCCS(=O)(=O)O

> <Substance_modify_yyyymmdd>
20110804

$$$$
