3658-48-8
ChemmineR-0915142007XD

 20 19  0  0  0  0  0  0  0  0  1 V2000
    8.0671   -1.3391    0.0000 P   0  0  0  0  0  0  0  0  0  0  0  0
    8.0671    0.0000    0.0000 O   0  0  0  0  0  0  0  0  0  0  0  0
    9.2126   -2.0006    0.0000 O   0  0  0  0  0  0  0  0  0  0  0  0
    6.9215   -2.0006    0.0000 O   0  0  0  0  0  0  0  0  0  0  0  0
   10.3743   -1.3391    0.0000 C   0  0  0  0  0  0  0  0  0  0  0  0
   11.5198   -2.0006    0.0000 C   0  0  0  0  0  0  0  0  0  0  0  0
   12.6814   -1.3391    0.0000 C   0  0  0  0  0  0  0  0  0  0  0  0
   13.8270   -2.0006    0.0000 C   0  0  0  0  0  0  0  0  0  0  0  0
   14.9725   -1.3391    0.0000 C   0  0  0  0  0  0  0  0  0  0  0  0
   16.1341   -2.0006    0.0000 C   0  0  0  0  0  0  0  0  0  0  0  0
   11.5198   -3.3236    0.0000 C   0  0  0  0  0  0  0  0  0  0  0  0
   12.6814   -3.9851    0.0000 C   0  0  0  0  0  0  0  0  0  0  0  0
    5.7599   -1.3391    0.0000 C   0  0  0  0  0  0  0  0  0  0  0  0
    4.6144   -2.0006    0.0000 C   0  0  0  0  0  0  0  0  0  0  0  0
    3.4527   -1.3391    0.0000 C   0  0  0  0  0  0  0  0  0  0  0  0
    2.3072   -2.0006    0.0000 C   0  0  0  0  0  0  0  0  0  0  0  0
    1.1617   -1.3391    0.0000 C   0  0  0  0  0  0  0  0  0  0  0  0
    0.0000   -2.0006    0.0000 C   0  0  0  0  0  0  0  0  0  0  0  0
    4.6144   -3.3236    0.0000 C   0  0  0  0  0  0  0  0  0  0  0  0
    3.4527   -4.0013    0.0000 C   0  0  0  0  0  0  0  0  0  0  0  0
  1  2  2  0  0  0  0
  1  3  1  0  0  0  0
  1  4  1  0  0  0  0
  3  5  1  0  0  0  0
  4 13  1  0  0  0  0
  5  6  1  0  0  0  0
  6  7  1  0  0  0  0
  6 11  1  0  0  0  0
  7  8  1  0  0  0  0
  8  9  1  0  0  0  0
  9 10  1  0  0  0  0
 11 12  1  0  0  0  0
 13 14  1  0  0  0  0
 14 15  1  0  0  0  0
 14 19  1  0  0  0  0
 15 16  1  0  0  0  0
 16 17  1  0  0  0  0
 17 18  1  0  0  0  0
 19 20  1  0  0  0  0
M  END
> <ID>
10574

> <Formula>
C16H35O3P

> <FW>
306.4211

> <DSSTox_CID>
24927

> <DSSTox_RID>
80592

> <DSSTox_GSID>
44927

> <DSSTox_FileID_Sort>
5274

> <TS_ChemName>
Bis(2-ethylhexyl) phosphonate

> <TS_ChemName_Synonyms>
Bis(2-ethylhexyl) phosphonate (Bis(2-ethylhexyl) phosphite) (Phosphonic acid, bis(2-ethylhexyl) ester)

> <TS_CASRN>
3658-48-8

> <CASRN_ChemName_Relationship>
primary

> <TS_Description>
single chemical compound

> <ChemNote>


> <STRUCTURE_Shown>
tested chemical

> <STRUCTURE_Formula>
C16H35O3P

> <STRUCTURE_MW>
306.4211

> <STRUCTURE_ChemType>
defined organic

> <STRUCTURE_DefinedOrganicForm>
parent

> <STRUCTURE_IUPAC>
bis(2-ethylhexyl) phosphonate

> <STRUCTURE_SMILES>
CCCCC(COP(=O)OCC(CC)CCCC)CC

> <STRUCTURE_SMILES_Desalt>
CCCCC(COP(=O)OCC(CC)CCCC)CC

> <Substance_modify_yyyymmdd>
20091116

$$$$
