36637-18-0
ChemmineR-0915142007XD

 20 20  0  0  0  0  0  0  0  0  1 V2000
    7.9836   -1.1576    0.0000 C   0  0  0  0  0  0  0  0  0  0  0  0
    7.3150    0.0000    0.0000 C   0  0  0  0  0  0  0  0  0  0  0  0
    9.3109   -1.1576    0.0000 C   0  0  0  0  0  0  0  0  0  0  0  0
    9.9795   -2.3053    0.0000 C   0  0  0  0  0  0  0  0  0  0  0  0
    9.3109   -3.4629    0.0000 C   0  0  0  0  0  0  0  0  0  0  0  0
    7.9836   -3.4629    0.0000 C   0  0  0  0  0  0  0  0  0  0  0  0
    7.3150   -4.6105    0.0000 C   0  0  0  0  0  0  0  0  0  0  0  0
    7.3150   -2.3053    0.0000 C   0  0  0  0  0  0  0  0  0  0  0  0
    5.9877   -2.3053    0.0000 N   0  0  0  0  0  0  0  0  0  0  0  0
    5.3191   -3.4629    0.0000 C   0  0  0  0  0  0  0  0  0  0  0  0
    5.9877   -4.6105    0.0000 O   0  0  0  0  0  0  0  0  0  0  0  0
    3.9918   -3.4629    0.0000 C   0  0  0  0  0  0  0  0  0  0  0  0
    3.3232   -2.3053    0.0000 N   0  0  0  0  0  0  0  0  0  0  0  0
    1.9959   -2.3053    0.0000 C   0  0  0  0  0  0  0  0  0  0  0  0
    1.3273   -1.1576    0.0000 C   0  0  0  0  0  0  0  0  0  0  0  0
    0.0000   -1.1576    0.0000 C   0  0  0  0  0  0  0  0  0  0  0  0
    3.9918   -1.1576    0.0000 C   0  0  0  0  0  0  0  0  0  0  0  0
    5.3191   -1.1576    0.0000 C   0  0  0  0  0  0  0  0  0  0  0  0
    3.3232   -4.6105    0.0000 C   0  0  0  0  0  0  0  0  0  0  0  0
    1.9959   -4.6105    0.0000 C   0  0  0  0  0  0  0  0  0  0  0  0
  1  2  1  0  0  0  0
  1  3  2  0  0  0  0
  1  8  1  0  0  0  0
  3  4  1  0  0  0  0
  4  5  2  0  0  0  0
  5  6  1  0  0  0  0
  6  7  1  0  0  0  0
  6  8  2  0  0  0  0
  8  9  1  0  0  0  0
  9 10  1  0  0  0  0
 10 11  2  0  0  0  0
 10 12  1  0  0  0  0
 12 13  1  0  0  0  0
 12 19  1  0  0  0  0
 13 14  1  0  0  0  0
 13 17  1  0  0  0  0
 14 15  1  0  0  0  0
 15 16  1  0  0  0  0
 17 18  1  0  0  0  0
 19 20  1  0  0  0  0
M  END
> <ID>
2720

> <Formula>
C17H28N2O

> <FW>
276.417

> <DSSTox_CID>
3027

> <DSSTox_RID>
76836

> <DSSTox_GSID>
23027

> <DSSTox_FileID_Sort>
1520

> <TS_ChemName>
Etidocaine

> <TS_ChemName_Synonyms>


> <TS_CASRN>
36637-18-0

> <CASRN_ChemName_Relationship>
primary

> <TS_Description>
single chemical compound

> <ChemNote>
tautomers

> <STRUCTURE_Shown>
tested chemical

> <STRUCTURE_Formula>
C17H28N2O

> <STRUCTURE_MW>
276.417

> <STRUCTURE_ChemType>
defined organic

> <STRUCTURE_DefinedOrganicForm>
parent

> <STRUCTURE_IUPAC>
N-(2,6-dimethylphenyl)-2-[ethyl(propyl)amino]butanamide

> <STRUCTURE_SMILES>
O=C(Nc1c(C)cccc1C)C(CC)N(CC)CCC

> <STRUCTURE_SMILES_Desalt>
O=C(Nc1c(C)cccc1C)C(CC)N(CC)CCC

> <Substance_modify_yyyymmdd>
20080429

$$$$
