36631-30-8
ChemmineR-0915142007XD

 45 45  0  0  0  0  0  0  0  0  1 V2000
   14.9518  -11.9479    0.0000 C   0  0  0  0  0  0  0  0  0  0  0  0
   14.9518  -10.6153    0.0000 C   0  0  0  0  0  0  0  0  0  0  0  0
   13.7999   -9.9603    0.0000 C   0  0  0  0  0  0  0  0  0  0  0  0
   12.6480  -10.6153    0.0000 C   0  0  0  0  0  0  0  0  0  0  0  0
   12.6480  -11.9479    0.0000 C   0  0  0  0  0  0  0  0  0  0  0  0
   13.7999  -12.6254    0.0000 C   0  0  0  0  0  0  0  0  0  0  0  0
   11.4962   -9.9377    0.0000 C   0  0  0  0  0  0  0  0  0  0  0  0
   11.4962   -8.6278    0.0000 O   0  0  0  0  0  0  0  0  0  0  0  0
   10.3443  -10.6153    0.0000 O   0  0  0  0  0  0  0  0  0  0  0  0
    9.1924   -9.9377    0.0000 C   0  0  0  0  0  0  0  0  0  0  0  0
    8.0631  -10.6153    0.0000 C   0  0  0  0  0  0  0  0  0  0  0  0
    6.9112   -9.9377    0.0000 C   0  0  0  0  0  0  0  0  0  0  0  0
    5.7594  -10.6153    0.0000 C   0  0  0  0  0  0  0  0  0  0  0  0
    4.6075   -9.9377    0.0000 C   0  0  0  0  0  0  0  0  0  0  0  0
    3.4330  -10.6153    0.0000 C   0  0  0  0  0  0  0  0  0  0  0  0
    2.2812   -9.9377    0.0000 C   0  0  0  0  0  0  0  0  0  0  0  0
    1.1293  -10.6153    0.0000 C   0  0  0  0  0  0  0  0  0  0  0  0
    1.1293  -11.9253    0.0000 C   0  0  0  0  0  0  0  0  0  0  0  0
    0.0000   -9.9377    0.0000 C   0  0  0  0  0  0  0  0  0  0  0  0
   16.1036   -9.9603    0.0000 C   0  0  0  0  0  0  0  0  0  0  0  0
   17.2555  -10.6379    0.0000 O   0  0  0  0  0  0  0  0  0  0  0  0
   16.1036   -8.6278    0.0000 O   0  0  0  0  0  0  0  0  0  0  0  0
   17.2555   -7.9502    0.0000 C   0  0  0  0  0  0  0  0  0  0  0  0
   17.2555   -6.6402    0.0000 C   0  0  0  0  0  0  0  0  0  0  0  0
   18.4074   -5.9852    0.0000 C   0  0  0  0  0  0  0  0  0  0  0  0
   18.3848   -4.6527    0.0000 C   0  0  0  0  0  0  0  0  0  0  0  0
   19.5367   -3.9977    0.0000 C   0  0  0  0  0  0  0  0  0  0  0  0
   19.5367   -2.6651    0.0000 C   0  0  0  0  0  0  0  0  0  0  0  0
   20.6886   -1.9875    0.0000 C   0  0  0  0  0  0  0  0  0  0  0  0
   20.6886   -0.6550    0.0000 C   0  0  0  0  0  0  0  0  0  0  0  0
   19.5367    0.0000    0.0000 C   0  0  0  0  0  0  0  0  0  0  0  0
   21.8404    0.0000    0.0000 C   0  0  0  0  0  0  0  0  0  0  0  0
   16.1036  -12.6254    0.0000 C   0  0  0  0  0  0  0  0  0  0  0  0
   17.2555  -11.9479    0.0000 O   0  0  0  0  0  0  0  0  0  0  0  0
   16.0811  -13.9354    0.0000 O   0  0  0  0  0  0  0  0  0  0  0  0
   17.2329  -14.6130    0.0000 C   0  0  0  0  0  0  0  0  0  0  0  0
   17.2329  -15.9455    0.0000 C   0  0  0  0  0  0  0  0  0  0  0  0
   18.3848  -16.6005    0.0000 C   0  0  0  0  0  0  0  0  0  0  0  0
   18.3848  -17.9331    0.0000 C   0  0  0  0  0  0  0  0  0  0  0  0
   19.5367  -18.5881    0.0000 C   0  0  0  0  0  0  0  0  0  0  0  0
   19.5367  -19.9206    0.0000 C   0  0  0  0  0  0  0  0  0  0  0  0
   20.6886  -20.5756    0.0000 C   0  0  0  0  0  0  0  0  0  0  0  0
   20.6886  -21.9082    0.0000 C   0  0  0  0  0  0  0  0  0  0  0  0
   19.5367  -22.5632    0.0000 C   0  0  0  0  0  0  0  0  0  0  0  0
   21.8404  -22.5858    0.0000 C   0  0  0  0  0  0  0  0  0  0  0  0
  1  2  1  0  0  0  0
  1  6  2  0  0  0  0
  1 33  1  0  0  0  0
  2  3  2  0  0  0  0
  2 20  1  0  0  0  0
  3  4  1  0  0  0  0
  4  5  2  0  0  0  0
  4  7  1  0  0  0  0
  5  6  1  0  0  0  0
  7  8  2  0  0  0  0
  7  9  1  0  0  0  0
  9 10  1  0  0  0  0
 10 11  1  0  0  0  0
 11 12  1  0  0  0  0
 12 13  1  0  0  0  0
 13 14  1  0  0  0  0
 14 15  1  0  0  0  0
 15 16  1  0  0  0  0
 16 17  1  0  0  0  0
 17 18  1  0  0  0  0
 17 19  1  0  0  0  0
 20 21  2  0  0  0  0
 20 22  1  0  0  0  0
 22 23  1  0  0  0  0
 23 24  1  0  0  0  0
 24 25  1  0  0  0  0
 25 26  1  0  0  0  0
 26 27  1  0  0  0  0
 27 28  1  0  0  0  0
 28 29  1  0  0  0  0
 29 30  1  0  0  0  0
 30 31  1  0  0  0  0
 30 32  1  0  0  0  0
 33 34  2  0  0  0  0
 33 35  1  0  0  0  0
 35 36  1  0  0  0  0
 36 37  1  0  0  0  0
 37 38  1  0  0  0  0
 38 39  1  0  0  0  0
 39 40  1  0  0  0  0
 40 41  1  0  0  0  0
 41 42  1  0  0  0  0
 42 43  1  0  0  0  0
 43 44  1  0  0  0  0
 43 45  1  0  0  0  0
M  END
> <ID>
12327

> <Formula>
C39H66O6

> <FW>
630.9377

> <DSSTox_CID>
27180

> <DSSTox_RID>
82177

> <DSSTox_GSID>
47180

> <DSSTox_FileID_Sort>
6858

> <TS_ChemName>
Triisodecyl trimellitate

> <TS_ChemName_Synonyms>


> <TS_CASRN>
36631-30-8

> <CASRN_ChemName_Relationship>
primary

> <TS_Description>
mixture or formulation

> <ChemNote>
mixture of isodecyl isomers; structures shown 8-methylnonyl

> <STRUCTURE_Shown>
representative isomer in mixture

> <STRUCTURE_Formula>
C39H66O6

> <STRUCTURE_MW>
630.9377

> <STRUCTURE_ChemType>
defined organic

> <STRUCTURE_DefinedOrganicForm>
parent

> <STRUCTURE_IUPAC>
tris(8-methylnonyl) benzene-1,2,4-tricarboxylate

> <STRUCTURE_SMILES>
CC(C)CCCCCCCOC(=O)c1cc(C(=O)OCCCCCCCC(C)C)c(cc1)C(=O)OCCCCCCCC(C)C

> <STRUCTURE_SMILES_Desalt>
CC(C)CCCCCCCOC(=O)c1cc(C(=O)OCCCCCCCC(C)C)c(cc1)C(=O)OCCCCCCCC(C)C

> <Substance_modify_yyyymmdd>
20100503

$$$$
