36673-16-2
ChemmineR-0915142007XD

 29 28  0  0  0  0  0  0  0  0  1 V2000
    8.0744   -3.4558    0.0000 Ti   0  0  0  0  0  0  0  0  0  0  0  0
    6.9278   -2.7937    0.0000 O    0  0  0  0  0  0  0  0  0  0  0  0
    7.4123   -4.6024    0.0000 O    0  0  0  0  0  0  0  0  0  0  0  0
    8.7365   -2.3254    0.0000 O    0  0  0  0  0  0  0  0  0  0  0  0
    9.2210   -4.1179    0.0000 O    0  0  0  0  0  0  0  0  0  0  0  0
    8.0744   -1.1466    0.0000 C    0  0  0  0  0  0  0  0  0  0  0  0
    8.0744   -5.7651    0.0000 C    0  0  0  0  0  0  0  0  0  0  0  0
    6.7341   -1.1466    0.0000 C    0  0  0  0  0  0  0  0  0  0  0  0
    8.7365    0.0000    0.0000 C    0  0  0  0  0  0  0  0  0  0  0  0
    9.4148   -5.7651    0.0000 C    0  0  0  0  0  0  0  0  0  0  0  0
    7.4284   -6.9117    0.0000 C    0  0  0  0  0  0  0  0  0  0  0  0
    5.7813   -3.4558    0.0000 C    0  0  0  0  0  0  0  0  0  0  0  0
   10.3675   -3.4558    0.0000 C    0  0  0  0  0  0  0  0  0  0  0  0
    4.6186   -2.7937    0.0000 C    0  0  0  0  0  0  0  0  0  0  0  0
    3.4720   -3.4558    0.0000 N    0  0  0  0  0  0  0  0  0  0  0  0
    3.4720   -4.7800    0.0000 C    0  0  0  0  0  0  0  0  0  0  0  0
   11.5302   -4.1179    0.0000 C    0  0  0  0  0  0  0  0  0  0  0  0
   12.6930   -3.4558    0.0000 N    0  0  0  0  0  0  0  0  0  0  0  0
   12.6930   -2.1316    0.0000 C    0  0  0  0  0  0  0  0  0  0  0  0
    2.3093   -5.4583    0.0000 C    0  0  0  0  0  0  0  0  0  0  0  0
   13.8395   -1.4534    0.0000 C    0  0  0  0  0  0  0  0  0  0  0  0
   13.8395   -4.1179    0.0000 C    0  0  0  0  0  0  0  0  0  0  0  0
   15.0022   -3.4558    0.0000 C    0  0  0  0  0  0  0  0  0  0  0  0
   13.8395   -0.1292    0.0000 O    0  0  0  0  0  0  0  0  0  0  0  0
   16.1488   -4.1179    0.0000 O    0  0  0  0  0  0  0  0  0  0  0  0
    2.3093   -2.7937    0.0000 C    0  0  0  0  0  0  0  0  0  0  0  0
    1.1466   -3.4558    0.0000 C    0  0  0  0  0  0  0  0  0  0  0  0
    2.3093   -6.7825    0.0000 O    0  0  0  0  0  0  0  0  0  0  0  0
    0.0000   -2.7937    0.0000 O    0  0  0  0  0  0  0  0  0  0  0  0
  1  2  1  0  0  0  0
  1  3  1  0  0  0  0
  1  4  1  0  0  0  0
  1  5  1  0  0  0  0
  2 12  1  0  0  0  0
  3  7  1  0  0  0  0
  4  6  1  0  0  0  0
  5 13  1  0  0  0  0
  6  8  1  0  0  0  0
  6  9  1  0  0  0  0
  7 10  1  0  0  0  0
  7 11  1  0  0  0  0
 12 14  1  0  0  0  0
 13 17  1  0  0  0  0
 14 15  1  0  0  0  0
 15 16  1  0  0  0  0
 15 26  1  0  0  0  0
 16 20  1  0  0  0  0
 17 18  1  0  0  0  0
 18 19  1  0  0  0  0
 18 22  1  0  0  0  0
 19 21  1  0  0  0  0
 20 28  1  0  0  0  0
 21 24  1  0  0  0  0
 22 23  1  0  0  0  0
 23 25  1  0  0  0  0
 26 27  1  0  0  0  0
 27 29  1  0  0  0  0
M  END
> <ID>
10575

> <Formula>
C18H42N2O8Ti

> <FW>
462.4017

> <DSSTox_CID>
24928

> <DSSTox_RID>
80593

> <DSSTox_GSID>
44928

> <DSSTox_FileID_Sort>
5275

> <TS_ChemName>
Titanium(4+) 2-[bis(2-hydroxyethyl)amino]ethanolate propan-2-olate (1:2:2)

> <TS_ChemName_Synonyms>
Titanium(4+) 2-[bis(2-hydroxyethyl)amino]ethanolate propan-2-olate (1:2:2) (Titanium, bis[2-[bis(2-hydroxyethyl)amino-.kappa.N]ethanolato-.kappa.O]bis(2-propanolato)-)

> <TS_CASRN>
36673-16-2

> <CASRN_ChemName_Relationship>
primary

> <TS_Description>
single chemical compound

> <ChemNote>


> <STRUCTURE_Shown>
tested chemical

> <STRUCTURE_Formula>
C18H42N2O8Ti

> <STRUCTURE_MW>
462.4017

> <STRUCTURE_ChemType>
organometallic

> <STRUCTURE_DefinedOrganicForm>


> <STRUCTURE_IUPAC>
titanium(4+) 2-[bis(2-hydroxyethyl)amino]ethanolate propan-2-olate (1:2:2)

> <STRUCTURE_SMILES>
CC(C)O[Ti](OCCN(CCO)CCO)(OC(C)C)OCCN(CCO)CCO

> <STRUCTURE_SMILES_Desalt>
CC(C)O[Ti](OCCN(CCO)CCO)(OC(C)C)OCCN(CCO)CCO

> <Substance_modify_yyyymmdd>
20091116

$$$$
