366789-02-8
ChemmineR-0915142007XD

 29 32  0  0  0  0  0  0  0  0  1 V2000
    8.7914  -13.2400    0.0000 Cl   0  0  0  0  0  0  0  0  0  0  0  0
    9.4534  -12.0881    0.0000 C    0  0  0  0  0  0  0  0  0  0  0  0
   10.7774  -11.9425    0.0000 C    0  0  0  0  0  0  0  0  0  0  0  0
   11.0554  -10.6450    0.0000 C    0  0  0  0  0  0  0  0  0  0  0  0
    9.9035   -9.9830    0.0000 C    0  0  0  0  0  0  0  0  0  0  0  0
    8.9238  -10.8700    0.0000 S    0  0  0  0  0  0  0  0  0  0  0  0
    9.7711   -8.6590    0.0000 C    0  0  0  0  0  0  0  0  0  0  0  0
   10.8436   -7.8778    0.0000 O    0  0  0  0  0  0  0  0  0  0  0  0
    8.5530   -8.1161    0.0000 N    0  0  0  0  0  0  0  0  0  0  0  0
    7.4806   -8.8973    0.0000 C    0  0  0  0  0  0  0  0  0  0  0  0
    6.2625   -8.3544    0.0000 C    0  0  0  0  0  0  0  0  0  0  0  0
    5.9845   -7.0569    0.0000 C    0  0  0  0  0  0  0  0  0  0  0  0
    4.6605   -6.9113    0.0000 N    0  0  0  0  0  0  0  0  0  0  0  0
    4.1176   -8.1294    0.0000 C    0  0  0  0  0  0  0  0  0  0  0  0
    2.8201   -8.4074    0.0000 O    0  0  0  0  0  0  0  0  0  0  0  0
    5.1106   -9.0164    0.0000 O    0  0  0  0  0  0  0  0  0  0  0  0
    3.9985   -5.7594    0.0000 C    0  0  0  0  0  0  0  0  0  0  0  0
    4.6605   -4.6075    0.0000 C    0  0  0  0  0  0  0  0  0  0  0  0
    3.9985   -3.4556    0.0000 C    0  0  0  0  0  0  0  0  0  0  0  0
    2.6612   -3.4556    0.0000 C    0  0  0  0  0  0  0  0  0  0  0  0
    1.9992   -4.6075    0.0000 C    0  0  0  0  0  0  0  0  0  0  0  0
    2.6612   -5.7594    0.0000 C    0  0  0  0  0  0  0  0  0  0  0  0
    1.9992   -2.3038    0.0000 N    0  0  0  0  0  0  0  0  0  0  0  0
    2.6612   -1.1519    0.0000 C    0  0  0  0  0  0  0  0  0  0  0  0
    1.9992    0.0000    0.0000 C    0  0  0  0  0  0  0  0  0  0  0  0
    0.6620    0.0000    0.0000 O    0  0  0  0  0  0  0  0  0  0  0  0
    0.0000   -1.1519    0.0000 C    0  0  0  0  0  0  0  0  0  0  0  0
    0.6620   -2.3038    0.0000 C    0  0  0  0  0  0  0  0  0  0  0  0
    0.0000   -3.4556    0.0000 O    0  0  0  0  0  0  0  0  0  0  0  0
  1  2  1  0  0  0  0
  2  3  2  0  0  0  0
  2  6  1  0  0  0  0
  3  4  1  0  0  0  0
  4  5  2  0  0  0  0
  5  6  1  0  0  0  0
  5  7  1  0  0  0  0
  7  8  2  0  0  0  0
  7  9  1  0  0  0  0
  9 10  1  0  0  0  0
 10 11  1  0  0  0  0
 11 12  1  0  0  0  0
 11 16  1  0  0  0  0
 12 13  1  0  0  0  0
 13 14  1  0  0  0  0
 13 17  1  0  0  0  0
 14 15  2  0  0  0  0
 14 16  1  0  0  0  0
 17 18  2  0  0  0  0
 17 22  1  0  0  0  0
 18 19  1  0  0  0  0
 19 20  2  0  0  0  0
 20 21  1  0  0  0  0
 20 23  1  0  0  0  0
 21 22  2  0  0  0  0
 23 24  1  0  0  0  0
 23 28  1  0  0  0  0
 24 25  1  0  0  0  0
 25 26  1  0  0  0  0
 26 27  1  0  0  0  0
 27 28  1  0  0  0  0
 28 29  2  0  0  0  0
M  END
> <ID>
16123

> <Formula>
C19H18ClN3O5S

> <FW>
435.8813

> <DSSTox_CID>
31512

> <DSSTox_RID>
97397

> <DSSTox_GSID>
57723

> <DSSTox_FileID_Sort>
8464

> <TS_ChemName>
Rivaroxaban

> <TS_ChemName_Synonyms>


> <TS_CASRN>
366789-02-8

> <CASRN_ChemName_Relationship>
primary

> <TS_Description>
single chemical compound

> <ChemNote>


> <STRUCTURE_Shown>
tested chemical

> <STRUCTURE_Formula>
C19H18ClN3O5S

> <STRUCTURE_MW>
435.8813

> <STRUCTURE_ChemType>
defined organic

> <STRUCTURE_DefinedOrganicForm>
parent

> <STRUCTURE_IUPAC>
5-chloro-N-({2-oxo-3-[4-(3-oxomorpholin-4-yl)phenyl]-1,3-oxazolidin-5-yl}methyl)thiophene-2-carboxamide

> <STRUCTURE_SMILES>
O=C(NCC3CN(c1ccc(cc1)N2CCOCC2=O)C(=O)O3)c4ccc(Cl)s4

> <STRUCTURE_SMILES_Desalt>
O=C(NCC3CN(c1ccc(cc1)N2CCOCC2=O)C(=O)O3)c4ccc(Cl)s4

> <Substance_modify_yyyymmdd>
20131018

$$$$
