367-12-4
ChemmineR-0915142007XD

  8  8  0  0  0  0  0  0  0  0  1 V2000
    1.1495   -1.3223    0.0000 C   0  0  0  0  0  0  0  0  0  0  0  0
    1.1495    0.0000    0.0000 O   0  0  0  0  0  0  0  0  0  0  0  0
    2.2949   -2.0095    0.0000 C   0  0  0  0  0  0  0  0  0  0  0  0
    0.0000   -2.0095    0.0000 C   0  0  0  0  0  0  0  0  0  0  0  0
    0.0000   -3.3318    0.0000 C   0  0  0  0  0  0  0  0  0  0  0  0
    2.2949   -3.3318    0.0000 C   0  0  0  0  0  0  0  0  0  0  0  0
    1.1495   -4.0191    0.0000 C   0  0  0  0  0  0  0  0  0  0  0  0
    3.4444   -1.3544    0.0000 F   0  0  0  0  0  0  0  0  0  0  0  0
  1  2  1  0  0  0  0
  1  3  2  0  0  0  0
  1  4  1  0  0  0  0
  3  6  1  0  0  0  0
  3  8  1  0  0  0  0
  4  5  2  0  0  0  0
  5  7  1  0  0  0  0
  6  7  2  0  0  0  0
M  END
> <ID>
12850

> <Formula>
C6H5FO

> <FW>
112.1017

> <DSSTox_CID>
27729

> <DSSTox_RID>
82528

> <DSSTox_GSID>
47745

> <DSSTox_FileID_Sort>
7209

> <TS_ChemName>
2-Fluorophenol

> <TS_ChemName_Synonyms>


> <TS_CASRN>
367-12-4

> <CASRN_ChemName_Relationship>
primary

> <TS_Description>
single chemical compound

> <ChemNote>


> <STRUCTURE_Shown>
tested chemical

> <STRUCTURE_Formula>
C6H5FO

> <STRUCTURE_MW>
112.1017

> <STRUCTURE_ChemType>
defined organic

> <STRUCTURE_DefinedOrganicForm>
parent

> <STRUCTURE_IUPAC>
2-fluorophenol

> <STRUCTURE_SMILES>
Fc1ccccc1O

> <STRUCTURE_SMILES_Desalt>
Fc1ccccc1O

> <Substance_modify_yyyymmdd>
20110208

$$$$
