36734-19-7
ChemmineR-0915142007XD

 21 22  0  0  0  0  0  0  0  0  1 V2000
    6.7359   -2.3587    0.0000 N    0  0  0  0  0  0  0  0  0  0  0  0
    5.7040   -3.1185    0.0000 C    0  0  0  0  0  0  0  0  0  0  0  0
    4.6040   -2.3247    0.0000 N    0  0  0  0  0  0  0  0  0  0  0  0
    5.0122   -1.0886    0.0000 C    0  0  0  0  0  0  0  0  0  0  0  0
    7.8812   -3.0618    0.0000 C    0  0  0  0  0  0  0  0  0  0  0  0
    3.4813   -2.9937    0.0000 C    0  0  0  0  0  0  0  0  0  0  0  0
    6.3390   -1.0886    0.0000 C    0  0  0  0  0  0  0  0  0  0  0  0
    9.0266   -2.4381    0.0000 N    0  0  0  0  0  0  0  0  0  0  0  0
    2.3247   -2.3587    0.0000 C    0  0  0  0  0  0  0  0  0  0  0  0
    3.4813   -4.3432    0.0000 C    0  0  0  0  0  0  0  0  0  0  0  0
    5.7040   -4.4906    0.0000 O    0  0  0  0  0  0  0  0  0  0  0  0
    4.2298    0.0000    0.0000 O    0  0  0  0  0  0  0  0  0  0  0  0
    7.8812   -4.3772    0.0000 O    0  0  0  0  0  0  0  0  0  0  0  0
    1.1907   -2.9937    0.0000 C    0  0  0  0  0  0  0  0  0  0  0  0
    2.3247   -5.0009    0.0000 C    0  0  0  0  0  0  0  0  0  0  0  0
    1.1907   -4.3432    0.0000 C    0  0  0  0  0  0  0  0  0  0  0  0
    2.3247   -6.3277    0.0000 Cl   0  0  0  0  0  0  0  0  0  0  0  0
    0.0000   -2.3133    0.0000 Cl   0  0  0  0  0  0  0  0  0  0  0  0
   10.1832   -3.1185    0.0000 C    0  0  0  0  0  0  0  0  0  0  0  0
   11.3399   -2.4381    0.0000 C    0  0  0  0  0  0  0  0  0  0  0  0
   10.1832   -4.4566    0.0000 C    0  0  0  0  0  0  0  0  0  0  0  0
  1  2  1  0  0  0  0
  1  5  1  0  0  0  0
  1  7  1  0  0  0  0
  2  3  1  0  0  0  0
  2 11  2  0  0  0  0
  3  6  1  0  0  0  0
  3  4  1  0  0  0  0
  4  7  1  0  0  0  0
  4 12  2  0  0  0  0
  5  8  1  0  0  0  0
  5 13  2  0  0  0  0
  6  9  1  0  0  0  0
  6 10  2  0  0  0  0
  8 19  1  0  0  0  0
  9 14  2  0  0  0  0
 10 15  1  0  0  0  0
 14 18  1  0  0  0  0
 14 16  1  0  0  0  0
 15 16  2  0  0  0  0
 15 17  1  0  0  0  0
 19 20  1  0  0  0  0
 19 21  1  0  0  0  0
M  END
> <ID>
3532

> <Formula>
C13H13Cl2N3O3

> <FW>
330.1666

> <DSSTox_CID>
4154

> <DSSTox_RID>
77307

> <DSSTox_GSID>
24154

> <DSSTox_FileID_Sort>
1990

> <TS_ChemName>
Iprodione

> <TS_ChemName_Synonyms>


> <TS_CASRN>
36734-19-7

> <CASRN_ChemName_Relationship>
primary

> <TS_Description>
single chemical compound

> <ChemNote>


> <STRUCTURE_Shown>
tested chemical

> <STRUCTURE_Formula>
C13H13Cl2N3O3

> <STRUCTURE_MW>
330.1666

> <STRUCTURE_ChemType>
defined organic

> <STRUCTURE_DefinedOrganicForm>
parent

> <STRUCTURE_IUPAC>
3-(3,5-dichlorophenyl)-2,4-dioxo-N-(propan-2-yl)imidazolidine-1-carboxamide

> <STRUCTURE_SMILES>
O=C2CN(C(=O)NC(C)C)C(=O)N2c1cc(Cl)cc(Cl)c1

> <STRUCTURE_SMILES_Desalt>
O=C2CN(C(=O)NC(C)C)C(=O)N2c1cc(Cl)cc(Cl)c1

> <Substance_modify_yyyymmdd>
20080429

$$$$
