3681-71-8
ChemmineR-0915142007XD

 10  9  0  0  0  0  0  0  0  0  1 V2000
    3.4536   -1.3193    0.0000 C   0  0  0  0  0  0  0  0  0  0  0  0
    4.6071   -1.9893    0.0000 C   0  0  0  0  0  0  0  0  0  0  0  0
    5.7330   -1.3193    0.0000 C   0  0  0  0  0  0  0  0  0  0  0  0
    6.9072   -1.9893    0.0000 C   0  0  0  0  0  0  0  0  0  0  0  0
    6.9072   -3.3224    0.0000 C   0  0  0  0  0  0  0  0  0  0  0  0
    5.7675   -3.9993    0.0000 C   0  0  0  0  0  0  0  0  0  0  0  0
    2.3001   -1.9893    0.0000 O   0  0  0  0  0  0  0  0  0  0  0  0
    1.1397   -1.3193    0.0000 C   0  0  0  0  0  0  0  0  0  0  0  0
    0.0000   -1.9893    0.0000 C   0  0  0  0  0  0  0  0  0  0  0  0
    1.1259    0.0000    0.0000 O   0  0  0  0  0  0  0  0  0  0  0  0
  1  2  1  0  0  0  0
  1  7  1  0  0  0  0
  2  3  1  0  0  0  0
  3  4  2  0  0  0  0
  4  5  1  0  0  0  0
  5  6  1  0  0  0  0
  7  8  1  0  0  0  0
  8  9  1  0  0  0  0
  8 10  2  0  0  0  0
M  END
> <ID>
8450

> <Formula>
C8H14O2

> <FW>
142.1956

> <DSSTox_CID>
21484

> <DSSTox_RID>
79747

> <DSSTox_GSID>
41484

> <DSSTox_FileID_Sort>
4429

> <TS_ChemName>
(3Z)-3-Hexenyl acetate

> <TS_ChemName_Synonyms>
z3HAC

> <TS_CASRN>
3681-71-8

> <CASRN_ChemName_Relationship>
primary

> <TS_Description>
single chemical compound

> <ChemNote>
stereochem

> <STRUCTURE_Shown>
tested chemical

> <STRUCTURE_Formula>
C8H14O2

> <STRUCTURE_MW>
142.1956

> <STRUCTURE_ChemType>
defined organic

> <STRUCTURE_DefinedOrganicForm>
parent

> <STRUCTURE_IUPAC>
(3Z)-hex-3-en-1-yl acetate

> <STRUCTURE_SMILES>
O=C(C)OCC/C=C\CC

> <STRUCTURE_SMILES_Desalt>
O=C(C)OCC/C=C\CC

> <Substance_modify_yyyymmdd>
20080825

$$$$
