3682-19-7
ChemmineR-0915142007XD

 15 16  0  0  0  0  0  0  0  0  2 V2000
    0.0000   -3.3222    0.0000 O   0  5  0  0  0  0  0  0  0  0  0  0
    1.1489   -5.3017    0.0000 O   0  0  0  0  0  0  0  0  0  0  0  0
    1.1489   -3.9797    0.0000 N   0  3  0  0  0  0  0  0  0  0  0  0
    5.7724   -5.3017    0.0000 O   0  0  0  0  0  0  0  0  0  0  0  0
    4.6027   -1.9795    0.0000 C   0  0  0  0  0  0  0  0  0  0  0  0
    4.6027   -3.3222    0.0000 C   0  0  0  0  0  0  0  0  0  0  0  0
    3.4468   -1.3220    0.0000 C   0  0  0  0  0  0  0  0  0  0  0  0
    3.4468   -3.9797    0.0000 C   0  0  0  0  0  0  0  0  0  0  0  0
    2.2979   -1.9795    0.0000 C   0  0  0  0  0  0  0  0  0  0  0  0
    2.2979   -3.3222    0.0000 C   0  0  0  0  0  0  0  0  0  0  0  0
    6.9213   -1.9795    0.0000 N   0  0  0  0  0  0  0  0  0  0  0  0
    6.9213   -3.3222    0.0000 N   0  0  0  0  0  0  0  0  0  0  0  0
    5.7724   -1.3220    0.0000 C   0  0  0  0  0  0  0  0  0  0  0  0
    5.7724   -3.9797    0.0000 C   0  0  0  0  0  0  0  0  0  0  0  0
    5.7724    0.0000    0.0000 O   0  0  0  0  0  0  0  0  0  0  0  0
  1  3  1  0  0  0  0
  2  3  2  0  0  0  0
  3 10  1  0  0  0  0
  4 14  2  0  0  0  0
  5  7  2  0  0  0  0
  5 13  1  0  0  0  0
  5  6  1  0  0  0  0
  6  8  2  0  0  0  0
  6 14  1  0  0  0  0
  7  9  1  0  0  0  0
  8 10  1  0  0  0  0
  9 10  2  0  0  0  0
 11 12  1  0  0  0  0
 11 13  1  0  0  0  0
 12 14  1  0  0  0  0
 13 15  2  0  0  0  0
M  END
> <ID>
4397

> <Formula>
C8H5N3O4

> <FW>
207.143

> <DSSTox_CID>
5774

> <DSSTox_RID>
77919

> <DSSTox_GSID>
25774

> <DSSTox_FileID_Sort>
2602

> <TS_ChemName>
6-Nitrophthalhydrazide

> <TS_ChemName_Synonyms>
6-Nitrophthalhydrazide (4-Nitrophthalhydrazide0

> <TS_CASRN>
3682-19-7

> <CASRN_ChemName_Relationship>
primary

> <TS_Description>
single chemical compound

> <ChemNote>


> <STRUCTURE_Shown>
tested chemical

> <STRUCTURE_Formula>
C8H5N3O4

> <STRUCTURE_MW>
207.143

> <STRUCTURE_ChemType>
defined organic

> <STRUCTURE_DefinedOrganicForm>
parent

> <STRUCTURE_IUPAC>
6-nitro-2,3-dihydrophthalazine-1,4-dione

> <STRUCTURE_SMILES>
[O-][N+](=O)c1ccc2c(c1)C(=O)NNC2=O

> <STRUCTURE_SMILES_Desalt>
[O-][N+](=O)c1ccc2c(c1)C(=O)NNC2=O

> <Substance_modify_yyyymmdd>
20080429

$$$$
