3686-58-6
ChemmineR-0915142007XD

 20 20  0  0  0  0  0  0  0  0  1 V2000
    8.0682   -6.6563    0.0000 C   0  0  0  0  0  0  0  0  0  0  0  0
    6.9145   -5.9866    0.0000 C   0  0  0  0  0  0  0  0  0  0  0  0
    6.9145   -4.6473    0.0000 N   0  0  0  0  0  0  0  0  0  0  0  0
    8.0682   -3.9938    0.0000 C   0  0  0  0  0  0  0  0  0  0  0  0
    8.0682   -2.6625    0.0000 C   0  0  0  0  0  0  0  0  0  0  0  0
    5.7607   -3.9938    0.0000 C   0  0  0  0  0  0  0  0  0  0  0  0
    5.7607   -2.6625    0.0000 C   0  0  0  0  0  0  0  0  0  0  0  0
    6.9145   -1.9848    0.0000 O   0  0  0  0  0  0  0  0  0  0  0  0
    4.6069   -1.9848    0.0000 N   0  0  0  0  0  0  0  0  0  0  0  0
    3.4451   -2.6625    0.0000 C   0  0  0  0  0  0  0  0  0  0  0  0
    3.4451   -3.9938    0.0000 C   0  0  0  0  0  0  0  0  0  0  0  0
    4.6069   -4.6473    0.0000 C   0  0  0  0  0  0  0  0  0  0  0  0
    2.2914   -4.6473    0.0000 C   0  0  0  0  0  0  0  0  0  0  0  0
    1.1538   -3.9938    0.0000 C   0  0  0  0  0  0  0  0  0  0  0  0
    1.1538   -2.6625    0.0000 C   0  0  0  0  0  0  0  0  0  0  0  0
    2.2914   -1.9848    0.0000 C   0  0  0  0  0  0  0  0  0  0  0  0
    2.2914   -0.6535    0.0000 C   0  0  0  0  0  0  0  0  0  0  0  0
    3.4451    0.0000    0.0000 O   0  0  0  0  0  0  0  0  0  0  0  0
    1.1538    0.0000    0.0000 O   0  0  0  0  0  0  0  0  0  0  0  0
    0.0000   -0.6535    0.0000 C   0  0  0  0  0  0  0  0  0  0  0  0
  1  2  1  0  0  0  0
  2  3  1  0  0  0  0
  3  4  1  0  0  0  0
  3  6  1  0  0  0  0
  4  5  1  0  0  0  0
  6  7  1  0  0  0  0
  7  8  2  0  0  0  0
  7  9  1  0  0  0  0
  9 10  1  0  0  0  0
 10 11  2  0  0  0  0
 10 16  1  0  0  0  0
 11 12  1  0  0  0  0
 11 13  1  0  0  0  0
 13 14  2  0  0  0  0
 14 15  1  0  0  0  0
 15 16  2  0  0  0  0
 16 17  1  0  0  0  0
 17 18  2  0  0  0  0
 17 19  1  0  0  0  0
 19 20  1  0  0  0  0
M  END
> <ID>
16124

> <Formula>
C15H22N2O3

> <FW>
278.3468

> <DSSTox_CID>
31513

> <DSSTox_RID>
97398

> <DSSTox_GSID>
57724

> <DSSTox_FileID_Sort>
8465

> <TS_ChemName>
Tolycaine

> <TS_ChemName_Synonyms>


> <TS_CASRN>
3686-58-6

> <CASRN_ChemName_Relationship>
primary

> <TS_Description>
single chemical compound

> <ChemNote>


> <STRUCTURE_Shown>
tested chemical

> <STRUCTURE_Formula>
C15H22N2O3

> <STRUCTURE_MW>
278.3468

> <STRUCTURE_ChemType>
defined organic

> <STRUCTURE_DefinedOrganicForm>
parent

> <STRUCTURE_IUPAC>
methyl 2-[(N,N-diethylglycyl)amino]-3-methylbenzoate

> <STRUCTURE_SMILES>
O=C(Nc1c(C)cccc1C(=O)OC)CN(CC)CC

> <STRUCTURE_SMILES_Desalt>
O=C(Nc1c(C)cccc1C(=O)OC)CN(CC)CC

> <Substance_modify_yyyymmdd>
20131018

$$$$
