36861-47-9
ChemmineR-0915142007XD

 18 20  0  0  0  0  0  0  0  0  1 V2000
    1.5456   -3.7018    0.0000 C   0  0  0  0  0  0  0  0  0  0  0  0
    2.1085   -2.6619    0.0000 C   0  0  0  0  0  0  0  0  0  0  0  0
    3.1103   -1.9559    0.0000 C   0  0  0  0  0  0  0  0  0  0  0  0
    2.7478   -3.0817    0.0000 C   0  0  0  0  0  0  0  0  0  0  0  0
    2.8527   -0.6774    0.0000 C   0  0  0  0  0  0  0  0  0  0  0  0
    4.3506   -2.6810    0.0000 C   0  0  0  0  0  0  0  0  0  0  0  0
    3.8831   -3.6637    0.0000 C   0  0  0  0  0  0  0  0  0  0  0  0
    3.9881   -0.0954    0.0000 C   0  0  0  0  0  0  0  0  0  0  0  0
    1.7841    0.0000    0.0000 C   0  0  0  0  0  0  0  0  0  0  0  0
    1.1544   -1.8032    0.0000 O   0  0  0  0  0  0  0  0  0  0  0  0
    0.6202   -4.5796    0.0000 C   0  0  0  0  0  0  0  0  0  0  0  0
    0.9255   -5.8294    0.0000 C   0  0  0  0  0  0  0  0  0  0  0  0
    2.1562   -6.1824    0.0000 C   0  0  0  0  0  0  0  0  0  0  0  0
    0.0000   -6.7072    0.0000 C   0  0  0  0  0  0  0  0  0  0  0  0
    2.4520   -7.4132    0.0000 C   0  0  0  0  0  0  0  0  0  0  0  0
    0.3053   -7.9570    0.0000 C   0  0  0  0  0  0  0  0  0  0  0  0
    1.5456   -8.3100    0.0000 C   0  0  0  0  0  0  0  0  0  0  0  0
    1.8509   -9.5408    0.0000 C   0  0  0  0  0  0  0  0  0  0  0  0
  1  2  1  0  0  0  0
  1  4  1  0  0  0  0
  1 11  2  3  0  0  0
  2  3  1  0  0  0  0
  2 10  2  0  0  0  0
  3  5  1  0  0  0  0
  3  6  1  0  0  0  0
  4  5  1  0  0  0  0
  4  7  1  0  0  0  0
  5  8  1  0  0  0  0
  5  9  1  0  0  0  0
  6  7  1  0  0  0  0
 11 12  1  0  0  0  0
 12 13  1  0  0  0  0
 12 14  2  0  0  0  0
 13 15  2  0  0  0  0
 14 16  1  0  0  0  0
 15 17  1  0  0  0  0
 16 17  2  0  0  0  0
 17 18  1  0  0  0  0
M  END
> <ID>
12971

> <Formula>
C17H20O

> <FW>
240.3401

> <DSSTox_CID>
27872

> <DSSTox_RID>
82625

> <DSSTox_GSID>
47896

> <DSSTox_FileID_Sort>
7302

> <TS_ChemName>
Enzacamene

> <TS_ChemName_Synonyms>
Enzacamene (Bicyclo[2.2.1]heptan-2-one, 1,7,7-trimethyl-3-[(4-methylphenyl)methylene]- )

> <TS_CASRN>
36861-47-9

> <CASRN_ChemName_Relationship>
primary

> <TS_Description>
single chemical compound

> <ChemNote>
mixture of Z,E and R,S isomers; structure shown without stereochem

> <STRUCTURE_Shown>
tested chemical

> <STRUCTURE_Formula>
C17H20O

> <STRUCTURE_MW>
240.3401

> <STRUCTURE_ChemType>
defined organic

> <STRUCTURE_DefinedOrganicForm>
parent

> <STRUCTURE_IUPAC>
7,7-dimethyl-3-(4-methylbenzylidene)bicyclo[2.2.1]heptan-2-one

> <STRUCTURE_SMILES>
CC3(C)C2CCC3C(=Cc1ccc(C)cc1)C2=O

> <STRUCTURE_SMILES_Desalt>
CC3(C)C2CCC3C(=Cc1ccc(C)cc1)C2=O

> <Substance_modify_yyyymmdd>


$$$$
