368832-42-2
ChemmineR-0915142007XD

 31 35  0  0  1  0  0  0  0  0  1 V2000
   11.5401   -3.3099    0.0000 C   0  0  0  0  0  0  0  0  0  0  0  0
   10.3988   -3.9693    0.0000 C   0  0  0  0  0  0  0  0  0  0  0  0
   11.5274   -1.9656    0.0000 C   0  0  0  0  0  0  0  0  0  0  0  0
   12.6814   -2.6251    0.0000 C   0  0  0  0  0  0  0  0  0  0  0  0
    9.2574   -3.3099    0.0000 C   0  0  0  0  0  0  0  0  0  0  0  0
   10.3988   -5.3262    0.0000 C   0  0  0  0  0  0  0  0  0  0  0  0
   10.3988   -1.3062    0.0000 C   0  0  0  0  0  0  0  0  0  0  0  0
    8.1034   -3.9946    0.0000 C   0  0  0  0  0  0  0  0  0  0  0  0
    9.2574   -1.9783    0.0000 N   0  0  0  0  0  0  0  0  0  0  0  0
    9.2574   -5.9983    0.0000 C   0  0  0  0  0  0  0  0  0  0  0  0
   10.3861    0.0000    0.0000 O   0  0  0  0  0  0  0  0  0  0  0  0
    8.1034   -5.3262    0.0000 C   0  0  0  0  0  0  0  0  0  0  0  0
    8.0654   -1.3189    0.0000 C   0  0  0  0  0  0  0  0  0  0  0  0
    9.2574   -7.3045    0.0000 O   0  0  0  0  0  0  0  0  0  0  0  0
    6.9494   -5.9983    0.0000 C   0  0  0  0  0  0  0  0  0  0  0  0
   10.3988   -7.9766    0.0000 C   0  0  0  0  0  0  0  0  0  0  0  0
    5.7827   -5.3262    0.0000 N   0  0  0  0  0  0  0  0  0  0  0  0
    4.6287   -5.9603    0.0000 C   0  0  0  0  0  0  0  0  0  0  0  0
    4.6160   -7.3045    0.0000 C   0  0  0  0  0  0  0  0  0  0  0  0
    3.4747   -5.2882    0.0000 C   0  0  0  0  0  0  0  0  0  0  0  0
    5.7827   -7.9766    0.0000 C   0  0  0  0  0  0  0  0  0  0  0  0
    3.4493   -7.9639    0.0000 N   0  0  0  0  0  0  0  0  0  0  0  0
    2.3207   -5.9476    0.0000 C   0  0  0  0  0  0  0  0  0  0  0  0
    5.7827   -9.2955    0.0000 C   0  0  0  0  0  0  0  0  0  0  0  0
    6.9241   -7.3045    0.0000 C   0  0  0  0  0  0  0  0  0  0  0  0
    2.3461   -7.2157    0.0000 C   0  0  0  0  0  0  0  0  0  0  0  0
    6.9114   -9.9676    0.0000 C   0  0  0  0  0  0  0  0  0  0  0  0
    8.0654   -7.9766    0.0000 C   0  0  0  0  0  0  0  0  0  0  0  0
    1.1540   -7.9386    0.0000 C   0  0  0  0  0  0  0  0  0  0  0  0
    8.0527   -9.3082    0.0000 C   0  0  0  0  0  0  0  0  0  0  0  0
    0.0000   -7.2665    0.0000 C   0  0  0  0  0  0  0  0  0  0  0  0
  1  2  1  0  0  0  0
  1  3  1  0  0  0  0
  1  4  1  6  0  0  0
  2  5  2  0  0  0  0
  2  6  1  0  0  0  0
  3  7  1  0  0  0  0
  3  4  1  6  0  0  0
  5  8  1  0  0  0  0
  5  9  1  0  0  0  0
  6 10  2  0  0  0  0
  7 11  2  0  0  0  0
  7  9  1  0  0  0  0
  8 12  2  0  0  0  0
  9 13  1  0  0  0  0
 10 14  1  0  0  0  0
 10 12  1  0  0  0  0
 12 15  1  0  0  0  0
 14 16  1  0  0  0  0
 15 17  1  0  0  0  0
 18 17  1  6  0  0  0
 18 19  1  0  0  0  0
 18 20  1  0  0  0  0
 19 21  1  6  0  0  0
 19 22  1  0  0  0  0
 20 23  1  0  0  0  0
 21 24  2  0  0  0  0
 21 25  1  0  0  0  0
 22 26  1  0  0  0  0
 23 26  1  0  0  0  0
 24 27  1  0  0  0  0
 25 28  2  0  0  0  0
 26 29  1  1  0  0  0
 27 30  2  0  0  0  0
 28 30  1  0  0  0  0
 29 31  1  0  0  0  0
M  END
> <ID>
12425

> <Formula>
C26H33N3O2

> <FW>
419.5591

> <DSSTox_CID>
27283

> <DSSTox_RID>
82237

> <DSSTox_GSID>
47283

> <DSSTox_FileID_Sort>
6918

> <TS_ChemName>
CP-728663

> <TS_ChemName_Synonyms>


> <TS_CASRN>
368832-42-2

> <CASRN_ChemName_Relationship>
primary

> <TS_Description>
single chemical compound

> <ChemNote>
stereochem

> <STRUCTURE_Shown>
tested chemical

> <STRUCTURE_Formula>
C26H33N3O2

> <STRUCTURE_MW>
419.5591

> <STRUCTURE_ChemType>
defined organic

> <STRUCTURE_DefinedOrganicForm>
parent

> <STRUCTURE_IUPAC>
(1aR,7bS)-5-({[(2S,3S,6S)-6-ethyl-2-phenylpiperidin-3-yl]amino}methyl)-6-methoxy-3-methyl-1,1a,3,7b-tetrahydro-2H-cyclopropa[c]quinolin-2-one

> <STRUCTURE_SMILES>
CC[C@H]4CC[C@H](NCc1cc3c(cc1OC)[C@H]2C[C@H]2C(=O)N3C)[C@@H](N4)c5ccccc5

> <STRUCTURE_SMILES_Desalt>
CC[C@H]4CC[C@H](NCc1cc3c(cc1OC)[C@H]2C[C@H]2C(=O)N3C)[C@@H](N4)c5ccccc5

> <Substance_modify_yyyymmdd>
20130910

$$$$
