3689-76-7
ChemmineR-0915142007XD

 18 20  0  0  0  0  0  0  0  0  1 V2000
    3.8487   -2.2954    0.0000 N    0  0  0  0  0  0  0  0  0  0  0  0
    3.3936   -4.3928    0.0000 N    0  0  0  0  0  0  0  0  0  0  0  0
    4.3829   -3.4826    0.0000 C    0  0  0  0  0  0  0  0  0  0  0  0
    2.5427   -2.4240    0.0000 C    0  0  0  0  0  0  0  0  0  0  0  0
    2.2657   -3.7300    0.0000 C    0  0  0  0  0  0  0  0  0  0  0  0
    4.5412   -1.1477    0.0000 C    0  0  0  0  0  0  0  0  0  0  0  0
    5.8868   -1.1477    0.0000 C    0  0  0  0  0  0  0  0  0  0  0  0
    8.5482   -1.1477    0.0000 C    0  0  0  0  0  0  0  0  0  0  0  0
    5.6889   -3.7596    0.0000 C    0  0  0  0  0  0  0  0  0  0  0  0
    9.8938   -1.1279    0.0000 Cl   0  0  0  0  0  0  0  0  0  0  0  0
    6.5497   -2.2954    0.0000 C    0  0  0  0  0  0  0  0  0  0  0  0
    6.5497    0.0000    0.0000 C    0  0  0  0  0  0  0  0  0  0  0  0
    7.8557   -2.3053    0.0000 C    0  0  0  0  0  0  0  0  0  0  0  0
    7.8754    0.0000    0.0000 C    0  0  0  0  0  0  0  0  0  0  0  0
    1.5533   -1.5335    0.0000 C    0  0  0  0  0  0  0  0  0  0  0  0
    0.9894   -4.1356    0.0000 C    0  0  0  0  0  0  0  0  0  0  0  0
    0.2770   -1.9392    0.0000 C    0  0  0  0  0  0  0  0  0  0  0  0
    0.0000   -3.2254    0.0000 C    0  0  0  0  0  0  0  0  0  0  0  0
  1  3  1  0  0  0  0
  1  4  1  0  0  0  0
  1  6  1  0  0  0  0
  2  3  2  0  0  0  0
  2  5  1  0  0  0  0
  3  9  1  0  0  0  0
  4  5  2  0  0  0  0
  4 15  1  0  0  0  0
  5 16  1  0  0  0  0
  6  7  1  0  0  0  0
  7 11  1  0  0  0  0
  7 12  2  0  0  0  0
  8 14  2  0  0  0  0
  8 10  1  0  0  0  0
  8 13  1  0  0  0  0
 11 13  2  0  0  0  0
 12 14  1  0  0  0  0
 15 17  2  0  0  0  0
 16 18  2  0  0  0  0
 17 18  1  0  0  0  0
M  END
> <ID>
11441

> <Formula>
C15H13ClN2

> <FW>
256.7301

> <DSSTox_CID>
26140

> <DSSTox_RID>
81373

> <DSSTox_GSID>
46140

> <DSSTox_FileID_Sort>
6054

> <TS_ChemName>
Chlormidazole

> <TS_ChemName_Synonyms>


> <TS_CASRN>
3689-76-7

> <CASRN_ChemName_Relationship>
primary

> <TS_Description>
single chemical compound

> <ChemNote>


> <STRUCTURE_Shown>
tested chemical

> <STRUCTURE_Formula>
C15H13ClN2

> <STRUCTURE_MW>
256.7301

> <STRUCTURE_ChemType>
defined organic

> <STRUCTURE_DefinedOrganicForm>
parent

> <STRUCTURE_IUPAC>
1-(4-chlorobenzyl)-2-methyl-1H-benzimidazole

> <STRUCTURE_SMILES>
Clc1ccc(cc1)Cn2c3ccccc3nc2C

> <STRUCTURE_SMILES_Desalt>
Clc1ccc(cc1)Cn2c3ccccc3nc2C

> <Substance_modify_yyyymmdd>
20110818

$$$$
