3689-24-5
ChemmineR-0915142007XD

 17 16  0  0  0  0  0  0  0  0  1 V2000
    3.3345   -1.3113    0.0000 P   0  0  0  0  0  0  0  0  0  0  0  0
    5.9759   -1.3207    0.0000 P   0  0  0  0  0  0  0  0  0  0  0  0
    4.6552   -1.3113    0.0000 O   0  0  0  0  0  0  0  0  0  0  0  0
    3.3345    0.0000    0.0000 S   0  0  0  0  0  0  0  0  0  0  0  0
    5.9665    0.0000    0.0000 S   0  0  0  0  0  0  0  0  0  0  0  0
    2.0045   -1.3113    0.0000 O   0  0  0  0  0  0  0  0  0  0  0  0
    7.3434   -1.3301    0.0000 O   0  0  0  0  0  0  0  0  0  0  0  0
    5.9759   -2.6788    0.0000 O   0  0  0  0  0  0  0  0  0  0  0  0
    3.3345   -2.6788    0.0000 O   0  0  0  0  0  0  0  0  0  0  0  0
    1.3113   -2.4634    0.0000 C   0  0  0  0  0  0  0  0  0  0  0  0
    4.4679   -3.3532    0.0000 C   0  0  0  0  0  0  0  0  0  0  0  0
    7.1467   -3.3720    0.0000 C   0  0  0  0  0  0  0  0  0  0  0  0
    8.0365   -0.2248    0.0000 C   0  0  0  0  0  0  0  0  0  0  0  0
    7.1467   -4.6833    0.0000 C   0  0  0  0  0  0  0  0  0  0  0  0
    4.4679   -4.6552    0.0000 C   0  0  0  0  0  0  0  0  0  0  0  0
    9.3666   -0.2248    0.0000 C   0  0  0  0  0  0  0  0  0  0  0  0
    0.0000   -2.4634    0.0000 C   0  0  0  0  0  0  0  0  0  0  0  0
  1  3  1  0  0  0  0
  1  4  2  0  0  0  0
  1  6  1  0  0  0  0
  1  9  1  0  0  0  0
  2  3  1  0  0  0  0
  2  5  2  0  0  0  0
  2  7  1  0  0  0  0
  2  8  1  0  0  0  0
  6 10  1  0  0  0  0
  7 13  1  0  0  0  0
  8 12  1  0  0  0  0
  9 11  1  0  0  0  0
 10 17  1  0  0  0  0
 11 15  1  0  0  0  0
 12 14  1  0  0  0  0
 13 16  1  0  0  0  0
M  END
> <ID>
3624

> <Formula>
C8H20O5P2S2

> <FW>
322.3189

> <DSSTox_CID>
4328

> <DSSTox_RID>
77369

> <DSSTox_GSID>
24328

> <DSSTox_FileID_Sort>
2052

> <TS_ChemName>
Sulfotepp

> <TS_ChemName_Synonyms>
Sulfotepp (Tetraethyldithiopyrophosphate)

> <TS_CASRN>
3689-24-5

> <CASRN_ChemName_Relationship>
primary

> <TS_Description>
single chemical compound

> <ChemNote>


> <STRUCTURE_Shown>
tested chemical

> <STRUCTURE_Formula>
C8H20O5P2S2

> <STRUCTURE_MW>
322.3189

> <STRUCTURE_ChemType>
defined organic

> <STRUCTURE_DefinedOrganicForm>
parent

> <STRUCTURE_IUPAC>
O,O,O,O-tetraethyl dithiodiphosphate

> <STRUCTURE_SMILES>
CCOP(=S)(OCC)OP(=S)(OCC)OCC

> <STRUCTURE_SMILES_Desalt>
CCOP(=S)(OCC)OP(=S)(OCC)OCC

> <Substance_modify_yyyymmdd>
20080429

$$$$
