369-77-7
ChemmineR-0915142007XD

 22 23  0  0  0  0  0  0  0  0  1 V2000
    2.3033   -1.9996    0.0000 C    0  0  0  0  0  0  0  0  0  0  0  0
    1.1517   -2.6830    0.0000 C    0  0  0  0  0  0  0  0  0  0  0  0
    6.9100   -2.0249    0.0000 C    0  0  0  0  0  0  0  0  0  0  0  0
    5.7710   -2.6830    0.0000 N    0  0  0  0  0  0  0  0  0  0  0  0
    2.3033   -0.6708    0.0000 C    0  0  0  0  0  0  0  0  0  0  0  0
    8.0617   -2.6830    0.0000 N    0  0  0  0  0  0  0  0  0  0  0  0
    3.4550   -2.6577    0.0000 C    0  0  0  0  0  0  0  0  0  0  0  0
    4.5940   -1.9996    0.0000 C    0  0  0  0  0  0  0  0  0  0  0  0
    6.9100   -0.6961    0.0000 O    0  0  0  0  0  0  0  0  0  0  0  0
    0.0000   -3.3664    0.0000 F    0  0  0  0  0  0  0  0  0  0  0  0
    0.4809   -1.5187    0.0000 F    0  0  0  0  0  0  0  0  0  0  0  0
    1.8224   -3.8474    0.0000 F    0  0  0  0  0  0  0  0  0  0  0  0
    3.4550   -0.0127    0.0000 C    0  0  0  0  0  0  0  0  0  0  0  0
    9.2007   -2.0249    0.0000 C    0  0  0  0  0  0  0  0  0  0  0  0
    4.5940   -0.6708    0.0000 C    0  0  0  0  0  0  0  0  0  0  0  0
    1.1517    0.0000    0.0000 Cl   0  0  0  0  0  0  0  0  0  0  0  0
   11.5041   -0.6961    0.0000 C    0  0  0  0  0  0  0  0  0  0  0  0
   12.6558   -0.0127    0.0000 Cl   0  0  0  0  0  0  0  0  0  0  0  0
   10.3524   -2.6830    0.0000 C    0  0  0  0  0  0  0  0  0  0  0  0
    9.2007   -0.6961    0.0000 C    0  0  0  0  0  0  0  0  0  0  0  0
   11.5041   -2.0249    0.0000 C    0  0  0  0  0  0  0  0  0  0  0  0
   10.3524   -0.0380    0.0000 C    0  0  0  0  0  0  0  0  0  0  0  0
  1  2  1  0  0  0  0
  1  5  2  0  0  0  0
  1  7  1  0  0  0  0
  2 10  1  0  0  0  0
  2 11  1  0  0  0  0
  2 12  1  0  0  0  0
  3  4  1  0  0  0  0
  3  6  1  0  0  0  0
  3  9  2  0  0  0  0
  4  8  1  0  0  0  0
  5 13  1  0  0  0  0
  5 16  1  0  0  0  0
  6 14  1  0  0  0  0
  7  8  2  0  0  0  0
  8 15  1  0  0  0  0
 13 15  2  0  0  0  0
 14 19  1  0  0  0  0
 14 20  2  0  0  0  0
 17 22  2  0  0  0  0
 17 18  1  0  0  0  0
 17 21  1  0  0  0  0
 19 21  2  0  0  0  0
 20 22  1  0  0  0  0
M  END
> <ID>
13677

> <Formula>
C14H9Cl2F3N2O

> <FW>
349.1353

> <DSSTox_CID>
28610

> <DSSTox_RID>
82880

> <DSSTox_GSID>
48684

> <DSSTox_FileID_Sort>
7557

> <TS_ChemName>
Cloflucarban

> <TS_ChemName_Synonyms>


> <TS_CASRN>
369-77-7

> <CASRN_ChemName_Relationship>
primary

> <TS_Description>
single chemical compound

> <ChemNote>


> <STRUCTURE_Shown>
tested chemical

> <STRUCTURE_Formula>
C14H9Cl2F3N2O

> <STRUCTURE_MW>
349.1353

> <STRUCTURE_ChemType>
defined organic

> <STRUCTURE_DefinedOrganicForm>
parent

> <STRUCTURE_IUPAC>
1-(4-chlorophenyl)-3-[4-chloro-3-(trifluoromethyl)phenyl]urea

> <STRUCTURE_SMILES>
FC(F)(F)c1cc(ccc1Cl)NC(=O)Nc2ccc(Cl)cc2

> <STRUCTURE_SMILES_Desalt>
FC(F)(F)c1cc(ccc1Cl)NC(=O)Nc2ccc(Cl)cc2

> <Substance_modify_yyyymmdd>
20111204

$$$$
