3691-35-8
ChemmineR-0915142007XD

 27 30  0  0  0  0  0  0  0  0  1 V2000
    2.2619   -1.6844    0.0000 C    0  0  0  0  0  0  0  0  0  0  0  0
    2.2619   -2.9838    0.0000 C    0  0  0  0  0  0  0  0  0  0  0  0
    4.2953   -2.3341    0.0000 C    0  0  0  0  0  0  0  0  0  0  0  0
    3.5132   -1.2633    0.0000 C    0  0  0  0  0  0  0  0  0  0  0  0
    3.5132   -3.3689    0.0000 C    0  0  0  0  0  0  0  0  0  0  0  0
    1.1430   -3.6335    0.0000 C    0  0  0  0  0  0  0  0  0  0  0  0
    1.1430   -1.0227    0.0000 C    0  0  0  0  0  0  0  0  0  0  0  0
    0.0000   -2.9838    0.0000 C    0  0  0  0  0  0  0  0  0  0  0  0
    0.0000   -1.6844    0.0000 C    0  0  0  0  0  0  0  0  0  0  0  0
    3.9464    0.0000    0.0000 O    0  0  0  0  0  0  0  0  0  0  0  0
    3.7539   -4.6803    0.0000 O    0  0  0  0  0  0  0  0  0  0  0  0
    5.5827   -2.3341    0.0000 C    0  0  0  0  0  0  0  0  0  0  0  0
    6.2324   -1.1911    0.0000 O    0  0  0  0  0  0  0  0  0  0  0  0
    6.8340   -3.8381    0.0000 C    0  0  0  0  0  0  0  0  0  0  0  0
    6.1843   -4.9811    0.0000 C    0  0  0  0  0  0  0  0  0  0  0  0
    4.8487   -4.9811    0.0000 C    0  0  0  0  0  0  0  0  0  0  0  0
    6.8340   -6.1000    0.0000 C    0  0  0  0  0  0  0  0  0  0  0  0
    4.1990   -6.1361    0.0000 C    0  0  0  0  0  0  0  0  0  0  0  0
    6.1843   -7.2430    0.0000 C    0  0  0  0  0  0  0  0  0  0  0  0
    4.8848   -7.2430    0.0000 C    0  0  0  0  0  0  0  0  0  0  0  0
    8.1334   -3.8381    0.0000 C    0  0  0  0  0  0  0  0  0  0  0  0
    8.7711   -4.9811    0.0000 C    0  0  0  0  0  0  0  0  0  0  0  0
    8.7711   -2.7312    0.0000 C    0  0  0  0  0  0  0  0  0  0  0  0
   10.0825   -4.9811    0.0000 C    0  0  0  0  0  0  0  0  0  0  0  0
   10.0825   -2.7312    0.0000 C    0  0  0  0  0  0  0  0  0  0  0  0
   10.7322   -3.8381    0.0000 C    0  0  0  0  0  0  0  0  0  0  0  0
   12.0316   -3.8381    0.0000 Cl   0  0  0  0  0  0  0  0  0  0  0  0
  1  2  2  0  0  0  0
  1  4  1  0  0  0  0
  1  7  1  0  0  0  0
  2  5  1  0  0  0  0
  2  6  1  0  0  0  0
  3  4  1  0  0  0  0
  3  5  1  0  0  0  0
  3 12  1  0  0  0  0
  4 10  2  0  0  0  0
  5 11  2  0  0  0  0
  6  8  2  0  0  0  0
  7  9  2  0  0  0  0
  8  9  1  0  0  0  0
 12 13  2  0  0  0  0
 12 14  1  0  0  0  0
 14 15  1  0  0  0  0
 14 21  1  0  0  0  0
 15 16  2  0  0  0  0
 15 17  1  0  0  0  0
 16 18  1  0  0  0  0
 17 19  2  0  0  0  0
 18 20  2  0  0  0  0
 19 20  1  0  0  0  0
 21 22  2  0  0  0  0
 21 23  1  0  0  0  0
 22 24  1  0  0  0  0
 23 25  2  0  0  0  0
 24 26  2  0  0  0  0
 25 26  1  0  0  0  0
 26 27  1  0  0  0  0
M  END
> <ID>
6426

> <Formula>
C23H15ClO3

> <FW>
374.8164

> <DSSTox_CID>
12348

> <DSSTox_RID>
78919

> <DSSTox_GSID>
32348

> <DSSTox_FileID_Sort>
3601

> <TS_ChemName>
Chlorophacinone

> <TS_ChemName_Synonyms>


> <TS_CASRN>
3691-35-8

> <CASRN_ChemName_Relationship>
primary

> <TS_Description>
single chemical compound

> <ChemNote>
tautomers

> <STRUCTURE_Shown>
tested chemical

> <STRUCTURE_Formula>
C23H15ClO3

> <STRUCTURE_MW>
374.8164

> <STRUCTURE_ChemType>
defined organic

> <STRUCTURE_DefinedOrganicForm>
parent

> <STRUCTURE_IUPAC>
2-[(4-chlorophenyl)(phenyl)acetyl]-1H-indene-1,3(2H)-dione

> <STRUCTURE_SMILES>
Clc1ccc(cc1)C(c2ccccc2)C(=O)C4C(=O)c3ccccc3C4=O

> <STRUCTURE_SMILES_Desalt>
Clc1ccc(cc1)C(c2ccccc2)C(=O)C4C(=O)c3ccccc3C4=O

> <Substance_modify_yyyymmdd>
20080429

$$$$
