3697-42-5
ChemmineR-0915142007XD

 36 35  0  0  0  0  0  0  0  0  1 V2000
   20.8099   -2.0035    0.0000 C    0  0  0  0  0  0  0  0  0  0  0  0
    5.7167   -2.5912    0.0000 C    0  0  0  0  0  0  0  0  0  0  0  0
   19.6613   -2.6447    0.0000 N    0  0  0  0  0  0  0  0  0  0  0  0
    6.8654   -1.9501    0.0000 N    0  0  0  0  0  0  0  0  0  0  0  0
    8.0675   -2.5912    0.0000 C    0  0  0  0  0  0  0  0  0  0  0  0
   18.4591   -2.0035    0.0000 C    0  0  0  0  0  0  0  0  0  0  0  0
    4.5948   -1.9768    0.0000 N    0  0  0  0  0  0  0  0  0  0  0  0
   21.9319   -2.6447    0.0000 N    0  0  0  0  0  0  0  0  0  0  0  0
   20.8099   -0.6678    0.0000 N    0  0  0  0  0  0  0  0  0  0  0  0
    5.7167   -3.9269    0.0000 N    0  0  0  0  0  0  0  0  0  0  0  0
   18.4591   -0.6678    0.0000 N    0  0  0  0  0  0  0  0  0  0  0  0
    8.0675   -3.9269    0.0000 N    0  0  0  0  0  0  0  0  0  0  0  0
   17.3105   -2.6447    0.0000 N    0  0  0  0  0  0  0  0  0  0  0  0
    9.2162   -1.9768    0.0000 N    0  0  0  0  0  0  0  0  0  0  0  0
    3.3926   -2.5912    0.0000 C    0  0  0  0  0  0  0  0  0  0  0  0
   23.0806   -2.0035    0.0000 C    0  0  0  0  0  0  0  0  0  0  0  0
    1.1220   -3.9269    0.0000 C    0  0  0  0  0  0  0  0  0  0  0  0
   25.4047   -0.6946    0.0000 C    0  0  0  0  0  0  0  0  0  0  0  0
    0.0000   -4.7817    0.0000 Cl   0  0  0  0  0  0  0  0  0  0  0  0
   26.7137   -0.1069    0.0000 Cl   0  0  0  0  0  0  0  0  0  0  0  0
    2.2439   -1.9501    0.0000 C    0  0  0  0  0  0  0  0  0  0  0  0
    3.3926   -3.9269    0.0000 C    0  0  0  0  0  0  0  0  0  0  0  0
   23.0806   -0.6946    0.0000 C    0  0  0  0  0  0  0  0  0  0  0  0
   24.2827   -2.6447    0.0000 C    0  0  0  0  0  0  0  0  0  0  0  0
    2.2439   -4.5948    0.0000 C    0  0  0  0  0  0  0  0  0  0  0  0
   24.2560    0.0000    0.0000 C    0  0  0  0  0  0  0  0  0  0  0  0
   25.4047   -2.0035    0.0000 C    0  0  0  0  0  0  0  0  0  0  0  0
    1.1220   -2.5645    0.0000 C    0  0  0  0  0  0  0  0  0  0  0  0
   10.3649   -2.5912    0.0000 C    0  0  0  0  0  0  0  0  0  0  0  0
   16.1618   -1.9768    0.0000 C    0  0  0  0  0  0  0  0  0  0  0  0
   14.9864   -2.6447    0.0000 C    0  0  0  0  0  0  0  0  0  0  0  0
   11.5403   -1.9768    0.0000 C    0  0  0  0  0  0  0  0  0  0  0  0
   12.7157   -2.5912    0.0000 C    0  0  0  0  0  0  0  0  0  0  0  0
   13.8110   -1.9768    0.0000 C    0  0  0  0  0  0  0  0  0  0  0  0
   10.8725   -3.8735    0.0000 Cl   0  0  0  0  0  0  0  0  0  0  0  0
   14.0247   -3.9002    0.0000 Cl   0  0  0  0  0  0  0  0  0  0  0  0
  1  3  1  0  0  0  0
  1  8  1  0  0  0  0
  1  9  2  0  0  0  0
  2  4  1  0  0  0  0
  2  7  1  0  0  0  0
  2 10  2  0  0  0  0
  3  6  1  0  0  0  0
  4  5  1  0  0  0  0
  5 14  1  0  0  0  0
  5 12  2  0  0  0  0
  6 11  2  0  0  0  0
  6 13  1  0  0  0  0
  7 15  1  0  0  0  0
  8 16  1  0  0  0  0
 13 30  1  0  0  0  0
 14 29  1  0  0  0  0
 15 21  1  0  0  0  0
 15 22  2  0  0  0  0
 16 23  2  0  0  0  0
 16 24  1  0  0  0  0
 17 25  2  0  0  0  0
 17 19  1  0  0  0  0
 17 28  1  0  0  0  0
 18 27  1  0  0  0  0
 18 20  1  0  0  0  0
 18 26  2  0  0  0  0
 21 28  2  0  0  0  0
 22 25  1  0  0  0  0
 23 26  1  0  0  0  0
 24 27  2  0  0  0  0
 29 32  1  0  0  0  0
 30 31  1  0  0  0  0
 31 34  1  0  0  0  0
 32 33  1  0  0  0  0
 33 34  1  0  0  0  0
M  END
> <ID>
12293

> <Formula>
C22H32Cl4N10

> <FW>
578.3685 (505.4466+36.4609+36.4609)

> <DSSTox_CID>
27144

> <DSSTox_RID>
82150

> <DSSTox_GSID>
47144

> <DSSTox_FileID_Sort>
6831

> <TS_ChemName>
Chlorhexidine dihydrochloride

> <TS_ChemName_Synonyms>


> <TS_CASRN>
3697-42-5

> <CASRN_ChemName_Relationship>
primary

> <TS_Description>
single chemical compound

> <ChemNote>
parent [55-56-1]

> <STRUCTURE_Shown>
tested chemical

> <STRUCTURE_Formula>
C22H32Cl4N10

> <STRUCTURE_MW>
578.3685

> <STRUCTURE_ChemType>
defined organic

> <STRUCTURE_DefinedOrganicForm>
complex

> <STRUCTURE_IUPAC>
N,N''''-hexane-1,6-diylbis[N'-(4-chlorophenyl)(imidodicarbonimidic diamide)] dihydrochloride

> <STRUCTURE_SMILES>
Cl.Cl.Clc2ccc(NC(=N)NC(=N)NCCCCCCNC(=N)NC(=N)Nc1ccc(Cl)cc1)cc2

> <STRUCTURE_SMILES_Desalt>
Clc2ccc(NC(=N)NC(=N)NCCCCCCNC(=N)NC(=N)Nc1ccc(Cl)cc1)cc2

> <Substance_modify_yyyymmdd>
20100502

$$$$
