3704-09-4
ChemmineR-0915142007XD

 26 29  0  0  1  0  0  0  0  0  1 V2000
    6.9243   -3.0122    0.0000 C   0  0  0  0  0  0  0  0  0  0  0  0
    3.4669   -5.0109    0.0000 C   0  0  0  0  0  0  0  0  0  0  0  0
    6.9243   -1.6766    0.0000 C   0  0  0  0  0  0  0  0  0  0  0  0
    4.6225   -3.0122    0.0000 C   0  0  0  0  0  0  0  0  0  0  0  0
    5.7876   -3.6753    0.0000 C   0  0  0  0  0  0  0  0  0  0  0  0
    3.4669   -3.6753    0.0000 C   0  0  0  0  0  0  0  0  0  0  0  0
    5.7876   -5.0109    0.0000 C   0  0  0  0  0  0  0  0  0  0  0  0
    2.3207   -5.6834    0.0000 C   0  0  0  0  0  0  0  0  0  0  0  0
    8.2031   -1.2693    0.0000 C   0  0  0  0  0  0  0  0  0  0  0  0
    4.6225   -5.6834    0.0000 C   0  0  0  0  0  0  0  0  0  0  0  0
    5.7876   -1.0135    0.0000 C   0  0  0  0  0  0  0  0  0  0  0  0
    4.6225   -1.6766    0.0000 C   0  0  0  0  0  0  0  0  0  0  0  0
    8.2031   -3.4195    0.0000 C   0  0  0  0  0  0  0  0  0  0  0  0
    2.3207   -3.0122    0.0000 C   0  0  0  0  0  0  0  0  0  0  0  0
    1.1556   -5.0109    0.0000 C   0  0  0  0  0  0  0  0  0  0  0  0
    8.9609   -2.3207    0.0000 C   0  0  0  0  0  0  0  0  0  0  0  0
    0.0000   -5.7024    0.0000 O   0  0  0  0  0  0  0  0  0  0  0  0
    1.1556   -3.6753    0.0000 C   0  0  0  0  0  0  0  0  0  0  0  0
    8.6199    0.0000    0.0000 O   0  0  0  0  0  0  0  0  0  0  0  0
    6.9243   -0.3505    0.0000 C   0  0  0  0  0  0  0  0  0  0  0  0
    6.9432   -5.7024    0.0000 C   0  0  0  0  0  0  0  0  0  0  0  0
    9.4724   -1.2693    0.0000 C   0  0  0  0  0  0  0  0  0  0  0  0
    3.4669   -2.3491    0.0000 H   0  0  0  0  0  0  0  0  0  0  0  0
    5.7876   -2.3491    0.0000 H   0  0  0  0  0  0  0  0  0  0  0  0
    6.9243   -4.3289    0.0000 H   0  0  0  0  0  0  0  0  0  0  0  0
    4.6225   -4.3289    0.0000 H   0  0  0  0  0  0  0  0  0  0  0  0
  1  3  1  0  0  0  0
  1  5  1  0  0  0  0
  1 13  1  0  0  0  0
  1 25  1  6  0  0  0
  2 10  1  0  0  0  0
  2  8  2  0  0  0  0
  2  6  1  0  0  0  0
  3  9  1  0  0  0  0
  3 11  1  0  0  0  0
  3 20  1  1  0  0  0
  4  5  1  0  0  0  0
  4  6  1  0  0  0  0
  4 12  1  0  0  0  0
  4 26  1  6  0  0  0
  5  7  1  0  0  0  0
  5 24  1  1  0  0  0
  6 14  1  0  0  0  0
  6 23  1  1  0  0  0
  7 10  1  0  0  0  0
  7 21  1  6  0  0  0
  8 15  1  0  0  0  0
  9 19  1  0  0  0  0
  9 22  1  6  0  0  0
  9 16  1  0  0  0  0
 11 12  1  0  0  0  0
 13 16  1  0  0  0  0
 14 18  1  0  0  0  0
 15 17  2  0  0  0  0
 15 18  1  0  0  0  0
M  END
> <ID>
7128

> <Formula>
C20H30O2

> <FW>
302.451

> <DSSTox_CID>
16489

> <DSSTox_RID>
97557

> <DSSTox_GSID>
36489

> <DSSTox_FileID_Sort>
8332

> <TS_ChemName>
Mibolerone

> <TS_ChemName_Synonyms>


> <TS_CASRN>
3704-09-4

> <CASRN_ChemName_Relationship>
primary

> <TS_Description>
single chemical compound

> <ChemNote>
stereochem

> <STRUCTURE_Shown>
tested chemical

> <STRUCTURE_Formula>
C20H30O2

> <STRUCTURE_MW>
302.451

> <STRUCTURE_ChemType>
defined organic

> <STRUCTURE_DefinedOrganicForm>
parent

> <STRUCTURE_IUPAC>
(7beta,8xi,9beta,10alpha,13alpha,14beta,17alpha)-17-hydroxy-7,17-dimethylestr-4-en-3-one

> <STRUCTURE_SMILES>
C[C@@H]3CC1=CC(=O)CC[C@@H]1[C@H]4CC[C@@]2(C)[C@@H](CC[C@]2(C)O)[C@H]34

> <STRUCTURE_SMILES_Desalt>
C[C@@H]3CC1=CC(=O)CC[C@@H]1[C@H]4CC[C@@]2(C)[C@@H](CC[C@]2(C)O)[C@H]34

> <Substance_modify_yyyymmdd>
20080429

$$$$
