37076-68-9
ChemmineR-0915142007XD

 14 15  0  0  0  0  0  0  0  0  1 V2000
    3.3832   -2.2997    0.0000 N   0  0  0  0  0  0  0  0  0  0  0  0
    4.0391   -1.1572    0.0000 C   0  0  0  0  0  0  0  0  0  0  0  0
    5.3659   -1.1572    0.0000 N   0  0  0  0  0  0  0  0  0  0  0  0
    4.0391   -3.4569    0.0000 C   0  0  0  0  0  0  0  0  0  0  0  0
    5.3659   -3.4569    0.0000 C   0  0  0  0  0  0  0  0  0  0  0  0
    6.0440   -2.2997    0.0000 C   0  0  0  0  0  0  0  0  0  0  0  0
    2.0564   -2.2997    0.0000 C   0  0  0  0  0  0  0  0  0  0  0  0
    3.3832    0.0000    0.0000 O   0  0  0  0  0  0  0  0  0  0  0  0
    7.3707   -2.2997    0.0000 O   0  0  0  0  0  0  0  0  0  0  0  0
    1.2751   -3.3832    0.0000 O   0  0  0  0  0  0  0  0  0  0  0  0
    6.0440   -4.5993    0.0000 F   0  0  0  0  0  0  0  0  0  0  0  0
    1.2751   -1.2309    0.0000 C   0  0  0  0  0  0  0  0  0  0  0  0
    0.0000   -2.9704    0.0000 C   0  0  0  0  0  0  0  0  0  0  0  0
    0.0000   -1.6437    0.0000 C   0  0  0  0  0  0  0  0  0  0  0  0
  1  2  1  0  0  0  0
  1  4  1  0  0  0  0
  1  7  1  0  0  0  0
  2  3  1  0  0  0  0
  2  8  2  0  0  0  0
  3  6  1  0  0  0  0
  4  5  2  0  0  0  0
  5  6  1  0  0  0  0
  5 11  1  0  0  0  0
  6  9  2  0  0  0  0
  7 10  1  0  0  0  0
  7 12  1  0  0  0  0
 10 13  1  0  0  0  0
 12 14  1  0  0  0  0
 13 14  1  0  0  0  0
M  END
> <ID>
1253

> <Formula>
C8H9FN2O3

> <FW>
200.1671

> <DSSTox_CID>
1305

> <DSSTox_RID>
76070

> <DSSTox_GSID>
21305

> <DSSTox_FileID_Sort>
754

> <TS_ChemName>
Tegafur

> <TS_ChemName_Synonyms>


> <TS_CASRN>
37076-68-9

> <CASRN_ChemName_Relationship>
primary

> <TS_Description>
single chemical compound

> <ChemNote>


> <STRUCTURE_Shown>
tested chemical

> <STRUCTURE_Formula>
C8H9FN2O3

> <STRUCTURE_MW>
200.1671

> <STRUCTURE_ChemType>
defined organic

> <STRUCTURE_DefinedOrganicForm>
parent

> <STRUCTURE_IUPAC>
5-fluoro-1-(tetrahydrofuran-2-yl)pyrimidine-2,4(1H,3H)-dione

> <STRUCTURE_SMILES>
FC1=CN(C(=O)NC1=O)C2CCCO2

> <STRUCTURE_SMILES_Desalt>
FC1=CN(C(=O)NC1=O)C2CCCO2

> <Substance_modify_yyyymmdd>
20080429

$$$$
