370865-80-8
ChemmineR-0915142007XD

 15 14  0  0  0  0  0  0  0  0  2 V2000
    1.1813   -3.9736    0.0000 N   0  3  0  0  0  0  0  0  0  0  0  0
    2.2718   -4.7584    0.0000 C   0  0  0  0  0  0  0  0  0  0  0  0
    0.0991   -4.7584    0.0000 C   0  0  0  0  0  0  0  0  0  0  0  0
    1.8340   -6.0389    0.0000 C   0  0  0  0  0  0  0  0  0  0  0  0
    0.5122   -6.0389    0.0000 C   0  0  0  0  0  0  0  0  0  0  0  0
    1.1813   -2.6518    0.0000 C   0  0  0  0  0  0  0  0  0  0  0  0
    2.3131   -1.9992    0.0000 C   0  0  0  0  0  0  0  0  0  0  0  0
    2.3131   -0.6692    0.0000 C   0  0  0  0  0  0  0  0  0  0  0  0
    3.4697    0.0000    0.0000 C   0  0  0  0  0  0  0  0  0  0  0  0
    0.0000   -3.3871    0.0000 C   0  0  0  0  0  0  0  0  0  0  0  0
    6.9311   -3.7340    0.0000 N   0  0  0  0  0  0  0  0  0  0  0  0
    5.6093   -3.7340    0.0000 C   0  0  0  0  0  0  0  0  0  0  0  0
    4.2793   -3.7340    0.0000 N   0  5  0  0  0  0  0  0  0  0  0  0
    7.5920   -2.5857    0.0000 C   0  0  0  0  0  0  0  0  0  0  0  0
    8.2611   -1.4374    0.0000 N   0  0  0  0  0  0  0  0  0  0  0  0
  1  2  1  0  0  0  0
  1  3  1  0  0  0  0
  1  6  1  0  0  0  0
  1 10  1  0  0  0  0
  2  4  1  0  0  0  0
  3  5  1  0  0  0  0
  4  5  1  0  0  0  0
  6  7  1  0  0  0  0
  7  8  1  0  0  0  0
  8  9  1  0  0  0  0
 11 12  2  0  0  0  0
 11 14  1  0  0  0  0
 12 13  2  0  0  0  0
 14 15  3  0  0  0  0
M  END
> <ID>
13014

> <Formula>
C11H20N4

> <FW>
208.3033 (142.2613+66.0420)

> <DSSTox_CID>
27915

> <DSSTox_RID>
82668

> <DSSTox_GSID>
47939

> <DSSTox_FileID_Sort>
7345

> <TS_ChemName>
1-Butyl-1-methylpyrrolidinium dicyanamide

> <TS_ChemName_Synonyms>


> <TS_CASRN>
370865-80-8

> <CASRN_ChemName_Relationship>
primary

> <TS_Description>
single chemical compound

> <ChemNote>
ammonium; parent [223437-10-3]

> <STRUCTURE_Shown>
tested chemical

> <STRUCTURE_Formula>
C11H20N4

> <STRUCTURE_MW>
208.3033

> <STRUCTURE_ChemType>
defined organic

> <STRUCTURE_DefinedOrganicForm>
salt

> <STRUCTURE_IUPAC>
1-butyl-1-methylpyrrolidinium [(cyanoimino)methylidene]azanide

> <STRUCTURE_SMILES>
CCCC[N+]1(C)CCCC1.N#C\N=C=[N-]

> <STRUCTURE_SMILES_Desalt>
CCCC[N+]1(C)CCCC1

> <Substance_modify_yyyymmdd>
20110418

$$$$
