3709-43-1
ChemmineR-0915142007XD

 30 29  0  0  0  0  0  0  0  0  2 V2000
    8.6459   -2.3005    0.0000 C    0  0  0  0  0  0  0  0  0  0  0  0
    9.9984   -2.3005    0.0000 C    0  0  0  0  0  0  0  0  0  0  0  0
   10.6557   -3.4508    0.0000 C    0  0  0  0  0  0  0  0  0  0  0  0
    9.9984   -4.6010    0.0000 C    0  0  0  0  0  0  0  0  0  0  0  0
    8.6459   -4.6010    0.0000 C    0  0  0  0  0  0  0  0  0  0  0  0
    7.9760   -3.4508    0.0000 C    0  0  0  0  0  0  0  0  0  0  0  0
    7.9760   -1.1376    0.0000 S    0  0  0  0  0  0  0  0  0  0  0  0
    9.1262   -0.4930    0.0000 O    0  0  0  0  0  0  0  0  0  0  0  0
    6.8383   -1.8202    0.0000 O    0  5  0  0  0  0  0  0  0  0  0  0
    7.3187    0.0000    0.0000 O    0  0  0  0  0  0  0  0  0  0  0  0
   11.9702   -3.4508    0.0000 N    0  3  0  0  0  0  0  0  0  0  0  0
   12.6402   -2.3005    0.0000 O    0  5  0  0  0  0  0  0  0  0  0  0
   12.6402   -4.6010    0.0000 O    0  0  0  0  0  0  0  0  0  0  0  0
    3.9943   -5.7513    0.0000 C    0  0  0  0  0  0  0  0  0  0  0  0
    2.6671   -5.7513    0.0000 C    0  0  0  0  0  0  0  0  0  0  0  0
    2.0098   -4.6010    0.0000 C    0  0  0  0  0  0  0  0  0  0  0  0
    2.6671   -3.4508    0.0000 C    0  0  0  0  0  0  0  0  0  0  0  0
    3.9943   -3.4508    0.0000 C    0  0  0  0  0  0  0  0  0  0  0  0
    4.6642   -4.6010    0.0000 C    0  0  0  0  0  0  0  0  0  0  0  0
    4.6642   -6.9142    0.0000 S    0  0  0  0  0  0  0  0  0  0  0  0
    3.5140   -7.5715    0.0000 O    0  0  0  0  0  0  0  0  0  0  0  0
    5.8271   -6.2569    0.0000 O    0  5  0  0  0  0  0  0  0  0  0  0
    5.3215   -8.0644    0.0000 O    0  0  0  0  0  0  0  0  0  0  0  0
    0.6699   -4.6010    0.0000 N    0  3  0  0  0  0  0  0  0  0  0  0
    0.0000   -5.7513    0.0000 O    0  5  0  0  0  0  0  0  0  0  0  0
    0.0000   -3.4508    0.0000 O    0  0  0  0  0  0  0  0  0  0  0  0
    6.0041   -4.6010    0.0000 C    0  0  0  0  0  0  0  0  0  0  0  0
    6.6614   -3.4508    0.0000 C    0  0  0  0  0  0  0  0  0  0  0  0
    6.9647   -7.4451    0.0000 Na   0  3  0  0  0  0  0  0  0  0  0  0
    5.5870   -0.6194    0.0000 Na   0  3  0  0  0  0  0  0  0  0  0  0
  1  2  2  0  0  0  0
  1  6  1  0  0  0  0
  1  7  1  0  0  0  0
  2  3  1  0  0  0  0
  3  4  2  0  0  0  0
  3 11  1  0  0  0  0
  4  5  1  0  0  0  0
  5  6  2  0  0  0  0
  6 28  1  0  0  0  0
  7  8  2  0  0  0  0
  7  9  1  0  0  0  0
  7 10  2  0  0  0  0
 11 12  1  0  0  0  0
 11 13  2  0  0  0  0
 14 15  2  0  0  0  0
 14 19  1  0  0  0  0
 14 20  1  0  0  0  0
 15 16  1  0  0  0  0
 16 17  2  0  0  0  0
 16 24  1  0  0  0  0
 17 18  1  0  0  0  0
 18 19  2  0  0  0  0
 19 27  1  0  0  0  0
 20 21  2  0  0  0  0
 20 22  1  0  0  0  0
 20 23  2  0  0  0  0
 24 25  1  0  0  0  0
 24 26  2  0  0  0  0
 27 28  2  3  0  0  0
M  END
> <ID>
5233

> <Formula>
C14H8N2Na2O10S2

> <FW>
474.3303 (428.3518+22.9892+22.9892)

> <DSSTox_CID>
7542

> <DSSTox_RID>
78497

> <DSSTox_GSID>
27542

> <DSSTox_FileID_Sort>
3180

> <TS_ChemName>
Benzenesulfonic acid, 2,2'-(1,2-ethenediyl)bis[5-nitro-, disodium salt

> <TS_ChemName_Synonyms>
Disodium 4,4'-dinitro-2,2'-stilbenedisulfonic acid

> <TS_CASRN>
3709-43-1

> <CASRN_ChemName_Relationship>
primary

> <TS_Description>
single chemical compound

> <ChemNote>
mixture of Z,E isomers; parent [128-42-7]

> <STRUCTURE_Shown>
tested chemical

> <STRUCTURE_Formula>
C14H8N2Na2O10S2

> <STRUCTURE_MW>
474.3303

> <STRUCTURE_ChemType>
defined organic

> <STRUCTURE_DefinedOrganicForm>
salt

> <STRUCTURE_IUPAC>
disodium 2,2'-ethene-1,2-diylbis(5-nitrobenzenesulfonate)

> <STRUCTURE_SMILES>
[Na+].[Na+].O=S([O-])(=O)c2cc(ccc2C=Cc1ccc(cc1S([O-])(=O)=O)[N+]([O-])=O)[N+]([O-])=O

> <STRUCTURE_SMILES_Desalt>
OS(=O)(=O)c2cc(ccc2C=Cc1ccc(cc1S(=O)(=O)O)[N+]([O-])=O)[N+]([O-])=O

> <Substance_modify_yyyymmdd>
20080429

$$$$
