37091-65-9
ChemmineR-0915142007XD

 35 37  0  0  1  0  0  0  0  0  2 V2000
    9.5719   -8.8210    0.0000 Na   0  3  0  0  0  0  0  0  0  0  0  0
    7.1393   -5.5528    0.0000 N    0  0  0  0  0  0  0  0  0  0  0  0
    7.1393   -4.0297    0.0000 C    0  0  0  0  0  0  0  0  0  0  0  0
    5.6162   -5.5528    0.0000 C    0  0  0  0  0  0  0  0  0  0  0  0
    5.6162   -4.0297    0.0000 C    0  0  0  0  0  0  0  0  0  0  0  0
    1.9884   -6.3566    0.0000 N    0  0  0  0  0  0  0  0  0  0  0  0
    8.5883   -6.0076    0.0000 C    0  0  0  0  0  0  0  0  0  0  0  0
    8.5989   -3.5432    0.0000 S    0  0  0  0  0  0  0  0  0  0  0  0
    2.4855   -5.2566    0.0000 C    0  0  0  0  0  0  0  0  0  0  0  0
    9.4767   -4.7807    0.0000 C    0  0  0  0  0  0  0  0  0  0  0  0
    4.4528   -4.0509    0.0000 N    0  0  0  0  0  0  0  0  0  0  0  0
    2.6971   -7.3614    0.0000 C    0  0  0  0  0  0  0  0  0  0  0  0
    3.7230   -3.1942    0.0000 C    0  0  0  0  0  0  0  0  0  0  0  0
    1.8509   -4.2413    0.0000 N    0  0  0  0  0  0  0  0  0  0  0  0
    2.4326   -3.1942    0.0000 C    0  0  0  0  0  0  0  0  0  0  0  0
    9.0748   -7.4672    0.0000 C    0  0  0  0  0  0  0  0  0  0  0  0
    1.9884   -8.3979    0.0000 N    0  0  0  0  0  0  0  0  0  0  0  0
    4.7278   -6.5258    0.0000 O    0  0  0  0  0  0  0  0  0  0  0  0
    3.6701   -5.2566    0.0000 O    0  0  0  0  0  0  0  0  0  0  0  0
    3.9134   -7.3614    0.0000 O    0  0  0  0  0  0  0  0  0  0  0  0
    4.6009   -2.1048    0.0000 O    0  0  0  0  0  0  0  0  0  0  0  0
   10.5767   -7.8056    0.0000 O    0  0  0  0  0  0  0  0  0  0  0  0
    1.8298   -2.1048    0.0000 C    0  0  0  0  0  0  0  0  0  0  0  0
    0.8144   -6.7479    0.0000 C    0  0  0  0  0  0  0  0  0  0  0  0
    8.0700   -8.6623    0.0000 O    0  5  0  0  0  0  0  0  0  0  0  0
    0.8144   -8.0383    0.0000 C    0  0  0  0  0  0  0  0  0  0  0  0
   10.3546   -3.5432    0.0000 C    0  0  0  0  0  0  0  0  0  0  0  0
   10.4181   -5.9441    0.0000 C    0  0  0  0  0  0  0  0  0  0  0  0
    0.5923   -2.1048    0.0000 C    0  0  0  0  0  0  0  0  0  0  0  0
    2.4326   -1.0682    0.0000 C    0  0  0  0  0  0  0  0  0  0  0  0
    1.8298    0.0000    0.0000 C    0  0  0  0  0  0  0  0  0  0  0  0
    0.0000   -1.0682    0.0000 C    0  0  0  0  0  0  0  0  0  0  0  0
    0.5923    0.0000    0.0000 C    0  0  0  0  0  0  0  0  0  0  0  0
    5.6162   -2.8980    0.0000 H    0  0  0  0  0  0  0  0  0  0  0  0
    7.1393   -2.8874    0.0000 H    0  0  0  0  0  0  0  0  0  0  0  0
  2  3  1  0  0  0  0
  2  4  1  0  0  0  0
  2  7  1  0  0  0  0
  3  8  1  0  0  0  0
  3 35  1  6  0  0  0
  3  5  1  0  0  0  0
  4  5  1  0  0  0  0
  4 18  2  0  0  0  0
  5 11  1  1  0  0  0
  5 34  1  6  0  0  0
  6  9  1  0  0  0  0
  6 12  1  0  0  0  0
  6 24  1  0  0  0  0
  7 10  1  0  0  0  0
  7 16  1  6  0  0  0
  8 10  1  0  0  0  0
  9 14  1  0  0  0  0
  9 19  2  0  0  0  0
 10 27  1  0  0  0  0
 10 28  1  0  0  0  0
 11 13  1  0  0  0  0
 12 17  1  0  0  0  0
 12 20  2  0  0  0  0
 13 15  1  0  0  0  0
 13 21  2  0  0  0  0
 14 15  1  0  0  0  0
 15 23  1  1  0  0  0
 16 22  2  0  0  0  0
 16 25  1  0  0  0  0
 17 26  1  0  0  0  0
 23 29  1  0  0  0  0
 23 30  2  0  0  0  0
 24 26  1  0  0  0  0
 29 32  2  0  0  0  0
 30 31  1  0  0  0  0
 31 33  2  0  0  0  0
 32 33  1  0  0  0  0
M  END
> <ID>
11045

> <Formula>
C20H22N5NaO6S

> <FW>
483.4733 (22.9892+460.4841)

> <DSSTox_CID>
25581

> <DSSTox_RID>
80977

> <DSSTox_GSID>
45581

> <DSSTox_FileID_Sort>
5658

> <TS_ChemName>
Azlocillin sodium

> <TS_ChemName_Synonyms>


> <TS_CASRN>
37091-65-9

> <CASRN_ChemName_Relationship>
primary

> <TS_Description>
single chemical compound

> <ChemNote>
stereochem; parent [37091-66-0]

> <STRUCTURE_Shown>
tested chemical

> <STRUCTURE_Formula>
C20H22N5NaO6S

> <STRUCTURE_MW>
483.4733

> <STRUCTURE_ChemType>
defined organic

> <STRUCTURE_DefinedOrganicForm>
salt

> <STRUCTURE_IUPAC>
sodium (2S,5R,6R)-3,3-dimethyl-7-oxo-6-{[(2S)-2-{[(2-oxoimidazolidin-1-yl)carbonyl]amino}-2-phenylacetyl]amino}-4-thia-1-azabicyclo[3.2.0]heptane-2-carboxylate

> <STRUCTURE_SMILES>
[Na+].O=C([O-])[C@@H]3N4C(=O)[C@@H](NC(=O)[C@@H](NC(=O)N1CCNC1=O)c2ccccc2)[C@H]4SC3(C)C

> <STRUCTURE_SMILES_Desalt>
OC(=O)[C@@H]3N4C(=O)[C@@H](NC(=O)[C@@H](NC(=O)N1CCNC1=O)c2ccccc2)[C@H]4SC3(C)C

> <Substance_modify_yyyymmdd>
20100107

$$$$
