3710-84-7
ChemmineR-0915142007XD

  6  5  0  0  0  0  0  0  0  0  1 V2000
    3.3163   -1.1533    0.0000 C   0  0  0  0  0  0  0  0  0  0  0  0
    3.9907    0.0000    0.0000 C   0  0  0  0  0  0  0  0  0  0  0  0
    1.9874   -1.1533    0.0000 N   0  0  0  0  0  0  0  0  0  0  0  0
    1.3289    0.0000    0.0000 C   0  0  0  0  0  0  0  0  0  0  0  0
    0.0000    0.0000    0.0000 C   0  0  0  0  0  0  0  0  0  0  0  0
    1.3289   -2.3066    0.0000 O   0  0  0  0  0  0  0  0  0  0  0  0
  1  2  1  0  0  0  0
  1  3  1  0  0  0  0
  3  4  1  0  0  0  0
  3  6  1  0  0  0  0
  4  5  1  0  0  0  0
M  END
> <ID>
5234

> <Formula>
C4H11NO

> <FW>
89.1362

> <DSSTox_CID>
7543

> <DSSTox_RID>
78498

> <DSSTox_GSID>
27543

> <DSSTox_FileID_Sort>
3181

> <TS_ChemName>
N,N-Diethylhydroxylamine

> <TS_ChemName_Synonyms>
N,N-Diethylhydroxylamine (Ethanamine, N-ethyl-N-hydroxy-) (Diethylhydroxylamine)

> <TS_CASRN>
3710-84-7

> <CASRN_ChemName_Relationship>
primary

> <TS_Description>
single chemical compound

> <ChemNote>


> <STRUCTURE_Shown>
tested chemical

> <STRUCTURE_Formula>
C4H11NO

> <STRUCTURE_MW>
89.1362

> <STRUCTURE_ChemType>
defined organic

> <STRUCTURE_DefinedOrganicForm>
parent

> <STRUCTURE_IUPAC>
N-ethyl-N-hydroxyethanamine

> <STRUCTURE_SMILES>
CCN(O)CC

> <STRUCTURE_SMILES_Desalt>
CCN(O)CC

> <Substance_modify_yyyymmdd>
20080429

$$$$
