37132-72-2
ChemmineR-0915142007XD

 27 33  0  0  0  0  0  0  0  0  1 V2000
    4.4888   -2.4938    0.0000 P   0  0  0  0  0  0  0  0  0  0  0  0
    5.1538   -3.6813    0.0000 N   0  0  0  0  0  0  0  0  0  0  0  0
    4.5046   -4.8055    0.0000 P   0  0  0  0  0  0  0  0  0  0  0  0
    3.1271   -4.7896    0.0000 N   0  0  0  0  0  0  0  0  0  0  0  0
    2.4779   -3.6021    0.0000 P   0  0  0  0  0  0  0  0  0  0  0  0
    3.1904   -2.4463    0.0000 N   0  0  0  0  0  0  0  0  0  0  0  0
    4.4730   -6.1434    0.0000 N   0  0  0  0  0  0  0  0  0  0  0  0
    5.6130   -5.5021    0.0000 N   0  0  0  0  0  0  0  0  0  0  0  0
    6.8084   -4.8530    0.0000 C   0  0  0  0  0  0  0  0  0  0  0  0
    7.9167   -5.5575    0.0000 C   0  0  0  0  0  0  0  0  0  0  0  0
    7.9167   -6.8717    0.0000 O   0  0  0  0  0  0  0  0  0  0  0  0
    6.7292   -7.5209    0.0000 C   0  0  0  0  0  0  0  0  0  0  0  0
    5.6130   -6.8242    0.0000 C   0  0  0  0  0  0  0  0  0  0  0  0
    5.0905   -7.2834    0.0000 C   0  0  0  0  0  0  0  0  0  0  0  0
    3.7605   -7.2517    0.0000 C   0  0  0  0  0  0  0  0  0  0  0  0
    1.3300   -4.2355    0.0000 N   0  0  0  0  0  0  0  0  0  0  0  0
    1.3617   -2.9054    0.0000 N   0  0  0  0  0  0  0  0  0  0  0  0
    0.0475   -2.9054    0.0000 C   0  0  0  0  0  0  0  0  0  0  0  0
    0.7283   -1.7654    0.0000 C   0  0  0  0  0  0  0  0  0  0  0  0
    0.6492   -5.3913    0.0000 C   0  0  0  0  0  0  0  0  0  0  0  0
    0.0000   -4.2038    0.0000 C   0  0  0  0  0  0  0  0  0  0  0  0
    5.6763   -1.8446    0.0000 N   0  0  0  0  0  0  0  0  0  0  0  0
    4.5363   -1.1558    0.0000 N   0  0  0  0  0  0  0  0  0  0  0  0
    6.3651   -0.6967    0.0000 C   0  0  0  0  0  0  0  0  0  0  0  0
    7.0142   -1.8763    0.0000 C   0  0  0  0  0  0  0  0  0  0  0  0
    3.9030    0.0000    0.0000 C   0  0  0  0  0  0  0  0  0  0  0  0
    5.2330   -0.0475    0.0000 C   0  0  0  0  0  0  0  0  0  0  0  0
  1  2  2  0  0  0  0
  1 22  1  0  0  0  0
  1  6  1  0  0  0  0
  1 23  1  0  0  0  0
  2  3  1  0  0  0  0
  3  7  1  0  0  0  0
  3  4  2  0  0  0  0
  3  8  1  0  0  0  0
  4  5  1  0  0  0  0
  5 16  1  0  0  0  0
  5 17  1  0  0  0  0
  5  6  2  0  0  0  0
  7 14  1  0  0  0  0
  7 15  1  0  0  0  0
  8  9  1  0  0  0  0
  8 13  1  0  0  0  0
  9 10  1  0  0  0  0
 10 11  1  0  0  0  0
 11 12  1  0  0  0  0
 12 13  1  0  0  0  0
 14 15  1  0  0  0  0
 16 20  1  0  0  0  0
 16 21  1  0  0  0  0
 17 18  1  0  0  0  0
 17 19  1  0  0  0  0
 18 19  1  0  0  0  0
 20 21  1  0  0  0  0
 22 24  1  0  0  0  0
 22 25  1  0  0  0  0
 23 26  1  0  0  0  0
 23 27  1  0  0  0  0
 24 25  1  0  0  0  0
 26 27  1  0  0  0  0
M  END
> <ID>
13680

> <Formula>
C14H28N9OP3

> <FW>
431.3531

> <DSSTox_CID>
28613

> <DSSTox_RID>
82883

> <DSSTox_GSID>
48687

> <DSSTox_FileID_Sort>
7560

> <TS_ChemName>
Fotretamine

> <TS_ChemName_Synonyms>


> <TS_CASRN>
37132-72-2

> <CASRN_ChemName_Relationship>
primary

> <TS_Description>
single chemical compound

> <ChemNote>


> <STRUCTURE_Shown>
tested chemical

> <STRUCTURE_Formula>
C14H28N9OP3

> <STRUCTURE_MW>
431.3531

> <STRUCTURE_ChemType>
defined organic

> <STRUCTURE_DefinedOrganicForm>
parent

> <STRUCTURE_IUPAC>
2,2,4,4,6-pentakis(aziridin-1-yl)-6-(morpholin-4-yl)-1,3,5,2lambda~5~,4lambda~5~,6lambda~5~-triazatriphosphinine

> <STRUCTURE_SMILES>
C1CN(CCO1)p2(np(np(n2)(N3CC3)N4CC4)(N5CC5)N6CC6)N7CC7

> <STRUCTURE_SMILES_Desalt>
C1CN(CCO1)p2(np(np(n2)(N3CC3)N4CC4)(N5CC5)N6CC6)N7CC7

> <Substance_modify_yyyymmdd>
20111204

$$$$
