3717-88-2
ChemmineR-0915142007XD

 30 32  0  0  0  0  0  0  0  0  1 V2000
    2.3151   -6.6558    0.0000 C    0  0  0  0  0  0  0  0  0  0  0  0
    4.6201   -7.9829    0.0000 C    0  0  0  0  0  0  0  0  0  0  0  0
    4.6201   -6.6558    0.0000 C    0  0  0  0  0  0  0  0  0  0  0  0
    3.4726   -5.9772    0.0000 O    0  0  0  0  0  0  0  0  0  0  0  0
    3.4726   -8.6315    0.0000 C    0  0  0  0  0  0  0  0  0  0  0  0
    2.3151   -7.9829    0.0000 C    0  0  0  0  0  0  0  0  0  0  0  0
    1.1875   -5.9772    0.0000 C    0  0  0  0  0  0  0  0  0  0  0  0
    1.1875   -4.6501    0.0000 C    0  0  0  0  0  0  0  0  0  0  0  0
    4.6201   -2.6543    0.0000 N    0  0  0  0  0  0  0  0  0  0  0  0
    5.7776   -5.9772    0.0000 C    0  0  0  0  0  0  0  0  0  0  0  0
    3.4726   -9.9787    0.0000 O    0  0  0  0  0  0  0  0  0  0  0  0
    0.0000   -3.9516    0.0000 O    0  0  0  0  0  0  0  0  0  0  0  0
    5.8076   -8.6715    0.0000 C    0  0  0  0  0  0  0  0  0  0  0  0
    2.3151   -4.0014    0.0000 O    0  0  0  0  0  0  0  0  0  0  0  0
    0.0299   -6.6558    0.0000 C    0  0  0  0  0  0  0  0  0  0  0  0
    1.1875   -8.6315    0.0000 C    0  0  0  0  0  0  0  0  0  0  0  0
    4.6201   -4.0014    0.0000 C    0  0  0  0  0  0  0  0  0  0  0  0
    3.4726   -4.6501    0.0000 C    0  0  0  0  0  0  0  0  0  0  0  0
    0.0299   -7.9829    0.0000 C    0  0  0  0  0  0  0  0  0  0  0  0
    5.7776   -1.9957    0.0000 C    0  0  0  0  0  0  0  0  0  0  0  0
    3.4726   -1.9957    0.0000 C    0  0  0  0  0  0  0  0  0  0  0  0
    5.7776   -4.6501    0.0000 C    0  0  0  0  0  0  0  0  0  0  0  0
    6.9052   -6.6558    0.0000 C    0  0  0  0  0  0  0  0  0  0  0  0
    5.7776   -0.6686    0.0000 C    0  0  0  0  0  0  0  0  0  0  0  0
    3.4726   -0.6686    0.0000 C    0  0  0  0  0  0  0  0  0  0  0  0
    6.9052   -4.0014    0.0000 C    0  0  0  0  0  0  0  0  0  0  0  0
    8.0628   -5.9772    0.0000 C    0  0  0  0  0  0  0  0  0  0  0  0
    4.6201    0.0000    0.0000 C    0  0  0  0  0  0  0  0  0  0  0  0
    8.0628   -4.6501    0.0000 C    0  0  0  0  0  0  0  0  0  0  0  0
    6.9052   -2.5945    0.0000 Cl   0  0  0  0  0  0  0  0  0  0  0  0
  1  4  1  0  0  0  0
  1  6  2  0  0  0  0
  1  7  1  0  0  0  0
  2  5  1  0  0  0  0
  2 13  1  0  0  0  0
  2  3  2  0  0  0  0
  3  4  1  0  0  0  0
  3 10  1  0  0  0  0
  5  6  1  0  0  0  0
  5 11  2  0  0  0  0
  6 16  1  0  0  0  0
  7  8  1  0  0  0  0
  7 15  2  0  0  0  0
  8 12  2  0  0  0  0
  8 14  1  0  0  0  0
  9 17  1  0  0  0  0
  9 20  1  0  0  0  0
  9 21  1  0  0  0  0
 10 22  2  0  0  0  0
 10 23  1  0  0  0  0
 14 18  1  0  0  0  0
 15 19  1  0  0  0  0
 16 19  2  0  0  0  0
 17 18  1  0  0  0  0
 20 24  1  0  0  0  0
 21 25  1  0  0  0  0
 22 26  1  0  0  0  0
 23 27  2  0  0  0  0
 24 28  1  0  0  0  0
 25 28  1  0  0  0  0
 26 29  2  0  0  0  0
 27 29  1  0  0  0  0
M  END
> <ID>
12885

> <Formula>
C24H26ClNO4

> <FW>
427.9205 (391.4596+36.4609)

> <DSSTox_CID>
27764

> <DSSTox_RID>
82541

> <DSSTox_GSID>
47784

> <DSSTox_FileID_Sort>
7222

> <TS_ChemName>
Flavoxate hydrochloride

> <TS_ChemName_Synonyms>


> <TS_CASRN>
3717-88-2

> <CASRN_ChemName_Relationship>
primary

> <TS_Description>
single chemical compound

> <ChemNote>
parent [15301-69-6]

> <STRUCTURE_Shown>
tested chemical

> <STRUCTURE_Formula>
C24H26ClNO4

> <STRUCTURE_MW>
427.9205

> <STRUCTURE_ChemType>
defined organic

> <STRUCTURE_DefinedOrganicForm>
complex

> <STRUCTURE_IUPAC>
2-(piperidin-1-yl)ethyl 3-methyl-4-oxo-2-phenyl-4H-chromene-8-carboxylate hydrochloride (1:1)

> <STRUCTURE_SMILES>
Cl.O=C(OCCN1CCCCC1)c4cccc2c4OC(=C(C)C2=O)c3ccccc3

> <STRUCTURE_SMILES_Desalt>
O=C(OCCN1CCCCC1)c4cccc2c4OC(=C(C)C2=O)c3ccccc3

> <Substance_modify_yyyymmdd>


$$$$
