372-09-8
ChemmineR-0915142007XD

  6  5  0  0  0  0  0  0  0  0  1 V2000
    3.3280   -1.1543    0.0000 C   0  0  0  0  0  0  0  0  0  0  0  0
    4.6546   -1.1543    0.0000 O   0  0  0  0  0  0  0  0  0  0  0  0
    2.6531    0.0000    0.0000 O   0  0  0  0  0  0  0  0  0  0  0  0
    2.6531   -2.3040    0.0000 C   0  0  0  0  0  0  0  0  0  0  0  0
    1.3266   -2.3040    0.0000 C   0  0  0  0  0  0  0  0  0  0  0  0
    0.0000   -2.3040    0.0000 N   0  0  0  0  0  0  0  0  0  0  0  0
  1  2  2  0  0  0  0
  1  3  1  0  0  0  0
  1  4  1  0  0  0  0
  4  5  1  0  0  0  0
  5  6  3  0  0  0  0
M  END
> <ID>
4957

> <Formula>
C3H3NO2

> <FW>
85.0614

> <DSSTox_CID>
7149

> <DSSTox_RID>
78326

> <DSSTox_GSID>
27149

> <DSSTox_FileID_Sort>
3009

> <TS_ChemName>
Cyanoacetic acid

> <TS_ChemName_Synonyms>


> <TS_CASRN>
372-09-8

> <CASRN_ChemName_Relationship>
primary

> <TS_Description>
single chemical compound

> <ChemNote>


> <STRUCTURE_Shown>
tested chemical

> <STRUCTURE_Formula>
C3H3NO2

> <STRUCTURE_MW>
85.0614

> <STRUCTURE_ChemType>
defined organic

> <STRUCTURE_DefinedOrganicForm>
parent

> <STRUCTURE_IUPAC>
cyanoacetic acid

> <STRUCTURE_SMILES>
N#CCC(=O)O

> <STRUCTURE_SMILES_Desalt>
N#CCC(=O)O

> <Substance_modify_yyyymmdd>
20080429

$$$$
