3721-95-7
ChemmineR-0915142007XD

  7  7  0  0  0  0  0  0  0  0  1 V2000
    1.9272   -3.5556    0.0000 O   0  0  0  0  0  0  0  0  0  0  0  0
    2.2721   -2.2721    0.0000 C   0  0  0  0  0  0  0  0  0  0  0  0
    3.5556   -1.9272    0.0000 O   0  0  0  0  0  0  0  0  0  0  0  0
    1.3298   -1.3298    0.0000 C   0  0  0  0  0  0  0  0  0  0  0  0
    1.3298    0.0000    0.0000 C   0  0  0  0  0  0  0  0  0  0  0  0
    0.0000    0.0000    0.0000 C   0  0  0  0  0  0  0  0  0  0  0  0
    0.0000   -1.3298    0.0000 C   0  0  0  0  0  0  0  0  0  0  0  0
  1  2  1  0  0  0  0
  2  3  2  0  0  0  0
  2  4  1  0  0  0  0
  4  5  1  0  0  0  0
  4  7  1  0  0  0  0
  5  6  1  0  0  0  0
  6  7  1  0  0  0  0
M  END
> <ID>
16125

> <Formula>
C5H8O2

> <FW>
100.1158

> <DSSTox_CID>
31514

> <DSSTox_RID>
97399

> <DSSTox_GSID>
57725

> <DSSTox_FileID_Sort>
8466

> <TS_ChemName>
Cyclobutanecarboxylic acid

> <TS_ChemName_Synonyms>


> <TS_CASRN>
3721-95-7

> <CASRN_ChemName_Relationship>
primary

> <TS_Description>
single chemical compound

> <ChemNote>


> <STRUCTURE_Shown>
tested chemical

> <STRUCTURE_Formula>
C5H8O2

> <STRUCTURE_MW>
100.1158

> <STRUCTURE_ChemType>
defined organic

> <STRUCTURE_DefinedOrganicForm>
parent

> <STRUCTURE_IUPAC>
cyclobutanecarboxylic acid

> <STRUCTURE_SMILES>
O=C(O)C1CCC1

> <STRUCTURE_SMILES_Desalt>
O=C(O)C1CCC1

> <Substance_modify_yyyymmdd>
20131018

$$$$
