3724-65-0
ChemmineR-0915142007XD

  6  5  0  0  0  0  0  0  0  0  1 V2000
    1.1522   -1.3281    0.0000 C   0  0  0  0  0  0  0  0  0  0  0  0
    2.3045   -1.9852    0.0000 C   0  0  0  0  0  0  0  0  0  0  0  0
    3.4753   -1.3281    0.0000 C   0  0  0  0  0  0  0  0  0  0  0  0
    4.6275   -1.9852    0.0000 C   0  0  0  0  0  0  0  0  0  0  0  0
    1.1522    0.0000    0.0000 O   0  0  0  0  0  0  0  0  0  0  0  0
    0.0000   -1.9852    0.0000 O   0  0  0  0  0  0  0  0  0  0  0  0
  1  2  1  0  0  0  0
  1  6  1  0  0  0  0
  1  5  2  0  0  0  0
  2  3  2  3  0  0  0
  3  4  1  0  0  0  0
M  END
> <ID>
5235

> <Formula>
C4H6O2

> <FW>
86.0892

> <DSSTox_CID>
7544

> <DSSTox_RID>
78499

> <DSSTox_GSID>
27544

> <DSSTox_FileID_Sort>
3182

> <TS_ChemName>
2-Butenoic acid

> <TS_ChemName_Synonyms>
2-Butenoic acid (Crotonic acid)

> <TS_CASRN>
3724-65-0

> <CASRN_ChemName_Relationship>
primary

> <TS_Description>
mixture of Z,E isomers

> <ChemNote>
mixture of Z [503-64-0], E [107-93-7] isomers

> <STRUCTURE_Shown>
representative isomer in mixture

> <STRUCTURE_Formula>
C4H6O2

> <STRUCTURE_MW>
86.0892

> <STRUCTURE_ChemType>
defined organic

> <STRUCTURE_DefinedOrganicForm>
parent

> <STRUCTURE_IUPAC>
but-2-enoic acid

> <STRUCTURE_SMILES>
CC=CC(=O)O

> <STRUCTURE_SMILES_Desalt>
CC=CC(=O)O

> <Substance_modify_yyyymmdd>
20080429

$$$$
