37280-56-1
ChemmineR-0915142007XD

 65 66  0  0  1  0  0  0  0  0  1 V2000
    6.7708   -5.1373    0.0000 C   0  0  0  0  0  0  0  0  0  0  0  0
    6.7708   -3.7879    0.0000 C   0  0  0  0  0  0  0  0  0  0  0  0
    8.6411   -6.0132    0.0000 O   0  0  0  0  0  0  0  0  0  0  0  0
    5.7055   -5.8238    0.0000 C   0  0  0  0  0  0  0  0  0  0  0  0
    5.6581   -3.1723    0.0000 C   0  0  0  0  0  0  0  0  0  0  0  0
    7.8598   -3.1723    0.0000 C   0  0  0  0  0  0  0  0  0  0  0  0
    5.7055   -7.1022    0.0000 C   0  0  0  0  0  0  0  0  0  0  0  0
    4.5928   -5.1846    0.0000 O   0  0  0  0  0  0  0  0  0  0  0  0
    5.6581   -1.9176    0.0000 C   0  0  0  0  0  0  0  0  0  0  0  0
    7.8598   -1.8466    0.0000 C   0  0  0  0  0  0  0  0  0  0  0  0
    4.5454   -7.7414    0.0000 C   0  0  0  0  0  0  0  0  0  0  0  0
    6.7235   -7.7414    0.0000 O   0  0  0  0  0  0  0  0  0  0  0  0
    4.5928   -3.8352    0.0000 C   0  0  0  0  0  0  0  0  0  0  0  0
    4.5454   -1.2784    0.0000 C   0  0  0  0  0  0  0  0  0  0  0  0
    6.6288   -1.1364    0.0000 C   0  0  0  0  0  0  0  0  0  0  0  0
    8.9962   -1.2784    0.0000 O   0  0  0  0  0  0  0  0  0  0  0  0
    3.4091   -7.1022    0.0000 C   0  0  0  0  0  0  0  0  0  0  0  0
    3.4091   -1.9176    0.0000 C   0  0  0  0  0  0  0  0  0  0  0  0
    4.5454    0.0000    0.0000 O   0  0  0  0  0  0  0  0  0  0  0  0
    2.2727   -7.7414    0.0000 O   0  0  0  0  0  0  0  0  0  0  0  0
    3.4091   -5.8238    0.0000 O   0  0  0  0  0  0  0  0  0  0  0  0
    3.4091   -3.1723    0.0000 C   0  0  0  0  0  0  0  0  0  0  0  0
    1.1600   -7.1022    0.0000 C   0  0  0  0  0  0  0  0  0  0  0  0
    2.2727   -3.7879    0.0000 C   0  0  0  0  0  0  0  0  0  0  0  0
    1.1600   -5.8238    0.0000 C   0  0  0  0  0  0  0  0  0  0  0  0
    0.0000   -7.7414    0.0000 C   0  0  0  0  0  0  0  0  0  0  0  0
    2.2727   -5.1373    0.0000 C   0  0  0  0  0  0  0  0  0  0  0  0
   15.7670   -3.3854    0.0000 C   0  0  0  0  0  0  0  0  0  0  0  0
   15.7670   -2.0833    0.0000 C   0  0  0  0  0  0  0  0  0  0  0  0
   16.8797   -4.0483    0.0000 O   0  0  0  0  0  0  0  0  0  0  0  0
   16.8797   -1.4441    0.0000 C   0  0  0  0  0  0  0  0  0  0  0  0
   18.0397   -3.3854    0.0000 C   0  0  0  0  0  0  0  0  0  0  0  0
   18.0397   -2.0833    0.0000 C   0  0  0  0  0  0  0  0  0  0  0  0
   13.9914   -3.3144    0.0000 O   0  0  0  0  0  0  0  0  0  0  0  0
   16.2405   -0.2841    0.0000 O   0  0  0  0  0  0  0  0  0  0  0  0
   19.1761   -1.4441    0.0000 O   0  0  0  0  0  0  0  0  0  0  0  0
   19.1761   -4.0483    0.0000 C   0  0  0  0  0  0  0  0  0  0  0  0
   17.5425   -0.2841    0.0000 C   0  0  0  0  0  0  0  0  0  0  0  0
   20.2887   -2.0833    0.0000 C   0  0  0  0  0  0  0  0  0  0  0  0
   21.4251   -1.4441    0.0000 C   0  0  0  0  0  0  0  0  0  0  0  0
   20.2887   -3.3854    0.0000 O   0  0  0  0  0  0  0  0  0  0  0  0
   22.5378   -2.0833    0.0000 C   0  0  0  0  0  0  0  0  0  0  0  0
   23.6742   -1.4441    0.0000 C   0  0  0  0  0  0  0  0  0  0  0  0
   22.5378   -3.3854    0.0000 C   0  0  0  0  0  0  0  0  0  0  0  0
    9.2092   -3.4328    0.0000 O   0  0  0  0  0  0  0  0  0  0  0  0
   10.6297   -5.2793    0.0000 C   0  0  0  0  0  0  0  0  0  0  0  0
   10.6297   -3.9773    0.0000 C   0  0  0  0  0  0  0  0  0  0  0  0
   11.7424   -5.9185    0.0000 O   0  0  0  0  0  0  0  0  0  0  0  0
   11.7424   -3.3144    0.0000 C   0  0  0  0  0  0  0  0  0  0  0  0
   12.8787   -5.2793    0.0000 C   0  0  0  0  0  0  0  0  0  0  0  0
   12.8787   -3.9773    0.0000 C   0  0  0  0  0  0  0  0  0  0  0  0
   11.7424   -2.0123    0.0000 N   0  0  0  0  0  0  0  0  0  0  0  0
   13.9914   -5.9185    0.0000 C   0  0  0  0  0  0  0  0  0  0  0  0
   12.8787   -1.3494    0.0000 C   0  0  0  0  0  0  0  0  0  0  0  0
   10.6297   -1.3494    0.0000 C   0  0  0  0  0  0  0  0  0  0  0  0
   19.3181   -7.0549    0.0000 C   0  0  0  0  0  0  0  0  0  0  0  0
   20.4545   -7.6704    0.0000 C   0  0  0  0  0  0  0  0  0  0  0  0
   18.1817   -7.6704    0.0000 C   0  0  0  0  0  0  0  0  0  0  0  0
   21.5672   -7.0549    0.0000 C   0  0  0  0  0  0  0  0  0  0  0  0
   21.5672   -5.7528    0.0000 O   0  0  0  0  0  0  0  0  0  0  0  0
   18.1817   -8.9725    0.0000 O   0  0  0  0  0  0  0  0  0  0  0  0
   22.6798   -7.6704    0.0000 O   0  0  0  0  0  0  0  0  0  0  0  0
   17.0927   -7.0549    0.0000 O   0  0  0  0  0  0  0  0  0  0  0  0
   20.4545   -8.9725    0.0000 O   0  0  0  0  0  0  0  0  0  0  0  0
   19.3181   -5.7528    0.0000 O   0  0  0  0  0  0  0  0  0  0  0  0
  1  2  1  0  0  0  0
  1  3  1  6  0  0  0
  1  4  1  0  0  0  0
  2  5  1  0  0  0  0
  2  6  1  6  0  0  0
 46  3  1  1  0  0  0
  4  7  1  0  0  0  0
  4  8  1  6  0  0  0
  5  9  1  0  0  0  0
  6 10  1  0  0  0  0
  7 11  1  0  0  0  0
  7 12  1  6  0  0  0
  8 13  1  0  0  0  0
  9 14  1  0  0  0  0
  9 15  1  6  0  0  0
 10 16  2  0  0  0  0
 11 17  1  0  0  0  0
 14 18  1  0  0  0  0
 14 19  1  6  0  0  0
 17 20  1  0  0  0  0
 17 21  2  0  0  0  0
 18 22  2  0  0  0  0
 20 23  1  0  0  0  0
 22 24  1  0  0  0  0
 23 25  1  0  0  0  0
 23 26  1  6  0  0  0
 24 27  2  0  0  0  0
 25 27  1  0  0  0  0
 28 29  1  0  0  0  0
 28 30  1  0  0  0  0
 28 34  1  1  0  0  0
 29 31  1  0  0  0  0
 30 32  1  0  0  0  0
 31 33  1  0  0  0  0
 31 35  1  1  0  0  0
 31 38  1  0  0  0  0
 32 33  1  0  0  0  0
 32 37  1  6  0  0  0
 33 36  1  1  0  0  0
 51 34  1  6  0  0  0
 36 39  1  0  0  0  0
 39 40  1  0  0  0  0
 39 41  2  0  0  0  0
 40 42  1  0  0  0  0
 42 43  1  0  0  0  0
 42 44  1  0  0  0  0
 47 45  1  6  0  0  0
 46 47  1  0  0  0  0
 46 48  1  0  0  0  0
 47 49  1  0  0  0  0
 48 50  1  0  0  0  0
 49 51  1  0  0  0  0
 49 52  1  1  0  0  0
 50 51  1  0  0  0  0
 50 53  1  1  0  0  0
 52 54  1  0  0  0  0
 52 55  1  0  0  0  0
 56 57  1  0  0  0  0
 56 58  1  0  0  0  0
 56 65  1  0  0  0  0
 57 59  1  0  0  0  0
 57 64  1  0  0  0  0
 58 61  2  0  0  0  0
 58 63  1  0  0  0  0
 59 60  2  0  0  0  0
 59 62  1  0  0  0  0
M  END
> <ID>
13602

> <Formula>
C44H73NO20

> <FW>
936.0451 (785.9583+150.0868)

> <DSSTox_CID>
28530

> <DSSTox_RID>
82802

> <DSSTox_GSID>
48604

> <DSSTox_FileID_Sort>
7479

> <TS_ChemName>
Leucomycin tartrate

> <TS_ChemName_Synonyms>


> <TS_CASRN>
37280-56-1

> <CASRN_ChemName_Relationship>
primary

> <TS_Description>
single chemical compound

> <ChemNote>
stereochem; parent [1392-21-8]

> <STRUCTURE_Shown>
tested chemical

> <STRUCTURE_Formula>
C44H73NO20

> <STRUCTURE_MW>
936.0451

> <STRUCTURE_ChemType>
defined organic

> <STRUCTURE_DefinedOrganicForm>
complex

> <STRUCTURE_IUPAC>
2,3-dihydroxybutanedioic acid - (2S,3S,4R,6S)-6-{[(2R,3S,4R,5R,6S)-6-{[(4R,5S,6S,7R,9R,10R,11E,13E,16R)-4,10-dihydroxy-5-methoxy-9,16-dimethyl-2-oxo-7-(2-oxoethyl)oxacyclohexadeca-11,13-dien-6-yl]oxy}-4-(dimethylamino)-5-hydroxy-2-methyltetrahydro-2H-pyra

> <STRUCTURE_SMILES>
O=C(O)C(O)C(O)C(=O)O.CC(C)CC(=O)O[C@H]1[C@H](C)O[C@H](C[C@@]1(C)O)O[C@@H]3[C@@H](C)O[C@@H](O[C@@H]2[C@@H](OC)[C@H](O)CC(=O)O[C@H](C)CC=CC=C[C@H](O)[C@H](C)C[C@@H]2CC=O)[C@H](O)[C@H]3N(C)C

> <STRUCTURE_SMILES_Desalt>
CC(C)CC(=O)O[C@H]1[C@H](C)O[C@H](C[C@@]1(C)O)O[C@@H]3[C@@H](C)O[C@@H](O[C@@H]2[C@@H](OC)[C@H](O)CC(=O)O[C@H](C)CC=CC=C[C@H](O)[C@H](C)C[C@@H]2CC=O)[C@H](O)[C@H]3N(C)C

> <Substance_modify_yyyymmdd>
20111014

$$$$
