372965-00-9
ChemmineR-0915142007XD

 14 12  0  0  0  0  0  0  0  0  1 V2000
    4.7765   -4.5134    0.0000 C   0  0  0  0  0  0  0  0  0  0  0  0
    3.6502   -5.1958    0.0000 C   0  0  0  0  0  0  0  0  0  0  0  0
    5.9275   -5.1629    0.0000 N   0  0  0  0  0  0  0  0  0  0  0  0
    7.0702   -4.4805    0.0000 C   0  0  0  0  0  0  0  0  0  0  0  0
    8.2212   -5.1136    0.0000 C   0  0  0  0  0  0  0  0  0  0  0  0
    2.3101   -2.6801    0.0000 N   0  0  0  0  0  0  0  0  0  0  0  0
    3.4611   -2.0060    0.0000 N   0  0  0  0  0  0  0  0  0  0  0  0
    1.1592   -2.0060    0.0000 C   0  0  0  0  0  0  0  0  0  0  0  0
    0.0000   -2.6801    0.0000 C   0  0  0  0  0  0  0  0  0  0  0  0
    2.3101   -4.0202    0.0000 C   0  0  0  0  0  0  0  0  0  0  0  0
    1.1510   -4.6861    0.0000 C   0  0  0  0  0  0  0  0  0  0  0  0
    4.6039   -2.6801    0.0000 O   0  0  0  0  0  0  0  0  0  0  0  0
    3.4611   -0.6906    0.0000 N   0  0  0  0  0  0  0  0  0  0  0  0
    4.6203    0.0000    0.0000 O   0  0  0  0  0  0  0  0  0  0  0  0
  1  2  1  0  0  0  0
  1  3  1  0  0  0  0
  3  4  1  0  0  0  0
  4  5  1  0  0  0  0
  6  7  1  0  0  0  0
  6  8  1  0  0  0  0
  6 10  1  0  0  0  0
  7 12  1  0  0  0  0
  7 13  1  0  0  0  0
  8  9  1  0  0  0  0
 10 11  1  0  0  0  0
 13 14  2  0  0  0  0
M  END
> <ID>
13732

> <Formula>
C8H22N4O2

> <FW>
206.2859 (73.1368+133.1490)

> <DSSTox_CID>
28667

> <DSSTox_RID>
82937

> <DSSTox_GSID>
48741

> <DSSTox_FileID_Sort>
7614

> <TS_ChemName>
1,1-Diethyl-2-hydroxy-2-nitrosohydrazine diethylamine

> <TS_ChemName_Synonyms>
2-(N,N-Diethylamino)diazenolate-2-oxide diethylammonium salt

> <TS_CASRN>
372965-00-9

> <CASRN_ChemName_Relationship>
primary

> <TS_Description>
single chemical compound

> <ChemNote>


> <STRUCTURE_Shown>
tested chemical

> <STRUCTURE_Formula>
C8H22N4O2

> <STRUCTURE_MW>
206.2859

> <STRUCTURE_ChemType>
defined organic

> <STRUCTURE_DefinedOrganicForm>
complex

> <STRUCTURE_IUPAC>
1,1-diethyl-2-hydroxy-3-oxotriazane - N-ethylethanamine (1:1)

> <STRUCTURE_SMILES>
CCN(CC)N(O)N=O.CCNCC

> <STRUCTURE_SMILES_Desalt>
CCN(CC)N(O)N=O

> <Substance_modify_yyyymmdd>
20100107

$$$$
