373-49-9
ChemmineR-0915142007XD

 18 17  0  0  0  0  0  0  0  0  1 V2000
    0.6721   -4.5764    0.0000 C   0  0  0  0  0  0  0  0  0  0  0  0
    2.0002   -4.5764    0.0000 C   0  0  0  0  0  0  0  0  0  0  0  0
    2.6882   -3.4403    0.0000 C   0  0  0  0  0  0  0  0  0  0  0  0
    4.0163   -3.4403    0.0000 C   0  0  0  0  0  0  0  0  0  0  0  0
    4.6884   -2.2882    0.0000 C   0  0  0  0  0  0  0  0  0  0  0  0
    6.0165   -2.2882    0.0000 C   0  0  0  0  0  0  0  0  0  0  0  0
    6.6885   -1.1521    0.0000 C   0  0  0  0  0  0  0  0  0  0  0  0
    8.0327   -1.1521    0.0000 C   0  0  0  0  0  0  0  0  0  0  0  0
    8.7047    0.0000    0.0000 C   0  0  0  0  0  0  0  0  0  0  0  0
   10.0328   -0.0160    0.0000 C   0  0  0  0  0  0  0  0  0  0  0  0
   10.6889   -1.1681    0.0000 C   0  0  0  0  0  0  0  0  0  0  0  0
   12.0170   -1.1841    0.0000 C   0  0  0  0  0  0  0  0  0  0  0  0
   12.6730   -2.3362    0.0000 C   0  0  0  0  0  0  0  0  0  0  0  0
   14.0171   -2.3362    0.0000 C   0  0  0  0  0  0  0  0  0  0  0  0
   14.6732   -3.5043    0.0000 C   0  0  0  0  0  0  0  0  0  0  0  0
   16.0013   -3.5203    0.0000 C   0  0  0  0  0  0  0  0  0  0  0  0
    0.0160   -3.4243    0.0000 O   0  0  0  0  0  0  0  0  0  0  0  0
    0.0000   -5.7125    0.0000 O   0  0  0  0  0  0  0  0  0  0  0  0
  1  2  1  0  0  0  0
  1 18  1  0  0  0  0
  1 17  2  0  0  0  0
  2  3  1  0  0  0  0
  3  4  1  0  0  0  0
  4  5  1  0  0  0  0
  5  6  1  0  0  0  0
  6  7  1  0  0  0  0
  7  8  1  0  0  0  0
  8  9  1  0  0  0  0
  9 10  2  0  0  0  0
 10 11  1  0  0  0  0
 11 12  1  0  0  0  0
 12 13  1  0  0  0  0
 13 14  1  0  0  0  0
 14 15  1  0  0  0  0
 15 16  1  0  0  0  0
M  END
> <ID>
8170

> <Formula>
C16H30O2

> <FW>
254.4082

> <DSSTox_CID>
21197

> <DSSTox_RID>
79644

> <DSSTox_GSID>
41197

> <DSSTox_FileID_Sort>
4326

> <TS_ChemName>
(Z)-Hexadec-9-enoic acid

> <TS_ChemName_Synonyms>
Palmitoleic acid

> <TS_CASRN>
373-49-9

> <CASRN_ChemName_Relationship>
primary

> <TS_Description>
single chemical compound

> <ChemNote>
stereochem

> <STRUCTURE_Shown>
tested chemical

> <STRUCTURE_Formula>
C16H30O2

> <STRUCTURE_MW>
254.4082

> <STRUCTURE_ChemType>
defined organic

> <STRUCTURE_DefinedOrganicForm>
parent

> <STRUCTURE_IUPAC>
(9Z)-hexadec-9-enoic acid

> <STRUCTURE_SMILES>
O=C(O)CCCCCCC/C=C\CCCCCC

> <STRUCTURE_SMILES_Desalt>
O=C(O)CCCCCCC/C=C\CCCCCC

> <Substance_modify_yyyymmdd>
20080825

$$$$
