3731-52-0
ChemmineR-0915142007XD

  8  8  0  0  0  0  0  0  0  0  1 V2000
    2.2970   -1.9892    0.0000 C   0  0  0  0  0  0  0  0  0  0  0  0
    2.2970   -0.6569    0.0000 C   0  0  0  0  0  0  0  0  0  0  0  0
    1.1393   -2.6645    0.0000 C   0  0  0  0  0  0  0  0  0  0  0  0
    3.4547   -2.6645    0.0000 C   0  0  0  0  0  0  0  0  0  0  0  0
    1.1393    0.0000    0.0000 C   0  0  0  0  0  0  0  0  0  0  0  0
    0.0000   -1.9892    0.0000 N   0  0  0  0  0  0  0  0  0  0  0  0
    4.5939   -1.9892    0.0000 N   0  0  0  0  0  0  0  0  0  0  0  0
    0.0000   -0.6569    0.0000 C   0  0  0  0  0  0  0  0  0  0  0  0
  1  2  1  0  0  0  0
  1  3  2  0  0  0  0
  1  4  1  0  0  0  0
  2  5  2  0  0  0  0
  3  6  1  0  0  0  0
  4  7  1  0  0  0  0
  5  8  1  0  0  0  0
  6  8  2  0  0  0  0
M  END
> <ID>
10081

> <Formula>
C6H8N2

> <FW>
108.1411

> <DSSTox_CID>
24424

> <DSSTox_RID>
80217

> <DSSTox_GSID>
44424

> <DSSTox_FileID_Sort>
4899

> <TS_ChemName>
3-(Aminomethyl)pyridine

> <TS_ChemName_Synonyms>


> <TS_CASRN>
3731-52-0

> <CASRN_ChemName_Relationship>
primary

> <TS_Description>
single chemical compound

> <ChemNote>


> <STRUCTURE_Shown>
tested chemical

> <STRUCTURE_Formula>
C6H8N2

> <STRUCTURE_MW>
108.1411

> <STRUCTURE_ChemType>
defined organic

> <STRUCTURE_DefinedOrganicForm>
parent

> <STRUCTURE_IUPAC>
1-(pyridin-3-yl)methanamine

> <STRUCTURE_SMILES>
NCc1cccnc1

> <STRUCTURE_SMILES_Desalt>
NCc1cccnc1

> <Substance_modify_yyyymmdd>
20091116

$$$$
