37321-09-8
ChemmineR-0915142007XD

 39 42  0  0  1  0  0  0  0  0  1 V2000
   11.4705   -6.6442    0.0000 O   0  0  0  0  0  0  0  0  0  0  0  0
    5.7111   -1.9788    0.0000 O   0  0  0  0  0  0  0  0  0  0  0  0
    9.1539   -3.9737    0.0000 C   0  0  0  0  0  0  0  0  0  0  0  0
    6.8695   -2.6545    0.0000 C   0  0  0  0  0  0  0  0  0  0  0  0
   10.3283   -4.6494    0.0000 O   0  0  0  0  0  0  0  0  0  0  0  0
    8.0117   -1.9788    0.0000 C   0  0  0  0  0  0  0  0  0  0  0  0
    9.1539   -2.6545    0.0000 C   0  0  0  0  0  0  0  0  0  0  0  0
    8.0117   -4.6494    0.0000 C   0  0  0  0  0  0  0  0  0  0  0  0
    6.8695   -3.9737    0.0000 O   0  0  0  0  0  0  0  0  0  0  0  0
   10.3283   -5.9846    0.0000 C   0  0  0  0  0  0  0  0  0  0  0  0
    8.0117   -5.9846    0.0000 C   0  0  0  0  0  0  0  0  0  0  0  0
    9.1539   -6.6442    0.0000 C   0  0  0  0  0  0  0  0  0  0  0  0
    8.0117   -0.6435    0.0000 N   0  0  0  0  0  0  0  0  0  0  0  0
   10.3283   -1.9788    0.0000 O   0  0  0  0  0  0  0  0  0  0  0  0
    9.1539   -7.9795    0.0000 N   0  0  0  0  0  0  0  0  0  0  0  0
    6.8695    0.0000    0.0000 C   0  0  0  0  0  0  0  0  0  0  0  0
    6.8695   -5.3089    0.0000 H   0  0  0  0  0  0  0  0  0  0  0  0
   10.3283   -3.3141    0.0000 H   0  0  0  0  0  0  0  0  0  0  0  0
   12.6289   -4.6333    0.0000 C   0  0  0  0  0  0  0  0  0  0  0  0
   13.7711   -3.9737    0.0000 C   0  0  0  0  0  0  0  0  0  0  0  0
   12.6289   -5.9685    0.0000 C   0  0  0  0  0  0  0  0  0  0  0  0
   14.9294   -4.6333    0.0000 C   0  0  0  0  0  0  0  0  0  0  0  0
   13.7711   -6.6442    0.0000 C   0  0  0  0  0  0  0  0  0  0  0  0
   14.9294   -5.9685    0.0000 C   0  0  0  0  0  0  0  0  0  0  0  0
   11.4705   -3.9737    0.0000 N   0  0  0  0  0  0  0  0  0  0  0  0
   16.0877   -3.9737    0.0000 N   0  0  0  0  0  0  0  0  0  0  0  0
   16.0877   -6.6442    0.0000 O   0  0  0  0  0  0  0  0  0  0  0  0
   13.7711   -7.9795    0.0000 O   0  0  0  0  0  0  0  0  0  0  0  0
    4.5689   -2.6545    0.0000 C   0  0  0  0  0  0  0  0  0  0  0  0
    4.5689   -3.9737    0.0000 C   0  0  0  0  0  0  0  0  0  0  0  0
    3.3945   -1.9788    0.0000 O   0  0  0  0  0  0  0  0  0  0  0  0
    3.3945   -4.6333    0.0000 C   0  0  0  0  0  0  0  0  0  0  0  0
    2.2684   -2.6545    0.0000 C   0  0  0  0  0  0  0  0  0  0  0  0
    2.2684   -3.9737    0.0000 C   0  0  0  0  0  0  0  0  0  0  0  0
    5.7111   -4.6333    0.0000 O   0  0  0  0  0  0  0  0  0  0  0  0
    3.3945   -5.9685    0.0000 O   0  0  0  0  0  0  0  0  0  0  0  0
    1.1422   -4.6333    0.0000 N   0  0  0  0  0  0  0  0  0  0  0  0
    1.1422   -1.9788    0.0000 C   0  0  0  0  0  0  0  0  0  0  0  0
    0.0000   -2.6545    0.0000 O   0  0  0  0  0  0  0  0  0  0  0  0
 10  1  1  6  0  0  0
 21  1  1  6  0  0  0
  4  2  1  6  0  0  0
 29  2  1  6  0  0  0
  3  5  1  0  0  0  0
  3  7  1  0  0  0  0
  3  8  1  0  0  0  0
  3 18  1  6  0  0  0
  4  9  1  0  0  0  0
  4  6  1  0  0  0  0
  5 10  1  0  0  0  0
  6  7  1  0  0  0  0
  6 13  1  1  0  0  0
  7 14  1  1  0  0  0
  8  9  1  0  0  0  0
  8 11  1  0  0  0  0
  8 17  1  1  0  0  0
 10 12  1  0  0  0  0
 11 12  1  0  0  0  0
 12 15  1  6  0  0  0
 13 16  1  0  0  0  0
 19 20  1  0  0  0  0
 19 21  1  0  0  0  0
 19 25  1  1  0  0  0
 20 22  1  0  0  0  0
 21 23  1  0  0  0  0
 22 24  1  0  0  0  0
 22 26  1  1  0  0  0
 23 24  1  0  0  0  0
 23 28  1  1  0  0  0
 24 27  1  6  0  0  0
 29 30  1  0  0  0  0
 29 31  1  0  0  0  0
 30 32  1  0  0  0  0
 30 35  1  6  0  0  0
 31 33  1  0  0  0  0
 32 34  1  0  0  0  0
 32 36  1  1  0  0  0
 33 34  1  0  0  0  0
 33 38  1  1  0  0  0
 34 37  1  6  0  0  0
 38 39  1  0  0  0  0
M  END
> <ID>
10964

> <Formula>
C21H41N5O11

> <FW>
539.5771

> <DSSTox_CID>
25465

> <DSSTox_RID>
80896

> <DSSTox_GSID>
45465

> <DSSTox_FileID_Sort>
5577

> <TS_ChemName>
Apramycin

> <TS_ChemName_Synonyms>


> <TS_CASRN>
37321-09-8

> <CASRN_ChemName_Relationship>
primary

> <TS_Description>
single chemical compound

> <ChemNote>


> <STRUCTURE_Shown>
tested chemical

> <STRUCTURE_Formula>
C21H41N5O11

> <STRUCTURE_MW>
539.5771

> <STRUCTURE_ChemType>
defined organic

> <STRUCTURE_DefinedOrganicForm>
parent

> <STRUCTURE_IUPAC>
(2R,3S,4R,4aR,6S,7R,8aS)-7-amino-6-{[(1R,2R,3S,4R,6S)-4,6-diamino-2,3-dihydroxycyclohexyl]oxy}-4-hydroxy-3-(methylamino)octahydropyrano[3,2-b]pyran-2-yl 4-amino-4-deoxy-alpha-D-glucopyranoside

> <STRUCTURE_SMILES>
O[C@@H]4[C@@H](O)[C@H](N)[C@@H](CO)O[C@@H]4O[C@H]2O[C@H]3C[C@@H](N)[C@@H](O[C@@H]1[C@@H](N)C[C@@H](N)[C@H](O)[C@H]1O)O[C@@H]3[C@H](O)[C@@H]2NC

> <STRUCTURE_SMILES_Desalt>
O[C@@H]4[C@@H](O)[C@H](N)[C@@H](CO)O[C@@H]4O[C@H]2O[C@H]3C[C@@H](N)[C@@H](O[C@@H]1[C@@H](N)C[C@@H](N)[C@H](O)[C@H]1O)O[C@@H]3[C@H](O)[C@@H]2NC

> <Substance_modify_yyyymmdd>
20100107

$$$$
