3734-67-6
ChemmineR-0915142007XD

 33 33  0  0  0  0  0  0  0  0  2 V2000
    5.5845   -2.4098    0.0000 C    0  0  0  0  0  0  0  0  0  0  0  0
    5.5845   -3.7374    0.0000 C    0  0  0  0  0  0  0  0  0  0  0  0
    4.4301   -1.7316    0.0000 C    0  0  0  0  0  0  0  0  0  0  0  0
    4.4301   -4.4012    0.0000 C    0  0  0  0  0  0  0  0  0  0  0  0
    6.7389   -4.4012    0.0000 C    0  0  0  0  0  0  0  0  0  0  0  0
    6.7389   -1.7316    0.0000 C    0  0  0  0  0  0  0  0  0  0  0  0
    7.8933   -2.4098    0.0000 C    0  0  0  0  0  0  0  0  0  0  0  0
    7.8933   -3.7374    0.0000 C    0  0  0  0  0  0  0  0  0  0  0  0
    3.2324   -3.7374    0.0000 C    0  0  0  0  0  0  0  0  0  0  0  0
    3.2324   -2.4098    0.0000 C    0  0  0  0  0  0  0  0  0  0  0  0
    9.1199   -1.7316    0.0000 S    0  0  0  0  0  0  0  0  0  0  0  0
    9.8270   -3.0159    0.0000 O    0  0  0  0  0  0  0  0  0  0  0  0
   10.2022   -1.0678    0.0000 O    0  5  0  0  0  0  0  0  0  0  0  0
    8.4417   -0.5772    0.0000 O    0  0  0  0  0  0  0  0  0  0  0  0
    2.0780   -1.7316    0.0000 S    0  0  0  0  0  0  0  0  0  0  0  0
    2.7995   -0.4618    0.0000 O    0  0  0  0  0  0  0  0  0  0  0  0
    0.9957   -1.0678    0.0000 O    0  5  0  0  0  0  0  0  0  0  0  0
    1.4142   -2.8139    0.0000 O    0  0  0  0  0  0  0  0  0  0  0  0
    4.4301   -5.5268    0.0000 N    0  0  0  0  0  0  0  0  0  0  0  0
    3.2901   -6.2483    0.0000 C    0  0  0  0  0  0  0  0  0  0  0  0
    2.1357   -5.5268    0.0000 O    0  0  0  0  0  0  0  0  0  0  0  0
    3.2901   -7.5759    0.0000 C    0  0  0  0  0  0  0  0  0  0  0  0
    6.7245   -5.4402    0.0000 O    0  0  0  0  0  0  0  0  0  0  0  0
   10.4042   -4.3868    0.0000 N    0  0  0  0  0  0  0  0  0  0  0  0
    9.1199   -4.4012    0.0000 N    0  0  0  0  0  0  0  0  0  0  0  0
   13.8097   -5.4546    0.0000 C    0  0  0  0  0  0  0  0  0  0  0  0
   14.4302   -4.2713    0.0000 C    0  0  0  0  0  0  0  0  0  0  0  0
   13.7231   -3.1025    0.0000 C    0  0  0  0  0  0  0  0  0  0  0  0
   12.3956   -3.1025    0.0000 C    0  0  0  0  0  0  0  0  0  0  0  0
   11.7462   -4.3435    0.0000 C    0  0  0  0  0  0  0  0  0  0  0  0
   12.4388   -5.4546    0.0000 C    0  0  0  0  0  0  0  0  0  0  0  0
   12.6264   -0.4473    0.0000 Na   0  3  0  0  0  0  0  0  0  0  0  0
    0.0000    0.0000    0.0000 Na   0  3  0  0  0  0  0  0  0  0  0  0
  1  2  2  0  0  0  0
  1  3  1  0  0  0  0
  1  6  1  0  0  0  0
  2  4  1  0  0  0  0
  2  5  1  0  0  0  0
  3 10  2  0  0  0  0
  4  9  2  0  0  0  0
  4 19  1  0  0  0  0
  5  8  2  0  0  0  0
  5 23  1  0  0  0  0
  6  7  2  0  0  0  0
  7  8  1  0  0  0  0
  7 11  1  0  0  0  0
  8 25  1  0  0  0  0
  9 10  1  0  0  0  0
 10 15  1  0  0  0  0
 11 12  2  0  0  0  0
 11 13  1  0  0  0  0
 11 14  2  0  0  0  0
 15 16  2  0  0  0  0
 15 17  1  0  0  0  0
 15 18  2  0  0  0  0
 19 20  1  0  0  0  0
 20 21  2  0  0  0  0
 20 22  1  0  0  0  0
 24 30  1  0  0  0  0
 24 25  2  0  0  0  0
 26 31  2  0  0  0  0
 26 27  1  0  0  0  0
 27 28  2  0  0  0  0
 28 29  1  0  0  0  0
 29 30  2  0  0  0  0
 30 31  1  0  0  0  0
M  END
> <ID>
10316

> <Formula>
C18H13N3Na2O8S2

> <FW>
509.4207 (463.4422+22.9892+22.9892)

> <DSSTox_CID>
24663

> <DSSTox_RID>
80384

> <DSSTox_GSID>
44663

> <DSSTox_FileID_Sort>
5066

> <TS_ChemName>
C.I. Acid Red 1

> <TS_ChemName_Synonyms>
C.I. 18050; 2,7-Naphthalenedisulfonic acid, 5-(acetylamino)-4-hydroxy-3-(phenylazo)-, disodium salt

> <TS_CASRN>
3734-67-6

> <CASRN_ChemName_Relationship>
primary

> <TS_Description>
single chemical compound

> <ChemNote>
parent [25317-20-8]

> <STRUCTURE_Shown>
tested chemical

> <STRUCTURE_Formula>
C18H13N3Na2O8S2

> <STRUCTURE_MW>
509.4207

> <STRUCTURE_ChemType>
defined organic

> <STRUCTURE_DefinedOrganicForm>
salt

> <STRUCTURE_IUPAC>
disodium 5-(acetylamino)-4-hydroxy-3-(phenyldiazenyl)naphthalene-2,7-disulfonate

> <STRUCTURE_SMILES>
[Na+].[Na+].[O-]S(=O)(=O)c3cc2cc(c(\N=N/c1ccccc1)c(O)c2c(c3)NC(C)=O)S([O-])(=O)=O

> <STRUCTURE_SMILES_Desalt>
O=S(=O)(O)c3cc2cc(c(\N=N/c1ccccc1)c(O)c2c(c3)NC(C)=O)S(=O)(=O)O

> <Substance_modify_yyyymmdd>
20091116

$$$$
