3734-33-6
ChemmineR-0915142007XD

 33 34  0  0  0  0  0  0  0  0  2 V2000
   10.7484    0.0000    0.0000 C   0  0  0  0  0  0  0  0  0  0  0  0
   11.4833   -1.2976    0.0000 C   0  0  0  0  0  0  0  0  0  0  0  0
   10.7484   -2.5493    0.0000 C   0  0  0  0  0  0  0  0  0  0  0  0
    9.2900   -2.5493    0.0000 C   0  0  0  0  0  0  0  0  0  0  0  0
    8.5666   -1.2976    0.0000 C   0  0  0  0  0  0  0  0  0  0  0  0
    9.2900    0.0000    0.0000 C   0  0  0  0  0  0  0  0  0  0  0  0
    7.0967   -1.2976    0.0000 C   0  0  0  0  0  0  0  0  0  0  0  0
    6.3618    0.0000    0.0000 O   0  5  0  0  0  0  0  0  0  0  0  0
    6.3618   -2.5493    0.0000 O   0  0  0  0  0  0  0  0  0  0  0  0
    2.2278   -5.9024    0.0000 C   0  0  0  0  0  0  0  0  0  0  0  0
    1.1024   -6.5570    0.0000 C   0  0  0  0  0  0  0  0  0  0  0  0
    0.0000   -5.9024    0.0000 C   0  0  0  0  0  0  0  0  0  0  0  0
    0.0000   -4.6278    0.0000 C   0  0  0  0  0  0  0  0  0  0  0  0
    1.1024   -3.9962    0.0000 C   0  0  0  0  0  0  0  0  0  0  0  0
    2.2278   -4.6278    0.0000 C   0  0  0  0  0  0  0  0  0  0  0  0
    3.3187   -6.5570    0.0000 C   0  0  0  0  0  0  0  0  0  0  0  0
    4.4326   -5.9024    0.0000 N   0  3  0  0  0  0  0  0  0  0  0  0
    5.5350   -5.2708    0.0000 C   0  0  0  0  0  0  0  0  0  0  0  0
    6.6374   -5.9024    0.0000 C   0  0  0  0  0  0  0  0  0  0  0  0
    6.6374   -7.1771    0.0000 N   0  0  0  0  0  0  0  0  0  0  0  0
    7.7512   -7.8316    0.0000 C   0  0  0  0  0  0  0  0  0  0  0  0
    8.8536   -7.1771    0.0000 C   0  0  0  0  0  0  0  0  0  0  0  0
    7.7512   -9.1063    0.0000 C   0  0  0  0  0  0  0  0  0  0  0  0
    9.9790   -7.8316    0.0000 C   0  0  0  0  0  0  0  0  0  0  0  0
    8.8536   -9.7493    0.0000 C   0  0  0  0  0  0  0  0  0  0  0  0
    9.9790   -9.1063    0.0000 C   0  0  0  0  0  0  0  0  0  0  0  0
    8.8536   -5.9024    0.0000 C   0  0  0  0  0  0  0  0  0  0  0  0
    6.6374   -9.7493    0.0000 C   0  0  0  0  0  0  0  0  0  0  0  0
    7.7512   -5.2708    0.0000 O   0  0  0  0  0  0  0  0  0  0  0  0
    3.8010   -4.8000    0.0000 C   0  0  0  0  0  0  0  0  0  0  0  0
    4.4326   -3.6976    0.0000 C   0  0  0  0  0  0  0  0  0  0  0  0
    5.0756   -7.0163    0.0000 C   0  0  0  0  0  0  0  0  0  0  0  0
    4.4326   -8.1187    0.0000 C   0  0  0  0  0  0  0  0  0  0  0  0
  1  2  2  0  0  0  0
  1  6  1  0  0  0  0
  2  3  1  0  0  0  0
  3  4  2  0  0  0  0
  4  5  1  0  0  0  0
  5  6  2  0  0  0  0
  5  7  1  0  0  0  0
  7  8  1  0  0  0  0
  7  9  2  0  0  0  0
 10 11  2  0  0  0  0
 10 15  1  0  0  0  0
 10 16  1  0  0  0  0
 11 12  1  0  0  0  0
 12 13  2  0  0  0  0
 13 14  1  0  0  0  0
 14 15  2  0  0  0  0
 16 17  1  0  0  0  0
 17 18  1  0  0  0  0
 17 30  1  0  0  0  0
 17 32  1  0  0  0  0
 18 19  1  0  0  0  0
 19 20  1  0  0  0  0
 19 29  2  0  0  0  0
 20 21  1  0  0  0  0
 21 22  2  0  0  0  0
 21 23  1  0  0  0  0
 22 24  1  0  0  0  0
 22 27  1  0  0  0  0
 23 25  2  0  0  0  0
 23 28  1  0  0  0  0
 24 26  2  0  0  0  0
 25 26  1  0  0  0  0
 30 31  1  0  0  0  0
 32 33  1  0  0  0  0
M  END
> <ID>
6763

> <Formula>
C28H34N2O3

> <FW>
446.5812 (121.1139+325.4672)

> <DSSTox_CID>
14376

> <DSSTox_RID>
79149

> <DSSTox_GSID>
34376

> <DSSTox_FileID_Sort>
3831

> <TS_ChemName>
Denatonium benzoate

> <TS_ChemName_Synonyms>
Benzyl diethyl ((2,6-xylylcarbamoyl)methyl) ammonium benzoate

> <TS_CASRN>
3734-33-6

> <CASRN_ChemName_Relationship>
primary

> <TS_Description>
single chemical compound

> <ChemNote>
ammonium; parent [47324-98-1]

> <STRUCTURE_Shown>
tested chemical

> <STRUCTURE_Formula>
C28H34N2O3

> <STRUCTURE_MW>
446.5812

> <STRUCTURE_ChemType>
defined organic

> <STRUCTURE_DefinedOrganicForm>
complex

> <STRUCTURE_IUPAC>
N-benzyl-2-[(2,6-dimethylphenyl)amino]-N,N-diethyl-2-oxoethanaminium benzoate

> <STRUCTURE_SMILES>
O=C(Nc1c(C)cccc1C)C[N+](Cc2ccccc2)(CC)CC.[O-]C(=O)c1ccccc1

> <STRUCTURE_SMILES_Desalt>
O=C(Nc1c(C)cccc1C)C[N+](Cc2ccccc2)(CC)CC

> <Substance_modify_yyyymmdd>
20080429

$$$$
