3735-85-1
ChemmineR-0915142007XD

 45 50  0  0  1  0  0  0  0  0  1 V2000
   10.3751   -6.0603    0.0000 C   0  0  0  0  0  0  0  0  0  0  0  0
   10.3751   -7.3743    0.0000 C   0  0  0  0  0  0  0  0  0  0  0  0
    9.2375   -5.3542    0.0000 C   0  0  0  0  0  0  0  0  0  0  0  0
    9.2375   -8.0216    0.0000 C   0  0  0  0  0  0  0  0  0  0  0  0
    8.0804   -6.0603    0.0000 C   0  0  0  0  0  0  0  0  0  0  0  0
    8.0804   -7.3743    0.0000 C   0  0  0  0  0  0  0  0  0  0  0  0
    9.2375   -4.0206    0.0000 C   0  0  0  0  0  0  0  0  0  0  0  0
    8.0804   -3.3734    0.0000 N   0  0  0  0  0  0  0  0  0  0  0  0
    6.9232   -5.3542    0.0000 C   0  0  0  0  0  0  0  0  0  0  0  0
    6.9232   -4.0206    0.0000 C   0  0  0  0  0  0  0  0  0  0  0  0
    8.0804   -2.0397    0.0000 C   0  0  0  0  0  0  0  0  0  0  0  0
    6.9232   -1.3925    0.0000 C   0  0  0  0  0  0  0  0  0  0  0  0
    5.7661   -3.3734    0.0000 C   0  0  0  0  0  0  0  0  0  0  0  0
    5.7661   -2.0397    0.0000 C   0  0  0  0  0  0  0  0  0  0  0  0
    6.9232   -2.6869    0.0000 H   0  0  0  0  0  0  0  0  0  0  0  0
    8.0804   -4.7070    0.0000 H   0  0  0  0  0  0  0  0  0  0  0  0
    9.2375   -6.6879    0.0000 H   0  0  0  0  0  0  0  0  0  0  0  0
    4.5109   -3.8048    0.0000 N   0  0  0  0  0  0  0  0  0  0  0  0
    3.7264   -2.6869    0.0000 C   0  0  0  0  0  0  0  0  0  0  0  0
    4.5109   -1.6082    0.0000 C   0  0  0  0  0  0  0  0  0  0  0  0
    2.3927   -2.5693    0.0000 C   0  0  0  0  0  0  0  0  0  0  0  0
    1.8632   -1.3533    0.0000 C   0  0  0  0  0  0  0  0  0  0  0  0
    3.9617   -0.4315    0.0000 C   0  0  0  0  0  0  0  0  0  0  0  0
    2.6281   -0.2550    0.0000 C   0  0  0  0  0  0  0  0  0  0  0  0
    0.5295   -1.2160    0.0000 O   0  0  0  0  0  0  0  0  0  0  0  0
    0.0000    0.0000    0.0000 C   0  0  0  0  0  0  0  0  0  0  0  0
    6.9232   -8.0216    0.0000 C   0  0  0  0  0  0  0  0  0  0  0  0
    6.9232   -9.3552    0.0000 O   0  0  0  0  0  0  0  0  0  0  0  0
    5.7661   -7.3547    0.0000 O   0  0  0  0  0  0  0  0  0  0  0  0
    4.6286   -8.0216    0.0000 C   0  0  0  0  0  0  0  0  0  0  0  0
    9.2375   -9.3552    0.0000 O   0  0  0  0  0  0  0  0  0  0  0  0
   10.3751  -10.0220    0.0000 C   0  0  0  0  0  0  0  0  0  0  0  0
   11.5518   -8.0216    0.0000 O   0  0  0  0  0  0  0  0  0  0  0  0
   13.8465   -8.0216    0.0000 C   0  0  0  0  0  0  0  0  0  0  0  0
   14.9840   -7.3743    0.0000 O   0  0  0  0  0  0  0  0  0  0  0  0
   16.1608   -8.0216    0.0000 C   0  0  0  0  0  0  0  0  0  0  0  0
   17.2983   -7.3743    0.0000 C   0  0  0  0  0  0  0  0  0  0  0  0
   16.1608   -9.3552    0.0000 C   0  0  0  0  0  0  0  0  0  0  0  0
   18.4555   -8.0216    0.0000 C   0  0  0  0  0  0  0  0  0  0  0  0
   17.2983  -10.0220    0.0000 C   0  0  0  0  0  0  0  0  0  0  0  0
   18.4555   -9.3552    0.0000 C   0  0  0  0  0  0  0  0  0  0  0  0
   19.6126  -10.0220    0.0000 O   0  0  0  0  0  0  0  0  0  0  0  0
   19.6126  -11.3557    0.0000 C   0  0  0  0  0  0  0  0  0  0  0  0
   12.6893   -7.3743    0.0000 C   0  0  0  0  0  0  0  0  0  0  0  0
   12.6893   -6.0603    0.0000 O   0  0  0  0  0  0  0  0  0  0  0  0
  1  2  1  0  0  0  0
  1  3  1  0  0  0  0
  2  4  1  0  0  0  0
  2 33  1  1  0  0  0
  3  7  1  0  0  0  0
  3  5  1  0  0  0  0
  3 17  1  6  0  0  0
  4  6  1  0  0  0  0
  4 31  1  6  0  0  0
  5  6  1  0  0  0  0
  5  9  1  0  0  0  0
  5 16  1  6  0  0  0
  6 27  1  1  0  0  0
  7  8  1  0  0  0  0
  8 11  1  0  0  0  0
  8 10  1  0  0  0  0
  9 10  1  0  0  0  0
 10 13  1  0  0  0  0
 10 15  1  1  0  0  0
 11 12  1  0  0  0  0
 12 14  1  0  0  0  0
 13 18  1  0  0  0  0
 13 14  2  0  0  0  0
 14 20  1  0  0  0  0
 18 19  1  0  0  0  0
 19 21  1  0  0  0  0
 19 20  2  0  0  0  0
 20 23  1  0  0  0  0
 21 22  2  0  0  0  0
 22 24  1  0  0  0  0
 22 25  1  0  0  0  0
 23 24  2  0  0  0  0
 25 26  1  0  0  0  0
 27 28  2  0  0  0  0
 27 29  1  0  0  0  0
 29 30  1  0  0  0  0
 31 32  1  0  0  0  0
 33 44  1  0  0  0  0
 34 35  1  0  0  0  0
 34 44  1  0  0  0  0
 35 36  1  0  0  0  0
 36 37  1  0  0  0  0
 36 38  2  0  0  0  0
 37 39  2  0  0  0  0
 38 40  1  0  0  0  0
 39 41  1  0  0  0  0
 40 41  2  0  0  0  0
 41 42  1  0  0  0  0
 42 43  1  0  0  0  0
 44 45  2  0  0  0  0
M  END
> <ID>
11915

> <Formula>
C32H38N2O8

> <FW>
578.6527

> <DSSTox_CID>
26721

> <DSSTox_RID>
81851

> <DSSTox_GSID>
46721

> <DSSTox_FileID_Sort>
6532

> <TS_ChemName>
Mefeserpine

> <TS_ChemName_Synonyms>


> <TS_CASRN>
3735-85-1

> <CASRN_ChemName_Relationship>
primary

> <TS_Description>
single chemical compound

> <ChemNote>
stereochem

> <STRUCTURE_Shown>
tested chemical

> <STRUCTURE_Formula>
C32H38N2O8

> <STRUCTURE_MW>
578.6527

> <STRUCTURE_ChemType>
defined organic

> <STRUCTURE_DefinedOrganicForm>
parent

> <STRUCTURE_IUPAC>
methyl (3beta,16beta,17alpha,18beta,20alpha)-11,17-dimethoxy-18-{[(4-methoxyphenoxy)acetyl]oxy}yohimban-16-carboxylate

> <STRUCTURE_SMILES>
COc1ccc(cc1)OCC(=O)O[C@@H]3C[C@@H]4CN5CCc2c6ccc(OC)cc6nc2[C@H]5C[C@@H]4[C@@H]([C@H]3OC)C(=O)OC

> <STRUCTURE_SMILES_Desalt>
COc1ccc(cc1)OCC(=O)O[C@@H]3C[C@@H]4CN5CCc2c6ccc(OC)cc6nc2[C@H]5C[C@@H]4[C@@H]([C@H]3OC)C(=O)OC

> <Substance_modify_yyyymmdd>
20110804

$$$$
