3736-81-0
ChemmineR-0915142007XD

 21 22  0  0  0  0  0  0  0  0  1 V2000
   10.1174   -3.7522    0.0000 C    0  0  0  0  0  0  0  0  0  0  0  0
    8.9533   -4.4085    0.0000 N    0  0  0  0  0  0  0  0  0  0  0  0
    3.1702   -2.3900    0.0000 C    0  0  0  0  0  0  0  0  0  0  0  0
    2.0681   -1.7708    0.0000 C    0  0  0  0  0  0  0  0  0  0  0  0
   11.2319   -4.4085    0.0000 C    0  0  0  0  0  0  0  0  0  0  0  0
    4.3342   -1.7708    0.0000 O    0  0  0  0  0  0  0  0  0  0  0  0
    7.8016   -3.7522    0.0000 C    0  0  0  0  0  0  0  0  0  0  0  0
    0.7802   -2.1424    0.0000 O    0  0  0  0  0  0  0  0  0  0  0  0
   10.1174   -2.4396    0.0000 O    0  0  0  0  0  0  0  0  0  0  0  0
    2.0681   -0.4087    0.0000 C    0  0  0  0  0  0  0  0  0  0  0  0
    3.1702   -3.7522    0.0000 O    0  0  0  0  0  0  0  0  0  0  0  0
    0.0000   -1.0650    0.0000 C    0  0  0  0  0  0  0  0  0  0  0  0
    0.7802    0.0000    0.0000 C    0  0  0  0  0  0  0  0  0  0  0  0
    6.6376   -4.4085    0.0000 C    0  0  0  0  0  0  0  0  0  0  0  0
    7.8016   -2.4396    0.0000 C    0  0  0  0  0  0  0  0  0  0  0  0
    5.4859   -2.4396    0.0000 C    0  0  0  0  0  0  0  0  0  0  0  0
   12.3836   -3.7522    0.0000 Cl   0  0  0  0  0  0  0  0  0  0  0  0
   11.2319   -5.7707    0.0000 Cl   0  0  0  0  0  0  0  0  0  0  0  0
    6.6376   -1.7708    0.0000 C    0  0  0  0  0  0  0  0  0  0  0  0
    5.4859   -3.7522    0.0000 C    0  0  0  0  0  0  0  0  0  0  0  0
    8.9533   -5.7707    0.0000 C    0  0  0  0  0  0  0  0  0  0  0  0
  1  2  1  0  0  0  0
  1  5  1  0  0  0  0
  1  9  2  0  0  0  0
  2  7  1  0  0  0  0
  2 21  1  0  0  0  0
  3  6  1  0  0  0  0
  3  4  1  0  0  0  0
  3 11  2  0  0  0  0
  4  8  1  0  0  0  0
  4 10  2  0  0  0  0
  5 17  1  0  0  0  0
  5 18  1  0  0  0  0
  6 16  1  0  0  0  0
  7 14  2  0  0  0  0
  7 15  1  0  0  0  0
  8 12  1  0  0  0  0
 10 13  1  0  0  0  0
 12 13  2  0  0  0  0
 14 20  1  0  0  0  0
 15 19  2  0  0  0  0
 16 19  1  0  0  0  0
 16 20  2  0  0  0  0
M  END
> <ID>
13984

> <Formula>
C14H11Cl2NO4

> <FW>
328.1474

> <DSSTox_CID>
28925

> <DSSTox_RID>
83191

> <DSSTox_GSID>
48999

> <DSSTox_FileID_Sort>
7867

> <TS_ChemName>
Diloxanide furoate

> <TS_ChemName_Synonyms>


> <TS_CASRN>
3736-81-0

> <CASRN_ChemName_Relationship>
primary

> <TS_Description>
single chemical compound

> <ChemNote>


> <STRUCTURE_Shown>
tested chemical

> <STRUCTURE_Formula>
C14H11Cl2NO4

> <STRUCTURE_MW>
328.1474

> <STRUCTURE_ChemType>
defined organic

> <STRUCTURE_DefinedOrganicForm>
parent

> <STRUCTURE_IUPAC>
4-[(dichloroacetyl)(methyl)amino]phenyl furan-2-carboxylate

> <STRUCTURE_SMILES>
ClC(Cl)C(=O)N(C)c1ccc(cc1)OC(=O)c2ccco2

> <STRUCTURE_SMILES_Desalt>
ClC(Cl)C(=O)N(C)c1ccc(cc1)OC(=O)c2ccco2

> <Substance_modify_yyyymmdd>
20111204

$$$$
