3737-09-5
ChemmineR-0915142007XD

 25 26  0  0  0  0  0  0  0  0  1 V2000
    3.9814   -2.0093    0.0000 C   0  0  0  0  0  0  0  0  0  0  0  0
    3.9814   -0.6791    0.0000 C   0  0  0  0  0  0  0  0  0  0  0  0
    5.3116   -2.0093    0.0000 C   0  0  0  0  0  0  0  0  0  0  0  0
    7.3117   -3.1628    0.0000 N   0  0  0  0  0  0  0  0  0  0  0  0
    5.9628   -3.1628    0.0000 C   0  0  0  0  0  0  0  0  0  0  0  0
    2.6419   -2.0093    0.0000 C   0  0  0  0  0  0  0  0  0  0  0  0
    3.9814   -3.3582    0.0000 C   0  0  0  0  0  0  0  0  0  0  0  0
    1.9907   -0.8558    0.0000 N   0  0  0  0  0  0  0  0  0  0  0  0
    5.1349    0.0000    0.0000 O   0  0  0  0  0  0  0  0  0  0  0  0
    2.8372    0.0000    0.0000 N   0  0  0  0  0  0  0  0  0  0  0  0
    7.9721   -2.0093    0.0000 C   0  0  0  0  0  0  0  0  0  0  0  0
    7.9907   -4.3163    0.0000 C   0  0  0  0  0  0  0  0  0  0  0  0
    0.6419   -0.8558    0.0000 C   0  0  0  0  0  0  0  0  0  0  0  0
    1.9721   -3.1628    0.0000 C   0  0  0  0  0  0  0  0  0  0  0  0
    5.1349   -3.9907    0.0000 C   0  0  0  0  0  0  0  0  0  0  0  0
    2.8372   -4.0279    0.0000 C   0  0  0  0  0  0  0  0  0  0  0  0
    7.2837   -0.8558    0.0000 C   0  0  0  0  0  0  0  0  0  0  0  0
    7.3303   -5.4698    0.0000 C   0  0  0  0  0  0  0  0  0  0  0  0
    9.2838   -2.0093    0.0000 C   0  0  0  0  0  0  0  0  0  0  0  0
    9.3024   -4.3163    0.0000 C   0  0  0  0  0  0  0  0  0  0  0  0
    0.0000   -2.0093    0.0000 C   0  0  0  0  0  0  0  0  0  0  0  0
    2.8372   -5.3303    0.0000 C   0  0  0  0  0  0  0  0  0  0  0  0
    0.6419   -3.1628    0.0000 C   0  0  0  0  0  0  0  0  0  0  0  0
    5.1349   -5.3396    0.0000 C   0  0  0  0  0  0  0  0  0  0  0  0
    3.9814   -6.0000    0.0000 C   0  0  0  0  0  0  0  0  0  0  0  0
  1  2  1  0  0  0  0
  1  3  1  0  0  0  0
  1  6  1  0  0  0  0
  1  7  1  0  0  0  0
  2  9  2  0  0  0  0
  2 10  1  0  0  0  0
  3  5  1  0  0  0  0
  4  5  1  0  0  0  0
  4 11  1  0  0  0  0
  4 12  1  0  0  0  0
  6  8  1  0  0  0  0
  6 14  2  0  0  0  0
  7 15  2  0  0  0  0
  7 16  1  0  0  0  0
  8 13  2  0  0  0  0
 11 17  1  0  0  0  0
 11 19  1  0  0  0  0
 12 18  1  0  0  0  0
 12 20  1  0  0  0  0
 13 21  1  0  0  0  0
 14 23  1  0  0  0  0
 15 24  1  0  0  0  0
 16 22  2  0  0  0  0
 21 23  2  0  0  0  0
 22 25  1  0  0  0  0
 24 25  2  0  0  0  0
M  END
> <ID>
11006

> <Formula>
C21H29N3O

> <FW>
339.4745

> <DSSTox_CID>
25536

> <DSSTox_RID>
80938

> <DSSTox_GSID>
45536

> <DSSTox_FileID_Sort>
5619

> <TS_ChemName>
Disopyramide

> <TS_ChemName_Synonyms>


> <TS_CASRN>
3737-09-5

> <CASRN_ChemName_Relationship>
primary

> <TS_Description>
single chemical compound

> <ChemNote>


> <STRUCTURE_Shown>
tested chemical

> <STRUCTURE_Formula>
C21H29N3O

> <STRUCTURE_MW>
339.4745

> <STRUCTURE_ChemType>
defined organic

> <STRUCTURE_DefinedOrganicForm>
parent

> <STRUCTURE_IUPAC>
4-[di(propan-2-yl)amino]-2-phenyl-2-(pyridin-2-yl)butanamide

> <STRUCTURE_SMILES>
CC(C)N(CCC(c1ccccn1)(c2ccccc2)C(N)=O)C(C)C

> <STRUCTURE_SMILES_Desalt>
CC(C)N(CCC(c1ccccn1)(c2ccccc2)C(N)=O)C(C)C

> <Substance_modify_yyyymmdd>
20100107

$$$$
