3737-41-5
ChemmineR-0915142007XD

 11 11  0  0  0  0  0  0  0  0  1 V2000
    1.8705   -1.1504    0.0000 S    0  0  0  0  0  0  0  0  0  0  0  0
    2.9439   -1.9384    0.0000 C    0  0  0  0  0  0  0  0  0  0  0  0
    0.8016   -1.9384    0.0000 C    0  0  0  0  0  0  0  0  0  0  0  0
    1.2183   -3.2020    0.0000 C    0  0  0  0  0  0  0  0  0  0  0  0
    2.5453   -3.2020    0.0000 C    0  0  0  0  0  0  0  0  0  0  0  0
    1.2183    0.0000    0.0000 O    0  0  0  0  0  0  0  0  0  0  0  0
    2.5453    0.0000    0.0000 O    0  0  0  0  0  0  0  0  0  0  0  0
    1.0734   -4.5290    0.0000 Cl   0  0  0  0  0  0  0  0  0  0  0  0
    0.0000   -3.7455    0.0000 Cl   0  0  0  0  0  0  0  0  0  0  0  0
    3.7591   -3.7455    0.0000 Cl   0  0  0  0  0  0  0  0  0  0  0  0
    2.6721   -4.5290    0.0000 Cl   0  0  0  0  0  0  0  0  0  0  0  0
  1  2  1  0  0  0  0
  1  3  1  0  0  0  0
  1  6  2  0  0  0  0
  1  7  2  0  0  0  0
  2  5  1  0  0  0  0
  3  4  1  0  0  0  0
  4  5  1  0  0  0  0
  4  8  1  0  0  0  0
  4  9  1  0  0  0  0
  5 10  1  0  0  0  0
  5 11  1  0  0  0  0
M  END
> <ID>
8427

> <Formula>
C4H4Cl4O2S

> <FW>
257.9504

> <DSSTox_CID>
21461

> <DSSTox_RID>
79742

> <DSSTox_GSID>
41461

> <DSSTox_FileID_Sort>
4424

> <TS_ChemName>
3,3,4,4-Tetrachlorotetrahydrothiophene 1,1-dioxide

> <TS_ChemName_Synonyms>


> <TS_CASRN>
3737-41-5

> <CASRN_ChemName_Relationship>
primary

> <TS_Description>
single chemical compound

> <ChemNote>


> <STRUCTURE_Shown>
tested chemical

> <STRUCTURE_Formula>
C4H4Cl4O2S

> <STRUCTURE_MW>
257.9504

> <STRUCTURE_ChemType>
defined organic

> <STRUCTURE_DefinedOrganicForm>
parent

> <STRUCTURE_IUPAC>
3,3,4,4-tetrachlorotetrahydrothiophene 1,1-dioxide

> <STRUCTURE_SMILES>
ClC1(Cl)CS(=O)(=O)CC1(Cl)Cl

> <STRUCTURE_SMILES_Desalt>
ClC1(Cl)CS(=O)(=O)CC1(Cl)Cl

> <Substance_modify_yyyymmdd>
20080825

$$$$
