3737-33-5
ChemmineR-0915142007XD

 24 25  0  0  0  0  0  0  0  0  1 V2000
    3.4703   -3.3220    0.0000 N    0  0  0  0  0  0  0  0  0  0  0  0
    4.6072   -3.9943    0.0000 C    0  0  0  0  0  0  0  0  0  0  0  0
    3.4703   -5.9716    0.0000 S    0  0  0  0  0  0  0  0  0  0  0  0
    2.2937   -3.9943    0.0000 C    0  0  0  0  0  0  0  0  0  0  0  0
    4.6072   -5.3290    0.0000 C    0  0  0  0  0  0  0  0  0  0  0  0
    2.2937   -5.3290    0.0000 C    0  0  0  0  0  0  0  0  0  0  0  0
    3.4703   -1.9675    0.0000 C    0  0  0  0  0  0  0  0  0  0  0  0
    5.7640   -3.3220    0.0000 C    0  0  0  0  0  0  0  0  0  0  0  0
    4.6072   -1.3248    0.0000 C    0  0  0  0  0  0  0  0  0  0  0  0
    5.7640   -5.9716    0.0000 C    0  0  0  0  0  0  0  0  0  0  0  0
    5.7640   -1.9675    0.0000 C    0  0  0  0  0  0  0  0  0  0  0  0
    6.9207   -1.3248    0.0000 N    0  0  0  0  0  0  0  0  0  0  0  0
    6.9207   -3.9943    0.0000 C    0  0  0  0  0  0  0  0  0  0  0  0
    6.9207   -5.3290    0.0000 C    0  0  0  0  0  0  0  0  0  0  0  0
    1.1568   -3.3220    0.0000 C    0  0  0  0  0  0  0  0  0  0  0  0
    1.1568   -5.9716    0.0000 C    0  0  0  0  0  0  0  0  0  0  0  0
    4.6072    0.0000    0.0000 C    0  0  0  0  0  0  0  0  0  0  0  0
    6.9207    0.0000    0.0000 C    0  0  0  0  0  0  0  0  0  0  0  0
    8.0874   -1.9675    0.0000 C    0  0  0  0  0  0  0  0  0  0  0  0
    8.0874   -3.3220    0.0000 C    0  0  0  0  0  0  0  0  0  0  0  0
    0.0000   -3.9943    0.0000 C    0  0  0  0  0  0  0  0  0  0  0  0
    0.0000   -5.3290    0.0000 C    0  0  0  0  0  0  0  0  0  0  0  0
    9.2441   -4.0041    0.0000 C    0  0  0  0  0  0  0  0  0  0  0  0
    9.8868   -6.0309    0.0000 Cl   0  0  0  0  0  0  0  0  0  0  0  0
  1  2  1  0  0  0  0
  1  4  1  0  0  0  0
  1  7  1  0  0  0  0
  2  5  2  0  0  0  0
  2  8  1  0  0  0  0
  3  6  1  0  0  0  0
  3  5  1  0  0  0  0
  4  6  2  0  0  0  0
  4 15  1  0  0  0  0
  5 10  1  0  0  0  0
  6 16  1  0  0  0  0
  7  9  1  0  0  0  0
  8 13  2  0  0  0  0
  9 11  1  0  0  0  0
  9 17  1  0  0  0  0
 10 14  2  0  0  0  0
 11 12  1  0  0  0  0
 12 18  1  0  0  0  0
 12 19  1  0  0  0  0
 13 14  1  0  0  0  0
 13 20  1  0  0  0  0
 15 21  2  0  0  0  0
 16 22  2  0  0  0  0
 20 23  1  0  0  0  0
 21 22  1  0  0  0  0
M  END
> <ID>
10746

> <Formula>
C20H27ClN2S

> <FW>
362.9598 (326.4988+36.4609)

> <DSSTox_CID>
25110

> <DSSTox_RID>
80677

> <DSSTox_GSID>
45110

> <DSSTox_FileID_Sort>
5359

> <TS_ChemName>
Etymemazine hydrochloride

> <TS_ChemName_Synonyms>


> <TS_CASRN>
3737-33-5

> <CASRN_ChemName_Relationship>
primary

> <TS_Description>
single chemical compound

> <ChemNote>
parent [523-54-6]

> <STRUCTURE_Shown>
tested chemical

> <STRUCTURE_Formula>
C20H27ClN2S

> <STRUCTURE_MW>
362.9598

> <STRUCTURE_ChemType>
defined organic

> <STRUCTURE_DefinedOrganicForm>
complex

> <STRUCTURE_IUPAC>
3-(2-ethyl-10H-phenothiazin-10-yl)-N,N,2-trimethylpropan-1-amine hydrochloride (1:1)

> <STRUCTURE_SMILES>
Cl.CN(C)CC(C)CN1c3ccccc3Sc2ccc(CC)cc12

> <STRUCTURE_SMILES_Desalt>
CN(C)CC(C)CN1c3ccccc3Sc2ccc(CC)cc12

> <Substance_modify_yyyymmdd>
20100107

$$$$
