3738-06-5
ChemmineR-0915142007XD

 16 16  0  0  0  0  0  0  0  0  1 V2000
    0.6610   -6.9079    0.0000 C   0  0  0  0  0  0  0  0  0  0  0  0
    1.9909   -6.9079    0.0000 N   0  0  0  0  0  0  0  0  0  0  0  0
    2.6600   -8.0605    0.0000 C   0  0  0  0  0  0  0  0  0  0  0  0
    2.6600   -5.7552    0.0000 C   0  0  0  0  0  0  0  0  0  0  0  0
    3.9900   -5.7552    0.0000 O   0  0  0  0  0  0  0  0  0  0  0  0
    1.9909   -4.6025    0.0000 C   0  0  0  0  0  0  0  0  0  0  0  0
    2.6600   -3.4580    0.0000 N   0  0  0  0  0  0  0  0  0  0  0  0
    3.9900   -3.4580    0.0000 C   0  0  0  0  0  0  0  0  0  0  0  0
    4.6509   -4.6025    0.0000 C   0  0  0  0  0  0  0  0  0  0  0  0
    4.6509   -2.3053    0.0000 O   0  0  0  0  0  0  0  0  0  0  0  0
    1.9909   -2.3053    0.0000 C   0  0  0  0  0  0  0  0  0  0  0  0
    2.6600   -1.1527    0.0000 C   0  0  0  0  0  0  0  0  0  0  0  0
    1.9909    0.0000    0.0000 C   0  0  0  0  0  0  0  0  0  0  0  0
    0.6610    0.0000    0.0000 C   0  0  0  0  0  0  0  0  0  0  0  0
    0.0000   -1.1527    0.0000 C   0  0  0  0  0  0  0  0  0  0  0  0
    0.6610   -2.3053    0.0000 C   0  0  0  0  0  0  0  0  0  0  0  0
  1  2  1  0  0  0  0
  2  3  1  0  0  0  0
  2  4  1  0  0  0  0
  4  5  2  0  0  0  0
  4  6  1  0  0  0  0
  6  7  1  0  0  0  0
  7  8  1  0  0  0  0
  7 11  1  0  0  0  0
  8  9  1  0  0  0  0
  8 10  2  0  0  0  0
 11 12  2  0  0  0  0
 11 16  1  0  0  0  0
 12 13  1  0  0  0  0
 13 14  2  0  0  0  0
 14 15  1  0  0  0  0
 15 16  2  0  0  0  0
M  END
> <ID>
16126

> <Formula>
C12H16N2O2

> <FW>
220.2676

> <DSSTox_CID>
31515

> <DSSTox_RID>
97400

> <DSSTox_GSID>
57726

> <DSSTox_FileID_Sort>
8467

> <TS_ChemName>
Phenylacetylglycine dimethylamide

> <TS_ChemName_Synonyms>


> <TS_CASRN>
3738-06-5

> <CASRN_ChemName_Relationship>
primary

> <TS_Description>
single chemical compound

> <ChemNote>


> <STRUCTURE_Shown>
tested chemical

> <STRUCTURE_Formula>
C12H16N2O2

> <STRUCTURE_MW>
220.2676

> <STRUCTURE_ChemType>
defined organic

> <STRUCTURE_DefinedOrganicForm>
parent

> <STRUCTURE_IUPAC>
N~2~-acetyl-N,N-dimethyl-N~2~-phenylglycinamide

> <STRUCTURE_SMILES>
CN(C)C(=O)CN(C(C)=O)c1ccccc1

> <STRUCTURE_SMILES_Desalt>
CN(C)C(=O)CN(C(C)=O)c1ccccc1

> <Substance_modify_yyyymmdd>
20131018

$$$$
