3739-38-6
ChemmineR-0915142007XD

 16 17  0  0  0  0  0  0  0  0  1 V2000
    7.9861   -1.5862    0.0000 C   0  0  0  0  0  0  0  0  0  0  0  0
    6.8492   -2.2280    0.0000 C   0  0  0  0  0  0  0  0  0  0  0  0
    5.7581   -1.5862    0.0000 C   0  0  0  0  0  0  0  0  0  0  0  0
    7.9861    0.0000    0.0000 O   0  0  0  0  0  0  0  0  0  0  0  0
    4.6119   -2.2280    0.0000 C   0  0  0  0  0  0  0  0  0  0  0  0
    3.4658   -1.5495    0.0000 O   0  0  0  0  0  0  0  0  0  0  0  0
    9.1689   -2.2647    0.0000 O   0  0  0  0  0  0  0  0  0  0  0  0
    2.2922   -2.2280    0.0000 C   0  0  0  0  0  0  0  0  0  0  0  0
    6.8492   -3.5117    0.0000 C   0  0  0  0  0  0  0  0  0  0  0  0
    5.7581   -4.1443    0.0000 C   0  0  0  0  0  0  0  0  0  0  0  0
    4.6119   -3.5117    0.0000 C   0  0  0  0  0  0  0  0  0  0  0  0
    1.1186   -1.5495    0.0000 C   0  0  0  0  0  0  0  0  0  0  0  0
    2.2922   -3.5484    0.0000 C   0  0  0  0  0  0  0  0  0  0  0  0
    0.0000   -2.2280    0.0000 C   0  0  0  0  0  0  0  0  0  0  0  0
    1.1736   -4.2085    0.0000 C   0  0  0  0  0  0  0  0  0  0  0  0
    0.0000   -3.5484    0.0000 C   0  0  0  0  0  0  0  0  0  0  0  0
  1  2  1  0  0  0  0
  1  4  2  0  0  0  0
  1  7  1  0  0  0  0
  2  3  2  0  0  0  0
  2  9  1  0  0  0  0
  3  5  1  0  0  0  0
  5  6  1  0  0  0  0
  5 11  2  0  0  0  0
  6  8  1  0  0  0  0
  8 12  2  0  0  0  0
  8 13  1  0  0  0  0
  9 10  2  0  0  0  0
 10 11  1  0  0  0  0
 12 14  1  0  0  0  0
 13 15  2  0  0  0  0
 14 16  2  0  0  0  0
 15 16  1  0  0  0  0
M  END
> <ID>
7453

> <Formula>
C13H10O3

> <FW>
214.2167

> <DSSTox_CID>
18321

> <DSSTox_RID>
79382

> <DSSTox_GSID>
38321

> <DSSTox_FileID_Sort>
4064

> <TS_ChemName>
3-Phenoxybenzoic acid

> <TS_ChemName_Synonyms>


> <TS_CASRN>
3739-38-6

> <CASRN_ChemName_Relationship>
primary

> <TS_Description>
single chemical compound

> <ChemNote>


> <STRUCTURE_Shown>
tested chemical

> <STRUCTURE_Formula>
C13H10O3

> <STRUCTURE_MW>
214.2167

> <STRUCTURE_ChemType>
defined organic

> <STRUCTURE_DefinedOrganicForm>
parent

> <STRUCTURE_IUPAC>
3-phenoxybenzoic acid

> <STRUCTURE_SMILES>
O=C(O)c2cc(Oc1ccccc1)ccc2

> <STRUCTURE_SMILES_Desalt>
O=C(O)c2cc(Oc1ccccc1)ccc2

> <Substance_modify_yyyymmdd>
20080429

$$$$
