374683-44-0
ChemmineR-0915142007XD

 40 38  0  0  0  0  0  0  0  0  2 V2000
   15.7092   -6.7550    0.0000 P   0  3  0  0  0  0  0  0  0  0  0  0
   16.6967   -7.6526    0.0000 C   0  0  0  0  0  0  0  0  0  0  0  0
   17.9534   -7.2711    0.0000 C   0  0  0  0  0  0  0  0  0  0  0  0
   18.9408   -8.1912    0.0000 C   0  0  0  0  0  0  0  0  0  0  0  0
   20.1976   -7.7873    0.0000 C   0  0  0  0  0  0  0  0  0  0  0  0
   21.1850   -8.7074    0.0000 C   0  0  0  0  0  0  0  0  0  0  0  0
   22.4417   -8.3034    0.0000 C   0  0  0  0  0  0  0  0  0  0  0  0
   16.6293   -5.7900    0.0000 C   0  0  0  0  0  0  0  0  0  0  0  0
   16.2478   -4.5108    0.0000 C   0  0  0  0  0  0  0  0  0  0  0  0
   17.1455   -3.5458    0.0000 C   0  0  0  0  0  0  0  0  0  0  0  0
   16.7415   -2.2442    0.0000 C   0  0  0  0  0  0  0  0  0  0  0  0
   17.6616   -1.3016    0.0000 C   0  0  0  0  0  0  0  0  0  0  0  0
   17.2577    0.0000    0.0000 C   0  0  0  0  0  0  0  0  0  0  0  0
   14.8115   -7.7200    0.0000 C   0  0  0  0  0  0  0  0  0  0  0  0
   13.5099   -7.4282    0.0000 C   0  0  0  0  0  0  0  0  0  0  0  0
   12.5898   -8.3932    0.0000 C   0  0  0  0  0  0  0  0  0  0  0  0
   11.3106   -8.0790    0.0000 C   0  0  0  0  0  0  0  0  0  0  0  0
   10.4130   -9.0665    0.0000 C   0  0  0  0  0  0  0  0  0  0  0  0
    9.1113   -8.7523    0.0000 C   0  0  0  0  0  0  0  0  0  0  0  0
   14.7218   -5.8349    0.0000 C   0  0  0  0  0  0  0  0  0  0  0  0
   13.4650   -6.2388    0.0000 C   0  0  0  0  0  0  0  0  0  0  0  0
   12.4776   -5.3411    0.0000 C   0  0  0  0  0  0  0  0  0  0  0  0
   11.2209   -5.7226    0.0000 C   0  0  0  0  0  0  0  0  0  0  0  0
   10.2334   -4.8025    0.0000 C   0  0  0  0  0  0  0  0  0  0  0  0
    8.9767   -5.1840    0.0000 C   0  0  0  0  0  0  0  0  0  0  0  0
    7.9893   -4.2864    0.0000 C   0  0  0  0  0  0  0  0  0  0  0  0
    6.7325   -4.6679    0.0000 C   0  0  0  0  0  0  0  0  0  0  0  0
    5.7451   -3.7702    0.0000 C   0  0  0  0  0  0  0  0  0  0  0  0
    4.4883   -4.1517    0.0000 C   0  0  0  0  0  0  0  0  0  0  0  0
    3.5009   -3.2541    0.0000 C   0  0  0  0  0  0  0  0  0  0  0  0
    2.2442   -3.6356    0.0000 C   0  0  0  0  0  0  0  0  0  0  0  0
    1.2567   -2.7155    0.0000 C   0  0  0  0  0  0  0  0  0  0  0  0
    0.0000   -3.1194    0.0000 C   0  0  0  0  0  0  0  0  0  0  0  0
   21.0504   -4.5332    0.0000 P   0  5  0  0  0  0  0  0  0  0  0  0
   19.7263   -4.5332    0.0000 F   0  0  0  0  0  0  0  0  0  0  0  0
   21.7012   -5.6778    0.0000 F   0  0  0  0  0  0  0  0  0  0  0  0
   21.7012   -3.3663    0.0000 F   0  0  0  0  0  0  0  0  0  0  0  0
   20.3995   -5.6778    0.0000 F   0  0  0  0  0  0  0  0  0  0  0  0
   20.3995   -3.3663    0.0000 F   0  0  0  0  0  0  0  0  0  0  0  0
   22.3744   -4.5332    0.0000 F   0  0  0  0  0  0  0  0  0  0  0  0
  1  2  1  0  0  0  0
  1  8  1  0  0  0  0
  1 14  1  0  0  0  0
  1 20  1  0  0  0  0
  2  3  1  0  0  0  0
  3  4  1  0  0  0  0
  4  5  1  0  0  0  0
  5  6  1  0  0  0  0
  6  7  1  0  0  0  0
  8  9  1  0  0  0  0
  9 10  1  0  0  0  0
 10 11  1  0  0  0  0
 11 12  1  0  0  0  0
 12 13  1  0  0  0  0
 14 15  1  0  0  0  0
 15 16  1  0  0  0  0
 16 17  1  0  0  0  0
 17 18  1  0  0  0  0
 18 19  1  0  0  0  0
 20 21  1  0  0  0  0
 21 22  1  0  0  0  0
 22 23  1  0  0  0  0
 23 24  1  0  0  0  0
 24 25  1  0  0  0  0
 25 26  1  0  0  0  0
 26 27  1  0  0  0  0
 27 28  1  0  0  0  0
 28 29  1  0  0  0  0
 29 30  1  0  0  0  0
 30 31  1  0  0  0  0
 31 32  1  0  0  0  0
 32 33  1  0  0  0  0
 34 35  1  0  0  0  0
 34 36  1  0  0  0  0
 34 37  1  0  0  0  0
 34 38  1  0  0  0  0
 34 39  1  0  0  0  0
 34 40  1  0  0  0  0
M  END
> <ID>
13025

> <Formula>
C32H68F6P2

> <FW>
628.8203 (483.8555+144.9647)

> <DSSTox_CID>
27926

> <DSSTox_RID>
82679

> <DSSTox_GSID>
47950

> <DSSTox_FileID_Sort>
7356

> <TS_ChemName>
Trihexyltetradecylphosphonium hexafluorophosphate

> <TS_ChemName_Synonyms>


> <TS_CASRN>
374683-44-0

> <CASRN_ChemName_Relationship>
primary

> <TS_Description>
single chemical compound

> <ChemNote>
phosphonium; parent [374683-43-9]

> <STRUCTURE_Shown>
tested chemical

> <STRUCTURE_Formula>
C32H68F6P2

> <STRUCTURE_MW>
628.8203

> <STRUCTURE_ChemType>
defined organic

> <STRUCTURE_DefinedOrganicForm>
salt

> <STRUCTURE_IUPAC>
trihexyl(tetradecyl)phosphonium hexafluorophosphate

> <STRUCTURE_SMILES>
F[P-](F)(F)(F)(F)F.CCCCCC[P+](CCCCCCCCCCCCCC)(CCCCCC)CCCCCC

> <STRUCTURE_SMILES_Desalt>
CCCCCC[P+](CCCCCC)(CCCCCC)CCCCCCCCCCCCCC

> <Substance_modify_yyyymmdd>
20110419

$$$$
