3748-13-8
ChemmineR-0915142007XD

 12 12  0  0  0  0  0  0  0  0  1 V2000
    3.9845   -2.3033    0.0000 C   0  0  0  0  0  0  0  0  0  0  0  0
    4.6545   -3.4520    0.0000 C   0  0  0  0  0  0  0  0  0  0  0  0
    3.9845   -4.6067    0.0000 C   0  0  0  0  0  0  0  0  0  0  0  0
    2.6563   -4.6067    0.0000 C   0  0  0  0  0  0  0  0  0  0  0  0
    1.9982   -3.4520    0.0000 C   0  0  0  0  0  0  0  0  0  0  0  0
    2.6563   -2.3033    0.0000 C   0  0  0  0  0  0  0  0  0  0  0  0
    4.6545   -1.1487    0.0000 C   0  0  0  0  0  0  0  0  0  0  0  0
    3.9845    0.0000    0.0000 C   0  0  0  0  0  0  0  0  0  0  0  0
    5.9827   -1.1487    0.0000 C   0  0  0  0  0  0  0  0  0  0  0  0
    0.6701   -3.4520    0.0000 C   0  0  0  0  0  0  0  0  0  0  0  0
    0.0000   -4.6067    0.0000 C   0  0  0  0  0  0  0  0  0  0  0  0
    0.0000   -2.3033    0.0000 C   0  0  0  0  0  0  0  0  0  0  0  0
  1  2  2  0  0  0  0
  1  6  1  0  0  0  0
  1  7  1  0  0  0  0
  2  3  1  0  0  0  0
  3  4  2  0  0  0  0
  4  5  1  0  0  0  0
  5  6  2  0  0  0  0
  5 10  1  0  0  0  0
  7  8  2  0  0  0  0
  7  9  1  0  0  0  0
 10 11  2  0  0  0  0
 10 12  1  0  0  0  0
M  END
> <ID>
5237

> <Formula>
C12H14

> <FW>
158.2396

> <DSSTox_CID>
7546

> <DSSTox_RID>
78500

> <DSSTox_GSID>
27546

> <DSSTox_FileID_Sort>
3183

> <TS_ChemName>
1,3-Diisopropenylbenzene

> <TS_ChemName_Synonyms>


> <TS_CASRN>
3748-13-8

> <CASRN_ChemName_Relationship>
primary

> <TS_Description>
single chemical compound

> <ChemNote>


> <STRUCTURE_Shown>
tested chemical

> <STRUCTURE_Formula>
C12H14

> <STRUCTURE_MW>
158.2396

> <STRUCTURE_ChemType>
defined organic

> <STRUCTURE_DefinedOrganicForm>
parent

> <STRUCTURE_IUPAC>
1,3-di(prop-1-en-2-yl)benzene

> <STRUCTURE_SMILES>
CC(=C)c1cccc(c1)C(=C)C

> <STRUCTURE_SMILES_Desalt>
CC(=C)c1cccc(c1)C(=C)C

> <Substance_modify_yyyymmdd>
20080429

$$$$
