375-95-1
ChemmineR-0915142007XD

 28 27  0  0  0  0  0  0  0  0  1 V2000
    1.1560   -1.3063    0.0000 C   0  0  0  0  0  0  0  0  0  0  0  0
    2.3236   -1.9884    0.0000 C   0  0  0  0  0  0  0  0  0  0  0  0
    3.4681   -1.3063    0.0000 C   0  0  0  0  0  0  0  0  0  0  0  0
    4.6241   -1.9884    0.0000 C   0  0  0  0  0  0  0  0  0  0  0  0
    5.7686   -1.3063    0.0000 C   0  0  0  0  0  0  0  0  0  0  0  0
    6.9478   -1.9884    0.0000 C   0  0  0  0  0  0  0  0  0  0  0  0
    8.0923   -1.3063    0.0000 C   0  0  0  0  0  0  0  0  0  0  0  0
    9.2483   -1.9884    0.0000 C   0  0  0  0  0  0  0  0  0  0  0  0
   10.4390   -1.3063    0.0000 C   0  0  0  0  0  0  0  0  0  0  0  0
    1.1560    0.0000    0.0000 O   0  0  0  0  0  0  0  0  0  0  0  0
    0.0000   -1.9884    0.0000 O   0  0  0  0  0  0  0  0  0  0  0  0
    2.3236   -3.3063    0.0000 F   0  0  0  0  0  0  0  0  0  0  0  0
    1.1560   -2.6704    0.0000 F   0  0  0  0  0  0  0  0  0  0  0  0
    3.4681    0.0000    0.0000 F   0  0  0  0  0  0  0  0  0  0  0  0
    3.4681   -2.6704    0.0000 F   0  0  0  0  0  0  0  0  0  0  0  0
    4.6241   -3.3063    0.0000 F   0  0  0  0  0  0  0  0  0  0  0  0
    4.6241   -0.6474    0.0000 F   0  0  0  0  0  0  0  0  0  0  0  0
    5.7686    0.0000    0.0000 F   0  0  0  0  0  0  0  0  0  0  0  0
    5.7686   -2.6704    0.0000 F   0  0  0  0  0  0  0  0  0  0  0  0
    6.9478   -3.3063    0.0000 F   0  0  0  0  0  0  0  0  0  0  0  0
    6.9478   -0.6474    0.0000 F   0  0  0  0  0  0  0  0  0  0  0  0
    8.0923    0.0000    0.0000 F   0  0  0  0  0  0  0  0  0  0  0  0
    8.0923   -2.6704    0.0000 F   0  0  0  0  0  0  0  0  0  0  0  0
    9.2483   -3.3063    0.0000 F   0  0  0  0  0  0  0  0  0  0  0  0
    9.2483   -0.6474    0.0000 F   0  0  0  0  0  0  0  0  0  0  0  0
   10.4390    0.0000    0.0000 F   0  0  0  0  0  0  0  0  0  0  0  0
   11.5604   -0.6474    0.0000 F   0  0  0  0  0  0  0  0  0  0  0  0
   11.1442   -2.3121    0.0000 F   0  0  0  0  0  0  0  0  0  0  0  0
  1  2  1  0  0  0  0
  1 11  1  0  0  0  0
  1 10  2  0  0  0  0
  2  3  1  0  0  0  0
  2 12  1  0  0  0  0
  2 13  1  0  0  0  0
  3  4  1  0  0  0  0
  3 14  1  0  0  0  0
  3 15  1  0  0  0  0
  4  5  1  0  0  0  0
  4 16  1  0  0  0  0
  4 17  1  0  0  0  0
  5  6  1  0  0  0  0
  5 18  1  0  0  0  0
  5 19  1  0  0  0  0
  6  7  1  0  0  0  0
  6 20  1  0  0  0  0
  6 21  1  0  0  0  0
  7  8  1  0  0  0  0
  7 22  1  0  0  0  0
  7 23  1  0  0  0  0
  8  9  1  0  0  0  0
  8 24  1  0  0  0  0
  8 25  1  0  0  0  0
  9 26  1  0  0  0  0
  9 27  1  0  0  0  0
  9 28  1  0  0  0  0
M  END
> <ID>
6361

> <Formula>
C9HF17O2

> <FW>
464.0759

> <DSSTox_CID>
11863

> <DSSTox_RID>
78893

> <DSSTox_GSID>
31863

> <DSSTox_FileID_Sort>
3575

> <TS_ChemName>
Perfluorononanoic acid

> <TS_ChemName_Synonyms>
Perfluorononanoic acid (PFNA)

> <TS_CASRN>
375-95-1

> <CASRN_ChemName_Relationship>
primary

> <TS_Description>
single chemical compound

> <ChemNote>


> <STRUCTURE_Shown>
tested chemical

> <STRUCTURE_Formula>
C9HF17O2

> <STRUCTURE_MW>
464.0759

> <STRUCTURE_ChemType>
defined organic

> <STRUCTURE_DefinedOrganicForm>
parent

> <STRUCTURE_IUPAC>
heptadecafluorononanoic acid

> <STRUCTURE_SMILES>
FC(F)(C(F)(F)C(=O)O)C(F)(F)C(F)(F)C(F)(F)C(F)(F)C(F)(F)C(F)(F)F

> <STRUCTURE_SMILES_Desalt>
FC(F)(C(F)(F)C(=O)O)C(F)(F)C(F)(F)C(F)(F)C(F)(F)C(F)(F)C(F)(F)F

> <Substance_modify_yyyymmdd>
20080429

$$$$
