375-85-9
ChemmineR-0915142007XD

 22 21  0  0  0  0  0  0  0  0  1 V2000
    1.1324   -1.3349    0.0000 C   0  0  0  0  0  0  0  0  0  0  0  0
    2.2923   -2.0070    0.0000 C   0  0  0  0  0  0  0  0  0  0  0  0
    3.4431   -1.3349    0.0000 C   0  0  0  0  0  0  0  0  0  0  0  0
    4.5939   -2.0070    0.0000 C   0  0  0  0  0  0  0  0  0  0  0  0
    5.7447   -1.3349    0.0000 C   0  0  0  0  0  0  0  0  0  0  0  0
    6.9047   -2.0070    0.0000 C   0  0  0  0  0  0  0  0  0  0  0  0
    8.0554   -1.3349    0.0000 C   0  0  0  0  0  0  0  0  0  0  0  0
    9.2062   -2.0070    0.0000 O   0  0  0  0  0  0  0  0  0  0  0  0
    8.0554    0.0000    0.0000 O   0  0  0  0  0  0  0  0  0  0  0  0
    0.0000   -2.0070    0.0000 F   0  0  0  0  0  0  0  0  0  0  0  0
    1.1324    0.0000    0.0000 F   0  0  0  0  0  0  0  0  0  0  0  0
    1.1324   -2.6606    0.0000 F   0  0  0  0  0  0  0  0  0  0  0  0
    2.2923   -3.3326    0.0000 F   0  0  0  0  0  0  0  0  0  0  0  0
    3.4431   -2.6606    0.0000 F   0  0  0  0  0  0  0  0  0  0  0  0
    3.4431    0.0000    0.0000 F   0  0  0  0  0  0  0  0  0  0  0  0
    2.2923   -0.6721    0.0000 F   0  0  0  0  0  0  0  0  0  0  0  0
    4.5939   -3.3326    0.0000 F   0  0  0  0  0  0  0  0  0  0  0  0
    5.7447   -2.6606    0.0000 F   0  0  0  0  0  0  0  0  0  0  0  0
    5.7447    0.0000    0.0000 F   0  0  0  0  0  0  0  0  0  0  0  0
    4.5939   -0.6721    0.0000 F   0  0  0  0  0  0  0  0  0  0  0  0
    6.9047   -3.3326    0.0000 F   0  0  0  0  0  0  0  0  0  0  0  0
    8.0554   -2.6606    0.0000 F   0  0  0  0  0  0  0  0  0  0  0  0
  1  2  1  0  0  0  0
  1 10  1  0  0  0  0
  1 11  1  0  0  0  0
  1 12  1  0  0  0  0
  2  3  1  0  0  0  0
  2 13  1  0  0  0  0
  2 14  1  0  0  0  0
  3  4  1  0  0  0  0
  3 15  1  0  0  0  0
  3 16  1  0  0  0  0
  4  5  1  0  0  0  0
  4 17  1  0  0  0  0
  4 18  1  0  0  0  0
  5  6  1  0  0  0  0
  5 19  1  0  0  0  0
  5 20  1  0  0  0  0
  6  7  1  0  0  0  0
  6 21  1  0  0  0  0
  6 22  1  0  0  0  0
  7  8  1  0  0  0  0
  7  9  2  0  0  0  0
M  END
> <ID>
7295

> <Formula>
C7HF13O2

> <FW>
364.0609

> <DSSTox_CID>
17303

> <DSSTox_RID>
79319

> <DSSTox_GSID>
37303

> <DSSTox_FileID_Sort>
4001

> <TS_ChemName>
Perfluoroheptanoic acid

> <TS_ChemName_Synonyms>


> <TS_CASRN>
375-85-9

> <CASRN_ChemName_Relationship>
primary

> <TS_Description>
single chemical compound

> <ChemNote>


> <STRUCTURE_Shown>
tested chemical

> <STRUCTURE_Formula>
C7HF13O2

> <STRUCTURE_MW>
364.0609

> <STRUCTURE_ChemType>
defined organic

> <STRUCTURE_DefinedOrganicForm>
parent

> <STRUCTURE_IUPAC>
tridecafluoroheptanoic acid

> <STRUCTURE_SMILES>
FC(F)(C(F)(F)C(=O)O)C(F)(F)C(F)(F)C(F)(F)C(F)(F)F

> <STRUCTURE_SMILES_Desalt>
FC(F)(C(F)(F)C(=O)O)C(F)(F)C(F)(F)C(F)(F)C(F)(F)F

> <Substance_modify_yyyymmdd>
20080429

$$$$
