37517-26-3
ChemmineR-0915142007XD

 49 52  0  0  0  0  0  0  0  0  1 V2000
    2.3468   -4.0099    0.0000 S   0  0  0  0  0  0  0  0  0  0  0  0
    6.9665   -4.0099    0.0000 N   0  0  0  0  0  0  0  0  0  0  0  0
    5.7839   -4.6936    0.0000 C   0  0  0  0  0  0  0  0  0  0  0  0
    6.9665   -6.7078    0.0000 S   0  0  0  0  0  0  0  0  0  0  0  0
    3.5110   -4.6936    0.0000 C   0  0  0  0  0  0  0  0  0  0  0  0
    4.6197   -4.0099    0.0000 C   0  0  0  0  0  0  0  0  0  0  0  0
    5.7839   -6.0426    0.0000 C   0  0  0  0  0  0  0  0  0  0  0  0
    8.1307   -4.6936    0.0000 C   0  0  0  0  0  0  0  0  0  0  0  0
    8.1307   -6.0426    0.0000 C   0  0  0  0  0  0  0  0  0  0  0  0
    1.1642   -3.3262    0.0000 N   0  0  0  0  0  0  0  0  0  0  0  0
    3.0120   -2.8273    0.0000 O   0  0  0  0  0  0  0  0  0  0  0  0
    1.6631   -5.1741    0.0000 O   0  0  0  0  0  0  0  0  0  0  0  0
   10.4036   -1.9588    0.0000 N   0  0  0  0  0  0  0  0  0  0  0  0
    3.5110   -6.0426    0.0000 C   0  0  0  0  0  0  0  0  0  0  0  0
    4.6197   -6.7078    0.0000 C   0  0  0  0  0  0  0  0  0  0  0  0
    6.9665   -2.7164    0.0000 C   0  0  0  0  0  0  0  0  0  0  0  0
    8.1307   -1.9588    0.0000 C   0  0  0  0  0  0  0  0  0  0  0  0
   10.4036   -0.6098    0.0000 C   0  0  0  0  0  0  0  0  0  0  0  0
   11.5862   -2.6425    0.0000 C   0  0  0  0  0  0  0  0  0  0  0  0
    9.2394   -2.6425    0.0000 C   0  0  0  0  0  0  0  0  0  0  0  0
   11.5862    0.0000    0.0000 C   0  0  0  0  0  0  0  0  0  0  0  0
   12.7504   -1.9588    0.0000 C   0  0  0  0  0  0  0  0  0  0  0  0
    9.2394   -4.0099    0.0000 C   0  0  0  0  0  0  0  0  0  0  0  0
   12.7504   -0.6098    0.0000 C   0  0  0  0  0  0  0  0  0  0  0  0
    9.2394   -6.7078    0.0000 C   0  0  0  0  0  0  0  0  0  0  0  0
   16.2059    0.0000    0.0000 O   0  0  0  0  0  0  0  0  0  0  0  0
    1.1642   -2.0327    0.0000 C   0  0  0  0  0  0  0  0  0  0  0  0
    0.0000   -4.0099    0.0000 C   0  0  0  0  0  0  0  0  0  0  0  0
   15.0233   -0.6098    0.0000 C   0  0  0  0  0  0  0  0  0  0  0  0
   13.8591    0.0000    0.0000 C   0  0  0  0  0  0  0  0  0  0  0  0
   10.4036   -4.6936    0.0000 C   0  0  0  0  0  0  0  0  0  0  0  0
   10.4036   -6.0426    0.0000 C   0  0  0  0  0  0  0  0  0  0  0  0
   17.3147   -0.6098    0.0000 C   0  0  0  0  0  0  0  0  0  0  0  0
   18.4788    0.0000    0.0000 O   0  0  0  0  0  0  0  0  0  0  0  0
   17.3147   -1.9588    0.0000 C   0  0  0  0  0  0  0  0  0  0  0  0
   18.4788   -2.6425    0.0000 C   0  0  0  0  0  0  0  0  0  0  0  0
   18.4788   -3.9360    0.0000 C   0  0  0  0  0  0  0  0  0  0  0  0
   17.3147   -4.6936    0.0000 C   0  0  0  0  0  0  0  0  0  0  0  0
   17.3147   -5.9687    0.0000 C   0  0  0  0  0  0  0  0  0  0  0  0
   16.2059   -6.6524    0.0000 C   0  0  0  0  0  0  0  0  0  0  0  0
   16.2059   -8.0013    0.0000 C   0  0  0  0  0  0  0  0  0  0  0  0
   15.0233   -8.6296    0.0000 C   0  0  0  0  0  0  0  0  0  0  0  0
   13.8591   -8.0013    0.0000 C   0  0  0  0  0  0  0  0  0  0  0  0
   12.7504   -8.6296    0.0000 C   0  0  0  0  0  0  0  0  0  0  0  0
   11.5862   -8.0013    0.0000 C   0  0  0  0  0  0  0  0  0  0  0  0
   10.4036   -8.6296    0.0000 C   0  0  0  0  0  0  0  0  0  0  0  0
    9.2394   -8.0013    0.0000 C   0  0  0  0  0  0  0  0  0  0  0  0
    8.1307   -8.6296    0.0000 C   0  0  0  0  0  0  0  0  0  0  0  0
    6.9665   -8.0013    0.0000 C   0  0  0  0  0  0  0  0  0  0  0  0
  1  5  1  0  0  0  0
  1 10  1  0  0  0  0
  1 11  2  0  0  0  0
  1 12  2  0  0  0  0
  2  3  1  0  0  0  0
  2  8  1  0  0  0  0
  2 16  1  0  0  0  0
  3  6  1  0  0  0  0
  3  7  2  0  0  0  0
  4  7  1  0  0  0  0
  4  9  1  0  0  0  0
  5  6  2  0  0  0  0
  5 14  1  0  0  0  0
  7 15  1  0  0  0  0
  8 23  1  0  0  0  0
  8  9  2  0  0  0  0
  9 25  1  0  0  0  0
 10 27  1  0  0  0  0
 10 28  1  0  0  0  0
 13 20  1  0  0  0  0
 13 18  1  0  0  0  0
 13 19  1  0  0  0  0
 14 15  2  0  0  0  0
 16 17  1  0  0  0  0
 17 20  1  0  0  0  0
 18 21  1  0  0  0  0
 19 22  1  0  0  0  0
 21 24  1  0  0  0  0
 22 24  1  0  0  0  0
 23 31  2  0  0  0  0
 24 30  1  0  0  0  0
 25 32  2  0  0  0  0
 26 29  1  0  0  0  0
 26 33  1  0  0  0  0
 29 30  1  0  0  0  0
 31 32  1  0  0  0  0
 33 34  2  0  0  0  0
 33 35  1  0  0  0  0
 35 36  1  0  0  0  0
 36 37  1  0  0  0  0
 37 38  1  0  0  0  0
 38 39  1  0  0  0  0
 39 40  1  0  0  0  0
 40 41  1  0  0  0  0
 41 42  1  0  0  0  0
 42 43  1  0  0  0  0
 43 44  1  0  0  0  0
 44 45  1  0  0  0  0
 45 46  1  0  0  0  0
 46 47  1  0  0  0  0
 47 48  1  0  0  0  0
 48 49  1  0  0  0  0
M  END
> <ID>
13958

> <Formula>
C40H63N3O4S2

> <FW>
714.0759

> <DSSTox_CID>
28896

> <DSSTox_RID>
83164

> <DSSTox_GSID>
48970

> <DSSTox_FileID_Sort>
7841

> <TS_ChemName>
Pipothiazine palmitate

> <TS_ChemName_Synonyms>


> <TS_CASRN>
37517-26-3

> <CASRN_ChemName_Relationship>
primary

> <TS_Description>
single chemical compound

> <ChemNote>


> <STRUCTURE_Shown>
tested chemical

> <STRUCTURE_Formula>
C40H63N3O4S2

> <STRUCTURE_MW>
714.0759

> <STRUCTURE_ChemType>
defined organic

> <STRUCTURE_DefinedOrganicForm>
parent

> <STRUCTURE_IUPAC>
2-(1-{3-[2-(dimethylsulfamoyl)-10H-phenothiazin-10-yl]propyl}piperidin-4-yl)ethyl hexadecanoate

> <STRUCTURE_SMILES>
CN(C)S(=O)(=O)c2cc3N(CCCN1CCC(CCOC(=O)CCCCCCCCCCCCCCC)CC1)c4ccccc4Sc3cc2

> <STRUCTURE_SMILES_Desalt>
CN(C)S(=O)(=O)c2cc3N(CCCN1CCC(CCOC(=O)CCCCCCCCCCCCCCC)CC1)c4ccccc4Sc3cc2

> <Substance_modify_yyyymmdd>
20111204

$$$$
