37526-88-8
ChemmineR-0915142007XD

 14 14  0  0  0  0  0  0  0  0  1 V2000
    2.3074   -1.9752    0.0000 C   0  0  0  0  0  0  0  0  0  0  0  0
    3.4796   -1.3199    0.0000 C   0  0  0  0  0  0  0  0  0  0  0  0
    4.6426   -1.9936    0.0000 O   0  0  0  0  0  0  0  0  0  0  0  0
    5.7778   -1.3199    0.0000 C   0  0  0  0  0  0  0  0  0  0  0  0
    6.9223   -1.9752    0.0000 C   0  0  0  0  0  0  0  0  0  0  0  0
    8.0945   -1.3199    0.0000 C   0  0  0  0  0  0  0  0  0  0  0  0
    9.2298   -1.9752    0.0000 C   0  0  0  0  0  0  0  0  0  0  0  0
    6.9223   -3.3135    0.0000 C   0  0  0  0  0  0  0  0  0  0  0  0
    5.7778    0.0000    0.0000 O   0  0  0  0  0  0  0  0  0  0  0  0
    2.3074   -3.3135    0.0000 C   0  0  0  0  0  0  0  0  0  0  0  0
    1.1353   -3.9688    0.0000 C   0  0  0  0  0  0  0  0  0  0  0  0
    0.0000   -3.2950    0.0000 C   0  0  0  0  0  0  0  0  0  0  0  0
    0.0185   -1.9659    0.0000 C   0  0  0  0  0  0  0  0  0  0  0  0
    1.1722   -1.3014    0.0000 C   0  0  0  0  0  0  0  0  0  0  0  0
  1  2  1  0  0  0  0
  1 10  1  0  0  0  0
  1 14  2  0  0  0  0
  2  3  1  0  0  0  0
  3  4  1  0  0  0  0
  4  5  1  0  0  0  0
  4  9  2  0  0  0  0
  5  6  2  0  0  0  0
  5  8  1  0  0  0  0
  6  7  1  0  0  0  0
 10 11  2  0  0  0  0
 11 12  1  0  0  0  0
 12 13  2  0  0  0  0
 13 14  1  0  0  0  0
M  END
> <ID>
12280

> <Formula>
C12H14O2

> <FW>
190.2384

> <DSSTox_CID>
27130

> <DSSTox_RID>
82137

> <DSSTox_GSID>
47130

> <DSSTox_FileID_Sort>
6818

> <TS_ChemName>
Benzyl tiglate

> <TS_ChemName_Synonyms>


> <TS_CASRN>
37526-88-8

> <CASRN_ChemName_Relationship>
primary

> <TS_Description>
single chemical compound

> <ChemNote>
stereochem

> <STRUCTURE_Shown>
tested chemical

> <STRUCTURE_Formula>
C12H14O2

> <STRUCTURE_MW>
190.2384

> <STRUCTURE_ChemType>
defined organic

> <STRUCTURE_DefinedOrganicForm>
parent

> <STRUCTURE_IUPAC>
benzyl (2E)-2-methylbut-2-enoate

> <STRUCTURE_SMILES>
C\C=C(/C)C(=O)OCc1ccccc1

> <STRUCTURE_SMILES_Desalt>
C\C=C(/C)C(=O)OCc1ccccc1

> <Substance_modify_yyyymmdd>
20100502

$$$$
