3753-81-9
ChemmineR-0915142007XD

 23 24  0  0  0  0  0  0  0  0  1 V2000
    0.0000   -1.9842    0.0000 O   0  0  0  0  0  0  0  0  0  0  0  0
    1.1453   -1.3228    0.0000 C   0  0  0  0  0  0  0  0  0  0  0  0
    1.1453    0.0000    0.0000 O   0  0  0  0  0  0  0  0  0  0  0  0
    2.3068   -1.9842    0.0000 C   0  0  0  0  0  0  0  0  0  0  0  0
    3.4522   -1.3228    0.0000 C   0  0  0  0  0  0  0  0  0  0  0  0
    4.6136   -1.9842    0.0000 C   0  0  0  0  0  0  0  0  0  0  0  0
    4.6136   -3.3231    0.0000 C   0  0  0  0  0  0  0  0  0  0  0  0
    5.7590   -3.9845    0.0000 O   0  0  0  0  0  0  0  0  0  0  0  0
    6.9205   -3.3231    0.0000 C   0  0  0  0  0  0  0  0  0  0  0  0
    8.0658   -3.9845    0.0000 C   0  0  0  0  0  0  0  0  0  0  0  0
    9.2112   -3.3231    0.0000 C   0  0  0  0  0  0  0  0  0  0  0  0
   10.3726   -3.9845    0.0000 O   0  0  0  0  0  0  0  0  0  0  0  0
   11.5180   -3.3231    0.0000 C   0  0  0  0  0  0  0  0  0  0  0  0
   11.5180   -1.9842    0.0000 C   0  0  0  0  0  0  0  0  0  0  0  0
   12.6795   -1.3228    0.0000 C   0  0  0  0  0  0  0  0  0  0  0  0
   13.8248   -1.9842    0.0000 C   0  0  0  0  0  0  0  0  0  0  0  0
   13.8248   -3.3231    0.0000 C   0  0  0  0  0  0  0  0  0  0  0  0
   12.6795   -3.9845    0.0000 C   0  0  0  0  0  0  0  0  0  0  0  0
   14.9863   -1.3228    0.0000 C   0  0  0  0  0  0  0  0  0  0  0  0
   16.1316   -1.9842    0.0000 O   0  0  0  0  0  0  0  0  0  0  0  0
   14.9863    0.0000    0.0000 O   0  0  0  0  0  0  0  0  0  0  0  0
    3.4522   -3.9845    0.0000 C   0  0  0  0  0  0  0  0  0  0  0  0
    2.3068   -3.3231    0.0000 C   0  0  0  0  0  0  0  0  0  0  0  0
  1  2  1  0  0  0  0
  2  3  2  0  0  0  0
  2  4  1  0  0  0  0
  4  5  2  0  0  0  0
  4 23  1  0  0  0  0
  5  6  1  0  0  0  0
  6  7  2  0  0  0  0
  7  8  1  0  0  0  0
  7 22  1  0  0  0  0
  8  9  1  0  0  0  0
  9 10  1  0  0  0  0
 10 11  1  0  0  0  0
 11 12  1  0  0  0  0
 12 13  1  0  0  0  0
 13 14  2  0  0  0  0
 13 18  1  0  0  0  0
 14 15  1  0  0  0  0
 15 16  2  0  0  0  0
 16 17  1  0  0  0  0
 16 19  1  0  0  0  0
 17 18  2  0  0  0  0
 19 20  1  0  0  0  0
 19 21  2  0  0  0  0
 22 23  2  0  0  0  0
M  END
> <ID>
11809

> <Formula>
C17H16O6

> <FW>
316.3053

> <DSSTox_CID>
26585

> <DSSTox_RID>
81743

> <DSSTox_GSID>
46585

> <DSSTox_FileID_Sort>
6424

> <TS_ChemName>
1,3-Bis(4-carboxyphenoxy)propane

> <TS_ChemName_Synonyms>


> <TS_CASRN>
3753-81-9

> <CASRN_ChemName_Relationship>
primary

> <TS_Description>
single chemical compound

> <ChemNote>


> <STRUCTURE_Shown>
tested chemical

> <STRUCTURE_Formula>
C17H16O6

> <STRUCTURE_MW>
316.3053

> <STRUCTURE_ChemType>
defined organic

> <STRUCTURE_DefinedOrganicForm>
parent

> <STRUCTURE_IUPAC>
4,4'-[propane-1,3-diylbis(oxy)]dibenzoic acid

> <STRUCTURE_SMILES>
O=C(O)c1ccc(cc1)OCCCOc2ccc(cc2)C(=O)O

> <STRUCTURE_SMILES_Desalt>
O=C(O)c1ccc(cc1)OCCCOc2ccc(cc2)C(=O)O

> <Substance_modify_yyyymmdd>
20110810

$$$$
