375395-33-8
ChemmineR-0915142007XD

 41 39  0  0  0  0  0  0  0  0  2 V2000
    8.8867   -2.7687    0.0000 N   0  3  0  0  0  0  0  0  0  0  0  0
    9.8468   -3.7065    0.0000 C   0  0  0  0  0  0  0  0  0  0  0  0
    7.9712   -1.8309    0.0000 C   0  0  0  0  0  0  0  0  0  0  0  0
    9.8468   -1.8086    0.0000 C   0  0  0  0  0  0  0  0  0  0  0  0
    7.9712   -3.7065    0.0000 C   0  0  0  0  0  0  0  0  0  0  0  0
    6.6762   -2.1882    0.0000 C   0  0  0  0  0  0  0  0  0  0  0  0
    5.7384   -1.2281    0.0000 C   0  0  0  0  0  0  0  0  0  0  0  0
    4.4657   -1.5853    0.0000 C   0  0  0  0  0  0  0  0  0  0  0  0
    3.5055   -0.6475    0.0000 C   0  0  0  0  0  0  0  0  0  0  0  0
    2.2328   -1.0048    0.0000 C   0  0  0  0  0  0  0  0  0  0  0  0
    1.2727   -0.0670    0.0000 C   0  0  0  0  0  0  0  0  0  0  0  0
    0.0000   -0.4242    0.0000 C   0  0  0  0  0  0  0  0  0  0  0  0
    8.3285   -4.9792    0.0000 C   0  0  0  0  0  0  0  0  0  0  0  0
    7.3907   -5.9170    0.0000 C   0  0  0  0  0  0  0  0  0  0  0  0
    7.7256   -7.1897    0.0000 C   0  0  0  0  0  0  0  0  0  0  0  0
    6.7878   -8.1498    0.0000 C   0  0  0  0  0  0  0  0  0  0  0  0
    7.1451   -9.4225    0.0000 C   0  0  0  0  0  0  0  0  0  0  0  0
    6.2296  -10.3827    0.0000 C   0  0  0  0  0  0  0  0  0  0  0  0
    6.5645  -11.6554    0.0000 C   0  0  0  0  0  0  0  0  0  0  0  0
   11.1195   -2.1435    0.0000 C   0  0  0  0  0  0  0  0  0  0  0  0
   12.0573   -1.2057    0.0000 C   0  0  0  0  0  0  0  0  0  0  0  0
   13.3523   -1.5630    0.0000 C   0  0  0  0  0  0  0  0  0  0  0  0
   14.2901   -0.6029    0.0000 C   0  0  0  0  0  0  0  0  0  0  0  0
   15.5628   -0.9378    0.0000 C   0  0  0  0  0  0  0  0  0  0  0  0
   16.5006    0.0000    0.0000 C   0  0  0  0  0  0  0  0  0  0  0  0
   17.7956   -0.3349    0.0000 C   0  0  0  0  0  0  0  0  0  0  0  0
   18.3985   -4.5773    0.0000 O   0  0  0  0  0  0  0  0  0  0  0  0
   17.7287   -5.7160    0.0000 S   0  0  0  0  0  0  0  0  0  0  0  0
   17.0365   -6.8548    0.0000 O   0  0  0  0  0  0  0  0  0  0  0  0
   16.5676   -5.0462    0.0000 C   0  0  0  0  0  0  0  0  0  0  0  0
   15.8754   -6.2073    0.0000 F   0  0  0  0  0  0  0  0  0  0  0  0
   17.2151   -3.9075    0.0000 F   0  0  0  0  0  0  0  0  0  0  0  0
   15.4065   -4.3763    0.0000 F   0  0  0  0  0  0  0  0  0  0  0  0
   18.8897   -6.3859    0.0000 N   0  5  0  0  0  0  0  0  0  0  0  0
   19.3363   -4.5773    0.0000 O   0  0  0  0  0  0  0  0  0  0  0  0
   20.0061   -5.7160    0.0000 S   0  0  0  0  0  0  0  0  0  0  0  0
   20.6983   -6.8548    0.0000 O   0  0  0  0  0  0  0  0  0  0  0  0
   21.1672   -5.0462    0.0000 C   0  0  0  0  0  0  0  0  0  0  0  0
   20.4974   -3.9075    0.0000 F   0  0  0  0  0  0  0  0  0  0  0  0
   21.8371   -6.2073    0.0000 F   0  0  0  0  0  0  0  0  0  0  0  0
   22.3283   -4.3763    0.0000 F   0  0  0  0  0  0  0  0  0  0  0  0
  1  2  1  0  0  0  0
  1  3  1  0  0  0  0
  1  4  1  0  0  0  0
  1  5  1  0  0  0  0
  3  6  1  0  0  0  0
  4 20  1  0  0  0  0
  5 13  1  0  0  0  0
  6  7  1  0  0  0  0
  7  8  1  0  0  0  0
  8  9  1  0  0  0  0
  9 10  1  0  0  0  0
 10 11  1  0  0  0  0
 11 12  1  0  0  0  0
 13 14  1  0  0  0  0
 14 15  1  0  0  0  0
 15 16  1  0  0  0  0
 16 17  1  0  0  0  0
 17 18  1  0  0  0  0
 18 19  1  0  0  0  0
 20 21  1  0  0  0  0
 21 22  1  0  0  0  0
 22 23  1  0  0  0  0
 23 24  1  0  0  0  0
 24 25  1  0  0  0  0
 25 26  1  0  0  0  0
 27 28  2  0  0  0  0
 28 29  2  0  0  0  0
 28 30  1  0  0  0  0
 28 34  1  0  0  0  0
 30 31  1  0  0  0  0
 30 32  1  0  0  0  0
 30 33  1  0  0  0  0
 34 36  1  0  0  0  0
 35 36  2  0  0  0  0
 36 37  2  0  0  0  0
 36 38  1  0  0  0  0
 38 39  1  0  0  0  0
 38 40  1  0  0  0  0
 38 41  1  0  0  0  0
M  END
> <ID>
13001

> <Formula>
C27H54F6N2O4S2

> <FW>
648.8491 (368.7024+280.1467)

> <DSSTox_CID>
27902

> <DSSTox_RID>
82655

> <DSSTox_GSID>
47926

> <DSSTox_FileID_Sort>
7332

> <TS_ChemName>
Methyltrioctylammonium bis(trifluoromethylsulfonyl)imide

> <TS_ChemName_Synonyms>


> <TS_CASRN>
375395-33-8

> <CASRN_ChemName_Relationship>
primary

> <TS_Description>
single chemical compound

> <ChemNote>
ammonium; parent [22061-11-6]

> <STRUCTURE_Shown>
tested chemical

> <STRUCTURE_Formula>
C27H54F6N2O4S2

> <STRUCTURE_MW>
648.8491

> <STRUCTURE_ChemType>
defined organic

> <STRUCTURE_DefinedOrganicForm>
salt

> <STRUCTURE_IUPAC>
N-methyl-N,N-dioctyloctan-1-aminium bis[(trifluoromethyl)sulfonyl]azanide

> <STRUCTURE_SMILES>
FC(F)(F)S(=O)(=O)[N-]S(=O)(=O)C(F)(F)F.CCCCCCCC[N+](C)(CCCCCCCC)CCCCCCCC

> <STRUCTURE_SMILES_Desalt>
CCCCCCCC[N+](C)(CCCCCCCC)CCCCCCCC

> <Substance_modify_yyyymmdd>
20110417

$$$$
