37561-27-6
ChemmineR-0915142007XD

 33 38  0  0  0  0  0  0  0  0  1 V2000
    4.6012   -5.9815    0.0000 O   0  0  0  0  0  0  0  0  0  0  0  0
    4.6012   -4.6488    0.0000 C   0  0  0  0  0  0  0  0  0  0  0  0
    5.7594   -3.9824    0.0000 C   0  0  0  0  0  0  0  0  0  0  0  0
    6.9176   -4.6488    0.0000 N   0  0  0  0  0  0  0  0  0  0  0  0
    8.0600   -3.9824    0.0000 C   0  0  0  0  0  0  0  0  0  0  0  0
    9.2182   -4.6488    0.0000 C   0  0  0  0  0  0  0  0  0  0  0  0
    9.2182   -5.9815    0.0000 N   0  0  0  0  0  0  0  0  0  0  0  0
    8.0600   -6.6479    0.0000 C   0  0  0  0  0  0  0  0  0  0  0  0
    6.9176   -5.9815    0.0000 C   0  0  0  0  0  0  0  0  0  0  0  0
   10.3606   -6.6479    0.0000 C   0  0  0  0  0  0  0  0  0  0  0  0
   11.5188   -5.9815    0.0000 C   0  0  0  0  0  0  0  0  0  0  0  0
   11.5188   -4.6488    0.0000 C   0  0  0  0  0  0  0  0  0  0  0  0
   12.6611   -3.9824    0.0000 C   0  0  0  0  0  0  0  0  0  0  0  0
   13.8194   -4.6488    0.0000 C   0  0  0  0  0  0  0  0  0  0  0  0
   15.0887   -4.2362    0.0000 O   0  0  0  0  0  0  0  0  0  0  0  0
   15.8661   -5.3151    0.0000 C   0  0  0  0  0  0  0  0  0  0  0  0
   15.0887   -6.3940    0.0000 O   0  0  0  0  0  0  0  0  0  0  0  0
   13.8194   -5.9815    0.0000 C   0  0  0  0  0  0  0  0  0  0  0  0
   12.6611   -6.6479    0.0000 C   0  0  0  0  0  0  0  0  0  0  0  0
    3.4588   -3.9824    0.0000 N   0  0  0  0  0  0  0  0  0  0  0  0
    2.3006   -4.6488    0.0000 C   0  0  0  0  0  0  0  0  0  0  0  0
    2.3006   -5.9815    0.0000 C   0  0  0  0  0  0  0  0  0  0  0  0
    1.1582   -6.6479    0.0000 C   0  0  0  0  0  0  0  0  0  0  0  0
    0.0000   -5.9815    0.0000 C   0  0  0  0  0  0  0  0  0  0  0  0
    0.0000   -4.6488    0.0000 C   0  0  0  0  0  0  0  0  0  0  0  0
    1.1582   -3.9824    0.0000 C   0  0  0  0  0  0  0  0  0  0  0  0
    1.1582   -2.6655    0.0000 S   0  0  0  0  0  0  0  0  0  0  0  0
    2.3006   -1.9991    0.0000 C   0  0  0  0  0  0  0  0  0  0  0  0
    2.3006   -0.6664    0.0000 C   0  0  0  0  0  0  0  0  0  0  0  0
    3.4588    0.0000    0.0000 C   0  0  0  0  0  0  0  0  0  0  0  0
    4.6012   -0.6664    0.0000 C   0  0  0  0  0  0  0  0  0  0  0  0
    4.6012   -1.9991    0.0000 C   0  0  0  0  0  0  0  0  0  0  0  0
    3.4588   -2.6655    0.0000 C   0  0  0  0  0  0  0  0  0  0  0  0
  1  2  2  0  0  0  0
  2  3  1  0  0  0  0
  2 20  1  0  0  0  0
  3  4  1  0  0  0  0
  4  5  1  0  0  0  0
  4  9  1  0  0  0  0
  5  6  1  0  0  0  0
  6  7  1  0  0  0  0
  7  8  1  0  0  0  0
  7 10  1  0  0  0  0
  8  9  1  0  0  0  0
 10 11  1  0  0  0  0
 11 12  2  0  0  0  0
 11 19  1  0  0  0  0
 12 13  1  0  0  0  0
 13 14  2  0  0  0  0
 14 15  1  0  0  0  0
 14 18  1  0  0  0  0
 15 16  1  0  0  0  0
 16 17  1  0  0  0  0
 17 18  1  0  0  0  0
 18 19  2  0  0  0  0
 20 21  1  0  0  0  0
 20 33  1  0  0  0  0
 21 22  2  0  0  0  0
 21 26  1  0  0  0  0
 22 23  1  0  0  0  0
 23 24  2  0  0  0  0
 24 25  1  0  0  0  0
 25 26  2  0  0  0  0
 26 27  1  0  0  0  0
 27 28  1  0  0  0  0
 28 29  2  0  0  0  0
 28 33  1  0  0  0  0
 29 30  1  0  0  0  0
 30 31  2  0  0  0  0
 31 32  1  0  0  0  0
 32 33  2  0  0  0  0
M  END
> <ID>
11588

> <Formula>
C26H25N3O3S

> <FW>
459.56

> <DSSTox_CID>
26296

> <DSSTox_RID>
81521

> <DSSTox_GSID>
46296

> <DSSTox_FileID_Sort>
6202

> <TS_ChemName>
Fenoverine

> <TS_ChemName_Synonyms>


> <TS_CASRN>
37561-27-6

> <CASRN_ChemName_Relationship>
primary

> <TS_Description>
single chemical compound

> <ChemNote>


> <STRUCTURE_Shown>
tested chemical

> <STRUCTURE_Formula>
C26H25N3O3S

> <STRUCTURE_MW>
459.56

> <STRUCTURE_ChemType>
defined organic

> <STRUCTURE_DefinedOrganicForm>
parent

> <STRUCTURE_IUPAC>
2-[4-(1,3-benzodioxol-5-ylmethyl)piperazin-1-yl]-1-(10H-phenothiazin-10-yl)ethanone

> <STRUCTURE_SMILES>
O=C(CN3CCN(Cc1ccc2OCOc2c1)CC3)N4c6ccccc6Sc5ccccc45

> <STRUCTURE_SMILES_Desalt>
O=C(CN3CCN(Cc1ccc2OCOc2c1)CC3)N4c6ccccc6Sc5ccccc45

> <Substance_modify_yyyymmdd>
20110815

$$$$
