3758-34-7
ChemmineR-0915142007XD

 27 30  0  0  1  0  0  0  0  0  1 V2000
    6.8916   -3.4516    0.0000 C   0  0  0  0  0  0  0  0  0  0  0  0
    6.8916   -4.7649    0.0000 C   0  0  0  0  0  0  0  0  0  0  0  0
    5.7295   -5.4273    0.0000 C   0  0  0  0  0  0  0  0  0  0  0  0
    4.6022   -4.7649    0.0000 C   0  0  0  0  0  0  0  0  0  0  0  0
    3.4400   -5.4273    0.0000 C   0  0  0  0  0  0  0  0  0  0  0  0
    8.1816   -3.0565    0.0000 C   0  0  0  0  0  0  0  0  0  0  0  0
    3.4400   -6.7754    0.0000 C   0  0  0  0  0  0  0  0  0  0  0  0
    5.7295   -2.7892    0.0000 C   0  0  0  0  0  0  0  0  0  0  0  0
    4.6022   -3.4516    0.0000 C   0  0  0  0  0  0  0  0  0  0  0  0
    8.1816   -5.1833    0.0000 C   0  0  0  0  0  0  0  0  0  0  0  0
    5.7295   -6.7754    0.0000 C   0  0  0  0  0  0  0  0  0  0  0  0
    8.6000   -1.7432    0.0000 O   0  0  0  0  0  0  0  0  0  0  0  0
    2.3127   -4.7649    0.0000 C   0  0  0  0  0  0  0  0  0  0  0  0
    9.8784   -1.4643    0.0000 C   0  0  0  0  0  0  0  0  0  0  0  0
    4.6022   -7.4379    0.0000 C   0  0  0  0  0  0  0  0  0  0  0  0
    8.9138   -4.1024    0.0000 C   0  0  0  0  0  0  0  0  0  0  0  0
    2.3127   -7.4379    0.0000 C   0  0  0  0  0  0  0  0  0  0  0  0
   10.8198   -2.4754    0.0000 O   0  0  0  0  0  0  0  0  0  0  0  0
    1.1622   -6.7754    0.0000 C   0  0  0  0  0  0  0  0  0  0  0  0
    1.1622   -5.4273    0.0000 C   0  0  0  0  0  0  0  0  0  0  0  0
    6.8916   -2.1268    0.0000 C   0  0  0  0  0  0  0  0  0  0  0  0
    0.0000   -7.4379    0.0000 O   0  0  0  0  0  0  0  0  0  0  0  0
   10.2968   -0.2324    0.0000 C   0  0  0  0  0  0  0  0  0  0  0  0
   11.6217    0.0000    0.0000 C   0  0  0  0  0  0  0  0  0  0  0  0
    5.7295   -4.1024    0.0000 H   0  0  0  0  0  0  0  0  0  0  0  0
    4.6022   -6.1130    0.0000 H   0  0  0  0  0  0  0  0  0  0  0  0
    6.8916   -6.1130    0.0000 H   0  0  0  0  0  0  0  0  0  0  0  0
  1  2  1  0  0  0  0
  1  6  1  0  0  0  0
  1  8  1  0  0  0  0
  1 21  1  1  0  0  0
  2  3  1  0  0  0  0
  2 10  1  0  0  0  0
  2 27  1  6  0  0  0
  3 11  1  0  0  0  0
  3  4  1  0  0  0  0
  3 25  1  1  0  0  0
  4  9  1  0  0  0  0
  4  5  1  0  0  0  0
  4 26  1  6  0  0  0
  5  7  1  0  0  0  0
  5 13  2  0  0  0  0
  6 12  1  1  0  0  0
  6 16  1  0  0  0  0
  7 17  2  0  0  0  0
  7 15  1  0  0  0  0
  8  9  1  0  0  0  0
 10 16  1  0  0  0  0
 11 15  1  0  0  0  0
 12 14  1  0  0  0  0
 13 20  1  0  0  0  0
 14 18  2  0  0  0  0
 14 23  1  0  0  0  0
 17 19  1  0  0  0  0
 19 20  2  0  0  0  0
 19 22  1  0  0  0  0
 23 24  1  0  0  0  0
M  END
> <ID>
13972

> <Formula>
C21H28O3

> <FW>
328.4452

> <DSSTox_CID>
28911

> <DSSTox_RID>
83179

> <DSSTox_GSID>
48985

> <DSSTox_FileID_Sort>
7855

> <TS_ChemName>
beta-Estradiol 17-propionate

> <TS_ChemName_Synonyms>
?-Estradiol 17-propionate

> <TS_CASRN>
3758-34-7

> <CASRN_ChemName_Relationship>
primary

> <TS_Description>
single chemical compound

> <ChemNote>
stereochem

> <STRUCTURE_Shown>
tested chemical

> <STRUCTURE_Formula>
C21H28O3

> <STRUCTURE_MW>
328.4452

> <STRUCTURE_ChemType>
defined organic

> <STRUCTURE_DefinedOrganicForm>
parent

> <STRUCTURE_IUPAC>
(17beta)-3-hydroxyestra-1(10),2,4-trien-17-yl propanoate

> <STRUCTURE_SMILES>
CCC(=O)O[C@H]2CC[C@H]3[C@@H]4CCc1cc(O)ccc1[C@H]4CC[C@]23C

> <STRUCTURE_SMILES_Desalt>
CCC(=O)O[C@H]2CC[C@H]3[C@@H]4CCc1cc(O)ccc1[C@H]4CC[C@]23C

> <Substance_modify_yyyymmdd>
20111204

$$$$
