375815-87-5
ChemmineR-0915142007XD

 26 28  0  0  1  0  0  0  0  0  1 V2000
    6.2696   -0.1698    0.0000 N   0  0  0  0  0  0  0  0  0  0  0  0
    7.3847   -0.8197    0.0000 C   0  0  0  0  0  0  0  0  0  0  0  0
    7.3847   -2.1268    0.0000 C   0  0  0  0  0  0  0  0  0  0  0  0
    6.2696   -2.7693    0.0000 N   0  0  0  0  0  0  0  0  0  0  0  0
    5.1324   -2.1268    0.0000 C   0  0  0  0  0  0  0  0  0  0  0  0
    4.0025   -2.7693    0.0000 C   0  0  0  0  0  0  0  0  0  0  0  0
    2.8653   -2.1268    0.0000 C   0  0  0  0  0  0  0  0  0  0  0  0
    1.8388   -2.9465    0.0000 C   0  0  0  0  0  0  0  0  0  0  0  0
    0.5686   -2.6437    0.0000 C   0  0  0  0  0  0  0  0  0  0  0  0
    0.0000   -1.4622    0.0000 N   0  0  0  0  0  0  0  0  0  0  0  0
    0.5686   -0.2954    0.0000 C   0  0  0  0  0  0  0  0  0  0  0  0
    1.8388    0.0000    0.0000 C   0  0  0  0  0  0  0  0  0  0  0  0
    2.8653   -0.8197    0.0000 C   0  0  0  0  0  0  0  0  0  0  0  0
    4.0025   -0.1698    0.0000 C   0  0  0  0  0  0  0  0  0  0  0  0
    5.1324   -0.8197    0.0000 C   0  0  0  0  0  0  0  0  0  0  0  0
    0.9896   -1.4622    0.0000 C   0  0  0  0  0  0  0  0  0  0  0  0
    3.0056   -4.7558    0.0000 C   0  0  0  0  0  0  0  0  0  0  0  0
    4.1428   -5.3835    0.0000 C   0  0  0  0  0  0  0  0  0  0  0  0
    1.8757   -5.3835    0.0000 C   0  0  0  0  0  0  0  0  0  0  0  0
    5.2579   -4.7558    0.0000 C   0  0  0  0  0  0  0  0  0  0  0  0
    5.2579   -3.4487    0.0000 O   0  0  0  0  0  0  0  0  0  0  0  0
    1.8757   -6.6905    0.0000 O   0  0  0  0  0  0  0  0  0  0  0  0
    6.3804   -5.3835    0.0000 O   0  0  0  0  0  0  0  0  0  0  0  0
    0.7680   -4.7558    0.0000 O   0  0  0  0  0  0  0  0  0  0  0  0
    4.1428   -6.6905    0.0000 O   0  0  0  0  0  0  0  0  0  0  0  0
    3.0056   -3.4487    0.0000 O   0  0  0  0  0  0  0  0  0  0  0  0
  1  2  1  0  0  0  0
  1 15  2  0  0  0  0
  2  3  2  0  0  0  0
  3  4  1  0  0  0  0
  4  5  2  0  0  0  0
  5  6  1  0  0  0  0
  5 15  1  0  0  0  0
  6  7  2  0  0  0  0
  7  8  1  0  0  0  0
  7 13  1  0  0  0  0
  8  9  1  0  0  0  0
  8 16  1  0  0  0  0
  9 10  1  0  0  0  0
 10 11  1  0  0  0  0
 11 12  1  0  0  0  0
 12 13  1  0  0  0  0
 12 16  1  0  0  0  0
 13 14  2  0  0  0  0
 14 15  1  0  0  0  0
 17 18  1  0  0  0  0
 17 19  1  0  0  0  0
 17 26  1  6  0  0  0
 18 20  1  0  0  0  0
 18 25  1  6  0  0  0
 19 22  2  0  0  0  0
 19 24  1  0  0  0  0
 20 21  2  0  0  0  0
 20 23  1  0  0  0  0
M  END
> <ID>
14056

> <Formula>
C17H19N3O6

> <FW>
361.3493 (211.2624+150.0868)

> <DSSTox_CID>
28998

> <DSSTox_RID>
83263

> <DSSTox_GSID>
49072

> <DSSTox_FileID_Sort>
7938

> <TS_ChemName>
Varenicline tartrate

> <TS_ChemName_Synonyms>


> <TS_CASRN>
375815-87-5

> <CASRN_ChemName_Relationship>
primary

> <TS_Description>
single chemical compound

> <ChemNote>


> <STRUCTURE_Shown>
tested chemical

> <STRUCTURE_Formula>
C17H19N3O6

> <STRUCTURE_MW>
361.3493

> <STRUCTURE_ChemType>
defined organic

> <STRUCTURE_DefinedOrganicForm>
complex

> <STRUCTURE_IUPAC>
(2R,3R)-2,3-dihydroxybutanedioic acid - 7,8,9,10-tetrahydro-6H-6,10-methanoazepino[4,5-g]quinoxaline (1:1)

> <STRUCTURE_SMILES>
O=C(O)[C@H](O)[C@@H](O)C(=O)O.c1c4c(cc2nccnc12)C3CC4CNC3

> <STRUCTURE_SMILES_Desalt>
c1c4c(cc2nccnc12)C3CC4CNC3

> <Substance_modify_yyyymmdd>
20111204

$$$$
