3759-92-0
ChemmineR-0915142007XD

 24 25  0  0  0  0  0  0  0  0  2 V2000
   13.5623   -4.2475    0.0000 O    0  5  0  0  0  0  0  0  0  0  0  0
   13.6815   -2.9211    0.0000 N    0  3  0  0  0  0  0  0  0  0  0  0
   14.9036   -2.3697    0.0000 O    0  0  0  0  0  0  0  0  0  0  0  0
   12.6084   -2.1312    0.0000 C    0  0  0  0  0  0  0  0  0  0  0  0
   12.6084   -0.8048    0.0000 C    0  0  0  0  0  0  0  0  0  0  0  0
   11.3565   -0.4024    0.0000 C    0  0  0  0  0  0  0  0  0  0  0  0
   10.5666   -1.4755    0.0000 C    0  0  0  0  0  0  0  0  0  0  0  0
   11.3565   -2.5485    0.0000 O    0  0  0  0  0  0  0  0  0  0  0  0
    9.2402   -1.4755    0.0000 C    0  0  0  0  0  0  0  0  0  0  0  0
    7.9138   -1.4755    0.0000 N    0  0  0  0  0  0  0  0  0  0  0  0
    6.5725   -1.4755    0.0000 N    0  0  0  0  0  0  0  0  0  0  0  0
    5.8124   -0.4024    0.0000 C    0  0  0  0  0  0  0  0  0  0  0  0
    4.5456   -0.8048    0.0000 C    0  0  0  0  0  0  0  0  0  0  0  0
    3.4576   -0.0149    0.0000 C    0  0  0  0  0  0  0  0  0  0  0  0
    2.3101   -0.6707    0.0000 N    0  0  0  0  0  0  0  0  0  0  0  0
    1.1476    0.0000    0.0000 C    0  0  0  0  0  0  0  0  0  0  0  0
    0.0000   -0.6558    0.0000 C    0  0  0  0  0  0  0  0  0  0  0  0
    0.0000   -1.9971    0.0000 O    0  0  0  0  0  0  0  0  0  0  0  0
    1.1476   -2.6677    0.0000 C    0  0  0  0  0  0  0  0  0  0  0  0
    2.3101   -2.0120    0.0000 C    0  0  0  0  0  0  0  0  0  0  0  0
    4.5456   -2.1312    0.0000 O    0  0  0  0  0  0  0  0  0  0  0  0
    5.8124   -2.5485    0.0000 C    0  0  0  0  0  0  0  0  0  0  0  0
    6.2148   -3.8153    0.0000 O    0  0  0  0  0  0  0  0  0  0  0  0
    9.6277   -3.8600    0.0000 Cl   0  0  0  0  0  0  0  0  0  0  0  0
  1  2  1  0  0  0  0
  2  3  2  0  0  0  0
  2  4  1  0  0  0  0
  4  5  2  0  0  0  0
  4  8  1  0  0  0  0
  5  6  1  0  0  0  0
  6  7  2  0  0  0  0
  7  8  1  0  0  0  0
  7  9  1  0  0  0  0
  9 10  2  0  0  0  0
 10 11  1  0  0  0  0
 11 12  1  0  0  0  0
 11 22  1  0  0  0  0
 12 13  1  0  0  0  0
 13 14  1  0  0  0  0
 13 21  1  0  0  0  0
 14 15  1  0  0  0  0
 15 16  1  0  0  0  0
 15 20  1  0  0  0  0
 16 17  1  0  0  0  0
 17 18  1  0  0  0  0
 18 19  1  0  0  0  0
 19 20  1  0  0  0  0
 21 22  1  0  0  0  0
 22 23  2  0  0  0  0
M  END
> <ID>
10910

> <Formula>
C13H17ClN4O6

> <FW>
360.7503 (324.2893+36.4609)

> <DSSTox_CID>
25380

> <DSSTox_RID>
80839

> <DSSTox_GSID>
45380

> <DSSTox_FileID_Sort>
5520

> <TS_ChemName>
Furaltadone hydrochloride

> <TS_ChemName_Synonyms>


> <TS_CASRN>
3759-92-0

> <CASRN_ChemName_Relationship>
primary

> <TS_Description>
single chemical compound

> <ChemNote>
parent [139-91-3]

> <STRUCTURE_Shown>
tested chemical

> <STRUCTURE_Formula>
C13H17ClN4O6

> <STRUCTURE_MW>
360.7503

> <STRUCTURE_ChemType>
defined organic

> <STRUCTURE_DefinedOrganicForm>
complex

> <STRUCTURE_IUPAC>
5-(morpholin-4-ylmethyl)-3-{[(5-nitrofuran-2-yl)methylidene]amino}-1,3-oxazolidin-2-one hydrochloride (1:1)

> <STRUCTURE_SMILES>
Cl.[O-][N+](=O)c1ccc(o1)/C=N/N2CC(OC2=O)CN3CCOCC3

> <STRUCTURE_SMILES_Desalt>
[O-][N+](=O)c1ccc(o1)/C=N/N2CC(OC2=O)CN3CCOCC3

> <Substance_modify_yyyymmdd>
20110719

$$$$
