376348-65-1
ChemmineR-0915142007XD

 41 45  0  0  1  0  0  0  0  0  1 V2000
    1.4854  -10.2677    0.0000 C   0  0  0  0  0  0  0  0  0  0  0  0
    1.8603   -7.9892    0.0000 C   0  0  0  0  0  0  0  0  0  0  0  0
    1.0239   -8.8256    0.0000 H   0  0  0  0  0  0  0  0  0  0  0  0
    4.1100   -7.3258    0.0000 N   0  0  0  0  0  0  0  0  0  0  0  0
    2.6967   -7.1528    0.0000 C   0  0  0  0  0  0  0  0  0  0  0  0
    3.5187   -6.3308    0.0000 H   0  0  0  0  0  0  0  0  0  0  0  0
    3.3889  -10.2677    0.0000 C   0  0  0  0  0  0  0  0  0  0  0  0
    2.4371  -10.9599    0.0000 C   0  0  0  0  0  0  0  0  0  0  0  0
    1.8603  -11.9838    0.0000 H   0  0  0  0  0  0  0  0  0  0  0  0
    3.0284  -11.9838    0.0000 N   0  0  0  0  0  0  0  0  0  0  0  0
    4.1965  -12.1135    0.0000 C   0  0  0  0  0  0  0  0  0  0  0  0
    4.4416  -13.2528    0.0000 N   0  0  0  0  0  0  0  0  0  0  0  0
    3.4322  -13.8440    0.0000 N   0  0  0  0  0  0  0  0  0  0  0  0
    2.5525  -13.0653    0.0000 C   0  0  0  0  0  0  0  0  0  0  0  0
    1.3988  -13.2961    0.0000 C   0  0  0  0  0  0  0  0  0  0  0  0
    0.6057  -12.4164    0.0000 C   0  0  0  0  0  0  0  0  0  0  0  0
    1.0383  -14.4209    0.0000 C   0  0  0  0  0  0  0  0  0  0  0  0
    4.9896  -11.2339    0.0000 C   0  0  0  0  0  0  0  0  0  0  0  0
    0.8364   -5.7251    0.0000 C   0  0  0  0  0  0  0  0  0  0  0  0
    0.0000   -6.5615    0.0000 C   0  0  0  0  0  0  0  0  0  0  0  0
    5.2925   -7.3258    0.0000 C   0  0  0  0  0  0  0  0  0  0  0  0
    5.8693   -6.3163    0.0000 C   0  0  0  0  0  0  0  0  0  0  0  0
    7.0518   -6.3163    0.0000 C   0  0  0  0  0  0  0  0  0  0  0  0
    7.0518   -7.4700    0.0000 H   0  0  0  0  0  0  0  0  0  0  0  0
    8.2199   -6.3163    0.0000 C   0  0  0  0  0  0  0  0  0  0  0  0
    8.8256   -5.2925    0.0000 C   0  0  0  0  0  0  0  0  0  0  0  0
    9.9937   -5.2925    0.0000 C   0  0  0  0  0  0  0  0  0  0  0  0
   10.5849   -6.3163    0.0000 C   0  0  0  0  0  0  0  0  0  0  0  0
    9.9937   -7.3258    0.0000 C   0  0  0  0  0  0  0  0  0  0  0  0
    8.8256   -7.3258    0.0000 C   0  0  0  0  0  0  0  0  0  0  0  0
    7.0662   -5.1338    0.0000 N   0  0  0  0  0  0  0  0  0  0  0  0
    6.0423   -4.5570    0.0000 C   0  0  0  0  0  0  0  0  0  0  0  0
    6.0423   -3.3745    0.0000 C   0  0  0  0  0  0  0  0  0  0  0  0
    7.0662   -2.7832    0.0000 C   0  0  0  0  0  0  0  0  0  0  0  0
    7.0662   -1.6007    0.0000 C   0  0  0  0  0  0  0  0  0  0  0  0
    6.0423   -1.0239    0.0000 C   0  0  0  0  0  0  0  0  0  0  0  0
    5.0185   -1.6007    0.0000 C   0  0  0  0  0  0  0  0  0  0  0  0
    5.0185   -2.7832    0.0000 C   0  0  0  0  0  0  0  0  0  0  0  0
    5.4511    0.0000    0.0000 F   0  0  0  0  0  0  0  0  0  0  0  0
    6.6192    0.0000    0.0000 F   0  0  0  0  0  0  0  0  0  0  0  0
    5.0185   -5.1338    0.0000 O   0  0  0  0  0  0  0  0  0  0  0  0
  1  2  1  0  0  0  0
  1  8  1  0  0  0  0
  2  3  1  0  0  0  0
  2  4  1  6  0  0  0
  2 20  1  0  0  0  0
  5  4  1  1  0  0  0
  4 21  1  0  0  0  0
  5  6  1  0  0  0  0
  5  7  1  0  0  0  0
  5 19  1  0  0  0  0
  7  8  1  0  0  0  0
  8  9  1  6  0  0  0
  8 10  1  0  0  0  0
 10 11  1  0  0  0  0
 10 14  1  0  0  0  0
 11 12  2  0  0  0  0
 11 18  1  0  0  0  0
 12 13  1  0  0  0  0
 13 14  2  0  0  0  0
 14 15  1  0  0  0  0
 15 16  1  0  0  0  0
 15 17  1  0  0  0  0
 19 20  1  0  0  0  0
 21 22  1  0  0  0  0
 22 23  1  0  0  0  0
 23 24  1  1  0  0  0
 23 25  1  0  0  0  0
 23 31  1  0  0  0  0
 25 26  1  0  0  0  0
 25 30  2  0  0  0  0
 26 27  2  0  0  0  0
 27 28  1  0  0  0  0
 28 29  2  0  0  0  0
 29 30  1  0  0  0  0
 31 32  1  0  0  0  0
 32 33  1  0  0  0  0
 32 41  2  0  0  0  0
 33 34  1  0  0  0  0
 33 38  1  0  0  0  0
 34 35  1  0  0  0  0
 35 36  1  0  0  0  0
 36 37  1  0  0  0  0
 36 39  1  0  0  0  0
 36 40  1  0  0  0  0
 37 38  1  0  0  0  0
M  END
> <ID>
13938

> <Formula>
C29H41F2N5O

> <FW>
513.6655

> <DSSTox_CID>
28875

> <DSSTox_RID>
83144

> <DSSTox_GSID>
48949

> <DSSTox_FileID_Sort>
7821

> <TS_ChemName>
Maraviroc

> <TS_ChemName_Synonyms>


> <TS_CASRN>
376348-65-1

> <CASRN_ChemName_Relationship>
primary

> <TS_Description>
single chemical compound

> <ChemNote>


> <STRUCTURE_Shown>
tested chemical

> <STRUCTURE_Formula>
C29H41F2N5O

> <STRUCTURE_MW>
513.6655

> <STRUCTURE_ChemType>
defined organic

> <STRUCTURE_DefinedOrganicForm>
parent

> <STRUCTURE_IUPAC>
4,4-difluoro-N-[(1S)-3-{(3-exo)-3-[3-methyl-5-(propan-2-yl)-4H-1,2,4-triazol-4-yl]-8-azabicyclo[3.2.1]oct-8-yl}-1-phenylpropyl]cyclohexanecarboxamide

> <STRUCTURE_SMILES>
CC(C)c1nnc(C)n1[C@H]2C[C@@H]5CC[C@H](C2)N5CC[C@H](NC(=O)C3CCC(F)(F)CC3)c4ccccc4

> <STRUCTURE_SMILES_Desalt>
CC(C)c1nnc(C)n1[C@H]2C[C@@H]5CC[C@H](C2)N5CC[C@H](NC(=O)C3CCC(F)(F)CC3)c4ccccc4

> <Substance_modify_yyyymmdd>
20111204

$$$$
