3764-01-0
ChemmineR-0915142007XD

  9  9  0  0  0  0  0  0  0  0  1 V2000
    1.1518   -1.9857    0.0000 C    0  0  0  0  0  0  0  0  0  0  0  0
    2.3036   -1.3315    0.0000 C    0  0  0  0  0  0  0  0  0  0  0  0
    1.1518   -3.3126    0.0000 C    0  0  0  0  0  0  0  0  0  0  0  0
    3.4555   -3.3126    0.0000 C    0  0  0  0  0  0  0  0  0  0  0  0
    2.3036    0.0000    0.0000 Cl   0  0  0  0  0  0  0  0  0  0  0  0
    0.0000   -3.9853    0.0000 Cl   0  0  0  0  0  0  0  0  0  0  0  0
    4.6073   -3.9853    0.0000 Cl   0  0  0  0  0  0  0  0  0  0  0  0
    3.4555   -1.9857    0.0000 N    0  0  0  0  0  0  0  0  0  0  0  0
    2.3036   -3.9853    0.0000 N    0  0  0  0  0  0  0  0  0  0  0  0
  1  2  1  0  0  0  0
  1  3  2  0  0  0  0
  2  5  1  0  0  0  0
  2  8  2  0  0  0  0
  3  6  1  0  0  0  0
  3  9  1  0  0  0  0
  4  7  1  0  0  0  0
  4  8  1  0  0  0  0
  4  9  2  0  0  0  0
M  END
> <ID>
14150

> <Formula>
C4HCl3N2

> <FW>
183.4231

> <DSSTox_CID>
29143

> <DSSTox_RID>
83362

> <DSSTox_GSID>
49287

> <DSSTox_FileID_Sort>
8037

> <TS_ChemName>
2,4,6-Trichloropyrimidine

> <TS_ChemName_Synonyms>


> <TS_CASRN>
3764-01-0

> <CASRN_ChemName_Relationship>
primary

> <TS_Description>
single chemical compound

> <ChemNote>


> <STRUCTURE_Shown>
tested chemical

> <STRUCTURE_Formula>
C4HCl3N2

> <STRUCTURE_MW>
183.4231

> <STRUCTURE_ChemType>
defined organic

> <STRUCTURE_DefinedOrganicForm>
parent

> <STRUCTURE_IUPAC>
2,4,6-trichloropyrimidine

> <STRUCTURE_SMILES>
Clc1cc(Cl)nc(Cl)n1

> <STRUCTURE_SMILES_Desalt>
Clc1cc(Cl)nc(Cl)n1

> <Substance_modify_yyyymmdd>
20111204

$$$$
