37661-08-8
ChemmineR-0915142007XD

 35 36  0  0  1  0  0  0  0  0  1 V2000
    2.2674   -0.6424    0.0000 C    0  0  0  0  0  0  0  0  0  0  0  0
    2.2674   -1.9839    0.0000 C    0  0  0  0  0  0  0  0  0  0  0  0
    1.1337    0.0000    0.0000 C    0  0  0  0  0  0  0  0  0  0  0  0
    1.1337   -2.6453    0.0000 C    0  0  0  0  0  0  0  0  0  0  0  0
    0.0000   -0.6424    0.0000 C    0  0  0  0  0  0  0  0  0  0  0  0
    0.0000   -1.9839    0.0000 C    0  0  0  0  0  0  0  0  0  0  0  0
    3.4199   -2.6453    0.0000 C    0  0  0  0  0  0  0  0  0  0  0  0
    4.5536   -1.9839    0.0000 C    0  0  0  0  0  0  0  0  0  0  0  0
    5.7062   -2.6641    0.0000 N    0  0  0  0  0  0  0  0  0  0  0  0
    3.4199   -3.9679    0.0000 N    0  0  0  0  0  0  0  0  0  0  0  0
    4.5536   -0.6613    0.0000 O    0  0  0  0  0  0  0  0  0  0  0  0
    7.2933   -2.6641    0.0000 C    0  0  0  0  0  0  0  0  0  0  0  0
    8.6160   -3.9868    0.0000 N    0  0  0  0  0  0  0  0  0  0  0  0
    8.6160   -2.6641    0.0000 C    0  0  0  0  0  0  0  0  0  0  0  0
    7.2933   -3.9868    0.0000 C    0  0  0  0  0  0  0  0  0  0  0  0
    7.2933   -1.3415    0.0000 H    0  0  0  0  0  0  0  0  0  0  0  0
    8.6160   -1.3415    0.0000 H    0  0  0  0  0  0  0  0  0  0  0  0
    6.3675   -4.9126    0.0000 O    0  0  0  0  0  0  0  0  0  0  0  0
    9.8819   -4.3836    0.0000 C    0  0  0  0  0  0  0  0  0  0  0  0
   10.6377   -3.3066    0.0000 C    0  0  0  0  0  0  0  0  0  0  0  0
    9.8819   -2.2485    0.0000 S    0  0  0  0  0  0  0  0  0  0  0  0
   10.9022   -5.4417    0.0000 C    0  0  0  0  0  0  0  0  0  0  0  0
   12.0359   -4.7992    0.0000 O    0  0  0  0  0  0  0  0  0  0  0  0
   13.1885   -5.4417    0.0000 C    0  0  0  0  0  0  0  0  0  0  0  0
   14.3222   -4.7992    0.0000 O    0  0  0  0  0  0  0  0  0  0  0  0
   15.4747   -5.4417    0.0000 C    0  0  0  0  0  0  0  0  0  0  0  0
   16.6084   -4.7992    0.0000 O    0  0  0  0  0  0  0  0  0  0  0  0
   17.7610   -5.4417    0.0000 C    0  0  0  0  0  0  0  0  0  0  0  0
   18.8947   -4.7992    0.0000 C    0  0  0  0  0  0  0  0  0  0  0  0
   15.4747   -6.7643    0.0000 O    0  0  0  0  0  0  0  0  0  0  0  0
   10.9022   -6.7643    0.0000 O    0  0  0  0  0  0  0  0  0  0  0  0
   13.1885   -6.7643    0.0000 C    0  0  0  0  0  0  0  0  0  0  0  0
   11.7714   -2.6641    0.0000 C    0  0  0  0  0  0  0  0  0  0  0  0
   11.7714   -3.9868    0.0000 C    0  0  0  0  0  0  0  0  0  0  0  0
    7.4445   -6.6887    0.0000 Cl   0  0  0  0  0  0  0  0  0  0  0  0
  1  2  1  0  0  0  0
  1  3  2  0  0  0  0
  2  4  2  0  0  0  0
  2  7  1  0  0  0  0
  3  5  1  0  0  0  0
  4  6  1  0  0  0  0
  5  6  2  0  0  0  0
  7  8  1  0  0  0  0
  7 10  1  6  0  0  0
  8  9  1  0  0  0  0
  8 11  2  0  0  0  0
 12  9  1  1  0  0  0
 12 14  1  0  0  0  0
 12 15  1  0  0  0  0
 12 16  1  6  0  0  0
 13 15  1  0  0  0  0
 13 19  1  0  0  0  0
 13 14  1  0  0  0  0
 14 17  1  6  0  0  0
 14 21  1  0  0  0  0
 15 18  2  0  0  0  0
 19 20  1  0  0  0  0
 19 22  1  6  0  0  0
 20 21  1  0  0  0  0
 20 33  1  0  0  0  0
 20 34  1  0  0  0  0
 22 23  1  0  0  0  0
 22 31  2  0  0  0  0
 23 24  1  0  0  0  0
 24 25  1  0  0  0  0
 24 32  1  0  0  0  0
 25 26  1  0  0  0  0
 26 27  1  0  0  0  0
 26 30  2  0  0  0  0
 27 28  1  0  0  0  0
 28 29  1  0  0  0  0
M  END
> <ID>
10965

> <Formula>
C21H28ClN3O7S

> <FW>
501.9809 (465.5200+36.4609)

> <DSSTox_CID>
25466

> <DSSTox_RID>
80897

> <DSSTox_GSID>
45466

> <DSSTox_FileID_Sort>
5578

> <TS_ChemName>
Bacampicillin hydrochloride

> <TS_ChemName_Synonyms>


> <TS_CASRN>
37661-08-8

> <CASRN_ChemName_Relationship>
primary

> <TS_Description>
single chemical compound

> <ChemNote>
stereochem; parent [50972-17-3]

> <STRUCTURE_Shown>
tested chemical

> <STRUCTURE_Formula>
C21H28ClN3O7S

> <STRUCTURE_MW>
501.9809

> <STRUCTURE_ChemType>
defined organic

> <STRUCTURE_DefinedOrganicForm>
complex

> <STRUCTURE_IUPAC>
1-[(ethoxycarbonyl)oxy]ethyl (2S,5R,6R)-6-{[(2R)-2-amino-2-phenylacetyl]amino}-3,3-dimethyl-7-oxo-4-thia-1-azabicyclo[3.2.0]heptane-2-carboxylate hydrochloride (1:1)

> <STRUCTURE_SMILES>
Cl.N[C@H](c1ccccc1)C(=O)N[C@@H]3C(=O)N2[C@@H](C(=O)OC(C)OC(=O)OCC)C(C)(C)S[C@@H]23

> <STRUCTURE_SMILES_Desalt>
N[C@H](c1ccccc1)C(=O)N[C@@H]3C(=O)N2[C@@H](C(=O)OC(C)OC(=O)OCC)C(C)(C)S[C@@H]23

> <Substance_modify_yyyymmdd>
20100107

$$$$
