37686-84-3
ChemmineR-0915142007XD

 27 30  0  0  1  0  0  0  0  0  1 V2000
    3.3586   -7.8004    0.0000 C   0  0  0  0  0  0  0  0  0  0  0  0
    3.3586   -5.1972    0.0000 C   0  0  0  0  0  0  0  0  0  0  0  0
    4.4873   -5.8343    0.0000 C   0  0  0  0  0  0  0  0  0  0  0  0
    2.2482   -5.8343    0.0000 C   0  0  0  0  0  0  0  0  0  0  0  0
    5.6068   -5.1972    0.0000 N   0  0  0  0  0  0  0  0  0  0  0  0
    2.2482   -7.1541    0.0000 C   0  0  0  0  0  0  0  0  0  0  0  0
    5.6068   -1.3016    0.0000 C   0  0  0  0  0  0  0  0  0  0  0  0
    4.4873   -7.1541    0.0000 C   0  0  0  0  0  0  0  0  0  0  0  0
    3.3586   -9.1019    0.0000 C   0  0  0  0  0  0  0  0  0  0  0  0
    1.1104   -9.1019    0.0000 N   0  0  0  0  0  0  0  0  0  0  0  0
    4.4873   -1.9478    0.0000 N   0  0  0  0  0  0  0  0  0  0  0  0
    4.4873   -3.2676    0.0000 C   0  0  0  0  0  0  0  0  0  0  0  0
    1.1104   -7.8004    0.0000 C   0  0  0  0  0  0  0  0  0  0  0  0
    5.6068   -3.9047    0.0000 C   0  0  0  0  0  0  0  0  0  0  0  0
    3.3586   -3.9047    0.0000 C   0  0  0  0  0  0  0  0  0  0  0  0
    6.7354   -1.9478    0.0000 N   0  0  0  0  0  0  0  0  0  0  0  0
    5.6068    0.0000    0.0000 O   0  0  0  0  0  0  0  0  0  0  0  0
    1.1104   -5.1972    0.0000 C   0  0  0  0  0  0  0  0  0  0  0  0
    6.7354   -5.8707    0.0000 C   0  0  0  0  0  0  0  0  0  0  0  0
    0.0000   -5.8343    0.0000 C   0  0  0  0  0  0  0  0  0  0  0  0
    0.0000   -7.1541    0.0000 C   0  0  0  0  0  0  0  0  0  0  0  0
    6.7354   -3.2676    0.0000 C   0  0  0  0  0  0  0  0  0  0  0  0
    7.8459   -1.3016    0.0000 C   0  0  0  0  0  0  0  0  0  0  0  0
    7.8459   -3.9047    0.0000 C   0  0  0  0  0  0  0  0  0  0  0  0
    7.8459    0.0000    0.0000 C   0  0  0  0  0  0  0  0  0  0  0  0
    5.6068   -6.4988    0.0000 H   0  0  0  0  0  0  0  0  0  0  0  0
    2.2482   -4.5692    0.0000 H   0  0  0  0  0  0  0  0  0  0  0  0
  1  6  1  0  0  0  0
  1  8  1  0  0  0  0
  1  9  2  0  0  0  0
  2  3  1  0  0  0  0
  2 15  1  0  0  0  0
  2 27  1  6  0  0  0
  2  4  1  0  0  0  0
  3  8  1  0  0  0  0
  3  5  1  0  0  0  0
  3 26  1  1  0  0  0
  4  6  1  0  0  0  0
  4 18  2  0  0  0  0
  5 14  1  0  0  0  0
  5 19  1  0  0  0  0
  6 13  2  0  0  0  0
  7 11  1  0  0  0  0
  7 16  1  0  0  0  0
  7 17  2  0  0  0  0
  9 10  1  0  0  0  0
 10 13  1  0  0  0  0
 12 11  1  6  0  0  0
 12 14  1  0  0  0  0
 12 15  1  0  0  0  0
 13 21  1  0  0  0  0
 16 22  1  0  0  0  0
 16 23  1  0  0  0  0
 18 20  1  0  0  0  0
 20 21  2  0  0  0  0
 22 24  1  0  0  0  0
 23 25  1  0  0  0  0
M  END
> <ID>
11214

> <Formula>
C20H28N4O

> <FW>
340.4625

> <DSSTox_CID>
25809

> <DSSTox_RID>
81146

> <DSSTox_GSID>
45809

> <DSSTox_FileID_Sort>
5827

> <TS_ChemName>
Terguride

> <TS_ChemName_Synonyms>


> <TS_CASRN>
37686-84-3

> <CASRN_ChemName_Relationship>
primary

> <TS_Description>
single chemical compound

> <ChemNote>


> <STRUCTURE_Shown>
tested chemical

> <STRUCTURE_Formula>
C20H28N4O

> <STRUCTURE_MW>
340.4625

> <STRUCTURE_ChemType>
defined organic

> <STRUCTURE_DefinedOrganicForm>
parent

> <STRUCTURE_IUPAC>
1,1-diethyl-3-[(8alpha)-6-methylergolin-8-yl]urea

> <STRUCTURE_SMILES>
CCN(CC)C(=O)N[C@H]1C[C@@H]2c3cccc4ncc(C[C@H]2N(C)C1)c34

> <STRUCTURE_SMILES_Desalt>
CCN(CC)C(=O)N[C@H]1C[C@@H]2c3cccc4ncc(C[C@H]2N(C)C1)c34

> <Substance_modify_yyyymmdd>
20110909

$$$$
