37693-01-9
ChemmineR-0915142007XD

 24 25  0  0  0  0  0  0  0  0  1 V2000
    3.4252   -2.0073    0.0000 C    0  0  0  0  0  0  0  0  0  0  0  0
    2.2835   -5.3220    0.0000 C    0  0  0  0  0  0  0  0  0  0  0  0
    2.2835   -3.9869    0.0000 C    0  0  0  0  0  0  0  0  0  0  0  0
    5.7272   -2.0073    0.0000 C    0  0  0  0  0  0  0  0  0  0  0  0
    6.8781   -1.3167    0.0000 C    0  0  0  0  0  0  0  0  0  0  0  0
    4.5762   -1.3167    0.0000 C    0  0  0  0  0  0  0  0  0  0  0  0
    3.4252   -3.3240    0.0000 C    0  0  0  0  0  0  0  0  0  0  0  0
    8.0291   -2.0073    0.0000 C    0  0  0  0  0  0  0  0  0  0  0  0
    2.2835   -1.3167    0.0000 C    0  0  0  0  0  0  0  0  0  0  0  0
    2.2835   -6.6571    0.0000 C    0  0  0  0  0  0  0  0  0  0  0  0
    1.1417   -3.3240    0.0000 C    0  0  0  0  0  0  0  0  0  0  0  0
    1.1417   -7.3017    0.0000 C    0  0  0  0  0  0  0  0  0  0  0  0
    5.7272   -3.3240    0.0000 C    0  0  0  0  0  0  0  0  0  0  0  0
    1.1417   -2.0073    0.0000 C    0  0  0  0  0  0  0  0  0  0  0  0
    8.0291   -3.3240    0.0000 C    0  0  0  0  0  0  0  0  0  0  0  0
    6.8781    0.0000    0.0000 Cl   0  0  0  0  0  0  0  0  0  0  0  0
    6.8781   -3.9869    0.0000 C    0  0  0  0  0  0  0  0  0  0  0  0
    9.2076   -4.0053    0.0000 Cl   0  0  0  0  0  0  0  0  0  0  0  0
    2.2835    0.0000    0.0000 O    0  0  0  0  0  0  0  0  0  0  0  0
    3.6186   -5.3220    0.0000 C    0  0  0  0  0  0  0  0  0  0  0  0
    0.9668   -5.3220    0.0000 C    0  0  0  0  0  0  0  0  0  0  0  0
    1.8231   -8.4802    0.0000 C    0  0  0  0  0  0  0  0  0  0  0  0
    0.0000   -8.0014    0.0000 C    0  0  0  0  0  0  0  0  0  0  0  0
    0.4788   -6.1599    0.0000 C    0  0  0  0  0  0  0  0  0  0  0  0
  1  6  1  0  0  0  0
  1  7  2  0  0  0  0
  1  9  1  0  0  0  0
  2  3  1  0  0  0  0
  2 10  1  0  0  0  0
  2 20  1  0  0  0  0
  2 21  1  0  0  0  0
  3  7  1  0  0  0  0
  3 11  2  0  0  0  0
  4  6  1  0  0  0  0
  4  5  1  0  0  0  0
  4 13  2  0  0  0  0
  5  8  2  0  0  0  0
  5 16  1  0  0  0  0
  8 15  1  0  0  0  0
  9 14  2  0  0  0  0
  9 19  1  0  0  0  0
 10 12  1  0  0  0  0
 11 14  1  0  0  0  0
 12 22  1  0  0  0  0
 12 23  1  0  0  0  0
 12 24  1  0  0  0  0
 13 17  1  0  0  0  0
 15 17  2  0  0  0  0
 15 18  1  0  0  0  0
M  END
> <ID>
11271

> <Formula>
C21H26Cl2O

> <FW>
365.3365

> <DSSTox_CID>
25889

> <DSSTox_RID>
81203

> <DSSTox_GSID>
45889

> <DSSTox_FileID_Sort>
5884

> <TS_ChemName>
Clofoctol

> <TS_ChemName_Synonyms>


> <TS_CASRN>
37693-01-9

> <CASRN_ChemName_Relationship>
primary

> <TS_Description>
single chemical compound

> <ChemNote>


> <STRUCTURE_Shown>
tested chemical

> <STRUCTURE_Formula>
C21H26Cl2O

> <STRUCTURE_MW>
365.3365

> <STRUCTURE_ChemType>
defined organic

> <STRUCTURE_DefinedOrganicForm>
parent

> <STRUCTURE_IUPAC>
2-(2,4-dichlorobenzyl)-4-(2,4,4-trimethylpentan-2-yl)phenol

> <STRUCTURE_SMILES>
Clc2cc(Cl)ccc2Cc1cc(ccc1O)C(C)(C)CC(C)(C)C

> <STRUCTURE_SMILES_Desalt>
Clc2cc(Cl)ccc2Cc1cc(ccc1O)C(C)(C)CC(C)(C)C

> <Substance_modify_yyyymmdd>
20110922

$$$$
