3775-55-1
ChemmineR-0915142007XD

 14 15  0  0  0  0  0  0  0  0  2 V2000
    2.3652   -3.2915    0.0000 O   0  0  0  0  0  0  0  0  0  0  0  0
    1.1511   -2.7519    0.0000 C   0  0  0  0  0  0  0  0  0  0  0  0
    1.2950   -1.4299    0.0000 N   0  0  0  0  0  0  0  0  0  0  0  0
    2.5900   -1.1511    0.0000 N   0  0  0  0  0  0  0  0  0  0  0  0
    3.2555   -2.3022    0.0000 C   0  0  0  0  0  0  0  0  0  0  0  0
    4.5865   -2.4461    0.0000 C   0  0  0  0  0  0  0  0  0  0  0  0
    5.4768   -1.4569    0.0000 O   0  0  0  0  0  0  0  0  0  0  0  0
    6.6908   -1.9965    0.0000 C   0  0  0  0  0  0  0  0  0  0  0  0
    6.5469   -3.3184    0.0000 C   0  0  0  0  0  0  0  0  0  0  0  0
    5.2430   -3.5972    0.0000 C   0  0  0  0  0  0  0  0  0  0  0  0
    7.8419   -1.3310    0.0000 N   0  3  0  0  0  0  0  0  0  0  0  0
    7.8419    0.0000    0.0000 O   0  0  0  0  0  0  0  0  0  0  0  0
    8.9931   -1.9965    0.0000 O   0  5  0  0  0  0  0  0  0  0  0  0
    0.0000   -3.4174    0.0000 N   0  0  0  0  0  0  0  0  0  0  0  0
  1  2  1  0  0  0  0
  1  5  1  0  0  0  0
  2  3  2  0  0  0  0
  2 14  1  0  0  0  0
  3  4  1  0  0  0  0
  4  5  2  0  0  0  0
  5  6  1  0  0  0  0
  6  7  1  0  0  0  0
  6 10  2  0  0  0  0
  7  8  1  0  0  0  0
  8  9  2  0  0  0  0
  8 11  1  0  0  0  0
  9 10  1  0  0  0  0
 11 12  2  0  0  0  0
 11 13  1  0  0  0  0
M  END
> <ID>
57

> <Formula>
C6H4N4O4

> <FW>
196.1204

> <DSSTox_CID>
58

> <DSSTox_RID>
75340

> <DSSTox_GSID>
20058

> <DSSTox_FileID_Sort>
24

> <TS_ChemName>
2-Amino-5-(5-nitro-2-furyl)-1,3,4-oxadiazole

> <TS_ChemName_Synonyms>


> <TS_CASRN>
3775-55-1

> <CASRN_ChemName_Relationship>
primary

> <TS_Description>
single chemical compound

> <ChemNote>


> <STRUCTURE_Shown>
tested chemical

> <STRUCTURE_Formula>
C6H4N4O4

> <STRUCTURE_MW>
196.1204

> <STRUCTURE_ChemType>
defined organic

> <STRUCTURE_DefinedOrganicForm>
parent

> <STRUCTURE_IUPAC>
5-(5-nitrofuran-2-yl)-1,3,4-oxadiazol-2-amine

> <STRUCTURE_SMILES>
Nc1nnc(o1)c2oc(cc2)[N+]([O-])=O

> <STRUCTURE_SMILES_Desalt>
Nc1nnc(o1)c2oc(cc2)[N+]([O-])=O

> <Substance_modify_yyyymmdd>
20080429

$$$$
