37762-06-4
ChemmineR-0915142007XD

 20 22  0  0  0  0  0  0  0  0  1 V2000
    3.4750   -5.9816    0.0000 O   0  0  0  0  0  0  0  0  0  0  0  0
    4.6072   -5.3257    0.0000 C   0  0  0  0  0  0  0  0  0  0  0  0
    5.7786   -5.9816    0.0000 C   0  0  0  0  0  0  0  0  0  0  0  0
    6.9109   -5.3257    0.0000 C   0  0  0  0  0  0  0  0  0  0  0  0
    0.0000   -3.9825    0.0000 C   0  0  0  0  0  0  0  0  0  0  0  0
    0.0000   -5.3257    0.0000 C   0  0  0  0  0  0  0  0  0  0  0  0
    1.1557   -5.9816    0.0000 C   0  0  0  0  0  0  0  0  0  0  0  0
    2.3192   -5.3257    0.0000 C   0  0  0  0  0  0  0  0  0  0  0  0
    2.3192   -3.9825    0.0000 C   0  0  0  0  0  0  0  0  0  0  0  0
    1.1557   -3.3110    0.0000 C   0  0  0  0  0  0  0  0  0  0  0  0
    3.4750   -3.3110    0.0000 C   0  0  0  0  0  0  0  0  0  0  0  0
    4.6072   -3.9825    0.0000 N   0  0  0  0  0  0  0  0  0  0  0  0
    4.6072   -1.3431    0.0000 C   0  0  0  0  0  0  0  0  0  0  0  0
    3.4750   -1.9991    0.0000 N   0  0  0  0  0  0  0  0  0  0  0  0
    4.6072    0.0000    0.0000 O   0  0  0  0  0  0  0  0  0  0  0  0
    5.7786   -1.9991    0.0000 C   0  0  0  0  0  0  0  0  0  0  0  0
    5.7786   -3.3110    0.0000 C   0  0  0  0  0  0  0  0  0  0  0  0
    7.0436   -3.7405    0.0000 N   0  0  0  0  0  0  0  0  0  0  0  0
    7.8089   -2.6706    0.0000 N   0  0  0  0  0  0  0  0  0  0  0  0
    7.0436   -1.5774    0.0000 N   0  0  0  0  0  0  0  0  0  0  0  0
  1  2  1  0  0  0  0
  1  8  1  0  0  0  0
  2  3  1  0  0  0  0
  3  4  1  0  0  0  0
  5  6  2  0  0  0  0
  5 10  1  0  0  0  0
  6  7  1  0  0  0  0
  7  8  2  0  0  0  0
  8  9  1  0  0  0  0
  9 11  1  0  0  0  0
  9 10  2  0  0  0  0
 11 12  2  0  0  0  0
 11 14  1  0  0  0  0
 12 17  1  0  0  0  0
 13 16  1  0  0  0  0
 13 14  1  0  0  0  0
 13 15  2  0  0  0  0
 16 17  2  0  0  0  0
 16 20  1  0  0  0  0
 17 18  1  0  0  0  0
 18 19  1  0  0  0  0
 19 20  2  0  0  0  0
M  END
> <ID>
10831

> <Formula>
C13H13N5O2

> <FW>
271.2746

> <DSSTox_CID>
25224

> <DSSTox_RID>
80761

> <DSSTox_GSID>
45224

> <DSSTox_FileID_Sort>
5442

> <TS_ChemName>
Zaprinast

> <TS_ChemName_Synonyms>


> <TS_CASRN>
37762-06-4

> <CASRN_ChemName_Relationship>
primary

> <TS_Description>
single chemical compound

> <ChemNote>
tautomers

> <STRUCTURE_Shown>
tested chemical

> <STRUCTURE_Formula>
C13H13N5O2

> <STRUCTURE_MW>
271.2746

> <STRUCTURE_ChemType>
defined organic

> <STRUCTURE_DefinedOrganicForm>
parent

> <STRUCTURE_IUPAC>
5-(2-propoxyphenyl)-3,6-dihydro-7H-[1,2,3]triazolo[4,5-d]pyrimidin-7-one

> <STRUCTURE_SMILES>
CCCOc3ccccc3C2=Nc1nnnc1C(=O)N2

> <STRUCTURE_SMILES_Desalt>
CCCOc3ccccc3C2=Nc1nnnc1C(=O)N2

> <Substance_modify_yyyymmdd>
20100107

$$$$
