37764-25-3
ChemmineR-0915142007XD

 12 11  0  0  0  0  0  0  0  0  1 V2000
    2.3022   -3.9890    0.0000 C    0  0  0  0  0  0  0  0  0  0  0  0
    2.3022   -5.3164    0.0000 O    0  0  0  0  0  0  0  0  0  0  0  0
    1.1545   -3.3323    0.0000 C    0  0  0  0  0  0  0  0  0  0  0  0
    3.4567   -3.3323    0.0000 N    0  0  0  0  0  0  0  0  0  0  0  0
    1.1545   -1.9911    0.0000 Cl   0  0  0  0  0  0  0  0  0  0  0  0
    0.0000   -3.9890    0.0000 Cl   0  0  0  0  0  0  0  0  0  0  0  0
    4.6113   -3.9890    0.0000 C    0  0  0  0  0  0  0  0  0  0  0  0
    5.7589   -3.3323    0.0000 C    0  0  0  0  0  0  0  0  0  0  0  0
    6.9134   -3.9890    0.0000 C    0  0  0  0  0  0  0  0  0  0  0  0
    3.4567   -1.9911    0.0000 C    0  0  0  0  0  0  0  0  0  0  0  0
    2.3022   -1.3343    0.0000 C    0  0  0  0  0  0  0  0  0  0  0  0
    2.3022    0.0000    0.0000 C    0  0  0  0  0  0  0  0  0  0  0  0
  1  2  2  0  0  0  0
  1  4  1  0  0  0  0
  1  3  1  0  0  0  0
  3  5  1  0  0  0  0
  3  6  1  0  0  0  0
  4  7  1  0  0  0  0
  4 10  1  0  0  0  0
  7  8  1  0  0  0  0
  8  9  2  0  0  0  0
 10 11  1  0  0  0  0
 11 12  2  0  0  0  0
M  END
> <ID>
5571

> <Formula>
C8H11Cl2NO

> <FW>
208.085

> <DSSTox_CID>
7997

> <DSSTox_RID>
78634

> <DSSTox_GSID>
27997

> <DSSTox_FileID_Sort>
3316

> <TS_ChemName>
Dichlormid

> <TS_ChemName_Synonyms>
Dichlormid (Acetamide, 2,2-dichloro-N,N-di-2-propenyl-)

> <TS_CASRN>
37764-25-3

> <CASRN_ChemName_Relationship>
primary

> <TS_Description>
single chemical compound

> <ChemNote>


> <STRUCTURE_Shown>
tested chemical

> <STRUCTURE_Formula>
C8H11Cl2NO

> <STRUCTURE_MW>
208.085

> <STRUCTURE_ChemType>
defined organic

> <STRUCTURE_DefinedOrganicForm>
parent

> <STRUCTURE_IUPAC>
2,2-dichloro-N,N-di(prop-2-en-1-yl)acetamide

> <STRUCTURE_SMILES>
ClC(Cl)C(=O)N(CC=C)CC=C

> <STRUCTURE_SMILES_Desalt>
ClC(Cl)C(=O)N(CC=C)CC=C

> <Substance_modify_yyyymmdd>
20080429

$$$$
