3777-69-3
ChemmineR-0915142007XD

 10 10  0  0  0  0  0  0  0  0  1 V2000
    1.0835    0.0000    0.0000 O   0  0  0  0  0  0  0  0  0  0  0  0
    0.0000   -0.7829    0.0000 C   0  0  0  0  0  0  0  0  0  0  0  0
    2.1590   -0.7829    0.0000 C   0  0  0  0  0  0  0  0  0  0  0  0
    0.4192   -2.0483    0.0000 C   0  0  0  0  0  0  0  0  0  0  0  0
    1.7399   -2.0483    0.0000 C   0  0  0  0  0  0  0  0  0  0  0  0
    3.4165   -0.3717    0.0000 C   0  0  0  0  0  0  0  0  0  0  0  0
    4.3972   -1.2654    0.0000 C   0  0  0  0  0  0  0  0  0  0  0  0
    5.6546   -0.8462    0.0000 C   0  0  0  0  0  0  0  0  0  0  0  0
    6.6432   -1.7478    0.0000 C   0  0  0  0  0  0  0  0  0  0  0  0
    7.9086   -1.3286    0.0000 C   0  0  0  0  0  0  0  0  0  0  0  0
  1  2  1  0  0  0  0
  1  3  1  0  0  0  0
  2  4  2  0  0  0  0
  3  5  2  0  0  0  0
  3  6  1  0  0  0  0
  4  5  1  0  0  0  0
  6  7  1  0  0  0  0
  7  8  1  0  0  0  0
  8  9  1  0  0  0  0
  9 10  1  0  0  0  0
M  END
> <ID>
12800

> <Formula>
C9H14O

> <FW>
138.2069

> <DSSTox_CID>
27679

> <DSSTox_RID>
82496

> <DSSTox_GSID>
47679

> <DSSTox_FileID_Sort>
7177

> <TS_ChemName>
2-Pentylfuran

> <TS_ChemName_Synonyms>


> <TS_CASRN>
3777-69-3

> <CASRN_ChemName_Relationship>
primary

> <TS_Description>
single chemical compound

> <ChemNote>


> <STRUCTURE_Shown>
tested chemical

> <STRUCTURE_Formula>
C9H14O

> <STRUCTURE_MW>
138.2069

> <STRUCTURE_ChemType>
defined organic

> <STRUCTURE_DefinedOrganicForm>
parent

> <STRUCTURE_IUPAC>
2-pentylfuran

> <STRUCTURE_SMILES>
CCCCCc1ccco1

> <STRUCTURE_SMILES_Desalt>
CCCCCc1ccco1

> <Substance_modify_yyyymmdd>
20101215

$$$$
