3778-73-2
ChemmineR-0915142007XD

 14 14  0  0  0  0  0  0  0  0  1 V2000
    5.8349   -1.0293    0.0000 Cl   0  0  0  0  0  0  0  0  0  0  0  0
    4.5243   -1.2567    0.0000 C    0  0  0  0  0  0  0  0  0  0  0  0
    4.0694   -2.5075    0.0000 C    0  0  0  0  0  0  0  0  0  0  0  0
    2.7588   -2.7409    0.0000 N    0  0  0  0  0  0  0  0  0  0  0  0
    2.3040   -3.9916    0.0000 P    0  0  0  0  0  0  0  0  0  0  0  0
    3.6146   -4.2191    0.0000 O    0  0  0  0  0  0  0  0  0  0  0  0
    2.3040   -5.3202    0.0000 O    0  0  0  0  0  0  0  0  0  0  0  0
    1.1490   -5.9845    0.0000 C    0  0  0  0  0  0  0  0  0  0  0  0
    0.0000   -5.3202    0.0000 C    0  0  0  0  0  0  0  0  0  0  0  0
    0.0000   -3.9916    0.0000 C    0  0  0  0  0  0  0  0  0  0  0  0
    1.1490   -3.3274    0.0000 N    0  0  0  0  0  0  0  0  0  0  0  0
    1.1490   -1.9928    0.0000 C    0  0  0  0  0  0  0  0  0  0  0  0
    0.0000   -1.3286    0.0000 C    0  0  0  0  0  0  0  0  0  0  0  0
    0.0000    0.0000    0.0000 Cl   0  0  0  0  0  0  0  0  0  0  0  0
  1  2  1  0  0  0  0
  2  3  1  0  0  0  0
  3  4  1  0  0  0  0
  4  5  1  0  0  0  0
  5  6  2  0  0  0  0
  5  7  1  0  0  0  0
  5 11  1  0  0  0  0
  7  8  1  0  0  0  0
  8  9  1  0  0  0  0
  9 10  1  0  0  0  0
 10 11  1  0  0  0  0
 11 12  1  0  0  0  0
 12 13  1  0  0  0  0
 13 14  1  0  0  0  0
M  END
> <ID>
730

> <Formula>
C7H15Cl2N2O2P

> <FW>
261.086

> <DSSTox_CID>
760

> <DSSTox_RID>
75775

> <DSSTox_GSID>
20760

> <DSSTox_FileID_Sort>
459

> <TS_ChemName>
Ifosfamide

> <TS_ChemName_Synonyms>
Ifosfamide (Isophosphamide)

> <TS_CASRN>
3778-73-2

> <CASRN_ChemName_Relationship>
primary

> <TS_Description>
single chemical compound

> <ChemNote>


> <STRUCTURE_Shown>
tested chemical

> <STRUCTURE_Formula>
C7H15Cl2N2O2P

> <STRUCTURE_MW>
261.086

> <STRUCTURE_ChemType>
defined organic

> <STRUCTURE_DefinedOrganicForm>
parent

> <STRUCTURE_IUPAC>
N,3-bis(2-chloroethyl)-1,3,2-oxazaphosphinan-2-amine 2-oxide

> <STRUCTURE_SMILES>
O=P1(NCCCl)OCCCN1CCCl

> <STRUCTURE_SMILES_Desalt>
O=P1(NCCCl)OCCCN1CCCl

> <Substance_modify_yyyymmdd>
20080429

$$$$
