378-44-9
ChemmineR-0915142007XD

 30 33  0  0  1  0  0  0  0  0  1 V2000
    6.9519   -2.6705    0.0000 C   0  0  0  0  0  0  0  0  0  0  0  0
    4.6490   -4.0111    0.0000 C   0  0  0  0  0  0  0  0  0  0  0  0
    3.4922   -4.6706    0.0000 C   0  0  0  0  0  0  0  0  0  0  0  0
    6.9519   -4.0111    0.0000 C   0  0  0  0  0  0  0  0  0  0  0  0
    5.7950   -4.6706    0.0000 C   0  0  0  0  0  0  0  0  0  0  0  0
    8.2277   -2.2488    0.0000 C   0  0  0  0  0  0  0  0  0  0  0  0
    3.4922   -6.0113    0.0000 C   0  0  0  0  0  0  0  0  0  0  0  0
    4.6490   -2.6705    0.0000 C   0  0  0  0  0  0  0  0  0  0  0  0
    5.7950   -2.0110    0.0000 C   0  0  0  0  0  0  0  0  0  0  0  0
    9.0169   -3.3408    0.0000 C   0  0  0  0  0  0  0  0  0  0  0  0
    2.3461   -4.0111    0.0000 C   0  0  0  0  0  0  0  0  0  0  0  0
    8.2277   -4.4003    0.0000 C   0  0  0  0  0  0  0  0  0  0  0  0
    2.3461   -6.6816    0.0000 C   0  0  0  0  0  0  0  0  0  0  0  0
    8.5844   -0.9622    0.0000 C   0  0  0  0  0  0  0  0  0  0  0  0
    5.7950   -6.0113    0.0000 C   0  0  0  0  0  0  0  0  0  0  0  0
    1.1893   -4.6706    0.0000 C   0  0  0  0  0  0  0  0  0  0  0  0
    1.1893   -6.0113    0.0000 C   0  0  0  0  0  0  0  0  0  0  0  0
    4.6490   -6.6816    0.0000 C   0  0  0  0  0  0  0  0  0  0  0  0
    4.6382   -5.1247    0.0000 F   0  0  0  0  0  0  0  0  0  0  0  0
    7.6438    0.0000    0.0000 O   0  0  0  0  0  0  0  0  0  0  0  0
    0.0000   -6.6924    0.0000 O   0  0  0  0  0  0  0  0  0  0  0  0
    9.5575   -2.2488    0.0000 O   0  0  0  0  0  0  0  0  0  0  0  0
    6.9519   -1.3082    0.0000 C   0  0  0  0  0  0  0  0  0  0  0  0
    3.4705   -1.9785    0.0000 O   0  0  0  0  0  0  0  0  0  0  0  0
    3.4922   -3.3408    0.0000 C   0  0  0  0  0  0  0  0  0  0  0  0
   10.3467   -3.3300    0.0000 C   0  0  0  0  0  0  0  0  0  0  0  0
    9.8710   -0.6271    0.0000 C   0  0  0  0  0  0  0  0  0  0  0  0
   10.8116   -1.5893    0.0000 O   0  0  0  0  0  0  0  0  0  0  0  0
    5.7950   -3.3408    0.0000 H   0  0  0  0  0  0  0  0  0  0  0  0
    6.9519   -5.3410    0.0000 H   0  0  0  0  0  0  0  0  0  0  0  0
  1  4  1  0  0  0  0
  1  6  1  0  0  0  0
  1  9  1  0  0  0  0
  1 23  1  1  0  0  0
  2  8  1  0  0  0  0
  2  3  1  0  0  0  0
  2 19  1  6  0  0  0
  2  5  1  0  0  0  0
  3  7  1  0  0  0  0
  3 11  1  0  0  0  0
  3 25  1  1  0  0  0
  4  5  1  0  0  0  0
  4 12  1  0  0  0  0
  4 30  1  6  0  0  0
  5 15  1  0  0  0  0
  5 29  1  1  0  0  0
  6 10  1  0  0  0  0
  6 14  1  1  0  0  0
  6 22  1  6  0  0  0
  7 13  2  0  0  0  0
  7 18  1  0  0  0  0
  8  9  1  0  0  0  0
  8 24  1  1  0  0  0
 10 26  1  1  0  0  0
 10 12  1  0  0  0  0
 11 16  2  0  0  0  0
 13 17  1  0  0  0  0
 14 20  2  0  0  0  0
 14 27  1  0  0  0  0
 15 18  1  0  0  0  0
 16 17  1  0  0  0  0
 17 21  2  0  0  0  0
 27 28  1  0  0  0  0
M  END
> <ID>
2413

> <Formula>
C22H29FO5

> <FW>
392.4611

> <DSSTox_CID>
2667

> <DSSTox_RID>
76681

> <DSSTox_GSID>
22667

> <DSSTox_FileID_Sort>
1365

> <TS_ChemName>
Betamethasone

> <TS_ChemName_Synonyms>


> <TS_CASRN>
378-44-9

> <CASRN_ChemName_Relationship>
primary

> <TS_Description>
single chemical compound

> <ChemNote>
stereochem; tautomers

> <STRUCTURE_Shown>
tested chemical

> <STRUCTURE_Formula>
C22H29FO5

> <STRUCTURE_MW>
392.4611

> <STRUCTURE_ChemType>
defined organic

> <STRUCTURE_DefinedOrganicForm>
parent

> <STRUCTURE_IUPAC>
(11beta,16beta)-9-fluoro-11,17,21-trihydroxy-16-methylpregna-1,4-diene-3,20-dione

> <STRUCTURE_SMILES>
OCC(=O)[C@@]4(O)[C@@H](C)C[C@@H]3[C@]4(C)C[C@H](O)[C@@]2(F)[C@H]3CCC1=CC(=O)C=C[C@@]12C

> <STRUCTURE_SMILES_Desalt>
OCC(=O)[C@@]4(O)[C@@H](C)C[C@@H]3[C@]4(C)C[C@H](O)[C@@]2(F)[C@H]3CCC1=CC(=O)C=C[C@@]12C

> <Substance_modify_yyyymmdd>
20080815

$$$$
