37883-00-4
ChemmineR-0915142007XD

 55 55  0  0  1  0  0  0  0  0  1 V2000
   12.6022   -7.9530    0.0000 C   0  0  0  0  0  0  0  0  0  0  0  0
   10.3469   -7.9530    0.0000 N   0  0  0  0  0  0  0  0  0  0  0  0
    9.1598   -8.6059    0.0000 C   0  0  0  0  0  0  0  0  0  0  0  0
   12.6022   -6.5880    0.0000 N   0  0  0  0  0  0  0  0  0  0  0  0
   11.4745   -8.6059    0.0000 C   0  0  0  0  0  0  0  0  0  0  0  0
   10.3469  -11.9493    0.0000 C   0  0  0  0  0  0  0  0  0  0  0  0
    9.1598  -12.5824    0.0000 N   0  0  0  0  0  0  0  0  0  0  0  0
   12.6022   -3.9963    0.0000 N   0  0  0  0  0  0  0  0  0  0  0  0
   10.3666   -2.6510    0.0000 N   0  0  0  0  0  0  0  0  0  0  0  0
    9.1598   -9.9710    0.0000 C   0  0  0  0  0  0  0  0  0  0  0  0
   13.7694   -5.9549    0.0000 C   0  0  0  0  0  0  0  0  0  0  0  0
   12.6022   -2.6510    0.0000 C   0  0  0  0  0  0  0  0  0  0  0  0
   10.3666   -3.9963    0.0000 C   0  0  0  0  0  0  0  0  0  0  0  0
   10.3469  -10.5645    0.0000 N   0  0  0  0  0  0  0  0  0  0  0  0
   11.4745   -1.9981    0.0000 C   0  0  0  0  0  0  0  0  0  0  0  0
   13.7694   -4.6492    0.0000 C   0  0  0  0  0  0  0  0  0  0  0  0
    8.0322   -7.9530    0.0000 C   0  0  0  0  0  0  0  0  0  0  0  0
    9.2192   -4.6492    0.0000 C   0  0  0  0  0  0  0  0  0  0  0  0
    8.0322   -6.5880    0.0000 N   0  0  0  0  0  0  0  0  0  0  0  0
    8.0322  -10.5645    0.0000 C   0  0  0  0  0  0  0  0  0  0  0  0
    6.9441   -4.5700    0.0000 C   0  0  0  0  0  0  0  0  0  0  0  0
   13.7694   -8.6059    0.0000 C   0  0  0  0  0  0  0  0  0  0  0  0
    8.0322  -11.9493    0.0000 C   0  0  0  0  0  0  0  0  0  0  0  0
    5.8164   -3.9567    0.0000 C   0  0  0  0  0  0  0  0  0  0  0  0
    8.1113   -3.9567    0.0000 N   0  0  0  0  0  0  0  0  0  0  0  0
   16.1039   -8.6257    0.0000 C   0  0  0  0  0  0  0  0  0  0  0  0
   14.8773   -7.9530    0.0000 N   0  0  0  0  0  0  0  0  0  0  0  0
   11.5141  -12.5824    0.0000 N   0  0  0  0  0  0  0  0  0  0  0  0
    9.2192   -5.9549    0.0000 C   0  0  0  0  0  0  0  0  0  0  0  0
    4.7085   -4.5700    0.0000 C   0  0  0  0  0  0  0  0  0  0  0  0
   11.4745   -9.9710    0.0000 O   0  0  0  0  0  0  0  0  0  0  0  0
   13.7694   -1.9981    0.0000 O   0  0  0  0  0  0  0  0  0  0  0  0
   11.4745   -4.6492    0.0000 O   0  0  0  0  0  0  0  0  0  0  0  0
   14.8773   -6.5880    0.0000 O   0  0  0  0  0  0  0  0  0  0  0  0
    6.8451   -8.6257    0.0000 O   0  0  0  0  0  0  0  0  0  0  0  0
   16.1039   -9.9710    0.0000 O   0  0  0  0  0  0  0  0  0  0  0  0
    6.9441   -5.9153    0.0000 O   0  0  0  0  0  0  0  0  0  0  0  0
   17.2909   -7.9530    0.0000 N   0  0  0  0  0  0  0  0  0  0  0  0
    3.4819   -3.8974    0.0000 C   0  0  0  0  0  0  0  0  0  0  0  0
    4.7085   -5.9153    0.0000 N   0  0  0  0  0  0  0  0  0  0  0  0
    6.8451  -12.5824    0.0000 O   0  0  0  0  0  0  0  0  0  0  0  0
   14.8773   -3.9963    0.0000 C   0  0  0  0  0  0  0  0  0  0  0  0
   11.4745   -0.6529    0.0000 C   0  0  0  0  0  0  0  0  0  0  0  0
    2.3345   -4.5700    0.0000 C   0  0  0  0  0  0  0  0  0  0  0  0
    0.0000   -4.5700    0.0000 N   0  0  0  0  0  0  0  0  0  0  0  0
   12.6022    0.0000    0.0000 O   0  0  0  0  0  0  0  0  0  0  0  0
   14.8773   -2.6510    0.0000 O   0  0  0  0  0  0  0  0  0  0  0  0
    1.1475   -3.9567    0.0000 C   0  0  0  0  0  0  0  0  0  0  0  0
    7.9332   -9.3775    0.0000 H   0  0  0  0  0  0  0  0  0  0  0  0
   10.3073   -9.2785    0.0000 H   0  0  0  0  0  0  0  0  0  0  0  0
   18.4582   -4.5898    0.0000 S   0  0  0  0  0  0  0  0  0  0  0  0
   19.7837   -4.5898    0.0000 O   0  0  0  0  0  0  0  0  0  0  0  0
   17.1129   -4.5898    0.0000 O   0  0  0  0  0  0  0  0  0  0  0  0
   18.4582   -5.9153    0.0000 O   0  0  0  0  0  0  0  0  0  0  0  0
   18.4582   -3.2643    0.0000 O   0  0  0  0  0  0  0  0  0  0  0  0
  1  4  1  0  0  0  0
  1  5  1  0  0  0  0
  1 22  2  0  0  0  0
  2  5  1  0  0  0  0
  2  3  1  0  0  0  0
  3 10  1  0  0  0  0
  3 17  1  0  0  0  0
  3 50  1  6  0  0  0
  4 11  1  0  0  0  0
  5 31  2  0  0  0  0
  6 14  1  0  0  0  0
  6 28  1  0  0  0  0
  6  7  2  0  0  0  0
  7 23  1  0  0  0  0
  8 16  1  0  0  0  0
  8 12  1  0  0  0  0
  9 15  1  0  0  0  0
  9 13  1  0  0  0  0
 10 14  1  0  0  0  0
 10 20  1  0  0  0  0
 10 49  1  1  0  0  0
 11 16  1  0  0  0  0
 11 34  2  0  0  0  0
 12 15  1  0  0  0  0
 12 32  2  0  0  0  0
 13 18  1  0  0  0  0
 13 33  2  0  0  0  0
 15 43  1  1  0  0  0
 16 42  1  1  0  0  0
 17 19  1  0  0  0  0
 17 35  2  0  0  0  0
 18 29  1  6  0  0  0
 18 25  1  0  0  0  0
 19 29  1  0  0  0  0
 20 23  1  0  0  0  0
 21 25  1  0  0  0  0
 21 24  1  0  0  0  0
 21 37  2  0  0  0  0
 22 27  1  0  0  0  0
 23 41  1  1  0  0  0
 24 30  1  0  0  0  0
 26 27  1  0  0  0  0
 26 36  2  0  0  0  0
 26 38  1  0  0  0  0
 30 39  1  0  0  0  0
 30 40  1  1  0  0  0
 39 44  1  0  0  0  0
 42 47  1  0  0  0  0
 43 46  1  0  0  0  0
 44 48  1  0  0  0  0
 45 48  1  0  0  0  0
 51 52  2  0  0  0  0
 51 53  2  0  0  0  0
 51 54  1  0  0  0  0
 51 55  1  0  0  0  0
M  END
> <ID>
11583

> <Formula>
C25H45N13O14S

> <FW>
783.7685 (685.6900+98.0785)

> <DSSTox_CID>
26290

> <DSSTox_RID>
81516

> <DSSTox_GSID>
46290

> <DSSTox_FileID_Sort>
6197

> <TS_ChemName>
Viomycin sulfate

> <TS_ChemName_Synonyms>


> <TS_CASRN>
37883-00-4

> <CASRN_ChemName_Relationship>
primary

> <TS_Description>
single chemical compound

> <ChemNote>
stereochem; tautomers; parent [32988-50-4]

> <STRUCTURE_Shown>
tested chemical

> <STRUCTURE_Formula>
C25H45N13O14S

> <STRUCTURE_MW>
783.7685

> <STRUCTURE_ChemType>
defined organic

> <STRUCTURE_DefinedOrganicForm>
complex

> <STRUCTURE_IUPAC>
(3S)-3,6-diamino-N-[(3S,6Z,9S,12S,15S)-3-[(4R,6S)-2-amino-6-hydroxy-3,4,5,6-tetrahydropyrimidin-4-yl]-6-[(carbamoylamino)methylidene]-9,12-bis(hydroxymethyl)-2,5,8,11,14-pentaoxo-1,4,7,10,13-pentaazacyclohexadecan-15-yl]hexanamide sulfate (1:1)

> <STRUCTURE_SMILES>
O=S(=O)(O)O.NCCC[C@H](N)CC(=O)N[C@H]1CNC(=O)[C@@H](NC(=O)C(\NC(=O)[C@H](CO)NC(=O)[C@H](CO)NC1=O)=C\NC(N)=O)[C@H]2C[C@H](O)N=C(N)N2

> <STRUCTURE_SMILES_Desalt>
NCCC[C@H](N)CC(=O)N[C@H]1CNC(=O)[C@@H](NC(=O)C(\NC(=O)[C@H](CO)NC(=O)[C@H](CO)NC1=O)=C\NC(N)=O)[C@H]2C[C@H](O)N=C(N)N2

> <Substance_modify_yyyymmdd>
20110815

$$$$
