379-52-2
ChemmineR-0915142007XD

 20 22  0  0  0  0  0  0  0  0  1 V2000
    4.0061   -3.9901    0.0000 Sn   0  0  0  0  0  0  0  0  0  0  0  0
    0.6624   -5.1393    0.0000 C    0  0  0  0  0  0  0  0  0  0  0  0
    0.0000   -3.9901    0.0000 C    0  0  0  0  0  0  0  0  0  0  0  0
    0.6624   -2.8410    0.0000 C    0  0  0  0  0  0  0  0  0  0  0  0
    2.0030   -2.8410    0.0000 C    0  0  0  0  0  0  0  0  0  0  0  0
    2.6654   -3.9901    0.0000 C    0  0  0  0  0  0  0  0  0  0  0  0
    2.0030   -5.1393    0.0000 C    0  0  0  0  0  0  0  0  0  0  0  0
    5.1393   -7.3179    0.0000 C    0  0  0  0  0  0  0  0  0  0  0  0
    4.0061   -7.9802    0.0000 C    0  0  0  0  0  0  0  0  0  0  0  0
    2.8410   -7.3179    0.0000 C    0  0  0  0  0  0  0  0  0  0  0  0
    2.8410   -5.9932    0.0000 C    0  0  0  0  0  0  0  0  0  0  0  0
    4.0061   -5.3148    0.0000 C    0  0  0  0  0  0  0  0  0  0  0  0
    5.1393   -5.9932    0.0000 C    0  0  0  0  0  0  0  0  0  0  0  0
    2.8410   -0.6624    0.0000 C    0  0  0  0  0  0  0  0  0  0  0  0
    4.0061    0.0000    0.0000 C    0  0  0  0  0  0  0  0  0  0  0  0
    5.1393   -0.6624    0.0000 C    0  0  0  0  0  0  0  0  0  0  0  0
    5.1393   -2.0030    0.0000 C    0  0  0  0  0  0  0  0  0  0  0  0
    4.0061   -2.6494    0.0000 C    0  0  0  0  0  0  0  0  0  0  0  0
    2.8410   -2.0030    0.0000 C    0  0  0  0  0  0  0  0  0  0  0  0
    5.3308   -3.9901    0.0000 F    0  0  0  0  0  0  0  0  0  0  0  0
  1  6  1  0  0  0  0
  1 12  1  0  0  0  0
  1 18  1  0  0  0  0
  1 20  1  0  0  0  0
  2  7  2  0  0  0  0
  2  3  1  0  0  0  0
  3  4  2  0  0  0  0
  4  5  1  0  0  0  0
  5  6  2  0  0  0  0
  6  7  1  0  0  0  0
  8 13  2  0  0  0  0
  8  9  1  0  0  0  0
  9 10  2  0  0  0  0
 10 11  1  0  0  0  0
 11 12  2  0  0  0  0
 12 13  1  0  0  0  0
 14 19  2  0  0  0  0
 14 15  1  0  0  0  0
 15 16  2  0  0  0  0
 16 17  1  0  0  0  0
 17 18  2  0  0  0  0
 18 19  1  0  0  0  0
M  END
> <ID>
9406

> <Formula>
C18H15FSn

> <FW>
369.0201

> <DSSTox_CID>
22500

> <DSSTox_RID>
80041

> <DSSTox_GSID>
42500

> <DSSTox_FileID_Sort>
4723

> <TS_ChemName>
Triphenyltin fluoride

> <TS_ChemName_Synonyms>


> <TS_CASRN>
379-52-2

> <CASRN_ChemName_Relationship>
primary

> <TS_Description>
single chemical compound

> <ChemNote>


> <STRUCTURE_Shown>
tested chemical

> <STRUCTURE_Formula>
C18H15FSn

> <STRUCTURE_MW>
369.0201

> <STRUCTURE_ChemType>
organometallic

> <STRUCTURE_DefinedOrganicForm>


> <STRUCTURE_IUPAC>
fluoro(triphenyl)stannane

> <STRUCTURE_SMILES>
F[Sn](c1ccccc1)(c2ccccc2)c3ccccc3

> <STRUCTURE_SMILES_Desalt>
F[Sn](c1ccccc1)(c2ccccc2)c3ccccc3

> <Substance_modify_yyyymmdd>
20080825

$$$$
